F0001-0277
  Mrv2219 10102508112D          

 13 13  0  0  0  0            999 V2000
    2.4468    0.3841    0.0000 C   0  0  0  0  0  0  0  0  0  0  0  0
    1.7328   -0.0293    0.0000 C   0  0  0  0  0  0  0  0  0  0  0  0
    3.1691   -0.0251    0.0000 C   0  0  0  0  0  0  0  0  0  0  0  0
    3.8830    0.3966    0.0000 C   0  0  0  0  0  0  0  0  0  0  0  0
    1.7328   -0.8643    0.0000 C   0  0  0  0  0  0  0  0  0  0  0  0
    1.0188    0.3841    0.0000 C   0  0  0  0  0  0  0  0  0  0  0  0
    3.8747    1.2233    0.0000 O   0  0  0  0  0  0  0  0  0  0  0  0
    1.0188   -1.2776    0.0000 C   0  0  0  0  0  0  0  0  0  0  0  0
    0.3048   -0.0293    0.0000 C   0  0  0  0  0  0  0  0  0  0  0  0
    2.4509   -1.2776    0.0000 F   0  0  0  0  0  0  0  0  0  0  0  0
    4.6012   -0.0125    0.0000 O   0  0  0  0  0  0  0  0  0  0  0  0
    0.3048   -0.8643    0.0000 C   0  0  0  0  0  0  0  0  0  0  0  0
   -0.4091    0.3758    0.0000 F   0  0  0  0  0  0  0  0  0  0  0  0
  2  1  1  0  0  0  0
  3  1  2  0  0  0  0
  4  3  1  0  0  0  0
  5  2  1  0  0  0  0
  6  2  2  0  0  0  0
  7  4  2  0  0  0  0
  8  5  2  0  0  0  0
  9  6  1  0  0  0  0
 10  5  1  0  0  0  0
 11  4  1  0  0  0  0
 12  9  2  0  0  0  0
 13  9  1  0  0  0  0
 12  8  1  0  0  0  0
M  END
>  <IDNUMBER>
F0001-0277

>  <Chemical_Name>
(2E)-3-(2,5-difluorophenyl)prop-2-enoic acid

>  <PriceCoeff>
1.00

>  <CAS>
112898-33-6

>  <MW>
184.14

>  <Description>
solid

>  <FSP3>
0.00

>  <clogP>
2.06

>  <TPSA>
37.30

>  <Acceptor>
2

>  <Donor>
0

>  <RotBonds>
2

>  <HAC>
13

>  <Collection>
General

>  <PPDS>
+

$$$$
F0001-0330
  Mrv2219 10102508112D          

 14 14  0  0  0  0            999 V2000
    6.5035   -2.0298    0.0000 C   0  0  0  0  0  0  0  0  0  0  0  0
    3.6536   -3.6908    0.0000 C   0  0  0  0  0  0  0  0  0  0  0  0
    4.3661   -3.2725    0.0000 C   0  0  0  0  0  0  0  0  0  0  0  0
    5.7910   -2.4399    0.0000 C   0  0  0  0  0  0  0  0  0  0  0  0
    3.6536   -4.5152    0.0000 O   0  0  0  0  0  0  0  0  0  0  0  0
    6.5035   -1.1972    0.0000 O   0  0  0  0  0  0  0  0  0  0  0  0
    5.7827   -3.2725    0.0000 C   0  0  0  0  0  0  0  0  0  0  0  0
    5.0620   -2.0380    0.0000 C   0  0  0  0  0  0  0  0  0  0  0  0
    4.3743   -2.4399    0.0000 C   0  0  0  0  0  0  0  0  0  0  0  0
    5.0868   -3.6702    0.0000 C   0  0  0  0  0  0  0  0  0  0  0  0
    2.9370   -3.2807    0.0000 O   0  0  0  0  0  0  0  0  0  0  0  0
    7.2201   -2.4274    0.0000 O   0  0  0  0  0  0  0  0  0  0  0  0
    2.2120   -3.7033    0.0000 C   0  0  0  0  0  0  0  0  0  0  0  0
    7.9285   -2.0132    0.0000 C   0  0  0  0  0  0  0  0  0  0  0  0
  2  3  1  0  0  0  0
  3  9  1  0  0  0  0
  4  1  1  0  0  0  0
  5  2  2  0  0  0  0
  6  1  2  0  0  0  0
  7  4  2  0  0  0  0
  8  4  1  0  0  0  0
  9  8  2  0  0  0  0
 10  7  1  0  0  0  0
 11  2  1  0  0  0  0
 12  1  1  0  0  0  0
 13 11  1  0  0  0  0
 14 12  1  0  0  0  0
 10  3  2  0  0  0  0
M  END
>  <IDNUMBER>
F0001-0330

>  <Chemical_Name>
1,4-dimethyl benzene-1,4-dicarboxylate

>  <PriceCoeff>
1.00

>  <CAS>
120-61-6

>  <MW>
194.19

>  <Description>
solid

>  <FSP3>
0.20

>  <clogP>
1.26

>  <TPSA>
52.60

>  <Acceptor>
4

>  <Donor>
0

>  <RotBonds>
4

>  <HAC>
14

>  <Collection>
General

$$$$
F0001-0518
  Mrv2219 10102508112D          

  9  9  0  0  0  0            999 V2000
   11.8125  -12.2542    0.0000 C   0  0  0  0  0  0  0  0  0  0  0  0
   11.0917  -12.6625    0.0000 O   0  0  0  0  0  0  0  0  0  0  0  0
   11.8167   -9.7750    0.0000 N   0  0  0  0  0  0  0  0  0  0  0  0
   11.8167  -11.4292    0.0000 C   0  0  0  0  0  0  0  0  0  0  0  0
   12.5250  -12.6667    0.0000 N   0  0  0  0  0  0  0  0  0  0  0  0
   11.1042  -10.1875    0.0000 C   0  0  0  0  0  0  0  0  0  0  0  0
   12.5292  -10.1875    0.0000 C   0  0  0  0  0  0  0  0  0  0  0  0
   12.5292  -11.0167    0.0000 C   0  0  0  0  0  0  0  0  0  0  0  0
   11.1042  -11.0167    0.0000 C   0  0  0  0  0  0  0  0  0  0  0  0
  2  1  2  0  0  0  0
  3  6  1  0  0  0  0
  4  1  1  0  0  0  0
  5  1  1  0  0  0  0
  6  9  2  0  0  0  0
  7  8  1  0  0  0  0
  8  4  2  0  0  0  0
  9  4  1  0  0  0  0
  3  7  2  0  0  0  0
M  END
>  <IDNUMBER>
F0001-0518

>  <Chemical_Name>
pyridine-4-carboxamide

>  <PriceCoeff>
1.00

>  <CAS>
1453-82-3

>  <MW>
122.13

>  <Description>
solid

>  <FSP3>
0.00

>  <clogP>
0.18

>  <TPSA>
55.98

>  <Acceptor>
2

>  <Donor>
2

>  <RotBonds>
1

>  <HAC>
9

>  <Collection>
General

$$$$
F0001-0533
  Mrv2219 10102508112D          

  9  9  0  0  0  0            999 V2000
    3.3110    1.1106    0.0000 C   0  0  0  0  0  0  0  0  0  0  0  0
    4.0250    0.6972    0.0000 C   0  0  0  0  0  0  0  0  0  0  0  0
    2.5971    0.6889    0.0000 C   0  0  0  0  0  0  0  0  0  0  0  0
    4.7390    1.1106    0.0000 O   0  0  0  0  0  0  0  0  0  0  0  0
    1.8831    1.1023    0.0000 O   0  0  0  0  0  0  0  0  0  0  0  0
    3.3110   -0.5511    0.0000 C   0  0  0  0  0  0  0  0  0  0  0  0
    4.0250   -0.1378    0.0000 C   0  0  0  0  0  0  0  0  0  0  0  0
    2.5971   -0.1378    0.0000 C   0  0  0  0  0  0  0  0  0  0  0  0
    1.1649    0.6889    0.0000 C   0  0  0  0  0  0  0  0  0  0  0  0
  2  1  2  0  0  0  0
  3  1  1  0  0  0  0
  4  2  1  0  0  0  0
  5  3  1  0  0  0  0
  6  8  1  0  0  0  0
  7  2  1  0  0  0  0
  8  3  2  0  0  0  0
  9  5  1  0  0  0  0
  6  7  2  0  0  0  0
M  END
>  <IDNUMBER>
F0001-0533

>  <Chemical_Name>
3-methoxyphenol

>  <PriceCoeff>
1.00

>  <CAS>
150-19-6

>  <MW>
124.14

>  <Description>
liquid

>  <FSP3>
0.14

>  <clogP>
1.40

>  <TPSA>
29.46

>  <Acceptor>
2

>  <Donor>
1

>  <RotBonds>
1

>  <HAC>
9

>  <Collection>
General

$$$$
F0001-1297
  Mrv2219 10102508112D          

  8  9  0  0  0  0            999 V2000
    1.1268   -0.9307    0.0000 C   0  0  0  0  0  0  0  0  0  0  0  0
    0.3297   -0.7178    0.0000 C   0  0  0  0  0  0  0  0  0  0  0  0
    0.8263   -1.9323    0.0000 C   0  0  0  0  0  0  0  0  0  0  0  0
    0.1127    0.0834    0.0000 C   0  0  0  0  0  0  0  0  0  0  0  0
    1.8446   -0.5300    0.0000 O   0  0  0  0  0  0  0  0  0  0  0  0
    0.1127   -1.5191    0.0000 C   0  0  0  0  0  0  0  0  0  0  0  0
   -0.4716   -0.9390    0.0000 C   0  0  0  0  0  0  0  0  0  0  0  0
   -0.6844   -1.7320    0.0000 C   0  0  0  0  0  0  0  0  0  0  0  0
  2  1  1  0  0  0  0
  3  1  1  0  0  0  0
  4  2  1  0  0  0  0
  5  1  2  0  0  0  0
  6  3  1  0  0  0  0
  7  2  1  0  0  0  0
  8  6  1  0  0  0  0
  4  6  1  0  0  0  0
  8  7  1  0  0  0  0
M  END
>  <IDNUMBER>
F0001-1297

>  <Chemical_Name>
bicyclo[2.2.1]heptan-2-one

>  <PriceCoeff>
1.00

>  <MW>
110.16

>  <Description>
solid

>  <FSP3>
0.86

>  <clogP>
1.38

>  <TPSA>
17.07

>  <Acceptor>
1

>  <Donor>
0

>  <RotBonds>
0

>  <HAC>
8

>  <Collection>
General

$$$$
F0001-1304
  Mrv2219 10102508112D          

 11 11  0  0  0  0            999 V2000
    0.6414   -0.2832    0.0000 C   0  0  0  0  0  0  0  0  0  0  0  0
    0.6414   -1.1120    0.0000 C   0  0  0  0  0  0  0  0  0  0  0  0
   -0.0750    0.1291    0.0000 C   0  0  0  0  0  0  0  0  0  0  0  0
   -0.7871   -1.1120    0.0000 C   0  0  0  0  0  0  0  0  0  0  0  0
   -0.0750   -1.5242    0.0000 C   0  0  0  0  0  0  0  0  0  0  0  0
   -0.7871   -0.2874    0.0000 C   0  0  0  0  0  0  0  0  0  0  0  0
    1.3535    0.1332    0.0000 O   0  0  0  0  0  0  0  0  0  0  0  0
   -0.0833   -2.3488    0.0000 O   0  0  0  0  0  0  0  0  0  0  0  0
   -1.5076    0.1332    0.0000 O   0  0  0  0  0  0  0  0  0  0  0  0
   -0.0875   -3.1692    0.0000 C   0  0  0  0  0  0  0  0  0  0  0  0
   -2.2239    0.5455    0.0000 C   0  0  0  0  0  0  0  0  0  0  0  0
  2  1  1  0  0  0  0
  3  1  2  0  0  0  0
  4  6  2  0  0  0  0
  5  2  2  0  0  0  0
  6  3  1  0  0  0  0
  7  1  1  0  0  0  0
  8  5  1  0  0  0  0
  9  6  1  0  0  0  0
 10  8  1  0  0  0  0
 11  9  1  0  0  0  0
  5  4  1  0  0  0  0
M  END
>  <IDNUMBER>
F0001-1304

>  <Chemical_Name>
3,5-dimethoxyphenol

>  <PriceCoeff>
1.00

>  <CAS>
500-99-2

>  <MW>
154.17

>  <Description>
solid

>  <FSP3>
0.25

>  <clogP>
1.41

>  <TPSA>
38.69

>  <Acceptor>
3

>  <Donor>
1

>  <RotBonds>
2

>  <HAC>
11

>  <Collection>
General

>  <PPDS>
+

$$$$
F0001-1662
  Mrv2219 10102508112D          

 10 10  0  0  0  0            999 V2000
    2.4127   -0.5597    0.0000 C   0  0  0  0  0  0  0  0  0  0  0  0
    0.9867   -1.3847    0.0000 C   0  0  0  0  0  0  0  0  0  0  0  0
    2.4127   -1.3847    0.0000 C   0  0  0  0  0  0  0  0  0  0  0  0
    1.6956   -0.1492    0.0000 C   0  0  0  0  0  0  0  0  0  0  0  0
    1.6956   -1.7951    0.0000 C   0  0  0  0  0  0  0  0  0  0  0  0
    0.9867   -0.5597    0.0000 C   0  0  0  0  0  0  0  0  0  0  0  0
    3.1216   -0.1410    0.0000 O   0  0  0  0  0  0  0  0  0  0  0  0
    0.2778   -1.7951    0.0000 O   0  0  0  0  0  0  0  0  0  0  0  0
   -0.4311   -1.3847    0.0000 C   0  0  0  0  0  0  0  0  0  0  0  0
   -1.1442   -1.7951    0.0000 C   0  0  0  0  0  0  0  0  0  0  0  0
  2  6  2  0  0  0  0
  3  1  1  0  0  0  0
  4  1  2  0  0  0  0
  5  3  2  0  0  0  0
  6  4  1  0  0  0  0
  7  1  1  0  0  0  0
  8  2  1  0  0  0  0
  9  8  1  0  0  0  0
 10  9  1  0  0  0  0
  5  2  1  0  0  0  0
M  END
>  <IDNUMBER>
F0001-1662

>  <Chemical_Name>
4-ethoxyphenol

>  <PriceCoeff>
1.00

>  <CAS>
622-62-8

>  <MW>
138.17

>  <Description>
solid

>  <FSP3>
0.25

>  <clogP>
1.79

>  <TPSA>
29.46

>  <Acceptor>
2

>  <Donor>
1

>  <RotBonds>
2

>  <HAC>
10

>  <Collection>
General

>  <PPDS>
+

$$$$
F0001-2175
  Mrv2219 10102508112D          

  9  9  0  0  0  0            999 V2000
   -0.6458   -1.1167    0.0000 C   0  0  0  0  0  0  0  0  0  0  0  0
   -0.6458   -0.2917    0.0000 C   0  0  0  0  0  0  0  0  0  0  0  0
    0.0750   -1.5292    0.0000 O   0  0  0  0  0  0  0  0  0  0  0  0
   -1.3500    0.9375    0.0000 O   0  0  0  0  0  0  0  0  0  0  0  0
   -1.3583   -1.5292    0.0000 O   0  0  0  0  0  0  0  0  0  0  0  0
   -1.3500    0.1125    0.0000 C   0  0  0  0  0  0  0  0  0  0  0  0
    0.0667    0.1125    0.0000 C   0  0  0  0  0  0  0  0  0  0  0  0
   -0.6458    1.3583    0.0000 C   0  0  0  0  0  0  0  0  0  0  0  0
    0.0667    0.9375    0.0000 C   0  0  0  0  0  0  0  0  0  0  0  0
  2  1  1  0  0  0  0
  3  1  2  0  0  0  0
  4  6  1  0  0  0  0
  5  1  1  0  0  0  0
  6  2  1  0  0  0  0
  7  2  1  0  0  0  0
  8  9  1  0  0  0  0
  9  7  1  0  0  0  0
  8  4  1  0  0  0  0
M  END
>  <IDNUMBER>
F0001-2175

>  <Chemical_Name>
oxane-3-carboxylic acid

>  <PriceCoeff>
1.00

>  <CAS>
873397-34-3

>  <MW>
130.14

>  <Description>
liquid

>  <FSP3>
0.83

>  <clogP>
0.50

>  <TPSA>
46.53

>  <Acceptor>
3

>  <Donor>
0

>  <RotBonds>
1

>  <HAC>
9

>  <Collection>
General

>  <PPDS>
+

$$$$
F0001-2378
  Mrv2219 10102508112D          

 25 27  0  0  0  0            999 V2000
   -4.2091    0.7753    0.0000 C   0  0  0  0  0  0  0  0  0  0  0  0
   -3.4948    2.0205    0.0000 N   0  0  0  0  0  0  0  0  0  0  0  0
   -2.7805    0.7753    0.0000 C   0  0  0  0  0  0  0  0  0  0  0  0
   -2.7805    1.6003    0.0000 C   0  0  0  0  0  0  0  0  0  0  0  0
   -3.4948    0.3628    0.0000 C   0  0  0  0  0  0  0  0  0  0  0  0
   -4.2091    1.6003    0.0000 C   0  0  0  0  0  0  0  0  0  0  0  0
   -2.0586    2.0205    0.0000 C   0  0  0  0  0  0  0  0  0  0  0  0
   -1.3482    1.6003    0.0000 C   0  0  0  0  0  0  0  0  0  0  0  0
   -3.4948    2.8455    0.0000 C   0  0  0  0  0  0  0  0  0  0  0  0
   -2.0586    0.3628    0.0000 C   0  0  0  0  0  0  0  0  0  0  0  0
   -4.9232    0.3628    0.0000 C   0  0  0  0  0  0  0  0  0  0  0  0
   -1.3482    0.7753    0.0000 C   0  0  0  0  0  0  0  0  0  0  0  0
   -0.6264    2.0205    0.0000 N   0  0  0  0  0  0  0  0  0  0  0  0
   -3.9073    3.5635    0.0000 C   0  0  0  0  0  0  0  0  0  0  0  0
   -3.0823    3.5635    0.0000 C   0  0  0  0  0  0  0  0  0  0  0  0
   -3.4948   -0.4622    0.0000 O   0  0  0  0  0  0  0  0  0  0  0  0
    0.8021    2.8455    0.0000 N   0  0  0  0  0  0  0  0  0  0  0  0
   -5.6413    0.7753    0.0000 O   0  0  0  0  0  0  0  0  0  0  0  0
   -0.6264    0.3628    0.0000 F   0  0  0  0  0  0  0  0  0  0  0  0
   -4.9232   -0.4622    0.0000 O   0  0  0  0  0  0  0  0  0  0  0  0
   -0.6264    2.8455    0.0000 C   0  0  0  0  0  0  0  0  0  0  0  0
    0.0878    1.6003    0.0000 C   0  0  0  0  0  0  0  0  0  0  0  0
    0.8021    2.0205    0.0000 C   0  0  0  0  0  0  0  0  0  0  0  0
    0.0878    3.2542    0.0000 C   0  0  0  0  0  0  0  0  0  0  0  0
    2.1656    1.4972    0.0000 Cl  0  0  0  0  0  0  0  0  0  0  0  0
  3  5  1  0  0  0  0
  4  2  1  0  0  0  0
  5  1  1  0  0  0  0
  6  1  2  0  0  0  0
  7  4  2  0  0  0  0
  8  7  1  0  0  0  0
  9  2  1  0  0  0  0
 10  3  2  0  0  0  0
 11  1  1  0  0  0  0
 12 10  1  0  0  0  0
 13  8  1  0  0  0  0
 14  9  1  0  0  0  0
 15  9  1  0  0  0  0
 16  5  2  0  0  0  0
 17 23  1  0  0  0  0
 18 11  2  0  0  0  0
 19 12  1  0  0  0  0
 20 11  1  0  0  0  0
 21 13  1  0  0  0  0
 22 13  1  0  0  0  0
 23 22  1  0  0  0  0
 24 21  1  0  0  0  0
  3  4  1  0  0  0  0
 14 15  1  0  0  0  0
  8 12  2  0  0  0  0
 24 17  1  0  0  0  0
  2  6  1  0  0  0  0
M  END
>  <IDNUMBER>
F0001-2378

>  <Chemical_Name>
1-cyclopropyl-6-fluoro-4-oxo-7-(piperazin-1-yl)-1,4-dihydroquinoline-3-carboxylic acid hydrochloride

>  <PriceCoeff>
1.50

>  <CAS>
93107-08-5

>  <MW>
331.34

>  <Description>
solid

>  <FSP3>
0.41

>  <clogP>
-0.73

>  <TPSA>
72.88

>  <Acceptor>
5

>  <Donor>
3

>  <RotBonds>
3

>  <HAC>
24

>  <Collection>
Advanced

$$$$
F0001-2388
  Mrv2219 10102508112D          

 20 22  0  0  0  0            999 V2000
    1.4265   -1.6517    0.0000 C   0  0  0  0  0  0  0  0  0  0  0  0
    2.1439   -1.2388    0.0000 C   0  0  0  0  0  0  0  0  0  0  0  0
    0.7132   -1.2388    0.0000 C   0  0  0  0  0  0  0  0  0  0  0  0
    2.1439   -0.4129    0.0000 C   0  0  0  0  0  0  0  0  0  0  0  0
    0.7132   -0.4129    0.0000 C   0  0  0  0  0  0  0  0  0  0  0  0
    2.8572   -1.6517    0.0000 C   0  0  0  0  0  0  0  0  0  0  0  0
    1.4265    0.0000    0.0000 O   0  0  0  0  0  0  0  0  0  0  0  0
    2.8572    0.0000    0.0000 C   0  0  0  0  0  0  0  0  0  0  0  0
    3.5704   -1.2388    0.0000 C   0  0  0  0  0  0  0  0  0  0  0  0
    0.0000   -1.6517    0.0000 C   0  0  0  0  0  0  0  0  0  0  0  0
    1.4265   -2.4776    0.0000 O   0  0  0  0  0  0  0  0  0  0  0  0
    3.5704   -0.4129    0.0000 C   0  0  0  0  0  0  0  0  0  0  0  0
    0.0000   -2.4776    0.0000 C   0  0  0  0  0  0  0  0  0  0  0  0
   -0.7215   -1.2388    0.0000 C   0  0  0  0  0  0  0  0  0  0  0  0
    2.8572   -2.4776    0.0000 O   0  0  0  0  0  0  0  0  0  0  0  0
   -1.4348   -2.4776    0.0000 C   0  0  0  0  0  0  0  0  0  0  0  0
   -1.4348   -1.6517    0.0000 C   0  0  0  0  0  0  0  0  0  0  0  0
   -0.7215   -2.8905    0.0000 C   0  0  0  0  0  0  0  0  0  0  0  0
    4.2836    0.0000    0.0000 O   0  0  0  0  0  0  0  0  0  0  0  0
   -2.1480   -2.8905    0.0000 O   0  0  0  0  0  0  0  0  0  0  0  0
  2  1  1  0  0  0  0
  3  1  1  0  0  0  0
  4  2  1  0  0  0  0
  5  3  2  0  0  0  0
  6  2  2  0  0  0  0
  7  5  1  0  0  0  0
  8  4  2  0  0  0  0
  9  6  1  0  0  0  0
 10  3  1  0  0  0  0
 11  1  2  0  0  0  0
 12  9  2  0  0  0  0
 13 10  1  0  0  0  0
 14 10  2  0  0  0  0
 15  6  1  0  0  0  0
 16 17  2  0  0  0  0
 17 14  1  0  0  0  0
 18 13  2  0  0  0  0
 19 12  1  0  0  0  0
 20 16  1  0  0  0  0
  7  4  1  0  0  0  0
 18 16  1  0  0  0  0
  8 12  1  0  0  0  0
M  END
>  <IDNUMBER>
F0001-2388

>  <Chemical_Name>
5,7-dihydroxy-3-(4-hydroxyphenyl)-4H-chromen-4-one

>  <PriceCoeff>
1.00

>  <CAS>
446-72-0

>  <MW>
270.24

>  <Description>
solid

>  <FSP3>
0.00

>  <clogP>
2.41

>  <TPSA>
86.99

>  <Acceptor>
5

>  <Donor>
3

>  <RotBonds>
1

>  <HAC>
20

>  <Collection>
General

>  <PPDS>
+

$$$$
F0001-2524
  Mrv2219 10102508112D          

 12 13  0  0  0  0            999 V2000
    3.7288   -1.5755    0.0000 C   0  0  0  0  0  0  0  0  0  0  0  0
    3.7288   -0.7482    0.0000 C   0  0  0  0  0  0  0  0  0  0  0  0
    4.4396   -1.9870    0.0000 C   0  0  0  0  0  0  0  0  0  0  0  0
    5.8696    0.4988    0.0000 O   0  0  0  0  0  0  0  0  0  0  0  0
    3.0137   -1.9870    0.0000 C   0  0  0  0  0  0  0  0  0  0  0  0
    5.8738   -0.3284    0.0000 C   0  0  0  0  0  0  0  0  0  0  0  0
    5.1546   -0.7482    0.0000 C   0  0  0  0  0  0  0  0  0  0  0  0
    4.4396   -0.3367    0.0000 C   0  0  0  0  0  0  0  0  0  0  0  0
    5.1546   -1.5755    0.0000 C   0  0  0  0  0  0  0  0  0  0  0  0
    2.1866   -2.8101    0.0000 C   0  0  0  0  0  0  0  0  0  0  0  0
    3.0097   -2.8101    0.0000 C   0  0  0  0  0  0  0  0  0  0  0  0
    2.1866   -1.9870    0.0000 C   0  0  0  0  0  0  0  0  0  0  0  0
  2  1  2  0  0  0  0
  3  1  1  0  0  0  0
  4  6  2  0  0  0  0
  5  1  1  0  0  0  0
  6  7  1  0  0  0  0
  7  9  1  0  0  0  0
  8  2  1  0  0  0  0
  9  3  2  0  0  0  0
 10 11  1  0  0  0  0
 11  5  1  0  0  0  0
 12  5  1  0  0  0  0
 10 12  1  0  0  0  0
  8  7  2  0  0  0  0
M  END
>  <IDNUMBER>
F0001-2524

>  <Chemical_Name>
4-cyclobutylbenzaldehyde

>  <PriceCoeff>
1.00

>  <CAS>
875306-94-8

>  <MW>
160.22

>  <Description>
liquid

>  <FSP3>
0.36

>  <clogP>
2.91

>  <TPSA>
17.07

>  <Acceptor>
1

>  <Donor>
0

>  <RotBonds>
2

>  <HAC>
12

>  <Collection>
General

>  <PPDS>
+

$$$$
F0001-2583
  Mrv2219 10102508112D          

 24 25  0  0  0  0            999 V2000
    2.2201    1.2363    0.0000 N   0  0  0  0  0  0  0  0  0  0  0  0
    2.2201    0.4150    0.0000 C   0  0  1  0  0  0  0  0  0  0  0  0
    1.3903    1.2363    0.0000 C   0  0  0  0  0  0  0  0  0  0  0  0
    1.3903    0.4150    0.0000 C   0  0  1  0  0  0  0  0  0  0  0  0
    2.9944    1.4971    0.0000 C   0  0  2  0  0  0  0  0  0  0  0  0
    2.9944    0.1668    0.0000 S   0  0  0  0  0  0  0  0  0  0  0  0
    3.4820    0.8256    0.0000 C   0  0  0  0  0  0  0  0  0  0  0  0
    0.8128   -0.1711    0.0000 N   0  0  0  0  0  0  0  0  0  0  0  0
    3.2595    2.2799    0.0000 C   0  0  0  0  0  0  0  0  0  0  0  0
    0.0171    0.0470    0.0000 C   0  0  0  0  0  0  0  0  0  0  0  0
    0.8128    1.8223    0.0000 O   0  0  0  0  0  0  0  0  0  0  0  0
    2.7077    2.8874    0.0000 O   0  5  0  0  0  0  0  0  0  0  0  0
    4.0552    2.4425    0.0000 O   0  0  0  0  0  0  0  0  0  0  0  0
   -0.1925    0.8427    0.0000 O   0  0  0  0  0  0  0  0  0  0  0  0
   -0.5646   -0.5390    0.0000 C   0  0  0  0  0  0  0  0  0  0  0  0
    4.0937    0.2738    0.0000 C   0  0  0  0  0  0  0  0  0  0  0  0
    4.0937    1.3816    0.0000 C   0  0  0  0  0  0  0  0  0  0  0  0
   -1.3560   -0.3208    0.0000 C   0  0  0  0  0  0  0  0  0  0  0  0
   -1.5741    0.4748    0.0000 C   0  0  0  0  0  0  0  0  0  0  0  0
   -1.9378   -0.9026    0.0000 C   0  0  0  0  0  0  0  0  0  0  0  0
   -2.7419   -0.6930    0.0000 C   0  0  0  0  0  0  0  0  0  0  0  0
   -2.3655    0.6887    0.0000 C   0  0  0  0  0  0  0  0  0  0  0  0
   -2.9515    0.1027    0.0000 C   0  0  0  0  0  0  0  0  0  0  0  0
    5.6122    1.1421    0.0000 Na  0  3  0  0  0  0  0  0  0  0  0  0
  3  1  1  0  0  0  0
  4  3  1  0  0  0  0
  5  1  1  0  0  0  0
  6  2  1  0  0  0  0
  7  5  1  0  0  0  0
  4  8  1  6  0  0  0
  5  9  1  1  0  0  0
 10  8  1  0  0  0  0
 11  3  2  0  0  0  0
 12  9  1  0  0  0  0
 13  9  2  0  0  0  0
 14 10  2  0  0  0  0
 15 10  1  0  0  0  0
 16  7  1  0  0  0  0
 17  7  1  0  0  0  0
 18 15  1  0  0  0  0
 19 18  1  0  0  0  0
 20 18  2  0  0  0  0
 21 20  1  0  0  0  0
 22 19  2  0  0  0  0
 23 21  2  0  0  0  0
  7  6  1  0  0  0  0
  2  4  1  0  0  0  0
 22 23  1  0  0  0  0
  2  1  1  6  0  0  0
M  CHG  2  12  -1  24   1
M  END
>  <IDNUMBER>
F0001-2583

>  <Chemical_Name>
sodium (2S,5R,6R)-3,3-dimethyl-7-oxo-6-(2-phenylacetamido)-4-thia-1-azabicyclo[3.2.0]heptane-2-carboxylate

>  <PriceCoeff>
1.00

>  <CAS>
69-57-8

>  <MW>
333.38

>  <Description>
solid

>  <FSP3>
0.44

>  <clogP>
-1.07

>  <TPSA>
114.84

>  <Acceptor>
4

>  <Donor>
1

>  <RotBonds>
4

>  <HAC>
23

>  <Collection>
General

$$$$
F0001-2724
  Mrv2219 10102508112D          

 15 15  0  0  0  0            999 V2000
    1.2411   -2.3281    0.0000 C   0  0  0  0  0  0  0  0  0  0  0  0
    2.6695   -2.3281    0.0000 C   0  0  0  0  0  0  0  0  0  0  0  0
    1.9532   -1.0870    0.0000 C   0  0  0  0  0  0  0  0  0  0  0  0
    1.2411   -1.4993    0.0000 C   0  0  0  0  0  0  0  0  0  0  0  0
    2.6695   -1.4993    0.0000 C   0  0  0  0  0  0  0  0  0  0  0  0
    1.9532   -2.7404    0.0000 C   0  0  0  0  0  0  0  0  0  0  0  0
    1.9490   -0.2624    0.0000 C   0  0  0  0  0  0  0  0  0  0  0  0
    0.5247   -2.7404    0.0000 C   0  0  0  0  0  0  0  0  0  0  0  0
    3.3858   -2.7404    0.0000 C   0  0  0  0  0  0  0  0  0  0  0  0
    2.6654    0.1499    0.0000 C   0  0  0  0  0  0  0  0  0  0  0  0
   -0.1874   -2.3281    0.0000 C   0  0  0  0  0  0  0  0  0  0  0  0
    0.5247   -3.5649    0.0000 C   0  0  0  0  0  0  0  0  0  0  0  0
    1.2369    0.1457    0.0000 C   0  0  0  0  0  0  0  0  0  0  0  0
    3.3858   -3.5649    0.0000 C   0  0  0  0  0  0  0  0  0  0  0  0
    4.0980   -2.3239    0.0000 C   0  0  0  0  0  0  0  0  0  0  0  0
  2  6  2  0  0  0  0
  3  4  1  0  0  0  0
  4  1  2  0  0  0  0
  5  3  2  0  0  0  0
  6  1  1  0  0  0  0
  7  3  1  0  0  0  0
  8  1  1  0  0  0  0
  9  2  1  0  0  0  0
 10  7  1  0  0  0  0
 11  8  1  0  0  0  0
 12  8  1  0  0  0  0
 13  7  1  0  0  0  0
 14  9  1  0  0  0  0
 15  9  1  0  0  0  0
  5  2  1  0  0  0  0
M  END
>  <IDNUMBER>
F0001-2724

>  <Chemical_Name>
1,3,5-tris(propan-2-yl)benzene

>  <PriceCoeff>
1.00

>  <CAS>
717-74-8

>  <MW>
204.36

>  <Description>
oil

>  <FSP3>
0.60

>  <clogP>
5.06

>  <TPSA>
0.00

>  <Acceptor>
0

>  <Donor>
0

>  <RotBonds>
3

>  <HAC>
15

>  <Collection>
General

>  <PPDS>
+

$$$$
F0009-0381
  Mrv2219 10102508112D          

 21 22  0  0  0  0            999 V2000
   -4.4960    1.8524    0.0000 S   0  0  0  0  0  0  0  0  0  0  0  0
   -5.3257    1.6980    0.0000 N   0  0  0  0  0  0  0  0  0  0  0  0
   -5.6086    0.9004    0.0000 C   0  0  0  0  0  0  0  0  0  0  0  0
   -0.9197    3.3703    0.0000 C   0  0  0  0  0  0  0  0  0  0  0  0
   -5.2034    0.1544    0.0000 N   0  0  0  0  0  0  0  0  0  0  0  0
   -3.6597    2.0389    0.0000 C   0  0  0  0  0  0  0  0  0  0  0  0
   -1.2285    2.5664    0.0000 N   0  0  0  0  0  0  0  0  0  0  0  0
   -6.4191    0.7461    0.0000 S   0  0  0  0  0  0  0  0  0  0  0  0
   -4.3158    1.0548    0.0000 O   0  0  0  0  0  0  0  0  0  0  0  0
   -4.6503    2.6949    0.0000 O   0  0  0  0  0  0  0  0  0  0  0  0
   -5.7888   -0.4310    0.0000 C   0  0  0  0  0  0  0  0  0  0  0  0
   -1.4665    3.9878    0.0000 O   0  0  0  0  0  0  0  0  0  0  0  0
   -6.5348   -0.0837    0.0000 C   0  0  0  0  0  0  0  0  0  0  0  0
   -3.1066    1.4600    0.0000 C   0  0  0  0  0  0  0  0  0  0  0  0
   -3.4154    2.8493    0.0000 C   0  0  0  0  0  0  0  0  0  0  0  0
   -2.0582    2.4120    0.0000 C   0  0  0  0  0  0  0  0  0  0  0  0
   -0.1093    3.5247    0.0000 C   0  0  0  0  0  0  0  0  0  0  0  0
   -2.6178    3.0295    0.0000 C   0  0  0  0  0  0  0  0  0  0  0  0
   -2.3090    1.6723    0.0000 C   0  0  0  0  0  0  0  0  0  0  0  0
    0.1609    4.2965    0.0000 C   0  0  0  0  0  0  0  0  0  0  0  0
    0.4438    2.8751    0.0000 C   0  0  0  0  0  0  0  0  0  0  0  0
  2  1  1  0  0  0  0
  3  2  1  0  0  0  0
  4  7  1  0  0  0  0
  5  3  2  0  0  0  0
  6  1  1  0  0  0  0
  7 16  1  0  0  0  0
  8  3  1  0  0  0  0
  9  1  2  0  0  0  0
 10  1  2  0  0  0  0
 11  5  1  0  0  0  0
 12  4  2  0  0  0  0
 13  8  1  0  0  0  0
 14  6  2  0  0  0  0
 15  6  1  0  0  0  0
 16 18  1  0  0  0  0
 17  4  1  0  0  0  0
 18 15  2  0  0  0  0
 19 14  1  0  0  0  0
 20 17  1  0  0  0  0
 21 17  1  0  0  0  0
 19 16  2  0  0  0  0
 13 11  2  0  0  0  0
M  END
>  <IDNUMBER>
F0009-0381

>  <Chemical_Name>
2-methyl-N-{4-[(1,3-thiazol-2-yl)sulfamoyl]phenyl}propanamide

>  <PriceCoeff>
1.00

>  <CAS>
100379-21-3

>  <MW>
325.41

>  <Description>
solid

>  <FSP3>
0.23

>  <clogP>
1.78

>  <TPSA>
124.78

>  <Acceptor>
4

>  <Donor>
2

>  <RotBonds>
5

>  <HAC>
21

>  <Collection>
General

>  <PPDS>
+

$$$$
F0012-0791
  Mrv2219 10102508112D          

 19 20  0  0  0  0            999 V2000
   -5.8554   -1.3471    0.0000 S   0  0  0  0  0  0  0  0  0  0  0  0
   -6.6929   -1.3471    0.0000 N   0  0  0  0  0  0  0  0  0  0  0  0
   -7.0908   -2.0589    0.0000 C   0  0  0  0  0  0  0  0  0  0  0  0
   -7.9073   -2.2613    0.0000 N   0  0  0  0  0  0  0  0  0  0  0  0
   -5.0180   -1.3471    0.0000 C   0  0  0  0  0  0  0  0  0  0  0  0
   -6.6929   -2.7637    0.0000 S   0  0  0  0  0  0  0  0  0  0  0  0
   -5.8554   -2.2055    0.0000 O   0  0  0  0  0  0  0  0  0  0  0  0
   -5.8554   -0.5024    0.0000 O   0  0  0  0  0  0  0  0  0  0  0  0
   -2.0658   -0.6979    0.0000 C   0  0  0  0  0  0  0  0  0  0  0  0
   -2.5054   -1.4029    0.0000 N   0  0  0  0  0  0  0  0  0  0  0  0
   -7.9562   -3.0639    0.0000 C   0  0  0  0  0  0  0  0  0  0  0  0
   -7.2234   -3.4127    0.0000 C   0  0  0  0  0  0  0  0  0  0  0  0
   -2.4635    0.0558    0.0000 O   0  0  0  0  0  0  0  0  0  0  0  0
   -4.5782   -2.0589    0.0000 C   0  0  0  0  0  0  0  0  0  0  0  0
   -4.5782   -0.6490    0.0000 C   0  0  0  0  0  0  0  0  0  0  0  0
   -3.3429   -1.3471    0.0000 C   0  0  0  0  0  0  0  0  0  0  0  0
   -3.7687   -0.6490    0.0000 C   0  0  0  0  0  0  0  0  0  0  0  0
   -3.7407   -2.0589    0.0000 C   0  0  0  0  0  0  0  0  0  0  0  0
   -1.2283   -0.6979    0.0000 C   0  0  0  0  0  0  0  0  0  0  0  0
  2  1  1  0  0  0  0
  3  2  1  0  0  0  0
  4  3  2  0  0  0  0
  5  1  1  0  0  0  0
  6  3  1  0  0  0  0
  7  1  2  0  0  0  0
  8  1  2  0  0  0  0
  9 10  1  0  0  0  0
 10 16  1  0  0  0  0
 11  4  1  0  0  0  0
 12  6  1  0  0  0  0
 13  9  2  0  0  0  0
 14  5  2  0  0  0  0
 15  5  1  0  0  0  0
 16 17  1  0  0  0  0
 17 15  2  0  0  0  0
 18 14  1  0  0  0  0
 19  9  1  0  0  0  0
 18 16  2  0  0  0  0
 11 12  2  0  0  0  0
M  END
>  <IDNUMBER>
F0012-0791

>  <Chemical_Name>
N-{4-[(1,3-thiazol-2-yl)sulfamoyl]phenyl}acetamide

>  <PriceCoeff>
1.00

>  <CAS>
127-76-4

>  <MW>
297.35

>  <Description>
solid

>  <FSP3>
0.09

>  <clogP>
0.94

>  <TPSA>
124.78

>  <Acceptor>
4

>  <Donor>
2

>  <RotBonds>
4

>  <HAC>
19

>  <Collection>
General

>  <PPDS>
+

$$$$
F0013-0083
  Mrv2219 10102508112D          

 18 20  0  0  0  0            999 V2000
   -2.1285    0.4826    0.0000 C   0  0  0  0  0  0  0  0  0  0  0  0
   -2.5146   -0.2642    0.0000 N   0  0  0  0  0  0  0  0  0  0  0  0
   -2.7076    1.0515    0.0000 S   0  0  0  0  0  0  0  0  0  0  0  0
   -3.3528   -0.1118    0.0000 C   0  0  0  0  0  0  0  0  0  0  0  0
   -3.4543    0.7112    0.0000 C   0  0  0  0  0  0  0  0  0  0  0  0
   -1.3055    0.6096    0.0000 C   0  0  0  0  0  0  0  0  0  0  0  0
   -1.0617    1.3817    0.0000 C   0  0  0  0  0  0  0  0  0  0  0  0
   -0.7721   -0.0204    0.0000 C   0  0  0  0  0  0  0  0  0  0  0  0
    0.3048    0.8687    0.0000 C   0  0  0  0  0  0  0  0  0  0  0  0
    0.0457    0.0863    0.0000 C   0  0  0  0  0  0  0  0  0  0  0  0
   -0.2591    1.5646    0.0000 C   0  0  0  0  0  0  0  0  0  0  0  0
    1.1938    0.9702    0.0000 O   0  0  0  0  0  0  0  0  0  0  0  0
   -4.0182   -0.6096    0.0000 C   0  0  0  0  0  0  0  0  0  0  0  0
   -4.2062    1.0312    0.0000 C   0  0  0  0  0  0  0  0  0  0  0  0
    1.6815    0.3048    0.0000 C   0  0  0  0  0  0  0  0  0  0  0  0
    2.4740    0.3200    0.0000 C   0  0  0  0  0  0  0  0  0  0  0  0
   -4.7548   -0.2794    0.0000 C   0  0  0  0  0  0  0  0  0  0  0  0
   -4.8716    0.5435    0.0000 C   0  0  0  0  0  0  0  0  0  0  0  0
  2  1  2  0  0  0  0
  3  1  1  0  0  0  0
  4  2  1  0  0  0  0
  5  3  1  0  0  0  0
  6  1  1  0  0  0  0
  7  6  2  0  0  0  0
  8  6  1  0  0  0  0
  9 10  1  0  0  0  0
 10  8  2  0  0  0  0
 11  7  1  0  0  0  0
 12  9  1  0  0  0  0
 13  4  1  0  0  0  0
 14  5  1  0  0  0  0
 15 12  1  0  0  0  0
 16 15  1  0  0  0  0
 17 13  2  0  0  0  0
 18 14  2  0  0  0  0
  5  4  2  0  0  0  0
  9 11  2  0  0  0  0
 18 17  1  0  0  0  0
M  END
>  <IDNUMBER>
F0013-0083

>  <Chemical_Name>
2-(4-ethoxyphenyl)-1,3-benzothiazole

>  <PriceCoeff>
1.00

>  <CAS>
183561-67-3

>  <MW>
255.33

>  <Description>
solid

>  <FSP3>
0.13

>  <clogP>
4.73

>  <TPSA>
50.36

>  <Acceptor>
2

>  <Donor>
0

>  <RotBonds>
3

>  <HAC>
18

>  <Collection>
General

>  <PPDS>
+

$$$$
F0013-0791
  Mrv2219 10102508112D          

 30 33  0  0  0  0            999 V2000
    5.4142    0.4123    0.0000 N   0  3  0  0  0  0  0  0  0  0  0  0
    4.8520   -0.1916    0.0000 C   0  0  0  0  0  0  0  0  0  0  0  0
    5.0977   -0.9912    0.0000 N   0  0  0  0  0  0  0  0  0  0  0  0
    5.8890   -1.1787    0.0000 C   0  0  0  0  0  0  0  0  0  0  0  0
    6.4720   -0.5539    0.0000 C   0  0  0  0  0  0  0  0  0  0  0  0
    6.2096    0.2249    0.0000 C   0  0  0  0  0  0  0  0  0  0  0  0
    4.9894    1.1120    0.0000 C   0  0  0  0  0  0  0  0  0  0  0  0
    4.1106    0.1374    0.0000 C   0  0  0  0  0  0  0  0  0  0  0  0
    4.1773    0.9329    0.0000 C   0  0  0  0  0  0  0  0  0  0  0  0
    6.1389   -2.0033    0.0000 O   0  0  0  0  0  0  0  0  0  0  0  0
    4.5479   -1.5993    0.0000 C   0  0  0  0  0  0  0  0  0  0  0  0
    7.2634   -0.7497    0.0000 C   0  0  0  0  0  0  0  0  0  0  0  0
    6.7844    0.8454    0.0000 C   0  0  0  0  0  0  0  0  0  0  0  0
    3.3652   -0.2291    0.0000 C   0  0  0  0  0  0  0  0  0  0  0  0
    3.5026    1.4077    0.0000 C   0  0  0  0  0  0  0  0  0  0  0  0
    7.8256   -0.1416    0.0000 C   0  0  0  0  0  0  0  0  0  0  0  0
    7.5840    0.6580    0.0000 C   0  0  0  0  0  0  0  0  0  0  0  0
    2.6655    0.2374    0.0000 C   0  0  0  0  0  0  0  0  0  0  0  0
    2.7362    1.0370    0.0000 C   0  0  0  0  0  0  0  0  0  0  0  0
   10.5999    0.6231    0.0000 S   0  0  0  0  0  0  0  0  0  0  0  0
   10.2657   -0.1288    0.0000 C   0  0  0  0  0  0  0  0  0  0  0  0
   11.3520    0.2889    0.0000 O   0  5  0  0  0  0  0  0  0  0  0  0
   10.9318    1.3785    0.0000 O   0  0  0  0  0  0  0  0  0  0  0  0
    9.8456    0.9608    0.0000 O   0  0  0  0  0  0  0  0  0  0  0  0
   10.7549   -0.8030    0.0000 C   0  0  0  0  0  0  0  0  0  0  0  0
    9.4472   -0.2134    0.0000 C   0  0  0  0  0  0  0  0  0  0  0  0
   10.4206   -1.5550    0.0000 C   0  0  0  0  0  0  0  0  0  0  0  0
    9.1177   -0.9721    0.0000 C   0  0  0  0  0  0  0  0  0  0  0  0
    9.6021   -1.6394    0.0000 C   0  0  0  0  0  0  0  0  0  0  0  0
    9.2644   -2.3939    0.0000 C   0  0  0  0  0  0  0  0  0  0  0  0
 13  6  2  0  0  0  0
 14  8  1  0  0  0  0
 15  9  1  0  0  0  0
 16 17  2  0  0  0  0
 17 13  1  0  0  0  0
 18 14  2  0  0  0  0
 19 15  2  0  0  0  0
  8  9  2  0  0  0  0
  3  4  1  0  0  0  0
 18 19  1  0  0  0  0
 16 12  1  0  0  0  0
  2  1  2  0  0  0  0
  3  2  1  0  0  0  0
  4  5  1  0  0  0  0
  5  6  1  0  0  0  0
  6  1  1  0  0  0  0
  7  1  1  0  0  0  0
  8  2  1  0  0  0  0
  9  7  1  0  0  0  0
 10  4  2  0  0  0  0
 11  3  1  0  0  0  0
 12  5  2  0  0  0  0
 21 20  1  0  0  0  0
 22 20  1  0  0  0  0
 23 20  2  0  0  0  0
 24 20  2  0  0  0  0
 25 21  1  0  0  0  0
 26 21  2  0  0  0  0
 27 25  2  0  0  0  0
 28 26  1  0  0  0  0
 29 28  2  0  0  0  0
 30 29  1  0  0  0  0
 29 27  1  0  0  0  0
M  CHG  2   1   1  22  -1
M  END
>  <IDNUMBER>
F0013-0791

>  <Chemical_Name>
6-methyl-5-oxo-5H,6H,11H-12??-isoindolo[2,1-a]quinazolin-12-ylium 4-methylbenzene-1-sulfonate

>  <PriceCoeff>
1.00

>  <CAS>
1058702-31-0

>  <MW>
249.29

>  <Description>
solid

>  <FSP3>
0.12

>  <clogP>
-2.41

>  <TPSA>
23.32

>  <Acceptor>
1

>  <Donor>
0

>  <RotBonds>
0

>  <HAC>
19

>  <Collection>
General

$$$$
F0017-0031
  Mrv2219 10102508112D          

 35 37  0  0  0  0            999 V2000
    2.6396    0.3181    0.0000 C   0  0  0  0  0  0  0  0  0  0  0  0
    1.8630    0.3594    0.0000 N   0  0  0  0  0  0  0  0  0  0  0  0
    2.9866    1.0244    0.0000 N   0  0  0  0  0  0  0  0  0  0  0  0
    1.6771    1.1649    0.0000 C   0  0  0  0  0  0  0  0  0  0  0  0
    2.3960    1.5697    0.0000 C   0  0  0  0  0  0  0  0  0  0  0  0
    3.0238   -0.4008    0.0000 S   0  0  0  0  0  0  0  0  0  0  0  0
    3.0404   -1.8383    0.0000 C   0  0  0  0  0  0  0  0  0  0  0  0
    2.6272   -1.1195    0.0000 C   0  0  0  0  0  0  0  0  0  0  0  0
    3.8706   -1.8383    0.0000 O   0  0  0  0  0  0  0  0  0  0  0  0
    2.6190   -2.5446    0.0000 C   0  0  0  0  0  0  0  0  0  0  0  0
    0.9460    1.5986    0.0000 C   0  0  0  0  0  0  0  0  0  0  0  0
    2.3960    2.4372    0.0000 C   0  0  0  0  0  0  0  0  0  0  0  0
    3.0238   -3.2511    0.0000 C   0  0  0  0  0  0  0  0  0  0  0  0
    1.8135   -2.5322    0.0000 C   0  0  0  0  0  0  0  0  0  0  0  0
    0.9460    2.4372    0.0000 C   0  0  0  0  0  0  0  0  0  0  0  0
    1.6771    2.8461    0.0000 C   0  0  0  0  0  0  0  0  0  0  0  0
    1.4004   -3.2511    0.0000 C   0  0  0  0  0  0  0  0  0  0  0  0
    2.6272   -3.9698    0.0000 C   0  0  0  0  0  0  0  0  0  0  0  0
    1.7887   -3.9698    0.0000 C   0  0  0  0  0  0  0  0  0  0  0  0
    6.8944    0.0412    0.0000 C   0  0  0  0  0  0  0  0  0  0  0  0
    6.7292   -1.3426    0.0000 C   0  0  0  0  0  0  0  0  0  0  0  0
    6.4194   -0.6031    0.0000 C   0  0  0  0  0  0  0  0  0  0  0  0
    6.5598    0.8096    0.0000 N   0  3  0  0  0  0  0  0  0  0  0  0
    6.2129   -2.0159    0.0000 N   0  3  0  0  0  0  0  0  0  0  0  0
    8.8525   -0.8758    0.0000 N   0  3  0  0  0  0  0  0  0  0  0  0
    8.0346   -0.7890    0.0000 C   0  0  0  0  0  0  0  0  0  0  0  0
    7.5471   -1.4707    0.0000 C   0  0  0  0  0  0  0  0  0  0  0  0
    7.7123   -0.0579    0.0000 C   0  0  0  0  0  0  0  0  0  0  0  0
    5.4114   -1.9002    0.0000 O   0  5  0  0  0  0  0  0  0  0  0  0
    7.0514    1.4582    0.0000 O   0  5  0  0  0  0  0  0  0  0  0  0
    9.1995   -1.6069    0.0000 O   0  5  0  0  0  0  0  0  0  0  0  0
    5.7667    0.8839    0.0000 O   0  0  0  0  0  0  0  0  0  0  0  0
    6.5350   -2.7719    0.0000 O   0  0  0  0  0  0  0  0  0  0  0  0
    9.3234   -0.1942    0.0000 O   0  0  0  0  0  0  0  0  0  0  0  0
    5.5973   -0.5040    0.0000 O   0  0  0  0  0  0  0  0  0  0  0  0
 18 13  1  0  0  0  0
 19 17  1  0  0  0  0
  5  4  2  0  0  0  0
 16 15  1  0  0  0  0
 19 18  2  0  0  0  0
  2  1  2  0  0  0  0
  3  1  1  0  0  0  0
  4  2  1  0  0  0  0
  5  3  1  0  0  0  0
  6  1  1  0  0  0  0
  7  8  1  0  0  0  0
  8  6  1  0  0  0  0
  9  7  2  0  0  0  0
 10  7  1  0  0  0  0
 11  4  1  0  0  0  0
 12  5  1  0  0  0  0
 13 10  2  0  0  0  0
 14 10  1  0  0  0  0
 15 11  2  0  0  0  0
 16 12  2  0  0  0  0
 17 14  2  0  0  0  0
 21 22  2  0  0  0  0
 22 20  1  0  0  0  0
 23 20  1  0  0  0  0
 24 21  1  0  0  0  0
 25 26  1  0  0  0  0
 26 28  1  0  0  0  0
 27 26  2  0  0  0  0
 28 20  2  0  0  0  0
 29 24  1  0  0  0  0
 30 23  1  0  0  0  0
 31 25  1  0  0  0  0
 32 23  2  0  0  0  0
 33 24  2  0  0  0  0
 34 25  2  0  0  0  0
 35 22  1  0  0  0  0
 21 27  1  0  0  0  0
M  CHG  6  23   1  24   1  25   1  29  -1  30  -1  31  -1
M  END
>  <IDNUMBER>
F0017-0031

>  <Chemical_Name>
2,4,6-trinitrophenol; 2-(1H-1,3-benzodiazol-2-ylsulfanyl)-1-phenylethan-1-one

>  <PriceCoeff>
1.00

>  <CAS>
1158468-89-3

>  <MW>
268.33

>  <Description>
solid

>  <FSP3>
0.07

>  <clogP>
3.66

>  <TPSA>
71.05

>  <Acceptor>
3

>  <Donor>
2

>  <RotBonds>
4

>  <HAC>
19

>  <Collection>
General

>  <PPDS>
+

$$$$
F0017-0155
  Mrv2219 10102508112D          

 33 34  0  0  0  0            999 V2000
    2.0226   -0.7409    0.0000 C   0  0  0  0  0  0  0  0  0  0  0  0
    1.2111   -0.8033    0.0000 N   0  0  0  0  0  0  0  0  0  0  0  0
    2.3640   -1.4650    0.0000 N   0  0  0  0  0  0  0  0  0  0  0  0
    1.0530   -1.6148    0.0000 C   0  0  0  0  0  0  0  0  0  0  0  0
    1.7604   -2.0393    0.0000 C   0  0  0  0  0  0  0  0  0  0  0  0
    2.4222   -0.0167    0.0000 S   0  0  0  0  0  0  0  0  0  0  0  0
    3.6749    0.7074    0.0000 C   0  0  0  0  0  0  0  0  0  0  0  0
    3.2462    1.4191    0.0000 C   0  0  0  0  0  0  0  0  0  0  0  0
    3.2462    0.0083    0.0000 C   0  0  0  0  0  0  0  0  0  0  0  0
    4.5072    0.7325    0.0000 O   0  0  0  0  0  0  0  0  0  0  0  0
    0.3496   -2.0393    0.0000 C   0  0  0  0  0  0  0  0  0  0  0  0
    1.7604   -2.8509    0.0000 C   0  0  0  0  0  0  0  0  0  0  0  0
    2.8259    2.1432    0.0000 C   0  0  0  0  0  0  0  0  0  0  0  0
    2.5388    0.9947    0.0000 C   0  0  0  0  0  0  0  0  0  0  0  0
    3.9829    1.8436    0.0000 C   0  0  0  0  0  0  0  0  0  0  0  0
    0.3496   -2.8633    0.0000 C   0  0  0  0  0  0  0  0  0  0  0  0
    1.0530   -3.2753    0.0000 C   0  0  0  0  0  0  0  0  0  0  0  0
    7.5536    0.0415    0.0000 C   0  0  0  0  0  0  0  0  0  0  0  0
    7.3871   -1.3526    0.0000 C   0  0  0  0  0  0  0  0  0  0  0  0
    7.0750   -0.6076    0.0000 C   0  0  0  0  0  0  0  0  0  0  0  0
    7.2166    0.8157    0.0000 N   0  3  0  0  0  0  0  0  0  0  0  0
    6.8670   -2.0310    0.0000 N   0  3  0  0  0  0  0  0  0  0  0  0
    9.5264   -0.8824    0.0000 N   0  3  0  0  0  0  0  0  0  0  0  0
    8.7023   -0.7950    0.0000 C   0  0  0  0  0  0  0  0  0  0  0  0
    8.2112   -1.4817    0.0000 C   0  0  0  0  0  0  0  0  0  0  0  0
    8.3777   -0.0583    0.0000 C   0  0  0  0  0  0  0  0  0  0  0  0
    6.0595   -1.9144    0.0000 O   0  5  0  0  0  0  0  0  0  0  0  0
    7.7117    1.4691    0.0000 O   0  5  0  0  0  0  0  0  0  0  0  0
    9.8760   -1.6190    0.0000 O   0  5  0  0  0  0  0  0  0  0  0  0
    6.4174    0.8906    0.0000 O   0  0  0  0  0  0  0  0  0  0  0  0
    7.1916   -2.7926    0.0000 O   0  0  0  0  0  0  0  0  0  0  0  0
   10.0008   -0.1957    0.0000 O   0  0  0  0  0  0  0  0  0  0  0  0
    6.2468   -0.5078    0.0000 O   0  0  0  0  0  0  0  0  0  0  0  0
  5  4  2  0  0  0  0
 17 16  1  0  0  0  0
  2  1  2  0  0  0  0
  3  1  1  0  0  0  0
  4  2  1  0  0  0  0
  5  3  1  0  0  0  0
  6  1  1  0  0  0  0
  7  9  1  0  0  0  0
  8  7  1  0  0  0  0
  9  6  1  0  0  0  0
 10  7  2  0  0  0  0
 11  4  1  0  0  0  0
 12  5  1  0  0  0  0
 13  8  1  0  0  0  0
 14  8  1  0  0  0  0
 15  8  1  0  0  0  0
 16 11  2  0  0  0  0
 17 12  2  0  0  0  0
 19 20  2  0  0  0  0
 20 18  1  0  0  0  0
 21 18  1  0  0  0  0
 22 19  1  0  0  0  0
 23 24  1  0  0  0  0
 24 26  1  0  0  0  0
 25 24  2  0  0  0  0
 26 18  2  0  0  0  0
 27 22  1  0  0  0  0
 28 21  1  0  0  0  0
 29 23  1  0  0  0  0
 30 21  2  0  0  0  0
 31 22  2  0  0  0  0
 32 23  2  0  0  0  0
 33 20  1  0  0  0  0
 19 25  1  0  0  0  0
M  CHG  6  21   1  22   1  23   1  27  -1  28  -1  29  -1
M  END
>  <IDNUMBER>
F0017-0155

>  <Chemical_Name>
1-(1H-1,3-benzodiazol-2-ylsulfanyl)-3,3-dimethylbutan-2-one; 2,4,6-trinitrophenol

>  <PriceCoeff>
1.50

>  <CAS>
381165-89-5

>  <MW>
248.34

>  <Description>
solid

>  <FSP3>
0.38

>  <clogP>
3.33

>  <TPSA>
71.05

>  <Acceptor>
3

>  <Donor>
2

>  <RotBonds>
3

>  <HAC>
17

>  <Collection>
Advanced

>  <PPDS>
+

$$$$
F0017-0646
  Mrv2219 10102508112D          

 21 23  0  0  0  0            999 V2000
   -0.4970   -1.4640    0.0000 C   0  0  0  0  0  0  0  0  0  0  0  0
   -0.4970   -0.6390    0.0000 C   0  0  0  0  0  0  0  0  0  0  0  0
   -1.1935   -1.8697    0.0000 N   0  0  0  0  0  0  0  0  0  0  0  0
   -1.9069   -1.4505    0.0000 C   0  0  0  0  0  0  0  0  0  0  0  0
   -1.9069   -0.6526    0.0000 N   0  0  0  0  0  0  0  0  0  0  0  0
    0.2976   -1.7075    0.0000 N   0  0  0  0  0  0  0  0  0  0  0  0
   -1.1935   -0.2333    0.0000 C   0  0  0  0  0  0  0  0  0  0  0  0
    0.2976   -0.3956    0.0000 N   0  0  0  0  0  0  0  0  0  0  0  0
    0.7709   -1.0447    0.0000 C   0  0  0  0  0  0  0  0  0  0  0  0
   -2.6372   -1.8562    0.0000 O   0  0  0  0  0  0  0  0  0  0  0  0
   -1.1935    0.5950    0.0000 O   0  0  0  0  0  0  0  0  0  0  0  0
   -1.1935   -2.6812    0.0000 C   0  0  0  0  0  0  0  0  0  0  0  0
    1.6466    1.3389    0.0000 N   0  0  0  0  0  0  0  0  0  0  0  0
    0.5579    0.4023    0.0000 C   0  0  0  0  0  0  0  0  0  0  0  0
    2.4378    1.4978    0.0000 C   0  0  0  0  0  0  0  0  0  0  0  0
    1.3693    0.5646    0.0000 C   0  0  0  0  0  0  0  0  0  0  0  0
    2.9855    0.8892    0.0000 C   0  0  0  0  0  0  0  0  0  0  0  0
    2.6913    2.2721    0.0000 C   0  0  0  0  0  0  0  0  0  0  0  0
    3.5028    2.4512    0.0000 C   0  0  0  0  0  0  0  0  0  0  0  0
    3.7969    1.0515    0.0000 C   0  0  0  0  0  0  0  0  0  0  0  0
    4.0572    1.8258    0.0000 C   0  0  0  0  0  0  0  0  0  0  0  0
  2  1  2  0  0  0  0
  3  1  1  0  0  0  0
  4  3  1  0  0  0  0
  5  4  1  0  0  0  0
  6  1  1  0  0  0  0
  7  2  1  0  0  0  0
  8  2  1  0  0  0  0
  9  6  2  0  0  0  0
 10  4  2  0  0  0  0
 11  7  2  0  0  0  0
 12  3  1  0  0  0  0
 13 16  1  0  0  0  0
 14  8  1  0  0  0  0
 15 13  1  0  0  0  0
 16 14  1  0  0  0  0
 17 15  2  0  0  0  0
 18 15  1  0  0  0  0
 19 18  2  0  0  0  0
 20 17  1  0  0  0  0
 21 19  1  0  0  0  0
  8  9  1  0  0  0  0
  5  7  1  0  0  0  0
 20 21  2  0  0  0  0
M  END
>  <IDNUMBER>
F0017-0646

>  <Chemical_Name>
3-methyl-7-[2-(phenylamino)ethyl]-2,3,6,7-tetrahydro-1H-purine-2,6-dione

>  <PriceCoeff>
1.00

>  <CAS>
383880-08-8

>  <MW>
285.30

>  <Description>
solid

>  <FSP3>
0.21

>  <clogP>
0.76

>  <TPSA>
123.02

>  <Acceptor>
4

>  <Donor>
3

>  <RotBonds>
4

>  <HAC>
21

>  <Collection>
General

>  <PPDS>
+

$$$$
F0017-0651
  Mrv2219 10102508112D          

 16 17  0  0  0  0            999 V2000
   -1.1261   -2.4099    0.0000 C   0  0  0  0  0  0  0  0  0  0  0  0
   -1.1261   -1.5618    0.0000 C   0  0  0  0  0  0  0  0  0  0  0  0
   -1.8352   -2.8130    0.0000 N   0  0  0  0  0  0  0  0  0  0  0  0
   -0.3476   -2.6554    0.0000 N   0  0  0  0  0  0  0  0  0  0  0  0
   -2.5535   -2.4099    0.0000 C   0  0  0  0  0  0  0  0  0  0  0  0
   -2.5535   -1.5618    0.0000 N   0  0  0  0  0  0  0  0  0  0  0  0
   -1.8352   -1.1678    0.0000 C   0  0  0  0  0  0  0  0  0  0  0  0
    0.1437   -1.9881    0.0000 C   0  0  0  0  0  0  0  0  0  0  0  0
   -0.3476   -1.3208    0.0000 N   0  0  0  0  0  0  0  0  0  0  0  0
   -3.2811   -2.8362    0.0000 O   0  0  0  0  0  0  0  0  0  0  0  0
   -1.8352   -0.3198    0.0000 O   0  0  0  0  0  0  0  0  0  0  0  0
    0.9640   -1.9881    0.0000 N   0  0  0  0  0  0  0  0  0  0  0  0
   -1.8352   -3.6565    0.0000 C   0  0  0  0  0  0  0  0  0  0  0  0
    2.2106   -2.7018    0.0000 C   0  0  0  0  0  0  0  0  0  0  0  0
    2.6323   -3.4109    0.0000 C   0  0  0  0  0  0  0  0  0  0  0  0
    1.3903   -2.7018    0.0000 C   0  0  0  0  0  0  0  0  0  0  0  0
  2  1  2  0  0  0  0
  3  1  1  0  0  0  0
  4  1  1  0  0  0  0
  5  3  1  0  0  0  0
  6  5  1  0  0  0  0
  7  2  1  0  0  0  0
  8  4  2  0  0  0  0
  9  2  1  0  0  0  0
 10  5  2  0  0  0  0
 11  7  2  0  0  0  0
 12  8  1  0  0  0  0
 13  3  1  0  0  0  0
 14 16  1  0  0  0  0
 15 14  2  0  0  0  0
 16 12  1  0  0  0  0
  9  8  1  0  0  0  0
  6  7  1  0  0  0  0
M  END
>  <IDNUMBER>
F0017-0651

>  <Chemical_Name>
3-methyl-8-[(prop-2-en-1-yl)amino]-2,3,6,7-tetrahydro-1H-purine-2,6-dione

>  <PriceCoeff>
1.50

>  <CAS>
302801-95-2

>  <MW>
221.22

>  <Description>
solid

>  <FSP3>
0.22

>  <clogP>
0.68

>  <TPSA>
118.77

>  <Acceptor>
4

>  <Donor>
4

>  <RotBonds>
3

>  <HAC>
16

>  <Collection>
Advanced

>  <PPDS>
+

$$$$
F0020-1632
  Mrv2219 10102508112D          

 17 19  0  0  0  0            999 V2000
    0.8014    1.4090    0.0000 C   0  0  0  0  0  0  0  0  0  0  0  0
    1.3252    0.8799    0.0000 C   0  0  0  0  0  0  0  0  0  0  0  0
    0.0996    1.1104    0.0000 C   0  0  0  0  0  0  0  0  0  0  0  0
    0.8014    2.2156    0.0000 C   0  0  0  0  0  0  0  0  0  0  0  0
    0.2357    0.7175    0.0000 C   0  0  0  0  0  0  0  0  0  0  0  0
    2.1423    0.7175    0.0000 N   0  0  0  0  0  0  0  0  0  0  0  0
   -0.7699    1.4090    0.0000 C   0  0  0  0  0  0  0  0  0  0  0  0
   -0.4662    0.9428    0.0000 C   0  0  0  0  0  0  0  0  0  0  0  0
   -0.0419    2.5089    0.0000 C   0  0  0  0  0  0  0  0  0  0  0  0
    2.4566    2.1632    0.0000 C   0  0  0  0  0  0  0  0  0  0  0  0
    0.8014    0.2304    0.0000 O   0  0  0  0  0  0  0  0  0  0  0  0
    1.6395    2.3832    0.0000 O   0  0  0  0  0  0  0  0  0  0  0  0
   -0.4976    1.9746    0.0000 C   0  0  0  0  0  0  0  0  0  0  0  0
   -1.3618    0.7175    0.0000 C   0  0  0  0  0  0  0  0  0  0  0  0
   -0.7699    2.1946    0.0000 C   0  0  0  0  0  0  0  0  0  0  0  0
    2.7081    1.3775    0.0000 C   0  0  0  0  0  0  0  0  0  0  0  0
    2.9909    2.8075    0.0000 O   0  0  0  0  0  0  0  0  0  0  0  0
  2  1  1  0  0  0  0
  3  1  1  0  0  0  0
  4  1  1  0  0  0  0
  5  1  1  0  0  0  0
  6  2  1  0  0  0  0
  7  3  1  0  0  0  0
  8  5  1  0  0  0  0
  9  4  1  0  0  0  0
 10 16  1  0  0  0  0
 11  2  2  0  0  0  0
 12 10  2  0  0  0  0
 13  8  1  0  0  0  0
 14  8  1  0  0  0  0
 15  9  1  0  0  0  0
 16  6  1  0  0  0  0
 17 10  1  0  0  0  0
 14  7  1  0  0  0  0
 13  9  1  0  0  0  0
 15  7  1  0  0  0  0
M  END
>  <IDNUMBER>
F0020-1632

>  <Chemical_Name>
2-[(adamantan-1-yl)formamido]acetic acid

>  <PriceCoeff>
1.50

>  <CAS>
21241-41-8

>  <MW>
237.30

>  <Description>
solid

>  <FSP3>
0.85

>  <clogP>
0.62

>  <TPSA>
66.40

>  <Acceptor>
3

>  <Donor>
1

>  <RotBonds>
3

>  <HAC>
17

>  <Collection>
Advanced

$$$$
F0020-1803
  Mrv2219 10102508112D          

 19 20  0  0  0  0            999 V2000
    0.5568   -1.1721    0.0000 C   0  0  0  0  0  0  0  0  0  0  0  0
   -4.4037    1.5530    0.0000 C   0  0  0  0  0  0  0  0  0  0  0  0
   -0.2637   -1.1847    0.0000 C   0  0  0  0  0  0  0  0  0  0  0  0
   -3.9893    0.8372    0.0000 C   0  0  0  0  0  0  0  0  0  0  0  0
    0.9921   -1.8628    0.0000 O   0  0  0  0  0  0  0  0  0  0  0  0
   -5.2074    1.5279    0.0000 O   0  0  0  0  0  0  0  0  0  0  0  0
   -2.7083   -1.2349    0.0000 O   0  0  0  0  0  0  0  0  0  0  0  0
   -0.6739   -1.9088    0.0000 C   0  0  0  0  0  0  0  0  0  0  0  0
   -4.3911    0.1214    0.0000 C   0  0  0  0  0  0  0  0  0  0  0  0
   -3.1604    0.8540    0.0000 C   0  0  0  0  0  0  0  0  0  0  0  0
   -0.7033   -0.4814    0.0000 C   0  0  0  0  0  0  0  0  0  0  0  0
   -1.9172   -1.2349    0.0000 C   0  0  0  0  0  0  0  0  0  0  0  0
   -3.1270   -0.5526    0.0000 C   0  0  0  0  0  0  0  0  0  0  0  0
    0.9544   -0.4521    0.0000 O   0  0  0  0  0  0  0  0  0  0  0  0
   -4.0144    2.2562    0.0000 O   0  0  0  0  0  0  0  0  0  0  0  0
   -1.5279   -0.5065    0.0000 C   0  0  0  0  0  0  0  0  0  0  0  0
   -3.9642   -0.5693    0.0000 C   0  0  0  0  0  0  0  0  0  0  0  0
   -1.5028   -1.9382    0.0000 C   0  0  0  0  0  0  0  0  0  0  0  0
   -2.7335    0.1716    0.0000 C   0  0  0  0  0  0  0  0  0  0  0  0
  2  4  1  0  0  0  0
  3  1  1  0  0  0  0
  4 10  2  0  0  0  0
  5  1  2  0  0  0  0
  6  2  2  0  0  0  0
  7 12  1  0  0  0  0
  8  3  1  0  0  0  0
  9 17  2  0  0  0  0
 10 19  1  0  0  0  0
 11  3  2  0  0  0  0
 12 16  2  0  0  0  0
 13  7  1  0  0  0  0
 14  1  1  0  0  0  0
 15  2  1  0  0  0  0
 16 11  1  0  0  0  0
 17 13  1  0  0  0  0
 18  8  2  0  0  0  0
 19 13  2  0  0  0  0
 12 18  1  0  0  0  0
  9  4  1  0  0  0  0
M  END
>  <IDNUMBER>
F0020-1803

>  <Chemical_Name>
4-(4-carboxyphenoxy)benzoic acid

>  <PriceCoeff>
1.00

>  <CAS>
2215-89-6

>  <MW>
258.23

>  <Description>
solid

>  <FSP3>
0.00

>  <clogP>
3.73

>  <TPSA>
83.83

>  <Acceptor>
5

>  <Donor>
0

>  <RotBonds>
4

>  <HAC>
19

>  <Collection>
General

$$$$
F0020-1956
  Mrv2219 10102508112D          

 21 23  0  0  0  0            999 V2000
   -4.1071   -0.1136    0.0000 C   0  0  0  0  0  0  0  0  0  0  0  0
   -4.8245    0.3168    0.0000 C   0  0  0  0  0  0  0  0  0  0  0  0
   -4.8245   -1.3451    0.0000 C   0  0  0  0  0  0  0  0  0  0  0  0
   -4.1071   -0.9386    0.0000 C   0  0  0  0  0  0  0  0  0  0  0  0
   -5.5418   -0.1136    0.0000 C   0  0  0  0  0  0  0  0  0  0  0  0
   -5.5418   -0.9386    0.0000 C   0  0  0  0  0  0  0  0  0  0  0  0
   -3.3897   -1.3451    0.0000 C   0  0  0  0  0  0  0  0  0  0  0  0
   -3.3897    0.3168    0.0000 C   0  0  0  0  0  0  0  0  0  0  0  0
   -1.2375   -0.1136    0.0000 C   0  0  0  0  0  0  0  0  0  0  0  0
   -1.9549    0.3168    0.0000 N   0  0  0  0  0  0  0  0  0  0  0  0
   -4.8245    1.1478    0.0000 O   0  0  0  0  0  0  0  0  0  0  0  0
   -4.8245   -2.1761    0.0000 O   0  0  0  0  0  0  0  0  0  0  0  0
   -2.6723   -0.1136    0.0000 C   0  0  0  0  0  0  0  0  0  0  0  0
   -1.2375   -0.9386    0.0000 O   0  0  0  0  0  0  0  0  0  0  0  0
   -2.6723   -0.9386    0.0000 C   0  0  0  0  0  0  0  0  0  0  0  0
   -6.2592   -1.3451    0.0000 C   0  0  0  0  0  0  0  0  0  0  0  0
   -6.2592    0.3168    0.0000 C   0  0  0  0  0  0  0  0  0  0  0  0
    0.2212   -0.1316    0.0000 Cl  0  0  0  0  0  0  0  0  0  0  0  0
   -0.5201    0.2870    0.0000 C   0  0  0  0  0  0  0  0  0  0  0  0
   -6.9766   -0.1136    0.0000 C   0  0  0  0  0  0  0  0  0  0  0  0
   -6.9766   -0.9386    0.0000 C   0  0  0  0  0  0  0  0  0  0  0  0
  2  1  1  0  0  0  0
  3  4  1  0  0  0  0
  4  1  2  0  0  0  0
  5  2  1  0  0  0  0
  6  3  1  0  0  0  0
  7  4  1  0  0  0  0
  8  1  1  0  0  0  0
  9 10  1  0  0  0  0
 10 13  1  0  0  0  0
 11  2  2  0  0  0  0
 12  3  2  0  0  0  0
 13  8  2  0  0  0  0
 14  9  2  0  0  0  0
 15 13  1  0  0  0  0
 16  6  1  0  0  0  0
 17  5  1  0  0  0  0
 18 19  1  0  0  0  0
 19  9  1  0  0  0  0
 20 17  2  0  0  0  0
 21 16  2  0  0  0  0
 15  7  2  0  0  0  0
  6  5  2  0  0  0  0
 20 21  1  0  0  0  0
M  END
>  <IDNUMBER>
F0020-1956

>  <Chemical_Name>
2-chloro-N-(9,10-dioxo-9,10-dihydroanthracen-2-yl)acetamide

>  <PriceCoeff>
1.00

>  <MW>
299.71

>  <Description>
solid

>  <FSP3>
0.06

>  <clogP>
3.53

>  <TPSA>
63.24

>  <Acceptor>
3

>  <Donor>
1

>  <RotBonds>
2

>  <HAC>
21

>  <Collection>
General

$$$$
F0021-0037
  Mrv2219 10102508112D          

 26 29  0  0  0  0            999 V2000
   -0.5573    2.3698    0.0000 N   0  0  0  0  0  0  0  0  0  0  0  0
   -0.3385    3.1511    0.0000 C   0  0  0  0  0  0  0  0  0  0  0  0
    0.1250    1.9167    0.0000 C   0  0  0  0  0  0  0  0  0  0  0  0
    0.7553    2.4532    0.0000 C   0  0  0  0  0  0  0  0  0  0  0  0
    0.4740    3.1823    0.0000 C   0  0  0  0  0  0  0  0  0  0  0  0
    2.6876   -0.8490    0.0000 N   0  0  0  0  0  0  0  0  0  0  0  0
    1.5990    2.2761    0.0000 N   0  0  0  0  0  0  0  0  0  0  0  0
   -1.3385    2.1511    0.0000 C   0  0  0  0  0  0  0  0  0  0  0  0
   -0.8385    3.8282    0.0000 O   0  0  0  0  0  0  0  0  0  0  0  0
    2.4219   -0.0625    0.0000 C   0  0  0  0  0  0  0  0  0  0  0  0
    0.1719    1.0782    0.0000 O   0  0  0  0  0  0  0  0  0  0  0  0
    3.2085   -2.3959    0.0000 O   0  0  0  0  0  0  0  0  0  0  0  0
    2.9584    0.5416    0.0000 C   0  0  0  0  0  0  0  0  0  0  0  0
    1.6250    0.0885    0.0000 C   0  0  0  0  0  0  0  0  0  0  0  0
    1.8803    1.4948    0.0000 C   0  0  0  0  0  0  0  0  0  0  0  0
    1.3334    0.8698    0.0000 C   0  0  0  0  0  0  0  0  0  0  0  0
    2.6876    1.3282    0.0000 C   0  0  0  0  0  0  0  0  0  0  0  0
    3.5001   -1.0000    0.0000 C   0  0  0  0  0  0  0  0  0  0  0  0
    2.1303   -1.4428    0.0000 C   0  0  0  0  0  0  0  0  0  0  0  0
    3.7553   -1.7865    0.0000 C   0  0  0  0  0  0  0  0  0  0  0  0
    2.4116   -2.2241    0.0000 C   0  0  0  0  0  0  0  0  0  0  0  0
   -1.5625    1.3385    0.0000 C   0  0  0  0  0  0  0  0  0  0  0  0
   -1.9323    2.7136    0.0000 C   0  0  0  0  0  0  0  0  0  0  0  0
   -2.7292    2.5001    0.0000 C   0  0  0  0  0  0  0  0  0  0  0  0
   -2.3542    1.1250    0.0000 C   0  0  0  0  0  0  0  0  0  0  0  0
   -2.9376    1.7135    0.0000 C   0  0  0  0  0  0  0  0  0  0  0  0
  2  1  1  0  0  0  0
  3  1  1  0  0  0  0
  4  3  1  0  0  0  0
  5  2  1  0  0  0  0
  6 10  1  0  0  0  0
  7  4  1  0  0  0  0
  8  1  1  0  0  0  0
  9  2  2  0  0  0  0
 10 13  2  0  0  0  0
 11  3  2  0  0  0  0
 12 21  1  0  0  0  0
 13 17  1  0  0  0  0
 14 16  2  0  0  0  0
 15  7  1  0  0  0  0
 16 15  1  0  0  0  0
 17 15  2  0  0  0  0
 18  6  1  0  0  0  0
 19  6  1  0  0  0  0
 20 18  1  0  0  0  0
 21 19  1  0  0  0  0
 22  8  2  0  0  0  0
 23  8  1  0  0  0  0
 24 23  2  0  0  0  0
 25 22  1  0  0  0  0
 26 24  1  0  0  0  0
  4  5  1  0  0  0  0
 25 26  2  0  0  0  0
 10 14  1  0  0  0  0
 12 20  1  0  0  0  0
M  END
>  <IDNUMBER>
F0021-0037

>  <Chemical_Name>
3-{[4-(morpholin-4-yl)phenyl]amino}-1-phenylpyrrolidine-2,5-dione

>  <PriceCoeff>
1.00

>  <CAS>
320784-66-5

>  <MW>
351.40

>  <Description>
solid

>  <FSP3>
0.30

>  <clogP>
1.94

>  <TPSA>
61.88

>  <Acceptor>
5

>  <Donor>
2

>  <RotBonds>
4

>  <HAC>
26

>  <Collection>
General

>  <PPDS>
+

$$$$
F0030-0090
  Mrv2219 10102508112D          

 27 30  0  0  0  0            999 V2000
    0.7822    1.4671    0.0000 N   0  0  0  0  0  0  0  0  0  0  0  0
    0.3736    0.7433    0.0000 C   0  0  0  0  0  0  0  0  0  0  0  0
    1.5878    1.3037    0.0000 C   0  0  0  0  0  0  0  0  0  0  0  0
    0.9340    0.1401    0.0000 C   0  0  0  0  0  0  0  0  0  0  0  0
    1.6618    0.4787    0.0000 C   0  0  0  0  0  0  0  0  0  0  0  0
   -2.3194   -1.8719    0.0000 N   0  0  0  0  0  0  0  0  0  0  0  0
    0.7822   -0.7005    0.0000 N   0  0  0  0  0  0  0  0  0  0  0  0
    0.3736    2.1949    0.0000 C   0  0  0  0  0  0  0  0  0  0  0  0
   -1.5528   -1.5761    0.0000 C   0  0  0  0  0  0  0  0  0  0  0  0
   -0.4670    0.6499    0.0000 O   0  0  0  0  0  0  0  0  0  0  0  0
    2.2222    1.8407    0.0000 O   0  0  0  0  0  0  0  0  0  0  0  0
   -3.8488   -2.4323    0.0000 O   0  0  0  0  0  0  0  0  0  0  0  0
   -1.4204   -0.7745    0.0000 C   0  0  0  0  0  0  0  0  0  0  0  0
   -0.8990   -2.1015    0.0000 C   0  0  0  0  0  0  0  0  0  0  0  0
    0.0156   -0.9963    0.0000 C   0  0  0  0  0  0  0  0  0  0  0  0
   -0.4514    2.1949    0.0000 C   0  0  0  0  0  0  0  0  0  0  0  0
   -0.1128   -1.8019    0.0000 C   0  0  0  0  0  0  0  0  0  0  0  0
   -0.6382   -0.4709    0.0000 C   0  0  0  0  0  0  0  0  0  0  0  0
   -2.4478   -2.6775    0.0000 C   0  0  0  0  0  0  0  0  0  0  0  0
   -2.9538   -1.3543    0.0000 C   0  0  0  0  0  0  0  0  0  0  0  0
   -3.2184   -2.9577    0.0000 C   0  0  0  0  0  0  0  0  0  0  0  0
   -3.7204   -1.6501    0.0000 C   0  0  0  0  0  0  0  0  0  0  0  0
   -0.8600    2.9071    0.0000 C   0  0  0  0  0  0  0  0  0  0  0  0
   -0.8834    1.4671    0.0000 C   0  0  0  0  0  0  0  0  0  0  0  0
   -1.7006    2.9265    0.0000 C   0  0  0  0  0  0  0  0  0  0  0  0
   -1.7006    1.4671    0.0000 C   0  0  0  0  0  0  0  0  0  0  0  0
   -2.1132    2.1949    0.0000 C   0  0  0  0  0  0  0  0  0  0  0  0
  2  1  1  0  0  0  0
  3  1  1  0  0  0  0
  4  2  1  0  0  0  0
  5  3  1  0  0  0  0
  6  9  1  0  0  0  0
  7  4  1  0  0  0  0
  8  1  1  0  0  0  0
  9 13  1  0  0  0  0
 10  2  2  0  0  0  0
 11  3  2  0  0  0  0
 12 22  1  0  0  0  0
 13 18  2  0  0  0  0
 14 17  1  0  0  0  0
 15  7  1  0  0  0  0
 16  8  1  0  0  0  0
 17 15  2  0  0  0  0
 18 15  1  0  0  0  0
 19  6  1  0  0  0  0
 20  6  1  0  0  0  0
 21 19  1  0  0  0  0
 22 20  1  0  0  0  0
 23 16  1  0  0  0  0
 24 16  2  0  0  0  0
 25 23  2  0  0  0  0
 26 24  1  0  0  0  0
 27 26  2  0  0  0  0
  4  5  1  0  0  0  0
 25 27  1  0  0  0  0
 14  9  2  0  0  0  0
 21 12  1  0  0  0  0
M  END
>  <IDNUMBER>
F0030-0090

>  <Chemical_Name>
1-benzyl-3-{[4-(morpholin-4-yl)phenyl]amino}pyrrolidine-2,5-dione

>  <PriceCoeff>
1.00

>  <CAS>
308101-58-8

>  <MW>
365.43

>  <Description>
solid

>  <FSP3>
0.33

>  <clogP>
2.69

>  <TPSA>
61.88

>  <Acceptor>
5

>  <Donor>
2

>  <RotBonds>
5

>  <HAC>
27

>  <Collection>
General

>  <PPDS>
+

$$$$
F0030-0094
  Mrv2219 10102508112D          

 22 24  0  0  0  0            999 V2000
    0.4964    1.1936    0.0000 N   0  0  0  0  0  0  0  0  0  0  0  0
    1.0074    1.8397    0.0000 C   0  0  0  0  0  0  0  0  0  0  0  0
    0.9527    0.5110    0.0000 C   0  0  0  0  0  0  0  0  0  0  0  0
    1.7557    0.7409    0.0000 C   0  0  0  0  0  0  0  0  0  0  0  0
    1.7776    1.5440    0.0000 C   0  0  0  0  0  0  0  0  0  0  0  0
   -0.3248    1.1936    0.0000 C   0  0  0  0  0  0  0  0  0  0  0  0
    2.4237    0.2482    0.0000 N   0  0  0  0  0  0  0  0  0  0  0  0
    0.7775    2.6463    0.0000 O   0  0  0  0  0  0  0  0  0  0  0  0
    0.6570   -0.2774    0.0000 O   0  0  0  0  0  0  0  0  0  0  0  0
   -0.7446    0.4928    0.0000 C   0  0  0  0  0  0  0  0  0  0  0  0
    2.3361   -0.5585    0.0000 C   0  0  0  0  0  0  0  0  0  0  0  0
    2.1937   -2.1901    0.0000 C   0  0  0  0  0  0  0  0  0  0  0  0
   -0.3066   -0.2227    0.0000 Cl  0  0  0  0  0  0  0  0  0  0  0  0
    2.1280   -3.0113    0.0000 F   0  0  0  0  0  0  0  0  0  0  0  0
    1.6024   -0.9089    0.0000 C   0  0  0  0  0  0  0  0  0  0  0  0
    3.0041   -1.0111    0.0000 C   0  0  0  0  0  0  0  0  0  0  0  0
    1.5330   -1.7119    0.0000 C   0  0  0  0  0  0  0  0  0  0  0  0
    2.9493   -1.8397    0.0000 C   0  0  0  0  0  0  0  0  0  0  0  0
   -0.7446    1.9345    0.0000 C   0  0  0  0  0  0  0  0  0  0  0  0
   -1.5732    0.4928    0.0000 C   0  0  0  0  0  0  0  0  0  0  0  0
   -1.5732    1.9345    0.0000 C   0  0  0  0  0  0  0  0  0  0  0  0
   -1.9893    1.1936    0.0000 C   0  0  0  0  0  0  0  0  0  0  0  0
  2  1  1  0  0  0  0
  3  1  1  0  0  0  0
  4  3  1  0  0  0  0
  5  2  1  0  0  0  0
  6  1  1  0  0  0  0
  7  4  1  0  0  0  0
  8  2  2  0  0  0  0
  9  3  2  0  0  0  0
 10  6  2  0  0  0  0
 11  7  1  0  0  0  0
 12 18  1  0  0  0  0
 13 10  1  0  0  0  0
 14 12  1  0  0  0  0
 15 11  2  0  0  0  0
 16 11  1  0  0  0  0
 17 15  1  0  0  0  0
 18 16  2  0  0  0  0
 19  6  1  0  0  0  0
 20 10  1  0  0  0  0
 21 19  2  0  0  0  0
 22 21  1  0  0  0  0
  5  4  1  0  0  0  0
 22 20  2  0  0  0  0
 17 12  2  0  0  0  0
M  END
>  <IDNUMBER>
F0030-0094

>  <Chemical_Name>
1-(2-chlorophenyl)-3-[(4-fluorophenyl)amino]pyrrolidine-2,5-dione

>  <PriceCoeff>
1.00

>  <CAS>
317814-62-3

>  <MW>
318.73

>  <Description>
solid

>  <FSP3>
0.12

>  <clogP>
3.52

>  <TPSA>
49.41

>  <Acceptor>
3

>  <Donor>
1

>  <RotBonds>
3

>  <HAC>
22

>  <Collection>
General

>  <PPDS>
+

$$$$
F0035-0009
  Mrv2219 10102508112D          

 14 16  0  0  0  0            999 V2000
   -2.3635   -0.1681    0.0000 C   0  0  0  0  0  0  0  0  0  0  0  0
   -3.0050   -0.4563    0.0000 C   0  0  0  0  0  0  0  0  0  0  0  0
   -2.8780   -0.8130    0.0000 C   0  0  0  0  0  0  0  0  0  0  0  0
   -2.3635    0.5523    0.0000 C   0  0  0  0  0  0  0  0  0  0  0  0
   -3.5161   -0.5900    0.0000 C   0  0  0  0  0  0  0  0  0  0  0  0
   -3.8145   -0.1681    0.0000 C   0  0  0  0  0  0  0  0  0  0  0  0
   -3.1147    0.8233    0.0000 C   0  0  0  0  0  0  0  0  0  0  0  0
   -1.4270   -0.5386    0.0000 C   0  0  0  0  0  0  0  0  0  0  0  0
   -3.8145    0.5214    0.0000 C   0  0  0  0  0  0  0  0  0  0  0  0
   -3.5401    0.3396    0.0000 C   0  0  0  0  0  0  0  0  0  0  0  0
   -4.3496   -0.8130    0.0000 C   0  0  0  0  0  0  0  0  0  0  0  0
   -1.3687   -1.3996    0.0000 O   0  0  0  0  0  0  0  0  0  0  0  0
   -0.5454   -0.1269    0.0000 C   0  0  0  0  0  0  0  0  0  0  0  0
    0.3019   -0.6415    0.0000 C   0  0  0  0  0  0  0  0  0  0  0  0
  2  1  1  0  0  0  0
  3  1  1  0  0  0  0
  4  1  1  0  0  0  0
  5  3  1  0  0  0  0
  6  2  1  0  0  0  0
  7  4  1  0  0  0  0
  8  1  1  0  0  0  0
  9  7  1  0  0  0  0
 10  7  1  0  0  0  0
 11  5  1  0  0  0  0
 12  8  1  0  0  0  0
 13  8  1  0  0  0  0
 14 13  1  0  0  0  0
 10  5  1  0  0  0  0
  9  6  1  0  0  0  0
  6 11  1  0  0  0  0
M  END
>  <IDNUMBER>
F0035-0009

>  <Chemical_Name>
1-(adamantan-1-yl)propan-1-ol

>  <PriceCoeff>
1.00

>  <CAS>
18341-84-9

>  <MW>
194.32

>  <Description>
solid

>  <FSP3>
1.00

>  <clogP>
2.85

>  <TPSA>
20.23

>  <Acceptor>
1

>  <Donor>
1

>  <RotBonds>
2

>  <HAC>
14

>  <Collection>
General

>  <PPDS>
+

$$$$
F0037-5306
  Mrv2219 10102508112D          

 16 18  0  0  0  0            999 V2000
   -1.7334    0.3781    0.0000 N   0  0  0  0  0  0  0  0  0  0  0  0
   -1.2915    1.0607    0.0000 C   0  0  0  0  0  0  0  0  0  0  0  0
   -1.7334    1.7040    0.0000 O   0  0  0  0  0  0  0  0  0  0  0  0
   -2.5142    0.6433    0.0000 C   0  0  0  0  0  0  0  0  0  0  0  0
   -2.5142    1.4683    0.0000 C   0  0  0  0  0  0  0  0  0  0  0  0
   -0.4714    1.1000    0.0000 C   0  0  0  0  0  0  0  0  0  0  0  0
   -0.0392    0.4075    0.0000 C   0  0  0  0  0  0  0  0  0  0  0  0
   -0.0982    1.8268    0.0000 C   0  0  0  0  0  0  0  0  0  0  0  0
    1.1786    1.1736    0.0000 C   0  0  0  0  0  0  0  0  0  0  0  0
    1.9888    1.1736    0.0000 N   0  0  0  0  0  0  0  0  0  0  0  0
    0.7268    1.8808    0.0000 C   0  0  0  0  0  0  0  0  0  0  0  0
    0.8005    0.4517    0.0000 C   0  0  0  0  0  0  0  0  0  0  0  0
   -3.2214    0.2160    0.0000 C   0  0  0  0  0  0  0  0  0  0  0  0
   -3.2214    1.8660    0.0000 C   0  0  0  0  0  0  0  0  0  0  0  0
   -3.9482    1.4683    0.0000 C   0  0  0  0  0  0  0  0  0  0  0  0
   -3.9482    0.6138    0.0000 C   0  0  0  0  0  0  0  0  0  0  0  0
  2  1  2  0  0  0  0
  3  2  1  0  0  0  0
  4  1  1  0  0  0  0
  5  4  1  0  0  0  0
  6  2  1  0  0  0  0
  7  6  1  0  0  0  0
  8  6  2  0  0  0  0
  9 11  2  0  0  0  0
 10  9  1  0  0  0  0
 11  8  1  0  0  0  0
 12  7  2  0  0  0  0
 13  4  2  0  0  0  0
 14  5  2  0  0  0  0
 15 16  2  0  0  0  0
 16 13  1  0  0  0  0
  5  3  1  0  0  0  0
 14 15  1  0  0  0  0
  9 12  1  0  0  0  0
M  END
>  <IDNUMBER>
F0037-5306

>  <Chemical_Name>
4-(1,3-benzoxazol-2-yl)aniline

>  <PriceCoeff>
1.00

>  <CAS>
20934-81-0

>  <MW>
210.24

>  <Description>
solid

>  <FSP3>
0.00

>  <clogP>
2.52

>  <TPSA>
52.05

>  <Acceptor>
3

>  <Donor>
1

>  <RotBonds>
1

>  <HAC>
16

>  <Collection>
General

>  <PPDS>
+

$$$$
F0049-0055
  Mrv2219 10102508112D          

 24 25  0  0  0  0            999 V2000
    0.3826    0.2391    0.0000 S   0  0  0  0  0  0  0  0  0  0  0  0
   -0.3467    2.3076    0.0000 C   0  0  0  0  0  0  0  0  0  0  0  0
   -1.0721    2.7460    0.0000 N   0  3  0  0  0  0  0  0  0  0  0  0
   -0.3467    1.4666    0.0000 C   0  0  0  0  0  0  0  0  0  0  0  0
    0.3826    1.0641    0.0000 C   0  0  0  0  0  0  0  0  0  0  0  0
    0.3826   -0.6018    0.0000 N   0  0  0  0  0  0  0  0  0  0  0  0
    2.4870   -1.8453    0.0000 N   0  0  0  0  0  0  0  0  0  0  0  0
    2.5029   -1.0203    0.0000 C   0  0  0  0  0  0  0  0  0  0  0  0
    1.7736   -2.2279    0.0000 C   0  0  0  0  0  0  0  0  0  0  0  0
    1.0880   -1.0043    0.0000 C   0  0  0  0  0  0  0  0  0  0  0  0
    1.1997    0.2391    0.0000 O   0  0  0  0  0  0  0  0  0  0  0  0
   -0.4623    0.2391    0.0000 O   0  0  0  0  0  0  0  0  0  0  0  0
    0.3826    2.7101    0.0000 C   0  0  0  0  0  0  0  0  0  0  0  0
   -1.8014    2.3514    0.0000 O   0  5  0  0  0  0  0  0  0  0  0  0
   -1.0721    3.5511    0.0000 O   0  0  0  0  0  0  0  0  0  0  0  0
    1.0681   -1.8214    0.0000 C   0  0  0  0  0  0  0  0  0  0  0  0
    1.7975   -0.6018    0.0000 C   0  0  0  0  0  0  0  0  0  0  0  0
    1.0880    1.4666    0.0000 C   0  0  0  0  0  0  0  0  0  0  0  0
    1.0880    2.2916    0.0000 C   0  0  0  0  0  0  0  0  0  0  0  0
    0.3826    3.5351    0.0000 Cl  0  0  0  0  0  0  0  0  0  0  0  0
    2.6345   -0.2192    0.0000 C   0  0  0  0  0  0  0  0  0  0  0  0
    3.3279   -1.0203    0.0000 C   0  0  0  0  0  0  0  0  0  0  0  0
    1.6261   -3.0489    0.0000 C   0  0  0  0  0  0  0  0  0  0  0  0
    2.1801   -2.9533    0.0000 C   0  0  0  0  0  0  0  0  0  0  0  0
  2  4  1  0  0  0  0
  3  2  1  0  0  0  0
  4  5  2  0  0  0  0
  5  1  1  0  0  0  0
  6  1  1  0  0  0  0
  7  8  1  0  0  0  0
  8 17  1  0  0  0  0
  9 16  1  0  0  0  0
 10  6  1  0  0  0  0
 11  1  2  0  0  0  0
 12  1  2  0  0  0  0
 13 19  1  0  0  0  0
 14  3  1  0  0  0  0
 15  3  2  0  0  0  0
 16 10  1  0  0  0  0
 17 10  1  0  0  0  0
 18  5  1  0  0  0  0
 19 18  2  0  0  0  0
 20 13  1  0  0  0  0
 21  8  1  0  0  0  0
 22  8  1  0  0  0  0
 23  9  1  0  0  0  0
 24  9  1  0  0  0  0
  7  9  1  0  0  0  0
  2 13  2  0  0  0  0
M  CHG  2   3   1  14  -1
M  END
>  <IDNUMBER>
F0049-0055

>  <Chemical_Name>
4-chloro-3-nitro-N-(2,2,6,6-tetramethylpiperidin-4-yl)benzene-1-sulfonamide

>  <PriceCoeff>
1.00

>  <CAS>
403846-53-7

>  <MW>
375.87

>  <Description>
solid

>  <FSP3>
0.60

>  <clogP>
3.67

>  <TPSA>
109.72

>  <Acceptor>
4

>  <Donor>
2

>  <RotBonds>
4

>  <HAC>
24

>  <Collection>
General

>  <PPDS>
+

$$$$
F0078-0024
  Mrv2219 10102508112D          

 22 24  0  0  0  0            999 V2000
   -1.9566   -1.1503    0.0000 N   0  0  0  0  0  0  0  0  0  0  0  0
   -0.6267   -0.9172    0.0000 C   0  0  0  0  0  0  0  0  0  0  0  0
   -1.3872   -0.5312    0.0000 C   0  0  0  0  0  0  0  0  0  0  0  0
   -1.5324   -1.9070    0.0000 C   0  0  0  0  0  0  0  0  0  0  0  0
   -0.7337   -1.7312    0.0000 C   0  0  0  0  0  0  0  0  0  0  0  0
    0.1185   -0.5503    0.0000 N   0  0  0  0  0  0  0  0  0  0  0  0
   -2.7362   -1.1503    0.0000 C   0  0  0  0  0  0  0  0  0  0  0  0
   -1.4636    0.1490    0.0000 O   0  0  0  0  0  0  0  0  0  0  0  0
   -1.9261   -2.4458    0.0000 O   0  0  0  0  0  0  0  0  0  0  0  0
    0.8064   -1.0089    0.0000 C   0  0  0  0  0  0  0  0  0  0  0  0
    0.0039    0.1949    0.0000 O   0  0  0  0  0  0  0  0  0  0  0  0
   -3.1489   -1.8497    0.0000 C   0  0  0  0  0  0  0  0  0  0  0  0
    0.7681   -1.8382    0.0000 C   0  0  0  0  0  0  0  0  0  0  0  0
    1.5592   -0.6420    0.0000 C   0  0  0  0  0  0  0  0  0  0  0  0
   -3.9629   -1.8382    0.0000 C   0  0  0  0  0  0  0  0  0  0  0  0
   -2.7362   -2.5490    0.0000 C   0  0  0  0  0  0  0  0  0  0  0  0
    1.4675   -2.2929    0.0000 C   0  0  0  0  0  0  0  0  0  0  0  0
    2.2509   -1.1006    0.0000 C   0  0  0  0  0  0  0  0  0  0  0  0
   -3.1604   -3.2560    0.0000 C   0  0  0  0  0  0  0  0  0  0  0  0
   -4.3757   -2.5376    0.0000 C   0  0  0  0  0  0  0  0  0  0  0  0
    2.2165   -1.9299    0.0000 C   0  0  0  0  0  0  0  0  0  0  0  0
   -3.9859   -3.2445    0.0000 C   0  0  0  0  0  0  0  0  0  0  0  0
  2  3  1  0  0  0  0
  3  1  1  0  0  0  0
  4  1  1  0  0  0  0
  5  4  1  0  0  0  0
  6  2  1  0  0  0  0
  7  1  1  0  0  0  0
  8  3  2  0  0  0  0
  9  4  2  0  0  0  0
 10  6  1  0  0  0  0
 11  6  1  0  0  0  0
 12  7  1  0  0  0  0
 13 10  2  0  0  0  0
 14 10  1  0  0  0  0
 15 12  2  0  0  0  0
 16 12  1  0  0  0  0
 17 13  1  0  0  0  0
 18 14  2  0  0  0  0
 19 16  2  0  0  0  0
 20 15  1  0  0  0  0
 21 18  1  0  0  0  0
 22 19  1  0  0  0  0
  2  5  1  0  0  0  0
 22 20  2  0  0  0  0
 21 17  2  0  0  0  0
M  END
>  <IDNUMBER>
F0078-0024

>  <Chemical_Name>
1-benzyl-3-(N-phenylhydroxyamino)pyrrolidine-2,5-dione

>  <PriceCoeff>
1.00

>  <CAS>
308101-38-4

>  <MW>
296.32

>  <Description>
solid

>  <FSP3>
0.18

>  <clogP>
3.42

>  <TPSA>
60.85

>  <Acceptor>
4

>  <Donor>
2

>  <RotBonds>
4

>  <HAC>
22

>  <Collection>
General

>  <PPDS>
+

$$$$
F0081-0015
  Mrv2219 10102508112D          

 13 13  0  0  0  0            999 V2000
   -0.5788   -1.3311    0.0000 C   0  0  0  0  0  0  0  0  0  0  0  0
   -1.4108   -1.3311    0.0000 N   0  0  0  0  0  0  0  0  0  0  0  0
   -0.1421   -2.0417    0.0000 S   0  0  0  0  0  0  0  0  0  0  0  0
   -0.1629   -0.5858    0.0000 N   0  0  0  0  0  0  0  0  0  0  0  0
   -1.8406   -0.6066    0.0000 C   0  0  0  0  0  0  0  0  0  0  0  0
   -0.5788    1.5668    0.0000 O   0  0  0  0  0  0  0  0  0  0  0  0
   -0.5927    0.1248    0.0000 C   0  0  0  0  0  0  0  0  0  0  0  0
   -0.1664    0.8284    0.0000 C   0  0  0  0  0  0  0  0  0  0  0  0
   -1.4420    0.0832    0.0000 C   0  0  0  0  0  0  0  0  0  0  0  0
   -2.6725   -0.6239    0.0000 C   0  0  0  0  0  0  0  0  0  0  0  0
   -3.0781    0.0797    0.0000 C   0  0  0  0  0  0  0  0  0  0  0  0
   -1.8683    0.8284    0.0000 C   0  0  0  0  0  0  0  0  0  0  0  0
   -2.6898    0.8076    0.0000 C   0  0  0  0  0  0  0  0  0  0  0  0
  2  1  1  0  0  0  0
  3  1  2  0  0  0  0
  4  1  1  0  0  0  0
  5  2  1  0  0  0  0
  6  8  1  0  0  0  0
  7  4  1  0  0  0  0
  8  7  1  0  0  0  0
  9  5  1  0  0  0  0
 10  5  2  0  0  0  0
 11 10  1  0  0  0  0
 12  9  2  0  0  0  0
 13 11  2  0  0  0  0
 13 12  1  0  0  0  0
M  END
>  <IDNUMBER>
F0081-0015

>  <Chemical_Name>
3-(2-hydroxyethyl)-1-phenylthiourea

>  <PriceCoeff>
1.00

>  <CAS>
102-12-5

>  <MW>
196.27

>  <Description>
solid

>  <FSP3>
0.22

>  <clogP>
0.31

>  <TPSA>
76.38

>  <Acceptor>
2

>  <Donor>
3

>  <RotBonds>
3

>  <HAC>
13

>  <Collection>
General

>  <PPDS>
+

$$$$
F0095-0737
  Mrv2219 10102508112D          

 21 23  0  0  0  0            999 V2000
    0.9852    0.1621    0.0000 S   0  0  0  0  0  0  0  0  0  0  0  0
    0.9644   -0.6776    0.0000 O   0  0  0  0  0  0  0  0  0  0  0  0
    0.9852    0.9685    0.0000 C   0  0  0  0  0  0  0  0  0  0  0  0
    0.1496    0.1621    0.0000 O   0  0  0  0  0  0  0  0  0  0  0  0
    1.7958    0.1455    0.0000 O   0  0  0  0  0  0  0  0  0  0  0  0
    0.2369   -1.0850    0.0000 C   0  0  0  0  0  0  0  0  0  0  0  0
   -0.4822   -2.3238    0.0000 C   0  0  0  0  0  0  0  0  0  0  0  0
    0.2369   -1.9122    0.0000 C   0  0  0  0  0  0  0  0  0  0  0  0
    0.2661    1.3967    0.0000 C   0  0  0  0  0  0  0  0  0  0  0  0
    1.6960    1.3801    0.0000 C   0  0  0  0  0  0  0  0  0  0  0  0
   -1.1930   -1.9122    0.0000 C   0  0  0  0  0  0  0  0  0  0  0  0
   -1.1930   -1.0850    0.0000 C   0  0  0  0  0  0  0  0  0  0  0  0
    0.9852    2.6272    0.0000 C   0  0  0  0  0  0  0  0  0  0  0  0
   -0.4822   -0.6776    0.0000 C   0  0  0  0  0  0  0  0  0  0  0  0
    0.2661    2.2156    0.0000 C   0  0  0  0  0  0  0  0  0  0  0  0
    1.6960    2.2156    0.0000 C   0  0  0  0  0  0  0  0  0  0  0  0
    0.9852    3.4378    0.0000 Cl  0  0  0  0  0  0  0  0  0  0  0  0
   -0.4822   -3.1468    0.0000 C   0  0  0  0  0  0  0  0  0  0  0  0
   -1.9080   -2.3320    0.0000 C   0  0  0  0  0  0  0  0  0  0  0  0
   -1.1930   -3.5584    0.0000 C   0  0  0  0  0  0  0  0  0  0  0  0
   -1.9080   -3.1468    0.0000 C   0  0  0  0  0  0  0  0  0  0  0  0
  2  1  1  0  0  0  0
  3  1  1  0  0  0  0
  4  1  2  0  0  0  0
  5  1  2  0  0  0  0
  6  2  1  0  0  0  0
  7  8  1  0  0  0  0
  8  6  2  0  0  0  0
  9  3  1  0  0  0  0
 10  3  2  0  0  0  0
 11 12  1  0  0  0  0
 12 14  2  0  0  0  0
 13 16  2  0  0  0  0
 14  6  1  0  0  0  0
 15  9  2  0  0  0  0
 16 10  1  0  0  0  0
 17 13  1  0  0  0  0
 18  7  1  0  0  0  0
 19 11  1  0  0  0  0
 20 18  2  0  0  0  0
 21 19  2  0  0  0  0
 15 13  1  0  0  0  0
 11  7  2  0  0  0  0
 21 20  1  0  0  0  0
M  END
>  <IDNUMBER>
F0095-0737

>  <Chemical_Name>
naphthalen-2-yl 4-chlorobenzene-1-sulfonate

>  <PriceCoeff>
1.00

>  <CAS>
56059-50-8

>  <MW>
318.77

>  <Description>
solid

>  <FSP3>
0.00

>  <clogP>
4.98

>  <TPSA>
51.75

>  <Acceptor>
3

>  <Donor>
0

>  <RotBonds>
3

>  <HAC>
21

>  <Collection>
General

>  <PPDS>
+

$$$$
F0149-0042
  Mrv2219 10102508112D          

 22 23  0  0  0  0            999 V2000
    4.9135    0.3285    0.0000 N   0  3  0  0  0  0  0  0  0  0  0  0
    4.2081    0.7343    0.0000 C   0  0  0  0  0  0  0  0  0  0  0  0
    4.9859   -0.4977    0.0000 O   0  5  0  0  0  0  0  0  0  0  0  0
    1.4349    1.5605    0.0000 C   0  0  0  0  0  0  0  0  0  0  0  0
    5.6575    0.6763    0.0000 O   0  0  0  0  0  0  0  0  0  0  0  0
    2.0920    1.9663    0.0000 O   0  0  0  0  0  0  0  0  0  0  0  0
    1.4494    0.6957    0.0000 O   0  0  0  0  0  0  0  0  0  0  0  0
   -0.9807    0.6957    0.0000 C   0  0  0  0  0  0  0  0  0  0  0  0
    3.4834    0.3285    0.0000 C   0  0  0  0  0  0  0  0  0  0  0  0
    4.2081    1.5605    0.0000 C   0  0  0  0  0  0  0  0  0  0  0  0
   -0.0241    1.7538    0.0000 O   0  0  0  0  0  0  0  0  0  0  0  0
    0.7586    2.0243    0.0000 C   0  0  0  0  0  0  0  0  0  0  0  0
    2.7829    1.5605    0.0000 C   0  0  0  0  0  0  0  0  0  0  0  0
   -0.1884    0.9517    0.0000 C   0  0  0  0  0  0  0  0  0  0  0  0
   -1.1547   -0.1015    0.0000 C   0  0  0  0  0  0  0  0  0  0  0  0
    2.7829    0.7488    0.0000 C   0  0  0  0  0  0  0  0  0  0  0  0
    3.4834    1.9712    0.0000 C   0  0  0  0  0  0  0  0  0  0  0  0
   -1.9277   -0.3334    0.0000 O   0  0  0  0  0  0  0  0  0  0  0  0
    0.2658   -0.3913    0.0000 C   0  0  0  0  0  0  0  0  0  0  0  0
    0.4252    0.4203    0.0000 C   0  0  0  0  0  0  0  0  0  0  0  0
   -0.5363   -0.6571    0.0000 C   0  0  0  0  0  0  0  0  0  0  0  0
   -2.5316    0.2270    0.0000 C   0  0  0  0  0  0  0  0  0  0  0  0
  2  1  1  0  0  0  0
  3  1  1  0  0  0  0
  4  6  1  0  0  0  0
  5  1  2  0  0  0  0
  6 13  1  0  0  0  0
  7  4  2  0  0  0  0
  8 14  2  0  0  0  0
  9  2  2  0  0  0  0
 10  2  1  0  0  0  0
 11 12  1  0  0  0  0
 12  4  1  0  0  0  0
 13 17  1  0  0  0  0
 14 11  1  0  0  0  0
 15  8  1  0  0  0  0
 16  9  1  0  0  0  0
 17 10  2  0  0  0  0
 18 15  1  0  0  0  0
 19 20  2  0  0  0  0
 20 14  1  0  0  0  0
 21 19  1  0  0  0  0
 22 18  1  0  0  0  0
 16 13  2  0  0  0  0
 15 21  2  0  0  0  0
M  CHG  2   1   1   3  -1
M  END
>  <IDNUMBER>
F0149-0042

>  <Chemical_Name>
4-nitrophenyl 2-(3-methoxyphenoxy)acetate

>  <PriceCoeff>
1.00

>  <CAS>
391221-85-5

>  <MW>
303.27

>  <Description>
solid

>  <FSP3>
0.13

>  <clogP>
3.06

>  <TPSA>
87.90

>  <Acceptor>
6

>  <Donor>
0

>  <RotBonds>
7

>  <HAC>
22

>  <Collection>
General

>  <PPDS>
+

$$$$
F0158-0017
  Mrv2219 10102508112D          

 28 31  0  0  0  0            999 V2000
   -0.8167    1.0448    0.0000 N   0  0  0  0  0  0  0  0  0  0  0  0
   -0.3607    1.7247    0.0000 C   0  0  0  0  0  0  0  0  0  0  0  0
   -0.2985    0.4105    0.0000 C   0  0  0  0  0  0  0  0  0  0  0  0
    0.4768    0.6924    0.0000 C   0  0  0  0  0  0  0  0  0  0  0  0
    0.4353    1.5050    0.0000 C   0  0  0  0  0  0  0  0  0  0  0  0
    4.1461    1.6625    0.0000 N   0  0  0  0  0  0  0  0  0  0  0  0
    1.1734    0.2321    0.0000 N   0  0  0  0  0  0  0  0  0  0  0  0
   -1.6377    1.0448    0.0000 C   0  0  0  0  0  0  0  0  0  0  0  0
   -0.6592    2.5208    0.0000 O   0  0  0  0  0  0  0  0  0  0  0  0
    3.3998    1.3143    0.0000 C   0  0  0  0  0  0  0  0  0  0  0  0
   -0.5182   -0.4022    0.0000 O   0  0  0  0  0  0  0  0  0  0  0  0
    5.6594    2.3508    0.0000 O   0  0  0  0  0  0  0  0  0  0  0  0
   -2.0357    1.7620    0.0000 C   0  0  0  0  0  0  0  0  0  0  0  0
   -2.0357    0.3483    0.0000 C   0  0  0  0  0  0  0  0  0  0  0  0
    3.3376    0.4975    0.0000 C   0  0  0  0  0  0  0  0  0  0  0  0
    2.7157    1.7869    0.0000 C   0  0  0  0  0  0  0  0  0  0  0  0
    1.9072    0.5970    0.0000 C   0  0  0  0  0  0  0  0  0  0  0  0
   -3.2671    1.0448    0.0000 C   0  0  0  0  0  0  0  0  0  0  0  0
    2.5871    0.1451    0.0000 C   0  0  0  0  0  0  0  0  0  0  0  0
    1.9694    1.4386    0.0000 C   0  0  0  0  0  0  0  0  0  0  0  0
   -2.8483    1.7869    0.0000 C   0  0  0  0  0  0  0  0  0  0  0  0
   -2.8690    0.3483    0.0000 C   0  0  0  0  0  0  0  0  0  0  0  0
    4.8136    1.1899    0.0000 C   0  0  0  0  0  0  0  0  0  0  0  0
    4.2165    2.4876    0.0000 C   0  0  0  0  0  0  0  0  0  0  0  0
   -4.0797    1.0075    0.0000 O   0  0  0  0  0  0  0  0  0  0  0  0
    4.9794    2.8359    0.0000 C   0  0  0  0  0  0  0  0  0  0  0  0
    5.5765    1.5257    0.0000 C   0  0  0  0  0  0  0  0  0  0  0  0
   -4.5275    1.6916    0.0000 C   0  0  0  0  0  0  0  0  0  0  0  0
  2  1  1  0  0  0  0
  3  1  1  0  0  0  0
  4  3  1  0  0  0  0
  5  2  1  0  0  0  0
  6 10  1  0  0  0  0
  7  4  1  0  0  0  0
  8  1  1  0  0  0  0
  9  2  2  0  0  0  0
 10 16  1  0  0  0  0
 11  3  2  0  0  0  0
 12 26  1  0  0  0  0
 13  8  2  0  0  0  0
 14  8  1  0  0  0  0
 15 19  1  0  0  0  0
 16 20  2  0  0  0  0
 17  7  1  0  0  0  0
 18 22  1  0  0  0  0
 19 17  2  0  0  0  0
 20 17  1  0  0  0  0
 21 13  1  0  0  0  0
 22 14  2  0  0  0  0
 23  6  1  0  0  0  0
 24  6  1  0  0  0  0
 25 18  1  0  0  0  0
 26 24  1  0  0  0  0
 27 23  1  0  0  0  0
 28 25  1  0  0  0  0
  4  5  1  0  0  0  0
 18 21  2  0  0  0  0
 15 10  2  0  0  0  0
 12 27  1  0  0  0  0
M  END
>  <IDNUMBER>
F0158-0017

>  <Chemical_Name>
1-(4-methoxyphenyl)-3-{[4-(morpholin-4-yl)phenyl]amino}pyrrolidine-2,5-dione

>  <PriceCoeff>
1.00

>  <CAS>
469890-91-3

>  <MW>
381.43

>  <Description>
solid

>  <FSP3>
0.33

>  <clogP>
2.03

>  <TPSA>
71.11

>  <Acceptor>
6

>  <Donor>
2

>  <RotBonds>
5

>  <HAC>
28

>  <Collection>
General

>  <PPDS>
+

$$$$
F0182-0152
  Mrv2219 10102508112D          

 26 27  0  0  0  0            999 V2000
    3.1717   -1.3102    0.0000 C   0  0  0  0  0  0  0  0  0  0  0  0
    3.1717   -2.1435    0.0000 C   0  0  0  0  0  0  0  0  0  0  0  0
    2.4545   -0.8997    0.0000 C   0  0  0  0  0  0  0  0  0  0  0  0
    2.4545   -2.5540    0.0000 N   0  0  0  0  0  0  0  0  0  0  0  0
    1.0365   -0.0664    0.0000 N   0  3  0  0  0  0  0  0  0  0  0  0
    2.4545   -0.0788    0.0000 C   0  0  0  0  0  0  0  0  0  0  0  0
    1.7413    0.3317    0.0000 C   0  0  0  0  0  0  0  0  0  0  0  0
    1.7413   -2.1435    0.0000 C   0  0  0  0  0  0  0  0  0  0  0  0
    3.8807   -0.8997    0.0000 C   0  0  0  0  0  0  0  0  0  0  0  0
    4.5897   -0.4893    0.0000 N   0  0  0  0  0  0  0  0  0  0  0  0
    1.7413   -1.3102    0.0000 C   0  0  0  0  0  0  0  0  0  0  0  0
    0.2903    0.2695    0.0000 O   0  5  0  0  0  0  0  0  0  0  0  0
    0.9826   -0.8873    0.0000 O   0  0  0  0  0  0  0  0  0  0  0  0
    3.8725   -2.5416    0.0000 S   0  0  0  0  0  0  0  0  0  0  0  0
    1.0365   -2.5416    0.0000 O   0  0  0  0  0  0  0  0  0  0  0  0
    3.1717    0.3317    0.0000 C   0  0  0  0  0  0  0  0  0  0  0  0
    1.7413    1.1650    0.0000 C   0  0  0  0  0  0  0  0  0  0  0  0
    3.1717    1.1650    0.0000 C   0  0  0  0  0  0  0  0  0  0  0  0
    2.4545    1.5755    0.0000 C   0  0  0  0  0  0  0  0  0  0  0  0
    6.6835   -1.1111    0.0000 N   0  0  0  0  0  0  0  0  0  0  0  0
    6.6835    0.5348    0.0000 O   0  0  0  0  0  0  0  0  0  0  0  0
    7.3966   -0.7006    0.0000 C   0  0  0  0  0  0  0  0  0  0  0  0
    5.9745   -0.7006    0.0000 C   0  0  0  0  0  0  0  0  0  0  0  0
    6.6835   -1.9320    0.0000 C   0  0  0  0  0  0  0  0  0  0  0  0
    5.9745    0.1244    0.0000 C   0  0  0  0  0  0  0  0  0  0  0  0
    7.3966    0.1244    0.0000 C   0  0  0  0  0  0  0  0  0  0  0  0
  9  1  1  0  0  0  0
 10  9  3  0  0  0  0
 11  3  1  0  0  0  0
 12  5  1  0  0  0  0
 13  5  2  0  0  0  0
 14  2  1  0  0  0  0
 15  8  2  0  0  0  0
 16  6  1  0  0  0  0
 17  7  1  0  0  0  0
 18 16  2  0  0  0  0
 19 18  1  0  0  0  0
  4  8  1  0  0  0  0
 19 17  2  0  0  0  0
  2  1  2  0  0  0  0
  3  1  1  0  0  0  0
  4  2  1  0  0  0  0
  5  7  1  0  0  0  0
  6  3  1  0  0  0  0
  7  6  2  0  0  0  0
  8 11  1  0  0  0  0
 21 25  1  0  0  0  0
 22 20  1  0  0  0  0
 23 20  1  0  0  0  0
 24 20  1  0  0  0  0
 25 23  1  0  0  0  0
 26 22  1  0  0  0  0
 26 21  1  0  0  0  0
M  CHG  2   5   1  12  -1
M  END
>  <IDNUMBER>
F0182-0152

>  <Chemical_Name>
4-(2-nitrophenyl)-6-oxo-2-sulfanyl-1,4,5,6-tetrahydropyridine-3-carbonitrile; 4-methylmorpholine

>  <PriceCoeff>
1.00

>  <CAS>
1330296-44-0

>  <MW>
275.28

>  <Description>
solid

>  <FSP3>
0.17

>  <clogP>
0.65

>  <TPSA>
134.83

>  <Acceptor>
4

>  <Donor>
2

>  <RotBonds>
2

>  <HAC>
19

>  <Collection>
General

$$$$
F0183-0065
  Mrv2219 10102508112D          

 14 14  0  0  0  0            999 V2000
   -0.9666    0.0385    0.0000 C   0  0  0  0  0  0  0  0  0  0  0  0
   -0.9666    0.8580    0.0000 N   0  0  0  0  0  0  0  0  0  0  0  0
   -0.2486   -0.3678    0.0000 N   0  0  0  0  0  0  0  0  0  0  0  0
    0.4623    0.8790    0.0000 N   0  0  0  0  0  0  0  0  0  0  0  0
   -0.2627    1.2783    0.0000 C   0  0  0  0  0  0  0  0  0  0  0  0
    0.4623    0.0525    0.0000 C   0  0  0  0  0  0  0  0  0  0  0  0
   -1.6775   -0.4028    0.0000 N   0  0  0  0  0  0  0  0  0  0  0  0
   -0.2627    2.1013    0.0000 S   0  0  0  0  0  0  0  0  0  0  0  0
    1.2013   -0.3818    0.0000 N   0  0  0  0  0  0  0  0  0  0  0  0
   -2.3955    0.0175    0.0000 C   0  0  0  0  0  0  0  0  0  0  0  0
    1.2013   -1.2083    0.0000 C   0  0  0  0  0  0  0  0  0  0  0  0
   -2.4130    0.8405    0.0000 C   0  0  0  0  0  0  0  0  0  0  0  0
   -3.1064   -0.4203    0.0000 C   0  0  0  0  0  0  0  0  0  0  0  0
    1.9052   -1.6111    0.0000 C   0  0  0  0  0  0  0  0  0  0  0  0
  2  1  1  0  0  0  0
  3  1  2  0  0  0  0
  4  6  2  0  0  0  0
  5  2  2  0  0  0  0
  6  3  1  0  0  0  0
  7  1  1  0  0  0  0
  8  5  1  0  0  0  0
  9  6  1  0  0  0  0
 10  7  1  0  0  0  0
 11  9  1  0  0  0  0
 12 10  1  0  0  0  0
 13 10  1  0  0  0  0
 14 11  1  0  0  0  0
  4  5  1  0  0  0  0
M  END
>  <IDNUMBER>
F0183-0065

>  <Chemical_Name>
4-(ethylamino)-6-[(propan-2-yl)amino]-1,3,5-triazine-2-thiol

>  <PriceCoeff>
1.00

>  <CAS>
5498-17-9

>  <MW>
213.31

>  <Description>
solid

>  <FSP3>
0.63

>  <clogP>
2.06

>  <TPSA>
62.73

>  <Acceptor>
3

>  <Donor>
5

>  <RotBonds>
4

>  <HAC>
14

>  <Collection>
General

>  <PPDS>
+

$$$$
F0191-4540
  Mrv2219 10102508112D          

 15 17  0  0  0  0            999 V2000
   -2.0457   -3.0481    0.0000 C   0  0  0  0  0  0  0  0  0  0  0  0
   -2.5233   -2.3760    0.0000 N   0  0  0  0  0  0  0  0  0  0  0  0
   -2.5233   -3.7320    0.0000 N   0  0  0  0  0  0  0  0  0  0  0  0
   -3.3192   -2.6236    0.0000 C   0  0  0  0  0  0  0  0  0  0  0  0
   -3.3192   -3.4726    0.0000 C   0  0  0  0  0  0  0  0  0  0  0  0
   -1.2204   -3.0245    0.0000 C   0  0  0  0  0  0  0  0  0  0  0  0
    0.4775   -2.9950    0.0000 N   0  0  0  0  0  0  0  0  0  0  0  0
   -4.0267   -2.2346    0.0000 C   0  0  0  0  0  0  0  0  0  0  0  0
   -4.0267   -3.8735    0.0000 C   0  0  0  0  0  0  0  0  0  0  0  0
    0.0236   -2.3170    0.0000 C   0  0  0  0  0  0  0  0  0  0  0  0
    0.0531   -3.7320    0.0000 C   0  0  0  0  0  0  0  0  0  0  0  0
   -0.7960   -2.3170    0.0000 C   0  0  0  0  0  0  0  0  0  0  0  0
   -0.7960   -3.7320    0.0000 C   0  0  0  0  0  0  0  0  0  0  0  0
   -4.7341   -2.6590    0.0000 C   0  0  0  0  0  0  0  0  0  0  0  0
   -4.7341   -3.4489    0.0000 C   0  0  0  0  0  0  0  0  0  0  0  0
  2  1  2  0  0  0  0
  3  1  1  0  0  0  0
  4  2  1  0  0  0  0
  5  3  1  0  0  0  0
  6  1  1  0  0  0  0
  7 11  1  0  0  0  0
  8  4  1  0  0  0  0
  9  5  1  0  0  0  0
 10 12  1  0  0  0  0
 11 13  2  0  0  0  0
 12  6  2  0  0  0  0
 13  6  1  0  0  0  0
 14  8  2  0  0  0  0
 15  9  2  0  0  0  0
  5  4  2  0  0  0  0
 10  7  2  0  0  0  0
 15 14  1  0  0  0  0
M  END
>  <IDNUMBER>
F0191-4540

>  <Chemical_Name>
2-(pyridin-4-yl)-1H-1,3-benzodiazole

>  <PriceCoeff>
1.50

>  <CAS>
2208-59-5

>  <MW>
195.22

>  <Description>
solid

>  <FSP3>
0.00

>  <clogP>
2.07

>  <TPSA>
41.57

>  <Acceptor>
3

>  <Donor>
3

>  <RotBonds>
1

>  <HAC>
15

>  <Collection>
Advanced

>  <PPDS>
+

$$$$
F0191-5659
  Mrv2219 10102508112D          

 21 22  0  0  0  0            999 V2000
    1.7286    1.4290    0.0000 N   0  3  0  0  0  0  0  0  0  0  0  0
   -1.7826    0.0540    0.0000 C   0  0  0  0  0  0  0  0  0  0  0  0
   -2.4897   -0.3585    0.0000 C   0  0  0  0  0  0  0  0  0  0  0  0
   -1.0410   -0.3291    0.0000 N   0  0  0  0  0  0  0  0  0  0  0  0
    1.0362    0.9968    0.0000 C   0  0  0  0  0  0  0  0  0  0  0  0
    1.0804    0.1718    0.0000 C   0  0  0  0  0  0  0  0  0  0  0  0
   -0.3536    0.1129    0.0000 C   0  0  0  0  0  0  0  0  0  0  0  0
    0.3733   -0.2701    0.0000 C   0  0  0  0  0  0  0  0  0  0  0  0
    2.4947    1.1147    0.0000 O   0  5  0  0  0  0  0  0  0  0  0  0
    1.7531    2.2540    0.0000 O   0  0  0  0  0  0  0  0  0  0  0  0
   -1.7679    0.8790    0.0000 O   0  0  0  0  0  0  0  0  0  0  0  0
   -2.4897   -1.1835    0.0000 C   0  0  0  0  0  0  0  0  0  0  0  0
    0.2946    1.3799    0.0000 C   0  0  0  0  0  0  0  0  0  0  0  0
   -0.3928    0.9379    0.0000 C   0  0  0  0  0  0  0  0  0  0  0  0
    0.3978   -1.0804    0.0000 Cl  0  0  0  0  0  0  0  0  0  0  0  0
   -3.1969    0.0540    0.0000 C   0  0  0  0  0  0  0  0  0  0  0  0
   -1.7826   -1.5960    0.0000 O   0  0  0  0  0  0  0  0  0  0  0  0
   -3.1969   -1.5960    0.0000 C   0  0  0  0  0  0  0  0  0  0  0  0
   -1.7826   -2.4161    0.0000 C   0  0  0  0  0  0  0  0  0  0  0  0
   -3.9138   -0.3585    0.0000 C   0  0  0  0  0  0  0  0  0  0  0  0
   -3.9138   -1.1835    0.0000 C   0  0  0  0  0  0  0  0  0  0  0  0
  2  4  1  0  0  0  0
  3  2  1  0  0  0  0
  4  7  1  0  0  0  0
  5  1  1  0  0  0  0
  6  5  1  0  0  0  0
  7 14  2  0  0  0  0
  8  6  2  0  0  0  0
  9  1  1  0  0  0  0
 10  1  2  0  0  0  0
 11  2  2  0  0  0  0
 12  3  2  0  0  0  0
 13  5  2  0  0  0  0
 14 13  1  0  0  0  0
 15  8  1  0  0  0  0
 16  3  1  0  0  0  0
 17 12  1  0  0  0  0
 18 12  1  0  0  0  0
 19 17  1  0  0  0  0
 20 16  2  0  0  0  0
 21 20  1  0  0  0  0
  7  8  1  0  0  0  0
 18 21  2  0  0  0  0
M  CHG  2   1   1   9  -1
M  END
>  <IDNUMBER>
F0191-5659

>  <Chemical_Name>
N-(2-chloro-4-nitrophenyl)-2-methoxybenzamide

>  <PriceCoeff>
1.00

>  <CAS>
133687-89-5

>  <MW>
306.70

>  <Description>
solid

>  <FSP3>
0.07

>  <clogP>
2.92

>  <TPSA>
81.47

>  <Acceptor>
4

>  <Donor>
1

>  <RotBonds>
4

>  <HAC>
21

>  <Collection>
General

>  <PPDS>
+

$$$$
F0196-0030
  Mrv2219 10102508112D          

 19 21  0  0  0  0            999 V2000
    1.0485    2.3466    0.0000 C   0  0  0  0  0  0  0  0  0  0  0  0
    0.3329    1.9472    0.0000 C   0  0  0  0  0  0  0  0  0  0  0  0
   -0.3938    2.3466    0.0000 C   0  0  0  0  0  0  0  0  0  0  0  0
    1.0485    3.1954    0.0000 C   0  0  0  0  0  0  0  0  0  0  0  0
   -0.3938    3.1732    0.0000 C   0  0  0  0  0  0  0  0  0  0  0  0
    0.3329    3.6059    0.0000 O   0  0  0  0  0  0  0  0  0  0  0  0
   -1.0818    1.9472    0.0000 C   0  0  0  0  0  0  0  0  0  0  0  0
   -1.0818    3.6059    0.0000 C   0  0  0  0  0  0  0  0  0  0  0  0
    1.7364    1.9250    0.0000 C   0  0  0  0  0  0  0  0  0  0  0  0
    0.3329    1.1261    0.0000 O   0  0  0  0  0  0  0  0  0  0  0  0
   -1.7974    3.1954    0.0000 C   0  0  0  0  0  0  0  0  0  0  0  0
   -1.7974    2.3466    0.0000 C   0  0  0  0  0  0  0  0  0  0  0  0
   -2.5241    3.6558    0.0000 O   0  0  0  0  0  0  0  0  0  0  0  0
    1.7142    1.0818    0.0000 C   0  0  0  0  0  0  0  0  0  0  0  0
    2.4687    2.3077    0.0000 C   0  0  0  0  0  0  0  0  0  0  0  0
   -3.2397    3.2564    0.0000 C   0  0  0  0  0  0  0  0  0  0  0  0
    3.1677    1.8806    0.0000 C   0  0  0  0  0  0  0  0  0  0  0  0
    2.4021    0.6601    0.0000 C   0  0  0  0  0  0  0  0  0  0  0  0
    3.1344    1.0429    0.0000 C   0  0  0  0  0  0  0  0  0  0  0  0
  2  1  1  0  0  0  0
  3  2  1  0  0  0  0
  4  1  2  0  0  0  0
  5  6  1  0  0  0  0
  6  4  1  0  0  0  0
  7  3  1  0  0  0  0
  8  5  1  0  0  0  0
  9  1  1  0  0  0  0
 10  2  2  0  0  0  0
 11  8  2  0  0  0  0
 12  7  2  0  0  0  0
 13 11  1  0  0  0  0
 14  9  2  0  0  0  0
 15  9  1  0  0  0  0
 16 13  1  0  0  0  0
 17 15  2  0  0  0  0
 18 14  1  0  0  0  0
 19 17  1  0  0  0  0
  3  5  2  0  0  0  0
 18 19  2  0  0  0  0
 12 11  1  0  0  0  0
M  END
>  <IDNUMBER>
F0196-0030

>  <Chemical_Name>
7-methoxy-3-phenyl-4H-chromen-4-one

>  <PriceCoeff>
1.00

>  <CAS>
1621-56-3

>  <MW>
252.26

>  <Description>
solid

>  <FSP3>
0.06

>  <clogP>
3.09

>  <TPSA>
35.53

>  <Acceptor>
3

>  <Donor>
0

>  <RotBonds>
2

>  <HAC>
19

>  <Collection>
General

>  <PPDS>
+

$$$$
F0196-0113
  Mrv2219 10102508112D          

 25 28  0  0  0  0            999 V2000
   -0.4177   -0.0786    0.0000 C   0  0  0  0  0  0  0  0  0  0  0  0
   -1.1374   -0.4757    0.0000 C   0  0  0  0  0  0  0  0  0  0  0  0
   -1.8488   -0.0786    0.0000 C   0  0  0  0  0  0  0  0  0  0  0  0
   -0.4177    0.7569    0.0000 C   0  0  0  0  0  0  0  0  0  0  0  0
   -1.8488    0.7569    0.0000 C   0  0  0  0  0  0  0  0  0  0  0  0
   -1.1374    1.1746    0.0000 O   0  0  0  0  0  0  0  0  0  0  0  0
    0.2978   -0.4963    0.0000 C   0  0  0  0  0  0  0  0  0  0  0  0
   -2.5437   -0.4757    0.0000 C   0  0  0  0  0  0  0  0  0  0  0  0
   -2.5437    1.1746    0.0000 C   0  0  0  0  0  0  0  0  0  0  0  0
    0.9927   -0.0786    0.0000 C   0  0  0  0  0  0  0  0  0  0  0  0
    1.7041   -0.4963    0.0000 C   0  0  0  0  0  0  0  0  0  0  0  0
   -3.2592   -0.0786    0.0000 C   0  0  0  0  0  0  0  0  0  0  0  0
   -1.1374   -1.3070    0.0000 O   0  0  0  0  0  0  0  0  0  0  0  0
    1.7041   -1.3070    0.0000 C   0  0  0  0  0  0  0  0  0  0  0  0
   -3.2592    0.7569    0.0000 C   0  0  0  0  0  0  0  0  0  0  0  0
    0.2771   -1.3070    0.0000 C   0  0  0  0  0  0  0  0  0  0  0  0
    2.3369    0.0206    0.0000 O   0  0  0  0  0  0  0  0  0  0  0  0
    2.3369   -1.8240    0.0000 O   0  0  0  0  0  0  0  0  0  0  0  0
    0.9927   -1.7247    0.0000 C   0  0  0  0  0  0  0  0  0  0  0  0
   -2.5437   -1.3070    0.0000 O   0  0  0  0  0  0  0  0  0  0  0  0
    0.2978    1.1746    0.0000 C   0  0  0  0  0  0  0  0  0  0  0  0
   -3.9706    1.1746    0.0000 O   0  0  0  0  0  0  0  0  0  0  0  0
    3.4909   -0.8934    0.0000 C   0  0  0  0  0  0  0  0  0  0  0  0
    3.1310   -0.1531    0.0000 C   0  0  0  0  0  0  0  0  0  0  0  0
    3.1310   -1.6421    0.0000 C   0  0  0  0  0  0  0  0  0  0  0  0
  2  1  1  0  0  0  0
  3  2  1  0  0  0  0
  4  1  2  0  0  0  0
  5  6  1  0  0  0  0
  6  4  1  0  0  0  0
  7  1  1  0  0  0  0
  8  3  1  0  0  0  0
  9  5  1  0  0  0  0
 10  7  2  0  0  0  0
 11 10  1  0  0  0  0
 12  8  2  0  0  0  0
 13  2  2  0  0  0  0
 14 19  1  0  0  0  0
 15  9  2  0  0  0  0
 16  7  1  0  0  0  0
 17 11  1  0  0  0  0
 18 14  1  0  0  0  0
 19 16  2  0  0  0  0
 20  8  1  0  0  0  0
 21  4  1  0  0  0  0
 22 15  1  0  0  0  0
 23 24  1  0  0  0  0
 24 17  1  0  0  0  0
 25 18  1  0  0  0  0
  3  5  2  0  0  0  0
 11 14  2  0  0  0  0
 15 12  1  0  0  0  0
 25 23  1  0  0  0  0
M  END
>  <IDNUMBER>
F0196-0113

>  <Chemical_Name>
3-(3,4-dihydro-2H-1,5-benzodioxepin-7-yl)-5,7-dihydroxy-2-methyl-4H-chromen-4-one

>  <PriceCoeff>
1.00

>  <CAS>
169903-86-0

>  <MW>
340.33

>  <Description>
solid

>  <FSP3>
0.21

>  <clogP>
3.35

>  <TPSA>
85.22

>  <Acceptor>
6

>  <Donor>
2

>  <RotBonds>
1

>  <HAC>
25

>  <Collection>
General

>  <PPDS>
+

$$$$
F0196-0125
  Mrv2219 10102508112D          

 22 25  0  0  0  0            999 V2000
    0.7007   -0.2178    0.0000 C   0  0  0  0  0  0  0  0  0  0  0  0
   -0.0109   -0.6353    0.0000 C   0  0  0  0  0  0  0  0  0  0  0  0
   -0.7260   -0.2178    0.0000 C   0  0  0  0  0  0  0  0  0  0  0  0
    0.7007    0.6062    0.0000 C   0  0  0  0  0  0  0  0  0  0  0  0
   -0.7260    0.6062    0.0000 C   0  0  0  0  0  0  0  0  0  0  0  0
    1.4195   -0.6353    0.0000 C   0  0  0  0  0  0  0  0  0  0  0  0
   -0.0109    1.0201    0.0000 O   0  0  0  0  0  0  0  0  0  0  0  0
    2.8461   -0.6353    0.0000 C   0  0  0  0  0  0  0  0  0  0  0  0
    2.1274   -0.2178    0.0000 C   0  0  0  0  0  0  0  0  0  0  0  0
   -1.4376   -0.6353    0.0000 C   0  0  0  0  0  0  0  0  0  0  0  0
   -1.4376    1.0201    0.0000 C   0  0  0  0  0  0  0  0  0  0  0  0
    2.8461   -1.4702    0.0000 C   0  0  0  0  0  0  0  0  0  0  0  0
   -0.0109   -1.4702    0.0000 O   0  0  0  0  0  0  0  0  0  0  0  0
    3.5613   -0.2178    0.0000 O   0  0  0  0  0  0  0  0  0  0  0  0
    1.4195   -1.4702    0.0000 C   0  0  0  0  0  0  0  0  0  0  0  0
    3.5613   -1.8732    0.0000 O   0  0  0  0  0  0  0  0  0  0  0  0
    2.1274   -1.8732    0.0000 C   0  0  0  0  0  0  0  0  0  0  0  0
   -2.1527    0.6062    0.0000 C   0  0  0  0  0  0  0  0  0  0  0  0
   -2.1527   -0.2178    0.0000 C   0  0  0  0  0  0  0  0  0  0  0  0
   -2.8715    1.0201    0.0000 O   0  0  0  0  0  0  0  0  0  0  0  0
    4.2728   -0.6353    0.0000 C   0  0  0  0  0  0  0  0  0  0  0  0
    4.2728   -1.4702    0.0000 C   0  0  0  0  0  0  0  0  0  0  0  0
  2  1  1  0  0  0  0
  3  2  1  0  0  0  0
  4  1  2  0  0  0  0
  5  7  1  0  0  0  0
  6  1  1  0  0  0  0
  7  4  1  0  0  0  0
  8  9  2  0  0  0  0
  9  6  1  0  0  0  0
 10  3  1  0  0  0  0
 11  5  1  0  0  0  0
 12 17  2  0  0  0  0
 13  2  2  0  0  0  0
 14  8  1  0  0  0  0
 15  6  2  0  0  0  0
 16 12  1  0  0  0  0
 17 15  1  0  0  0  0
 18 11  2  0  0  0  0
 19 10  2  0  0  0  0
 20 18  1  0  0  0  0
 21 14  1  0  0  0  0
 22 16  1  0  0  0  0
  5  3  2  0  0  0  0
  8 12  1  0  0  0  0
 18 19  1  0  0  0  0
 21 22  1  0  0  0  0
M  END
>  <IDNUMBER>
F0196-0125

>  <Chemical_Name>
3-(2,3-dihydro-1,4-benzodioxin-6-yl)-7-hydroxy-4H-chromen-4-one

>  <PriceCoeff>
1.00

>  <CAS>
96754-91-5

>  <MW>
296.27

>  <Description>
solid

>  <FSP3>
0.12

>  <clogP>
2.64

>  <TPSA>
64.99

>  <Acceptor>
5

>  <Donor>
1

>  <RotBonds>
1

>  <HAC>
22

>  <Collection>
General

>  <PPDS>
+

$$$$
F0196-0180
  Mrv2219 10102508112D          

 19 21  0  0  0  0            999 V2000
    0.0555   -0.5500    0.0000 C   0  0  0  0  0  0  0  0  0  0  0  0
   -0.6608   -0.9764    0.0000 C   0  0  0  0  0  0  0  0  0  0  0  0
   -1.3771   -0.5671    0.0000 C   0  0  0  0  0  0  0  0  0  0  0  0
    0.0555    0.2686    0.0000 C   0  0  0  0  0  0  0  0  0  0  0  0
   -1.3771    0.2686    0.0000 C   0  0  0  0  0  0  0  0  0  0  0  0
   -0.6608    0.6779    0.0000 O   0  0  0  0  0  0  0  0  0  0  0  0
    0.7718   -0.9593    0.0000 C   0  0  0  0  0  0  0  0  0  0  0  0
   -2.0934   -0.9764    0.0000 C   0  0  0  0  0  0  0  0  0  0  0  0
   -2.0934    0.6779    0.0000 C   0  0  0  0  0  0  0  0  0  0  0  0
   -0.6608   -1.7950    0.0000 O   0  0  0  0  0  0  0  0  0  0  0  0
    1.4881   -0.5500    0.0000 C   0  0  0  0  0  0  0  0  0  0  0  0
    0.7718   -1.7950    0.0000 C   0  0  0  0  0  0  0  0  0  0  0  0
   -2.8097    0.2686    0.0000 C   0  0  0  0  0  0  0  0  0  0  0  0
   -2.8097   -0.5500    0.0000 C   0  0  0  0  0  0  0  0  0  0  0  0
    2.2044   -1.7780    0.0000 C   0  0  0  0  0  0  0  0  0  0  0  0
    2.2044   -0.9764    0.0000 C   0  0  0  0  0  0  0  0  0  0  0  0
    1.4881   -2.2044    0.0000 C   0  0  0  0  0  0  0  0  0  0  0  0
    2.9462   -2.1873    0.0000 Cl  0  0  0  0  0  0  0  0  0  0  0  0
   -3.5431    0.6608    0.0000 O   0  0  0  0  0  0  0  0  0  0  0  0
  2  1  1  0  0  0  0
  3  2  1  0  0  0  0
  4  1  2  0  0  0  0
  5  6  1  0  0  0  0
  6  4  1  0  0  0  0
  7  1  1  0  0  0  0
  8  3  1  0  0  0  0
  9  5  1  0  0  0  0
 10  2  2  0  0  0  0
 11  7  2  0  0  0  0
 12  7  1  0  0  0  0
 13  9  2  0  0  0  0
 14  8  2  0  0  0  0
 15 17  1  0  0  0  0
 16 11  1  0  0  0  0
 17 12  2  0  0  0  0
 18 15  1  0  0  0  0
 19 13  1  0  0  0  0
 15 16  2  0  0  0  0
  5  3  2  0  0  0  0
 13 14  1  0  0  0  0
M  END
>  <IDNUMBER>
F0196-0180

>  <Chemical_Name>
3-(4-chlorophenyl)-7-hydroxy-4H-chromen-4-one

>  <PriceCoeff>
1.00

>  <CAS>
15485-81-1

>  <MW>
272.69

>  <Description>
solid

>  <FSP3>
0.00

>  <clogP>
3.64

>  <TPSA>
46.53

>  <Acceptor>
3

>  <Donor>
1

>  <RotBonds>
1

>  <HAC>
19

>  <Collection>
General

>  <PPDS>
+

$$$$
F0196-0181
  Mrv2219 10102508112D          

 20 22  0  0  0  0            999 V2000
   -0.6608   -0.9764    0.0000 C   0  0  0  0  0  0  0  0  0  0  0  0
   -1.3771   -0.5671    0.0000 C   0  0  0  0  0  0  0  0  0  0  0  0
    0.0555   -0.5671    0.0000 C   0  0  0  0  0  0  0  0  0  0  0  0
   -1.3771    0.2686    0.0000 C   0  0  0  0  0  0  0  0  0  0  0  0
    0.0555    0.2515    0.0000 C   0  0  0  0  0  0  0  0  0  0  0  0
   -2.0934   -0.9764    0.0000 C   0  0  0  0  0  0  0  0  0  0  0  0
   -0.6608    0.6779    0.0000 O   0  0  0  0  0  0  0  0  0  0  0  0
   -2.0934    0.6779    0.0000 C   0  0  0  0  0  0  0  0  0  0  0  0
   -2.8097   -0.5671    0.0000 C   0  0  0  0  0  0  0  0  0  0  0  0
    0.7718   -0.9764    0.0000 C   0  0  0  0  0  0  0  0  0  0  0  0
   -0.6608   -1.8206    0.0000 O   0  0  0  0  0  0  0  0  0  0  0  0
   -2.8097    0.2515    0.0000 C   0  0  0  0  0  0  0  0  0  0  0  0
    1.4881   -0.5671    0.0000 C   0  0  0  0  0  0  0  0  0  0  0  0
    0.7718   -1.7950    0.0000 C   0  0  0  0  0  0  0  0  0  0  0  0
   -2.0934   -1.8206    0.0000 O   0  0  0  0  0  0  0  0  0  0  0  0
    2.2044   -1.7950    0.0000 C   0  0  0  0  0  0  0  0  0  0  0  0
    1.4881   -2.2044    0.0000 C   0  0  0  0  0  0  0  0  0  0  0  0
    2.2044   -0.9764    0.0000 C   0  0  0  0  0  0  0  0  0  0  0  0
    2.9462   -2.1873    0.0000 Cl  0  0  0  0  0  0  0  0  0  0  0  0
   -3.5431    0.6608    0.0000 O   0  0  0  0  0  0  0  0  0  0  0  0
  2  1  1  0  0  0  0
  3  1  1  0  0  0  0
  4  2  2  0  0  0  0
  5  3  2  0  0  0  0
  6  2  1  0  0  0  0
  7  5  1  0  0  0  0
  8  4  1  0  0  0  0
  9  6  2  0  0  0  0
 10  3  1  0  0  0  0
 11  1  2  0  0  0  0
 12  9  1  0  0  0  0
 13 10  2  0  0  0  0
 14 10  1  0  0  0  0
 15  6  1  0  0  0  0
 16 17  1  0  0  0  0
 17 14  2  0  0  0  0
 18 13  1  0  0  0  0
 19 16  1  0  0  0  0
 20 12  1  0  0  0  0
  4  7  1  0  0  0  0
 18 16  2  0  0  0  0
  8 12  2  0  0  0  0
M  END
>  <IDNUMBER>
F0196-0181

>  <Chemical_Name>
3-(4-chlorophenyl)-5,7-dihydroxy-4H-chromen-4-one

>  <PriceCoeff>
1.00

>  <CAS>
15584-08-4

>  <MW>
288.68

>  <Description>
solid

>  <FSP3>
0.00

>  <clogP>
3.78

>  <TPSA>
66.76

>  <Acceptor>
4

>  <Donor>
2

>  <RotBonds>
1

>  <HAC>
20

>  <Collection>
General

>  <PPDS>
+

$$$$
F0196-0377
  Mrv2219 10102508112D          

 27 30  0  0  0  0            999 V2000
    1.1250   -0.7734    0.0000 C   0  0  0  0  0  0  0  0  0  0  0  0
   -0.3187   -0.7734    0.0000 C   0  0  0  0  0  0  0  0  0  0  0  0
    0.3985   -1.1812    0.0000 C   0  0  0  0  0  0  0  0  0  0  0  0
    1.1250    0.0375    0.0000 C   0  0  0  0  0  0  0  0  0  0  0  0
   -0.3187    0.0375    0.0000 C   0  0  0  0  0  0  0  0  0  0  0  0
    1.8187   -1.1812    0.0000 C   0  0  0  0  0  0  0  0  0  0  0  0
    0.3985    0.4640    0.0000 O   0  0  0  0  0  0  0  0  0  0  0  0
   -1.0359   -1.1812    0.0000 C   0  0  0  0  0  0  0  0  0  0  0  0
   -1.0359    0.4640    0.0000 C   0  0  0  0  0  0  0  0  0  0  0  0
    3.2624   -1.1812    0.0000 C   0  0  0  0  0  0  0  0  0  0  0  0
   -1.7578    0.0375    0.0000 C   0  0  0  0  0  0  0  0  0  0  0  0
    2.5359   -0.7734    0.0000 C   0  0  0  0  0  0  0  0  0  0  0  0
   -1.7578   -0.7734    0.0000 C   0  0  0  0  0  0  0  0  0  0  0  0
    3.2624   -1.9875    0.0000 C   0  0  0  0  0  0  0  0  0  0  0  0
    0.3985   -2.0109    0.0000 O   0  0  0  0  0  0  0  0  0  0  0  0
    3.8858   -0.6797    0.0000 O   0  0  0  0  0  0  0  0  0  0  0  0
    1.8187   -1.9875    0.0000 C   0  0  0  0  0  0  0  0  0  0  0  0
    3.8858   -2.4796    0.0000 O   0  0  0  0  0  0  0  0  0  0  0  0
    2.5359   -2.3953    0.0000 C   0  0  0  0  0  0  0  0  0  0  0  0
   -2.4983    0.4453    0.0000 O   0  0  0  0  0  0  0  0  0  0  0  0
    5.0389   -1.5797    0.0000 C   0  0  0  0  0  0  0  0  0  0  0  0
    4.6733   -0.8625    0.0000 C   0  0  0  0  0  0  0  0  0  0  0  0
    4.6733   -2.3062    0.0000 C   0  0  0  0  0  0  0  0  0  0  0  0
   -2.4983   -1.1578    0.0000 C   0  0  0  0  0  0  0  0  0  0  0  0
   -3.2014   -0.0328    0.0000 C   0  0  0  0  0  0  0  0  0  0  0  0
   -3.2014   -0.7078    0.0000 C   0  0  0  0  0  0  0  0  0  0  0  0
   -3.9374   -1.0875    0.0000 C   0  0  0  0  0  0  0  0  0  0  0  0
  2  3  1  0  0  0  0
  3  1  1  0  0  0  0
  4  1  2  0  0  0  0
  5  7  1  0  0  0  0
  6  1  1  0  0  0  0
  7  4  1  0  0  0  0
  8  2  1  0  0  0  0
  9  5  1  0  0  0  0
 10 12  1  0  0  0  0
 11  9  2  0  0  0  0
 12  6  2  0  0  0  0
 13  8  2  0  0  0  0
 14 19  1  0  0  0  0
 15  3  2  0  0  0  0
 16 10  1  0  0  0  0
 17  6  1  0  0  0  0
 18 14  1  0  0  0  0
 19 17  2  0  0  0  0
 20 11  1  0  0  0  0
 21 22  1  0  0  0  0
 22 16  1  0  0  0  0
 23 18  1  0  0  0  0
 24 13  1  0  0  0  0
 25 20  1  0  0  0  0
 26 24  1  0  0  0  0
 27 26  1  0  0  0  0
  5  2  2  0  0  0  0
 14 10  2  0  0  0  0
 11 13  1  0  0  0  0
 21 23  1  0  0  0  0
M  END
>  <IDNUMBER>
F0196-0377

>  <Chemical_Name>
3-(3,4-dihydro-2H-1,5-benzodioxepin-7-yl)-7-methoxy-6-propyl-4H-chromen-4-one

>  <PriceCoeff>
1.00

>  <CAS>
170511-40-7

>  <MW>
366.41

>  <Description>
solid

>  <FSP3>
0.32

>  <clogP>
4.73

>  <TPSA>
53.99

>  <Acceptor>
5

>  <Donor>
0

>  <RotBonds>
4

>  <HAC>
27

>  <Collection>
General

>  <PPDS>
+

$$$$
F0196-0379
  Mrv2219 10102508112D          

 25 28  0  0  0  0            999 V2000
    1.2764   -0.8335    0.0000 C   0  0  0  0  0  0  0  0  0  0  0  0
   -0.1667   -0.8335    0.0000 C   0  0  0  0  0  0  0  0  0  0  0  0
    0.5477   -1.2430    0.0000 C   0  0  0  0  0  0  0  0  0  0  0  0
    1.2764   -0.0048    0.0000 C   0  0  0  0  0  0  0  0  0  0  0  0
   -0.1667   -0.0048    0.0000 C   0  0  0  0  0  0  0  0  0  0  0  0
    1.9860   -1.2430    0.0000 C   0  0  0  0  0  0  0  0  0  0  0  0
    0.5477    0.4238    0.0000 O   0  0  0  0  0  0  0  0  0  0  0  0
   -0.8716   -1.2430    0.0000 C   0  0  0  0  0  0  0  0  0  0  0  0
   -0.8716    0.4238    0.0000 C   0  0  0  0  0  0  0  0  0  0  0  0
    3.4053   -1.2430    0.0000 C   0  0  0  0  0  0  0  0  0  0  0  0
   -1.6002   -0.0048    0.0000 C   0  0  0  0  0  0  0  0  0  0  0  0
    2.6909   -0.8335    0.0000 C   0  0  0  0  0  0  0  0  0  0  0  0
   -1.6002   -0.8335    0.0000 C   0  0  0  0  0  0  0  0  0  0  0  0
    3.4053   -2.0623    0.0000 C   0  0  0  0  0  0  0  0  0  0  0  0
    0.5477   -2.0623    0.0000 O   0  0  0  0  0  0  0  0  0  0  0  0
    4.1149   -0.8335    0.0000 O   0  0  0  0  0  0  0  0  0  0  0  0
    1.9622   -2.0623    0.0000 C   0  0  0  0  0  0  0  0  0  0  0  0
    4.1149   -2.4766    0.0000 O   0  0  0  0  0  0  0  0  0  0  0  0
    2.6718   -2.4766    0.0000 C   0  0  0  0  0  0  0  0  0  0  0  0
   -2.3384    0.4238    0.0000 O   0  0  0  0  0  0  0  0  0  0  0  0
   -2.3384   -1.2430    0.0000 C   0  0  0  0  0  0  0  0  0  0  0  0
    4.8436   -1.2430    0.0000 C   0  0  0  0  0  0  0  0  0  0  0  0
    4.8198   -2.0623    0.0000 C   0  0  0  0  0  0  0  0  0  0  0  0
   -3.0433   -0.0048    0.0000 C   0  0  0  0  0  0  0  0  0  0  0  0
   -3.0433   -0.8049    0.0000 C   0  0  0  0  0  0  0  0  0  0  0  0
  2  3  1  0  0  0  0
  3  1  1  0  0  0  0
  4  1  2  0  0  0  0
  5  7  1  0  0  0  0
  6  1  1  0  0  0  0
  7  4  1  0  0  0  0
  8  2  1  0  0  0  0
  9  5  1  0  0  0  0
 10 12  1  0  0  0  0
 11  9  2  0  0  0  0
 12  6  2  0  0  0  0
 13  8  2  0  0  0  0
 14 19  1  0  0  0  0
 15  3  2  0  0  0  0
 16 10  1  0  0  0  0
 17  6  1  0  0  0  0
 18 14  1  0  0  0  0
 19 17  2  0  0  0  0
 20 11  1  0  0  0  0
 21 13  1  0  0  0  0
 22 16  1  0  0  0  0
 23 18  1  0  0  0  0
 24 20  1  0  0  0  0
 25 21  1  0  0  0  0
  5  2  2  0  0  0  0
 14 10  2  0  0  0  0
 11 13  1  0  0  0  0
 22 23  1  0  0  0  0
M  END
>  <IDNUMBER>
F0196-0379

>  <Chemical_Name>
3-(2,3-dihydro-1,4-benzodioxin-6-yl)-6-ethyl-7-methoxy-4H-chromen-4-one

>  <PriceCoeff>
1.00

>  <CAS>
170511-22-5

>  <MW>
338.35

>  <Description>
solid

>  <FSP3>
0.25

>  <clogP>
4.05

>  <TPSA>
53.99

>  <Acceptor>
5

>  <Donor>
0

>  <RotBonds>
3

>  <HAC>
25

>  <Collection>
General

>  <PPDS>
+

$$$$
F0196-0383
  Mrv2219 10102508112D          

 26 29  0  0  0  0            999 V2000
   -0.5263    1.2477    0.0000 C   0  0  0  0  0  0  0  0  0  0  0  0
   -1.2477    0.8303    0.0000 C   0  0  0  0  0  0  0  0  0  0  0  0
   -1.9601    1.2477    0.0000 C   0  0  0  0  0  0  0  0  0  0  0  0
   -0.5263    2.0690    0.0000 C   0  0  0  0  0  0  0  0  0  0  0  0
   -1.9601    2.0690    0.0000 C   0  0  0  0  0  0  0  0  0  0  0  0
   -1.2477    2.4864    0.0000 O   0  0  0  0  0  0  0  0  0  0  0  0
    0.3267    0.9210    0.0000 C   0  0  0  0  0  0  0  0  0  0  0  0
   -2.6633    0.8303    0.0000 C   0  0  0  0  0  0  0  0  0  0  0  0
   -2.6633    2.4864    0.0000 C   0  0  0  0  0  0  0  0  0  0  0  0
    0.9120    1.4519    0.0000 C   0  0  0  0  0  0  0  0  0  0  0  0
    1.7197    1.2523    0.0000 C   0  0  0  0  0  0  0  0  0  0  0  0
   -3.3757    2.0690    0.0000 C   0  0  0  0  0  0  0  0  0  0  0  0
   -3.3757    1.2477    0.0000 C   0  0  0  0  0  0  0  0  0  0  0  0
   -1.2477    0.0000    0.0000 O   0  0  0  0  0  0  0  0  0  0  0  0
    1.9601    0.4492    0.0000 C   0  0  0  0  0  0  0  0  0  0  0  0
    2.3866    1.7015    0.0000 O   0  0  0  0  0  0  0  0  0  0  0  0
    2.7632    0.4310    0.0000 O   0  0  0  0  0  0  0  0  0  0  0  0
    0.5445    0.1089    0.0000 C   0  0  0  0  0  0  0  0  0  0  0  0
    3.0536    1.1933    0.0000 C   0  0  0  0  0  0  0  0  0  0  0  0
    1.3249   -0.0999    0.0000 C   0  0  0  0  0  0  0  0  0  0  0  0
    0.1815    2.4728    0.0000 C   0  0  0  0  0  0  0  0  0  0  0  0
   -4.1198    2.5046    0.0000 O   0  0  0  0  0  0  0  0  0  0  0  0
   -4.0835    0.8394    0.0000 C   0  0  0  0  0  0  0  0  0  0  0  0
   -4.8820    2.0644    0.0000 C   0  0  0  0  0  0  0  0  0  0  0  0
   -4.8004    1.2477    0.0000 C   0  0  0  0  0  0  0  0  0  0  0  0
   -5.5128    0.8394    0.0000 C   0  0  0  0  0  0  0  0  0  0  0  0
  2  1  1  0  0  0  0
  3  2  1  0  0  0  0
  4  1  2  0  0  0  0
  5  6  1  0  0  0  0
  6  4  1  0  0  0  0
  7  1  1  0  0  0  0
  8  3  1  0  0  0  0
  9  5  1  0  0  0  0
 10  7  2  0  0  0  0
 11 10  1  0  0  0  0
 12  9  2  0  0  0  0
 13  8  2  0  0  0  0
 14  2  2  0  0  0  0
 15 20  1  0  0  0  0
 16 11  1  0  0  0  0
 17 15  1  0  0  0  0
 18  7  1  0  0  0  0
 19 16  1  0  0  0  0
 20 18  2  0  0  0  0
 21  4  1  0  0  0  0
 22 12  1  0  0  0  0
 23 13  1  0  0  0  0
 24 22  1  0  0  0  0
 25 23  1  0  0  0  0
 26 25  1  0  0  0  0
  3  5  2  0  0  0  0
 15 11  2  0  0  0  0
 13 12  1  0  0  0  0
 19 17  1  0  0  0  0
M  END
>  <IDNUMBER>
F0196-0383

>  <Chemical_Name>
3-(2H-1,3-benzodioxol-5-yl)-7-methoxy-2-methyl-6-propyl-4H-chromen-4-one

>  <PriceCoeff>
1.00

>  <CAS>
170241-52-8

>  <MW>
352.38

>  <Description>
solid

>  <FSP3>
0.29

>  <clogP>
4.81

>  <TPSA>
53.99

>  <Acceptor>
5

>  <Donor>
0

>  <RotBonds>
4

>  <HAC>
26

>  <Collection>
General

$$$$
F0196-0437
  Mrv2219 10102508112D          

 32 34  0  0  0  0            999 V2000
    1.7033    0.5580    0.0000 C   0  0  0  0  0  0  0  0  0  0  0  0
    2.4363    0.1457    0.0000 C   0  0  0  0  0  0  0  0  0  0  0  0
    3.2026    0.4456    0.0000 N   0  3  0  0  0  0  0  0  0  0  0  0
    0.9912    0.1582    0.0000 C   0  0  0  0  0  0  0  0  0  0  0  0
    1.7033    1.4076    0.0000 C   0  0  0  0  0  0  0  0  0  0  0  0
    0.2791    0.5580    0.0000 C   0  0  0  0  0  0  0  0  0  0  0  0
    0.2791    1.4076    0.0000 C   0  0  0  0  0  0  0  0  0  0  0  0
    0.9912    1.8074    0.0000 O   0  0  0  0  0  0  0  0  0  0  0  0
    2.4738   -0.6747    0.0000 C   0  0  0  0  0  0  0  0  0  0  0  0
    3.6981   -0.2041    0.0000 C   0  0  0  0  0  0  0  0  0  0  0  0
    3.2651   -0.8788    0.0000 S   0  0  0  0  0  0  0  0  0  0  0  0
   -0.4331    1.8074    0.0000 C   0  0  0  0  0  0  0  0  0  0  0  0
   -0.4331    0.1582    0.0000 C   0  0  0  0  0  0  0  0  0  0  0  0
    0.9912   -0.6747    0.0000 O   0  0  0  0  0  0  0  0  0  0  0  0
    3.4358    1.2494    0.0000 C   0  0  0  0  0  0  0  0  0  0  0  0
   -1.1577    1.4076    0.0000 C   0  0  0  0  0  0  0  0  0  0  0  0
   -1.1577    0.5580    0.0000 C   0  0  0  0  0  0  0  0  0  0  0  0
    2.4405    1.8449    0.0000 C   0  0  0  0  0  0  0  0  0  0  0  0
    4.5269   -0.1666    0.0000 C   0  0  0  0  0  0  0  0  0  0  0  0
   -1.8866    1.8449    0.0000 O   0  0  0  0  0  0  0  0  0  0  0  0
    4.2229    1.4493    0.0000 C   0  0  0  0  0  0  0  0  0  0  0  0
    7.3011    1.4602    0.0000 S   0  0  0  0  0  0  0  0  0  0  0  0
    6.9669    0.7082    0.0000 C   0  0  0  0  0  0  0  0  0  0  0  0
    8.0532    1.1259    0.0000 O   0  5  0  0  0  0  0  0  0  0  0  0
    7.6330    2.2155    0.0000 O   0  0  0  0  0  0  0  0  0  0  0  0
    6.5468    1.7978    0.0000 O   0  0  0  0  0  0  0  0  0  0  0  0
    7.4561    0.0341    0.0000 C   0  0  0  0  0  0  0  0  0  0  0  0
    6.1484    0.6237    0.0000 C   0  0  0  0  0  0  0  0  0  0  0  0
    7.1218   -0.7178    0.0000 C   0  0  0  0  0  0  0  0  0  0  0  0
    5.8190   -0.1349    0.0000 C   0  0  0  0  0  0  0  0  0  0  0  0
    6.3033   -0.8023    0.0000 C   0  0  0  0  0  0  0  0  0  0  0  0
    5.9657   -1.5567    0.0000 C   0  0  0  0  0  0  0  0  0  0  0  0
 13  6  1  0  0  0  0
 14  4  2  0  0  0  0
 15  3  1  0  0  0  0
 16 12  2  0  0  0  0
 17 13  2  0  0  0  0
 18  5  1  0  0  0  0
 19 10  1  0  0  0  0
 20 16  1  0  0  0  0
 21 15  1  0  0  0  0
  6  7  2  0  0  0  0
 10 11  1  0  0  0  0
 17 16  1  0  0  0  0
  2  1  1  0  0  0  0
  3  2  1  0  0  0  0
  4  1  1  0  0  0  0
  5  1  2  0  0  0  0
  6  4  1  0  0  0  0
  7  8  1  0  0  0  0
  8  5  1  0  0  0  0
  9  2  2  0  0  0  0
 10  3  2  0  0  0  0
 11  9  1  0  0  0  0
 12  7  1  0  0  0  0
 23 22  1  0  0  0  0
 24 22  1  0  0  0  0
 25 22  2  0  0  0  0
 26 22  2  0  0  0  0
 27 23  1  0  0  0  0
 28 23  2  0  0  0  0
 29 27  2  0  0  0  0
 30 28  1  0  0  0  0
 31 30  2  0  0  0  0
 32 31  1  0  0  0  0
 31 29  1  0  0  0  0
M  CHG  2   3   1  24  -1
M  END
>  <IDNUMBER>
F0196-0437

>  <Chemical_Name>
3-ethyl-4-(7-hydroxy-2-methyl-4-oxo-4H-chromen-3-yl)-2-methyl-1,3-thiazol-3-ium 4-methylbenzene-1-sulfonate

>  <PriceCoeff>
1.00

>  <CAS>
51626-02-9

>  <MW>
302.37

>  <Description>
solid

>  <FSP3>
0.25

>  <clogP>
-3.24

>  <TPSA>
78.65

>  <Acceptor>
3

>  <Donor>
1

>  <RotBonds>
2

>  <HAC>
21

>  <Collection>
General

$$$$
F0196-0664
  Mrv2219 10102508112D          

 20 22  0  0  0  0            999 V2000
   -0.6445    1.4725    0.0000 C   0  0  0  0  0  0  0  0  0  0  0  0
   -1.3467    1.0690    0.0000 C   0  0  0  0  0  0  0  0  0  0  0  0
   -2.0751    1.4725    0.0000 C   0  0  0  0  0  0  0  0  0  0  0  0
   -0.6445    2.3057    0.0000 C   0  0  0  0  0  0  0  0  0  0  0  0
   -2.0751    2.3057    0.0000 C   0  0  0  0  0  0  0  0  0  0  0  0
   -1.3467    2.7301    0.0000 O   0  0  0  0  0  0  0  0  0  0  0  0
    0.0629    1.0690    0.0000 C   0  0  0  0  0  0  0  0  0  0  0  0
   -2.7826    1.0690    0.0000 C   0  0  0  0  0  0  0  0  0  0  0  0
   -2.7826    2.7301    0.0000 C   0  0  0  0  0  0  0  0  0  0  0  0
   -1.3205    0.2462    0.0000 O   0  0  0  0  0  0  0  0  0  0  0  0
    0.0839    0.2462    0.0000 C   0  0  0  0  0  0  0  0  0  0  0  0
    0.7913    1.5039    0.0000 C   0  0  0  0  0  0  0  0  0  0  0  0
   -3.4847    2.3057    0.0000 C   0  0  0  0  0  0  0  0  0  0  0  0
   -3.4847    1.4725    0.0000 C   0  0  0  0  0  0  0  0  0  0  0  0
    1.5145    0.2462    0.0000 C   0  0  0  0  0  0  0  0  0  0  0  0
    1.4935    1.0690    0.0000 C   0  0  0  0  0  0  0  0  0  0  0  0
    0.8175   -0.1886    0.0000 C   0  0  0  0  0  0  0  0  0  0  0  0
    2.2481   -0.1886    0.0000 Br  0  0  0  0  0  0  0  0  0  0  0  0
   -4.2131    2.7616    0.0000 O   0  0  0  0  0  0  0  0  0  0  0  0
   -4.9467    2.3528    0.0000 C   0  0  0  0  0  0  0  0  0  0  0  0
  2  1  1  0  0  0  0
  3  2  1  0  0  0  0
  4  1  2  0  0  0  0
  5  6  1  0  0  0  0
  6  4  1  0  0  0  0
  7  1  1  0  0  0  0
  8  3  1  0  0  0  0
  9  5  1  0  0  0  0
 10  2  2  0  0  0  0
 11  7  1  0  0  0  0
 12  7  2  0  0  0  0
 13  9  2  0  0  0  0
 14  8  2  0  0  0  0
 15 16  2  0  0  0  0
 16 12  1  0  0  0  0
 17 11  2  0  0  0  0
 18 15  1  0  0  0  0
 19 13  1  0  0  0  0
 20 19  1  0  0  0  0
 17 15  1  0  0  0  0
  3  5  2  0  0  0  0
 14 13  1  0  0  0  0
M  END
>  <IDNUMBER>
F0196-0664

>  <Chemical_Name>
3-(4-bromophenyl)-7-methoxy-4H-chromen-4-one

>  <PriceCoeff>
1.00

>  <CAS>
105258-03-5

>  <MW>
331.16

>  <Description>
solid

>  <FSP3>
0.06

>  <clogP>
3.95

>  <TPSA>
35.53

>  <Acceptor>
3

>  <Donor>
0

>  <RotBonds>
2

>  <HAC>
20

>  <Collection>
General

$$$$
F0196-0669
  Mrv2219 10102508112D          

 19 21  0  0  0  0            999 V2000
   -0.1518    1.4394    0.0000 C   0  0  0  0  0  0  0  0  0  0  0  0
   -0.8584    1.0050    0.0000 C   0  0  0  0  0  0  0  0  0  0  0  0
   -1.5860    1.4394    0.0000 C   0  0  0  0  0  0  0  0  0  0  0  0
   -0.1518    2.2612    0.0000 C   0  0  0  0  0  0  0  0  0  0  0  0
   -1.5860    2.2612    0.0000 C   0  0  0  0  0  0  0  0  0  0  0  0
   -0.8584    2.6643    0.0000 O   0  0  0  0  0  0  0  0  0  0  0  0
    0.5706    1.0050    0.0000 C   0  0  0  0  0  0  0  0  0  0  0  0
   -2.2874    1.0050    0.0000 C   0  0  0  0  0  0  0  0  0  0  0  0
   -2.2874    2.6643    0.0000 C   0  0  0  0  0  0  0  0  0  0  0  0
   -0.8323    0.1832    0.0000 O   0  0  0  0  0  0  0  0  0  0  0  0
    0.5706    0.1832    0.0000 C   0  0  0  0  0  0  0  0  0  0  0  0
    1.2772    1.4394    0.0000 C   0  0  0  0  0  0  0  0  0  0  0  0
   -2.9940    2.2612    0.0000 C   0  0  0  0  0  0  0  0  0  0  0  0
   -2.9940    1.4394    0.0000 C   0  0  0  0  0  0  0  0  0  0  0  0
    2.0100    0.2041    0.0000 C   0  0  0  0  0  0  0  0  0  0  0  0
    1.3034   -0.2512    0.0000 C   0  0  0  0  0  0  0  0  0  0  0  0
    1.9839    1.0311    0.0000 C   0  0  0  0  0  0  0  0  0  0  0  0
    2.7376   -0.0995    0.0000 Br  0  0  0  0  0  0  0  0  0  0  0  0
   -3.7216    2.6957    0.0000 O   0  0  0  0  0  0  0  0  0  0  0  0
  2  1  1  0  0  0  0
  3  2  1  0  0  0  0
  4  1  2  0  0  0  0
  5  6  1  0  0  0  0
  6  4  1  0  0  0  0
  7  1  1  0  0  0  0
  8  3  1  0  0  0  0
  9  5  1  0  0  0  0
 10  2  2  0  0  0  0
 11  7  1  0  0  0  0
 12  7  2  0  0  0  0
 13  9  2  0  0  0  0
 14  8  2  0  0  0  0
 15 17  2  0  0  0  0
 16 11  2  0  0  0  0
 17 12  1  0  0  0  0
 18 15  1  0  0  0  0
 19 13  1  0  0  0  0
 15 16  1  0  0  0  0
  5  3  2  0  0  0  0
 13 14  1  0  0  0  0
M  END
>  <IDNUMBER>
F0196-0669

>  <Chemical_Name>
3-(4-bromophenyl)-7-hydroxy-4H-chromen-4-one

>  <PriceCoeff>
1.00

>  <CAS>
96644-05-2

>  <MW>
317.13

>  <Description>
solid

>  <FSP3>
0.00

>  <clogP>
3.57

>  <TPSA>
46.53

>  <Acceptor>
3

>  <Donor>
1

>  <RotBonds>
1

>  <HAC>
19

>  <Collection>
General

>  <PPDS>
+

$$$$
F0196-0674
  Mrv2219 10102508112D          

 25 27  0  0  0  0            999 V2000
    0.5720    2.2934    0.0000 C   0  0  0  0  0  0  0  0  0  0  0  0
   -0.8521    2.2934    0.0000 C   0  0  0  0  0  0  0  0  0  0  0  0
   -0.1373    1.8816    0.0000 C   0  0  0  0  0  0  0  0  0  0  0  0
    0.5720    3.1513    0.0000 C   0  0  0  0  0  0  0  0  0  0  0  0
   -0.8521    3.1513    0.0000 C   0  0  0  0  0  0  0  0  0  0  0  0
   -0.1373    3.5631    0.0000 O   0  0  0  0  0  0  0  0  0  0  0  0
   -1.5728    1.8816    0.0000 C   0  0  0  0  0  0  0  0  0  0  0  0
   -1.5728    3.5631    0.0000 C   0  0  0  0  0  0  0  0  0  0  0  0
   -2.2820    3.1513    0.0000 C   0  0  0  0  0  0  0  0  0  0  0  0
   -2.2820    2.2934    0.0000 C   0  0  0  0  0  0  0  0  0  0  0  0
    1.2869    1.8816    0.0000 C   0  0  0  0  0  0  0  0  0  0  0  0
   -0.1373    1.0580    0.0000 O   0  0  0  0  0  0  0  0  0  0  0  0
   -2.9969    3.5861    0.0000 O   0  0  0  0  0  0  0  0  0  0  0  0
   -3.0198    1.8816    0.0000 C   0  0  0  0  0  0  0  0  0  0  0  0
    1.9961    2.2934    0.0000 C   0  0  0  0  0  0  0  0  0  0  0  0
    1.2869    1.0580    0.0000 C   0  0  0  0  0  0  0  0  0  0  0  0
   -3.7347    3.1743    0.0000 C   0  0  0  0  0  0  0  0  0  0  0  0
   -3.7690    2.2934    0.0000 C   0  0  0  0  0  0  0  0  0  0  0  0
   -5.9024    1.8816    0.0000 C   0  0  0  0  0  0  0  0  0  0  0  0
   -5.1932    2.2934    0.0000 C   0  0  0  0  0  0  0  0  0  0  0  0
   -4.4783    1.8816    0.0000 C   0  0  0  0  0  0  0  0  0  0  0  0
   -6.6173    2.2934    0.0000 C   0  0  0  0  0  0  0  0  0  0  0  0
    1.9961    0.6462    0.0000 C   0  0  0  0  0  0  0  0  0  0  0  0
    2.7168    1.8816    0.0000 C   0  0  0  0  0  0  0  0  0  0  0  0
    2.7168    1.0580    0.0000 C   0  0  0  0  0  0  0  0  0  0  0  0
  2  3  1  0  0  0  0
  3  1  1  0  0  0  0
  4  1  2  0  0  0  0
  5  6  1  0  0  0  0
  6  4  1  0  0  0  0
  7  2  1  0  0  0  0
  8  5  1  0  0  0  0
  9  8  2  0  0  0  0
 10  7  2  0  0  0  0
 11  1  1  0  0  0  0
 12  3  2  0  0  0  0
 13  9  1  0  0  0  0
 14 10  1  0  0  0  0
 15 11  2  0  0  0  0
 16 11  1  0  0  0  0
 17 13  1  0  0  0  0
 18 14  1  0  0  0  0
 19 20  1  0  0  0  0
 20 21  1  0  0  0  0
 21 18  1  0  0  0  0
 22 19  1  0  0  0  0
 23 16  2  0  0  0  0
 24 15  1  0  0  0  0
 25 23  1  0  0  0  0
  2  5  2  0  0  0  0
 25 24  2  0  0  0  0
 10  9  1  0  0  0  0
M  END
>  <IDNUMBER>
F0196-0674

>  <Chemical_Name>
6-hexyl-7-methoxy-3-phenyl-4H-chromen-4-one

>  <PriceCoeff>
1.00

>  <CAS>
314247-20-6

>  <MW>
336.42

>  <Description>
solid

>  <FSP3>
0.32

>  <clogP>
6.23

>  <TPSA>
35.53

>  <Acceptor>
3

>  <Donor>
0

>  <RotBonds>
7

>  <HAC>
25

>  <Collection>
General

>  <PPDS>
+

$$$$
F0196-0692
  Mrv2219 10102508112D          

 28 31  0  0  0  0            999 V2000
    0.2182    0.7074    0.0000 C   0  0  0  0  0  0  0  0  0  0  0  0
   -0.4893    0.2830    0.0000 C   0  0  0  0  0  0  0  0  0  0  0  0
   -1.1967    0.7074    0.0000 C   0  0  0  0  0  0  0  0  0  0  0  0
    0.2182    1.5327    0.0000 C   0  0  0  0  0  0  0  0  0  0  0  0
   -1.1967    1.5327    0.0000 C   0  0  0  0  0  0  0  0  0  0  0  0
    0.9610    0.2830    0.0000 C   0  0  0  0  0  0  0  0  0  0  0  0
   -0.4893    1.9572    0.0000 O   0  0  0  0  0  0  0  0  0  0  0  0
    2.3758    0.2830    0.0000 C   0  0  0  0  0  0  0  0  0  0  0  0
   -4.0264    0.7369    0.0000 C   0  0  0  0  0  0  0  0  0  0  0  0
    1.6684    0.7074    0.0000 C   0  0  0  0  0  0  0  0  0  0  0  0
   -1.9041    1.9572    0.0000 C   0  0  0  0  0  0  0  0  0  0  0  0
   -1.9041    0.2830    0.0000 C   0  0  0  0  0  0  0  0  0  0  0  0
    2.3758   -0.5011    0.0000 C   0  0  0  0  0  0  0  0  0  0  0  0
   -3.3190    1.9808    0.0000 O   0  0  0  0  0  0  0  0  0  0  0  0
   -4.0264    1.5858    0.0000 C   0  0  0  0  0  0  0  0  0  0  0  0
   -0.4893   -0.5365    0.0000 O   0  0  0  0  0  0  0  0  0  0  0  0
   -2.6116    1.5327    0.0000 C   0  0  0  0  0  0  0  0  0  0  0  0
    3.0833    0.7074    0.0000 O   0  0  0  0  0  0  0  0  0  0  0  0
    0.9610   -0.5011    0.0000 C   0  0  0  0  0  0  0  0  0  0  0  0
    3.0833   -0.9256    0.0000 O   0  0  0  0  0  0  0  0  0  0  0  0
   -4.7338    0.3478    0.0000 O   0  0  0  0  0  0  0  0  0  0  0  0
    1.6684   -0.9256    0.0000 C   0  0  0  0  0  0  0  0  0  0  0  0
   -2.6116    0.7074    0.0000 C   0  0  0  0  0  0  0  0  0  0  0  0
   -3.3190    0.3478    0.0000 O   0  0  0  0  0  0  0  0  0  0  0  0
    3.7907    0.3007    0.0000 C   0  0  0  0  0  0  0  0  0  0  0  0
    3.7907   -0.5188    0.0000 C   0  0  0  0  0  0  0  0  0  0  0  0
   -4.7338    1.9808    0.0000 C   0  0  0  0  0  0  0  0  0  0  0  0
   -3.3190   -0.4775    0.0000 C   0  0  0  0  0  0  0  0  0  0  0  0
  2  1  1  0  0  0  0
  3  2  1  0  0  0  0
  4  1  2  0  0  0  0
  5  7  1  0  0  0  0
  6  1  1  0  0  0  0
  7  4  1  0  0  0  0
  8 10  1  0  0  0  0
  9 15  1  0  0  0  0
 10  6  2  0  0  0  0
 11  5  1  0  0  0  0
 12  3  1  0  0  0  0
 13 22  1  0  0  0  0
 14 17  1  0  0  0  0
 15 14  1  0  0  0  0
 16  2  2  0  0  0  0
 17 11  2  0  0  0  0
 18  8  1  0  0  0  0
 19  6  1  0  0  0  0
 20 13  1  0  0  0  0
 21  9  2  0  0  0  0
 22 19  2  0  0  0  0
 23 12  2  0  0  0  0
 24  9  1  0  0  0  0
 25 18  1  0  0  0  0
 26 20  1  0  0  0  0
 27 15  1  0  0  0  0
 28 24  1  0  0  0  0
  3  5  2  0  0  0  0
 13  8  2  0  0  0  0
 23 17  1  0  0  0  0
 25 26  1  0  0  0  0
M  END
>  <IDNUMBER>
F0196-0692

>  <Chemical_Name>
methyl 2-{[3-(2,3-dihydro-1,4-benzodioxin-6-yl)-4-oxo-4H-chromen-7-yl]oxy}propanoate

>  <PriceCoeff>
1.00

>  <CAS>
227094-78-2

>  <MW>
382.36

>  <Description>
solid

>  <FSP3>
0.24

>  <clogP>
2.94

>  <TPSA>
80.29

>  <Acceptor>
7

>  <Donor>
0

>  <RotBonds>
5

>  <HAC>
28

>  <Collection>
General

>  <PPDS>
+

$$$$
F0196-0860
  Mrv2219 10102508112D          

 24 27  0  0  0  0            999 V2000
   -1.5224    0.1367    0.0000 C   0  0  0  0  0  0  0  0  0  0  0  0
   -0.8154    0.5467    0.0000 C   0  0  0  0  0  0  0  0  0  0  0  0
   -1.5224   -0.6787    0.0000 C   0  0  0  0  0  0  0  0  0  0  0  0
   -2.2436    0.5798    0.0000 O   0  0  0  0  0  0  0  0  0  0  0  0
   -2.9647    0.1367    0.0000 C   0  0  0  0  0  0  0  0  0  0  0  0
   -2.2436   -1.0794    0.0000 C   0  0  0  0  0  0  0  0  0  0  0  0
   -2.9647   -0.6787    0.0000 C   0  0  0  0  0  0  0  0  0  0  0  0
   -0.0707    0.1367    0.0000 C   0  0  0  0  0  0  0  0  0  0  0  0
    0.6269    0.5467    0.0000 C   0  0  0  0  0  0  0  0  0  0  0  0
   -3.6907    0.5467    0.0000 C   0  0  0  0  0  0  0  0  0  0  0  0
   -3.6907   -1.0794    0.0000 C   0  0  0  0  0  0  0  0  0  0  0  0
   -0.8154    1.3952    0.0000 C   0  0  0  0  0  0  0  0  0  0  0  0
   -0.0707   -0.6787    0.0000 O   0  0  0  0  0  0  0  0  0  0  0  0
    0.6269    1.3575    0.0000 C   0  0  0  0  0  0  0  0  0  0  0  0
   -2.2294   -1.8996    0.0000 O   0  0  0  0  0  0  0  0  0  0  0  0
   -0.0707    1.7676    0.0000 C   0  0  0  0  0  0  0  0  0  0  0  0
    1.3575   -0.7118    0.0000 O   0  0  0  0  0  0  0  0  0  0  0  0
    0.6269   -1.0794    0.0000 C   0  0  0  0  0  0  0  0  0  0  0  0
   -4.4118    0.1367    0.0000 C   0  0  0  0  0  0  0  0  0  0  0  0
   -4.4118   -0.6787    0.0000 C   0  0  0  0  0  0  0  0  0  0  0  0
    1.3575    0.1367    0.0000 C   0  0  0  0  0  0  0  0  0  0  0  0
   -0.0707    2.6160    0.0000 Br  0  0  0  0  0  0  0  0  0  0  0  0
   -5.1613    0.5467    0.0000 O   0  0  0  0  0  0  0  0  0  0  0  0
   -5.1848    1.3575    0.0000 C   0  0  0  0  0  0  0  0  0  0  0  0
  2  1  1  0  0  0  0
  3  1  2  0  0  0  0
  4  1  1  0  0  0  0
  5  4  1  0  0  0  0
  6  3  1  0  0  0  0
  7  5  2  0  0  0  0
  8  2  2  0  0  0  0
  9  8  1  0  0  0  0
 10  5  1  0  0  0  0
 11  7  1  0  0  0  0
 12  2  1  0  0  0  0
 13  8  1  0  0  0  0
 14 16  1  0  0  0  0
 15  6  2  0  0  0  0
 16 12  2  0  0  0  0
 17 18  1  0  0  0  0
 18 13  1  0  0  0  0
 19 10  2  0  0  0  0
 20 19  1  0  0  0  0
 21  9  1  0  0  0  0
 22 16  1  0  0  0  0
 23 19  1  0  0  0  0
 24 23  1  0  0  0  0
  7  6  1  0  0  0  0
 14  9  2  0  0  0  0
 21 17  1  0  0  0  0
 11 20  2  0  0  0  0
M  END
>  <IDNUMBER>
F0196-0860

>  <Chemical_Name>
2-(6-bromo-2,4-dihydro-1,3-benzodioxin-8-yl)-7-methoxy-4H-chromen-4-one

>  <PriceCoeff>
1.00

>  <CAS>
147723-12-4

>  <MW>
389.20

>  <Description>
solid

>  <FSP3>
0.17

>  <clogP>
3.56

>  <TPSA>
53.99

>  <Acceptor>
5

>  <Donor>
0

>  <RotBonds>
2

>  <HAC>
24

>  <Collection>
General

>  <PPDS>
+

$$$$
F0196-0870
  Mrv2219 10102508112D          

 18 20  0  0  0  0            999 V2000
   -1.0059    1.0176    0.0000 C   0  0  0  0  0  0  0  0  0  0  0  0
   -1.7221    0.5949    0.0000 C   0  0  0  0  0  0  0  0  0  0  0  0
   -2.4384    1.0176    0.0000 C   0  0  0  0  0  0  0  0  0  0  0  0
   -1.0059    1.8396    0.0000 C   0  0  0  0  0  0  0  0  0  0  0  0
   -2.4384    1.8396    0.0000 C   0  0  0  0  0  0  0  0  0  0  0  0
   -1.7221    2.2545    0.0000 O   0  0  0  0  0  0  0  0  0  0  0  0
   -3.1469    0.5949    0.0000 C   0  0  0  0  0  0  0  0  0  0  0  0
   -3.1469    2.2545    0.0000 C   0  0  0  0  0  0  0  0  0  0  0  0
   -0.2936    0.5949    0.0000 C   0  0  0  0  0  0  0  0  0  0  0  0
   -1.7221   -0.2231    0.0000 O   0  0  0  0  0  0  0  0  0  0  0  0
   -3.8632    1.8396    0.0000 C   0  0  0  0  0  0  0  0  0  0  0  0
   -3.8632    1.0176    0.0000 C   0  0  0  0  0  0  0  0  0  0  0  0
   -4.5990    2.2545    0.0000 O   0  0  0  0  0  0  0  0  0  0  0  0
   -0.2936   -0.2231    0.0000 C   0  0  0  0  0  0  0  0  0  0  0  0
    0.4227    1.0176    0.0000 C   0  0  0  0  0  0  0  0  0  0  0  0
    1.1312    0.5949    0.0000 C   0  0  0  0  0  0  0  0  0  0  0  0
    0.4227   -0.6458    0.0000 C   0  0  0  0  0  0  0  0  0  0  0  0
    1.1312   -0.2231    0.0000 C   0  0  0  0  0  0  0  0  0  0  0  0
  2  1  1  0  0  0  0
  3  2  1  0  0  0  0
  4  1  2  0  0  0  0
  5  6  1  0  0  0  0
  6  4  1  0  0  0  0
  7  3  1  0  0  0  0
  8  5  1  0  0  0  0
  9  1  1  0  0  0  0
 10  2  2  0  0  0  0
 11  8  2  0  0  0  0
 12  7  2  0  0  0  0
 13 11  1  0  0  0  0
 14  9  2  0  0  0  0
 15  9  1  0  0  0  0
 16 15  2  0  0  0  0
 17 14  1  0  0  0  0
 18 16  1  0  0  0  0
  3  5  2  0  0  0  0
 18 17  2  0  0  0  0
 12 11  1  0  0  0  0
M  END
>  <IDNUMBER>
F0196-0870

>  <Chemical_Name>
7-hydroxy-3-phenyl-4H-chromen-4-one

>  <PriceCoeff>
1.00

>  <CAS>
13057-72-2

>  <MW>
238.24

>  <Description>
solid

>  <FSP3>
0.00

>  <clogP>
3.03

>  <TPSA>
46.53

>  <Acceptor>
3

>  <Donor>
1

>  <RotBonds>
1

>  <HAC>
18

>  <Collection>
General

>  <PPDS>
+

$$$$
F0196-0909
  Mrv2219 10102508112D          

 21 23  0  0  0  0            999 V2000
   -0.4433    0.9358    0.0000 C   0  0  0  0  0  0  0  0  0  0  0  0
   -1.1533    0.5253    0.0000 C   0  0  0  0  0  0  0  0  0  0  0  0
   -1.8675    0.9358    0.0000 C   0  0  0  0  0  0  0  0  0  0  0  0
   -0.4433    1.7690    0.0000 C   0  0  0  0  0  0  0  0  0  0  0  0
   -1.8675    1.7690    0.0000 C   0  0  0  0  0  0  0  0  0  0  0  0
   -1.1533    2.1795    0.0000 O   0  0  0  0  0  0  0  0  0  0  0  0
   -2.5735    2.1795    0.0000 C   0  0  0  0  0  0  0  0  0  0  0  0
   -2.5735    0.5253    0.0000 C   0  0  0  0  0  0  0  0  0  0  0  0
    0.2832    0.5253    0.0000 C   0  0  0  0  0  0  0  0  0  0  0  0
   -1.1533   -0.2997    0.0000 O   0  0  0  0  0  0  0  0  0  0  0  0
   -3.3000    1.7690    0.0000 C   0  0  0  0  0  0  0  0  0  0  0  0
   -4.0347    2.1795    0.0000 O   0  0  0  0  0  0  0  0  0  0  0  0
   -3.3000    0.9358    0.0000 C   0  0  0  0  0  0  0  0  0  0  0  0
   -4.7407    1.7362    0.0000 C   0  0  0  0  0  0  0  0  0  0  0  0
    0.2832   -0.2997    0.0000 C   0  0  0  0  0  0  0  0  0  0  0  0
    0.9892    0.9358    0.0000 C   0  0  0  0  0  0  0  0  0  0  0  0
   -5.4507    2.1507    0.0000 C   0  0  0  0  0  0  0  0  0  0  0  0
   -4.7407    0.9071    0.0000 C   0  0  0  0  0  0  0  0  0  0  0  0
    1.7034    0.5253    0.0000 C   0  0  0  0  0  0  0  0  0  0  0  0
    0.9892   -0.7183    0.0000 C   0  0  0  0  0  0  0  0  0  0  0  0
    1.7034   -0.2997    0.0000 C   0  0  0  0  0  0  0  0  0  0  0  0
  2  1  1  0  0  0  0
  3  2  1  0  0  0  0
  4  1  2  0  0  0  0
  5  6  1  0  0  0  0
  6  4  1  0  0  0  0
  7  5  1  0  0  0  0
  8  3  1  0  0  0  0
  9  1  1  0  0  0  0
 10  2  2  0  0  0  0
 11  7  2  0  0  0  0
 12 11  1  0  0  0  0
 13  8  2  0  0  0  0
 14 12  1  0  0  0  0
 15  9  2  0  0  0  0
 16  9  1  0  0  0  0
 17 14  1  0  0  0  0
 18 14  1  0  0  0  0
 19 16  2  0  0  0  0
 20 15  1  0  0  0  0
 21 19  1  0  0  0  0
  3  5  2  0  0  0  0
 21 20  2  0  0  0  0
 13 11  1  0  0  0  0
M  END
>  <IDNUMBER>
F0196-0909

>  <Chemical_Name>
3-phenyl-7-(propan-2-yloxy)-4H-chromen-4-one

>  <PriceCoeff>
1.00

>  <CAS>
35212-22-7

>  <MW>
280.32

>  <Description>
solid

>  <FSP3>
0.17

>  <clogP>
3.92

>  <TPSA>
35.53

>  <Acceptor>
3

>  <Donor>
0

>  <RotBonds>
3

>  <HAC>
21

>  <Collection>
General

>  <PPDS>
+

$$$$
F0196-1271
  Mrv2219 10102508112D          

 29 32  0  0  0  0            999 V2000
    1.2130    1.3338    0.0000 C   0  0  0  0  0  0  0  0  0  0  0  0
   -0.2184    1.3338    0.0000 C   0  0  0  0  0  0  0  0  0  0  0  0
    0.5019    0.9295    0.0000 C   0  0  0  0  0  0  0  0  0  0  0  0
    1.2130    2.1844    0.0000 C   0  0  0  0  0  0  0  0  0  0  0  0
   -0.2184    2.1844    0.0000 C   0  0  0  0  0  0  0  0  0  0  0  0
    1.9288    0.9295    0.0000 C   0  0  0  0  0  0  0  0  0  0  0  0
    0.5019    2.5795    0.0000 O   0  0  0  0  0  0  0  0  0  0  0  0
   -0.9295    0.9295    0.0000 C   0  0  0  0  0  0  0  0  0  0  0  0
   -1.6406    2.1844    0.0000 C   0  0  0  0  0  0  0  0  0  0  0  0
   -0.9295    2.5795    0.0000 C   0  0  0  0  0  0  0  0  0  0  0  0
   -1.6406    1.3338    0.0000 C   0  0  0  0  0  0  0  0  0  0  0  0
    3.3510    0.9295    0.0000 C   0  0  0  0  0  0  0  0  0  0  0  0
    2.6399    1.3338    0.0000 C   0  0  0  0  0  0  0  0  0  0  0  0
   -2.3796    2.6027    0.0000 O   0  0  0  0  0  0  0  0  0  0  0  0
   -2.3796    3.4532    0.0000 C   0  0  0  0  0  0  0  0  0  0  0  0
    3.3510    0.0790    0.0000 C   0  0  0  0  0  0  0  0  0  0  0  0
    0.5019    0.0790    0.0000 O   0  0  0  0  0  0  0  0  0  0  0  0
    4.0017    1.4454    0.0000 O   0  0  0  0  0  0  0  0  0  0  0  0
    1.9288    0.0790    0.0000 C   0  0  0  0  0  0  0  0  0  0  0  0
    4.0017   -0.4322    0.0000 O   0  0  0  0  0  0  0  0  0  0  0  0
   -3.0907    3.8575    0.0000 O   0  0  0  0  0  0  0  0  0  0  0  0
    2.6399   -0.3393    0.0000 C   0  0  0  0  0  0  0  0  0  0  0  0
    5.1636    0.5019    0.0000 C   0  0  0  0  0  0  0  0  0  0  0  0
    4.8011    1.2409    0.0000 C   0  0  0  0  0  0  0  0  0  0  0  0
    4.8011   -0.2557    0.0000 C   0  0  0  0  0  0  0  0  0  0  0  0
   -2.3796    0.9063    0.0000 C   0  0  0  0  0  0  0  0  0  0  0  0
   -1.8405    3.7878    0.0000 C   0  0  0  0  0  0  0  0  0  0  0  0
   -3.1186    1.3338    0.0000 C   0  0  0  0  0  0  0  0  0  0  0  0
   -3.8483    0.9063    0.0000 C   0  0  0  0  0  0  0  0  0  0  0  0
  2  3  1  0  0  0  0
  3  1  1  0  0  0  0
  4  1  2  0  0  0  0
  5  7  1  0  0  0  0
  6  1  1  0  0  0  0
  7  4  1  0  0  0  0
  8  2  1  0  0  0  0
  9 10  2  0  0  0  0
 10  5  1  0  0  0  0
 11  8  2  0  0  0  0
 12 13  1  0  0  0  0
 13  6  2  0  0  0  0
 14  9  1  0  0  0  0
 15 14  1  0  0  0  0
 16 22  1  0  0  0  0
 17  3  2  0  0  0  0
 18 12  1  0  0  0  0
 19  6  1  0  0  0  0
 20 16  1  0  0  0  0
 21 15  2  0  0  0  0
 22 19  2  0  0  0  0
 23 24  1  0  0  0  0
 24 18  1  0  0  0  0
 25 20  1  0  0  0  0
 26 11  1  0  0  0  0
 27 15  1  0  0  0  0
 28 26  1  0  0  0  0
 29 28  1  0  0  0  0
  2  5  2  0  0  0  0
 16 12  2  0  0  0  0
 11  9  1  0  0  0  0
 25 23  1  0  0  0  0
M  END
>  <IDNUMBER>
F0196-1271

>  <Chemical_Name>
3-(3,4-dihydro-2H-1,5-benzodioxepin-7-yl)-4-oxo-6-propyl-4H-chromen-7-yl acetate

>  <PriceCoeff>
1.00

>  <CAS>
170511-42-9

>  <MW>
394.42

>  <Description>
solid

>  <FSP3>
0.30

>  <clogP>
4.16

>  <TPSA>
71.06

>  <Acceptor>
6

>  <Donor>
0

>  <RotBonds>
5

>  <HAC>
29

>  <Collection>
General

>  <PPDS>
+

$$$$
F0196-1328
  Mrv2219 10102508112D          

 25 28  0  0  0  0            999 V2000
   -0.9906    1.2551    0.0000 C   0  0  0  0  0  0  0  0  0  0  0  0
   -1.6958    0.8269    0.0000 C   0  0  0  0  0  0  0  0  0  0  0  0
   -2.4010    1.2551    0.0000 C   0  0  0  0  0  0  0  0  0  0  0  0
   -0.9906    2.0778    0.0000 C   0  0  0  0  0  0  0  0  0  0  0  0
   -2.4010    2.0778    0.0000 C   0  0  0  0  0  0  0  0  0  0  0  0
   -0.2644    0.8521    0.0000 C   0  0  0  0  0  0  0  0  0  0  0  0
   -1.6958    2.4808    0.0000 O   0  0  0  0  0  0  0  0  0  0  0  0
    1.1628    0.8521    0.0000 C   0  0  0  0  0  0  0  0  0  0  0  0
    0.4407    1.2551    0.0000 C   0  0  0  0  0  0  0  0  0  0  0  0
   -3.1230    2.4808    0.0000 C   0  0  0  0  0  0  0  0  0  0  0  0
   -3.1230    0.8269    0.0000 C   0  0  0  0  0  0  0  0  0  0  0  0
    1.1628    0.0000    0.0000 C   0  0  0  0  0  0  0  0  0  0  0  0
   -5.2596    2.0988    0.0000 C   0  0  0  0  0  0  0  0  0  0  0  0
   -1.6748    0.0000    0.0000 O   0  0  0  0  0  0  0  0  0  0  0  0
   -3.8282    2.0778    0.0000 C   0  0  0  0  0  0  0  0  0  0  0  0
    1.8680    1.2551    0.0000 O   0  0  0  0  0  0  0  0  0  0  0  0
   -4.5334    2.5017    0.0000 O   0  0  0  0  0  0  0  0  0  0  0  0
   -0.2644    0.0000    0.0000 C   0  0  0  0  0  0  0  0  0  0  0  0
    1.8932   -0.4030    0.0000 O   0  0  0  0  0  0  0  0  0  0  0  0
   -5.2848    1.2719    0.0000 O   0  0  0  0  0  0  0  0  0  0  0  0
    0.4576   -0.4030    0.0000 C   0  0  0  0  0  0  0  0  0  0  0  0
   -3.8282    1.2551    0.0000 C   0  0  0  0  0  0  0  0  0  0  0  0
   -5.9648    2.5186    0.0000 C   0  0  0  0  0  0  0  0  0  0  0  0
    2.5732    0.8521    0.0000 C   0  0  0  0  0  0  0  0  0  0  0  0
    2.5984    0.0000    0.0000 C   0  0  0  0  0  0  0  0  0  0  0  0
  2  1  1  0  0  0  0
  3  2  1  0  0  0  0
  4  1  2  0  0  0  0
  5  7  1  0  0  0  0
  6  1  1  0  0  0  0
  7  4  1  0  0  0  0
  8  9  1  0  0  0  0
  9  6  2  0  0  0  0
 10  5  1  0  0  0  0
 11  3  1  0  0  0  0
 12 21  1  0  0  0  0
 13 17  1  0  0  0  0
 14  2  2  0  0  0  0
 15 10  2  0  0  0  0
 16  8  1  0  0  0  0
 17 15  1  0  0  0  0
 18  6  1  0  0  0  0
 19 12  1  0  0  0  0
 20 13  2  0  0  0  0
 21 18  2  0  0  0  0
 22 11  2  0  0  0  0
 23 13  1  0  0  0  0
 24 16  1  0  0  0  0
 25 19  1  0  0  0  0
  5  3  2  0  0  0  0
  8 12  2  0  0  0  0
 15 22  1  0  0  0  0
 24 25  1  0  0  0  0
M  END
>  <IDNUMBER>
F0196-1328

>  <Chemical_Name>
3-(2,3-dihydro-1,4-benzodioxin-6-yl)-4-oxo-4H-chromen-7-yl acetate

>  <PriceCoeff>
1.00

>  <CAS>
170511-24-7

>  <MW>
338.31

>  <Description>
solid

>  <FSP3>
0.16

>  <clogP>
2.45

>  <TPSA>
71.06

>  <Acceptor>
6

>  <Donor>
0

>  <RotBonds>
3

>  <HAC>
25

>  <Collection>
General

>  <PPDS>
+

$$$$
F0196-1334
  Mrv2219 10102508112D          

 26 29  0  0  0  0            999 V2000
    1.1228    0.1399    0.0000 C   0  0  0  0  0  0  0  0  0  0  0  0
   -0.2690    0.1399    0.0000 C   0  0  0  0  0  0  0  0  0  0  0  0
    0.4125   -0.2726    0.0000 C   0  0  0  0  0  0  0  0  0  0  0  0
    1.1228    0.9649    0.0000 C   0  0  0  0  0  0  0  0  0  0  0  0
   -0.2690    0.9649    0.0000 C   0  0  0  0  0  0  0  0  0  0  0  0
    1.8330   -0.2726    0.0000 C   0  0  0  0  0  0  0  0  0  0  0  0
    0.4125    1.3774    0.0000 O   0  0  0  0  0  0  0  0  0  0  0  0
   -0.9864   -0.2726    0.0000 C   0  0  0  0  0  0  0  0  0  0  0  0
   -1.6967    0.9649    0.0000 C   0  0  0  0  0  0  0  0  0  0  0  0
   -0.9864    1.3774    0.0000 C   0  0  0  0  0  0  0  0  0  0  0  0
    3.2714   -0.2726    0.0000 C   0  0  0  0  0  0  0  0  0  0  0  0
   -1.6967    0.1399    0.0000 C   0  0  0  0  0  0  0  0  0  0  0  0
    2.5540    0.1399    0.0000 C   0  0  0  0  0  0  0  0  0  0  0  0
   -2.4105    1.3774    0.0000 O   0  0  0  0  0  0  0  0  0  0  0  0
   -2.4069    2.1917    0.0000 C   0  0  0  0  0  0  0  0  0  0  0  0
    3.2714   -1.1228    0.0000 C   0  0  0  0  0  0  0  0  0  0  0  0
    4.0462   -0.0251    0.0000 O   0  0  0  0  0  0  0  0  0  0  0  0
    0.4125   -1.1228    0.0000 O   0  0  0  0  0  0  0  0  0  0  0  0
    4.0462   -1.3774    0.0000 O   0  0  0  0  0  0  0  0  0  0  0  0
    4.5090   -0.7139    0.0000 C   0  0  0  0  0  0  0  0  0  0  0  0
    1.8330   -1.1228    0.0000 C   0  0  0  0  0  0  0  0  0  0  0  0
   -1.8940    2.5145    0.0000 O   0  0  0  0  0  0  0  0  0  0  0  0
    2.5540   -1.5389    0.0000 C   0  0  0  0  0  0  0  0  0  0  0  0
   -2.4105   -0.3013    0.0000 C   0  0  0  0  0  0  0  0  0  0  0  0
   -3.1171    2.6006    0.0000 C   0  0  0  0  0  0  0  0  0  0  0  0
   -3.1279    0.1148    0.0000 C   0  0  0  0  0  0  0  0  0  0  0  0
  2  3  1  0  0  0  0
  3  1  1  0  0  0  0
  4  1  2  0  0  0  0
  5  7  1  0  0  0  0
  6  1  1  0  0  0  0
  7  4  1  0  0  0  0
  8  2  1  0  0  0  0
  9 10  2  0  0  0  0
 10  5  1  0  0  0  0
 11 13  1  0  0  0  0
 12  8  2  0  0  0  0
 13  6  2  0  0  0  0
 14  9  1  0  0  0  0
 15 14  1  0  0  0  0
 16 23  1  0  0  0  0
 17 11  1  0  0  0  0
 18  3  2  0  0  0  0
 19 16  1  0  0  0  0
 20 17  1  0  0  0  0
 21  6  1  0  0  0  0
 22 15  2  0  0  0  0
 23 21  2  0  0  0  0
 24 12  1  0  0  0  0
 25 15  1  0  0  0  0
 26 24  1  0  0  0  0
  2  5  2  0  0  0  0
 16 11  2  0  0  0  0
 12  9  1  0  0  0  0
 19 20  1  0  0  0  0
M  END
>  <IDNUMBER>
F0196-1334

>  <Chemical_Name>
3-(2H-1,3-benzodioxol-5-yl)-6-ethyl-4-oxo-4H-chromen-7-yl acetate

>  <PriceCoeff>
1.00

>  <CAS>
170241-45-9

>  <MW>
352.34

>  <Description>
solid

>  <FSP3>
0.20

>  <clogP>
3.52

>  <TPSA>
71.06

>  <Acceptor>
6

>  <Donor>
0

>  <RotBonds>
4

>  <HAC>
26

>  <Collection>
General

>  <PPDS>
+

$$$$
F0196-1335
  Mrv2219 10102508112D          

 27 30  0  0  0  0            999 V2000
    1.1240    0.1400    0.0000 C   0  0  0  0  0  0  0  0  0  0  0  0
   -0.2693    0.1400    0.0000 C   0  0  0  0  0  0  0  0  0  0  0  0
    0.4130   -0.2729    0.0000 C   0  0  0  0  0  0  0  0  0  0  0  0
    1.1240    0.9659    0.0000 C   0  0  0  0  0  0  0  0  0  0  0  0
   -0.2693    0.9659    0.0000 C   0  0  0  0  0  0  0  0  0  0  0  0
    1.8242   -0.2585    0.0000 C   0  0  0  0  0  0  0  0  0  0  0  0
    0.4130    1.3789    0.0000 O   0  0  0  0  0  0  0  0  0  0  0  0
   -0.9875   -0.2729    0.0000 C   0  0  0  0  0  0  0  0  0  0  0  0
   -1.6984    0.9659    0.0000 C   0  0  0  0  0  0  0  0  0  0  0  0
   -0.9875    1.3789    0.0000 C   0  0  0  0  0  0  0  0  0  0  0  0
   -1.6984    0.1400    0.0000 C   0  0  0  0  0  0  0  0  0  0  0  0
    3.2569   -0.3160    0.0000 C   0  0  0  0  0  0  0  0  0  0  0  0
    2.5459    0.1472    0.0000 C   0  0  0  0  0  0  0  0  0  0  0  0
   -2.4130    1.3789    0.0000 O   0  0  0  0  0  0  0  0  0  0  0  0
   -2.4094    2.1940    0.0000 C   0  0  0  0  0  0  0  0  0  0  0  0
    3.2210   -1.1240    0.0000 C   0  0  0  0  0  0  0  0  0  0  0  0
    0.4130   -1.1240    0.0000 O   0  0  0  0  0  0  0  0  0  0  0  0
    3.9895    0.0862    0.0000 O   0  0  0  0  0  0  0  0  0  0  0  0
    1.7919   -1.0665    0.0000 C   0  0  0  0  0  0  0  0  0  0  0  0
    3.9104   -1.5764    0.0000 O   0  0  0  0  0  0  0  0  0  0  0  0
   -1.8960    2.5172    0.0000 O   0  0  0  0  0  0  0  0  0  0  0  0
    2.4705   -1.5118    0.0000 C   0  0  0  0  0  0  0  0  0  0  0  0
   -2.4130   -0.3016    0.0000 C   0  0  0  0  0  0  0  0  0  0  0  0
   -3.1204    2.6033    0.0000 C   0  0  0  0  0  0  0  0  0  0  0  0
    4.6968   -0.3878    0.0000 C   0  0  0  0  0  0  0  0  0  0  0  0
    4.6574   -1.1958    0.0000 C   0  0  0  0  0  0  0  0  0  0  0  0
   -3.1312    0.1149    0.0000 C   0  0  0  0  0  0  0  0  0  0  0  0
  2  3  1  0  0  0  0
  3  1  1  0  0  0  0
  4  1  2  0  0  0  0
  5  7  1  0  0  0  0
  6  1  1  0  0  0  0
  7  4  1  0  0  0  0
  8  2  1  0  0  0  0
  9 10  2  0  0  0  0
 10  5  1  0  0  0  0
 11  8  2  0  0  0  0
 12 13  1  0  0  0  0
 13  6  2  0  0  0  0
 14  9  1  0  0  0  0
 15 14  1  0  0  0  0
 16 22  1  0  0  0  0
 17  3  2  0  0  0  0
 18 12  1  0  0  0  0
 19  6  1  0  0  0  0
 20 16  1  0  0  0  0
 21 15  2  0  0  0  0
 22 19  2  0  0  0  0
 23 11  1  0  0  0  0
 24 15  1  0  0  0  0
 25 18  1  0  0  0  0
 26 20  1  0  0  0  0
 27 23  1  0  0  0  0
  5  2  2  0  0  0  0
 12 16  2  0  0  0  0
  9 11  1  0  0  0  0
 25 26  1  0  0  0  0
M  END
>  <IDNUMBER>
F0196-1335

>  <Chemical_Name>
3-(2,3-dihydro-1,4-benzodioxin-6-yl)-6-ethyl-4-oxo-4H-chromen-7-yl acetate

>  <PriceCoeff>
1.00

>  <CAS>
170511-25-8

>  <MW>
366.36

>  <Description>
solid

>  <FSP3>
0.24

>  <clogP>
3.48

>  <TPSA>
71.06

>  <Acceptor>
6

>  <Donor>
0

>  <RotBonds>
4

>  <HAC>
27

>  <Collection>
General

>  <PPDS>
+

$$$$
F0200-0002
  Mrv2219 10102508112D          

 22 24  0  0  0  0            999 V2000
   -0.7739   -0.6857    0.0000 N   0  0  0  0  0  0  0  0  0  0  0  0
    0.0208   -0.5039    0.0000 C   0  0  0  0  0  0  0  0  0  0  0  0
   -0.8518   -1.5012    0.0000 C   0  0  0  0  0  0  0  0  0  0  0  0
    0.4416   -1.2051    0.0000 C   0  0  0  0  0  0  0  0  0  0  0  0
   -0.0779   -1.8284    0.0000 C   0  0  0  0  0  0  0  0  0  0  0  0
    1.2934   -1.3090    0.0000 N   0  0  0  0  0  0  0  0  0  0  0  0
   -1.4492   -0.2078    0.0000 C   0  0  0  0  0  0  0  0  0  0  0  0
    0.3481    0.2908    0.0000 O   0  0  0  0  0  0  0  0  0  0  0  0
   -1.5739   -1.9323    0.0000 O   0  0  0  0  0  0  0  0  0  0  0  0
    1.7661   -0.6286    0.0000 C   0  0  0  0  0  0  0  0  0  0  0  0
    2.7167    0.7116    0.0000 C   0  0  0  0  0  0  0  0  0  0  0  0
   -1.3505    0.6389    0.0000 C   0  0  0  0  0  0  0  0  0  0  0  0
    3.2153    1.4128    0.0000 F   0  0  0  0  0  0  0  0  0  0  0  0
    1.4181    0.1194    0.0000 C   0  0  0  0  0  0  0  0  0  0  0  0
    2.5920   -0.7065    0.0000 C   0  0  0  0  0  0  0  0  0  0  0  0
    1.8908    0.7895    0.0000 C   0  0  0  0  0  0  0  0  0  0  0  0
    3.0595   -0.0364    0.0000 C   0  0  0  0  0  0  0  0  0  0  0  0
   -0.5766    0.9350    0.0000 C   0  0  0  0  0  0  0  0  0  0  0  0
   -1.9946    1.1635    0.0000 C   0  0  0  0  0  0  0  0  0  0  0  0
   -1.8700    1.9582    0.0000 C   0  0  0  0  0  0  0  0  0  0  0  0
   -0.4519    1.7401    0.0000 C   0  0  0  0  0  0  0  0  0  0  0  0
   -1.0752    2.2595    0.0000 C   0  0  0  0  0  0  0  0  0  0  0  0
  2  1  1  0  0  0  0
  3  1  1  0  0  0  0
  4  2  1  0  0  0  0
  5  3  1  0  0  0  0
  6  4  1  0  0  0  0
  7  1  1  0  0  0  0
  8  2  2  0  0  0  0
  9  3  2  0  0  0  0
 10  6  1  0  0  0  0
 11 17  1  0  0  0  0
 12  7  1  0  0  0  0
 13 11  1  0  0  0  0
 14 10  2  0  0  0  0
 15 10  1  0  0  0  0
 16 14  1  0  0  0  0
 17 15  2  0  0  0  0
 18 12  1  0  0  0  0
 19 12  2  0  0  0  0
 20 19  1  0  0  0  0
 21 18  2  0  0  0  0
 22 20  2  0  0  0  0
  4  5  1  0  0  0  0
 22 21  1  0  0  0  0
 16 11  2  0  0  0  0
M  END
>  <IDNUMBER>
F0200-0002

>  <Chemical_Name>
1-benzyl-3-[(4-fluorophenyl)amino]pyrrolidine-2,5-dione

>  <PriceCoeff>
1.00

>  <CAS>
306275-89-8

>  <MW>
298.31

>  <Description>
solid

>  <FSP3>
0.18

>  <clogP>
3.68

>  <TPSA>
49.41

>  <Acceptor>
3

>  <Donor>
1

>  <RotBonds>
4

>  <HAC>
22

>  <Collection>
General

>  <PPDS>
+

$$$$
F0200-0014
  Mrv2219 10102508112D          

 25 27  0  0  0  0            999 V2000
   -1.1164    2.6488    0.0000 N   0  0  0  0  0  0  0  0  0  0  0  0
   -0.6266    3.3018    0.0000 C   0  0  0  0  0  0  0  0  0  0  0  0
   -0.6582    2.0011    0.0000 C   0  0  0  0  0  0  0  0  0  0  0  0
    0.1264    2.2064    0.0000 C   0  0  0  0  0  0  0  0  0  0  0  0
    0.1633    3.0332    0.0000 C   0  0  0  0  0  0  0  0  0  0  0  0
    2.2486    1.8326    0.0000 C   0  0  0  0  0  0  0  0  0  0  0  0
   -1.9379    2.6488    0.0000 C   0  0  0  0  0  0  0  0  0  0  0  0
    0.8268    1.8115    0.0000 S   0  0  0  0  0  0  0  0  0  0  0  0
    1.5219    2.2275    0.0000 C   0  0  0  0  0  0  0  0  0  0  0  0
    2.2486    1.0269    0.0000 C   0  0  0  0  0  0  0  0  0  0  0  0
   -0.8794    4.1022    0.0000 O   0  0  0  0  0  0  0  0  0  0  0  0
   -0.8847    1.3849    0.0000 O   0  0  0  0  0  0  0  0  0  0  0  0
   -2.3328    1.9379    0.0000 C   0  0  0  0  0  0  0  0  0  0  0  0
    2.9438    0.6266    0.0000 O   0  0  0  0  0  0  0  0  0  0  0  0
    1.5640    0.5845    0.0000 O   0  0  0  0  0  0  0  0  0  0  0  0
    2.9542    2.2696    0.0000 C   0  0  0  0  0  0  0  0  0  0  0  0
   -1.8905    1.2585    0.0000 O   0  0  0  0  0  0  0  0  0  0  0  0
   -2.3539    3.3492    0.0000 C   0  0  0  0  0  0  0  0  0  0  0  0
    1.5166    3.0332    0.0000 C   0  0  0  0  0  0  0  0  0  0  0  0
   -3.1596    1.9116    0.0000 C   0  0  0  0  0  0  0  0  0  0  0  0
   -2.2275    0.5055    0.0000 C   0  0  0  0  0  0  0  0  0  0  0  0
    2.9280    3.0911    0.0000 C   0  0  0  0  0  0  0  0  0  0  0  0
   -3.2017    3.3439    0.0000 C   0  0  0  0  0  0  0  0  0  0  0  0
    2.1959    3.4756    0.0000 C   0  0  0  0  0  0  0  0  0  0  0  0
   -3.5967    2.6172    0.0000 C   0  0  0  0  0  0  0  0  0  0  0  0
  2  1  1  0  0  0  0
  3  1  1  0  0  0  0
  4  3  1  0  0  0  0
  5  2  1  0  0  0  0
  6  9  1  0  0  0  0
  7  1  1  0  0  0  0
  8  4  1  0  0  0  0
  9  8  1  0  0  0  0
 10  6  1  0  0  0  0
 11  2  2  0  0  0  0
 12  3  2  0  0  0  0
 13  7  2  0  0  0  0
 14 10  2  0  0  0  0
 15 10  1  0  0  0  0
 16  6  2  0  0  0  0
 17 13  1  0  0  0  0
 18  7  1  0  0  0  0
 19  9  2  0  0  0  0
 20 13  1  0  0  0  0
 21 17  1  0  0  0  0
 22 24  2  0  0  0  0
 23 18  2  0  0  0  0
 24 19  1  0  0  0  0
 25 23  1  0  0  0  0
  5  4  1  0  0  0  0
 25 20  2  0  0  0  0
 22 16  1  0  0  0  0
M  END
>  <IDNUMBER>
F0200-0014

>  <Chemical_Name>
2-{[1-(2-methoxyphenyl)-2,5-dioxopyrrolidin-3-yl]sulfanyl}benzoic acid

>  <PriceCoeff>
1.00

>  <CAS>
301683-27-2

>  <MW>
357.38

>  <Description>
solid

>  <FSP3>
0.17

>  <clogP>
2.16

>  <TPSA>
109.21

>  <Acceptor>
5

>  <Donor>
0

>  <RotBonds>
5

>  <HAC>
25

>  <Collection>
General

>  <PPDS>
+

$$$$
F0208-0057
  Mrv2219 10102508112D          

 21 22  0  0  0  0            999 V2000
    1.2420    0.6488    0.0000 C   0  0  0  0  0  0  0  0  0  0  0  0
    1.2420   -0.1993    0.0000 N   0  3  0  0  0  0  0  0  0  0  0  0
    0.5330    1.0519    0.0000 C   0  0  0  0  0  0  0  0  0  0  0  0
    1.9511    1.0519    0.0000 C   0  0  0  0  0  0  0  0  0  0  0  0
   -0.2039    0.6256    0.0000 O   0  0  0  0  0  0  0  0  0  0  0  0
   -0.9407    1.0519    0.0000 C   0  0  0  0  0  0  0  0  0  0  0  0
    0.5330   -0.6164    0.0000 O   0  5  0  0  0  0  0  0  0  0  0  0
    1.9511   -0.6164    0.0000 O   0  0  0  0  0  0  0  0  0  0  0  0
    0.5330    1.8908    0.0000 C   0  0  0  0  0  0  0  0  0  0  0  0
   -0.9407    1.8722    0.0000 O   0  0  0  0  0  0  0  0  0  0  0  0
    1.9511    1.8908    0.0000 C   0  0  0  0  0  0  0  0  0  0  0  0
   -2.3866    1.0241    0.0000 O   0  0  0  0  0  0  0  0  0  0  0  0
   -1.6683    0.6256    0.0000 C   0  0  0  0  0  0  0  0  0  0  0  0
    1.2420    2.2940    0.0000 C   0  0  0  0  0  0  0  0  0  0  0  0
    2.6879    2.3171    0.0000 Cl  0  0  0  0  0  0  0  0  0  0  0  0
   -3.0957    0.6256    0.0000 C   0  0  0  0  0  0  0  0  0  0  0  0
   -3.8047    1.0241    0.0000 C   0  0  0  0  0  0  0  0  0  0  0  0
   -3.0957   -0.2224    0.0000 C   0  0  0  0  0  0  0  0  0  0  0  0
   -4.5184    0.6256    0.0000 C   0  0  0  0  0  0  0  0  0  0  0  0
   -3.8047   -0.6442    0.0000 C   0  0  0  0  0  0  0  0  0  0  0  0
   -4.5184   -0.2224    0.0000 C   0  0  0  0  0  0  0  0  0  0  0  0
  2  1  1  0  0  0  0
  3  1  1  0  0  0  0
  4  1  2  0  0  0  0
  5  3  1  0  0  0  0
  6  5  1  0  0  0  0
  7  2  1  0  0  0  0
  8  2  2  0  0  0  0
  9  3  2  0  0  0  0
 10  6  2  0  0  0  0
 11  4  1  0  0  0  0
 12 13  1  0  0  0  0
 13  6  1  0  0  0  0
 14 11  2  0  0  0  0
 15 11  1  0  0  0  0
 16 12  1  0  0  0  0
 17 16  1  0  0  0  0
 18 16  2  0  0  0  0
 19 17  2  0  0  0  0
 20 18  1  0  0  0  0
 21 20  2  0  0  0  0
  9 14  1  0  0  0  0
 21 19  1  0  0  0  0
M  CHG  2   2   1   7  -1
M  END
>  <IDNUMBER>
F0208-0057

>  <Chemical_Name>
4-chloro-2-nitrophenyl 2-phenoxyacetate

>  <PriceCoeff>
1.00

>  <CAS>
391229-21-3

>  <MW>
307.69

>  <Description>
solid

>  <FSP3>
0.07

>  <clogP>
3.45

>  <TPSA>
78.67

>  <Acceptor>
5

>  <Donor>
0

>  <RotBonds>
6

>  <HAC>
21

>  <Collection>
General

>  <PPDS>
+

$$$$
F0211-0006
  Mrv2219 10102508112D          

 11 11  0  0  0  0            999 V2000
   -2.2037    1.2960    0.0000 C   0  0  0  0  0  0  0  0  0  0  0  0
   -3.0255    1.3737    0.0000 C   0  0  0  0  0  0  0  0  0  0  0  0
   -1.8480    0.5356    0.0000 C   0  0  0  0  0  0  0  0  0  0  0  0
   -1.7008    1.9829    0.0000 C   0  0  0  0  0  0  0  0  0  0  0  0
   -3.5283    0.7073    0.0000 O   0  0  0  0  0  0  0  0  0  0  0  0
   -1.0262    0.4742    0.0000 C   0  0  0  0  0  0  0  0  0  0  0  0
   -0.8831    1.8766    0.0000 C   0  0  0  0  0  0  0  0  0  0  0  0
   -3.3975    2.1301    0.0000 O   0  0  0  0  0  0  0  0  0  0  0  0
   -0.5397    1.1284    0.0000 C   0  0  0  0  0  0  0  0  0  0  0  0
   -2.3386   -0.1513    0.0000 O   0  0  0  0  0  0  0  0  0  0  0  0
   -0.3925    2.5635    0.0000 Cl  0  0  0  0  0  0  0  0  0  0  0  0
  2  1  1  0  0  0  0
  3  1  2  0  0  0  0
  4  1  1  0  0  0  0
  5  2  2  0  0  0  0
  6  3  1  0  0  0  0
  7  4  2  0  0  0  0
  8  2  1  0  0  0  0
  9  7  1  0  0  0  0
 10  3  1  0  0  0  0
 11  7  1  0  0  0  0
  6  9  2  0  0  0  0
M  END
>  <IDNUMBER>
F0211-0006

>  <Chemical_Name>
5-chloro-2-hydroxybenzoic acid

>  <PriceCoeff>
1.50

>  <CAS>
321-14-2

>  <MW>
172.57

>  <Description>
solid

>  <FSP3>
0.00

>  <clogP>
1.74

>  <TPSA>
57.53

>  <Acceptor>
3

>  <Donor>
1

>  <RotBonds>
1

>  <HAC>
11

>  <Collection>
Advanced

>  <PPDS>
+

$$$$
F0220-0040
  Mrv2219 10102508112D          

 28 31  0  0  0  0            999 V2000
   -0.2774    0.1909    0.0000 N   0  0  0  0  0  0  0  0  0  0  0  0
   -0.0180    0.9690    0.0000 C   0  0  0  0  0  0  0  0  0  0  0  0
    0.3927   -0.2918    0.0000 C   0  0  0  0  0  0  0  0  0  0  0  0
    1.0699    0.1909    0.0000 C   0  0  0  0  0  0  0  0  0  0  0  0
    0.7926    0.9907    0.0000 C   0  0  0  0  0  0  0  0  0  0  0  0
   -3.4584   -0.5656    0.0000 N   0  0  0  0  0  0  0  0  0  0  0  0
    1.8301   -0.1333    0.0000 N   0  0  0  0  0  0  0  0  0  0  0  0
   -1.0771    0.0000    0.0000 C   0  0  0  0  0  0  0  0  0  0  0  0
   -2.6658   -0.3783    0.0000 C   0  0  0  0  0  0  0  0  0  0  0  0
   -0.5367    1.6427    0.0000 O   0  0  0  0  0  0  0  0  0  0  0  0
    0.3927   -1.1240    0.0000 O   0  0  0  0  0  0  0  0  0  0  0  0
   -1.3149   -0.7781    0.0000 C   0  0  0  0  0  0  0  0  0  0  0  0
   -1.6499    0.6052    0.0000 C   0  0  0  0  0  0  0  0  0  0  0  0
   -2.1146   -0.9835    0.0000 C   0  0  0  0  0  0  0  0  0  0  0  0
   -2.4209    0.4179    0.0000 C   0  0  0  0  0  0  0  0  0  0  0  0
   -5.0687   -0.9115    0.0000 O   0  0  0  0  0  0  0  0  0  0  0  0
    2.5073    0.3638    0.0000 C   0  0  0  0  0  0  0  0  0  0  0  0
    3.8367    1.3365    0.0000 C   0  0  0  0  0  0  0  0  0  0  0  0
    2.4209    1.1960    0.0000 C   0  0  0  0  0  0  0  0  0  0  0  0
    3.2675    0.0180    0.0000 C   0  0  0  0  0  0  0  0  0  0  0  0
    3.9231    0.5188    0.0000 C   0  0  0  0  0  0  0  0  0  0  0  0
    3.0946    1.6823    0.0000 C   0  0  0  0  0  0  0  0  0  0  0  0
   -4.0168    0.0396    0.0000 C   0  0  0  0  0  0  0  0  0  0  0  0
   -3.7033   -1.3438    0.0000 C   0  0  0  0  0  0  0  0  0  0  0  0
    4.5104    1.8157    0.0000 O   0  0  0  0  0  0  0  0  0  0  0  0
   -4.8093   -0.1333    0.0000 C   0  0  0  0  0  0  0  0  0  0  0  0
   -4.5031   -1.5383    0.0000 C   0  0  0  0  0  0  0  0  0  0  0  0
    4.4419    2.6478    0.0000 C   0  0  0  0  0  0  0  0  0  0  0  0
  2  1  1  0  0  0  0
  3  1  1  0  0  0  0
  4  3  1  0  0  0  0
  5  2  1  0  0  0  0
  6  9  1  0  0  0  0
  7  4  1  0  0  0  0
  8  1  1  0  0  0  0
  9 15  1  0  0  0  0
 10  2  2  0  0  0  0
 11  3  2  0  0  0  0
 12  8  2  0  0  0  0
 13  8  1  0  0  0  0
 14 12  1  0  0  0  0
 15 13  2  0  0  0  0
 16 27  1  0  0  0  0
 17  7  1  0  0  0  0
 18 21  1  0  0  0  0
 19 17  2  0  0  0  0
 20 17  1  0  0  0  0
 21 20  2  0  0  0  0
 22 19  1  0  0  0  0
 23  6  1  0  0  0  0
 24  6  1  0  0  0  0
 25 18  1  0  0  0  0
 26 23  1  0  0  0  0
 27 24  1  0  0  0  0
 28 25  1  0  0  0  0
  5  4  1  0  0  0  0
  9 14  2  0  0  0  0
 18 22  2  0  0  0  0
 26 16  1  0  0  0  0
M  END
>  <IDNUMBER>
F0220-0040

>  <Chemical_Name>
3-[(4-methoxyphenyl)amino]-1-[4-(morpholin-4-yl)phenyl]pyrrolidine-2,5-dione

>  <PriceCoeff>
1.00

>  <CAS>
470696-05-0

>  <MW>
381.43

>  <Description>
solid

>  <FSP3>
0.33

>  <clogP>
2.05

>  <TPSA>
71.11

>  <Acceptor>
6

>  <Donor>
2

>  <RotBonds>
5

>  <HAC>
28

>  <Collection>
General

>  <PPDS>
+

$$$$
F0220-0047
  Mrv2219 10102508112D          

 27 30  0  0  0  0            999 V2000
    0.1650    0.6401    0.0000 N   0  0  0  0  0  0  0  0  0  0  0  0
    0.4201    1.4052    0.0000 C   0  0  0  0  0  0  0  0  0  0  0  0
    0.8402    0.1600    0.0000 C   0  0  0  0  0  0  0  0  0  0  0  0
    1.5003    0.6401    0.0000 C   0  0  0  0  0  0  0  0  0  0  0  0
    1.2203    1.4202    0.0000 C   0  0  0  0  0  0  0  0  0  0  0  0
    4.7160    2.5955    0.0000 N   0  0  0  0  0  0  0  0  0  0  0  0
    2.2804    0.3850    0.0000 N   0  0  0  0  0  0  0  0  0  0  0  0
   -0.6001    0.4000    0.0000 C   0  0  0  0  0  0  0  0  0  0  0  0
   -0.0850    2.0804    0.0000 O   0  0  0  0  0  0  0  0  0  0  0  0
    4.1158    2.0554    0.0000 C   0  0  0  0  0  0  0  0  0  0  0  0
    0.8402   -0.6601    0.0000 O   0  0  0  0  0  0  0  0  0  0  0  0
    5.9412    3.6757    0.0000 O   0  0  0  0  0  0  0  0  0  0  0  0
   -1.2002    0.9551    0.0000 C   0  0  0  0  0  0  0  0  0  0  0  0
   -0.7802   -0.4051    0.0000 C   0  0  0  0  0  0  0  0  0  0  0  0
    3.3207    2.3054    0.0000 C   0  0  0  0  0  0  0  0  0  0  0  0
    4.2809    1.2402    0.0000 C   0  0  0  0  0  0  0  0  0  0  0  0
    2.8806    0.9401    0.0000 C   0  0  0  0  0  0  0  0  0  0  0  0
   -2.1754   -0.0951    0.0000 C   0  0  0  0  0  0  0  0  0  0  0  0
    3.6658    0.6751    0.0000 C   0  0  0  0  0  0  0  0  0  0  0  0
    2.7056    1.7553    0.0000 C   0  0  0  0  0  0  0  0  0  0  0  0
   -1.9954    0.7001    0.0000 C   0  0  0  0  0  0  0  0  0  0  0  0
   -1.5603   -0.6451    0.0000 C   0  0  0  0  0  0  0  0  0  0  0  0
   -2.8956   -0.3651    0.0000 Cl  0  0  0  0  0  0  0  0  0  0  0  0
    4.5609    3.3856    0.0000 C   0  0  0  0  0  0  0  0  0  0  0  0
    5.4811    2.3504    0.0000 C   0  0  0  0  0  0  0  0  0  0  0  0
    5.1610    3.9407    0.0000 C   0  0  0  0  0  0  0  0  0  0  0  0
    6.1062    2.8755    0.0000 C   0  0  0  0  0  0  0  0  0  0  0  0
  2  1  1  0  0  0  0
  3  1  1  0  0  0  0
  4  3  1  0  0  0  0
  5  2  1  0  0  0  0
  6 10  1  0  0  0  0
  7  4  1  0  0  0  0
  8  1  1  0  0  0  0
  9  2  2  0  0  0  0
 10 15  2  0  0  0  0
 11  3  2  0  0  0  0
 12 27  1  0  0  0  0
 13  8  1  0  0  0  0
 14  8  2  0  0  0  0
 15 20  1  0  0  0  0
 16 19  2  0  0  0  0
 17  7  1  0  0  0  0
 18 22  2  0  0  0  0
 19 17  1  0  0  0  0
 20 17  2  0  0  0  0
 21 13  2  0  0  0  0
 22 14  1  0  0  0  0
 23 18  1  0  0  0  0
 24  6  1  0  0  0  0
 25  6  1  0  0  0  0
 26 24  1  0  0  0  0
 27 25  1  0  0  0  0
  5  4  1  0  0  0  0
 21 18  1  0  0  0  0
 10 16  1  0  0  0  0
 12 26  1  0  0  0  0
M  END
>  <IDNUMBER>
F0220-0047

>  <Chemical_Name>
1-(4-chlorophenyl)-3-{[4-(morpholin-4-yl)phenyl]amino}pyrrolidine-2,5-dione

>  <PriceCoeff>
1.00

>  <CAS>
470695-68-2

>  <MW>
385.84

>  <Description>
solid

>  <FSP3>
0.30

>  <clogP>
2.94

>  <TPSA>
61.88

>  <Acceptor>
5

>  <Donor>
2

>  <RotBonds>
4

>  <HAC>
27

>  <Collection>
General

>  <PPDS>
+

$$$$
F0222-0027
  Mrv2219 10102508112D          

 25 27  0  0  0  0            999 V2000
   -0.9414    0.1700    0.0000 N   0  0  0  0  0  0  0  0  0  0  0  0
   -0.2322    0.6304    0.0000 C   0  0  0  0  0  0  0  0  0  0  0  0
    0.3857    0.0954    0.0000 C   0  0  0  0  0  0  0  0  0  0  0  0
   -0.7175   -0.6139    0.0000 C   0  0  0  0  0  0  0  0  0  0  0  0
    0.0788   -0.6761    0.0000 C   0  0  0  0  0  0  0  0  0  0  0  0
    1.1945    0.3815    0.0000 N   0  0  0  0  0  0  0  0  0  0  0  0
   -1.6631    0.4977    0.0000 C   0  0  0  0  0  0  0  0  0  0  0  0
   -0.1825    1.4765    0.0000 O   0  0  0  0  0  0  0  0  0  0  0  0
   -1.2898   -1.1945    0.0000 O   0  0  0  0  0  0  0  0  0  0  0  0
   -2.3516    0.0207    0.0000 C   0  0  0  0  0  0  0  0  0  0  0  0
    1.8290   -0.1866    0.0000 C   0  0  0  0  0  0  0  0  0  0  0  0
    1.3231    1.1945    0.0000 O   0  0  0  0  0  0  0  0  0  0  0  0
   -2.2728   -0.7963    0.0000 O   0  0  0  0  0  0  0  0  0  0  0  0
   -1.7626    1.3396    0.0000 C   0  0  0  0  0  0  0  0  0  0  0  0
   -3.0857    0.3442    0.0000 C   0  0  0  0  0  0  0  0  0  0  0  0
    2.6171    0.0622    0.0000 C   0  0  0  0  0  0  0  0  0  0  0  0
    1.6466   -0.9996    0.0000 C   0  0  0  0  0  0  0  0  0  0  0  0
   -2.9820   -1.2733    0.0000 C   0  0  0  0  0  0  0  0  0  0  0  0
   -2.9073   -2.0945    0.0000 C   0  0  0  0  0  0  0  0  0  0  0  0
   -2.5092    1.6880    0.0000 C   0  0  0  0  0  0  0  0  0  0  0  0
   -3.5834   -2.5673    0.0000 C   0  0  0  0  0  0  0  0  0  0  0  0
   -3.1853    1.1903    0.0000 C   0  0  0  0  0  0  0  0  0  0  0  0
    2.2770   -1.5304    0.0000 C   0  0  0  0  0  0  0  0  0  0  0  0
    3.2350   -0.4853    0.0000 C   0  0  0  0  0  0  0  0  0  0  0  0
    3.0526   -1.2609    0.0000 C   0  0  0  0  0  0  0  0  0  0  0  0
  2  1  1  0  0  0  0
  3  2  1  0  0  0  0
  4  1  1  0  0  0  0
  5  4  1  0  0  0  0
  6  3  1  0  0  0  0
  7  1  1  0  0  0  0
  8  2  2  0  0  0  0
  9  4  2  0  0  0  0
 10  7  1  0  0  0  0
 11  6  1  0  0  0  0
 12  6  1  0  0  0  0
 13 10  1  0  0  0  0
 14  7  2  0  0  0  0
 15 10  2  0  0  0  0
 16 11  1  0  0  0  0
 17 11  2  0  0  0  0
 18 13  1  0  0  0  0
 19 18  1  0  0  0  0
 20 14  1  0  0  0  0
 21 19  1  0  0  0  0
 22 20  2  0  0  0  0
 23 17  1  0  0  0  0
 24 16  2  0  0  0  0
 25 23  2  0  0  0  0
  3  5  1  0  0  0  0
 15 22  1  0  0  0  0
 24 25  1  0  0  0  0
M  END
>  <IDNUMBER>
F0222-0027

>  <Chemical_Name>
3-(N-phenylhydroxyamino)-1-(2-propoxyphenyl)pyrrolidine-2,5-dione

>  <PriceCoeff>
1.00

>  <CAS>
353793-15-4

>  <MW>
340.37

>  <Description>
solid

>  <FSP3>
0.26

>  <clogP>
3.85

>  <TPSA>
70.08

>  <Acceptor>
5

>  <Donor>
2

>  <RotBonds>
6

>  <HAC>
25

>  <Collection>
General

>  <PPDS>
+

$$$$
F0222-0029
  Mrv2219 10102508112D          

 27 30  0  0  0  0            999 V2000
   -1.2217    0.1484    0.0000 N   0  0  0  0  0  0  0  0  0  0  0  0
   -1.4211   -0.6490    0.0000 C   0  0  0  0  0  0  0  0  0  0  0  0
   -0.4030    0.2248    0.0000 C   0  0  0  0  0  0  0  0  0  0  0  0
   -0.0848   -0.5472    0.0000 C   0  0  0  0  0  0  0  0  0  0  0  0
   -0.6957   -1.0733    0.0000 C   0  0  0  0  0  0  0  0  0  0  0  0
    3.0586    1.5399    0.0000 N   0  0  0  0  0  0  0  0  0  0  0  0
    0.7127   -0.7508    0.0000 N   0  0  0  0  0  0  0  0  0  0  0  0
   -1.7010    0.8145    0.0000 C   0  0  0  0  0  0  0  0  0  0  0  0
   -2.1889   -0.9842    0.0000 O   0  0  0  0  0  0  0  0  0  0  0  0
    2.4477    0.9799    0.0000 C   0  0  0  0  0  0  0  0  0  0  0  0
    0.0509    0.9163    0.0000 O   0  0  0  0  0  0  0  0  0  0  0  0
    4.2421    2.6980    0.0000 O   0  0  0  0  0  0  0  0  0  0  0  0
   -1.3447    1.5738    0.0000 C   0  0  0  0  0  0  0  0  0  0  0  0
   -2.5155    0.7593    0.0000 C   0  0  0  0  0  0  0  0  0  0  0  0
    1.6799    1.2047    0.0000 C   0  0  0  0  0  0  0  0  0  0  0  0
    2.6768    0.1993    0.0000 C   0  0  0  0  0  0  0  0  0  0  0  0
    1.3023   -0.1697    0.0000 C   0  0  0  0  0  0  0  0  0  0  0  0
   -2.6470    2.1592    0.0000 C   0  0  0  0  0  0  0  0  0  0  0  0
    1.1072    0.6236    0.0000 C   0  0  0  0  0  0  0  0  0  0  0  0
    2.1041   -0.3945    0.0000 C   0  0  0  0  0  0  0  0  0  0  0  0
   -2.9864    1.4381    0.0000 C   0  0  0  0  0  0  0  0  0  0  0  0
   -1.8156    2.2483    0.0000 C   0  0  0  0  0  0  0  0  0  0  0  0
   -3.1391    2.8464    0.0000 F   0  0  0  0  0  0  0  0  0  0  0  0
    3.8476    1.3235    0.0000 C   0  0  0  0  0  0  0  0  0  0  0  0
    2.8549    2.3543    0.0000 C   0  0  0  0  0  0  0  0  0  0  0  0
    3.4615    2.9143    0.0000 C   0  0  0  0  0  0  0  0  0  0  0  0
    4.4584    1.9047    0.0000 C   0  0  0  0  0  0  0  0  0  0  0  0
  2  1  1  0  0  0  0
  3  1  1  0  0  0  0
  4  3  1  0  0  0  0
  5  2  1  0  0  0  0
  6 10  1  0  0  0  0
  7  4  1  0  0  0  0
  8  1  1  0  0  0  0
  9  2  2  0  0  0  0
 10 16  2  0  0  0  0
 11  3  2  0  0  0  0
 12 26  1  0  0  0  0
 13  8  2  0  0  0  0
 14  8  1  0  0  0  0
 15 19  2  0  0  0  0
 16 20  1  0  0  0  0
 17  7  1  0  0  0  0
 18 21  1  0  0  0  0
 19 17  1  0  0  0  0
 20 17  2  0  0  0  0
 21 14  2  0  0  0  0
 22 13  1  0  0  0  0
 23 18  1  0  0  0  0
 24  6  1  0  0  0  0
 25  6  1  0  0  0  0
 26 25  1  0  0  0  0
 27 24  1  0  0  0  0
  4  5  1  0  0  0  0
 18 22  2  0  0  0  0
 15 10  1  0  0  0  0
 12 27  1  0  0  0  0
M  END
>  <IDNUMBER>
F0222-0029

>  <Chemical_Name>
1-(4-fluorophenyl)-3-{[4-(morpholin-4-yl)phenyl]amino}pyrrolidine-2,5-dione

>  <PriceCoeff>
1.00

>  <CAS>
353793-16-5

>  <MW>
369.39

>  <Description>
solid

>  <FSP3>
0.30

>  <clogP>
2.37

>  <TPSA>
61.88

>  <Acceptor>
5

>  <Donor>
2

>  <RotBonds>
4

>  <HAC>
27

>  <Collection>
General

>  <PPDS>
+

$$$$
F0239-0139
  Mrv2219 10102508112D          

 20 21  0  0  0  0            999 V2000
    2.6591   -2.7074    0.0000 N   0  3  0  0  0  0  0  0  0  0  0  0
    2.4018   -1.9300    0.0000 C   0  0  0  0  0  0  0  0  0  0  0  0
    2.2249    1.0722    0.0000 C   0  0  0  0  0  0  0  0  0  0  0  0
    1.9943    1.8657    0.0000 C   0  0  0  0  0  0  0  0  0  0  0  0
    3.0236    0.8953    0.0000 N   0  0  0  0  0  0  0  0  0  0  0  0
    3.2542    0.0911    0.0000 C   0  0  0  0  0  0  0  0  0  0  0  0
    2.9432   -1.2921    0.0000 C   0  0  0  0  0  0  0  0  0  0  0  0
    2.6752   -0.5361    0.0000 C   0  0  0  0  0  0  0  0  0  0  0  0
    2.4822    2.5518    0.0000 C   0  0  0  0  0  0  0  0  0  0  0  0
    1.5655    0.6379    0.0000 S   0  0  0  0  0  0  0  0  0  0  0  0
    2.9647    3.2434    0.0000 N   0  0  0  0  0  0  0  0  0  0  0  0
    1.5922   -1.7852    0.0000 C   0  0  0  0  0  0  0  0  0  0  0  0
    2.1069   -3.3185    0.0000 O   0  5  0  0  0  0  0  0  0  0  0  0
    1.1956    1.8657    0.0000 C   0  0  0  0  0  0  0  0  0  0  0  0
    0.9061    1.1365    0.0000 C   0  0  0  0  0  0  0  0  0  0  0  0
    3.4579   -2.8521    0.0000 O   0  0  0  0  0  0  0  0  0  0  0  0
    4.0530   -0.0858    0.0000 O   0  0  0  0  0  0  0  0  0  0  0  0
    1.8389   -0.3699    0.0000 C   0  0  0  0  0  0  0  0  0  0  0  0
    1.3242   -1.0026    0.0000 C   0  0  0  0  0  0  0  0  0  0  0  0
    1.0347   -2.3857    0.0000 Cl  0  0  0  0  0  0  0  0  0  0  0  0
  2  1  1  0  0  0  0
  3  5  1  0  0  0  0
  4  3  2  0  0  0  0
  5  6  1  0  0  0  0
  6  8  1  0  0  0  0
  7  2  1  0  0  0  0
  8  7  2  0  0  0  0
  9  4  1  0  0  0  0
 10  3  1  0  0  0  0
 11  9  3  0  0  0  0
 12  2  2  0  0  0  0
 13  1  1  0  0  0  0
 14  4  1  0  0  0  0
 15 10  1  0  0  0  0
 16  1  2  0  0  0  0
 17  6  2  0  0  0  0
 18 19  2  0  0  0  0
 19 12  1  0  0  0  0
 20 12  1  0  0  0  0
  8 18  1  0  0  0  0
 14 15  2  0  0  0  0
M  CHG  2   1   1  13  -1
M  END
>  <IDNUMBER>
F0239-0139

>  <Chemical_Name>
4-chloro-N-(3-cyanothiophen-2-yl)-3-nitrobenzamide

>  <PriceCoeff>
1.00

>  <MW>
307.71

>  <Description>
solid

>  <FSP3>
0.00

>  <clogP>
2.15

>  <TPSA>
124.27

>  <Acceptor>
4

>  <Donor>
1

>  <RotBonds>
3

>  <HAC>
20

>  <Collection>
General

$$$$
F0239-0325
  Mrv2219 10102508112D          

 26 29  0  0  0  0            999 V2000
    1.9789   -0.7140    0.0000 C   0  0  0  0  0  0  0  0  0  0  0  0
    2.2262   -1.4898    0.0000 C   0  0  0  0  0  0  0  0  0  0  0  0
    2.5466   -0.1181    0.0000 C   0  0  0  0  0  0  0  0  0  0  0  0
    3.7834    4.0419    0.0000 N   0  3  0  0  0  0  0  0  0  0  0  0
    3.1425    3.4685    0.0000 C   0  0  0  0  0  0  0  0  0  0  0  0
    1.5516   -1.9789    0.0000 S   0  0  0  0  0  0  0  0  0  0  0  0
    1.1468   -0.7140    0.0000 C   0  0  0  0  0  0  0  0  0  0  0  0
    0.8770   -1.4898    0.0000 C   0  0  0  0  0  0  0  0  0  0  0  0
    2.3330    0.7421    0.0000 N   0  0  0  0  0  0  0  0  0  0  0  0
    2.9233    1.3098    0.0000 C   0  0  0  0  0  0  0  0  0  0  0  0
    3.3280    2.6590    0.0000 C   0  0  0  0  0  0  0  0  0  0  0  0
    3.0357   -1.6865    0.0000 N   0  0  0  0  0  0  0  0  0  0  0  0
    3.3280   -0.3092    0.0000 N   0  0  0  0  0  0  0  0  0  0  0  0
    2.7378    2.0912    0.0000 C   0  0  0  0  0  0  0  0  0  0  0  0
    2.3611    3.7103    0.0000 C   0  0  0  0  0  0  0  0  0  0  0  0
    3.5979   -1.0625    0.0000 C   0  0  0  0  0  0  0  0  0  0  0  0
    4.5423    3.7721    0.0000 O   0  5  0  0  0  0  0  0  0  0  0  0
    3.6259    4.8177    0.0000 O   0  0  0  0  0  0  0  0  0  0  0  0
    3.7103    1.0737    0.0000 O   0  0  0  0  0  0  0  0  0  0  0  0
    1.9563    2.3385    0.0000 C   0  0  0  0  0  0  0  0  0  0  0  0
    1.7596    3.1481    0.0000 C   0  0  0  0  0  0  0  0  0  0  0  0
    2.1644    4.5478    0.0000 Cl  0  0  0  0  0  0  0  0  0  0  0  0
    0.6071   -0.0900    0.0000 C   0  0  0  0  0  0  0  0  0  0  0  0
    0.0675   -1.6584    0.0000 C   0  0  0  0  0  0  0  0  0  0  0  0
   -0.2024   -0.2530    0.0000 C   0  0  0  0  0  0  0  0  0  0  0  0
   -0.4722   -1.0344    0.0000 C   0  0  0  0  0  0  0  0  0  0  0  0
  2  1  2  0  0  0  0
  3  1  1  0  0  0  0
  4  5  1  0  0  0  0
  5 11  1  0  0  0  0
  6  2  1  0  0  0  0
  7  1  1  0  0  0  0
  8  7  2  0  0  0  0
  9  3  1  0  0  0  0
 10  9  1  0  0  0  0
 11 14  2  0  0  0  0
 12  2  1  0  0  0  0
 13  3  2  0  0  0  0
 14 10  1  0  0  0  0
 15 21  1  0  0  0  0
 16 13  1  0  0  0  0
 17  4  1  0  0  0  0
 18  4  2  0  0  0  0
 19 10  2  0  0  0  0
 20 14  1  0  0  0  0
 21 20  2  0  0  0  0
 22 15  1  0  0  0  0
 23  7  1  0  0  0  0
 24  8  1  0  0  0  0
 25 23  1  0  0  0  0
 26 25  1  0  0  0  0
  6  8  1  0  0  0  0
 12 16  2  0  0  0  0
 26 24  1  0  0  0  0
  5 15  2  0  0  0  0
M  CHG  2   4   1  17  -1
M  END
>  <IDNUMBER>
F0239-0325

>  <Chemical_Name>
4-chloro-3-nitro-N-{8-thia-4,6-diazatricyclo[7.4.0.0?,?]trideca-1(9),2,4,6-tetraen-3-yl}benzamide

>  <PriceCoeff>
1.00

>  <CAS>
303017-78-9

>  <MW>
388.83

>  <Description>
solid

>  <FSP3>
0.24

>  <clogP>
4.45

>  <TPSA>
126.26

>  <Acceptor>
5

>  <Donor>
1

>  <RotBonds>
3

>  <HAC>
26

>  <Collection>
General

$$$$
F0239-0350
  Mrv2219 10102508112D          

 25 27  0  0  0  0            999 V2000
   -0.4111   -0.4693    0.0000 C   0  0  0  0  0  0  0  0  0  0  0  0
   -0.4111    0.3575    0.0000 C   0  0  0  0  0  0  0  0  0  0  0  0
    0.3933    0.6034    0.0000 N   0  0  0  0  0  0  0  0  0  0  0  0
   -1.0547   -0.9833    0.0000 C   0  0  0  0  0  0  0  0  0  0  0  0
    0.3799   -0.7151    0.0000 S   0  0  0  0  0  0  0  0  0  0  0  0
   -2.9632    2.4090    0.0000 N   0  3  0  0  0  0  0  0  0  0  0  0
    0.8447   -0.0984    0.0000 C   0  0  0  0  0  0  0  0  0  0  0  0
   -0.9475   -1.8012    0.0000 N   0  0  0  0  0  0  0  0  0  0  0  0
   -1.0190    0.8715    0.0000 C   0  0  0  0  0  0  0  0  0  0  0  0
   -2.3062    1.8726    0.0000 C   0  0  0  0  0  0  0  0  0  0  0  0
   -2.8380    3.2135    0.0000 O   0  5  0  0  0  0  0  0  0  0  0  0
   -3.7498    2.1051    0.0000 O   0  0  0  0  0  0  0  0  0  0  0  0
   -1.8190   -0.6615    0.0000 O   0  0  0  0  0  0  0  0  0  0  0  0
   -0.1832   -2.1230    0.0000 C   0  0  0  0  0  0  0  0  0  0  0  0
   -1.5688    2.1676    0.0000 C   0  0  0  0  0  0  0  0  0  0  0  0
   -2.4358    1.0547    0.0000 C   0  0  0  0  0  0  0  0  0  0  0  0
   -0.9118    1.6849    0.0000 C   0  0  0  0  0  0  0  0  0  0  0  0
   -1.7833    0.5497    0.0000 C   0  0  0  0  0  0  0  0  0  0  0  0
   -0.1028   -2.9141    0.0000 C   0  0  0  0  0  0  0  0  0  0  0  0
    0.6615   -3.2582    0.0000 C   0  0  0  0  0  0  0  0  0  0  0  0
    1.6805   -0.1252    0.0000 C   0  0  0  0  0  0  0  0  0  0  0  0
    1.2336   -1.9308    0.0000 C   0  0  0  0  0  0  0  0  0  0  0  0
    0.4693   -1.6269    0.0000 C   0  0  0  0  0  0  0  0  0  0  0  0
    1.3408   -2.7398    0.0000 C   0  0  0  0  0  0  0  0  0  0  0  0
    0.7509   -4.0806    0.0000 C   0  0  0  0  0  0  0  0  0  0  0  0
  2  1  2  0  0  0  0
  3  2  1  0  0  0  0
  4  1  1  0  0  0  0
  5  1  1  0  0  0  0
  6 10  1  0  0  0  0
  7  5  1  0  0  0  0
  8  4  1  0  0  0  0
  9  2  1  0  0  0  0
 10 16  1  0  0  0  0
 11  6  1  0  0  0  0
 12  6  2  0  0  0  0
 13  4  2  0  0  0  0
 14  8  1  0  0  0  0
 15 17  1  0  0  0  0
 16 18  2  0  0  0  0
 17  9  2  0  0  0  0
 18  9  1  0  0  0  0
 19 14  2  0  0  0  0
 20 19  1  0  0  0  0
 21  7  1  0  0  0  0
 22 23  2  0  0  0  0
 23 14  1  0  0  0  0
 24 22  1  0  0  0  0
 25 20  1  0  0  0  0
  3  7  2  0  0  0  0
 15 10  2  0  0  0  0
 24 20  2  0  0  0  0
M  CHG  2   6   1  11  -1
M  END
>  <IDNUMBER>
F0239-0350

>  <Chemical_Name>
2-methyl-N-(3-methylphenyl)-4-(4-nitrophenyl)-1,3-thiazole-5-carboxamide

>  <PriceCoeff>
1.00

>  <CAS>
294668-21-6

>  <MW>
353.40

>  <Description>
solid

>  <FSP3>
0.11

>  <clogP>
4.15

>  <TPSA>
113.37

>  <Acceptor>
4

>  <Donor>
1

>  <RotBonds>
4

>  <HAC>
25

>  <Collection>
General

>  <PPDS>
+

$$$$
F0239-0433
  Mrv2219 10102508112D          

 26 28  0  0  0  0            999 V2000
    3.2190   -1.0062    0.0000 C   0  0  0  0  0  0  0  0  0  0  0  0
    2.9602   -0.2297    0.0000 C   0  0  0  0  0  0  0  0  0  0  0  0
    3.6491    0.2588    0.0000 N   0  0  0  0  0  0  0  0  0  0  0  0
    2.7347   -1.6951    0.0000 C   0  0  0  0  0  0  0  0  0  0  0  0
    4.0457   -1.0271    0.0000 S   0  0  0  0  0  0  0  0  0  0  0  0
   -0.1210    0.9227    0.0000 N   0  3  0  0  0  0  0  0  0  0  0  0
    4.3004   -0.2505    0.0000 C   0  0  0  0  0  0  0  0  0  0  0  0
    3.0729   -2.4466    0.0000 N   0  0  0  0  0  0  0  0  0  0  0  0
    2.1919    0.0584    0.0000 C   0  0  0  0  0  0  0  0  0  0  0  0
    0.6555    0.6346    0.0000 C   0  0  0  0  0  0  0  0  0  0  0  0
   -0.2588    1.7368    0.0000 O   0  5  0  0  0  0  0  0  0  0  0  0
   -0.7598    0.3966    0.0000 O   0  0  0  0  0  0  0  0  0  0  0  0
    1.9038   -1.6032    0.0000 O   0  0  0  0  0  0  0  0  0  0  0  0
    3.9079   -2.5343    0.0000 C   0  0  0  0  0  0  0  0  0  0  0  0
    4.3881   -1.8705    0.0000 C   0  0  0  0  0  0  0  0  0  0  0  0
    1.2901    1.1606    0.0000 C   0  0  0  0  0  0  0  0  0  0  0  0
    0.7933   -0.1796    0.0000 C   0  0  0  0  0  0  0  0  0  0  0  0
    2.0458    0.8642    0.0000 C   0  0  0  0  0  0  0  0  0  0  0  0
    1.5782   -0.4634    0.0000 C   0  0  0  0  0  0  0  0  0  0  0  0
    5.2022   -1.9582    0.0000 C   0  0  0  0  0  0  0  0  0  0  0  0
    5.1145   -0.0125    0.0000 C   0  0  0  0  0  0  0  0  0  0  0  0
    5.7115   -1.2943    0.0000 O   0  0  0  0  0  0  0  0  0  0  0  0
    5.0394   -3.3860    0.0000 C   0  0  0  0  0  0  0  0  0  0  0  0
    4.2252   -3.2984    0.0000 C   0  0  0  0  0  0  0  0  0  0  0  0
    5.5404   -2.7180    0.0000 C   0  0  0  0  0  0  0  0  0  0  0  0
    5.3650   -0.5303    0.0000 C   0  0  0  0  0  0  0  0  0  0  0  0
  2  1  2  0  0  0  0
  3  2  1  0  0  0  0
  4  1  1  0  0  0  0
  5  1  1  0  0  0  0
  6 10  1  0  0  0  0
  7  5  1  0  0  0  0
  8  4  1  0  0  0  0
  9  2  1  0  0  0  0
 10 17  1  0  0  0  0
 11  6  1  0  0  0  0
 12  6  2  0  0  0  0
 13  4  2  0  0  0  0
 14  8  1  0  0  0  0
 15 14  1  0  0  0  0
 16 18  1  0  0  0  0
 17 19  2  0  0  0  0
 18  9  2  0  0  0  0
 19  9  1  0  0  0  0
 20 15  2  0  0  0  0
 21  7  1  0  0  0  0
 22 20  1  0  0  0  0
 23 24  1  0  0  0  0
 24 14  2  0  0  0  0
 25 23  2  0  0  0  0
 26 22  1  0  0  0  0
  7  3  2  0  0  0  0
 16 10  2  0  0  0  0
 20 25  1  0  0  0  0
M  CHG  2   6   1  11  -1
M  END
>  <IDNUMBER>
F0239-0433

>  <Chemical_Name>
N-(3-methoxyphenyl)-2-methyl-4-(4-nitrophenyl)-1,3-thiazole-5-carboxamide

>  <PriceCoeff>
1.00

>  <CAS>
303793-12-6

>  <MW>
369.39

>  <Description>
solid

>  <FSP3>
0.11

>  <clogP>
3.58

>  <TPSA>
122.60

>  <Acceptor>
5

>  <Donor>
1

>  <RotBonds>
5

>  <HAC>
26

>  <Collection>
General

>  <PPDS>
+

$$$$
F0243-0007
  Mrv2219 10102508112D          

 22 26  0  0  0  0            999 V2000
   -1.7710   -0.7810    0.0000 C   0  0  0  0  0  0  0  0  0  0  0  0
   -1.7710    0.0403    0.0000 C   0  0  0  0  0  0  0  0  0  0  0  0
   -1.0560   -1.1917    0.0000 N   0  0  0  0  0  0  0  0  0  0  0  0
   -1.0560    0.4583    0.0000 N   0  0  0  0  0  0  0  0  0  0  0  0
   -2.4933   -1.2027    0.0000 C   0  0  0  0  0  0  0  0  0  0  0  0
   -2.4933    0.4510    0.0000 C   0  0  0  0  0  0  0  0  0  0  0  0
   -3.2083   -0.7920    0.0000 C   0  0  0  0  0  0  0  0  0  0  0  0
   -3.2083    0.0403    0.0000 C   0  0  0  0  0  0  0  0  0  0  0  0
   -0.3483    0.0440    0.0000 C   0  0  0  0  0  0  0  0  0  0  0  0
   -0.3483   -0.7810    0.0000 C   0  0  0  0  0  0  0  0  0  0  0  0
   -2.4933    1.2760    0.0000 C   0  0  0  0  0  0  0  0  0  0  0  0
   -2.4933   -2.0277    0.0000 C   0  0  0  0  0  0  0  0  0  0  0  0
   -3.9233   -1.1917    0.0000 C   0  0  0  0  0  0  0  0  0  0  0  0
   -3.9233    0.4510    0.0000 C   0  0  0  0  0  0  0  0  0  0  0  0
    0.3667   -1.1917    0.0000 C   0  0  0  0  0  0  0  0  0  0  0  0
    0.3667    0.4583    0.0000 C   0  0  0  0  0  0  0  0  0  0  0  0
   -3.2083   -2.4457    0.0000 C   0  0  0  0  0  0  0  0  0  0  0  0
   -3.9233    1.2760    0.0000 C   0  0  0  0  0  0  0  0  0  0  0  0
   -3.2083    1.6903    0.0000 C   0  0  0  0  0  0  0  0  0  0  0  0
   -3.9233   -2.0277    0.0000 C   0  0  0  0  0  0  0  0  0  0  0  0
    1.0817    0.0440    0.0000 C   0  0  0  0  0  0  0  0  0  0  0  0
    1.0817   -0.7810    0.0000 C   0  0  0  0  0  0  0  0  0  0  0  0
  2  1  1  0  0  0  0
  3  1  2  0  0  0  0
  4  2  2  0  0  0  0
  5  1  1  0  0  0  0
  6  2  1  0  0  0  0
  7  5  2  0  0  0  0
  8  7  1  0  0  0  0
  9 10  2  0  0  0  0
 10  3  1  0  0  0  0
 11  6  2  0  0  0  0
 12  5  1  0  0  0  0
 13  7  1  0  0  0  0
 14  8  2  0  0  0  0
 15 10  1  0  0  0  0
 16  9  1  0  0  0  0
 17 12  2  0  0  0  0
 18 14  1  0  0  0  0
 19 11  1  0  0  0  0
 20 17  1  0  0  0  0
 21 22  1  0  0  0  0
 22 15  2  0  0  0  0
  8  6  1  0  0  0  0
  4  9  1  0  0  0  0
 13 20  2  0  0  0  0
 19 18  2  0  0  0  0
 16 21  2  0  0  0  0
M  END
>  <IDNUMBER>
F0243-0007

>  <Chemical_Name>
15,22-diazapentacyclo[12.8.0.0?,?.0?,??.0??,??]docosa-1(14),2(7),3,5,8(13),9,11,15,17,19,21-undecaene

>  <PriceCoeff>
1.00

>  <CAS>
215-64-5

>  <MW>
280.32

>  <Description>
solid

>  <FSP3>
0.00

>  <clogP>
5.22

>  <TPSA>
25.78

>  <Acceptor>
2

>  <Donor>
0

>  <RotBonds>
0

>  <HAC>
22

>  <Collection>
General

>  <PPDS>
+

$$$$
F0266-0124
  Mrv2219 10102508112D          

 14 14  0  0  0  0            999 V2000
   -0.4379    0.4294    0.0000 C   0  0  0  0  0  0  0  0  0  0  0  0
   -1.1527    0.0085    0.0000 C   0  0  0  0  0  0  0  0  0  0  0  0
   -0.4379    1.2544    0.0000 O   0  0  0  0  0  0  0  0  0  0  0  0
   -1.8732    0.4153    0.0000 C   0  0  0  0  0  0  0  0  0  0  0  0
   -1.1527   -0.8165    0.0000 C   0  0  0  0  0  0  0  0  0  0  0  0
    0.2712    0.0085    0.0000 O   0  0  0  0  0  0  0  0  0  0  0  0
   -2.5907   -0.8165    0.0000 C   0  0  0  0  0  0  0  0  0  0  0  0
   -2.5907    0.0085    0.0000 C   0  0  0  0  0  0  0  0  0  0  0  0
   -1.8732   -1.2205    0.0000 C   0  0  0  0  0  0  0  0  0  0  0  0
   -3.3027   -1.2544    0.0000 O   0  0  0  0  0  0  0  0  0  0  0  0
    0.9832    0.4294    0.0000 C   0  0  0  0  0  0  0  0  0  0  0  0
    1.6952    0.0085    0.0000 C   0  0  0  0  0  0  0  0  0  0  0  0
    2.4071    0.4153    0.0000 C   0  0  0  0  0  0  0  0  0  0  0  0
    3.1191    0.0000    0.0000 C   0  0  0  0  0  0  0  0  0  0  0  0
  2  1  1  0  0  0  0
  3  1  2  0  0  0  0
  4  2  1  0  0  0  0
  5  2  2  0  0  0  0
  6  1  1  0  0  0  0
  7  9  2  0  0  0  0
  8  4  2  0  0  0  0
  9  5  1  0  0  0  0
 10  7  1  0  0  0  0
 11  6  1  0  0  0  0
 12 11  1  0  0  0  0
 13 12  1  0  0  0  0
 14 13  1  0  0  0  0
  8  7  1  0  0  0  0
M  END
>  <IDNUMBER>
F0266-0124

>  <Chemical_Name>
butyl 4-hydroxybenzoate

>  <PriceCoeff>
1.00

>  <CAS>
94-26-8

>  <MW>
194.23

>  <Description>
solid

>  <FSP3>
0.36

>  <clogP>
3.00

>  <TPSA>
46.53

>  <Acceptor>
3

>  <Donor>
1

>  <RotBonds>
5

>  <HAC>
14

>  <Collection>
General

$$$$
F0270-0021
  Mrv2219 10102508112D          

 23 25  0  0  0  0            999 V2000
   -1.7457    1.1626    0.0000 N   0  0  0  0  0  0  0  0  0  0  0  0
   -1.6247    1.9768    0.0000 C   0  0  0  0  0  0  0  0  0  0  0  0
   -1.0085    0.7922    0.0000 C   0  0  0  0  0  0  0  0  0  0  0  0
   -0.4401    1.3753    0.0000 C   0  0  0  0  0  0  0  0  0  0  0  0
   -0.8105    2.0978    0.0000 C   0  0  0  0  0  0  0  0  0  0  0  0
    1.7054    1.8337    0.0000 C   0  0  0  0  0  0  0  0  0  0  0  0
    0.3851    1.2726    0.0000 S   0  0  0  0  0  0  0  0  0  0  0  0
    0.8949    1.9438    0.0000 C   0  0  0  0  0  0  0  0  0  0  0  0
    2.0062    1.0746    0.0000 C   0  0  0  0  0  0  0  0  0  0  0  0
   -2.4646    0.7445    0.0000 C   0  0  0  0  0  0  0  0  0  0  0  0
   -2.1858    2.5709    0.0000 O   0  0  0  0  0  0  0  0  0  0  0  0
   -0.8655   -0.0477    0.0000 O   0  0  0  0  0  0  0  0  0  0  0  0
    2.8167    0.9425    0.0000 O   0  0  0  0  0  0  0  0  0  0  0  0
    1.5221    0.4071    0.0000 O   0  0  0  0  0  0  0  0  0  0  0  0
    2.2152    2.4829    0.0000 C   0  0  0  0  0  0  0  0  0  0  0  0
    0.5758    2.6957    0.0000 C   0  0  0  0  0  0  0  0  0  0  0  0
   -2.4646   -0.0807    0.0000 C   0  0  0  0  0  0  0  0  0  0  0  0
   -3.1871    1.1626    0.0000 C   0  0  0  0  0  0  0  0  0  0  0  0
    1.8962    3.2311    0.0000 C   0  0  0  0  0  0  0  0  0  0  0  0
    1.0710    3.3448    0.0000 C   0  0  0  0  0  0  0  0  0  0  0  0
   -3.1871   -0.5098    0.0000 C   0  0  0  0  0  0  0  0  0  0  0  0
   -3.9133    0.7445    0.0000 C   0  0  0  0  0  0  0  0  0  0  0  0
   -3.9133   -0.0807    0.0000 C   0  0  0  0  0  0  0  0  0  0  0  0
  2  1  1  0  0  0  0
  3  1  1  0  0  0  0
  4  3  1  0  0  0  0
  5  2  1  0  0  0  0
  6  8  2  0  0  0  0
  7  4  1  0  0  0  0
  8  7  1  0  0  0  0
  9  6  1  0  0  0  0
 10  1  1  0  0  0  0
 11  2  2  0  0  0  0
 12  3  2  0  0  0  0
 13  9  2  0  0  0  0
 14  9  1  0  0  0  0
 15  6  1  0  0  0  0
 16  8  1  0  0  0  0
 17 10  1  0  0  0  0
 18 10  2  0  0  0  0
 19 20  1  0  0  0  0
 20 16  2  0  0  0  0
 21 17  2  0  0  0  0
 22 18  1  0  0  0  0
 23 22  2  0  0  0  0
  4  5  1  0  0  0  0
 21 23  1  0  0  0  0
 15 19  2  0  0  0  0
M  END
>  <IDNUMBER>
F0270-0021

>  <Chemical_Name>
2-[(2,5-dioxo-1-phenylpyrrolidin-3-yl)sulfanyl]benzoic acid

>  <PriceCoeff>
1.00

>  <MW>
327.35

>  <Description>
solid

>  <FSP3>
0.12

>  <clogP>
2.07

>  <TPSA>
114.12

>  <Acceptor>
4

>  <Donor>
0

>  <RotBonds>
4

>  <HAC>
23

>  <Collection>
General

$$$$
F0270-0027
  Mrv2219 10102508112D          

 23 25  0  0  0  0            999 V2000
   -1.4339    0.4988    0.0000 N   0  0  0  0  0  0  0  0  0  0  0  0
   -1.0404    1.2118    0.0000 C   0  0  0  0  0  0  0  0  0  0  0  0
   -0.8728   -0.1208    0.0000 C   0  0  0  0  0  0  0  0  0  0  0  0
   -0.1247    0.2533    0.0000 C   0  0  0  0  0  0  0  0  0  0  0  0
   -0.2338    1.0598    0.0000 C   0  0  0  0  0  0  0  0  0  0  0  0
   -2.2444    0.4209    0.0000 C   0  0  0  0  0  0  0  0  0  0  0  0
    0.5495   -0.2338    0.0000 N   0  0  0  0  0  0  0  0  0  0  0  0
   -1.3988    1.9600    0.0000 O   0  0  0  0  0  0  0  0  0  0  0  0
   -1.0404   -0.9391    0.0000 O   0  0  0  0  0  0  0  0  0  0  0  0
   -2.5834   -0.3313    0.0000 C   0  0  0  0  0  0  0  0  0  0  0  0
    0.4715   -1.0560    0.0000 C   0  0  0  0  0  0  0  0  0  0  0  0
   -2.1041   -0.9858    0.0000 Cl  0  0  0  0  0  0  0  0  0  0  0  0
    0.3079   -2.6809    0.0000 C   0  0  0  0  0  0  0  0  0  0  0  0
    1.1495   -1.5430    0.0000 C   0  0  0  0  0  0  0  0  0  0  0  0
   -0.2766   -1.3716    0.0000 C   0  0  0  0  0  0  0  0  0  0  0  0
   -0.3702   -2.1782    0.0000 C   0  0  0  0  0  0  0  0  0  0  0  0
    1.0560   -2.3418    0.0000 C   0  0  0  0  0  0  0  0  0  0  0  0
   -2.7315    1.0949    0.0000 C   0  0  0  0  0  0  0  0  0  0  0  0
    0.2377   -3.4952    0.0000 O   0  0  0  0  0  0  0  0  0  0  0  0
   -3.4133   -0.4092    0.0000 C   0  0  0  0  0  0  0  0  0  0  0  0
   -0.5105   -3.8342    0.0000 C   0  0  0  0  0  0  0  0  0  0  0  0
   -3.5536    1.0130    0.0000 C   0  0  0  0  0  0  0  0  0  0  0  0
   -3.9004    0.2650    0.0000 C   0  0  0  0  0  0  0  0  0  0  0  0
  2  1  1  0  0  0  0
  3  1  1  0  0  0  0
  4  3  1  0  0  0  0
  5  2  1  0  0  0  0
  6  1  1  0  0  0  0
  7  4  1  0  0  0  0
  8  2  2  0  0  0  0
  9  3  2  0  0  0  0
 10  6  1  0  0  0  0
 11  7  1  0  0  0  0
 12 10  1  0  0  0  0
 13 16  2  0  0  0  0
 14 11  1  0  0  0  0
 15 11  2  0  0  0  0
 16 15  1  0  0  0  0
 17 14  2  0  0  0  0
 18  6  2  0  0  0  0
 19 13  1  0  0  0  0
 20 10  2  0  0  0  0
 21 19  1  0  0  0  0
 22 18  1  0  0  0  0
 23 22  2  0  0  0  0
  5  4  1  0  0  0  0
 20 23  1  0  0  0  0
 17 13  1  0  0  0  0
M  END
>  <IDNUMBER>
F0270-0027

>  <Chemical_Name>
1-(2-chlorophenyl)-3-[(4-methoxyphenyl)amino]pyrrolidine-2,5-dione

>  <PriceCoeff>
1.00

>  <CAS>
306275-90-1

>  <MW>
330.77

>  <Description>
solid

>  <FSP3>
0.18

>  <clogP>
3.18

>  <TPSA>
58.64

>  <Acceptor>
4

>  <Donor>
1

>  <RotBonds>
4

>  <HAC>
23

>  <Collection>
General

>  <PPDS>
+

$$$$
F0273-0019
  Mrv2219 10102508112D          

 27 29  0  0  0  0            999 V2000
    1.1815   -1.3672    0.0000 S   0  0  0  0  0  0  0  0  0  0  0  0
    2.4970    2.1926    0.0000 N   0  3  0  0  0  0  0  0  0  0  0  0
    2.1256    1.4651    0.0000 C   0  0  0  0  0  0  0  0  0  0  0  0
    0.0464    0.7841    0.0000 C   0  0  0  0  0  0  0  0  0  0  0  0
    0.0619   -0.6552    0.0000 C   0  0  0  0  0  0  0  0  0  0  0  0
   -0.3353    0.0412    0.0000 N   0  0  0  0  0  0  0  0  0  0  0  0
    0.9029   -0.6243    0.0000 C   0  0  0  0  0  0  0  0  0  0  0  0
    1.3362    1.4806    0.0000 C   0  0  0  0  0  0  0  0  0  0  0  0
    0.8874    0.7841    0.0000 C   0  0  0  0  0  0  0  0  0  0  0  0
   -0.1496   -1.4446    0.0000 C   0  0  0  0  0  0  0  0  0  0  0  0
    0.5572   -1.8779    0.0000 C   0  0  0  0  0  0  0  0  0  0  0  0
    2.5435    0.7222    0.0000 C   0  0  0  0  0  0  0  0  0  0  0  0
    1.9244   -1.0576    0.0000 O   0  0  0  0  0  0  0  0  0  0  0  0
    1.5220   -2.1411    0.0000 O   0  0  0  0  0  0  0  0  0  0  0  0
    3.3276    2.3164    0.0000 O   0  5  0  0  0  0  0  0  0  0  0  0
   -1.1401    0.0258    0.0000 C   0  0  0  0  0  0  0  0  0  0  0  0
    2.1049    2.9097    0.0000 O   0  0  0  0  0  0  0  0  0  0  0  0
   -0.3869    1.4806    0.0000 O   0  0  0  0  0  0  0  0  0  0  0  0
    1.2846    0.0619    0.0000 C   0  0  0  0  0  0  0  0  0  0  0  0
    2.1101    0.0412    0.0000 C   0  0  0  0  0  0  0  0  0  0  0  0
   -1.5425   -0.7017    0.0000 C   0  0  0  0  0  0  0  0  0  0  0  0
   -1.6044    0.7068    0.0000 C   0  0  0  0  0  0  0  0  0  0  0  0
    3.3895    0.7222    0.0000 Cl  0  0  0  0  0  0  0  0  0  0  0  0
   -2.3783   -0.7274    0.0000 C   0  0  0  0  0  0  0  0  0  0  0  0
   -2.4144    0.6965    0.0000 C   0  0  0  0  0  0  0  0  0  0  0  0
   -2.7807   -0.0362    0.0000 C   0  0  0  0  0  0  0  0  0  0  0  0
   -3.6319   -0.1083    0.0000 C   0  0  0  0  0  0  0  0  0  0  0  0
  2  3  1  0  0  0  0
  3  8  1  0  0  0  0
  4  6  1  0  0  0  0
  5  7  1  0  0  0  0
  6  5  1  0  0  0  0
  7  1  1  0  0  0  0
  8  9  2  0  0  0  0
  9  4  1  0  0  0  0
 10 11  2  0  0  0  0
 11  1  1  0  0  0  0
 12 20  1  0  0  0  0
 13  1  2  0  0  0  0
 14  1  2  0  0  0  0
 15  2  1  0  0  0  0
 16  6  1  0  0  0  0
 17  2  2  0  0  0  0
 18  4  2  0  0  0  0
 19  9  1  0  0  0  0
 20 19  2  0  0  0  0
 21 16  2  0  0  0  0
 22 16  1  0  0  0  0
 23 12  1  0  0  0  0
 24 21  1  0  0  0  0
 25 22  2  0  0  0  0
 26 25  1  0  0  0  0
 27 26  1  0  0  0  0
  5 10  1  0  0  0  0
 24 26  2  0  0  0  0
  3 12  2  0  0  0  0
M  CHG  2   2   1  15  -1
M  END
>  <IDNUMBER>
F0273-0019

>  <Chemical_Name>
4-chloro-N-(1,1-dioxo-2,3-dihydro-1??-thiophen-3-yl)-N-(4-methylphenyl)-3-nitrobenzamide

>  <PriceCoeff>
1.00

>  <CAS>
301675-78-5

>  <MW>
406.84

>  <Description>
solid

>  <FSP3>
0.17

>  <clogP>
2.09

>  <TPSA>
105.97

>  <Acceptor>
5

>  <Donor>
0

>  <RotBonds>
5

>  <HAC>
27

>  <Collection>
General

>  <PPDS>
+

$$$$
F0286-0220
  Mrv2219 10102508112D          

 18 19  0  0  0  0            999 V2000
   -5.4384   -1.7193    0.0000 N   0  3  0  0  0  0  0  0  0  0  0  0
   -2.4310   -0.3810    0.0000 C   0  0  0  0  0  0  0  0  0  0  0  0
   -3.1828   -0.7218    0.0000 C   0  0  0  0  0  0  0  0  0  0  0  0
   -1.7844   -0.8471    0.0000 N   0  0  0  0  0  0  0  0  0  0  0  0
   -1.0475   -0.5413    0.0000 C   0  0  0  0  0  0  0  0  0  0  0  0
   -3.8495   -0.2456    0.0000 C   0  0  0  0  0  0  0  0  0  0  0  0
   -0.9173    0.2406    0.0000 N   0  0  0  0  0  0  0  0  0  0  0  0
   -4.6715   -1.4035    0.0000 C   0  0  0  0  0  0  0  0  0  0  0  0
   -4.5963   -0.5765    0.0000 C   0  0  0  0  0  0  0  0  0  0  0  0
   -0.3158   -0.9223    0.0000 S   0  0  0  0  0  0  0  0  0  0  0  0
   -3.2480   -1.5639    0.0000 C   0  0  0  0  0  0  0  0  0  0  0  0
   -6.0900   -1.2231    0.0000 O   0  5  0  0  0  0  0  0  0  0  0  0
   -5.5286   -2.5313    0.0000 O   0  0  0  0  0  0  0  0  0  0  0  0
   -2.3708    0.4160    0.0000 O   0  0  0  0  0  0  0  0  0  0  0  0
   -0.1152    0.3859    0.0000 C   0  0  0  0  0  0  0  0  0  0  0  0
   -3.9948   -1.8847    0.0000 C   0  0  0  0  0  0  0  0  0  0  0  0
    0.2607   -0.3609    0.0000 C   0  0  0  0  0  0  0  0  0  0  0  0
   -3.7693    0.5664    0.0000 Cl  0  0  0  0  0  0  0  0  0  0  0  0
  2  3  1  0  0  0  0
  3 11  2  0  0  0  0
  4  2  1  0  0  0  0
  5  4  1  0  0  0  0
  6  9  2  0  0  0  0
  7  5  2  0  0  0  0
  8  1  1  0  0  0  0
  9  8  1  0  0  0  0
 10  5  1  0  0  0  0
 11 16  1  0  0  0  0
 12  1  1  0  0  0  0
 13  1  2  0  0  0  0
 14  2  2  0  0  0  0
 15  7  1  0  0  0  0
 16  8  2  0  0  0  0
 17 10  1  0  0  0  0
 18  6  1  0  0  0  0
  3  6  1  0  0  0  0
 15 17  2  0  0  0  0
M  CHG  2   1   1  12  -1
M  END
>  <IDNUMBER>
F0286-0220

>  <Chemical_Name>
2-chloro-4-nitro-N-(1,3-thiazol-2-yl)benzamide

>  <PriceCoeff>
1.00

>  <CAS>
324058-89-1

>  <MW>
283.69

>  <Description>
solid

>  <FSP3>
0.00

>  <clogP>
1.63

>  <TPSA>
113.37

>  <Acceptor>
4

>  <Donor>
1

>  <RotBonds>
3

>  <HAC>
18

>  <Collection>
General

>  <PPDS>
+

$$$$
F0286-0291
  Mrv2219 10102508112D          

 27 29  0  0  0  0            999 V2000
   -1.4967   -0.2956    0.0000 C   0  0  0  0  0  0  0  0  0  0  0  0
   -1.5274   -1.1087    0.0000 C   0  0  0  0  0  0  0  0  0  0  0  0
   -0.2525   -0.7391    0.0000 N   0  0  0  0  0  0  0  0  0  0  0  0
   -0.7576   -1.3551    0.0000 N   0  0  0  0  0  0  0  0  0  0  0  0
   -0.7329   -0.0739    0.0000 C   0  0  0  0  0  0  0  0  0  0  0  0
   -5.0197    1.0286    0.0000 N   0  3  0  0  0  0  0  0  0  0  0  0
   -4.2806    1.4350    0.0000 C   0  0  0  0  0  0  0  0  0  0  0  0
   -2.2111    0.1663    0.0000 N   0  0  0  0  0  0  0  0  0  0  0  0
   -2.1434    0.9916    0.0000 C   0  0  0  0  0  0  0  0  0  0  0  0
   -3.5662    1.0286    0.0000 C   0  0  0  0  0  0  0  0  0  0  0  0
   -2.8578    1.4350    0.0000 C   0  0  0  0  0  0  0  0  0  0  0  0
   -2.2358   -1.5953    0.0000 O   0  0  0  0  0  0  0  0  0  0  0  0
   -4.2806    2.2666    0.0000 C   0  0  0  0  0  0  0  0  0  0  0  0
   -5.7218    1.4350    0.0000 O   0  5  0  0  0  0  0  0  0  0  0  0
   -0.4619   -2.1434    0.0000 C   0  0  0  0  0  0  0  0  0  0  0  0
   -4.9828    0.1970    0.0000 O   0  0  0  0  0  0  0  0  0  0  0  0
   -1.4350    1.3796    0.0000 O   0  0  0  0  0  0  0  0  0  0  0  0
   -2.8578    2.2913    0.0000 C   0  0  0  0  0  0  0  0  0  0  0  0
   -3.5662    2.6793    0.0000 C   0  0  0  0  0  0  0  0  0  0  0  0
    0.5605   -0.7638    0.0000 C   0  0  0  0  0  0  0  0  0  0  0  0
   -0.4372    0.7576    0.0000 C   0  0  0  0  0  0  0  0  0  0  0  0
   -5.0197    2.7100    0.0000 Cl  0  0  0  0  0  0  0  0  0  0  0  0
    0.3203   -2.2913    0.0000 C   0  0  0  0  0  0  0  0  0  0  0  0
   -0.9916   -2.7409    0.0000 C   0  0  0  0  0  0  0  0  0  0  0  0
   -0.7329   -3.5170    0.0000 C   0  0  0  0  0  0  0  0  0  0  0  0
    0.6159   -3.0735    0.0000 C   0  0  0  0  0  0  0  0  0  0  0  0
    0.0739   -3.6955    0.0000 C   0  0  0  0  0  0  0  0  0  0  0  0
  2  1  1  0  0  0  0
  3  5  1  0  0  0  0
  4  2  1  0  0  0  0
  5  1  2  0  0  0  0
  6  7  1  0  0  0  0
  7 10  1  0  0  0  0
  8  1  1  0  0  0  0
  9  8  1  0  0  0  0
 10 11  2  0  0  0  0
 11  9  1  0  0  0  0
 12  2  2  0  0  0  0
 13 19  1  0  0  0  0
 14  6  1  0  0  0  0
 15  4  1  0  0  0  0
 16  6  2  0  0  0  0
 17  9  2  0  0  0  0
 18 11  1  0  0  0  0
 19 18  2  0  0  0  0
 20  3  1  0  0  0  0
 21  5  1  0  0  0  0
 22 13  1  0  0  0  0
 23 15  2  0  0  0  0
 24 15  1  0  0  0  0
 25 24  2  0  0  0  0
 26 23  1  0  0  0  0
 27 25  1  0  0  0  0
  4  3  1  0  0  0  0
  7 13  2  0  0  0  0
 27 26  2  0  0  0  0
M  CHG  2   6   1  14  -1
M  END
>  <IDNUMBER>
F0286-0291

>  <Chemical_Name>
4-chloro-N-(1,5-dimethyl-3-oxo-2-phenyl-2,3-dihydro-1H-pyrazol-4-yl)-3-nitrobenzamide

>  <PriceCoeff>
1.00

>  <MW>
386.79

>  <Description>
solid

>  <FSP3>
0.11

>  <clogP>
1.82

>  <TPSA>
95.79

>  <Acceptor>
4

>  <Donor>
2

>  <RotBonds>
4

>  <HAC>
27

>  <Collection>
General

$$$$
F0287-0039
  Mrv2219 10102508112D          

 31 34  0  0  0  0            999 V2000
   -2.3269    0.7159    0.0000 N   0  0  0  0  0  0  0  0  0  0  0  0
   -1.6110    1.9613    0.0000 N   0  0  0  0  0  0  0  0  0  0  0  0
   -2.3269    1.5386    0.0000 C   0  0  0  0  0  0  0  0  0  0  0  0
   -0.8987    0.7159    0.0000 C   0  0  0  0  0  0  0  0  0  0  0  0
   -1.6110    0.2932    0.0000 C   0  0  0  0  0  0  0  0  0  0  0  0
   -0.8987    1.5386    0.0000 C   0  0  0  0  0  0  0  0  0  0  0  0
    2.6850   -2.2089    0.0000 N   0  3  0  0  0  0  0  0  0  0  0  0
   -0.1676    0.2742    0.0000 C   0  0  0  0  0  0  0  0  0  0  0  0
   -3.0354    1.9613    0.0000 C   0  0  0  0  0  0  0  0  0  0  0  0
    1.9690   -1.8091    0.0000 C   0  0  0  0  0  0  0  0  0  0  0  0
   -0.1676   -0.5637    0.0000 N   0  0  0  0  0  0  0  0  0  0  0  0
    1.2606   -2.2280    0.0000 C   0  0  0  0  0  0  0  0  0  0  0  0
   -0.1676    1.9766    0.0000 N   0  0  0  0  0  0  0  0  0  0  0  0
   -3.0354    0.2932    0.0000 C   0  0  0  0  0  0  0  0  0  0  0  0
    0.5485   -1.8091    0.0000 C   0  0  0  0  0  0  0  0  0  0  0  0
    0.5485   -0.9864    0.0000 C   0  0  0  0  0  0  0  0  0  0  0  0
    2.7688   -3.0431    0.0000 O   0  5  0  0  0  0  0  0  0  0  0  0
   -1.6110   -0.5485    0.0000 O   0  0  0  0  0  0  0  0  0  0  0  0
    0.5485    3.2181    0.0000 C   0  0  0  0  0  0  0  0  0  0  0  0
    3.4276   -1.8434    0.0000 O   0  0  0  0  0  0  0  0  0  0  0  0
   -3.7476    0.7159    0.0000 C   0  0  0  0  0  0  0  0  0  0  0  0
    1.3292    2.9668    0.0000 O   0  0  0  0  0  0  0  0  0  0  0  0
   -3.7476    1.5386    0.0000 C   0  0  0  0  0  0  0  0  0  0  0  0
    0.5485    4.0561    0.0000 C   0  0  0  0  0  0  0  0  0  0  0  0
    1.8091    3.6409    0.0000 C   0  0  0  0  0  0  0  0  0  0  0  0
    1.9690   -0.9864    0.0000 C   0  0  0  0  0  0  0  0  0  0  0  0
    1.3292    4.3113    0.0000 C   0  0  0  0  0  0  0  0  0  0  0  0
    1.2606   -0.5637    0.0000 C   0  0  0  0  0  0  0  0  0  0  0  0
   -0.1676    2.8183    0.0000 C   0  0  0  0  0  0  0  0  0  0  0  0
   -0.1676   -2.2089    0.0000 Cl  0  0  0  0  0  0  0  0  0  0  0  0
   -3.0354    2.7840    0.0000 C   0  0  0  0  0  0  0  0  0  0  0  0
  2  3  2  0  0  0  0
  3  1  1  0  0  0  0
  4  5  1  0  0  0  0
  5  1  1  0  0  0  0
  6  4  2  0  0  0  0
  7 10  1  0  0  0  0
  8  4  1  0  0  0  0
  9  3  1  0  0  0  0
 10 26  1  0  0  0  0
 11  8  2  0  0  0  0
 12 15  1  0  0  0  0
 13  6  1  0  0  0  0
 14  1  1  0  0  0  0
 15 16  2  0  0  0  0
 16 11  1  0  0  0  0
 17  7  1  0  0  0  0
 18  5  2  0  0  0  0
 19 29  1  0  0  0  0
 20  7  2  0  0  0  0
 21 14  2  0  0  0  0
 22 19  1  0  0  0  0
 23 21  1  0  0  0  0
 24 19  2  0  0  0  0
 25 22  1  0  0  0  0
 26 28  2  0  0  0  0
 27 24  1  0  0  0  0
 28 16  1  0  0  0  0
 29 13  1  0  0  0  0
 30 15  1  0  0  0  0
 31  9  1  0  0  0  0
 23  9  2  0  0  0  0
  6  2  1  0  0  0  0
 12 10  2  0  0  0  0
 27 25  2  0  0  0  0
M  CHG  2   7   1  17  -1
M  END
>  <IDNUMBER>
F0287-0039

>  <Chemical_Name>
3-[(E)-[(2-chloro-4-nitrophenyl)imino]methyl]-2-{[(furan-2-yl)methyl]amino}-9-methyl-4H-pyrido[1,2-a]pyrimidin-4-one

>  <PriceCoeff>
1.00

>  <CAS>
392236-21-4

>  <MW>
437.84

>  <Description>
solid

>  <FSP3>
0.10

>  <clogP>
3.78

>  <TPSA>
113.34

>  <Acceptor>
6

>  <Donor>
2

>  <RotBonds>
6

>  <HAC>
31

>  <Collection>
General

>  <PPDS>
+

$$$$
F0293-0022
  Mrv2219 10102508112D          

 17 17  0  0  0  0            999 V2000
   -1.4956    3.5846    0.0000 S   0  0  0  0  0  0  0  0  0  0  0  0
   -0.7928    1.5050    0.0000 C   0  0  0  0  0  0  0  0  0  0  0  0
   -0.0570    1.0777    0.0000 N   0  3  0  0  0  0  0  0  0  0  0  0
   -1.4956    4.4250    0.0000 C   0  0  0  0  0  0  0  0  0  0  0  0
   -0.7928    2.3026    0.0000 C   0  0  0  0  0  0  0  0  0  0  0  0
   -1.4956    2.7348    0.0000 C   0  0  0  0  0  0  0  0  0  0  0  0
   -1.4956    1.0777    0.0000 C   0  0  0  0  0  0  0  0  0  0  0  0
   -2.3359    3.5846    0.0000 O   0  0  0  0  0  0  0  0  0  0  0  0
   -0.6790    3.5846    0.0000 O   0  0  0  0  0  0  0  0  0  0  0  0
   -0.0570    0.2279    0.0000 O   0  5  0  0  0  0  0  0  0  0  0  0
    0.6884    1.5050    0.0000 O   0  0  0  0  0  0  0  0  0  0  0  0
   -2.2220    2.3026    0.0000 C   0  0  0  0  0  0  0  0  0  0  0  0
   -1.4956    5.2749    0.0000 F   0  0  0  0  0  0  0  0  0  0  0  0
   -0.6790    4.4250    0.0000 F   0  0  0  0  0  0  0  0  0  0  0  0
   -2.3359    4.4250    0.0000 F   0  0  0  0  0  0  0  0  0  0  0  0
   -2.2220    1.5050    0.0000 C   0  0  0  0  0  0  0  0  0  0  0  0
   -1.4956    0.2279    0.0000 Cl  0  0  0  0  0  0  0  0  0  0  0  0
  2  5  1  0  0  0  0
  3  2  1  0  0  0  0
  4  1  1  0  0  0  0
  5  6  2  0  0  0  0
  6  1  1  0  0  0  0
  7 16  1  0  0  0  0
  8  1  2  0  0  0  0
  9  1  2  0  0  0  0
 10  3  1  0  0  0  0
 11  3  2  0  0  0  0
 12  6  1  0  0  0  0
 13  4  1  0  0  0  0
 14  4  1  0  0  0  0
 15  4  1  0  0  0  0
 16 12  2  0  0  0  0
 17  7  1  0  0  0  0
  7  2  2  0  0  0  0
M  CHG  2   3   1  10  -1
M  END
>  <IDNUMBER>
F0293-0022

>  <Chemical_Name>
1-chloro-2-nitro-4-trifluoromethanesulfonylbenzene

>  <PriceCoeff>
1.00

>  <CAS>
1550-27-2

>  <MW>
289.62

>  <Description>
solid

>  <FSP3>
0.14

>  <clogP>
3.47

>  <TPSA>
77.28

>  <Acceptor>
4

>  <Donor>
0

>  <RotBonds>
3

>  <HAC>
17

>  <Collection>
General

>  <PPDS>
+

$$$$
F0293-0071
  Mrv2219 10102508112D          

 32 33  0  0  0  0            999 V2000
    2.2121    0.8456    0.0000 N   0  3  0  0  0  0  0  0  0  0  0  0
    1.4164    0.5957    0.0000 C   0  0  0  0  0  0  0  0  0  0  0  0
    1.4164   -0.2417    0.0000 C   0  0  0  0  0  0  0  0  0  0  0  0
    2.2121   -0.4916    0.0000 N   0  0  0  0  0  0  0  0  0  0  0  0
    2.6870    0.1625    0.0000 C   0  0  0  0  0  0  0  0  0  0  0  0
    0.0000    0.5707    0.0000 C   0  0  0  0  0  0  0  0  0  0  0  0
    0.7166   -0.6416    0.0000 C   0  0  0  0  0  0  0  0  0  0  0  0
    0.7166    1.0081    0.0000 C   0  0  0  0  0  0  0  0  0  0  0  0
    0.0000   -0.2417    0.0000 C   0  0  0  0  0  0  0  0  0  0  0  0
   -0.7456    0.9748    0.0000 C   0  0  0  0  0  0  0  0  0  0  0  0
    2.4662    1.6455    0.0000 C   0  0  0  0  0  0  0  0  0  0  0  0
    0.7166   -1.4872    0.0000 F   0  0  0  0  0  0  0  0  0  0  0  0
    0.7166    1.8121    0.0000 F   0  0  0  0  0  0  0  0  0  0  0  0
   -0.7456   -0.6249    0.0000 F   0  0  0  0  0  0  0  0  0  0  0  0
   -0.3332    1.7080    0.0000 F   0  0  0  0  0  0  0  0  0  0  0  0
   -1.1206    0.2458    0.0000 F   0  0  0  0  0  0  0  0  0  0  0  0
   -1.4705    1.3580    0.0000 F   0  0  0  0  0  0  0  0  0  0  0  0
    2.4662   -1.3122    0.0000 C   0  0  0  0  0  0  0  0  0  0  0  0
    3.5035    0.1625    0.0000 C   0  0  0  0  0  0  0  0  0  0  0  0
    3.2743    1.8121    0.0000 C   0  0  0  0  0  0  0  0  0  0  0  0
    3.2743   -1.4872    0.0000 C   0  0  0  0  0  0  0  0  0  0  0  0
    6.2785    1.1398    0.0000 S   0  0  0  0  0  0  0  0  0  0  0  0
    5.9442    0.3876    0.0000 C   0  0  0  0  0  0  0  0  0  0  0  0
    7.0308    0.8054    0.0000 O   0  5  0  0  0  0  0  0  0  0  0  0
    6.6105    1.8953    0.0000 O   0  0  0  0  0  0  0  0  0  0  0  0
    5.5240    1.4775    0.0000 O   0  0  0  0  0  0  0  0  0  0  0  0
    6.4335   -0.2867    0.0000 C   0  0  0  0  0  0  0  0  0  0  0  0
    5.1255    0.3030    0.0000 C   0  0  0  0  0  0  0  0  0  0  0  0
    6.0992   -1.0389    0.0000 C   0  0  0  0  0  0  0  0  0  0  0  0
    4.7959   -0.4558    0.0000 C   0  0  0  0  0  0  0  0  0  0  0  0
    5.2804   -1.1234    0.0000 C   0  0  0  0  0  0  0  0  0  0  0  0
    4.9427   -1.8780    0.0000 C   0  0  0  0  0  0  0  0  0  0  0  0
 13  8  1  0  0  0  0
 14  9  1  0  0  0  0
 15 10  1  0  0  0  0
 16 10  1  0  0  0  0
 17 10  1  0  0  0  0
 18  4  1  0  0  0  0
 19  5  1  0  0  0  0
 20 11  1  0  0  0  0
 21 18  1  0  0  0  0
  3  4  1  0  0  0  0
  9  7  2  0  0  0  0
  2  1  1  0  0  0  0
  3  2  2  0  0  0  0
  4  5  1  0  0  0  0
  5  1  2  0  0  0  0
  6  8  2  0  0  0  0
  7  3  1  0  0  0  0
  8  2  1  0  0  0  0
  9  6  1  0  0  0  0
 10  6  1  0  0  0  0
 11  1  1  0  0  0  0
 12  7  1  0  0  0  0
 23 22  1  0  0  0  0
 24 22  1  0  0  0  0
 25 22  2  0  0  0  0
 26 22  2  0  0  0  0
 27 23  1  0  0  0  0
 28 23  2  0  0  0  0
 29 27  2  0  0  0  0
 30 28  1  0  0  0  0
 31 30  2  0  0  0  0
 32 31  1  0  0  0  0
 31 29  1  0  0  0  0
M  CHG  2   1   1  24  -1
M  END
>  <IDNUMBER>
F0293-0071

>  <Chemical_Name>
1,3-diethyl-4,6,7-trifluoro-2-methyl-5-(trifluoromethyl)-1H-1,3-benzodiazol-3-ium 4-methylbenzene-1-sulfonate

>  <PriceCoeff>
1.00

>  <CAS>
1059176-16-7

>  <MW>
311.25

>  <Description>
solid

>  <FSP3>
0.46

>  <clogP>
-0.66

>  <TPSA>
8.81

>  <Acceptor>
0

>  <Donor>
0

>  <RotBonds>
2

>  <HAC>
21

>  <Collection>
General

$$$$
F0307-0311
  Mrv2219 10102508112D          

 15 15  0  0  0  0            999 V2000
   -0.3064    0.5949    0.0000 C   0  0  0  0  0  0  0  0  0  0  0  0
    0.0857   -0.0992    0.0000 N   0  0  0  0  0  0  0  0  0  0  0  0
   -1.1313    0.6174    0.0000 C   0  0  0  0  0  0  0  0  0  0  0  0
    1.3161   -0.8654    0.0000 C   0  0  0  0  0  0  0  0  0  0  0  0
    0.1082    1.2935    0.0000 O   0  0  0  0  0  0  0  0  0  0  0  0
   -1.5369   -0.0857    0.0000 C   0  0  0  0  0  0  0  0  0  0  0  0
    2.1409   -0.8834    0.0000 O   0  0  0  0  0  0  0  0  0  0  0  0
    0.9059   -0.1262    0.0000 C   0  0  0  0  0  0  0  0  0  0  0  0
   -2.3617   -0.0857    0.0000 C   0  0  0  0  0  0  0  0  0  0  0  0
    0.9059   -1.5730    0.0000 O   0  0  0  0  0  0  0  0  0  0  0  0
   -2.7944   -0.8158    0.0000 O   0  0  0  0  0  0  0  0  0  0  0  0
   -1.5369    1.3521    0.0000 C   0  0  0  0  0  0  0  0  0  0  0  0
   -2.3617    1.3341    0.0000 C   0  0  0  0  0  0  0  0  0  0  0  0
   -2.7719    0.6174    0.0000 C   0  0  0  0  0  0  0  0  0  0  0  0
   -3.6192   -0.8158    0.0000 C   0  0  0  0  0  0  0  0  0  0  0  0
  2  1  1  0  0  0  0
  3  1  1  0  0  0  0
  4  8  1  0  0  0  0
  5  1  2  0  0  0  0
  6  3  1  0  0  0  0
  7  4  2  0  0  0  0
  8  2  1  0  0  0  0
  9  6  2  0  0  0  0
 10  4  1  0  0  0  0
 11  9  1  0  0  0  0
 12  3  2  0  0  0  0
 13 12  1  0  0  0  0
 14 13  2  0  0  0  0
 15 11  1  0  0  0  0
 14  9  1  0  0  0  0
M  END
>  <IDNUMBER>
F0307-0311

>  <Chemical_Name>
2-[(3-methoxyphenyl)formamido]acetic acid

>  <PriceCoeff>
1.00

>  <CAS>
57728-61-7

>  <MW>
209.20

>  <Description>
solid

>  <FSP3>
0.20

>  <clogP>
0.37

>  <TPSA>
75.63

>  <Acceptor>
4

>  <Donor>
1

>  <RotBonds>
4

>  <HAC>
15

>  <Collection>
General

>  <PPDS>
+

$$$$
F0311-0776
  Mrv2219 10102508112D          

 13 14  0  0  0  0            999 V2000
    3.6004   -0.7991    0.0000 N   0  0  0  0  0  0  0  0  0  0  0  0
    3.8501   -1.5775    0.0000 C   0  0  0  0  0  0  0  0  0  0  0  0
    4.2622   -0.3039    0.0000 C   0  0  0  0  0  0  0  0  0  0  0  0
    4.6742   -1.5775    0.0000 N   0  0  0  0  0  0  0  0  0  0  0  0
    4.9322   -0.7991    0.0000 N   0  0  0  0  0  0  0  0  0  0  0  0
    3.3631   -2.2476    0.0000 C   0  0  0  0  0  0  0  0  0  0  0  0
    2.8137   -0.5369    0.0000 N   0  0  0  0  0  0  0  0  0  0  0  0
    4.2622    0.4995    0.0000 S   0  0  0  0  0  0  0  0  0  0  0  0
    2.5473   -2.1519    0.0000 C   0  0  0  0  0  0  0  0  0  0  0  0
    3.7003   -2.9968    0.0000 C   0  0  0  0  0  0  0  0  0  0  0  0
    2.0520   -2.8137    0.0000 C   0  0  0  0  0  0  0  0  0  0  0  0
    3.2133   -3.6628    0.0000 C   0  0  0  0  0  0  0  0  0  0  0  0
    2.3974   -3.5629    0.0000 C   0  0  0  0  0  0  0  0  0  0  0  0
  2  1  1  0  0  0  0
  3  1  1  0  0  0  0
  4  2  2  0  0  0  0
  5  3  2  0  0  0  0
  6  2  1  0  0  0  0
  7  1  1  0  0  0  0
  8  3  1  0  0  0  0
  9  6  2  0  0  0  0
 10  6  1  0  0  0  0
 11  9  1  0  0  0  0
 12 10  2  0  0  0  0
 13 12  1  0  0  0  0
  5  4  1  0  0  0  0
 13 11  2  0  0  0  0
M  END
>  <IDNUMBER>
F0311-0776

>  <Chemical_Name>
4-amino-5-phenyl-4H-1,2,4-triazole-3-thiol

>  <PriceCoeff>
1.00

>  <CAS>
22706-11-2

>  <MW>
192.25

>  <Description>
solid

>  <FSP3>
0.00

>  <clogP>
0.73

>  <TPSA>
56.73

>  <Acceptor>
2

>  <Donor>
3

>  <RotBonds>
1

>  <HAC>
13

>  <Collection>
General

>  <PPDS>
+

$$$$
F0326-0135
  Mrv2219 10102508112D          

 31 36  0  0  0  0            999 V2000
   -1.5376   -1.2826    0.0000 S   0  0  0  0  0  0  0  0  0  0  0  0
   -2.2112   -0.8030    0.0000 C   0  0  0  0  0  0  0  0  0  0  0  0
   -0.8677   -0.7916    0.0000 C   0  0  0  0  0  0  0  0  0  0  0  0
   -2.9877   -1.0390    0.0000 C   0  0  0  0  0  0  0  0  0  0  0  0
    3.6804   -0.9477    0.0000 N   0  0  0  0  0  0  0  0  0  0  0  0
   -1.9752   -0.0267    0.0000 N   0  0  0  0  0  0  0  0  0  0  0  0
   -0.0875   -0.9477    0.0000 N   0  0  0  0  0  0  0  0  0  0  0  0
   -1.1722   -0.0267    0.0000 N   0  0  0  0  0  0  0  0  0  0  0  0
    0.4568   -0.3197    0.0000 C   0  0  0  0  0  0  0  0  0  0  0  0
    4.2627   -0.3807    0.0000 C   0  0  0  0  0  0  0  0  0  0  0  0
    4.0229   -1.6899    0.0000 C   0  0  0  0  0  0  0  0  0  0  0  0
    2.8773   -0.8030    0.0000 C   0  0  0  0  0  0  0  0  0  0  0  0
   -3.2388   -0.1865    0.0000 C   0  0  0  0  0  0  0  0  0  0  0  0
   -3.7184   -1.5871    0.0000 C   0  0  0  0  0  0  0  0  0  0  0  0
   -2.3711   -1.4501    0.0000 C   0  0  0  0  0  0  0  0  0  0  0  0
   -3.5357   -1.0543    0.0000 C   0  0  0  0  0  0  0  0  0  0  0  0
   -2.5233   -2.2645    0.0000 C   0  0  0  0  0  0  0  0  0  0  0  0
   -3.8554   -2.3331    0.0000 C   0  0  0  0  0  0  0  0  0  0  0  0
    1.2598   -0.4720    0.0000 C   0  0  0  0  0  0  0  0  0  0  0  0
    0.1827    0.4758    0.0000 O   0  0  0  0  0  0  0  0  0  0  0  0
    4.9820   -0.7650    0.0000 C   0  0  0  0  0  0  0  0  0  0  0  0
    4.8412   -1.5871    0.0000 C   0  0  0  0  0  0  0  0  0  0  0  0
    4.1143    0.4301    0.0000 O   0  0  0  0  0  0  0  0  0  0  0  0
    3.6119   -2.4092    0.0000 O   0  0  0  0  0  0  0  0  0  0  0  0
    2.3292   -1.4197    0.0000 C   0  0  0  0  0  0  0  0  0  0  0  0
    2.6071   -0.0267    0.0000 C   0  0  0  0  0  0  0  0  0  0  0  0
    1.5110   -1.2598    0.0000 C   0  0  0  0  0  0  0  0  0  0  0  0
    1.8079    0.1484    0.0000 C   0  0  0  0  0  0  0  0  0  0  0  0
   -4.1295   -1.5072    0.0000 C   0  0  0  0  0  0  0  0  0  0  0  0
   -3.1970   -2.7746    0.0000 C   0  0  0  0  0  0  0  0  0  0  0  0
   -2.6946   -1.5871    0.0000 C   0  0  0  0  0  0  0  0  0  0  0  0
  2  1  1  0  0  0  0
  3  1  1  0  0  0  0
  4  2  1  0  0  0  0
  5 12  1  0  0  0  0
  6  2  2  0  0  0  0
  7  3  1  0  0  0  0
  8  3  2  0  0  0  0
  9  7  1  0  0  0  0
 10  5  1  0  0  0  0
 11  5  1  0  0  0  0
 12 26  1  0  0  0  0
 13  4  1  0  0  0  0
 14  4  1  0  0  0  0
 15  4  1  0  0  0  0
 16 13  1  0  0  0  0
 17 15  1  0  0  0  0
 18 14  1  0  0  0  0
 19  9  1  0  0  0  0
 20  9  2  0  0  0  0
 21 10  1  0  0  0  0
 22 11  1  0  0  0  0
 23 10  2  0  0  0  0
 24 11  2  0  0  0  0
 25 27  1  0  0  0  0
 26 28  2  0  0  0  0
 27 19  2  0  0  0  0
 28 19  1  0  0  0  0
 29 18  1  0  0  0  0
 30 17  1  0  0  0  0
 31 17  1  0  0  0  0
  8  6  1  0  0  0  0
 16 31  1  0  0  0  0
 30 18  1  0  0  0  0
 16 29  1  0  0  0  0
 12 25  2  0  0  0  0
 22 21  1  0  0  0  0
M  END
>  <IDNUMBER>
F0326-0135

>  <Chemical_Name>
N-[5-(adamantan-1-yl)-1,3,4-thiadiazol-2-yl]-4-(2,5-dioxopyrrolidin-1-yl)benzamide

>  <PriceCoeff>
1.00

>  <CAS>
330190-54-0

>  <MW>
436.53

>  <Description>
solid

>  <FSP3>
0.52

>  <clogP>
3.60

>  <TPSA>
120.50

>  <Acceptor>
5

>  <Donor>
1

>  <RotBonds>
4

>  <HAC>
31

>  <Collection>
General

>  <PPDS>
+

$$$$
F0326-0268
  Mrv2219 10102508112D          

 28 31  0  0  0  0            999 V2000
   -1.5405   -1.2851    0.0000 S   0  0  0  0  0  0  0  0  0  0  0  0
   -0.8694   -0.7932    0.0000 C   0  0  0  0  0  0  0  0  0  0  0  0
    3.6873   -0.9495    0.0000 N   0  0  0  0  0  0  0  0  0  0  0  0
   -2.2154   -0.8046    0.0000 C   0  0  0  0  0  0  0  0  0  0  0  0
   -1.9790   -0.0267    0.0000 N   0  0  0  0  0  0  0  0  0  0  0  0
   -0.0877   -0.9495    0.0000 N   0  0  0  0  0  0  0  0  0  0  0  0
   -1.1744   -0.0267    0.0000 N   0  0  0  0  0  0  0  0  0  0  0  0
    0.4575   -0.3203    0.0000 C   0  0  0  0  0  0  0  0  0  0  0  0
    4.0305   -1.6930    0.0000 C   0  0  0  0  0  0  0  0  0  0  0  0
    4.2707   -0.3813    0.0000 C   0  0  0  0  0  0  0  0  0  0  0  0
   -2.9932   -1.0410    0.0000 C   0  0  0  0  0  0  0  0  0  0  0  0
    2.8827   -0.8046    0.0000 C   0  0  0  0  0  0  0  0  0  0  0  0
    1.2622   -0.4728    0.0000 C   0  0  0  0  0  0  0  0  0  0  0  0
    0.1830    0.4766    0.0000 O   0  0  0  0  0  0  0  0  0  0  0  0
    4.9913   -0.7665    0.0000 C   0  0  0  0  0  0  0  0  0  0  0  0
    4.8502   -1.5901    0.0000 C   0  0  0  0  0  0  0  0  0  0  0  0
    4.1220    0.4308    0.0000 O   0  0  0  0  0  0  0  0  0  0  0  0
    3.6186   -2.4137    0.0000 O   0  0  0  0  0  0  0  0  0  0  0  0
   -3.5995   -0.4843    0.0000 C   0  0  0  0  0  0  0  0  0  0  0  0
    2.6120   -0.0267    0.0000 C   0  0  0  0  0  0  0  0  0  0  0  0
    2.3337   -1.4223    0.0000 C   0  0  0  0  0  0  0  0  0  0  0  0
    1.8112    0.1487    0.0000 C   0  0  0  0  0  0  0  0  0  0  0  0
    1.5138   -1.2622    0.0000 C   0  0  0  0  0  0  0  0  0  0  0  0
   -4.3927   -0.7321    0.0000 C   0  0  0  0  0  0  0  0  0  0  0  0
   -3.1763   -1.8455    0.0000 C   0  0  0  0  0  0  0  0  0  0  0  0
   -3.9656   -2.0857    0.0000 C   0  0  0  0  0  0  0  0  0  0  0  0
   -4.5719   -1.5138    0.0000 C   0  0  0  0  0  0  0  0  0  0  0  0
   -5.0065   -0.1983    0.0000 C   0  0  0  0  0  0  0  0  0  0  0  0
  2  1  1  0  0  0  0
  3 12  1  0  0  0  0
  4  1  1  0  0  0  0
  5  4  2  0  0  0  0
  6  2  1  0  0  0  0
  7  2  2  0  0  0  0
  8  6  1  0  0  0  0
  9  3  1  0  0  0  0
 10  3  1  0  0  0  0
 11  4  1  0  0  0  0
 12 21  2  0  0  0  0
 13  8  1  0  0  0  0
 14  8  2  0  0  0  0
 15 10  1  0  0  0  0
 16  9  1  0  0  0  0
 17 10  2  0  0  0  0
 18  9  2  0  0  0  0
 19 11  2  0  0  0  0
 20 22  2  0  0  0  0
 21 23  1  0  0  0  0
 22 13  1  0  0  0  0
 23 13  2  0  0  0  0
 24 19  1  0  0  0  0
 25 11  1  0  0  0  0
 26 25  2  0  0  0  0
 27 26  1  0  0  0  0
 28 24  1  0  0  0  0
  7  5  1  0  0  0  0
 24 27  2  0  0  0  0
 12 20  1  0  0  0  0
 16 15  1  0  0  0  0
M  END
>  <IDNUMBER>
F0326-0268

>  <Chemical_Name>
4-(2,5-dioxopyrrolidin-1-yl)-N-[5-(3-methylphenyl)-1,3,4-thiadiazol-2-yl]benzamide

>  <PriceCoeff>
1.00

>  <CAS>
392241-50-8

>  <MW>
392.43

>  <Description>
solid

>  <FSP3>
0.15

>  <clogP>
1.91

>  <TPSA>
120.50

>  <Acceptor>
5

>  <Donor>
1

>  <RotBonds>
4

>  <HAC>
28

>  <Collection>
General

>  <PPDS>
+

$$$$
F0326-0401
  Mrv2219 10102508112D          

 28 31  0  0  0  0            999 V2000
    0.1186   -1.4225    0.0000 S   0  0  0  0  0  0  0  0  0  0  0  0
    0.7839   -0.9216    0.0000 C   0  0  0  0  0  0  0  0  0  0  0  0
    5.3572   -1.0822    0.0000 N   0  0  0  0  0  0  0  0  0  0  0  0
   -0.5621   -0.9330    0.0000 C   0  0  0  0  0  0  0  0  0  0  0  0
   -0.3212   -0.1645    0.0000 N   0  0  0  0  0  0  0  0  0  0  0  0
    1.5754   -1.0822    0.0000 N   0  0  0  0  0  0  0  0  0  0  0  0
    0.4857   -0.1645    0.0000 N   0  0  0  0  0  0  0  0  0  0  0  0
    2.1146   -0.4474    0.0000 C   0  0  0  0  0  0  0  0  0  0  0  0
    5.9461   -0.5086    0.0000 C   0  0  0  0  0  0  0  0  0  0  0  0
    5.7052   -1.8240    0.0000 C   0  0  0  0  0  0  0  0  0  0  0  0
    4.5465   -0.9330    0.0000 C   0  0  0  0  0  0  0  0  0  0  0  0
   -1.3422   -1.1739    0.0000 C   0  0  0  0  0  0  0  0  0  0  0  0
    2.9252   -0.6004    0.0000 C   0  0  0  0  0  0  0  0  0  0  0  0
    1.8393    0.3518    0.0000 O   0  0  0  0  0  0  0  0  0  0  0  0
    6.5196   -1.7246    0.0000 C   0  0  0  0  0  0  0  0  0  0  0  0
    6.6688   -0.8986    0.0000 C   0  0  0  0  0  0  0  0  0  0  0  0
    5.2922   -2.5505    0.0000 O   0  0  0  0  0  0  0  0  0  0  0  0
    5.7969    0.3059    0.0000 O   0  0  0  0  0  0  0  0  0  0  0  0
    4.2827   -0.1530    0.0000 C   0  0  0  0  0  0  0  0  0  0  0  0
    3.9959   -1.5601    0.0000 C   0  0  0  0  0  0  0  0  0  0  0  0
    3.4758    0.0191    0.0000 C   0  0  0  0  0  0  0  0  0  0  0  0
    3.1814   -1.3919    0.0000 C   0  0  0  0  0  0  0  0  0  0  0  0
   -1.9463   -0.6118    0.0000 C   0  0  0  0  0  0  0  0  0  0  0  0
   -1.5257   -1.9769    0.0000 C   0  0  0  0  0  0  0  0  0  0  0  0
   -2.9214   -1.6519    0.0000 C   0  0  0  0  0  0  0  0  0  0  0  0
   -2.3134   -2.2178    0.0000 C   0  0  0  0  0  0  0  0  0  0  0  0
   -2.7493   -0.8604    0.0000 C   0  0  0  0  0  0  0  0  0  0  0  0
   -3.7014   -1.8698    0.0000 Cl  0  0  0  0  0  0  0  0  0  0  0  0
  2  1  1  0  0  0  0
  3 11  1  0  0  0  0
  4  1  1  0  0  0  0
  5  4  2  0  0  0  0
  6  2  1  0  0  0  0
  7  2  2  0  0  0  0
  8  6  1  0  0  0  0
  9  3  1  0  0  0  0
 10  3  1  0  0  0  0
 11 20  2  0  0  0  0
 12  4  1  0  0  0  0
 13  8  1  0  0  0  0
 14  8  2  0  0  0  0
 15 10  1  0  0  0  0
 16  9  1  0  0  0  0
 17 10  2  0  0  0  0
 18  9  2  0  0  0  0
 19 21  2  0  0  0  0
 20 22  1  0  0  0  0
 21 13  1  0  0  0  0
 22 13  2  0  0  0  0
 23 12  2  0  0  0  0
 24 12  1  0  0  0  0
 25 26  1  0  0  0  0
 26 24  2  0  0  0  0
 27 23  1  0  0  0  0
 28 25  1  0  0  0  0
  5  7  1  0  0  0  0
 27 25  2  0  0  0  0
 11 19  1  0  0  0  0
 15 16  1  0  0  0  0
M  END
>  <IDNUMBER>
F0326-0401

>  <Chemical_Name>
N-[5-(4-chlorophenyl)-1,3,4-thiadiazol-2-yl]-4-(2,5-dioxopyrrolidin-1-yl)benzamide

>  <PriceCoeff>
1.00

>  <CAS>
392242-23-8

>  <MW>
412.85

>  <Description>
solid

>  <FSP3>
0.11

>  <clogP>
2.12

>  <TPSA>
120.50

>  <Acceptor>
5

>  <Donor>
1

>  <RotBonds>
4

>  <HAC>
28

>  <Collection>
General

>  <PPDS>
+

$$$$
F0326-0620
  Mrv2219 10102508112D          

 23 25  0  0  0  0            999 V2000
   -2.3026   -0.2436    0.0000 C   0  0  0  0  0  0  0  0  0  0  0  0
    2.2417   -0.3997    0.0000 N   0  0  0  0  0  0  0  0  0  0  0  0
   -2.9687   -0.7345    0.0000 S   0  0  0  0  0  0  0  0  0  0  0  0
   -1.5186   -0.3997    0.0000 N   0  0  0  0  0  0  0  0  0  0  0  0
   -2.6033    0.5138    0.0000 N   0  0  0  0  0  0  0  0  0  0  0  0
   -3.4101    0.5138    0.0000 N   0  0  0  0  0  0  0  0  0  0  0  0
   -0.9781    0.2284    0.0000 C   0  0  0  0  0  0  0  0  0  0  0  0
    2.5919   -1.1418    0.0000 C   0  0  0  0  0  0  0  0  0  0  0  0
    2.8317    0.1674    0.0000 C   0  0  0  0  0  0  0  0  0  0  0  0
   -3.6499   -0.2550    0.0000 C   0  0  0  0  0  0  0  0  0  0  0  0
    1.4425   -0.2550    0.0000 C   0  0  0  0  0  0  0  0  0  0  0  0
   -0.1789    0.0761    0.0000 C   0  0  0  0  0  0  0  0  0  0  0  0
   -1.2521    1.0238    0.0000 O   0  0  0  0  0  0  0  0  0  0  0  0
    3.4063   -1.0390    0.0000 C   0  0  0  0  0  0  0  0  0  0  0  0
    3.5509   -0.2170    0.0000 C   0  0  0  0  0  0  0  0  0  0  0  0
    2.1732   -1.8612    0.0000 O   0  0  0  0  0  0  0  0  0  0  0  0
    2.6832    0.9781    0.0000 O   0  0  0  0  0  0  0  0  0  0  0  0
    0.8944   -0.8716    0.0000 C   0  0  0  0  0  0  0  0  0  0  0  0
    1.1760    0.5214    0.0000 C   0  0  0  0  0  0  0  0  0  0  0  0
    0.0799   -0.7117    0.0000 C   0  0  0  0  0  0  0  0  0  0  0  0
    0.3692    0.6964    0.0000 C   0  0  0  0  0  0  0  0  0  0  0  0
   -4.4605   -0.5024    0.0000 C   0  0  0  0  0  0  0  0  0  0  0  0
   -5.0429    0.0418    0.0000 C   0  0  0  0  0  0  0  0  0  0  0  0
  2 11  1  0  0  0  0
  3  1  1  0  0  0  0
  4  1  1  0  0  0  0
  5  1  2  0  0  0  0
  6  5  1  0  0  0  0
  7  4  1  0  0  0  0
  8  2  1  0  0  0  0
  9  2  1  0  0  0  0
 10  3  1  0  0  0  0
 11 19  1  0  0  0  0
 12  7  1  0  0  0  0
 13  7  2  0  0  0  0
 14  8  1  0  0  0  0
 15  9  1  0  0  0  0
 16  8  2  0  0  0  0
 17  9  2  0  0  0  0
 18 20  1  0  0  0  0
 19 21  2  0  0  0  0
 20 12  2  0  0  0  0
 21 12  1  0  0  0  0
 22 10  1  0  0  0  0
 23 22  1  0  0  0  0
  6 10  2  0  0  0  0
 18 11  2  0  0  0  0
 14 15  1  0  0  0  0
M  END
>  <IDNUMBER>
F0326-0620

>  <Chemical_Name>
4-(2,5-dioxopyrrolidin-1-yl)-N-(5-ethyl-1,3,4-thiadiazol-2-yl)benzamide

>  <PriceCoeff>
1.50

>  <CAS>
392243-15-1

>  <MW>
330.36

>  <Description>
solid

>  <FSP3>
0.27

>  <clogP>
0.34

>  <TPSA>
120.50

>  <Acceptor>
5

>  <Donor>
1

>  <RotBonds>
4

>  <HAC>
23

>  <Collection>
Advanced

>  <PPDS>
+

$$$$
F0326-0654
  Mrv2219 10102508112D          

 24 26  0  0  0  0            999 V2000
   -2.9687   -0.7345    0.0000 S   0  0  0  0  0  0  0  0  0  0  0  0
   -2.3026   -0.2436    0.0000 C   0  0  0  0  0  0  0  0  0  0  0  0
    2.2417   -0.3997    0.0000 N   0  0  0  0  0  0  0  0  0  0  0  0
   -3.4101    0.5138    0.0000 N   0  0  0  0  0  0  0  0  0  0  0  0
   -3.6499   -0.2550    0.0000 C   0  0  0  0  0  0  0  0  0  0  0  0
   -1.5186   -0.3997    0.0000 N   0  0  0  0  0  0  0  0  0  0  0  0
   -2.6033    0.5138    0.0000 N   0  0  0  0  0  0  0  0  0  0  0  0
   -0.9781    0.2284    0.0000 C   0  0  0  0  0  0  0  0  0  0  0  0
    2.8317    0.1674    0.0000 C   0  0  0  0  0  0  0  0  0  0  0  0
    2.5919   -1.1418    0.0000 C   0  0  0  0  0  0  0  0  0  0  0  0
    1.4425   -0.2550    0.0000 C   0  0  0  0  0  0  0  0  0  0  0  0
   -0.1789    0.0761    0.0000 C   0  0  0  0  0  0  0  0  0  0  0  0
   -1.2521    1.0238    0.0000 O   0  0  0  0  0  0  0  0  0  0  0  0
    3.4063   -1.0390    0.0000 C   0  0  0  0  0  0  0  0  0  0  0  0
    3.5509   -0.2170    0.0000 C   0  0  0  0  0  0  0  0  0  0  0  0
    2.1732   -1.8612    0.0000 O   0  0  0  0  0  0  0  0  0  0  0  0
    2.6832    0.9781    0.0000 O   0  0  0  0  0  0  0  0  0  0  0  0
    0.8944   -0.8716    0.0000 C   0  0  0  0  0  0  0  0  0  0  0  0
    1.1760    0.5214    0.0000 C   0  0  0  0  0  0  0  0  0  0  0  0
    0.0799   -0.7117    0.0000 C   0  0  0  0  0  0  0  0  0  0  0  0
    0.3692    0.6964    0.0000 C   0  0  0  0  0  0  0  0  0  0  0  0
   -4.4263   -0.4910    0.0000 C   0  0  0  0  0  0  0  0  0  0  0  0
   -5.0429    0.0571    0.0000 C   0  0  0  0  0  0  0  0  0  0  0  0
   -4.5975   -1.2826    0.0000 C   0  0  0  0  0  0  0  0  0  0  0  0
  2  1  1  0  0  0  0
  3 11  1  0  0  0  0
  4  5  2  0  0  0  0
  5  1  1  0  0  0  0
  6  2  1  0  0  0  0
  7  2  2  0  0  0  0
  8  6  1  0  0  0  0
  9  3  1  0  0  0  0
 10  3  1  0  0  0  0
 11 19  1  0  0  0  0
 12  8  1  0  0  0  0
 13  8  2  0  0  0  0
 14 10  1  0  0  0  0
 15  9  1  0  0  0  0
 16 10  2  0  0  0  0
 17  9  2  0  0  0  0
 18 20  1  0  0  0  0
 19 21  2  0  0  0  0
 20 12  2  0  0  0  0
 21 12  1  0  0  0  0
 22  5  1  0  0  0  0
 23 22  1  0  0  0  0
 24 22  1  0  0  0  0
  7  4  1  0  0  0  0
 18 11  2  0  0  0  0
 14 15  1  0  0  0  0
M  END
>  <IDNUMBER>
F0326-0654

>  <Chemical_Name>
4-(2,5-dioxopyrrolidin-1-yl)-N-[5-(propan-2-yl)-1,3,4-thiadiazol-2-yl]benzamide

>  <PriceCoeff>
1.00

>  <CAS>
392243-28-6

>  <MW>
344.39

>  <Description>
solid

>  <FSP3>
0.31

>  <clogP>
0.74

>  <TPSA>
120.50

>  <Acceptor>
5

>  <Donor>
1

>  <RotBonds>
4

>  <HAC>
24

>  <Collection>
General

>  <PPDS>
+

$$$$
F0326-0655
  Mrv2219 10102508112D          

 27 30  0  0  0  0            999 V2000
   -2.9740   -0.7359    0.0000 S   0  0  0  0  0  0  0  0  0  0  0  0
   -2.3067   -0.2441    0.0000 C   0  0  0  0  0  0  0  0  0  0  0  0
    2.2458   -0.4003    0.0000 N   0  0  0  0  0  0  0  0  0  0  0  0
   -3.6565   -0.2555    0.0000 C   0  0  0  0  0  0  0  0  0  0  0  0
   -3.4163    0.5147    0.0000 N   0  0  0  0  0  0  0  0  0  0  0  0
   -1.5213   -0.4003    0.0000 N   0  0  0  0  0  0  0  0  0  0  0  0
   -2.6080    0.5147    0.0000 N   0  0  0  0  0  0  0  0  0  0  0  0
   -0.9799    0.2288    0.0000 C   0  0  0  0  0  0  0  0  0  0  0  0
    2.8367    0.1677    0.0000 C   0  0  0  0  0  0  0  0  0  0  0  0
    2.5965   -1.1438    0.0000 C   0  0  0  0  0  0  0  0  0  0  0  0
    1.4451   -0.2555    0.0000 C   0  0  0  0  0  0  0  0  0  0  0  0
   -0.1792    0.0762    0.0000 C   0  0  0  0  0  0  0  0  0  0  0  0
   -4.4343   -0.4919    0.0000 C   0  0  0  0  0  0  0  0  0  0  0  0
   -1.2544    1.0256    0.0000 O   0  0  0  0  0  0  0  0  0  0  0  0
    3.5574   -0.2173    0.0000 C   0  0  0  0  0  0  0  0  0  0  0  0
    3.4125   -1.0409    0.0000 C   0  0  0  0  0  0  0  0  0  0  0  0
    2.6880    0.9799    0.0000 O   0  0  0  0  0  0  0  0  0  0  0  0
    2.1772   -1.8645    0.0000 O   0  0  0  0  0  0  0  0  0  0  0  0
    1.1782    0.5223    0.0000 C   0  0  0  0  0  0  0  0  0  0  0  0
    0.8960   -0.8732    0.0000 C   0  0  0  0  0  0  0  0  0  0  0  0
    0.3699    0.6977    0.0000 C   0  0  0  0  0  0  0  0  0  0  0  0
    0.0801   -0.7130    0.0000 C   0  0  0  0  0  0  0  0  0  0  0  0
   -5.0329    0.0648    0.0000 C   0  0  0  0  0  0  0  0  0  0  0  0
   -4.6173   -1.2964    0.0000 C   0  0  0  0  0  0  0  0  0  0  0  0
   -5.4066   -1.5366    0.0000 C   0  0  0  0  0  0  0  0  0  0  0  0
   -5.8260   -0.1830    0.0000 C   0  0  0  0  0  0  0  0  0  0  0  0
   -5.9976   -0.9647    0.0000 C   0  0  0  0  0  0  0  0  0  0  0  0
  2  1  1  0  0  0  0
  3 11  1  0  0  0  0
  4  1  1  0  0  0  0
  5  4  2  0  0  0  0
  6  2  1  0  0  0  0
  7  2  2  0  0  0  0
  8  6  1  0  0  0  0
  9  3  1  0  0  0  0
 10  3  1  0  0  0  0
 11 20  2  0  0  0  0
 12  8  1  0  0  0  0
 13  4  1  0  0  0  0
 14  8  2  0  0  0  0
 15  9  1  0  0  0  0
 16 10  1  0  0  0  0
 17  9  2  0  0  0  0
 18 10  2  0  0  0  0
 19 21  2  0  0  0  0
 20 22  1  0  0  0  0
 21 12  1  0  0  0  0
 22 12  2  0  0  0  0
 23 13  2  0  0  0  0
 24 13  1  0  0  0  0
 25 24  2  0  0  0  0
 26 23  1  0  0  0  0
 27 25  1  0  0  0  0
  7  5  1  0  0  0  0
 26 27  2  0  0  0  0
 11 19  1  0  0  0  0
 15 16  1  0  0  0  0
M  END
>  <IDNUMBER>
F0326-0655

>  <Chemical_Name>
4-(2,5-dioxopyrrolidin-1-yl)-N-(5-phenyl-1,3,4-thiadiazol-2-yl)benzamide

>  <PriceCoeff>
1.00

>  <CAS>
392243-29-7

>  <MW>
378.40

>  <Description>
solid

>  <FSP3>
0.11

>  <clogP>
1.41

>  <TPSA>
120.50

>  <Acceptor>
5

>  <Donor>
1

>  <RotBonds>
4

>  <HAC>
27

>  <Collection>
General

>  <PPDS>
+

$$$$
F0326-0686
  Mrv2219 10102508112D          

 28 31  0  0  0  0            999 V2000
   -2.9832   -0.7382    0.0000 S   0  0  0  0  0  0  0  0  0  0  0  0
   -2.3139   -0.2448    0.0000 C   0  0  0  0  0  0  0  0  0  0  0  0
   -3.6678   -0.2563    0.0000 C   0  0  0  0  0  0  0  0  0  0  0  0
    2.2527   -0.4016    0.0000 N   0  0  0  0  0  0  0  0  0  0  0  0
   -3.4268    0.5163    0.0000 N   0  0  0  0  0  0  0  0  0  0  0  0
   -1.5260   -0.4016    0.0000 N   0  0  0  0  0  0  0  0  0  0  0  0
   -2.6160    0.5163    0.0000 N   0  0  0  0  0  0  0  0  0  0  0  0
   -0.9829    0.2295    0.0000 C   0  0  0  0  0  0  0  0  0  0  0  0
    2.8455    0.1683    0.0000 C   0  0  0  0  0  0  0  0  0  0  0  0
    2.6046   -1.1474    0.0000 C   0  0  0  0  0  0  0  0  0  0  0  0
   -4.4480   -0.4934    0.0000 C   0  0  0  0  0  0  0  0  0  0  0  0
    1.4496   -0.2563    0.0000 C   0  0  0  0  0  0  0  0  0  0  0  0
   -0.1797    0.0765    0.0000 C   0  0  0  0  0  0  0  0  0  0  0  0
   -1.2583    1.0288    0.0000 O   0  0  0  0  0  0  0  0  0  0  0  0
    3.5684   -0.2180    0.0000 C   0  0  0  0  0  0  0  0  0  0  0  0
    3.4231   -1.0441    0.0000 C   0  0  0  0  0  0  0  0  0  0  0  0
    2.6964    0.9829    0.0000 O   0  0  0  0  0  0  0  0  0  0  0  0
    2.1839   -1.8702    0.0000 O   0  0  0  0  0  0  0  0  0  0  0  0
   -5.0485    0.0650    0.0000 C   0  0  0  0  0  0  0  0  0  0  0  0
    0.8988   -0.8759    0.0000 C   0  0  0  0  0  0  0  0  0  0  0  0
    1.1818    0.5239    0.0000 C   0  0  0  0  0  0  0  0  0  0  0  0
    0.0803   -0.7152    0.0000 C   0  0  0  0  0  0  0  0  0  0  0  0
    0.3710    0.6999    0.0000 C   0  0  0  0  0  0  0  0  0  0  0  0
   -4.6316   -1.3004    0.0000 C   0  0  0  0  0  0  0  0  0  0  0  0
   -4.8649    0.8682    0.0000 C   0  0  0  0  0  0  0  0  0  0  0  0
   -5.8440   -0.1836    0.0000 C   0  0  0  0  0  0  0  0  0  0  0  0
   -5.4233   -1.5414    0.0000 C   0  0  0  0  0  0  0  0  0  0  0  0
   -6.0161   -0.9677    0.0000 C   0  0  0  0  0  0  0  0  0  0  0  0
  2  1  1  0  0  0  0
  3  1  1  0  0  0  0
  4 12  1  0  0  0  0
  5  3  2  0  0  0  0
  6  2  1  0  0  0  0
  7  2  2  0  0  0  0
  8  6  1  0  0  0  0
  9  4  1  0  0  0  0
 10  4  1  0  0  0  0
 11  3  1  0  0  0  0
 12 21  1  0  0  0  0
 13  8  1  0  0  0  0
 14  8  2  0  0  0  0
 15  9  1  0  0  0  0
 16 10  1  0  0  0  0
 17  9  2  0  0  0  0
 18 10  2  0  0  0  0
 19 11  2  0  0  0  0
 20 22  1  0  0  0  0
 21 23  2  0  0  0  0
 22 13  2  0  0  0  0
 23 13  1  0  0  0  0
 24 11  1  0  0  0  0
 25 19  1  0  0  0  0
 26 19  1  0  0  0  0
 27 24  2  0  0  0  0
 28 27  1  0  0  0  0
  5  7  1  0  0  0  0
 28 26  2  0  0  0  0
 12 20  2  0  0  0  0
 16 15  1  0  0  0  0
M  END
>  <IDNUMBER>
F0326-0686

>  <Chemical_Name>
4-(2,5-dioxopyrrolidin-1-yl)-N-[5-(2-methylphenyl)-1,3,4-thiadiazol-2-yl]benzamide

>  <PriceCoeff>
1.00

>  <CAS>
392243-49-1

>  <MW>
392.43

>  <Description>
solid

>  <FSP3>
0.15

>  <clogP>
1.61

>  <TPSA>
120.50

>  <Acceptor>
5

>  <Donor>
1

>  <RotBonds>
4

>  <HAC>
28

>  <Collection>
General

>  <PPDS>
+

$$$$
F0326-1033
  Mrv2219 10102508112D          

 25 27  0  0  0  0            999 V2000
   -1.0308   -0.2160    0.0000 C   0  0  0  0  0  0  0  0  0  0  0  0
   -0.3600   -0.6974    0.0000 S   0  0  0  0  0  0  0  0  0  0  0  0
    0.3070   -0.2085    0.0000 C   0  0  0  0  0  0  0  0  0  0  0  0
    4.3813    1.1825    0.0000 N   0  3  0  0  0  0  0  0  0  0  0  0
    3.8355    0.5761    0.0000 C   0  0  0  0  0  0  0  0  0  0  0  0
   -0.7921    0.5458    0.0000 N   0  0  0  0  0  0  0  0  0  0  0  0
    1.0915   -0.3638    0.0000 N   0  0  0  0  0  0  0  0  0  0  0  0
    0.0038    0.5458    0.0000 N   0  0  0  0  0  0  0  0  0  0  0  0
   -1.8154   -0.4548    0.0000 C   0  0  0  0  0  0  0  0  0  0  0  0
    1.6259    0.2690    0.0000 C   0  0  0  0  0  0  0  0  0  0  0  0
    3.0017    0.7239    0.0000 C   0  0  0  0  0  0  0  0  0  0  0  0
    2.4598    0.0910    0.0000 C   0  0  0  0  0  0  0  0  0  0  0  0
    4.1083   -0.1971    0.0000 C   0  0  0  0  0  0  0  0  0  0  0  0
    5.2113    1.0877    0.0000 O   0  5  0  0  0  0  0  0  0  0  0  0
    4.1879    1.9859    0.0000 O   0  0  0  0  0  0  0  0  0  0  0  0
   -2.4218    0.1099    0.0000 C   0  0  0  0  0  0  0  0  0  0  0  0
    1.3530    1.0574    0.0000 O   0  0  0  0  0  0  0  0  0  0  0  0
    2.7440   -0.6822    0.0000 C   0  0  0  0  0  0  0  0  0  0  0  0
    3.5740   -0.8187    0.0000 C   0  0  0  0  0  0  0  0  0  0  0  0
    4.9156   -0.3524    0.0000 Cl  0  0  0  0  0  0  0  0  0  0  0  0
   -2.2588    0.9096    0.0000 Cl  0  0  0  0  0  0  0  0  0  0  0  0
   -1.9859   -1.2620    0.0000 C   0  0  0  0  0  0  0  0  0  0  0  0
   -3.2025   -0.1364    0.0000 C   0  0  0  0  0  0  0  0  0  0  0  0
   -2.7856   -1.5047    0.0000 C   0  0  0  0  0  0  0  0  0  0  0  0
   -3.3958   -0.9362    0.0000 C   0  0  0  0  0  0  0  0  0  0  0  0
  2  1  1  0  0  0  0
  3  2  1  0  0  0  0
  4  5  1  0  0  0  0
  5 11  1  0  0  0  0
  6  1  2  0  0  0  0
  7  3  1  0  0  0  0
  8  6  1  0  0  0  0
  9  1  1  0  0  0  0
 10  7  1  0  0  0  0
 11 12  2  0  0  0  0
 12 10  1  0  0  0  0
 13 19  1  0  0  0  0
 14  4  1  0  0  0  0
 15  4  2  0  0  0  0
 16  9  2  0  0  0  0
 17 10  2  0  0  0  0
 18 12  1  0  0  0  0
 19 18  2  0  0  0  0
 20 13  1  0  0  0  0
 21 16  1  0  0  0  0
 22  9  1  0  0  0  0
 23 16  1  0  0  0  0
 24 22  2  0  0  0  0
 25 24  1  0  0  0  0
  3  8  2  0  0  0  0
 25 23  2  0  0  0  0
  5 13  2  0  0  0  0
M  CHG  2   4   1  14  -1
M  END
>  <IDNUMBER>
F0326-1033

>  <Chemical_Name>
4-chloro-N-[5-(2-chlorophenyl)-1,3,4-thiadiazol-2-yl]-3-nitrobenzamide

>  <PriceCoeff>
1.00

>  <CAS>
392244-20-1

>  <MW>
395.22

>  <Description>
solid

>  <FSP3>
0.00

>  <clogP>
4.08

>  <TPSA>
126.26

>  <Acceptor>
5

>  <Donor>
1

>  <RotBonds>
4

>  <HAC>
25

>  <Collection>
General

>  <PPDS>
+

$$$$
F0326-1085
  Mrv2219 10102508112D          

 19 20  0  0  0  0            999 V2000
   -2.8968    1.3037    0.0000 C   0  0  0  0  0  0  0  0  0  0  0  0
    0.8010   -0.8722    0.0000 N   0  3  0  0  0  0  0  0  0  0  0  0
   -0.0489   -0.8588    0.0000 C   0  0  0  0  0  0  0  0  0  0  0  0
   -3.6978    1.5173    0.0000 S   0  0  0  0  0  0  0  0  0  0  0  0
   -2.5052    0.5874    0.0000 N   0  0  0  0  0  0  0  0  0  0  0  0
   -2.4785    2.0291    0.0000 N   0  0  0  0  0  0  0  0  0  0  0  0
   -3.0036    2.6520    0.0000 N   0  0  0  0  0  0  0  0  0  0  0  0
   -1.6909    0.5874    0.0000 C   0  0  0  0  0  0  0  0  0  0  0  0
   -0.4627   -0.1380    0.0000 C   0  0  0  0  0  0  0  0  0  0  0  0
   -3.7378    2.3183    0.0000 C   0  0  0  0  0  0  0  0  0  0  0  0
   -1.2770   -0.1246    0.0000 C   0  0  0  0  0  0  0  0  0  0  0  0
   -0.4761   -1.5530    0.0000 C   0  0  0  0  0  0  0  0  0  0  0  0
    1.1926   -1.5886    0.0000 O   0  5  0  0  0  0  0  0  0  0  0  0
    1.2281   -0.1602    0.0000 O   0  0  0  0  0  0  0  0  0  0  0  0
   -1.2504    1.3037    0.0000 O   0  0  0  0  0  0  0  0  0  0  0  0
   -1.6909   -0.8544    0.0000 C   0  0  0  0  0  0  0  0  0  0  0  0
   -1.3037   -1.5352    0.0000 C   0  0  0  0  0  0  0  0  0  0  0  0
   -0.0890   -2.2961    0.0000 Cl  0  0  0  0  0  0  0  0  0  0  0  0
   -4.4453    2.7455    0.0000 C   0  0  0  0  0  0  0  0  0  0  0  0
  2  3  1  0  0  0  0
  3  9  1  0  0  0  0
  4  1  1  0  0  0  0
  5  1  1  0  0  0  0
  6  1  2  0  0  0  0
  7  6  1  0  0  0  0
  8  5  1  0  0  0  0
  9 11  2  0  0  0  0
 10  4  1  0  0  0  0
 11  8  1  0  0  0  0
 12 17  1  0  0  0  0
 13  2  1  0  0  0  0
 14  2  2  0  0  0  0
 15  8  2  0  0  0  0
 16 11  1  0  0  0  0
 17 16  2  0  0  0  0
 18 12  1  0  0  0  0
 19 10  1  0  0  0  0
 10  7  2  0  0  0  0
  3 12  2  0  0  0  0
M  CHG  2   2   1  13  -1
M  END
>  <IDNUMBER>
F0326-1085

>  <Chemical_Name>
4-chloro-N-(5-methyl-1,3,4-thiadiazol-2-yl)-3-nitrobenzamide

>  <PriceCoeff>
1.00

>  <CAS>
312591-31-4

>  <MW>
298.71

>  <Description>
solid

>  <FSP3>
0.10

>  <clogP>
2.02

>  <TPSA>
126.26

>  <Acceptor>
5

>  <Donor>
1

>  <RotBonds>
3

>  <HAC>
19

>  <Collection>
General

>  <PPDS>
+

$$$$
F0326-1109
  Mrv2219 10102508112D          

 21 22  0  0  0  0            999 V2000
   -3.6978    1.5173    0.0000 S   0  0  0  0  0  0  0  0  0  0  0  0
   -2.8968    1.3037    0.0000 C   0  0  0  0  0  0  0  0  0  0  0  0
    0.8010   -0.8722    0.0000 N   0  3  0  0  0  0  0  0  0  0  0  0
   -0.0489   -0.8588    0.0000 C   0  0  0  0  0  0  0  0  0  0  0  0
   -3.0036    2.6520    0.0000 N   0  0  0  0  0  0  0  0  0  0  0  0
   -3.7378    2.3183    0.0000 C   0  0  0  0  0  0  0  0  0  0  0  0
   -2.5052    0.5874    0.0000 N   0  0  0  0  0  0  0  0  0  0  0  0
   -2.4785    2.0291    0.0000 N   0  0  0  0  0  0  0  0  0  0  0  0
   -1.6909    0.5874    0.0000 C   0  0  0  0  0  0  0  0  0  0  0  0
   -0.4627   -0.1380    0.0000 C   0  0  0  0  0  0  0  0  0  0  0  0
   -1.2770   -0.1246    0.0000 C   0  0  0  0  0  0  0  0  0  0  0  0
   -0.4761   -1.5530    0.0000 C   0  0  0  0  0  0  0  0  0  0  0  0
    1.1926   -1.5886    0.0000 O   0  5  0  0  0  0  0  0  0  0  0  0
    1.2281   -0.1602    0.0000 O   0  0  0  0  0  0  0  0  0  0  0  0
   -1.2504    1.3037    0.0000 O   0  0  0  0  0  0  0  0  0  0  0  0
   -1.6909   -0.8544    0.0000 C   0  0  0  0  0  0  0  0  0  0  0  0
   -1.3037   -1.5352    0.0000 C   0  0  0  0  0  0  0  0  0  0  0  0
   -4.4453    2.7455    0.0000 C   0  0  0  0  0  0  0  0  0  0  0  0
   -0.0890   -2.2961    0.0000 Cl  0  0  0  0  0  0  0  0  0  0  0  0
   -4.4542    3.5731    0.0000 C   0  0  0  0  0  0  0  0  0  0  0  0
   -5.1929    2.6699    0.0000 C   0  0  0  0  0  0  0  0  0  0  0  0
  2  1  1  0  0  0  0
  3  4  1  0  0  0  0
  4 10  1  0  0  0  0
  5  6  2  0  0  0  0
  6  1  1  0  0  0  0
  7  2  1  0  0  0  0
  8  2  2  0  0  0  0
  9  7  1  0  0  0  0
 10 11  2  0  0  0  0
 11  9  1  0  0  0  0
 12 17  1  0  0  0  0
 13  3  1  0  0  0  0
 14  3  2  0  0  0  0
 15  9  2  0  0  0  0
 16 11  1  0  0  0  0
 17 16  2  0  0  0  0
 18  6  1  0  0  0  0
 19 12  1  0  0  0  0
 20 18  1  0  0  0  0
 21 18  1  0  0  0  0
  8  5  1  0  0  0  0
  4 12  2  0  0  0  0
M  CHG  2   3   1  13  -1
M  END
>  <IDNUMBER>
F0326-1109

>  <Chemical_Name>
4-chloro-3-nitro-N-[5-(propan-2-yl)-1,3,4-thiadiazol-2-yl]benzamide

>  <PriceCoeff>
1.00

>  <CAS>
339203-04-2

>  <MW>
326.76

>  <Description>
solid

>  <FSP3>
0.25

>  <clogP>
2.94

>  <TPSA>
126.26

>  <Acceptor>
5

>  <Donor>
1

>  <RotBonds>
4

>  <HAC>
21

>  <Collection>
General

>  <PPDS>
+

$$$$
F0326-1133
  Mrv2219 10102508112D          

 25 27  0  0  0  0            999 V2000
   -2.6648    0.9016    0.0000 S   0  0  0  0  0  0  0  0  0  0  0  0
   -1.8654    0.6884    0.0000 C   0  0  0  0  0  0  0  0  0  0  0  0
    1.8165   -1.4923    0.0000 N   0  3  0  0  0  0  0  0  0  0  0  0
    0.9771   -1.4790    0.0000 C   0  0  0  0  0  0  0  0  0  0  0  0
   -2.7136    1.7010    0.0000 C   0  0  0  0  0  0  0  0  0  0  0  0
   -1.9720    2.0253    0.0000 N   0  0  0  0  0  0  0  0  0  0  0  0
   -1.4746   -0.0311    0.0000 N   0  0  0  0  0  0  0  0  0  0  0  0
   -1.4524    1.4079    0.0000 N   0  0  0  0  0  0  0  0  0  0  0  0
   -0.6617   -0.0311    0.0000 C   0  0  0  0  0  0  0  0  0  0  0  0
    0.5640   -0.7506    0.0000 C   0  0  0  0  0  0  0  0  0  0  0  0
   -0.2487   -0.7461    0.0000 C   0  0  0  0  0  0  0  0  0  0  0  0
    0.5507   -2.1719    0.0000 C   0  0  0  0  0  0  0  0  0  0  0  0
   -3.4066    2.1141    0.0000 C   0  0  0  0  0  0  0  0  0  0  0  0
    2.2163   -2.2030    0.0000 O   0  5  0  0  0  0  0  0  0  0  0  0
    2.2430   -0.7773    0.0000 O   0  0  0  0  0  0  0  0  0  0  0  0
   -0.2265    0.6884    0.0000 O   0  0  0  0  0  0  0  0  0  0  0  0
   -0.6617   -1.4702    0.0000 C   0  0  0  0  0  0  0  0  0  0  0  0
   -0.2798   -2.1497    0.0000 C   0  0  0  0  0  0  0  0  0  0  0  0
   -4.1260    1.7276    0.0000 C   0  0  0  0  0  0  0  0  0  0  0  0
   -3.3799    2.9313    0.0000 C   0  0  0  0  0  0  0  0  0  0  0  0
    0.9372   -2.9091    0.0000 Cl  0  0  0  0  0  0  0  0  0  0  0  0
   -4.0727    3.3799    0.0000 C   0  0  0  0  0  0  0  0  0  0  0  0
   -4.8322    2.1541    0.0000 C   0  0  0  0  0  0  0  0  0  0  0  0
   -4.8189    2.9801    0.0000 C   0  0  0  0  0  0  0  0  0  0  0  0
   -5.4496    3.3266    0.0000 C   0  0  0  0  0  0  0  0  0  0  0  0
  2  1  1  0  0  0  0
  3  4  1  0  0  0  0
  4 10  1  0  0  0  0
  5  1  1  0  0  0  0
  6  5  2  0  0  0  0
  7  2  1  0  0  0  0
  8  2  2  0  0  0  0
  9  7  1  0  0  0  0
 10 11  2  0  0  0  0
 11  9  1  0  0  0  0
 12 18  1  0  0  0  0
 13  5  1  0  0  0  0
 14  3  1  0  0  0  0
 15  3  2  0  0  0  0
 16  9  2  0  0  0  0
 17 11  1  0  0  0  0
 18 17  2  0  0  0  0
 19 13  2  0  0  0  0
 20 13  1  0  0  0  0
 21 12  1  0  0  0  0
 22 20  2  0  0  0  0
 23 19  1  0  0  0  0
 24 22  1  0  0  0  0
 25 24  1  0  0  0  0
  8  6  1  0  0  0  0
 24 23  2  0  0  0  0
  4 12  2  0  0  0  0
M  CHG  2   3   1  14  -1
M  END
>  <IDNUMBER>
F0326-1133

>  <Chemical_Name>
4-chloro-N-[5-(4-methylphenyl)-1,3,4-thiadiazol-2-yl]-3-nitrobenzamide

>  <PriceCoeff>
1.00

>  <CAS>
342590-87-8

>  <MW>
374.80

>  <Description>
solid

>  <FSP3>
0.06

>  <clogP>
4.11

>  <TPSA>
126.26

>  <Acceptor>
5

>  <Donor>
1

>  <RotBonds>
4

>  <HAC>
25

>  <Collection>
General

>  <PPDS>
+

$$$$
F0327-0290
  Mrv2219 10102508112D          

 27 30  0  0  0  0            999 V2000
   -1.7910    0.4066    0.0000 C   0  0  0  0  0  0  0  0  0  0  0  0
    2.7374   -0.3089    0.0000 N   0  0  0  0  0  0  0  0  0  0  0  0
   -2.2642   -0.2620    0.0000 N   0  0  0  0  0  0  0  0  0  0  0  0
   -0.9815    0.4066    0.0000 N   0  0  0  0  0  0  0  0  0  0  0  0
   -2.2525    1.0637    0.0000 S   0  0  0  0  0  0  0  0  0  0  0  0
   -0.5631   -0.3089    0.0000 C   0  0  0  0  0  0  0  0  0  0  0  0
    3.2066    0.3128    0.0000 C   0  0  0  0  0  0  0  0  0  0  0  0
    3.1949   -0.9855    0.0000 C   0  0  0  0  0  0  0  0  0  0  0  0
   -3.0463    0.8173    0.0000 C   0  0  0  0  0  0  0  0  0  0  0  0
   -3.0463   -0.0274    0.0000 C   0  0  0  0  0  0  0  0  0  0  0  0
    1.9122   -0.3089    0.0000 C   0  0  0  0  0  0  0  0  0  0  0  0
   -3.7541    1.2318    0.0000 C   0  0  0  0  0  0  0  0  0  0  0  0
    0.2620   -0.3089    0.0000 C   0  0  0  0  0  0  0  0  0  0  0  0
   -0.9815   -1.0207    0.0000 O   0  0  0  0  0  0  0  0  0  0  0  0
    3.9927   -0.7509    0.0000 C   0  0  0  0  0  0  0  0  0  0  0  0
    3.9888    0.0664    0.0000 C   0  0  0  0  0  0  0  0  0  0  0  0
    2.9094   -1.7519    0.0000 O   0  0  0  0  0  0  0  0  0  0  0  0
    2.9368    1.1106    0.0000 O   0  0  0  0  0  0  0  0  0  0  0  0
   -3.7541   -0.4223    0.0000 C   0  0  0  0  0  0  0  0  0  0  0  0
    1.5016    0.4066    0.0000 C   0  0  0  0  0  0  0  0  0  0  0  0
    1.5016   -1.0207    0.0000 C   0  0  0  0  0  0  0  0  0  0  0  0
    0.6726    0.4066    0.0000 C   0  0  0  0  0  0  0  0  0  0  0  0
    0.6726   -1.0207    0.0000 C   0  0  0  0  0  0  0  0  0  0  0  0
   -4.4775    0.8095    0.0000 C   0  0  0  0  0  0  0  0  0  0  0  0
   -4.4775   -0.0274    0.0000 C   0  0  0  0  0  0  0  0  0  0  0  0
   -5.1815    1.2318    0.0000 O   0  0  0  0  0  0  0  0  0  0  0  0
   -5.8932    0.8173    0.0000 C   0  0  0  0  0  0  0  0  0  0  0  0
  2 11  1  0  0  0  0
  3  1  2  0  0  0  0
  4  1  1  0  0  0  0
  5  1  1  0  0  0  0
  6  4  1  0  0  0  0
  7  2  1  0  0  0  0
  8  2  1  0  0  0  0
  9  5  1  0  0  0  0
 10  3  1  0  0  0  0
 11 21  2  0  0  0  0
 12  9  1  0  0  0  0
 13  6  1  0  0  0  0
 14  6  2  0  0  0  0
 15  8  1  0  0  0  0
 16  7  1  0  0  0  0
 17  8  2  0  0  0  0
 18  7  2  0  0  0  0
 19 10  1  0  0  0  0
 20 22  2  0  0  0  0
 21 23  1  0  0  0  0
 22 13  1  0  0  0  0
 23 13  2  0  0  0  0
 24 12  2  0  0  0  0
 25 19  2  0  0  0  0
 26 24  1  0  0  0  0
 27 26  1  0  0  0  0
  9 10  2  0  0  0  0
 25 24  1  0  0  0  0
 11 20  1  0  0  0  0
 15 16  1  0  0  0  0
M  END
>  <IDNUMBER>
F0327-0290

>  <Chemical_Name>
4-(2,5-dioxopyrrolidin-1-yl)-N-(6-methoxy-1,3-benzothiazol-2-yl)benzamide

>  <PriceCoeff>
1.00

>  <CAS>
330191-20-3

>  <MW>
381.41

>  <Description>
solid

>  <FSP3>
0.16

>  <clogP>
1.92

>  <TPSA>
116.84

>  <Acceptor>
5

>  <Donor>
1

>  <RotBonds>
4

>  <HAC>
27

>  <Collection>
General

>  <PPDS>
+

$$$$
F0327-0291
  Mrv2219 10102508112D          

 27 30  0  0  0  0            999 V2000
   -1.7910    0.4066    0.0000 C   0  0  0  0  0  0  0  0  0  0  0  0
    2.7374   -0.3089    0.0000 N   0  0  0  0  0  0  0  0  0  0  0  0
   -2.2642   -0.2620    0.0000 N   0  0  0  0  0  0  0  0  0  0  0  0
   -0.9815    0.4066    0.0000 N   0  0  0  0  0  0  0  0  0  0  0  0
   -3.0463   -0.0274    0.0000 C   0  0  0  0  0  0  0  0  0  0  0  0
   -2.2525    1.0637    0.0000 S   0  0  0  0  0  0  0  0  0  0  0  0
   -0.5631   -0.3089    0.0000 C   0  0  0  0  0  0  0  0  0  0  0  0
    3.1949   -0.9855    0.0000 C   0  0  0  0  0  0  0  0  0  0  0  0
    3.2066    0.3128    0.0000 C   0  0  0  0  0  0  0  0  0  0  0  0
   -3.0463    0.8173    0.0000 C   0  0  0  0  0  0  0  0  0  0  0  0
    1.9122   -0.3089    0.0000 C   0  0  0  0  0  0  0  0  0  0  0  0
    0.2620   -0.3089    0.0000 C   0  0  0  0  0  0  0  0  0  0  0  0
   -3.7541   -0.4223    0.0000 C   0  0  0  0  0  0  0  0  0  0  0  0
   -0.9815   -1.0207    0.0000 O   0  0  0  0  0  0  0  0  0  0  0  0
    3.9888    0.0664    0.0000 C   0  0  0  0  0  0  0  0  0  0  0  0
    3.9927   -0.7509    0.0000 C   0  0  0  0  0  0  0  0  0  0  0  0
    2.9368    1.1106    0.0000 O   0  0  0  0  0  0  0  0  0  0  0  0
    2.9094   -1.7519    0.0000 O   0  0  0  0  0  0  0  0  0  0  0  0
    1.5016    0.4066    0.0000 C   0  0  0  0  0  0  0  0  0  0  0  0
    1.5016   -1.0207    0.0000 C   0  0  0  0  0  0  0  0  0  0  0  0
    0.6726    0.4066    0.0000 C   0  0  0  0  0  0  0  0  0  0  0  0
    0.6726   -1.0207    0.0000 C   0  0  0  0  0  0  0  0  0  0  0  0
   -3.7541   -1.2358    0.0000 O   0  0  0  0  0  0  0  0  0  0  0  0
   -3.7541    1.2318    0.0000 C   0  0  0  0  0  0  0  0  0  0  0  0
   -4.4775    0.8095    0.0000 C   0  0  0  0  0  0  0  0  0  0  0  0
   -4.4775   -0.0274    0.0000 C   0  0  0  0  0  0  0  0  0  0  0  0
   -4.4775   -1.6424    0.0000 C   0  0  0  0  0  0  0  0  0  0  0  0
  2 11  1  0  0  0  0
  3  1  2  0  0  0  0
  4  1  1  0  0  0  0
  5  3  1  0  0  0  0
  6  1  1  0  0  0  0
  7  4  1  0  0  0  0
  8  2  1  0  0  0  0
  9  2  1  0  0  0  0
 10  6  1  0  0  0  0
 11 20  2  0  0  0  0
 12  7  1  0  0  0  0
 13  5  1  0  0  0  0
 14  7  2  0  0  0  0
 15  9  1  0  0  0  0
 16  8  1  0  0  0  0
 17  9  2  0  0  0  0
 18  8  2  0  0  0  0
 19 21  2  0  0  0  0
 20 22  1  0  0  0  0
 21 12  1  0  0  0  0
 22 12  2  0  0  0  0
 23 13  1  0  0  0  0
 24 10  1  0  0  0  0
 25 24  2  0  0  0  0
 26 13  2  0  0  0  0
 27 23  1  0  0  0  0
  5 10  2  0  0  0  0
 25 26  1  0  0  0  0
 19 11  1  0  0  0  0
 15 16  1  0  0  0  0
M  END
>  <IDNUMBER>
F0327-0291

>  <Chemical_Name>
4-(2,5-dioxopyrrolidin-1-yl)-N-(4-methoxy-1,3-benzothiazol-2-yl)benzamide

>  <PriceCoeff>
1.00

>  <CAS>
476281-64-8

>  <MW>
381.41

>  <Description>
solid

>  <FSP3>
0.16

>  <clogP>
1.92

>  <TPSA>
116.84

>  <Acceptor>
5

>  <Donor>
1

>  <RotBonds>
4

>  <HAC>
27

>  <Collection>
General

>  <PPDS>
+

$$$$
F0327-0293
  Mrv2219 10102508112D          

 26 29  0  0  0  0            999 V2000
   -1.7910    0.4066    0.0000 C   0  0  0  0  0  0  0  0  0  0  0  0
    2.7374   -0.3089    0.0000 N   0  0  0  0  0  0  0  0  0  0  0  0
   -2.2642   -0.2620    0.0000 N   0  0  0  0  0  0  0  0  0  0  0  0
   -0.9815    0.4066    0.0000 N   0  0  0  0  0  0  0  0  0  0  0  0
   -2.2525    1.0637    0.0000 S   0  0  0  0  0  0  0  0  0  0  0  0
   -0.5631   -0.3089    0.0000 C   0  0  0  0  0  0  0  0  0  0  0  0
    3.1949   -0.9855    0.0000 C   0  0  0  0  0  0  0  0  0  0  0  0
    3.2066    0.3128    0.0000 C   0  0  0  0  0  0  0  0  0  0  0  0
   -3.0463    0.8173    0.0000 C   0  0  0  0  0  0  0  0  0  0  0  0
   -3.0463   -0.0274    0.0000 C   0  0  0  0  0  0  0  0  0  0  0  0
    1.9122   -0.3089    0.0000 C   0  0  0  0  0  0  0  0  0  0  0  0
   -3.7541    1.2318    0.0000 C   0  0  0  0  0  0  0  0  0  0  0  0
    0.2620   -0.3089    0.0000 C   0  0  0  0  0  0  0  0  0  0  0  0
   -0.9815   -1.0207    0.0000 O   0  0  0  0  0  0  0  0  0  0  0  0
    3.9927   -0.7509    0.0000 C   0  0  0  0  0  0  0  0  0  0  0  0
    3.9888    0.0664    0.0000 C   0  0  0  0  0  0  0  0  0  0  0  0
    2.9094   -1.7519    0.0000 O   0  0  0  0  0  0  0  0  0  0  0  0
    2.9368    1.1106    0.0000 O   0  0  0  0  0  0  0  0  0  0  0  0
   -3.7541   -0.4223    0.0000 C   0  0  0  0  0  0  0  0  0  0  0  0
    1.5016   -1.0207    0.0000 C   0  0  0  0  0  0  0  0  0  0  0  0
    1.5016    0.4066    0.0000 C   0  0  0  0  0  0  0  0  0  0  0  0
    0.6726   -1.0207    0.0000 C   0  0  0  0  0  0  0  0  0  0  0  0
    0.6726    0.4066    0.0000 C   0  0  0  0  0  0  0  0  0  0  0  0
   -4.4775    0.8095    0.0000 C   0  0  0  0  0  0  0  0  0  0  0  0
   -4.4775   -0.0274    0.0000 C   0  0  0  0  0  0  0  0  0  0  0  0
   -5.1815    1.2201    0.0000 Cl  0  0  0  0  0  0  0  0  0  0  0  0
  2 11  1  0  0  0  0
  3  1  2  0  0  0  0
  4  1  1  0  0  0  0
  5  1  1  0  0  0  0
  6  4  1  0  0  0  0
  7  2  1  0  0  0  0
  8  2  1  0  0  0  0
  9  5  1  0  0  0  0
 10  3  1  0  0  0  0
 11 21  1  0  0  0  0
 12  9  1  0  0  0  0
 13  6  1  0  0  0  0
 14  6  2  0  0  0  0
 15  7  1  0  0  0  0
 16  8  1  0  0  0  0
 17  7  2  0  0  0  0
 18  8  2  0  0  0  0
 19 10  1  0  0  0  0
 20 22  1  0  0  0  0
 21 23  2  0  0  0  0
 22 13  2  0  0  0  0
 23 13  1  0  0  0  0
 24 12  2  0  0  0  0
 25 19  2  0  0  0  0
 26 24  1  0  0  0  0
 10  9  2  0  0  0  0
 24 25  1  0  0  0  0
 11 20  2  0  0  0  0
 16 15  1  0  0  0  0
M  END
>  <IDNUMBER>
F0327-0293

>  <Chemical_Name>
N-(6-chloro-1,3-benzothiazol-2-yl)-4-(2,5-dioxopyrrolidin-1-yl)benzamide

>  <PriceCoeff>
1.00

>  <CAS>
330191-21-4

>  <MW>
385.82

>  <Description>
solid

>  <FSP3>
0.11

>  <clogP>
2.34

>  <TPSA>
107.61

>  <Acceptor>
4

>  <Donor>
1

>  <RotBonds>
3

>  <HAC>
26

>  <Collection>
General

>  <PPDS>
+

$$$$
F0327-0294
  Mrv2219 10102508112D          

 26 29  0  0  0  0            999 V2000
   -1.7910    0.4066    0.0000 C   0  0  0  0  0  0  0  0  0  0  0  0
    2.7374   -0.3089    0.0000 N   0  0  0  0  0  0  0  0  0  0  0  0
   -2.2642   -0.2620    0.0000 N   0  0  0  0  0  0  0  0  0  0  0  0
   -0.9815    0.4066    0.0000 N   0  0  0  0  0  0  0  0  0  0  0  0
   -2.2525    1.0637    0.0000 S   0  0  0  0  0  0  0  0  0  0  0  0
   -0.5631   -0.3089    0.0000 C   0  0  0  0  0  0  0  0  0  0  0  0
    3.1949   -0.9855    0.0000 C   0  0  0  0  0  0  0  0  0  0  0  0
    3.2066    0.3128    0.0000 C   0  0  0  0  0  0  0  0  0  0  0  0
   -3.0463    0.8173    0.0000 C   0  0  0  0  0  0  0  0  0  0  0  0
   -3.0463   -0.0274    0.0000 C   0  0  0  0  0  0  0  0  0  0  0  0
    1.9122   -0.3089    0.0000 C   0  0  0  0  0  0  0  0  0  0  0  0
   -3.7541    1.2318    0.0000 C   0  0  0  0  0  0  0  0  0  0  0  0
    0.2620   -0.3089    0.0000 C   0  0  0  0  0  0  0  0  0  0  0  0
   -0.9815   -1.0207    0.0000 O   0  0  0  0  0  0  0  0  0  0  0  0
    3.9927   -0.7509    0.0000 C   0  0  0  0  0  0  0  0  0  0  0  0
    3.9888    0.0664    0.0000 C   0  0  0  0  0  0  0  0  0  0  0  0
    2.9094   -1.7519    0.0000 O   0  0  0  0  0  0  0  0  0  0  0  0
    2.9368    1.1106    0.0000 O   0  0  0  0  0  0  0  0  0  0  0  0
   -3.7541   -0.4223    0.0000 C   0  0  0  0  0  0  0  0  0  0  0  0
    1.5016   -1.0207    0.0000 C   0  0  0  0  0  0  0  0  0  0  0  0
    1.5016    0.4066    0.0000 C   0  0  0  0  0  0  0  0  0  0  0  0
    0.6726   -1.0207    0.0000 C   0  0  0  0  0  0  0  0  0  0  0  0
    0.6726    0.4066    0.0000 C   0  0  0  0  0  0  0  0  0  0  0  0
   -4.4775    0.8095    0.0000 C   0  0  0  0  0  0  0  0  0  0  0  0
   -4.4775   -0.0274    0.0000 C   0  0  0  0  0  0  0  0  0  0  0  0
   -5.1815    1.2201    0.0000 Br  0  0  0  0  0  0  0  0  0  0  0  0
  2 11  1  0  0  0  0
  3  1  2  0  0  0  0
  4  1  1  0  0  0  0
  5  1  1  0  0  0  0
  6  4  1  0  0  0  0
  7  2  1  0  0  0  0
  8  2  1  0  0  0  0
  9  5  1  0  0  0  0
 10  3  1  0  0  0  0
 11 21  1  0  0  0  0
 12  9  1  0  0  0  0
 13  6  1  0  0  0  0
 14  6  2  0  0  0  0
 15  7  1  0  0  0  0
 16  8  1  0  0  0  0
 17  7  2  0  0  0  0
 18  8  2  0  0  0  0
 19 10  1  0  0  0  0
 20 22  1  0  0  0  0
 21 23  2  0  0  0  0
 22 13  2  0  0  0  0
 23 13  1  0  0  0  0
 24 12  2  0  0  0  0
 25 19  2  0  0  0  0
 26 24  1  0  0  0  0
  9 10  2  0  0  0  0
 25 24  1  0  0  0  0
 20 11  2  0  0  0  0
 15 16  1  0  0  0  0
M  END
>  <IDNUMBER>
F0327-0294

>  <Chemical_Name>
N-(6-bromo-1,3-benzothiazol-2-yl)-4-(2,5-dioxopyrrolidin-1-yl)benzamide

>  <PriceCoeff>
1.00

>  <CAS>
476281-65-9

>  <MW>
430.28

>  <Description>
solid

>  <FSP3>
0.11

>  <clogP>
2.49

>  <TPSA>
107.61

>  <Acceptor>
4

>  <Donor>
1

>  <RotBonds>
3

>  <HAC>
26

>  <Collection>
General

>  <PPDS>
+

$$$$
F0327-0296
  Mrv2219 10102508112D          

 28 31  0  0  0  0            999 V2000
   -1.7910    0.4066    0.0000 C   0  0  0  0  0  0  0  0  0  0  0  0
    2.7374   -0.3089    0.0000 N   0  0  0  0  0  0  0  0  0  0  0  0
   -2.2642   -0.2620    0.0000 N   0  0  0  0  0  0  0  0  0  0  0  0
   -5.1815    1.2201    0.0000 N   0  3  0  0  0  0  0  0  0  0  0  0
   -0.9815    0.4066    0.0000 N   0  0  0  0  0  0  0  0  0  0  0  0
   -2.2525    1.0637    0.0000 S   0  0  0  0  0  0  0  0  0  0  0  0
   -0.5631   -0.3089    0.0000 C   0  0  0  0  0  0  0  0  0  0  0  0
   -3.0463    0.8173    0.0000 C   0  0  0  0  0  0  0  0  0  0  0  0
    3.2066    0.3128    0.0000 C   0  0  0  0  0  0  0  0  0  0  0  0
    3.1949   -0.9855    0.0000 C   0  0  0  0  0  0  0  0  0  0  0  0
   -3.0463   -0.0274    0.0000 C   0  0  0  0  0  0  0  0  0  0  0  0
   -4.4775    0.8095    0.0000 C   0  0  0  0  0  0  0  0  0  0  0  0
   -3.7541    1.2318    0.0000 C   0  0  0  0  0  0  0  0  0  0  0  0
    1.9122   -0.3089    0.0000 C   0  0  0  0  0  0  0  0  0  0  0  0
   -5.1815    2.0608    0.0000 O   0  5  0  0  0  0  0  0  0  0  0  0
    0.2620   -0.3089    0.0000 C   0  0  0  0  0  0  0  0  0  0  0  0
   -5.9049    0.8760    0.0000 O   0  0  0  0  0  0  0  0  0  0  0  0
   -0.9815   -1.0207    0.0000 O   0  0  0  0  0  0  0  0  0  0  0  0
    3.9927   -0.7509    0.0000 C   0  0  0  0  0  0  0  0  0  0  0  0
    3.9888    0.0664    0.0000 C   0  0  0  0  0  0  0  0  0  0  0  0
    2.9094   -1.7519    0.0000 O   0  0  0  0  0  0  0  0  0  0  0  0
    2.9368    1.1106    0.0000 O   0  0  0  0  0  0  0  0  0  0  0  0
   -3.7541   -0.4223    0.0000 C   0  0  0  0  0  0  0  0  0  0  0  0
   -4.4775   -0.0274    0.0000 C   0  0  0  0  0  0  0  0  0  0  0  0
    1.5016    0.4066    0.0000 C   0  0  0  0  0  0  0  0  0  0  0  0
    1.5016   -1.0207    0.0000 C   0  0  0  0  0  0  0  0  0  0  0  0
    0.6726    0.4066    0.0000 C   0  0  0  0  0  0  0  0  0  0  0  0
    0.6726   -1.0207    0.0000 C   0  0  0  0  0  0  0  0  0  0  0  0
  2 14  1  0  0  0  0
  3  1  2  0  0  0  0
  4 12  1  0  0  0  0
  5  1  1  0  0  0  0
  6  1  1  0  0  0  0
  7  5  1  0  0  0  0
  8  6  1  0  0  0  0
  9  2  1  0  0  0  0
 10  2  1  0  0  0  0
 11  3  1  0  0  0  0
 12 13  2  0  0  0  0
 13  8  1  0  0  0  0
 14 26  2  0  0  0  0
 15  4  1  0  0  0  0
 16  7  1  0  0  0  0
 17  4  2  0  0  0  0
 18  7  2  0  0  0  0
 19 10  1  0  0  0  0
 20  9  1  0  0  0  0
 21 10  2  0  0  0  0
 22  9  2  0  0  0  0
 23 11  1  0  0  0  0
 24 23  2  0  0  0  0
 25 27  2  0  0  0  0
 26 28  1  0  0  0  0
 27 16  1  0  0  0  0
 28 16  2  0  0  0  0
  8 11  2  0  0  0  0
 24 12  1  0  0  0  0
 25 14  1  0  0  0  0
 19 20  1  0  0  0  0
M  CHG  2   4   1  15  -1
M  END
>  <IDNUMBER>
F0327-0296

>  <Chemical_Name>
4-(2,5-dioxopyrrolidin-1-yl)-N-(6-nitro-1,3-benzothiazol-2-yl)benzamide

>  <PriceCoeff>
1.00

>  <CAS>
330200-72-1

>  <MW>
396.38

>  <Description>
solid

>  <FSP3>
0.11

>  <clogP>
1.47

>  <TPSA>
150.75

>  <Acceptor>
6

>  <Donor>
1

>  <RotBonds>
4

>  <HAC>
28

>  <Collection>
General

>  <PPDS>
+

$$$$
F0327-0298
  Mrv2219 10102508112D          

 30 33  0  0  0  0            999 V2000
   -1.7910    0.4066    0.0000 C   0  0  0  0  0  0  0  0  0  0  0  0
    2.7374   -0.3089    0.0000 N   0  0  0  0  0  0  0  0  0  0  0  0
   -2.2642   -0.2620    0.0000 N   0  0  0  0  0  0  0  0  0  0  0  0
   -3.0463   -0.0274    0.0000 C   0  0  0  0  0  0  0  0  0  0  0  0
   -5.1815    1.2201    0.0000 N   0  3  0  0  0  0  0  0  0  0  0  0
   -3.0463    0.8173    0.0000 C   0  0  0  0  0  0  0  0  0  0  0  0
   -0.9815    0.4066    0.0000 N   0  0  0  0  0  0  0  0  0  0  0  0
   -2.2525    1.0637    0.0000 S   0  0  0  0  0  0  0  0  0  0  0  0
   -4.4775    0.8095    0.0000 C   0  0  0  0  0  0  0  0  0  0  0  0
   -0.5631   -0.3089    0.0000 C   0  0  0  0  0  0  0  0  0  0  0  0
    3.2066    0.3128    0.0000 C   0  0  0  0  0  0  0  0  0  0  0  0
    3.1949   -0.9855    0.0000 C   0  0  0  0  0  0  0  0  0  0  0  0
   -3.7541    1.2318    0.0000 C   0  0  0  0  0  0  0  0  0  0  0  0
   -3.7541   -0.4223    0.0000 C   0  0  0  0  0  0  0  0  0  0  0  0
   -4.4775   -0.0274    0.0000 C   0  0  0  0  0  0  0  0  0  0  0  0
    1.9122   -0.3089    0.0000 C   0  0  0  0  0  0  0  0  0  0  0  0
   -5.1815    2.0178    0.0000 O   0  5  0  0  0  0  0  0  0  0  0  0
    0.2620   -0.3089    0.0000 C   0  0  0  0  0  0  0  0  0  0  0  0
   -5.9049    0.8760    0.0000 O   0  0  0  0  0  0  0  0  0  0  0  0
   -0.9815   -1.0207    0.0000 O   0  0  0  0  0  0  0  0  0  0  0  0
    3.9888    0.0664    0.0000 C   0  0  0  0  0  0  0  0  0  0  0  0
    3.9927   -0.7509    0.0000 C   0  0  0  0  0  0  0  0  0  0  0  0
    2.9368    1.1106    0.0000 O   0  0  0  0  0  0  0  0  0  0  0  0
    2.9094   -1.7519    0.0000 O   0  0  0  0  0  0  0  0  0  0  0  0
    1.5016   -1.0207    0.0000 C   0  0  0  0  0  0  0  0  0  0  0  0
    1.5016    0.4066    0.0000 C   0  0  0  0  0  0  0  0  0  0  0  0
    0.6726   -1.0207    0.0000 C   0  0  0  0  0  0  0  0  0  0  0  0
    0.6726    0.4066    0.0000 C   0  0  0  0  0  0  0  0  0  0  0  0
   -3.7541   -1.2358    0.0000 O   0  0  0  0  0  0  0  0  0  0  0  0
   -4.4775   -1.6424    0.0000 C   0  0  0  0  0  0  0  0  0  0  0  0
  2 16  1  0  0  0  0
  3  1  2  0  0  0  0
  4  3  1  0  0  0  0
  5  9  1  0  0  0  0
  6  8  1  0  0  0  0
  7  1  1  0  0  0  0
  8  1  1  0  0  0  0
  9 13  2  0  0  0  0
 10  7  1  0  0  0  0
 11  2  1  0  0  0  0
 12  2  1  0  0  0  0
 13  6  1  0  0  0  0
 14  4  1  0  0  0  0
 15 14  2  0  0  0  0
 16 26  1  0  0  0  0
 17  5  1  0  0  0  0
 18 10  1  0  0  0  0
 19  5  2  0  0  0  0
 20 10  2  0  0  0  0
 21 11  1  0  0  0  0
 22 12  1  0  0  0  0
 23 11  2  0  0  0  0
 24 12  2  0  0  0  0
 25 27  1  0  0  0  0
 26 28  2  0  0  0  0
 27 18  2  0  0  0  0
 28 18  1  0  0  0  0
 29 14  1  0  0  0  0
 30 29  1  0  0  0  0
  6  4  2  0  0  0  0
 15  9  1  0  0  0  0
 25 16  2  0  0  0  0
 22 21  1  0  0  0  0
M  CHG  2   5   1  17  -1
M  END
>  <IDNUMBER>
F0327-0298

>  <Chemical_Name>
4-(2,5-dioxopyrrolidin-1-yl)-N-(4-methoxy-6-nitro-1,3-benzothiazol-2-yl)benzamide

>  <PriceCoeff>
1.00

>  <CAS>
328027-82-3

>  <MW>
426.40

>  <Description>
solid

>  <FSP3>
0.16

>  <clogP>
1.75

>  <TPSA>
159.98

>  <Acceptor>
7

>  <Donor>
1

>  <RotBonds>
5

>  <HAC>
30

>  <Collection>
General

>  <PPDS>
+

$$$$
F0327-0299
  Mrv2219 10102508112D          

 26 29  0  0  0  0            999 V2000
   -1.7910    0.4066    0.0000 C   0  0  0  0  0  0  0  0  0  0  0  0
    2.7374   -0.3089    0.0000 N   0  0  0  0  0  0  0  0  0  0  0  0
   -2.2642   -0.2620    0.0000 N   0  0  0  0  0  0  0  0  0  0  0  0
   -0.9815    0.4066    0.0000 N   0  0  0  0  0  0  0  0  0  0  0  0
   -3.0463   -0.0274    0.0000 C   0  0  0  0  0  0  0  0  0  0  0  0
   -2.2525    1.0637    0.0000 S   0  0  0  0  0  0  0  0  0  0  0  0
   -0.5631   -0.3089    0.0000 C   0  0  0  0  0  0  0  0  0  0  0  0
    3.2066    0.3128    0.0000 C   0  0  0  0  0  0  0  0  0  0  0  0
    3.1949   -0.9855    0.0000 C   0  0  0  0  0  0  0  0  0  0  0  0
   -3.0463    0.8173    0.0000 C   0  0  0  0  0  0  0  0  0  0  0  0
    1.9122   -0.3089    0.0000 C   0  0  0  0  0  0  0  0  0  0  0  0
    0.2620   -0.3089    0.0000 C   0  0  0  0  0  0  0  0  0  0  0  0
   -3.7541   -0.4223    0.0000 C   0  0  0  0  0  0  0  0  0  0  0  0
   -0.9815   -1.0207    0.0000 O   0  0  0  0  0  0  0  0  0  0  0  0
    3.9888    0.0664    0.0000 C   0  0  0  0  0  0  0  0  0  0  0  0
    3.9927   -0.7509    0.0000 C   0  0  0  0  0  0  0  0  0  0  0  0
    2.9368    1.1106    0.0000 O   0  0  0  0  0  0  0  0  0  0  0  0
    2.9094   -1.7519    0.0000 O   0  0  0  0  0  0  0  0  0  0  0  0
    1.5016   -1.0207    0.0000 C   0  0  0  0  0  0  0  0  0  0  0  0
    1.5016    0.4066    0.0000 C   0  0  0  0  0  0  0  0  0  0  0  0
    0.6726   -1.0207    0.0000 C   0  0  0  0  0  0  0  0  0  0  0  0
    0.6726    0.4066    0.0000 C   0  0  0  0  0  0  0  0  0  0  0  0
   -3.7541   -1.2358    0.0000 Cl  0  0  0  0  0  0  0  0  0  0  0  0
   -3.7541    1.2318    0.0000 C   0  0  0  0  0  0  0  0  0  0  0  0
   -4.4775    0.8095    0.0000 C   0  0  0  0  0  0  0  0  0  0  0  0
   -4.4775   -0.0274    0.0000 C   0  0  0  0  0  0  0  0  0  0  0  0
  2 11  1  0  0  0  0
  3  1  2  0  0  0  0
  4  1  1  0  0  0  0
  5  3  1  0  0  0  0
  6  1  1  0  0  0  0
  7  4  1  0  0  0  0
  8  2  1  0  0  0  0
  9  2  1  0  0  0  0
 10  6  1  0  0  0  0
 11 20  1  0  0  0  0
 12  7  1  0  0  0  0
 13  5  1  0  0  0  0
 14  7  2  0  0  0  0
 15  8  1  0  0  0  0
 16  9  1  0  0  0  0
 17  8  2  0  0  0  0
 18  9  2  0  0  0  0
 19 21  1  0  0  0  0
 20 22  2  0  0  0  0
 21 12  2  0  0  0  0
 22 12  1  0  0  0  0
 23 13  1  0  0  0  0
 24 10  1  0  0  0  0
 25 24  2  0  0  0  0
 26 13  2  0  0  0  0
  5 10  2  0  0  0  0
 25 26  1  0  0  0  0
 11 19  2  0  0  0  0
 15 16  1  0  0  0  0
M  END
>  <IDNUMBER>
F0327-0299

>  <Chemical_Name>
N-(4-chloro-1,3-benzothiazol-2-yl)-4-(2,5-dioxopyrrolidin-1-yl)benzamide

>  <PriceCoeff>
1.00

>  <CAS>
313405-84-4

>  <MW>
385.82

>  <Description>
solid

>  <FSP3>
0.11

>  <clogP>
2.34

>  <TPSA>
107.61

>  <Acceptor>
4

>  <Donor>
1

>  <RotBonds>
3

>  <HAC>
26

>  <Collection>
General

>  <PPDS>
+

$$$$
F0327-0301
  Mrv2219 10102508112D          

 29 32  0  0  0  0            999 V2000
   -1.7910    0.4066    0.0000 C   0  0  0  0  0  0  0  0  0  0  0  0
    2.7374   -0.3089    0.0000 N   0  0  0  0  0  0  0  0  0  0  0  0
   -2.2642   -0.2620    0.0000 N   0  0  0  0  0  0  0  0  0  0  0  0
   -0.9815    0.4066    0.0000 N   0  0  0  0  0  0  0  0  0  0  0  0
   -2.2525    1.0637    0.0000 S   0  0  0  0  0  0  0  0  0  0  0  0
   -0.5631   -0.3089    0.0000 C   0  0  0  0  0  0  0  0  0  0  0  0
    3.2066    0.3128    0.0000 C   0  0  0  0  0  0  0  0  0  0  0  0
    3.1949   -0.9855    0.0000 C   0  0  0  0  0  0  0  0  0  0  0  0
   -3.0463    0.8173    0.0000 C   0  0  0  0  0  0  0  0  0  0  0  0
   -3.0463   -0.0274    0.0000 C   0  0  0  0  0  0  0  0  0  0  0  0
    1.9122   -0.3089    0.0000 C   0  0  0  0  0  0  0  0  0  0  0  0
   -3.7541    1.2318    0.0000 C   0  0  0  0  0  0  0  0  0  0  0  0
    0.2620   -0.3089    0.0000 C   0  0  0  0  0  0  0  0  0  0  0  0
   -5.1815    2.0373    0.0000 C   0  0  0  0  0  0  0  0  0  0  0  0
   -5.1815    1.2201    0.0000 N   0  0  0  0  0  0  0  0  0  0  0  0
   -4.4775    0.8095    0.0000 C   0  0  0  0  0  0  0  0  0  0  0  0
   -0.9815   -1.0207    0.0000 O   0  0  0  0  0  0  0  0  0  0  0  0
    3.9888    0.0664    0.0000 C   0  0  0  0  0  0  0  0  0  0  0  0
    3.9927   -0.7509    0.0000 C   0  0  0  0  0  0  0  0  0  0  0  0
    2.9368    1.1106    0.0000 O   0  0  0  0  0  0  0  0  0  0  0  0
    2.9094   -1.7519    0.0000 O   0  0  0  0  0  0  0  0  0  0  0  0
   -5.8658    2.5301    0.0000 O   0  0  0  0  0  0  0  0  0  0  0  0
   -3.7541   -0.4223    0.0000 C   0  0  0  0  0  0  0  0  0  0  0  0
    1.5016    0.4066    0.0000 C   0  0  0  0  0  0  0  0  0  0  0  0
    1.5016   -1.0207    0.0000 C   0  0  0  0  0  0  0  0  0  0  0  0
    0.6726    0.4066    0.0000 C   0  0  0  0  0  0  0  0  0  0  0  0
    0.6726   -1.0207    0.0000 C   0  0  0  0  0  0  0  0  0  0  0  0
   -4.4775   -0.0274    0.0000 C   0  0  0  0  0  0  0  0  0  0  0  0
   -4.4541    2.4402    0.0000 C   0  0  0  0  0  0  0  0  0  0  0  0
  2 11  1  0  0  0  0
  3  1  2  0  0  0  0
  4  1  1  0  0  0  0
  5  1  1  0  0  0  0
  6  4  1  0  0  0  0
  7  2  1  0  0  0  0
  8  2  1  0  0  0  0
  9  5  1  0  0  0  0
 10  3  1  0  0  0  0
 11 25  2  0  0  0  0
 12  9  1  0  0  0  0
 13  6  1  0  0  0  0
 14 15  1  0  0  0  0
 15 16  1  0  0  0  0
 16 12  2  0  0  0  0
 17  6  2  0  0  0  0
 18  7  1  0  0  0  0
 19  8  1  0  0  0  0
 20  7  2  0  0  0  0
 21  8  2  0  0  0  0
 22 14  2  0  0  0  0
 23 10  1  0  0  0  0
 24 26  2  0  0  0  0
 25 27  1  0  0  0  0
 26 13  1  0  0  0  0
 27 13  2  0  0  0  0
 28 23  2  0  0  0  0
 29 14  1  0  0  0  0
 10  9  2  0  0  0  0
 16 28  1  0  0  0  0
 24 11  1  0  0  0  0
 18 19  1  0  0  0  0
M  END
>  <IDNUMBER>
F0327-0301

>  <Chemical_Name>
4-(2,5-dioxopyrrolidin-1-yl)-N-(6-acetamido-1,3-benzothiazol-2-yl)benzamide

>  <PriceCoeff>
1.00

>  <CAS>
330200-73-2

>  <MW>
408.43

>  <Description>
solid

>  <FSP3>
0.15

>  <clogP>
1.31

>  <TPSA>
136.71

>  <Acceptor>
5

>  <Donor>
2

>  <RotBonds>
4

>  <HAC>
29

>  <Collection>
General

>  <PPDS>
+

$$$$
F0327-0303
  Mrv2219 10102508112D          

 27 30  0  0  0  0            999 V2000
   -1.7927    0.4071    0.0000 C   0  0  0  0  0  0  0  0  0  0  0  0
    2.7401   -0.3093    0.0000 N   0  0  0  0  0  0  0  0  0  0  0  0
   -2.2664   -0.2623    0.0000 N   0  0  0  0  0  0  0  0  0  0  0  0
   -0.9825    0.4071    0.0000 N   0  0  0  0  0  0  0  0  0  0  0  0
   -2.2547    1.0647    0.0000 S   0  0  0  0  0  0  0  0  0  0  0  0
   -3.0492   -0.0274    0.0000 C   0  0  0  0  0  0  0  0  0  0  0  0
   -3.0492    0.8181    0.0000 C   0  0  0  0  0  0  0  0  0  0  0  0
   -0.5637   -0.3093    0.0000 C   0  0  0  0  0  0  0  0  0  0  0  0
    3.2098    0.3131    0.0000 C   0  0  0  0  0  0  0  0  0  0  0  0
    3.1980   -0.9864    0.0000 C   0  0  0  0  0  0  0  0  0  0  0  0
   -3.7578   -0.4227    0.0000 C   0  0  0  0  0  0  0  0  0  0  0  0
    1.9141   -0.3093    0.0000 C   0  0  0  0  0  0  0  0  0  0  0  0
    0.2623   -0.3093    0.0000 C   0  0  0  0  0  0  0  0  0  0  0  0
   -3.7578    1.2330    0.0000 C   0  0  0  0  0  0  0  0  0  0  0  0
   -4.4819   -0.0274    0.0000 C   0  0  0  0  0  0  0  0  0  0  0  0
   -0.9825   -1.0216    0.0000 O   0  0  0  0  0  0  0  0  0  0  0  0
    3.9926    0.0665    0.0000 C   0  0  0  0  0  0  0  0  0  0  0  0
    3.9966   -0.7516    0.0000 C   0  0  0  0  0  0  0  0  0  0  0  0
    2.9397    1.1116    0.0000 O   0  0  0  0  0  0  0  0  0  0  0  0
    2.9123   -1.7537    0.0000 O   0  0  0  0  0  0  0  0  0  0  0  0
   -4.4819    0.8103    0.0000 C   0  0  0  0  0  0  0  0  0  0  0  0
    1.5031   -1.0216    0.0000 C   0  0  0  0  0  0  0  0  0  0  0  0
    1.5031    0.4071    0.0000 C   0  0  0  0  0  0  0  0  0  0  0  0
    0.6733   -1.0216    0.0000 C   0  0  0  0  0  0  0  0  0  0  0  0
    0.6733    0.4071    0.0000 C   0  0  0  0  0  0  0  0  0  0  0  0
   -3.7578   -1.2370    0.0000 C   0  0  0  0  0  0  0  0  0  0  0  0
   -5.1865    1.2213    0.0000 C   0  0  0  0  0  0  0  0  0  0  0  0
  2 12  1  0  0  0  0
  3  1  2  0  0  0  0
  4  1  1  0  0  0  0
  5  1  1  0  0  0  0
  6  3  1  0  0  0  0
  7  5  1  0  0  0  0
  8  4  1  0  0  0  0
  9  2  1  0  0  0  0
 10  2  1  0  0  0  0
 11  6  1  0  0  0  0
 12 23  1  0  0  0  0
 13  8  1  0  0  0  0
 14  7  1  0  0  0  0
 15 11  2  0  0  0  0
 16  8  2  0  0  0  0
 17  9  1  0  0  0  0
 18 10  1  0  0  0  0
 19  9  2  0  0  0  0
 20 10  2  0  0  0  0
 21 14  2  0  0  0  0
 22 24  1  0  0  0  0
 23 25  2  0  0  0  0
 24 13  2  0  0  0  0
 25 13  1  0  0  0  0
 26 11  1  0  0  0  0
 27 21  1  0  0  0  0
  7  6  2  0  0  0  0
 15 21  1  0  0  0  0
 22 12  2  0  0  0  0
 18 17  1  0  0  0  0
M  END
>  <IDNUMBER>
F0327-0303

>  <Chemical_Name>
N-(4,6-dimethyl-1,3-benzothiazol-2-yl)-4-(2,5-dioxopyrrolidin-1-yl)benzamide

>  <PriceCoeff>
1.00

>  <CAS>
476281-68-2

>  <MW>
379.43

>  <Description>
solid

>  <FSP3>
0.20

>  <clogP>
2.62

>  <TPSA>
107.61

>  <Acceptor>
4

>  <Donor>
1

>  <RotBonds>
3

>  <HAC>
27

>  <Collection>
General

>  <PPDS>
+

$$$$
F0327-0304
  Mrv2219 10102508112D          

 26 29  0  0  0  0            999 V2000
   -1.7882    0.3969    0.0000 C   0  0  0  0  0  0  0  0  0  0  0  0
    2.7393   -0.2987    0.0000 N   0  0  0  0  0  0  0  0  0  0  0  0
   -2.2756   -0.2634    0.0000 N   0  0  0  0  0  0  0  0  0  0  0  0
   -0.9746    0.3969    0.0000 N   0  0  0  0  0  0  0  0  0  0  0  0
   -3.0498    0.8135    0.0000 C   0  0  0  0  0  0  0  0  0  0  0  0
   -2.2598    1.0572    0.0000 S   0  0  0  0  0  0  0  0  0  0  0  0
   -3.0498   -0.0275    0.0000 C   0  0  0  0  0  0  0  0  0  0  0  0
   -0.5777   -0.2987    0.0000 C   0  0  0  0  0  0  0  0  0  0  0  0
    3.2070   -0.9786    0.0000 C   0  0  0  0  0  0  0  0  0  0  0  0
    3.2110    0.3026    0.0000 C   0  0  0  0  0  0  0  0  0  0  0  0
    1.9140   -0.2987    0.0000 C   0  0  0  0  0  0  0  0  0  0  0  0
    0.2516   -0.2987    0.0000 C   0  0  0  0  0  0  0  0  0  0  0  0
   -3.7690    1.2262    0.0000 C   0  0  0  0  0  0  0  0  0  0  0  0
   -0.9746   -1.0179    0.0000 O   0  0  0  0  0  0  0  0  0  0  0  0
    3.9970   -0.7546    0.0000 C   0  0  0  0  0  0  0  0  0  0  0  0
    3.9970    0.0590    0.0000 C   0  0  0  0  0  0  0  0  0  0  0  0
    2.9122   -1.7489    0.0000 O   0  0  0  0  0  0  0  0  0  0  0  0
    2.9398    1.1043    0.0000 O   0  0  0  0  0  0  0  0  0  0  0  0
   -3.7690   -0.4127    0.0000 C   0  0  0  0  0  0  0  0  0  0  0  0
    1.4974    0.3969    0.0000 C   0  0  0  0  0  0  0  0  0  0  0  0
    1.4974   -1.0179    0.0000 C   0  0  0  0  0  0  0  0  0  0  0  0
    0.6642    0.3969    0.0000 C   0  0  0  0  0  0  0  0  0  0  0  0
    0.6642   -1.0179    0.0000 C   0  0  0  0  0  0  0  0  0  0  0  0
   -4.4804   -0.0472    0.0000 C   0  0  0  0  0  0  0  0  0  0  0  0
   -4.4804    0.8017    0.0000 C   0  0  0  0  0  0  0  0  0  0  0  0
   -5.1878    1.2222    0.0000 C   0  0  0  0  0  0  0  0  0  0  0  0
  2 11  1  0  0  0  0
  3  1  2  0  0  0  0
  4  1  1  0  0  0  0
  5  6  1  0  0  0  0
  6  1  1  0  0  0  0
  7  3  1  0  0  0  0
  8  4  1  0  0  0  0
  9  2  1  0  0  0  0
 10  2  1  0  0  0  0
 11 21  2  0  0  0  0
 12  8  1  0  0  0  0
 13  5  1  0  0  0  0
 14  8  2  0  0  0  0
 15  9  1  0  0  0  0
 16 10  1  0  0  0  0
 17  9  2  0  0  0  0
 18 10  2  0  0  0  0
 19  7  1  0  0  0  0
 20 22  2  0  0  0  0
 21 23  1  0  0  0  0
 22 12  1  0  0  0  0
 23 12  2  0  0  0  0
 24 19  1  0  0  0  0
 25 13  1  0  0  0  0
 26 25  1  0  0  0  0
  5  7  2  0  0  0  0
 24 25  1  0  0  0  0
 20 11  1  0  0  0  0
 15 16  1  0  0  0  0
M  END
>  <IDNUMBER>
F0327-0304

>  <Chemical_Name>
4-(2,5-dioxopyrrolidin-1-yl)-N-(6-methyl-4,5,6,7-tetrahydro-1,3-benzothiazol-2-yl)benzamide

>  <PriceCoeff>
1.50

>  <CAS>
330200-74-3

>  <MW>
369.44

>  <Description>
solid

>  <FSP3>
0.37

>  <clogP>
2.12

>  <TPSA>
107.61

>  <Acceptor>
4

>  <Donor>
1

>  <RotBonds>
3

>  <HAC>
26

>  <Collection>
Advanced

>  <PPDS>
+

$$$$
F0327-0305
  Mrv2219 10102508112D          

 25 28  0  0  0  0            999 V2000
   -1.7860    0.3964    0.0000 C   0  0  0  0  0  0  0  0  0  0  0  0
    2.7360   -0.2984    0.0000 N   0  0  0  0  0  0  0  0  0  0  0  0
   -2.2728   -0.2630    0.0000 N   0  0  0  0  0  0  0  0  0  0  0  0
   -0.9735    0.3964    0.0000 N   0  0  0  0  0  0  0  0  0  0  0  0
   -2.2571    1.0559    0.0000 S   0  0  0  0  0  0  0  0  0  0  0  0
   -3.0461   -0.0275    0.0000 C   0  0  0  0  0  0  0  0  0  0  0  0
   -3.0461    0.8126    0.0000 C   0  0  0  0  0  0  0  0  0  0  0  0
   -0.5770   -0.2984    0.0000 C   0  0  0  0  0  0  0  0  0  0  0  0
    3.2031   -0.9774    0.0000 C   0  0  0  0  0  0  0  0  0  0  0  0
    3.2071    0.3022    0.0000 C   0  0  0  0  0  0  0  0  0  0  0  0
    1.9117   -0.2984    0.0000 C   0  0  0  0  0  0  0  0  0  0  0  0
    0.2513   -0.2984    0.0000 C   0  0  0  0  0  0  0  0  0  0  0  0
   -0.9735   -1.0167    0.0000 O   0  0  0  0  0  0  0  0  0  0  0  0
    3.9921   -0.7537    0.0000 C   0  0  0  0  0  0  0  0  0  0  0  0
    3.9921    0.0589    0.0000 C   0  0  0  0  0  0  0  0  0  0  0  0
    2.9087   -1.7468    0.0000 O   0  0  0  0  0  0  0  0  0  0  0  0
    2.9362    1.1030    0.0000 O   0  0  0  0  0  0  0  0  0  0  0  0
    1.4956    0.3964    0.0000 C   0  0  0  0  0  0  0  0  0  0  0  0
    1.4956   -1.0167    0.0000 C   0  0  0  0  0  0  0  0  0  0  0  0
    0.6634    0.3964    0.0000 C   0  0  0  0  0  0  0  0  0  0  0  0
    0.6634   -1.0167    0.0000 C   0  0  0  0  0  0  0  0  0  0  0  0
   -3.7644   -0.4122    0.0000 C   0  0  0  0  0  0  0  0  0  0  0  0
   -3.7644    1.2247    0.0000 C   0  0  0  0  0  0  0  0  0  0  0  0
   -4.4749   -0.0471    0.0000 C   0  0  0  0  0  0  0  0  0  0  0  0
   -4.4749    0.8008    0.0000 C   0  0  0  0  0  0  0  0  0  0  0  0
  2 11  1  0  0  0  0
  3  1  2  0  0  0  0
  4  1  1  0  0  0  0
  5  1  1  0  0  0  0
  6  3  1  0  0  0  0
  7  5  1  0  0  0  0
  8  4  1  0  0  0  0
  9  2  1  0  0  0  0
 10  2  1  0  0  0  0
 11 19  2  0  0  0  0
 12  8  1  0  0  0  0
 13  8  2  0  0  0  0
 14  9  1  0  0  0  0
 15 10  1  0  0  0  0
 16  9  2  0  0  0  0
 17 10  2  0  0  0  0
 18 20  2  0  0  0  0
 19 21  1  0  0  0  0
 20 12  1  0  0  0  0
 21 12  2  0  0  0  0
 22  6  1  0  0  0  0
 23  7  1  0  0  0  0
 24 22  1  0  0  0  0
 25 23  1  0  0  0  0
  6  7  2  0  0  0  0
 25 24  1  0  0  0  0
 11 18  1  0  0  0  0
 15 14  1  0  0  0  0
M  END
>  <IDNUMBER>
F0327-0305

>  <Chemical_Name>
4-(2,5-dioxopyrrolidin-1-yl)-N-(4,5,6,7-tetrahydro-1,3-benzothiazol-2-yl)benzamide

>  <PriceCoeff>
1.50

>  <CAS>
392246-31-0

>  <MW>
355.41

>  <Description>
solid

>  <FSP3>
0.33

>  <clogP>
1.60

>  <TPSA>
107.61

>  <Acceptor>
4

>  <Donor>
1

>  <RotBonds>
3

>  <HAC>
25

>  <Collection>
Advanced

>  <PPDS>
+

$$$$
F0327-0306
  Mrv2219 10102508112D          

 28 31  0  0  0  0            999 V2000
   -3.0911    0.7376    0.0000 C   0  0  0  0  0  0  0  0  0  0  0  0
   -1.8248    0.3283    0.0000 C   0  0  0  0  0  0  0  0  0  0  0  0
   -3.0911   -0.0810    0.0000 C   0  0  0  0  0  0  0  0  0  0  0  0
   -2.2981   -0.3241    0.0000 N   0  0  0  0  0  0  0  0  0  0  0  0
    2.6989   -0.3624    0.0000 N   0  0  0  0  0  0  0  0  0  0  0  0
   -2.2981    1.0062    0.0000 S   0  0  0  0  0  0  0  0  0  0  0  0
   -1.0062    0.3283    0.0000 N   0  0  0  0  0  0  0  0  0  0  0  0
   -3.8074    1.1469    0.0000 C   0  0  0  0  0  0  0  0  0  0  0  0
   -0.6140   -0.3624    0.0000 C   0  0  0  0  0  0  0  0  0  0  0  0
    3.2745    0.2387    0.0000 C   0  0  0  0  0  0  0  0  0  0  0  0
    3.2532   -1.0787    0.0000 C   0  0  0  0  0  0  0  0  0  0  0  0
   -3.8074   -0.4904    0.0000 C   0  0  0  0  0  0  0  0  0  0  0  0
    1.8803   -0.3624    0.0000 C   0  0  0  0  0  0  0  0  0  0  0  0
   -4.5237   -0.0555    0.0000 C   0  0  0  0  0  0  0  0  0  0  0  0
   -4.5237    0.7376    0.0000 C   0  0  0  0  0  0  0  0  0  0  0  0
    0.2217   -0.3624    0.0000 C   0  0  0  0  0  0  0  0  0  0  0  0
   -3.8074    1.9911    0.0000 O   0  0  0  0  0  0  0  0  0  0  0  0
   -1.0062   -1.0787    0.0000 O   0  0  0  0  0  0  0  0  0  0  0  0
    4.0079   -0.0895    0.0000 C   0  0  0  0  0  0  0  0  0  0  0  0
    4.0079   -0.8741    0.0000 C   0  0  0  0  0  0  0  0  0  0  0  0
    3.1253    1.0745    0.0000 O   0  0  0  0  0  0  0  0  0  0  0  0
    2.8823   -1.8462    0.0000 O   0  0  0  0  0  0  0  0  0  0  0  0
    1.4710   -1.0787    0.0000 C   0  0  0  0  0  0  0  0  0  0  0  0
    1.4710    0.3539    0.0000 C   0  0  0  0  0  0  0  0  0  0  0  0
    0.6311   -1.0787    0.0000 C   0  0  0  0  0  0  0  0  0  0  0  0
    0.6523    0.3539    0.0000 C   0  0  0  0  0  0  0  0  0  0  0  0
   -5.2400    0.3539    0.0000 C   0  0  0  0  0  0  0  0  0  0  0  0
   -5.2400   -0.4648    0.0000 C   0  0  0  0  0  0  0  0  0  0  0  0
  2  6  1  0  0  0  0
  3  1  2  0  0  0  0
  4  3  1  0  0  0  0
  5 13  1  0  0  0  0
  6  1  1  0  0  0  0
  7  2  1  0  0  0  0
  8  1  1  0  0  0  0
  9  7  1  0  0  0  0
 10  5  1  0  0  0  0
 11  5  1  0  0  0  0
 12  3  1  0  0  0  0
 13 24  1  0  0  0  0
 14 15  1  0  0  0  0
 15  8  1  0  0  0  0
 16  9  1  0  0  0  0
 17  8  2  0  0  0  0
 18  9  2  0  0  0  0
 19 10  1  0  0  0  0
 20 11  1  0  0  0  0
 21 10  2  0  0  0  0
 22 11  2  0  0  0  0
 23 25  1  0  0  0  0
 24 26  2  0  0  0  0
 25 16  2  0  0  0  0
 26 16  1  0  0  0  0
 27 14  1  0  0  0  0
 28 14  1  0  0  0  0
  4  2  2  0  0  0  0
 12 14  1  0  0  0  0
 23 13  2  0  0  0  0
 20 19  1  0  0  0  0
M  END
>  <IDNUMBER>
F0327-0306

>  <Chemical_Name>
N-(5,5-dimethyl-7-oxo-4,5,6,7-tetrahydro-1,3-benzothiazol-2-yl)-4-(2,5-dioxopyrrolidin-1-yl)benzamide

>  <PriceCoeff>
1.00

>  <CAS>
330200-75-4

>  <MW>
397.45

>  <Description>
solid

>  <FSP3>
0.35

>  <clogP>
1.44

>  <TPSA>
124.68

>  <Acceptor>
5

>  <Donor>
1

>  <RotBonds>
3

>  <HAC>
28

>  <Collection>
General

>  <PPDS>
+

$$$$
F0327-0308
  Mrv2219 10102508112D          

 29 33  0  0  0  0            999 V2000
    0.0284   -1.7489    0.0000 C   0  0  0  0  0  0  0  0  0  0  0  0
   -0.4008    1.8461    0.0000 N   0  0  0  0  0  0  0  0  0  0  0  0
   -0.4574   -2.4088    0.0000 N   0  0  0  0  0  0  0  0  0  0  0  0
    0.8300   -1.7489    0.0000 N   0  0  0  0  0  0  0  0  0  0  0  0
   -1.2347   -2.1538    0.0000 C   0  0  0  0  0  0  0  0  0  0  0  0
   -0.4574   -1.0850    0.0000 S   0  0  0  0  0  0  0  0  0  0  0  0
    1.2509   -1.0243    0.0000 C   0  0  0  0  0  0  0  0  0  0  0  0
   -1.2347   -1.3400    0.0000 C   0  0  0  0  0  0  0  0  0  0  0  0
   -1.1983    1.9634    0.0000 C   0  0  0  0  0  0  0  0  0  0  0  0
   -0.0324    2.5869    0.0000 C   0  0  0  0  0  0  0  0  0  0  0  0
   -1.9554   -2.5789    0.0000 C   0  0  0  0  0  0  0  0  0  0  0  0
    0.0284    1.1295    0.0000 C   0  0  0  0  0  0  0  0  0  0  0  0
    0.8421   -0.3077    0.0000 C   0  0  0  0  0  0  0  0  0  0  0  0
    2.0890   -1.0243    0.0000 O   0  0  0  0  0  0  0  0  0  0  0  0
   -0.6153    3.1537    0.0000 C   0  0  0  0  0  0  0  0  0  0  0  0
   -1.3319    2.7812    0.0000 C   0  0  0  0  0  0  0  0  0  0  0  0
    0.8057    2.7205    0.0000 O   0  0  0  0  0  0  0  0  0  0  0  0
   -1.7610    1.3805    0.0000 O   0  0  0  0  0  0  0  0  0  0  0  0
   -1.9554   -0.9271    0.0000 C   0  0  0  0  0  0  0  0  0  0  0  0
   -2.6719   -2.1740    0.0000 C   0  0  0  0  0  0  0  0  0  0  0  0
   -0.4008    0.4089    0.0000 C   0  0  0  0  0  0  0  0  0  0  0  0
    0.8259    1.1295    0.0000 C   0  0  0  0  0  0  0  0  0  0  0  0
    0.0041   -0.3077    0.0000 C   0  0  0  0  0  0  0  0  0  0  0  0
    1.2509    0.4089    0.0000 C   0  0  0  0  0  0  0  0  0  0  0  0
   -2.6719   -1.3400    0.0000 C   0  0  0  0  0  0  0  0  0  0  0  0
   -1.9554   -3.4006    0.0000 C   0  0  0  0  0  0  0  0  0  0  0  0
   -3.3966   -2.5789    0.0000 C   0  0  0  0  0  0  0  0  0  0  0  0
   -2.6719   -3.8055    0.0000 C   0  0  0  0  0  0  0  0  0  0  0  0
   -3.3966   -3.4169    0.0000 C   0  0  0  0  0  0  0  0  0  0  0  0
  2 12  1  0  0  0  0
  3  1  2  0  0  0  0
  4  1  1  0  0  0  0
  5  3  1  0  0  0  0
  6  1  1  0  0  0  0
  7  4  1  0  0  0  0
  8  6  1  0  0  0  0
  9  2  1  0  0  0  0
 10  2  1  0  0  0  0
 11  5  1  0  0  0  0
 12 22  2  0  0  0  0
 13  7  1  0  0  0  0
 14  7  2  0  0  0  0
 15 10  1  0  0  0  0
 16  9  1  0  0  0  0
 17 10  2  0  0  0  0
 18  9  2  0  0  0  0
 19  8  1  0  0  0  0
 20 11  2  0  0  0  0
 21 23  2  0  0  0  0
 22 24  1  0  0  0  0
 23 13  1  0  0  0  0
 24 13  2  0  0  0  0
 25 19  2  0  0  0  0
 26 11  1  0  0  0  0
 27 20  1  0  0  0  0
 28 26  2  0  0  0  0
 29 28  1  0  0  0  0
  8  5  2  0  0  0  0
 20 25  1  0  0  0  0
 21 12  1  0  0  0  0
 29 27  2  0  0  0  0
 15 16  1  0  0  0  0
M  END
>  <IDNUMBER>
F0327-0308

>  <Chemical_Name>
4-(2,5-dioxopyrrolidin-1-yl)-N-{naphtho[1,2-d][1,3]thiazol-2-yl}benzamide

>  <PriceCoeff>
1.00

>  <CAS>
330200-76-5

>  <MW>
401.44

>  <Description>
solid

>  <FSP3>
0.09

>  <clogP>
2.80

>  <TPSA>
107.61

>  <Acceptor>
4

>  <Donor>
1

>  <RotBonds>
3

>  <HAC>
29

>  <Collection>
General

>  <PPDS>
+

$$$$
F0327-0315
  Mrv2219 10102508112D          

 32 36  0  0  0  0            999 V2000
   -2.1866   -3.0613    0.0000 C   0  0  0  0  0  0  0  0  0  0  0  0
   -2.6436   -3.7232    0.0000 N   0  0  0  0  0  0  0  0  0  0  0  0
    1.0441    2.2536    0.0000 N   0  0  0  0  0  0  0  0  0  0  0  0
   -1.3553   -2.9825    0.0000 C   0  0  0  0  0  0  0  0  0  0  0  0
   -2.6436   -2.3994    0.0000 S   0  0  0  0  0  0  0  0  0  0  0  0
    0.6895    2.9746    0.0000 C   0  0  0  0  0  0  0  0  0  0  0  0
    1.8597    2.3639    0.0000 C   0  0  0  0  0  0  0  0  0  0  0  0
   -0.3310   -0.7368    0.0000 C   0  0  0  0  0  0  0  0  0  0  0  0
   -3.4159   -3.4790    0.0000 C   0  0  0  0  0  0  0  0  0  0  0  0
   -3.4159   -2.6476    0.0000 C   0  0  0  0  0  0  0  0  0  0  0  0
    0.1418   -1.4184    0.0000 N   0  0  0  0  0  0  0  0  0  0  0  0
    0.6895    1.4971    0.0000 C   0  0  0  0  0  0  0  0  0  0  0  0
   -0.8983   -3.6681    0.0000 C   0  0  0  0  0  0  0  0  0  0  0  0
   -1.0125   -2.2261    0.0000 C   0  0  0  0  0  0  0  0  0  0  0  0
    0.0040    0.0000    0.0000 C   0  0  0  0  0  0  0  0  0  0  0  0
   -0.2009   -2.1748    0.0000 C   0  0  0  0  0  0  0  0  0  0  0  0
    1.9897    3.1637    0.0000 C   0  0  0  0  0  0  0  0  0  0  0  0
    1.2923    3.5419    0.0000 C   0  0  0  0  0  0  0  0  0  0  0  0
   -1.1465   -0.8313    0.0000 O   0  0  0  0  0  0  0  0  0  0  0  0
   -0.1418    3.1204    0.0000 O   0  0  0  0  0  0  0  0  0  0  0  0
    2.4270    1.7808    0.0000 O   0  0  0  0  0  0  0  0  0  0  0  0
    1.1820    0.8352    0.0000 C   0  0  0  0  0  0  0  0  0  0  0  0
   -0.1064    1.4184    0.0000 C   0  0  0  0  0  0  0  0  0  0  0  0
    0.8195    0.0788    0.0000 C   0  0  0  0  0  0  0  0  0  0  0  0
   -0.4688    0.6816    0.0000 C   0  0  0  0  0  0  0  0  0  0  0  0
   -0.0669   -3.5932    0.0000 C   0  0  0  0  0  0  0  0  0  0  0  0
    0.2719   -2.8525    0.0000 C   0  0  0  0  0  0  0  0  0  0  0  0
   -1.2607   -4.4245    0.0000 O   0  0  0  0  0  0  0  0  0  0  0  0
   -4.1329   -3.8926    0.0000 C   0  0  0  0  0  0  0  0  0  0  0  0
   -4.1329   -2.2497    0.0000 C   0  0  0  0  0  0  0  0  0  0  0  0
   -4.8539   -2.6476    0.0000 C   0  0  0  0  0  0  0  0  0  0  0  0
   -4.8539   -3.4790    0.0000 C   0  0  0  0  0  0  0  0  0  0  0  0
  2  1  2  0  0  0  0
  3 12  1  0  0  0  0
  4  1  1  0  0  0  0
  5  1  1  0  0  0  0
  6  3  1  0  0  0  0
  7  3  1  0  0  0  0
  8 11  1  0  0  0  0
  9  2  1  0  0  0  0
 10  5  1  0  0  0  0
 11 16  1  0  0  0  0
 12 23  1  0  0  0  0
 13  4  2  0  0  0  0
 14  4  1  0  0  0  0
 15  8  1  0  0  0  0
 16 14  2  0  0  0  0
 17  7  1  0  0  0  0
 18  6  1  0  0  0  0
 19  8  2  0  0  0  0
 20  6  2  0  0  0  0
 21  7  2  0  0  0  0
 22 24  1  0  0  0  0
 23 25  2  0  0  0  0
 24 15  2  0  0  0  0
 25 15  1  0  0  0  0
 26 13  1  0  0  0  0
 27 16  1  0  0  0  0
 28 13  1  0  0  0  0
 29  9  1  0  0  0  0
 30 10  1  0  0  0  0
 31 30  2  0  0  0  0
 32 29  2  0  0  0  0
  9 10  2  0  0  0  0
 26 27  2  0  0  0  0
 31 32  1  0  0  0  0
 22 12  2  0  0  0  0
 18 17  1  0  0  0  0
M  END
>  <IDNUMBER>
F0327-0315

>  <Chemical_Name>
N-[3-(1,3-benzothiazol-2-yl)-4-hydroxyphenyl]-4-(2,5-dioxopyrrolidin-1-yl)benzamide

>  <PriceCoeff>
1.00

>  <CAS>
313405-85-5

>  <MW>
443.47

>  <Description>
solid

>  <FSP3>
0.08

>  <clogP>
2.24

>  <TPSA>
127.84

>  <Acceptor>
5

>  <Donor>
2

>  <RotBonds>
4

>  <HAC>
32

>  <Collection>
General

>  <PPDS>
+

$$$$
F0327-0316
  Mrv2219 10102508112D          

 32 36  0  0  0  0            999 V2000
    1.7806   -1.9515    0.0000 N   0  0  0  0  0  0  0  0  0  0  0  0
   -0.3002    1.7347    0.0000 C   0  0  0  0  0  0  0  0  0  0  0  0
   -0.7839    1.0508    0.0000 N   0  0  0  0  0  0  0  0  0  0  0  0
   -0.7839    2.3727    0.0000 S   0  0  0  0  0  0  0  0  0  0  0  0
    2.0183   -2.7314    0.0000 C   0  0  0  0  0  0  0  0  0  0  0  0
    0.9382   -1.9515    0.0000 C   0  0  0  0  0  0  0  0  0  0  0  0
   -1.5637    2.1350    0.0000 C   0  0  0  0  0  0  0  0  0  0  0  0
    3.4194    0.9132    0.0000 C   0  0  0  0  0  0  0  0  0  0  0  0
   -1.5637    1.2968    0.0000 C   0  0  0  0  0  0  0  0  0  0  0  0
    3.0191    1.6346    0.0000 N   0  0  0  0  0  0  0  0  0  0  0  0
    2.1809   -1.2302    0.0000 C   0  0  0  0  0  0  0  0  0  0  0  0
    0.5379    1.6971    0.0000 C   0  0  0  0  0  0  0  0  0  0  0  0
    3.0191    0.2127    0.0000 C   0  0  0  0  0  0  0  0  0  0  0  0
   -2.2643    2.5353    0.0000 C   0  0  0  0  0  0  0  0  0  0  0  0
    1.3386   -3.1900    0.0000 C   0  0  0  0  0  0  0  0  0  0  0  0
    0.7006   -2.7314    0.0000 C   0  0  0  0  0  0  0  0  0  0  0  0
    4.2576    0.9132    0.0000 O   0  0  0  0  0  0  0  0  0  0  0  0
    0.4378   -1.2677    0.0000 O   0  0  0  0  0  0  0  0  0  0  0  0
    2.8189   -2.9899    0.0000 O   0  0  0  0  0  0  0  0  0  0  0  0
   -2.2643    0.8965    0.0000 C   0  0  0  0  0  0  0  0  0  0  0  0
    1.7806   -0.5046    0.0000 C   0  0  0  0  0  0  0  0  0  0  0  0
    3.0191   -1.2302    0.0000 C   0  0  0  0  0  0  0  0  0  0  0  0
    2.1809    0.2127    0.0000 C   0  0  0  0  0  0  0  0  0  0  0  0
    3.4194   -0.5046    0.0000 C   0  0  0  0  0  0  0  0  0  0  0  0
    0.9800    2.3727    0.0000 C   0  0  0  0  0  0  0  0  0  0  0  0
    0.9174    0.9507    0.0000 C   0  0  0  0  0  0  0  0  0  0  0  0
    2.1809    1.6346    0.0000 C   0  0  0  0  0  0  0  0  0  0  0  0
   -2.9857    2.1350    0.0000 C   0  0  0  0  0  0  0  0  0  0  0  0
    1.7389    0.9132    0.0000 C   0  0  0  0  0  0  0  0  0  0  0  0
    1.8014    2.3519    0.0000 C   0  0  0  0  0  0  0  0  0  0  0  0
   -2.9857    1.2968    0.0000 C   0  0  0  0  0  0  0  0  0  0  0  0
   -3.7029    2.5520    0.0000 C   0  0  0  0  0  0  0  0  0  0  0  0
  2 12  1  0  0  0  0
  3  2  2  0  0  0  0
  4  2  1  0  0  0  0
  5  1  1  0  0  0  0
  6  1  1  0  0  0  0
  7  4  1  0  0  0  0
  8 13  1  0  0  0  0
  9  3  1  0  0  0  0
 10  8  1  0  0  0  0
 11  1  1  0  0  0  0
 12 25  2  0  0  0  0
 13 24  1  0  0  0  0
 14  7  1  0  0  0  0
 15  5  1  0  0  0  0
 16  6  1  0  0  0  0
 17  8  2  0  0  0  0
 18  6  2  0  0  0  0
 19  5  2  0  0  0  0
 20  9  1  0  0  0  0
 21 11  2  0  0  0  0
 22 11  1  0  0  0  0
 23 21  1  0  0  0  0
 24 22  2  0  0  0  0
 25 30  1  0  0  0  0
 26 29  2  0  0  0  0
 27 10  1  0  0  0  0
 28 14  2  0  0  0  0
 29 27  1  0  0  0  0
 30 27  2  0  0  0  0
 31 20  2  0  0  0  0
 32 28  1  0  0  0  0
 15 16  1  0  0  0  0
 13 23  2  0  0  0  0
 26 12  1  0  0  0  0
  9  7  2  0  0  0  0
 28 31  1  0  0  0  0
M  END
>  <IDNUMBER>
F0327-0316

>  <Chemical_Name>
4-(2,5-dioxopyrrolidin-1-yl)-N-[4-(6-methyl-1,3-benzothiazol-2-yl)phenyl]benzamide

>  <PriceCoeff>
1.00

>  <CAS>
313405-86-6

>  <MW>
441.50

>  <Description>
solid

>  <FSP3>
0.12

>  <clogP>
3.50

>  <TPSA>
107.61

>  <Acceptor>
4

>  <Donor>
1

>  <RotBonds>
4

>  <HAC>
32

>  <Collection>
General

>  <PPDS>
+

$$$$
F0327-0317
  Mrv2219 10102508112D          

 29 33  0  0  0  0            999 V2000
    0.0284   -1.7489    0.0000 C   0  0  0  0  0  0  0  0  0  0  0  0
   -1.2347   -2.1538    0.0000 C   0  0  0  0  0  0  0  0  0  0  0  0
   -0.4574   -2.4088    0.0000 N   0  0  0  0  0  0  0  0  0  0  0  0
   -0.4008    1.8461    0.0000 N   0  0  0  0  0  0  0  0  0  0  0  0
   -1.2347   -1.3400    0.0000 C   0  0  0  0  0  0  0  0  0  0  0  0
    0.8300   -1.7489    0.0000 N   0  0  0  0  0  0  0  0  0  0  0  0
   -0.4574   -1.0850    0.0000 S   0  0  0  0  0  0  0  0  0  0  0  0
    1.2509   -1.0243    0.0000 C   0  0  0  0  0  0  0  0  0  0  0  0
   -1.1983    1.9634    0.0000 C   0  0  0  0  0  0  0  0  0  0  0  0
   -0.0324    2.5869    0.0000 C   0  0  0  0  0  0  0  0  0  0  0  0
   -1.9554   -2.5789    0.0000 C   0  0  0  0  0  0  0  0  0  0  0  0
    0.0284    1.1295    0.0000 C   0  0  0  0  0  0  0  0  0  0  0  0
    0.8421   -0.3077    0.0000 C   0  0  0  0  0  0  0  0  0  0  0  0
   -1.9554   -0.9271    0.0000 C   0  0  0  0  0  0  0  0  0  0  0  0
   -2.6719   -2.1740    0.0000 C   0  0  0  0  0  0  0  0  0  0  0  0
    2.0890   -1.0243    0.0000 O   0  0  0  0  0  0  0  0  0  0  0  0
   -0.6153    3.1537    0.0000 C   0  0  0  0  0  0  0  0  0  0  0  0
   -1.3319    2.7812    0.0000 C   0  0  0  0  0  0  0  0  0  0  0  0
    0.8057    2.7205    0.0000 O   0  0  0  0  0  0  0  0  0  0  0  0
   -1.7610    1.3805    0.0000 O   0  0  0  0  0  0  0  0  0  0  0  0
   -2.6719   -1.3400    0.0000 C   0  0  0  0  0  0  0  0  0  0  0  0
    0.8259    1.1295    0.0000 C   0  0  0  0  0  0  0  0  0  0  0  0
   -0.4008    0.4089    0.0000 C   0  0  0  0  0  0  0  0  0  0  0  0
    1.2509    0.4089    0.0000 C   0  0  0  0  0  0  0  0  0  0  0  0
    0.0041   -0.3077    0.0000 C   0  0  0  0  0  0  0  0  0  0  0  0
   -1.9554   -3.4006    0.0000 C   0  0  0  0  0  0  0  0  0  0  0  0
   -3.3966   -2.5789    0.0000 C   0  0  0  0  0  0  0  0  0  0  0  0
   -2.6719   -3.8055    0.0000 C   0  0  0  0  0  0  0  0  0  0  0  0
   -3.3966   -3.4169    0.0000 C   0  0  0  0  0  0  0  0  0  0  0  0
  2  3  1  0  0  0  0
  3  1  2  0  0  0  0
  4 12  1  0  0  0  0
  5  7  1  0  0  0  0
  6  1  1  0  0  0  0
  7  1  1  0  0  0  0
  8  6  1  0  0  0  0
  9  4  1  0  0  0  0
 10  4  1  0  0  0  0
 11  2  1  0  0  0  0
 12 23  1  0  0  0  0
 13  8  1  0  0  0  0
 14  5  1  0  0  0  0
 15 11  2  0  0  0  0
 16  8  2  0  0  0  0
 17 10  1  0  0  0  0
 18  9  1  0  0  0  0
 19 10  2  0  0  0  0
 20  9  2  0  0  0  0
 21 14  1  0  0  0  0
 22 24  1  0  0  0  0
 23 25  2  0  0  0  0
 24 13  2  0  0  0  0
 25 13  1  0  0  0  0
 26 11  1  0  0  0  0
 27 15  1  0  0  0  0
 28 26  2  0  0  0  0
 29 28  1  0  0  0  0
  2  5  2  0  0  0  0
 21 15  1  0  0  0  0
 22 12  2  0  0  0  0
 27 29  2  0  0  0  0
 18 17  1  0  0  0  0
M  END
>  <IDNUMBER>
F0327-0317

>  <Chemical_Name>
4-(2,5-dioxopyrrolidin-1-yl)-N-{4H,5H-naphtho[1,2-d][1,3]thiazol-2-yl}benzamide

>  <PriceCoeff>
1.00

>  <CAS>
329905-75-1

>  <MW>
403.45

>  <Description>
solid

>  <FSP3>
0.18

>  <clogP>
2.58

>  <TPSA>
107.61

>  <Acceptor>
4

>  <Donor>
1

>  <RotBonds>
3

>  <HAC>
29

>  <Collection>
General

>  <PPDS>
+

$$$$
F0327-0318
  Mrv2219 10102508112D          

 27 30  0  0  0  0            999 V2000
    0.2424   -2.5496    0.0000 N   0  0  0  0  0  0  0  0  0  0  0  0
   -1.8830    2.0136    0.0000 C   0  0  0  0  0  0  0  0  0  0  0  0
   -1.8131    1.2118    0.0000 N   0  0  0  0  0  0  0  0  0  0  0  0
   -1.1419    2.3492    0.0000 S   0  0  0  0  0  0  0  0  0  0  0  0
   -0.5826   -2.6148    0.0000 C   0  0  0  0  0  0  0  0  0  0  0  0
    0.5361   -3.3047    0.0000 C   0  0  0  0  0  0  0  0  0  0  0  0
   -0.6106    1.7479    0.0000 C   0  0  0  0  0  0  0  0  0  0  0  0
    1.8784    0.3169    0.0000 C   0  0  0  0  0  0  0  0  0  0  0  0
   -1.0068    1.0300    0.0000 C   0  0  0  0  0  0  0  0  0  0  0  0
    1.4729    1.0300    0.0000 N   0  0  0  0  0  0  0  0  0  0  0  0
    0.6479   -1.8318    0.0000 C   0  0  0  0  0  0  0  0  0  0  0  0
    0.2237    1.7479    0.0000 C   0  0  0  0  0  0  0  0  0  0  0  0
    1.4729   -0.3962    0.0000 C   0  0  0  0  0  0  0  0  0  0  0  0
    0.6479    1.0300    0.0000 C   0  0  0  0  0  0  0  0  0  0  0  0
   -0.0932   -3.8221    0.0000 C   0  0  0  0  0  0  0  0  0  0  0  0
   -0.7831   -3.3979    0.0000 C   0  0  0  0  0  0  0  0  0  0  0  0
    2.7034    0.3169    0.0000 O   0  0  0  0  0  0  0  0  0  0  0  0
    1.3424   -3.4865    0.0000 O   0  0  0  0  0  0  0  0  0  0  0  0
   -1.1186   -1.9623    0.0000 O   0  0  0  0  0  0  0  0  0  0  0  0
   -2.6241    2.4423    0.0000 S   0  0  0  0  0  0  0  0  0  0  0  0
   -0.6106    0.3169    0.0000 C   0  0  0  0  0  0  0  0  0  0  0  0
    1.4729   -1.8318    0.0000 C   0  0  0  0  0  0  0  0  0  0  0  0
    0.2424   -1.1186    0.0000 C   0  0  0  0  0  0  0  0  0  0  0  0
    1.8784   -1.1186    0.0000 C   0  0  0  0  0  0  0  0  0  0  0  0
    0.6479   -0.3962    0.0000 C   0  0  0  0  0  0  0  0  0  0  0  0
    0.2237    0.3169    0.0000 C   0  0  0  0  0  0  0  0  0  0  0  0
   -2.6241    3.2673    0.0000 C   0  0  0  0  0  0  0  0  0  0  0  0
  2  4  1  0  0  0  0
  3  9  1  0  0  0  0
  4  7  1  0  0  0  0
  5  1  1  0  0  0  0
  6  1  1  0  0  0  0
  7 12  1  0  0  0  0
  8 13  1  0  0  0  0
  9 21  1  0  0  0  0
 10  8  1  0  0  0  0
 11  1  1  0  0  0  0
 12 14  2  0  0  0  0
 13 25  2  0  0  0  0
 14 10  1  0  0  0  0
 15  6  1  0  0  0  0
 16  5  1  0  0  0  0
 17  8  2  0  0  0  0
 18  6  2  0  0  0  0
 19  5  2  0  0  0  0
 20  2  1  0  0  0  0
 21 26  2  0  0  0  0
 22 11  1  0  0  0  0
 23 11  2  0  0  0  0
 24 22  2  0  0  0  0
 25 23  1  0  0  0  0
 26 14  1  0  0  0  0
 27 20  1  0  0  0  0
 16 15  1  0  0  0  0
 24 13  1  0  0  0  0
  7  9  2  0  0  0  0
  2  3  2  0  0  0  0
M  END
>  <IDNUMBER>
F0327-0318

>  <Chemical_Name>
4-(2,5-dioxopyrrolidin-1-yl)-N-[2-(methylsulfanyl)-1,3-benzothiazol-6-yl]benzamide

>  <PriceCoeff>
1.00

>  <CAS>
330200-77-6

>  <MW>
397.47

>  <Description>
solid

>  <FSP3>
0.16

>  <clogP>
2.55

>  <TPSA>
132.91

>  <Acceptor>
4

>  <Donor>
1

>  <RotBonds>
4

>  <HAC>
27

>  <Collection>
General

>  <PPDS>
+

$$$$
F0327-0319
  Mrv2219 10102508112D          

 26 29  0  0  0  0            999 V2000
    0.2424   -2.5496    0.0000 N   0  0  0  0  0  0  0  0  0  0  0  0
   -1.8131    1.2118    0.0000 N   0  0  0  0  0  0  0  0  0  0  0  0
   -1.1419    2.3492    0.0000 S   0  0  0  0  0  0  0  0  0  0  0  0
   -1.8830    2.0136    0.0000 C   0  0  0  0  0  0  0  0  0  0  0  0
   -0.5826   -2.6148    0.0000 C   0  0  0  0  0  0  0  0  0  0  0  0
    0.5361   -3.3047    0.0000 C   0  0  0  0  0  0  0  0  0  0  0  0
   -0.6106    1.7479    0.0000 C   0  0  0  0  0  0  0  0  0  0  0  0
    1.8784    0.3169    0.0000 C   0  0  0  0  0  0  0  0  0  0  0  0
   -1.0068    1.0300    0.0000 C   0  0  0  0  0  0  0  0  0  0  0  0
    1.4729    1.0300    0.0000 N   0  0  0  0  0  0  0  0  0  0  0  0
    0.6479   -1.8318    0.0000 C   0  0  0  0  0  0  0  0  0  0  0  0
    0.2237    1.7479    0.0000 C   0  0  0  0  0  0  0  0  0  0  0  0
    1.4729   -0.3962    0.0000 C   0  0  0  0  0  0  0  0  0  0  0  0
    0.6479    1.0300    0.0000 C   0  0  0  0  0  0  0  0  0  0  0  0
   -0.0932   -3.8221    0.0000 C   0  0  0  0  0  0  0  0  0  0  0  0
   -0.7831   -3.3979    0.0000 C   0  0  0  0  0  0  0  0  0  0  0  0
    2.7034    0.3169    0.0000 O   0  0  0  0  0  0  0  0  0  0  0  0
    1.3424   -3.4865    0.0000 O   0  0  0  0  0  0  0  0  0  0  0  0
   -1.1186   -1.9623    0.0000 O   0  0  0  0  0  0  0  0  0  0  0  0
   -0.6106    0.3169    0.0000 C   0  0  0  0  0  0  0  0  0  0  0  0
    1.4729   -1.8318    0.0000 C   0  0  0  0  0  0  0  0  0  0  0  0
    0.2424   -1.1186    0.0000 C   0  0  0  0  0  0  0  0  0  0  0  0
    1.8784   -1.1186    0.0000 C   0  0  0  0  0  0  0  0  0  0  0  0
    0.6479   -0.3962    0.0000 C   0  0  0  0  0  0  0  0  0  0  0  0
    0.2237    0.3169    0.0000 C   0  0  0  0  0  0  0  0  0  0  0  0
   -2.6241    2.4423    0.0000 C   0  0  0  0  0  0  0  0  0  0  0  0
  2  9  1  0  0  0  0
  3  7  1  0  0  0  0
  4  3  1  0  0  0  0
  5  1  1  0  0  0  0
  6  1  1  0  0  0  0
  7 12  1  0  0  0  0
  8 13  1  0  0  0  0
  9 20  1  0  0  0  0
 10  8  1  0  0  0  0
 11  1  1  0  0  0  0
 12 14  2  0  0  0  0
 13 24  2  0  0  0  0
 14 10  1  0  0  0  0
 15  6  1  0  0  0  0
 16  5  1  0  0  0  0
 17  8  2  0  0  0  0
 18  6  2  0  0  0  0
 19  5  2  0  0  0  0
 20 25  2  0  0  0  0
 21 11  1  0  0  0  0
 22 11  2  0  0  0  0
 23 21  2  0  0  0  0
 24 22  1  0  0  0  0
 25 14  1  0  0  0  0
 26  4  1  0  0  0  0
 15 16  1  0  0  0  0
 13 23  1  0  0  0  0
  9  7  2  0  0  0  0
  2  4  2  0  0  0  0
M  END
>  <IDNUMBER>
F0327-0319

>  <Chemical_Name>
4-(2,5-dioxopyrrolidin-1-yl)-N-(2-methyl-1,3-benzothiazol-6-yl)benzamide

>  <PriceCoeff>
1.00

>  <CAS>
330200-78-7

>  <MW>
365.41

>  <Description>
solid

>  <FSP3>
0.16

>  <clogP>
1.90

>  <TPSA>
107.61

>  <Acceptor>
4

>  <Donor>
1

>  <RotBonds>
3

>  <HAC>
26

>  <Collection>
General

>  <PPDS>
+

$$$$
F0327-0320
  Mrv2219 10102508112D          

 26 29  0  0  0  0            999 V2000
    3.2150   -1.4143    0.0000 N   0  0  0  0  0  0  0  0  0  0  0  0
   -3.3129    0.0147    0.0000 N   0  0  0  0  0  0  0  0  0  0  0  0
   -3.3129    1.3310    0.0000 S   0  0  0  0  0  0  0  0  0  0  0  0
   -2.5202    0.2496    0.0000 C   0  0  0  0  0  0  0  0  0  0  0  0
   -3.7827    0.6459    0.0000 C   0  0  0  0  0  0  0  0  0  0  0  0
    3.9932   -1.1353    0.0000 C   0  0  0  0  0  0  0  0  0  0  0  0
    3.2053   -2.2511    0.0000 C   0  0  0  0  0  0  0  0  0  0  0  0
    0.3720    0.2496    0.0000 C   0  0  0  0  0  0  0  0  0  0  0  0
   -2.5202    1.0961    0.0000 C   0  0  0  0  0  0  0  0  0  0  0  0
   -0.3524   -0.1762    0.0000 N   0  0  0  0  0  0  0  0  0  0  0  0
    2.5447   -0.9983    0.0000 C   0  0  0  0  0  0  0  0  0  0  0  0
   -1.8154   -0.1762    0.0000 C   0  0  0  0  0  0  0  0  0  0  0  0
    1.0766   -0.1762    0.0000 C   0  0  0  0  0  0  0  0  0  0  0  0
   -1.0814    0.2496    0.0000 C   0  0  0  0  0  0  0  0  0  0  0  0
    4.4825   -1.7959    0.0000 C   0  0  0  0  0  0  0  0  0  0  0  0
    4.0372   -2.4713    0.0000 C   0  0  0  0  0  0  0  0  0  0  0  0
    0.3720    1.0717    0.0000 O   0  0  0  0  0  0  0  0  0  0  0  0
    4.2280   -0.3377    0.0000 O   0  0  0  0  0  0  0  0  0  0  0  0
    2.5741   -2.7600    0.0000 O   0  0  0  0  0  0  0  0  0  0  0  0
   -1.8154    1.4925    0.0000 C   0  0  0  0  0  0  0  0  0  0  0  0
    1.7812   -1.3947    0.0000 C   0  0  0  0  0  0  0  0  0  0  0  0
    2.5594   -0.1811    0.0000 C   0  0  0  0  0  0  0  0  0  0  0  0
    1.0766   -0.9738    0.0000 C   0  0  0  0  0  0  0  0  0  0  0  0
    1.8057    0.2496    0.0000 C   0  0  0  0  0  0  0  0  0  0  0  0
   -1.0814    1.0961    0.0000 C   0  0  0  0  0  0  0  0  0  0  0  0
   -4.5804    0.6459    0.0000 C   0  0  0  0  0  0  0  0  0  0  0  0
  2  4  1  0  0  0  0
  3  9  1  0  0  0  0
  4 12  1  0  0  0  0
  5  2  2  0  0  0  0
  6  1  1  0  0  0  0
  7  1  1  0  0  0  0
  8 13  1  0  0  0  0
  9 20  1  0  0  0  0
 10  8  1  0  0  0  0
 11  1  1  0  0  0  0
 12 14  2  0  0  0  0
 13 24  1  0  0  0  0
 14 10  1  0  0  0  0
 15  6  1  0  0  0  0
 16  7  1  0  0  0  0
 17  8  2  0  0  0  0
 18  6  2  0  0  0  0
 19  7  2  0  0  0  0
 20 25  2  0  0  0  0
 21 11  2  0  0  0  0
 22 11  1  0  0  0  0
 23 21  1  0  0  0  0
 24 22  2  0  0  0  0
 25 14  1  0  0  0  0
 26  5  1  0  0  0  0
 16 15  1  0  0  0  0
 23 13  2  0  0  0  0
  9  4  2  0  0  0  0
  5  3  1  0  0  0  0
M  END
>  <IDNUMBER>
F0327-0320

>  <Chemical_Name>
4-(2,5-dioxopyrrolidin-1-yl)-N-(2-methyl-1,3-benzothiazol-5-yl)benzamide

>  <PriceCoeff>
1.00

>  <CAS>
476281-71-7

>  <MW>
365.41

>  <Description>
solid

>  <FSP3>
0.16

>  <clogP>
1.90

>  <TPSA>
107.61

>  <Acceptor>
4

>  <Donor>
1

>  <RotBonds>
3

>  <HAC>
26

>  <Collection>
General

>  <PPDS>
+

$$$$
F0327-0322
  Mrv2219 10102508112D          

 27 30  0  0  0  0            999 V2000
    2.7288   -0.3080    0.0000 N   0  0  0  0  0  0  0  0  0  0  0  0
   -1.7854    0.4054    0.0000 C   0  0  0  0  0  0  0  0  0  0  0  0
   -2.2571   -0.2612    0.0000 N   0  0  0  0  0  0  0  0  0  0  0  0
   -0.9784    0.4054    0.0000 N   0  0  0  0  0  0  0  0  0  0  0  0
   -3.0367   -0.0273    0.0000 C   0  0  0  0  0  0  0  0  0  0  0  0
   -0.5613   -0.3080    0.0000 C   0  0  0  0  0  0  0  0  0  0  0  0
    3.1849   -0.9824    0.0000 C   0  0  0  0  0  0  0  0  0  0  0  0
    3.1966    0.3118    0.0000 C   0  0  0  0  0  0  0  0  0  0  0  0
   -2.2454    1.0603    0.0000 S   0  0  0  0  0  0  0  0  0  0  0  0
   -3.0367    0.8147    0.0000 C   0  0  0  0  0  0  0  0  0  0  0  0
    1.9063   -0.3080    0.0000 C   0  0  0  0  0  0  0  0  0  0  0  0
    0.2612   -0.3080    0.0000 C   0  0  0  0  0  0  0  0  0  0  0  0
   -0.9784   -1.0174    0.0000 O   0  0  0  0  0  0  0  0  0  0  0  0
    3.9762    0.0662    0.0000 C   0  0  0  0  0  0  0  0  0  0  0  0
    3.9802   -0.7485    0.0000 C   0  0  0  0  0  0  0  0  0  0  0  0
    2.9276    1.1071    0.0000 O   0  0  0  0  0  0  0  0  0  0  0  0
    2.9003   -1.7465    0.0000 O   0  0  0  0  0  0  0  0  0  0  0  0
   -3.6682   -0.5185    0.0000 C   0  0  0  0  0  0  0  0  0  0  0  0
    1.4969    0.4054    0.0000 C   0  0  0  0  0  0  0  0  0  0  0  0
    1.4969   -1.0174    0.0000 C   0  0  0  0  0  0  0  0  0  0  0  0
    0.6705    0.4054    0.0000 C   0  0  0  0  0  0  0  0  0  0  0  0
    0.6705   -1.0174    0.0000 C   0  0  0  0  0  0  0  0  0  0  0  0
   -4.4401   -0.2144    0.0000 C   0  0  0  0  0  0  0  0  0  0  0  0
   -3.5552   -1.3449    0.0000 C   0  0  0  0  0  0  0  0  0  0  0  0
   -4.2062   -1.8517    0.0000 C   0  0  0  0  0  0  0  0  0  0  0  0
   -5.0950   -0.7173    0.0000 C   0  0  0  0  0  0  0  0  0  0  0  0
   -4.9781   -1.5437    0.0000 C   0  0  0  0  0  0  0  0  0  0  0  0
  2  4  1  0  0  0  0
  3  2  2  0  0  0  0
  4  6  1  0  0  0  0
  5  3  1  0  0  0  0
  6 12  1  0  0  0  0
  7  1  1  0  0  0  0
  8  1  1  0  0  0  0
  9  2  1  0  0  0  0
 10  9  1  0  0  0  0
 11  1  1  0  0  0  0
 12 22  2  0  0  0  0
 13  6  2  0  0  0  0
 14  8  1  0  0  0  0
 15  7  1  0  0  0  0
 16  8  2  0  0  0  0
 17  7  2  0  0  0  0
 18  5  1  0  0  0  0
 19 11  1  0  0  0  0
 20 11  2  0  0  0  0
 21 19  2  0  0  0  0
 22 20  1  0  0  0  0
 23 18  2  0  0  0  0
 24 18  1  0  0  0  0
 25 24  2  0  0  0  0
 26 23  1  0  0  0  0
 27 25  1  0  0  0  0
 14 15  1  0  0  0  0
 21 12  1  0  0  0  0
  5 10  2  0  0  0  0
 27 26  2  0  0  0  0
M  END
>  <IDNUMBER>
F0327-0322

>  <Chemical_Name>
4-(2,5-dioxopyrrolidin-1-yl)-N-(4-phenyl-1,3-thiazol-2-yl)benzamide

>  <PriceCoeff>
1.00

>  <CAS>
476281-72-8

>  <MW>
377.42

>  <Description>
solid

>  <FSP3>
0.10

>  <clogP>
2.13

>  <TPSA>
107.61

>  <Acceptor>
4

>  <Donor>
1

>  <RotBonds>
4

>  <HAC>
27

>  <Collection>
General

>  <PPDS>
+

$$$$
F0327-0323
  Mrv2219 10102508112D          

 28 31  0  0  0  0            999 V2000
    4.1283    0.3272    0.0000 N   0  0  0  0  0  0  0  0  0  0  0  0
   -0.3739    1.0398    0.0000 C   0  0  0  0  0  0  0  0  0  0  0  0
   -0.8529    0.3739    0.0000 N   0  0  0  0  0  0  0  0  0  0  0  0
    0.4246    1.0398    0.0000 N   0  0  0  0  0  0  0  0  0  0  0  0
   -1.6318    0.6075    0.0000 C   0  0  0  0  0  0  0  0  0  0  0  0
    0.8412    0.3272    0.0000 C   0  0  0  0  0  0  0  0  0  0  0  0
    4.5840   -0.3428    0.0000 C   0  0  0  0  0  0  0  0  0  0  0  0
    4.5957    0.9464    0.0000 C   0  0  0  0  0  0  0  0  0  0  0  0
   -0.8412    1.6941    0.0000 S   0  0  0  0  0  0  0  0  0  0  0  0
   -1.6318    1.4488    0.0000 C   0  0  0  0  0  0  0  0  0  0  0  0
    3.3065    0.3272    0.0000 C   0  0  0  0  0  0  0  0  0  0  0  0
    1.6631    0.3272    0.0000 C   0  0  0  0  0  0  0  0  0  0  0  0
   -2.2627    0.1129    0.0000 C   0  0  0  0  0  0  0  0  0  0  0  0
    0.4246   -0.3778    0.0000 O   0  0  0  0  0  0  0  0  0  0  0  0
    5.3784   -0.1091    0.0000 C   0  0  0  0  0  0  0  0  0  0  0  0
    5.3745    0.7010    0.0000 C   0  0  0  0  0  0  0  0  0  0  0  0
    4.2996   -1.1100    0.0000 O   0  0  0  0  0  0  0  0  0  0  0  0
    4.3269    1.7408    0.0000 O   0  0  0  0  0  0  0  0  0  0  0  0
    2.8975    1.0398    0.0000 C   0  0  0  0  0  0  0  0  0  0  0  0
    2.8975   -0.3778    0.0000 C   0  0  0  0  0  0  0  0  0  0  0  0
    2.0719    1.0398    0.0000 C   0  0  0  0  0  0  0  0  0  0  0  0
    2.0719   -0.3778    0.0000 C   0  0  0  0  0  0  0  0  0  0  0  0
   -3.0338    0.4207    0.0000 C   0  0  0  0  0  0  0  0  0  0  0  0
   -2.1498   -0.7049    0.0000 C   0  0  0  0  0  0  0  0  0  0  0  0
   -3.5713   -0.9036    0.0000 C   0  0  0  0  0  0  0  0  0  0  0  0
   -2.8002   -1.2151    0.0000 C   0  0  0  0  0  0  0  0  0  0  0  0
   -3.6882   -0.0818    0.0000 C   0  0  0  0  0  0  0  0  0  0  0  0
   -4.2256   -1.4021    0.0000 Cl  0  0  0  0  0  0  0  0  0  0  0  0
  2  4  1  0  0  0  0
  3  2  2  0  0  0  0
  4  6  1  0  0  0  0
  5  3  1  0  0  0  0
  6 12  1  0  0  0  0
  7  1  1  0  0  0  0
  8  1  1  0  0  0  0
  9  2  1  0  0  0  0
 10  9  1  0  0  0  0
 11  1  1  0  0  0  0
 12 22  2  0  0  0  0
 13  5  1  0  0  0  0
 14  6  2  0  0  0  0
 15  7  1  0  0  0  0
 16  8  1  0  0  0  0
 17  7  2  0  0  0  0
 18  8  2  0  0  0  0
 19 11  1  0  0  0  0
 20 11  2  0  0  0  0
 21 19  2  0  0  0  0
 22 20  1  0  0  0  0
 23 13  2  0  0  0  0
 24 13  1  0  0  0  0
 25 26  1  0  0  0  0
 26 24  2  0  0  0  0
 27 23  1  0  0  0  0
 28 25  1  0  0  0  0
 15 16  1  0  0  0  0
 12 21  1  0  0  0  0
 10  5  2  0  0  0  0
 27 25  2  0  0  0  0
M  END
>  <IDNUMBER>
F0327-0323

>  <Chemical_Name>
N-[4-(4-chlorophenyl)-1,3-thiazol-2-yl]-4-(2,5-dioxopyrrolidin-1-yl)benzamide

>  <PriceCoeff>
1.00

>  <CAS>
392246-33-2

>  <MW>
411.86

>  <Description>
solid

>  <FSP3>
0.10

>  <clogP>
2.85

>  <TPSA>
107.61

>  <Acceptor>
4

>  <Donor>
1

>  <RotBonds>
4

>  <HAC>
28

>  <Collection>
General

>  <PPDS>
+

$$$$
F0327-0324
  Mrv2219 10102508112D          

 28 31  0  0  0  0            999 V2000
    4.1283    0.3272    0.0000 N   0  0  0  0  0  0  0  0  0  0  0  0
   -0.3739    1.0398    0.0000 C   0  0  0  0  0  0  0  0  0  0  0  0
   -0.8529    0.3739    0.0000 N   0  0  0  0  0  0  0  0  0  0  0  0
    0.4246    1.0398    0.0000 N   0  0  0  0  0  0  0  0  0  0  0  0
   -1.6318    0.6075    0.0000 C   0  0  0  0  0  0  0  0  0  0  0  0
    0.8412    0.3272    0.0000 C   0  0  0  0  0  0  0  0  0  0  0  0
    4.5840   -0.3428    0.0000 C   0  0  0  0  0  0  0  0  0  0  0  0
    4.5957    0.9464    0.0000 C   0  0  0  0  0  0  0  0  0  0  0  0
   -0.8412    1.6941    0.0000 S   0  0  0  0  0  0  0  0  0  0  0  0
   -1.6318    1.4488    0.0000 C   0  0  0  0  0  0  0  0  0  0  0  0
    3.3065    0.3272    0.0000 C   0  0  0  0  0  0  0  0  0  0  0  0
    1.6631    0.3272    0.0000 C   0  0  0  0  0  0  0  0  0  0  0  0
   -2.2627    0.1129    0.0000 C   0  0  0  0  0  0  0  0  0  0  0  0
    0.4246   -0.3778    0.0000 O   0  0  0  0  0  0  0  0  0  0  0  0
    5.3784   -0.1091    0.0000 C   0  0  0  0  0  0  0  0  0  0  0  0
    5.3745    0.7010    0.0000 C   0  0  0  0  0  0  0  0  0  0  0  0
    4.2996   -1.1100    0.0000 O   0  0  0  0  0  0  0  0  0  0  0  0
    4.3269    1.7408    0.0000 O   0  0  0  0  0  0  0  0  0  0  0  0
    2.8975    1.0398    0.0000 C   0  0  0  0  0  0  0  0  0  0  0  0
    2.8975   -0.3778    0.0000 C   0  0  0  0  0  0  0  0  0  0  0  0
    2.0719    1.0398    0.0000 C   0  0  0  0  0  0  0  0  0  0  0  0
    2.0719   -0.3778    0.0000 C   0  0  0  0  0  0  0  0  0  0  0  0
   -3.0338    0.4207    0.0000 C   0  0  0  0  0  0  0  0  0  0  0  0
   -2.1498   -0.7049    0.0000 C   0  0  0  0  0  0  0  0  0  0  0  0
   -3.5713   -0.9036    0.0000 C   0  0  0  0  0  0  0  0  0  0  0  0
   -2.8002   -1.2151    0.0000 C   0  0  0  0  0  0  0  0  0  0  0  0
   -3.6882   -0.0818    0.0000 C   0  0  0  0  0  0  0  0  0  0  0  0
   -4.2256   -1.4021    0.0000 Br  0  0  0  0  0  0  0  0  0  0  0  0
  2  4  1  0  0  0  0
  3  2  2  0  0  0  0
  4  6  1  0  0  0  0
  5  3  1  0  0  0  0
  6 12  1  0  0  0  0
  7  1  1  0  0  0  0
  8  1  1  0  0  0  0
  9  2  1  0  0  0  0
 10  9  1  0  0  0  0
 11  1  1  0  0  0  0
 12 22  2  0  0  0  0
 13  5  1  0  0  0  0
 14  6  2  0  0  0  0
 15  7  1  0  0  0  0
 16  8  1  0  0  0  0
 17  7  2  0  0  0  0
 18  8  2  0  0  0  0
 19 11  1  0  0  0  0
 20 11  2  0  0  0  0
 21 19  2  0  0  0  0
 22 20  1  0  0  0  0
 23 13  2  0  0  0  0
 24 13  1  0  0  0  0
 25 26  1  0  0  0  0
 26 24  2  0  0  0  0
 27 23  1  0  0  0  0
 28 25  1  0  0  0  0
 16 15  1  0  0  0  0
 21 12  1  0  0  0  0
  5 10  2  0  0  0  0
 25 27  2  0  0  0  0
M  END
>  <IDNUMBER>
F0327-0324

>  <Chemical_Name>
N-[4-(4-bromophenyl)-1,3-thiazol-2-yl]-4-(2,5-dioxopyrrolidin-1-yl)benzamide

>  <PriceCoeff>
1.00

>  <CAS>
313405-87-7

>  <MW>
456.31

>  <Description>
solid

>  <FSP3>
0.10

>  <clogP>
3.00

>  <TPSA>
107.61

>  <Acceptor>
4

>  <Donor>
1

>  <RotBonds>
4

>  <HAC>
28

>  <Collection>
General

>  <PPDS>
+

$$$$
F0327-0327
  Mrv2219 10102508112D          

 28 31  0  0  0  0            999 V2000
    4.1410    0.3281    0.0000 N   0  0  0  0  0  0  0  0  0  0  0  0
   -0.3750    1.0431    0.0000 C   0  0  0  0  0  0  0  0  0  0  0  0
   -0.8556    0.3750    0.0000 N   0  0  0  0  0  0  0  0  0  0  0  0
    0.4258    1.0431    0.0000 N   0  0  0  0  0  0  0  0  0  0  0  0
   -1.6369    0.6095    0.0000 C   0  0  0  0  0  0  0  0  0  0  0  0
    0.8438    0.3281    0.0000 C   0  0  0  0  0  0  0  0  0  0  0  0
    4.5981   -0.3438    0.0000 C   0  0  0  0  0  0  0  0  0  0  0  0
    4.6098    0.9493    0.0000 C   0  0  0  0  0  0  0  0  0  0  0  0
   -0.8438    1.6994    0.0000 S   0  0  0  0  0  0  0  0  0  0  0  0
   -1.6369    1.4532    0.0000 C   0  0  0  0  0  0  0  0  0  0  0  0
    3.3167    0.3281    0.0000 C   0  0  0  0  0  0  0  0  0  0  0  0
    1.6682    0.3281    0.0000 C   0  0  0  0  0  0  0  0  0  0  0  0
   -2.2697    0.1132    0.0000 C   0  0  0  0  0  0  0  0  0  0  0  0
    0.4258   -0.3789    0.0000 O   0  0  0  0  0  0  0  0  0  0  0  0
    5.3950   -0.1094    0.0000 C   0  0  0  0  0  0  0  0  0  0  0  0
    5.3911    0.7032    0.0000 C   0  0  0  0  0  0  0  0  0  0  0  0
    4.3129   -1.1134    0.0000 O   0  0  0  0  0  0  0  0  0  0  0  0
    4.3403    1.7463    0.0000 O   0  0  0  0  0  0  0  0  0  0  0  0
    2.9065    1.0431    0.0000 C   0  0  0  0  0  0  0  0  0  0  0  0
    2.9065   -0.3789    0.0000 C   0  0  0  0  0  0  0  0  0  0  0  0
    2.0783    1.0431    0.0000 C   0  0  0  0  0  0  0  0  0  0  0  0
    2.0783   -0.3789    0.0000 C   0  0  0  0  0  0  0  0  0  0  0  0
   -3.0432    0.4219    0.0000 C   0  0  0  0  0  0  0  0  0  0  0  0
   -2.1564   -0.7072    0.0000 C   0  0  0  0  0  0  0  0  0  0  0  0
   -2.8088   -1.2188    0.0000 C   0  0  0  0  0  0  0  0  0  0  0  0
   -3.6995   -0.0820    0.0000 C   0  0  0  0  0  0  0  0  0  0  0  0
   -3.5823   -0.9064    0.0000 C   0  0  0  0  0  0  0  0  0  0  0  0
   -4.2386   -1.4063    0.0000 C   0  0  0  0  0  0  0  0  0  0  0  0
  2  4  1  0  0  0  0
  3  2  2  0  0  0  0
  4  6  1  0  0  0  0
  5  3  1  0  0  0  0
  6 12  1  0  0  0  0
  7  1  1  0  0  0  0
  8  1  1  0  0  0  0
  9  2  1  0  0  0  0
 10  9  1  0  0  0  0
 11  1  1  0  0  0  0
 12 22  2  0  0  0  0
 13  5  1  0  0  0  0
 14  6  2  0  0  0  0
 15  7  1  0  0  0  0
 16  8  1  0  0  0  0
 17  7  2  0  0  0  0
 18  8  2  0  0  0  0
 19 11  1  0  0  0  0
 20 11  2  0  0  0  0
 21 19  2  0  0  0  0
 22 20  1  0  0  0  0
 23 13  2  0  0  0  0
 24 13  1  0  0  0  0
 25 24  2  0  0  0  0
 26 23  1  0  0  0  0
 27 25  1  0  0  0  0
 28 27  1  0  0  0  0
 15 16  1  0  0  0  0
 12 21  1  0  0  0  0
 10  5  2  0  0  0  0
 26 27  2  0  0  0  0
M  END
>  <IDNUMBER>
F0327-0327

>  <Chemical_Name>
4-(2,5-dioxopyrrolidin-1-yl)-N-[4-(4-methylphenyl)-1,3-thiazol-2-yl]benzamide

>  <PriceCoeff>
1.00

>  <CAS>
406194-82-9

>  <MW>
391.44

>  <Description>
solid

>  <FSP3>
0.14

>  <clogP>
2.62

>  <TPSA>
107.61

>  <Acceptor>
4

>  <Donor>
1

>  <RotBonds>
4

>  <HAC>
28

>  <Collection>
General

>  <PPDS>
+

$$$$
F0327-0329
  Mrv2219 10102508112D          

 29 32  0  0  0  0            999 V2000
    4.1410    0.3281    0.0000 N   0  0  0  0  0  0  0  0  0  0  0  0
   -0.3750    1.0431    0.0000 C   0  0  0  0  0  0  0  0  0  0  0  0
   -0.8556    0.3750    0.0000 N   0  0  0  0  0  0  0  0  0  0  0  0
    0.4258    1.0431    0.0000 N   0  0  0  0  0  0  0  0  0  0  0  0
   -1.6369    0.6095    0.0000 C   0  0  0  0  0  0  0  0  0  0  0  0
    0.8438    0.3281    0.0000 C   0  0  0  0  0  0  0  0  0  0  0  0
    4.5981   -0.3438    0.0000 C   0  0  0  0  0  0  0  0  0  0  0  0
    4.6098    0.9493    0.0000 C   0  0  0  0  0  0  0  0  0  0  0  0
   -0.8438    1.6994    0.0000 S   0  0  0  0  0  0  0  0  0  0  0  0
   -1.6369    1.4532    0.0000 C   0  0  0  0  0  0  0  0  0  0  0  0
   -2.2697    0.1132    0.0000 C   0  0  0  0  0  0  0  0  0  0  0  0
    3.3167    0.3281    0.0000 C   0  0  0  0  0  0  0  0  0  0  0  0
   -3.0432    0.4219    0.0000 C   0  0  0  0  0  0  0  0  0  0  0  0
   -3.6995   -0.0820    0.0000 C   0  0  0  0  0  0  0  0  0  0  0  0
    1.6682    0.3281    0.0000 C   0  0  0  0  0  0  0  0  0  0  0  0
    0.4258   -0.3789    0.0000 O   0  0  0  0  0  0  0  0  0  0  0  0
    5.3911    0.7032    0.0000 C   0  0  0  0  0  0  0  0  0  0  0  0
    5.3950   -0.1094    0.0000 C   0  0  0  0  0  0  0  0  0  0  0  0
    4.3403    1.7463    0.0000 O   0  0  0  0  0  0  0  0  0  0  0  0
    4.3129   -1.1134    0.0000 O   0  0  0  0  0  0  0  0  0  0  0  0
   -3.5823   -0.9064    0.0000 C   0  0  0  0  0  0  0  0  0  0  0  0
   -2.1564   -0.7072    0.0000 C   0  0  0  0  0  0  0  0  0  0  0  0
    2.9065    1.0431    0.0000 C   0  0  0  0  0  0  0  0  0  0  0  0
    2.9065   -0.3789    0.0000 C   0  0  0  0  0  0  0  0  0  0  0  0
    2.0783    1.0431    0.0000 C   0  0  0  0  0  0  0  0  0  0  0  0
    2.0783   -0.3789    0.0000 C   0  0  0  0  0  0  0  0  0  0  0  0
   -2.8088   -1.2188    0.0000 C   0  0  0  0  0  0  0  0  0  0  0  0
   -4.4535    0.2304    0.0000 C   0  0  0  0  0  0  0  0  0  0  0  0
   -4.2386   -1.4063    0.0000 C   0  0  0  0  0  0  0  0  0  0  0  0
  2  4  1  0  0  0  0
  3  2  2  0  0  0  0
  4  6  1  0  0  0  0
  5  3  1  0  0  0  0
  6 15  1  0  0  0  0
  7  1  1  0  0  0  0
  8  1  1  0  0  0  0
  9  2  1  0  0  0  0
 10  9  1  0  0  0  0
 11  5  1  0  0  0  0
 12  1  1  0  0  0  0
 13 11  2  0  0  0  0
 14 13  1  0  0  0  0
 15 26  2  0  0  0  0
 16  6  2  0  0  0  0
 17  8  1  0  0  0  0
 18  7  1  0  0  0  0
 19  8  2  0  0  0  0
 20  7  2  0  0  0  0
 21 27  1  0  0  0  0
 22 11  1  0  0  0  0
 23 12  1  0  0  0  0
 24 12  2  0  0  0  0
 25 23  2  0  0  0  0
 26 24  1  0  0  0  0
 27 22  2  0  0  0  0
 28 14  1  0  0  0  0
 29 21  1  0  0  0  0
 18 17  1  0  0  0  0
 25 15  1  0  0  0  0
 10  5  2  0  0  0  0
 14 21  2  0  0  0  0
M  END
>  <IDNUMBER>
F0327-0329

>  <Chemical_Name>
N-[4-(3,4-dimethylphenyl)-1,3-thiazol-2-yl]-4-(2,5-dioxopyrrolidin-1-yl)benzamide

>  <PriceCoeff>
1.00

>  <CAS>
392246-34-3

>  <MW>
405.47

>  <Description>
solid

>  <FSP3>
0.18

>  <clogP>
3.07

>  <TPSA>
107.61

>  <Acceptor>
4

>  <Donor>
1

>  <RotBonds>
4

>  <HAC>
29

>  <Collection>
General

>  <PPDS>
+

$$$$
F0327-0331
  Mrv2219 10102508112D          

 29 32  0  0  0  0            999 V2000
    4.1365    0.3278    0.0000 N   0  0  0  0  0  0  0  0  0  0  0  0
   -0.3746    1.0419    0.0000 C   0  0  0  0  0  0  0  0  0  0  0  0
   -0.8546    0.3746    0.0000 N   0  0  0  0  0  0  0  0  0  0  0  0
   -1.6351    0.6088    0.0000 C   0  0  0  0  0  0  0  0  0  0  0  0
    0.4254    1.0419    0.0000 N   0  0  0  0  0  0  0  0  0  0  0  0
   -2.2672    0.1131    0.0000 C   0  0  0  0  0  0  0  0  0  0  0  0
    0.8429    0.3278    0.0000 C   0  0  0  0  0  0  0  0  0  0  0  0
    4.6048    0.9483    0.0000 C   0  0  0  0  0  0  0  0  0  0  0  0
    4.5931   -0.3434    0.0000 C   0  0  0  0  0  0  0  0  0  0  0  0
   -0.8429    1.6975    0.0000 S   0  0  0  0  0  0  0  0  0  0  0  0
   -1.6351    1.4517    0.0000 C   0  0  0  0  0  0  0  0  0  0  0  0
    3.3131    0.3278    0.0000 C   0  0  0  0  0  0  0  0  0  0  0  0
   -2.1541   -0.7064    0.0000 C   0  0  0  0  0  0  0  0  0  0  0  0
    1.6663    0.3278    0.0000 C   0  0  0  0  0  0  0  0  0  0  0  0
   -3.0399    0.4215    0.0000 C   0  0  0  0  0  0  0  0  0  0  0  0
    0.4254   -0.3786    0.0000 O   0  0  0  0  0  0  0  0  0  0  0  0
    5.3892   -0.1093    0.0000 C   0  0  0  0  0  0  0  0  0  0  0  0
    5.3852    0.7024    0.0000 C   0  0  0  0  0  0  0  0  0  0  0  0
    4.3082   -1.1122    0.0000 O   0  0  0  0  0  0  0  0  0  0  0  0
    4.3355    1.7444    0.0000 O   0  0  0  0  0  0  0  0  0  0  0  0
    2.9034    1.0419    0.0000 C   0  0  0  0  0  0  0  0  0  0  0  0
    2.9034   -0.3786    0.0000 C   0  0  0  0  0  0  0  0  0  0  0  0
    2.0761    1.0419    0.0000 C   0  0  0  0  0  0  0  0  0  0  0  0
    2.0761   -0.3786    0.0000 C   0  0  0  0  0  0  0  0  0  0  0  0
   -2.8058   -1.2175    0.0000 C   0  0  0  0  0  0  0  0  0  0  0  0
   -3.6955   -0.0819    0.0000 C   0  0  0  0  0  0  0  0  0  0  0  0
   -1.4009   -1.0302    0.0000 Cl  0  0  0  0  0  0  0  0  0  0  0  0
   -3.5784   -0.9054    0.0000 C   0  0  0  0  0  0  0  0  0  0  0  0
   -4.4487    0.2302    0.0000 Cl  0  0  0  0  0  0  0  0  0  0  0  0
  2  5  1  0  0  0  0
  3  2  2  0  0  0  0
  4  3  1  0  0  0  0
  5  7  1  0  0  0  0
  6  4  1  0  0  0  0
  7 14  1  0  0  0  0
  8  1  1  0  0  0  0
  9  1  1  0  0  0  0
 10  2  1  0  0  0  0
 11 10  1  0  0  0  0
 12  1  1  0  0  0  0
 13  6  1  0  0  0  0
 14 24  2  0  0  0  0
 15  6  2  0  0  0  0
 16  7  2  0  0  0  0
 17  9  1  0  0  0  0
 18  8  1  0  0  0  0
 19  9  2  0  0  0  0
 20  8  2  0  0  0  0
 21 12  1  0  0  0  0
 22 12  2  0  0  0  0
 23 21  2  0  0  0  0
 24 22  1  0  0  0  0
 25 13  2  0  0  0  0
 26 15  1  0  0  0  0
 27 13  1  0  0  0  0
 28 26  2  0  0  0  0
 29 26  1  0  0  0  0
 17 18  1  0  0  0  0
 23 14  1  0  0  0  0
 11  4  2  0  0  0  0
 28 25  1  0  0  0  0
M  END
>  <IDNUMBER>
F0327-0331

>  <Chemical_Name>
N-[4-(2,5-dichlorophenyl)-1,3-thiazol-2-yl]-4-(2,5-dioxopyrrolidin-1-yl)benzamide

>  <PriceCoeff>
1.00

>  <CAS>
330200-80-1

>  <MW>
446.31

>  <Description>
solid

>  <FSP3>
0.10

>  <clogP>
3.31

>  <TPSA>
107.61

>  <Acceptor>
4

>  <Donor>
1

>  <RotBonds>
4

>  <HAC>
29

>  <Collection>
General

>  <PPDS>
+

$$$$
F0327-0334
  Mrv2219 10102508112D          

 31 34  0  0  0  0            999 V2000
    4.1253    0.3269    0.0000 N   0  0  0  0  0  0  0  0  0  0  0  0
   -0.3736    1.0391    0.0000 C   0  0  0  0  0  0  0  0  0  0  0  0
   -0.8523    0.3736    0.0000 N   0  0  0  0  0  0  0  0  0  0  0  0
    0.4242    1.0391    0.0000 N   0  0  0  0  0  0  0  0  0  0  0  0
   -1.6306    0.6071    0.0000 C   0  0  0  0  0  0  0  0  0  0  0  0
    0.8406    0.3269    0.0000 C   0  0  0  0  0  0  0  0  0  0  0  0
    4.5923    0.9457    0.0000 C   0  0  0  0  0  0  0  0  0  0  0  0
    4.5806   -0.3425    0.0000 C   0  0  0  0  0  0  0  0  0  0  0  0
   -0.8406    1.6929    0.0000 S   0  0  0  0  0  0  0  0  0  0  0  0
   -1.6306    1.4477    0.0000 C   0  0  0  0  0  0  0  0  0  0  0  0
    3.3041    0.3269    0.0000 C   0  0  0  0  0  0  0  0  0  0  0  0
   -2.2611    0.1128    0.0000 C   0  0  0  0  0  0  0  0  0  0  0  0
    1.6618    0.3269    0.0000 C   0  0  0  0  0  0  0  0  0  0  0  0
   -4.2225   -1.4010    0.0000 C   0  0  0  0  0  0  0  0  0  0  0  0
   -3.5687   -0.9029    0.0000 C   0  0  0  0  0  0  0  0  0  0  0  0
    0.4242   -0.3775    0.0000 O   0  0  0  0  0  0  0  0  0  0  0  0
    5.3745   -0.1090    0.0000 C   0  0  0  0  0  0  0  0  0  0  0  0
    5.3706    0.7005    0.0000 C   0  0  0  0  0  0  0  0  0  0  0  0
    4.2965   -1.1091    0.0000 O   0  0  0  0  0  0  0  0  0  0  0  0
    4.3238    1.7396    0.0000 O   0  0  0  0  0  0  0  0  0  0  0  0
    2.8955    1.0391    0.0000 C   0  0  0  0  0  0  0  0  0  0  0  0
    2.8955   -0.3775    0.0000 C   0  0  0  0  0  0  0  0  0  0  0  0
    2.0704    1.0391    0.0000 C   0  0  0  0  0  0  0  0  0  0  0  0
    2.0704   -0.3775    0.0000 C   0  0  0  0  0  0  0  0  0  0  0  0
   -2.1482   -0.7044    0.0000 C   0  0  0  0  0  0  0  0  0  0  0  0
   -3.0316    0.4203    0.0000 C   0  0  0  0  0  0  0  0  0  0  0  0
   -2.7981   -1.2142    0.0000 C   0  0  0  0  0  0  0  0  0  0  0  0
   -3.6855   -0.0817    0.0000 C   0  0  0  0  0  0  0  0  0  0  0  0
   -4.7479   -0.7472    0.0000 C   0  0  0  0  0  0  0  0  0  0  0  0
   -3.7088   -2.0588    0.0000 C   0  0  0  0  0  0  0  0  0  0  0  0
   -4.9620   -2.0237    0.0000 C   0  0  0  0  0  0  0  0  0  0  0  0
  2  4  1  0  0  0  0
  3  2  2  0  0  0  0
  4  6  1  0  0  0  0
  5  3  1  0  0  0  0
  6 13  1  0  0  0  0
  7  1  1  0  0  0  0
  8  1  1  0  0  0  0
  9  2  1  0  0  0  0
 10  9  1  0  0  0  0
 11  1  1  0  0  0  0
 12  5  1  0  0  0  0
 13 24  2  0  0  0  0
 14 15  1  0  0  0  0
 15 28  2  0  0  0  0
 16  6  2  0  0  0  0
 17  8  1  0  0  0  0
 18  7  1  0  0  0  0
 19  8  2  0  0  0  0
 20  7  2  0  0  0  0
 21 11  1  0  0  0  0
 22 11  2  0  0  0  0
 23 21  2  0  0  0  0
 24 22  1  0  0  0  0
 25 12  1  0  0  0  0
 26 12  2  0  0  0  0
 27 25  2  0  0  0  0
 28 26  1  0  0  0  0
 29 14  1  0  0  0  0
 30 14  1  0  0  0  0
 31 14  1  0  0  0  0
 18 17  1  0  0  0  0
 23 13  1  0  0  0  0
  5 10  2  0  0  0  0
 27 15  1  0  0  0  0
M  END
>  <IDNUMBER>
F0327-0334

>  <Chemical_Name>
N-[4-(4-tert-butylphenyl)-1,3-thiazol-2-yl]-4-(2,5-dioxopyrrolidin-1-yl)benzamide

>  <PriceCoeff>
1.00

>  <CAS>
330200-81-2

>  <MW>
433.52

>  <Description>
solid

>  <FSP3>
0.25

>  <clogP>
3.95

>  <TPSA>
107.61

>  <Acceptor>
4

>  <Donor>
1

>  <RotBonds>
4

>  <HAC>
31

>  <Collection>
General

>  <PPDS>
+

$$$$
F0327-0335
  Mrv2219 10102508112D          

 30 33  0  0  0  0            999 V2000
   -1.6382    0.6099    0.0000 C   0  0  0  0  0  0  0  0  0  0  0  0
    4.1444    0.3284    0.0000 N   0  0  0  0  0  0  0  0  0  0  0  0
   -0.8562    0.3753    0.0000 N   0  0  0  0  0  0  0  0  0  0  0  0
   -0.3753    1.0439    0.0000 C   0  0  0  0  0  0  0  0  0  0  0  0
    0.4262    1.0439    0.0000 N   0  0  0  0  0  0  0  0  0  0  0  0
   -2.2716    0.1134    0.0000 C   0  0  0  0  0  0  0  0  0  0  0  0
    0.8445    0.3284    0.0000 C   0  0  0  0  0  0  0  0  0  0  0  0
    4.6019   -0.3441    0.0000 C   0  0  0  0  0  0  0  0  0  0  0  0
    4.6136    0.9501    0.0000 C   0  0  0  0  0  0  0  0  0  0  0  0
   -0.8445    1.7008    0.0000 S   0  0  0  0  0  0  0  0  0  0  0  0
   -1.6382    1.4544    0.0000 C   0  0  0  0  0  0  0  0  0  0  0  0
   -2.1582   -0.7077    0.0000 C   0  0  0  0  0  0  0  0  0  0  0  0
   -3.0457    0.4223    0.0000 C   0  0  0  0  0  0  0  0  0  0  0  0
    3.3194    0.3284    0.0000 C   0  0  0  0  0  0  0  0  0  0  0  0
    1.6695    0.3284    0.0000 C   0  0  0  0  0  0  0  0  0  0  0  0
   -2.8111   -1.2199    0.0000 C   0  0  0  0  0  0  0  0  0  0  0  0
   -3.7026   -0.0821    0.0000 C   0  0  0  0  0  0  0  0  0  0  0  0
    0.4262   -0.3793    0.0000 O   0  0  0  0  0  0  0  0  0  0  0  0
    5.3995   -0.1095    0.0000 C   0  0  0  0  0  0  0  0  0  0  0  0
    5.3955    0.7038    0.0000 C   0  0  0  0  0  0  0  0  0  0  0  0
    4.3164   -1.1143    0.0000 O   0  0  0  0  0  0  0  0  0  0  0  0
    4.3438    1.7477    0.0000 O   0  0  0  0  0  0  0  0  0  0  0  0
   -3.5853   -0.9071    0.0000 C   0  0  0  0  0  0  0  0  0  0  0  0
    2.9089    1.0439    0.0000 C   0  0  0  0  0  0  0  0  0  0  0  0
    2.9089   -0.3793    0.0000 C   0  0  0  0  0  0  0  0  0  0  0  0
    2.0800    1.0439    0.0000 C   0  0  0  0  0  0  0  0  0  0  0  0
    2.0800   -0.3793    0.0000 C   0  0  0  0  0  0  0  0  0  0  0  0
   -3.1552    1.2394    0.0000 C   0  0  0  0  0  0  0  0  0  0  0  0
   -1.4036   -1.0322    0.0000 C   0  0  0  0  0  0  0  0  0  0  0  0
   -4.2421   -1.4075    0.0000 C   0  0  0  0  0  0  0  0  0  0  0  0
  2 14  1  0  0  0  0
  3  1  1  0  0  0  0
  4  3  2  0  0  0  0
  5  4  1  0  0  0  0
  6  1  1  0  0  0  0
  7  5  1  0  0  0  0
  8  2  1  0  0  0  0
  9  2  1  0  0  0  0
 10 11  1  0  0  0  0
 11  1  2  0  0  0  0
 12  6  1  0  0  0  0
 13  6  2  0  0  0  0
 14 25  2  0  0  0  0
 15  7  1  0  0  0  0
 16 12  2  0  0  0  0
 17 13  1  0  0  0  0
 18  7  2  0  0  0  0
 19  8  1  0  0  0  0
 20  9  1  0  0  0  0
 21  8  2  0  0  0  0
 22  9  2  0  0  0  0
 23 17  2  0  0  0  0
 24 26  2  0  0  0  0
 25 27  1  0  0  0  0
 26 15  1  0  0  0  0
 27 15  2  0  0  0  0
 28 13  1  0  0  0  0
 29 12  1  0  0  0  0
 30 23  1  0  0  0  0
 10  4  1  0  0  0  0
 23 16  1  0  0  0  0
 24 14  1  0  0  0  0
 19 20  1  0  0  0  0
M  END
>  <IDNUMBER>
F0327-0335

>  <Chemical_Name>
4-(2,5-dioxopyrrolidin-1-yl)-N-[4-(2,4,6-trimethylphenyl)-1,3-thiazol-2-yl]benzamide

>  <PriceCoeff>
1.00

>  <CAS>
313405-88-8

>  <MW>
419.50

>  <Description>
solid

>  <FSP3>
0.22

>  <clogP>
3.02

>  <TPSA>
107.61

>  <Acceptor>
4

>  <Donor>
1

>  <RotBonds>
4

>  <HAC>
30

>  <Collection>
General

>  <PPDS>
+

$$$$
F0327-0336
  Mrv2219 10102508112D          

 33 37  0  0  0  0            999 V2000
    4.1255    0.3269    0.0000 N   0  0  0  0  0  0  0  0  0  0  0  0
   -0.3736    1.0392    0.0000 C   0  0  0  0  0  0  0  0  0  0  0  0
   -0.8524    0.3736    0.0000 N   0  0  0  0  0  0  0  0  0  0  0  0
    0.4242    1.0392    0.0000 N   0  0  0  0  0  0  0  0  0  0  0  0
   -1.6307    0.6071    0.0000 C   0  0  0  0  0  0  0  0  0  0  0  0
    0.8407    0.3269    0.0000 C   0  0  0  0  0  0  0  0  0  0  0  0
    4.5808   -0.3425    0.0000 C   0  0  0  0  0  0  0  0  0  0  0  0
    4.5925    0.9458    0.0000 C   0  0  0  0  0  0  0  0  0  0  0  0
   -0.8407    1.6930    0.0000 S   0  0  0  0  0  0  0  0  0  0  0  0
   -1.6307    1.4478    0.0000 C   0  0  0  0  0  0  0  0  0  0  0  0
    3.3042    0.3269    0.0000 C   0  0  0  0  0  0  0  0  0  0  0  0
   -2.2611    0.1128    0.0000 C   0  0  0  0  0  0  0  0  0  0  0  0
    1.6619    0.3269    0.0000 C   0  0  0  0  0  0  0  0  0  0  0  0
    0.4242   -0.3775    0.0000 O   0  0  0  0  0  0  0  0  0  0  0  0
    5.3747   -0.1090    0.0000 C   0  0  0  0  0  0  0  0  0  0  0  0
    5.3708    0.7005    0.0000 C   0  0  0  0  0  0  0  0  0  0  0  0
   -3.5688   -0.9030    0.0000 C   0  0  0  0  0  0  0  0  0  0  0  0
    4.3240    1.7397    0.0000 O   0  0  0  0  0  0  0  0  0  0  0  0
    4.2967   -1.1092    0.0000 O   0  0  0  0  0  0  0  0  0  0  0  0
    2.8956    1.0392    0.0000 C   0  0  0  0  0  0  0  0  0  0  0  0
    2.8956   -0.3775    0.0000 C   0  0  0  0  0  0  0  0  0  0  0  0
    2.0705    1.0392    0.0000 C   0  0  0  0  0  0  0  0  0  0  0  0
    2.0705   -0.3775    0.0000 C   0  0  0  0  0  0  0  0  0  0  0  0
   -2.1483   -0.7044    0.0000 C   0  0  0  0  0  0  0  0  0  0  0  0
   -3.0318    0.4203    0.0000 C   0  0  0  0  0  0  0  0  0  0  0  0
   -2.7983   -1.2143    0.0000 C   0  0  0  0  0  0  0  0  0  0  0  0
   -3.6856   -0.0817    0.0000 C   0  0  0  0  0  0  0  0  0  0  0  0
   -4.2227   -1.4011    0.0000 C   0  0  0  0  0  0  0  0  0  0  0  0
   -4.9933   -1.0898    0.0000 C   0  0  0  0  0  0  0  0  0  0  0  0
   -4.1060   -2.2223    0.0000 C   0  0  0  0  0  0  0  0  0  0  0  0
   -4.7598   -2.7361    0.0000 C   0  0  0  0  0  0  0  0  0  0  0  0
   -5.6317   -1.5879    0.0000 C   0  0  0  0  0  0  0  0  0  0  0  0
   -5.5303   -2.4169    0.0000 C   0  0  0  0  0  0  0  0  0  0  0  0
  2  4  1  0  0  0  0
  3  2  2  0  0  0  0
  4  6  1  0  0  0  0
  5  3  1  0  0  0  0
  6 13  1  0  0  0  0
  7  1  1  0  0  0  0
  8  1  1  0  0  0  0
  9  2  1  0  0  0  0
 10  9  1  0  0  0  0
 11  1  1  0  0  0  0
 12  5  1  0  0  0  0
 13 23  2  0  0  0  0
 14  6  2  0  0  0  0
 15  7  1  0  0  0  0
 16  8  1  0  0  0  0
 17 27  2  0  0  0  0
 18  8  2  0  0  0  0
 19  7  2  0  0  0  0
 20 11  1  0  0  0  0
 21 11  2  0  0  0  0
 22 20  2  0  0  0  0
 23 21  1  0  0  0  0
 24 12  1  0  0  0  0
 25 12  2  0  0  0  0
 26 24  2  0  0  0  0
 27 25  1  0  0  0  0
 28 17  1  0  0  0  0
 29 28  2  0  0  0  0
 30 28  1  0  0  0  0
 31 30  2  0  0  0  0
 32 29  1  0  0  0  0
 33 31  1  0  0  0  0
 16 15  1  0  0  0  0
 22 13  1  0  0  0  0
 10  5  2  0  0  0  0
 26 17  1  0  0  0  0
 33 32  2  0  0  0  0
M  END
>  <IDNUMBER>
F0327-0336

>  <Chemical_Name>
N-(4-{[1,1'-biphenyl]-4-yl}-1,3-thiazol-2-yl)-4-(2,5-dioxopyrrolidin-1-yl)benzamide

>  <PriceCoeff>
1.00

>  <CAS>
392246-35-4

>  <MW>
453.51

>  <Description>
solid

>  <FSP3>
0.08

>  <clogP>
4.01

>  <TPSA>
107.61

>  <Acceptor>
4

>  <Donor>
1

>  <RotBonds>
5

>  <HAC>
33

>  <Collection>
General

>  <PPDS>
+

$$$$
F0327-0338
  Mrv2219 10102508112D          

 29 32  0  0  0  0            999 V2000
    4.1365    0.3278    0.0000 N   0  0  0  0  0  0  0  0  0  0  0  0
   -0.3746    1.0419    0.0000 C   0  0  0  0  0  0  0  0  0  0  0  0
   -0.8546    0.3746    0.0000 N   0  0  0  0  0  0  0  0  0  0  0  0
   -1.6351    0.6088    0.0000 C   0  0  0  0  0  0  0  0  0  0  0  0
    0.4254    1.0419    0.0000 N   0  0  0  0  0  0  0  0  0  0  0  0
    0.8429    0.3278    0.0000 C   0  0  0  0  0  0  0  0  0  0  0  0
    4.5931   -0.3434    0.0000 C   0  0  0  0  0  0  0  0  0  0  0  0
    4.6048    0.9483    0.0000 C   0  0  0  0  0  0  0  0  0  0  0  0
   -0.8429    1.6975    0.0000 S   0  0  0  0  0  0  0  0  0  0  0  0
   -2.2672    0.1131    0.0000 C   0  0  0  0  0  0  0  0  0  0  0  0
   -1.6351    1.4517    0.0000 C   0  0  0  0  0  0  0  0  0  0  0  0
    3.3131    0.3278    0.0000 C   0  0  0  0  0  0  0  0  0  0  0  0
    1.6663    0.3278    0.0000 C   0  0  0  0  0  0  0  0  0  0  0  0
    0.4254   -0.3786    0.0000 O   0  0  0  0  0  0  0  0  0  0  0  0
    5.3892   -0.1093    0.0000 C   0  0  0  0  0  0  0  0  0  0  0  0
    5.3852    0.7024    0.0000 C   0  0  0  0  0  0  0  0  0  0  0  0
   -2.1541   -0.7064    0.0000 C   0  0  0  0  0  0  0  0  0  0  0  0
    4.3082   -1.1122    0.0000 O   0  0  0  0  0  0  0  0  0  0  0  0
    4.3355    1.7444    0.0000 O   0  0  0  0  0  0  0  0  0  0  0  0
    2.9034   -0.3786    0.0000 C   0  0  0  0  0  0  0  0  0  0  0  0
    2.9034    1.0419    0.0000 C   0  0  0  0  0  0  0  0  0  0  0  0
    2.0761   -0.3786    0.0000 C   0  0  0  0  0  0  0  0  0  0  0  0
    2.0761    1.0419    0.0000 C   0  0  0  0  0  0  0  0  0  0  0  0
   -1.4009   -1.0302    0.0000 O   0  0  0  0  0  0  0  0  0  0  0  0
   -3.0399    0.4215    0.0000 C   0  0  0  0  0  0  0  0  0  0  0  0
   -2.8058   -1.2175    0.0000 C   0  0  0  0  0  0  0  0  0  0  0  0
   -1.3073   -1.8419    0.0000 C   0  0  0  0  0  0  0  0  0  0  0  0
   -3.6955   -0.0819    0.0000 C   0  0  0  0  0  0  0  0  0  0  0  0
   -3.5784   -0.9054    0.0000 C   0  0  0  0  0  0  0  0  0  0  0  0
  2  5  1  0  0  0  0
  3  2  2  0  0  0  0
  4  3  1  0  0  0  0
  5  6  1  0  0  0  0
  6 13  1  0  0  0  0
  7  1  1  0  0  0  0
  8  1  1  0  0  0  0
  9  2  1  0  0  0  0
 10  4  1  0  0  0  0
 11  9  1  0  0  0  0
 12  1  1  0  0  0  0
 13 23  1  0  0  0  0
 14  6  2  0  0  0  0
 15  7  1  0  0  0  0
 16  8  1  0  0  0  0
 17 10  1  0  0  0  0
 18  7  2  0  0  0  0
 19  8  2  0  0  0  0
 20 12  2  0  0  0  0
 21 12  1  0  0  0  0
 22 20  1  0  0  0  0
 23 21  2  0  0  0  0
 24 17  1  0  0  0  0
 25 10  2  0  0  0  0
 26 17  2  0  0  0  0
 27 24  1  0  0  0  0
 28 25  1  0  0  0  0
 29 28  2  0  0  0  0
 16 15  1  0  0  0  0
 22 13  2  0  0  0  0
 11  4  2  0  0  0  0
 26 29  1  0  0  0  0
M  END
>  <IDNUMBER>
F0327-0338

>  <Chemical_Name>
4-(2,5-dioxopyrrolidin-1-yl)-N-[4-(2-methoxyphenyl)-1,3-thiazol-2-yl]benzamide

>  <PriceCoeff>
1.00

>  <CAS>
325720-22-7

>  <MW>
407.44

>  <Description>
solid

>  <FSP3>
0.14

>  <clogP>
1.59

>  <TPSA>
116.84

>  <Acceptor>
5

>  <Donor>
1

>  <RotBonds>
5

>  <HAC>
29

>  <Collection>
General

>  <PPDS>
+

$$$$
F0327-0339
  Mrv2219 10102508112D          

 28 31  0  0  0  0            999 V2000
    4.1283    0.3272    0.0000 N   0  0  0  0  0  0  0  0  0  0  0  0
   -0.3739    1.0398    0.0000 C   0  0  0  0  0  0  0  0  0  0  0  0
   -0.8529    0.3739    0.0000 N   0  0  0  0  0  0  0  0  0  0  0  0
    0.4246    1.0398    0.0000 N   0  0  0  0  0  0  0  0  0  0  0  0
   -1.6318    0.6075    0.0000 C   0  0  0  0  0  0  0  0  0  0  0  0
    0.8412    0.3272    0.0000 C   0  0  0  0  0  0  0  0  0  0  0  0
    4.5840   -0.3428    0.0000 C   0  0  0  0  0  0  0  0  0  0  0  0
    4.5957    0.9464    0.0000 C   0  0  0  0  0  0  0  0  0  0  0  0
   -0.8412    1.6941    0.0000 S   0  0  0  0  0  0  0  0  0  0  0  0
   -1.6318    1.4488    0.0000 C   0  0  0  0  0  0  0  0  0  0  0  0
    3.3065    0.3272    0.0000 C   0  0  0  0  0  0  0  0  0  0  0  0
    1.6631    0.3272    0.0000 C   0  0  0  0  0  0  0  0  0  0  0  0
   -2.2627    0.1129    0.0000 C   0  0  0  0  0  0  0  0  0  0  0  0
    0.4246   -0.3778    0.0000 O   0  0  0  0  0  0  0  0  0  0  0  0
    5.3784   -0.1091    0.0000 C   0  0  0  0  0  0  0  0  0  0  0  0
    5.3745    0.7010    0.0000 C   0  0  0  0  0  0  0  0  0  0  0  0
    4.2996   -1.1100    0.0000 O   0  0  0  0  0  0  0  0  0  0  0  0
    4.3269    1.7408    0.0000 O   0  0  0  0  0  0  0  0  0  0  0  0
    2.8975   -0.3778    0.0000 C   0  0  0  0  0  0  0  0  0  0  0  0
    2.8975    1.0398    0.0000 C   0  0  0  0  0  0  0  0  0  0  0  0
    2.0719   -0.3778    0.0000 C   0  0  0  0  0  0  0  0  0  0  0  0
    2.0719    1.0398    0.0000 C   0  0  0  0  0  0  0  0  0  0  0  0
   -2.1498   -0.7049    0.0000 C   0  0  0  0  0  0  0  0  0  0  0  0
   -3.0338    0.4207    0.0000 C   0  0  0  0  0  0  0  0  0  0  0  0
   -3.5713   -0.9036    0.0000 C   0  0  0  0  0  0  0  0  0  0  0  0
   -3.6882   -0.0818    0.0000 C   0  0  0  0  0  0  0  0  0  0  0  0
   -2.8002   -1.2151    0.0000 C   0  0  0  0  0  0  0  0  0  0  0  0
   -4.2256   -1.4021    0.0000 F   0  0  0  0  0  0  0  0  0  0  0  0
  2  4  1  0  0  0  0
  3  2  2  0  0  0  0
  4  6  1  0  0  0  0
  5  3  1  0  0  0  0
  6 12  1  0  0  0  0
  7  1  1  0  0  0  0
  8  1  1  0  0  0  0
  9  2  1  0  0  0  0
 10  9  1  0  0  0  0
 11  1  1  0  0  0  0
 12 22  1  0  0  0  0
 13  5  1  0  0  0  0
 14  6  2  0  0  0  0
 15  7  1  0  0  0  0
 16  8  1  0  0  0  0
 17  7  2  0  0  0  0
 18  8  2  0  0  0  0
 19 11  2  0  0  0  0
 20 11  1  0  0  0  0
 21 19  1  0  0  0  0
 22 20  2  0  0  0  0
 23 13  1  0  0  0  0
 24 13  2  0  0  0  0
 25 26  2  0  0  0  0
 26 24  1  0  0  0  0
 27 23  2  0  0  0  0
 28 25  1  0  0  0  0
 15 16  1  0  0  0  0
 12 21  2  0  0  0  0
  5 10  2  0  0  0  0
 25 27  1  0  0  0  0
M  END
>  <IDNUMBER>
F0327-0339

>  <Chemical_Name>
4-(2,5-dioxopyrrolidin-1-yl)-N-[4-(4-fluorophenyl)-1,3-thiazol-2-yl]benzamide

>  <PriceCoeff>
1.00

>  <CAS>
330200-82-3

>  <MW>
395.41

>  <Description>
solid

>  <FSP3>
0.10

>  <clogP>
2.28

>  <TPSA>
107.61

>  <Acceptor>
4

>  <Donor>
1

>  <RotBonds>
4

>  <HAC>
28

>  <Collection>
General

>  <PPDS>
+

$$$$
F0327-0340
  Mrv2219 10102508112D          

 29 32  0  0  0  0            999 V2000
    4.1410    0.3281    0.0000 N   0  0  0  0  0  0  0  0  0  0  0  0
   -0.3750    1.0431    0.0000 C   0  0  0  0  0  0  0  0  0  0  0  0
   -0.8556    0.3750    0.0000 N   0  0  0  0  0  0  0  0  0  0  0  0
    0.4258    1.0431    0.0000 N   0  0  0  0  0  0  0  0  0  0  0  0
   -1.6369    0.6095    0.0000 C   0  0  0  0  0  0  0  0  0  0  0  0
    0.8438    0.3281    0.0000 C   0  0  0  0  0  0  0  0  0  0  0  0
    4.5981   -0.3438    0.0000 C   0  0  0  0  0  0  0  0  0  0  0  0
    4.6098    0.9493    0.0000 C   0  0  0  0  0  0  0  0  0  0  0  0
   -0.8438    1.6994    0.0000 S   0  0  0  0  0  0  0  0  0  0  0  0
   -1.6369    1.4532    0.0000 C   0  0  0  0  0  0  0  0  0  0  0  0
   -4.8715   -1.9026    0.0000 N   0  0  0  0  0  0  0  0  0  0  0  0
    3.3167    0.3281    0.0000 C   0  0  0  0  0  0  0  0  0  0  0  0
   -4.2386   -1.4063    0.0000 C   0  0  0  0  0  0  0  0  0  0  0  0
    1.6682    0.3281    0.0000 C   0  0  0  0  0  0  0  0  0  0  0  0
   -2.2697    0.1132    0.0000 C   0  0  0  0  0  0  0  0  0  0  0  0
    0.4258   -0.3789    0.0000 O   0  0  0  0  0  0  0  0  0  0  0  0
    5.3911    0.7032    0.0000 C   0  0  0  0  0  0  0  0  0  0  0  0
    5.3950   -0.1094    0.0000 C   0  0  0  0  0  0  0  0  0  0  0  0
    4.3403    1.7463    0.0000 O   0  0  0  0  0  0  0  0  0  0  0  0
    4.3129   -1.1134    0.0000 O   0  0  0  0  0  0  0  0  0  0  0  0
    2.9065   -0.3789    0.0000 C   0  0  0  0  0  0  0  0  0  0  0  0
    2.9065    1.0431    0.0000 C   0  0  0  0  0  0  0  0  0  0  0  0
    2.0783   -0.3789    0.0000 C   0  0  0  0  0  0  0  0  0  0  0  0
    2.0783    1.0431    0.0000 C   0  0  0  0  0  0  0  0  0  0  0  0
   -3.0432    0.4219    0.0000 C   0  0  0  0  0  0  0  0  0  0  0  0
   -2.1564   -0.7072    0.0000 C   0  0  0  0  0  0  0  0  0  0  0  0
   -3.5823   -0.9064    0.0000 C   0  0  0  0  0  0  0  0  0  0  0  0
   -3.6995   -0.0820    0.0000 C   0  0  0  0  0  0  0  0  0  0  0  0
   -2.8088   -1.2188    0.0000 C   0  0  0  0  0  0  0  0  0  0  0  0
  2  4  1  0  0  0  0
  3  2  2  0  0  0  0
  4  6  1  0  0  0  0
  5  3  1  0  0  0  0
  6 14  1  0  0  0  0
  7  1  1  0  0  0  0
  8  1  1  0  0  0  0
  9  2  1  0  0  0  0
 10  9  1  0  0  0  0
 11 13  3  0  0  0  0
 12  1  1  0  0  0  0
 13 27  1  0  0  0  0
 14 24  1  0  0  0  0
 15  5  1  0  0  0  0
 16  6  2  0  0  0  0
 17  8  1  0  0  0  0
 18  7  1  0  0  0  0
 19  8  2  0  0  0  0
 20  7  2  0  0  0  0
 21 12  2  0  0  0  0
 22 12  1  0  0  0  0
 23 21  1  0  0  0  0
 24 22  2  0  0  0  0
 25 15  2  0  0  0  0
 26 15  1  0  0  0  0
 27 29  1  0  0  0  0
 28 25  1  0  0  0  0
 29 26  2  0  0  0  0
 18 17  1  0  0  0  0
 14 23  2  0  0  0  0
  5 10  2  0  0  0  0
 27 28  2  0  0  0  0
M  END
>  <IDNUMBER>
F0327-0340

>  <Chemical_Name>
N-[4-(4-cyanophenyl)-1,3-thiazol-2-yl]-4-(2,5-dioxopyrrolidin-1-yl)benzamide

>  <PriceCoeff>
1.00

>  <CAS>
330200-83-4

>  <MW>
402.43

>  <Description>
solid

>  <FSP3>
0.10

>  <clogP>
1.58

>  <TPSA>
131.40

>  <Acceptor>
5

>  <Donor>
1

>  <RotBonds>
4

>  <HAC>
29

>  <Collection>
General

>  <PPDS>
+

$$$$
F0327-0341
  Mrv2219 10102508112D          

 30 33  0  0  0  0            999 V2000
    4.1410    0.3281    0.0000 N   0  0  0  0  0  0  0  0  0  0  0  0
   -0.3750    1.0431    0.0000 C   0  0  0  0  0  0  0  0  0  0  0  0
   -0.8556    0.3750    0.0000 N   0  0  0  0  0  0  0  0  0  0  0  0
   -4.2386   -1.4063    0.0000 N   0  3  0  0  0  0  0  0  0  0  0  0
    0.4258    1.0431    0.0000 N   0  0  0  0  0  0  0  0  0  0  0  0
   -1.6369    0.6095    0.0000 C   0  0  0  0  0  0  0  0  0  0  0  0
    0.8438    0.3281    0.0000 C   0  0  0  0  0  0  0  0  0  0  0  0
    4.6098    0.9493    0.0000 C   0  0  0  0  0  0  0  0  0  0  0  0
    4.5981   -0.3438    0.0000 C   0  0  0  0  0  0  0  0  0  0  0  0
   -0.8438    1.6994    0.0000 S   0  0  0  0  0  0  0  0  0  0  0  0
   -1.6369    1.4532    0.0000 C   0  0  0  0  0  0  0  0  0  0  0  0
    3.3167    0.3281    0.0000 C   0  0  0  0  0  0  0  0  0  0  0  0
   -3.5823   -0.9064    0.0000 C   0  0  0  0  0  0  0  0  0  0  0  0
   -5.0161   -1.1602    0.0000 O   0  5  0  0  0  0  0  0  0  0  0  0
   -2.2697    0.1132    0.0000 C   0  0  0  0  0  0  0  0  0  0  0  0
    1.6682    0.3281    0.0000 C   0  0  0  0  0  0  0  0  0  0  0  0
   -4.2191   -2.2307    0.0000 O   0  0  0  0  0  0  0  0  0  0  0  0
    0.4258   -0.3789    0.0000 O   0  0  0  0  0  0  0  0  0  0  0  0
    5.3911    0.7032    0.0000 C   0  0  0  0  0  0  0  0  0  0  0  0
    5.3950   -0.1094    0.0000 C   0  0  0  0  0  0  0  0  0  0  0  0
    4.3403    1.7463    0.0000 O   0  0  0  0  0  0  0  0  0  0  0  0
    4.3129   -1.1134    0.0000 O   0  0  0  0  0  0  0  0  0  0  0  0
    2.9065   -0.3789    0.0000 C   0  0  0  0  0  0  0  0  0  0  0  0
    2.9065    1.0431    0.0000 C   0  0  0  0  0  0  0  0  0  0  0  0
   -2.8088   -1.2188    0.0000 C   0  0  0  0  0  0  0  0  0  0  0  0
   -3.6995   -0.0820    0.0000 C   0  0  0  0  0  0  0  0  0  0  0  0
    2.0783   -0.3789    0.0000 C   0  0  0  0  0  0  0  0  0  0  0  0
    2.0783    1.0431    0.0000 C   0  0  0  0  0  0  0  0  0  0  0  0
   -3.0432    0.4219    0.0000 C   0  0  0  0  0  0  0  0  0  0  0  0
   -2.1564   -0.7072    0.0000 C   0  0  0  0  0  0  0  0  0  0  0  0
  2  5  1  0  0  0  0
  3  2  2  0  0  0  0
  4 13  1  0  0  0  0
  5  7  1  0  0  0  0
  6  3  1  0  0  0  0
  7 16  1  0  0  0  0
  8  1  1  0  0  0  0
  9  1  1  0  0  0  0
 10  2  1  0  0  0  0
 11 10  1  0  0  0  0
 12  1  1  0  0  0  0
 13 25  1  0  0  0  0
 14  4  1  0  0  0  0
 15  6  1  0  0  0  0
 16 28  1  0  0  0  0
 17  4  2  0  0  0  0
 18  7  2  0  0  0  0
 19  8  1  0  0  0  0
 20  9  1  0  0  0  0
 21  8  2  0  0  0  0
 22  9  2  0  0  0  0
 23 12  2  0  0  0  0
 24 12  1  0  0  0  0
 25 30  2  0  0  0  0
 26 29  1  0  0  0  0
 27 23  1  0  0  0  0
 28 24  2  0  0  0  0
 29 15  2  0  0  0  0
 30 15  1  0  0  0  0
 19 20  1  0  0  0  0
 27 16  2  0  0  0  0
 11  6  2  0  0  0  0
 26 13  2  0  0  0  0
M  CHG  2   4   1  14  -1
M  END
>  <IDNUMBER>
F0327-0341

>  <Chemical_Name>
4-(2,5-dioxopyrrolidin-1-yl)-N-[4-(4-nitrophenyl)-1,3-thiazol-2-yl]benzamide

>  <PriceCoeff>
1.00

>  <CAS>
330200-84-5

>  <MW>
422.41

>  <Description>
solid

>  <FSP3>
0.10

>  <clogP>
1.89

>  <TPSA>
150.75

>  <Acceptor>
6

>  <Donor>
1

>  <RotBonds>
5

>  <HAC>
30

>  <Collection>
General

>  <PPDS>
+

$$$$
F0327-0342
  Mrv2219 10102508112D          

 29 32  0  0  0  0            999 V2000
    4.1346    0.3276    0.0000 N   0  0  0  0  0  0  0  0  0  0  0  0
   -0.3745    1.0415    0.0000 C   0  0  0  0  0  0  0  0  0  0  0  0
   -0.8542    0.3745    0.0000 N   0  0  0  0  0  0  0  0  0  0  0  0
    0.4252    1.0415    0.0000 N   0  0  0  0  0  0  0  0  0  0  0  0
   -1.6343    0.6085    0.0000 C   0  0  0  0  0  0  0  0  0  0  0  0
    0.8425    0.3276    0.0000 C   0  0  0  0  0  0  0  0  0  0  0  0
    4.5910   -0.3433    0.0000 C   0  0  0  0  0  0  0  0  0  0  0  0
    4.6027    0.9478    0.0000 C   0  0  0  0  0  0  0  0  0  0  0  0
   -0.8425    1.6967    0.0000 S   0  0  0  0  0  0  0  0  0  0  0  0
   -1.6343    1.4510    0.0000 C   0  0  0  0  0  0  0  0  0  0  0  0
   -2.2662    0.1131    0.0000 C   0  0  0  0  0  0  0  0  0  0  0  0
    3.3116    0.3276    0.0000 C   0  0  0  0  0  0  0  0  0  0  0  0
   -3.6938   -0.0819    0.0000 C   0  0  0  0  0  0  0  0  0  0  0  0
   -3.0385    0.4213    0.0000 C   0  0  0  0  0  0  0  0  0  0  0  0
    1.6656    0.3276    0.0000 C   0  0  0  0  0  0  0  0  0  0  0  0
   -3.5768   -0.9050    0.0000 C   0  0  0  0  0  0  0  0  0  0  0  0
    0.4252   -0.3784    0.0000 O   0  0  0  0  0  0  0  0  0  0  0  0
    5.3828    0.7021    0.0000 C   0  0  0  0  0  0  0  0  0  0  0  0
    5.3867   -0.1092    0.0000 C   0  0  0  0  0  0  0  0  0  0  0  0
    4.3336    1.7436    0.0000 O   0  0  0  0  0  0  0  0  0  0  0  0
    4.3062   -1.1117    0.0000 O   0  0  0  0  0  0  0  0  0  0  0  0
   -2.1531   -0.7060    0.0000 C   0  0  0  0  0  0  0  0  0  0  0  0
    2.9020   -0.3784    0.0000 C   0  0  0  0  0  0  0  0  0  0  0  0
    2.9020    1.0415    0.0000 C   0  0  0  0  0  0  0  0  0  0  0  0
    2.0751   -0.3784    0.0000 C   0  0  0  0  0  0  0  0  0  0  0  0
    2.0751    1.0415    0.0000 C   0  0  0  0  0  0  0  0  0  0  0  0
   -2.8045   -1.2170    0.0000 C   0  0  0  0  0  0  0  0  0  0  0  0
   -4.4467    0.2301    0.0000 Cl  0  0  0  0  0  0  0  0  0  0  0  0
   -4.2321   -1.4042    0.0000 Cl  0  0  0  0  0  0  0  0  0  0  0  0
  2  4  1  0  0  0  0
  3  2  2  0  0  0  0
  4  6  1  0  0  0  0
  5  3  1  0  0  0  0
  6 15  1  0  0  0  0
  7  1  1  0  0  0  0
  8  1  1  0  0  0  0
  9  2  1  0  0  0  0
 10  9  1  0  0  0  0
 11  5  1  0  0  0  0
 12  1  1  0  0  0  0
 13 14  1  0  0  0  0
 14 11  2  0  0  0  0
 15 26  1  0  0  0  0
 16 27  1  0  0  0  0
 17  6  2  0  0  0  0
 18  8  1  0  0  0  0
 19  7  1  0  0  0  0
 20  8  2  0  0  0  0
 21  7  2  0  0  0  0
 22 11  1  0  0  0  0
 23 12  2  0  0  0  0
 24 12  1  0  0  0  0
 25 23  1  0  0  0  0
 26 24  2  0  0  0  0
 27 22  2  0  0  0  0
 28 13  1  0  0  0  0
 29 16  1  0  0  0  0
 18 19  1  0  0  0  0
 25 15  2  0  0  0  0
 10  5  2  0  0  0  0
 13 16  2  0  0  0  0
M  END
>  <IDNUMBER>
F0327-0342

>  <Chemical_Name>
N-[4-(3,4-dichlorophenyl)-1,3-thiazol-2-yl]-4-(2,5-dioxopyrrolidin-1-yl)benzamide

>  <PriceCoeff>
1.00

>  <CAS>
392246-36-5

>  <MW>
446.31

>  <Description>
solid

>  <FSP3>
0.10

>  <clogP>
3.44

>  <TPSA>
107.61

>  <Acceptor>
4

>  <Donor>
1

>  <RotBonds>
4

>  <HAC>
29

>  <Collection>
General

>  <PPDS>
+

$$$$
F0327-0344
  Mrv2219 10102508112D          

 33 37  0  0  0  0            999 V2000
   -0.3736    1.0392    0.0000 C   0  0  0  0  0  0  0  0  0  0  0  0
   -1.6307    0.6071    0.0000 C   0  0  0  0  0  0  0  0  0  0  0  0
   -1.6307    1.4478    0.0000 C   0  0  0  0  0  0  0  0  0  0  0  0
   -0.8524    0.3736    0.0000 N   0  0  0  0  0  0  0  0  0  0  0  0
    4.1255    0.3269    0.0000 N   0  0  0  0  0  0  0  0  0  0  0  0
   -0.8407    1.6930    0.0000 S   0  0  0  0  0  0  0  0  0  0  0  0
    0.4242    1.0392    0.0000 N   0  0  0  0  0  0  0  0  0  0  0  0
    0.8407    0.3269    0.0000 C   0  0  0  0  0  0  0  0  0  0  0  0
    4.5925    0.9458    0.0000 C   0  0  0  0  0  0  0  0  0  0  0  0
    4.5808   -0.3425    0.0000 C   0  0  0  0  0  0  0  0  0  0  0  0
    3.3042    0.3269    0.0000 C   0  0  0  0  0  0  0  0  0  0  0  0
    1.6619    0.3269    0.0000 C   0  0  0  0  0  0  0  0  0  0  0  0
   -2.2611    0.1128    0.0000 C   0  0  0  0  0  0  0  0  0  0  0  0
   -2.2728    1.9459    0.0000 C   0  0  0  0  0  0  0  0  0  0  0  0
    0.4242   -0.3775    0.0000 O   0  0  0  0  0  0  0  0  0  0  0  0
    5.3747   -0.1090    0.0000 C   0  0  0  0  0  0  0  0  0  0  0  0
    5.3708    0.7005    0.0000 C   0  0  0  0  0  0  0  0  0  0  0  0
    4.2967   -1.1092    0.0000 O   0  0  0  0  0  0  0  0  0  0  0  0
    4.3240    1.7397    0.0000 O   0  0  0  0  0  0  0  0  0  0  0  0
    2.8956    1.0392    0.0000 C   0  0  0  0  0  0  0  0  0  0  0  0
    2.8956   -0.3775    0.0000 C   0  0  0  0  0  0  0  0  0  0  0  0
    2.0705    1.0392    0.0000 C   0  0  0  0  0  0  0  0  0  0  0  0
    2.0705   -0.3775    0.0000 C   0  0  0  0  0  0  0  0  0  0  0  0
   -2.1483   -0.7044    0.0000 C   0  0  0  0  0  0  0  0  0  0  0  0
   -3.0318    0.4203    0.0000 C   0  0  0  0  0  0  0  0  0  0  0  0
   -2.1677    2.7672    0.0000 C   0  0  0  0  0  0  0  0  0  0  0  0
   -3.0357    1.6307    0.0000 C   0  0  0  0  0  0  0  0  0  0  0  0
   -3.6856   -0.0817    0.0000 C   0  0  0  0  0  0  0  0  0  0  0  0
   -2.7983   -1.2143    0.0000 C   0  0  0  0  0  0  0  0  0  0  0  0
   -3.7012    2.1210    0.0000 C   0  0  0  0  0  0  0  0  0  0  0  0
   -2.8216    3.2692    0.0000 C   0  0  0  0  0  0  0  0  0  0  0  0
   -3.5688   -0.9030    0.0000 C   0  0  0  0  0  0  0  0  0  0  0  0
   -3.5922    2.9617    0.0000 C   0  0  0  0  0  0  0  0  0  0  0  0
  2  4  1  0  0  0  0
  3  6  1  0  0  0  0
  4  1  2  0  0  0  0
  5 11  1  0  0  0  0
  6  1  1  0  0  0  0
  7  1  1  0  0  0  0
  8  7  1  0  0  0  0
  9  5  1  0  0  0  0
 10  5  1  0  0  0  0
 11 21  2  0  0  0  0
 12  8  1  0  0  0  0
 13  2  1  0  0  0  0
 14  3  1  0  0  0  0
 15  8  2  0  0  0  0
 16 10  1  0  0  0  0
 17  9  1  0  0  0  0
 18 10  2  0  0  0  0
 19  9  2  0  0  0  0
 20 22  2  0  0  0  0
 21 23  1  0  0  0  0
 22 12  1  0  0  0  0
 23 12  2  0  0  0  0
 24 13  1  0  0  0  0
 25 13  2  0  0  0  0
 26 14  2  0  0  0  0
 27 14  1  0  0  0  0
 28 25  1  0  0  0  0
 29 24  2  0  0  0  0
 30 27  2  0  0  0  0
 31 26  1  0  0  0  0
 32 28  2  0  0  0  0
 33 30  1  0  0  0  0
  3  2  2  0  0  0  0
 11 20  1  0  0  0  0
 31 33  2  0  0  0  0
 32 29  1  0  0  0  0
 17 16  1  0  0  0  0
M  END
>  <IDNUMBER>
F0327-0344

>  <Chemical_Name>
4-(2,5-dioxopyrrolidin-1-yl)-N-(4,5-diphenyl-1,3-thiazol-2-yl)benzamide

>  <PriceCoeff>
1.00

>  <CAS>
392246-37-6

>  <MW>
453.51

>  <Description>
solid

>  <FSP3>
0.08

>  <clogP>
3.62

>  <TPSA>
107.61

>  <Acceptor>
4

>  <Donor>
1

>  <RotBonds>
5

>  <HAC>
33

>  <Collection>
General

>  <PPDS>
+

$$$$
F0327-0346
  Mrv2219 10102508112D          

 31 34  0  0  0  0            999 V2000
    4.1422    0.3283    0.0000 N   0  0  0  0  0  0  0  0  0  0  0  0
   -0.3752    1.0433    0.0000 C   0  0  0  0  0  0  0  0  0  0  0  0
   -0.8558    0.3752    0.0000 N   0  0  0  0  0  0  0  0  0  0  0  0
    0.4260    1.0433    0.0000 N   0  0  0  0  0  0  0  0  0  0  0  0
   -1.6373    0.6097    0.0000 C   0  0  0  0  0  0  0  0  0  0  0  0
    0.8440    0.3283    0.0000 C   0  0  0  0  0  0  0  0  0  0  0  0
    4.6112    0.9495    0.0000 C   0  0  0  0  0  0  0  0  0  0  0  0
    4.5995   -0.3439    0.0000 C   0  0  0  0  0  0  0  0  0  0  0  0
   -0.8440    1.6999    0.0000 S   0  0  0  0  0  0  0  0  0  0  0  0
   -1.6373    1.4537    0.0000 C   0  0  0  0  0  0  0  0  0  0  0  0
   -2.2703    0.1133    0.0000 C   0  0  0  0  0  0  0  0  0  0  0  0
    3.3177    0.3283    0.0000 C   0  0  0  0  0  0  0  0  0  0  0  0
   -3.0441    0.4221    0.0000 C   0  0  0  0  0  0  0  0  0  0  0  0
   -3.7006   -0.0821    0.0000 C   0  0  0  0  0  0  0  0  0  0  0  0
    1.6687    0.3283    0.0000 C   0  0  0  0  0  0  0  0  0  0  0  0
   -3.5833   -0.9066    0.0000 C   0  0  0  0  0  0  0  0  0  0  0  0
    0.4260   -0.3791    0.0000 O   0  0  0  0  0  0  0  0  0  0  0  0
    5.3927    0.7033    0.0000 C   0  0  0  0  0  0  0  0  0  0  0  0
    5.3966   -0.1095    0.0000 C   0  0  0  0  0  0  0  0  0  0  0  0
    4.3415    1.7468    0.0000 O   0  0  0  0  0  0  0  0  0  0  0  0
    4.3141   -1.1137    0.0000 O   0  0  0  0  0  0  0  0  0  0  0  0
   -2.1570   -0.7073    0.0000 C   0  0  0  0  0  0  0  0  0  0  0  0
    2.9074    1.0433    0.0000 C   0  0  0  0  0  0  0  0  0  0  0  0
    2.9074   -0.3791    0.0000 C   0  0  0  0  0  0  0  0  0  0  0  0
    2.0789    1.0433    0.0000 C   0  0  0  0  0  0  0  0  0  0  0  0
    2.0789   -0.3791    0.0000 C   0  0  0  0  0  0  0  0  0  0  0  0
   -2.8096   -1.2192    0.0000 C   0  0  0  0  0  0  0  0  0  0  0  0
   -4.4548    0.2305    0.0000 O   0  0  0  0  0  0  0  0  0  0  0  0
   -4.2399   -1.4068    0.0000 O   0  0  0  0  0  0  0  0  0  0  0  0
   -4.5604    1.0433    0.0000 C   0  0  0  0  0  0  0  0  0  0  0  0
   -4.9901   -1.0942    0.0000 C   0  0  0  0  0  0  0  0  0  0  0  0
  2  4  1  0  0  0  0
  3  2  2  0  0  0  0
  4  6  1  0  0  0  0
  5  3  1  0  0  0  0
  6 15  1  0  0  0  0
  7  1  1  0  0  0  0
  8  1  1  0  0  0  0
  9  2  1  0  0  0  0
 10  9  1  0  0  0  0
 11  5  1  0  0  0  0
 12  1  1  0  0  0  0
 13 11  2  0  0  0  0
 14 13  1  0  0  0  0
 15 26  2  0  0  0  0
 16 27  1  0  0  0  0
 17  6  2  0  0  0  0
 18  7  1  0  0  0  0
 19  8  1  0  0  0  0
 20  7  2  0  0  0  0
 21  8  2  0  0  0  0
 22 11  1  0  0  0  0
 23 12  1  0  0  0  0
 24 12  2  0  0  0  0
 25 23  2  0  0  0  0
 26 24  1  0  0  0  0
 27 22  2  0  0  0  0
 28 14  1  0  0  0  0
 29 16  1  0  0  0  0
 30 28  1  0  0  0  0
 31 29  1  0  0  0  0
 18 19  1  0  0  0  0
 25 15  1  0  0  0  0
 10  5  2  0  0  0  0
 14 16  2  0  0  0  0
M  END
>  <IDNUMBER>
F0327-0346

>  <Chemical_Name>
N-[4-(3,4-dimethoxyphenyl)-1,3-thiazol-2-yl]-4-(2,5-dioxopyrrolidin-1-yl)benzamide

>  <PriceCoeff>
1.00

>  <CAS>
328027-91-4

>  <MW>
437.47

>  <Description>
solid

>  <FSP3>
0.18

>  <clogP>
1.86

>  <TPSA>
126.07

>  <Acceptor>
6

>  <Donor>
1

>  <RotBonds>
6

>  <HAC>
31

>  <Collection>
General

>  <PPDS>
+

$$$$
F0327-0347
  Mrv2219 10102508112D          

 31 35  0  0  0  0            999 V2000
    4.1444    0.3284    0.0000 N   0  0  0  0  0  0  0  0  0  0  0  0
   -0.3753    1.0439    0.0000 C   0  0  0  0  0  0  0  0  0  0  0  0
   -0.8562    0.3753    0.0000 N   0  0  0  0  0  0  0  0  0  0  0  0
   -1.6382    0.6099    0.0000 C   0  0  0  0  0  0  0  0  0  0  0  0
    0.4262    1.0439    0.0000 N   0  0  0  0  0  0  0  0  0  0  0  0
    0.8445    0.3284    0.0000 C   0  0  0  0  0  0  0  0  0  0  0  0
    4.6136    0.9501    0.0000 C   0  0  0  0  0  0  0  0  0  0  0  0
    4.6019   -0.3441    0.0000 C   0  0  0  0  0  0  0  0  0  0  0  0
   -0.8445    1.7008    0.0000 S   0  0  0  0  0  0  0  0  0  0  0  0
   -2.2716    0.1134    0.0000 C   0  0  0  0  0  0  0  0  0  0  0  0
   -1.6382    1.4544    0.0000 C   0  0  0  0  0  0  0  0  0  0  0  0
   -3.0457    0.4223    0.0000 C   0  0  0  0  0  0  0  0  0  0  0  0
    3.3194    0.3284    0.0000 C   0  0  0  0  0  0  0  0  0  0  0  0
    1.6695    0.3284    0.0000 C   0  0  0  0  0  0  0  0  0  0  0  0
    0.4262   -0.3793    0.0000 O   0  0  0  0  0  0  0  0  0  0  0  0
    5.3955    0.7038    0.0000 C   0  0  0  0  0  0  0  0  0  0  0  0
    5.3995   -0.1095    0.0000 C   0  0  0  0  0  0  0  0  0  0  0  0
    4.3438    1.7477    0.0000 O   0  0  0  0  0  0  0  0  0  0  0  0
    4.3164   -1.1143    0.0000 O   0  0  0  0  0  0  0  0  0  0  0  0
    2.9089    1.0439    0.0000 C   0  0  0  0  0  0  0  0  0  0  0  0
    2.9089   -0.3793    0.0000 C   0  0  0  0  0  0  0  0  0  0  0  0
    2.0800    1.0439    0.0000 C   0  0  0  0  0  0  0  0  0  0  0  0
    2.0800   -0.3793    0.0000 C   0  0  0  0  0  0  0  0  0  0  0  0
   -3.7026   -0.0821    0.0000 C   0  0  0  0  0  0  0  0  0  0  0  0
   -2.1582   -0.7077    0.0000 C   0  0  0  0  0  0  0  0  0  0  0  0
   -3.1435    1.2394    0.0000 C   0  0  0  0  0  0  0  0  0  0  0  0
   -2.8111   -1.2199    0.0000 C   0  0  0  0  0  0  0  0  0  0  0  0
   -3.5853   -0.9071    0.0000 C   0  0  0  0  0  0  0  0  0  0  0  0
   -4.4572    0.2346    0.0000 C   0  0  0  0  0  0  0  0  0  0  0  0
   -3.9137    1.5483    0.0000 C   0  0  0  0  0  0  0  0  0  0  0  0
   -4.5705    1.0439    0.0000 C   0  0  0  0  0  0  0  0  0  0  0  0
  2  5  1  0  0  0  0
  3  2  2  0  0  0  0
  4  3  1  0  0  0  0
  5  6  1  0  0  0  0
  6 14  1  0  0  0  0
  7  1  1  0  0  0  0
  8  1  1  0  0  0  0
  9  2  1  0  0  0  0
 10  4  1  0  0  0  0
 11  9  1  0  0  0  0
 12 10  2  0  0  0  0
 13  1  1  0  0  0  0
 14 23  2  0  0  0  0
 15  6  2  0  0  0  0
 16  7  1  0  0  0  0
 17  8  1  0  0  0  0
 18  7  2  0  0  0  0
 19  8  2  0  0  0  0
 20 13  1  0  0  0  0
 21 13  2  0  0  0  0
 22 20  2  0  0  0  0
 23 21  1  0  0  0  0
 24 12  1  0  0  0  0
 25 10  1  0  0  0  0
 26 12  1  0  0  0  0
 27 25  2  0  0  0  0
 28 27  1  0  0  0  0
 29 24  1  0  0  0  0
 30 26  2  0  0  0  0
 31 30  1  0  0  0  0
 17 16  1  0  0  0  0
 14 22  1  0  0  0  0
  4 11  2  0  0  0  0
 28 24  2  0  0  0  0
 31 29  2  0  0  0  0
M  END
>  <IDNUMBER>
F0327-0347

>  <Chemical_Name>
4-(2,5-dioxopyrrolidin-1-yl)-N-[4-(naphthalen-1-yl)-1,3-thiazol-2-yl]benzamide

>  <PriceCoeff>
1.00

>  <CAS>
313405-89-9

>  <MW>
427.48

>  <Description>
solid

>  <FSP3>
0.08

>  <clogP>
3.30

>  <TPSA>
107.61

>  <Acceptor>
4

>  <Donor>
1

>  <RotBonds>
4

>  <HAC>
31

>  <Collection>
General

>  <PPDS>
+

$$$$
F0327-0348
  Mrv2219 10102508112D          

 31 35  0  0  0  0            999 V2000
    4.1283    0.3272    0.0000 N   0  0  0  0  0  0  0  0  0  0  0  0
   -0.3739    1.0398    0.0000 C   0  0  0  0  0  0  0  0  0  0  0  0
   -0.8529    0.3739    0.0000 N   0  0  0  0  0  0  0  0  0  0  0  0
    0.4246    1.0398    0.0000 N   0  0  0  0  0  0  0  0  0  0  0  0
   -1.6318    0.6075    0.0000 C   0  0  0  0  0  0  0  0  0  0  0  0
    0.8412    0.3272    0.0000 C   0  0  0  0  0  0  0  0  0  0  0  0
    4.5957    0.9464    0.0000 C   0  0  0  0  0  0  0  0  0  0  0  0
    4.5840   -0.3428    0.0000 C   0  0  0  0  0  0  0  0  0  0  0  0
   -0.8412    1.6941    0.0000 S   0  0  0  0  0  0  0  0  0  0  0  0
   -1.6318    1.4488    0.0000 C   0  0  0  0  0  0  0  0  0  0  0  0
   -2.2627    0.1129    0.0000 C   0  0  0  0  0  0  0  0  0  0  0  0
    3.3065    0.3272    0.0000 C   0  0  0  0  0  0  0  0  0  0  0  0
   -3.0338    0.4207    0.0000 C   0  0  0  0  0  0  0  0  0  0  0  0
    1.6631    0.3272    0.0000 C   0  0  0  0  0  0  0  0  0  0  0  0
   -3.6882   -0.0818    0.0000 C   0  0  0  0  0  0  0  0  0  0  0  0
    0.4246   -0.3778    0.0000 O   0  0  0  0  0  0  0  0  0  0  0  0
    5.3784   -0.1091    0.0000 C   0  0  0  0  0  0  0  0  0  0  0  0
    5.3745    0.7010    0.0000 C   0  0  0  0  0  0  0  0  0  0  0  0
    4.2996   -1.1100    0.0000 O   0  0  0  0  0  0  0  0  0  0  0  0
    4.3269    1.7408    0.0000 O   0  0  0  0  0  0  0  0  0  0  0  0
   -2.1498   -0.7049    0.0000 C   0  0  0  0  0  0  0  0  0  0  0  0
    2.8975    1.0398    0.0000 C   0  0  0  0  0  0  0  0  0  0  0  0
    2.8975   -0.3778    0.0000 C   0  0  0  0  0  0  0  0  0  0  0  0
    2.0719    1.0398    0.0000 C   0  0  0  0  0  0  0  0  0  0  0  0
    2.0719   -0.3778    0.0000 C   0  0  0  0  0  0  0  0  0  0  0  0
   -3.5713   -0.9036    0.0000 C   0  0  0  0  0  0  0  0  0  0  0  0
   -2.8002   -1.2151    0.0000 C   0  0  0  0  0  0  0  0  0  0  0  0
   -4.4593    0.2298    0.0000 C   0  0  0  0  0  0  0  0  0  0  0  0
   -4.2256   -1.4060    0.0000 C   0  0  0  0  0  0  0  0  0  0  0  0
   -5.1135   -0.2688    0.0000 C   0  0  0  0  0  0  0  0  0  0  0  0
   -4.9968   -1.0905    0.0000 C   0  0  0  0  0  0  0  0  0  0  0  0
  2  4  1  0  0  0  0
  3  2  2  0  0  0  0
  4  6  1  0  0  0  0
  5  3  1  0  0  0  0
  6 14  1  0  0  0  0
  7  1  1  0  0  0  0
  8  1  1  0  0  0  0
  9  2  1  0  0  0  0
 10  9  1  0  0  0  0
 11  5  1  0  0  0  0
 12  1  1  0  0  0  0
 13 11  2  0  0  0  0
 14 25  2  0  0  0  0
 15 13  1  0  0  0  0
 16  6  2  0  0  0  0
 17  8  1  0  0  0  0
 18  7  1  0  0  0  0
 19  8  2  0  0  0  0
 20  7  2  0  0  0  0
 21 11  1  0  0  0  0
 22 12  1  0  0  0  0
 23 12  2  0  0  0  0
 24 22  2  0  0  0  0
 25 23  1  0  0  0  0
 26 27  1  0  0  0  0
 27 21  2  0  0  0  0
 28 15  1  0  0  0  0
 29 26  1  0  0  0  0
 30 28  2  0  0  0  0
 31 29  2  0  0  0  0
 18 17  1  0  0  0  0
 24 14  1  0  0  0  0
 10  5  2  0  0  0  0
 15 26  2  0  0  0  0
 30 31  1  0  0  0  0
M  END
>  <IDNUMBER>
F0327-0348

>  <Chemical_Name>
4-(2,5-dioxopyrrolidin-1-yl)-N-[4-(naphthalen-2-yl)-1,3-thiazol-2-yl]benzamide

>  <PriceCoeff>
1.00

>  <CAS>
392246-38-7

>  <MW>
427.48

>  <Description>
solid

>  <FSP3>
0.08

>  <clogP>
3.30

>  <TPSA>
107.61

>  <Acceptor>
4

>  <Donor>
1

>  <RotBonds>
4

>  <HAC>
31

>  <Collection>
General

>  <PPDS>
+

$$$$
F0327-0349
  Mrv2219 10102508112D          

 35 39  0  0  0  0            999 V2000
   -1.6382    1.4544    0.0000 C   0  0  0  0  0  0  0  0  0  0  0  0
   -0.3753    1.0439    0.0000 C   0  0  0  0  0  0  0  0  0  0  0  0
   -1.6382    0.6099    0.0000 C   0  0  0  0  0  0  0  0  0  0  0  0
   -0.8562    0.3753    0.0000 N   0  0  0  0  0  0  0  0  0  0  0  0
    4.1444    0.3284    0.0000 N   0  0  0  0  0  0  0  0  0  0  0  0
   -0.8445    1.7008    0.0000 S   0  0  0  0  0  0  0  0  0  0  0  0
    0.4262    1.0439    0.0000 N   0  0  0  0  0  0  0  0  0  0  0  0
   -2.2833    1.9549    0.0000 C   0  0  0  0  0  0  0  0  0  0  0  0
    0.8445    0.3284    0.0000 C   0  0  0  0  0  0  0  0  0  0  0  0
    4.6019   -0.3441    0.0000 C   0  0  0  0  0  0  0  0  0  0  0  0
    4.6136    0.9501    0.0000 C   0  0  0  0  0  0  0  0  0  0  0  0
    3.3194    0.3284    0.0000 C   0  0  0  0  0  0  0  0  0  0  0  0
    1.6695    0.3284    0.0000 C   0  0  0  0  0  0  0  0  0  0  0  0
   -2.2716    0.1134    0.0000 C   0  0  0  0  0  0  0  0  0  0  0  0
   -3.0496    1.6616    0.0000 O   0  0  0  0  0  0  0  0  0  0  0  0
    0.4262   -0.3793    0.0000 O   0  0  0  0  0  0  0  0  0  0  0  0
    5.3995   -0.1095    0.0000 C   0  0  0  0  0  0  0  0  0  0  0  0
    5.3955    0.7038    0.0000 C   0  0  0  0  0  0  0  0  0  0  0  0
    4.3164   -1.1143    0.0000 O   0  0  0  0  0  0  0  0  0  0  0  0
    4.3438    1.7477    0.0000 O   0  0  0  0  0  0  0  0  0  0  0  0
   -2.1582    2.7525    0.0000 C   0  0  0  0  0  0  0  0  0  0  0  0
    2.9089   -0.3793    0.0000 C   0  0  0  0  0  0  0  0  0  0  0  0
    2.9089    1.0439    0.0000 C   0  0  0  0  0  0  0  0  0  0  0  0
    2.0800   -0.3793    0.0000 C   0  0  0  0  0  0  0  0  0  0  0  0
    2.0800    1.0439    0.0000 C   0  0  0  0  0  0  0  0  0  0  0  0
   -2.1582   -0.7077    0.0000 C   0  0  0  0  0  0  0  0  0  0  0  0
   -3.0457    0.4223    0.0000 C   0  0  0  0  0  0  0  0  0  0  0  0
   -1.3919    3.0496    0.0000 C   0  0  0  0  0  0  0  0  0  0  0  0
   -2.8111    3.2686    0.0000 C   0  0  0  0  0  0  0  0  0  0  0  0
   -2.8111   -1.2199    0.0000 C   0  0  0  0  0  0  0  0  0  0  0  0
   -1.2628    3.8629    0.0000 C   0  0  0  0  0  0  0  0  0  0  0  0
   -2.6743    4.0740    0.0000 C   0  0  0  0  0  0  0  0  0  0  0  0
   -3.7026   -0.0821    0.0000 C   0  0  0  0  0  0  0  0  0  0  0  0
   -3.5853   -0.9071    0.0000 C   0  0  0  0  0  0  0  0  0  0  0  0
   -1.9080    4.3907    0.0000 C   0  0  0  0  0  0  0  0  0  0  0  0
  2  6  1  0  0  0  0
  3  1  2  0  0  0  0
  4  3  1  0  0  0  0
  5 12  1  0  0  0  0
  6  1  1  0  0  0  0
  7  2  1  0  0  0  0
  8  1  1  0  0  0  0
  9  7  1  0  0  0  0
 10  5  1  0  0  0  0
 11  5  1  0  0  0  0
 12 23  1  0  0  0  0
 13  9  1  0  0  0  0
 14  3  1  0  0  0  0
 15  8  2  0  0  0  0
 16  9  2  0  0  0  0
 17 10  1  0  0  0  0
 18 11  1  0  0  0  0
 19 10  2  0  0  0  0
 20 11  2  0  0  0  0
 21  8  1  0  0  0  0
 22 24  1  0  0  0  0
 23 25  2  0  0  0  0
 24 13  2  0  0  0  0
 25 13  1  0  0  0  0
 26 14  1  0  0  0  0
 27 14  2  0  0  0  0
 28 21  2  0  0  0  0
 29 21  1  0  0  0  0
 30 26  2  0  0  0  0
 31 28  1  0  0  0  0
 32 29  2  0  0  0  0
 33 27  1  0  0  0  0
 34 33  2  0  0  0  0
 35 32  1  0  0  0  0
  4  2  2  0  0  0  0
 35 31  2  0  0  0  0
 30 34  1  0  0  0  0
 22 12  2  0  0  0  0
 17 18  1  0  0  0  0
M  END
>  <IDNUMBER>
F0327-0349

>  <Chemical_Name>
N-(5-benzoyl-4-phenyl-1,3-thiazol-2-yl)-4-(2,5-dioxopyrrolidin-1-yl)benzamide

>  <PriceCoeff>
1.00

>  <MW>
481.52

>  <Description>
solid

>  <FSP3>
0.07

>  <clogP>
3.56

>  <TPSA>
124.68

>  <Acceptor>
5

>  <Donor>
1

>  <RotBonds>
6

>  <HAC>
35

>  <Collection>
General

$$$$
F0327-0350
  Mrv2219 10102508112D          

 32 35  0  0  0  0            999 V2000
   -1.7946    0.5747    0.0000 C   0  0  0  0  0  0  0  0  0  0  0  0
   -0.5356    0.1603    0.0000 C   0  0  0  0  0  0  0  0  0  0  0  0
   -1.7946   -0.2698    0.0000 C   0  0  0  0  0  0  0  0  0  0  0  0
   -1.0165   -0.5044    0.0000 N   0  0  0  0  0  0  0  0  0  0  0  0
    3.9880   -0.5513    0.0000 N   0  0  0  0  0  0  0  0  0  0  0  0
   -1.0048    0.8171    0.0000 S   0  0  0  0  0  0  0  0  0  0  0  0
    0.2698    0.1603    0.0000 N   0  0  0  0  0  0  0  0  0  0  0  0
    0.6842   -0.5513    0.0000 C   0  0  0  0  0  0  0  0  0  0  0  0
    4.4454   -1.2238    0.0000 C   0  0  0  0  0  0  0  0  0  0  0  0
    4.4572    0.0664    0.0000 C   0  0  0  0  0  0  0  0  0  0  0  0
   -2.4397    1.0752    0.0000 C   0  0  0  0  0  0  0  0  0  0  0  0
    3.1592   -0.5513    0.0000 C   0  0  0  0  0  0  0  0  0  0  0  0
    1.5053   -0.5513    0.0000 C   0  0  0  0  0  0  0  0  0  0  0  0
   -2.4358   -0.7664    0.0000 C   0  0  0  0  0  0  0  0  0  0  0  0
    0.2698   -1.2668    0.0000 O   0  0  0  0  0  0  0  0  0  0  0  0
    5.2430   -0.9892    0.0000 C   0  0  0  0  0  0  0  0  0  0  0  0
    5.2353   -0.1759    0.0000 C   0  0  0  0  0  0  0  0  0  0  0  0
    4.1562   -1.9979    0.0000 O   0  0  0  0  0  0  0  0  0  0  0  0
    4.1796    0.8640    0.0000 O   0  0  0  0  0  0  0  0  0  0  0  0
   -3.2099    0.7819    0.0000 O   0  0  0  0  0  0  0  0  0  0  0  0
    2.7486   -1.2668    0.0000 C   0  0  0  0  0  0  0  0  0  0  0  0
    2.7486    0.1603    0.0000 C   0  0  0  0  0  0  0  0  0  0  0  0
    1.9236   -1.2668    0.0000 C   0  0  0  0  0  0  0  0  0  0  0  0
    1.9236    0.1603    0.0000 C   0  0  0  0  0  0  0  0  0  0  0  0
   -2.3185    1.8728    0.0000 O   0  0  0  0  0  0  0  0  0  0  0  0
   -2.3185   -1.5952    0.0000 C   0  0  0  0  0  0  0  0  0  0  0  0
   -3.2021   -0.4574    0.0000 C   0  0  0  0  0  0  0  0  0  0  0  0
   -2.9675    2.3889    0.0000 C   0  0  0  0  0  0  0  0  0  0  0  0
   -2.8346    3.2099    0.0000 C   0  0  0  0  0  0  0  0  0  0  0  0
   -2.9675   -2.0996    0.0000 C   0  0  0  0  0  0  0  0  0  0  0  0
   -3.8590   -0.9658    0.0000 C   0  0  0  0  0  0  0  0  0  0  0  0
   -3.7495   -1.7868    0.0000 C   0  0  0  0  0  0  0  0  0  0  0  0
  2  6  1  0  0  0  0
  3  1  2  0  0  0  0
  4  3  1  0  0  0  0
  5 12  1  0  0  0  0
  6  1  1  0  0  0  0
  7  2  1  0  0  0  0
  8  7  1  0  0  0  0
  9  5  1  0  0  0  0
 10  5  1  0  0  0  0
 11  1  1  0  0  0  0
 12 22  1  0  0  0  0
 13  8  1  0  0  0  0
 14  3  1  0  0  0  0
 15  8  2  0  0  0  0
 16  9  1  0  0  0  0
 17 10  1  0  0  0  0
 18  9  2  0  0  0  0
 19 10  2  0  0  0  0
 20 11  2  0  0  0  0
 21 23  1  0  0  0  0
 22 24  2  0  0  0  0
 23 13  2  0  0  0  0
 24 13  1  0  0  0  0
 25 11  1  0  0  0  0
 26 14  1  0  0  0  0
 27 14  2  0  0  0  0
 28 25  1  0  0  0  0
 29 28  1  0  0  0  0
 30 26  2  0  0  0  0
 31 27  1  0  0  0  0
 32 31  2  0  0  0  0
  2  4  2  0  0  0  0
 32 30  1  0  0  0  0
 12 21  2  0  0  0  0
 17 16  1  0  0  0  0
M  END
>  <IDNUMBER>
F0327-0350

>  <Chemical_Name>
ethyl 2-[4-(2,5-dioxopyrrolidin-1-yl)benzamido]-4-phenyl-1,3-thiazole-5-carboxylate

>  <PriceCoeff>
1.00

>  <CAS>
329906-10-7

>  <MW>
449.48

>  <Description>
solid

>  <FSP3>
0.17

>  <clogP>
2.76

>  <TPSA>
133.91

>  <Acceptor>
6

>  <Donor>
1

>  <RotBonds>
7

>  <HAC>
32

>  <Collection>
General

>  <PPDS>
+

$$$$
F0327-0351
  Mrv2219 10102508112D          

 27 29  0  0  0  0            999 V2000
   -1.7948    0.5748    0.0000 C   0  0  0  0  0  0  0  0  0  0  0  0
   -0.5357    0.1603    0.0000 C   0  0  0  0  0  0  0  0  0  0  0  0
    3.9885   -0.5513    0.0000 N   0  0  0  0  0  0  0  0  0  0  0  0
   -1.0166   -0.5044    0.0000 N   0  0  0  0  0  0  0  0  0  0  0  0
   -1.0049    0.8172    0.0000 S   0  0  0  0  0  0  0  0  0  0  0  0
   -1.7948   -0.2698    0.0000 C   0  0  0  0  0  0  0  0  0  0  0  0
    0.2698    0.1603    0.0000 N   0  0  0  0  0  0  0  0  0  0  0  0
    0.6843   -0.5513    0.0000 C   0  0  0  0  0  0  0  0  0  0  0  0
    4.4460   -1.2239    0.0000 C   0  0  0  0  0  0  0  0  0  0  0  0
    4.4577    0.0664    0.0000 C   0  0  0  0  0  0  0  0  0  0  0  0
   -2.4400    1.0753    0.0000 C   0  0  0  0  0  0  0  0  0  0  0  0
    3.1595   -0.5513    0.0000 C   0  0  0  0  0  0  0  0  0  0  0  0
    1.5055   -0.5513    0.0000 C   0  0  0  0  0  0  0  0  0  0  0  0
    0.2698   -1.2669    0.0000 O   0  0  0  0  0  0  0  0  0  0  0  0
    5.2437   -0.9893    0.0000 C   0  0  0  0  0  0  0  0  0  0  0  0
    5.2359   -0.1760    0.0000 C   0  0  0  0  0  0  0  0  0  0  0  0
    4.1566   -1.9982    0.0000 O   0  0  0  0  0  0  0  0  0  0  0  0
    4.1801    0.8641    0.0000 O   0  0  0  0  0  0  0  0  0  0  0  0
   -3.2103    0.7820    0.0000 O   0  0  0  0  0  0  0  0  0  0  0  0
    2.7489   -1.2669    0.0000 C   0  0  0  0  0  0  0  0  0  0  0  0
    2.7489    0.1603    0.0000 C   0  0  0  0  0  0  0  0  0  0  0  0
    1.9238   -1.2669    0.0000 C   0  0  0  0  0  0  0  0  0  0  0  0
    1.9238    0.1603    0.0000 C   0  0  0  0  0  0  0  0  0  0  0  0
   -2.3188    1.8730    0.0000 O   0  0  0  0  0  0  0  0  0  0  0  0
   -2.4361   -0.7664    0.0000 C   0  0  0  0  0  0  0  0  0  0  0  0
   -2.9679    2.3891    0.0000 C   0  0  0  0  0  0  0  0  0  0  0  0
   -2.8349    3.2103    0.0000 C   0  0  0  0  0  0  0  0  0  0  0  0
  2  5  1  0  0  0  0
  3 12  1  0  0  0  0
  4  6  1  0  0  0  0
  5  1  1  0  0  0  0
  6  1  2  0  0  0  0
  7  2  1  0  0  0  0
  8  7  1  0  0  0  0
  9  3  1  0  0  0  0
 10  3  1  0  0  0  0
 11  1  1  0  0  0  0
 12 21  1  0  0  0  0
 13  8  1  0  0  0  0
 14  8  2  0  0  0  0
 15  9  1  0  0  0  0
 16 10  1  0  0  0  0
 17  9  2  0  0  0  0
 18 10  2  0  0  0  0
 19 11  2  0  0  0  0
 20 22  1  0  0  0  0
 21 23  2  0  0  0  0
 22 13  2  0  0  0  0
 23 13  1  0  0  0  0
 24 11  1  0  0  0  0
 25  6  1  0  0  0  0
 26 24  1  0  0  0  0
 27 26  1  0  0  0  0
  4  2  2  0  0  0  0
 20 12  2  0  0  0  0
 15 16  1  0  0  0  0
M  END
>  <IDNUMBER>
F0327-0351

>  <Chemical_Name>
ethyl 2-[4-(2,5-dioxopyrrolidin-1-yl)benzamido]-4-methyl-1,3-thiazole-5-carboxylate

>  <PriceCoeff>
1.00

>  <CAS>
330200-85-6

>  <MW>
387.41

>  <Description>
solid

>  <FSP3>
0.28

>  <clogP>
1.16

>  <TPSA>
133.91

>  <Acceptor>
6

>  <Donor>
1

>  <RotBonds>
6

>  <HAC>
27

>  <Collection>
General

>  <PPDS>
+

$$$$
F0327-0353
  Mrv2219 10102508112D          

 26 29  0  0  0  0            999 V2000
    3.9877   -0.1134    0.0000 N   0  0  0  0  0  0  0  0  0  0  0  0
   -0.5344   -0.8300    0.0000 C   0  0  0  0  0  0  0  0  0  0  0  0
   -1.1011   -1.4372    0.0000 N   0  0  0  0  0  0  0  0  0  0  0  0
   -1.8177   -1.0850    0.0000 C   0  0  0  0  0  0  0  0  0  0  0  0
    0.2793   -0.8300    0.0000 N   0  0  0  0  0  0  0  0  0  0  0  0
    0.6842   -0.1134    0.0000 C   0  0  0  0  0  0  0  0  0  0  0  0
    4.5707    0.4696    0.0000 C   0  0  0  0  0  0  0  0  0  0  0  0
    4.3763   -0.8542    0.0000 C   0  0  0  0  0  0  0  0  0  0  0  0
   -0.9432   -0.1134    0.0000 S   0  0  0  0  0  0  0  0  0  0  0  0
   -2.5262   -1.4939    0.0000 C   0  0  0  0  0  0  0  0  0  0  0  0
   -1.7610   -0.2915    0.0000 C   0  0  0  0  0  0  0  0  0  0  0  0
    3.1740   -0.1134    0.0000 C   0  0  0  0  0  0  0  0  0  0  0  0
   -2.6436   -2.3319    0.0000 S   0  0  0  0  0  0  0  0  0  0  0  0
    1.5222   -0.1134    0.0000 C   0  0  0  0  0  0  0  0  0  0  0  0
   -3.2508   -1.1457    0.0000 C   0  0  0  0  0  0  0  0  0  0  0  0
    0.2793    0.6032    0.0000 O   0  0  0  0  0  0  0  0  0  0  0  0
    5.1981   -0.7166    0.0000 C   0  0  0  0  0  0  0  0  0  0  0  0
    5.3115    0.0809    0.0000 C   0  0  0  0  0  0  0  0  0  0  0  0
    4.0120   -1.6072    0.0000 O   0  0  0  0  0  0  0  0  0  0  0  0
    4.4735    1.2833    0.0000 O   0  0  0  0  0  0  0  0  0  0  0  0
   -3.4330   -2.4776    0.0000 C   0  0  0  0  0  0  0  0  0  0  0  0
   -3.8338   -1.7165    0.0000 C   0  0  0  0  0  0  0  0  0  0  0  0
    2.7691   -0.8300    0.0000 C   0  0  0  0  0  0  0  0  0  0  0  0
    2.7489    0.6032    0.0000 C   0  0  0  0  0  0  0  0  0  0  0  0
    1.9311   -0.8300    0.0000 C   0  0  0  0  0  0  0  0  0  0  0  0
    1.9109    0.6032    0.0000 C   0  0  0  0  0  0  0  0  0  0  0  0
  2  5  1  0  0  0  0
  3  2  2  0  0  0  0
  4  3  1  0  0  0  0
  5  6  1  0  0  0  0
  6 14  1  0  0  0  0
  7  1  1  0  0  0  0
  8  1  1  0  0  0  0
  9  2  1  0  0  0  0
 10  4  1  0  0  0  0
 11  9  1  0  0  0  0
 12  1  1  0  0  0  0
 13 10  1  0  0  0  0
 14 26  1  0  0  0  0
 15 10  2  0  0  0  0
 16  6  2  0  0  0  0
 17  8  1  0  0  0  0
 18  7  1  0  0  0  0
 19  8  2  0  0  0  0
 20  7  2  0  0  0  0
 21 13  1  0  0  0  0
 22 15  1  0  0  0  0
 23 12  2  0  0  0  0
 24 12  1  0  0  0  0
 25 23  1  0  0  0  0
 26 24  2  0  0  0  0
 18 17  1  0  0  0  0
 25 14  2  0  0  0  0
  4 11  2  0  0  0  0
 22 21  2  0  0  0  0
M  END
>  <IDNUMBER>
F0327-0353

>  <Chemical_Name>
4-(2,5-dioxopyrrolidin-1-yl)-N-[4-(thiophen-2-yl)-1,3-thiazol-2-yl]benzamide

>  <PriceCoeff>
1.00

>  <CAS>
392246-39-8

>  <MW>
383.44

>  <Description>
solid

>  <FSP3>
0.11

>  <clogP>
2.02

>  <TPSA>
135.85

>  <Acceptor>
4

>  <Donor>
1

>  <RotBonds>
4

>  <HAC>
26

>  <Collection>
General

>  <PPDS>
+

$$$$
F0327-0355
  Mrv2219 10102508112D          

 27 30  0  0  0  0            999 V2000
    3.9877   -0.1134    0.0000 N   0  0  0  0  0  0  0  0  0  0  0  0
   -0.5344   -0.8300    0.0000 C   0  0  0  0  0  0  0  0  0  0  0  0
   -1.1011   -1.4372    0.0000 N   0  0  0  0  0  0  0  0  0  0  0  0
   -1.8177   -1.0850    0.0000 C   0  0  0  0  0  0  0  0  0  0  0  0
    0.2793   -0.8300    0.0000 N   0  0  0  0  0  0  0  0  0  0  0  0
   -2.5262   -1.4939    0.0000 C   0  0  0  0  0  0  0  0  0  0  0  0
   -2.6436   -2.3319    0.0000 S   0  0  0  0  0  0  0  0  0  0  0  0
    0.6842   -0.1134    0.0000 C   0  0  0  0  0  0  0  0  0  0  0  0
    4.5707    0.4696    0.0000 C   0  0  0  0  0  0  0  0  0  0  0  0
    4.3763   -0.8542    0.0000 C   0  0  0  0  0  0  0  0  0  0  0  0
   -0.9432   -0.1134    0.0000 S   0  0  0  0  0  0  0  0  0  0  0  0
   -3.4330   -2.4776    0.0000 C   0  0  0  0  0  0  0  0  0  0  0  0
   -1.7610   -0.2915    0.0000 C   0  0  0  0  0  0  0  0  0  0  0  0
   -3.2508   -1.1457    0.0000 C   0  0  0  0  0  0  0  0  0  0  0  0
   -3.8338   -1.7165    0.0000 C   0  0  0  0  0  0  0  0  0  0  0  0
    3.1740   -0.1134    0.0000 C   0  0  0  0  0  0  0  0  0  0  0  0
    1.5222   -0.1134    0.0000 C   0  0  0  0  0  0  0  0  0  0  0  0
    0.2793    0.6032    0.0000 O   0  0  0  0  0  0  0  0  0  0  0  0
    5.1981   -0.7166    0.0000 C   0  0  0  0  0  0  0  0  0  0  0  0
    5.3115    0.0809    0.0000 C   0  0  0  0  0  0  0  0  0  0  0  0
    4.0120   -1.6072    0.0000 O   0  0  0  0  0  0  0  0  0  0  0  0
    4.4735    1.2833    0.0000 O   0  0  0  0  0  0  0  0  0  0  0  0
    2.7691   -0.8300    0.0000 C   0  0  0  0  0  0  0  0  0  0  0  0
    2.7489    0.6032    0.0000 C   0  0  0  0  0  0  0  0  0  0  0  0
    1.9311   -0.8300    0.0000 C   0  0  0  0  0  0  0  0  0  0  0  0
    1.9109    0.6032    0.0000 C   0  0  0  0  0  0  0  0  0  0  0  0
   -3.7528   -3.2225    0.0000 Br  0  0  0  0  0  0  0  0  0  0  0  0
  2  5  1  0  0  0  0
  3  2  2  0  0  0  0
  4  3  1  0  0  0  0
  5  8  1  0  0  0  0
  6  4  1  0  0  0  0
  7  6  1  0  0  0  0
  8 17  1  0  0  0  0
  9  1  1  0  0  0  0
 10  1  1  0  0  0  0
 11  2  1  0  0  0  0
 12  7  1  0  0  0  0
 13 11  1  0  0  0  0
 14  6  2  0  0  0  0
 15 14  1  0  0  0  0
 16  1  1  0  0  0  0
 17 26  1  0  0  0  0
 18  8  2  0  0  0  0
 19 10  1  0  0  0  0
 20  9  1  0  0  0  0
 21 10  2  0  0  0  0
 22  9  2  0  0  0  0
 23 16  2  0  0  0  0
 24 16  1  0  0  0  0
 25 23  1  0  0  0  0
 26 24  2  0  0  0  0
 27 12  1  0  0  0  0
 20 19  1  0  0  0  0
 25 17  2  0  0  0  0
  4 13  2  0  0  0  0
 15 12  2  0  0  0  0
M  END
>  <IDNUMBER>
F0327-0355

>  <Chemical_Name>
N-[4-(5-bromothiophen-2-yl)-1,3-thiazol-2-yl]-4-(2,5-dioxopyrrolidin-1-yl)benzamide

>  <PriceCoeff>
1.00

>  <CAS>
313405-90-2

>  <MW>
462.34

>  <Description>
solid

>  <FSP3>
0.11

>  <clogP>
2.88

>  <TPSA>
135.85

>  <Acceptor>
4

>  <Donor>
1

>  <RotBonds>
4

>  <HAC>
27

>  <Collection>
General

>  <PPDS>
+

$$$$
F0327-0357
  Mrv2219 10102508112D          

 25 27  0  0  0  0            999 V2000
   -0.5357   -0.8319    0.0000 C   0  0  0  0  0  0  0  0  0  0  0  0
   -1.7653   -0.2922    0.0000 C   0  0  0  0  0  0  0  0  0  0  0  0
    3.9972   -0.1137    0.0000 N   0  0  0  0  0  0  0  0  0  0  0  0
   -1.1038   -1.4406    0.0000 N   0  0  0  0  0  0  0  0  0  0  0  0
   -0.9455   -0.1137    0.0000 S   0  0  0  0  0  0  0  0  0  0  0  0
   -1.8220   -1.0876    0.0000 C   0  0  0  0  0  0  0  0  0  0  0  0
    0.2800   -0.8319    0.0000 N   0  0  0  0  0  0  0  0  0  0  0  0
    0.6858   -0.1137    0.0000 C   0  0  0  0  0  0  0  0  0  0  0  0
    4.5816    0.4707    0.0000 C   0  0  0  0  0  0  0  0  0  0  0  0
    4.3868   -0.8563    0.0000 C   0  0  0  0  0  0  0  0  0  0  0  0
   -2.3983    0.2272    0.0000 C   0  0  0  0  0  0  0  0  0  0  0  0
    3.1815   -0.1137    0.0000 C   0  0  0  0  0  0  0  0  0  0  0  0
    1.5259   -0.1137    0.0000 C   0  0  0  0  0  0  0  0  0  0  0  0
    0.2800    0.6046    0.0000 O   0  0  0  0  0  0  0  0  0  0  0  0
    5.3242    0.0811    0.0000 C   0  0  0  0  0  0  0  0  0  0  0  0
    5.2105   -0.7183    0.0000 C   0  0  0  0  0  0  0  0  0  0  0  0
    4.4842    1.2864    0.0000 O   0  0  0  0  0  0  0  0  0  0  0  0
    4.0216   -1.6111    0.0000 O   0  0  0  0  0  0  0  0  0  0  0  0
   -2.3212    1.0429    0.0000 O   0  0  0  0  0  0  0  0  0  0  0  0
    2.7757   -0.8319    0.0000 C   0  0  0  0  0  0  0  0  0  0  0  0
    2.7555    0.6046    0.0000 C   0  0  0  0  0  0  0  0  0  0  0  0
    1.9357   -0.8319    0.0000 C   0  0  0  0  0  0  0  0  0  0  0  0
    1.9154    0.6046    0.0000 C   0  0  0  0  0  0  0  0  0  0  0  0
   -2.5322   -1.4974    0.0000 C   0  0  0  0  0  0  0  0  0  0  0  0
   -3.1855   -0.0041    0.0000 C   0  0  0  0  0  0  0  0  0  0  0  0
  2  5  1  0  0  0  0
  3 12  1  0  0  0  0
  4  1  2  0  0  0  0
  5  1  1  0  0  0  0
  6  4  1  0  0  0  0
  7  1  1  0  0  0  0
  8  7  1  0  0  0  0
  9  3  1  0  0  0  0
 10  3  1  0  0  0  0
 11  2  1  0  0  0  0
 12 21  1  0  0  0  0
 13  8  1  0  0  0  0
 14  8  2  0  0  0  0
 15  9  1  0  0  0  0
 16 10  1  0  0  0  0
 17  9  2  0  0  0  0
 18 10  2  0  0  0  0
 19 11  2  0  0  0  0
 20 22  1  0  0  0  0
 21 23  2  0  0  0  0
 22 13  2  0  0  0  0
 23 13  1  0  0  0  0
 24  6  1  0  0  0  0
 25 11  1  0  0  0  0
  2  6  2  0  0  0  0
 12 20  2  0  0  0  0
 15 16  1  0  0  0  0
M  END
>  <IDNUMBER>
F0327-0357

>  <Chemical_Name>
N-(5-acetyl-4-methyl-1,3-thiazol-2-yl)-4-(2,5-dioxopyrrolidin-1-yl)benzamide

>  <PriceCoeff>
1.00

>  <CAS>
330200-88-9

>  <MW>
357.38

>  <Description>
solid

>  <FSP3>
0.24

>  <clogP>
0.36

>  <TPSA>
124.68

>  <Acceptor>
5

>  <Donor>
1

>  <RotBonds>
4

>  <HAC>
25

>  <Collection>
General

>  <PPDS>
+

$$$$
F0327-0363
  Mrv2219 10102508112D          

 34 38  0  0  0  0            999 V2000
    4.1252    0.3269    0.0000 N   0  0  0  0  0  0  0  0  0  0  0  0
   -0.3736    1.0391    0.0000 C   0  0  0  0  0  0  0  0  0  0  0  0
   -0.8523    0.3736    0.0000 N   0  0  0  0  0  0  0  0  0  0  0  0
    0.4242    1.0391    0.0000 N   0  0  0  0  0  0  0  0  0  0  0  0
   -1.6306    0.6071    0.0000 C   0  0  0  0  0  0  0  0  0  0  0  0
    0.8406    0.3269    0.0000 C   0  0  0  0  0  0  0  0  0  0  0  0
    4.5805   -0.3425    0.0000 C   0  0  0  0  0  0  0  0  0  0  0  0
    4.5922    0.9457    0.0000 C   0  0  0  0  0  0  0  0  0  0  0  0
   -0.8406    1.6929    0.0000 S   0  0  0  0  0  0  0  0  0  0  0  0
   -1.6306    1.4477    0.0000 C   0  0  0  0  0  0  0  0  0  0  0  0
    3.3040    0.3269    0.0000 C   0  0  0  0  0  0  0  0  0  0  0  0
    1.6618    0.3269    0.0000 C   0  0  0  0  0  0  0  0  0  0  0  0
   -2.2610    0.1128    0.0000 C   0  0  0  0  0  0  0  0  0  0  0  0
    0.4242   -0.3775    0.0000 O   0  0  0  0  0  0  0  0  0  0  0  0
    5.3744   -0.1090    0.0000 C   0  0  0  0  0  0  0  0  0  0  0  0
    5.3705    0.7005    0.0000 C   0  0  0  0  0  0  0  0  0  0  0  0
    4.2964   -1.1091    0.0000 O   0  0  0  0  0  0  0  0  0  0  0  0
    4.3237    1.7396    0.0000 O   0  0  0  0  0  0  0  0  0  0  0  0
    2.8954    1.0391    0.0000 C   0  0  0  0  0  0  0  0  0  0  0  0
    2.8954   -0.3775    0.0000 C   0  0  0  0  0  0  0  0  0  0  0  0
    2.0704    1.0391    0.0000 C   0  0  0  0  0  0  0  0  0  0  0  0
    2.0704   -0.3775    0.0000 C   0  0  0  0  0  0  0  0  0  0  0  0
   -4.2224   -1.4010    0.0000 O   0  0  0  0  0  0  0  0  0  0  0  0
   -2.1482   -0.7044    0.0000 C   0  0  0  0  0  0  0  0  0  0  0  0
   -3.0316    0.4203    0.0000 C   0  0  0  0  0  0  0  0  0  0  0  0
   -3.5686   -0.9029    0.0000 C   0  0  0  0  0  0  0  0  0  0  0  0
   -2.7981   -1.2142    0.0000 C   0  0  0  0  0  0  0  0  0  0  0  0
   -3.6854   -0.0817    0.0000 C   0  0  0  0  0  0  0  0  0  0  0  0
   -4.1173   -2.2105    0.0000 C   0  0  0  0  0  0  0  0  0  0  0  0
   -4.7751   -2.7125    0.0000 C   0  0  0  0  0  0  0  0  0  0  0  0
   -3.3468   -2.5257    0.0000 C   0  0  0  0  0  0  0  0  0  0  0  0
   -3.2417   -3.3507    0.0000 C   0  0  0  0  0  0  0  0  0  0  0  0
   -4.6661   -3.5375    0.0000 C   0  0  0  0  0  0  0  0  0  0  0  0
   -3.9072   -3.8567    0.0000 C   0  0  0  0  0  0  0  0  0  0  0  0
  2  4  1  0  0  0  0
  3  2  2  0  0  0  0
  4  6  1  0  0  0  0
  5  3  1  0  0  0  0
  6 12  1  0  0  0  0
  7  1  1  0  0  0  0
  8  1  1  0  0  0  0
  9  2  1  0  0  0  0
 10  9  1  0  0  0  0
 11  1  1  0  0  0  0
 12 22  2  0  0  0  0
 13  5  1  0  0  0  0
 14  6  2  0  0  0  0
 15  7  1  0  0  0  0
 16  8  1  0  0  0  0
 17  7  2  0  0  0  0
 18  8  2  0  0  0  0
 19 11  1  0  0  0  0
 20 11  2  0  0  0  0
 21 19  2  0  0  0  0
 22 20  1  0  0  0  0
 23 26  1  0  0  0  0
 24 13  1  0  0  0  0
 25 13  2  0  0  0  0
 26 28  2  0  0  0  0
 27 24  2  0  0  0  0
 28 25  1  0  0  0  0
 29 23  1  0  0  0  0
 30 29  2  0  0  0  0
 31 29  1  0  0  0  0
 32 31  2  0  0  0  0
 33 30  1  0  0  0  0
 34 32  1  0  0  0  0
 16 15  1  0  0  0  0
 21 12  1  0  0  0  0
  5 10  2  0  0  0  0
 27 26  1  0  0  0  0
 34 33  2  0  0  0  0
M  END
>  <IDNUMBER>
F0327-0363

>  <Chemical_Name>
4-(2,5-dioxopyrrolidin-1-yl)-N-[4-(4-phenoxyphenyl)-1,3-thiazol-2-yl]benzamide

>  <PriceCoeff>
1.00

>  <CAS>
392246-40-1

>  <MW>
469.51

>  <Description>
solid

>  <FSP3>
0.08

>  <clogP>
4.22

>  <TPSA>
116.84

>  <Acceptor>
5

>  <Donor>
1

>  <RotBonds>
6

>  <HAC>
34

>  <Collection>
General

>  <PPDS>
+

$$$$
F0327-0364
  Mrv2219 10102508112D          

 32 35  0  0  0  0            999 V2000
   -1.6820   -0.3872    0.0000 C   0  0  0  0  0  0  0  0  0  0  0  0
   -1.7819   -1.1866    0.0000 C   0  0  0  0  0  0  0  0  0  0  0  0
   -0.4829   -0.9285    0.0000 C   0  0  0  0  0  0  0  0  0  0  0  0
   -2.3190    0.1707    0.0000 C   0  0  0  0  0  0  0  0  0  0  0  0
   -1.0450   -1.5280    0.0000 N   0  0  0  0  0  0  0  0  0  0  0  0
    4.0760   -0.2290    0.0000 N   0  0  0  0  0  0  0  0  0  0  0  0
   -0.8826   -0.2040    0.0000 S   0  0  0  0  0  0  0  0  0  0  0  0
    0.3539   -0.9285    0.0000 N   0  0  0  0  0  0  0  0  0  0  0  0
   -2.1608    0.9700    0.0000 C   0  0  0  0  0  0  0  0  0  0  0  0
    0.7661   -0.2290    0.0000 C   0  0  0  0  0  0  0  0  0  0  0  0
   -2.5438   -1.5030    0.0000 C   0  0  0  0  0  0  0  0  0  0  0  0
    4.4964   -0.9285    0.0000 C   0  0  0  0  0  0  0  0  0  0  0  0
    4.6338    0.3955    0.0000 C   0  0  0  0  0  0  0  0  0  0  0  0
    3.2516   -0.2290    0.0000 C   0  0  0  0  0  0  0  0  0  0  0  0
   -2.8186   -2.2857    0.0000 S   0  0  0  0  0  0  0  0  0  0  0  0
    1.5987   -0.2290    0.0000 C   0  0  0  0  0  0  0  0  0  0  0  0
   -3.0975   -0.1041    0.0000 O   0  0  0  0  0  0  0  0  0  0  0  0
   -3.1975   -1.0284    0.0000 C   0  0  0  0  0  0  0  0  0  0  0  0
    0.3539    0.5121    0.0000 O   0  0  0  0  0  0  0  0  0  0  0  0
    5.3957    0.0500    0.0000 C   0  0  0  0  0  0  0  0  0  0  0  0
    5.2958   -0.7661    0.0000 C   0  0  0  0  0  0  0  0  0  0  0  0
    4.4964    1.2323    0.0000 O   0  0  0  0  0  0  0  0  0  0  0  0
    4.1509   -1.7028    0.0000 O   0  0  0  0  0  0  0  0  0  0  0  0
   -3.6429   -2.2857    0.0000 C   0  0  0  0  0  0  0  0  0  0  0  0
   -3.8802   -1.5030    0.0000 C   0  0  0  0  0  0  0  0  0  0  0  0
   -1.9984    1.7944    0.0000 F   0  0  0  0  0  0  0  0  0  0  0  0
   -1.3447    0.8119    0.0000 F   0  0  0  0  0  0  0  0  0  0  0  0
   -2.9602    1.1324    0.0000 F   0  0  0  0  0  0  0  0  0  0  0  0
    2.8353   -0.9492    0.0000 C   0  0  0  0  0  0  0  0  0  0  0  0
    2.8353    0.4954    0.0000 C   0  0  0  0  0  0  0  0  0  0  0  0
    2.0151   -0.9492    0.0000 C   0  0  0  0  0  0  0  0  0  0  0  0
    2.0151    0.4954    0.0000 C   0  0  0  0  0  0  0  0  0  0  0  0
  2  1  2  0  0  0  0
  3  7  1  0  0  0  0
  4  1  1  0  0  0  0
  5  2  1  0  0  0  0
  6 14  1  0  0  0  0
  7  1  1  0  0  0  0
  8  3  1  0  0  0  0
  9  4  1  0  0  0  0
 10  8  1  0  0  0  0
 11  2  1  0  0  0  0
 12  6  1  0  0  0  0
 13  6  1  0  0  0  0
 14 30  1  0  0  0  0
 15 11  1  0  0  0  0
 16 10  1  0  0  0  0
 17  4  2  0  0  0  0
 18 11  2  0  0  0  0
 19 10  2  0  0  0  0
 20 13  1  0  0  0  0
 21 12  1  0  0  0  0
 22 13  2  0  0  0  0
 23 12  2  0  0  0  0
 24 15  1  0  0  0  0
 25 18  1  0  0  0  0
 26  9  1  0  0  0  0
 27  9  1  0  0  0  0
 28  9  1  0  0  0  0
 29 31  1  0  0  0  0
 30 32  2  0  0  0  0
 31 16  2  0  0  0  0
 32 16  1  0  0  0  0
  5  3  2  0  0  0  0
 24 25  2  0  0  0  0
 29 14  2  0  0  0  0
 21 20  1  0  0  0  0
M  END
>  <IDNUMBER>
F0327-0364

>  <Chemical_Name>
4-(2,5-dioxopyrrolidin-1-yl)-N-[4-(thiophen-2-yl)-5-(2,2,2-trifluoroacetyl)-1,3-thiazol-2-yl]benzamide

>  <PriceCoeff>
1.00

>  <CAS>
329905-74-0

>  <MW>
479.45

>  <Description>
solid

>  <FSP3>
0.15

>  <clogP>
2.41

>  <TPSA>
152.92

>  <Acceptor>
5

>  <Donor>
1

>  <RotBonds>
5

>  <HAC>
32

>  <Collection>
General

>  <PPDS>
+

$$$$
F0327-0365
  Mrv2219 10102508112D          

 24 26  0  0  0  0            999 V2000
    5.3099   -0.8719    0.0000 N   0  0  0  0  0  0  0  0  0  0  0  0
    5.7305   -1.5816    0.0000 C   0  0  0  0  0  0  0  0  0  0  0  0
    5.8751   -0.2410    0.0000 C   0  0  0  0  0  0  0  0  0  0  0  0
    2.0022   -0.8719    0.0000 C   0  0  0  0  0  0  0  0  0  0  0  0
    1.5816   -1.5816    0.0000 N   0  0  0  0  0  0  0  0  0  0  0  0
    0.7404   -1.5816    0.0000 C   0  0  0  0  0  0  0  0  0  0  0  0
    4.4863   -0.8719    0.0000 C   0  0  0  0  0  0  0  0  0  0  0  0
    2.8258   -0.8719    0.0000 C   0  0  0  0  0  0  0  0  0  0  0  0
    0.3461   -0.8719    0.0000 C   0  0  0  0  0  0  0  0  0  0  0  0
    0.3461   -2.3001    0.0000 C   0  0  0  0  0  0  0  0  0  0  0  0
   -0.4950   -2.3001    0.0000 C   0  0  0  0  0  0  0  0  0  0  0  0
   -0.4950   -0.8719    0.0000 C   0  0  0  0  0  0  0  0  0  0  0  0
    6.5235   -1.3976    0.0000 C   0  0  0  0  0  0  0  0  0  0  0  0
    6.6287   -0.5783    0.0000 C   0  0  0  0  0  0  0  0  0  0  0  0
    1.5816   -0.1577    0.0000 O   0  0  0  0  0  0  0  0  0  0  0  0
   -0.8937   -1.5816    0.0000 C   0  0  0  0  0  0  0  0  0  0  0  0
    5.7086    0.5783    0.0000 O   0  0  0  0  0  0  0  0  0  0  0  0
    5.3932   -2.3439    0.0000 O   0  0  0  0  0  0  0  0  0  0  0  0
    4.0657   -1.5816    0.0000 C   0  0  0  0  0  0  0  0  0  0  0  0
    4.0657   -0.1577    0.0000 C   0  0  0  0  0  0  0  0  0  0  0  0
    3.2464   -1.5816    0.0000 C   0  0  0  0  0  0  0  0  0  0  0  0
    3.2464   -0.1577    0.0000 C   0  0  0  0  0  0  0  0  0  0  0  0
   -0.9288   -0.1621    0.0000 Cl  0  0  0  0  0  0  0  0  0  0  0  0
   -0.9288   -3.0011    0.0000 Cl  0  0  0  0  0  0  0  0  0  0  0  0
  2  1  1  0  0  0  0
  3  1  1  0  0  0  0
  4  8  1  0  0  0  0
  5  4  1  0  0  0  0
  6  5  1  0  0  0  0
  7  1  1  0  0  0  0
  8 22  1  0  0  0  0
  9  6  2  0  0  0  0
 10  6  1  0  0  0  0
 11 10  2  0  0  0  0
 12  9  1  0  0  0  0
 13  2  1  0  0  0  0
 14  3  1  0  0  0  0
 15  4  2  0  0  0  0
 16 11  1  0  0  0  0
 17  3  2  0  0  0  0
 18  2  2  0  0  0  0
 19  7  2  0  0  0  0
 20  7  1  0  0  0  0
 21 19  1  0  0  0  0
 22 20  2  0  0  0  0
 23 12  1  0  0  0  0
 24 11  1  0  0  0  0
 14 13  1  0  0  0  0
 21  8  2  0  0  0  0
 16 12  2  0  0  0  0
M  END
>  <IDNUMBER>
F0327-0365

>  <Chemical_Name>
N-(3,5-dichlorophenyl)-4-(2,5-dioxopyrrolidin-1-yl)benzamide

>  <PriceCoeff>
1.00

>  <CAS>
313405-91-3

>  <MW>
363.19

>  <Description>
solid

>  <FSP3>
0.12

>  <clogP>
2.56

>  <TPSA>
66.48

>  <Acceptor>
3

>  <Donor>
1

>  <RotBonds>
3

>  <HAC>
24

>  <Collection>
General

>  <PPDS>
+

$$$$
F0327-0367
  Mrv2219 10102508112D          

 24 26  0  0  0  0            999 V2000
    4.9216   -0.9735    0.0000 N   0  0  0  0  0  0  0  0  0  0  0  0
    5.4264   -0.3426    0.0000 C   0  0  0  0  0  0  0  0  0  0  0  0
    5.3408   -1.6811    0.0000 C   0  0  0  0  0  0  0  0  0  0  0  0
    1.6000   -0.9735    0.0000 C   0  0  0  0  0  0  0  0  0  0  0  0
    1.1898   -0.2569    0.0000 N   0  0  0  0  0  0  0  0  0  0  0  0
    0.3426   -0.2569    0.0000 C   0  0  0  0  0  0  0  0  0  0  0  0
    4.0879   -0.9735    0.0000 C   0  0  0  0  0  0  0  0  0  0  0  0
   -0.0676    0.4552    0.0000 C   0  0  0  0  0  0  0  0  0  0  0  0
   -0.9149    0.4552    0.0000 C   0  0  0  0  0  0  0  0  0  0  0  0
    2.4202   -0.9735    0.0000 C   0  0  0  0  0  0  0  0  0  0  0  0
    1.1898   -1.6811    0.0000 O   0  0  0  0  0  0  0  0  0  0  0  0
    6.1430   -1.4918    0.0000 C   0  0  0  0  0  0  0  0  0  0  0  0
    6.2061   -0.6490    0.0000 C   0  0  0  0  0  0  0  0  0  0  0  0
    5.2326    0.4552    0.0000 O   0  0  0  0  0  0  0  0  0  0  0  0
    5.0343   -2.4879    0.0000 O   0  0  0  0  0  0  0  0  0  0  0  0
    3.6777   -1.6811    0.0000 C   0  0  0  0  0  0  0  0  0  0  0  0
    3.6958   -0.2569    0.0000 C   0  0  0  0  0  0  0  0  0  0  0  0
   -0.0676   -0.9735    0.0000 C   0  0  0  0  0  0  0  0  0  0  0  0
    2.8529   -0.2569    0.0000 C   0  0  0  0  0  0  0  0  0  0  0  0
    2.8304   -1.6811    0.0000 C   0  0  0  0  0  0  0  0  0  0  0  0
   -1.2980   -0.2569    0.0000 C   0  0  0  0  0  0  0  0  0  0  0  0
    0.3561    1.1583    0.0000 F   0  0  0  0  0  0  0  0  0  0  0  0
   -0.8878   -0.9735    0.0000 C   0  0  0  0  0  0  0  0  0  0  0  0
   -2.1318   -0.2569    0.0000 F   0  0  0  0  0  0  0  0  0  0  0  0
  2  1  1  0  0  0  0
  3  1  1  0  0  0  0
  4 10  1  0  0  0  0
  5  4  1  0  0  0  0
  6  5  1  0  0  0  0
  7  1  1  0  0  0  0
  8  6  2  0  0  0  0
  9  8  1  0  0  0  0
 10 19  1  0  0  0  0
 11  4  2  0  0  0  0
 12  3  1  0  0  0  0
 13  2  1  0  0  0  0
 14  2  2  0  0  0  0
 15  3  2  0  0  0  0
 16  7  2  0  0  0  0
 17  7  1  0  0  0  0
 18  6  1  0  0  0  0
 19 17  2  0  0  0  0
 20 16  1  0  0  0  0
 21 23  1  0  0  0  0
 22  8  1  0  0  0  0
 23 18  2  0  0  0  0
 24 21  1  0  0  0  0
 12 13  1  0  0  0  0
 20 10  2  0  0  0  0
  9 21  2  0  0  0  0
M  END
>  <IDNUMBER>
F0327-0367

>  <Chemical_Name>
N-(2,4-difluorophenyl)-4-(2,5-dioxopyrrolidin-1-yl)benzamide

>  <PriceCoeff>
1.00

>  <CAS>
330200-90-3

>  <MW>
330.29

>  <Description>
solid

>  <FSP3>
0.12

>  <clogP>
0.82

>  <TPSA>
66.48

>  <Acceptor>
3

>  <Donor>
1

>  <RotBonds>
3

>  <HAC>
24

>  <Collection>
General

>  <PPDS>
+

$$$$
F0327-0368
  Mrv2219 10102508112D          

 27 29  0  0  0  0            999 V2000
    5.4900   -1.0583    0.0000 N   0  0  0  0  0  0  0  0  0  0  0  0
    6.0445   -0.4436    0.0000 C   0  0  0  0  0  0  0  0  0  0  0  0
    5.8828   -1.7745    0.0000 C   0  0  0  0  0  0  0  0  0  0  0  0
    2.1627   -1.0583    0.0000 C   0  0  0  0  0  0  0  0  0  0  0  0
    1.7607   -0.3512    0.0000 N   0  0  0  0  0  0  0  0  0  0  0  0
   -1.5666   -0.3512    0.0000 C   0  0  0  0  0  0  0  0  0  0  0  0
    4.6443   -1.0583    0.0000 C   0  0  0  0  0  0  0  0  0  0  0  0
    2.9992   -1.0583    0.0000 C   0  0  0  0  0  0  0  0  0  0  0  0
   -0.7440   -0.3512    0.0000 C   0  0  0  0  0  0  0  0  0  0  0  0
    6.6869   -1.5943    0.0000 C   0  0  0  0  0  0  0  0  0  0  0  0
    6.7978   -0.7764    0.0000 C   0  0  0  0  0  0  0  0  0  0  0  0
    1.7607   -1.7745    0.0000 O   0  0  0  0  0  0  0  0  0  0  0  0
    5.8643    0.4020    0.0000 O   0  0  0  0  0  0  0  0  0  0  0  0
    5.5778   -2.5278    0.0000 O   0  0  0  0  0  0  0  0  0  0  0  0
   -1.9917    0.3835    0.0000 O   0  0  0  0  0  0  0  0  0  0  0  0
    4.2469   -0.3512    0.0000 C   0  0  0  0  0  0  0  0  0  0  0  0
    4.2469   -1.7745    0.0000 C   0  0  0  0  0  0  0  0  0  0  0  0
    3.4012   -1.7745    0.0000 C   0  0  0  0  0  0  0  0  0  0  0  0
    3.4012   -0.3512    0.0000 C   0  0  0  0  0  0  0  0  0  0  0  0
    0.9197   -0.3512    0.0000 C   0  0  0  0  0  0  0  0  0  0  0  0
   -0.3281    0.3835    0.0000 C   0  0  0  0  0  0  0  0  0  0  0  0
   -0.3281   -1.0583    0.0000 C   0  0  0  0  0  0  0  0  0  0  0  0
   -1.9917   -1.0583    0.0000 O   0  0  0  0  0  0  0  0  0  0  0  0
    0.5176   -1.0583    0.0000 C   0  0  0  0  0  0  0  0  0  0  0  0
    0.5176    0.3835    0.0000 C   0  0  0  0  0  0  0  0  0  0  0  0
   -2.8096   -1.0583    0.0000 C   0  0  0  0  0  0  0  0  0  0  0  0
   -3.2302   -1.7745    0.0000 C   0  0  0  0  0  0  0  0  0  0  0  0
  2  1  1  0  0  0  0
  3  1  1  0  0  0  0
  4  8  1  0  0  0  0
  5  4  1  0  0  0  0
  6  9  1  0  0  0  0
  7  1  1  0  0  0  0
  8 18  2  0  0  0  0
  9 21  2  0  0  0  0
 10  3  1  0  0  0  0
 11  2  1  0  0  0  0
 12  4  2  0  0  0  0
 13  2  2  0  0  0  0
 14  3  2  0  0  0  0
 15  6  2  0  0  0  0
 16  7  1  0  0  0  0
 17  7  2  0  0  0  0
 18 17  1  0  0  0  0
 19 16  2  0  0  0  0
 20  5  1  0  0  0  0
 21 25  1  0  0  0  0
 22 24  2  0  0  0  0
 23  6  1  0  0  0  0
 24 20  1  0  0  0  0
 25 20  2  0  0  0  0
 26 23  1  0  0  0  0
 27 26  1  0  0  0  0
 11 10  1  0  0  0  0
 19  8  1  0  0  0  0
 22  9  1  0  0  0  0
M  END
>  <IDNUMBER>
F0327-0368

>  <Chemical_Name>
ethyl 4-[4-(2,5-dioxopyrrolidin-1-yl)benzamido]benzoate

>  <PriceCoeff>
1.00

>  <CAS>
330200-91-4

>  <MW>
366.37

>  <Description>
solid

>  <FSP3>
0.20

>  <clogP>
1.76

>  <TPSA>
92.78

>  <Acceptor>
5

>  <Donor>
1

>  <RotBonds>
6

>  <HAC>
27

>  <Collection>
General

>  <PPDS>
+

$$$$
F0327-0369
  Mrv2219 10102508112D          

 28 31  0  0  0  0            999 V2000
    5.4964   -1.0595    0.0000 N   0  0  0  0  0  0  0  0  0  0  0  0
    6.0516   -0.4442    0.0000 C   0  0  0  0  0  0  0  0  0  0  0  0
    5.8897   -1.7766    0.0000 C   0  0  0  0  0  0  0  0  0  0  0  0
    2.1652   -1.0595    0.0000 C   0  0  0  0  0  0  0  0  0  0  0  0
    1.7627   -0.3517    0.0000 N   0  0  0  0  0  0  0  0  0  0  0  0
    0.9207   -0.3517    0.0000 C   0  0  0  0  0  0  0  0  0  0  0  0
    0.5182    0.3840    0.0000 C   0  0  0  0  0  0  0  0  0  0  0  0
   -0.3285    0.3840    0.0000 C   0  0  0  0  0  0  0  0  0  0  0  0
    4.6497   -1.0595    0.0000 C   0  0  0  0  0  0  0  0  0  0  0  0
    3.0027   -1.0595    0.0000 C   0  0  0  0  0  0  0  0  0  0  0  0
   -0.7448   -0.3517    0.0000 C   0  0  0  0  0  0  0  0  0  0  0  0
    1.7627   -1.7766    0.0000 O   0  0  0  0  0  0  0  0  0  0  0  0
    6.6947   -1.5962    0.0000 C   0  0  0  0  0  0  0  0  0  0  0  0
    6.8057   -0.7773    0.0000 C   0  0  0  0  0  0  0  0  0  0  0  0
    5.5843   -2.5308    0.0000 O   0  0  0  0  0  0  0  0  0  0  0  0
    5.8711    0.4025    0.0000 O   0  0  0  0  0  0  0  0  0  0  0  0
    0.5182   -1.0595    0.0000 C   0  0  0  0  0  0  0  0  0  0  0  0
    4.2519   -0.3517    0.0000 C   0  0  0  0  0  0  0  0  0  0  0  0
    4.2519   -1.7766    0.0000 C   0  0  0  0  0  0  0  0  0  0  0  0
    3.4052   -1.7766    0.0000 C   0  0  0  0  0  0  0  0  0  0  0  0
    3.4052   -0.3517    0.0000 C   0  0  0  0  0  0  0  0  0  0  0  0
   -0.3285   -1.0595    0.0000 C   0  0  0  0  0  0  0  0  0  0  0  0
   -1.5684   -0.3517    0.0000 O   0  0  0  0  0  0  0  0  0  0  0  0
    0.9299    1.0918    0.0000 C   0  0  0  0  0  0  0  0  0  0  0  0
   -0.7356    1.0918    0.0000 C   0  0  0  0  0  0  0  0  0  0  0  0
   -1.9940   -1.0595    0.0000 C   0  0  0  0  0  0  0  0  0  0  0  0
   -0.3285    1.7997    0.0000 C   0  0  0  0  0  0  0  0  0  0  0  0
    0.5043    1.7997    0.0000 C   0  0  0  0  0  0  0  0  0  0  0  0
  2  1  1  0  0  0  0
  3  1  1  0  0  0  0
  4 10  1  0  0  0  0
  5  4  1  0  0  0  0
  6  5  1  0  0  0  0
  7  6  2  0  0  0  0
  8  7  1  0  0  0  0
  9  1  1  0  0  0  0
 10 20  2  0  0  0  0
 11 22  1  0  0  0  0
 12  4  2  0  0  0  0
 13  3  1  0  0  0  0
 14  2  1  0  0  0  0
 15  3  2  0  0  0  0
 16  2  2  0  0  0  0
 17  6  1  0  0  0  0
 18  9  1  0  0  0  0
 19  9  2  0  0  0  0
 20 19  1  0  0  0  0
 21 18  2  0  0  0  0
 22 17  2  0  0  0  0
 23 11  1  0  0  0  0
 24  7  1  0  0  0  0
 25  8  1  0  0  0  0
 26 23  1  0  0  0  0
 27 28  1  0  0  0  0
 28 24  2  0  0  0  0
 13 14  1  0  0  0  0
 10 21  1  0  0  0  0
  8 11  2  0  0  0  0
 27 25  2  0  0  0  0
M  END
>  <IDNUMBER>
F0327-0369

>  <Chemical_Name>
4-(2,5-dioxopyrrolidin-1-yl)-N-(4-methoxynaphthalen-1-yl)benzamide

>  <PriceCoeff>
1.00

>  <CAS>
327971-74-4

>  <MW>
374.39

>  <Description>
solid

>  <FSP3>
0.14

>  <clogP>
2.04

>  <TPSA>
75.71

>  <Acceptor>
4

>  <Donor>
1

>  <RotBonds>
4

>  <HAC>
28

>  <Collection>
General

>  <PPDS>
+

$$$$
F0327-0370
  Mrv2219 10102508112D          

 32 36  0  0  0  0            999 V2000
    0.5179    0.3837    0.0000 C   0  0  0  0  0  0  0  0  0  0  0  0
    0.9293    1.0911    0.0000 C   0  0  0  0  0  0  0  0  0  0  0  0
    5.4928   -1.0588    0.0000 N   0  0  0  0  0  0  0  0  0  0  0  0
   -0.3283    0.3837    0.0000 C   0  0  0  0  0  0  0  0  0  0  0  0
   -0.7351    1.0911    0.0000 C   0  0  0  0  0  0  0  0  0  0  0  0
    0.5040    1.7986    0.0000 C   0  0  0  0  0  0  0  0  0  0  0  0
   -0.3283    1.7986    0.0000 C   0  0  0  0  0  0  0  0  0  0  0  0
    0.9201   -0.3515    0.0000 C   0  0  0  0  0  0  0  0  0  0  0  0
    5.8858   -1.7755    0.0000 C   0  0  0  0  0  0  0  0  0  0  0  0
    6.0476   -0.4439    0.0000 C   0  0  0  0  0  0  0  0  0  0  0  0
    1.7616   -0.3515    0.0000 N   0  0  0  0  0  0  0  0  0  0  0  0
    2.1638   -1.0588    0.0000 C   0  0  0  0  0  0  0  0  0  0  0  0
    4.6467   -1.0588    0.0000 C   0  0  0  0  0  0  0  0  0  0  0  0
    3.0007   -1.0588    0.0000 C   0  0  0  0  0  0  0  0  0  0  0  0
    1.7524    1.0911    0.0000 O   0  0  0  0  0  0  0  0  0  0  0  0
   -1.6229    1.0911    0.0000 O   0  0  0  0  0  0  0  0  0  0  0  0
    1.7616   -1.7755    0.0000 O   0  0  0  0  0  0  0  0  0  0  0  0
    6.6903   -1.5951    0.0000 C   0  0  0  0  0  0  0  0  0  0  0  0
    6.8013   -0.7767    0.0000 C   0  0  0  0  0  0  0  0  0  0  0  0
    5.5807   -2.5291    0.0000 O   0  0  0  0  0  0  0  0  0  0  0  0
    5.8673    0.4023    0.0000 O   0  0  0  0  0  0  0  0  0  0  0  0
    4.2491   -0.3515    0.0000 C   0  0  0  0  0  0  0  0  0  0  0  0
    4.2491   -1.7755    0.0000 C   0  0  0  0  0  0  0  0  0  0  0  0
    3.4030   -1.7755    0.0000 C   0  0  0  0  0  0  0  0  0  0  0  0
    3.4030   -0.3515    0.0000 C   0  0  0  0  0  0  0  0  0  0  0  0
   -0.7443   -0.3515    0.0000 C   0  0  0  0  0  0  0  0  0  0  0  0
    0.5179   -1.0588    0.0000 C   0  0  0  0  0  0  0  0  0  0  0  0
    0.9293    2.5198    0.0000 C   0  0  0  0  0  0  0  0  0  0  0  0
   -0.7351    2.5198    0.0000 C   0  0  0  0  0  0  0  0  0  0  0  0
   -0.3283   -1.0588    0.0000 C   0  0  0  0  0  0  0  0  0  0  0  0
   -0.3283    3.2180    0.0000 C   0  0  0  0  0  0  0  0  0  0  0  0
    0.5040    3.2180    0.0000 C   0  0  0  0  0  0  0  0  0  0  0  0
  2  1  1  0  0  0  0
  3 13  1  0  0  0  0
  4  1  1  0  0  0  0
  5  4  1  0  0  0  0
  6  2  1  0  0  0  0
  7  5  1  0  0  0  0
  8  1  2  0  0  0  0
  9  3  1  0  0  0  0
 10  3  1  0  0  0  0
 11  8  1  0  0  0  0
 12 11  1  0  0  0  0
 13 22  1  0  0  0  0
 14 12  1  0  0  0  0
 15  2  2  0  0  0  0
 16  5  2  0  0  0  0
 17 12  2  0  0  0  0
 18  9  1  0  0  0  0
 19 10  1  0  0  0  0
 20  9  2  0  0  0  0
 21 10  2  0  0  0  0
 22 25  2  0  0  0  0
 23 24  1  0  0  0  0
 24 14  2  0  0  0  0
 25 14  1  0  0  0  0
 26  4  2  0  0  0  0
 27  8  1  0  0  0  0
 28  6  1  0  0  0  0
 29  7  1  0  0  0  0
 30 27  2  0  0  0  0
 31 29  2  0  0  0  0
 32 28  2  0  0  0  0
 26 30  1  0  0  0  0
  6  7  2  0  0  0  0
 32 31  1  0  0  0  0
 23 13  2  0  0  0  0
 19 18  1  0  0  0  0
M  END
>  <IDNUMBER>
F0327-0370

>  <Chemical_Name>
N-(9,10-dioxo-9,10-dihydroanthracen-1-yl)-4-(2,5-dioxopyrrolidin-1-yl)benzamide

>  <PriceCoeff>
1.00

>  <CAS>
392246-41-2

>  <MW>
424.40

>  <Description>
solid

>  <FSP3>
0.08

>  <clogP>
2.55

>  <TPSA>
100.62

>  <Acceptor>
5

>  <Donor>
1

>  <RotBonds>
3

>  <HAC>
32

>  <Collection>
General

>  <PPDS>
+

$$$$
F0327-0373
  Mrv2219 10102508112D          

 31 34  0  0  0  0            999 V2000
    5.0799   -2.6097    0.0000 N   0  0  0  0  0  0  0  0  0  0  0  0
    0.6885    0.0930    0.0000 C   0  0  0  0  0  0  0  0  0  0  0  0
    1.2607    0.6699    0.0000 C   0  0  0  0  0  0  0  0  0  0  0  0
    5.7916   -2.1631    0.0000 C   0  0  0  0  0  0  0  0  0  0  0  0
    5.2800   -3.3912    0.0000 C   0  0  0  0  0  0  0  0  0  0  0  0
    0.9118   -0.7025    0.0000 C   0  0  0  0  0  0  0  0  0  0  0  0
    1.9306   -1.6933    0.0000 C   0  0  0  0  0  0  0  0  0  0  0  0
    1.7073   -0.8932    0.0000 N   0  0  0  0  0  0  0  0  0  0  0  0
    4.2984   -2.3864    0.0000 C   0  0  0  0  0  0  0  0  0  0  0  0
    2.7121   -1.9166    0.0000 C   0  0  0  0  0  0  0  0  0  0  0  0
   -0.1116    0.2931    0.0000 C   0  0  0  0  0  0  0  0  0  0  0  0
    2.0980    0.5815    0.0000 O   0  0  0  0  0  0  0  0  0  0  0  0
    1.3444   -2.2748    0.0000 O   0  0  0  0  0  0  0  0  0  0  0  0
    6.4196   -2.6981    0.0000 C   0  0  0  0  0  0  0  0  0  0  0  0
    6.1033   -3.4610    0.0000 C   0  0  0  0  0  0  0  0  0  0  0  0
    5.8614   -1.3397    0.0000 O   0  0  0  0  0  0  0  0  0  0  0  0
    4.7636   -4.0379    0.0000 O   0  0  0  0  0  0  0  0  0  0  0  0
    0.9537    1.4327    0.0000 C   0  0  0  0  0  0  0  0  0  0  0  0
    0.3536   -1.2886    0.0000 C   0  0  0  0  0  0  0  0  0  0  0  0
    4.0937   -1.5817    0.0000 C   0  0  0  0  0  0  0  0  0  0  0  0
    3.7169   -2.9447    0.0000 C   0  0  0  0  0  0  0  0  0  0  0  0
    2.9075   -2.7214    0.0000 C   0  0  0  0  0  0  0  0  0  0  0  0
    3.3122   -1.3584    0.0000 C   0  0  0  0  0  0  0  0  0  0  0  0
   -0.6838   -0.3117    0.0000 C   0  0  0  0  0  0  0  0  0  0  0  0
   -0.4466   -1.0932    0.0000 C   0  0  0  0  0  0  0  0  0  0  0  0
   -1.4886   -0.1303    0.0000 Cl  0  0  0  0  0  0  0  0  0  0  0  0
    1.4561    2.0887    0.0000 C   0  0  0  0  0  0  0  0  0  0  0  0
    0.1442    1.5304    0.0000 C   0  0  0  0  0  0  0  0  0  0  0  0
    1.1583    2.8470    0.0000 C   0  0  0  0  0  0  0  0  0  0  0  0
   -0.1675    2.3027    0.0000 C   0  0  0  0  0  0  0  0  0  0  0  0
    0.3396    2.9586    0.0000 C   0  0  0  0  0  0  0  0  0  0  0  0
  2  6  2  0  0  0  0
  3  2  1  0  0  0  0
  4  1  1  0  0  0  0
  5  1  1  0  0  0  0
  6  8  1  0  0  0  0
  7 10  1  0  0  0  0
  8  7  1  0  0  0  0
  9  1  1  0  0  0  0
 10 22  2  0  0  0  0
 11  2  1  0  0  0  0
 12  3  2  0  0  0  0
 13  7  2  0  0  0  0
 14  4  1  0  0  0  0
 15  5  1  0  0  0  0
 16  4  2  0  0  0  0
 17  5  2  0  0  0  0
 18  3  1  0  0  0  0
 19  6  1  0  0  0  0
 20  9  1  0  0  0  0
 21  9  2  0  0  0  0
 22 21  1  0  0  0  0
 23 20  2  0  0  0  0
 24 25  1  0  0  0  0
 25 19  2  0  0  0  0
 26 24  1  0  0  0  0
 27 18  2  0  0  0  0
 28 18  1  0  0  0  0
 29 27  1  0  0  0  0
 30 28  2  0  0  0  0
 31 30  1  0  0  0  0
 14 15  1  0  0  0  0
 10 23  1  0  0  0  0
 11 24  2  0  0  0  0
 29 31  2  0  0  0  0
M  END
>  <IDNUMBER>
F0327-0373

>  <Chemical_Name>
N-(2-benzoyl-4-chlorophenyl)-4-(2,5-dioxopyrrolidin-1-yl)benzamide

>  <PriceCoeff>
1.00

>  <CAS>
329906-62-9

>  <MW>
432.86

>  <Description>
solid

>  <FSP3>
0.08

>  <clogP>
3.55

>  <TPSA>
83.55

>  <Acceptor>
4

>  <Donor>
1

>  <RotBonds>
5

>  <HAC>
31

>  <Collection>
General

>  <PPDS>
+

$$$$
F0327-0374
  Mrv2219 10102508112D          

 32 35  0  0  0  0            999 V2000
    5.0799   -2.6097    0.0000 N   0  0  0  0  0  0  0  0  0  0  0  0
    0.6885    0.0930    0.0000 C   0  0  0  0  0  0  0  0  0  0  0  0
    1.2607    0.6699    0.0000 C   0  0  0  0  0  0  0  0  0  0  0  0
    0.9537    1.4327    0.0000 C   0  0  0  0  0  0  0  0  0  0  0  0
    5.7916   -2.1631    0.0000 C   0  0  0  0  0  0  0  0  0  0  0  0
    5.2800   -3.3912    0.0000 C   0  0  0  0  0  0  0  0  0  0  0  0
    0.9118   -0.7025    0.0000 C   0  0  0  0  0  0  0  0  0  0  0  0
    1.9306   -1.6933    0.0000 C   0  0  0  0  0  0  0  0  0  0  0  0
    1.7073   -0.8932    0.0000 N   0  0  0  0  0  0  0  0  0  0  0  0
    4.2984   -2.3864    0.0000 C   0  0  0  0  0  0  0  0  0  0  0  0
    2.7121   -1.9166    0.0000 C   0  0  0  0  0  0  0  0  0  0  0  0
   -0.1116    0.2931    0.0000 C   0  0  0  0  0  0  0  0  0  0  0  0
    1.4561    2.0887    0.0000 C   0  0  0  0  0  0  0  0  0  0  0  0
    2.0980    0.5815    0.0000 O   0  0  0  0  0  0  0  0  0  0  0  0
    1.3444   -2.2748    0.0000 O   0  0  0  0  0  0  0  0  0  0  0  0
    6.4196   -2.6981    0.0000 C   0  0  0  0  0  0  0  0  0  0  0  0
    6.1033   -3.4610    0.0000 C   0  0  0  0  0  0  0  0  0  0  0  0
    5.8614   -1.3397    0.0000 O   0  0  0  0  0  0  0  0  0  0  0  0
    4.7636   -4.0379    0.0000 O   0  0  0  0  0  0  0  0  0  0  0  0
    0.3536   -1.2886    0.0000 C   0  0  0  0  0  0  0  0  0  0  0  0
    4.0937   -1.5817    0.0000 C   0  0  0  0  0  0  0  0  0  0  0  0
    3.7169   -2.9447    0.0000 C   0  0  0  0  0  0  0  0  0  0  0  0
    2.9075   -2.7214    0.0000 C   0  0  0  0  0  0  0  0  0  0  0  0
    3.3122   -1.3584    0.0000 C   0  0  0  0  0  0  0  0  0  0  0  0
   -0.6838   -0.3117    0.0000 C   0  0  0  0  0  0  0  0  0  0  0  0
    2.2748    1.9910    0.0000 Cl  0  0  0  0  0  0  0  0  0  0  0  0
   -0.4466   -1.0932    0.0000 C   0  0  0  0  0  0  0  0  0  0  0  0
   -1.4886   -0.1303    0.0000 Cl  0  0  0  0  0  0  0  0  0  0  0  0
    0.1442    1.5304    0.0000 C   0  0  0  0  0  0  0  0  0  0  0  0
    1.1583    2.8470    0.0000 C   0  0  0  0  0  0  0  0  0  0  0  0
   -0.1675    2.3027    0.0000 C   0  0  0  0  0  0  0  0  0  0  0  0
    0.3396    2.9586    0.0000 C   0  0  0  0  0  0  0  0  0  0  0  0
  2  7  2  0  0  0  0
  3  2  1  0  0  0  0
  4  3  1  0  0  0  0
  5  1  1  0  0  0  0
  6  1  1  0  0  0  0
  7  9  1  0  0  0  0
  8 11  1  0  0  0  0
  9  8  1  0  0  0  0
 10  1  1  0  0  0  0
 11 23  2  0  0  0  0
 12  2  1  0  0  0  0
 13  4  2  0  0  0  0
 14  3  2  0  0  0  0
 15  8  2  0  0  0  0
 16  5  1  0  0  0  0
 17  6  1  0  0  0  0
 18  5  2  0  0  0  0
 19  6  2  0  0  0  0
 20  7  1  0  0  0  0
 21 10  1  0  0  0  0
 22 10  2  0  0  0  0
 23 22  1  0  0  0  0
 24 21  2  0  0  0  0
 25 27  1  0  0  0  0
 26 13  1  0  0  0  0
 27 20  2  0  0  0  0
 28 25  1  0  0  0  0
 29  4  1  0  0  0  0
 30 13  1  0  0  0  0
 31 29  2  0  0  0  0
 32 31  1  0  0  0  0
 17 16  1  0  0  0  0
 24 11  1  0  0  0  0
 25 12  2  0  0  0  0
 32 30  2  0  0  0  0
M  END
>  <IDNUMBER>
F0327-0374

>  <Chemical_Name>
N-[4-chloro-2-(2-chlorobenzoyl)phenyl]-4-(2,5-dioxopyrrolidin-1-yl)benzamide

>  <PriceCoeff>
1.00

>  <CAS>
313405-93-5

>  <MW>
467.30

>  <Description>
solid

>  <FSP3>
0.08

>  <clogP>
4.07

>  <TPSA>
83.55

>  <Acceptor>
4

>  <Donor>
1

>  <RotBonds>
5

>  <HAC>
32

>  <Collection>
General

>  <PPDS>
+

$$$$
F0327-0376
  Mrv2219 10102508112D          

 31 34  0  0  0  0            999 V2000
    5.0799   -2.6097    0.0000 N   0  0  0  0  0  0  0  0  0  0  0  0
    0.6885    0.0930    0.0000 C   0  0  0  0  0  0  0  0  0  0  0  0
    1.2607    0.6699    0.0000 C   0  0  0  0  0  0  0  0  0  0  0  0
    5.7916   -2.1631    0.0000 C   0  0  0  0  0  0  0  0  0  0  0  0
    5.2800   -3.3912    0.0000 C   0  0  0  0  0  0  0  0  0  0  0  0
    0.9118   -0.7025    0.0000 C   0  0  0  0  0  0  0  0  0  0  0  0
    1.9306   -1.6933    0.0000 C   0  0  0  0  0  0  0  0  0  0  0  0
    1.7073   -0.8932    0.0000 N   0  0  0  0  0  0  0  0  0  0  0  0
    4.2984   -2.3864    0.0000 C   0  0  0  0  0  0  0  0  0  0  0  0
    2.7121   -1.9166    0.0000 C   0  0  0  0  0  0  0  0  0  0  0  0
   -0.1116    0.2931    0.0000 C   0  0  0  0  0  0  0  0  0  0  0  0
    2.0980    0.5815    0.0000 O   0  0  0  0  0  0  0  0  0  0  0  0
    1.3444   -2.2748    0.0000 O   0  0  0  0  0  0  0  0  0  0  0  0
    6.4196   -2.6981    0.0000 C   0  0  0  0  0  0  0  0  0  0  0  0
    6.1033   -3.4610    0.0000 C   0  0  0  0  0  0  0  0  0  0  0  0
    5.8614   -1.3397    0.0000 O   0  0  0  0  0  0  0  0  0  0  0  0
    4.7636   -4.0379    0.0000 O   0  0  0  0  0  0  0  0  0  0  0  0
    0.9537    1.4327    0.0000 C   0  0  0  0  0  0  0  0  0  0  0  0
    0.3536   -1.2886    0.0000 C   0  0  0  0  0  0  0  0  0  0  0  0
    4.0937   -1.5817    0.0000 C   0  0  0  0  0  0  0  0  0  0  0  0
    3.7169   -2.9447    0.0000 C   0  0  0  0  0  0  0  0  0  0  0  0
    2.9075   -2.7214    0.0000 C   0  0  0  0  0  0  0  0  0  0  0  0
    3.3122   -1.3584    0.0000 C   0  0  0  0  0  0  0  0  0  0  0  0
   -0.6838   -0.3117    0.0000 C   0  0  0  0  0  0  0  0  0  0  0  0
   -0.4466   -1.0932    0.0000 C   0  0  0  0  0  0  0  0  0  0  0  0
   -1.4886   -0.1303    0.0000 Br  0  0  0  0  0  0  0  0  0  0  0  0
    1.4561    2.0887    0.0000 C   0  0  0  0  0  0  0  0  0  0  0  0
    0.1442    1.5304    0.0000 C   0  0  0  0  0  0  0  0  0  0  0  0
    1.1583    2.8470    0.0000 C   0  0  0  0  0  0  0  0  0  0  0  0
   -0.1675    2.3027    0.0000 C   0  0  0  0  0  0  0  0  0  0  0  0
    0.3396    2.9586    0.0000 C   0  0  0  0  0  0  0  0  0  0  0  0
  2  6  2  0  0  0  0
  3  2  1  0  0  0  0
  4  1  1  0  0  0  0
  5  1  1  0  0  0  0
  6  8  1  0  0  0  0
  7 10  1  0  0  0  0
  8  7  1  0  0  0  0
  9  1  1  0  0  0  0
 10 22  2  0  0  0  0
 11  2  1  0  0  0  0
 12  3  2  0  0  0  0
 13  7  2  0  0  0  0
 14  4  1  0  0  0  0
 15  5  1  0  0  0  0
 16  4  2  0  0  0  0
 17  5  2  0  0  0  0
 18  3  1  0  0  0  0
 19  6  1  0  0  0  0
 20  9  1  0  0  0  0
 21  9  2  0  0  0  0
 22 21  1  0  0  0  0
 23 20  2  0  0  0  0
 24 25  1  0  0  0  0
 25 19  2  0  0  0  0
 26 24  1  0  0  0  0
 27 18  2  0  0  0  0
 28 18  1  0  0  0  0
 29 27  1  0  0  0  0
 30 28  2  0  0  0  0
 31 30  1  0  0  0  0
 15 14  1  0  0  0  0
 23 10  1  0  0  0  0
 24 11  2  0  0  0  0
 31 29  2  0  0  0  0
M  END
>  <IDNUMBER>
F0327-0376

>  <Chemical_Name>
N-(2-benzoyl-4-bromophenyl)-4-(2,5-dioxopyrrolidin-1-yl)benzamide

>  <PriceCoeff>
1.00

>  <CAS>
392246-42-3

>  <MW>
477.31

>  <Description>
solid

>  <FSP3>
0.08

>  <clogP>
3.70

>  <TPSA>
83.55

>  <Acceptor>
4

>  <Donor>
1

>  <RotBonds>
5

>  <HAC>
31

>  <Collection>
General

>  <PPDS>
+

$$$$
F0327-0377
  Mrv2219 10102508112D          

 31 34  0  0  0  0            999 V2000
    5.0803   -2.6099    0.0000 N   0  0  0  0  0  0  0  0  0  0  0  0
    0.6886    0.0930    0.0000 C   0  0  0  0  0  0  0  0  0  0  0  0
    1.2608    0.6699    0.0000 C   0  0  0  0  0  0  0  0  0  0  0  0
    5.7920   -2.1633    0.0000 C   0  0  0  0  0  0  0  0  0  0  0  0
    5.2803   -3.3915    0.0000 C   0  0  0  0  0  0  0  0  0  0  0  0
    0.9119   -0.7025    0.0000 C   0  0  0  0  0  0  0  0  0  0  0  0
    1.9307   -1.6935    0.0000 C   0  0  0  0  0  0  0  0  0  0  0  0
    1.7074   -0.8932    0.0000 N   0  0  0  0  0  0  0  0  0  0  0  0
    4.2987   -2.3866    0.0000 C   0  0  0  0  0  0  0  0  0  0  0  0
    2.7123   -1.9168    0.0000 C   0  0  0  0  0  0  0  0  0  0  0  0
   -0.1117    0.2931    0.0000 C   0  0  0  0  0  0  0  0  0  0  0  0
    2.0982    0.5815    0.0000 O   0  0  0  0  0  0  0  0  0  0  0  0
    1.3445   -2.2749    0.0000 O   0  0  0  0  0  0  0  0  0  0  0  0
    6.4201   -2.6983    0.0000 C   0  0  0  0  0  0  0  0  0  0  0  0
    6.1038   -3.4613    0.0000 C   0  0  0  0  0  0  0  0  0  0  0  0
    5.8618   -1.3398    0.0000 O   0  0  0  0  0  0  0  0  0  0  0  0
    4.7639   -4.0382    0.0000 O   0  0  0  0  0  0  0  0  0  0  0  0
    0.9537    1.4329    0.0000 C   0  0  0  0  0  0  0  0  0  0  0  0
    0.3536   -1.2887    0.0000 C   0  0  0  0  0  0  0  0  0  0  0  0
    4.0940   -1.5818    0.0000 C   0  0  0  0  0  0  0  0  0  0  0  0
    3.7172   -2.9449    0.0000 C   0  0  0  0  0  0  0  0  0  0  0  0
    2.9077   -2.7216    0.0000 C   0  0  0  0  0  0  0  0  0  0  0  0
    3.3124   -1.3585    0.0000 C   0  0  0  0  0  0  0  0  0  0  0  0
   -0.6839   -0.3117    0.0000 C   0  0  0  0  0  0  0  0  0  0  0  0
   -0.4466   -1.0933    0.0000 C   0  0  0  0  0  0  0  0  0  0  0  0
    1.4562    2.0888    0.0000 C   0  0  0  0  0  0  0  0  0  0  0  0
    0.1443    1.5306    0.0000 C   0  0  0  0  0  0  0  0  0  0  0  0
   -1.4887   -0.1303    0.0000 C   0  0  0  0  0  0  0  0  0  0  0  0
    1.1584    2.8472    0.0000 C   0  0  0  0  0  0  0  0  0  0  0  0
   -0.1675    2.3029    0.0000 C   0  0  0  0  0  0  0  0  0  0  0  0
    0.3397    2.9588    0.0000 C   0  0  0  0  0  0  0  0  0  0  0  0
  2  6  2  0  0  0  0
  3  2  1  0  0  0  0
  4  1  1  0  0  0  0
  5  1  1  0  0  0  0
  6  8  1  0  0  0  0
  7 10  1  0  0  0  0
  8  7  1  0  0  0  0
  9  1  1  0  0  0  0
 10 22  2  0  0  0  0
 11  2  1  0  0  0  0
 12  3  2  0  0  0  0
 13  7  2  0  0  0  0
 14  4  1  0  0  0  0
 15  5  1  0  0  0  0
 16  4  2  0  0  0  0
 17  5  2  0  0  0  0
 18  3  1  0  0  0  0
 19  6  1  0  0  0  0
 20  9  1  0  0  0  0
 21  9  2  0  0  0  0
 22 21  1  0  0  0  0
 23 20  2  0  0  0  0
 24 25  1  0  0  0  0
 25 19  2  0  0  0  0
 26 18  2  0  0  0  0
 27 18  1  0  0  0  0
 28 24  1  0  0  0  0
 29 26  1  0  0  0  0
 30 27  2  0  0  0  0
 31 30  1  0  0  0  0
 15 14  1  0  0  0  0
 23 10  1  0  0  0  0
 24 11  2  0  0  0  0
 31 29  2  0  0  0  0
M  END
>  <IDNUMBER>
F0327-0377

>  <Chemical_Name>
N-(2-benzoyl-4-methylphenyl)-4-(2,5-dioxopyrrolidin-1-yl)benzamide

>  <PriceCoeff>
1.00

>  <CAS>
330200-93-6

>  <MW>
412.44

>  <Description>
solid

>  <FSP3>
0.12

>  <clogP>
3.23

>  <TPSA>
83.55

>  <Acceptor>
4

>  <Donor>
1

>  <RotBonds>
5

>  <HAC>
31

>  <Collection>
General

>  <PPDS>
+

$$$$
F0327-0381
  Mrv2219 10102508112D          

 28 31  0  0  0  0            999 V2000
   -3.5943    0.9934    0.0000 N   0  0  0  0  0  0  0  0  0  0  0  0
   -2.8609    1.3431    0.0000 C   0  0  0  0  0  0  0  0  0  0  0  0
   -3.5132    0.2004    0.0000 C   0  0  0  0  0  0  0  0  0  0  0  0
   -2.3024    0.7504    0.0000 C   0  0  0  0  0  0  0  0  0  0  0  0
    3.4835   -0.7035    0.0000 N   0  0  0  0  0  0  0  0  0  0  0  0
   -2.7117    0.0341    0.0000 C   0  0  0  0  0  0  0  0  0  0  0  0
    4.0804   -0.1066    0.0000 C   0  0  0  0  0  0  0  0  0  0  0  0
    3.8757   -1.4198    0.0000 C   0  0  0  0  0  0  0  0  0  0  0  0
    0.1919   -0.7035    0.0000 C   0  0  0  0  0  0  0  0  0  0  0  0
   -0.2387    0.0341    0.0000 N   0  0  0  0  0  0  0  0  0  0  0  0
    2.6648   -0.7035    0.0000 C   0  0  0  0  0  0  0  0  0  0  0  0
   -2.2853   -0.7035    0.0000 C   0  0  0  0  0  0  0  0  0  0  0  0
   -1.4667    0.7504    0.0000 C   0  0  0  0  0  0  0  0  0  0  0  0
   -2.7330    2.1830    0.0000 O   0  0  0  0  0  0  0  0  0  0  0  0
   -4.1443   -0.3582    0.0000 O   0  0  0  0  0  0  0  0  0  0  0  0
    1.0105   -0.7035    0.0000 C   0  0  0  0  0  0  0  0  0  0  0  0
   -1.0574    0.0341    0.0000 C   0  0  0  0  0  0  0  0  0  0  0  0
    4.7967   -0.4989    0.0000 C   0  0  0  0  0  0  0  0  0  0  0  0
    4.6730   -1.2962    0.0000 C   0  0  0  0  0  0  0  0  0  0  0  0
   -0.2387   -1.4198    0.0000 O   0  0  0  0  0  0  0  0  0  0  0  0
    3.9567    0.7291    0.0000 O   0  0  0  0  0  0  0  0  0  0  0  0
    3.5091   -2.1788    0.0000 O   0  0  0  0  0  0  0  0  0  0  0  0
    2.2555    0.0341    0.0000 C   0  0  0  0  0  0  0  0  0  0  0  0
    2.2555   -1.4198    0.0000 C   0  0  0  0  0  0  0  0  0  0  0  0
    1.4198    0.0341    0.0000 C   0  0  0  0  0  0  0  0  0  0  0  0
    1.4369   -1.4198    0.0000 C   0  0  0  0  0  0  0  0  0  0  0  0
   -4.3319    1.4027    0.0000 C   0  0  0  0  0  0  0  0  0  0  0  0
   -1.4667   -0.7035    0.0000 C   0  0  0  0  0  0  0  0  0  0  0  0
  2  1  1  0  0  0  0
  3  1  1  0  0  0  0
  4  2  1  0  0  0  0
  5 11  1  0  0  0  0
  6  3  1  0  0  0  0
  7  5  1  0  0  0  0
  8  5  1  0  0  0  0
  9 10  1  0  0  0  0
 10 17  1  0  0  0  0
 11 24  2  0  0  0  0
 12  6  1  0  0  0  0
 13  4  1  0  0  0  0
 14  2  2  0  0  0  0
 15  3  2  0  0  0  0
 16  9  1  0  0  0  0
 17 13  2  0  0  0  0
 18  7  1  0  0  0  0
 19  8  1  0  0  0  0
 20  9  2  0  0  0  0
 21  7  2  0  0  0  0
 22  8  2  0  0  0  0
 23 25  2  0  0  0  0
 24 26  1  0  0  0  0
 25 16  1  0  0  0  0
 26 16  2  0  0  0  0
 27  1  1  0  0  0  0
 28 12  2  0  0  0  0
  4  6  2  0  0  0  0
 17 28  1  0  0  0  0
 23 11  1  0  0  0  0
 18 19  1  0  0  0  0
M  END
>  <IDNUMBER>
F0327-0381

>  <Chemical_Name>
4-(2,5-dioxopyrrolidin-1-yl)-N-(2-methyl-1,3-dioxo-2,3-dihydro-1H-isoindol-5-yl)benzamide

>  <PriceCoeff>
1.00

>  <CAS>
330200-95-8

>  <MW>
377.35

>  <Description>
solid

>  <FSP3>
0.15

>  <clogP>
0.63

>  <TPSA>
103.86

>  <Acceptor>
5

>  <Donor>
1

>  <RotBonds>
3

>  <HAC>
28

>  <Collection>
General

>  <PPDS>
+

$$$$
F0327-0383
  Mrv2219 10102508112D          

 28 32  0  0  0  0            999 V2000
    5.1606   -1.8619    0.0000 N   0  0  0  0  0  0  0  0  0  0  0  0
    5.4101   -2.6381    0.0000 C   0  0  0  0  0  0  0  0  0  0  0  0
    5.8260   -1.3907    0.0000 C   0  0  0  0  0  0  0  0  0  0  0  0
    1.9451   -1.1274    0.0000 C   0  0  0  0  0  0  0  0  0  0  0  0
    1.6817   -0.3326    0.0000 N   0  0  0  0  0  0  0  0  0  0  0  0
    0.8640   -0.1294    0.0000 C   0  0  0  0  0  0  0  0  0  0  0  0
   -0.1802    0.8686    0.0000 C   0  0  0  0  0  0  0  0  0  0  0  0
    0.6422    0.6652    0.0000 C   0  0  0  0  0  0  0  0  0  0  0  0
    4.3660   -1.6817    0.0000 C   0  0  0  0  0  0  0  0  0  0  0  0
    2.7490   -1.3306    0.0000 C   0  0  0  0  0  0  0  0  0  0  0  0
   -0.7576    0.2910    0.0000 C   0  0  0  0  0  0  0  0  0  0  0  0
   -0.4019    1.6632    0.0000 C   0  0  0  0  0  0  0  0  0  0  0  0
    1.3907   -1.7510    0.0000 O   0  0  0  0  0  0  0  0  0  0  0  0
    6.4727   -1.8850    0.0000 C   0  0  0  0  0  0  0  0  0  0  0  0
    6.2279   -2.6381    0.0000 C   0  0  0  0  0  0  0  0  0  0  0  0
    5.8260   -0.5544    0.0000 O   0  0  0  0  0  0  0  0  0  0  0  0
    4.9389   -3.3264    0.0000 O   0  0  0  0  0  0  0  0  0  0  0  0
    0.2818   -0.7253    0.0000 C   0  0  0  0  0  0  0  0  0  0  0  0
    3.8115   -2.2777    0.0000 C   0  0  0  0  0  0  0  0  0  0  0  0
    4.1027   -0.8871    0.0000 C   0  0  0  0  0  0  0  0  0  0  0  0
   -0.5359   -0.5036    0.0000 C   0  0  0  0  0  0  0  0  0  0  0  0
   -1.4923    0.6467    0.0000 C   0  0  0  0  0  0  0  0  0  0  0  0
    3.3034   -0.7068    0.0000 C   0  0  0  0  0  0  0  0  0  0  0  0
    2.9938   -2.1067    0.0000 C   0  0  0  0  0  0  0  0  0  0  0  0
   -1.2197    1.6863    0.0000 C   0  0  0  0  0  0  0  0  0  0  0  0
    1.2197    1.2428    0.0000 C   0  0  0  0  0  0  0  0  0  0  0  0
    0.9980    2.0466    0.0000 C   0  0  0  0  0  0  0  0  0  0  0  0
    0.1987    2.2407    0.0000 C   0  0  0  0  0  0  0  0  0  0  0  0
  2  1  1  0  0  0  0
  3  1  1  0  0  0  0
  4 10  1  0  0  0  0
  5  4  1  0  0  0  0
  6  5  1  0  0  0  0
  7  8  1  0  0  0  0
  8  6  2  0  0  0  0
  9  1  1  0  0  0  0
 10 23  1  0  0  0  0
 11 21  1  0  0  0  0
 12  7  1  0  0  0  0
 13  4  2  0  0  0  0
 14  3  1  0  0  0  0
 15  2  1  0  0  0  0
 16  3  2  0  0  0  0
 17  2  2  0  0  0  0
 18  6  1  0  0  0  0
 19  9  2  0  0  0  0
 20  9  1  0  0  0  0
 21 18  2  0  0  0  0
 22 11  1  0  0  0  0
 23 20  2  0  0  0  0
 24 19  1  0  0  0  0
 25 12  1  0  0  0  0
 26  8  1  0  0  0  0
 27 26  2  0  0  0  0
 28 27  1  0  0  0  0
 14 15  1  0  0  0  0
 24 10  2  0  0  0  0
  7 11  2  0  0  0  0
 28 12  2  0  0  0  0
 25 22  1  0  0  0  0
M  END
>  <IDNUMBER>
F0327-0383

>  <Chemical_Name>
N-(1,2-dihydroacenaphthylen-5-yl)-4-(2,5-dioxopyrrolidin-1-yl)benzamide

>  <PriceCoeff>
1.00

>  <CAS>
313405-95-7

>  <MW>
370.40

>  <Description>
solid

>  <FSP3>
0.17

>  <clogP>
2.42

>  <TPSA>
66.48

>  <Acceptor>
3

>  <Donor>
1

>  <RotBonds>
3

>  <HAC>
28

>  <Collection>
General

>  <PPDS>
+

$$$$
F0327-0384
  Mrv2219 10102508112D          

 25 27  0  0  0  0            999 V2000
    4.9678   -0.9843    0.0000 N   0  0  0  0  0  0  0  0  0  0  0  0
    5.5223   -0.3651    0.0000 C   0  0  0  0  0  0  0  0  0  0  0  0
    5.3652   -1.6960    0.0000 C   0  0  0  0  0  0  0  0  0  0  0  0
    1.6406   -0.9843    0.0000 C   0  0  0  0  0  0  0  0  0  0  0  0
    1.2385   -0.2773    0.0000 N   0  0  0  0  0  0  0  0  0  0  0  0
    4.1221   -0.9843    0.0000 C   0  0  0  0  0  0  0  0  0  0  0  0
    2.4816   -0.9843    0.0000 C   0  0  0  0  0  0  0  0  0  0  0  0
   -0.8457    0.4390    0.0000 C   0  0  0  0  0  0  0  0  0  0  0  0
   -1.2893    1.1645    0.0000 C   0  0  0  0  0  0  0  0  0  0  0  0
    0.3928   -0.2773    0.0000 C   0  0  0  0  0  0  0  0  0  0  0  0
    6.2710   -0.6978    0.0000 C   0  0  0  0  0  0  0  0  0  0  0  0
    6.1601   -1.5158    0.0000 C   0  0  0  0  0  0  0  0  0  0  0  0
   -0.0231    0.4390    0.0000 C   0  0  0  0  0  0  0  0  0  0  0  0
    1.2385   -1.6960    0.0000 O   0  0  0  0  0  0  0  0  0  0  0  0
    5.0510   -2.4724    0.0000 O   0  0  0  0  0  0  0  0  0  0  0  0
    5.3421    0.4806    0.0000 O   0  0  0  0  0  0  0  0  0  0  0  0
    3.7201   -0.2773    0.0000 C   0  0  0  0  0  0  0  0  0  0  0  0
    3.7201   -1.6960    0.0000 C   0  0  0  0  0  0  0  0  0  0  0  0
   -0.8687    1.8808    0.0000 O   0  0  0  0  0  0  0  0  0  0  0  0
    2.8836   -0.2773    0.0000 C   0  0  0  0  0  0  0  0  0  0  0  0
    2.8836   -1.6960    0.0000 C   0  0  0  0  0  0  0  0  0  0  0  0
   -1.2708   -0.2773    0.0000 C   0  0  0  0  0  0  0  0  0  0  0  0
   -0.8457   -0.9843    0.0000 C   0  0  0  0  0  0  0  0  0  0  0  0
   -0.0231   -0.9843    0.0000 C   0  0  0  0  0  0  0  0  0  0  0  0
   -2.1303    1.1645    0.0000 C   0  0  0  0  0  0  0  0  0  0  0  0
  2  1  1  0  0  0  0
  3  1  1  0  0  0  0
  4  7  1  0  0  0  0
  5  4  1  0  0  0  0
  6  1  1  0  0  0  0
  7 21  2  0  0  0  0
  8 13  1  0  0  0  0
  9  8  1  0  0  0  0
 10  5  1  0  0  0  0
 11  2  1  0  0  0  0
 12  3  1  0  0  0  0
 13 10  2  0  0  0  0
 14  4  2  0  0  0  0
 15  3  2  0  0  0  0
 16  2  2  0  0  0  0
 17  6  1  0  0  0  0
 18  6  2  0  0  0  0
 19  9  2  0  0  0  0
 20 17  2  0  0  0  0
 21 18  1  0  0  0  0
 22 23  1  0  0  0  0
 23 24  2  0  0  0  0
 24 10  1  0  0  0  0
 25  9  1  0  0  0  0
 11 12  1  0  0  0  0
 20  7  1  0  0  0  0
 22  8  2  0  0  0  0
M  END
>  <IDNUMBER>
F0327-0384

>  <Chemical_Name>
N-(3-acetylphenyl)-4-(2,5-dioxopyrrolidin-1-yl)benzamide

>  <PriceCoeff>
1.00

>  <CAS>
330200-96-9

>  <MW>
336.34

>  <Description>
solid

>  <FSP3>
0.16

>  <clogP>
0.70

>  <TPSA>
83.55

>  <Acceptor>
4

>  <Donor>
1

>  <RotBonds>
4

>  <HAC>
25

>  <Collection>
General

>  <PPDS>
+

$$$$
F0327-0385
  Mrv2219 10102508112D          

 25 27  0  0  0  0            999 V2000
    4.9823   -0.9872    0.0000 N   0  0  0  0  0  0  0  0  0  0  0  0
    5.5384   -0.3662    0.0000 C   0  0  0  0  0  0  0  0  0  0  0  0
    5.3808   -1.7009    0.0000 C   0  0  0  0  0  0  0  0  0  0  0  0
    1.6453   -0.9872    0.0000 C   0  0  0  0  0  0  0  0  0  0  0  0
    1.2421   -0.2781    0.0000 N   0  0  0  0  0  0  0  0  0  0  0  0
    4.1341   -0.9872    0.0000 C   0  0  0  0  0  0  0  0  0  0  0  0
    2.4888   -0.9872    0.0000 C   0  0  0  0  0  0  0  0  0  0  0  0
   -2.0948   -0.2781    0.0000 C   0  0  0  0  0  0  0  0  0  0  0  0
   -1.2745   -0.2781    0.0000 C   0  0  0  0  0  0  0  0  0  0  0  0
    6.2892   -0.6999    0.0000 C   0  0  0  0  0  0  0  0  0  0  0  0
    6.1780   -1.5202    0.0000 C   0  0  0  0  0  0  0  0  0  0  0  0
    1.2421   -1.7009    0.0000 O   0  0  0  0  0  0  0  0  0  0  0  0
    5.0657   -2.4796    0.0000 O   0  0  0  0  0  0  0  0  0  0  0  0
    5.3577    0.4820    0.0000 O   0  0  0  0  0  0  0  0  0  0  0  0
    3.7309   -0.2781    0.0000 C   0  0  0  0  0  0  0  0  0  0  0  0
    3.7309   -1.7009    0.0000 C   0  0  0  0  0  0  0  0  0  0  0  0
   -2.5397    0.4032    0.0000 O   0  0  0  0  0  0  0  0  0  0  0  0
    2.8920   -1.7009    0.0000 C   0  0  0  0  0  0  0  0  0  0  0  0
    2.8920   -0.2781    0.0000 C   0  0  0  0  0  0  0  0  0  0  0  0
    0.3940   -0.2781    0.0000 C   0  0  0  0  0  0  0  0  0  0  0  0
   -0.8481    0.4403    0.0000 C   0  0  0  0  0  0  0  0  0  0  0  0
   -0.8481   -0.9872    0.0000 C   0  0  0  0  0  0  0  0  0  0  0  0
   -0.0231    0.4403    0.0000 C   0  0  0  0  0  0  0  0  0  0  0  0
   -0.0231   -0.9872    0.0000 C   0  0  0  0  0  0  0  0  0  0  0  0
   -2.5536   -0.9501    0.0000 C   0  0  0  0  0  0  0  0  0  0  0  0
  2  1  1  0  0  0  0
  3  1  1  0  0  0  0
  4  7  1  0  0  0  0
  5  4  1  0  0  0  0
  6  1  1  0  0  0  0
  7 18  2  0  0  0  0
  8  9  1  0  0  0  0
  9 22  1  0  0  0  0
 10  2  1  0  0  0  0
 11  3  1  0  0  0  0
 12  4  2  0  0  0  0
 13  3  2  0  0  0  0
 14  2  2  0  0  0  0
 15  6  1  0  0  0  0
 16  6  2  0  0  0  0
 17  8  2  0  0  0  0
 18 16  1  0  0  0  0
 19 15  2  0  0  0  0
 20  5  1  0  0  0  0
 21 23  1  0  0  0  0
 22 24  2  0  0  0  0
 23 20  2  0  0  0  0
 24 20  1  0  0  0  0
 25  8  1  0  0  0  0
 11 10  1  0  0  0  0
  7 19  1  0  0  0  0
 21  9  2  0  0  0  0
M  END
>  <IDNUMBER>
F0327-0385

>  <Chemical_Name>
N-(4-acetylphenyl)-4-(2,5-dioxopyrrolidin-1-yl)benzamide

>  <PriceCoeff>
1.00

>  <CAS>
313405-96-8

>  <MW>
336.34

>  <Description>
solid

>  <FSP3>
0.16

>  <clogP>
0.70

>  <TPSA>
83.55

>  <Acceptor>
4

>  <Donor>
1

>  <RotBonds>
4

>  <HAC>
25

>  <Collection>
General

>  <PPDS>
+

$$$$
F0327-0386
  Mrv2219 10102508112D          

 27 29  0  0  0  0            999 V2000
    4.9823   -0.9872    0.0000 N   0  0  0  0  0  0  0  0  0  0  0  0
   -2.0948   -0.2781    0.0000 N   0  3  0  0  0  0  0  0  0  0  0  0
    5.3808   -1.7009    0.0000 C   0  0  0  0  0  0  0  0  0  0  0  0
    5.5384   -0.3662    0.0000 C   0  0  0  0  0  0  0  0  0  0  0  0
    1.6453   -0.9872    0.0000 C   0  0  0  0  0  0  0  0  0  0  0  0
    1.2421   -0.2781    0.0000 N   0  0  0  0  0  0  0  0  0  0  0  0
   -1.2745   -0.2781    0.0000 C   0  0  0  0  0  0  0  0  0  0  0  0
   -0.8481   -0.9872    0.0000 C   0  0  0  0  0  0  0  0  0  0  0  0
    0.3940   -0.2781    0.0000 C   0  0  0  0  0  0  0  0  0  0  0  0
   -0.0231   -0.9872    0.0000 C   0  0  0  0  0  0  0  0  0  0  0  0
    4.1341   -0.9872    0.0000 C   0  0  0  0  0  0  0  0  0  0  0  0
   -2.5722    0.4032    0.0000 O   0  5  0  0  0  0  0  0  0  0  0  0
    2.4888   -0.9872    0.0000 C   0  0  0  0  0  0  0  0  0  0  0  0
   -2.5536   -0.9501    0.0000 O   0  0  0  0  0  0  0  0  0  0  0  0
    1.2421   -1.7009    0.0000 O   0  0  0  0  0  0  0  0  0  0  0  0
    6.1780   -1.5202    0.0000 C   0  0  0  0  0  0  0  0  0  0  0  0
    6.2892   -0.6999    0.0000 C   0  0  0  0  0  0  0  0  0  0  0  0
    5.0657   -2.4796    0.0000 O   0  0  0  0  0  0  0  0  0  0  0  0
    5.3577    0.4820    0.0000 O   0  0  0  0  0  0  0  0  0  0  0  0
   -0.8481    0.4403    0.0000 C   0  0  0  0  0  0  0  0  0  0  0  0
   -0.0231    0.4403    0.0000 C   0  0  0  0  0  0  0  0  0  0  0  0
    3.7309   -0.2781    0.0000 C   0  0  0  0  0  0  0  0  0  0  0  0
    3.7309   -1.7009    0.0000 C   0  0  0  0  0  0  0  0  0  0  0  0
    2.8920   -1.7009    0.0000 C   0  0  0  0  0  0  0  0  0  0  0  0
    2.8920   -0.2781    0.0000 C   0  0  0  0  0  0  0  0  0  0  0  0
    0.3754   -1.7009    0.0000 O   0  0  0  0  0  0  0  0  0  0  0  0
   -0.0509   -2.4100    0.0000 C   0  0  0  0  0  0  0  0  0  0  0  0
  2  7  1  0  0  0  0
  3  1  1  0  0  0  0
  4  1  1  0  0  0  0
  5 13  1  0  0  0  0
  6  5  1  0  0  0  0
  7 20  2  0  0  0  0
  8 10  2  0  0  0  0
  9  6  1  0  0  0  0
 10  9  1  0  0  0  0
 11  1  1  0  0  0  0
 12  2  1  0  0  0  0
 13 24  2  0  0  0  0
 14  2  2  0  0  0  0
 15  5  2  0  0  0  0
 16  3  1  0  0  0  0
 17  4  1  0  0  0  0
 18  3  2  0  0  0  0
 19  4  2  0  0  0  0
 20 21  1  0  0  0  0
 21  9  2  0  0  0  0
 22 11  1  0  0  0  0
 23 11  2  0  0  0  0
 24 23  1  0  0  0  0
 25 22  2  0  0  0  0
 26 10  1  0  0  0  0
 27 26  1  0  0  0  0
 17 16  1  0  0  0  0
 25 13  1  0  0  0  0
  8  7  1  0  0  0  0
M  CHG  2   2   1  12  -1
M  END
>  <IDNUMBER>
F0327-0386

>  <Chemical_Name>
4-(2,5-dioxopyrrolidin-1-yl)-N-(2-methoxy-4-nitrophenyl)benzamide

>  <PriceCoeff>
1.00

>  <CAS>
330200-97-0

>  <MW>
369.33

>  <Description>
solid

>  <FSP3>
0.17

>  <clogP>
0.56

>  <TPSA>
118.85

>  <Acceptor>
6

>  <Donor>
1

>  <RotBonds>
5

>  <HAC>
27

>  <Collection>
General

>  <PPDS>
+

$$$$
F0327-0387
  Mrv2219 10102508112D          

 27 29  0  0  0  0            999 V2000
    4.9823   -0.9872    0.0000 N   0  0  0  0  0  0  0  0  0  0  0  0
   -1.2467    1.1493    0.0000 N   0  3  0  0  0  0  0  0  0  0  0  0
    5.5384   -0.3662    0.0000 C   0  0  0  0  0  0  0  0  0  0  0  0
    5.3808   -1.7009    0.0000 C   0  0  0  0  0  0  0  0  0  0  0  0
    1.6453   -0.9872    0.0000 C   0  0  0  0  0  0  0  0  0  0  0  0
    1.2421   -0.2781    0.0000 N   0  0  0  0  0  0  0  0  0  0  0  0
    0.3940   -0.2781    0.0000 C   0  0  0  0  0  0  0  0  0  0  0  0
   -0.8481    0.4403    0.0000 C   0  0  0  0  0  0  0  0  0  0  0  0
   -0.0231    0.4403    0.0000 C   0  0  0  0  0  0  0  0  0  0  0  0
    4.1341   -0.9872    0.0000 C   0  0  0  0  0  0  0  0  0  0  0  0
   -0.8898    1.9048    0.0000 O   0  5  0  0  0  0  0  0  0  0  0  0
    2.4888   -0.9872    0.0000 C   0  0  0  0  0  0  0  0  0  0  0  0
   -2.1087    1.1493    0.0000 O   0  0  0  0  0  0  0  0  0  0  0  0
   -0.0231   -0.9872    0.0000 C   0  0  0  0  0  0  0  0  0  0  0  0
    1.2421   -1.7009    0.0000 O   0  0  0  0  0  0  0  0  0  0  0  0
    6.2892   -0.6999    0.0000 C   0  0  0  0  0  0  0  0  0  0  0  0
    6.1780   -1.5202    0.0000 C   0  0  0  0  0  0  0  0  0  0  0  0
    5.3577    0.4820    0.0000 O   0  0  0  0  0  0  0  0  0  0  0  0
    5.0657   -2.4796    0.0000 O   0  0  0  0  0  0  0  0  0  0  0  0
   -1.2745   -0.2781    0.0000 C   0  0  0  0  0  0  0  0  0  0  0  0
    3.7309   -1.7009    0.0000 C   0  0  0  0  0  0  0  0  0  0  0  0
    3.7309   -0.2781    0.0000 C   0  0  0  0  0  0  0  0  0  0  0  0
    2.8920   -0.2781    0.0000 C   0  0  0  0  0  0  0  0  0  0  0  0
    2.8920   -1.7009    0.0000 C   0  0  0  0  0  0  0  0  0  0  0  0
   -0.8481   -0.9872    0.0000 C   0  0  0  0  0  0  0  0  0  0  0  0
    0.3754   -1.7009    0.0000 O   0  0  0  0  0  0  0  0  0  0  0  0
   -0.0509   -2.4100    0.0000 C   0  0  0  0  0  0  0  0  0  0  0  0
  2  8  1  0  0  0  0
  3  1  1  0  0  0  0
  4  1  1  0  0  0  0
  5 12  1  0  0  0  0
  6  5  1  0  0  0  0
  7  6  1  0  0  0  0
  8  9  1  0  0  0  0
  9  7  2  0  0  0  0
 10  1  1  0  0  0  0
 11  2  1  0  0  0  0
 12 23  1  0  0  0  0
 13  2  2  0  0  0  0
 14  7  1  0  0  0  0
 15  5  2  0  0  0  0
 16  3  1  0  0  0  0
 17  4  1  0  0  0  0
 18  3  2  0  0  0  0
 19  4  2  0  0  0  0
 20 25  1  0  0  0  0
 21 10  2  0  0  0  0
 22 10  1  0  0  0  0
 23 22  2  0  0  0  0
 24 21  1  0  0  0  0
 25 14  2  0  0  0  0
 26 14  1  0  0  0  0
 27 26  1  0  0  0  0
 17 16  1  0  0  0  0
 24 12  2  0  0  0  0
  8 20  2  0  0  0  0
M  CHG  2   2   1  11  -1
M  END
>  <IDNUMBER>
F0327-0387

>  <Chemical_Name>
4-(2,5-dioxopyrrolidin-1-yl)-N-(2-methoxy-5-nitrophenyl)benzamide

>  <PriceCoeff>
1.00

>  <CAS>
313405-97-9

>  <MW>
369.33

>  <Description>
solid

>  <FSP3>
0.17

>  <clogP>
0.56

>  <TPSA>
118.85

>  <Acceptor>
6

>  <Donor>
1

>  <RotBonds>
5

>  <HAC>
27

>  <Collection>
General

>  <PPDS>
+

$$$$
F0327-0389
  Mrv2219 10102508112D          

 27 29  0  0  0  0            999 V2000
    4.9823   -0.9872    0.0000 N   0  0  0  0  0  0  0  0  0  0  0  0
   -0.0231    0.4403    0.0000 C   0  0  0  0  0  0  0  0  0  0  0  0
    0.3754    1.1493    0.0000 N   0  3  0  0  0  0  0  0  0  0  0  0
    5.5384   -0.3662    0.0000 C   0  0  0  0  0  0  0  0  0  0  0  0
    5.3808   -1.7009    0.0000 C   0  0  0  0  0  0  0  0  0  0  0  0
    0.3940   -0.2781    0.0000 C   0  0  0  0  0  0  0  0  0  0  0  0
    1.6453   -0.9872    0.0000 C   0  0  0  0  0  0  0  0  0  0  0  0
    1.2421   -0.2781    0.0000 N   0  0  0  0  0  0  0  0  0  0  0  0
   -0.8481    0.4403    0.0000 C   0  0  0  0  0  0  0  0  0  0  0  0
    4.1341   -0.9872    0.0000 C   0  0  0  0  0  0  0  0  0  0  0  0
    1.2096    1.1493    0.0000 O   0  5  0  0  0  0  0  0  0  0  0  0
    2.4888   -0.9872    0.0000 C   0  0  0  0  0  0  0  0  0  0  0  0
    0.0047    1.8863    0.0000 O   0  0  0  0  0  0  0  0  0  0  0  0
    1.2421   -1.7009    0.0000 O   0  0  0  0  0  0  0  0  0  0  0  0
    6.1780   -1.5202    0.0000 C   0  0  0  0  0  0  0  0  0  0  0  0
    6.2892   -0.6999    0.0000 C   0  0  0  0  0  0  0  0  0  0  0  0
    5.0657   -2.4796    0.0000 O   0  0  0  0  0  0  0  0  0  0  0  0
    5.3577    0.4820    0.0000 O   0  0  0  0  0  0  0  0  0  0  0  0
   -0.0231   -0.9872    0.0000 C   0  0  0  0  0  0  0  0  0  0  0  0
    3.7309   -0.2781    0.0000 C   0  0  0  0  0  0  0  0  0  0  0  0
    3.7309   -1.7009    0.0000 C   0  0  0  0  0  0  0  0  0  0  0  0
    2.8920   -1.7009    0.0000 C   0  0  0  0  0  0  0  0  0  0  0  0
    2.8920   -0.2781    0.0000 C   0  0  0  0  0  0  0  0  0  0  0  0
   -1.2745   -0.2781    0.0000 C   0  0  0  0  0  0  0  0  0  0  0  0
   -0.8481   -0.9872    0.0000 C   0  0  0  0  0  0  0  0  0  0  0  0
   -2.0948   -0.2781    0.0000 O   0  0  0  0  0  0  0  0  0  0  0  0
   -2.5027    0.4403    0.0000 C   0  0  0  0  0  0  0  0  0  0  0  0
  2  6  2  0  0  0  0
  3  2  1  0  0  0  0
  4  1  1  0  0  0  0
  5  1  1  0  0  0  0
  6  8  1  0  0  0  0
  7 12  1  0  0  0  0
  8  7  1  0  0  0  0
  9  2  1  0  0  0  0
 10  1  1  0  0  0  0
 11  3  1  0  0  0  0
 12 22  2  0  0  0  0
 13  3  2  0  0  0  0
 14  7  2  0  0  0  0
 15  5  1  0  0  0  0
 16  4  1  0  0  0  0
 17  5  2  0  0  0  0
 18  4  2  0  0  0  0
 19  6  1  0  0  0  0
 20 10  1  0  0  0  0
 21 10  2  0  0  0  0
 22 21  1  0  0  0  0
 23 20  2  0  0  0  0
 24 25  1  0  0  0  0
 25 19  2  0  0  0  0
 26 24  1  0  0  0  0
 27 26  1  0  0  0  0
 16 15  1  0  0  0  0
 23 12  1  0  0  0  0
 24  9  2  0  0  0  0
M  CHG  2   3   1  11  -1
M  END
>  <IDNUMBER>
F0327-0389

>  <Chemical_Name>
4-(2,5-dioxopyrrolidin-1-yl)-N-(4-methoxy-2-nitrophenyl)benzamide

>  <PriceCoeff>
1.00

>  <CAS>
330200-99-2

>  <MW>
369.33

>  <Description>
solid

>  <FSP3>
0.17

>  <clogP>
0.69

>  <TPSA>
118.85

>  <Acceptor>
6

>  <Donor>
1

>  <RotBonds>
5

>  <HAC>
27

>  <Collection>
General

>  <PPDS>
+

$$$$
F0327-0391
  Mrv2219 10102508112D          

 28 31  0  0  0  0            999 V2000
    0.4235   -0.2792    0.0000 C   0  0  0  0  0  0  0  0  0  0  0  0
   -0.0232    0.3909    0.0000 C   0  0  0  0  0  0  0  0  0  0  0  0
    5.0027   -0.9912    0.0000 N   0  0  0  0  0  0  0  0  0  0  0  0
   -0.0930   -0.9493    0.0000 S   0  0  0  0  0  0  0  0  0  0  0  0
   -0.8377    0.1815    0.0000 C   0  0  0  0  0  0  0  0  0  0  0  0
    1.2472   -0.2792    0.0000 N   0  0  0  0  0  0  0  0  0  0  0  0
   -0.8377   -0.6143    0.0000 C   0  0  0  0  0  0  0  0  0  0  0  0
    1.6521   -0.9912    0.0000 C   0  0  0  0  0  0  0  0  0  0  0  0
    5.4029   -1.7079    0.0000 C   0  0  0  0  0  0  0  0  0  0  0  0
    5.5612   -0.3677    0.0000 C   0  0  0  0  0  0  0  0  0  0  0  0
    0.2839    1.1541    0.0000 C   0  0  0  0  0  0  0  0  0  0  0  0
    4.1511   -0.9912    0.0000 C   0  0  0  0  0  0  0  0  0  0  0  0
    2.4990   -0.9912    0.0000 C   0  0  0  0  0  0  0  0  0  0  0  0
    1.2472   -1.7079    0.0000 O   0  0  0  0  0  0  0  0  0  0  0  0
    6.3151   -0.7027    0.0000 C   0  0  0  0  0  0  0  0  0  0  0  0
    6.2034   -1.5264    0.0000 C   0  0  0  0  0  0  0  0  0  0  0  0
    5.3797    0.4839    0.0000 O   0  0  0  0  0  0  0  0  0  0  0  0
    5.0865   -2.4898    0.0000 O   0  0  0  0  0  0  0  0  0  0  0  0
    1.1495    1.3403    0.0000 O   0  0  0  0  0  0  0  0  0  0  0  0
    3.7462   -1.7079    0.0000 C   0  0  0  0  0  0  0  0  0  0  0  0
    3.7462   -0.2792    0.0000 C   0  0  0  0  0  0  0  0  0  0  0  0
    2.9039   -0.2792    0.0000 C   0  0  0  0  0  0  0  0  0  0  0  0
    2.9039   -1.7079    0.0000 C   0  0  0  0  0  0  0  0  0  0  0  0
   -0.2466    1.7125    0.0000 N   0  0  0  0  0  0  0  0  0  0  0  0
   -1.5636    0.6143    0.0000 C   0  0  0  0  0  0  0  0  0  0  0  0
   -1.6008   -1.0471    0.0000 C   0  0  0  0  0  0  0  0  0  0  0  0
   -2.2896    0.2187    0.0000 C   0  0  0  0  0  0  0  0  0  0  0  0
   -2.2849   -0.6562    0.0000 C   0  0  0  0  0  0  0  0  0  0  0  0
  2  1  2  0  0  0  0
  3 12  1  0  0  0  0
  4  1  1  0  0  0  0
  5  2  1  0  0  0  0
  6  1  1  0  0  0  0
  7  4  1  0  0  0  0
  8  6  1  0  0  0  0
  9  3  1  0  0  0  0
 10  3  1  0  0  0  0
 11  2  1  0  0  0  0
 12 20  2  0  0  0  0
 13  8  1  0  0  0  0
 14  8  2  0  0  0  0
 15 10  1  0  0  0  0
 16  9  1  0  0  0  0
 17 10  2  0  0  0  0
 18  9  2  0  0  0  0
 19 11  2  0  0  0  0
 20 23  1  0  0  0  0
 21 22  2  0  0  0  0
 22 13  1  0  0  0  0
 23 13  2  0  0  0  0
 24 11  1  0  0  0  0
 25  5  1  0  0  0  0
 26  7  1  0  0  0  0
 27 25  1  0  0  0  0
 28 26  1  0  0  0  0
  7  5  2  0  0  0  0
 28 27  1  0  0  0  0
 12 21  1  0  0  0  0
 16 15  1  0  0  0  0
M  END
>  <IDNUMBER>
F0327-0391

>  <Chemical_Name>
2-[4-(2,5-dioxopyrrolidin-1-yl)benzamido]-4,5,6,7-tetrahydro-1-benzothiophene-3-carboxamide

>  <PriceCoeff>
1.00

>  <CAS>
329906-56-1

>  <MW>
397.45

>  <Description>
solid

>  <FSP3>
0.30

>  <clogP>
1.32

>  <TPSA>
137.81

>  <Acceptor>
4

>  <Donor>
2

>  <RotBonds>
4

>  <HAC>
28

>  <Collection>
General

>  <PPDS>
+

$$$$
F0327-0392
  Mrv2219 10102508112D          

 30 33  0  0  0  0            999 V2000
    0.4226   -0.2786    0.0000 C   0  0  0  0  0  0  0  0  0  0  0  0
   -0.0232    0.3901    0.0000 C   0  0  0  0  0  0  0  0  0  0  0  0
    4.9921   -0.9891    0.0000 N   0  0  0  0  0  0  0  0  0  0  0  0
   -0.0928   -0.9473    0.0000 S   0  0  0  0  0  0  0  0  0  0  0  0
   -0.8359    0.1811    0.0000 C   0  0  0  0  0  0  0  0  0  0  0  0
    1.2446   -0.2786    0.0000 N   0  0  0  0  0  0  0  0  0  0  0  0
   -0.8359   -0.6130    0.0000 C   0  0  0  0  0  0  0  0  0  0  0  0
    1.6486   -0.9891    0.0000 C   0  0  0  0  0  0  0  0  0  0  0  0
    5.3914   -1.7043    0.0000 C   0  0  0  0  0  0  0  0  0  0  0  0
    5.5493   -0.3669    0.0000 C   0  0  0  0  0  0  0  0  0  0  0  0
    0.2833    1.1516    0.0000 C   0  0  0  0  0  0  0  0  0  0  0  0
    4.1423   -0.9891    0.0000 C   0  0  0  0  0  0  0  0  0  0  0  0
    2.4937   -0.9891    0.0000 C   0  0  0  0  0  0  0  0  0  0  0  0
    1.2446   -1.7043    0.0000 O   0  0  0  0  0  0  0  0  0  0  0  0
    6.3016   -0.7012    0.0000 C   0  0  0  0  0  0  0  0  0  0  0  0
    6.1902   -1.5232    0.0000 C   0  0  0  0  0  0  0  0  0  0  0  0
    5.3682    0.4829    0.0000 O   0  0  0  0  0  0  0  0  0  0  0  0
    5.0757   -2.4844    0.0000 O   0  0  0  0  0  0  0  0  0  0  0  0
    1.1470    1.3374    0.0000 O   0  0  0  0  0  0  0  0  0  0  0  0
    3.7383   -1.7043    0.0000 C   0  0  0  0  0  0  0  0  0  0  0  0
    3.7383   -0.2786    0.0000 C   0  0  0  0  0  0  0  0  0  0  0  0
    2.8977   -0.2786    0.0000 C   0  0  0  0  0  0  0  0  0  0  0  0
    2.8977   -1.7043    0.0000 C   0  0  0  0  0  0  0  0  0  0  0  0
   -0.2461    1.7089    0.0000 O   0  0  0  0  0  0  0  0  0  0  0  0
   -1.5603    0.6130    0.0000 C   0  0  0  0  0  0  0  0  0  0  0  0
   -1.5974   -1.0448    0.0000 C   0  0  0  0  0  0  0  0  0  0  0  0
   -1.0541    1.5185    0.0000 C   0  0  0  0  0  0  0  0  0  0  0  0
   -2.2847    0.2182    0.0000 C   0  0  0  0  0  0  0  0  0  0  0  0
   -2.2800   -0.6548    0.0000 C   0  0  0  0  0  0  0  0  0  0  0  0
   -1.6300    2.1176    0.0000 C   0  0  0  0  0  0  0  0  0  0  0  0
  2  1  2  0  0  0  0
  3 12  1  0  0  0  0
  4  1  1  0  0  0  0
  5  2  1  0  0  0  0
  6  1  1  0  0  0  0
  7  4  1  0  0  0  0
  8  6  1  0  0  0  0
  9  3  1  0  0  0  0
 10  3  1  0  0  0  0
 11  2  1  0  0  0  0
 12 20  2  0  0  0  0
 13  8  1  0  0  0  0
 14  8  2  0  0  0  0
 15 10  1  0  0  0  0
 16  9  1  0  0  0  0
 17 10  2  0  0  0  0
 18  9  2  0  0  0  0
 19 11  2  0  0  0  0
 20 23  1  0  0  0  0
 21 22  2  0  0  0  0
 22 13  1  0  0  0  0
 23 13  2  0  0  0  0
 24 11  1  0  0  0  0
 25  5  1  0  0  0  0
 26  7  1  0  0  0  0
 27 24  1  0  0  0  0
 28 25  1  0  0  0  0
 29 26  1  0  0  0  0
 30 27  1  0  0  0  0
  5  7  2  0  0  0  0
 28 29  1  0  0  0  0
 21 12  1  0  0  0  0
 15 16  1  0  0  0  0
M  END
>  <IDNUMBER>
F0327-0392

>  <Chemical_Name>
ethyl 2-[4-(2,5-dioxopyrrolidin-1-yl)benzamido]-4,5,6,7-tetrahydro-1-benzothiophene-3-carboxylate

>  <PriceCoeff>
1.00

>  <CAS>
313405-98-0

>  <MW>
426.49

>  <Description>
solid

>  <FSP3>
0.36

>  <clogP>
3.06

>  <TPSA>
121.02

>  <Acceptor>
5

>  <Donor>
1

>  <RotBonds>
6

>  <HAC>
30

>  <Collection>
General

>  <PPDS>
+

$$$$
F0327-0393
  Mrv2219 10102508112D          

 29 32  0  0  0  0            999 V2000
    0.4245   -0.2798    0.0000 C   0  0  0  0  0  0  0  0  0  0  0  0
   -0.0233    0.3918    0.0000 C   0  0  0  0  0  0  0  0  0  0  0  0
    5.0140   -0.9935    0.0000 N   0  0  0  0  0  0  0  0  0  0  0  0
   -0.0932   -0.9515    0.0000 S   0  0  0  0  0  0  0  0  0  0  0  0
   -0.8395    0.1819    0.0000 C   0  0  0  0  0  0  0  0  0  0  0  0
    1.2500   -0.2798    0.0000 N   0  0  0  0  0  0  0  0  0  0  0  0
   -0.8395   -0.6157    0.0000 C   0  0  0  0  0  0  0  0  0  0  0  0
    1.6558   -0.9935    0.0000 C   0  0  0  0  0  0  0  0  0  0  0  0
    5.4150   -1.7118    0.0000 C   0  0  0  0  0  0  0  0  0  0  0  0
    5.5736   -0.3685    0.0000 C   0  0  0  0  0  0  0  0  0  0  0  0
    0.2845    1.1567    0.0000 C   0  0  0  0  0  0  0  0  0  0  0  0
    4.1604   -0.9935    0.0000 C   0  0  0  0  0  0  0  0  0  0  0  0
    2.5046   -0.9935    0.0000 C   0  0  0  0  0  0  0  0  0  0  0  0
    1.2500   -1.7118    0.0000 O   0  0  0  0  0  0  0  0  0  0  0  0
    6.3292   -0.7043    0.0000 C   0  0  0  0  0  0  0  0  0  0  0  0
    6.2173   -1.5299    0.0000 C   0  0  0  0  0  0  0  0  0  0  0  0
    5.3917    0.4850    0.0000 O   0  0  0  0  0  0  0  0  0  0  0  0
    5.0979   -2.4953    0.0000 O   0  0  0  0  0  0  0  0  0  0  0  0
    1.1521    1.3433    0.0000 O   0  0  0  0  0  0  0  0  0  0  0  0
    3.7546   -1.7118    0.0000 C   0  0  0  0  0  0  0  0  0  0  0  0
    3.7546   -0.2798    0.0000 C   0  0  0  0  0  0  0  0  0  0  0  0
    2.9104   -0.2798    0.0000 C   0  0  0  0  0  0  0  0  0  0  0  0
    2.9104   -1.7118    0.0000 C   0  0  0  0  0  0  0  0  0  0  0  0
   -0.2472    1.7164    0.0000 O   0  0  0  0  0  0  0  0  0  0  0  0
   -1.6231    0.4431    0.0000 C   0  0  0  0  0  0  0  0  0  0  0  0
   -1.6044   -0.8815    0.0000 C   0  0  0  0  0  0  0  0  0  0  0  0
   -2.1081   -0.2566    0.0000 C   0  0  0  0  0  0  0  0  0  0  0  0
   -1.0587    1.5252    0.0000 C   0  0  0  0  0  0  0  0  0  0  0  0
   -1.6371    2.1268    0.0000 C   0  0  0  0  0  0  0  0  0  0  0  0
  2  1  2  0  0  0  0
  3 12  1  0  0  0  0
  4  1  1  0  0  0  0
  5  2  1  0  0  0  0
  6  1  1  0  0  0  0
  7  4  1  0  0  0  0
  8  6  1  0  0  0  0
  9  3  1  0  0  0  0
 10  3  1  0  0  0  0
 11  2  1  0  0  0  0
 12 20  2  0  0  0  0
 13  8  1  0  0  0  0
 14  8  2  0  0  0  0
 15 10  1  0  0  0  0
 16  9  1  0  0  0  0
 17 10  2  0  0  0  0
 18  9  2  0  0  0  0
 19 11  2  0  0  0  0
 20 23  1  0  0  0  0
 21 22  2  0  0  0  0
 22 13  1  0  0  0  0
 23 13  2  0  0  0  0
 24 11  1  0  0  0  0
 25  5  1  0  0  0  0
 26  7  1  0  0  0  0
 27 26  1  0  0  0  0
 28 24  1  0  0  0  0
 29 28  1  0  0  0  0
  5  7  2  0  0  0  0
 27 25  1  0  0  0  0
 12 21  1  0  0  0  0
 16 15  1  0  0  0  0
M  END
>  <IDNUMBER>
F0327-0393

>  <Chemical_Name>
ethyl 2-[4-(2,5-dioxopyrrolidin-1-yl)benzamido]-4H,5H,6H-cyclopenta[b]thiophene-3-carboxylate

>  <PriceCoeff>
1.00

>  <CAS>
330201-00-8

>  <MW>
412.46

>  <Description>
solid

>  <FSP3>
0.33

>  <clogP>
2.50

>  <TPSA>
121.02

>  <Acceptor>
5

>  <Donor>
1

>  <RotBonds>
6

>  <HAC>
29

>  <Collection>
General

$$$$
F0327-0394
  Mrv2219 10102508112D          

 26 29  0  0  0  0            999 V2000
    0.4245   -0.2798    0.0000 C   0  0  0  0  0  0  0  0  0  0  0  0
   -0.0233    0.3918    0.0000 C   0  0  0  0  0  0  0  0  0  0  0  0
    5.0140   -0.9935    0.0000 N   0  0  0  0  0  0  0  0  0  0  0  0
   -0.0932   -0.9515    0.0000 S   0  0  0  0  0  0  0  0  0  0  0  0
   -0.8395    0.1819    0.0000 C   0  0  0  0  0  0  0  0  0  0  0  0
    1.2500   -0.2798    0.0000 N   0  0  0  0  0  0  0  0  0  0  0  0
   -0.8395   -0.6157    0.0000 C   0  0  0  0  0  0  0  0  0  0  0  0
    1.6558   -0.9935    0.0000 C   0  0  0  0  0  0  0  0  0  0  0  0
    5.4150   -1.7118    0.0000 C   0  0  0  0  0  0  0  0  0  0  0  0
    5.5736   -0.3685    0.0000 C   0  0  0  0  0  0  0  0  0  0  0  0
    0.2845    1.1427    0.0000 C   0  0  0  0  0  0  0  0  0  0  0  0
    0.5924    1.8843    0.0000 N   0  0  0  0  0  0  0  0  0  0  0  0
    4.1604   -0.9935    0.0000 C   0  0  0  0  0  0  0  0  0  0  0  0
    2.5046   -0.9935    0.0000 C   0  0  0  0  0  0  0  0  0  0  0  0
    1.2500   -1.7118    0.0000 O   0  0  0  0  0  0  0  0  0  0  0  0
    6.3292   -0.7043    0.0000 C   0  0  0  0  0  0  0  0  0  0  0  0
    6.2173   -1.5299    0.0000 C   0  0  0  0  0  0  0  0  0  0  0  0
    5.3917    0.4850    0.0000 O   0  0  0  0  0  0  0  0  0  0  0  0
    5.0979   -2.4953    0.0000 O   0  0  0  0  0  0  0  0  0  0  0  0
    3.7546   -1.7118    0.0000 C   0  0  0  0  0  0  0  0  0  0  0  0
    3.7546   -0.2798    0.0000 C   0  0  0  0  0  0  0  0  0  0  0  0
    2.9104   -0.2798    0.0000 C   0  0  0  0  0  0  0  0  0  0  0  0
    2.9104   -1.7118    0.0000 C   0  0  0  0  0  0  0  0  0  0  0  0
   -1.6231    0.4431    0.0000 C   0  0  0  0  0  0  0  0  0  0  0  0
   -1.6044   -0.8815    0.0000 C   0  0  0  0  0  0  0  0  0  0  0  0
   -2.1081   -0.2566    0.0000 C   0  0  0  0  0  0  0  0  0  0  0  0
  2  1  2  0  0  0  0
  3 13  1  0  0  0  0
  4  1  1  0  0  0  0
  5  2  1  0  0  0  0
  6  1  1  0  0  0  0
  7  4  1  0  0  0  0
  8  6  1  0  0  0  0
  9  3  1  0  0  0  0
 10  3  1  0  0  0  0
 11  2  1  0  0  0  0
 12 11  3  0  0  0  0
 13 20  2  0  0  0  0
 14  8  1  0  0  0  0
 15  8  2  0  0  0  0
 16 10  1  0  0  0  0
 17  9  1  0  0  0  0
 18 10  2  0  0  0  0
 19  9  2  0  0  0  0
 20 23  1  0  0  0  0
 21 22  2  0  0  0  0
 22 14  1  0  0  0  0
 23 14  2  0  0  0  0
 24  5  1  0  0  0  0
 25  7  1  0  0  0  0
 26 25  1  0  0  0  0
  7  5  2  0  0  0  0
 24 26  1  0  0  0  0
 21 13  1  0  0  0  0
 16 17  1  0  0  0  0
M  END
>  <IDNUMBER>
F0327-0394

>  <Chemical_Name>
N-{3-cyano-4H,5H,6H-cyclopenta[b]thiophen-2-yl}-4-(2,5-dioxopyrrolidin-1-yl)benzamide

>  <PriceCoeff>
1.00

>  <CAS>
313405-99-1

>  <MW>
365.41

>  <Description>
solid

>  <FSP3>
0.26

>  <clogP>
0.87

>  <TPSA>
118.51

>  <Acceptor>
4

>  <Donor>
1

>  <RotBonds>
3

>  <HAC>
26

>  <Collection>
General

>  <PPDS>
+

$$$$
F0327-0395
  Mrv2219 10102508112D          

 28 31  0  0  0  0            999 V2000
    0.4245   -0.2798    0.0000 C   0  0  0  0  0  0  0  0  0  0  0  0
   -0.0233    0.3918    0.0000 C   0  0  0  0  0  0  0  0  0  0  0  0
   -0.8395    0.1819    0.0000 C   0  0  0  0  0  0  0  0  0  0  0  0
    5.0140   -0.9935    0.0000 N   0  0  0  0  0  0  0  0  0  0  0  0
   -0.0932   -0.9515    0.0000 S   0  0  0  0  0  0  0  0  0  0  0  0
   -0.8395   -0.6157    0.0000 C   0  0  0  0  0  0  0  0  0  0  0  0
    1.2500   -0.2798    0.0000 N   0  0  0  0  0  0  0  0  0  0  0  0
    1.6558   -0.9935    0.0000 C   0  0  0  0  0  0  0  0  0  0  0  0
    5.4150   -1.7118    0.0000 C   0  0  0  0  0  0  0  0  0  0  0  0
    5.5736   -0.3685    0.0000 C   0  0  0  0  0  0  0  0  0  0  0  0
    0.2845    1.1427    0.0000 C   0  0  0  0  0  0  0  0  0  0  0  0
    0.5924    1.8843    0.0000 N   0  0  0  0  0  0  0  0  0  0  0  0
    4.1604   -0.9935    0.0000 C   0  0  0  0  0  0  0  0  0  0  0  0
   -1.5624    0.6157    0.0000 C   0  0  0  0  0  0  0  0  0  0  0  0
    2.5046   -0.9935    0.0000 C   0  0  0  0  0  0  0  0  0  0  0  0
   -1.5624   -1.0401    0.0000 C   0  0  0  0  0  0  0  0  0  0  0  0
    1.2500   -1.7118    0.0000 O   0  0  0  0  0  0  0  0  0  0  0  0
    6.3292   -0.7043    0.0000 C   0  0  0  0  0  0  0  0  0  0  0  0
    6.2173   -1.5299    0.0000 C   0  0  0  0  0  0  0  0  0  0  0  0
    5.3917    0.4850    0.0000 O   0  0  0  0  0  0  0  0  0  0  0  0
    5.0979   -2.4953    0.0000 O   0  0  0  0  0  0  0  0  0  0  0  0
    3.7546   -1.7118    0.0000 C   0  0  0  0  0  0  0  0  0  0  0  0
    3.7546   -0.2798    0.0000 C   0  0  0  0  0  0  0  0  0  0  0  0
    2.9104   -0.2798    0.0000 C   0  0  0  0  0  0  0  0  0  0  0  0
    2.9104   -1.7118    0.0000 C   0  0  0  0  0  0  0  0  0  0  0  0
   -2.2621    0.2052    0.0000 C   0  0  0  0  0  0  0  0  0  0  0  0
   -2.2621   -0.6204    0.0000 C   0  0  0  0  0  0  0  0  0  0  0  0
   -2.9664    0.6157    0.0000 C   0  0  0  0  0  0  0  0  0  0  0  0
  2  1  2  0  0  0  0
  3  2  1  0  0  0  0
  4 13  1  0  0  0  0
  5  1  1  0  0  0  0
  6  5  1  0  0  0  0
  7  1  1  0  0  0  0
  8  7  1  0  0  0  0
  9  4  1  0  0  0  0
 10  4  1  0  0  0  0
 11  2  1  0  0  0  0
 12 11  3  0  0  0  0
 13 22  2  0  0  0  0
 14  3  1  0  0  0  0
 15  8  1  0  0  0  0
 16  6  1  0  0  0  0
 17  8  2  0  0  0  0
 18 10  1  0  0  0  0
 19  9  1  0  0  0  0
 20 10  2  0  0  0  0
 21  9  2  0  0  0  0
 22 25  1  0  0  0  0
 23 24  2  0  0  0  0
 24 15  1  0  0  0  0
 25 15  2  0  0  0  0
 26 14  1  0  0  0  0
 27 16  1  0  0  0  0
 28 26  1  0  0  0  0
  3  6  2  0  0  0  0
 26 27  1  0  0  0  0
 13 23  1  0  0  0  0
 19 18  1  0  0  0  0
M  END
>  <IDNUMBER>
F0327-0395

>  <Chemical_Name>
N-(3-cyano-5-methyl-4,5,6,7-tetrahydro-1-benzothiophen-2-yl)-4-(2,5-dioxopyrrolidin-1-yl)benzamide

>  <PriceCoeff>
1.00

>  <CAS>
330201-01-9

>  <MW>
393.46

>  <Description>
solid

>  <FSP3>
0.33

>  <clogP>
1.95

>  <TPSA>
118.51

>  <Acceptor>
4

>  <Donor>
1

>  <RotBonds>
3

>  <HAC>
28

>  <Collection>
General

>  <PPDS>
+

$$$$
F0327-0396
  Mrv2219 10102508112D          

 29 32  0  0  0  0            999 V2000
   -0.0233    0.3918    0.0000 C   0  0  0  0  0  0  0  0  0  0  0  0
    0.4245   -0.2798    0.0000 C   0  0  0  0  0  0  0  0  0  0  0  0
   -0.8395    0.1819    0.0000 C   0  0  0  0  0  0  0  0  0  0  0  0
    5.0140   -0.9935    0.0000 N   0  0  0  0  0  0  0  0  0  0  0  0
   -0.0932   -0.9515    0.0000 S   0  0  0  0  0  0  0  0  0  0  0  0
   -0.8395   -0.6157    0.0000 C   0  0  0  0  0  0  0  0  0  0  0  0
    1.2500   -0.2798    0.0000 N   0  0  0  0  0  0  0  0  0  0  0  0
    1.6558   -0.9935    0.0000 C   0  0  0  0  0  0  0  0  0  0  0  0
    5.4150   -1.7118    0.0000 C   0  0  0  0  0  0  0  0  0  0  0  0
    5.5736   -0.3685    0.0000 C   0  0  0  0  0  0  0  0  0  0  0  0
    0.2845    1.1427    0.0000 C   0  0  0  0  0  0  0  0  0  0  0  0
    4.1604   -0.9935    0.0000 C   0  0  0  0  0  0  0  0  0  0  0  0
   -1.5624    0.6157    0.0000 C   0  0  0  0  0  0  0  0  0  0  0  0
    2.5046   -0.9935    0.0000 C   0  0  0  0  0  0  0  0  0  0  0  0
   -1.5624   -1.0401    0.0000 C   0  0  0  0  0  0  0  0  0  0  0  0
    1.2500   -1.7118    0.0000 O   0  0  0  0  0  0  0  0  0  0  0  0
    6.2173   -1.5299    0.0000 C   0  0  0  0  0  0  0  0  0  0  0  0
    6.3292   -0.7043    0.0000 C   0  0  0  0  0  0  0  0  0  0  0  0
    5.0979   -2.4953    0.0000 O   0  0  0  0  0  0  0  0  0  0  0  0
    5.3917    0.4850    0.0000 O   0  0  0  0  0  0  0  0  0  0  0  0
    1.1381    1.3433    0.0000 O   0  0  0  0  0  0  0  0  0  0  0  0
    3.7546   -1.7118    0.0000 C   0  0  0  0  0  0  0  0  0  0  0  0
    3.7546   -0.2798    0.0000 C   0  0  0  0  0  0  0  0  0  0  0  0
    2.9104   -0.2798    0.0000 C   0  0  0  0  0  0  0  0  0  0  0  0
    2.9104   -1.7118    0.0000 C   0  0  0  0  0  0  0  0  0  0  0  0
   -0.2379    1.7164    0.0000 N   0  0  0  0  0  0  0  0  0  0  0  0
   -2.2621    0.2052    0.0000 C   0  0  0  0  0  0  0  0  0  0  0  0
   -2.2621   -0.6204    0.0000 C   0  0  0  0  0  0  0  0  0  0  0  0
   -2.9664    0.6157    0.0000 C   0  0  0  0  0  0  0  0  0  0  0  0
  2  1  2  0  0  0  0
  3  1  1  0  0  0  0
  4 12  1  0  0  0  0
  5  2  1  0  0  0  0
  6  3  2  0  0  0  0
  7  2  1  0  0  0  0
  8  7  1  0  0  0  0
  9  4  1  0  0  0  0
 10  4  1  0  0  0  0
 11  1  1  0  0  0  0
 12 22  2  0  0  0  0
 13  3  1  0  0  0  0
 14  8  1  0  0  0  0
 15  6  1  0  0  0  0
 16  8  2  0  0  0  0
 17  9  1  0  0  0  0
 18 10  1  0  0  0  0
 19  9  2  0  0  0  0
 20 10  2  0  0  0  0
 21 11  2  0  0  0  0
 22 25  1  0  0  0  0
 23 24  2  0  0  0  0
 24 14  1  0  0  0  0
 25 14  2  0  0  0  0
 26 11  1  0  0  0  0
 27 13  1  0  0  0  0
 28 27  1  0  0  0  0
 29 27  1  0  0  0  0
  6  5  1  0  0  0  0
 15 28  1  0  0  0  0
 23 12  1  0  0  0  0
 18 17  1  0  0  0  0
M  END
>  <IDNUMBER>
F0327-0396

>  <Chemical_Name>
2-[4-(2,5-dioxopyrrolidin-1-yl)benzamido]-5-methyl-4,5,6,7-tetrahydro-1-benzothiophene-3-carboxamide

>  <PriceCoeff>
1.00

>  <CAS>
329903-37-9

>  <MW>
411.47

>  <Description>
solid

>  <FSP3>
0.33

>  <clogP>
1.83

>  <TPSA>
137.81

>  <Acceptor>
4

>  <Donor>
2

>  <RotBonds>
4

>  <HAC>
29

>  <Collection>
General

>  <PPDS>
+

$$$$
F0327-0397
  Mrv2219 10102508112D          

 34 39  0  0  0  0            999 V2000
   -0.0233    0.3918    0.0000 C   0  0  0  0  0  0  0  0  0  0  0  0
    0.4245   -0.2798    0.0000 C   0  0  0  0  0  0  0  0  0  0  0  0
    0.2845    1.1427    0.0000 C   0  0  0  0  0  0  0  0  0  0  0  0
    1.0681    1.3013    0.0000 N   0  0  0  0  0  0  0  0  0  0  0  0
    5.0140   -0.9935    0.0000 N   0  0  0  0  0  0  0  0  0  0  0  0
   -0.0932   -0.9515    0.0000 S   0  0  0  0  0  0  0  0  0  0  0  0
   -0.8395    0.1819    0.0000 C   0  0  0  0  0  0  0  0  0  0  0  0
   -0.1259    1.8610    0.0000 S   0  0  0  0  0  0  0  0  0  0  0  0
    1.2500   -0.2798    0.0000 N   0  0  0  0  0  0  0  0  0  0  0  0
   -0.8395   -0.6157    0.0000 C   0  0  0  0  0  0  0  0  0  0  0  0
    1.6558   -0.9935    0.0000 C   0  0  0  0  0  0  0  0  0  0  0  0
    5.5736   -0.3685    0.0000 C   0  0  0  0  0  0  0  0  0  0  0  0
    5.4150   -1.7118    0.0000 C   0  0  0  0  0  0  0  0  0  0  0  0
    1.1754    2.1221    0.0000 C   0  0  0  0  0  0  0  0  0  0  0  0
    0.3965    2.4719    0.0000 C   0  0  0  0  0  0  0  0  0  0  0  0
    4.1604   -0.9935    0.0000 C   0  0  0  0  0  0  0  0  0  0  0  0
    2.5046   -0.9935    0.0000 C   0  0  0  0  0  0  0  0  0  0  0  0
    1.2500   -1.7118    0.0000 O   0  0  0  0  0  0  0  0  0  0  0  0
    6.3292   -0.7043    0.0000 C   0  0  0  0  0  0  0  0  0  0  0  0
    6.2173   -1.5299    0.0000 C   0  0  0  0  0  0  0  0  0  0  0  0
    5.3917    0.4850    0.0000 O   0  0  0  0  0  0  0  0  0  0  0  0
    5.0979   -2.4953    0.0000 O   0  0  0  0  0  0  0  0  0  0  0  0
    3.7546   -0.2798    0.0000 C   0  0  0  0  0  0  0  0  0  0  0  0
    3.7546   -1.7118    0.0000 C   0  0  0  0  0  0  0  0  0  0  0  0
    2.9104   -1.7118    0.0000 C   0  0  0  0  0  0  0  0  0  0  0  0
    2.9104   -0.2798    0.0000 C   0  0  0  0  0  0  0  0  0  0  0  0
   -1.5624    0.6157    0.0000 C   0  0  0  0  0  0  0  0  0  0  0  0
   -1.5624   -1.0401    0.0000 C   0  0  0  0  0  0  0  0  0  0  0  0
    1.8330    2.5979    0.0000 C   0  0  0  0  0  0  0  0  0  0  0  0
    0.3125    3.2835    0.0000 C   0  0  0  0  0  0  0  0  0  0  0  0
   -2.2621    0.2052    0.0000 C   0  0  0  0  0  0  0  0  0  0  0  0
   -2.2621   -0.6204    0.0000 C   0  0  0  0  0  0  0  0  0  0  0  0
    0.9935    3.7732    0.0000 C   0  0  0  0  0  0  0  0  0  0  0  0
    1.7398    3.4281    0.0000 C   0  0  0  0  0  0  0  0  0  0  0  0
  2  1  2  0  0  0  0
  3  1  1  0  0  0  0
  4  3  2  0  0  0  0
  5 16  1  0  0  0  0
  6  2  1  0  0  0  0
  7  1  1  0  0  0  0
  8  3  1  0  0  0  0
  9  2  1  0  0  0  0
 10  7  2  0  0  0  0
 11  9  1  0  0  0  0
 12  5  1  0  0  0  0
 13  5  1  0  0  0  0
 14  4  1  0  0  0  0
 15  8  1  0  0  0  0
 16 23  1  0  0  0  0
 17 11  1  0  0  0  0
 18 11  2  0  0  0  0
 19 12  1  0  0  0  0
 20 13  1  0  0  0  0
 21 12  2  0  0  0  0
 22 13  2  0  0  0  0
 23 26  2  0  0  0  0
 24 25  1  0  0  0  0
 25 17  2  0  0  0  0
 26 17  1  0  0  0  0
 27  7  1  0  0  0  0
 28 10  1  0  0  0  0
 29 14  1  0  0  0  0
 30 15  1  0  0  0  0
 31 27  1  0  0  0  0
 32 31  1  0  0  0  0
 33 30  2  0  0  0  0
 34 29  2  0  0  0  0
  6 10  1  0  0  0  0
 14 15  2  0  0  0  0
 32 28  1  0  0  0  0
 34 33  1  0  0  0  0
 24 16  2  0  0  0  0
 20 19  1  0  0  0  0
M  END
>  <IDNUMBER>
F0327-0397

>  <Chemical_Name>
N-[3-(1,3-benzothiazol-2-yl)-4,5,6,7-tetrahydro-1-benzothiophen-2-yl]-4-(2,5-dioxopyrrolidin-1-yl)benzamide

>  <PriceCoeff>
1.00

>  <CAS>
328027-93-6

>  <MW>
487.59

>  <Description>
solid

>  <FSP3>
0.23

>  <clogP>
3.30

>  <TPSA>
135.85

>  <Acceptor>
4

>  <Donor>
1

>  <RotBonds>
4

>  <HAC>
34

>  <Collection>
General

>  <PPDS>
+

$$$$
F0327-0402
  Mrv2219 10102508112D          

 22 25  0  0  0  0            999 V2000
    4.9258   -0.9743    0.0000 N   0  0  0  0  0  0  0  0  0  0  0  0
    1.7321   -0.9743    0.0000 C   0  0  0  0  0  0  0  0  0  0  0  0
    1.2225   -1.7321    0.0000 N   0  0  0  0  0  0  0  0  0  0  0  0
    1.2991   -0.3564    0.0000 S   0  0  0  0  0  0  0  0  0  0  0  0
    5.3453   -1.6826    0.0000 C   0  0  0  0  0  0  0  0  0  0  0  0
    5.4310   -0.3429    0.0000 C   0  0  0  0  0  0  0  0  0  0  0  0
    0.4195   -1.4390    0.0000 C   0  0  0  0  0  0  0  0  0  0  0  0
    0.4195   -0.6135    0.0000 C   0  0  0  0  0  0  0  0  0  0  0  0
    4.0913   -0.9743    0.0000 C   0  0  0  0  0  0  0  0  0  0  0  0
    2.4223   -0.9743    0.0000 C   0  0  0  0  0  0  0  0  0  0  0  0
    6.1482   -1.4931    0.0000 C   0  0  0  0  0  0  0  0  0  0  0  0
    6.2113   -0.6496    0.0000 C   0  0  0  0  0  0  0  0  0  0  0  0
    5.2370    0.4556    0.0000 O   0  0  0  0  0  0  0  0  0  0  0  0
    5.0386   -2.4899    0.0000 O   0  0  0  0  0  0  0  0  0  0  0  0
    3.6808   -1.6826    0.0000 C   0  0  0  0  0  0  0  0  0  0  0  0
    3.6989   -0.2571    0.0000 C   0  0  0  0  0  0  0  0  0  0  0  0
    2.8328   -1.6826    0.0000 C   0  0  0  0  0  0  0  0  0  0  0  0
    2.8553   -0.2571    0.0000 C   0  0  0  0  0  0  0  0  0  0  0  0
   -0.2300   -1.8585    0.0000 C   0  0  0  0  0  0  0  0  0  0  0  0
   -0.2842   -0.1940    0.0000 C   0  0  0  0  0  0  0  0  0  0  0  0
   -0.9743   -1.4390    0.0000 C   0  0  0  0  0  0  0  0  0  0  0  0
   -0.9743   -0.6360    0.0000 C   0  0  0  0  0  0  0  0  0  0  0  0
  2 10  1  0  0  0  0
  3  2  2  0  0  0  0
  4  2  1  0  0  0  0
  5  1  1  0  0  0  0
  6  1  1  0  0  0  0
  7  3  1  0  0  0  0
  8  4  1  0  0  0  0
  9  1  1  0  0  0  0
 10 18  1  0  0  0  0
 11  5  1  0  0  0  0
 12  6  1  0  0  0  0
 13  6  2  0  0  0  0
 14  5  2  0  0  0  0
 15  9  2  0  0  0  0
 16  9  1  0  0  0  0
 17 15  1  0  0  0  0
 18 16  2  0  0  0  0
 19  7  1  0  0  0  0
 20  8  1  0  0  0  0
 21 19  2  0  0  0  0
 22 20  2  0  0  0  0
 12 11  1  0  0  0  0
 10 17  2  0  0  0  0
  7  8  2  0  0  0  0
 21 22  1  0  0  0  0
M  END
>  <IDNUMBER>
F0327-0402

>  <Chemical_Name>
1-[4-(1,3-benzothiazol-2-yl)phenyl]pyrrolidine-2,5-dione

>  <PriceCoeff>
1.00

>  <CAS>
16707-44-1

>  <MW>
308.35

>  <Description>
solid

>  <FSP3>
0.12

>  <clogP>
2.19

>  <TPSA>
78.51

>  <Acceptor>
3

>  <Donor>
0

>  <RotBonds>
2

>  <HAC>
22

>  <Collection>
General

>  <PPDS>
+

$$$$
F0328-0304
  Mrv2219 10102508112D          

 25 27  0  0  0  0            999 V2000
   -2.2814    0.5748    0.0000 N   0  0  0  0  0  0  0  0  0  0  0  0
   -1.7994   -0.0893    0.0000 C   0  0  0  0  0  0  0  0  0  0  0  0
   -1.7994    1.2281    0.0000 C   0  0  0  0  0  0  0  0  0  0  0  0
    1.8244   -1.4817    0.0000 C   0  0  0  0  0  0  0  0  0  0  0  0
   -1.0282    0.1464    0.0000 C   0  0  0  0  0  0  0  0  0  0  0  0
   -1.0282    0.9854    0.0000 C   0  0  0  0  0  0  0  0  0  0  0  0
    1.1175   -2.7027    0.0000 N   0  3  0  0  0  0  0  0  0  0  0  0
    1.1282   -1.0711    0.0000 C   0  0  0  0  0  0  0  0  0  0  0  0
    1.8244   -2.3028    0.0000 C   0  0  0  0  0  0  0  0  0  0  0  0
    1.1389   -0.2999    0.0000 N   0  0  0  0  0  0  0  0  0  0  0  0
   -0.3106    1.3995    0.0000 C   0  0  0  0  0  0  0  0  0  0  0  0
   -0.3106   -0.2607    0.0000 C   0  0  0  0  0  0  0  0  0  0  0  0
    2.5527   -2.7134    0.0000 C   0  0  0  0  0  0  0  0  0  0  0  0
    2.5527   -1.0711    0.0000 C   0  0  0  0  0  0  0  0  0  0  0  0
    0.3749   -2.3599    0.0000 O   0  5  0  0  0  0  0  0  0  0  0  0
   -2.0564   -0.8569    0.0000 O   0  0  0  0  0  0  0  0  0  0  0  0
   -2.0743    2.0243    0.0000 O   0  0  0  0  0  0  0  0  0  0  0  0
    1.1175   -3.5595    0.0000 O   0  0  0  0  0  0  0  0  0  0  0  0
    0.3892    0.1464    0.0000 C   0  0  0  0  0  0  0  0  0  0  0  0
    0.4106   -1.4817    0.0000 O   0  0  0  0  0  0  0  0  0  0  0  0
   -3.0847    0.5748    0.0000 C   0  0  0  0  0  0  0  0  0  0  0  0
    3.2704   -1.4817    0.0000 C   0  0  0  0  0  0  0  0  0  0  0  0
    0.3892    0.9854    0.0000 C   0  0  0  0  0  0  0  0  0  0  0  0
    3.2704   -2.3028    0.0000 C   0  0  0  0  0  0  0  0  0  0  0  0
    4.0094   -1.0711    0.0000 Cl  0  0  0  0  0  0  0  0  0  0  0  0
  2  1  1  0  0  0  0
  3  1  1  0  0  0  0
  4  8  1  0  0  0  0
  5  2  1  0  0  0  0
  6  3  1  0  0  0  0
  7  9  1  0  0  0  0
  8 10  1  0  0  0  0
  9  4  1  0  0  0  0
 10 19  1  0  0  0  0
 11  6  1  0  0  0  0
 12  5  1  0  0  0  0
 13  9  2  0  0  0  0
 14  4  2  0  0  0  0
 15  7  1  0  0  0  0
 16  2  2  0  0  0  0
 17  3  2  0  0  0  0
 18  7  2  0  0  0  0
 19 12  2  0  0  0  0
 20  8  2  0  0  0  0
 21  1  1  0  0  0  0
 22 14  1  0  0  0  0
 23 11  2  0  0  0  0
 24 22  2  0  0  0  0
 25 22  1  0  0  0  0
  6  5  2  0  0  0  0
 23 19  1  0  0  0  0
 24 13  1  0  0  0  0
M  CHG  2   7   1  15  -1
M  END
>  <IDNUMBER>
F0328-0304

>  <Chemical_Name>
5-chloro-N-(2-methyl-1,3-dioxo-2,3-dihydro-1H-isoindol-5-yl)-2-nitrobenzamide

>  <PriceCoeff>
1.00

>  <CAS>
330201-35-9

>  <MW>
359.72

>  <Description>
solid

>  <FSP3>
0.06

>  <clogP>
2.22

>  <TPSA>
109.62

>  <Acceptor>
5

>  <Donor>
1

>  <RotBonds>
3

>  <HAC>
25

>  <Collection>
General

>  <PPDS>
+

$$$$
F0328-0311
  Mrv2219 10102508112D          

 24 26  0  0  0  0            999 V2000
   -0.1926    0.0290    0.0000 C   0  0  0  0  0  0  0  0  0  0  0  0
    0.5925    0.2726    0.0000 C   0  0  0  0  0  0  0  0  0  0  0  0
   -0.6651    0.6942    0.0000 N   0  0  0  0  0  0  0  0  0  0  0  0
    2.7368   -0.9632    0.0000 C   0  0  0  0  0  0  0  0  0  0  0  0
   -0.1926    1.3520    0.0000 C   0  0  0  0  0  0  0  0  0  0  0  0
    3.4492   -2.2062    0.0000 N   0  3  0  0  0  0  0  0  0  0  0  0
    2.0208   -1.3847    0.0000 C   0  0  0  0  0  0  0  0  0  0  0  0
    3.4492   -1.3847    0.0000 C   0  0  0  0  0  0  0  0  0  0  0  0
    1.3084   -0.1308    0.0000 C   0  0  0  0  0  0  0  0  0  0  0  0
    0.5925    1.1085    0.0000 C   0  0  0  0  0  0  0  0  0  0  0  0
    1.3084   -0.9632    0.0000 N   0  0  0  0  0  0  0  0  0  0  0  0
    4.1688   -0.9632    0.0000 C   0  0  0  0  0  0  0  0  0  0  0  0
    2.7368   -0.1308    0.0000 C   0  0  0  0  0  0  0  0  0  0  0  0
    2.7732   -2.6750    0.0000 O   0  5  0  0  0  0  0  0  0  0  0  0
   -0.4761   -0.7741    0.0000 O   0  0  0  0  0  0  0  0  0  0  0  0
    4.1324   -2.6605    0.0000 O   0  0  0  0  0  0  0  0  0  0  0  0
   -0.4761    2.1552    0.0000 O   0  0  0  0  0  0  0  0  0  0  0  0
    2.0208   -2.2062    0.0000 O   0  0  0  0  0  0  0  0  0  0  0  0
    3.4492    0.2726    0.0000 C   0  0  0  0  0  0  0  0  0  0  0  0
    4.1688   -0.1308    0.0000 C   0  0  0  0  0  0  0  0  0  0  0  0
    2.0208    0.2726    0.0000 C   0  0  0  0  0  0  0  0  0  0  0  0
    3.4492    1.1085    0.0000 Cl  0  0  0  0  0  0  0  0  0  0  0  0
    1.3084    1.5119    0.0000 C   0  0  0  0  0  0  0  0  0  0  0  0
    2.0208    1.1085    0.0000 C   0  0  0  0  0  0  0  0  0  0  0  0
  2  1  1  0  0  0  0
  3  1  1  0  0  0  0
  4  7  1  0  0  0  0
  5  3  1  0  0  0  0
  6  8  1  0  0  0  0
  7 11  1  0  0  0  0
  8  4  1  0  0  0  0
  9  2  1  0  0  0  0
 10  2  2  0  0  0  0
 11  9  1  0  0  0  0
 12  8  2  0  0  0  0
 13  4  2  0  0  0  0
 14  6  1  0  0  0  0
 15  1  2  0  0  0  0
 16  6  2  0  0  0  0
 17  5  2  0  0  0  0
 18  7  2  0  0  0  0
 19 13  1  0  0  0  0
 20 19  2  0  0  0  0
 21  9  2  0  0  0  0
 22 19  1  0  0  0  0
 23 10  1  0  0  0  0
 24 23  2  0  0  0  0
  5 10  1  0  0  0  0
 24 21  1  0  0  0  0
 20 12  1  0  0  0  0
M  CHG  2   6   1  14  -1
M  END
>  <IDNUMBER>
F0328-0311

>  <Chemical_Name>
5-chloro-N-(1,3-dioxo-2,3-dihydro-1H-isoindol-4-yl)-2-nitrobenzamide

>  <PriceCoeff>
1.00

>  <CAS>
476282-94-7

>  <MW>
345.69

>  <Description>
solid

>  <FSP3>
0.00

>  <clogP>
1.77

>  <TPSA>
118.41

>  <Acceptor>
5

>  <Donor>
2

>  <RotBonds>
3

>  <HAC>
24

>  <Collection>
General

>  <PPDS>
+

$$$$
F0334-0126
  Mrv2219 10102508112D          

 17 17  0  0  0  0            999 V2000
   -3.3013    2.8238    0.0000 N   0  3  0  0  0  0  0  0  0  0  0  0
   -0.4421    1.0906    0.0000 C   0  0  0  0  0  0  0  0  0  0  0  0
   -1.2674   -0.9433    0.0000 C   0  0  0  0  0  0  0  0  0  0  0  0
   -2.5644    2.4230    0.0000 C   0  0  0  0  0  0  0  0  0  0  0  0
   -0.4952    0.2770    0.0000 N   0  0  0  0  0  0  0  0  0  0  0  0
   -3.3249    3.6727    0.0000 O   0  5  0  0  0  0  0  0  0  0  0  0
   -4.0324    2.3993    0.0000 O   0  0  0  0  0  0  0  0  0  0  0  0
   -1.1496    1.5740    0.0000 C   0  0  0  0  0  0  0  0  0  0  0  0
    0.2889    1.4856    0.0000 O   0  0  0  0  0  0  0  0  0  0  0  0
   -1.9985   -1.3441    0.0000 O   0  0  0  0  0  0  0  0  0  0  0  0
   -0.5600   -1.3677    0.0000 N   0  0  0  0  0  0  0  0  0  0  0  0
   -1.2321   -0.0944    0.0000 C   0  0  0  0  0  0  0  0  0  0  0  0
   -1.8570    2.8238    0.0000 C   0  0  0  0  0  0  0  0  0  0  0  0
   -2.5644    1.6035    0.0000 C   0  0  0  0  0  0  0  0  0  0  0  0
   -1.1496    2.3993    0.0000 C   0  0  0  0  0  0  0  0  0  0  0  0
   -1.8570    1.1790    0.0000 C   0  0  0  0  0  0  0  0  0  0  0  0
    0.1474   -0.9727    0.0000 N   0  0  0  0  0  0  0  0  0  0  0  0
  2  8  1  0  0  0  0
  3 12  1  0  0  0  0
  4  1  1  0  0  0  0
  5  2  1  0  0  0  0
  6  1  1  0  0  0  0
  7  1  2  0  0  0  0
  8 16  1  0  0  0  0
  9  2  2  0  0  0  0
 10  3  2  0  0  0  0
 11  3  1  0  0  0  0
 12  5  1  0  0  0  0
 13  4  2  0  0  0  0
 14  4  1  0  0  0  0
 15 13  1  0  0  0  0
 16 14  2  0  0  0  0
 17 11  1  0  0  0  0
 15  8  2  0  0  0  0
M  CHG  2   1   1   6  -1
M  END
>  <IDNUMBER>
F0334-0126

>  <Chemical_Name>
N-[(hydrazinecarbonyl)methyl]-4-nitrobenzamide

>  <PriceCoeff>
1.00

>  <CAS>
139645-87-7

>  <MW>
238.20

>  <Description>
solid

>  <FSP3>
0.11

>  <clogP>
-0.43

>  <TPSA>
127.36

>  <Acceptor>
4

>  <Donor>
3

>  <RotBonds>
4

>  <HAC>
17

>  <Collection>
General

>  <PPDS>
+

$$$$
F0336-0491
  Mrv2219 10102508112D          

 24 25  0  0  0  0            999 V2000
    3.3084    0.3596    0.0000 N   0  3  0  0  0  0  0  0  0  0  0  0
    2.8364   -0.3282    0.0000 C   0  0  0  0  0  0  0  0  0  0  0  0
   -0.6068    0.1977    0.0000 C   0  0  0  0  0  0  0  0  0  0  0  0
    0.2158    0.0899    0.0000 N   0  0  0  0  0  0  0  0  0  0  0  0
   -1.2361   -0.3417    0.0000 N   0  0  0  0  0  0  0  0  0  0  0  0
    0.5394   -0.6877    0.0000 C   0  0  0  0  0  0  0  0  0  0  0  0
   -1.9418    0.1079    0.0000 C   0  0  0  0  0  0  0  0  0  0  0  0
    2.0362   -0.2203    0.0000 C   0  0  0  0  0  0  0  0  0  0  0  0
   -0.9305    0.9529    0.0000 S   0  0  0  0  0  0  0  0  0  0  0  0
    1.5283   -0.8630    0.0000 C   0  0  0  0  0  0  0  0  0  0  0  0
   -2.7194   -0.1664    0.0000 C   0  0  0  0  0  0  0  0  0  0  0  0
   -1.7485    0.8855    0.0000 C   0  0  0  0  0  0  0  0  0  0  0  0
    3.1690   -1.1103    0.0000 C   0  0  0  0  0  0  0  0  0  0  0  0
   -2.8723   -1.0114    0.0000 C   0  0  0  0  0  0  0  0  0  0  0  0
    4.1310    0.3596    0.0000 O   0  5  0  0  0  0  0  0  0  0  0  0
    3.0252    1.1147    0.0000 O   0  0  0  0  0  0  0  0  0  0  0  0
    0.0405   -1.3530    0.0000 O   0  0  0  0  0  0  0  0  0  0  0  0
    1.7980   -1.6182    0.0000 C   0  0  0  0  0  0  0  0  0  0  0  0
   -2.2475   -1.5508    0.0000 O   0  0  0  0  0  0  0  0  0  0  0  0
    2.6206   -1.7665    0.0000 C   0  0  0  0  0  0  0  0  0  0  0  0
    3.9916   -1.1912    0.0000 Cl  0  0  0  0  0  0  0  0  0  0  0  0
   -3.6499   -1.2721    0.0000 O   0  0  0  0  0  0  0  0  0  0  0  0
   -3.8252   -2.0902    0.0000 C   0  0  0  0  0  0  0  0  0  0  0  0
   -4.5804   -2.3509    0.0000 C   0  0  0  0  0  0  0  0  0  0  0  0
  2  1  1  0  0  0  0
  3  4  1  0  0  0  0
  4  6  1  0  0  0  0
  5  3  2  0  0  0  0
  6 10  1  0  0  0  0
  7  5  1  0  0  0  0
  8  2  2  0  0  0  0
  9  3  1  0  0  0  0
 10  8  1  0  0  0  0
 11  7  1  0  0  0  0
 12  9  1  0  0  0  0
 13  2  1  0  0  0  0
 14 11  1  0  0  0  0
 15  1  1  0  0  0  0
 16  1  2  0  0  0  0
 17  6  2  0  0  0  0
 18 20  1  0  0  0  0
 19 14  2  0  0  0  0
 20 13  2  0  0  0  0
 21 13  1  0  0  0  0
 22 14  1  0  0  0  0
 23 22  1  0  0  0  0
 24 23  1  0  0  0  0
 10 18  2  0  0  0  0
  7 12  2  0  0  0  0
M  CHG  2   1   1  15  -1
M  END
>  <IDNUMBER>
F0336-0491

>  <Chemical_Name>
ethyl 2-[2-(4-chloro-3-nitrobenzamido)-1,3-thiazol-4-yl]acetate

>  <PriceCoeff>
1.00

>  <CAS>
301682-00-8

>  <MW>
369.78

>  <Description>
solid

>  <FSP3>
0.21

>  <clogP>
2.52

>  <TPSA>
139.67

>  <Acceptor>
6

>  <Donor>
1

>  <RotBonds>
7

>  <HAC>
24

>  <Collection>
General

>  <PPDS>
+

$$$$
F0343-0001
  Mrv2219 10102508112D          

 36 39  0  0  0  0            999 V2000
    4.5042    0.6583    0.0000 C   0  0  0  0  0  0  0  0  0  0  0  0
    4.0042   -0.0167    0.0000 N   0  0  0  0  0  0  0  0  0  0  0  0
    4.0042    1.3333    0.0000 N   0  0  0  0  0  0  0  0  0  0  0  0
    5.3292    0.6583    0.0000 C   0  0  0  0  0  0  0  0  0  0  0  0
    6.9667    0.6500    0.0000 N   0  0  0  0  0  0  0  0  0  0  0  0
    5.7292   -0.0625    0.0000 C   0  0  0  0  0  0  0  0  0  0  0  0
    3.2292    0.2458    0.0000 C   0  0  0  0  0  0  0  0  0  0  0  0
    3.2292    1.0708    0.0000 C   0  0  0  0  0  0  0  0  0  0  0  0
    6.5500   -0.0667    0.0000 C   0  0  0  0  0  0  0  0  0  0  0  0
    5.7417    1.3708    0.0000 C   0  0  0  0  0  0  0  0  0  0  0  0
    6.5667    1.3708    0.0000 C   0  0  0  0  0  0  0  0  0  0  0  0
    5.3125   -0.7792    0.0000 C   0  0  0  0  0  0  0  0  0  0  0  0
    6.9417   -0.8000    0.0000 C   0  0  0  0  0  0  0  0  0  0  0  0
    2.4917   -0.1750    0.0000 C   0  0  0  0  0  0  0  0  0  0  0  0
    2.4917    1.4958    0.0000 C   0  0  0  0  0  0  0  0  0  0  0  0
    6.9792    2.0833    0.0000 C   0  0  0  0  0  0  0  0  0  0  0  0
    5.7042   -1.5000    0.0000 C   0  0  0  0  0  0  0  0  0  0  0  0
    6.5292   -1.5167    0.0000 C   0  0  0  0  0  0  0  0  0  0  0  0
    1.7667    1.0708    0.0000 C   0  0  0  0  0  0  0  0  0  0  0  0
    1.7667    0.2458    0.0000 C   0  0  0  0  0  0  0  0  0  0  0  0
    9.9875    0.8916    0.0000 C   0  0  0  0  0  0  0  0  0  0  0  0
    9.8208   -0.5042    0.0000 C   0  0  0  0  0  0  0  0  0  0  0  0
    9.5083    0.2416    0.0000 C   0  0  0  0  0  0  0  0  0  0  0  0
    9.6500    1.6666    0.0000 N   0  3  0  0  0  0  0  0  0  0  0  0
    9.3000   -1.1834    0.0000 N   0  3  0  0  0  0  0  0  0  0  0  0
   11.9625   -0.0334    0.0000 N   0  3  0  0  0  0  0  0  0  0  0  0
   11.1375    0.0541    0.0000 C   0  0  0  0  0  0  0  0  0  0  0  0
   10.6458   -0.6334    0.0000 C   0  0  0  0  0  0  0  0  0  0  0  0
   10.8125    0.7916    0.0000 C   0  0  0  0  0  0  0  0  0  0  0  0
    8.4916   -1.0667    0.0000 O   0  5  0  0  0  0  0  0  0  0  0  0
   10.1458    2.3208    0.0000 O   0  5  0  0  0  0  0  0  0  0  0  0
   12.3125   -0.7709    0.0000 O   0  5  0  0  0  0  0  0  0  0  0  0
    8.8500    1.7416    0.0000 O   0  0  0  0  0  0  0  0  0  0  0  0
    9.6250   -1.9459    0.0000 O   0  0  0  0  0  0  0  0  0  0  0  0
   12.4375    0.6541    0.0000 O   0  0  0  0  0  0  0  0  0  0  0  0
    8.6791    0.3416    0.0000 O   0  0  0  0  0  0  0  0  0  0  0  0
 18 17  1  0  0  0  0
 19 15  2  0  0  0  0
 20 14  2  0  0  0  0
  8  7  2  0  0  0  0
  5  9  2  0  0  0  0
 20 19  1  0  0  0  0
 18 13  2  0  0  0  0
  2  1  2  0  0  0  0
  3  1  1  0  0  0  0
  4  1  1  0  0  0  0
  5 11  1  0  0  0  0
  6  4  2  0  0  0  0
  7  2  1  0  0  0  0
  8  3  1  0  0  0  0
  9  6  1  0  0  0  0
 10  4  1  0  0  0  0
 11 10  2  0  0  0  0
 12  6  1  0  0  0  0
 13  9  1  0  0  0  0
 14  7  1  0  0  0  0
 15  8  1  0  0  0  0
 16 11  1  0  0  0  0
 17 12  2  0  0  0  0
 22 23  2  0  0  0  0
 23 21  1  0  0  0  0
 24 21  1  0  0  0  0
 25 22  1  0  0  0  0
 26 27  1  0  0  0  0
 27 29  1  0  0  0  0
 28 27  2  0  0  0  0
 29 21  2  0  0  0  0
 30 25  1  0  0  0  0
 31 24  1  0  0  0  0
 32 26  1  0  0  0  0
 33 24  2  0  0  0  0
 34 25  2  0  0  0  0
 35 26  2  0  0  0  0
 36 23  1  0  0  0  0
 22 28  1  0  0  0  0
M  CHG  6  24   1  25   1  26   1  30  -1  31  -1  32  -1
M  END
>  <IDNUMBER>
F0343-0001

>  <Chemical_Name>
2,4,6-trinitrophenol; 4-(1H-1,3-benzodiazol-2-yl)-2-methylquinoline

>  <PriceCoeff>
1.00

>  <CAS>
77692-12-7

>  <MW>
259.31

>  <Description>
solid

>  <FSP3>
0.06

>  <clogP>
4.21

>  <TPSA>
41.57

>  <Acceptor>
3

>  <Donor>
3

>  <RotBonds>
1

>  <HAC>
20

>  <Collection>
General

>  <PPDS>
+

$$$$
F0343-0002
  Mrv2219 10102508112D          

 19 22  0  0  0  0            999 V2000
   -0.7118    2.0059    0.0000 C   0  0  0  0  0  0  0  0  0  0  0  0
   -1.2078    1.3372    0.0000 N   0  0  0  0  0  0  0  0  0  0  0  0
   -1.2078    2.6799    0.0000 S   0  0  0  0  0  0  0  0  0  0  0  0
    0.5231    1.2941    0.0000 N   0  0  0  0  0  0  0  0  0  0  0  0
    0.1025    2.0059    0.0000 C   0  0  0  0  0  0  0  0  0  0  0  0
   -1.9843    1.5960    0.0000 C   0  0  0  0  0  0  0  0  0  0  0  0
   -1.9843    2.4210    0.0000 C   0  0  0  0  0  0  0  0  0  0  0  0
    1.3588    1.3210    0.0000 C   0  0  0  0  0  0  0  0  0  0  0  0
    0.4907    2.7176    0.0000 C   0  0  0  0  0  0  0  0  0  0  0  0
    1.7471    2.0221    0.0000 C   0  0  0  0  0  0  0  0  0  0  0  0
    1.3157    2.7176    0.0000 C   0  0  0  0  0  0  0  0  0  0  0  0
   -2.7122    1.1809    0.0000 C   0  0  0  0  0  0  0  0  0  0  0  0
   -2.7122    2.8416    0.0000 C   0  0  0  0  0  0  0  0  0  0  0  0
    1.7848    0.6093    0.0000 C   0  0  0  0  0  0  0  0  0  0  0  0
    2.5721    2.0221    0.0000 C   0  0  0  0  0  0  0  0  0  0  0  0
   -3.4294    2.4210    0.0000 C   0  0  0  0  0  0  0  0  0  0  0  0
   -3.4294    1.5960    0.0000 C   0  0  0  0  0  0  0  0  0  0  0  0
    2.6098    0.6254    0.0000 C   0  0  0  0  0  0  0  0  0  0  0  0
    2.9981    1.3372    0.0000 C   0  0  0  0  0  0  0  0  0  0  0  0
  2  1  2  0  0  0  0
  3  1  1  0  0  0  0
  4  5  1  0  0  0  0
  5  1  1  0  0  0  0
  6  2  1  0  0  0  0
  7  3  1  0  0  0  0
  8  4  2  0  0  0  0
  9  5  2  0  0  0  0
 10 11  2  0  0  0  0
 11  9  1  0  0  0  0
 12  6  1  0  0  0  0
 13  7  1  0  0  0  0
 14  8  1  0  0  0  0
 15 10  1  0  0  0  0
 16 13  2  0  0  0  0
 17 12  2  0  0  0  0
 18 14  2  0  0  0  0
 19 15  2  0  0  0  0
  7  6  2  0  0  0  0
  8 10  1  0  0  0  0
 17 16  1  0  0  0  0
 18 19  1  0  0  0  0
M  END
>  <IDNUMBER>
F0343-0002

>  <Chemical_Name>
2-(1,3-benzothiazol-2-yl)quinoline

>  <PriceCoeff>
1.00

>  <CAS>
24613-99-8

>  <MW>
262.33

>  <Description>
solid

>  <FSP3>
0.00

>  <clogP>
4.36

>  <TPSA>
54.02

>  <Acceptor>
2

>  <Donor>
1

>  <RotBonds>
1

>  <HAC>
19

>  <Collection>
General

>  <PPDS>
+

$$$$
F0343-0010
  Mrv2219 10102508112D          

 35 38  0  0  0  0            999 V2000
    3.1960    1.5773    0.0000 C   0  0  0  0  0  0  0  0  0  0  0  0
    2.6993    0.9066    0.0000 N   0  0  0  0  0  0  0  0  0  0  0  0
    2.6993    2.2562    0.0000 N   0  0  0  0  0  0  0  0  0  0  0  0
    4.4338    0.8652    0.0000 N   0  0  0  0  0  0  0  0  0  0  0  0
    4.0157    1.5773    0.0000 C   0  0  0  0  0  0  0  0  0  0  0  0
    1.9292    1.1675    0.0000 C   0  0  0  0  0  0  0  0  0  0  0  0
    1.9292    1.9954    0.0000 C   0  0  0  0  0  0  0  0  0  0  0  0
    5.2701    0.8900    0.0000 C   0  0  0  0  0  0  0  0  0  0  0  0
    4.4008    2.2935    0.0000 C   0  0  0  0  0  0  0  0  0  0  0  0
    5.6551    1.5980    0.0000 C   0  0  0  0  0  0  0  0  0  0  0  0
    5.2287    2.2935    0.0000 C   0  0  0  0  0  0  0  0  0  0  0  0
    1.1965    0.7534    0.0000 C   0  0  0  0  0  0  0  0  0  0  0  0
    1.1965    2.4177    0.0000 C   0  0  0  0  0  0  0  0  0  0  0  0
    5.6924    0.1821    0.0000 C   0  0  0  0  0  0  0  0  0  0  0  0
    6.4831    1.5980    0.0000 C   0  0  0  0  0  0  0  0  0  0  0  0
    0.4844    1.9954    0.0000 C   0  0  0  0  0  0  0  0  0  0  0  0
    0.4844    1.1675    0.0000 C   0  0  0  0  0  0  0  0  0  0  0  0
    6.5245    0.1945    0.0000 C   0  0  0  0  0  0  0  0  0  0  0  0
    6.9095    0.9066    0.0000 C   0  0  0  0  0  0  0  0  0  0  0  0
    9.8116    1.9043    0.0000 C   0  0  0  0  0  0  0  0  0  0  0  0
    9.6459    0.5175    0.0000 C   0  0  0  0  0  0  0  0  0  0  0  0
    9.3355    1.2585    0.0000 C   0  0  0  0  0  0  0  0  0  0  0  0
    9.4762    2.6743    0.0000 N   0  3  0  0  0  0  0  0  0  0  0  0
    9.1285   -0.1574    0.0000 N   0  3  0  0  0  0  0  0  0  0  0  0
   11.7739    0.9852    0.0000 N   0  3  0  0  0  0  0  0  0  0  0  0
   10.9542    1.0722    0.0000 C   0  0  0  0  0  0  0  0  0  0  0  0
   10.4656    0.3891    0.0000 C   0  0  0  0  0  0  0  0  0  0  0  0
   10.6313    1.8049    0.0000 C   0  0  0  0  0  0  0  0  0  0  0  0
    8.3253   -0.0414    0.0000 O   0  5  0  0  0  0  0  0  0  0  0  0
    9.9689    3.3243    0.0000 O   0  5  0  0  0  0  0  0  0  0  0  0
   12.1216    0.2525    0.0000 O   0  5  0  0  0  0  0  0  0  0  0  0
    8.6814    2.7488    0.0000 O   0  0  0  0  0  0  0  0  0  0  0  0
    9.4514   -0.9150    0.0000 O   0  0  0  0  0  0  0  0  0  0  0  0
   12.2458    1.6683    0.0000 O   0  0  0  0  0  0  0  0  0  0  0  0
    8.5116    1.3578    0.0000 O   0  0  0  0  0  0  0  0  0  0  0  0
 18 14  2  0  0  0  0
 19 15  2  0  0  0  0
  6  7  2  0  0  0  0
  8 10  1  0  0  0  0
 16 17  1  0  0  0  0
 18 19  1  0  0  0  0
  2  1  2  0  0  0  0
  3  1  1  0  0  0  0
  4  5  1  0  0  0  0
  5  1  1  0  0  0  0
  6  2  1  0  0  0  0
  7  3  1  0  0  0  0
  8  4  2  0  0  0  0
  9  5  2  0  0  0  0
 10 11  2  0  0  0  0
 11  9  1  0  0  0  0
 12  6  1  0  0  0  0
 13  7  1  0  0  0  0
 14  8  1  0  0  0  0
 15 10  1  0  0  0  0
 16 13  2  0  0  0  0
 17 12  2  0  0  0  0
 21 22  2  0  0  0  0
 22 20  1  0  0  0  0
 23 20  1  0  0  0  0
 24 21  1  0  0  0  0
 25 26  1  0  0  0  0
 26 28  1  0  0  0  0
 27 26  2  0  0  0  0
 28 20  2  0  0  0  0
 29 24  1  0  0  0  0
 30 23  1  0  0  0  0
 31 25  1  0  0  0  0
 32 23  2  0  0  0  0
 33 24  2  0  0  0  0
 34 25  2  0  0  0  0
 35 22  1  0  0  0  0
 21 27  1  0  0  0  0
M  CHG  6  23   1  24   1  25   1  29  -1  30  -1  31  -1
M  END
>  <IDNUMBER>
F0343-0010

>  <Chemical_Name>
2,4,6-trinitrophenol; 2-(1H-1,3-benzodiazol-2-yl)quinoline

>  <PriceCoeff>
1.00

>  <CAS>
467450-36-8

>  <MW>
245.28

>  <Description>
solid

>  <FSP3>
0.00

>  <clogP>
3.92

>  <TPSA>
41.57

>  <Acceptor>
3

>  <Donor>
3

>  <RotBonds>
1

>  <HAC>
19

>  <Collection>
General

>  <PPDS>
+

$$$$
F0345-4219
  Mrv2219 10102508112D          

 24 25  0  0  0  0            999 V2000
   -2.1354   -0.0028    0.0000 C   0  0  0  0  0  0  0  0  0  0  0  0
   -2.1354    0.7602    0.0000 C   0  0  0  0  0  0  0  0  0  0  0  0
   -1.4646   -0.4025    0.0000 N   0  0  0  0  0  0  0  0  0  0  0  0
   -0.8022   -0.0028    0.0000 N   0  0  0  0  0  0  0  0  0  0  0  0
   -0.8022    0.7602    0.0000 C   0  0  0  0  0  0  0  0  0  0  0  0
   -2.7979   -0.4025    0.0000 N   0  3  0  0  0  0  0  0  0  0  0  0
   -0.0894   -0.4360    0.0000 C   0  0  0  0  0  0  0  0  0  0  0  0
    0.6373   -0.0335    0.0000 C   0  0  0  0  0  0  0  0  0  0  0  0
    2.7504   -0.5143    0.0000 C   0  0  0  0  0  0  0  0  0  0  0  0
    3.5079   -0.1006    0.0000 C   0  0  0  0  0  0  0  0  0  0  0  0
   -3.4519   -0.0028    0.0000 O   0  5  0  0  0  0  0  0  0  0  0  0
    1.3277   -0.4696    0.0000 N   0  0  0  0  0  0  0  0  0  0  0  0
   -2.7979   -1.1600    0.0000 O   0  0  0  0  0  0  0  0  0  0  0  0
   -2.8482    1.1711    0.0000 Cl  0  0  0  0  0  0  0  0  0  0  0  0
    2.0488   -0.0699    0.0000 C   0  0  0  0  0  0  0  0  0  0  0  0
    3.5079    0.6932    0.0000 C   0  0  0  0  0  0  0  0  0  0  0  0
    0.6233    0.8022    0.0000 O   0  0  0  0  0  0  0  0  0  0  0  0
    2.8035    1.1376    0.0000 C   0  0  0  0  0  0  0  0  0  0  0  0
   -0.0894    1.1711    0.0000 C   0  0  0  0  0  0  0  0  0  0  0  0
    2.0488    0.7379    0.0000 C   0  0  0  0  0  0  0  0  0  0  0  0
    4.2458   -0.4696    0.0000 O   0  0  0  0  0  0  0  0  0  0  0  0
    4.2458    1.0621    0.0000 O   0  0  0  0  0  0  0  0  0  0  0  0
    4.2933   -1.2774    0.0000 C   0  0  0  0  0  0  0  0  0  0  0  0
    4.9305    0.6177    0.0000 C   0  0  0  0  0  0  0  0  0  0  0  0
  2  1  1  0  0  0  0
  3  1  2  0  0  0  0
  4  3  1  0  0  0  0
  5  2  2  0  0  0  0
  6  1  1  0  0  0  0
  7  4  1  0  0  0  0
  8  7  1  0  0  0  0
  9 15  2  0  0  0  0
 10  9  1  0  0  0  0
 11  6  1  0  0  0  0
 12  8  1  0  0  0  0
 13  6  2  0  0  0  0
 14  2  1  0  0  0  0
 15 12  1  0  0  0  0
 16 18  1  0  0  0  0
 17  8  2  0  0  0  0
 18 20  2  0  0  0  0
 19  5  1  0  0  0  0
 20 15  1  0  0  0  0
 21 10  1  0  0  0  0
 22 16  1  0  0  0  0
 23 21  1  0  0  0  0
 24 22  1  0  0  0  0
  4  5  1  0  0  0  0
 16 10  2  0  0  0  0
M  CHG  2   6   1  11  -1
M  END
>  <IDNUMBER>
F0345-4219

>  <Chemical_Name>
2-(4-chloro-5-methyl-3-nitro-1H-pyrazol-1-yl)-N-(3,4-dimethoxyphenyl)acetamide

>  <PriceCoeff>
1.00

>  <CAS>
353455-68-2

>  <MW>
354.75

>  <Description>
solid

>  <FSP3>
0.29

>  <clogP>
1.75

>  <TPSA>
108.52

>  <Acceptor>
6

>  <Donor>
1

>  <RotBonds>
6

>  <HAC>
24

>  <Collection>
General

>  <PPDS>
+

$$$$
F0346-1555
  Mrv2219 10102508112D          

 22 23  0  0  0  0            999 V2000
   -2.3519    1.2002    0.0000 C   0  0  0  0  0  0  0  0  0  0  0  0
   -2.9874    1.7077    0.0000 N   0  0  0  0  0  0  0  0  0  0  0  0
   -2.3519    0.3707    0.0000 N   0  3  0  0  0  0  0  0  0  0  0  0
   -1.6768    1.6636    0.0000 N   0  0  0  0  0  0  0  0  0  0  0  0
    2.4403    0.3133    0.0000 N   0  3  0  0  0  0  0  0  0  0  0  0
   -1.9283    2.4491    0.0000 N   0  0  0  0  0  0  0  0  0  0  0  0
   -2.7535    2.4491    0.0000 C   0  0  0  0  0  0  0  0  0  0  0  0
    1.7474    0.7546    0.0000 C   0  0  0  0  0  0  0  0  0  0  0  0
   -0.5957    2.8727    0.0000 C   0  0  0  0  0  0  0  0  0  0  0  0
   -1.3768    3.0668    0.0000 C   0  0  0  0  0  0  0  0  0  0  0  0
    1.0061    0.3707    0.0000 C   0  0  0  0  0  0  0  0  0  0  0  0
   -0.3177    2.0872    0.0000 N   0  0  0  0  0  0  0  0  0  0  0  0
    0.3707    1.6415    0.0000 C   0  0  0  0  0  0  0  0  0  0  0  0
    0.3222    0.8163    0.0000 C   0  0  0  0  0  0  0  0  0  0  0  0
   -3.0713   -0.0177    0.0000 O   0  5  0  0  0  0  0  0  0  0  0  0
    2.4358   -0.5075    0.0000 O   0  5  0  0  0  0  0  0  0  0  0  0
   -1.6548   -0.0530    0.0000 O   0  0  0  0  0  0  0  0  0  0  0  0
    3.1816    0.6884    0.0000 O   0  0  0  0  0  0  0  0  0  0  0  0
   -0.0485    3.5081    0.0000 O   0  0  0  0  0  0  0  0  0  0  0  0
    1.8004    1.6018    0.0000 C   0  0  0  0  0  0  0  0  0  0  0  0
    1.0900    2.0254    0.0000 C   0  0  0  0  0  0  0  0  0  0  0  0
   -0.4059    0.4369    0.0000 Cl  0  0  0  0  0  0  0  0  0  0  0  0
  2  1  1  0  0  0  0
  3  1  1  0  0  0  0
  4  1  2  0  0  0  0
  5  8  1  0  0  0  0
  6  4  1  0  0  0  0
  7  2  2  0  0  0  0
  8 20  2  0  0  0  0
  9 10  1  0  0  0  0
 10  6  1  0  0  0  0
 11 14  2  0  0  0  0
 12  9  1  0  0  0  0
 13 12  1  0  0  0  0
 14 13  1  0  0  0  0
 15  3  1  0  0  0  0
 16  5  1  0  0  0  0
 17  3  2  0  0  0  0
 18  5  2  0  0  0  0
 19  9  2  0  0  0  0
 20 21  1  0  0  0  0
 21 13  2  0  0  0  0
 22 14  1  0  0  0  0
  7  6  1  0  0  0  0
  8 11  1  0  0  0  0
M  CHG  4   3   1   5   1  15  -1  16  -1
M  END
>  <IDNUMBER>
F0346-1555

>  <Chemical_Name>
N-(2-chloro-4-nitrophenyl)-2-(3-nitro-1H-1,2,4-triazol-1-yl)acetamide

>  <PriceCoeff>
1.00

>  <CAS>
314048-54-9

>  <MW>
326.65

>  <Description>
solid

>  <FSP3>
0.10

>  <clogP>
0.31

>  <TPSA>
146.09

>  <Acceptor>
7

>  <Donor>
1

>  <RotBonds>
5

>  <HAC>
22

>  <Collection>
General

>  <PPDS>
+

$$$$
F0346-1855
  Mrv2219 10102508112D          

 13 14  0  0  0  0            999 V2000
    1.3633    0.4177    0.0000 C   0  0  0  0  0  0  0  0  0  0  0  0
    0.6502    0.0000    0.0000 C   0  0  0  0  0  0  0  0  0  0  0  0
   -0.7760    0.0000    0.0000 C   0  0  0  0  0  0  0  0  0  0  0  0
   -0.0629    0.4177    0.0000 C   0  0  0  0  0  0  0  0  0  0  0  0
   -0.7760   -0.8250    0.0000 C   0  0  0  0  0  0  0  0  0  0  0  0
   -1.4944    0.4177    0.0000 O   0  0  0  0  0  0  0  0  0  0  0  0
   -1.4944   -1.2375    0.0000 O   0  0  0  0  0  0  0  0  0  0  0  0
    2.1044    0.0559    0.0000 O   0  0  0  0  0  0  0  0  0  0  0  0
    0.6502   -0.8250    0.0000 C   0  0  0  0  0  0  0  0  0  0  0  0
   -0.0629   -1.2375    0.0000 C   0  0  0  0  0  0  0  0  0  0  0  0
    1.4070    1.2427    0.0000 O   0  0  0  0  0  0  0  0  0  0  0  0
   -2.2110    0.0000    0.0000 C   0  0  0  0  0  0  0  0  0  0  0  0
   -2.2110   -0.8250    0.0000 C   0  0  0  0  0  0  0  0  0  0  0  0
  2  1  1  0  0  0  0
  3  4  2  0  0  0  0
  4  2  1  0  0  0  0
  5 10  2  0  0  0  0
  6  3  1  0  0  0  0
  7  5  1  0  0  0  0
  8  1  2  0  0  0  0
  9  2  2  0  0  0  0
 10  9  1  0  0  0  0
 11  1  1  0  0  0  0
 12  6  1  0  0  0  0
 13  7  1  0  0  0  0
  3  5  1  0  0  0  0
 12 13  1  0  0  0  0
M  END
>  <IDNUMBER>
F0346-1855

>  <Chemical_Name>
2,3-dihydro-1,4-benzodioxine-6-carboxylic acid

>  <PriceCoeff>
1.50

>  <CAS>
4442-54-0

>  <MW>
180.16

>  <Description>
solid

>  <FSP3>
0.22

>  <clogP>
1.16

>  <TPSA>
55.76

>  <Acceptor>
4

>  <Donor>
0

>  <RotBonds>
1

>  <HAC>
13

>  <Collection>
Advanced

>  <PPDS>
+

$$$$
F0346-1856
  Mrv2219 10102508112D          

 25 26  0  0  0  0            999 V2000
   -2.5535   -0.3367    0.0000 C   0  0  0  0  0  0  0  0  0  0  0  0
   -2.5535    0.4458    0.0000 C   0  0  0  0  0  0  0  0  0  0  0  0
   -1.8801   -0.7140    0.0000 N   0  0  0  0  0  0  0  0  0  0  0  0
   -1.2128   -0.3367    0.0000 N   0  0  0  0  0  0  0  0  0  0  0  0
   -1.2128    0.4458    0.0000 C   0  0  0  0  0  0  0  0  0  0  0  0
   -3.2176   -0.7140    0.0000 N   0  3  0  0  0  0  0  0  0  0  0  0
   -0.5019   -0.7514    0.0000 C   0  0  0  0  0  0  0  0  0  0  0  0
    1.6400   -0.3960    0.0000 C   0  0  0  0  0  0  0  0  0  0  0  0
    0.2245   -0.3492    0.0000 C   0  0  0  0  0  0  0  0  0  0  0  0
    2.3571   -0.8356    0.0000 C   0  0  0  0  0  0  0  0  0  0  0  0
    0.9198   -0.7857    0.0000 N   0  0  0  0  0  0  0  0  0  0  0  0
    2.3977    0.8200    0.0000 C   0  0  0  0  0  0  0  0  0  0  0  0
    1.6400    0.4209    0.0000 C   0  0  0  0  0  0  0  0  0  0  0  0
    3.1054    0.3741    0.0000 C   0  0  0  0  0  0  0  0  0  0  0  0
    3.1054   -0.4241    0.0000 C   0  0  0  0  0  0  0  0  0  0  0  0
   -3.8692   -0.3367    0.0000 O   0  5  0  0  0  0  0  0  0  0  0  0
   -3.2176   -1.4966    0.0000 O   0  0  0  0  0  0  0  0  0  0  0  0
   -3.2644    0.8480    0.0000 Br  0  0  0  0  0  0  0  0  0  0  0  0
    0.2245    0.4832    0.0000 O   0  0  0  0  0  0  0  0  0  0  0  0
    3.8537    0.7451    0.0000 Cl  0  0  0  0  0  0  0  0  0  0  0  0
   -0.5019    0.8480    0.0000 C   0  0  0  0  0  0  0  0  0  0  0  0
    0.9354    0.8231    0.0000 O   0  0  0  0  0  0  0  0  0  0  0  0
    3.8381   -0.8075    0.0000 O   0  0  0  0  0  0  0  0  0  0  0  0
    0.9354    1.6556    0.0000 C   0  0  0  0  0  0  0  0  0  0  0  0
    4.5271   -0.3586    0.0000 C   0  0  0  0  0  0  0  0  0  0  0  0
  2  1  1  0  0  0  0
  3  1  2  0  0  0  0
  4  3  1  0  0  0  0
  5  2  2  0  0  0  0
  6  1  1  0  0  0  0
  7  4  1  0  0  0  0
  8 11  1  0  0  0  0
  9  7  1  0  0  0  0
 10  8  2  0  0  0  0
 11  9  1  0  0  0  0
 12 13  2  0  0  0  0
 13  8  1  0  0  0  0
 14 12  1  0  0  0  0
 15 10  1  0  0  0  0
 16  6  1  0  0  0  0
 17  6  2  0  0  0  0
 18  2  1  0  0  0  0
 19  9  2  0  0  0  0
 20 14  1  0  0  0  0
 21  5  1  0  0  0  0
 22 13  1  0  0  0  0
 23 15  1  0  0  0  0
 24 22  1  0  0  0  0
 25 23  1  0  0  0  0
  4  5  1  0  0  0  0
 14 15  2  0  0  0  0
M  CHG  2   6   1  16  -1
M  END
>  <IDNUMBER>
F0346-1856

>  <Chemical_Name>
2-(4-bromo-5-methyl-3-nitro-1H-pyrazol-1-yl)-N-(4-chloro-2,5-dimethoxyphenyl)acetamide

>  <PriceCoeff>
1.00

>  <CAS>
353455-61-5

>  <MW>
433.64

>  <Description>
solid

>  <FSP3>
0.29

>  <clogP>
2.24

>  <TPSA>
108.52

>  <Acceptor>
6

>  <Donor>
1

>  <RotBonds>
6

>  <HAC>
25

>  <Collection>
General

>  <PPDS>
+

$$$$
F0347-0397
  Mrv2219 10102508112D          

 21 22  0  0  0  0            999 V2000
    1.3842   -1.4175    0.0000 N   0  3  0  0  0  0  0  0  0  0  0  0
    1.3842   -0.5815    0.0000 C   0  0  0  0  0  0  0  0  0  0  0  0
   -0.0454    1.0540    0.0000 C   0  0  0  0  0  0  0  0  0  0  0  0
    0.6755   -0.1817    0.0000 C   0  0  0  0  0  0  0  0  0  0  0  0
   -0.7724    0.6330    0.0000 N   0  0  0  0  0  0  0  0  0  0  0  0
    0.6755    0.6512    0.0000 C   0  0  0  0  0  0  0  0  0  0  0  0
    2.1081   -0.1817    0.0000 C   0  0  0  0  0  0  0  0  0  0  0  0
    0.6755   -1.8173    0.0000 O   0  5  0  0  0  0  0  0  0  0  0  0
    2.1081   -1.8173    0.0000 O   0  0  0  0  0  0  0  0  0  0  0  0
   -0.7602   -0.1848    0.0000 C   0  0  0  0  0  0  0  0  0  0  0  0
   -0.0454    1.8870    0.0000 O   0  0  0  0  0  0  0  0  0  0  0  0
    1.3842    1.0540    0.0000 C   0  0  0  0  0  0  0  0  0  0  0  0
    2.1081    0.6512    0.0000 C   0  0  0  0  0  0  0  0  0  0  0  0
   -1.4690   -0.6179    0.0000 C   0  0  0  0  0  0  0  0  0  0  0  0
    2.8350   -0.5937    0.0000 Cl  0  0  0  0  0  0  0  0  0  0  0  0
   -0.0454   -0.5937    0.0000 C   0  0  0  0  0  0  0  0  0  0  0  0
   -2.1808   -0.2030    0.0000 C   0  0  0  0  0  0  0  0  0  0  0  0
   -1.4690   -1.4206    0.0000 C   0  0  0  0  0  0  0  0  0  0  0  0
   -2.1808   -1.8295    0.0000 C   0  0  0  0  0  0  0  0  0  0  0  0
   -2.8956   -0.6179    0.0000 C   0  0  0  0  0  0  0  0  0  0  0  0
   -2.8956   -1.4175    0.0000 C   0  0  0  0  0  0  0  0  0  0  0  0
  2  1  1  0  0  0  0
  3  6  1  0  0  0  0
  4  2  1  0  0  0  0
  5  3  1  0  0  0  0
  6  4  2  0  0  0  0
  7  2  2  0  0  0  0
  8  1  1  0  0  0  0
  9  1  2  0  0  0  0
 10  5  1  0  0  0  0
 11  3  2  0  0  0  0
 12 13  2  0  0  0  0
 13  7  1  0  0  0  0
 14 10  1  0  0  0  0
 15  7  1  0  0  0  0
 16 10  1  0  0  0  0
 17 14  2  0  0  0  0
 18 14  1  0  0  0  0
 19 18  2  0  0  0  0
 20 17  1  0  0  0  0
 21 19  1  0  0  0  0
 12  6  1  0  0  0  0
 21 20  2  0  0  0  0
M  CHG  2   1   1   8  -1
M  END
>  <IDNUMBER>
F0347-0397

>  <Chemical_Name>
4-chloro-3-nitro-N-(1-phenylethyl)benzamide

>  <PriceCoeff>
1.00

>  <CAS>
312743-45-6

>  <MW>
304.73

>  <Description>
solid

>  <FSP3>
0.13

>  <clogP>
3.95

>  <TPSA>
72.24

>  <Acceptor>
3

>  <Donor>
1

>  <RotBonds>
4

>  <HAC>
21

>  <Collection>
General

>  <PPDS>
+

$$$$
F0347-1155
  Mrv2219 10102508112D          

 30 32  0  0  0  0            999 V2000
    6.7100   -1.1000    0.0000 C   0  0  0  0  0  0  0  0  0  0  0  0
    5.9950   -1.5034    0.0000 C   0  0  0  0  0  0  0  0  0  0  0  0
   -1.1550   -2.3146    0.0000 C   0  0  0  0  0  0  0  0  0  0  0  0
    2.4062   -2.7500    0.0000 C   0  0  0  0  0  0  0  0  0  0  0  0
    7.4250   -1.5034    0.0000 C   0  0  0  0  0  0  0  0  0  0  0  0
    5.2800   -1.1000    0.0000 N   0  0  0  0  0  0  0  0  0  0  0  0
    1.7050   -2.3146    0.0000 N   0  0  0  0  0  0  0  0  0  0  0  0
   -0.4400   -2.7500    0.0000 C   0  0  0  0  0  0  0  0  0  0  0  0
    6.7100   -0.2750    0.0000 C   0  0  0  0  0  0  0  0  0  0  0  0
    8.1171   -1.1000    0.0000 C   0  0  0  0  0  0  0  0  0  0  0  0
    3.1350   -2.3146    0.0000 C   0  0  0  0  0  0  0  0  0  0  0  0
    5.9950   -2.3284    0.0000 O   0  0  0  0  0  0  0  0  0  0  0  0
    0.9900   -2.7500    0.0000 C   0  0  0  0  0  0  0  0  0  0  0  0
    0.2521   -2.3146    0.0000 C   0  0  0  0  0  0  0  0  0  0  0  0
    2.4062   -3.5750    0.0000 O   0  0  0  0  0  0  0  0  0  0  0  0
   -1.6454   -3.0250    0.0000 F   0  0  0  0  0  0  0  0  0  0  0  0
   -1.7829   -1.8700    0.0000 F   0  0  0  0  0  0  0  0  0  0  0  0
   -1.1000   -1.4850    0.0000 F   0  0  0  0  0  0  0  0  0  0  0  0
    4.5650   -1.4896    0.0000 C   0  0  0  0  0  0  0  0  0  0  0  0
    3.1350   -1.4896    0.0000 C   0  0  0  0  0  0  0  0  0  0  0  0
    3.8500   -2.7500    0.0000 C   0  0  0  0  0  0  0  0  0  0  0  0
    8.1400   -0.2750    0.0000 C   0  0  0  0  0  0  0  0  0  0  0  0
    7.4021   -2.3284    0.0000 Cl  0  0  0  0  0  0  0  0  0  0  0  0
    7.4250    0.1237    0.0000 C   0  0  0  0  0  0  0  0  0  0  0  0
    3.8500   -1.1000    0.0000 C   0  0  0  0  0  0  0  0  0  0  0  0
    4.5650   -2.3146    0.0000 C   0  0  0  0  0  0  0  0  0  0  0  0
    8.8550    0.1237    0.0000 Cl  0  0  0  0  0  0  0  0  0  0  0  0
   -0.4400   -3.5750    0.0000 C   0  0  0  0  0  0  0  0  0  0  0  0
    0.2521   -3.9784    0.0000 C   0  0  0  0  0  0  0  0  0  0  0  0
    0.9900   -3.5750    0.0000 C   0  0  0  0  0  0  0  0  0  0  0  0
  2  1  1  0  0  0  0
  3  8  1  0  0  0  0
  4 11  1  0  0  0  0
  5  1  1  0  0  0  0
  6  2  1  0  0  0  0
  7  4  1  0  0  0  0
  8 14  2  0  0  0  0
  9  1  2  0  0  0  0
 10  5  2  0  0  0  0
 11 21  1  0  0  0  0
 12  2  2  0  0  0  0
 13  7  1  0  0  0  0
 14 13  1  0  0  0  0
 15  4  2  0  0  0  0
 16  3  1  0  0  0  0
 17  3  1  0  0  0  0
 18  3  1  0  0  0  0
 19  6  1  0  0  0  0
 20 25  1  0  0  0  0
 21 26  2  0  0  0  0
 22 24  2  0  0  0  0
 23  5  1  0  0  0  0
 24  9  1  0  0  0  0
 25 19  2  0  0  0  0
 26 19  1  0  0  0  0
 27 22  1  0  0  0  0
 28 29  2  0  0  0  0
 29 30  1  0  0  0  0
 30 13  2  0  0  0  0
 22 10  1  0  0  0  0
 11 20  2  0  0  0  0
 28  8  1  0  0  0  0
M  END
>  <IDNUMBER>
F0347-1155

>  <Chemical_Name>
2,4-dichloro-N-(4-{[3-(trifluoromethyl)phenyl]carbamoyl}phenyl)benzamide

>  <PriceCoeff>
1.00

>  <CAS>
312616-66-3

>  <MW>
453.24

>  <Description>
solid

>  <FSP3>
0.05

>  <clogP>
5.48

>  <TPSA>
58.20

>  <Acceptor>
2

>  <Donor>
2

>  <RotBonds>
4

>  <HAC>
30

>  <Collection>
General

>  <PPDS>
+

$$$$
F0347-2366
  Mrv2219 10102508112D          

 14 14  0  0  0  0            999 V2000
   -2.5295    0.8035    0.0000 C   0  0  0  0  0  0  0  0  0  0  0  0
   -1.8153    1.2350    0.0000 C   0  0  0  0  0  0  0  0  0  0  0  0
   -1.1011    0.8221    0.0000 N   0  0  0  0  0  0  0  0  0  0  0  0
   -0.4018   -0.4018    0.0000 C   0  0  0  0  0  0  0  0  0  0  0  0
   -3.2438    1.2164    0.0000 C   0  0  0  0  0  0  0  0  0  0  0  0
   -1.8153    2.0534    0.0000 O   0  0  0  0  0  0  0  0  0  0  0  0
    0.3162    0.0000    0.0000 O   0  0  0  0  0  0  0  0  0  0  0  0
   -1.1011    0.0000    0.0000 C   0  0  0  0  0  0  0  0  0  0  0  0
   -3.2438    2.0385    0.0000 F   0  0  0  0  0  0  0  0  0  0  0  0
   -0.4018   -1.2202    0.0000 O   0  0  0  0  0  0  0  0  0  0  0  0
   -2.5295   -0.0037    0.0000 C   0  0  0  0  0  0  0  0  0  0  0  0
   -3.9580    0.8035    0.0000 C   0  0  0  0  0  0  0  0  0  0  0  0
   -3.2438   -0.4167    0.0000 C   0  0  0  0  0  0  0  0  0  0  0  0
   -3.9580   -0.0037    0.0000 C   0  0  0  0  0  0  0  0  0  0  0  0
  2  1  1  0  0  0  0
  3  2  1  0  0  0  0
  4  8  1  0  0  0  0
  5  1  1  0  0  0  0
  6  2  2  0  0  0  0
  7  4  2  0  0  0  0
  8  3  1  0  0  0  0
  9  5  1  0  0  0  0
 10  4  1  0  0  0  0
 11  1  2  0  0  0  0
 12  5  2  0  0  0  0
 13 11  1  0  0  0  0
 14 13  2  0  0  0  0
 14 12  1  0  0  0  0
M  END
>  <IDNUMBER>
F0347-2366

>  <Chemical_Name>
2-[(2-fluorophenyl)formamido]acetic acid

>  <PriceCoeff>
1.00

>  <CAS>
363-34-8

>  <MW>
197.16

>  <Description>
solid

>  <FSP3>
0.11

>  <clogP>
0.67

>  <TPSA>
66.40

>  <Acceptor>
3

>  <Donor>
1

>  <RotBonds>
3

>  <HAC>
14

>  <Collection>
General

>  <PPDS>
+

$$$$
F0347-4698
  Mrv2219 10102508112D          

 19 21  0  0  0  0            999 V2000
   -1.6614    0.0585    0.0000 C   0  0  0  0  0  0  0  0  0  0  0  0
   -1.6614    0.8733    0.0000 C   0  0  0  0  0  0  0  0  0  0  0  0
   -2.3803   -0.3834    0.0000 O   0  0  0  0  0  0  0  0  0  0  0  0
   -3.0938    0.0585    0.0000 C   0  0  0  0  0  0  0  0  0  0  0  0
   -2.3803    1.2780    0.0000 C   0  0  0  0  0  0  0  0  0  0  0  0
   -3.0938    0.8733    0.0000 C   0  0  0  0  0  0  0  0  0  0  0  0
   -0.9532   -0.3195    0.0000 C   0  0  0  0  0  0  0  0  0  0  0  0
   -3.8127    1.2780    0.0000 C   0  0  0  0  0  0  0  0  0  0  0  0
   -3.8127   -0.3834    0.0000 C   0  0  0  0  0  0  0  0  0  0  0  0
   -2.3803    2.1247    0.0000 O   0  0  0  0  0  0  0  0  0  0  0  0
   -0.2556    0.1224    0.0000 C   0  0  0  0  0  0  0  0  0  0  0  0
   -0.9212   -1.1502    0.0000 C   0  0  0  0  0  0  0  0  0  0  0  0
   -4.5316    0.8733    0.0000 C   0  0  0  0  0  0  0  0  0  0  0  0
   -4.5316    0.0585    0.0000 C   0  0  0  0  0  0  0  0  0  0  0  0
    0.5112   -1.0863    0.0000 C   0  0  0  0  0  0  0  0  0  0  0  0
   -0.1704   -1.5336    0.0000 C   0  0  0  0  0  0  0  0  0  0  0  0
    0.4527   -0.2556    0.0000 C   0  0  0  0  0  0  0  0  0  0  0  0
    1.2195   -1.4272    0.0000 Cl  0  0  0  0  0  0  0  0  0  0  0  0
   -5.2399   -0.3195    0.0000 C   0  0  0  0  0  0  0  0  0  0  0  0
  2  1  2  0  0  0  0
  3  1  1  0  0  0  0
  4  3  1  0  0  0  0
  5  2  1  0  0  0  0
  6  4  2  0  0  0  0
  7  1  1  0  0  0  0
  8  6  1  0  0  0  0
  9  4  1  0  0  0  0
 10  5  2  0  0  0  0
 11  7  2  0  0  0  0
 12  7  1  0  0  0  0
 13 14  1  0  0  0  0
 14  9  2  0  0  0  0
 15 16  1  0  0  0  0
 16 12  2  0  0  0  0
 17 11  1  0  0  0  0
 18 15  1  0  0  0  0
 19 14  1  0  0  0  0
 15 17  2  0  0  0  0
  5  6  1  0  0  0  0
 13  8  2  0  0  0  0
M  END
>  <IDNUMBER>
F0347-4698

>  <Chemical_Name>
2-(4-chlorophenyl)-7-methyl-4H-chromen-4-one

>  <PriceCoeff>
1.00

>  <CAS>
313973-29-4

>  <MW>
270.71

>  <Description>
solid

>  <FSP3>
0.06

>  <clogP>
4.69

>  <TPSA>
26.30

>  <Acceptor>
2

>  <Donor>
0

>  <RotBonds>
1

>  <HAC>
19

>  <Collection>
General

>  <PPDS>
+

$$$$
F0348-1184
  Mrv2219 10102508112D          

 22 23  0  0  0  0            999 V2000
   -2.9664    0.2887    0.0000 C   0  0  0  0  0  0  0  0  0  0  0  0
   -2.9664    1.0690    0.0000 C   0  0  0  0  0  0  0  0  0  0  0  0
   -2.2858   -0.0860    0.0000 N   0  0  0  0  0  0  0  0  0  0  0  0
   -1.6258    0.2887    0.0000 N   0  0  0  0  0  0  0  0  0  0  0  0
   -1.6258    1.0690    0.0000 C   0  0  0  0  0  0  0  0  0  0  0  0
   -3.6264   -0.0860    0.0000 N   0  3  0  0  0  0  0  0  0  0  0  0
   -0.9246   -0.1237    0.0000 C   0  0  0  0  0  0  0  0  0  0  0  0
   -0.2028    0.2750    0.0000 C   0  0  0  0  0  0  0  0  0  0  0  0
   -4.2657    0.2887    0.0000 O   0  5  0  0  0  0  0  0  0  0  0  0
   -3.6264   -0.8491    0.0000 O   0  0  0  0  0  0  0  0  0  0  0  0
   -3.6780    1.4815    0.0000 Cl  0  0  0  0  0  0  0  0  0  0  0  0
    0.4950   -0.1650    0.0000 N   0  0  0  0  0  0  0  0  0  0  0  0
   -0.2028    1.0999    0.0000 O   0  0  0  0  0  0  0  0  0  0  0  0
   -0.9246    1.4712    0.0000 C   0  0  0  0  0  0  0  0  0  0  0  0
    1.2100    0.2166    0.0000 C   0  0  0  0  0  0  0  0  0  0  0  0
    3.3652   -1.0725    0.0000 C   0  0  0  0  0  0  0  0  0  0  0  0
    1.9112   -0.2097    0.0000 C   0  0  0  0  0  0  0  0  0  0  0  0
    4.0871   -1.4678    0.0000 Cl  0  0  0  0  0  0  0  0  0  0  0  0
    2.6399   -1.4884    0.0000 C   0  0  0  0  0  0  0  0  0  0  0  0
    3.3549   -0.2475    0.0000 C   0  0  0  0  0  0  0  0  0  0  0  0
    1.9112   -1.0553    0.0000 C   0  0  0  0  0  0  0  0  0  0  0  0
    2.6399    0.1822    0.0000 C   0  0  0  0  0  0  0  0  0  0  0  0
  2  1  1  0  0  0  0
  3  1  2  0  0  0  0
  4  3  1  0  0  0  0
  5  2  2  0  0  0  0
  6  1  1  0  0  0  0
  7  4  1  0  0  0  0
  8  7  1  0  0  0  0
  9  6  1  0  0  0  0
 10  6  2  0  0  0  0
 11  2  1  0  0  0  0
 12  8  1  0  0  0  0
 13  8  2  0  0  0  0
 14  5  1  0  0  0  0
 15 12  1  0  0  0  0
 16 20  1  0  0  0  0
 17 15  1  0  0  0  0
 18 16  1  0  0  0  0
 19 21  1  0  0  0  0
 20 22  2  0  0  0  0
 21 17  2  0  0  0  0
 22 17  1  0  0  0  0
  4  5  1  0  0  0  0
 16 19  2  0  0  0  0
M  CHG  2   6   1   9  -1
M  END
>  <IDNUMBER>
F0348-1184

>  <Chemical_Name>
2-(4-chloro-5-methyl-3-nitro-1H-pyrazol-1-yl)-N-[(4-chlorophenyl)methyl]acetamide

>  <PriceCoeff>
1.00

>  <CAS>
353455-65-9

>  <MW>
343.17

>  <Description>
solid

>  <FSP3>
0.23

>  <clogP>
2.74

>  <TPSA>
90.06

>  <Acceptor>
4

>  <Donor>
1

>  <RotBonds>
5

>  <HAC>
22

>  <Collection>
General

>  <PPDS>
+

$$$$
F0348-2711
  Mrv2219 10102508112D          

 15 16  0  0  0  0            999 V2000
   -0.5419    0.4294    0.0000 C   0  0  0  0  0  0  0  0  0  0  0  0
   -1.0199    1.1016    0.0000 N   0  0  0  0  0  0  0  0  0  0  0  0
   -1.0199   -0.2326    0.0000 N   0  0  0  0  0  0  0  0  0  0  0  0
    0.2761    0.4294    0.0000 N   0  0  0  0  0  0  0  0  0  0  0  0
    0.7055   -0.2786    0.0000 C   0  0  0  0  0  0  0  0  0  0  0  0
   -1.8071    0.8563    0.0000 C   0  0  0  0  0  0  0  0  0  0  0  0
   -1.8071    0.0281    0.0000 C   0  0  0  0  0  0  0  0  0  0  0  0
    0.2761   -0.9841    0.0000 O   0  0  0  0  0  0  0  0  0  0  0  0
    1.5209   -0.2786    0.0000 O   0  0  0  0  0  0  0  0  0  0  0  0
   -2.5126    1.2576    0.0000 C   0  0  0  0  0  0  0  0  0  0  0  0
   -2.5126   -0.3987    0.0000 C   0  0  0  0  0  0  0  0  0  0  0  0
    1.9426   -0.9841    0.0000 C   0  0  0  0  0  0  0  0  0  0  0  0
    2.7631   -0.9841    0.0000 C   0  0  0  0  0  0  0  0  0  0  0  0
   -3.2334    0.8563    0.0000 C   0  0  0  0  0  0  0  0  0  0  0  0
   -3.2334    0.0281    0.0000 C   0  0  0  0  0  0  0  0  0  0  0  0
  2  1  2  0  0  0  0
  3  1  1  0  0  0  0
  4  1  1  0  0  0  0
  5  4  1  0  0  0  0
  6  2  1  0  0  0  0
  7  3  1  0  0  0  0
  8  5  2  0  0  0  0
  9  5  1  0  0  0  0
 10  6  1  0  0  0  0
 11  7  1  0  0  0  0
 12  9  1  0  0  0  0
 13 12  1  0  0  0  0
 14 10  2  0  0  0  0
 15 11  2  0  0  0  0
  7  6  2  0  0  0  0
 14 15  1  0  0  0  0
M  END
>  <IDNUMBER>
F0348-2711

>  <Chemical_Name>
ethyl N-(1H-1,3-benzodiazol-2-yl)carbamate

>  <PriceCoeff>
1.50

>  <CAS>
6306-71-4

>  <MW>
205.22

>  <Description>
solid

>  <FSP3>
0.20

>  <clogP>
2.16

>  <TPSA>
67.01

>  <Acceptor>
4

>  <Donor>
3

>  <RotBonds>
3

>  <HAC>
15

>  <Collection>
Advanced

>  <PPDS>
+

$$$$
F0348-2897
  Mrv2219 10102508112D          

 14 14  0  0  0  0            999 V2000
   -0.5354    1.3275    0.0000 C   0  0  0  0  0  0  0  0  0  0  0  0
   -0.7443    0.5354    0.0000 N   0  0  0  0  0  0  0  0  0  0  0  0
    0.2612    1.5147    0.0000 O   0  0  0  0  0  0  0  0  0  0  0  0
   -1.5364    0.3264    0.0000 C   0  0  0  0  0  0  0  0  0  0  0  0
   -1.0969    1.9151    0.0000 O   0  0  0  0  0  0  0  0  0  0  0  0
   -3.1295   -0.0827    0.0000 C   0  0  0  0  0  0  0  0  0  0  0  0
   -1.7715   -0.4701    0.0000 C   0  0  0  0  0  0  0  0  0  0  0  0
   -2.1240    0.9097    0.0000 C   0  0  0  0  0  0  0  0  0  0  0  0
   -2.5593   -0.6790    0.0000 C   0  0  0  0  0  0  0  0  0  0  0  0
   -2.9206    0.6790    0.0000 C   0  0  0  0  0  0  0  0  0  0  0  0
   -3.9652   -0.2655    0.0000 O   0  0  0  0  0  0  0  0  0  0  0  0
   -1.8934    1.7062    0.0000 C   0  0  0  0  0  0  0  0  0  0  0  0
   -4.3047   -1.1665    0.0000 C   0  0  0  0  0  0  0  0  0  0  0  0
   -2.4549    2.2938    0.0000 C   0  0  0  0  0  0  0  0  0  0  0  0
  2  1  1  0  0  0  0
  3  1  2  0  0  0  0
  4  2  1  0  0  0  0
  5  1  1  0  0  0  0
  6 10  1  0  0  0  0
  7  4  2  0  0  0  0
  8  4  1  0  0  0  0
  9  7  1  0  0  0  0
 10  8  2  0  0  0  0
 11  6  1  0  0  0  0
 12  5  1  0  0  0  0
 13 11  1  0  0  0  0
 14 12  1  0  0  0  0
  6  9  2  0  0  0  0
M  END
>  <IDNUMBER>
F0348-2897

>  <Chemical_Name>
ethyl N-(4-methoxyphenyl)carbamate

>  <PriceCoeff>
1.00

>  <MW>
195.22

>  <Description>
solid

>  <FSP3>
0.30

>  <clogP>
2.19

>  <TPSA>
47.56

>  <Acceptor>
3

>  <Donor>
1

>  <RotBonds>
4

>  <HAC>
14

>  <Collection>
General

$$$$
F0348-3117
  Mrv2219 10102508112D          

 20 22  0  0  0  0            999 V2000
    0.7157    0.7877    0.0000 C   0  0  0  0  0  0  0  0  0  0  0  0
    0.7157    1.6227    0.0000 C   0  0  0  0  0  0  0  0  0  0  0  0
    1.4115    0.3777    0.0000 C   0  0  0  0  0  0  0  0  0  0  0  0
    1.4314   -0.4498    0.0000 O   0  0  0  0  0  0  0  0  0  0  0  0
    0.0000    2.0476    0.0000 O   0  0  0  0  0  0  0  0  0  0  0  0
    0.7157   -0.8747    0.0000 C   0  0  0  0  0  0  0  0  0  0  0  0
   -0.7231    1.6525    0.0000 C   0  0  0  0  0  0  0  0  0  0  0  0
    2.1470    1.6227    0.0000 C   0  0  0  0  0  0  0  0  0  0  0  0
    2.1470    0.8026    0.0000 C   0  0  0  0  0  0  0  0  0  0  0  0
    1.4115    2.0402    0.0000 C   0  0  0  0  0  0  0  0  0  0  0  0
    0.0025   -0.4647    0.0000 C   0  0  0  0  0  0  0  0  0  0  0  0
   -0.7355    0.8126    0.0000 C   0  0  0  0  0  0  0  0  0  0  0  0
    0.7157   -1.7097    0.0000 C   0  0  0  0  0  0  0  0  0  0  0  0
   -1.4289    2.0650    0.0000 C   0  0  0  0  0  0  0  0  0  0  0  0
   -0.7132   -0.8747    0.0000 C   0  0  0  0  0  0  0  0  0  0  0  0
    0.0025   -2.1197    0.0000 C   0  0  0  0  0  0  0  0  0  0  0  0
   -1.4388    0.4001    0.0000 C   0  0  0  0  0  0  0  0  0  0  0  0
   -2.1470    1.6525    0.0000 C   0  0  0  0  0  0  0  0  0  0  0  0
   -0.7132   -1.6997    0.0000 C   0  0  0  0  0  0  0  0  0  0  0  0
   -2.1594    0.8325    0.0000 C   0  0  0  0  0  0  0  0  0  0  0  0
  2  1  1  0  0  0  0
  3  1  2  0  0  0  0
  4  3  1  0  0  0  0
  5  2  1  0  0  0  0
  6  4  1  0  0  0  0
  7  5  1  0  0  0  0
  8  9  2  0  0  0  0
  9  3  1  0  0  0  0
 10  2  2  0  0  0  0
 11  6  1  0  0  0  0
 12  7  1  0  0  0  0
 13  6  2  0  0  0  0
 14  7  2  0  0  0  0
 15 11  2  0  0  0  0
 16 13  1  0  0  0  0
 17 12  2  0  0  0  0
 18 14  1  0  0  0  0
 19 16  2  0  0  0  0
 20 18  2  0  0  0  0
 10  8  1  0  0  0  0
 19 15  1  0  0  0  0
 17 20  1  0  0  0  0
M  END
>  <IDNUMBER>
F0348-3117

>  <Chemical_Name>
1,3-diphenoxybenzene

>  <PriceCoeff>
1.00

>  <CAS>
3379-38-2

>  <MW>
262.30

>  <Description>
solid

>  <FSP3>
0.00

>  <clogP>
6.34

>  <TPSA>
18.46

>  <Acceptor>
2

>  <Donor>
0

>  <RotBonds>
4

>  <HAC>
20

>  <Collection>
General

>  <PPDS>
+

$$$$
F0349-0111
  Mrv2219 10102508112D          

 18 18  0  0  0  0            999 V2000
    0.8273   -0.5295    0.0000 C   0  0  0  0  0  0  0  0  0  0  0  0
   -0.8462    2.3401    0.0000 C   0  0  0  0  0  0  0  0  0  0  0  0
   -0.4113    1.6120    0.0000 N   0  0  0  0  0  0  0  0  0  0  0  0
    0.3971    0.1844    0.0000 N   0  0  0  0  0  0  0  0  0  0  0  0
   -0.8178    0.8887    0.0000 C   0  0  0  0  0  0  0  0  0  0  0  0
   -0.4113    0.1844    0.0000 C   0  0  0  0  0  0  0  0  0  0  0  0
    0.3971   -1.2528    0.0000 O   0  0  0  0  0  0  0  0  0  0  0  0
   -0.4349    3.0444    0.0000 O   0  0  0  0  0  0  0  0  0  0  0  0
    1.6451   -0.5295    0.0000 O   0  0  0  0  0  0  0  0  0  0  0  0
   -1.6593    2.3211    0.0000 O   0  0  0  0  0  0  0  0  0  0  0  0
   -1.6593    0.8887    0.0000 C   0  0  0  0  0  0  0  0  0  0  0  0
   -0.8462   -0.5673    0.0000 C   0  0  0  0  0  0  0  0  0  0  0  0
    2.0470   -1.2528    0.0000 C   0  0  0  0  0  0  0  0  0  0  0  0
   -2.0658    1.6120    0.0000 C   0  0  0  0  0  0  0  0  0  0  0  0
    2.8932   -1.2528    0.0000 C   0  0  0  0  0  0  0  0  0  0  0  0
   -2.8884    1.6120    0.0000 C   0  0  0  0  0  0  0  0  0  0  0  0
   -1.6593   -0.5673    0.0000 C   0  0  0  0  0  0  0  0  0  0  0  0
   -2.0658    0.1844    0.0000 C   0  0  0  0  0  0  0  0  0  0  0  0
  2  3  1  0  0  0  0
  3  5  1  0  0  0  0
  4  1  1  0  0  0  0
  5  6  1  0  0  0  0
  6  4  1  0  0  0  0
  7  1  2  0  0  0  0
  8  2  2  0  0  0  0
  9  1  1  0  0  0  0
 10  2  1  0  0  0  0
 11  5  2  0  0  0  0
 12  6  2  0  0  0  0
 13  9  1  0  0  0  0
 14 10  1  0  0  0  0
 15 13  1  0  0  0  0
 16 14  1  0  0  0  0
 17 12  1  0  0  0  0
 18 17  2  0  0  0  0
 18 11  1  0  0  0  0
M  END
>  <IDNUMBER>
F0349-0111

>  <Chemical_Name>
ethyl N-{2-[(ethoxycarbonyl)amino]phenyl}carbamate

>  <PriceCoeff>
1.00

>  <CAS>
6324-13-6

>  <MW>
252.27

>  <Description>
solid

>  <FSP3>
0.33

>  <clogP>
2.14

>  <TPSA>
76.66

>  <Acceptor>
4

>  <Donor>
2

>  <RotBonds>
6

>  <HAC>
18

>  <Collection>
General

>  <PPDS>
+

$$$$
F0349-0205
  Mrv2219 10102508112D          

 20 21  0  0  0  0            999 V2000
   -0.8959    1.0872    0.0000 N   0  0  0  0  0  0  0  0  0  0  0  0
   -0.0933    1.3811    0.0000 C   0  0  0  0  0  0  0  0  0  0  0  0
   -1.5258    1.6471    0.0000 C   0  0  0  0  0  0  0  0  0  0  0  0
    0.5039    0.8399    0.0000 N   0  0  0  0  0  0  0  0  0  0  0  0
    1.2878    1.1152    0.0000 C   0  0  0  0  0  0  0  0  0  0  0  0
    0.0560    2.1930    0.0000 S   0  0  0  0  0  0  0  0  0  0  0  0
   -1.3671    2.4777    0.0000 O   0  0  0  0  0  0  0  0  0  0  0  0
   -2.3330    1.3578    0.0000 C   0  0  0  0  0  0  0  0  0  0  0  0
    1.4558    1.9178    0.0000 C   0  0  0  0  0  0  0  0  0  0  0  0
    1.9038    0.5739    0.0000 C   0  0  0  0  0  0  0  0  0  0  0  0
    1.0639    2.5010    0.0000 C   0  0  0  0  0  0  0  0  0  0  0  0
   -2.9816    1.8991    0.0000 C   0  0  0  0  0  0  0  0  0  0  0  0
   -2.4870    0.5552    0.0000 C   0  0  0  0  0  0  0  0  0  0  0  0
    2.2397    2.1977    0.0000 C   0  0  0  0  0  0  0  0  0  0  0  0
    1.6798    3.0376    0.0000 C   0  0  0  0  0  0  0  0  0  0  0  0
    2.6877    0.8539    0.0000 C   0  0  0  0  0  0  0  0  0  0  0  0
    2.8557    1.6611    0.0000 C   0  0  0  0  0  0  0  0  0  0  0  0
   -3.7655    1.6051    0.0000 C   0  0  0  0  0  0  0  0  0  0  0  0
   -3.2709    0.2613    0.0000 C   0  0  0  0  0  0  0  0  0  0  0  0
   -3.9008    0.7792    0.0000 C   0  0  0  0  0  0  0  0  0  0  0  0
  2  1  1  0  0  0  0
  3  1  1  0  0  0  0
  4  2  1  0  0  0  0
  5  4  1  0  0  0  0
  6  2  2  0  0  0  0
  7  3  2  0  0  0  0
  8  3  1  0  0  0  0
  9  5  1  0  0  0  0
 10  5  2  0  0  0  0
 11  9  1  0  0  0  0
 12  8  2  0  0  0  0
 13  8  1  0  0  0  0
 14  9  2  0  0  0  0
 15 11  1  0  0  0  0
 16 10  1  0  0  0  0
 17 16  2  0  0  0  0
 18 12  1  0  0  0  0
 19 13  2  0  0  0  0
 20 19  1  0  0  0  0
 18 20  2  0  0  0  0
 14 17  1  0  0  0  0
M  END
>  <IDNUMBER>
F0349-0205

>  <Chemical_Name>
1-benzoyl-3-(2-ethylphenyl)thiourea

>  <PriceCoeff>
1.00

>  <CAS>
88884-36-0

>  <MW>
284.38

>  <Description>
solid

>  <FSP3>
0.12

>  <clogP>
3.03

>  <TPSA>
73.22

>  <Acceptor>
2

>  <Donor>
2

>  <RotBonds>
3

>  <HAC>
20

>  <Collection>
General

>  <PPDS>
+

$$$$
F0349-0376
  Mrv2219 10102508112D          

 23 24  0  0  0  0            999 V2000
   -2.1361   -0.0028    0.0000 C   0  0  0  0  0  0  0  0  0  0  0  0
   -2.1361    0.7605    0.0000 C   0  0  0  0  0  0  0  0  0  0  0  0
   -1.4651   -0.4026    0.0000 N   0  0  0  0  0  0  0  0  0  0  0  0
   -0.8024   -0.0028    0.0000 N   0  0  0  0  0  0  0  0  0  0  0  0
   -0.8024    0.7605    0.0000 C   0  0  0  0  0  0  0  0  0  0  0  0
   -2.7987   -0.4026    0.0000 N   0  3  0  0  0  0  0  0  0  0  0  0
   -0.0894   -0.4362    0.0000 C   0  0  0  0  0  0  0  0  0  0  0  0
    0.6375   -0.0336    0.0000 C   0  0  0  0  0  0  0  0  0  0  0  0
    1.3281   -0.4697    0.0000 N   0  0  0  0  0  0  0  0  0  0  0  0
    2.0495   -0.0699    0.0000 C   0  0  0  0  0  0  0  0  0  0  0  0
    2.0495    0.7381    0.0000 C   0  0  0  0  0  0  0  0  0  0  0  0
   -3.4530   -0.0028    0.0000 O   0  5  0  0  0  0  0  0  0  0  0  0
    2.8044    1.1379    0.0000 C   0  0  0  0  0  0  0  0  0  0  0  0
   -2.7987   -1.1603    0.0000 O   0  0  0  0  0  0  0  0  0  0  0  0
   -2.8491    1.1715    0.0000 Br  0  0  0  0  0  0  0  0  0  0  0  0
    0.6235    0.8024    0.0000 O   0  0  0  0  0  0  0  0  0  0  0  0
    2.7512   -0.5145    0.0000 C   0  0  0  0  0  0  0  0  0  0  0  0
    3.5090    0.6934    0.0000 C   0  0  0  0  0  0  0  0  0  0  0  0
   -0.0894    1.1715    0.0000 C   0  0  0  0  0  0  0  0  0  0  0  0
    3.5090   -0.1007    0.0000 C   0  0  0  0  0  0  0  0  0  0  0  0
    1.3421    1.1408    0.0000 O   0  0  0  0  0  0  0  0  0  0  0  0
    4.2471    1.0624    0.0000 Cl  0  0  0  0  0  0  0  0  0  0  0  0
    1.3421    1.9544    0.0000 C   0  0  0  0  0  0  0  0  0  0  0  0
  2  1  1  0  0  0  0
  3  1  2  0  0  0  0
  4  3  1  0  0  0  0
  5  2  2  0  0  0  0
  6  1  1  0  0  0  0
  7  4  1  0  0  0  0
  8  7  1  0  0  0  0
  9  8  1  0  0  0  0
 10  9  1  0  0  0  0
 11 10  1  0  0  0  0
 12  6  1  0  0  0  0
 13 11  2  0  0  0  0
 14  6  2  0  0  0  0
 15  2  1  0  0  0  0
 16  8  2  0  0  0  0
 17 10  2  0  0  0  0
 18 20  2  0  0  0  0
 19  5  1  0  0  0  0
 20 17  1  0  0  0  0
 21 11  1  0  0  0  0
 22 18  1  0  0  0  0
 23 21  1  0  0  0  0
  5  4  1  0  0  0  0
 13 18  1  0  0  0  0
M  CHG  2   6   1  12  -1
M  END
>  <IDNUMBER>
F0349-0376

>  <Chemical_Name>
2-(4-bromo-5-methyl-3-nitro-1H-pyrazol-1-yl)-N-(4-chloro-2-methoxyphenyl)acetamide

>  <PriceCoeff>
1.00

>  <CAS>
353455-46-6

>  <MW>
403.62

>  <Description>
solid

>  <FSP3>
0.23

>  <clogP>
2.50

>  <TPSA>
99.29

>  <Acceptor>
5

>  <Donor>
1

>  <RotBonds>
5

>  <HAC>
23

>  <Collection>
General

>  <PPDS>
+

$$$$
F0349-0676
  Mrv2219 10102508112D          

 20 22  0  0  0  0            999 V2000
    2.1145    0.1315    0.0000 C   0  0  0  0  0  0  0  0  0  0  0  0
    0.0521    0.8299    0.0000 C   0  0  0  0  0  0  0  0  0  0  0  0
    1.3011    0.1315    0.0000 C   0  0  0  0  0  0  0  0  0  0  0  0
    0.8902    0.8299    0.0000 N   0  0  0  0  0  0  0  0  0  0  0  0
   -0.3944    1.5010    0.0000 N   0  0  0  0  0  0  0  0  0  0  0  0
    3.3197   -0.3944    0.0000 N   0  0  0  0  0  0  0  0  0  0  0  0
    2.5309   -0.5780    0.0000 N   0  0  0  0  0  0  0  0  0  0  0  0
   -0.3944    0.1616    0.0000 S   0  0  0  0  0  0  0  0  0  0  0  0
    2.6651    0.7313    0.0000 C   0  0  0  0  0  0  0  0  0  0  0  0
   -1.1915    0.3944    0.0000 C   0  0  0  0  0  0  0  0  0  0  0  0
    3.4183    0.3944    0.0000 C   0  0  0  0  0  0  0  0  0  0  0  0
   -1.1915    1.2380    0.0000 C   0  0  0  0  0  0  0  0  0  0  0  0
   -1.9064   -0.0028    0.0000 C   0  0  0  0  0  0  0  0  0  0  0  0
    0.8902   -0.5780    0.0000 O   0  0  0  0  0  0  0  0  0  0  0  0
   -1.9064    1.6434    0.0000 C   0  0  0  0  0  0  0  0  0  0  0  0
    2.5090    1.5420    0.0000 Br  0  0  0  0  0  0  0  0  0  0  0  0
   -2.6295    0.3944    0.0000 C   0  0  0  0  0  0  0  0  0  0  0  0
   -2.6295    1.2380    0.0000 C   0  0  0  0  0  0  0  0  0  0  0  0
   -3.3416   -0.0110    0.0000 Br  0  0  0  0  0  0  0  0  0  0  0  0
    2.1885   -1.3476    0.0000 C   0  0  0  0  0  0  0  0  0  0  0  0
  2  4  1  0  0  0  0
  3  1  1  0  0  0  0
  4  3  1  0  0  0  0
  5  2  2  0  0  0  0
  6  7  1  0  0  0  0
  7  1  1  0  0  0  0
  8  2  1  0  0  0  0
  9  1  2  0  0  0  0
 10  8  1  0  0  0  0
 11  9  1  0  0  0  0
 12  5  1  0  0  0  0
 13 10  1  0  0  0  0
 14  3  2  0  0  0  0
 15 12  1  0  0  0  0
 16  9  1  0  0  0  0
 17 13  2  0  0  0  0
 18 15  2  0  0  0  0
 19 17  1  0  0  0  0
 20  7  1  0  0  0  0
 11  6  2  0  0  0  0
 12 10  2  0  0  0  0
 18 17  1  0  0  0  0
M  END
>  <IDNUMBER>
F0349-0676

>  <Chemical_Name>
4-bromo-N-(6-bromo-1,3-benzothiazol-2-yl)-1-methyl-1H-pyrazole-5-carboxamide

>  <PriceCoeff>
1.00

>  <MW>
416.09

>  <Description>
solid

>  <FSP3>
0.08

>  <clogP>
2.55

>  <TPSA>
88.05

>  <Acceptor>
3

>  <Donor>
1

>  <RotBonds>
2

>  <HAC>
20

>  <Collection>
General

$$$$
F0349-4092
  Mrv2219 10102508112D          

 19 19  0  0  0  0            999 V2000
    0.2759    0.8277    0.0000 C   0  0  0  0  0  0  0  0  0  0  0  0
    0.2759    1.6553    0.0000 C   0  0  0  0  0  0  0  0  0  0  0  0
   -0.4253    0.4099    0.0000 C   0  0  0  0  0  0  0  0  0  0  0  0
   -0.4253    2.0882    0.0000 C   0  0  0  0  0  0  0  0  0  0  0  0
   -1.1456    0.8123    0.0000 C   0  0  0  0  0  0  0  0  0  0  0  0
   -1.1610    1.6399    0.0000 C   0  0  0  0  0  0  0  0  0  0  0  0
    1.0116    0.4099    0.0000 C   0  0  0  0  0  0  0  0  0  0  0  0
    1.7012   -1.6553    0.0000 C   0  0  0  0  0  0  0  0  0  0  0  0
    2.4178   -2.0690    0.0000 O   0  0  0  0  0  0  0  0  0  0  0  0
    1.7166    0.8123    0.0000 O   0  0  0  0  0  0  0  0  0  0  0  0
    1.0116   -0.4138    0.0000 C   0  0  0  0  0  0  0  0  0  0  0  0
    1.7012   -0.8277    0.0000 C   0  0  0  0  0  0  0  0  0  0  0  0
    0.9695    2.0690    0.0000 O   0  0  0  0  0  0  0  0  0  0  0  0
    0.9810   -2.0499    0.0000 O   0  0  0  0  0  0  0  0  0  0  0  0
   -1.8392    0.3869    0.0000 O   0  0  0  0  0  0  0  0  0  0  0  0
   -1.8851    2.0077    0.0000 O   0  0  0  0  0  0  0  0  0  0  0  0
    1.7012    1.6553    0.0000 C   0  0  0  0  0  0  0  0  0  0  0  0
   -1.9158    2.8239    0.0000 C   0  0  0  0  0  0  0  0  0  0  0  0
   -2.5710    0.7932    0.0000 C   0  0  0  0  0  0  0  0  0  0  0  0
  2  1  2  0  0  0  0
  3  1  1  0  0  0  0
  4  2  1  0  0  0  0
  5  3  2  0  0  0  0
  6  5  1  0  0  0  0
  7  1  1  0  0  0  0
  8 12  1  0  0  0  0
  9  8  2  0  0  0  0
 10  7  2  0  0  0  0
 11  7  1  0  0  0  0
 12 11  1  0  0  0  0
 13  2  1  0  0  0  0
 14  8  1  0  0  0  0
 15  5  1  0  0  0  0
 16  6  1  0  0  0  0
 17 13  1  0  0  0  0
 18 16  1  0  0  0  0
 19 15  1  0  0  0  0
  6  4  2  0  0  0  0
M  END
>  <IDNUMBER>
F0349-4092

>  <Chemical_Name>
4-oxo-4-(2,4,5-trimethoxyphenyl)butanoic acid

>  <PriceCoeff>
1.00

>  <CAS>
31914-19-9

>  <MW>
268.26

>  <Description>
solid

>  <FSP3>
0.38

>  <clogP>
0.88

>  <TPSA>
82.06

>  <Acceptor>
6

>  <Donor>
0

>  <RotBonds>
7

>  <HAC>
19

>  <Collection>
General

>  <PPDS>
+

$$$$
F0349-4134
  Mrv2219 10102508112D          

 15 17  0  0  0  0            999 V2000
   -1.8691    0.7824    0.0000 C   0  0  0  0  0  0  0  0  0  0  0  0
   -2.3581    1.4634    0.0000 N   0  0  0  0  0  0  0  0  0  0  0  0
   -2.3581    0.1159    0.0000 N   0  0  0  0  0  0  0  0  0  0  0  0
   -1.1591    0.7824    0.0000 C   0  0  0  0  0  0  0  0  0  0  0  0
   -3.1405    1.1917    0.0000 C   0  0  0  0  0  0  0  0  0  0  0  0
   -3.1405    0.3767    0.0000 C   0  0  0  0  0  0  0  0  0  0  0  0
    0.0869    1.4960    0.0000 N   0  0  0  0  0  0  0  0  0  0  0  0
   -0.7353    1.4960    0.0000 C   0  0  0  0  0  0  0  0  0  0  0  0
   -0.7498    0.0724    0.0000 C   0  0  0  0  0  0  0  0  0  0  0  0
   -3.8541    1.6083    0.0000 C   0  0  0  0  0  0  0  0  0  0  0  0
   -3.8541   -0.0435    0.0000 C   0  0  0  0  0  0  0  0  0  0  0  0
    0.4781    0.7824    0.0000 C   0  0  0  0  0  0  0  0  0  0  0  0
    0.0580    0.0724    0.0000 C   0  0  0  0  0  0  0  0  0  0  0  0
   -4.5822    0.3767    0.0000 C   0  0  0  0  0  0  0  0  0  0  0  0
   -4.5822    1.1917    0.0000 C   0  0  0  0  0  0  0  0  0  0  0  0
  2  1  2  0  0  0  0
  3  1  1  0  0  0  0
  4  1  1  0  0  0  0
  5  2  1  0  0  0  0
  6  3  1  0  0  0  0
  7  8  2  0  0  0  0
  8  4  1  0  0  0  0
  9  4  2  0  0  0  0
 10  5  1  0  0  0  0
 11  6  1  0  0  0  0
 12 13  2  0  0  0  0
 13  9  1  0  0  0  0
 14 11  2  0  0  0  0
 15 10  2  0  0  0  0
  5  6  2  0  0  0  0
 12  7  1  0  0  0  0
 14 15  1  0  0  0  0
M  END
>  <IDNUMBER>
F0349-4134

>  <Chemical_Name>
2-(pyridin-3-yl)-1H-1,3-benzodiazole

>  <PriceCoeff>
1.00

>  <CAS>
1137-67-3

>  <MW>
195.22

>  <Description>
solid

>  <FSP3>
0.00

>  <clogP>
2.07

>  <TPSA>
41.57

>  <Acceptor>
3

>  <Donor>
3

>  <RotBonds>
1

>  <HAC>
15

>  <Collection>
General

>  <PPDS>
+

$$$$
F0349-4255
  Mrv2219 10102508112D          

 17 19  0  0  0  0            999 V2000
   -0.0203    0.4271    0.0000 C   0  0  0  0  0  0  0  0  0  0  0  0
    0.6890    0.0279    0.0000 C   0  0  0  0  0  0  0  0  0  0  0  0
   -0.7322    0.0279    0.0000 C   0  0  0  0  0  0  0  0  0  0  0  0
    0.6890   -0.8034    0.0000 C   0  0  0  0  0  0  0  0  0  0  0  0
   -0.7322   -0.8034    0.0000 C   0  0  0  0  0  0  0  0  0  0  0  0
   -0.0203   -1.2204    0.0000 O   0  0  0  0  0  0  0  0  0  0  0  0
   -1.4237   -1.2204    0.0000 C   0  0  0  0  0  0  0  0  0  0  0  0
    1.4034   -1.2204    0.0000 C   0  0  0  0  0  0  0  0  0  0  0  0
   -1.4237    0.4271    0.0000 C   0  0  0  0  0  0  0  0  0  0  0  0
    1.4034    0.4271    0.0000 C   0  0  0  0  0  0  0  0  0  0  0  0
   -0.0203    1.2483    0.0000 O   0  0  0  0  0  0  0  0  0  0  0  0
   -2.1356   -0.8034    0.0000 C   0  0  0  0  0  0  0  0  0  0  0  0
    2.1153   -0.8034    0.0000 C   0  0  0  0  0  0  0  0  0  0  0  0
    2.1153    0.0279    0.0000 C   0  0  0  0  0  0  0  0  0  0  0  0
   -2.1356    0.0279    0.0000 C   0  0  0  0  0  0  0  0  0  0  0  0
    2.8373   -1.2382    0.0000 O   0  0  0  0  0  0  0  0  0  0  0  0
   -2.8500   -1.2382    0.0000 O   0  0  0  0  0  0  0  0  0  0  0  0
  2  1  1  0  0  0  0
  3  1  1  0  0  0  0
  4  2  2  0  0  0  0
  5  3  2  0  0  0  0
  6  5  1  0  0  0  0
  7  5  1  0  0  0  0
  8  4  1  0  0  0  0
  9  3  1  0  0  0  0
 10  2  1  0  0  0  0
 11  1  2  0  0  0  0
 12 15  1  0  0  0  0
 13 14  1  0  0  0  0
 14 10  2  0  0  0  0
 15  9  2  0  0  0  0
 16 13  1  0  0  0  0
 17 12  1  0  0  0  0
  6  4  1  0  0  0  0
  7 12  2  0  0  0  0
  8 13  2  0  0  0  0
M  END
>  <IDNUMBER>
F0349-4255

>  <Chemical_Name>
3,6-dihydroxy-9H-xanthen-9-one

>  <PriceCoeff>
1.00

>  <CAS>
1214-24-0

>  <MW>
228.20

>  <Description>
solid

>  <FSP3>
0.00

>  <clogP>
2.35

>  <TPSA>
66.76

>  <Acceptor>
4

>  <Donor>
2

>  <RotBonds>
0

>  <HAC>
17

>  <Collection>
General

>  <PPDS>
+

$$$$
F0359-0020
  Mrv2219 10102508112D          

 32 34  0  0  0  0            999 V2000
   -1.4942    2.1666    0.0000 C   0  0  0  0  0  0  0  0  0  0  0  0
   -1.6322    2.9942    0.0000 C   0  0  0  0  0  0  0  0  0  0  0  0
   -2.4310    3.1322    0.0000 C   0  0  0  0  0  0  0  0  0  0  0  0
   -2.8218    2.4138    0.0000 C   0  0  0  0  0  0  0  0  0  0  0  0
   -2.2700    1.8104    0.0000 S   0  0  0  0  0  0  0  0  0  0  0  0
    2.5230   -0.0403    0.0000 N   0  0  0  0  0  0  0  0  0  0  0  0
   -0.7183    1.8621    0.0000 N   0  0  0  0  0  0  0  0  0  0  0  0
   -0.5805    1.0632    0.0000 C   0  0  0  0  0  0  0  0  0  0  0  0
    2.7817   -0.8678    0.0000 C   0  0  0  0  0  0  0  0  0  0  0  0
    3.1955    0.4138    0.0000 C   0  0  0  0  0  0  0  0  0  0  0  0
   -1.0517    3.5804    0.0000 C   0  0  0  0  0  0  0  0  0  0  0  0
   -3.6494    2.3620    0.0000 C   0  0  0  0  0  0  0  0  0  0  0  0
    1.7472    0.2242    0.0000 C   0  0  0  0  0  0  0  0  0  0  0  0
    0.1897    0.7873    0.0000 C   0  0  0  0  0  0  0  0  0  0  0  0
   -1.2183    0.5460    0.0000 O   0  0  0  0  0  0  0  0  0  0  0  0
    3.8679   -0.0403    0.0000 C   0  0  0  0  0  0  0  0  0  0  0  0
    3.6092   -0.8333    0.0000 C   0  0  0  0  0  0  0  0  0  0  0  0
    3.4023    1.1666    0.0000 O   0  0  0  0  0  0  0  0  0  0  0  0
    2.5748   -1.5575    0.0000 O   0  0  0  0  0  0  0  0  0  0  0  0
   -1.2414    4.3449    0.0000 O   0  0  0  0  0  0  0  0  0  0  0  0
   -4.0000    1.6149    0.0000 O   0  0  0  0  0  0  0  0  0  0  0  0
    1.1034   -0.2989    0.0000 C   0  0  0  0  0  0  0  0  0  0  0  0
    1.5920    1.0345    0.0000 C   0  0  0  0  0  0  0  0  0  0  0  0
    0.3162   -0.0230    0.0000 C   0  0  0  0  0  0  0  0  0  0  0  0
    0.8275    1.3103    0.0000 C   0  0  0  0  0  0  0  0  0  0  0  0
   -2.8218    3.8793    0.0000 C   0  0  0  0  0  0  0  0  0  0  0  0
   -0.2528    3.3275    0.0000 O   0  0  0  0  0  0  0  0  0  0  0  0
   -4.0862    3.0287    0.0000 O   0  0  0  0  0  0  0  0  0  0  0  0
    0.3276    3.9080    0.0000 C   0  0  0  0  0  0  0  0  0  0  0  0
   -3.7241    3.7701    0.0000 C   0  0  0  0  0  0  0  0  0  0  0  0
   -4.2011    4.4598    0.0000 C   0  0  0  0  0  0  0  0  0  0  0  0
    1.1034    3.6838    0.0000 C   0  0  0  0  0  0  0  0  0  0  0  0
  2  1  2  0  0  0  0
  3  2  1  0  0  0  0
  4  5  1  0  0  0  0
  5  1  1  0  0  0  0
  6 13  1  0  0  0  0
  7  1  1  0  0  0  0
  8  7  1  0  0  0  0
  9  6  1  0  0  0  0
 10  6  1  0  0  0  0
 11  2  1  0  0  0  0
 12  4  1  0  0  0  0
 13 23  2  0  0  0  0
 14  8  1  0  0  0  0
 15  8  2  0  0  0  0
 16 10  1  0  0  0  0
 17  9  1  0  0  0  0
 18 10  2  0  0  0  0
 19  9  2  0  0  0  0
 20 11  2  0  0  0  0
 21 12  2  0  0  0  0
 22 24  2  0  0  0  0
 23 25  1  0  0  0  0
 24 14  1  0  0  0  0
 25 14  2  0  0  0  0
 26  3  1  0  0  0  0
 27 11  1  0  0  0  0
 28 12  1  0  0  0  0
 29 27  1  0  0  0  0
 30 28  1  0  0  0  0
 31 30  1  0  0  0  0
 32 29  1  0  0  0  0
  3  4  2  0  0  0  0
 22 13  1  0  0  0  0
 17 16  1  0  0  0  0
M  END
>  <IDNUMBER>
F0359-0020

>  <Chemical_Name>
2,4-diethyl 5-[4-(2,5-dioxopyrrolidin-1-yl)benzamido]-3-methylthiophene-2,4-dicarboxylate

>  <PriceCoeff>
1.00

>  <CAS>
328027-84-5

>  <MW>
458.48

>  <Description>
solid

>  <FSP3>
0.32

>  <clogP>
2.62

>  <TPSA>
147.32

>  <Acceptor>
7

>  <Donor>
1

>  <RotBonds>
9

>  <HAC>
32

>  <Collection>
General

>  <PPDS>
+

$$$$
F0371-0005
  Mrv2219 10102508112D          

 24 26  0  0  0  0            999 V2000
   -0.1246    1.3397    0.0000 C   0  0  0  0  0  0  0  0  0  0  0  0
   -0.6193    0.6660    0.0000 N   0  0  0  0  0  0  0  0  0  0  0  0
    0.7050    1.3397    0.0000 N   0  0  0  0  0  0  0  0  0  0  0  0
   -0.4050   -0.1441    0.0000 C   0  0  0  0  0  0  0  0  0  0  0  0
    1.1100    2.0525    0.0000 C   0  0  0  0  0  0  0  0  0  0  0  0
   -0.6076    1.9941    0.0000 S   0  0  0  0  0  0  0  0  0  0  0  0
   -1.3982    0.9308    0.0000 C   0  0  0  0  0  0  0  0  0  0  0  0
   -1.0126   -0.7284    0.0000 C   0  0  0  0  0  0  0  0  0  0  0  0
    0.6816    2.7652    0.0000 N   0  0  0  0  0  0  0  0  0  0  0  0
    0.3739   -0.3739    0.0000 C   0  0  0  0  0  0  0  0  0  0  0  0
   -1.3865    1.7293    0.0000 C   0  0  0  0  0  0  0  0  0  0  0  0
    1.9318    2.0642    0.0000 O   0  0  0  0  0  0  0  0  0  0  0  0
   -0.7905   -1.5229    0.0000 C   0  0  0  0  0  0  0  0  0  0  0  0
   -2.0681    0.4207    0.0000 O   0  0  0  0  0  0  0  0  0  0  0  0
    0.5765   -1.1567    0.0000 C   0  0  0  0  0  0  0  0  0  0  0  0
    0.0039   -1.7293    0.0000 C   0  0  0  0  0  0  0  0  0  0  0  0
    1.0788    3.4779    0.0000 C   0  0  0  0  0  0  0  0  0  0  0  0
   -1.8188   -0.5141    0.0000 C   0  0  0  0  0  0  0  0  0  0  0  0
    0.2337   -2.5393    0.0000 C   0  0  0  0  0  0  0  0  0  0  0  0
    0.6543    4.1868    0.0000 C   0  0  0  0  0  0  0  0  0  0  0  0
    1.9162    3.5052    0.0000 C   0  0  0  0  0  0  0  0  0  0  0  0
    2.3173    4.2335    0.0000 C   0  0  0  0  0  0  0  0  0  0  0  0
    1.0555    4.9073    0.0000 C   0  0  0  0  0  0  0  0  0  0  0  0
    1.8851    4.9346    0.0000 C   0  0  0  0  0  0  0  0  0  0  0  0
  2  1  1  0  0  0  0
  3  1  2  0  0  0  0
  4  2  1  0  0  0  0
  5  3  1  0  0  0  0
  6  1  1  0  0  0  0
  7  2  1  0  0  0  0
  8  4  1  0  0  0  0
  9  5  1  0  0  0  0
 10  4  2  0  0  0  0
 11  6  1  0  0  0  0
 12  5  2  0  0  0  0
 13  8  2  0  0  0  0
 14  7  2  0  0  0  0
 15 10  1  0  0  0  0
 16 15  2  0  0  0  0
 17  9  1  0  0  0  0
 18  8  1  0  0  0  0
 19 16  1  0  0  0  0
 20 17  2  0  0  0  0
 21 17  1  0  0  0  0
 22 21  2  0  0  0  0
 23 20  1  0  0  0  0
 24 22  1  0  0  0  0
 11  7  1  0  0  0  0
 13 16  1  0  0  0  0
 24 23  2  0  0  0  0
M  END
>  <IDNUMBER>
F0371-0005

>  <Chemical_Name>
3-[(2Z)-3-(2,4-dimethylphenyl)-4-oxo-1,3-thiazolidin-2-ylidene]-1-phenylurea

>  <PriceCoeff>
1.00

>  <CAS>
326014-15-7

>  <MW>
339.41

>  <Description>
solid

>  <FSP3>
0.17

>  <clogP>
3.92

>  <TPSA>
87.07

>  <Acceptor>
3

>  <Donor>
1

>  <RotBonds>
3

>  <HAC>
24

>  <Collection>
General

>  <PPDS>
+

$$$$
F0371-0083
  Mrv2219 10102508112D          

 25 26  0  0  0  0            999 V2000
    0.8425    0.8599    0.0000 C   0  0  0  0  0  0  0  0  0  0  0  0
   -1.2396    0.1702    0.0000 C   0  0  0  0  0  0  0  0  0  0  0  0
    1.2615    0.1527    0.0000 N   0  3  0  0  0  0  0  0  0  0  0  0
   -1.6369   -0.5544    0.0000 N   0  0  0  0  0  0  0  0  0  0  0  0
   -1.6238    0.8730    0.0000 N   0  0  0  0  0  0  0  0  0  0  0  0
    1.2615    3.0206    0.0000 N   0  3  0  0  0  0  0  0  0  0  0  0
   -2.8940    0.1527    0.0000 N   0  0  0  0  0  0  0  0  0  0  0  0
   -2.4619   -0.5544    0.0000 C   0  0  0  0  0  0  0  0  0  0  0  0
   -2.4837    0.8599    0.0000 C   0  0  0  0  0  0  0  0  0  0  0  0
    1.2571    1.5714    0.0000 C   0  0  0  0  0  0  0  0  0  0  0  0
    0.0175    0.8599    0.0000 C   0  0  0  0  0  0  0  0  0  0  0  0
    0.8381    2.3004    0.0000 C   0  0  0  0  0  0  0  0  0  0  0  0
   -0.4016    0.1702    0.0000 S   0  0  0  0  0  0  0  0  0  0  0  0
    0.8425   -0.5544    0.0000 O   0  5  0  0  0  0  0  0  0  0  0  0
    2.0734    3.0206    0.0000 O   0  5  0  0  0  0  0  0  0  0  0  0
    2.0821    0.1527    0.0000 O   0  0  0  0  0  0  0  0  0  0  0  0
    0.8425    3.7408    0.0000 O   0  0  0  0  0  0  0  0  0  0  0  0
   -0.4016    1.5714    0.0000 C   0  0  0  0  0  0  0  0  0  0  0  0
    0.0000    2.2742    0.0000 C   0  0  0  0  0  0  0  0  0  0  0  0
   -2.8940   -1.2615    0.0000 N   0  0  0  0  0  0  0  0  0  0  0  0
   -2.9333    1.5539    0.0000 N   0  0  0  0  0  0  0  0  0  0  0  0
   -2.4968   -2.0080    0.0000 C   0  0  0  0  0  0  0  0  0  0  0  0
   -3.7539    1.5016    0.0000 C   0  0  0  0  0  0  0  0  0  0  0  0
   -2.9158   -2.7020    0.0000 C   0  0  0  0  0  0  0  0  0  0  0  0
   -4.1861    2.1825    0.0000 C   0  0  0  0  0  0  0  0  0  0  0  0
  2 13  1  0  0  0  0
  3  1  1  0  0  0  0
  4  2  2  0  0  0  0
  5  2  1  0  0  0  0
  6 12  1  0  0  0  0
  7  9  1  0  0  0  0
  8  4  1  0  0  0  0
  9  5  2  0  0  0  0
 10  1  2  0  0  0  0
 11  1  1  0  0  0  0
 12 10  1  0  0  0  0
 13 11  1  0  0  0  0
 14  3  1  0  0  0  0
 15  6  1  0  0  0  0
 16  3  2  0  0  0  0
 17  6  2  0  0  0  0
 18 11  2  0  0  0  0
 19 18  1  0  0  0  0
 20  8  1  0  0  0  0
 21  9  1  0  0  0  0
 22 20  1  0  0  0  0
 23 21  1  0  0  0  0
 24 22  1  0  0  0  0
 25 23  1  0  0  0  0
 12 19  2  0  0  0  0
  7  8  2  0  0  0  0
M  CHG  4   3   1   6   1  14  -1  15  -1
M  END
>  <IDNUMBER>
F0371-0083

>  <Chemical_Name>
6-[(2,4-dinitrophenyl)sulfanyl]-N2,N4-diethyl-1,3,5-triazine-2,4-diamine

>  <PriceCoeff>
1.00

>  <CAS>
325994-34-1

>  <MW>
365.37

>  <Description>
solid

>  <FSP3>
0.31

>  <clogP>
4.16

>  <TPSA>
174.31

>  <Acceptor>
7

>  <Donor>
2

>  <RotBonds>
8

>  <HAC>
25

>  <Collection>
General

>  <PPDS>
+

$$$$
F0373-0001
  Mrv2219 10102508112D          

 13 14  0  0  0  0            999 V2000
    0.0286   -0.3431    0.0000 C   0  0  0  0  0  0  0  0  0  0  0  0
    0.0286    0.4817    0.0000 C   0  0  0  0  0  0  0  0  0  0  0  0
   -0.6840   -0.7654    0.0000 N   0  0  0  0  0  0  0  0  0  0  0  0
    0.8182   -0.6070    0.0000 N   0  0  0  0  0  0  0  0  0  0  0  0
   -1.4054   -0.3431    0.0000 C   0  0  0  0  0  0  0  0  0  0  0  0
   -1.4054    0.4817    0.0000 N   0  0  0  0  0  0  0  0  0  0  0  0
   -0.6840    0.8974    0.0000 C   0  0  0  0  0  0  0  0  0  0  0  0
    1.2889    0.0704    0.0000 C   0  0  0  0  0  0  0  0  0  0  0  0
    0.8182    0.7390    0.0000 N   0  0  0  0  0  0  0  0  0  0  0  0
   -2.1379   -0.7654    0.0000 O   0  0  0  0  0  0  0  0  0  0  0  0
   -0.6840    1.7265    0.0000 O   0  0  0  0  0  0  0  0  0  0  0  0
    2.1203    0.0704    0.0000 Br  0  0  0  0  0  0  0  0  0  0  0  0
   -0.6840   -1.5858    0.0000 C   0  0  0  0  0  0  0  0  0  0  0  0
  2  1  2  0  0  0  0
  3  1  1  0  0  0  0
  4  1  1  0  0  0  0
  5  3  1  0  0  0  0
  6  5  1  0  0  0  0
  7  2  1  0  0  0  0
  8  4  2  0  0  0  0
  9  2  1  0  0  0  0
 10  5  2  0  0  0  0
 11  7  2  0  0  0  0
 12  8  1  0  0  0  0
 13  3  1  0  0  0  0
  8  9  1  0  0  0  0
  7  6  1  0  0  0  0
M  END
>  <IDNUMBER>
F0373-0001

>  <Chemical_Name>
8-bromo-3-methyl-2,3,6,7-tetrahydro-1H-purine-2,6-dione

>  <PriceCoeff>
1.00

>  <CAS>
93703-24-3

>  <MW>
245.04

>  <Description>
solid

>  <FSP3>
0.17

>  <clogP>
-0.29

>  <TPSA>
78.09

>  <Acceptor>
4

>  <Donor>
3

>  <RotBonds>
0

>  <HAC>
13

>  <Collection>
General

>  <PPDS>
+

$$$$
F0373-0004
  Mrv2219 10102508112D          

 16 17  0  0  0  0            999 V2000
   -0.0284   -0.5714    0.0000 C   0  0  0  0  0  0  0  0  0  0  0  0
   -0.0284    0.2465    0.0000 C   0  0  0  0  0  0  0  0  0  0  0  0
    0.7492   -0.8250    0.0000 N   0  0  0  0  0  0  0  0  0  0  0  0
   -0.7397   -0.9839    0.0000 N   0  0  0  0  0  0  0  0  0  0  0  0
    1.2233   -0.1518    0.0000 C   0  0  0  0  0  0  0  0  0  0  0  0
   -0.7397    0.6543    0.0000 C   0  0  0  0  0  0  0  0  0  0  0  0
   -1.4580   -0.5690    0.0000 C   0  0  0  0  0  0  0  0  0  0  0  0
    0.7492    0.4955    0.0000 N   0  0  0  0  0  0  0  0  0  0  0  0
   -1.4580    0.2394    0.0000 N   0  0  0  0  0  0  0  0  0  0  0  0
   -2.1906   -0.9673    0.0000 O   0  0  0  0  0  0  0  0  0  0  0  0
   -0.7397    1.4865    0.0000 O   0  0  0  0  0  0  0  0  0  0  0  0
    2.0508   -0.1422    0.0000 Br  0  0  0  0  0  0  0  0  0  0  0  0
    1.0266    1.2921    0.0000 C   0  0  0  0  0  0  0  0  0  0  0  0
   -0.7397   -1.8208    0.0000 C   0  0  0  0  0  0  0  0  0  0  0  0
    1.8374    1.4485    0.0000 C   0  0  0  0  0  0  0  0  0  0  0  0
    0.4836    1.9132    0.0000 C   0  0  0  0  0  0  0  0  0  0  0  0
  2  1  2  0  0  0  0
  3  1  1  0  0  0  0
  4  1  1  0  0  0  0
  5  3  2  0  0  0  0
  6  2  1  0  0  0  0
  7  4  1  0  0  0  0
  8  2  1  0  0  0  0
  9  7  1  0  0  0  0
 10  7  2  0  0  0  0
 11  6  2  0  0  0  0
 12  5  1  0  0  0  0
 13  8  1  0  0  0  0
 14  4  1  0  0  0  0
 15 13  1  0  0  0  0
 16 13  1  0  0  0  0
  8  5  1  0  0  0  0
  9  6  1  0  0  0  0
M  END
>  <IDNUMBER>
F0373-0004

>  <Chemical_Name>
8-bromo-3-methyl-7-(propan-2-yl)-2,3,6,7-tetrahydro-1H-purine-2,6-dione

>  <PriceCoeff>
1.00

>  <CAS>
123980-53-0

>  <MW>
287.11

>  <Description>
solid

>  <FSP3>
0.44

>  <clogP>
1.06

>  <TPSA>
67.23

>  <Acceptor>
3

>  <Donor>
2

>  <RotBonds>
1

>  <HAC>
16

>  <Collection>
General

>  <PPDS>
+

$$$$
F0373-0032
  Mrv2219 10102508112D          

 18 19  0  0  0  0            999 V2000
   -0.4654   -0.7166    0.0000 C   0  0  0  0  0  0  0  0  0  0  0  0
   -0.4654    0.1084    0.0000 C   0  0  0  0  0  0  0  0  0  0  0  0
   -1.1740   -1.1291    0.0000 N   0  0  0  0  0  0  0  0  0  0  0  0
   -1.8932   -0.7166    0.0000 C   0  0  0  0  0  0  0  0  0  0  0  0
   -1.8932    0.1084    0.0000 N   0  0  0  0  0  0  0  0  0  0  0  0
    0.3173   -0.9625    0.0000 N   0  0  0  0  0  0  0  0  0  0  0  0
   -1.1740    0.5209    0.0000 C   0  0  0  0  0  0  0  0  0  0  0  0
    0.3173    0.3622    0.0000 N   0  0  0  0  0  0  0  0  0  0  0  0
    0.7933   -0.2882    0.0000 C   0  0  0  0  0  0  0  0  0  0  0  0
    0.5738    1.1555    0.0000 C   0  0  0  0  0  0  0  0  0  0  0  0
   -2.6231   -1.1423    0.0000 O   0  0  0  0  0  0  0  0  0  0  0  0
    1.3830    1.3300    0.0000 C   0  0  0  0  0  0  0  0  0  0  0  0
   -1.1740    1.3538    0.0000 O   0  0  0  0  0  0  0  0  0  0  0  0
    1.6500    2.1022    0.0000 O   0  0  0  0  0  0  0  0  0  0  0  0
   -1.1740   -1.9541    0.0000 C   0  0  0  0  0  0  0  0  0  0  0  0
    1.9356    0.7113    0.0000 O   0  0  0  0  0  0  0  0  0  0  0  0
    1.6817   -0.0555    0.0000 C   0  0  0  0  0  0  0  0  0  0  0  0
    2.2397   -0.6663    0.0000 C   0  0  0  0  0  0  0  0  0  0  0  0
  2  1  2  0  0  0  0
  3  1  1  0  0  0  0
  4  3  1  0  0  0  0
  5  4  1  0  0  0  0
  6  1  1  0  0  0  0
  7  2  1  0  0  0  0
  8  2  1  0  0  0  0
  9  6  2  0  0  0  0
 10  8  1  0  0  0  0
 11  4  2  0  0  0  0
 12 10  1  0  0  0  0
 13  7  2  0  0  0  0
 14 12  2  0  0  0  0
 15  3  1  0  0  0  0
 16 12  1  0  0  0  0
 17 16  1  0  0  0  0
 18 17  1  0  0  0  0
  8  9  1  0  0  0  0
  5  7  1  0  0  0  0
M  END
>  <IDNUMBER>
F0373-0032

>  <Chemical_Name>
ethyl 2-(3-methyl-2,6-dioxo-2,3,6,7-tetrahydro-1H-purin-7-yl)acetate

>  <PriceCoeff>
1.00

>  <CAS>
102838-42-6

>  <MW>
252.23

>  <Description>
solid

>  <FSP3>
0.40

>  <clogP>
-0.37

>  <TPSA>
93.53

>  <Acceptor>
5

>  <Donor>
2

>  <RotBonds>
4

>  <HAC>
18

>  <Collection>
General

>  <PPDS>
+

$$$$
F0373-0038
  Mrv2219 10102508112D          

 16 17  0  0  0  0            999 V2000
   -0.1336   -0.7334    0.0000 C   0  0  0  0  0  0  0  0  0  0  0  0
   -0.1336    0.0916    0.0000 C   0  0  0  0  0  0  0  0  0  0  0  0
   -0.8459   -1.1498    0.0000 N   0  0  0  0  0  0  0  0  0  0  0  0
   -1.5688   -0.7334    0.0000 C   0  0  0  0  0  0  0  0  0  0  0  0
   -1.5688    0.0916    0.0000 N   0  0  0  0  0  0  0  0  0  0  0  0
    0.6391   -0.9848    0.0000 N   0  0  0  0  0  0  0  0  0  0  0  0
   -0.8459    0.5029    0.0000 C   0  0  0  0  0  0  0  0  0  0  0  0
    0.6391    0.3431    0.0000 N   0  0  0  0  0  0  0  0  0  0  0  0
    1.1184   -0.3169    0.0000 C   0  0  0  0  0  0  0  0  0  0  0  0
    0.9114    1.1393    0.0000 C   0  0  0  0  0  0  0  0  0  0  0  0
    1.7286    1.3174    0.0000 C   0  0  0  0  0  0  0  0  0  0  0  0
   -2.2943   -1.1629    0.0000 O   0  0  0  0  0  0  0  0  0  0  0  0
   -0.8459    1.3331    0.0000 O   0  0  0  0  0  0  0  0  0  0  0  0
    2.2734    0.7045    0.0000 O   0  0  0  0  0  0  0  0  0  0  0  0
   -0.8459   -1.9800    0.0000 C   0  0  0  0  0  0  0  0  0  0  0  0
    1.9800    2.1031    0.0000 O   0  0  0  0  0  0  0  0  0  0  0  0
  2  1  2  0  0  0  0
  3  1  1  0  0  0  0
  4  3  1  0  0  0  0
  5  4  1  0  0  0  0
  6  1  1  0  0  0  0
  7  2  1  0  0  0  0
  8  2  1  0  0  0  0
  9  6  2  0  0  0  0
 10  8  1  0  0  0  0
 11 10  1  0  0  0  0
 12  4  2  0  0  0  0
 13  7  2  0  0  0  0
 14 11  2  0  0  0  0
 15  3  1  0  0  0  0
 16 11  1  0  0  0  0
  8  9  1  0  0  0  0
  5  7  1  0  0  0  0
M  END
>  <IDNUMBER>
F0373-0038

>  <Chemical_Name>
2-(3-methyl-2,6-dioxo-2,3,6,7-tetrahydro-1H-purin-7-yl)acetic acid

>  <PriceCoeff>
1.00

>  <CAS>
102838-43-7

>  <MW>
224.18

>  <Description>
solid

>  <FSP3>
0.25

>  <clogP>
-1.29

>  <TPSA>
104.53

>  <Acceptor>
5

>  <Donor>
2

>  <RotBonds>
2

>  <HAC>
16

>  <Collection>
General

>  <PPDS>
+

$$$$
F0373-0089
  Mrv2219 10102508112D          

 14 15  0  0  0  0            999 V2000
   -0.0318   -0.3643    0.0000 C   0  0  0  0  0  0  0  0  0  0  0  0
    0.7520   -0.6185    0.0000 N   0  0  0  0  0  0  0  0  0  0  0  0
   -0.0318    0.4575    0.0000 C   0  0  0  0  0  0  0  0  0  0  0  0
   -0.7435   -0.7774    0.0000 N   0  0  0  0  0  0  0  0  0  0  0  0
   -1.4657   -0.3643    0.0000 C   0  0  0  0  0  0  0  0  0  0  0  0
    1.2285    0.0508    0.0000 C   0  0  0  0  0  0  0  0  0  0  0  0
   -1.4657    0.4575    0.0000 N   0  0  0  0  0  0  0  0  0  0  0  0
   -0.7435    0.8748    0.0000 C   0  0  0  0  0  0  0  0  0  0  0  0
    0.7520    0.7117    0.0000 N   0  0  0  0  0  0  0  0  0  0  0  0
   -2.1923   -0.7880    0.0000 O   0  0  0  0  0  0  0  0  0  0  0  0
   -0.7435    1.7072    0.0000 O   0  0  0  0  0  0  0  0  0  0  0  0
    2.0589    0.0572    0.0000 S   0  0  0  0  0  0  0  0  0  0  0  0
   -0.7435   -1.6035    0.0000 C   0  0  0  0  0  0  0  0  0  0  0  0
    1.0167    1.5060    0.0000 C   0  0  0  0  0  0  0  0  0  0  0  0
  2  1  1  0  0  0  0
  3  1  2  0  0  0  0
  4  1  1  0  0  0  0
  5  4  1  0  0  0  0
  6  2  2  0  0  0  0
  7  5  1  0  0  0  0
  8  3  1  0  0  0  0
  9  3  1  0  0  0  0
 10  5  2  0  0  0  0
 11  8  2  0  0  0  0
 12  6  1  0  0  0  0
 13  4  1  0  0  0  0
 14  9  1  0  0  0  0
  9  6  1  0  0  0  0
  7  8  1  0  0  0  0
M  END
>  <IDNUMBER>
F0373-0089

>  <Chemical_Name>
3,7-dimethyl-8-sulfanyl-2,3,6,7-tetrahydro-1H-purine-2,6-dione

>  <PriceCoeff>
1.00

>  <CAS>
6703-92-0

>  <MW>
212.23

>  <Description>
solid

>  <FSP3>
0.29

>  <clogP>
0.13

>  <TPSA>
106.03

>  <Acceptor>
3

>  <Donor>
3

>  <RotBonds>
0

>  <HAC>
14

>  <Collection>
General

>  <PPDS>
+

$$$$
F0373-0101
  Mrv2219 10102508112D          

 15 16  0  0  0  0            999 V2000
    5.7182   -4.0040    0.0000 C   0  0  0  0  0  0  0  0  0  0  0  0
    6.4636   -4.2400    0.0000 N   0  0  0  0  0  0  0  0  0  0  0  0
    5.7182   -3.1800    0.0000 C   0  0  0  0  0  0  0  0  0  0  0  0
    4.9978   -4.4098    0.0000 N   0  0  0  0  0  0  0  0  0  0  0  0
    4.3228   -4.0040    0.0000 C   0  0  0  0  0  0  0  0  0  0  0  0
    4.3228   -3.1469    0.0000 N   0  0  0  0  0  0  0  0  0  0  0  0
    6.9438   -3.5569    0.0000 C   0  0  0  0  0  0  0  0  0  0  0  0
    4.9978   -2.7328    0.0000 C   0  0  0  0  0  0  0  0  0  0  0  0
    6.4636   -2.8985    0.0000 N   0  0  0  0  0  0  0  0  0  0  0  0
    3.6272   -4.4760    0.0000 O   0  0  0  0  0  0  0  0  0  0  0  0
    4.9564   -1.9171    0.0000 O   0  0  0  0  0  0  0  0  0  0  0  0
    7.7679   -3.5569    0.0000 N   0  0  0  0  0  0  0  0  0  0  0  0
    4.9564   -5.2338    0.0000 C   0  0  0  0  0  0  0  0  0  0  0  0
    6.7451   -2.1242    0.0000 C   0  0  0  0  0  0  0  0  0  0  0  0
    7.5692   -1.9544    0.0000 C   0  0  0  0  0  0  0  0  0  0  0  0
  2  1  1  0  0  0  0
  3  1  2  0  0  0  0
  4  1  1  0  0  0  0
  5  4  1  0  0  0  0
  6  5  1  0  0  0  0
  7  2  2  0  0  0  0
  8  3  1  0  0  0  0
  9  3  1  0  0  0  0
 10  5  2  0  0  0  0
 11  8  2  0  0  0  0
 12  7  1  0  0  0  0
 13  4  1  0  0  0  0
 14  9  1  0  0  0  0
 15 14  1  0  0  0  0
  7  9  1  0  0  0  0
  8  6  1  0  0  0  0
M  END
>  <IDNUMBER>
F0373-0101

>  <Chemical_Name>
8-amino-7-ethyl-3-methyl-2,3,6,7-tetrahydro-1H-purine-2,6-dione

>  <PriceCoeff>
1.50

>  <CAS>
313507-18-5

>  <MW>
209.21

>  <Description>
solid

>  <FSP3>
0.38

>  <clogP>
-0.40

>  <TPSA>
93.25

>  <Acceptor>
3

>  <Donor>
3

>  <RotBonds>
1

>  <HAC>
15

>  <Collection>
Advanced

>  <PPDS>
+

$$$$
F0373-0284
  Mrv2219 10102508112D          

 16 17  0  0  0  0            999 V2000
    5.7320   -4.0149    0.0000 C   0  0  0  0  0  0  0  0  0  0  0  0
    5.7320   -3.1960    0.0000 C   0  0  0  0  0  0  0  0  0  0  0  0
    6.5174   -4.2781    0.0000 N   0  0  0  0  0  0  0  0  0  0  0  0
    5.0009   -4.4494    0.0000 N   0  0  0  0  0  0  0  0  0  0  0  0
    4.2656   -3.1960    0.0000 N   0  0  0  0  0  0  0  0  0  0  0  0
    4.2656   -4.0149    0.0000 C   0  0  0  0  0  0  0  0  0  0  0  0
    5.0009   -2.7616    0.0000 C   0  0  0  0  0  0  0  0  0  0  0  0
    6.9854   -3.5888    0.0000 C   0  0  0  0  0  0  0  0  0  0  0  0
    6.5174   -2.9371    0.0000 N   0  0  0  0  0  0  0  0  0  0  0  0
    3.5387   -4.4160    0.0000 O   0  0  0  0  0  0  0  0  0  0  0  0
    5.0009   -1.9344    0.0000 O   0  0  0  0  0  0  0  0  0  0  0  0
    7.8084   -3.5888    0.0000 Br  0  0  0  0  0  0  0  0  0  0  0  0
    5.0009   -5.2683    0.0000 C   0  0  0  0  0  0  0  0  0  0  0  0
    3.5387   -2.7950    0.0000 C   0  0  0  0  0  0  0  0  0  0  0  0
    6.7723   -2.1558    0.0000 C   0  0  0  0  0  0  0  0  0  0  0  0
    7.5577   -1.9928    0.0000 C   0  0  0  0  0  0  0  0  0  0  0  0
  2  1  2  0  0  0  0
  3  1  1  0  0  0  0
  4  1  1  0  0  0  0
  5  6  1  0  0  0  0
  6  4  1  0  0  0  0
  7  2  1  0  0  0  0
  8  3  2  0  0  0  0
  9  2  1  0  0  0  0
 10  6  2  0  0  0  0
 11  7  2  0  0  0  0
 12  8  1  0  0  0  0
 13  4  1  0  0  0  0
 14  5  1  0  0  0  0
 15  9  1  0  0  0  0
 16 15  1  0  0  0  0
  8  9  1  0  0  0  0
  7  5  1  0  0  0  0
M  END
>  <IDNUMBER>
F0373-0284

>  <Chemical_Name>
8-bromo-7-ethyl-1,3-dimethyl-2,3,6,7-tetrahydro-1H-purine-2,6-dione

>  <PriceCoeff>
1.00

>  <CAS>
17801-69-3

>  <MW>
287.12

>  <Description>
solid

>  <FSP3>
0.44

>  <clogP>
0.88

>  <TPSA>
58.44

>  <Acceptor>
3

>  <Donor>
1

>  <RotBonds>
1

>  <HAC>
16

>  <Collection>
General

>  <PPDS>
+

$$$$
F0373-0285
  Mrv2219 10102508112D          

 17 18  0  0  0  0            999 V2000
    5.6878   -4.5777    0.0000 C   0  0  0  0  0  0  0  0  0  0  0  0
    5.6878   -3.7295    0.0000 C   0  0  0  0  0  0  0  0  0  0  0  0
    6.4653   -4.8396    0.0000 N   0  0  0  0  0  0  0  0  0  0  0  0
    4.9685   -5.0184    0.0000 N   0  0  0  0  0  0  0  0  0  0  0  0
    4.2575   -3.7295    0.0000 N   0  0  0  0  0  0  0  0  0  0  0  0
    4.2575   -4.5777    0.0000 C   0  0  0  0  0  0  0  0  0  0  0  0
    4.9685   -3.3303    0.0000 C   0  0  0  0  0  0  0  0  0  0  0  0
    6.9226   -4.1578    0.0000 C   0  0  0  0  0  0  0  0  0  0  0  0
    6.4653   -3.4800    0.0000 N   0  0  0  0  0  0  0  0  0  0  0  0
    3.5424   -5.0184    0.0000 O   0  0  0  0  0  0  0  0  0  0  0  0
    4.9685   -2.4946    0.0000 O   0  0  0  0  0  0  0  0  0  0  0  0
    7.7500   -4.1578    0.0000 Br  0  0  0  0  0  0  0  0  0  0  0  0
    4.9685   -5.8250    0.0000 C   0  0  0  0  0  0  0  0  0  0  0  0
    3.5424   -3.2971    0.0000 C   0  0  0  0  0  0  0  0  0  0  0  0
    6.7148   -2.6984    0.0000 C   0  0  0  0  0  0  0  0  0  0  0  0
    6.1535   -2.0830    0.0000 C   0  0  0  0  0  0  0  0  0  0  0  0
    6.3905   -1.3346    0.0000 C   0  0  0  0  0  0  0  0  0  0  0  0
  2  1  2  0  0  0  0
  3  1  1  0  0  0  0
  4  1  1  0  0  0  0
  5  6  1  0  0  0  0
  6  4  1  0  0  0  0
  7  2  1  0  0  0  0
  8  3  2  0  0  0  0
  9  2  1  0  0  0  0
 10  6  2  0  0  0  0
 11  7  2  0  0  0  0
 12  8  1  0  0  0  0
 13  4  1  0  0  0  0
 14  5  1  0  0  0  0
 15  9  1  0  0  0  0
 16 15  1  0  0  0  0
 17 16  1  0  0  0  0
  9  8  1  0  0  0  0
  7  5  1  0  0  0  0
M  END
>  <IDNUMBER>
F0373-0285

>  <Chemical_Name>
8-bromo-1,3-dimethyl-7-propyl-2,3,6,7-tetrahydro-1H-purine-2,6-dione

>  <PriceCoeff>
1.00

>  <CAS>
17801-73-9

>  <MW>
301.14

>  <Description>
solid

>  <FSP3>
0.50

>  <clogP>
1.92

>  <TPSA>
58.44

>  <Acceptor>
3

>  <Donor>
1

>  <RotBonds>
2

>  <HAC>
17

>  <Collection>
General

>  <PPDS>
+

$$$$
F0373-0286
  Mrv2219 10102508112D          

 17 18  0  0  0  0            999 V2000
    5.5237   -4.3533    0.0000 C   0  0  0  0  0  0  0  0  0  0  0  0
    5.5237   -3.5155    0.0000 C   0  0  0  0  0  0  0  0  0  0  0  0
    4.8296   -4.7845    0.0000 N   0  0  0  0  0  0  0  0  0  0  0  0
    4.1274   -3.5155    0.0000 N   0  0  0  0  0  0  0  0  0  0  0  0
    4.1274   -4.3533    0.0000 C   0  0  0  0  0  0  0  0  0  0  0  0
    4.8296   -3.1212    0.0000 C   0  0  0  0  0  0  0  0  0  0  0  0
    6.3081   -4.6120    0.0000 N   0  0  0  0  0  0  0  0  0  0  0  0
    6.3081   -3.2691    0.0000 N   0  0  0  0  0  0  0  0  0  0  0  0
    6.7558   -3.9426    0.0000 C   0  0  0  0  0  0  0  0  0  0  0  0
    6.5545   -2.5011    0.0000 C   0  0  0  0  0  0  0  0  0  0  0  0
    3.4169   -4.7845    0.0000 O   0  0  0  0  0  0  0  0  0  0  0  0
    4.8296   -2.2834    0.0000 O   0  0  0  0  0  0  0  0  0  0  0  0
    7.3595   -2.3204    0.0000 C   0  0  0  0  0  0  0  0  0  0  0  0
    7.6059   -1.5072    0.0000 O   0  0  0  0  0  0  0  0  0  0  0  0
    4.8296   -5.5853    0.0000 C   0  0  0  0  0  0  0  0  0  0  0  0
    3.4169   -3.0925    0.0000 C   0  0  0  0  0  0  0  0  0  0  0  0
    7.8893   -2.9118    0.0000 N   0  0  0  0  0  0  0  0  0  0  0  0
  2  1  2  0  0  0  0
  3  1  1  0  0  0  0
  4  5  1  0  0  0  0
  5  3  1  0  0  0  0
  6  2  1  0  0  0  0
  7  1  1  0  0  0  0
  8  2  1  0  0  0  0
  9  7  2  0  0  0  0
 10  8  1  0  0  0  0
 11  5  2  0  0  0  0
 12  6  2  0  0  0  0
 13 10  1  0  0  0  0
 14 13  2  0  0  0  0
 15  3  1  0  0  0  0
 16  4  1  0  0  0  0
 17 13  1  0  0  0  0
  9  8  1  0  0  0  0
  4  6  1  0  0  0  0
M  END
>  <IDNUMBER>
F0373-0286

>  <Chemical_Name>
2-(1,3-dimethyl-2,6-dioxo-2,3,6,7-tetrahydro-1H-purin-7-yl)acetamide

>  <PriceCoeff>
1.00

>  <CAS>
5614-55-1

>  <MW>
237.22

>  <Description>
solid

>  <FSP3>
0.33

>  <clogP>
-1.39

>  <TPSA>
101.53

>  <Acceptor>
4

>  <Donor>
2

>  <RotBonds>
2

>  <HAC>
17

>  <Collection>
General

>  <PPDS>
+

$$$$
F0373-0540
  Mrv2219 10102508112D          

 17 18  0  0  0  0            999 V2000
   -3.2225    0.2525    0.0000 C   0  0  0  0  0  0  0  0  0  0  0  0
   -3.2225    1.0642    0.0000 C   0  0  0  0  0  0  0  0  0  0  0  0
   -2.4354    0.0000    0.0000 N   0  0  0  0  0  0  0  0  0  0  0  0
   -3.9155   -0.1782    0.0000 N   0  0  0  0  0  0  0  0  0  0  0  0
   -4.6282    1.0642    0.0000 N   0  0  0  0  0  0  0  0  0  0  0  0
   -4.6282    0.2525    0.0000 C   0  0  0  0  0  0  0  0  0  0  0  0
   -3.9155    1.4652    0.0000 C   0  0  0  0  0  0  0  0  0  0  0  0
   -1.9849    0.6534    0.0000 C   0  0  0  0  0  0  0  0  0  0  0  0
   -2.4354    1.3216    0.0000 N   0  0  0  0  0  0  0  0  0  0  0  0
   -5.3411   -0.1782    0.0000 O   0  0  0  0  0  0  0  0  0  0  0  0
   -3.9155    2.2968    0.0000 O   0  0  0  0  0  0  0  0  0  0  0  0
   -1.1533    0.6782    0.0000 Br  0  0  0  0  0  0  0  0  0  0  0  0
   -2.1780    2.1038    0.0000 C   0  0  0  0  0  0  0  0  0  0  0  0
   -3.9155   -0.9702    0.0000 C   0  0  0  0  0  0  0  0  0  0  0  0
   -5.3411    1.4850    0.0000 C   0  0  0  0  0  0  0  0  0  0  0  0
   -1.3662    2.2721    0.0000 C   0  0  0  0  0  0  0  0  0  0  0  0
   -2.7274    2.7274    0.0000 C   0  0  0  0  0  0  0  0  0  0  0  0
  2  1  2  0  0  0  0
  3  1  1  0  0  0  0
  4  1  1  0  0  0  0
  5  6  1  0  0  0  0
  6  4  1  0  0  0  0
  7  2  1  0  0  0  0
  8  3  2  0  0  0  0
  9  2  1  0  0  0  0
 10  6  2  0  0  0  0
 11  7  2  0  0  0  0
 12  8  1  0  0  0  0
 13  9  1  0  0  0  0
 14  4  1  0  0  0  0
 15  5  1  0  0  0  0
 16 13  1  0  0  0  0
 17 13  1  0  0  0  0
  9  8  1  0  0  0  0
  5  7  1  0  0  0  0
M  END
>  <IDNUMBER>
F0373-0540

>  <Chemical_Name>
8-bromo-1,3-dimethyl-7-(propan-2-yl)-2,3,6,7-tetrahydro-1H-purine-2,6-dione

>  <PriceCoeff>
1.00

>  <CAS>
368840-60-2

>  <MW>
301.14

>  <Description>
solid

>  <FSP3>
0.50

>  <clogP>
1.70

>  <TPSA>
58.44

>  <Acceptor>
3

>  <Donor>
1

>  <RotBonds>
1

>  <HAC>
17

>  <Collection>
General

>  <PPDS>
+

$$$$
F0373-0586
  Mrv2219 10102508112D          

 17 18  0  0  0  0            999 V2000
    5.9917   -4.6083    0.0000 C   0  0  0  0  0  0  0  0  0  0  0  0
    6.7063   -5.0206    0.0000 N   0  0  0  0  0  0  0  0  0  0  0  0
    5.9917   -3.7929    0.0000 C   0  0  0  0  0  0  0  0  0  0  0  0
    5.2771   -5.0206    0.0000 N   0  0  0  0  0  0  0  0  0  0  0  0
    4.5625   -4.6083    0.0000 C   0  0  0  0  0  0  0  0  0  0  0  0
    4.5625   -3.7929    0.0000 N   0  0  0  0  0  0  0  0  0  0  0  0
    7.4209   -4.6083    0.0000 C   0  0  0  0  0  0  0  0  0  0  0  0
    5.2771   -3.3578    0.0000 C   0  0  0  0  0  0  0  0  0  0  0  0
    7.4209   -3.7929    0.0000 N   0  0  0  0  0  0  0  0  0  0  0  0
    3.8479   -5.0206    0.0000 O   0  0  0  0  0  0  0  0  0  0  0  0
    5.2771   -2.5332    0.0000 O   0  0  0  0  0  0  0  0  0  0  0  0
    8.1355   -5.0206    0.0000 N   0  0  0  0  0  0  0  0  0  0  0  0
    5.2771   -5.8451    0.0000 C   0  0  0  0  0  0  0  0  0  0  0  0
    8.0027   -3.1928    0.0000 C   0  0  0  0  0  0  0  0  0  0  0  0
    7.4209   -7.0911    0.0000 O   0  0  0  0  0  0  0  0  0  0  0  0
    8.1355   -5.8451    0.0000 C   0  0  0  0  0  0  0  0  0  0  0  0
    7.4209   -6.2665    0.0000 C   0  0  0  0  0  0  0  0  0  0  0  0
  2  1  1  0  0  0  0
  3  1  2  0  0  0  0
  4  1  1  0  0  0  0
  5  4  1  0  0  0  0
  6  5  1  0  0  0  0
  7  2  2  0  0  0  0
  8  3  1  0  0  0  0
  9  3  1  0  0  0  0
 10  5  2  0  0  0  0
 11  8  2  0  0  0  0
 12  7  1  0  0  0  0
 13  4  1  0  0  0  0
 14  9  1  0  0  0  0
 15 17  1  0  0  0  0
 16 12  1  0  0  0  0
 17 16  1  0  0  0  0
  9  7  1  0  0  0  0
  6  8  1  0  0  0  0
M  END
>  <IDNUMBER>
F0373-0586

>  <Chemical_Name>
8-[(2-hydroxyethyl)amino]-3,7-dimethyl-2,3,6,7-tetrahydro-1H-purine-2,6-dione

>  <PriceCoeff>
1.00

>  <CAS>
331675-08-2

>  <MW>
239.23

>  <Description>
solid

>  <FSP3>
0.44

>  <clogP>
-0.87

>  <TPSA>
99.49

>  <Acceptor>
4

>  <Donor>
4

>  <RotBonds>
3

>  <HAC>
17

>  <Collection>
General

>  <PPDS>
+

$$$$
F0373-0620
  Mrv2219 10102508112D          

 21 23  0  0  0  0            999 V2000
    6.4396   -5.7200    0.0000 C   0  0  0  0  0  0  0  0  0  0  0  0
    6.4396   -4.8812    0.0000 C   0  0  0  0  0  0  0  0  0  0  0  0
    5.0096   -4.8812    0.0000 N   0  0  0  0  0  0  0  0  0  0  0  0
    7.1546   -6.1096    0.0000 N   0  0  0  0  0  0  0  0  0  0  0  0
    5.7200   -6.1096    0.0000 N   0  0  0  0  0  0  0  0  0  0  0  0
    5.0096   -5.7200    0.0000 C   0  0  0  0  0  0  0  0  0  0  0  0
    5.7200   -4.4550    0.0000 C   0  0  0  0  0  0  0  0  0  0  0  0
    7.8696   -5.7200    0.0000 C   0  0  0  0  0  0  0  0  0  0  0  0
    7.8696   -4.8812    0.0000 N   0  0  0  0  0  0  0  0  0  0  0  0
    4.2900   -4.4596    0.0000 C   0  0  0  0  0  0  0  0  0  0  0  0
    4.2946   -6.1096    0.0000 O   0  0  0  0  0  0  0  0  0  0  0  0
    5.7200   -3.6346    0.0000 O   0  0  0  0  0  0  0  0  0  0  0  0
    8.5846   -6.1096    0.0000 Br  0  0  0  0  0  0  0  0  0  0  0  0
    5.7200   -6.9346    0.0000 C   0  0  0  0  0  0  0  0  0  0  0  0
    8.6946   -4.8721    0.0000 C   0  0  0  0  0  0  0  0  0  0  0  0
    4.2900   -3.6346    0.0000 C   0  0  0  0  0  0  0  0  0  0  0  0
    5.0050   -3.2450    0.0000 C   0  0  0  0  0  0  0  0  0  0  0  0
    3.5750   -3.2450    0.0000 C   0  0  0  0  0  0  0  0  0  0  0  0
    3.5750   -2.4200    0.0000 C   0  0  0  0  0  0  0  0  0  0  0  0
    5.0050   -2.4200    0.0000 C   0  0  0  0  0  0  0  0  0  0  0  0
    4.2900   -1.9846    0.0000 C   0  0  0  0  0  0  0  0  0  0  0  0
  2  1  2  0  0  0  0
  3  6  1  0  0  0  0
  4  1  1  0  0  0  0
  5  1  1  0  0  0  0
  6  5  1  0  0  0  0
  7  2  1  0  0  0  0
  8  4  2  0  0  0  0
  9  2  1  0  0  0  0
 10  3  1  0  0  0  0
 11  6  2  0  0  0  0
 12  7  2  0  0  0  0
 13  8  1  0  0  0  0
 14  5  1  0  0  0  0
 15  9  1  0  0  0  0
 16 10  1  0  0  0  0
 17 16  1  0  0  0  0
 18 16  2  0  0  0  0
 19 18  1  0  0  0  0
 20 17  2  0  0  0  0
 21 19  2  0  0  0  0
  9  8  1  0  0  0  0
  3  7  1  0  0  0  0
 21 20  1  0  0  0  0
M  END
>  <IDNUMBER>
F0373-0620

>  <Chemical_Name>
1-benzyl-8-bromo-3,7-dimethyl-2,3,6,7-tetrahydro-1H-purine-2,6-dione

>  <PriceCoeff>
1.00

>  <CAS>
331675-25-3

>  <MW>
349.18

>  <Description>
solid

>  <FSP3>
0.21

>  <clogP>
2.63

>  <TPSA>
58.44

>  <Acceptor>
3

>  <Donor>
1

>  <RotBonds>
2

>  <HAC>
21

>  <Collection>
General

>  <PPDS>
+

$$$$
F0373-1007
  Mrv2219 10102508112D          

 16 18  0  0  0  0            999 V2000
   -1.8678   -0.9656    0.0000 C   0  0  0  0  0  0  0  0  0  0  0  0
   -1.8721   -0.1518    0.0000 C   0  0  0  0  0  0  0  0  0  0  0  0
   -1.1468   -1.3957    0.0000 N   0  0  0  0  0  0  0  0  0  0  0  0
   -0.4258   -0.9656    0.0000 C   0  0  0  0  0  0  0  0  0  0  0  0
   -0.4258   -0.1518    0.0000 N   0  0  0  0  0  0  0  0  0  0  0  0
   -2.5931   -1.3957    0.0000 N   0  0  0  0  0  0  0  0  0  0  0  0
   -3.3098   -0.9656    0.0000 C   0  0  0  0  0  0  0  0  0  0  0  0
   -3.3098   -0.1518    0.0000 N   0  0  0  0  0  0  0  0  0  0  0  0
   -2.5931    0.2530    0.0000 C   0  0  0  0  0  0  0  0  0  0  0  0
    0.2825   -1.3957    0.0000 N   0  0  0  0  0  0  0  0  0  0  0  0
    1.0119   -0.1518    0.0000 C   0  0  0  0  0  0  0  0  0  0  0  0
    1.0119   -0.9656    0.0000 C   0  0  0  0  0  0  0  0  0  0  0  0
   -4.0308   -1.3957    0.0000 O   0  0  0  0  0  0  0  0  0  0  0  0
   -2.5931    1.0962    0.0000 O   0  0  0  0  0  0  0  0  0  0  0  0
   -2.5931   -2.2262    0.0000 C   0  0  0  0  0  0  0  0  0  0  0  0
    1.7203   -1.3704    0.0000 C   0  0  0  0  0  0  0  0  0  0  0  0
  2  1  2  0  0  0  0
  3  1  1  0  0  0  0
  4  3  2  0  0  0  0
  5  2  1  0  0  0  0
  6  1  1  0  0  0  0
  7  6  1  0  0  0  0
  8  7  1  0  0  0  0
  9  2  1  0  0  0  0
 10  4  1  0  0  0  0
 11  5  1  0  0  0  0
 12 10  1  0  0  0  0
 13  7  2  0  0  0  0
 14  9  2  0  0  0  0
 15  6  1  0  0  0  0
 16 12  1  0  0  0  0
  9  8  1  0  0  0  0
  5  4  1  0  0  0  0
 12 11  2  0  0  0  0
M  END
>  <IDNUMBER>
F0373-1007

>  <Chemical_Name>
1,7-dimethyl-1H,2H,3H,4H,8H-imidazo[1,2-g]purine-2,4-dione

>  <PriceCoeff>
1.00

>  <CAS>
303969-70-2

>  <MW>
219.20

>  <Description>
solid

>  <FSP3>
0.22

>  <clogP>
0.14

>  <TPSA>
82.50

>  <Acceptor>
3

>  <Donor>
2

>  <RotBonds>
0

>  <HAC>
16

>  <Collection>
General

>  <PPDS>
+

$$$$
F0378-0062
  Mrv2219 10102508112D          

 19 20  0  0  0  0            999 V2000
    4.6625   -0.7292    0.0000 S   0  0  0  0  0  0  0  0  0  0  0  0
    2.5167   -0.3042    0.0000 C   0  0  0  0  0  0  0  0  0  0  0  0
    3.9500   -0.3167    0.0000 C   0  0  0  0  0  0  0  0  0  0  0  0
    3.2292   -0.7292    0.0000 C   0  0  0  0  0  0  0  0  0  0  0  0
    1.8167   -0.7167    0.0000 C   0  0  0  0  0  0  0  0  0  0  0  0
    5.3125   -1.2167    0.0000 O   0  5  0  0  0  0  0  0  0  0  0  0
    5.3500   -0.0542    0.0000 O   0  0  0  0  0  0  0  0  0  0  0  0
    4.0792   -1.3042    0.0000 O   0  0  0  0  0  0  0  0  0  0  0  0
    2.5167    0.5208    0.0000 C   0  0  0  0  0  0  0  0  0  0  0  0
    3.9500    0.5208    0.0000 C   0  0  0  0  0  0  0  0  0  0  0  0
    1.1000   -0.3042    0.0000 C   0  0  0  0  0  0  0  0  0  0  0  0
    3.2292    0.9333    0.0000 C   0  0  0  0  0  0  0  0  0  0  0  0
    1.8125    0.9333    0.0000 C   0  0  0  0  0  0  0  0  0  0  0  0
    1.1000    0.5083    0.0000 C   0  0  0  0  0  0  0  0  0  0  0  0
    1.8167   -1.5417    0.0000 C   0  0  0  0  0  0  0  0  0  0  0  0
    0.3917   -0.7167    0.0000 C   0  0  0  0  0  0  0  0  0  0  0  0
    1.1000   -1.9542    0.0000 C   0  0  0  0  0  0  0  0  0  0  0  0
    0.3917   -1.5417    0.0000 C   0  0  0  0  0  0  0  0  0  0  0  0
    7.1292   -0.6125    0.0000 K   0  3  0  0  0  0  0  0  0  0  0  0
  3  1  1  0  0  0  0
  4  3  2  0  0  0  0
  5  2  2  0  0  0  0
  6  1  1  0  0  0  0
  7  1  2  0  0  0  0
  8  1  2  0  0  0  0
  9 12  1  0  0  0  0
 10  3  1  0  0  0  0
 11  5  1  0  0  0  0
 12 10  2  0  0  0  0
 13  9  2  0  0  0  0
 14 13  1  0  0  0  0
 15  5  1  0  0  0  0
 16 11  1  0  0  0  0
 17 15  2  0  0  0  0
 18 17  1  0  0  0  0
  2  9  1  0  0  0  0
 11 14  2  0  0  0  0
 18 16  2  0  0  0  0
  2  4  1  0  0  0  0
M  CHG  2   6  -1  19   1
M  END
>  <IDNUMBER>
F0378-0062

>  <Chemical_Name>
potassium phenanthrene-3-sulfonate

>  <PriceCoeff>
1.00

>  <CAS>
22172-79-8

>  <MW>
257.28

>  <Description>
solid

>  <FSP3>
0.00

>  <clogP>
-1.44

>  <TPSA>
65.58

>  <Acceptor>
3

>  <Donor>
0

>  <RotBonds>
1

>  <HAC>
18

>  <Collection>
General

$$$$
F0381-3759
  Mrv2219 10102508112D          

 17 18  0  0  0  0            999 V2000
   -0.0984   -0.8963    0.0000 C   0  0  0  0  0  0  0  0  0  0  0  0
    0.6750   -1.1477    0.0000 N   0  0  0  0  0  0  0  0  0  0  0  0
   -0.0984   -0.0683    0.0000 C   0  0  0  0  0  0  0  0  0  0  0  0
   -0.8088   -1.3117    0.0000 N   0  0  0  0  0  0  0  0  0  0  0  0
    1.1477   -0.4782    0.0000 C   0  0  0  0  0  0  0  0  0  0  0  0
   -1.5220   -0.8881    0.0000 C   0  0  0  0  0  0  0  0  0  0  0  0
   -1.5220   -0.0765    0.0000 N   0  0  0  0  0  0  0  0  0  0  0  0
    0.6750    0.1722    0.0000 N   0  0  0  0  0  0  0  0  0  0  0  0
   -0.8088    0.3279    0.0000 C   0  0  0  0  0  0  0  0  0  0  0  0
    1.9675   -0.4700    0.0000 N   0  0  0  0  0  0  0  0  0  0  0  0
   -2.2516   -1.2980    0.0000 O   0  0  0  0  0  0  0  0  0  0  0  0
   -0.8088    1.1559    0.0000 O   0  0  0  0  0  0  0  0  0  0  0  0
   -0.8088   -2.1314    0.0000 C   0  0  0  0  0  0  0  0  0  0  0  0
    2.3637    0.2377    0.0000 C   0  0  0  0  0  0  0  0  0  0  0  0
    2.3719   -1.1805    0.0000 C   0  0  0  0  0  0  0  0  0  0  0  0
    3.1917    0.2514    0.0000 C   0  0  0  0  0  0  0  0  0  0  0  0
    1.9675   -1.9019    0.0000 C   0  0  0  0  0  0  0  0  0  0  0  0
  2  1  1  0  0  0  0
  3  1  2  0  0  0  0
  4  1  1  0  0  0  0
  5  2  2  0  0  0  0
  6  4  1  0  0  0  0
  7  6  1  0  0  0  0
  8  3  1  0  0  0  0
  9  3  1  0  0  0  0
 10  5  1  0  0  0  0
 11  6  2  0  0  0  0
 12  9  2  0  0  0  0
 13  4  1  0  0  0  0
 14 10  1  0  0  0  0
 15 10  1  0  0  0  0
 16 14  1  0  0  0  0
 17 15  1  0  0  0  0
  9  7  1  0  0  0  0
  5  8  1  0  0  0  0
M  END
>  <IDNUMBER>
F0381-3759

>  <Chemical_Name>
8-(diethylamino)-3-methyl-2,3,6,7-tetrahydro-1H-purine-2,6-dione

>  <PriceCoeff>
1.00

>  <CAS>
299419-46-8

>  <MW>
237.26

>  <Description>
solid

>  <FSP3>
0.50

>  <clogP>
1.11

>  <TPSA>
149.55

>  <Acceptor>
4

>  <Donor>
4

>  <RotBonds>
3

>  <HAC>
17

>  <Collection>
General

>  <PPDS>
+

$$$$
F0381-3870
  Mrv2219 10102508112D          

 17 18  0  0  0  0            999 V2000
    5.2360   -4.8590    0.0000 C   0  0  0  0  0  0  0  0  0  0  0  0
    5.2360   -4.0057    0.0000 C   0  0  0  0  0  0  0  0  0  0  0  0
    4.5110   -5.2566    0.0000 N   0  0  0  0  0  0  0  0  0  0  0  0
    3.7944   -4.8590    0.0000 C   0  0  0  0  0  0  0  0  0  0  0  0
    3.7944   -4.0057    0.0000 N   0  0  0  0  0  0  0  0  0  0  0  0
    6.0023   -5.0868    0.0000 N   0  0  0  0  0  0  0  0  0  0  0  0
    4.5110   -3.5956    0.0000 C   0  0  0  0  0  0  0  0  0  0  0  0
    6.0023   -3.7571    0.0000 N   0  0  0  0  0  0  0  0  0  0  0  0
    6.4787   -4.4033    0.0000 C   0  0  0  0  0  0  0  0  0  0  0  0
    3.0819   -5.3063    0.0000 O   0  0  0  0  0  0  0  0  0  0  0  0
    4.5110   -2.7837    0.0000 O   0  0  0  0  0  0  0  0  0  0  0  0
    4.5110   -6.0810    0.0000 C   0  0  0  0  0  0  0  0  0  0  0  0
    6.2426   -2.9618    0.0000 C   0  0  0  0  0  0  0  0  0  0  0  0
    7.0379   -2.7837    0.0000 C   0  0  0  0  0  0  0  0  0  0  0  0
    8.1024   -1.8268    0.0000 C   0  0  0  0  0  0  0  0  0  0  0  0
    7.2740   -2.0049    0.0000 C   0  0  0  0  0  0  0  0  0  0  0  0
    8.3510   -1.0480    0.0000 C   0  0  0  0  0  0  0  0  0  0  0  0
  2  1  2  0  0  0  0
  3  1  1  0  0  0  0
  4  3  1  0  0  0  0
  5  4  1  0  0  0  0
  6  1  1  0  0  0  0
  7  2  1  0  0  0  0
  8  2  1  0  0  0  0
  9  6  2  0  0  0  0
 10  4  2  0  0  0  0
 11  7  2  0  0  0  0
 12  3  1  0  0  0  0
 13  8  1  0  0  0  0
 14 13  1  0  0  0  0
 15 16  1  0  0  0  0
 16 14  1  0  0  0  0
 17 15  1  0  0  0  0
  8  9  1  0  0  0  0
  5  7  1  0  0  0  0
M  END
>  <IDNUMBER>
F0381-3870

>  <Chemical_Name>
3-methyl-7-pentyl-2,3,6,7-tetrahydro-1H-purine-2,6-dione

>  <PriceCoeff>
1.00

>  <CAS>
137003-08-8

>  <MW>
236.27

>  <Description>
solid

>  <FSP3>
0.55

>  <clogP>
1.44

>  <TPSA>
67.23

>  <Acceptor>
3

>  <Donor>
2

>  <RotBonds>
4

>  <HAC>
17

>  <Collection>
General

>  <PPDS>
+

$$$$
F0391-0007
  Mrv2219 10102508112D          

 10 10  0  0  0  0            999 V2000
   -2.7701    2.2564    0.0000 C   0  0  0  0  0  0  0  0  0  0  0  0
   -3.3901    2.6380    0.0000 O   0  0  0  0  0  0  0  0  0  0  0  0
   -2.6967    0.1504    0.0000 N   0  0  0  0  0  0  0  0  0  0  0  0
   -2.6967    1.8052    0.0000 C   0  0  0  0  0  0  0  0  0  0  0  0
   -2.1757    2.7371    0.0000 N   0  0  0  0  0  0  0  0  0  0  0  0
   -1.7795    2.3738    0.0000 N   0  0  0  0  0  0  0  0  0  0  0  0
   -3.4084    0.5687    0.0000 C   0  0  0  0  0  0  0  0  0  0  0  0
   -1.9813    0.5687    0.0000 C   0  0  0  0  0  0  0  0  0  0  0  0
   -1.9813    1.3942    0.0000 C   0  0  0  0  0  0  0  0  0  0  0  0
   -3.4084    1.3942    0.0000 C   0  0  0  0  0  0  0  0  0  0  0  0
  2  1  2  0  0  0  0
  3  7  2  0  0  0  0
  4  1  1  0  0  0  0
  5  1  1  0  0  0  0
  6  5  1  0  0  0  0
  7 10  1  0  0  0  0
  8  9  2  0  0  0  0
  9  4  1  0  0  0  0
 10  4  2  0  0  0  0
  3  8  1  0  0  0  0
M  END
>  <IDNUMBER>
F0391-0007

>  <Chemical_Name>
pyridine-4-carbohydrazide

>  <PriceCoeff>
1.00

>  <CAS>
54-85-3

>  <MW>
137.14

>  <Description>
solid

>  <FSP3>
0.00

>  <clogP>
-0.69

>  <TPSA>
68.01

>  <Acceptor>
2

>  <Donor>
3

>  <RotBonds>
1

>  <HAC>
10

>  <Collection>
General

$$$$
F0396-0210
  Mrv2219 10102508112D          

 28 31  0  0  0  0            999 V2000
   -1.9323   -0.0583    0.0000 C   0  0  0  0  0  0  0  0  0  0  0  0
   -2.6048    0.3048    0.0000 N   0  0  0  0  0  0  0  0  0  0  0  0
   -3.2773   -0.0180    0.0000 N   0  0  0  0  0  0  0  0  0  0  0  0
   -2.2282   -0.8115    0.0000 C   0  0  0  0  0  0  0  0  0  0  0  0
   -1.1298    0.0493    0.0000 N   0  0  0  0  0  0  0  0  0  0  0  0
   -3.0128   -0.7532    0.0000 C   0  0  0  0  0  0  0  0  0  0  0  0
    2.5063    0.3452    0.0000 N   0  0  0  0  0  0  0  0  0  0  0  0
   -0.4977   -0.3946    0.0000 C   0  0  0  0  0  0  0  0  0  0  0  0
    2.7842    1.1253    0.0000 C   0  0  0  0  0  0  0  0  0  0  0  0
    3.2057   -0.0852    0.0000 C   0  0  0  0  0  0  0  0  0  0  0  0
   -2.5645    1.1298    0.0000 C   0  0  0  0  0  0  0  0  0  0  0  0
    1.6858    0.1300    0.0000 C   0  0  0  0  0  0  0  0  0  0  0  0
   -2.7393   -2.0624    0.0000 S   0  0  0  0  0  0  0  0  0  0  0  0
    0.0942   -0.1614    0.0000 C   0  0  0  0  0  0  0  0  0  0  0  0
   -0.7129   -1.1702    0.0000 O   0  0  0  0  0  0  0  0  0  0  0  0
    3.8513    0.3183    0.0000 C   0  0  0  0  0  0  0  0  0  0  0  0
    3.6046    1.1118    0.0000 C   0  0  0  0  0  0  0  0  0  0  0  0
    2.2910    1.8292    0.0000 O   0  0  0  0  0  0  0  0  0  0  0  0
    3.2146   -0.8115    0.0000 O   0  0  0  0  0  0  0  0  0  0  0  0
   -2.0265   -1.6140    0.0000 C   0  0  0  0  0  0  0  0  0  0  0  0
    1.5064   -0.5022    0.0000 C   0  0  0  0  0  0  0  0  0  0  0  0
    1.0805    0.7218    0.0000 C   0  0  0  0  0  0  0  0  0  0  0  0
    0.7174   -0.7398    0.0000 C   0  0  0  0  0  0  0  0  0  0  0  0
    0.2870    0.4797    0.0000 C   0  0  0  0  0  0  0  0  0  0  0  0
   -3.3356   -1.5244    0.0000 C   0  0  0  0  0  0  0  0  0  0  0  0
   -1.7351    1.1253    0.0000 C   0  0  0  0  0  0  0  0  0  0  0  0
   -2.5645    2.0130    0.0000 C   0  0  0  0  0  0  0  0  0  0  0  0
   -3.4029    1.1836    0.0000 C   0  0  0  0  0  0  0  0  0  0  0  0
  2  1  1  0  0  0  0
  3  2  1  0  0  0  0
  4  1  2  0  0  0  0
  5  1  1  0  0  0  0
  6  4  1  0  0  0  0
  7 12  1  0  0  0  0
  8  5  1  0  0  0  0
  9  7  1  0  0  0  0
 10  7  1  0  0  0  0
 11  2  1  0  0  0  0
 12 22  2  0  0  0  0
 13 20  1  0  0  0  0
 14  8  1  0  0  0  0
 15  8  2  0  0  0  0
 16 10  1  0  0  0  0
 17  9  1  0  0  0  0
 18  9  2  0  0  0  0
 19 10  2  0  0  0  0
 20  4  1  0  0  0  0
 21 23  2  0  0  0  0
 22 24  1  0  0  0  0
 23 14  1  0  0  0  0
 24 14  2  0  0  0  0
 25  6  1  0  0  0  0
 26 11  1  0  0  0  0
 27 11  1  0  0  0  0
 28 11  1  0  0  0  0
  3  6  2  0  0  0  0
 13 25  1  0  0  0  0
 12 21  1  0  0  0  0
 16 17  1  0  0  0  0
M  END
>  <IDNUMBER>
F0396-0210

>  <Chemical_Name>
N-{2-tert-butyl-2H,4H,6H-thieno[3,4-c]pyrazol-3-yl}-4-(2,5-dioxopyrrolidin-1-yl)benzamide

>  <PriceCoeff>
1.50

>  <CAS>
361477-27-2

>  <MW>
398.48

>  <Description>
solid

>  <FSP3>
0.40

>  <clogP>
0.51

>  <TPSA>
109.60

>  <Acceptor>
4

>  <Donor>
1

>  <RotBonds>
3

>  <HAC>
28

>  <Collection>
Advanced

>  <PPDS>
+

$$$$
F0396-0211
  Mrv2219 10102508112D          

 30 34  0  0  0  0            999 V2000
   -1.9917   -0.0601    0.0000 C   0  0  0  0  0  0  0  0  0  0  0  0
   -2.6849    0.3142    0.0000 N   0  0  0  0  0  0  0  0  0  0  0  0
   -3.3780   -0.0185    0.0000 N   0  0  0  0  0  0  0  0  0  0  0  0
   -2.2967   -0.8365    0.0000 C   0  0  0  0  0  0  0  0  0  0  0  0
   -1.1645    0.0508    0.0000 N   0  0  0  0  0  0  0  0  0  0  0  0
   -3.1054   -0.7764    0.0000 C   0  0  0  0  0  0  0  0  0  0  0  0
    2.5833    0.3558    0.0000 N   0  0  0  0  0  0  0  0  0  0  0  0
   -0.5130   -0.4067    0.0000 C   0  0  0  0  0  0  0  0  0  0  0  0
    2.8698    1.1599    0.0000 C   0  0  0  0  0  0  0  0  0  0  0  0
    3.3042   -0.0878    0.0000 C   0  0  0  0  0  0  0  0  0  0  0  0
    1.7376    0.1340    0.0000 C   0  0  0  0  0  0  0  0  0  0  0  0
   -2.8235   -2.1258    0.0000 S   0  0  0  0  0  0  0  0  0  0  0  0
   -2.6987    1.1229    0.0000 C   0  0  0  0  0  0  0  0  0  0  0  0
    0.0970   -0.1664    0.0000 C   0  0  0  0  0  0  0  0  0  0  0  0
   -0.7348   -1.2061    0.0000 O   0  0  0  0  0  0  0  0  0  0  0  0
    3.7154    1.1460    0.0000 C   0  0  0  0  0  0  0  0  0  0  0  0
    3.9696    0.3281    0.0000 C   0  0  0  0  0  0  0  0  0  0  0  0
    3.3134   -0.8365    0.0000 O   0  0  0  0  0  0  0  0  0  0  0  0
    2.3615    1.8854    0.0000 O   0  0  0  0  0  0  0  0  0  0  0  0
   -2.0887   -1.6636    0.0000 C   0  0  0  0  0  0  0  0  0  0  0  0
    1.1137    0.7440    0.0000 C   0  0  0  0  0  0  0  0  0  0  0  0
    1.5527   -0.5176    0.0000 C   0  0  0  0  0  0  0  0  0  0  0  0
    0.2958    0.4944    0.0000 C   0  0  0  0  0  0  0  0  0  0  0  0
    0.7394   -0.7625    0.0000 C   0  0  0  0  0  0  0  0  0  0  0  0
   -3.4382   -1.5712    0.0000 C   0  0  0  0  0  0  0  0  0  0  0  0
   -3.4058    1.5203    0.0000 C   0  0  0  0  0  0  0  0  0  0  0  0
   -2.0102    1.5342    0.0000 C   0  0  0  0  0  0  0  0  0  0  0  0
   -2.0102    2.3521    0.0000 C   0  0  0  0  0  0  0  0  0  0  0  0
   -3.4058    2.3429    0.0000 C   0  0  0  0  0  0  0  0  0  0  0  0
   -2.6987    2.7680    0.0000 C   0  0  0  0  0  0  0  0  0  0  0  0
  2  1  1  0  0  0  0
  3  2  1  0  0  0  0
  4  1  2  0  0  0  0
  5  1  1  0  0  0  0
  6  4  1  0  0  0  0
  7 11  1  0  0  0  0
  8  5  1  0  0  0  0
  9  7  1  0  0  0  0
 10  7  1  0  0  0  0
 11 22  1  0  0  0  0
 12 20  1  0  0  0  0
 13  2  1  0  0  0  0
 14  8  1  0  0  0  0
 15  8  2  0  0  0  0
 16  9  1  0  0  0  0
 17 10  1  0  0  0  0
 18 10  2  0  0  0  0
 19  9  2  0  0  0  0
 20  4  1  0  0  0  0
 21 23  1  0  0  0  0
 22 24  2  0  0  0  0
 23 14  2  0  0  0  0
 24 14  1  0  0  0  0
 25  6  1  0  0  0  0
 26 13  2  0  0  0  0
 27 13  1  0  0  0  0
 28 27  2  0  0  0  0
 29 26  1  0  0  0  0
 30 28  1  0  0  0  0
  6  3  2  0  0  0  0
 25 12  1  0  0  0  0
 11 21  2  0  0  0  0
 30 29  2  0  0  0  0
 16 17  1  0  0  0  0
M  END
>  <IDNUMBER>
F0396-0211

>  <Chemical_Name>
4-(2,5-dioxopyrrolidin-1-yl)-N-{2-phenyl-2H,4H,6H-thieno[3,4-c]pyrazol-3-yl}benzamide

>  <PriceCoeff>
1.00

>  <CAS>
392255-22-0

>  <MW>
418.47

>  <Description>
solid

>  <FSP3>
0.18

>  <clogP>
1.22

>  <TPSA>
109.60

>  <Acceptor>
4

>  <Donor>
1

>  <RotBonds>
4

>  <HAC>
30

>  <Collection>
General

>  <PPDS>
+

$$$$
F0396-0212
  Mrv2219 10102508112D          

 31 35  0  0  0  0            999 V2000
   -1.9917   -0.0601    0.0000 C   0  0  0  0  0  0  0  0  0  0  0  0
   -2.6849    0.3142    0.0000 N   0  0  0  0  0  0  0  0  0  0  0  0
   -3.3780   -0.0185    0.0000 N   0  0  0  0  0  0  0  0  0  0  0  0
   -2.2967   -0.8365    0.0000 C   0  0  0  0  0  0  0  0  0  0  0  0
   -1.1645    0.0508    0.0000 N   0  0  0  0  0  0  0  0  0  0  0  0
   -3.1054   -0.7764    0.0000 C   0  0  0  0  0  0  0  0  0  0  0  0
    2.5833    0.3558    0.0000 N   0  0  0  0  0  0  0  0  0  0  0  0
   -0.5130   -0.4067    0.0000 C   0  0  0  0  0  0  0  0  0  0  0  0
    2.8698    1.1599    0.0000 C   0  0  0  0  0  0  0  0  0  0  0  0
    3.3042   -0.0878    0.0000 C   0  0  0  0  0  0  0  0  0  0  0  0
   -2.6987    1.1229    0.0000 C   0  0  0  0  0  0  0  0  0  0  0  0
    1.7376    0.1340    0.0000 C   0  0  0  0  0  0  0  0  0  0  0  0
   -2.8235   -2.1258    0.0000 S   0  0  0  0  0  0  0  0  0  0  0  0
    0.0970   -0.1664    0.0000 C   0  0  0  0  0  0  0  0  0  0  0  0
   -0.7348   -1.2061    0.0000 O   0  0  0  0  0  0  0  0  0  0  0  0
    3.7154    1.1460    0.0000 C   0  0  0  0  0  0  0  0  0  0  0  0
    3.9696    0.3281    0.0000 C   0  0  0  0  0  0  0  0  0  0  0  0
    3.3134   -0.8365    0.0000 O   0  0  0  0  0  0  0  0  0  0  0  0
    2.3615    1.8854    0.0000 O   0  0  0  0  0  0  0  0  0  0  0  0
   -2.0887   -1.6636    0.0000 C   0  0  0  0  0  0  0  0  0  0  0  0
    1.1137    0.7440    0.0000 C   0  0  0  0  0  0  0  0  0  0  0  0
    1.5527   -0.5176    0.0000 C   0  0  0  0  0  0  0  0  0  0  0  0
    0.2958    0.4944    0.0000 C   0  0  0  0  0  0  0  0  0  0  0  0
    0.7394   -0.7625    0.0000 C   0  0  0  0  0  0  0  0  0  0  0  0
   -3.4382   -1.5712    0.0000 C   0  0  0  0  0  0  0  0  0  0  0  0
   -3.4058    1.5203    0.0000 C   0  0  0  0  0  0  0  0  0  0  0  0
   -2.0102    1.5342    0.0000 C   0  0  0  0  0  0  0  0  0  0  0  0
   -2.6987    2.7680    0.0000 C   0  0  0  0  0  0  0  0  0  0  0  0
   -3.4058    2.3429    0.0000 C   0  0  0  0  0  0  0  0  0  0  0  0
   -2.0102    2.3521    0.0000 C   0  0  0  0  0  0  0  0  0  0  0  0
   -2.6849    3.3503    0.0000 Cl  0  0  0  0  0  0  0  0  0  0  0  0
  2  1  1  0  0  0  0
  3  2  1  0  0  0  0
  4  1  2  0  0  0  0
  5  1  1  0  0  0  0
  6  4  1  0  0  0  0
  7 12  1  0  0  0  0
  8  5  1  0  0  0  0
  9  7  1  0  0  0  0
 10  7  1  0  0  0  0
 11  2  1  0  0  0  0
 12 22  1  0  0  0  0
 13 20  1  0  0  0  0
 14  8  1  0  0  0  0
 15  8  2  0  0  0  0
 16  9  1  0  0  0  0
 17 10  1  0  0  0  0
 18 10  2  0  0  0  0
 19  9  2  0  0  0  0
 20  4  1  0  0  0  0
 21 23  1  0  0  0  0
 22 24  2  0  0  0  0
 23 14  2  0  0  0  0
 24 14  1  0  0  0  0
 25  6  1  0  0  0  0
 26 11  2  0  0  0  0
 27 11  1  0  0  0  0
 28 30  1  0  0  0  0
 29 26  1  0  0  0  0
 30 27  2  0  0  0  0
 31 28  1  0  0  0  0
  3  6  2  0  0  0  0
 13 25  1  0  0  0  0
 29 28  2  0  0  0  0
 21 12  2  0  0  0  0
 17 16  1  0  0  0  0
M  END
>  <IDNUMBER>
F0396-0212

>  <Chemical_Name>
N-[2-(4-chlorophenyl)-2H,4H,6H-thieno[3,4-c]pyrazol-3-yl]-4-(2,5-dioxopyrrolidin-1-yl)benzamide

>  <PriceCoeff>
1.00

>  <CAS>
361477-28-3

>  <MW>
452.91

>  <Description>
solid

>  <FSP3>
0.18

>  <clogP>
2.01

>  <TPSA>
109.60

>  <Acceptor>
4

>  <Donor>
1

>  <RotBonds>
4

>  <HAC>
31

>  <Collection>
General

>  <PPDS>
+

$$$$
F0396-0213
  Mrv2219 10102508112D          

 32 36  0  0  0  0            999 V2000
   -1.9946   -0.0602    0.0000 C   0  0  0  0  0  0  0  0  0  0  0  0
   -2.6888    0.3147    0.0000 N   0  0  0  0  0  0  0  0  0  0  0  0
   -3.3830   -0.0185    0.0000 N   0  0  0  0  0  0  0  0  0  0  0  0
   -2.3000   -0.8377    0.0000 C   0  0  0  0  0  0  0  0  0  0  0  0
   -1.1662    0.0509    0.0000 N   0  0  0  0  0  0  0  0  0  0  0  0
   -3.1099   -0.7775    0.0000 C   0  0  0  0  0  0  0  0  0  0  0  0
    2.5870    0.3563    0.0000 N   0  0  0  0  0  0  0  0  0  0  0  0
   -0.5137   -0.4073    0.0000 C   0  0  0  0  0  0  0  0  0  0  0  0
    2.8739    1.1616    0.0000 C   0  0  0  0  0  0  0  0  0  0  0  0
    3.3090   -0.0880    0.0000 C   0  0  0  0  0  0  0  0  0  0  0  0
   -2.7027    1.1246    0.0000 C   0  0  0  0  0  0  0  0  0  0  0  0
    1.7401    0.1342    0.0000 C   0  0  0  0  0  0  0  0  0  0  0  0
   -2.8276   -2.1289    0.0000 S   0  0  0  0  0  0  0  0  0  0  0  0
    0.0972   -0.1666    0.0000 C   0  0  0  0  0  0  0  0  0  0  0  0
   -0.7358   -1.2079    0.0000 O   0  0  0  0  0  0  0  0  0  0  0  0
    3.7208    1.1477    0.0000 C   0  0  0  0  0  0  0  0  0  0  0  0
    3.9754    0.3285    0.0000 C   0  0  0  0  0  0  0  0  0  0  0  0
    3.3182   -0.8377    0.0000 O   0  0  0  0  0  0  0  0  0  0  0  0
    2.3649    1.8882    0.0000 O   0  0  0  0  0  0  0  0  0  0  0  0
   -2.0918   -1.6660    0.0000 C   0  0  0  0  0  0  0  0  0  0  0  0
    1.1154    0.7451    0.0000 C   0  0  0  0  0  0  0  0  0  0  0  0
    1.5550   -0.5184    0.0000 C   0  0  0  0  0  0  0  0  0  0  0  0
    0.2962    0.4951    0.0000 C   0  0  0  0  0  0  0  0  0  0  0  0
    0.7405   -0.7636    0.0000 C   0  0  0  0  0  0  0  0  0  0  0  0
   -3.4432   -1.5735    0.0000 C   0  0  0  0  0  0  0  0  0  0  0  0
   -3.4107    1.5225    0.0000 C   0  0  0  0  0  0  0  0  0  0  0  0
   -2.0131    1.5364    0.0000 C   0  0  0  0  0  0  0  0  0  0  0  0
   -2.7027    2.7721    0.0000 C   0  0  0  0  0  0  0  0  0  0  0  0
   -3.4107    2.3463    0.0000 C   0  0  0  0  0  0  0  0  0  0  0  0
   -2.0131    2.3556    0.0000 C   0  0  0  0  0  0  0  0  0  0  0  0
   -2.6888    3.3552    0.0000 O   0  0  0  0  0  0  0  0  0  0  0  0
   -2.0224    3.6884    0.0000 C   0  0  0  0  0  0  0  0  0  0  0  0
  2  1  1  0  0  0  0
  3  2  1  0  0  0  0
  4  1  2  0  0  0  0
  5  1  1  0  0  0  0
  6  4  1  0  0  0  0
  7 12  1  0  0  0  0
  8  5  1  0  0  0  0
  9  7  1  0  0  0  0
 10  7  1  0  0  0  0
 11  2  1  0  0  0  0
 12 22  1  0  0  0  0
 13 20  1  0  0  0  0
 14  8  1  0  0  0  0
 15  8  2  0  0  0  0
 16  9  1  0  0  0  0
 17 10  1  0  0  0  0
 18 10  2  0  0  0  0
 19  9  2  0  0  0  0
 20  4  1  0  0  0  0
 21 23  1  0  0  0  0
 22 24  2  0  0  0  0
 23 14  2  0  0  0  0
 24 14  1  0  0  0  0
 25  6  1  0  0  0  0
 26 11  2  0  0  0  0
 27 11  1  0  0  0  0
 28 30  1  0  0  0  0
 29 26  1  0  0  0  0
 30 27  2  0  0  0  0
 31 28  1  0  0  0  0
 32 31  1  0  0  0  0
  6  3  2  0  0  0  0
 25 13  1  0  0  0  0
 28 29  2  0  0  0  0
 12 21  2  0  0  0  0
 16 17  1  0  0  0  0
M  END
>  <IDNUMBER>
F0396-0213

>  <Chemical_Name>
4-(2,5-dioxopyrrolidin-1-yl)-N-[2-(4-methoxyphenyl)-2H,4H,6H-thieno[3,4-c]pyrazol-3-yl]benzamide

>  <PriceCoeff>
1.00

>  <CAS>
361477-29-4

>  <MW>
448.49

>  <Description>
solid

>  <FSP3>
0.22

>  <clogP>
1.20

>  <TPSA>
118.83

>  <Acceptor>
5

>  <Donor>
1

>  <RotBonds>
5

>  <HAC>
32

>  <Collection>
General

>  <PPDS>
+

$$$$
F0396-0402
  Mrv2219 10102508112D          

 31 35  0  0  0  0            999 V2000
   -1.9975   -0.0603    0.0000 C   0  0  0  0  0  0  0  0  0  0  0  0
   -2.6927    0.3151    0.0000 N   0  0  0  0  0  0  0  0  0  0  0  0
   -3.3879   -0.0186    0.0000 N   0  0  0  0  0  0  0  0  0  0  0  0
   -2.3034   -0.8389    0.0000 C   0  0  0  0  0  0  0  0  0  0  0  0
   -1.1679    0.0509    0.0000 N   0  0  0  0  0  0  0  0  0  0  0  0
   -3.1145   -0.7786    0.0000 C   0  0  0  0  0  0  0  0  0  0  0  0
    2.5908    0.3568    0.0000 N   0  0  0  0  0  0  0  0  0  0  0  0
   -0.5144   -0.4079    0.0000 C   0  0  0  0  0  0  0  0  0  0  0  0
    2.8781    1.1633    0.0000 C   0  0  0  0  0  0  0  0  0  0  0  0
    3.3138   -0.0881    0.0000 C   0  0  0  0  0  0  0  0  0  0  0  0
   -2.7066    1.1262    0.0000 C   0  0  0  0  0  0  0  0  0  0  0  0
    1.7427    0.1344    0.0000 C   0  0  0  0  0  0  0  0  0  0  0  0
   -2.8317   -2.1320    0.0000 S   0  0  0  0  0  0  0  0  0  0  0  0
    0.0973   -0.1668    0.0000 C   0  0  0  0  0  0  0  0  0  0  0  0
   -0.7369   -1.2096    0.0000 O   0  0  0  0  0  0  0  0  0  0  0  0
   -2.0161    1.5387    0.0000 C   0  0  0  0  0  0  0  0  0  0  0  0
    3.9812    0.3290    0.0000 C   0  0  0  0  0  0  0  0  0  0  0  0
    3.7262    1.1493    0.0000 C   0  0  0  0  0  0  0  0  0  0  0  0
    2.3683    1.8909    0.0000 O   0  0  0  0  0  0  0  0  0  0  0  0
    3.3230   -0.8389    0.0000 O   0  0  0  0  0  0  0  0  0  0  0  0
   -2.0948   -1.6685    0.0000 C   0  0  0  0  0  0  0  0  0  0  0  0
    1.5572   -0.5191    0.0000 C   0  0  0  0  0  0  0  0  0  0  0  0
    1.1170    0.7461    0.0000 C   0  0  0  0  0  0  0  0  0  0  0  0
    0.7416   -0.7647    0.0000 C   0  0  0  0  0  0  0  0  0  0  0  0
    0.2967    0.4959    0.0000 C   0  0  0  0  0  0  0  0  0  0  0  0
   -3.4482   -1.5758    0.0000 C   0  0  0  0  0  0  0  0  0  0  0  0
   -2.0161    2.3590    0.0000 C   0  0  0  0  0  0  0  0  0  0  0  0
   -3.4157    1.5248    0.0000 C   0  0  0  0  0  0  0  0  0  0  0  0
   -3.4157    2.3498    0.0000 C   0  0  0  0  0  0  0  0  0  0  0  0
   -2.7066    2.7761    0.0000 C   0  0  0  0  0  0  0  0  0  0  0  0
   -1.4599    2.6927    0.0000 C   0  0  0  0  0  0  0  0  0  0  0  0
  2  1  1  0  0  0  0
  3  2  1  0  0  0  0
  4  1  2  0  0  0  0
  5  1  1  0  0  0  0
  6  4  1  0  0  0  0
  7 12  1  0  0  0  0
  8  5  1  0  0  0  0
  9  7  1  0  0  0  0
 10  7  1  0  0  0  0
 11  2  1  0  0  0  0
 12 23  2  0  0  0  0
 13 21  1  0  0  0  0
 14  8  1  0  0  0  0
 15  8  2  0  0  0  0
 16 11  1  0  0  0  0
 17 10  1  0  0  0  0
 18  9  1  0  0  0  0
 19  9  2  0  0  0  0
 20 10  2  0  0  0  0
 21  4  1  0  0  0  0
 22 24  2  0  0  0  0
 23 25  1  0  0  0  0
 24 14  1  0  0  0  0
 25 14  2  0  0  0  0
 26  6  1  0  0  0  0
 27 16  2  0  0  0  0
 28 11  2  0  0  0  0
 29 28  1  0  0  0  0
 30 29  2  0  0  0  0
 31 27  1  0  0  0  0
  3  6  2  0  0  0  0
 13 26  1  0  0  0  0
 12 22  1  0  0  0  0
 30 27  1  0  0  0  0
 17 18  1  0  0  0  0
M  END
>  <IDNUMBER>
F0396-0402

>  <Chemical_Name>
4-(2,5-dioxopyrrolidin-1-yl)-N-[2-(3-methylphenyl)-2H,4H,6H-thieno[3,4-c]pyrazol-3-yl]benzamide

>  <PriceCoeff>
1.00

>  <CAS>
392288-91-4

>  <MW>
432.49

>  <Description>
solid

>  <FSP3>
0.22

>  <clogP>
1.72

>  <TPSA>
109.60

>  <Acceptor>
4

>  <Donor>
1

>  <RotBonds>
4

>  <HAC>
31

>  <Collection>
General

>  <PPDS>
+

$$$$
F0398-0056
  Mrv2219 10102508112D          

 21 23  0  0  0  0            999 V2000
    6.4968   -1.8866    0.0000 C   0  0  0  0  0  0  0  0  0  0  0  0
    7.2007   -3.1277    0.0000 C   0  0  0  0  0  0  0  0  0  0  0  0
    7.2007   -1.4785    0.0000 O   0  0  0  0  0  0  0  0  0  0  0  0
    7.9253   -1.8866    0.0000 C   0  0  0  0  0  0  0  0  0  0  0  0
    6.4968   -2.7029    0.0000 C   0  0  0  0  0  0  0  0  0  0  0  0
    7.9253   -2.7029    0.0000 C   0  0  0  0  0  0  0  0  0  0  0  0
    5.7764   -1.4785    0.0000 C   0  0  0  0  0  0  0  0  0  0  0  0
    5.7847   -3.1277    0.0000 C   0  0  0  0  0  0  0  0  0  0  0  0
    8.6457   -1.4660    0.0000 O   0  0  0  0  0  0  0  0  0  0  0  0
    5.0642   -1.8866    0.0000 C   0  0  0  0  0  0  0  0  0  0  0  0
    4.3479   -1.4660    0.0000 O   0  0  0  0  0  0  0  0  0  0  0  0
    5.0642   -2.7029    0.0000 C   0  0  0  0  0  0  0  0  0  0  0  0
    2.1906   -1.9033    0.0000 C   0  0  0  0  0  0  0  0  0  0  0  0
    3.6357   -1.8866    0.0000 C   0  0  0  0  0  0  0  0  0  0  0  0
    2.9028   -1.4785    0.0000 C   0  0  0  0  0  0  0  0  0  0  0  0
    7.2007   -3.9481    0.0000 C   0  0  0  0  0  0  0  0  0  0  0  0
    1.4785   -1.4993    0.0000 C   0  0  0  0  0  0  0  0  0  0  0  0
    2.1906   -0.2499    0.0000 C   0  0  0  0  0  0  0  0  0  0  0  0
    2.9028   -0.6539    0.0000 C   0  0  0  0  0  0  0  0  0  0  0  0
    1.4660   -0.6664    0.0000 C   0  0  0  0  0  0  0  0  0  0  0  0
    0.7663   -1.9158    0.0000 C   0  0  0  0  0  0  0  0  0  0  0  0
  2  5  1  0  0  0  0
  3  1  1  0  0  0  0
  4  3  1  0  0  0  0
  5  1  1  0  0  0  0
  6  2  2  0  0  0  0
  7  1  2  0  0  0  0
  8  5  2  0  0  0  0
  9  4  2  0  0  0  0
 10  7  1  0  0  0  0
 11 10  1  0  0  0  0
 12 10  2  0  0  0  0
 13 15  1  0  0  0  0
 14 11  1  0  0  0  0
 15 14  1  0  0  0  0
 16  2  1  0  0  0  0
 17 13  2  0  0  0  0
 18 19  1  0  0  0  0
 19 15  2  0  0  0  0
 20 18  2  0  0  0  0
 21 17  1  0  0  0  0
 12  8  1  0  0  0  0
  4  6  1  0  0  0  0
 17 20  1  0  0  0  0
M  END
>  <IDNUMBER>
F0398-0056

>  <Chemical_Name>
4-methyl-7-[(3-methylphenyl)methoxy]-2H-chromen-2-one

>  <PriceCoeff>
1.00

>  <MW>
280.32

>  <Description>
solid

>  <FSP3>
0.17

>  <clogP>
4.51

>  <TPSA>
35.53

>  <Acceptor>
3

>  <Donor>
0

>  <RotBonds>
3

>  <HAC>
21

>  <Collection>
General

$$$$
F0400-0026
  Mrv2219 10102508112D          

 18 20  0  0  0  0            999 V2000
   -2.4000    0.9724    0.0000 C   0  0  0  0  0  0  0  0  0  0  0  0
   -2.4000    1.7948    0.0000 C   0  0  0  0  0  0  0  0  0  0  0  0
   -3.8432    0.9724    0.0000 C   0  0  0  0  0  0  0  0  0  0  0  0
   -3.1191    0.5586    0.0000 O   0  0  0  0  0  0  0  0  0  0  0  0
   -3.1191    2.1983    0.0000 C   0  0  0  0  0  0  0  0  0  0  0  0
   -3.8432    1.7948    0.0000 C   0  0  0  0  0  0  0  0  0  0  0  0
   -4.5570    0.5586    0.0000 C   0  0  0  0  0  0  0  0  0  0  0  0
   -4.5570    2.1983    0.0000 C   0  0  0  0  0  0  0  0  0  0  0  0
   -1.6759    0.5586    0.0000 C   0  0  0  0  0  0  0  0  0  0  0  0
   -3.2070    3.0828    0.0000 O   0  0  0  0  0  0  0  0  0  0  0  0
   -5.2760    0.9724    0.0000 C   0  0  0  0  0  0  0  0  0  0  0  0
   -5.2760    1.7948    0.0000 C   0  0  0  0  0  0  0  0  0  0  0  0
   -5.8968    0.5379    0.0000 Cl  0  0  0  0  0  0  0  0  0  0  0  0
   -1.6707   -0.2690    0.0000 C   0  0  0  0  0  0  0  0  0  0  0  0
   -0.9879    0.9879    0.0000 C   0  0  0  0  0  0  0  0  0  0  0  0
   -0.2431    0.5741    0.0000 C   0  0  0  0  0  0  0  0  0  0  0  0
   -0.9311   -0.6828    0.0000 C   0  0  0  0  0  0  0  0  0  0  0  0
   -0.2275   -0.2327    0.0000 C   0  0  0  0  0  0  0  0  0  0  0  0
  2  1  2  0  0  0  0
  3  4  1  0  0  0  0
  4  1  1  0  0  0  0
  5  2  1  0  0  0  0
  6  3  2  0  0  0  0
  7  3  1  0  0  0  0
  8  6  1  0  0  0  0
  9  1  1  0  0  0  0
 10  5  2  0  0  0  0
 11  7  2  0  0  0  0
 12 11  1  0  0  0  0
 13 11  1  0  0  0  0
 14  9  2  0  0  0  0
 15  9  1  0  0  0  0
 16 15  2  0  0  0  0
 17 14  1  0  0  0  0
 18 16  1  0  0  0  0
  6  5  1  0  0  0  0
 18 17  2  0  0  0  0
  8 12  2  0  0  0  0
M  END
>  <IDNUMBER>
F0400-0026

>  <Chemical_Name>
7-chloro-2-phenyl-4H-chromen-4-one

>  <PriceCoeff>
1.00

>  <CAS>
1148-48-7

>  <MW>
256.68

>  <Description>
solid

>  <FSP3>
0.00

>  <clogP>
4.19

>  <TPSA>
26.30

>  <Acceptor>
2

>  <Donor>
0

>  <RotBonds>
1

>  <HAC>
18

>  <Collection>
General

$$$$
F0403-0053
  Mrv2219 10102508112D          

 17 18  0  0  0  0            999 V2000
    5.1075   -4.3204    0.0000 C   0  0  0  0  0  0  0  0  0  0  0  0
    5.1075   -3.5157    0.0000 C   0  0  0  0  0  0  0  0  0  0  0  0
    4.3947   -4.7401    0.0000 N   0  0  0  0  0  0  0  0  0  0  0  0
    3.6907   -4.3335    0.0000 C   0  0  0  0  0  0  0  0  0  0  0  0
    3.6907   -3.5157    0.0000 N   0  0  0  0  0  0  0  0  0  0  0  0
    5.8114   -4.7401    0.0000 N   0  0  0  0  0  0  0  0  0  0  0  0
    4.3947   -3.1003    0.0000 C   0  0  0  0  0  0  0  0  0  0  0  0
    6.5242   -3.5201    0.0000 N   0  0  0  0  0  0  0  0  0  0  0  0
    6.5111   -4.3553    0.0000 C   0  0  0  0  0  0  0  0  0  0  0  0
    7.3856   -3.5201    0.0000 C   0  0  0  0  0  0  0  0  0  0  0  0
    2.9779   -4.7401    0.0000 O   0  0  0  0  0  0  0  0  0  0  0  0
    7.8186   -2.7811    0.0000 C   0  0  0  0  0  0  0  0  0  0  0  0
    4.3947   -2.2739    0.0000 O   0  0  0  0  0  0  0  0  0  0  0  0
    7.3769   -2.0115    0.0000 O   0  0  0  0  0  0  0  0  0  0  0  0
    4.3947   -5.5622    0.0000 C   0  0  0  0  0  0  0  0  0  0  0  0
    8.6757   -2.7811    0.0000 O   0  0  0  0  0  0  0  0  0  0  0  0
    9.1086   -3.5201    0.0000 C   0  0  0  0  0  0  0  0  0  0  0  0
  2  1  2  0  0  0  0
  3  1  1  0  0  0  0
  4  3  1  0  0  0  0
  5  4  1  0  0  0  0
  6  1  1  0  0  0  0
  7  2  1  0  0  0  0
  8  2  1  0  0  0  0
  9  6  2  0  0  0  0
 10  8  1  0  0  0  0
 11  4  2  0  0  0  0
 12 10  1  0  0  0  0
 13  7  2  0  0  0  0
 14 12  2  0  0  0  0
 15  3  1  0  0  0  0
 16 12  1  0  0  0  0
 17 16  1  0  0  0  0
  9  8  1  0  0  0  0
  7  5  1  0  0  0  0
M  END
>  <IDNUMBER>
F0403-0053

>  <Chemical_Name>
methyl 2-(3-methyl-2,6-dioxo-2,3,6,7-tetrahydro-1H-purin-7-yl)acetate

>  <PriceCoeff>
1.00

>  <CAS>
332103-74-9

>  <MW>
238.20

>  <Description>
solid

>  <FSP3>
0.33

>  <clogP>
-0.90

>  <TPSA>
93.53

>  <Acceptor>
5

>  <Donor>
2

>  <RotBonds>
3

>  <HAC>
17

>  <Collection>
General

>  <PPDS>
+

$$$$
F0406-1022
  Mrv2219 10102508112D          

 18 21  0  0  0  0            999 V2000
   -1.4233   -0.0560    0.0000 C   0  0  0  0  0  0  0  0  0  0  0  0
   -1.6380   -0.8400    0.0000 C   0  0  0  0  0  0  0  0  0  0  0  0
   -0.6533    0.2380    0.0000 N   0  0  0  0  0  0  0  0  0  0  0  0
   -1.9413    0.6113    0.0000 N   0  0  0  0  0  0  0  0  0  0  0  0
   -1.1153   -1.4747    0.0000 C   0  0  0  0  0  0  0  0  0  0  0  0
   -2.4081   -1.0967    0.0000 C   0  0  0  0  0  0  0  0  0  0  0  0
   -1.6193   -2.1840    0.0000 N   0  0  0  0  0  0  0  0  0  0  0  0
   -0.6860    1.0873    0.0000 C   0  0  0  0  0  0  0  0  0  0  0  0
   -1.4233    1.3020    0.0000 C   0  0  0  0  0  0  0  0  0  0  0  0
   -2.4081   -1.9087    0.0000 C   0  0  0  0  0  0  0  0  0  0  0  0
   -3.1361   -0.6767    0.0000 C   0  0  0  0  0  0  0  0  0  0  0  0
   -0.0793    1.6473    0.0000 C   0  0  0  0  0  0  0  0  0  0  0  0
   -1.6473    2.1093    0.0000 C   0  0  0  0  0  0  0  0  0  0  0  0
   -3.1361   -2.3521    0.0000 C   0  0  0  0  0  0  0  0  0  0  0  0
   -3.8454   -1.0967    0.0000 C   0  0  0  0  0  0  0  0  0  0  0  0
   -0.2800    2.4874    0.0000 C   0  0  0  0  0  0  0  0  0  0  0  0
   -1.0313    2.7021    0.0000 C   0  0  0  0  0  0  0  0  0  0  0  0
   -3.8454   -1.9087    0.0000 C   0  0  0  0  0  0  0  0  0  0  0  0
  2  1  1  0  0  0  0
  3  1  2  0  0  0  0
  4  1  1  0  0  0  0
  5  2  2  0  0  0  0
  6  2  1  0  0  0  0
  7  5  1  0  0  0  0
  8  3  1  0  0  0  0
  9  4  1  0  0  0  0
 10  6  2  0  0  0  0
 11  6  1  0  0  0  0
 12  8  1  0  0  0  0
 13  9  1  0  0  0  0
 14 10  1  0  0  0  0
 15 11  2  0  0  0  0
 16 12  2  0  0  0  0
 17 13  2  0  0  0  0
 18 15  1  0  0  0  0
  9  8  2  0  0  0  0
  7 10  1  0  0  0  0
 17 16  1  0  0  0  0
 14 18  2  0  0  0  0
M  END
>  <IDNUMBER>
F0406-1022

>  <Chemical_Name>
2-(1H-indol-3-yl)-1H-1,3-benzodiazole

>  <PriceCoeff>
1.00

>  <CAS>
54634-78-5

>  <MW>
233.27

>  <Description>
solid

>  <FSP3>
0.00

>  <clogP>
3.80

>  <TPSA>
44.47

>  <Acceptor>
2

>  <Donor>
3

>  <RotBonds>
1

>  <HAC>
18

>  <Collection>
General

>  <PPDS>
+

$$$$
F0412-0066
  Mrv2219 10102508112D          

 27 29  0  0  0  0            999 V2000
   -0.6531    4.6406    0.0000 N   0  0  0  0  0  0  0  0  0  0  0  0
   -7.1156    3.4856    0.0000 C   0  0  0  0  0  0  0  0  0  0  0  0
    0.0894    4.2418    0.0000 C   0  0  0  0  0  0  0  0  0  0  0  0
   -0.5156    5.4381    0.0000 C   0  0  0  0  0  0  0  0  0  0  0  0
   -3.5199    3.0525    0.0000 C   0  0  0  0  0  0  0  0  0  0  0  0
   -4.2418    3.4856    0.0000 N   0  0  0  0  0  0  0  0  0  0  0  0
   -4.9706    3.0525    0.0000 C   0  0  0  0  0  0  0  0  0  0  0  0
   -6.3868    3.0525    0.0000 C   0  0  0  0  0  0  0  0  0  0  0  0
   -1.3749    4.2418    0.0000 C   0  0  0  0  0  0  0  0  0  0  0  0
   -5.6925    3.4581    0.0000 C   0  0  0  0  0  0  0  0  0  0  0  0
   -2.8256    3.4581    0.0000 C   0  0  0  0  0  0  0  0  0  0  0  0
   -4.9706    2.2275    0.0000 C   0  0  0  0  0  0  0  0  0  0  0  0
   -3.5475    2.2275    0.0000 O   0  0  0  0  0  0  0  0  0  0  0  0
    0.2957    5.5412    0.0000 C   0  0  0  0  0  0  0  0  0  0  0  0
    0.6600    4.8399    0.0000 C   0  0  0  0  0  0  0  0  0  0  0  0
   -1.0725    6.0225    0.0000 O   0  0  0  0  0  0  0  0  0  0  0  0
    0.2544    3.4168    0.0000 O   0  0  0  0  0  0  0  0  0  0  0  0
   -6.3868    2.2275    0.0000 C   0  0  0  0  0  0  0  0  0  0  0  0
   -1.4025    3.4168    0.0000 C   0  0  0  0  0  0  0  0  0  0  0  0
   -2.0968    4.6749    0.0000 C   0  0  0  0  0  0  0  0  0  0  0  0
   -2.0968    3.0249    0.0000 C   0  0  0  0  0  0  0  0  0  0  0  0
   -2.7981    4.2831    0.0000 C   0  0  0  0  0  0  0  0  0  0  0  0
   -5.6925    1.8081    0.0000 C   0  0  0  0  0  0  0  0  0  0  0  0
   -6.7168    4.2075    0.0000 F   0  0  0  0  0  0  0  0  0  0  0  0
   -7.5418    2.7568    0.0000 F   0  0  0  0  0  0  0  0  0  0  0  0
   -7.8375    3.8775    0.0000 F   0  0  0  0  0  0  0  0  0  0  0  0
   -4.2831    1.7668    0.0000 Cl  0  0  0  0  0  0  0  0  0  0  0  0
  2  8  1  0  0  0  0
  3  1  1  0  0  0  0
  4  1  1  0  0  0  0
  5 11  1  0  0  0  0
  6  5  1  0  0  0  0
  7  6  1  0  0  0  0
  8 10  2  0  0  0  0
  9  1  1  0  0  0  0
 10  7  1  0  0  0  0
 11 22  1  0  0  0  0
 12  7  2  0  0  0  0
 13  5  2  0  0  0  0
 14  4  1  0  0  0  0
 15  3  1  0  0  0  0
 16  4  2  0  0  0  0
 17  3  2  0  0  0  0
 18 23  2  0  0  0  0
 19  9  2  0  0  0  0
 20  9  1  0  0  0  0
 21 19  1  0  0  0  0
 22 20  2  0  0  0  0
 23 12  1  0  0  0  0
 24  2  1  0  0  0  0
 25  2  1  0  0  0  0
 26  2  1  0  0  0  0
 27 12  1  0  0  0  0
 14 15  1  0  0  0  0
 21 11  2  0  0  0  0
 18  8  1  0  0  0  0
M  END
>  <IDNUMBER>
F0412-0066

>  <Chemical_Name>
N-[2-chloro-5-(trifluoromethyl)phenyl]-4-(2,5-dioxopyrrolidin-1-yl)benzamide

>  <PriceCoeff>
1.00

>  <CAS>
392289-90-6

>  <MW>
396.75

>  <Description>
solid

>  <FSP3>
0.17

>  <clogP>
2.08

>  <TPSA>
66.48

>  <Acceptor>
3

>  <Donor>
1

>  <RotBonds>
3

>  <HAC>
27

>  <Collection>
General

>  <PPDS>
+

$$$$
F0412-0104
  Mrv2219 10102508112D          

 24 27  0  0  0  0            999 V2000
   -4.1979    3.4972    0.0000 N   0  0  0  0  0  0  0  0  0  0  0  0
   -0.6527    4.6377    0.0000 N   0  0  0  0  0  0  0  0  0  0  0  0
   -3.5178    3.0506    0.0000 C   0  0  0  0  0  0  0  0  0  0  0  0
    0.0894    4.2392    0.0000 C   0  0  0  0  0  0  0  0  0  0  0  0
   -0.5153    5.4346    0.0000 C   0  0  0  0  0  0  0  0  0  0  0  0
   -4.9675    3.2086    0.0000 C   0  0  0  0  0  0  0  0  0  0  0  0
   -4.2598    4.3628    0.0000 C   0  0  0  0  0  0  0  0  0  0  0  0
   -1.3741    4.2392    0.0000 C   0  0  0  0  0  0  0  0  0  0  0  0
   -2.8239    3.4559    0.0000 C   0  0  0  0  0  0  0  0  0  0  0  0
   -3.5452    2.2261    0.0000 O   0  0  0  0  0  0  0  0  0  0  0  0
   -5.4965    3.8269    0.0000 C   0  0  0  0  0  0  0  0  0  0  0  0
    0.2955    5.5377    0.0000 C   0  0  0  0  0  0  0  0  0  0  0  0
    0.6596    4.8369    0.0000 C   0  0  0  0  0  0  0  0  0  0  0  0
    0.2543    3.4147    0.0000 O   0  0  0  0  0  0  0  0  0  0  0  0
   -1.0718    6.0187    0.0000 O   0  0  0  0  0  0  0  0  0  0  0  0
   -5.0636    4.5277    0.0000 C   0  0  0  0  0  0  0  0  0  0  0  0
   -2.0956    4.6720    0.0000 C   0  0  0  0  0  0  0  0  0  0  0  0
   -1.4016    3.4147    0.0000 C   0  0  0  0  0  0  0  0  0  0  0  0
   -2.7963    4.2804    0.0000 C   0  0  0  0  0  0  0  0  0  0  0  0
   -2.0956    3.0231    0.0000 C   0  0  0  0  0  0  0  0  0  0  0  0
   -5.2697    2.3910    0.0000 C   0  0  0  0  0  0  0  0  0  0  0  0
   -6.3486    3.7032    0.0000 C   0  0  0  0  0  0  0  0  0  0  0  0
   -6.1012    2.2604    0.0000 C   0  0  0  0  0  0  0  0  0  0  0  0
   -6.6301    2.9200    0.0000 C   0  0  0  0  0  0  0  0  0  0  0  0
  2  8  1  0  0  0  0
  3  1  1  0  0  0  0
  4  2  1  0  0  0  0
  5  2  1  0  0  0  0
  6  1  1  0  0  0  0
  7  1  1  0  0  0  0
  8 18  2  0  0  0  0
  9  3  1  0  0  0  0
 10  3  2  0  0  0  0
 11  6  2  0  0  0  0
 12  5  1  0  0  0  0
 13  4  1  0  0  0  0
 14  4  2  0  0  0  0
 15  5  2  0  0  0  0
 16  7  1  0  0  0  0
 17 19  2  0  0  0  0
 18 20  1  0  0  0  0
 19  9  1  0  0  0  0
 20  9  2  0  0  0  0
 21  6  1  0  0  0  0
 22 11  1  0  0  0  0
 23 21  2  0  0  0  0
 24 23  1  0  0  0  0
 16 11  1  0  0  0  0
 22 24  2  0  0  0  0
 17  8  1  0  0  0  0
 12 13  1  0  0  0  0
M  END
>  <IDNUMBER>
F0412-0104

>  <Chemical_Name>
1-[4-(2,3-dihydro-1H-indole-1-carbonyl)phenyl]pyrrolidine-2,5-dione

>  <PriceCoeff>
1.00

>  <CAS>
392289-97-3

>  <MW>
320.34

>  <Description>
solid

>  <FSP3>
0.21

>  <clogP>
0.96

>  <TPSA>
57.69

>  <Acceptor>
3

>  <Donor>
0

>  <RotBonds>
3

>  <HAC>
24

>  <Collection>
General

>  <PPDS>
+

$$$$
F0412-0123
  Mrv2219 10102508112D          

 25 28  0  0  0  0            999 V2000
   -0.6574    4.6714    0.0000 N   0  0  0  0  0  0  0  0  0  0  0  0
   -4.2285    3.5226    0.0000 N   0  0  0  0  0  0  0  0  0  0  0  0
   -3.5433    3.0728    0.0000 C   0  0  0  0  0  0  0  0  0  0  0  0
   -0.5190    5.4742    0.0000 C   0  0  0  0  0  0  0  0  0  0  0  0
    0.0900    4.2700    0.0000 C   0  0  0  0  0  0  0  0  0  0  0  0
   -4.9551    3.1488    0.0000 C   0  0  0  0  0  0  0  0  0  0  0  0
   -1.3841    4.2700    0.0000 C   0  0  0  0  0  0  0  0  0  0  0  0
   -5.6680    3.5641    0.0000 C   0  0  0  0  0  0  0  0  0  0  0  0
   -2.8444    3.4810    0.0000 C   0  0  0  0  0  0  0  0  0  0  0  0
   -4.2077    4.3530    0.0000 C   0  0  0  0  0  0  0  0  0  0  0  0
   -3.5711    2.2423    0.0000 O   0  0  0  0  0  0  0  0  0  0  0  0
    0.2976    5.5780    0.0000 C   0  0  0  0  0  0  0  0  0  0  0  0
    0.6644    4.8721    0.0000 C   0  0  0  0  0  0  0  0  0  0  0  0
   -5.6473    4.3946    0.0000 C   0  0  0  0  0  0  0  0  0  0  0  0
   -1.0796    6.0625    0.0000 O   0  0  0  0  0  0  0  0  0  0  0  0
    0.2561    3.4395    0.0000 O   0  0  0  0  0  0  0  0  0  0  0  0
   -4.8998    4.7890    0.0000 C   0  0  0  0  0  0  0  0  0  0  0  0
   -2.1107    4.7060    0.0000 C   0  0  0  0  0  0  0  0  0  0  0  0
   -1.4118    3.4395    0.0000 C   0  0  0  0  0  0  0  0  0  0  0  0
   -2.8166    4.3115    0.0000 C   0  0  0  0  0  0  0  0  0  0  0  0
   -2.1107    3.0450    0.0000 C   0  0  0  0  0  0  0  0  0  0  0  0
   -6.3947    3.1904    0.0000 C   0  0  0  0  0  0  0  0  0  0  0  0
   -6.3462    4.8375    0.0000 C   0  0  0  0  0  0  0  0  0  0  0  0
   -7.0936    3.6056    0.0000 C   0  0  0  0  0  0  0  0  0  0  0  0
   -7.0591    4.4568    0.0000 C   0  0  0  0  0  0  0  0  0  0  0  0
  2  3  1  0  0  0  0
  3  9  1  0  0  0  0
  4  1  1  0  0  0  0
  5  1  1  0  0  0  0
  6  2  1  0  0  0  0
  7  1  1  0  0  0  0
  8  6  1  0  0  0  0
  9 21  2  0  0  0  0
 10  2  1  0  0  0  0
 11  3  2  0  0  0  0
 12  4  1  0  0  0  0
 13  5  1  0  0  0  0
 14 17  1  0  0  0  0
 15  4  2  0  0  0  0
 16  5  2  0  0  0  0
 17 10  1  0  0  0  0
 18  7  1  0  0  0  0
 19  7  2  0  0  0  0
 20 18  2  0  0  0  0
 21 19  1  0  0  0  0
 22  8  1  0  0  0  0
 23 14  1  0  0  0  0
 24 22  2  0  0  0  0
 25 23  2  0  0  0  0
 13 12  1  0  0  0  0
  9 20  1  0  0  0  0
  8 14  2  0  0  0  0
 24 25  1  0  0  0  0
M  END
>  <IDNUMBER>
F0412-0123

>  <Chemical_Name>
1-[4-(1,2,3,4-tetrahydroisoquinoline-2-carbonyl)phenyl]pyrrolidine-2,5-dione

>  <PriceCoeff>
1.00

>  <CAS>
392290-03-8

>  <MW>
334.37

>  <Description>
solid

>  <FSP3>
0.25

>  <clogP>
1.41

>  <TPSA>
57.69

>  <Acceptor>
3

>  <Donor>
0

>  <RotBonds>
3

>  <HAC>
25

>  <Collection>
General

>  <PPDS>
+

$$$$
F0415-0017
  Mrv2219 10102508112D          

 17 19  0  0  0  0            999 V2000
   -1.7149   -0.2269    0.0000 C   0  0  0  0  0  0  0  0  0  0  0  0
   -1.7149    0.5803    0.0000 C   0  0  0  0  0  0  0  0  0  0  0  0
   -2.4291   -0.6399    0.0000 O   0  0  0  0  0  0  0  0  0  0  0  0
   -2.4291    0.9932    0.0000 C   0  0  0  0  0  0  0  0  0  0  0  0
   -3.1248    0.5803    0.0000 C   0  0  0  0  0  0  0  0  0  0  0  0
   -3.1248   -0.2269    0.0000 C   0  0  0  0  0  0  0  0  0  0  0  0
   -1.0006   -0.6399    0.0000 C   0  0  0  0  0  0  0  0  0  0  0  0
   -2.4291    1.8153    0.0000 O   0  0  0  0  0  0  0  0  0  0  0  0
    0.4167   -1.4731    0.0000 N   0  0  0  0  0  0  0  0  0  0  0  0
   -3.8390    0.9932    0.0000 C   0  0  0  0  0  0  0  0  0  0  0  0
   -3.8390   -0.6399    0.0000 C   0  0  0  0  0  0  0  0  0  0  0  0
   -0.3087   -1.8749    0.0000 C   0  0  0  0  0  0  0  0  0  0  0  0
    0.4167   -0.6399    0.0000 C   0  0  0  0  0  0  0  0  0  0  0  0
   -1.0006   -1.4731    0.0000 C   0  0  0  0  0  0  0  0  0  0  0  0
   -0.3087   -0.2269    0.0000 C   0  0  0  0  0  0  0  0  0  0  0  0
   -4.5532    0.5803    0.0000 C   0  0  0  0  0  0  0  0  0  0  0  0
   -4.5532   -0.2269    0.0000 C   0  0  0  0  0  0  0  0  0  0  0  0
  2  1  2  0  0  0  0
  3  1  1  0  0  0  0
  4  2  1  0  0  0  0
  5  6  2  0  0  0  0
  6  3  1  0  0  0  0
  7  1  1  0  0  0  0
  8  4  2  0  0  0  0
  9 13  2  0  0  0  0
 10  5  1  0  0  0  0
 11  6  1  0  0  0  0
 12 14  2  0  0  0  0
 13 15  1  0  0  0  0
 14  7  1  0  0  0  0
 15  7  2  0  0  0  0
 16 17  1  0  0  0  0
 17 11  2  0  0  0  0
  9 12  1  0  0  0  0
  5  4  1  0  0  0  0
 10 16  2  0  0  0  0
M  END
>  <IDNUMBER>
F0415-0017

>  <Chemical_Name>
2-(pyridin-4-yl)-4H-chromen-4-one

>  <PriceCoeff>
1.50

>  <CAS>
3034-16-0

>  <MW>
223.23

>  <Description>
solid

>  <FSP3>
0.00

>  <clogP>
1.75

>  <TPSA>
39.19

>  <Acceptor>
3

>  <Donor>
1

>  <RotBonds>
1

>  <HAC>
17

>  <Collection>
Advanced

$$$$
F0417-0064
  Mrv2219 10102508112D          

 29 31  0  0  0  0            999 V2000
   -0.8921   -0.5106    0.0000 C   0  0  0  0  0  0  0  0  0  0  0  0
    3.2036    0.4713    0.0000 N   0  3  0  0  0  0  0  0  0  0  0  0
    2.5640    0.0448    0.0000 C   0  0  0  0  0  0  0  0  0  0  0  0
   -1.5933   -0.8136    0.0000 S   0  0  0  0  0  0  0  0  0  0  0  0
   -0.0953   -0.5891    0.0000 N   0  0  0  0  0  0  0  0  0  0  0  0
   -2.2386   -0.4040    0.0000 C   0  0  0  0  0  0  0  0  0  0  0  0
   -1.1052    0.2973    0.0000 N   0  0  0  0  0  0  0  0  0  0  0  0
   -1.9973    0.3141    0.0000 N   0  0  0  0  0  0  0  0  0  0  0  0
    0.3366   -0.1235    0.0000 C   0  0  0  0  0  0  0  0  0  0  0  0
    1.7336    0.2693    0.0000 C   0  0  0  0  0  0  0  0  0  0  0  0
    1.1670   -0.3198    0.0000 C   0  0  0  0  0  0  0  0  0  0  0  0
    2.7660   -0.6059    0.0000 C   0  0  0  0  0  0  0  0  0  0  0  0
    3.1363    1.2399    0.0000 O   0  5  0  0  0  0  0  0  0  0  0  0
   -4.2190   -1.4363    0.0000 C   0  0  0  0  0  0  0  0  0  0  0  0
    3.9554    0.1347    0.0000 O   0  0  0  0  0  0  0  0  0  0  0  0
   -3.0913   -0.5779    0.0000 S   0  0  0  0  0  0  0  0  0  0  0  0
   -4.7576   -0.8809    0.0000 N   0  0  0  0  0  0  0  0  0  0  0  0
    0.1178    0.6733    0.0000 O   0  0  0  0  0  0  0  0  0  0  0  0
    1.3690   -0.9819    0.0000 C   0  0  0  0  0  0  0  0  0  0  0  0
   -4.4603   -2.2611    0.0000 O   0  0  0  0  0  0  0  0  0  0  0  0
    2.1769   -1.2175    0.0000 C   0  0  0  0  0  0  0  0  0  0  0  0
   -3.4111   -1.2792    0.0000 C   0  0  0  0  0  0  0  0  0  0  0  0
    3.6581   -0.8304    0.0000 Cl  0  0  0  0  0  0  0  0  0  0  0  0
   -4.5108   -0.2076    0.0000 C   0  0  0  0  0  0  0  0  0  0  0  0
   -5.0774    0.4208    0.0000 C   0  0  0  0  0  0  0  0  0  0  0  0
   -3.8544   -0.0393    0.0000 C   0  0  0  0  0  0  0  0  0  0  0  0
   -4.8249    1.2062    0.0000 C   0  0  0  0  0  0  0  0  0  0  0  0
   -3.6356    0.7686    0.0000 C   0  0  0  0  0  0  0  0  0  0  0  0
   -3.9722    1.3633    0.0000 C   0  0  0  0  0  0  0  0  0  0  0  0
  2  3  1  0  0  0  0
  3 10  1  0  0  0  0
  4  1  1  0  0  0  0
  5  1  1  0  0  0  0
  6  4  1  0  0  0  0
  7  1  2  0  0  0  0
  8  7  1  0  0  0  0
  9  5  1  0  0  0  0
 10 11  2  0  0  0  0
 11  9  1  0  0  0  0
 12 21  1  0  0  0  0
 13  2  1  0  0  0  0
 14 22  1  0  0  0  0
 15  2  2  0  0  0  0
 16  6  1  0  0  0  0
 17 14  1  0  0  0  0
 18  9  2  0  0  0  0
 19 11  1  0  0  0  0
 20 14  2  0  0  0  0
 21 19  2  0  0  0  0
 22 16  1  0  0  0  0
 23 12  1  0  0  0  0
 24 17  1  0  0  0  0
 25 24  2  0  0  0  0
 26 24  1  0  0  0  0
 27 25  1  0  0  0  0
 28 26  2  0  0  0  0
 29 28  1  0  0  0  0
  8  6  2  0  0  0  0
  3 12  2  0  0  0  0
 29 27  2  0  0  0  0
M  CHG  2   2   1  13  -1
M  END
>  <IDNUMBER>
F0417-0064

>  <Chemical_Name>
4-chloro-3-nitro-N-(5-{[(phenylcarbamoyl)methyl]sulfanyl}-1,3,4-thiadiazol-2-yl)benzamide

>  <PriceCoeff>
1.00

>  <CAS>
392291-07-5

>  <MW>
449.89

>  <Description>
solid

>  <FSP3>
0.06

>  <clogP>
2.89

>  <TPSA>
180.66

>  <Acceptor>
6

>  <Donor>
2

>  <RotBonds>
7

>  <HAC>
29

>  <Collection>
General

>  <PPDS>
+

$$$$
F0417-2081
  Mrv2219 10102508112D          

 25 26  0  0  0  0            999 V2000
    0.4828   -0.0920    0.0000 C   0  0  0  0  0  0  0  0  0  0  0  0
    4.6441    1.2587    0.0000 N   0  3  0  0  0  0  0  0  0  0  0  0
    4.1382    0.6149    0.0000 C   0  0  0  0  0  0  0  0  0  0  0  0
   -0.2069   -0.6035    0.0000 S   0  0  0  0  0  0  0  0  0  0  0  0
    1.3622   -0.3679    0.0000 N   0  0  0  0  0  0  0  0  0  0  0  0
   -0.8966   -0.0748    0.0000 C   0  0  0  0  0  0  0  0  0  0  0  0
    0.2127    0.5690    0.0000 N   0  0  0  0  0  0  0  0  0  0  0  0
   -0.6494    0.5690    0.0000 N   0  0  0  0  0  0  0  0  0  0  0  0
    2.0002    0.2011    0.0000 C   0  0  0  0  0  0  0  0  0  0  0  0
    3.3164    0.7356    0.0000 C   0  0  0  0  0  0  0  0  0  0  0  0
    2.8106    0.0862    0.0000 C   0  0  0  0  0  0  0  0  0  0  0  0
    4.4372   -0.1610    0.0000 C   0  0  0  0  0  0  0  0  0  0  0  0
    4.3279    2.0002    0.0000 O   0  5  0  0  0  0  0  0  0  0  0  0
    5.4717    1.1667    0.0000 O   0  0  0  0  0  0  0  0  0  0  0  0
   -1.7932   -0.2127    0.0000 S   0  0  0  0  0  0  0  0  0  0  0  0
   -2.9944    0.2356    0.0000 C   0  0  0  0  0  0  0  0  0  0  0  0
    1.8335    0.8736    0.0000 O   0  0  0  0  0  0  0  0  0  0  0  0
    3.1037   -0.6725    0.0000 C   0  0  0  0  0  0  0  0  0  0  0  0
   -3.3048   -0.5576    0.0000 O   0  0  0  0  0  0  0  0  0  0  0  0
    3.9141   -0.7990    0.0000 C   0  0  0  0  0  0  0  0  0  0  0  0
   -2.1668    0.4311    0.0000 C   0  0  0  0  0  0  0  0  0  0  0  0
    5.3510   -0.3162    0.0000 Cl  0  0  0  0  0  0  0  0  0  0  0  0
   -3.5865    0.7587    0.0000 O   0  0  0  0  0  0  0  0  0  0  0  0
   -4.5521    0.4311    0.0000 C   0  0  0  0  0  0  0  0  0  0  0  0
   -5.1325    1.1667    0.0000 C   0  0  0  0  0  0  0  0  0  0  0  0
  2  3  1  0  0  0  0
  3 10  1  0  0  0  0
  4  1  1  0  0  0  0
  5  1  1  0  0  0  0
  6  4  1  0  0  0  0
  7  1  2  0  0  0  0
  8  7  1  0  0  0  0
  9  5  1  0  0  0  0
 10 11  2  0  0  0  0
 11  9  1  0  0  0  0
 12 20  1  0  0  0  0
 13  2  1  0  0  0  0
 14  2  2  0  0  0  0
 15  6  1  0  0  0  0
 16 21  1  0  0  0  0
 17  9  2  0  0  0  0
 18 11  1  0  0  0  0
 19 16  2  0  0  0  0
 20 18  2  0  0  0  0
 21 15  1  0  0  0  0
 22 12  1  0  0  0  0
 23 16  1  0  0  0  0
 24 23  1  0  0  0  0
 25 24  1  0  0  0  0
  8  6  2  0  0  0  0
 12  3  2  0  0  0  0
M  CHG  2   2   1  13  -1
M  END
>  <IDNUMBER>
F0417-2081

>  <Chemical_Name>
ethyl 2-{[5-(4-chloro-3-nitrobenzamido)-1,3,4-thiadiazol-2-yl]sulfanyl}acetate

>  <PriceCoeff>
1.00

>  <CAS>
392318-48-8

>  <MW>
402.83

>  <Description>
solid

>  <FSP3>
0.23

>  <clogP>
2.44

>  <TPSA>
177.86

>  <Acceptor>
7

>  <Donor>
1

>  <RotBonds>
8

>  <HAC>
25

>  <Collection>
General

>  <PPDS>
+

$$$$
F0425-0017
  Mrv2219 10102508112D          

 24 26  0  0  0  0            999 V2000
    2.9091   -2.5836    0.0000 N   0  0  0  0  0  0  0  0  0  0  0  0
    3.4058   -1.9200    0.0000 C   0  0  0  0  0  0  0  0  0  0  0  0
    3.3932   -3.2555    0.0000 C   0  0  0  0  0  0  0  0  0  0  0  0
    0.4508   -1.1520    0.0000 N   0  3  0  0  0  0  0  0  0  0  0  0
    4.1863   -3.0051    0.0000 C   0  0  0  0  0  0  0  0  0  0  0  0
    4.1863   -2.1704    0.0000 C   0  0  0  0  0  0  0  0  0  0  0  0
    2.0910   -2.5836    0.0000 C   0  0  0  0  0  0  0  0  0  0  0  0
    1.6821   -1.8699    0.0000 C   0  0  0  0  0  0  0  0  0  0  0  0
    0.8556   -1.8699    0.0000 C   0  0  0  0  0  0  0  0  0  0  0  0
    4.8582   -3.4851    0.0000 N   0  0  0  0  0  0  0  0  0  0  0  0
    0.8556   -0.4382    0.0000 O   0  5  0  0  0  0  0  0  0  0  0  0
    3.1428   -1.1311    0.0000 O   0  0  0  0  0  0  0  0  0  0  0  0
   -0.3714   -1.1520    0.0000 O   0  0  0  0  0  0  0  0  0  0  0  0
    3.1428   -4.0444    0.0000 O   0  0  0  0  0  0  0  0  0  0  0  0
    5.6095   -3.1553    0.0000 C   0  0  0  0  0  0  0  0  0  0  0  0
    1.6821   -3.2931    0.0000 C   0  0  0  0  0  0  0  0  0  0  0  0
    7.1163   -2.4917    0.0000 C   0  0  0  0  0  0  0  0  0  0  0  0
    6.2648   -3.6437    0.0000 C   0  0  0  0  0  0  0  0  0  0  0  0
    5.6888   -2.3332    0.0000 C   0  0  0  0  0  0  0  0  0  0  0  0
    6.4484   -2.0034    0.0000 C   0  0  0  0  0  0  0  0  0  0  0  0
    7.0286   -3.3098    0.0000 C   0  0  0  0  0  0  0  0  0  0  0  0
    0.4508   -2.5836    0.0000 C   0  0  0  0  0  0  0  0  0  0  0  0
    0.8514   -3.2931    0.0000 C   0  0  0  0  0  0  0  0  0  0  0  0
    7.8675   -2.1536    0.0000 C   0  0  0  0  0  0  0  0  0  0  0  0
  2  1  1  0  0  0  0
  3  1  1  0  0  0  0
  4  9  1  0  0  0  0
  5  3  1  0  0  0  0
  6  2  1  0  0  0  0
  7  1  1  0  0  0  0
  8  7  1  0  0  0  0
  9  8  2  0  0  0  0
 10  5  1  0  0  0  0
 11  4  1  0  0  0  0
 12  2  2  0  0  0  0
 13  4  2  0  0  0  0
 14  3  2  0  0  0  0
 15 10  1  0  0  0  0
 16  7  2  0  0  0  0
 17 20  1  0  0  0  0
 18 15  2  0  0  0  0
 19 15  1  0  0  0  0
 20 19  2  0  0  0  0
 21 18  1  0  0  0  0
 22 23  2  0  0  0  0
 23 16  1  0  0  0  0
 24 17  1  0  0  0  0
  5  6  1  0  0  0  0
  9 22  1  0  0  0  0
 21 17  2  0  0  0  0
M  CHG  2   4   1  11  -1
M  END
>  <IDNUMBER>
F0425-0017

>  <Chemical_Name>
3-[(4-methylphenyl)amino]-1-(3-nitrophenyl)pyrrolidine-2,5-dione

>  <PriceCoeff>
1.00

>  <CAS>
476410-22-7

>  <MW>
325.32

>  <Description>
solid

>  <FSP3>
0.18

>  <clogP>
3.33

>  <TPSA>
92.55

>  <Acceptor>
5

>  <Donor>
1

>  <RotBonds>
4

>  <HAC>
24

>  <Collection>
General

>  <PPDS>
+

$$$$
F0425-0019
  Mrv2219 10102508112D          

 25 27  0  0  0  0            999 V2000
    3.1311   -2.1055    0.0000 N   0  0  0  0  0  0  0  0  0  0  0  0
    3.6064   -1.4384    0.0000 C   0  0  0  0  0  0  0  0  0  0  0  0
    3.6064   -2.7809    0.0000 C   0  0  0  0  0  0  0  0  0  0  0  0
    0.6546   -0.6671    0.0000 N   0  3  0  0  0  0  0  0  0  0  0  0
    4.3901   -2.5182    0.0000 C   0  0  0  0  0  0  0  0  0  0  0  0
    4.3901   -1.7010    0.0000 C   0  0  0  0  0  0  0  0  0  0  0  0
    2.3014   -2.1055    0.0000 C   0  0  0  0  0  0  0  0  0  0  0  0
    1.9012   -1.4008    0.0000 C   0  0  0  0  0  0  0  0  0  0  0  0
    1.0673   -1.3883    0.0000 C   0  0  0  0  0  0  0  0  0  0  0  0
    5.0573   -3.0060    0.0000 N   0  0  0  0  0  0  0  0  0  0  0  0
    1.0798    0.0333    0.0000 O   0  5  0  0  0  0  0  0  0  0  0  0
    3.3520   -0.6546    0.0000 O   0  0  0  0  0  0  0  0  0  0  0  0
   -0.1501   -0.6671    0.0000 O   0  0  0  0  0  0  0  0  0  0  0  0
    3.3520   -3.5564    0.0000 O   0  0  0  0  0  0  0  0  0  0  0  0
    5.8077   -2.6808    0.0000 C   0  0  0  0  0  0  0  0  0  0  0  0
    7.3211   -2.0054    0.0000 C   0  0  0  0  0  0  0  0  0  0  0  0
    1.8887   -2.8184    0.0000 C   0  0  0  0  0  0  0  0  0  0  0  0
    6.4831   -3.1686    0.0000 C   0  0  0  0  0  0  0  0  0  0  0  0
    5.9036   -1.8553    0.0000 C   0  0  0  0  0  0  0  0  0  0  0  0
    6.6541   -1.5176    0.0000 C   0  0  0  0  0  0  0  0  0  0  0  0
    7.2336   -2.8309    0.0000 C   0  0  0  0  0  0  0  0  0  0  0  0
    8.0716   -1.6802    0.0000 O   0  0  0  0  0  0  0  0  0  0  0  0
    0.6546   -2.1013    0.0000 C   0  0  0  0  0  0  0  0  0  0  0  0
    1.0673   -2.8184    0.0000 C   0  0  0  0  0  0  0  0  0  0  0  0
    8.7428   -2.1555    0.0000 C   0  0  0  0  0  0  0  0  0  0  0  0
  2  1  1  0  0  0  0
  3  1  1  0  0  0  0
  4  9  1  0  0  0  0
  5  3  1  0  0  0  0
  6  2  1  0  0  0  0
  7  1  1  0  0  0  0
  8  7  1  0  0  0  0
  9  8  2  0  0  0  0
 10  5  1  0  0  0  0
 11  4  1  0  0  0  0
 12  2  2  0  0  0  0
 13  4  2  0  0  0  0
 14  3  2  0  0  0  0
 15 10  1  0  0  0  0
 16 20  1  0  0  0  0
 17  7  2  0  0  0  0
 18 15  2  0  0  0  0
 19 15  1  0  0  0  0
 20 19  2  0  0  0  0
 21 18  1  0  0  0  0
 22 16  1  0  0  0  0
 23 24  2  0  0  0  0
 24 17  1  0  0  0  0
 25 22  1  0  0  0  0
  5  6  1  0  0  0  0
  9 23  1  0  0  0  0
 21 16  2  0  0  0  0
M  CHG  2   4   1  11  -1
M  END
>  <IDNUMBER>
F0425-0019

>  <Chemical_Name>
3-[(4-methoxyphenyl)amino]-1-(3-nitrophenyl)pyrrolidine-2,5-dione

>  <PriceCoeff>
1.00

>  <CAS>
476410-24-9

>  <MW>
341.32

>  <Description>
solid

>  <FSP3>
0.18

>  <clogP>
2.93

>  <TPSA>
101.78

>  <Acceptor>
6

>  <Donor>
1

>  <RotBonds>
5

>  <HAC>
25

>  <Collection>
General

>  <PPDS>
+

$$$$
F0433-0006
  Mrv2219 10102508112D          

 20 21  0  0  0  0            999 V2000
   -2.5624    0.7728    0.0000 S   0  0  0  0  0  0  0  0  0  0  0  0
   -1.1744    0.4067    0.0000 C   0  0  0  0  0  0  0  0  0  0  0  0
    0.2034    0.0406    0.0000 C   0  0  0  0  0  0  0  0  0  0  0  0
   -0.3661    0.6254    0.0000 C   0  0  0  0  0  0  0  0  0  0  0  0
   -1.7642    0.9914    0.0000 N   0  0  0  0  0  0  0  0  0  0  0  0
    0.0051   -0.7321    0.0000 C   0  0  0  0  0  0  0  0  0  0  0  0
   -1.3676   -0.3864    0.0000 C   0  0  0  0  0  0  0  0  0  0  0  0
   -0.7880   -0.9762    0.0000 C   0  0  0  0  0  0  0  0  0  0  0  0
   -2.7861    1.5811    0.0000 O   0  0  0  0  0  0  0  0  0  0  0  0
   -2.3438   -0.0610    0.0000 O   0  0  0  0  0  0  0  0  0  0  0  0
   -3.3708    0.5491    0.0000 C   0  0  0  0  0  0  0  0  0  0  0  0
    1.0118    0.2847    0.0000 Cl  0  0  0  0  0  0  0  0  0  0  0  0
   -0.1779    1.4286    0.0000 Cl  0  0  0  0  0  0  0  0  0  0  0  0
    0.6101   -1.3168    0.0000 O   0  0  0  0  0  0  0  0  0  0  0  0
   -0.8541   -1.8354    0.0000 Cl  0  0  0  0  0  0  0  0  0  0  0  0
   -3.5945   -0.2440    0.0000 C   0  0  0  0  0  0  0  0  0  0  0  0
   -3.9300    1.1388    0.0000 C   0  0  0  0  0  0  0  0  0  0  0  0
   -4.7384    0.9151    0.0000 C   0  0  0  0  0  0  0  0  0  0  0  0
   -4.3927   -0.4627    0.0000 C   0  0  0  0  0  0  0  0  0  0  0  0
   -4.9571    0.1373    0.0000 C   0  0  0  0  0  0  0  0  0  0  0  0
  2  5  1  0  0  0  0
  3  4  2  0  0  0  0
  4  2  1  0  0  0  0
  5  1  1  0  0  0  0
  6  8  2  0  0  0  0
  7  2  2  0  0  0  0
  8  7  1  0  0  0  0
  9  1  2  0  0  0  0
 10  1  2  0  0  0  0
 11  1  1  0  0  0  0
 12  3  1  0  0  0  0
 13  4  1  0  0  0  0
 14  6  1  0  0  0  0
 15  8  1  0  0  0  0
 16 11  2  0  0  0  0
 17 11  1  0  0  0  0
 18 17  2  0  0  0  0
 19 16  1  0  0  0  0
 20 18  1  0  0  0  0
 20 19  2  0  0  0  0
  6  3  1  0  0  0  0
M  END
>  <IDNUMBER>
F0433-0006

>  <Chemical_Name>
N-(2,3,5-trichloro-4-hydroxyphenyl)benzenesulfonamide

>  <PriceCoeff>
1.00

>  <CAS>
68375-07-5

>  <MW>
352.62

>  <Description>
solid

>  <FSP3>
0.00

>  <clogP>
3.36

>  <TPSA>
74.78

>  <Acceptor>
4

>  <Donor>
2

>  <RotBonds>
3

>  <HAC>
20

>  <Collection>
General

>  <PPDS>
+

$$$$
F0433-0012
  Mrv2219 10102508112D          

 19 20  0  0  0  0            999 V2000
   -2.5653    0.7736    0.0000 S   0  0  0  0  0  0  0  0  0  0  0  0
   -1.7662    0.9925    0.0000 N   0  0  0  0  0  0  0  0  0  0  0  0
   -3.3746    0.5497    0.0000 C   0  0  0  0  0  0  0  0  0  0  0  0
   -2.7892    1.5829    0.0000 O   0  0  0  0  0  0  0  0  0  0  0  0
   -2.3464   -0.0611    0.0000 O   0  0  0  0  0  0  0  0  0  0  0  0
    0.2036    0.0407    0.0000 C   0  0  0  0  0  0  0  0  0  0  0  0
   -0.3665    0.6261    0.0000 C   0  0  0  0  0  0  0  0  0  0  0  0
   -1.1758    0.4072    0.0000 C   0  0  0  0  0  0  0  0  0  0  0  0
    0.0051   -0.7330    0.0000 C   0  0  0  0  0  0  0  0  0  0  0  0
   -3.5986   -0.2443    0.0000 C   0  0  0  0  0  0  0  0  0  0  0  0
   -3.9345    1.1401    0.0000 C   0  0  0  0  0  0  0  0  0  0  0  0
   -0.7889   -0.9773    0.0000 C   0  0  0  0  0  0  0  0  0  0  0  0
    1.0129    0.2850    0.0000 Cl  0  0  0  0  0  0  0  0  0  0  0  0
   -1.3692   -0.3869    0.0000 C   0  0  0  0  0  0  0  0  0  0  0  0
   -4.9627    0.1374    0.0000 C   0  0  0  0  0  0  0  0  0  0  0  0
   -4.3977   -0.4632    0.0000 C   0  0  0  0  0  0  0  0  0  0  0  0
   -4.7438    0.9162    0.0000 C   0  0  0  0  0  0  0  0  0  0  0  0
   -5.7211   -0.1069    0.0000 Cl  0  0  0  0  0  0  0  0  0  0  0  0
    0.6108   -1.3183    0.0000 O   0  0  0  0  0  0  0  0  0  0  0  0
  2  1  1  0  0  0  0
  3  1  1  0  0  0  0
  4  1  2  0  0  0  0
  5  1  2  0  0  0  0
  6  7  2  0  0  0  0
  7  8  1  0  0  0  0
  8  2  1  0  0  0  0
  9 12  2  0  0  0  0
 10  3  2  0  0  0  0
 11  3  1  0  0  0  0
 12 14  1  0  0  0  0
 13  6  1  0  0  0  0
 14  8  2  0  0  0  0
 15 17  1  0  0  0  0
 16 10  1  0  0  0  0
 17 11  2  0  0  0  0
 18 15  1  0  0  0  0
 19  9  1  0  0  0  0
 15 16  2  0  0  0  0
  9  6  1  0  0  0  0
M  END
>  <IDNUMBER>
F0433-0012

>  <Chemical_Name>
4-chloro-N-(3-chloro-4-hydroxyphenyl)benzene-1-sulfonamide

>  <PriceCoeff>
1.00

>  <CAS>
141481-31-4

>  <MW>
318.18

>  <Description>
solid

>  <FSP3>
0.00

>  <clogP>
3.63

>  <TPSA>
74.78

>  <Acceptor>
4

>  <Donor>
2

>  <RotBonds>
3

>  <HAC>
19

>  <Collection>
General

>  <PPDS>
+

$$$$
F0433-0272
  Mrv2219 10102508112D          

 28 30  0  0  0  0            999 V2000
   -1.1985   -0.2627    0.0000 C   0  0  0  0  0  0  0  0  0  0  0  0
   -1.9647   -0.5473    0.0000 C   0  0  0  0  0  0  0  0  0  0  0  0
   -2.0358    0.7826    0.0000 N   0  0  0  0  0  0  0  0  0  0  0  0
   -2.4900    0.0930    0.0000 N   0  0  0  0  0  0  0  0  0  0  0  0
    0.2627   -0.3339    0.0000 S   0  0  0  0  0  0  0  0  0  0  0  0
   -1.2258    0.5418    0.0000 C   0  0  0  0  0  0  0  0  0  0  0  0
   -0.4870   -0.7279    0.0000 N   0  0  0  0  0  0  0  0  0  0  0  0
    1.7732    1.2478    0.0000 C   0  0  0  0  0  0  0  0  0  0  0  0
    1.7787    2.0632    0.0000 N   0  3  0  0  0  0  0  0  0  0  0  0
    1.0508    0.8537    0.0000 C   0  0  0  0  0  0  0  0  0  0  0  0
    0.9906    0.0437    0.0000 C   0  0  0  0  0  0  0  0  0  0  0  0
   -2.1672   -1.3846    0.0000 O   0  0  0  0  0  0  0  0  0  0  0  0
    0.6294   -1.1164    0.0000 O   0  0  0  0  0  0  0  0  0  0  0  0
   -0.1258    0.4105    0.0000 O   0  0  0  0  0  0  0  0  0  0  0  0
    2.4682    0.8045    0.0000 C   0  0  0  0  0  0  0  0  0  0  0  0
    2.4956    2.4900    0.0000 O   0  5  0  0  0  0  0  0  0  0  0  0
   -3.3000    0.0930    0.0000 C   0  0  0  0  0  0  0  0  0  0  0  0
    1.0727    2.4900    0.0000 O   0  0  0  0  0  0  0  0  0  0  0  0
    1.7075   -0.3940    0.0000 C   0  0  0  0  0  0  0  0  0  0  0  0
    2.4354   -0.0219    0.0000 C   0  0  0  0  0  0  0  0  0  0  0  0
   -2.3259    1.5378    0.0000 C   0  0  0  0  0  0  0  0  0  0  0  0
   -0.5691    1.0672    0.0000 C   0  0  0  0  0  0  0  0  0  0  0  0
    3.2015    1.1766    0.0000 Cl  0  0  0  0  0  0  0  0  0  0  0  0
   -3.7214   -0.6294    0.0000 C   0  0  0  0  0  0  0  0  0  0  0  0
   -3.7214    0.8045    0.0000 C   0  0  0  0  0  0  0  0  0  0  0  0
   -4.5314    0.8045    0.0000 C   0  0  0  0  0  0  0  0  0  0  0  0
   -4.5314   -0.6294    0.0000 C   0  0  0  0  0  0  0  0  0  0  0  0
   -4.9528    0.0930    0.0000 C   0  0  0  0  0  0  0  0  0  0  0  0
  2  1  1  0  0  0  0
  3  6  1  0  0  0  0
  4  2  1  0  0  0  0
  5  7  1  0  0  0  0
  6  1  2  0  0  0  0
  7  1  1  0  0  0  0
  8 10  2  0  0  0  0
  9  8  1  0  0  0  0
 10 11  1  0  0  0  0
 11  5  1  0  0  0  0
 12  2  2  0  0  0  0
 13  5  2  0  0  0  0
 14  5  2  0  0  0  0
 15 20  2  0  0  0  0
 16  9  1  0  0  0  0
 17  4  1  0  0  0  0
 18  9  2  0  0  0  0
 19 11  2  0  0  0  0
 20 19  1  0  0  0  0
 21  3  1  0  0  0  0
 22  6  1  0  0  0  0
 23 15  1  0  0  0  0
 24 17  1  0  0  0  0
 25 17  2  0  0  0  0
 26 25  1  0  0  0  0
 27 24  2  0  0  0  0
 28 26  2  0  0  0  0
  3  4  1  0  0  0  0
 15  8  1  0  0  0  0
 28 27  1  0  0  0  0
M  CHG  2   9   1  16  -1
M  END
>  <IDNUMBER>
F0433-0272

>  <Chemical_Name>
4-chloro-N-(1,5-dimethyl-3-oxo-2-phenyl-2,3-dihydro-1H-pyrazol-4-yl)-3-nitrobenzene-1-sulfonamide

>  <PriceCoeff>
1.00

>  <CAS>
301314-58-9

>  <MW>
422.84

>  <Description>
solid

>  <FSP3>
0.12

>  <clogP>
1.62

>  <TPSA>
121.24

>  <Acceptor>
5

>  <Donor>
2

>  <RotBonds>
5

>  <HAC>
28

>  <Collection>
General

>  <PPDS>
+

$$$$
F0440-0315
  Mrv2219 10102508112D          

 22 24  0  0  0  0            999 V2000
    0.6370    2.6755    0.0000 C   0  0  0  0  0  0  0  0  0  0  0  0
    1.8474    0.5520    0.0000 N   0  0  0  0  0  0  0  0  0  0  0  0
    0.1274    2.0172    0.0000 N   0  0  0  0  0  0  0  0  0  0  0  0
    0.1274    3.3390    0.0000 S   0  0  0  0  0  0  0  0  0  0  0  0
    1.4386    2.6755    0.0000 N   0  0  0  0  0  0  0  0  0  0  0  0
    2.6968    0.4459    0.0000 C   0  0  0  0  0  0  0  0  0  0  0  0
    1.4864   -0.1646    0.0000 C   0  0  0  0  0  0  0  0  0  0  0  0
   -0.6370    3.0842    0.0000 C   0  0  0  0  0  0  0  0  0  0  0  0
   -0.6370    2.2720    0.0000 C   0  0  0  0  0  0  0  0  0  0  0  0
    1.8474    1.9694    0.0000 C   0  0  0  0  0  0  0  0  0  0  0  0
    1.4386    1.2528    0.0000 C   0  0  0  0  0  0  0  0  0  0  0  0
   -1.3537    3.4982    0.0000 C   0  0  0  0  0  0  0  0  0  0  0  0
    2.7923   -0.3822    0.0000 C   0  0  0  0  0  0  0  0  0  0  0  0
    2.0597   -0.7644    0.0000 C   0  0  0  0  0  0  0  0  0  0  0  0
    3.3125    1.0776    0.0000 O   0  0  0  0  0  0  0  0  0  0  0  0
    0.6424   -0.2602    0.0000 O   0  0  0  0  0  0  0  0  0  0  0  0
    2.6808    1.9694    0.0000 O   0  0  0  0  0  0  0  0  0  0  0  0
   -1.3537    1.8633    0.0000 C   0  0  0  0  0  0  0  0  0  0  0  0
   -2.0650    3.0842    0.0000 C   0  0  0  0  0  0  0  0  0  0  0  0
   -2.0650    2.2720    0.0000 C   0  0  0  0  0  0  0  0  0  0  0  0
   -2.8029    3.4664    0.0000 O   0  0  0  0  0  0  0  0  0  0  0  0
   -2.8612    4.3104    0.0000 C   0  0  0  0  0  0  0  0  0  0  0  0
  2 11  1  0  0  0  0
  3  1  2  0  0  0  0
  4  1  1  0  0  0  0
  5  1  1  0  0  0  0
  6  2  1  0  0  0  0
  7  2  1  0  0  0  0
  8  4  1  0  0  0  0
  9  3  1  0  0  0  0
 10  5  1  0  0  0  0
 11 10  1  0  0  0  0
 12  8  1  0  0  0  0
 13  6  1  0  0  0  0
 14  7  1  0  0  0  0
 15  6  2  0  0  0  0
 16  7  2  0  0  0  0
 17 10  2  0  0  0  0
 18  9  1  0  0  0  0
 19 12  2  0  0  0  0
 20 18  2  0  0  0  0
 21 19  1  0  0  0  0
 22 21  1  0  0  0  0
  9  8  2  0  0  0  0
 20 19  1  0  0  0  0
 14 13  1  0  0  0  0
M  END
>  <IDNUMBER>
F0440-0315

>  <Chemical_Name>
2-(2,5-dioxopyrrolidin-1-yl)-N-(6-methoxy-1,3-benzothiazol-2-yl)acetamide

>  <PriceCoeff>
1.00

>  <CAS>
360762-04-5

>  <MW>
319.34

>  <Description>
solid

>  <FSP3>
0.29

>  <clogP>
1.74

>  <TPSA>
116.84

>  <Acceptor>
5

>  <Donor>
1

>  <RotBonds>
4

>  <HAC>
22

>  <Collection>
General

>  <PPDS>
+

$$$$
F0440-0317
  Mrv2219 10102508112D          

 23 25  0  0  0  0            999 V2000
   -0.6110   -0.3732    0.0000 C   0  0  0  0  0  0  0  0  0  0  0  0
    1.8207   -1.8699    0.0000 N   0  0  0  0  0  0  0  0  0  0  0  0
   -1.0826   -1.0334    0.0000 N   0  0  0  0  0  0  0  0  0  0  0  0
   -1.0826    0.2911    0.0000 S   0  0  0  0  0  0  0  0  0  0  0  0
    0.2010   -0.4101    0.0000 N   0  0  0  0  0  0  0  0  0  0  0  0
    2.6080   -2.0668    0.0000 C   0  0  0  0  0  0  0  0  0  0  0  0
    1.3820   -2.5753    0.0000 C   0  0  0  0  0  0  0  0  0  0  0  0
   -1.8781    0.0492    0.0000 C   0  0  0  0  0  0  0  0  0  0  0  0
   -1.8781   -0.7669    0.0000 C   0  0  0  0  0  0  0  0  0  0  0  0
    0.5946   -1.1318    0.0000 C   0  0  0  0  0  0  0  0  0  0  0  0
    1.4270   -1.1605    0.0000 C   0  0  0  0  0  0  0  0  0  0  0  0
   -2.5793    0.4633    0.0000 C   0  0  0  0  0  0  0  0  0  0  0  0
    2.6614   -2.9033    0.0000 C   0  0  0  0  0  0  0  0  0  0  0  0
    1.9191   -3.2027    0.0000 C   0  0  0  0  0  0  0  0  0  0  0  0
    3.2519   -1.5296    0.0000 O   0  0  0  0  0  0  0  0  0  0  0  0
    0.5577   -2.6368    0.0000 O   0  0  0  0  0  0  0  0  0  0  0  0
    0.1641   -1.8248    0.0000 O   0  0  0  0  0  0  0  0  0  0  0  0
   -2.5793   -1.1810    0.0000 C   0  0  0  0  0  0  0  0  0  0  0  0
   -3.2928    0.0492    0.0000 C   0  0  0  0  0  0  0  0  0  0  0  0
   -3.2928   -0.7669    0.0000 C   0  0  0  0  0  0  0  0  0  0  0  0
   -4.0187    0.4633    0.0000 O   0  0  0  0  0  0  0  0  0  0  0  0
   -4.0351    1.2917    0.0000 C   0  0  0  0  0  0  0  0  0  0  0  0
   -4.7445    1.7223    0.0000 C   0  0  0  0  0  0  0  0  0  0  0  0
  2 11  1  0  0  0  0
  3  1  2  0  0  0  0
  4  1  1  0  0  0  0
  5  1  1  0  0  0  0
  6  2  1  0  0  0  0
  7  2  1  0  0  0  0
  8  4  1  0  0  0  0
  9  3  1  0  0  0  0
 10  5  1  0  0  0  0
 11 10  1  0  0  0  0
 12  8  1  0  0  0  0
 13  6  1  0  0  0  0
 14  7  1  0  0  0  0
 15  6  2  0  0  0  0
 16  7  2  0  0  0  0
 17 10  2  0  0  0  0
 18  9  1  0  0  0  0
 19 12  2  0  0  0  0
 20 18  2  0  0  0  0
 21 19  1  0  0  0  0
 22 21  1  0  0  0  0
 23 22  1  0  0  0  0
  9  8  2  0  0  0  0
 20 19  1  0  0  0  0
 14 13  1  0  0  0  0
M  END
>  <IDNUMBER>
F0440-0317

>  <Chemical_Name>
2-(2,5-dioxopyrrolidin-1-yl)-N-(6-ethoxy-1,3-benzothiazol-2-yl)acetamide

>  <PriceCoeff>
1.00

>  <CAS>
476308-55-1

>  <MW>
333.36

>  <Description>
solid

>  <FSP3>
0.33

>  <clogP>
2.27

>  <TPSA>
116.84

>  <Acceptor>
5

>  <Donor>
1

>  <RotBonds>
5

>  <HAC>
23

>  <Collection>
General

>  <PPDS>
+

$$$$
F0440-0318
  Mrv2219 10102508112D          

 21 23  0  0  0  0            999 V2000
    0.1757   -0.9313    0.0000 C   0  0  0  0  0  0  0  0  0  0  0  0
    2.6633   -2.3814    0.0000 N   0  0  0  0  0  0  0  0  0  0  0  0
   -0.2900   -1.5972    0.0000 N   0  0  0  0  0  0  0  0  0  0  0  0
   -0.2900   -0.2615    0.0000 S   0  0  0  0  0  0  0  0  0  0  0  0
    1.0294   -0.9477    0.0000 N   0  0  0  0  0  0  0  0  0  0  0  0
    3.4843   -2.5530    0.0000 C   0  0  0  0  0  0  0  0  0  0  0  0
    2.2548   -3.1044    0.0000 C   0  0  0  0  0  0  0  0  0  0  0  0
   -1.0906   -0.5188    0.0000 C   0  0  0  0  0  0  0  0  0  0  0  0
   -1.0906   -1.3398    0.0000 C   0  0  0  0  0  0  0  0  0  0  0  0
    1.4256   -1.6666    0.0000 C   0  0  0  0  0  0  0  0  0  0  0  0
    2.2548   -1.6666    0.0000 C   0  0  0  0  0  0  0  0  0  0  0  0
   -1.7972   -0.1022    0.0000 C   0  0  0  0  0  0  0  0  0  0  0  0
    3.5782   -3.3618    0.0000 C   0  0  0  0  0  0  0  0  0  0  0  0
    2.7981   -3.7253    0.0000 C   0  0  0  0  0  0  0  0  0  0  0  0
    4.1174   -2.0097    0.0000 O   0  0  0  0  0  0  0  0  0  0  0  0
    1.4215   -3.2025    0.0000 O   0  0  0  0  0  0  0  0  0  0  0  0
    1.0294   -2.3814    0.0000 O   0  0  0  0  0  0  0  0  0  0  0  0
   -1.7972   -1.7646    0.0000 C   0  0  0  0  0  0  0  0  0  0  0  0
   -2.5202   -0.5188    0.0000 C   0  0  0  0  0  0  0  0  0  0  0  0
   -2.5202   -1.3398    0.0000 C   0  0  0  0  0  0  0  0  0  0  0  0
   -3.2677   -0.1267    0.0000 Cl  0  0  0  0  0  0  0  0  0  0  0  0
  2 11  1  0  0  0  0
  3  1  2  0  0  0  0
  4  1  1  0  0  0  0
  5  1  1  0  0  0  0
  6  2  1  0  0  0  0
  7  2  1  0  0  0  0
  8  4  1  0  0  0  0
  9  3  1  0  0  0  0
 10  5  1  0  0  0  0
 11 10  1  0  0  0  0
 12  8  1  0  0  0  0
 13  6  1  0  0  0  0
 14  7  1  0  0  0  0
 15  6  2  0  0  0  0
 16  7  2  0  0  0  0
 17 10  2  0  0  0  0
 18  9  1  0  0  0  0
 19 12  2  0  0  0  0
 20 18  2  0  0  0  0
 21 19  1  0  0  0  0
  9  8  2  0  0  0  0
 20 19  1  0  0  0  0
 14 13  1  0  0  0  0
M  END
>  <IDNUMBER>
F0440-0318

>  <Chemical_Name>
N-(6-chloro-1,3-benzothiazol-2-yl)-2-(2,5-dioxopyrrolidin-1-yl)acetamide

>  <PriceCoeff>
1.00

>  <CAS>
392324-48-0

>  <MW>
323.75

>  <Description>
solid

>  <FSP3>
0.23

>  <clogP>
2.16

>  <TPSA>
107.61

>  <Acceptor>
4

>  <Donor>
1

>  <RotBonds>
3

>  <HAC>
21

>  <Collection>
General

>  <PPDS>
+

$$$$
F0440-0319
  Mrv2219 10102508112D          

 21 23  0  0  0  0            999 V2000
    0.0485   -0.8899    0.0000 C   0  0  0  0  0  0  0  0  0  0  0  0
    2.5038   -2.3097    0.0000 N   0  0  0  0  0  0  0  0  0  0  0  0
   -0.4369   -1.5532    0.0000 N   0  0  0  0  0  0  0  0  0  0  0  0
   -0.4369   -0.2104    0.0000 S   0  0  0  0  0  0  0  0  0  0  0  0
    0.8535   -0.8899    0.0000 N   0  0  0  0  0  0  0  0  0  0  0  0
    3.3006   -2.4796    0.0000 C   0  0  0  0  0  0  0  0  0  0  0  0
    2.0872   -3.0256    0.0000 C   0  0  0  0  0  0  0  0  0  0  0  0
   -1.2135   -0.4652    0.0000 C   0  0  0  0  0  0  0  0  0  0  0  0
   -1.2135   -1.3106    0.0000 C   0  0  0  0  0  0  0  0  0  0  0  0
    1.2620   -1.6059    0.0000 C   0  0  0  0  0  0  0  0  0  0  0  0
    2.0912   -1.6059    0.0000 C   0  0  0  0  0  0  0  0  0  0  0  0
   -1.9375   -0.0526    0.0000 C   0  0  0  0  0  0  0  0  0  0  0  0
    3.3775   -3.3006    0.0000 C   0  0  0  0  0  0  0  0  0  0  0  0
    2.6373   -3.6404    0.0000 C   0  0  0  0  0  0  0  0  0  0  0  0
    3.9357   -1.9578    0.0000 O   0  0  0  0  0  0  0  0  0  0  0  0
    1.2620   -3.1227    0.0000 O   0  0  0  0  0  0  0  0  0  0  0  0
    0.8535   -2.3097    0.0000 O   0  0  0  0  0  0  0  0  0  0  0  0
   -1.9375   -1.7029    0.0000 C   0  0  0  0  0  0  0  0  0  0  0  0
   -2.6534   -0.4854    0.0000 C   0  0  0  0  0  0  0  0  0  0  0  0
   -2.6534   -1.2782    0.0000 C   0  0  0  0  0  0  0  0  0  0  0  0
   -3.3936   -0.0769    0.0000 Br  0  0  0  0  0  0  0  0  0  0  0  0
  2 11  1  0  0  0  0
  3  1  2  0  0  0  0
  4  1  1  0  0  0  0
  5  1  1  0  0  0  0
  6  2  1  0  0  0  0
  7  2  1  0  0  0  0
  8  4  1  0  0  0  0
  9  3  1  0  0  0  0
 10  5  1  0  0  0  0
 11 10  1  0  0  0  0
 12  8  1  0  0  0  0
 13  6  1  0  0  0  0
 14  7  1  0  0  0  0
 15  6  2  0  0  0  0
 16  7  2  0  0  0  0
 17 10  2  0  0  0  0
 18  9  1  0  0  0  0
 19 12  2  0  0  0  0
 20 18  2  0  0  0  0
 21 19  1  0  0  0  0
  8  9  2  0  0  0  0
 19 20  1  0  0  0  0
 14 13  1  0  0  0  0
M  END
>  <IDNUMBER>
F0440-0319

>  <Chemical_Name>
N-(6-bromo-1,3-benzothiazol-2-yl)-2-(2,5-dioxopyrrolidin-1-yl)acetamide

>  <PriceCoeff>
1.00

>  <CAS>
304003-68-7

>  <MW>
368.21

>  <Description>
solid

>  <FSP3>
0.23

>  <clogP>
2.31

>  <TPSA>
107.61

>  <Acceptor>
4

>  <Donor>
1

>  <RotBonds>
3

>  <HAC>
21

>  <Collection>
General

>  <PPDS>
+

$$$$
F0440-0322
  Mrv2219 10102508112D          

 20 22  0  0  0  0            999 V2000
   -0.8737   -0.6795    0.0000 C   0  0  0  0  0  0  0  0  0  0  0  0
    1.5816   -2.0670    0.0000 N   0  0  0  0  0  0  0  0  0  0  0  0
   -1.3591   -1.3268    0.0000 N   0  0  0  0  0  0  0  0  0  0  0  0
   -1.3591   -0.0041    0.0000 S   0  0  0  0  0  0  0  0  0  0  0  0
   -0.0607   -0.6472    0.0000 N   0  0  0  0  0  0  0  0  0  0  0  0
    2.3703   -2.2369    0.0000 C   0  0  0  0  0  0  0  0  0  0  0  0
    1.1649   -2.7829    0.0000 C   0  0  0  0  0  0  0  0  0  0  0  0
    0.3398   -1.3632    0.0000 C   0  0  0  0  0  0  0  0  0  0  0  0
   -2.1357   -1.0719    0.0000 C   0  0  0  0  0  0  0  0  0  0  0  0
    1.1690   -1.3632    0.0000 C   0  0  0  0  0  0  0  0  0  0  0  0
   -2.1357   -0.2589    0.0000 C   0  0  0  0  0  0  0  0  0  0  0  0
    2.4553   -3.0580    0.0000 C   0  0  0  0  0  0  0  0  0  0  0  0
    1.7151   -3.3977    0.0000 C   0  0  0  0  0  0  0  0  0  0  0  0
    3.0135   -1.7151    0.0000 O   0  0  0  0  0  0  0  0  0  0  0  0
    0.3398   -2.8800    0.0000 O   0  0  0  0  0  0  0  0  0  0  0  0
   -0.0607   -2.0670    0.0000 O   0  0  0  0  0  0  0  0  0  0  0  0
   -2.8597   -1.4845    0.0000 C   0  0  0  0  0  0  0  0  0  0  0  0
   -2.8597    0.1415    0.0000 C   0  0  0  0  0  0  0  0  0  0  0  0
   -3.5757   -0.2589    0.0000 C   0  0  0  0  0  0  0  0  0  0  0  0
   -3.5757   -1.0719    0.0000 C   0  0  0  0  0  0  0  0  0  0  0  0
  2 10  1  0  0  0  0
  3  1  2  0  0  0  0
  4  1  1  0  0  0  0
  5  1  1  0  0  0  0
  6  2  1  0  0  0  0
  7  2  1  0  0  0  0
  8  5  1  0  0  0  0
  9  3  1  0  0  0  0
 10  8  1  0  0  0  0
 11  4  1  0  0  0  0
 12  6  1  0  0  0  0
 13  7  1  0  0  0  0
 14  6  2  0  0  0  0
 15  7  2  0  0  0  0
 16  8  2  0  0  0  0
 17  9  1  0  0  0  0
 18 11  1  0  0  0  0
 19 18  2  0  0  0  0
 20 17  2  0  0  0  0
  9 11  2  0  0  0  0
 20 19  1  0  0  0  0
 13 12  1  0  0  0  0
M  END
>  <IDNUMBER>
F0440-0322

>  <Chemical_Name>
N-(1,3-benzothiazol-2-yl)-2-(2,5-dioxopyrrolidin-1-yl)acetamide

>  <PriceCoeff>
1.00

>  <CAS>
476308-57-3

>  <MW>
289.31

>  <Description>
solid

>  <FSP3>
0.23

>  <clogP>
1.44

>  <TPSA>
107.61

>  <Acceptor>
4

>  <Donor>
1

>  <RotBonds>
3

>  <HAC>
20

>  <Collection>
General

>  <PPDS>
+

$$$$
F0440-0324
  Mrv2219 10102508112D          

 21 23  0  0  0  0            999 V2000
    0.0042   -1.0640    0.0000 C   0  0  0  0  0  0  0  0  0  0  0  0
    2.4354   -2.5601    0.0000 N   0  0  0  0  0  0  0  0  0  0  0  0
   -0.4447   -1.6998    0.0000 N   0  0  0  0  0  0  0  0  0  0  0  0
   -1.2426   -0.6276    0.0000 C   0  0  0  0  0  0  0  0  0  0  0  0
   -0.4447   -0.3990    0.0000 S   0  0  0  0  0  0  0  0  0  0  0  0
   -1.2426   -1.4629    0.0000 C   0  0  0  0  0  0  0  0  0  0  0  0
    0.8478   -1.0972    0.0000 N   0  0  0  0  0  0  0  0  0  0  0  0
    3.2209   -2.7596    0.0000 C   0  0  0  0  0  0  0  0  0  0  0  0
    1.9991   -3.2417    0.0000 C   0  0  0  0  0  0  0  0  0  0  0  0
    1.2260   -1.7996    0.0000 C   0  0  0  0  0  0  0  0  0  0  0  0
    2.0447   -1.8453    0.0000 C   0  0  0  0  0  0  0  0  0  0  0  0
   -1.9408   -0.2286    0.0000 C   0  0  0  0  0  0  0  0  0  0  0  0
    3.2915   -3.5908    0.0000 C   0  0  0  0  0  0  0  0  0  0  0  0
    2.5227   -3.8900    0.0000 C   0  0  0  0  0  0  0  0  0  0  0  0
    3.8900   -2.2442    0.0000 O   0  0  0  0  0  0  0  0  0  0  0  0
    1.1637   -3.2957    0.0000 O   0  0  0  0  0  0  0  0  0  0  0  0
   -1.9408   -1.8619    0.0000 C   0  0  0  0  0  0  0  0  0  0  0  0
    0.8021   -2.4978    0.0000 O   0  0  0  0  0  0  0  0  0  0  0  0
   -2.6557   -1.4629    0.0000 C   0  0  0  0  0  0  0  0  0  0  0  0
   -2.6557   -0.6276    0.0000 C   0  0  0  0  0  0  0  0  0  0  0  0
   -3.3746   -0.2037    0.0000 C   0  0  0  0  0  0  0  0  0  0  0  0
  2 11  1  0  0  0  0
  3  1  2  0  0  0  0
  4  5  1  0  0  0  0
  5  1  1  0  0  0  0
  6  3  1  0  0  0  0
  7  1  1  0  0  0  0
  8  2  1  0  0  0  0
  9  2  1  0  0  0  0
 10  7  1  0  0  0  0
 11 10  1  0  0  0  0
 12  4  1  0  0  0  0
 13  8  1  0  0  0  0
 14  9  1  0  0  0  0
 15  8  2  0  0  0  0
 16  9  2  0  0  0  0
 17  6  1  0  0  0  0
 18 10  2  0  0  0  0
 19 17  1  0  0  0  0
 20 12  1  0  0  0  0
 21 20  1  0  0  0  0
  6  4  2  0  0  0  0
 19 20  1  0  0  0  0
 14 13  1  0  0  0  0
M  END
>  <IDNUMBER>
F0440-0324

>  <Chemical_Name>
2-(2,5-dioxopyrrolidin-1-yl)-N-(6-methyl-4,5,6,7-tetrahydro-1,3-benzothiazol-2-yl)acetamide

>  <PriceCoeff>
1.50

>  <CAS>
476308-59-5

>  <MW>
307.37

>  <Description>
solid

>  <FSP3>
0.57

>  <clogP>
1.94

>  <TPSA>
107.61

>  <Acceptor>
4

>  <Donor>
1

>  <RotBonds>
3

>  <HAC>
21

>  <Collection>
Advanced

>  <PPDS>
+

$$$$
F0440-0325
  Mrv2219 10102508112D          

 22 24  0  0  0  0            999 V2000
    2.7044   -0.3047    0.0000 C   0  0  0  0  0  0  0  0  0  0  0  0
    5.1959   -1.7571    0.0000 N   0  0  0  0  0  0  0  0  0  0  0  0
    2.2203   -0.9808    0.0000 N   0  0  0  0  0  0  0  0  0  0  0  0
    3.5224   -0.3297    0.0000 N   0  0  0  0  0  0  0  0  0  0  0  0
    2.2203    0.3631    0.0000 S   0  0  0  0  0  0  0  0  0  0  0  0
    1.4190    0.1002    0.0000 C   0  0  0  0  0  0  0  0  0  0  0  0
    1.4190   -0.7304    0.0000 C   0  0  0  0  0  0  0  0  0  0  0  0
    5.9972   -1.9323    0.0000 C   0  0  0  0  0  0  0  0  0  0  0  0
    4.7745   -2.4707    0.0000 C   0  0  0  0  0  0  0  0  0  0  0  0
    3.9439   -1.0517    0.0000 C   0  0  0  0  0  0  0  0  0  0  0  0
    4.7745   -1.0517    0.0000 C   0  0  0  0  0  0  0  0  0  0  0  0
    0.7011    0.5008    0.0000 C   0  0  0  0  0  0  0  0  0  0  0  0
    0.7011   -1.1310    0.0000 C   0  0  0  0  0  0  0  0  0  0  0  0
    6.0766   -2.7545    0.0000 C   0  0  0  0  0  0  0  0  0  0  0  0
    5.3379   -3.0925    0.0000 C   0  0  0  0  0  0  0  0  0  0  0  0
    6.6275   -1.4023    0.0000 O   0  0  0  0  0  0  0  0  0  0  0  0
    3.9439   -2.5584    0.0000 O   0  0  0  0  0  0  0  0  0  0  0  0
    3.5224   -1.7571    0.0000 O   0  0  0  0  0  0  0  0  0  0  0  0
   -0.0125    0.1002    0.0000 C   0  0  0  0  0  0  0  0  0  0  0  0
   -0.0125   -0.7304    0.0000 C   0  0  0  0  0  0  0  0  0  0  0  0
    2.4915   -1.7571    0.0000 C   0  0  0  0  0  0  0  0  0  0  0  0
   -0.7220    0.5216    0.0000 Br  0  0  0  0  0  0  0  0  0  0  0  0
  2 11  1  0  0  0  0
  3  1  1  0  0  0  0
  4  1  2  0  0  0  0
  5  1  1  0  0  0  0
  6  5  1  0  0  0  0
  7  3  1  0  0  0  0
  8  2  1  0  0  0  0
  9  2  1  0  0  0  0
 10  4  1  0  0  0  0
 11 10  1  0  0  0  0
 12  6  1  0  0  0  0
 13  7  1  0  0  0  0
 14  8  1  0  0  0  0
 15  9  1  0  0  0  0
 16  8  2  0  0  0  0
 17  9  2  0  0  0  0
 18 10  2  0  0  0  0
 19 12  2  0  0  0  0
 20 13  2  0  0  0  0
 21  3  1  0  0  0  0
 22 19  1  0  0  0  0
  6  7  2  0  0  0  0
 19 20  1  0  0  0  0
 15 14  1  0  0  0  0
M  END
>  <IDNUMBER>
F0440-0325

>  <Chemical_Name>
N-[(2E)-6-bromo-3-methyl-2,3-dihydro-1,3-benzothiazol-2-ylidene]-2-(2,5-dioxopyrrolidin-1-yl)acetamide

>  <PriceCoeff>
1.00

>  <CAS>
476308-60-8

>  <MW>
382.23

>  <Description>
solid

>  <FSP3>
0.29

>  <clogP>
3.64

>  <TPSA>
95.35

>  <Acceptor>
3

>  <Donor>
0

>  <RotBonds>
3

>  <HAC>
22

>  <Collection>
General

>  <PPDS>
+

$$$$
F0440-0328
  Mrv2219 10102508112D          

 22 24  0  0  0  0            999 V2000
    0.0000   -1.3637    0.0000 C   0  0  0  0  0  0  0  0  0  0  0  0
    2.4665   -2.7779    0.0000 N   0  0  0  0  0  0  0  0  0  0  0  0
   -0.4672   -2.0246    0.0000 N   0  0  0  0  0  0  0  0  0  0  0  0
   -0.4672   -0.7071    0.0000 S   0  0  0  0  0  0  0  0  0  0  0  0
   -1.2585   -1.7847    0.0000 C   0  0  0  0  0  0  0  0  0  0  0  0
   -1.2585   -0.9597    0.0000 C   0  0  0  0  0  0  0  0  0  0  0  0
    0.8124   -1.3427    0.0000 N   0  0  0  0  0  0  0  0  0  0  0  0
    3.2620   -2.9590    0.0000 C   0  0  0  0  0  0  0  0  0  0  0  0
    2.0498   -3.4851    0.0000 C   0  0  0  0  0  0  0  0  0  0  0  0
    1.2417   -2.0708    0.0000 C   0  0  0  0  0  0  0  0  0  0  0  0
   -1.9908   -2.1887    0.0000 C   0  0  0  0  0  0  0  0  0  0  0  0
    2.0498   -2.0708    0.0000 C   0  0  0  0  0  0  0  0  0  0  0  0
   -1.9908   -0.5346    0.0000 C   0  0  0  0  0  0  0  0  0  0  0  0
   -2.6896   -1.7847    0.0000 C   0  0  0  0  0  0  0  0  0  0  0  0
    3.3378   -3.7881    0.0000 C   0  0  0  0  0  0  0  0  0  0  0  0
    2.6264   -4.0912    0.0000 C   0  0  0  0  0  0  0  0  0  0  0  0
    3.8891   -2.4244    0.0000 O   0  0  0  0  0  0  0  0  0  0  0  0
    1.2164   -3.5651    0.0000 O   0  0  0  0  0  0  0  0  0  0  0  0
    0.8124   -2.7779    0.0000 O   0  0  0  0  0  0  0  0  0  0  0  0
   -2.6896   -0.9597    0.0000 C   0  0  0  0  0  0  0  0  0  0  0  0
   -2.0035   -3.0305    0.0000 C   0  0  0  0  0  0  0  0  0  0  0  0
   -3.3967   -0.5093    0.0000 C   0  0  0  0  0  0  0  0  0  0  0  0
  2 12  1  0  0  0  0
  3  1  2  0  0  0  0
  4  1  1  0  0  0  0
  5  3  1  0  0  0  0
  6  4  1  0  0  0  0
  7  1  1  0  0  0  0
  8  2  1  0  0  0  0
  9  2  1  0  0  0  0
 10  7  1  0  0  0  0
 11  5  1  0  0  0  0
 12 10  1  0  0  0  0
 13  6  1  0  0  0  0
 14 11  2  0  0  0  0
 15  8  1  0  0  0  0
 16  9  1  0  0  0  0
 17  8  2  0  0  0  0
 18  9  2  0  0  0  0
 19 10  2  0  0  0  0
 20 13  2  0  0  0  0
 21 11  1  0  0  0  0
 22 20  1  0  0  0  0
  6  5  2  0  0  0  0
 20 14  1  0  0  0  0
 16 15  1  0  0  0  0
M  END
>  <IDNUMBER>
F0440-0328

>  <Chemical_Name>
N-(4,6-dimethyl-1,3-benzothiazol-2-yl)-2-(2,5-dioxopyrrolidin-1-yl)acetamide

>  <PriceCoeff>
1.00

>  <CAS>
476308-63-1

>  <MW>
317.36

>  <Description>
solid

>  <FSP3>
0.33

>  <clogP>
2.44

>  <TPSA>
107.61

>  <Acceptor>
4

>  <Donor>
1

>  <RotBonds>
3

>  <HAC>
22

>  <Collection>
General

>  <PPDS>
+

$$$$
F0440-0329
  Mrv2219 10102508112D          

 21 23  0  0  0  0            999 V2000
   -0.3070   -0.6651    0.0000 C   0  0  0  0  0  0  0  0  0  0  0  0
    2.1532   -2.0977    0.0000 N   0  0  0  0  0  0  0  0  0  0  0  0
   -0.7803   -1.3303    0.0000 N   0  0  0  0  0  0  0  0  0  0  0  0
   -0.7803    0.0000    0.0000 S   0  0  0  0  0  0  0  0  0  0  0  0
    0.5159   -0.6651    0.0000 N   0  0  0  0  0  0  0  0  0  0  0  0
    2.9675   -2.2811    0.0000 C   0  0  0  0  0  0  0  0  0  0  0  0
    1.7439   -2.8140    0.0000 C   0  0  0  0  0  0  0  0  0  0  0  0
   -1.5818   -0.2345    0.0000 C   0  0  0  0  0  0  0  0  0  0  0  0
   -1.5818   -1.0745    0.0000 C   0  0  0  0  0  0  0  0  0  0  0  0
    0.9253   -1.3814    0.0000 C   0  0  0  0  0  0  0  0  0  0  0  0
    1.7439   -1.3814    0.0000 C   0  0  0  0  0  0  0  0  0  0  0  0
   -2.2981    0.1663    0.0000 C   0  0  0  0  0  0  0  0  0  0  0  0
    3.0358   -3.0997    0.0000 C   0  0  0  0  0  0  0  0  0  0  0  0
    2.3024   -3.4280    0.0000 C   0  0  0  0  0  0  0  0  0  0  0  0
    3.5858   -1.7396    0.0000 O   0  0  0  0  0  0  0  0  0  0  0  0
    0.9210   -2.9164    0.0000 O   0  0  0  0  0  0  0  0  0  0  0  0
    0.5159   -2.0977    0.0000 O   0  0  0  0  0  0  0  0  0  0  0  0
   -2.2981   -1.4838    0.0000 C   0  0  0  0  0  0  0  0  0  0  0  0
   -3.0144   -0.2558    0.0000 C   0  0  0  0  0  0  0  0  0  0  0  0
   -3.0144   -1.0532    0.0000 C   0  0  0  0  0  0  0  0  0  0  0  0
   -3.7478    0.1492    0.0000 F   0  0  0  0  0  0  0  0  0  0  0  0
  2 11  1  0  0  0  0
  3  1  2  0  0  0  0
  4  1  1  0  0  0  0
  5  1  1  0  0  0  0
  6  2  1  0  0  0  0
  7  2  1  0  0  0  0
  8  4  1  0  0  0  0
  9  3  1  0  0  0  0
 10  5  1  0  0  0  0
 11 10  1  0  0  0  0
 12  8  1  0  0  0  0
 13  6  1  0  0  0  0
 14  7  1  0  0  0  0
 15  6  2  0  0  0  0
 16  7  2  0  0  0  0
 17 10  2  0  0  0  0
 18  9  1  0  0  0  0
 19 12  2  0  0  0  0
 20 18  2  0  0  0  0
 21 19  1  0  0  0  0
  9  8  2  0  0  0  0
 20 19  1  0  0  0  0
 14 13  1  0  0  0  0
M  END
>  <IDNUMBER>
F0440-0329

>  <Chemical_Name>
2-(2,5-dioxopyrrolidin-1-yl)-N-(6-fluoro-1,3-benzothiazol-2-yl)acetamide

>  <PriceCoeff>
1.00

>  <CAS>
476308-64-2

>  <MW>
307.30

>  <Description>
solid

>  <FSP3>
0.23

>  <clogP>
1.59

>  <TPSA>
107.61

>  <Acceptor>
4

>  <Donor>
1

>  <RotBonds>
3

>  <HAC>
21

>  <Collection>
General

>  <PPDS>
+

$$$$
F0440-0330
  Mrv2219 10102508112D          

 24 27  0  0  0  0            999 V2000
   -1.4659   -0.4148    0.0000 C   0  0  0  0  0  0  0  0  0  0  0  0
   -2.7102   -0.8484    0.0000 C   0  0  0  0  0  0  0  0  0  0  0  0
    0.9946    1.0181    0.0000 N   0  0  0  0  0  0  0  0  0  0  0  0
   -1.9372   -1.0936    0.0000 N   0  0  0  0  0  0  0  0  0  0  0  0
   -2.7102   -0.0048    0.0000 C   0  0  0  0  0  0  0  0  0  0  0  0
   -1.9372    0.2262    0.0000 S   0  0  0  0  0  0  0  0  0  0  0  0
   -0.6222   -0.4148    0.0000 N   0  0  0  0  0  0  0  0  0  0  0  0
    0.7401    1.7911    0.0000 C   0  0  0  0  0  0  0  0  0  0  0  0
    1.8289    1.0181    0.0000 C   0  0  0  0  0  0  0  0  0  0  0  0
   -3.4314   -1.2491    0.0000 C   0  0  0  0  0  0  0  0  0  0  0  0
   -0.2215    0.2969    0.0000 C   0  0  0  0  0  0  0  0  0  0  0  0
    0.5845    0.2969    0.0000 C   0  0  0  0  0  0  0  0  0  0  0  0
   -3.4314    0.3912    0.0000 C   0  0  0  0  0  0  0  0  0  0  0  0
   -4.1525   -0.8484    0.0000 C   0  0  0  0  0  0  0  0  0  0  0  0
    1.4188    2.2625    0.0000 C   0  0  0  0  0  0  0  0  0  0  0  0
    2.0928    1.7911    0.0000 C   0  0  0  0  0  0  0  0  0  0  0  0
   -0.0141    2.0598    0.0000 O   0  0  0  0  0  0  0  0  0  0  0  0
    2.3238    0.3394    0.0000 O   0  0  0  0  0  0  0  0  0  0  0  0
   -0.6457    1.0181    0.0000 O   0  0  0  0  0  0  0  0  0  0  0  0
   -4.1525   -0.0330    0.0000 C   0  0  0  0  0  0  0  0  0  0  0  0
   -3.4314   -2.0928    0.0000 C   0  0  0  0  0  0  0  0  0  0  0  0
   -4.8785   -1.2774    0.0000 C   0  0  0  0  0  0  0  0  0  0  0  0
   -4.1525   -2.4935    0.0000 C   0  0  0  0  0  0  0  0  0  0  0  0
   -4.8785   -2.0928    0.0000 C   0  0  0  0  0  0  0  0  0  0  0  0
  2  4  1  0  0  0  0
  3 12  1  0  0  0  0
  4  1  2  0  0  0  0
  5  6  1  0  0  0  0
  6  1  1  0  0  0  0
  7  1  1  0  0  0  0
  8  3  1  0  0  0  0
  9  3  1  0  0  0  0
 10  2  1  0  0  0  0
 11  7  1  0  0  0  0
 12 11  1  0  0  0  0
 13  5  1  0  0  0  0
 14 10  2  0  0  0  0
 15  8  1  0  0  0  0
 16  9  1  0  0  0  0
 17  8  2  0  0  0  0
 18  9  2  0  0  0  0
 19 11  2  0  0  0  0
 20 13  1  0  0  0  0
 21 10  1  0  0  0  0
 22 14  1  0  0  0  0
 23 21  2  0  0  0  0
 24 23  1  0  0  0  0
  5  2  2  0  0  0  0
 20 14  1  0  0  0  0
 16 15  1  0  0  0  0
 22 24  2  0  0  0  0
M  END
>  <IDNUMBER>
F0440-0330

>  <Chemical_Name>
2-(2,5-dioxopyrrolidin-1-yl)-N-{4H,5H-naphtho[1,2-d][1,3]thiazol-2-yl}acetamide

>  <PriceCoeff>
1.00

>  <CAS>
392324-50-4

>  <MW>
341.38

>  <Description>
solid

>  <FSP3>
0.29

>  <clogP>
2.40

>  <TPSA>
107.61

>  <Acceptor>
4

>  <Donor>
1

>  <RotBonds>
3

>  <HAC>
24

>  <Collection>
General

>  <PPDS>
+

$$$$
F0440-0331
  Mrv2219 10102508112D          

 22 24  0  0  0  0            999 V2000
    1.0313   -1.4953    0.0000 N   0  0  0  0  0  0  0  0  0  0  0  0
   -1.4566   -2.9176    0.0000 C   0  0  0  0  0  0  0  0  0  0  0  0
   -1.9078   -3.6094    0.0000 N   0  0  0  0  0  0  0  0  0  0  0  0
   -2.6941   -3.3516    0.0000 C   0  0  0  0  0  0  0  0  0  0  0  0
   -0.6144   -2.9176    0.0000 N   0  0  0  0  0  0  0  0  0  0  0  0
    0.7778   -0.7219    0.0000 C   0  0  0  0  0  0  0  0  0  0  0  0
    1.8563   -1.4953    0.0000 C   0  0  0  0  0  0  0  0  0  0  0  0
   -1.9078   -2.2731    0.0000 S   0  0  0  0  0  0  0  0  0  0  0  0
   -0.2019   -2.1957    0.0000 C   0  0  0  0  0  0  0  0  0  0  0  0
   -2.6941   -2.5266    0.0000 C   0  0  0  0  0  0  0  0  0  0  0  0
    0.6188   -2.2172    0.0000 C   0  0  0  0  0  0  0  0  0  0  0  0
    1.4438   -0.2578    0.0000 C   0  0  0  0  0  0  0  0  0  0  0  0
    2.1141   -0.7219    0.0000 C   0  0  0  0  0  0  0  0  0  0  0  0
    0.0000   -0.4426    0.0000 O   0  0  0  0  0  0  0  0  0  0  0  0
    2.3504   -2.1700    0.0000 O   0  0  0  0  0  0  0  0  0  0  0  0
   -3.4160   -3.7641    0.0000 C   0  0  0  0  0  0  0  0  0  0  0  0
   -0.6144   -1.4739    0.0000 O   0  0  0  0  0  0  0  0  0  0  0  0
   -4.1465   -3.3516    0.0000 C   0  0  0  0  0  0  0  0  0  0  0  0
   -3.4160   -4.5805    0.0000 C   0  0  0  0  0  0  0  0  0  0  0  0
   -4.1465   -5.0016    0.0000 C   0  0  0  0  0  0  0  0  0  0  0  0
   -4.8683   -3.7641    0.0000 C   0  0  0  0  0  0  0  0  0  0  0  0
   -4.8683   -4.5805    0.0000 C   0  0  0  0  0  0  0  0  0  0  0  0
  2  5  1  0  0  0  0
  3  2  2  0  0  0  0
  4  3  1  0  0  0  0
  5  9  1  0  0  0  0
  6  1  1  0  0  0  0
  7  1  1  0  0  0  0
  8  2  1  0  0  0  0
  9 11  1  0  0  0  0
 10  8  1  0  0  0  0
 11  1  1  0  0  0  0
 12  6  1  0  0  0  0
 13  7  1  0  0  0  0
 14  6  2  0  0  0  0
 15  7  2  0  0  0  0
 16  4  1  0  0  0  0
 17  9  2  0  0  0  0
 18 16  2  0  0  0  0
 19 16  1  0  0  0  0
 20 19  2  0  0  0  0
 21 18  1  0  0  0  0
 22 20  1  0  0  0  0
 13 12  1  0  0  0  0
  4 10  2  0  0  0  0
 22 21  2  0  0  0  0
M  END
>  <IDNUMBER>
F0440-0331

>  <Chemical_Name>
2-(2,5-dioxopyrrolidin-1-yl)-N-(4-phenyl-1,3-thiazol-2-yl)acetamide

>  <PriceCoeff>
1.00

>  <CAS>
313699-31-9

>  <MW>
315.35

>  <Description>
solid

>  <FSP3>
0.20

>  <clogP>
1.95

>  <TPSA>
107.61

>  <Acceptor>
4

>  <Donor>
1

>  <RotBonds>
4

>  <HAC>
22

>  <Collection>
General

>  <PPDS>
+

$$$$
F0440-0332
  Mrv2219 10102508112D          

 23 25  0  0  0  0            999 V2000
    2.0674    1.7695    0.0000 N   0  0  0  0  0  0  0  0  0  0  0  0
   -0.4029    0.3372    0.0000 C   0  0  0  0  0  0  0  0  0  0  0  0
   -0.8628   -0.3461    0.0000 N   0  0  0  0  0  0  0  0  0  0  0  0
   -1.6644   -0.0920    0.0000 C   0  0  0  0  0  0  0  0  0  0  0  0
    0.4249    0.3372    0.0000 N   0  0  0  0  0  0  0  0  0  0  0  0
    1.8177    2.5710    0.0000 C   0  0  0  0  0  0  0  0  0  0  0  0
    2.9084    1.7695    0.0000 C   0  0  0  0  0  0  0  0  0  0  0  0
   -0.8628    0.9942    0.0000 S   0  0  0  0  0  0  0  0  0  0  0  0
    0.8410    1.0512    0.0000 C   0  0  0  0  0  0  0  0  0  0  0  0
   -1.6644    0.7358    0.0000 C   0  0  0  0  0  0  0  0  0  0  0  0
    1.6819    1.0512    0.0000 C   0  0  0  0  0  0  0  0  0  0  0  0
   -2.3783   -0.4906    0.0000 C   0  0  0  0  0  0  0  0  0  0  0  0
    2.4879    3.0309    0.0000 C   0  0  0  0  0  0  0  0  0  0  0  0
    3.1580    2.5710    0.0000 C   0  0  0  0  0  0  0  0  0  0  0  0
    1.0512    2.8207    0.0000 O   0  0  0  0  0  0  0  0  0  0  0  0
    3.4164    1.1169    0.0000 O   0  0  0  0  0  0  0  0  0  0  0  0
    0.4249    1.7695    0.0000 O   0  0  0  0  0  0  0  0  0  0  0  0
   -2.3783   -1.3316    0.0000 C   0  0  0  0  0  0  0  0  0  0  0  0
   -3.0966   -0.0920    0.0000 C   0  0  0  0  0  0  0  0  0  0  0  0
   -3.0966   -1.7345    0.0000 C   0  0  0  0  0  0  0  0  0  0  0  0
   -3.8062   -0.4906    0.0000 C   0  0  0  0  0  0  0  0  0  0  0  0
   -3.8062   -1.3316    0.0000 C   0  0  0  0  0  0  0  0  0  0  0  0
   -4.5202   -1.7520    0.0000 C   0  0  0  0  0  0  0  0  0  0  0  0
  2  5  1  0  0  0  0
  3  2  2  0  0  0  0
  4  3  1  0  0  0  0
  5  9  1  0  0  0  0
  6  1  1  0  0  0  0
  7  1  1  0  0  0  0
  8  2  1  0  0  0  0
  9 11  1  0  0  0  0
 10  8  1  0  0  0  0
 11  1  1  0  0  0  0
 12  4  1  0  0  0  0
 13  6  1  0  0  0  0
 14  7  1  0  0  0  0
 15  6  2  0  0  0  0
 16  7  2  0  0  0  0
 17  9  2  0  0  0  0
 18 12  1  0  0  0  0
 19 12  2  0  0  0  0
 20 18  2  0  0  0  0
 21 19  1  0  0  0  0
 22 21  2  0  0  0  0
 23 22  1  0  0  0  0
 14 13  1  0  0  0  0
 10  4  2  0  0  0  0
 22 20  1  0  0  0  0
M  END
>  <IDNUMBER>
F0440-0332

>  <Chemical_Name>
2-(2,5-dioxopyrrolidin-1-yl)-N-[4-(4-methylphenyl)-1,3-thiazol-2-yl]acetamide

>  <PriceCoeff>
1.00

>  <CAS>
361167-67-1

>  <MW>
329.37

>  <Description>
solid

>  <FSP3>
0.25

>  <clogP>
2.45

>  <TPSA>
107.61

>  <Acceptor>
4

>  <Donor>
1

>  <RotBonds>
4

>  <HAC>
23

>  <Collection>
General

>  <PPDS>
+

$$$$
F0440-0333
  Mrv2219 10102508112D          

 24 26  0  0  0  0            999 V2000
    2.4472    1.9072    0.0000 N   0  0  0  0  0  0  0  0  0  0  0  0
   -0.0221    0.5266    0.0000 C   0  0  0  0  0  0  0  0  0  0  0  0
   -0.4912   -0.1593    0.0000 N   0  0  0  0  0  0  0  0  0  0  0  0
   -1.2745    0.1018    0.0000 C   0  0  0  0  0  0  0  0  0  0  0  0
    0.7965    0.5266    0.0000 N   0  0  0  0  0  0  0  0  0  0  0  0
    2.2303    2.6905    0.0000 C   0  0  0  0  0  0  0  0  0  0  0  0
    3.2923    1.8806    0.0000 C   0  0  0  0  0  0  0  0  0  0  0  0
   -0.4912    1.1815    0.0000 S   0  0  0  0  0  0  0  0  0  0  0  0
    1.2214    1.2214    0.0000 C   0  0  0  0  0  0  0  0  0  0  0  0
   -1.2745    0.9248    0.0000 C   0  0  0  0  0  0  0  0  0  0  0  0
    2.0223    1.2036    0.0000 C   0  0  0  0  0  0  0  0  0  0  0  0
   -2.0001   -0.3186    0.0000 C   0  0  0  0  0  0  0  0  0  0  0  0
    2.8719    3.1551    0.0000 C   0  0  0  0  0  0  0  0  0  0  0  0
    3.5578    2.6772    0.0000 C   0  0  0  0  0  0  0  0  0  0  0  0
    1.4338    2.9869    0.0000 O   0  0  0  0  0  0  0  0  0  0  0  0
    3.7703    1.2036    0.0000 O   0  0  0  0  0  0  0  0  0  0  0  0
    0.8142    1.9470    0.0000 O   0  0  0  0  0  0  0  0  0  0  0  0
   -2.0001   -1.1462    0.0000 C   0  0  0  0  0  0  0  0  0  0  0  0
   -2.7038    0.1018    0.0000 C   0  0  0  0  0  0  0  0  0  0  0  0
   -2.7038   -1.5445    0.0000 C   0  0  0  0  0  0  0  0  0  0  0  0
   -3.4206   -0.2965    0.0000 C   0  0  0  0  0  0  0  0  0  0  0  0
   -3.4206   -1.1462    0.0000 C   0  0  0  0  0  0  0  0  0  0  0  0
   -4.1419   -1.5931    0.0000 C   0  0  0  0  0  0  0  0  0  0  0  0
   -4.1242   -2.4206    0.0000 C   0  0  0  0  0  0  0  0  0  0  0  0
  2  5  1  0  0  0  0
  3  2  2  0  0  0  0
  4  3  1  0  0  0  0
  5  9  1  0  0  0  0
  6  1  1  0  0  0  0
  7  1  1  0  0  0  0
  8  2  1  0  0  0  0
  9 11  1  0  0  0  0
 10  8  1  0  0  0  0
 11  1  1  0  0  0  0
 12  4  1  0  0  0  0
 13  6  1  0  0  0  0
 14  7  1  0  0  0  0
 15  6  2  0  0  0  0
 16  7  2  0  0  0  0
 17  9  2  0  0  0  0
 18 12  1  0  0  0  0
 19 12  2  0  0  0  0
 20 18  2  0  0  0  0
 21 19  1  0  0  0  0
 22 21  2  0  0  0  0
 23 22  1  0  0  0  0
 24 23  1  0  0  0  0
 14 13  1  0  0  0  0
  4 10  2  0  0  0  0
 22 20  1  0  0  0  0
M  END
>  <IDNUMBER>
F0440-0333

>  <Chemical_Name>
2-(2,5-dioxopyrrolidin-1-yl)-N-[4-(4-ethylphenyl)-1,3-thiazol-2-yl]acetamide

>  <PriceCoeff>
1.00

>  <CAS>
361167-68-2

>  <MW>
343.40

>  <Description>
solid

>  <FSP3>
0.29

>  <clogP>
2.97

>  <TPSA>
107.61

>  <Acceptor>
4

>  <Donor>
1

>  <RotBonds>
5

>  <HAC>
24

>  <Collection>
General

>  <PPDS>
+

$$$$
F0440-0334
  Mrv2219 10102508112D          

 24 26  0  0  0  0            999 V2000
    3.4909    1.8336    0.0000 N   0  0  0  0  0  0  0  0  0  0  0  0
    1.0049    0.4584    0.0000 C   0  0  0  0  0  0  0  0  0  0  0  0
    0.5334   -0.2116    0.0000 N   0  0  0  0  0  0  0  0  0  0  0  0
   -0.2600    0.0352    0.0000 C   0  0  0  0  0  0  0  0  0  0  0  0
    1.8292    0.4584    0.0000 N   0  0  0  0  0  0  0  0  0  0  0  0
    3.2264    2.6137    0.0000 C   0  0  0  0  0  0  0  0  0  0  0  0
    4.3019    1.8115    0.0000 C   0  0  0  0  0  0  0  0  0  0  0  0
    0.5334    1.1107    0.0000 S   0  0  0  0  0  0  0  0  0  0  0  0
    2.2259    1.1592    0.0000 C   0  0  0  0  0  0  0  0  0  0  0  0
   -0.2600    0.8595    0.0000 C   0  0  0  0  0  0  0  0  0  0  0  0
    3.0677    1.1327    0.0000 C   0  0  0  0  0  0  0  0  0  0  0  0
   -0.9521   -0.3702    0.0000 C   0  0  0  0  0  0  0  0  0  0  0  0
    3.9140    3.0810    0.0000 C   0  0  0  0  0  0  0  0  0  0  0  0
    4.5531    2.6005    0.0000 C   0  0  0  0  0  0  0  0  0  0  0  0
    2.4375    2.9091    0.0000 O   0  0  0  0  0  0  0  0  0  0  0  0
    4.7647    1.1327    0.0000 O   0  0  0  0  0  0  0  0  0  0  0  0
    1.8292    1.8732    0.0000 O   0  0  0  0  0  0  0  0  0  0  0  0
   -0.9521   -1.1813    0.0000 C   0  0  0  0  0  0  0  0  0  0  0  0
   -1.6749    0.0352    0.0000 C   0  0  0  0  0  0  0  0  0  0  0  0
   -2.3934   -1.2165    0.0000 C   0  0  0  0  0  0  0  0  0  0  0  0
   -2.3934   -0.3702    0.0000 C   0  0  0  0  0  0  0  0  0  0  0  0
   -1.6749   -1.6044    0.0000 C   0  0  0  0  0  0  0  0  0  0  0  0
   -3.1162   -1.6441    0.0000 O   0  0  0  0  0  0  0  0  0  0  0  0
   -3.0897   -2.4859    0.0000 C   0  0  0  0  0  0  0  0  0  0  0  0
  2  5  1  0  0  0  0
  3  2  2  0  0  0  0
  4  3  1  0  0  0  0
  5  9  1  0  0  0  0
  6  1  1  0  0  0  0
  7  1  1  0  0  0  0
  8  2  1  0  0  0  0
  9 11  1  0  0  0  0
 10  8  1  0  0  0  0
 11  1  1  0  0  0  0
 12  4  1  0  0  0  0
 13  6  1  0  0  0  0
 14  7  1  0  0  0  0
 15  6  2  0  0  0  0
 16  7  2  0  0  0  0
 17  9  2  0  0  0  0
 18 12  1  0  0  0  0
 19 12  2  0  0  0  0
 20 21  2  0  0  0  0
 21 19  1  0  0  0  0
 22 18  2  0  0  0  0
 23 20  1  0  0  0  0
 24 23  1  0  0  0  0
 14 13  1  0  0  0  0
 10  4  2  0  0  0  0
 20 22  1  0  0  0  0
M  END
>  <IDNUMBER>
F0440-0334

>  <Chemical_Name>
2-(2,5-dioxopyrrolidin-1-yl)-N-[4-(4-methoxyphenyl)-1,3-thiazol-2-yl]acetamide

>  <PriceCoeff>
1.00

>  <CAS>
361167-69-3

>  <MW>
345.37

>  <Description>
solid

>  <FSP3>
0.25

>  <clogP>
1.97

>  <TPSA>
116.84

>  <Acceptor>
5

>  <Donor>
1

>  <RotBonds>
5

>  <HAC>
24

>  <Collection>
General

>  <PPDS>
+

$$$$
F0440-0335
  Mrv2219 10102508112D          

 23 25  0  0  0  0            999 V2000
    2.2503   -1.4959    0.0000 N   0  0  0  0  0  0  0  0  0  0  0  0
   -0.2224   -2.9306    0.0000 C   0  0  0  0  0  0  0  0  0  0  0  0
   -0.6803   -3.5892    0.0000 N   0  0  0  0  0  0  0  0  0  0  0  0
   -1.4784   -3.3493    0.0000 C   0  0  0  0  0  0  0  0  0  0  0  0
    0.6062   -2.9306    0.0000 N   0  0  0  0  0  0  0  0  0  0  0  0
    1.9886   -0.6978    0.0000 C   0  0  0  0  0  0  0  0  0  0  0  0
    3.0876   -1.4959    0.0000 C   0  0  0  0  0  0  0  0  0  0  0  0
   -0.6803   -2.2678    0.0000 S   0  0  0  0  0  0  0  0  0  0  0  0
    0.9987   -2.2023    0.0000 C   0  0  0  0  0  0  0  0  0  0  0  0
   -1.4784   -2.5163    0.0000 C   0  0  0  0  0  0  0  0  0  0  0  0
    1.8360   -2.2023    0.0000 C   0  0  0  0  0  0  0  0  0  0  0  0
   -2.1936   -3.7679    0.0000 C   0  0  0  0  0  0  0  0  0  0  0  0
    2.6689   -0.2399    0.0000 C   0  0  0  0  0  0  0  0  0  0  0  0
    3.3275   -0.6978    0.0000 C   0  0  0  0  0  0  0  0  0  0  0  0
    1.2080   -0.4492    0.0000 O   0  0  0  0  0  0  0  0  0  0  0  0
    3.5761   -2.1456    0.0000 O   0  0  0  0  0  0  0  0  0  0  0  0
    0.6062   -1.4959    0.0000 O   0  0  0  0  0  0  0  0  0  0  0  0
   -2.1936   -4.5704    0.0000 C   0  0  0  0  0  0  0  0  0  0  0  0
   -2.9000   -3.3493    0.0000 C   0  0  0  0  0  0  0  0  0  0  0  0
   -3.6109   -4.5704    0.0000 C   0  0  0  0  0  0  0  0  0  0  0  0
   -3.6109   -3.7679    0.0000 C   0  0  0  0  0  0  0  0  0  0  0  0
   -2.9000   -4.9890    0.0000 C   0  0  0  0  0  0  0  0  0  0  0  0
   -4.3261   -4.9890    0.0000 Br  0  0  0  0  0  0  0  0  0  0  0  0
  2  5  1  0  0  0  0
  3  2  2  0  0  0  0
  4  3  1  0  0  0  0
  5  9  1  0  0  0  0
  6  1  1  0  0  0  0
  7  1  1  0  0  0  0
  8  2  1  0  0  0  0
  9 11  1  0  0  0  0
 10  8  1  0  0  0  0
 11  1  1  0  0  0  0
 12  4  1  0  0  0  0
 13  6  1  0  0  0  0
 14  7  1  0  0  0  0
 15  6  2  0  0  0  0
 16  7  2  0  0  0  0
 17  9  2  0  0  0  0
 18 12  1  0  0  0  0
 19 12  2  0  0  0  0
 20 21  2  0  0  0  0
 21 19  1  0  0  0  0
 22 18  2  0  0  0  0
 23 20  1  0  0  0  0
 14 13  1  0  0  0  0
  4 10  2  0  0  0  0
 20 22  1  0  0  0  0
M  END
>  <IDNUMBER>
F0440-0335

>  <Chemical_Name>
N-[4-(4-bromophenyl)-1,3-thiazol-2-yl]-2-(2,5-dioxopyrrolidin-1-yl)acetamide

>  <PriceCoeff>
1.00

>  <CAS>
361167-70-6

>  <MW>
394.24

>  <Description>
solid

>  <FSP3>
0.20

>  <clogP>
2.82

>  <TPSA>
107.61

>  <Acceptor>
4

>  <Donor>
1

>  <RotBonds>
4

>  <HAC>
23

>  <Collection>
General

>  <PPDS>
+

$$$$
F0440-0337
  Mrv2219 10102508112D          

 24 26  0  0  0  0            999 V2000
    2.7829    1.9034    0.0000 N   0  0  0  0  0  0  0  0  0  0  0  0
    0.3194    0.5206    0.0000 C   0  0  0  0  0  0  0  0  0  0  0  0
   -0.1269   -0.1575    0.0000 N   0  0  0  0  0  0  0  0  0  0  0  0
   -0.9058    0.1181    0.0000 C   0  0  0  0  0  0  0  0  0  0  0  0
    1.1552    0.5382    0.0000 N   0  0  0  0  0  0  0  0  0  0  0  0
    2.5511    2.6779    0.0000 C   0  0  0  0  0  0  0  0  0  0  0  0
    3.6013    1.8859    0.0000 C   0  0  0  0  0  0  0  0  0  0  0  0
   -0.1050    1.1683    0.0000 S   0  0  0  0  0  0  0  0  0  0  0  0
   -1.6409   -0.2669    0.0000 C   0  0  0  0  0  0  0  0  0  0  0  0
   -0.8883    0.9408    0.0000 C   0  0  0  0  0  0  0  0  0  0  0  0
    1.5752    1.2295    0.0000 C   0  0  0  0  0  0  0  0  0  0  0  0
    2.3629    1.2077    0.0000 C   0  0  0  0  0  0  0  0  0  0  0  0
   -1.6409   -1.1027    0.0000 C   0  0  0  0  0  0  0  0  0  0  0  0
   -2.3322    0.1181    0.0000 C   0  0  0  0  0  0  0  0  0  0  0  0
    3.2030    3.1461    0.0000 C   0  0  0  0  0  0  0  0  0  0  0  0
    3.8856    2.6604    0.0000 C   0  0  0  0  0  0  0  0  0  0  0  0
   -2.3322   -1.5227    0.0000 C   0  0  0  0  0  0  0  0  0  0  0  0
    1.7853    2.9754    0.0000 O   0  0  0  0  0  0  0  0  0  0  0  0
    4.0957    1.2077    0.0000 O   0  0  0  0  0  0  0  0  0  0  0  0
    1.1596    1.9428    0.0000 O   0  0  0  0  0  0  0  0  0  0  0  0
   -3.0455   -0.2669    0.0000 C   0  0  0  0  0  0  0  0  0  0  0  0
   -3.0455   -1.1071    0.0000 C   0  0  0  0  0  0  0  0  0  0  0  0
   -0.9276   -1.5271    0.0000 C   0  0  0  0  0  0  0  0  0  0  0  0
   -3.7631   -1.5534    0.0000 C   0  0  0  0  0  0  0  0  0  0  0  0
  2  5  1  0  0  0  0
  3  2  2  0  0  0  0
  4  3  1  0  0  0  0
  5 11  1  0  0  0  0
  6  1  1  0  0  0  0
  7  1  1  0  0  0  0
  8  2  1  0  0  0  0
  9  4  1  0  0  0  0
 10  8  1  0  0  0  0
 11 12  1  0  0  0  0
 12  1  1  0  0  0  0
 13  9  1  0  0  0  0
 14  9  2  0  0  0  0
 15  6  1  0  0  0  0
 16  7  1  0  0  0  0
 17 13  2  0  0  0  0
 18  6  2  0  0  0  0
 19  7  2  0  0  0  0
 20 11  2  0  0  0  0
 21 14  1  0  0  0  0
 22 21  2  0  0  0  0
 23 13  1  0  0  0  0
 24 22  1  0  0  0  0
 16 15  1  0  0  0  0
  4 10  2  0  0  0  0
 22 17  1  0  0  0  0
M  END
>  <IDNUMBER>
F0440-0337

>  <Chemical_Name>
N-[4-(2,4-dimethylphenyl)-1,3-thiazol-2-yl]-2-(2,5-dioxopyrrolidin-1-yl)acetamide

>  <PriceCoeff>
1.00

>  <CAS>
392324-57-1

>  <MW>
343.40

>  <Description>
solid

>  <FSP3>
0.29

>  <clogP>
2.64

>  <TPSA>
107.61

>  <Acceptor>
4

>  <Donor>
1

>  <RotBonds>
4

>  <HAC>
24

>  <Collection>
General

>  <PPDS>
+

$$$$
F0440-0338
  Mrv2219 10102508112D          

 24 26  0  0  0  0            999 V2000
    3.3782   -2.2536    0.0000 N   0  0  0  0  0  0  0  0  0  0  0  0
    0.9104   -3.6727    0.0000 C   0  0  0  0  0  0  0  0  0  0  0  0
    0.4463   -4.3376    0.0000 N   0  0  0  0  0  0  0  0  0  0  0  0
   -0.3347   -4.1011    0.0000 C   0  0  0  0  0  0  0  0  0  0  0  0
    1.7315   -3.6727    0.0000 N   0  0  0  0  0  0  0  0  0  0  0  0
    3.1238   -1.4638    0.0000 C   0  0  0  0  0  0  0  0  0  0  0  0
    4.1948   -2.2536    0.0000 C   0  0  0  0  0  0  0  0  0  0  0  0
   -1.0397   -4.5028    0.0000 C   0  0  0  0  0  0  0  0  0  0  0  0
    0.4284   -3.0033    0.0000 S   0  0  0  0  0  0  0  0  0  0  0  0
   -0.3347   -3.2666    0.0000 C   0  0  0  0  0  0  0  0  0  0  0  0
    2.1420   -2.9632    0.0000 C   0  0  0  0  0  0  0  0  0  0  0  0
    2.9766   -2.9632    0.0000 C   0  0  0  0  0  0  0  0  0  0  0  0
   -1.0397   -5.3551    0.0000 C   0  0  0  0  0  0  0  0  0  0  0  0
   -1.7493   -4.1011    0.0000 C   0  0  0  0  0  0  0  0  0  0  0  0
    3.8021   -1.0175    0.0000 C   0  0  0  0  0  0  0  0  0  0  0  0
    4.4492   -1.4638    0.0000 C   0  0  0  0  0  0  0  0  0  0  0  0
    2.3473   -1.1826    0.0000 O   0  0  0  0  0  0  0  0  0  0  0  0
    4.7125   -2.9230    0.0000 O   0  0  0  0  0  0  0  0  0  0  0  0
    1.7136   -2.2536    0.0000 O   0  0  0  0  0  0  0  0  0  0  0  0
   -1.7493   -5.7478    0.0000 C   0  0  0  0  0  0  0  0  0  0  0  0
   -2.4588   -4.5295    0.0000 C   0  0  0  0  0  0  0  0  0  0  0  0
   -2.4588   -5.3194    0.0000 C   0  0  0  0  0  0  0  0  0  0  0  0
   -0.3347   -5.7835    0.0000 C   0  0  0  0  0  0  0  0  0  0  0  0
   -3.1818   -4.1234    0.0000 C   0  0  0  0  0  0  0  0  0  0  0  0
  2  5  1  0  0  0  0
  3  2  2  0  0  0  0
  4  3  1  0  0  0  0
  5 11  1  0  0  0  0
  6  1  1  0  0  0  0
  7  1  1  0  0  0  0
  8  4  1  0  0  0  0
  9  2  1  0  0  0  0
 10  9  1  0  0  0  0
 11 12  1  0  0  0  0
 12  1  1  0  0  0  0
 13  8  1  0  0  0  0
 14  8  2  0  0  0  0
 15  6  1  0  0  0  0
 16  7  1  0  0  0  0
 17  6  2  0  0  0  0
 18  7  2  0  0  0  0
 19 11  2  0  0  0  0
 20 13  2  0  0  0  0
 21 14  1  0  0  0  0
 22 21  2  0  0  0  0
 23 13  1  0  0  0  0
 24 21  1  0  0  0  0
 16 15  1  0  0  0  0
 10  4  2  0  0  0  0
 20 22  1  0  0  0  0
M  END
>  <IDNUMBER>
F0440-0338

>  <Chemical_Name>
N-[4-(2,5-dimethylphenyl)-1,3-thiazol-2-yl]-2-(2,5-dioxopyrrolidin-1-yl)acetamide

>  <PriceCoeff>
1.00

>  <CAS>
441289-44-7

>  <MW>
343.40

>  <Description>
solid

>  <FSP3>
0.29

>  <clogP>
2.64

>  <TPSA>
107.61

>  <Acceptor>
4

>  <Donor>
1

>  <RotBonds>
4

>  <HAC>
24

>  <Collection>
General

>  <PPDS>
+

$$$$
F0440-0339
  Mrv2219 10102508112D          

 24 26  0  0  0  0            999 V2000
    2.5482   -2.5883    0.0000 N   0  0  0  0  0  0  0  0  0  0  0  0
    0.0580   -4.0163    0.0000 C   0  0  0  0  0  0  0  0  0  0  0  0
   -0.3749   -4.6634    0.0000 N   0  0  0  0  0  0  0  0  0  0  0  0
   -1.1736   -4.4447    0.0000 C   0  0  0  0  0  0  0  0  0  0  0  0
    0.9104   -4.0163    0.0000 N   0  0  0  0  0  0  0  0  0  0  0  0
    2.3027   -1.7984    0.0000 C   0  0  0  0  0  0  0  0  0  0  0  0
    3.3737   -2.5883    0.0000 C   0  0  0  0  0  0  0  0  0  0  0  0
   -0.3971   -3.3380    0.0000 S   0  0  0  0  0  0  0  0  0  0  0  0
    1.3031   -3.2979    0.0000 C   0  0  0  0  0  0  0  0  0  0  0  0
   -1.1736   -3.5924    0.0000 C   0  0  0  0  0  0  0  0  0  0  0  0
   -1.8743   -4.8374    0.0000 C   0  0  0  0  0  0  0  0  0  0  0  0
    2.1420   -3.2979    0.0000 C   0  0  0  0  0  0  0  0  0  0  0  0
   -1.8743   -5.6764    0.0000 C   0  0  0  0  0  0  0  0  0  0  0  0
   -2.5838   -6.0825    0.0000 C   0  0  0  0  0  0  0  0  0  0  0  0
    2.9498   -1.3433    0.0000 C   0  0  0  0  0  0  0  0  0  0  0  0
    3.6192   -1.7984    0.0000 C   0  0  0  0  0  0  0  0  0  0  0  0
    1.5173   -1.5173    0.0000 O   0  0  0  0  0  0  0  0  0  0  0  0
    3.8735   -3.2666    0.0000 O   0  0  0  0  0  0  0  0  0  0  0  0
   -3.2889   -5.6943    0.0000 C   0  0  0  0  0  0  0  0  0  0  0  0
    0.8747   -2.5883    0.0000 O   0  0  0  0  0  0  0  0  0  0  0  0
   -2.5838   -4.4447    0.0000 C   0  0  0  0  0  0  0  0  0  0  0  0
   -3.2889   -4.8731    0.0000 C   0  0  0  0  0  0  0  0  0  0  0  0
   -2.6061   -6.9080    0.0000 C   0  0  0  0  0  0  0  0  0  0  0  0
   -3.9984   -6.1583    0.0000 C   0  0  0  0  0  0  0  0  0  0  0  0
  2  5  1  0  0  0  0
  3  2  2  0  0  0  0
  4  3  1  0  0  0  0
  5  9  1  0  0  0  0
  6  1  1  0  0  0  0
  7  1  1  0  0  0  0
  8  2  1  0  0  0  0
  9 12  1  0  0  0  0
 10  8  1  0  0  0  0
 11  4  1  0  0  0  0
 12  1  1  0  0  0  0
 13 11  1  0  0  0  0
 14 13  2  0  0  0  0
 15  6  1  0  0  0  0
 16  7  1  0  0  0  0
 17  6  2  0  0  0  0
 18  7  2  0  0  0  0
 19 22  2  0  0  0  0
 20  9  2  0  0  0  0
 21 11  2  0  0  0  0
 22 21  1  0  0  0  0
 23 14  1  0  0  0  0
 24 19  1  0  0  0  0
 16 15  1  0  0  0  0
  4 10  2  0  0  0  0
 19 14  1  0  0  0  0
M  END
>  <IDNUMBER>
F0440-0339

>  <Chemical_Name>
N-[4-(3,4-dimethylphenyl)-1,3-thiazol-2-yl]-2-(2,5-dioxopyrrolidin-1-yl)acetamide

>  <PriceCoeff>
1.00

>  <CAS>
361167-72-8

>  <MW>
343.40

>  <Description>
solid

>  <FSP3>
0.29

>  <clogP>
2.89

>  <TPSA>
107.61

>  <Acceptor>
4

>  <Donor>
1

>  <RotBonds>
4

>  <HAC>
24

>  <Collection>
General

>  <PPDS>
+

$$$$
F0440-0340
  Mrv2219 10102508112D          

 28 31  0  0  0  0            999 V2000
   -1.1929   -3.0821    0.0000 C   0  0  0  0  0  0  0  0  0  0  0  0
    1.2858   -1.6710    0.0000 N   0  0  0  0  0  0  0  0  0  0  0  0
   -2.4647   -3.5091    0.0000 C   0  0  0  0  0  0  0  0  0  0  0  0
   -2.4647   -2.6736    0.0000 C   0  0  0  0  0  0  0  0  0  0  0  0
   -1.6663   -3.7505    0.0000 N   0  0  0  0  0  0  0  0  0  0  0  0
   -1.6663   -2.4137    0.0000 S   0  0  0  0  0  0  0  0  0  0  0  0
   -0.3481   -3.0821    0.0000 N   0  0  0  0  0  0  0  0  0  0  0  0
    1.0583   -0.8912    0.0000 C   0  0  0  0  0  0  0  0  0  0  0  0
    2.1352   -1.6710    0.0000 C   0  0  0  0  0  0  0  0  0  0  0  0
    0.0557   -2.3719    0.0000 C   0  0  0  0  0  0  0  0  0  0  0  0
    0.8912   -2.3719    0.0000 C   0  0  0  0  0  0  0  0  0  0  0  0
   -3.1749   -3.9036    0.0000 C   0  0  0  0  0  0  0  0  0  0  0  0
   -3.1145   -2.1491    0.0000 C   0  0  0  0  0  0  0  0  0  0  0  0
    1.7267   -0.4085    0.0000 C   0  0  0  0  0  0  0  0  0  0  0  0
    2.3951   -0.8912    0.0000 C   0  0  0  0  0  0  0  0  0  0  0  0
    0.2414   -0.5895    0.0000 O   0  0  0  0  0  0  0  0  0  0  0  0
    2.6225   -2.3441    0.0000 O   0  0  0  0  0  0  0  0  0  0  0  0
   -0.3481   -1.6710    0.0000 O   0  0  0  0  0  0  0  0  0  0  0  0
   -3.8943   -3.5091    0.0000 C   0  0  0  0  0  0  0  0  0  0  0  0
   -3.1749   -4.7530    0.0000 C   0  0  0  0  0  0  0  0  0  0  0  0
   -2.9752   -1.3368    0.0000 C   0  0  0  0  0  0  0  0  0  0  0  0
   -3.8664   -2.4554    0.0000 C   0  0  0  0  0  0  0  0  0  0  0  0
   -4.5348   -1.9495    0.0000 C   0  0  0  0  0  0  0  0  0  0  0  0
   -3.8943   -5.1569    0.0000 C   0  0  0  0  0  0  0  0  0  0  0  0
   -4.6044   -3.9036    0.0000 C   0  0  0  0  0  0  0  0  0  0  0  0
   -3.6436   -0.8123    0.0000 C   0  0  0  0  0  0  0  0  0  0  0  0
   -4.6044   -4.7530    0.0000 C   0  0  0  0  0  0  0  0  0  0  0  0
   -4.4234   -1.1187    0.0000 C   0  0  0  0  0  0  0  0  0  0  0  0
  2 11  1  0  0  0  0
  3  5  1  0  0  0  0
  4  6  1  0  0  0  0
  5  1  2  0  0  0  0
  6  1  1  0  0  0  0
  7  1  1  0  0  0  0
  8  2  1  0  0  0  0
  9  2  1  0  0  0  0
 10  7  1  0  0  0  0
 11 10  1  0  0  0  0
 12  3  1  0  0  0  0
 13  4  1  0  0  0  0
 14  8  1  0  0  0  0
 15  9  1  0  0  0  0
 16  8  2  0  0  0  0
 17  9  2  0  0  0  0
 18 10  2  0  0  0  0
 19 12  2  0  0  0  0
 20 12  1  0  0  0  0
 21 13  2  0  0  0  0
 22 13  1  0  0  0  0
 23 22  2  0  0  0  0
 24 20  2  0  0  0  0
 25 19  1  0  0  0  0
 26 21  1  0  0  0  0
 27 24  1  0  0  0  0
 28 23  1  0  0  0  0
  3  4  2  0  0  0  0
 15 14  1  0  0  0  0
 28 26  2  0  0  0  0
 27 25  2  0  0  0  0
M  END
>  <IDNUMBER>
F0440-0340

>  <Chemical_Name>
2-(2,5-dioxopyrrolidin-1-yl)-N-(4,5-diphenyl-1,3-thiazol-2-yl)acetamide

>  <PriceCoeff>
1.00

>  <CAS>
476308-65-3

>  <MW>
391.44

>  <Description>
solid

>  <FSP3>
0.14

>  <clogP>
3.44

>  <TPSA>
107.61

>  <Acceptor>
4

>  <Donor>
1

>  <RotBonds>
5

>  <HAC>
28

>  <Collection>
General

>  <PPDS>
+

$$$$
F0440-0342
  Mrv2219 10102508112D          

 25 27  0  0  0  0            999 V2000
    1.9576   -1.5708    0.0000 N   0  0  0  0  0  0  0  0  0  0  0  0
   -1.6780   -3.5844    0.0000 C   0  0  0  0  0  0  0  0  0  0  0  0
   -0.8762   -3.8361    0.0000 N   0  0  0  0  0  0  0  0  0  0  0  0
   -0.4288   -3.1649    0.0000 C   0  0  0  0  0  0  0  0  0  0  0  0
   -2.4004   -4.0271    0.0000 C   0  0  0  0  0  0  0  0  0  0  0  0
    0.3915   -3.0950    0.0000 N   0  0  0  0  0  0  0  0  0  0  0  0
    1.6780   -0.7878    0.0000 C   0  0  0  0  0  0  0  0  0  0  0  0
    2.7966   -1.5102    0.0000 C   0  0  0  0  0  0  0  0  0  0  0  0
   -0.8762   -2.5356    0.0000 S   0  0  0  0  0  0  0  0  0  0  0  0
   -1.6780   -2.7966    0.0000 C   0  0  0  0  0  0  0  0  0  0  0  0
   -2.4004   -4.8429    0.0000 C   0  0  0  0  0  0  0  0  0  0  0  0
   -3.1135   -3.5844    0.0000 C   0  0  0  0  0  0  0  0  0  0  0  0
    0.7831   -2.3539    0.0000 C   0  0  0  0  0  0  0  0  0  0  0  0
    1.5988   -2.3119    0.0000 C   0  0  0  0  0  0  0  0  0  0  0  0
   -3.1135   -5.2577    0.0000 C   0  0  0  0  0  0  0  0  0  0  0  0
   -3.8267   -4.0271    0.0000 C   0  0  0  0  0  0  0  0  0  0  0  0
    2.3119   -0.2983    0.0000 C   0  0  0  0  0  0  0  0  0  0  0  0
    2.9831   -0.7271    0.0000 C   0  0  0  0  0  0  0  0  0  0  0  0
    0.8577   -0.5640    0.0000 O   0  0  0  0  0  0  0  0  0  0  0  0
    3.3187   -2.1301    0.0000 O   0  0  0  0  0  0  0  0  0  0  0  0
    0.2983   -1.6827    0.0000 O   0  0  0  0  0  0  0  0  0  0  0  0
   -3.8267   -4.8429    0.0000 C   0  0  0  0  0  0  0  0  0  0  0  0
   -3.1135   -2.7594    0.0000 C   0  0  0  0  0  0  0  0  0  0  0  0
   -1.6593   -5.2624    0.0000 C   0  0  0  0  0  0  0  0  0  0  0  0
   -4.5445   -5.2624    0.0000 C   0  0  0  0  0  0  0  0  0  0  0  0
  2  3  1  0  0  0  0
  3  4  2  0  0  0  0
  4  6  1  0  0  0  0
  5  2  1  0  0  0  0
  6 13  1  0  0  0  0
  7  1  1  0  0  0  0
  8  1  1  0  0  0  0
  9  4  1  0  0  0  0
 10  9  1  0  0  0  0
 11  5  1  0  0  0  0
 12  5  2  0  0  0  0
 13 14  1  0  0  0  0
 14  1  1  0  0  0  0
 15 11  2  0  0  0  0
 16 12  1  0  0  0  0
 17  7  1  0  0  0  0
 18  8  1  0  0  0  0
 19  7  2  0  0  0  0
 20  8  2  0  0  0  0
 21 13  2  0  0  0  0
 22 16  2  0  0  0  0
 23 12  1  0  0  0  0
 24 11  1  0  0  0  0
 25 22  1  0  0  0  0
 18 17  1  0  0  0  0
 10  2  2  0  0  0  0
 22 15  1  0  0  0  0
M  END
>  <IDNUMBER>
F0440-0342

>  <Chemical_Name>
2-(2,5-dioxopyrrolidin-1-yl)-N-[4-(2,4,6-trimethylphenyl)-1,3-thiazol-2-yl]acetamide

>  <PriceCoeff>
1.00

>  <MW>
357.43

>  <Description>
solid

>  <FSP3>
0.33

>  <clogP>
2.84

>  <TPSA>
107.61

>  <Acceptor>
4

>  <Donor>
1

>  <RotBonds>
4

>  <HAC>
25

>  <Collection>
General

$$$$
F0440-0343
  Mrv2219 10102508112D          

 24 26  0  0  0  0            999 V2000
    1.1482   -1.1530    0.0000 N   0  0  0  0  0  0  0  0  0  0  0  0
   -1.8036   -3.2485    0.0000 N   0  0  0  0  0  0  0  0  0  0  0  0
   -1.3204   -2.5834    0.0000 C   0  0  0  0  0  0  0  0  0  0  0  0
   -2.5834   -2.9901    0.0000 C   0  0  0  0  0  0  0  0  0  0  0  0
   -3.3249   -3.4063    0.0000 C   0  0  0  0  0  0  0  0  0  0  0  0
   -0.4975   -2.5834    0.0000 N   0  0  0  0  0  0  0  0  0  0  0  0
    0.8947   -0.3780    0.0000 C   0  0  0  0  0  0  0  0  0  0  0  0
    1.9711   -1.1817    0.0000 C   0  0  0  0  0  0  0  0  0  0  0  0
   -1.8036   -1.9137    0.0000 S   0  0  0  0  0  0  0  0  0  0  0  0
   -2.5834   -2.1816    0.0000 C   0  0  0  0  0  0  0  0  0  0  0  0
   -0.0813   -1.8706    0.0000 C   0  0  0  0  0  0  0  0  0  0  0  0
    0.7463   -1.8706    0.0000 C   0  0  0  0  0  0  0  0  0  0  0  0
   -3.3249   -4.2483    0.0000 C   0  0  0  0  0  0  0  0  0  0  0  0
   -4.0330   -2.9901    0.0000 C   0  0  0  0  0  0  0  0  0  0  0  0
    1.5549    0.0718    0.0000 C   0  0  0  0  0  0  0  0  0  0  0  0
    2.2390   -0.4019    0.0000 C   0  0  0  0  0  0  0  0  0  0  0  0
    0.1148   -0.1005    0.0000 O   0  0  0  0  0  0  0  0  0  0  0  0
    2.4686   -1.8419    0.0000 O   0  0  0  0  0  0  0  0  0  0  0  0
   -0.4975   -1.1530    0.0000 O   0  0  0  0  0  0  0  0  0  0  0  0
   -4.0330   -4.6502    0.0000 C   0  0  0  0  0  0  0  0  0  0  0  0
   -4.7458   -3.4063    0.0000 C   0  0  0  0  0  0  0  0  0  0  0  0
   -2.5834   -4.6694    0.0000 Cl  0  0  0  0  0  0  0  0  0  0  0  0
   -4.7458   -4.2483    0.0000 C   0  0  0  0  0  0  0  0  0  0  0  0
   -5.4778   -2.9901    0.0000 Cl  0  0  0  0  0  0  0  0  0  0  0  0
  2  3  2  0  0  0  0
  3  6  1  0  0  0  0
  4  2  1  0  0  0  0
  5  4  1  0  0  0  0
  6 11  1  0  0  0  0
  7  1  1  0  0  0  0
  8  1  1  0  0  0  0
  9  3  1  0  0  0  0
 10  9  1  0  0  0  0
 11 12  1  0  0  0  0
 12  1  1  0  0  0  0
 13  5  1  0  0  0  0
 14  5  2  0  0  0  0
 15  7  1  0  0  0  0
 16  8  1  0  0  0  0
 17  7  2  0  0  0  0
 18  8  2  0  0  0  0
 19 11  2  0  0  0  0
 20 13  2  0  0  0  0
 21 14  1  0  0  0  0
 22 13  1  0  0  0  0
 23 21  2  0  0  0  0
 24 21  1  0  0  0  0
 16 15  1  0  0  0  0
 10  4  2  0  0  0  0
 23 20  1  0  0  0  0
M  END
>  <IDNUMBER>
F0440-0343

>  <Chemical_Name>
N-[4-(2,5-dichlorophenyl)-1,3-thiazol-2-yl]-2-(2,5-dioxopyrrolidin-1-yl)acetamide

>  <PriceCoeff>
1.00

>  <CAS>
380180-45-0

>  <MW>
384.24

>  <Description>
solid

>  <FSP3>
0.20

>  <clogP>
3.13

>  <TPSA>
107.61

>  <Acceptor>
4

>  <Donor>
1

>  <RotBonds>
4

>  <HAC>
24

>  <Collection>
General

>  <PPDS>
+

$$$$
F0440-0344
  Mrv2219 10102508112D          

 26 28  0  0  0  0            999 V2000
    2.3821   -1.2379    0.0000 N   0  0  0  0  0  0  0  0  0  0  0  0
   -0.0563   -2.6494    0.0000 C   0  0  0  0  0  0  0  0  0  0  0  0
   -0.5298   -3.3246    0.0000 N   0  0  0  0  0  0  0  0  0  0  0  0
   -1.2942   -3.0948    0.0000 C   0  0  0  0  0  0  0  0  0  0  0  0
    0.7362   -2.6494    0.0000 N   0  0  0  0  0  0  0  0  0  0  0  0
    2.1382   -0.4502    0.0000 C   0  0  0  0  0  0  0  0  0  0  0  0
    3.2074   -1.2379    0.0000 C   0  0  0  0  0  0  0  0  0  0  0  0
   -0.5298   -2.0023    0.0000 S   0  0  0  0  0  0  0  0  0  0  0  0
    1.1442   -1.9320    0.0000 C   0  0  0  0  0  0  0  0  0  0  0  0
   -1.2942   -2.2508    0.0000 C   0  0  0  0  0  0  0  0  0  0  0  0
   -2.0398   -3.4887    0.0000 C   0  0  0  0  0  0  0  0  0  0  0  0
    1.9742   -1.9320    0.0000 C   0  0  0  0  0  0  0  0  0  0  0  0
   -2.0398   -4.3328    0.0000 C   0  0  0  0  0  0  0  0  0  0  0  0
   -2.7384   -4.7173    0.0000 C   0  0  0  0  0  0  0  0  0  0  0  0
   -3.4559   -4.3328    0.0000 C   0  0  0  0  0  0  0  0  0  0  0  0
    2.7901    0.0141    0.0000 C   0  0  0  0  0  0  0  0  0  0  0  0
    3.4372   -0.4502    0.0000 C   0  0  0  0  0  0  0  0  0  0  0  0
    1.3505   -0.1735    0.0000 O   0  0  0  0  0  0  0  0  0  0  0  0
    3.7138   -1.8898    0.0000 O   0  0  0  0  0  0  0  0  0  0  0  0
    0.7362   -1.2145    0.0000 O   0  0  0  0  0  0  0  0  0  0  0  0
   -2.7384   -3.0948    0.0000 C   0  0  0  0  0  0  0  0  0  0  0  0
   -3.4559   -3.5075    0.0000 C   0  0  0  0  0  0  0  0  0  0  0  0
   -2.7384   -5.5332    0.0000 O   0  0  0  0  0  0  0  0  0  0  0  0
   -4.1780   -4.7455    0.0000 O   0  0  0  0  0  0  0  0  0  0  0  0
   -3.4559   -5.9412    0.0000 C   0  0  0  0  0  0  0  0  0  0  0  0
   -4.1780   -5.5754    0.0000 C   0  0  0  0  0  0  0  0  0  0  0  0
  2  5  1  0  0  0  0
  3  2  2  0  0  0  0
  4  3  1  0  0  0  0
  5  9  1  0  0  0  0
  6  1  1  0  0  0  0
  7  1  1  0  0  0  0
  8  2  1  0  0  0  0
  9 12  1  0  0  0  0
 10  8  1  0  0  0  0
 11  4  1  0  0  0  0
 12  1  1  0  0  0  0
 13 11  1  0  0  0  0
 14 13  2  0  0  0  0
 15 22  2  0  0  0  0
 16  6  1  0  0  0  0
 17  7  1  0  0  0  0
 18  6  2  0  0  0  0
 19  7  2  0  0  0  0
 20  9  2  0  0  0  0
 21 11  2  0  0  0  0
 22 21  1  0  0  0  0
 23 14  1  0  0  0  0
 24 15  1  0  0  0  0
 25 23  1  0  0  0  0
 26 24  1  0  0  0  0
 17 16  1  0  0  0  0
  4 10  2  0  0  0  0
 14 15  1  0  0  0  0
M  END
>  <IDNUMBER>
F0440-0344

>  <Chemical_Name>
N-[4-(3,4-dimethoxyphenyl)-1,3-thiazol-2-yl]-2-(2,5-dioxopyrrolidin-1-yl)acetamide

>  <PriceCoeff>
1.00

>  <CAS>
392324-62-8

>  <MW>
375.40

>  <Description>
solid

>  <FSP3>
0.29

>  <clogP>
1.68

>  <TPSA>
126.07

>  <Acceptor>
6

>  <Donor>
1

>  <RotBonds>
6

>  <HAC>
26

>  <Collection>
General

>  <PPDS>
+

$$$$
F0440-0345
  Mrv2219 10102508112D          

 25 27  0  0  0  0            999 V2000
    2.6779   -1.0540    0.0000 N   0  0  0  0  0  0  0  0  0  0  0  0
    0.1916   -2.4767    0.0000 C   0  0  0  0  0  0  0  0  0  0  0  0
   -0.2826   -3.1618    0.0000 N   0  0  0  0  0  0  0  0  0  0  0  0
   -1.0587   -2.8936    0.0000 C   0  0  0  0  0  0  0  0  0  0  0  0
    1.0348   -2.4767    0.0000 N   0  0  0  0  0  0  0  0  0  0  0  0
    2.4193   -0.2874    0.0000 C   0  0  0  0  0  0  0  0  0  0  0  0
    3.5067   -1.0923    0.0000 C   0  0  0  0  0  0  0  0  0  0  0  0
   -0.2826   -1.8157    0.0000 S   0  0  0  0  0  0  0  0  0  0  0  0
    1.4371   -1.7821    0.0000 C   0  0  0  0  0  0  0  0  0  0  0  0
   -1.0587   -2.0695    0.0000 C   0  0  0  0  0  0  0  0  0  0  0  0
    2.2612   -1.7821    0.0000 C   0  0  0  0  0  0  0  0  0  0  0  0
   -1.7965   -3.3103    0.0000 C   0  0  0  0  0  0  0  0  0  0  0  0
    3.1043    0.1724    0.0000 C   0  0  0  0  0  0  0  0  0  0  0  0
    3.7558   -0.2922    0.0000 C   0  0  0  0  0  0  0  0  0  0  0  0
    1.6432    0.0000    0.0000 O   0  0  0  0  0  0  0  0  0  0  0  0
    3.9858   -1.7439    0.0000 O   0  0  0  0  0  0  0  0  0  0  0  0
   -3.2193   -4.1391    0.0000 C   0  0  0  0  0  0  0  0  0  0  0  0
    1.0348   -1.0540    0.0000 O   0  0  0  0  0  0  0  0  0  0  0  0
   -2.5102   -2.8936    0.0000 C   0  0  0  0  0  0  0  0  0  0  0  0
   -1.7965   -4.1391    0.0000 C   0  0  0  0  0  0  0  0  0  0  0  0
   -3.2193   -3.3103    0.0000 C   0  0  0  0  0  0  0  0  0  0  0  0
   -2.5102   -4.5463    0.0000 C   0  0  0  0  0  0  0  0  0  0  0  0
   -3.9618   -4.5750    0.0000 C   0  0  0  0  0  0  0  0  0  0  0  0
   -4.6708   -4.1583    0.0000 C   0  0  0  0  0  0  0  0  0  0  0  0
   -3.9330   -5.4038    0.0000 C   0  0  0  0  0  0  0  0  0  0  0  0
  2  5  1  0  0  0  0
  3  2  2  0  0  0  0
  4  3  1  0  0  0  0
  5  9  1  0  0  0  0
  6  1  1  0  0  0  0
  7  1  1  0  0  0  0
  8  2  1  0  0  0  0
  9 11  1  0  0  0  0
 10  8  1  0  0  0  0
 11  1  1  0  0  0  0
 12  4  1  0  0  0  0
 13  6  1  0  0  0  0
 14  7  1  0  0  0  0
 15  6  2  0  0  0  0
 16  7  2  0  0  0  0
 17 22  1  0  0  0  0
 18  9  2  0  0  0  0
 19 12  2  0  0  0  0
 20 12  1  0  0  0  0
 21 19  1  0  0  0  0
 22 20  2  0  0  0  0
 23 17  1  0  0  0  0
 24 23  1  0  0  0  0
 25 23  1  0  0  0  0
 14 13  1  0  0  0  0
 10  4  2  0  0  0  0
 17 21  2  0  0  0  0
M  END
>  <IDNUMBER>
F0440-0345

>  <Chemical_Name>
2-(2,5-dioxopyrrolidin-1-yl)-N-{4-[4-(propan-2-yl)phenyl]-1,3-thiazol-2-yl}acetamide

>  <PriceCoeff>
1.00

>  <CAS>
361167-74-0

>  <MW>
357.43

>  <Description>
solid

>  <FSP3>
0.33

>  <clogP>
3.37

>  <TPSA>
107.61

>  <Acceptor>
4

>  <Donor>
1

>  <RotBonds>
5

>  <HAC>
25

>  <Collection>
General

>  <PPDS>
+

$$$$
F0440-0346
  Mrv2219 10102508112D          

 24 26  0  0  0  0            999 V2000
    1.8178   -0.7482    0.0000 N   0  0  0  0  0  0  0  0  0  0  0  0
   -0.6571   -2.1632    0.0000 C   0  0  0  0  0  0  0  0  0  0  0  0
   -1.1463   -2.8251    0.0000 N   0  0  0  0  0  0  0  0  0  0  0  0
   -1.9233   -2.5900    0.0000 C   0  0  0  0  0  0  0  0  0  0  0  0
    0.1727   -2.1632    0.0000 N   0  0  0  0  0  0  0  0  0  0  0  0
    1.5588    0.0383    0.0000 C   0  0  0  0  0  0  0  0  0  0  0  0
    2.6476   -0.7482    0.0000 C   0  0  0  0  0  0  0  0  0  0  0  0
   -1.1463   -1.4964    0.0000 S   0  0  0  0  0  0  0  0  0  0  0  0
   -2.6619   -2.9929    0.0000 C   0  0  0  0  0  0  0  0  0  0  0  0
   -1.9233   -1.7459    0.0000 C   0  0  0  0  0  0  0  0  0  0  0  0
    0.5756   -1.4437    0.0000 C   0  0  0  0  0  0  0  0  0  0  0  0
    1.4006   -1.4437    0.0000 C   0  0  0  0  0  0  0  0  0  0  0  0
    2.2447    0.5180    0.0000 C   0  0  0  0  0  0  0  0  0  0  0  0
    2.8970    0.0383    0.0000 C   0  0  0  0  0  0  0  0  0  0  0  0
   -2.6619   -3.8179    0.0000 C   0  0  0  0  0  0  0  0  0  0  0  0
    0.7818    0.3405    0.0000 O   0  0  0  0  0  0  0  0  0  0  0  0
    3.1272   -1.4389    0.0000 O   0  0  0  0  0  0  0  0  0  0  0  0
    0.1727   -0.7099    0.0000 O   0  0  0  0  0  0  0  0  0  0  0  0
   -1.9233   -4.2352    0.0000 O   0  0  0  0  0  0  0  0  0  0  0  0
   -3.3765   -2.5900    0.0000 C   0  0  0  0  0  0  0  0  0  0  0  0
   -3.3765   -4.2352    0.0000 C   0  0  0  0  0  0  0  0  0  0  0  0
   -1.1894   -3.8179    0.0000 C   0  0  0  0  0  0  0  0  0  0  0  0
   -4.0864   -2.9929    0.0000 C   0  0  0  0  0  0  0  0  0  0  0  0
   -4.0864   -3.8179    0.0000 C   0  0  0  0  0  0  0  0  0  0  0  0
  2  5  1  0  0  0  0
  3  2  2  0  0  0  0
  4  3  1  0  0  0  0
  5 11  1  0  0  0  0
  6  1  1  0  0  0  0
  7  1  1  0  0  0  0
  8  2  1  0  0  0  0
  9  4  1  0  0  0  0
 10  8  1  0  0  0  0
 11 12  1  0  0  0  0
 12  1  1  0  0  0  0
 13  6  1  0  0  0  0
 14  7  1  0  0  0  0
 15  9  1  0  0  0  0
 16  6  2  0  0  0  0
 17  7  2  0  0  0  0
 18 11  2  0  0  0  0
 19 15  1  0  0  0  0
 20  9  2  0  0  0  0
 21 15  2  0  0  0  0
 22 19  1  0  0  0  0
 23 20  1  0  0  0  0
 24 23  2  0  0  0  0
 14 13  1  0  0  0  0
 10  4  2  0  0  0  0
 21 24  1  0  0  0  0
M  END
>  <IDNUMBER>
F0440-0346

>  <Chemical_Name>
2-(2,5-dioxopyrrolidin-1-yl)-N-[4-(2-methoxyphenyl)-1,3-thiazol-2-yl]acetamide

>  <PriceCoeff>
1.00

>  <CAS>
392324-65-1

>  <MW>
345.37

>  <Description>
solid

>  <FSP3>
0.25

>  <clogP>
1.41

>  <TPSA>
116.84

>  <Acceptor>
5

>  <Donor>
1

>  <RotBonds>
5

>  <HAC>
24

>  <Collection>
General

>  <PPDS>
+

$$$$
F0440-0347
  Mrv2219 10102508112D          

 23 25  0  0  0  0            999 V2000
    2.0249   -2.2125    0.0000 N   0  0  0  0  0  0  0  0  0  0  0  0
   -0.4312   -3.6327    0.0000 C   0  0  0  0  0  0  0  0  0  0  0  0
   -0.8812   -4.3077    0.0000 N   0  0  0  0  0  0  0  0  0  0  0  0
   -1.6687   -4.0546    0.0000 C   0  0  0  0  0  0  0  0  0  0  0  0
    0.3937   -3.6327    0.0000 N   0  0  0  0  0  0  0  0  0  0  0  0
    1.7625   -1.4250    0.0000 C   0  0  0  0  0  0  0  0  0  0  0  0
    2.8453   -2.2125    0.0000 C   0  0  0  0  0  0  0  0  0  0  0  0
   -0.8812   -2.9812    0.0000 S   0  0  0  0  0  0  0  0  0  0  0  0
    0.7922   -2.9249    0.0000 C   0  0  0  0  0  0  0  0  0  0  0  0
   -1.6687   -3.2249    0.0000 C   0  0  0  0  0  0  0  0  0  0  0  0
    1.6078   -2.9249    0.0000 C   0  0  0  0  0  0  0  0  0  0  0  0
   -2.3858   -4.4624    0.0000 C   0  0  0  0  0  0  0  0  0  0  0  0
    2.4375   -0.9750    0.0000 C   0  0  0  0  0  0  0  0  0  0  0  0
    3.0937   -1.4250    0.0000 C   0  0  0  0  0  0  0  0  0  0  0  0
    1.0125   -1.1578    0.0000 O   0  0  0  0  0  0  0  0  0  0  0  0
    3.3374   -2.8687    0.0000 O   0  0  0  0  0  0  0  0  0  0  0  0
    0.3703   -2.1937    0.0000 O   0  0  0  0  0  0  0  0  0  0  0  0
   -3.1077   -4.0546    0.0000 C   0  0  0  0  0  0  0  0  0  0  0  0
   -2.3858   -5.2921    0.0000 C   0  0  0  0  0  0  0  0  0  0  0  0
   -3.8249   -5.2921    0.0000 C   0  0  0  0  0  0  0  0  0  0  0  0
   -3.8249   -4.4999    0.0000 C   0  0  0  0  0  0  0  0  0  0  0  0
   -3.1077   -5.6999    0.0000 C   0  0  0  0  0  0  0  0  0  0  0  0
   -4.5514   -5.7373    0.0000 F   0  0  0  0  0  0  0  0  0  0  0  0
  2  5  1  0  0  0  0
  3  2  2  0  0  0  0
  4  3  1  0  0  0  0
  5  9  1  0  0  0  0
  6  1  1  0  0  0  0
  7  1  1  0  0  0  0
  8  2  1  0  0  0  0
  9 11  1  0  0  0  0
 10  8  1  0  0  0  0
 11  1  1  0  0  0  0
 12  4  1  0  0  0  0
 13  6  1  0  0  0  0
 14  7  1  0  0  0  0
 15  6  2  0  0  0  0
 16  7  2  0  0  0  0
 17  9  2  0  0  0  0
 18 12  2  0  0  0  0
 19 12  1  0  0  0  0
 20 22  1  0  0  0  0
 21 18  1  0  0  0  0
 22 19  2  0  0  0  0
 23 20  1  0  0  0  0
 14 13  1  0  0  0  0
  4 10  2  0  0  0  0
 20 21  2  0  0  0  0
M  END
>  <IDNUMBER>
F0440-0347

>  <Chemical_Name>
2-(2,5-dioxopyrrolidin-1-yl)-N-[4-(4-fluorophenyl)-1,3-thiazol-2-yl]acetamide

>  <PriceCoeff>
1.00

>  <CAS>
361167-75-1

>  <MW>
333.34

>  <Description>
solid

>  <FSP3>
0.20

>  <clogP>
2.10

>  <TPSA>
107.61

>  <Acceptor>
4

>  <Donor>
1

>  <RotBonds>
4

>  <HAC>
23

>  <Collection>
General

>  <PPDS>
+

$$$$
F0440-0348
  Mrv2219 10102508112D          

 26 29  0  0  0  0            999 V2000
    2.1176   -0.6239    0.0000 N   0  0  0  0  0  0  0  0  0  0  0  0
   -0.3403   -2.0750    0.0000 C   0  0  0  0  0  0  0  0  0  0  0  0
   -0.7941   -2.7273    0.0000 N   0  0  0  0  0  0  0  0  0  0  0  0
   -1.5882   -2.4957    0.0000 C   0  0  0  0  0  0  0  0  0  0  0  0
    0.4869   -2.0467    0.0000 N   0  0  0  0  0  0  0  0  0  0  0  0
    1.8718    0.1370    0.0000 C   0  0  0  0  0  0  0  0  0  0  0  0
    2.9542   -0.6239    0.0000 C   0  0  0  0  0  0  0  0  0  0  0  0
   -0.7941   -1.4180    0.0000 S   0  0  0  0  0  0  0  0  0  0  0  0
    0.9075   -1.3613    0.0000 C   0  0  0  0  0  0  0  0  0  0  0  0
   -1.5882   -1.6638    0.0000 C   0  0  0  0  0  0  0  0  0  0  0  0
   -2.3207   -2.8927    0.0000 C   0  0  0  0  0  0  0  0  0  0  0  0
    1.7064   -1.3613    0.0000 C   0  0  0  0  0  0  0  0  0  0  0  0
   -3.0439   -2.4957    0.0000 C   0  0  0  0  0  0  0  0  0  0  0  0
   -3.7435   -2.8927    0.0000 C   0  0  0  0  0  0  0  0  0  0  0  0
    2.5524    0.6192    0.0000 C   0  0  0  0  0  0  0  0  0  0  0  0
    3.2094    0.1370    0.0000 C   0  0  0  0  0  0  0  0  0  0  0  0
    1.0966    0.4348    0.0000 O   0  0  0  0  0  0  0  0  0  0  0  0
    3.4599   -1.3046    0.0000 O   0  0  0  0  0  0  0  0  0  0  0  0
    0.4585   -0.6239    0.0000 O   0  0  0  0  0  0  0  0  0  0  0  0
   -2.3207   -3.7057    0.0000 C   0  0  0  0  0  0  0  0  0  0  0  0
   -3.7435   -3.7057    0.0000 C   0  0  0  0  0  0  0  0  0  0  0  0
   -3.0439   -4.1169    0.0000 C   0  0  0  0  0  0  0  0  0  0  0  0
   -4.4761   -2.4957    0.0000 C   0  0  0  0  0  0  0  0  0  0  0  0
   -4.4761   -4.1169    0.0000 C   0  0  0  0  0  0  0  0  0  0  0  0
   -5.1993   -2.8927    0.0000 C   0  0  0  0  0  0  0  0  0  0  0  0
   -5.1993   -3.7057    0.0000 C   0  0  0  0  0  0  0  0  0  0  0  0
  2  5  1  0  0  0  0
  3  2  2  0  0  0  0
  4  3  1  0  0  0  0
  5  9  1  0  0  0  0
  6  1  1  0  0  0  0
  7  1  1  0  0  0  0
  8  2  1  0  0  0  0
  9 12  1  0  0  0  0
 10  8  1  0  0  0  0
 11  4  1  0  0  0  0
 12  1  1  0  0  0  0
 13 11  2  0  0  0  0
 14 13  1  0  0  0  0
 15  6  1  0  0  0  0
 16  7  1  0  0  0  0
 17  6  2  0  0  0  0
 18  7  2  0  0  0  0
 19  9  2  0  0  0  0
 20 11  1  0  0  0  0
 21 22  1  0  0  0  0
 22 20  2  0  0  0  0
 23 14  1  0  0  0  0
 24 21  1  0  0  0  0
 25 23  2  0  0  0  0
 26 24  2  0  0  0  0
 16 15  1  0  0  0  0
 10  4  2  0  0  0  0
 21 14  2  0  0  0  0
 26 25  1  0  0  0  0
M  END
>  <IDNUMBER>
F0440-0348

>  <Chemical_Name>
2-(2,5-dioxopyrrolidin-1-yl)-N-[4-(naphthalen-2-yl)-1,3-thiazol-2-yl]acetamide

>  <PriceCoeff>
1.00

>  <CAS>
476308-67-5

>  <MW>
365.41

>  <Description>
solid

>  <FSP3>
0.16

>  <clogP>
3.12

>  <TPSA>
107.61

>  <Acceptor>
4

>  <Donor>
1

>  <RotBonds>
4

>  <HAC>
26

>  <Collection>
General

>  <PPDS>
+

$$$$
F0440-0349
  Mrv2219 10102508112D          

 24 26  0  0  0  0            999 V2000
    2.2319   -1.2018    0.0000 N   0  0  0  0  0  0  0  0  0  0  0  0
   -0.2432   -2.6325    0.0000 C   0  0  0  0  0  0  0  0  0  0  0  0
   -0.7010   -3.2811    0.0000 N   0  0  0  0  0  0  0  0  0  0  0  0
   -1.5022   -3.0331    0.0000 C   0  0  0  0  0  0  0  0  0  0  0  0
    0.5723   -2.6325    0.0000 N   0  0  0  0  0  0  0  0  0  0  0  0
    1.9649   -0.4197    0.0000 C   0  0  0  0  0  0  0  0  0  0  0  0
    3.0379   -1.2209    0.0000 C   0  0  0  0  0  0  0  0  0  0  0  0
   -0.7010   -1.9506    0.0000 S   0  0  0  0  0  0  0  0  0  0  0  0
    0.9777   -1.9076    0.0000 C   0  0  0  0  0  0  0  0  0  0  0  0
   -1.5022   -2.2081    0.0000 C   0  0  0  0  0  0  0  0  0  0  0  0
   -2.2128   -3.4385    0.0000 C   0  0  0  0  0  0  0  0  0  0  0  0
    1.8075   -1.9076    0.0000 C   0  0  0  0  0  0  0  0  0  0  0  0
   -2.9424   -4.6927    0.0000 C   0  0  0  0  0  0  0  0  0  0  0  0
   -2.2319   -4.2683    0.0000 C   0  0  0  0  0  0  0  0  0  0  0  0
   -3.6578   -4.2683    0.0000 C   0  0  0  0  0  0  0  0  0  0  0  0
    2.6325    0.0238    0.0000 C   0  0  0  0  0  0  0  0  0  0  0  0
    3.2954   -0.4578    0.0000 C   0  0  0  0  0  0  0  0  0  0  0  0
    1.2018   -0.1479    0.0000 O   0  0  0  0  0  0  0  0  0  0  0  0
    3.5481   -1.8885    0.0000 O   0  0  0  0  0  0  0  0  0  0  0  0
    0.5723   -1.2018    0.0000 O   0  0  0  0  0  0  0  0  0  0  0  0
   -2.9186   -3.0331    0.0000 C   0  0  0  0  0  0  0  0  0  0  0  0
   -3.6578   -3.4385    0.0000 C   0  0  0  0  0  0  0  0  0  0  0  0
   -2.9424   -5.4987    0.0000 Cl  0  0  0  0  0  0  0  0  0  0  0  0
   -4.3636   -4.6975    0.0000 Cl  0  0  0  0  0  0  0  0  0  0  0  0
  2  5  1  0  0  0  0
  3  2  2  0  0  0  0
  4  3  1  0  0  0  0
  5  9  1  0  0  0  0
  6  1  1  0  0  0  0
  7  1  1  0  0  0  0
  8  2  1  0  0  0  0
  9 12  1  0  0  0  0
 10  8  1  0  0  0  0
 11  4  1  0  0  0  0
 12  1  1  0  0  0  0
 13 14  2  0  0  0  0
 14 11  1  0  0  0  0
 15 22  2  0  0  0  0
 16  6  1  0  0  0  0
 17  7  1  0  0  0  0
 18  6  2  0  0  0  0
 19  7  2  0  0  0  0
 20  9  2  0  0  0  0
 21 11  2  0  0  0  0
 22 21  1  0  0  0  0
 23 13  1  0  0  0  0
 24 15  1  0  0  0  0
 17 16  1  0  0  0  0
  4 10  2  0  0  0  0
 15 13  1  0  0  0  0
M  END
>  <IDNUMBER>
F0440-0349

>  <Chemical_Name>
N-[4-(3,4-dichlorophenyl)-1,3-thiazol-2-yl]-2-(2,5-dioxopyrrolidin-1-yl)acetamide

>  <PriceCoeff>
1.00

>  <CAS>
476308-68-6

>  <MW>
384.24

>  <Description>
solid

>  <FSP3>
0.20

>  <clogP>
3.26

>  <TPSA>
107.61

>  <Acceptor>
4

>  <Donor>
1

>  <RotBonds>
4

>  <HAC>
24

>  <Collection>
General

>  <PPDS>
+

$$$$
F0440-0350
  Mrv2219 10102508112D          

 29 32  0  0  0  0            999 V2000
    2.5978   -1.0215    0.0000 N   0  0  0  0  0  0  0  0  0  0  0  0
    0.1523   -2.4358    0.0000 C   0  0  0  0  0  0  0  0  0  0  0  0
   -0.3094   -3.1232    0.0000 N   0  0  0  0  0  0  0  0  0  0  0  0
   -1.0852   -2.8630    0.0000 C   0  0  0  0  0  0  0  0  0  0  0  0
    0.9773   -2.4358    0.0000 N   0  0  0  0  0  0  0  0  0  0  0  0
    2.3621   -0.2407    0.0000 C   0  0  0  0  0  0  0  0  0  0  0  0
    3.4228   -1.0607    0.0000 C   0  0  0  0  0  0  0  0  0  0  0  0
   -0.3094   -1.8023    0.0000 S   0  0  0  0  0  0  0  0  0  0  0  0
    1.3750   -1.7286    0.0000 C   0  0  0  0  0  0  0  0  0  0  0  0
   -1.0852   -2.0380    0.0000 C   0  0  0  0  0  0  0  0  0  0  0  0
    2.2000   -1.7286    0.0000 C   0  0  0  0  0  0  0  0  0  0  0  0
   -1.7924   -3.3000    0.0000 C   0  0  0  0  0  0  0  0  0  0  0  0
    3.0250    0.1915    0.0000 C   0  0  0  0  0  0  0  0  0  0  0  0
    3.6880   -0.2701    0.0000 C   0  0  0  0  0  0  0  0  0  0  0  0
    1.5911    0.0000    0.0000 O   0  0  0  0  0  0  0  0  0  0  0  0
    3.9237   -1.7089    0.0000 O   0  0  0  0  0  0  0  0  0  0  0  0
    0.9773   -1.0018    0.0000 O   0  0  0  0  0  0  0  0  0  0  0  0
   -3.9433   -4.5375    0.0000 O   0  0  0  0  0  0  0  0  0  0  0  0
   -1.7924   -4.1250    0.0000 C   0  0  0  0  0  0  0  0  0  0  0  0
   -2.4995   -2.8630    0.0000 C   0  0  0  0  0  0  0  0  0  0  0  0
   -3.2361   -4.1250    0.0000 C   0  0  0  0  0  0  0  0  0  0  0  0
   -3.2361   -3.2608    0.0000 C   0  0  0  0  0  0  0  0  0  0  0  0
   -2.4995   -4.5130    0.0000 C   0  0  0  0  0  0  0  0  0  0  0  0
   -3.9138   -5.3625    0.0000 C   0  0  0  0  0  0  0  0  0  0  0  0
   -4.6209   -5.7750    0.0000 C   0  0  0  0  0  0  0  0  0  0  0  0
   -3.2067   -5.7750    0.0000 C   0  0  0  0  0  0  0  0  0  0  0  0
   -3.1821   -6.5608    0.0000 C   0  0  0  0  0  0  0  0  0  0  0  0
   -4.6209   -6.6000    0.0000 C   0  0  0  0  0  0  0  0  0  0  0  0
   -3.9138   -7.0125    0.0000 C   0  0  0  0  0  0  0  0  0  0  0  0
  2  5  1  0  0  0  0
  3  2  2  0  0  0  0
  4  3  1  0  0  0  0
  5  9  1  0  0  0  0
  6  1  1  0  0  0  0
  7  1  1  0  0  0  0
  8  2  1  0  0  0  0
  9 11  1  0  0  0  0
 10  8  1  0  0  0  0
 11  1  1  0  0  0  0
 12  4  1  0  0  0  0
 13  6  1  0  0  0  0
 14  7  1  0  0  0  0
 15  6  2  0  0  0  0
 16  7  2  0  0  0  0
 17  9  2  0  0  0  0
 18 21  1  0  0  0  0
 19 12  1  0  0  0  0
 20 12  2  0  0  0  0
 21 22  2  0  0  0  0
 22 20  1  0  0  0  0
 23 19  2  0  0  0  0
 24 18  1  0  0  0  0
 25 24  2  0  0  0  0
 26 24  1  0  0  0  0
 27 26  2  0  0  0  0
 28 25  1  0  0  0  0
 29 27  1  0  0  0  0
 14 13  1  0  0  0  0
 10  4  2  0  0  0  0
 21 23  1  0  0  0  0
 29 28  2  0  0  0  0
M  END
>  <IDNUMBER>
F0440-0350

>  <Chemical_Name>
2-(2,5-dioxopyrrolidin-1-yl)-N-[4-(4-phenoxyphenyl)-1,3-thiazol-2-yl]acetamide

>  <PriceCoeff>
1.00

>  <CAS>
476308-69-7

>  <MW>
407.44

>  <Description>
solid

>  <FSP3>
0.14

>  <clogP>
4.04

>  <TPSA>
116.84

>  <Acceptor>
5

>  <Donor>
1

>  <RotBonds>
6

>  <HAC>
29

>  <Collection>
General

>  <PPDS>
+

$$$$
F0440-0351
  Mrv2219 10102508112D          

 26 28  0  0  0  0            999 V2000
    2.5536   -0.4714    0.0000 N   0  0  0  0  0  0  0  0  0  0  0  0
    0.1179   -1.8857    0.0000 C   0  0  0  0  0  0  0  0  0  0  0  0
   -0.3536   -2.5683    0.0000 N   0  0  0  0  0  0  0  0  0  0  0  0
   -1.1344   -2.3032    0.0000 C   0  0  0  0  0  0  0  0  0  0  0  0
    0.9429   -1.8857    0.0000 N   0  0  0  0  0  0  0  0  0  0  0  0
    2.3179    0.2946    0.0000 C   0  0  0  0  0  0  0  0  0  0  0  0
    3.3786   -0.4911    0.0000 C   0  0  0  0  0  0  0  0  0  0  0  0
   -0.3536   -1.2424    0.0000 S   0  0  0  0  0  0  0  0  0  0  0  0
    1.3308   -1.1786    0.0000 C   0  0  0  0  0  0  0  0  0  0  0  0
   -1.1344   -1.4782    0.0000 C   0  0  0  0  0  0  0  0  0  0  0  0
    2.1558   -1.1786    0.0000 C   0  0  0  0  0  0  0  0  0  0  0  0
   -1.8415   -2.7304    0.0000 C   0  0  0  0  0  0  0  0  0  0  0  0
    2.9808    0.7661    0.0000 C   0  0  0  0  0  0  0  0  0  0  0  0
    3.6536    0.2946    0.0000 C   0  0  0  0  0  0  0  0  0  0  0  0
    1.5371    0.5843    0.0000 O   0  0  0  0  0  0  0  0  0  0  0  0
    3.8893   -1.1541    0.0000 O   0  0  0  0  0  0  0  0  0  0  0  0
    0.9429   -0.4469    0.0000 O   0  0  0  0  0  0  0  0  0  0  0  0
   -1.8415   -3.5554    0.0000 C   0  0  0  0  0  0  0  0  0  0  0  0
   -2.5487   -2.3032    0.0000 C   0  0  0  0  0  0  0  0  0  0  0  0
   -3.2803   -3.5554    0.0000 C   0  0  0  0  0  0  0  0  0  0  0  0
   -3.2803   -2.7107    0.0000 C   0  0  0  0  0  0  0  0  0  0  0  0
   -2.5487   -3.9532    0.0000 C   0  0  0  0  0  0  0  0  0  0  0  0
   -3.9875   -3.9826    0.0000 O   0  0  0  0  0  0  0  0  0  0  0  0
   -3.9629   -4.8076    0.0000 C   0  0  0  0  0  0  0  0  0  0  0  0
   -4.6701   -5.2054    0.0000 C   0  0  0  0  0  0  0  0  0  0  0  0
   -4.6701   -6.0304    0.0000 C   0  0  0  0  0  0  0  0  0  0  0  0
  2  5  1  0  0  0  0
  3  2  2  0  0  0  0
  4  3  1  0  0  0  0
  5  9  1  0  0  0  0
  6  1  1  0  0  0  0
  7  1  1  0  0  0  0
  8  2  1  0  0  0  0
  9 11  1  0  0  0  0
 10  8  1  0  0  0  0
 11  1  1  0  0  0  0
 12  4  1  0  0  0  0
 13  6  1  0  0  0  0
 14  7  1  0  0  0  0
 15  6  2  0  0  0  0
 16  7  2  0  0  0  0
 17  9  2  0  0  0  0
 18 12  1  0  0  0  0
 19 12  2  0  0  0  0
 20 21  2  0  0  0  0
 21 19  1  0  0  0  0
 22 18  2  0  0  0  0
 23 20  1  0  0  0  0
 24 23  1  0  0  0  0
 25 24  1  0  0  0  0
 26 25  1  0  0  0  0
 14 13  1  0  0  0  0
  4 10  2  0  0  0  0
 20 22  1  0  0  0  0
M  END
>  <IDNUMBER>
F0440-0351

>  <Chemical_Name>
2-(2,5-dioxopyrrolidin-1-yl)-N-[4-(4-propoxyphenyl)-1,3-thiazol-2-yl]acetamide

>  <PriceCoeff>
1.00

>  <CAS>
392324-75-3

>  <MW>
373.43

>  <Description>
solid

>  <FSP3>
0.33

>  <clogP>
3.03

>  <TPSA>
116.84

>  <Acceptor>
5

>  <Donor>
1

>  <RotBonds>
7

>  <HAC>
26

>  <Collection>
General

>  <PPDS>
+

$$$$
F0440-0352
  Mrv2219 10102508112D          

 22 24  0  0  0  0            999 V2000
    2.7824    0.6416    0.0000 N   0  0  0  0  0  0  0  0  0  0  0  0
   -0.1887   -0.0647    0.0000 N   0  0  0  0  0  0  0  0  0  0  0  0
    0.2966    0.6416    0.0000 C   0  0  0  0  0  0  0  0  0  0  0  0
   -0.9868    0.1941    0.0000 C   0  0  0  0  0  0  0  0  0  0  0  0
   -1.6122   -0.3290    0.0000 C   0  0  0  0  0  0  0  0  0  0  0  0
   -1.6338   -1.1647    0.0000 S   0  0  0  0  0  0  0  0  0  0  0  0
    1.1216    0.6416    0.0000 N   0  0  0  0  0  0  0  0  0  0  0  0
    3.6235    0.4529    0.0000 C   0  0  0  0  0  0  0  0  0  0  0  0
    2.3941   -0.0701    0.0000 C   0  0  0  0  0  0  0  0  0  0  0  0
   -0.2372    1.2887    0.0000 S   0  0  0  0  0  0  0  0  0  0  0  0
   -2.4372   -1.4235    0.0000 C   0  0  0  0  0  0  0  0  0  0  0  0
   -1.0137    0.9706    0.0000 C   0  0  0  0  0  0  0  0  0  0  0  0
    1.5529    1.3588    0.0000 C   0  0  0  0  0  0  0  0  0  0  0  0
   -2.4103   -0.0647    0.0000 C   0  0  0  0  0  0  0  0  0  0  0  0
    2.3672    1.3588    0.0000 C   0  0  0  0  0  0  0  0  0  0  0  0
   -2.9063   -0.7172    0.0000 C   0  0  0  0  0  0  0  0  0  0  0  0
    3.7098   -0.3613    0.0000 C   0  0  0  0  0  0  0  0  0  0  0  0
    2.9819   -0.7118    0.0000 C   0  0  0  0  0  0  0  0  0  0  0  0
    4.2760    1.0299    0.0000 O   0  0  0  0  0  0  0  0  0  0  0  0
    1.5584   -0.1510    0.0000 O   0  0  0  0  0  0  0  0  0  0  0  0
    1.1000    2.0868    0.0000 O   0  0  0  0  0  0  0  0  0  0  0  0
   -2.7176   -2.2000    0.0000 Cl  0  0  0  0  0  0  0  0  0  0  0  0
  2  3  2  0  0  0  0
  3  7  1  0  0  0  0
  4  2  1  0  0  0  0
  5  4  1  0  0  0  0
  6  5  1  0  0  0  0
  7 13  1  0  0  0  0
  8  1  1  0  0  0  0
  9  1  1  0  0  0  0
 10  3  1  0  0  0  0
 11  6  1  0  0  0  0
 12 10  1  0  0  0  0
 13 15  1  0  0  0  0
 14  5  2  0  0  0  0
 15  1  1  0  0  0  0
 16 14  1  0  0  0  0
 17  8  1  0  0  0  0
 18  9  1  0  0  0  0
 19  8  2  0  0  0  0
 20  9  2  0  0  0  0
 21 13  2  0  0  0  0
 22 11  1  0  0  0  0
 18 17  1  0  0  0  0
 12  4  2  0  0  0  0
 16 11  2  0  0  0  0
M  END
>  <IDNUMBER>
F0440-0352

>  <Chemical_Name>
N-[4-(5-chlorothiophen-2-yl)-1,3-thiazol-2-yl]-2-(2,5-dioxopyrrolidin-1-yl)acetamide

>  <PriceCoeff>
1.00

>  <CAS>
392324-77-5

>  <MW>
355.82

>  <Description>
solid

>  <FSP3>
0.23

>  <clogP>
2.55

>  <TPSA>
135.85

>  <Acceptor>
4

>  <Donor>
1

>  <RotBonds>
4

>  <HAC>
22

>  <Collection>
General

>  <PPDS>
+

$$$$
F0440-0357
  Mrv2219 10102508112D          

 21 23  0  0  0  0            999 V2000
    0.3300   -2.3485    0.0000 N   0  0  0  0  0  0  0  0  0  0  0  0
   -2.6345   -1.6060    0.0000 N   0  0  0  0  0  0  0  0  0  0  0  0
   -2.1780   -0.9240    0.0000 C   0  0  0  0  0  0  0  0  0  0  0  0
   -3.4265   -1.3915    0.0000 C   0  0  0  0  0  0  0  0  0  0  0  0
   -1.3365   -0.9240    0.0000 N   0  0  0  0  0  0  0  0  0  0  0  0
    1.1220   -2.5300    0.0000 C   0  0  0  0  0  0  0  0  0  0  0  0
   -0.0935   -3.0580    0.0000 C   0  0  0  0  0  0  0  0  0  0  0  0
   -2.6840   -0.2860    0.0000 S   0  0  0  0  0  0  0  0  0  0  0  0
   -4.0535   -1.9195    0.0000 C   0  0  0  0  0  0  0  0  0  0  0  0
   -3.4485   -0.5940    0.0000 C   0  0  0  0  0  0  0  0  0  0  0  0
   -0.9185   -1.6500    0.0000 C   0  0  0  0  0  0  0  0  0  0  0  0
   -0.0935   -1.6500    0.0000 C   0  0  0  0  0  0  0  0  0  0  0  0
   -4.0535   -2.7445    0.0000 S   0  0  0  0  0  0  0  0  0  0  0  0
   -4.8180   -1.6555    0.0000 C   0  0  0  0  0  0  0  0  0  0  0  0
    1.1880   -3.3660    0.0000 C   0  0  0  0  0  0  0  0  0  0  0  0
    0.4675   -3.6685    0.0000 C   0  0  0  0  0  0  0  0  0  0  0  0
    1.7820   -1.9800    0.0000 O   0  0  0  0  0  0  0  0  0  0  0  0
   -0.9185   -3.1405    0.0000 O   0  0  0  0  0  0  0  0  0  0  0  0
   -4.8455   -3.0085    0.0000 C   0  0  0  0  0  0  0  0  0  0  0  0
   -1.3365   -2.3485    0.0000 O   0  0  0  0  0  0  0  0  0  0  0  0
   -5.3240   -2.3155    0.0000 C   0  0  0  0  0  0  0  0  0  0  0  0
  2  3  2  0  0  0  0
  3  5  1  0  0  0  0
  4  2  1  0  0  0  0
  5 11  1  0  0  0  0
  6  1  1  0  0  0  0
  7  1  1  0  0  0  0
  8  3  1  0  0  0  0
  9  4  1  0  0  0  0
 10  8  1  0  0  0  0
 11 12  1  0  0  0  0
 12  1  1  0  0  0  0
 13  9  1  0  0  0  0
 14  9  2  0  0  0  0
 15  6  1  0  0  0  0
 16  7  1  0  0  0  0
 17  6  2  0  0  0  0
 18  7  2  0  0  0  0
 19 13  1  0  0  0  0
 20 11  2  0  0  0  0
 21 14  1  0  0  0  0
 16 15  1  0  0  0  0
 10  4  2  0  0  0  0
 21 19  2  0  0  0  0
M  END
>  <IDNUMBER>
F0440-0357

>  <Chemical_Name>
2-(2,5-dioxopyrrolidin-1-yl)-N-[4-(thiophen-2-yl)-1,3-thiazol-2-yl]acetamide

>  <PriceCoeff>
1.00

>  <CAS>
380184-49-6

>  <MW>
321.37

>  <Description>
solid

>  <FSP3>
0.23

>  <clogP>
1.84

>  <TPSA>
135.85

>  <Acceptor>
4

>  <Donor>
1

>  <RotBonds>
4

>  <HAC>
21

>  <Collection>
General

>  <PPDS>
+

$$$$
F0440-0360
  Mrv2219 10102508112D          

 27 30  0  0  0  0            999 V2000
   -4.8250   -0.7271    0.0000 C   0  0  0  0  0  0  0  0  0  0  0  0
    0.2644   -1.5918    0.0000 N   0  0  0  0  0  0  0  0  0  0  0  0
   -5.3151   -1.4101    0.0000 N   0  0  0  0  0  0  0  0  0  0  0  0
   -4.0098   -0.6610    0.0000 C   0  0  0  0  0  0  0  0  0  0  0  0
   -5.3151   -0.0661    0.0000 S   0  0  0  0  0  0  0  0  0  0  0  0
    1.0796   -1.7185    0.0000 C   0  0  0  0  0  0  0  0  0  0  0  0
   -0.0661   -2.3794    0.0000 C   0  0  0  0  0  0  0  0  0  0  0  0
   -3.5306   -1.3219    0.0000 C   0  0  0  0  0  0  0  0  0  0  0  0
   -6.0973   -1.1897    0.0000 C   0  0  0  0  0  0  0  0  0  0  0  0
   -1.0520   -1.0135    0.0000 C   0  0  0  0  0  0  0  0  0  0  0  0
   -6.0973   -0.3305    0.0000 C   0  0  0  0  0  0  0  0  0  0  0  0
   -0.1983   -0.9309    0.0000 C   0  0  0  0  0  0  0  0  0  0  0  0
   -2.7099   -1.2283    0.0000 C   0  0  0  0  0  0  0  0  0  0  0  0
   -3.6628    0.1101    0.0000 C   0  0  0  0  0  0  0  0  0  0  0  0
   -1.5477   -0.3526    0.0000 N   0  0  0  0  0  0  0  0  0  0  0  0
   -2.3739   -0.4627    0.0000 C   0  0  0  0  0  0  0  0  0  0  0  0
    1.2614   -2.5116    0.0000 C   0  0  0  0  0  0  0  0  0  0  0  0
    0.5288   -2.9082    0.0000 C   0  0  0  0  0  0  0  0  0  0  0  0
    1.6579   -1.0631    0.0000 O   0  0  0  0  0  0  0  0  0  0  0  0
   -0.8867   -2.5502    0.0000 O   0  0  0  0  0  0  0  0  0  0  0  0
   -1.3659   -1.7846    0.0000 O   0  0  0  0  0  0  0  0  0  0  0  0
   -2.8421    0.1927    0.0000 C   0  0  0  0  0  0  0  0  0  0  0  0
   -3.8501   -2.0710    0.0000 O   0  0  0  0  0  0  0  0  0  0  0  0
   -6.8188   -1.5863    0.0000 C   0  0  0  0  0  0  0  0  0  0  0  0
   -6.8188    0.0826    0.0000 C   0  0  0  0  0  0  0  0  0  0  0  0
   -7.5293   -1.1897    0.0000 C   0  0  0  0  0  0  0  0  0  0  0  0
   -7.5293   -0.3305    0.0000 C   0  0  0  0  0  0  0  0  0  0  0  0
  2 12  1  0  0  0  0
  3  1  2  0  0  0  0
  4  1  1  0  0  0  0
  5  1  1  0  0  0  0
  6  2  1  0  0  0  0
  7  2  1  0  0  0  0
  8  4  1  0  0  0  0
  9  3  1  0  0  0  0
 10 15  1  0  0  0  0
 11  5  1  0  0  0  0
 12 10  1  0  0  0  0
 13  8  2  0  0  0  0
 14  4  2  0  0  0  0
 15 16  1  0  0  0  0
 16 22  2  0  0  0  0
 17  6  1  0  0  0  0
 18  7  1  0  0  0  0
 19  6  2  0  0  0  0
 20  7  2  0  0  0  0
 21 10  2  0  0  0  0
 22 14  1  0  0  0  0
 23  8  1  0  0  0  0
 24  9  1  0  0  0  0
 25 11  1  0  0  0  0
 26 24  2  0  0  0  0
 27 25  2  0  0  0  0
 11  9  2  0  0  0  0
 27 26  1  0  0  0  0
 16 13  1  0  0  0  0
 18 17  1  0  0  0  0
M  END
>  <IDNUMBER>
F0440-0360

>  <Chemical_Name>
N-[4-(1,3-benzothiazol-2-yl)-3-hydroxyphenyl]-2-(2,5-dioxopyrrolidin-1-yl)acetamide

>  <PriceCoeff>
1.00

>  <CAS>
392324-86-6

>  <MW>
381.41

>  <Description>
solid

>  <FSP3>
0.16

>  <clogP>
2.06

>  <TPSA>
127.84

>  <Acceptor>
5

>  <Donor>
2

>  <RotBonds>
4

>  <HAC>
27

>  <Collection>
General

>  <PPDS>
+

$$$$
F0440-0361
  Mrv2219 10102508112D          

 24 26  0  0  0  0            999 V2000
   -3.2745   -2.0182    0.0000 C   0  0  0  0  0  0  0  0  0  0  0  0
   -0.8470   -3.5474    0.0000 N   0  0  0  0  0  0  0  0  0  0  0  0
   -3.7463   -2.6663    0.0000 N   0  0  0  0  0  0  0  0  0  0  0  0
   -2.4559   -2.0694    0.0000 N   0  0  0  0  0  0  0  0  0  0  0  0
   -3.7463   -1.3360    0.0000 S   0  0  0  0  0  0  0  0  0  0  0  0
   -6.6968   -1.1655    0.0000 N   0  3  0  0  0  0  0  0  0  0  0  0
   -4.5308   -1.5748    0.0000 C   0  0  0  0  0  0  0  0  0  0  0  0
   -4.5308   -2.4275    0.0000 C   0  0  0  0  0  0  0  0  0  0  0  0
   -0.0625   -3.7578    0.0000 C   0  0  0  0  0  0  0  0  0  0  0  0
   -1.2904   -4.2524    0.0000 C   0  0  0  0  0  0  0  0  0  0  0  0
   -2.0750   -2.7970    0.0000 C   0  0  0  0  0  0  0  0  0  0  0  0
   -5.2471   -1.1655    0.0000 C   0  0  0  0  0  0  0  0  0  0  0  0
   -5.9521   -1.5748    0.0000 C   0  0  0  0  0  0  0  0  0  0  0  0
   -1.2279   -2.8368    0.0000 C   0  0  0  0  0  0  0  0  0  0  0  0
   -5.2471   -2.8368    0.0000 C   0  0  0  0  0  0  0  0  0  0  0  0
   -6.6968   -0.3468    0.0000 O   0  5  0  0  0  0  0  0  0  0  0  0
   -7.4302   -1.5748    0.0000 O   0  0  0  0  0  0  0  0  0  0  0  0
    0.0000   -4.5764    0.0000 C   0  0  0  0  0  0  0  0  0  0  0  0
   -0.7675   -4.8834    0.0000 C   0  0  0  0  0  0  0  0  0  0  0  0
   -5.9521   -2.4275    0.0000 C   0  0  0  0  0  0  0  0  0  0  0  0
    0.5856   -3.2461    0.0000 O   0  0  0  0  0  0  0  0  0  0  0  0
   -2.1318   -4.2978    0.0000 O   0  0  0  0  0  0  0  0  0  0  0  0
   -2.5184   -3.4849    0.0000 O   0  0  0  0  0  0  0  0  0  0  0  0
   -3.4734   -3.4792    0.0000 C   0  0  0  0  0  0  0  0  0  0  0  0
  2 14  1  0  0  0  0
  3  1  1  0  0  0  0
  4  1  2  0  0  0  0
  5  1  1  0  0  0  0
  6 13  1  0  0  0  0
  7  5  1  0  0  0  0
  8  3  1  0  0  0  0
  9  2  1  0  0  0  0
 10  2  1  0  0  0  0
 11  4  1  0  0  0  0
 12  7  1  0  0  0  0
 13 12  2  0  0  0  0
 14 11  1  0  0  0  0
 15  8  1  0  0  0  0
 16  6  1  0  0  0  0
 17  6  2  0  0  0  0
 18  9  1  0  0  0  0
 19 10  1  0  0  0  0
 20 15  2  0  0  0  0
 21  9  2  0  0  0  0
 22 10  2  0  0  0  0
 23 11  2  0  0  0  0
 24  3  1  0  0  0  0
  8  7  2  0  0  0  0
 20 13  1  0  0  0  0
 19 18  1  0  0  0  0
M  CHG  2   6   1  16  -1
M  END
>  <IDNUMBER>
F0440-0361

>  <Chemical_Name>
2-(2,5-dioxopyrrolidin-1-yl)-N-[(2E)-3-methyl-6-nitro-2,3-dihydro-1,3-benzothiazol-2-ylidene]acetamide

>  <PriceCoeff>
1.00

>  <CAS>
392324-88-8

>  <MW>
348.33

>  <Description>
solid

>  <FSP3>
0.29

>  <clogP>
2.52

>  <TPSA>
138.49

>  <Acceptor>
5

>  <Donor>
0

>  <RotBonds>
4

>  <HAC>
24

>  <Collection>
General

>  <PPDS>
+

$$$$
F0440-0362
  Mrv2219 10102508112D          

 21 23  0  0  0  0            999 V2000
   -1.9565   -0.4105    0.0000 C   0  0  0  0  0  0  0  0  0  0  0  0
    0.5623   -1.8216    0.0000 N   0  0  0  0  0  0  0  0  0  0  0  0
   -2.4456   -1.0851    0.0000 N   0  0  0  0  0  0  0  0  0  0  0  0
   -1.0963   -0.4048    0.0000 N   0  0  0  0  0  0  0  0  0  0  0  0
   -2.4456    0.2473    0.0000 S   0  0  0  0  0  0  0  0  0  0  0  0
    1.3718   -1.9790    0.0000 C   0  0  0  0  0  0  0  0  0  0  0  0
    0.1575   -2.5637    0.0000 C   0  0  0  0  0  0  0  0  0  0  0  0
   -3.2327   -0.8490    0.0000 C   0  0  0  0  0  0  0  0  0  0  0  0
   -0.6915   -1.1188    0.0000 C   0  0  0  0  0  0  0  0  0  0  0  0
   -3.2327    0.0000    0.0000 C   0  0  0  0  0  0  0  0  0  0  0  0
    0.1349   -1.1188    0.0000 C   0  0  0  0  0  0  0  0  0  0  0  0
    1.4562   -2.7886    0.0000 C   0  0  0  0  0  0  0  0  0  0  0  0
    0.7421   -3.1428    0.0000 C   0  0  0  0  0  0  0  0  0  0  0  0
    1.9959   -1.4393    0.0000 O   0  0  0  0  0  0  0  0  0  0  0  0
   -0.6690   -2.6537    0.0000 O   0  0  0  0  0  0  0  0  0  0  0  0
   -1.0963   -1.8216    0.0000 O   0  0  0  0  0  0  0  0  0  0  0  0
   -2.2038   -1.8947    0.0000 C   0  0  0  0  0  0  0  0  0  0  0  0
   -3.9299   -1.2538    0.0000 C   0  0  0  0  0  0  0  0  0  0  0  0
   -3.9299    0.4048    0.0000 C   0  0  0  0  0  0  0  0  0  0  0  0
   -4.6551   -0.8490    0.0000 C   0  0  0  0  0  0  0  0  0  0  0  0
   -4.6551    0.0000    0.0000 C   0  0  0  0  0  0  0  0  0  0  0  0
  2 11  1  0  0  0  0
  3  1  1  0  0  0  0
  4  1  2  0  0  0  0
  5  1  1  0  0  0  0
  6  2  1  0  0  0  0
  7  2  1  0  0  0  0
  8  3  1  0  0  0  0
  9  4  1  0  0  0  0
 10  5  1  0  0  0  0
 11  9  1  0  0  0  0
 12  6  1  0  0  0  0
 13  7  1  0  0  0  0
 14  6  2  0  0  0  0
 15  7  2  0  0  0  0
 16  9  2  0  0  0  0
 17  3  1  0  0  0  0
 18  8  1  0  0  0  0
 19 10  1  0  0  0  0
 20 18  2  0  0  0  0
 21 19  2  0  0  0  0
 10  8  2  0  0  0  0
 21 20  1  0  0  0  0
 13 12  1  0  0  0  0
M  END
>  <IDNUMBER>
F0440-0362

>  <Chemical_Name>
2-(2,5-dioxopyrrolidin-1-yl)-N-[(2E)-3-methyl-2,3-dihydro-1,3-benzothiazol-2-ylidene]acetamide

>  <PriceCoeff>
1.00

>  <CAS>
329903-06-2

>  <MW>
303.34

>  <Description>
solid

>  <FSP3>
0.29

>  <clogP>
2.78

>  <TPSA>
95.35

>  <Acceptor>
3

>  <Donor>
0

>  <RotBonds>
3

>  <HAC>
21

>  <Collection>
General

>  <PPDS>
+

$$$$
F0440-0364
  Mrv2219 10102508112D          

 22 24  0  0  0  0            999 V2000
   -1.1319   -0.9963    0.0000 C   0  0  0  0  0  0  0  0  0  0  0  0
    1.3147   -2.4466    0.0000 N   0  0  0  0  0  0  0  0  0  0  0  0
   -1.5858   -1.6507    0.0000 N   0  0  0  0  0  0  0  0  0  0  0  0
   -0.3124   -1.0317    0.0000 N   0  0  0  0  0  0  0  0  0  0  0  0
   -1.5858   -0.3537    0.0000 S   0  0  0  0  0  0  0  0  0  0  0  0
   -2.3816   -0.5719    0.0000 C   0  0  0  0  0  0  0  0  0  0  0  0
   -2.3816   -1.4149    0.0000 C   0  0  0  0  0  0  0  0  0  0  0  0
    2.0752   -2.6175    0.0000 C   0  0  0  0  0  0  0  0  0  0  0  0
    0.8902   -3.1540    0.0000 C   0  0  0  0  0  0  0  0  0  0  0  0
    0.0944   -1.7392    0.0000 C   0  0  0  0  0  0  0  0  0  0  0  0
    0.8902   -1.7392    0.0000 C   0  0  0  0  0  0  0  0  0  0  0  0
   -3.0891   -1.8393    0.0000 C   0  0  0  0  0  0  0  0  0  0  0  0
   -3.0891   -0.1474    0.0000 C   0  0  0  0  0  0  0  0  0  0  0  0
    2.1636   -3.4016    0.0000 C   0  0  0  0  0  0  0  0  0  0  0  0
    1.4562   -3.7494    0.0000 C   0  0  0  0  0  0  0  0  0  0  0  0
    2.6942   -2.0752    0.0000 O   0  0  0  0  0  0  0  0  0  0  0  0
    0.0707   -3.2542    0.0000 O   0  0  0  0  0  0  0  0  0  0  0  0
   -0.3124   -2.4466    0.0000 O   0  0  0  0  0  0  0  0  0  0  0  0
   -1.2734   -2.4466    0.0000 C   0  0  0  0  0  0  0  0  0  0  0  0
   -3.7965   -1.4149    0.0000 C   0  0  0  0  0  0  0  0  0  0  0  0
   -3.7965   -0.5719    0.0000 C   0  0  0  0  0  0  0  0  0  0  0  0
   -4.5039   -0.1474    0.0000 C   0  0  0  0  0  0  0  0  0  0  0  0
  2 11  1  0  0  0  0
  3  1  1  0  0  0  0
  4  1  2  0  0  0  0
  5  1  1  0  0  0  0
  6  5  1  0  0  0  0
  7  3  1  0  0  0  0
  8  2  1  0  0  0  0
  9  2  1  0  0  0  0
 10  4  1  0  0  0  0
 11 10  1  0  0  0  0
 12  7  1  0  0  0  0
 13  6  1  0  0  0  0
 14  8  1  0  0  0  0
 15  9  1  0  0  0  0
 16  8  2  0  0  0  0
 17  9  2  0  0  0  0
 18 10  2  0  0  0  0
 19  3  1  0  0  0  0
 20 12  2  0  0  0  0
 21 13  2  0  0  0  0
 22 21  1  0  0  0  0
  6  7  2  0  0  0  0
 21 20  1  0  0  0  0
 15 14  1  0  0  0  0
M  END
>  <IDNUMBER>
F0440-0364

>  <Chemical_Name>
N-[(2E)-3,6-dimethyl-2,3-dihydro-1,3-benzothiazol-2-ylidene]-2-(2,5-dioxopyrrolidin-1-yl)acetamide

>  <PriceCoeff>
1.00

>  <CAS>
392324-92-4

>  <MW>
317.36

>  <Description>
solid

>  <FSP3>
0.33

>  <clogP>
3.28

>  <TPSA>
95.35

>  <Acceptor>
3

>  <Donor>
0

>  <RotBonds>
3

>  <HAC>
22

>  <Collection>
General

>  <PPDS>
+

$$$$
F0440-0365
  Mrv2219 10102508112D          

 26 28  0  0  0  0            999 V2000
   -0.8409    1.6817    0.0000 N   0  0  0  0  0  0  0  0  0  0  0  0
    2.6897    1.0618    0.0000 C   0  0  0  0  0  0  0  0  0  0  0  0
   -1.2559    0.9648    0.0000 C   0  0  0  0  0  0  0  0  0  0  0  0
   -1.4176    2.2800    0.0000 C   0  0  0  0  0  0  0  0  0  0  0  0
    2.9161    1.8703    0.0000 C   0  0  0  0  0  0  0  0  0  0  0  0
    1.8812    0.8570    0.0000 C   0  0  0  0  0  0  0  0  0  0  0  0
    0.5175    1.2720    0.0000 C   0  0  0  0  0  0  0  0  0  0  0  0
    1.3152    1.4499    0.0000 N   0  0  0  0  0  0  0  0  0  0  0  0
   -0.0431    1.8703    0.0000 C   0  0  0  0  0  0  0  0  0  0  0  0
    3.2557    0.4689    0.0000 C   0  0  0  0  0  0  0  0  0  0  0  0
   -2.0860    1.1427    0.0000 C   0  0  0  0  0  0  0  0  0  0  0  0
   -2.1614    1.9404    0.0000 C   0  0  0  0  0  0  0  0  0  0  0  0
    2.3501    2.4579    0.0000 O   0  0  0  0  0  0  0  0  0  0  0  0
   -0.9217    0.1886    0.0000 O   0  0  0  0  0  0  0  0  0  0  0  0
   -1.2559    3.1316    0.0000 O   0  0  0  0  0  0  0  0  0  0  0  0
    3.6923    2.0698    0.0000 C   0  0  0  0  0  0  0  0  0  0  0  0
    0.2587    0.4689    0.0000 O   0  0  0  0  0  0  0  0  0  0  0  0
    1.6548    0.0592    0.0000 C   0  0  0  0  0  0  0  0  0  0  0  0
    3.0400   -0.3234    0.0000 C   0  0  0  0  0  0  0  0  0  0  0  0
    2.2208   -0.5229    0.0000 C   0  0  0  0  0  0  0  0  0  0  0  0
    3.6222   -0.9055    0.0000 Cl  0  0  0  0  0  0  0  0  0  0  0  0
    3.9510    2.8567    0.0000 C   0  0  0  0  0  0  0  0  0  0  0  0
    4.2690    1.4499    0.0000 C   0  0  0  0  0  0  0  0  0  0  0  0
    5.0667    1.6601    0.0000 C   0  0  0  0  0  0  0  0  0  0  0  0
    4.7595    3.0562    0.0000 C   0  0  0  0  0  0  0  0  0  0  0  0
    5.3039    2.4363    0.0000 C   0  0  0  0  0  0  0  0  0  0  0  0
  2  6  2  0  0  0  0
  3  1  1  0  0  0  0
  4  1  1  0  0  0  0
  5  2  1  0  0  0  0
  6  8  1  0  0  0  0
  7  9  1  0  0  0  0
  8  7  1  0  0  0  0
  9  1  1  0  0  0  0
 10  2  1  0  0  0  0
 11  3  1  0  0  0  0
 12  4  1  0  0  0  0
 13  5  2  0  0  0  0
 14  3  2  0  0  0  0
 15  4  2  0  0  0  0
 16  5  1  0  0  0  0
 17  7  2  0  0  0  0
 18  6  1  0  0  0  0
 19 20  1  0  0  0  0
 20 18  2  0  0  0  0
 21 19  1  0  0  0  0
 22 16  2  0  0  0  0
 23 16  1  0  0  0  0
 24 23  2  0  0  0  0
 25 22  1  0  0  0  0
 26 24  1  0  0  0  0
 12 11  1  0  0  0  0
 19 10  2  0  0  0  0
 26 25  2  0  0  0  0
M  END
>  <IDNUMBER>
F0440-0365

>  <Chemical_Name>
N-(2-benzoyl-4-chlorophenyl)-2-(2,5-dioxopyrrolidin-1-yl)acetamide

>  <PriceCoeff>
1.00

>  <CAS>
58142-33-9

>  <MW>
370.79

>  <Description>
solid

>  <FSP3>
0.16

>  <clogP>
3.37

>  <TPSA>
83.55

>  <Acceptor>
4

>  <Donor>
1

>  <RotBonds>
5

>  <HAC>
26

>  <Collection>
General

>  <PPDS>
+

$$$$
F0440-0366
  Mrv2219 10102508112D          

 26 28  0  0  0  0            999 V2000
   -0.9710    2.5197    0.0000 N   0  0  0  0  0  0  0  0  0  0  0  0
    2.6217    2.0051    0.0000 C   0  0  0  0  0  0  0  0  0  0  0  0
   -1.3400    1.8012    0.0000 C   0  0  0  0  0  0  0  0  0  0  0  0
   -1.5536    3.1023    0.0000 C   0  0  0  0  0  0  0  0  0  0  0  0
    2.8402    2.8207    0.0000 C   0  0  0  0  0  0  0  0  0  0  0  0
    1.8110    1.8012    0.0000 C   0  0  0  0  0  0  0  0  0  0  0  0
    0.4078    2.1702    0.0000 C   0  0  0  0  0  0  0  0  0  0  0  0
    1.2235    2.4032    0.0000 N   0  0  0  0  0  0  0  0  0  0  0  0
   -0.1748    2.7528    0.0000 C   0  0  0  0  0  0  0  0  0  0  0  0
    3.2043    1.4225    0.0000 C   0  0  0  0  0  0  0  0  0  0  0  0
   -2.1556    1.9371    0.0000 C   0  0  0  0  0  0  0  0  0  0  0  0
   -2.2721    2.7333    0.0000 C   0  0  0  0  0  0  0  0  0  0  0  0
    2.2770    3.4033    0.0000 O   0  0  0  0  0  0  0  0  0  0  0  0
   -0.9467    1.0487    0.0000 O   0  0  0  0  0  0  0  0  0  0  0  0
   -1.4370    3.9422    0.0000 O   0  0  0  0  0  0  0  0  0  0  0  0
    3.6316    3.0101    0.0000 C   0  0  0  0  0  0  0  0  0  0  0  0
    0.1797    1.3788    0.0000 O   0  0  0  0  0  0  0  0  0  0  0  0
    1.5779    1.0050    0.0000 C   0  0  0  0  0  0  0  0  0  0  0  0
    2.9713    0.6360    0.0000 C   0  0  0  0  0  0  0  0  0  0  0  0
    2.1605    0.4224    0.0000 C   0  0  0  0  0  0  0  0  0  0  0  0
    3.9034    3.8111    0.0000 C   0  0  0  0  0  0  0  0  0  0  0  0
    4.2142    2.4032    0.0000 C   0  0  0  0  0  0  0  0  0  0  0  0
    3.5587    0.0534    0.0000 C   0  0  0  0  0  0  0  0  0  0  0  0
    5.0104    2.5877    0.0000 C   0  0  0  0  0  0  0  0  0  0  0  0
    4.6802    3.9859    0.0000 C   0  0  0  0  0  0  0  0  0  0  0  0
    5.2434    3.3791    0.0000 C   0  0  0  0  0  0  0  0  0  0  0  0
  2  6  2  0  0  0  0
  3  1  1  0  0  0  0
  4  1  1  0  0  0  0
  5  2  1  0  0  0  0
  6  8  1  0  0  0  0
  7  9  1  0  0  0  0
  8  7  1  0  0  0  0
  9  1  1  0  0  0  0
 10  2  1  0  0  0  0
 11  3  1  0  0  0  0
 12  4  1  0  0  0  0
 13  5  2  0  0  0  0
 14  3  2  0  0  0  0
 15  4  2  0  0  0  0
 16  5  1  0  0  0  0
 17  7  2  0  0  0  0
 18  6  1  0  0  0  0
 19 20  1  0  0  0  0
 20 18  2  0  0  0  0
 21 16  2  0  0  0  0
 22 16  1  0  0  0  0
 23 19  1  0  0  0  0
 24 22  2  0  0  0  0
 25 21  1  0  0  0  0
 26 24  1  0  0  0  0
 12 11  1  0  0  0  0
 19 10  2  0  0  0  0
 26 25  2  0  0  0  0
M  END
>  <IDNUMBER>
F0440-0366

>  <Chemical_Name>
N-(2-benzoyl-4-methylphenyl)-2-(2,5-dioxopyrrolidin-1-yl)acetamide

>  <PriceCoeff>
1.00

>  <CAS>
392324-94-6

>  <MW>
350.37

>  <Description>
solid

>  <FSP3>
0.20

>  <clogP>
3.05

>  <TPSA>
83.55

>  <Acceptor>
4

>  <Donor>
1

>  <RotBonds>
5

>  <HAC>
26

>  <Collection>
General

>  <PPDS>
+

$$$$
F0440-0367
  Mrv2219 10102508112D          

 20 21  0  0  0  0            999 V2000
    1.9438   -1.4254    0.0000 N   0  0  0  0  0  0  0  0  0  0  0  0
    1.9168   -0.6210    0.0000 C   0  0  0  0  0  0  0  0  0  0  0  0
    2.7213   -1.6577    0.0000 C   0  0  0  0  0  0  0  0  0  0  0  0
    0.5400   -1.7549    0.0000 C   0  0  0  0  0  0  0  0  0  0  0  0
    1.3175   -2.0086    0.0000 C   0  0  0  0  0  0  0  0  0  0  0  0
   -0.0432   -2.3326    0.0000 N   0  0  0  0  0  0  0  0  0  0  0  0
   -3.2828   -1.4902    0.0000 C   0  0  0  0  0  0  0  0  0  0  0  0
   -2.4567   -1.6577    0.0000 C   0  0  0  0  0  0  0  0  0  0  0  0
    2.6944   -0.3294    0.0000 C   0  0  0  0  0  0  0  0  0  0  0  0
    3.1803   -0.9773    0.0000 C   0  0  0  0  0  0  0  0  0  0  0  0
    1.2311   -0.1512    0.0000 O   0  0  0  0  0  0  0  0  0  0  0  0
    3.0021   -2.4621    0.0000 O   0  0  0  0  0  0  0  0  0  0  0  0
    0.3294   -0.9719    0.0000 O   0  0  0  0  0  0  0  0  0  0  0  0
   -3.5420   -0.6696    0.0000 O   0  0  0  0  0  0  0  0  0  0  0  0
   -1.8574   -1.1015    0.0000 C   0  0  0  0  0  0  0  0  0  0  0  0
   -2.2461   -2.4352    0.0000 C   0  0  0  0  0  0  0  0  0  0  0  0
   -0.8423   -2.0950    0.0000 C   0  0  0  0  0  0  0  0  0  0  0  0
   -1.0798   -1.2959    0.0000 C   0  0  0  0  0  0  0  0  0  0  0  0
   -1.4416   -2.6620    0.0000 C   0  0  0  0  0  0  0  0  0  0  0  0
   -3.8497   -2.0950    0.0000 C   0  0  0  0  0  0  0  0  0  0  0  0
  2  1  1  0  0  0  0
  3  1  1  0  0  0  0
  4  5  1  0  0  0  0
  5  1  1  0  0  0  0
  6  4  1  0  0  0  0
  7  8  1  0  0  0  0
  8 16  1  0  0  0  0
  9  2  1  0  0  0  0
 10  3  1  0  0  0  0
 11  2  2  0  0  0  0
 12  3  2  0  0  0  0
 13  4  2  0  0  0  0
 14  7  2  0  0  0  0
 15 18  1  0  0  0  0
 16 19  2  0  0  0  0
 17  6  1  0  0  0  0
 18 17  2  0  0  0  0
 19 17  1  0  0  0  0
 20  7  1  0  0  0  0
 10  9  1  0  0  0  0
  8 15  2  0  0  0  0
M  END
>  <IDNUMBER>
F0440-0367

>  <Chemical_Name>
N-(4-acetylphenyl)-2-(2,5-dioxopyrrolidin-1-yl)acetamide

>  <PriceCoeff>
1.00

>  <CAS>
163487-73-8

>  <MW>
274.27

>  <Description>
solid

>  <FSP3>
0.29

>  <clogP>
0.52

>  <TPSA>
83.55

>  <Acceptor>
4

>  <Donor>
1

>  <RotBonds>
4

>  <HAC>
20

>  <Collection>
General

>  <PPDS>
+

$$$$
F0440-0368
  Mrv2219 10102508112D          

 20 21  0  0  0  0            999 V2000
    0.7955   -2.9831    0.0000 N   0  0  0  0  0  0  0  0  0  0  0  0
    1.4971   -3.3809    0.0000 C   0  0  0  0  0  0  0  0  0  0  0  0
    0.1713   -3.5190    0.0000 C   0  0  0  0  0  0  0  0  0  0  0  0
   -0.1601   -1.9281    0.0000 C   0  0  0  0  0  0  0  0  0  0  0  0
    0.5966   -2.1876    0.0000 C   0  0  0  0  0  0  0  0  0  0  0  0
   -0.3480   -1.1270    0.0000 N   0  0  0  0  0  0  0  0  0  0  0  0
   -2.5798   -1.0828    0.0000 C   0  0  0  0  0  0  0  0  0  0  0  0
   -3.2428   -1.5910    0.0000 C   0  0  0  0  0  0  0  0  0  0  0  0
    1.3314   -4.1819    0.0000 C   0  0  0  0  0  0  0  0  0  0  0  0
    0.5303   -4.2648    0.0000 C   0  0  0  0  0  0  0  0  0  0  0  0
   -1.7843   -1.3921    0.0000 C   0  0  0  0  0  0  0  0  0  0  0  0
    2.2595   -3.0218    0.0000 O   0  0  0  0  0  0  0  0  0  0  0  0
   -0.6408   -3.3809    0.0000 O   0  0  0  0  0  0  0  0  0  0  0  0
   -1.1435   -0.8618    0.0000 C   0  0  0  0  0  0  0  0  0  0  0  0
   -0.7734   -2.4915    0.0000 O   0  0  0  0  0  0  0  0  0  0  0  0
   -4.0051   -1.2651    0.0000 O   0  0  0  0  0  0  0  0  0  0  0  0
   -2.7124   -0.2651    0.0000 C   0  0  0  0  0  0  0  0  0  0  0  0
   -2.0495    0.2596    0.0000 C   0  0  0  0  0  0  0  0  0  0  0  0
   -1.3037   -0.0663    0.0000 C   0  0  0  0  0  0  0  0  0  0  0  0
   -3.1322   -2.4086    0.0000 C   0  0  0  0  0  0  0  0  0  0  0  0
  2  1  1  0  0  0  0
  3  1  1  0  0  0  0
  4  5  1  0  0  0  0
  5  1  1  0  0  0  0
  6  4  1  0  0  0  0
  7 11  2  0  0  0  0
  8  7  1  0  0  0  0
  9  2  1  0  0  0  0
 10  3  1  0  0  0  0
 11 14  1  0  0  0  0
 12  2  2  0  0  0  0
 13  3  2  0  0  0  0
 14  6  1  0  0  0  0
 15  4  2  0  0  0  0
 16  8  2  0  0  0  0
 17 18  2  0  0  0  0
 18 19  1  0  0  0  0
 19 14  2  0  0  0  0
 20  8  1  0  0  0  0
 10  9  1  0  0  0  0
 17  7  1  0  0  0  0
M  END
>  <IDNUMBER>
F0440-0368

>  <Chemical_Name>
N-(3-acetylphenyl)-2-(2,5-dioxopyrrolidin-1-yl)acetamide

>  <PriceCoeff>
1.00

>  <CAS>
476308-73-3

>  <MW>
274.27

>  <Description>
solid

>  <FSP3>
0.29

>  <clogP>
0.52

>  <TPSA>
83.55

>  <Acceptor>
4

>  <Donor>
1

>  <RotBonds>
4

>  <HAC>
20

>  <Collection>
General

>  <PPDS>
+

$$$$
F0440-0369
  Mrv2219 10102508112D          

 23 26  0  0  0  0            999 V2000
    0.6533   -2.9460    0.0000 N   0  0  0  0  0  0  0  0  0  0  0  0
    1.4035   -3.2666    0.0000 C   0  0  0  0  0  0  0  0  0  0  0  0
    0.1452   -3.5812    0.0000 C   0  0  0  0  0  0  0  0  0  0  0  0
   -1.5727   -1.0224    0.0000 C   0  0  0  0  0  0  0  0  0  0  0  0
   -0.4355   -1.9842    0.0000 C   0  0  0  0  0  0  0  0  0  0  0  0
   -2.9701   -1.4035    0.0000 C   0  0  0  0  0  0  0  0  0  0  0  0
   -0.7017   -1.2038    0.0000 N   0  0  0  0  0  0  0  0  0  0  0  0
   -2.1535   -1.6394    0.0000 C   0  0  0  0  0  0  0  0  0  0  0  0
    0.3630   -2.1777    0.0000 C   0  0  0  0  0  0  0  0  0  0  0  0
   -3.3391   -0.6776    0.0000 C   0  0  0  0  0  0  0  0  0  0  0  0
   -3.5508   -2.0325    0.0000 C   0  0  0  0  0  0  0  0  0  0  0  0
    1.3490   -4.0711    0.0000 C   0  0  0  0  0  0  0  0  0  0  0  0
    0.5807   -4.2828    0.0000 C   0  0  0  0  0  0  0  0  0  0  0  0
    2.1294   -2.8310    0.0000 O   0  0  0  0  0  0  0  0  0  0  0  0
   -0.7017   -3.5569    0.0000 O   0  0  0  0  0  0  0  0  0  0  0  0
   -1.7724   -0.2420    0.0000 C   0  0  0  0  0  0  0  0  0  0  0  0
   -0.9920   -2.6556    0.0000 O   0  0  0  0  0  0  0  0  0  0  0  0
   -2.8794    0.0000    0.0000 C   0  0  0  0  0  0  0  0  0  0  0  0
   -4.1558   -0.8227    0.0000 C   0  0  0  0  0  0  0  0  0  0  0  0
   -4.2767   -1.6394    0.0000 C   0  0  0  0  0  0  0  0  0  0  0  0
   -1.9175   -2.4197    0.0000 C   0  0  0  0  0  0  0  0  0  0  0  0
   -2.4681   -3.0004    0.0000 C   0  0  0  0  0  0  0  0  0  0  0  0
   -3.3149   -2.8008    0.0000 C   0  0  0  0  0  0  0  0  0  0  0  0
  2  1  1  0  0  0  0
  3  1  1  0  0  0  0
  4  7  1  0  0  0  0
  5  9  1  0  0  0  0
  6  8  2  0  0  0  0
  7  5  1  0  0  0  0
  8  4  1  0  0  0  0
  9  1  1  0  0  0  0
 10 18  2  0  0  0  0
 11  6  1  0  0  0  0
 12  2  1  0  0  0  0
 13  3  1  0  0  0  0
 14  2  2  0  0  0  0
 15  3  2  0  0  0  0
 16  4  2  0  0  0  0
 17  5  2  0  0  0  0
 18 16  1  0  0  0  0
 19 10  1  0  0  0  0
 20 11  1  0  0  0  0
 21  8  1  0  0  0  0
 22 21  2  0  0  0  0
 23 22  1  0  0  0  0
 13 12  1  0  0  0  0
  6 10  1  0  0  0  0
 11 23  2  0  0  0  0
 19 20  1  0  0  0  0
M  END
>  <IDNUMBER>
F0440-0369

>  <Chemical_Name>
N-(1,2-dihydroacenaphthylen-5-yl)-2-(2,5-dioxopyrrolidin-1-yl)acetamide

>  <PriceCoeff>
1.00

>  <CAS>
392324-96-8

>  <MW>
308.33

>  <Description>
solid

>  <FSP3>
0.28

>  <clogP>
2.24

>  <TPSA>
66.48

>  <Acceptor>
3

>  <Donor>
1

>  <RotBonds>
3

>  <HAC>
23

>  <Collection>
General

>  <PPDS>
+

$$$$
F0440-0371
  Mrv2219 10102508112D          

 24 26  0  0  0  0            999 V2000
    2.5432   -0.0953    0.0000 N   0  0  0  0  0  0  0  0  0  0  0  0
    3.3651   -0.1668    0.0000 C   0  0  0  0  0  0  0  0  0  0  0  0
    2.3585    0.6611    0.0000 C   0  0  0  0  0  0  0  0  0  0  0  0
    2.2216   -1.4711    0.0000 C   0  0  0  0  0  0  0  0  0  0  0  0
    1.6855   -2.0786    0.0000 N   0  0  0  0  0  0  0  0  0  0  0  0
    1.9714   -0.6850    0.0000 C   0  0  0  0  0  0  0  0  0  0  0  0
    0.8279   -1.9297    0.0000 C   0  0  0  0  0  0  0  0  0  0  0  0
    0.2859   -2.5432    0.0000 C   0  0  0  0  0  0  0  0  0  0  0  0
    0.1429   -3.3115    0.0000 O   0  0  0  0  0  0  0  0  0  0  0  0
    3.6449    0.5718    0.0000 C   0  0  0  0  0  0  0  0  0  0  0  0
    3.0077    1.1018    0.0000 C   0  0  0  0  0  0  0  0  0  0  0  0
    3.8118   -0.9291    0.0000 O   0  0  0  0  0  0  0  0  0  0  0  0
    1.5426    0.9470    0.0000 O   0  0  0  0  0  0  0  0  0  0  0  0
    3.2579   -1.7927    0.0000 O   0  0  0  0  0  0  0  0  0  0  0  0
   -0.6611   -3.5735    0.0000 C   0  0  0  0  0  0  0  0  0  0  0  0
    0.5718   -1.1138    0.0000 C   0  0  0  0  0  0  0  0  0  0  0  0
   -0.5003   -2.3645    0.0000 C   0  0  0  0  0  0  0  0  0  0  0  0
   -1.2864   -3.0732    0.0000 C   0  0  0  0  0  0  0  0  0  0  0  0
   -0.8755   -4.4014    0.0000 C   0  0  0  0  0  0  0  0  0  0  0  0
   -0.2144   -0.9351    0.0000 C   0  0  0  0  0  0  0  0  0  0  0  0
   -0.7862   -1.5426    0.0000 C   0  0  0  0  0  0  0  0  0  0  0  0
   -1.6617   -4.6515    0.0000 C   0  0  0  0  0  0  0  0  0  0  0  0
   -2.0726   -3.2400    0.0000 C   0  0  0  0  0  0  0  0  0  0  0  0
   -2.2870   -4.0738    0.0000 C   0  0  0  0  0  0  0  0  0  0  0  0
  2  1  1  0  0  0  0
  3  1  1  0  0  0  0
  4  6  1  0  0  0  0
  5  4  1  0  0  0  0
  6  1  1  0  0  0  0
  7  5  1  0  0  0  0
  8  7  1  0  0  0  0
  9  8  1  0  0  0  0
 10  2  1  0  0  0  0
 11  3  1  0  0  0  0
 12  2  2  0  0  0  0
 13  3  2  0  0  0  0
 14  4  2  0  0  0  0
 15  9  1  0  0  0  0
 16  7  2  0  0  0  0
 17  8  2  0  0  0  0
 18 15  1  0  0  0  0
 19 15  2  0  0  0  0
 20 16  1  0  0  0  0
 21 20  2  0  0  0  0
 22 19  1  0  0  0  0
 23 18  2  0  0  0  0
 24 22  2  0  0  0  0
 11 10  1  0  0  0  0
 21 17  1  0  0  0  0
 24 23  1  0  0  0  0
M  END
>  <IDNUMBER>
F0440-0371

>  <Chemical_Name>
2-(2,5-dioxopyrrolidin-1-yl)-N-(2-phenoxyphenyl)acetamide

>  <PriceCoeff>
1.00

>  <CAS>
392324-98-0

>  <MW>
324.33

>  <Description>
solid

>  <FSP3>
0.17

>  <clogP>
2.12

>  <TPSA>
75.71

>  <Acceptor>
4

>  <Donor>
1

>  <RotBonds>
5

>  <HAC>
24

>  <Collection>
General

>  <PPDS>
+

$$$$
F0440-0372
  Mrv2219 10102508112D          

 22 23  0  0  0  0            999 V2000
    1.9434   -0.8690    0.0000 N   0  0  0  0  0  0  0  0  0  0  0  0
   -1.3679   -2.2780    0.0000 C   0  0  0  0  0  0  0  0  0  0  0  0
   -1.1742   -3.1234    0.0000 N   0  3  0  0  0  0  0  0  0  0  0  0
    1.8553   -0.0705    0.0000 C   0  0  0  0  0  0  0  0  0  0  0  0
    2.7476   -1.0568    0.0000 C   0  0  0  0  0  0  0  0  0  0  0  0
   -0.7750   -1.7144    0.0000 C   0  0  0  0  0  0  0  0  0  0  0  0
    0.5872   -1.2917    0.0000 C   0  0  0  0  0  0  0  0  0  0  0  0
    0.0235   -1.9081    0.0000 N   0  0  0  0  0  0  0  0  0  0  0  0
    1.4090   -1.4795    0.0000 C   0  0  0  0  0  0  0  0  0  0  0  0
   -2.1605   -2.0843    0.0000 C   0  0  0  0  0  0  0  0  0  0  0  0
   -1.7906   -3.6635    0.0000 O   0  5  0  0  0  0  0  0  0  0  0  0
   -0.3816   -3.3817    0.0000 O   0  0  0  0  0  0  0  0  0  0  0  0
    2.6479    0.2407    0.0000 C   0  0  0  0  0  0  0  0  0  0  0  0
    3.1234   -0.3053    0.0000 C   0  0  0  0  0  0  0  0  0  0  0  0
    1.1272    0.3287    0.0000 O   0  0  0  0  0  0  0  0  0  0  0  0
    3.0882   -1.8025    0.0000 O   0  0  0  0  0  0  0  0  0  0  0  0
    0.3523   -0.4991    0.0000 O   0  0  0  0  0  0  0  0  0  0  0  0
   -1.0039   -0.9218    0.0000 C   0  0  0  0  0  0  0  0  0  0  0  0
   -2.3895   -1.2917    0.0000 C   0  0  0  0  0  0  0  0  0  0  0  0
   -1.7906   -0.7045    0.0000 C   0  0  0  0  0  0  0  0  0  0  0  0
   -3.1997   -1.0627    0.0000 O   0  0  0  0  0  0  0  0  0  0  0  0
   -3.4522   -0.2525    0.0000 C   0  0  0  0  0  0  0  0  0  0  0  0
  2  6  1  0  0  0  0
  3  2  1  0  0  0  0
  4  1  1  0  0  0  0
  5  1  1  0  0  0  0
  6  8  1  0  0  0  0
  7  9  1  0  0  0  0
  8  7  1  0  0  0  0
  9  1  1  0  0  0  0
 10  2  2  0  0  0  0
 11  3  1  0  0  0  0
 12  3  2  0  0  0  0
 13  4  1  0  0  0  0
 14  5  1  0  0  0  0
 15  4  2  0  0  0  0
 16  5  2  0  0  0  0
 17  7  2  0  0  0  0
 18  6  2  0  0  0  0
 19 20  2  0  0  0  0
 20 18  1  0  0  0  0
 21 19  1  0  0  0  0
 22 21  1  0  0  0  0
 14 13  1  0  0  0  0
 19 10  1  0  0  0  0
M  CHG  2   3   1  11  -1
M  END
>  <IDNUMBER>
F0440-0372

>  <Chemical_Name>
2-(2,5-dioxopyrrolidin-1-yl)-N-(4-methoxy-2-nitrophenyl)acetamide

>  <PriceCoeff>
1.00

>  <CAS>
329903-05-1

>  <MW>
307.26

>  <Description>
solid

>  <FSP3>
0.31

>  <clogP>
0.51

>  <TPSA>
118.85

>  <Acceptor>
6

>  <Donor>
1

>  <RotBonds>
5

>  <HAC>
22

>  <Collection>
General

>  <PPDS>
+

$$$$
F0440-0374
  Mrv2219 10102508112D          

 22 23  0  0  0  0            999 V2000
    0.3210   -0.9513    0.0000 N   0  0  0  0  0  0  0  0  0  0  0  0
   -4.8264   -1.2606    0.0000 N   0  3  0  0  0  0  0  0  0  0  0  0
    0.2335   -0.1635    0.0000 C   0  0  0  0  0  0  0  0  0  0  0  0
    1.1205   -1.1205    0.0000 C   0  0  0  0  0  0  0  0  0  0  0  0
   -4.0094   -1.4241    0.0000 C   0  0  0  0  0  0  0  0  0  0  0  0
   -1.0096   -1.3715    0.0000 C   0  0  0  0  0  0  0  0  0  0  0  0
   -3.7584   -2.2119    0.0000 C   0  0  0  0  0  0  0  0  0  0  0  0
   -1.5699   -1.9843    0.0000 N   0  0  0  0  0  0  0  0  0  0  0  0
   -0.2042   -1.5641    0.0000 C   0  0  0  0  0  0  0  0  0  0  0  0
   -2.4103   -1.7917    0.0000 C   0  0  0  0  0  0  0  0  0  0  0  0
   -2.9414   -2.4045    0.0000 C   0  0  0  0  0  0  0  0  0  0  0  0
   -5.1066   -0.4961    0.0000 O   0  5  0  0  0  0  0  0  0  0  0  0
   -5.3517   -1.8968    0.0000 O   0  0  0  0  0  0  0  0  0  0  0  0
    1.0214    0.1576    0.0000 C   0  0  0  0  0  0  0  0  0  0  0  0
    1.4941   -0.4202    0.0000 C   0  0  0  0  0  0  0  0  0  0  0  0
   -0.4844    0.2392    0.0000 O   0  0  0  0  0  0  0  0  0  0  0  0
    1.4707   -1.8968    0.0000 O   0  0  0  0  0  0  0  0  0  0  0  0
   -1.2606   -0.5837    0.0000 O   0  0  0  0  0  0  0  0  0  0  0  0
   -3.4492   -0.8404    0.0000 C   0  0  0  0  0  0  0  0  0  0  0  0
   -2.6729   -1.0039    0.0000 C   0  0  0  0  0  0  0  0  0  0  0  0
   -2.6904   -3.1924    0.0000 O   0  0  0  0  0  0  0  0  0  0  0  0
   -3.2507   -3.7818    0.0000 C   0  0  0  0  0  0  0  0  0  0  0  0
  2  5  1  0  0  0  0
  3  1  1  0  0  0  0
  4  1  1  0  0  0  0
  5 19  2  0  0  0  0
  6  9  1  0  0  0  0
  7 11  2  0  0  0  0
  8  6  1  0  0  0  0
  9  1  1  0  0  0  0
 10  8  1  0  0  0  0
 11 10  1  0  0  0  0
 12  2  1  0  0  0  0
 13  2  2  0  0  0  0
 14  3  1  0  0  0  0
 15  4  1  0  0  0  0
 16  3  2  0  0  0  0
 17  4  2  0  0  0  0
 18  6  2  0  0  0  0
 19 20  1  0  0  0  0
 20 10  2  0  0  0  0
 21 11  1  0  0  0  0
 22 21  1  0  0  0  0
 15 14  1  0  0  0  0
  7  5  1  0  0  0  0
M  CHG  2   2   1  12  -1
M  END
>  <IDNUMBER>
F0440-0374

>  <Chemical_Name>
2-(2,5-dioxopyrrolidin-1-yl)-N-(2-methoxy-4-nitrophenyl)acetamide

>  <PriceCoeff>
1.00

>  <CAS>
329905-30-8

>  <MW>
307.26

>  <Description>
solid

>  <FSP3>
0.31

>  <clogP>
0.38

>  <TPSA>
118.85

>  <Acceptor>
6

>  <Donor>
1

>  <RotBonds>
5

>  <HAC>
22

>  <Collection>
General

>  <PPDS>
+

$$$$
F0440-0379
  Mrv2219 10102508112D          

 28 30  0  0  0  0            999 V2000
    1.4578   -2.7212    0.0000 C   0  0  0  0  0  0  0  0  0  0  0  0
    2.1705   -3.1424    0.0000 S   0  0  0  0  0  0  0  0  0  0  0  0
    1.2716   -1.9033    0.0000 S   0  0  0  0  0  0  0  0  0  0  0  0
    0.5427    1.1095    0.0000 N   0  0  0  0  0  0  0  0  0  0  0  0
    0.4859   -1.7818    0.0000 C   0  0  0  0  0  0  0  0  0  0  0  0
    5.0536   -4.8188    0.0000 N   0  3  0  0  0  0  0  0  0  0  0  0
    0.1053   -2.5268    0.0000 N   0  0  0  0  0  0  0  0  0  0  0  0
    0.0972   -1.0043    0.0000 N   0  0  0  0  0  0  0  0  0  0  0  0
    0.6885   -3.1099    0.0000 C   0  0  0  0  0  0  0  0  0  0  0  0
    0.2997    1.8869    0.0000 C   0  0  0  0  0  0  0  0  0  0  0  0
    1.3930    1.0690    0.0000 C   0  0  0  0  0  0  0  0  0  0  0  0
    0.4941   -0.2997    0.0000 C   0  0  0  0  0  0  0  0  0  0  0  0
    0.1053    0.4130    0.0000 C   0  0  0  0  0  0  0  0  0  0  0  0
    2.9155   -3.6040    0.0000 C   0  0  0  0  0  0  0  0  0  0  0  0
    4.3086   -4.4300    0.0000 C   0  0  0  0  0  0  0  0  0  0  0  0
    2.6240   -2.4296    0.0000 O   0  0  0  0  0  0  0  0  0  0  0  0
    1.7089   -3.8874    0.0000 O   0  0  0  0  0  0  0  0  0  0  0  0
    5.0860   -5.6691    0.0000 O   0  5  0  0  0  0  0  0  0  0  0  0
    5.7906   -4.3815    0.0000 O   0  0  0  0  0  0  0  0  0  0  0  0
    0.9718    2.3567    0.0000 C   0  0  0  0  0  0  0  0  0  0  0  0
    1.6521    1.8465    0.0000 C   0  0  0  0  0  0  0  0  0  0  0  0
   -0.4859    2.1299    0.0000 O   0  0  0  0  0  0  0  0  0  0  0  0
    1.9033    0.4130    0.0000 O   0  0  0  0  0  0  0  0  0  0  0  0
    1.3202   -0.3483    0.0000 O   0  0  0  0  0  0  0  0  0  0  0  0
    2.9155   -4.4300    0.0000 C   0  0  0  0  0  0  0  0  0  0  0  0
    3.6040   -3.2071    0.0000 C   0  0  0  0  0  0  0  0  0  0  0  0
    4.3086   -3.6040    0.0000 C   0  0  0  0  0  0  0  0  0  0  0  0
    3.6040   -4.8592    0.0000 C   0  0  0  0  0  0  0  0  0  0  0  0
  2  1  1  0  0  0  0
  3  1  1  0  0  0  0
  4 13  1  0  0  0  0
  5  3  1  0  0  0  0
  6 15  1  0  0  0  0
  7  9  1  0  0  0  0
  8  5  1  0  0  0  0
  9  1  2  0  0  0  0
 10  4  1  0  0  0  0
 11  4  1  0  0  0  0
 12  8  1  0  0  0  0
 13 12  1  0  0  0  0
 14  2  1  0  0  0  0
 15 27  1  0  0  0  0
 16  2  2  0  0  0  0
 17  2  2  0  0  0  0
 18  6  1  0  0  0  0
 19  6  2  0  0  0  0
 20 10  1  0  0  0  0
 21 11  1  0  0  0  0
 22 10  2  0  0  0  0
 23 11  2  0  0  0  0
 24 12  2  0  0  0  0
 25 14  2  0  0  0  0
 26 14  1  0  0  0  0
 27 26  2  0  0  0  0
 28 25  1  0  0  0  0
  5  7  2  0  0  0  0
 15 28  2  0  0  0  0
 21 20  1  0  0  0  0
M  CHG  2   6   1  18  -1
M  END
>  <IDNUMBER>
F0440-0379

>  <Chemical_Name>
2-(2,5-dioxopyrrolidin-1-yl)-N-[5-(4-nitrobenzenesulfonyl)-1,3-thiazol-2-yl]acetamide

>  <PriceCoeff>
1.00

>  <CAS>
361167-77-3

>  <MW>
424.41

>  <Description>
solid

>  <FSP3>
0.20

>  <clogP>
0.60

>  <TPSA>
193.27

>  <Acceptor>
8

>  <Donor>
1

>  <RotBonds>
6

>  <HAC>
28

>  <Collection>
General

>  <PPDS>
+

$$$$
F0440-0381
  Mrv2219 10102508112D          

 25 27  0  0  0  0            999 V2000
   -0.4638   -3.7316    0.0000 C   0  0  0  0  0  0  0  0  0  0  0  0
   -0.8936   -4.4479    0.0000 C   0  0  0  0  0  0  0  0  0  0  0  0
   -1.4462   -1.4804    0.0000 N   0  0  0  0  0  0  0  0  0  0  0  0
    0.3275   -3.8954    0.0000 S   0  0  0  0  0  0  0  0  0  0  0  0
   -0.3275   -5.0755    0.0000 C   0  0  0  0  0  0  0  0  0  0  0  0
    0.4093   -4.7480    0.0000 C   0  0  0  0  0  0  0  0  0  0  0  0
   -0.7913   -2.9744    0.0000 N   0  0  0  0  0  0  0  0  0  0  0  0
   -1.9988   -2.1284    0.0000 C   0  0  0  0  0  0  0  0  0  0  0  0
   -1.8555   -0.7641    0.0000 C   0  0  0  0  0  0  0  0  0  0  0  0
   -1.7396   -4.5025    0.0000 C   0  0  0  0  0  0  0  0  0  0  0  0
   -0.3001   -2.3195    0.0000 C   0  0  0  0  0  0  0  0  0  0  0  0
   -0.6276   -1.5623    0.0000 C   0  0  0  0  0  0  0  0  0  0  0  0
   -2.7355   -1.7260    0.0000 C   0  0  0  0  0  0  0  0  0  0  0  0
   -2.6401   -0.9278    0.0000 C   0  0  0  0  0  0  0  0  0  0  0  0
   -1.8010   -2.9539    0.0000 O   0  0  0  0  0  0  0  0  0  0  0  0
   -1.4667   -0.0069    0.0000 O   0  0  0  0  0  0  0  0  0  0  0  0
   -2.1625   -3.7930    0.0000 O   0  0  0  0  0  0  0  0  0  0  0  0
    0.4981   -2.4218    0.0000 O   0  0  0  0  0  0  0  0  0  0  0  0
   -2.1011   -5.2392    0.0000 O   0  0  0  0  0  0  0  0  0  0  0  0
   -0.4298   -5.8941    0.0000 C   0  0  0  0  0  0  0  0  0  0  0  0
    1.0642   -5.2392    0.0000 C   0  0  0  0  0  0  0  0  0  0  0  0
   -2.9197   -5.2666    0.0000 C   0  0  0  0  0  0  0  0  0  0  0  0
    0.2115   -6.3853    0.0000 C   0  0  0  0  0  0  0  0  0  0  0  0
    0.9824   -6.0579    0.0000 C   0  0  0  0  0  0  0  0  0  0  0  0
   -3.2745   -6.0238    0.0000 C   0  0  0  0  0  0  0  0  0  0  0  0
  2  1  2  0  0  0  0
  3 12  1  0  0  0  0
  4  1  1  0  0  0  0
  5  2  1  0  0  0  0
  6  4  1  0  0  0  0
  7  1  1  0  0  0  0
  8  3  1  0  0  0  0
  9  3  1  0  0  0  0
 10  2  1  0  0  0  0
 11  7  1  0  0  0  0
 12 11  1  0  0  0  0
 13  8  1  0  0  0  0
 14  9  1  0  0  0  0
 15  8  2  0  0  0  0
 16  9  2  0  0  0  0
 17 10  2  0  0  0  0
 18 11  2  0  0  0  0
 19 10  1  0  0  0  0
 20  5  1  0  0  0  0
 21  6  1  0  0  0  0
 22 19  1  0  0  0  0
 23 20  1  0  0  0  0
 24 21  1  0  0  0  0
 25 22  1  0  0  0  0
  6  5  2  0  0  0  0
 24 23  1  0  0  0  0
 14 13  1  0  0  0  0
M  END
>  <IDNUMBER>
F0440-0381

>  <Chemical_Name>
ethyl 2-[2-(2,5-dioxopyrrolidin-1-yl)acetamido]-4,5,6,7-tetrahydro-1-benzothiophene-3-carboxylate

>  <PriceCoeff>
1.00

>  <CAS>
296799-50-3

>  <MW>
364.42

>  <Description>
solid

>  <FSP3>
0.53

>  <clogP>
2.88

>  <TPSA>
121.02

>  <Acceptor>
5

>  <Donor>
1

>  <RotBonds>
6

>  <HAC>
25

>  <Collection>
General

>  <PPDS>
+

$$$$
F0440-0382
  Mrv2219 10102508112D          

 22 24  0  0  0  0            999 V2000
   -4.2202   -1.7230    0.0000 C   0  0  0  0  0  0  0  0  0  0  0  0
   -4.6596   -2.4275    0.0000 C   0  0  0  0  0  0  0  0  0  0  0  0
   -2.7344    0.2022    0.0000 N   0  0  0  0  0  0  0  0  0  0  0  0
   -3.4250   -1.8904    0.0000 S   0  0  0  0  0  0  0  0  0  0  0  0
   -4.0946   -3.0623    0.0000 C   0  0  0  0  0  0  0  0  0  0  0  0
   -3.3483   -2.7275    0.0000 C   0  0  0  0  0  0  0  0  0  0  0  0
   -4.5550   -0.9487    0.0000 N   0  0  0  0  0  0  0  0  0  0  0  0
   -2.9227    1.0393    0.0000 C   0  0  0  0  0  0  0  0  0  0  0  0
   -1.9182    0.1395    0.0000 C   0  0  0  0  0  0  0  0  0  0  0  0
   -5.4967   -2.5112    0.0000 C   0  0  0  0  0  0  0  0  0  0  0  0
   -4.0528   -0.2791    0.0000 C   0  0  0  0  0  0  0  0  0  0  0  0
   -3.2575   -0.4185    0.0000 C   0  0  0  0  0  0  0  0  0  0  0  0
   -6.3338   -2.5182    0.0000 N   0  0  0  0  0  0  0  0  0  0  0  0
   -2.1973    1.4230    0.0000 C   0  0  0  0  0  0  0  0  0  0  0  0
   -1.5834    0.8719    0.0000 C   0  0  0  0  0  0  0  0  0  0  0  0
   -3.7598    1.3741    0.0000 O   0  0  0  0  0  0  0  0  0  0  0  0
   -1.5277   -0.6139    0.0000 O   0  0  0  0  0  0  0  0  0  0  0  0
   -4.3528    0.4743    0.0000 O   0  0  0  0  0  0  0  0  0  0  0  0
   -4.1854   -3.8576    0.0000 C   0  0  0  0  0  0  0  0  0  0  0  0
   -2.6786   -3.1879    0.0000 C   0  0  0  0  0  0  0  0  0  0  0  0
   -3.5157   -4.3598    0.0000 C   0  0  0  0  0  0  0  0  0  0  0  0
   -2.7553   -4.0179    0.0000 C   0  0  0  0  0  0  0  0  0  0  0  0
  2  1  2  0  0  0  0
  3 12  1  0  0  0  0
  4  1  1  0  0  0  0
  5  2  1  0  0  0  0
  6  4  1  0  0  0  0
  7  1  1  0  0  0  0
  8  3  1  0  0  0  0
  9  3  1  0  0  0  0
 10  2  1  0  0  0  0
 11  7  1  0  0  0  0
 12 11  1  0  0  0  0
 13 10  3  0  0  0  0
 14  8  1  0  0  0  0
 15  9  1  0  0  0  0
 16  8  2  0  0  0  0
 17  9  2  0  0  0  0
 18 11  2  0  0  0  0
 19  5  1  0  0  0  0
 20  6  1  0  0  0  0
 21 19  1  0  0  0  0
 22 20  1  0  0  0  0
  5  6  2  0  0  0  0
 21 22  1  0  0  0  0
 15 14  1  0  0  0  0
M  END
>  <IDNUMBER>
F0440-0382

>  <Chemical_Name>
N-(3-cyano-4,5,6,7-tetrahydro-1-benzothiophen-2-yl)-2-(2,5-dioxopyrrolidin-1-yl)acetamide

>  <PriceCoeff>
1.00

>  <CAS>
296799-48-9

>  <MW>
317.36

>  <Description>
solid

>  <FSP3>
0.47

>  <clogP>
1.25

>  <TPSA>
118.51

>  <Acceptor>
4

>  <Donor>
1

>  <RotBonds>
3

>  <HAC>
22

>  <Collection>
General

>  <PPDS>
+

$$$$
F0440-0383
  Mrv2219 10102508112D          

 24 26  0  0  0  0            999 V2000
   -3.5538   -1.1291    0.0000 C   0  0  0  0  0  0  0  0  0  0  0  0
   -3.9953   -1.8530    0.0000 C   0  0  0  0  0  0  0  0  0  0  0  0
   -1.9687    0.6948    0.0000 N   0  0  0  0  0  0  0  0  0  0  0  0
   -3.4452   -2.4827    0.0000 C   0  0  0  0  0  0  0  0  0  0  0  0
   -2.7142   -2.1352    0.0000 C   0  0  0  0  0  0  0  0  0  0  0  0
   -2.7794   -1.3318    0.0000 S   0  0  0  0  0  0  0  0  0  0  0  0
   -3.8216   -0.3474    0.0000 N   0  0  0  0  0  0  0  0  0  0  0  0
   -2.1062    1.5344    0.0000 C   0  0  0  0  0  0  0  0  0  0  0  0
   -1.1652    0.6007    0.0000 C   0  0  0  0  0  0  0  0  0  0  0  0
   -4.8349   -1.9108    0.0000 C   0  0  0  0  0  0  0  0  0  0  0  0
   -3.3149    0.2823    0.0000 C   0  0  0  0  0  0  0  0  0  0  0  0
   -2.5115    0.1086    0.0000 C   0  0  0  0  0  0  0  0  0  0  0  0
   -3.5538   -3.3005    0.0000 C   0  0  0  0  0  0  0  0  0  0  0  0
   -2.0555   -2.6564    0.0000 C   0  0  0  0  0  0  0  0  0  0  0  0
   -1.3897    1.8818    0.0000 C   0  0  0  0  0  0  0  0  0  0  0  0
   -0.8178    1.3028    0.0000 C   0  0  0  0  0  0  0  0  0  0  0  0
   -2.9023    1.8818    0.0000 O   0  0  0  0  0  0  0  0  0  0  0  0
   -0.8034   -0.1520    0.0000 O   0  0  0  0  0  0  0  0  0  0  0  0
   -5.2113   -2.6129    0.0000 O   0  0  0  0  0  0  0  0  0  0  0  0
   -3.5828    1.0423    0.0000 O   0  0  0  0  0  0  0  0  0  0  0  0
   -5.2908   -1.2160    0.0000 N   0  0  0  0  0  0  0  0  0  0  0  0
   -2.8879   -3.8216    0.0000 C   0  0  0  0  0  0  0  0  0  0  0  0
   -2.1641   -3.4742    0.0000 C   0  0  0  0  0  0  0  0  0  0  0  0
   -1.4258   -3.9375    0.0000 C   0  0  0  0  0  0  0  0  0  0  0  0
  2  1  2  0  0  0  0
  3 12  1  0  0  0  0
  4  2  1  0  0  0  0
  5  6  1  0  0  0  0
  6  1  1  0  0  0  0
  7  1  1  0  0  0  0
  8  3  1  0  0  0  0
  9  3  1  0  0  0  0
 10  2  1  0  0  0  0
 11  7  1  0  0  0  0
 12 11  1  0  0  0  0
 13  4  1  0  0  0  0
 14  5  1  0  0  0  0
 15  8  1  0  0  0  0
 16  9  1  0  0  0  0
 17  8  2  0  0  0  0
 18  9  2  0  0  0  0
 19 10  2  0  0  0  0
 20 11  2  0  0  0  0
 21 10  1  0  0  0  0
 22 13  1  0  0  0  0
 23 14  1  0  0  0  0
 24 23  1  0  0  0  0
  5  4  2  0  0  0  0
 23 22  1  0  0  0  0
 16 15  1  0  0  0  0
M  END
>  <IDNUMBER>
F0440-0383

>  <Chemical_Name>
2-[2-(2,5-dioxopyrrolidin-1-yl)acetamido]-6-methyl-4,5,6,7-tetrahydro-1-benzothiophene-3-carboxamide

>  <PriceCoeff>
1.00

>  <CAS>
476308-77-7

>  <MW>
349.40

>  <Description>
solid

>  <FSP3>
0.50

>  <clogP>
1.65

>  <TPSA>
137.81

>  <Acceptor>
4

>  <Donor>
2

>  <RotBonds>
4

>  <HAC>
24

>  <Collection>
General

>  <PPDS>
+

$$$$
F0440-0388
  Mrv2219 10102508112D          

 23 25  0  0  0  0            999 V2000
   -0.6127    0.0990    0.0000 C   0  0  0  0  0  0  0  0  0  0  0  0
   -0.7478    0.9100    0.0000 C   0  0  0  0  0  0  0  0  0  0  0  0
   -1.1263   -0.5406    0.0000 N   0  0  0  0  0  0  0  0  0  0  0  0
    0.3605    2.8113    0.0000 N   0  0  0  0  0  0  0  0  0  0  0  0
    0.1081   -0.1892    0.0000 N   0  0  0  0  0  0  0  0  0  0  0  0
   -0.1352    1.4777    0.0000 C   0  0  0  0  0  0  0  0  0  0  0  0
   -0.2612    2.2616    0.0000 C   0  0  0  0  0  0  0  0  0  0  0  0
   -0.6937   -1.2255    0.0000 C   0  0  0  0  0  0  0  0  0  0  0  0
    0.3605    3.6402    0.0000 C   0  0  0  0  0  0  0  0  0  0  0  0
    1.1444    2.5140    0.0000 C   0  0  0  0  0  0  0  0  0  0  0  0
    0.0631   -1.0093    0.0000 C   0  0  0  0  0  0  0  0  0  0  0  0
   -1.5138    1.2164    0.0000 C   0  0  0  0  0  0  0  0  0  0  0  0
   -2.2977    1.4777    0.0000 N   0  0  0  0  0  0  0  0  0  0  0  0
    1.1894    3.8926    0.0000 C   0  0  0  0  0  0  0  0  0  0  0  0
    1.6580    3.1627    0.0000 C   0  0  0  0  0  0  0  0  0  0  0  0
    0.6579    1.1803    0.0000 O   0  0  0  0  0  0  0  0  0  0  0  0
   -0.2612    4.1089    0.0000 O   0  0  0  0  0  0  0  0  0  0  0  0
    1.4057    1.7300    0.0000 O   0  0  0  0  0  0  0  0  0  0  0  0
   -1.9913   -0.4416    0.0000 C   0  0  0  0  0  0  0  0  0  0  0  0
   -0.9100   -2.0544    0.0000 C   0  0  0  0  0  0  0  0  0  0  0  0
    0.6579   -1.6219    0.0000 C   0  0  0  0  0  0  0  0  0  0  0  0
   -0.3514   -2.6042    0.0000 C   0  0  0  0  0  0  0  0  0  0  0  0
    0.4325   -2.3879    0.0000 C   0  0  0  0  0  0  0  0  0  0  0  0
  2  1  2  0  0  0  0
  3  1  1  0  0  0  0
  4  7  1  0  0  0  0
  5  1  1  0  0  0  0
  6  2  1  0  0  0  0
  7  6  1  0  0  0  0
  8  3  1  0  0  0  0
  9  4  1  0  0  0  0
 10  4  1  0  0  0  0
 11  5  1  0  0  0  0
 12  2  1  0  0  0  0
 13 12  3  0  0  0  0
 14  9  1  0  0  0  0
 15 10  1  0  0  0  0
 16  6  2  0  0  0  0
 17  9  2  0  0  0  0
 18 10  2  0  0  0  0
 19  3  1  0  0  0  0
 20  8  1  0  0  0  0
 21 11  1  0  0  0  0
 22 20  2  0  0  0  0
 23 21  2  0  0  0  0
 11  8  2  0  0  0  0
 23 22  1  0  0  0  0
 15 14  1  0  0  0  0
M  END
>  <IDNUMBER>
F0440-0388

>  <Chemical_Name>
4-(2,5-dioxopyrrolidin-1-yl)-2-[(2E)-1-methyl-2,3-dihydro-1H-1,3-benzodiazol-2-ylidene]-3-oxobutanenitrile

>  <PriceCoeff>
1.00

>  <CAS>
392325-04-1

>  <MW>
310.31

>  <Description>
solid

>  <FSP3>
0.25

>  <clogP>
0.89

>  <TPSA>
93.51

>  <Acceptor>
6

>  <Donor>
2

>  <RotBonds>
3

>  <HAC>
23

>  <Collection>
General

>  <PPDS>
+

$$$$
F0440-0389
  Mrv2219 10102508112D          

 35 38  0  0  0  0            999 V2000
   -2.2333   -1.9000    0.0000 N   0  0  0  0  0  0  0  0  0  0  0  0
    6.5000   -1.2000    0.0000 N   0  0  0  0  0  0  0  0  0  0  0  0
   -2.6333   -1.1667    0.0000 C   0  0  0  0  0  0  0  0  0  0  0  0
   -2.8000   -2.4875    0.0000 C   0  0  0  0  0  0  0  0  0  0  0  0
    7.2875   -1.3542    0.0000 C   0  0  0  0  0  0  0  0  0  0  0  0
    6.0792   -1.9042    0.0000 C   0  0  0  0  0  0  0  0  0  0  0  0
    5.2542   -0.4792    0.0000 C   0  0  0  0  0  0  0  0  0  0  0  0
   -1.0000   -2.6500    0.0000 C   0  0  0  0  0  0  0  0  0  0  0  0
    6.0792   -0.4792    0.0000 C   0  0  0  0  0  0  0  0  0  0  0  0
   -1.4208   -1.9167    0.0000 C   0  0  0  0  0  0  0  0  0  0  0  0
    4.8500    0.2333    0.0000 N   0  0  0  0  0  0  0  0  0  0  0  0
   -0.1500   -2.6500    0.0000 N   0  0  0  0  0  0  0  0  0  0  0  0
   -3.5458   -2.1292    0.0000 C   0  0  0  0  0  0  0  0  0  0  0  0
   -3.4333   -1.3167    0.0000 C   0  0  0  0  0  0  0  0  0  0  0  0
    7.3792   -2.1875    0.0000 C   0  0  0  0  0  0  0  0  0  0  0  0
    6.6292   -2.5042    0.0000 C   0  0  0  0  0  0  0  0  0  0  0  0
   -2.6833   -3.3375    0.0000 O   0  0  0  0  0  0  0  0  0  0  0  0
   -2.2458   -0.4000    0.0000 O   0  0  0  0  0  0  0  0  0  0  0  0
    7.9500   -0.8042    0.0000 O   0  0  0  0  0  0  0  0  0  0  0  0
    5.2292   -1.9875    0.0000 O   0  0  0  0  0  0  0  0  0  0  0  0
    4.8500   -1.2000    0.0000 O   0  0  0  0  0  0  0  0  0  0  0  0
   -1.4125   -3.3667    0.0000 O   0  0  0  0  0  0  0  0  0  0  0  0
    3.9875    0.2333    0.0000 C   0  0  0  0  0  0  0  0  0  0  0  0
    0.2500   -1.9042    0.0000 C   0  0  0  0  0  0  0  0  0  0  0  0
    1.0667   -0.4792    0.0000 C   0  0  0  0  0  0  0  0  0  0  0  0
    2.3375    0.2333    0.0000 C   0  0  0  0  0  0  0  0  0  0  0  0
    1.4875    0.2333    0.0000 C   0  0  0  0  0  0  0  0  0  0  0  0
    1.0667   -1.9042    0.0000 C   0  0  0  0  0  0  0  0  0  0  0  0
    3.5792   -0.4792    0.0000 C   0  0  0  0  0  0  0  0  0  0  0  0
    3.5792    0.9708    0.0000 C   0  0  0  0  0  0  0  0  0  0  0  0
   -0.1500   -1.2000    0.0000 C   0  0  0  0  0  0  0  0  0  0  0  0
    0.2500   -0.4792    0.0000 C   0  0  0  0  0  0  0  0  0  0  0  0
    1.4875   -1.2000    0.0000 C   0  0  0  0  0  0  0  0  0  0  0  0
    2.7500   -0.4792    0.0000 C   0  0  0  0  0  0  0  0  0  0  0  0
    2.7500    0.9708    0.0000 C   0  0  0  0  0  0  0  0  0  0  0  0
  2  9  1  0  0  0  0
  3  1  1  0  0  0  0
  4  1  1  0  0  0  0
  5  2  1  0  0  0  0
  6  2  1  0  0  0  0
  7 11  1  0  0  0  0
  8 10  1  0  0  0  0
  9  7  1  0  0  0  0
 10  1  1  0  0  0  0
 11 23  1  0  0  0  0
 12  8  1  0  0  0  0
 13  4  1  0  0  0  0
 14  3  1  0  0  0  0
 15  5  1  0  0  0  0
 16  6  1  0  0  0  0
 17  4  2  0  0  0  0
 18  3  2  0  0  0  0
 19  5  2  0  0  0  0
 20  6  2  0  0  0  0
 21  7  2  0  0  0  0
 22  8  2  0  0  0  0
 23 30  2  0  0  0  0
 24 12  1  0  0  0  0
 25 32  2  0  0  0  0
 26 27  1  0  0  0  0
 27 25  1  0  0  0  0
 28 24  1  0  0  0  0
 29 34  2  0  0  0  0
 30 35  1  0  0  0  0
 31 24  2  0  0  0  0
 32 31  1  0  0  0  0
 33 28  2  0  0  0  0
 34 26  1  0  0  0  0
 35 26  2  0  0  0  0
 14 13  1  0  0  0  0
 25 33  1  0  0  0  0
 23 29  1  0  0  0  0
 16 15  1  0  0  0  0
M  END
>  <IDNUMBER>
F0440-0389

>  <Chemical_Name>
2-(2,5-dioxopyrrolidin-1-yl)-N-[4-({4-[2-(2,5-dioxopyrrolidin-1-yl)acetamido]phenyl}methyl)phenyl]acetamide

>  <PriceCoeff>
1.00

>  <CAS>
476308-80-2

>  <MW>
476.48

>  <Description>
solid

>  <FSP3>
0.28

>  <clogP>
1.15

>  <TPSA>
132.96

>  <Acceptor>
6

>  <Donor>
2

>  <RotBonds>
8

>  <HAC>
35

>  <Collection>
General

>  <PPDS>
+

$$$$
F0440-0391
  Mrv2219 10102508112D          

 29 31  0  0  0  0            999 V2000
    2.3945    3.2018    0.0000 N   0  0  0  0  0  0  0  0  0  0  0  0
   -0.9566    1.4101    0.0000 C   0  0  0  0  0  0  0  0  0  0  0  0
   -1.5429    1.9908    0.0000 C   0  0  0  0  0  0  0  0  0  0  0  0
    1.4599    2.1511    0.0000 C   0  0  0  0  0  0  0  0  0  0  0  0
    2.2286    2.4055    0.0000 C   0  0  0  0  0  0  0  0  0  0  0  0
    0.8351    2.7152    0.0000 C   0  0  0  0  0  0  0  0  0  0  0  0
    1.8581    3.8488    0.0000 C   0  0  0  0  0  0  0  0  0  0  0  0
    3.1852    3.5115    0.0000 C   0  0  0  0  0  0  0  0  0  0  0  0
   -1.3272    2.7871    0.0000 C   0  0  0  0  0  0  0  0  0  0  0  0
   -0.1603    1.6202    0.0000 C   0  0  0  0  0  0  0  0  0  0  0  0
    0.0388    2.4719    0.0000 N   0  0  0  0  0  0  0  0  0  0  0  0
   -1.1945    0.6138    0.0000 C   0  0  0  0  0  0  0  0  0  0  0  0
   -1.8857    3.3788    0.0000 C   0  0  0  0  0  0  0  0  0  0  0  0
    1.2664    1.3438    0.0000 O   0  0  0  0  0  0  0  0  0  0  0  0
   -2.3392    1.7861    0.0000 O   0  0  0  0  0  0  0  0  0  0  0  0
    1.0176    3.5115    0.0000 O   0  0  0  0  0  0  0  0  0  0  0  0
    2.3282    4.5400    0.0000 C   0  0  0  0  0  0  0  0  0  0  0  0
    3.1189    4.3410    0.0000 C   0  0  0  0  0  0  0  0  0  0  0  0
    1.0341    4.0092    0.0000 O   0  0  0  0  0  0  0  0  0  0  0  0
    3.8544    3.0138    0.0000 O   0  0  0  0  0  0  0  0  0  0  0  0
    0.4037    1.0396    0.0000 C   0  0  0  0  0  0  0  0  0  0  0  0
   -0.6138    0.0276    0.0000 C   0  0  0  0  0  0  0  0  0  0  0  0
   -2.7373    3.1852    0.0000 Cl  0  0  0  0  0  0  0  0  0  0  0  0
    0.1715    0.2654    0.0000 C   0  0  0  0  0  0  0  0  0  0  0  0
   -0.8571   -0.7963    0.0000 Br  0  0  0  0  0  0  0  0  0  0  0  0
   -0.5309    3.0138    0.0000 C   0  0  0  0  0  0  0  0  0  0  0  0
   -1.6756    4.1751    0.0000 C   0  0  0  0  0  0  0  0  0  0  0  0
   -0.2930    3.7769    0.0000 C   0  0  0  0  0  0  0  0  0  0  0  0
   -0.8793    4.3797    0.0000 C   0  0  0  0  0  0  0  0  0  0  0  0
  2 10  2  0  0  0  0
  3  2  1  0  0  0  0
  4  5  1  0  0  0  0
  5  1  1  0  0  0  0
  6  4  1  0  0  0  0
  7  1  1  0  0  0  0
  8  1  1  0  0  0  0
  9  3  1  0  0  0  0
 10 11  1  0  0  0  0
 11  6  1  0  0  0  0
 12  2  1  0  0  0  0
 13  9  1  0  0  0  0
 14  4  2  0  0  0  0
 15  3  2  0  0  0  0
 16  6  2  0  0  0  0
 17  7  1  0  0  0  0
 18  8  1  0  0  0  0
 19  7  2  0  0  0  0
 20  8  2  0  0  0  0
 21 10  1  0  0  0  0
 22 24  1  0  0  0  0
 23 13  1  0  0  0  0
 24 21  2  0  0  0  0
 25 22  1  0  0  0  0
 26  9  2  0  0  0  0
 27 13  2  0  0  0  0
 28 26  1  0  0  0  0
 29 28  2  0  0  0  0
 18 17  1  0  0  0  0
 22 12  2  0  0  0  0
 29 27  1  0  0  0  0
M  END
>  <IDNUMBER>
F0440-0391

>  <Chemical_Name>
N-[4-bromo-2-(2-chlorobenzoyl)phenyl]-3-(2,5-dioxopyrrolidin-1-yl)-2-oxopropanamide

>  <PriceCoeff>
1.00

>  <CAS>
329903-17-5

>  <MW>
477.69

>  <Description>
solid

>  <FSP3>
0.15

>  <clogP>
2.73

>  <TPSA>
100.62

>  <Acceptor>
5

>  <Donor>
1

>  <RotBonds>
6

>  <HAC>
29

>  <Collection>
General

>  <PPDS>
+

$$$$
F0440-0406
  Mrv2219 10102508112D          

 18 19  0  0  0  0            999 V2000
   -1.0350    0.2942    0.0000 N   0  0  0  0  0  0  0  0  0  0  0  0
   -0.2615    0.6538    0.0000 C   0  0  0  0  0  0  0  0  0  0  0  0
   -0.9043   -0.5230    0.0000 C   0  0  0  0  0  0  0  0  0  0  0  0
   -1.8195    1.4927    0.0000 C   0  0  0  0  0  0  0  0  0  0  0  0
   -1.7542    0.6538    0.0000 C   0  0  0  0  0  0  0  0  0  0  0  0
   -2.5387    1.9176    0.0000 N   0  0  0  0  0  0  0  0  0  0  0  0
    0.2615    0.0544    0.0000 C   0  0  0  0  0  0  0  0  0  0  0  0
   -0.1198   -0.6538    0.0000 C   0  0  0  0  0  0  0  0  0  0  0  0
   -0.1634    1.5253    0.0000 O   0  0  0  0  0  0  0  0  0  0  0  0
   -1.5253   -1.0460    0.0000 O   0  0  0  0  0  0  0  0  0  0  0  0
   -1.1331    1.9613    0.0000 O   0  0  0  0  0  0  0  0  0  0  0  0
   -2.6040    2.7021    0.0000 C   0  0  0  0  0  0  0  0  0  0  0  0
   -2.7021    4.3692    0.0000 C   0  0  0  0  0  0  0  0  0  0  0  0
   -2.7458    5.2190    0.0000 Br  0  0  0  0  0  0  0  0  0  0  0  0
   -3.3232    3.1270    0.0000 C   0  0  0  0  0  0  0  0  0  0  0  0
   -1.9176    3.1707    0.0000 C   0  0  0  0  0  0  0  0  0  0  0  0
   -3.3885    3.9115    0.0000 C   0  0  0  0  0  0  0  0  0  0  0  0
   -1.9613    4.0096    0.0000 C   0  0  0  0  0  0  0  0  0  0  0  0
  2  1  1  0  0  0  0
  3  1  1  0  0  0  0
  4  5  1  0  0  0  0
  5  1  1  0  0  0  0
  6  4  1  0  0  0  0
  7  2  1  0  0  0  0
  8  3  1  0  0  0  0
  9  2  2  0  0  0  0
 10  3  2  0  0  0  0
 11  4  2  0  0  0  0
 12  6  1  0  0  0  0
 13 18  2  0  0  0  0
 14 13  1  0  0  0  0
 15 12  1  0  0  0  0
 16 12  2  0  0  0  0
 17 15  2  0  0  0  0
 18 16  1  0  0  0  0
  8  7  1  0  0  0  0
 13 17  1  0  0  0  0
M  END
>  <IDNUMBER>
F0440-0406

>  <Chemical_Name>
N-(4-bromophenyl)-2-(2,5-dioxopyrrolidin-1-yl)acetamide

>  <PriceCoeff>
1.00

>  <CAS>
476308-87-9

>  <MW>
311.13

>  <Description>
solid

>  <FSP3>
0.25

>  <clogP>
1.73

>  <TPSA>
66.48

>  <Acceptor>
3

>  <Donor>
1

>  <RotBonds>
3

>  <HAC>
18

>  <Collection>
General

>  <PPDS>
+

$$$$
F0440-0407
  Mrv2219 10102508112D          

 22 23  0  0  0  0            999 V2000
   -2.2568    0.2316    0.0000 N   0  0  0  0  0  0  0  0  0  0  0  0
   -1.4811    0.5944    0.0000 C   0  0  0  0  0  0  0  0  0  0  0  0
   -2.1661   -0.5542    0.0000 C   0  0  0  0  0  0  0  0  0  0  0  0
   -3.0226    1.4105    0.0000 C   0  0  0  0  0  0  0  0  0  0  0  0
   -2.9822    0.5944    0.0000 C   0  0  0  0  0  0  0  0  0  0  0  0
   -3.9494    5.1282    0.0000 C   0  0  0  0  0  0  0  0  0  0  0  0
   -3.7480    1.8034    0.0000 N   0  0  0  0  0  0  0  0  0  0  0  0
   -3.8991    4.2618    0.0000 C   0  0  0  0  0  0  0  0  0  0  0  0
   -0.9268    0.0000    0.0000 C   0  0  0  0  0  0  0  0  0  0  0  0
   -1.3299   -0.7254    0.0000 C   0  0  0  0  0  0  0  0  0  0  0  0
   -1.3602    1.4811    0.0000 O   0  0  0  0  0  0  0  0  0  0  0  0
   -2.8110   -1.0983    0.0000 O   0  0  0  0  0  0  0  0  0  0  0  0
   -2.3474    1.8438    0.0000 O   0  0  0  0  0  0  0  0  0  0  0  0
   -3.2644    5.5615    0.0000 O   0  0  0  0  0  0  0  0  0  0  0  0
   -4.6245    3.8285    0.0000 C   0  0  0  0  0  0  0  0  0  0  0  0
   -3.1737    3.8689    0.0000 C   0  0  0  0  0  0  0  0  0  0  0  0
   -3.7983    2.6195    0.0000 C   0  0  0  0  0  0  0  0  0  0  0  0
   -4.7152    5.5211    0.0000 O   0  0  0  0  0  0  0  0  0  0  0  0
   -3.1333    3.0528    0.0000 C   0  0  0  0  0  0  0  0  0  0  0  0
   -4.5841    3.0124    0.0000 C   0  0  0  0  0  0  0  0  0  0  0  0
   -4.7655    6.3372    0.0000 C   0  0  0  0  0  0  0  0  0  0  0  0
   -5.4909    6.7302    0.0000 C   0  0  0  0  0  0  0  0  0  0  0  0
  2  1  1  0  0  0  0
  3  1  1  0  0  0  0
  4  5  1  0  0  0  0
  5  1  1  0  0  0  0
  6  8  1  0  0  0  0
  7  4  1  0  0  0  0
  8 15  1  0  0  0  0
  9  2  1  0  0  0  0
 10  3  1  0  0  0  0
 11  2  2  0  0  0  0
 12  3  2  0  0  0  0
 13  4  2  0  0  0  0
 14  6  2  0  0  0  0
 15 20  2  0  0  0  0
 16 19  1  0  0  0  0
 17  7  1  0  0  0  0
 18  6  1  0  0  0  0
 19 17  2  0  0  0  0
 20 17  1  0  0  0  0
 21 18  1  0  0  0  0
 22 21  1  0  0  0  0
 10  9  1  0  0  0  0
  8 16  2  0  0  0  0
M  END
>  <IDNUMBER>
F0440-0407

>  <Chemical_Name>
ethyl 4-[2-(2,5-dioxopyrrolidin-1-yl)acetamido]benzoate

>  <PriceCoeff>
1.00

>  <CAS>
328003-82-3

>  <MW>
304.30

>  <Description>
solid

>  <FSP3>
0.33

>  <clogP>
1.58

>  <TPSA>
92.78

>  <Acceptor>
5

>  <Donor>
1

>  <RotBonds>
6

>  <HAC>
22

>  <Collection>
General

>  <PPDS>
+

$$$$
F0447-0399
  Mrv2219 10102508112D          

 34 37  0  0  0  0            999 V2000
   -4.6387    1.6498    0.0000 N   0  0  0  0  0  0  0  0  0  0  0  0
    4.4167    1.6182    0.0000 N   0  0  0  0  0  0  0  0  0  0  0  0
    4.1565    2.3797    0.0000 C   0  0  0  0  0  0  0  0  0  0  0  0
    5.2226    1.5927    0.0000 C   0  0  0  0  0  0  0  0  0  0  0  0
   -5.4256    1.8021    0.0000 C   0  0  0  0  0  0  0  0  0  0  0  0
   -4.2389    2.3797    0.0000 C   0  0  0  0  0  0  0  0  0  0  0  0
    3.1983    0.9138    0.0000 C   0  0  0  0  0  0  0  0  0  0  0  0
   -3.4203    0.9835    0.0000 C   0  0  0  0  0  0  0  0  0  0  0  0
   -4.2389    0.9455    0.0000 C   0  0  0  0  0  0  0  0  0  0  0  0
    3.9662    0.9138    0.0000 C   0  0  0  0  0  0  0  0  0  0  0  0
    2.7478    0.2221    0.0000 N   0  0  0  0  0  0  0  0  0  0  0  0
   -3.0015    0.2792    0.0000 N   0  0  0  0  0  0  0  0  0  0  0  0
    0.3046    0.2475    0.0000 C   0  0  0  0  0  0  0  0  0  0  0  0
   -0.5266    0.2475    0.0000 C   0  0  0  0  0  0  0  0  0  0  0  0
   -4.7910    2.9634    0.0000 C   0  0  0  0  0  0  0  0  0  0  0  0
    5.4827    2.3797    0.0000 C   0  0  0  0  0  0  0  0  0  0  0  0
   -5.5525    2.6207    0.0000 C   0  0  0  0  0  0  0  0  0  0  0  0
    4.8228    2.8366    0.0000 C   0  0  0  0  0  0  0  0  0  0  0  0
   -6.0094    1.2501    0.0000 O   0  0  0  0  0  0  0  0  0  0  0  0
   -3.4203    2.5065    0.0000 O   0  0  0  0  0  0  0  0  0  0  0  0
    3.3570    2.6843    0.0000 O   0  0  0  0  0  0  0  0  0  0  0  0
    5.7112    0.9138    0.0000 O   0  0  0  0  0  0  0  0  0  0  0  0
    2.7858    1.6498    0.0000 O   0  0  0  0  0  0  0  0  0  0  0  0
   -3.0015    1.6753    0.0000 O   0  0  0  0  0  0  0  0  0  0  0  0
   -0.9455   -0.4569    0.0000 C   0  0  0  0  0  0  0  0  0  0  0  0
    0.6853   -0.4633    0.0000 C   0  0  0  0  0  0  0  0  0  0  0  0
   -0.9138    0.9835    0.0000 C   0  0  0  0  0  0  0  0  0  0  0  0
    0.6853    0.9455    0.0000 C   0  0  0  0  0  0  0  0  0  0  0  0
    1.9292    0.2221    0.0000 C   0  0  0  0  0  0  0  0  0  0  0  0
   -2.1639    0.2792    0.0000 C   0  0  0  0  0  0  0  0  0  0  0  0
    1.5294    0.9138    0.0000 C   0  0  0  0  0  0  0  0  0  0  0  0
   -1.7705   -0.4569    0.0000 C   0  0  0  0  0  0  0  0  0  0  0  0
   -1.7450    0.9835    0.0000 C   0  0  0  0  0  0  0  0  0  0  0  0
    1.5230   -0.5014    0.0000 C   0  0  0  0  0  0  0  0  0  0  0  0
  2 10  1  0  0  0  0
  3  2  1  0  0  0  0
  4  2  1  0  0  0  0
  5  1  1  0  0  0  0
  6  1  1  0  0  0  0
  7 11  1  0  0  0  0
  8  9  1  0  0  0  0
  9  1  1  0  0  0  0
 10  7  1  0  0  0  0
 11 29  1  0  0  0  0
 12  8  1  0  0  0  0
 13 14  1  0  0  0  0
 14 27  2  0  0  0  0
 15  6  1  0  0  0  0
 16  4  1  0  0  0  0
 17  5  1  0  0  0  0
 18  3  1  0  0  0  0
 19  5  2  0  0  0  0
 20  6  2  0  0  0  0
 21  3  2  0  0  0  0
 22  4  2  0  0  0  0
 23  7  2  0  0  0  0
 24  8  2  0  0  0  0
 25 32  2  0  0  0  0
 26 13  2  0  0  0  0
 27 33  1  0  0  0  0
 28 13  1  0  0  0  0
 29 31  1  0  0  0  0
 30 12  1  0  0  0  0
 31 28  2  0  0  0  0
 32 30  1  0  0  0  0
 33 30  2  0  0  0  0
 34 26  1  0  0  0  0
 15 17  1  0  0  0  0
 14 25  1  0  0  0  0
 29 34  2  0  0  0  0
 18 16  1  0  0  0  0
M  END
>  <IDNUMBER>
F0447-0399

>  <Chemical_Name>
2-(2,5-dioxopyrrolidin-1-yl)-N-{4'-[2-(2,5-dioxopyrrolidin-1-yl)acetamido]-[1,1'-biphenyl]-4-yl}acetamide

>  <PriceCoeff>
1.00

>  <CAS>
476318-12-4

>  <MW>
462.45

>  <Description>
solid

>  <FSP3>
0.25

>  <clogP>
0.97

>  <TPSA>
132.96

>  <Acceptor>
6

>  <Donor>
2

>  <RotBonds>
7

>  <HAC>
34

>  <Collection>
General

>  <PPDS>
+

$$$$
F0451-0815
  Mrv2219 10102508112D          

 31 34  0  0  0  0            999 V2000
   -1.7875   -1.0215    0.0000 N   0  0  0  0  0  0  0  0  0  0  0  0
   -1.7024   -1.8386    0.0000 C   0  0  0  0  0  0  0  0  0  0  0  0
   -2.4968   -2.1791    0.0000 N   0  0  0  0  0  0  0  0  0  0  0  0
   -2.9905   -1.5662    0.0000 C   0  0  0  0  0  0  0  0  0  0  0  0
   -2.5820   -0.8229    0.0000 C   0  0  0  0  0  0  0  0  0  0  0  0
   -1.0215   -2.3153    0.0000 C   0  0  0  0  0  0  0  0  0  0  0  0
   -1.2428   -0.4143    0.0000 C   0  0  0  0  0  0  0  0  0  0  0  0
   -3.8304   -1.6400    0.0000 C   0  0  0  0  0  0  0  0  0  0  0  0
   -1.4584    0.3575    0.0000 C   0  0  0  0  0  0  0  0  0  0  0  0
   -0.4256   -0.6129    0.0000 C   0  0  0  0  0  0  0  0  0  0  0  0
   -1.1066   -3.1382    0.0000 C   0  0  0  0  0  0  0  0  0  0  0  0
   -2.9282   -0.0681    0.0000 O   0  0  0  0  0  0  0  0  0  0  0  0
   -4.8121   -3.9496    0.0000 C   0  0  0  0  0  0  0  0  0  0  0  0
   -0.8853    0.9534    0.0000 C   0  0  0  0  0  0  0  0  0  0  0  0
   -5.1243   -4.6987    0.0000 N   0  0  0  0  0  0  0  0  0  0  0  0
   -4.1539   -2.4061    0.0000 C   0  0  0  0  0  0  0  0  0  0  0  0
   -3.9950   -3.8191    0.0000 C   0  0  0  0  0  0  0  0  0  0  0  0
   -5.3058   -3.2744    0.0000 C   0  0  0  0  0  0  0  0  0  0  0  0
    0.1079   -0.0057    0.0000 C   0  0  0  0  0  0  0  0  0  0  0  0
   -0.1305    0.7433    0.0000 C   0  0  0  0  0  0  0  0  0  0  0  0
   -1.8329   -3.4787    0.0000 F   0  0  0  0  0  0  0  0  0  0  0  0
   -0.2894   -1.9465    0.0000 C   0  0  0  0  0  0  0  0  0  0  0  0
   -3.6715   -3.0644    0.0000 C   0  0  0  0  0  0  0  0  0  0  0  0
   -4.9711   -2.5196    0.0000 C   0  0  0  0  0  0  0  0  0  0  0  0
   -2.2472    0.5448    0.0000 C   0  0  0  0  0  0  0  0  0  0  0  0
   -5.9244   -4.7668    0.0000 C   0  0  0  0  0  0  0  0  0  0  0  0
   -4.6306   -5.3343    0.0000 C   0  0  0  0  0  0  0  0  0  0  0  0
   -0.4029   -3.6091    0.0000 C   0  0  0  0  0  0  0  0  0  0  0  0
    0.4086    1.3109    0.0000 C   0  0  0  0  0  0  0  0  0  0  0  0
    0.3803   -2.4061    0.0000 C   0  0  0  0  0  0  0  0  0  0  0  0
    0.3405   -3.2233    0.0000 C   0  0  0  0  0  0  0  0  0  0  0  0
  2  1  1  0  0  0  0
  3  2  2  0  0  0  0
  4  5  1  0  0  0  0
  5  1  1  0  0  0  0
  6  2  1  0  0  0  0
  7  1  1  0  0  0  0
  8  4  2  0  0  0  0
  9  7  2  0  0  0  0
 10  7  1  0  0  0  0
 11  6  1  0  0  0  0
 12  5  2  0  0  0  0
 13 18  1  0  0  0  0
 14  9  1  0  0  0  0
 15 13  1  0  0  0  0
 16  8  1  0  0  0  0
 17 23  1  0  0  0  0
 18 24  2  0  0  0  0
 19 10  2  0  0  0  0
 20 19  1  0  0  0  0
 21 11  1  0  0  0  0
 22  6  2  0  0  0  0
 23 16  2  0  0  0  0
 24 16  1  0  0  0  0
 25  9  1  0  0  0  0
 26 15  1  0  0  0  0
 27 15  1  0  0  0  0
 28 11  2  0  0  0  0
 29 20  1  0  0  0  0
 30 22  1  0  0  0  0
 31 30  2  0  0  0  0
  3  4  1  0  0  0  0
 20 14  2  0  0  0  0
 31 28  1  0  0  0  0
 13 17  2  0  0  0  0
M  END
>  <IDNUMBER>
F0451-0815

>  <Chemical_Name>
(4Z)-4-{[4-(dimethylamino)phenyl]methylidene}-1-(2,4-dimethylphenyl)-2-(2-fluorophenyl)-4,5-dihydro-1H-imidazol-5-one

>  <PriceCoeff>
1.00

>  <CAS>
1322305-10-1

>  <MW>
413.49

>  <Description>
solid

>  <FSP3>
0.15

>  <clogP>
5.81

>  <TPSA>
35.91

>  <Acceptor>
3

>  <Donor>
1

>  <RotBonds>
4

>  <HAC>
31

>  <Collection>
General

>  <PPDS>
+

$$$$
F0452-5570
  Mrv2219 10102508112D          

 32 35  0  0  0  0            999 V2000
   -0.7443   -1.0279    0.0000 C   0  0  0  0  0  0  0  0  0  0  0  0
   -0.7443   -0.2127    0.0000 N   0  0  0  0  0  0  0  0  0  0  0  0
   -1.4709    0.1816    0.0000 C   0  0  0  0  0  0  0  0  0  0  0  0
    0.0000   -1.2760    0.0000 C   0  0  0  0  0  0  0  0  0  0  0  0
    0.4785   -0.5893    0.0000 C   0  0  0  0  0  0  0  0  0  0  0  0
    0.0000    0.0133    0.0000 N   0  0  0  0  0  0  0  0  0  0  0  0
   -1.4709   -1.4355    0.0000 N   0  0  0  0  0  0  0  0  0  0  0  0
   -2.1932   -0.2171    0.0000 C   0  0  0  0  0  0  0  0  0  0  0  0
   -2.1932   -1.0102    0.0000 C   0  0  0  0  0  0  0  0  0  0  0  0
    1.2760   -0.5893    0.0000 C   0  0  0  0  0  0  0  0  0  0  0  0
   -1.4709    1.0235    0.0000 C   0  0  0  0  0  0  0  0  0  0  0  0
   -2.9242   -1.4355    0.0000 C   0  0  0  0  0  0  0  0  0  0  0  0
    1.7058    0.1019    0.0000 N   0  0  0  0  0  0  0  0  0  0  0  0
   -3.0306   -2.2375    0.0000 S   0  0  0  0  0  0  0  0  0  0  0  0
    2.9287    0.8196    0.0000 C   0  0  0  0  0  0  0  0  0  0  0  0
    3.7749    0.8196    0.0000 C   0  0  0  0  0  0  0  0  0  0  0  0
    2.5166    0.1019    0.0000 C   0  0  0  0  0  0  0  0  0  0  0  0
    0.2658   -2.0735    0.0000 Cl  0  0  0  0  0  0  0  0  0  0  0  0
    1.7058   -1.3292    0.0000 O   0  0  0  0  0  0  0  0  0  0  0  0
   -3.6686   -1.0634    0.0000 C   0  0  0  0  0  0  0  0  0  0  0  0
    4.2003    0.1019    0.0000 C   0  0  0  0  0  0  0  0  0  0  0  0
   -3.8414   -2.3925    0.0000 C   0  0  0  0  0  0  0  0  0  0  0  0
   -4.2224   -1.6660    0.0000 C   0  0  0  0  0  0  0  0  0  0  0  0
   -2.2817    1.0235    0.0000 F   0  0  0  0  0  0  0  0  0  0  0  0
   -1.4709    1.8298    0.0000 F   0  0  0  0  0  0  0  0  0  0  0  0
   -0.6335    1.0235    0.0000 F   0  0  0  0  0  0  0  0  0  0  0  0
    3.7749   -0.5893    0.0000 C   0  0  0  0  0  0  0  0  0  0  0  0
    2.9774   -0.5893    0.0000 C   0  0  0  0  0  0  0  0  0  0  0  0
    4.1648    1.5374    0.0000 O   0  0  0  0  0  0  0  0  0  0  0  0
    4.9978    0.1019    0.0000 O   0  0  0  0  0  0  0  0  0  0  0  0
    3.7749    2.2330    0.0000 C   0  0  0  0  0  0  0  0  0  0  0  0
    5.4231   -0.5893    0.0000 C   0  0  0  0  0  0  0  0  0  0  0  0
  2  1  1  0  0  0  0
  3  2  1  0  0  0  0
  4  1  2  0  0  0  0
  5  4  1  0  0  0  0
  6  2  1  0  0  0  0
  7  1  1  0  0  0  0
  8  9  1  0  0  0  0
  9  7  2  0  0  0  0
 10  5  1  0  0  0  0
 11  3  1  0  0  0  0
 12  9  1  0  0  0  0
 13 10  1  0  0  0  0
 14 12  1  0  0  0  0
 15 17  2  0  0  0  0
 16 15  1  0  0  0  0
 17 13  1  0  0  0  0
 18  4  1  0  0  0  0
 19 10  2  0  0  0  0
 20 12  2  0  0  0  0
 21 27  1  0  0  0  0
 22 14  1  0  0  0  0
 23 20  1  0  0  0  0
 24 11  1  0  0  0  0
 25 11  1  0  0  0  0
 26 11  1  0  0  0  0
 27 28  2  0  0  0  0
 28 17  1  0  0  0  0
 29 16  1  0  0  0  0
 30 21  1  0  0  0  0
 31 29  1  0  0  0  0
 32 30  1  0  0  0  0
  6  5  2  0  0  0  0
  8  3  2  0  0  0  0
 22 23  2  0  0  0  0
 21 16  2  0  0  0  0
M  END
>  <IDNUMBER>
F0452-5570

>  <Chemical_Name>
3-chloro-N-(3,4-dimethoxyphenyl)-5-(thiophen-2-yl)-7-(trifluoromethyl)pyrazolo[1,5-a]pyrimidine-2-carboxamide

>  <PriceCoeff>
1.00

>  <CAS>
313247-38-0

>  <MW>
482.86

>  <Description>
solid

>  <FSP3>
0.15

>  <clogP>
3.77

>  <TPSA>
105.99

>  <Acceptor>
5

>  <Donor>
1

>  <RotBonds>
5

>  <HAC>
32

>  <Collection>
General

>  <PPDS>
+

$$$$
F0466-0001
  Mrv2219 10102508112D          

 27 30  0  0  0  0            999 V2000
   -2.7439   -0.1467    0.0000 C   0  0  0  0  0  0  0  0  0  0  0  0
   -3.9745   -2.3617    0.0000 N   0  0  0  0  0  0  0  0  0  0  0  0
   -3.2205   -0.8222    0.0000 N   0  0  0  0  0  0  0  0  0  0  0  0
   -1.9113   -0.1467    0.0000 N   0  0  0  0  0  0  0  0  0  0  0  0
   -3.2205    0.4974    0.0000 S   0  0  0  0  0  0  0  0  0  0  0  0
   -3.1419   -2.3303    0.0000 C   0  0  0  0  0  0  0  0  0  0  0  0
   -1.4871   -0.8797    0.0000 C   0  0  0  0  0  0  0  0  0  0  0  0
   -4.3987   -1.6548    0.0000 C   0  0  0  0  0  0  0  0  0  0  0  0
   -4.5243   -2.9901    0.0000 C   0  0  0  0  0  0  0  0  0  0  0  0
   -4.0007    0.2461    0.0000 C   0  0  0  0  0  0  0  0  0  0  0  0
   -4.0007   -0.5708    0.0000 C   0  0  0  0  0  0  0  0  0  0  0  0
   -2.7439   -1.6077    0.0000 C   0  0  0  0  0  0  0  0  0  0  0  0
   -1.9113   -1.6077    0.0000 C   0  0  0  0  0  0  0  0  0  0  0  0
   -4.7076    0.6702    0.0000 C   0  0  0  0  0  0  0  0  0  0  0  0
   -0.6859   -0.8797    0.0000 O   0  0  0  0  0  0  0  0  0  0  0  0
   -5.2888   -2.6602    0.0000 C   0  0  0  0  0  0  0  0  0  0  0  0
   -5.2103   -1.8590    0.0000 C   0  0  0  0  0  0  0  0  0  0  0  0
   -4.0792   -0.8797    0.0000 O   0  0  0  0  0  0  0  0  0  0  0  0
   -4.3777   -3.8331    0.0000 O   0  0  0  0  0  0  0  0  0  0  0  0
   -4.7076   -1.0054    0.0000 C   0  0  0  0  0  0  0  0  0  0  0  0
   -5.4041    0.2461    0.0000 C   0  0  0  0  0  0  0  0  0  0  0  0
   -5.4041   -0.5708    0.0000 C   0  0  0  0  0  0  0  0  0  0  0  0
   -2.7178   -3.0372    0.0000 C   0  0  0  0  0  0  0  0  0  0  0  0
   -6.1686    0.6702    0.0000 O   0  0  0  0  0  0  0  0  0  0  0  0
   -1.4871   -2.3250    0.0000 C   0  0  0  0  0  0  0  0  0  0  0  0
   -1.8851   -3.0162    0.0000 C   0  0  0  0  0  0  0  0  0  0  0  0
   -6.1686    1.5028    0.0000 C   0  0  0  0  0  0  0  0  0  0  0  0
  2  6  1  0  0  0  0
  3  1  2  0  0  0  0
  4  1  1  0  0  0  0
  5  1  1  0  0  0  0
  6 12  2  0  0  0  0
  7  4  1  0  0  0  0
  8  2  1  0  0  0  0
  9  2  1  0  0  0  0
 10  5  1  0  0  0  0
 11  3  1  0  0  0  0
 12 13  1  0  0  0  0
 13  7  1  0  0  0  0
 14 10  1  0  0  0  0
 15  7  2  0  0  0  0
 16  9  1  0  0  0  0
 17  8  1  0  0  0  0
 18  8  2  0  0  0  0
 19  9  2  0  0  0  0
 20 11  1  0  0  0  0
 21 14  2  0  0  0  0
 22 20  2  0  0  0  0
 23 26  2  0  0  0  0
 24 21  1  0  0  0  0
 25 13  2  0  0  0  0
 26 25  1  0  0  0  0
 27 24  1  0  0  0  0
 10 11  2  0  0  0  0
 22 21  1  0  0  0  0
 23  6  1  0  0  0  0
 17 16  1  0  0  0  0
M  END
>  <IDNUMBER>
F0466-0001

>  <Chemical_Name>
3-(2,5-dioxopyrrolidin-1-yl)-N-(6-methoxy-1,3-benzothiazol-2-yl)benzamide

>  <PriceCoeff>
1.00

>  <CAS>
476321-51-4

>  <MW>
381.41

>  <Description>
solid

>  <FSP3>
0.16

>  <clogP>
1.92

>  <TPSA>
116.84

>  <Acceptor>
5

>  <Donor>
1

>  <RotBonds>
4

>  <HAC>
27

>  <Collection>
General

>  <PPDS>
+

$$$$
F0466-0002
  Mrv2219 10102508112D          

 28 31  0  0  0  0            999 V2000
   -2.5200   -0.5271    0.0000 C   0  0  0  0  0  0  0  0  0  0  0  0
   -3.8156   -2.5914    0.0000 N   0  0  0  0  0  0  0  0  0  0  0  0
   -2.9921   -1.1859    0.0000 N   0  0  0  0  0  0  0  0  0  0  0  0
   -1.7074   -0.5655    0.0000 N   0  0  0  0  0  0  0  0  0  0  0  0
   -2.9921    0.1592    0.0000 S   0  0  0  0  0  0  0  0  0  0  0  0
   -2.9921   -2.6408    0.0000 C   0  0  0  0  0  0  0  0  0  0  0  0
   -1.3121   -1.2738    0.0000 C   0  0  0  0  0  0  0  0  0  0  0  0
   -4.1779   -1.8502    0.0000 C   0  0  0  0  0  0  0  0  0  0  0  0
   -4.4141   -3.1623    0.0000 C   0  0  0  0  0  0  0  0  0  0  0  0
   -3.7827   -0.0879    0.0000 C   0  0  0  0  0  0  0  0  0  0  0  0
   -3.7827   -0.9223    0.0000 C   0  0  0  0  0  0  0  0  0  0  0  0
   -2.5694   -1.9326    0.0000 C   0  0  0  0  0  0  0  0  0  0  0  0
   -1.7568   -1.9820    0.0000 C   0  0  0  0  0  0  0  0  0  0  0  0
   -4.4964    0.3239    0.0000 C   0  0  0  0  0  0  0  0  0  0  0  0
   -0.4886   -1.3232    0.0000 O   0  0  0  0  0  0  0  0  0  0  0  0
   -5.1003   -2.7726    0.0000 C   0  0  0  0  0  0  0  0  0  0  0  0
   -5.0015   -1.9764    0.0000 C   0  0  0  0  0  0  0  0  0  0  0  0
   -3.8156   -1.0926    0.0000 O   0  0  0  0  0  0  0  0  0  0  0  0
   -4.3097   -3.9914    0.0000 O   0  0  0  0  0  0  0  0  0  0  0  0
   -4.4964   -1.3232    0.0000 C   0  0  0  0  0  0  0  0  0  0  0  0
   -5.2156   -0.0879    0.0000 C   0  0  0  0  0  0  0  0  0  0  0  0
   -5.2156   -0.9223    0.0000 C   0  0  0  0  0  0  0  0  0  0  0  0
   -2.6297   -3.3820    0.0000 C   0  0  0  0  0  0  0  0  0  0  0  0
   -5.9238    0.3459    0.0000 O   0  0  0  0  0  0  0  0  0  0  0  0
   -1.3615   -2.7231    0.0000 C   0  0  0  0  0  0  0  0  0  0  0  0
   -1.8062   -3.4258    0.0000 C   0  0  0  0  0  0  0  0  0  0  0  0
   -5.9238    1.1639    0.0000 C   0  0  0  0  0  0  0  0  0  0  0  0
   -6.6320    1.5592    0.0000 C   0  0  0  0  0  0  0  0  0  0  0  0
  2  6  1  0  0  0  0
  3  1  2  0  0  0  0
  4  1  1  0  0  0  0
  5  1  1  0  0  0  0
  6 12  2  0  0  0  0
  7  4  1  0  0  0  0
  8  2  1  0  0  0  0
  9  2  1  0  0  0  0
 10  5  1  0  0  0  0
 11  3  1  0  0  0  0
 12 13  1  0  0  0  0
 13  7  1  0  0  0  0
 14 10  1  0  0  0  0
 15  7  2  0  0  0  0
 16  9  1  0  0  0  0
 17  8  1  0  0  0  0
 18  8  2  0  0  0  0
 19  9  2  0  0  0  0
 20 11  1  0  0  0  0
 21 14  2  0  0  0  0
 22 20  2  0  0  0  0
 23 26  2  0  0  0  0
 24 21  1  0  0  0  0
 25 13  2  0  0  0  0
 26 25  1  0  0  0  0
 27 24  1  0  0  0  0
 28 27  1  0  0  0  0
 11 10  2  0  0  0  0
 21 22  1  0  0  0  0
  6 23  1  0  0  0  0
 17 16  1  0  0  0  0
M  END
>  <IDNUMBER>
F0466-0002

>  <Chemical_Name>
3-(2,5-dioxopyrrolidin-1-yl)-N-(6-ethoxy-1,3-benzothiazol-2-yl)benzamide

>  <PriceCoeff>
1.00

>  <CAS>
476321-52-5

>  <MW>
395.43

>  <Description>
solid

>  <FSP3>
0.20

>  <clogP>
2.45

>  <TPSA>
116.84

>  <Acceptor>
5

>  <Donor>
1

>  <RotBonds>
5

>  <HAC>
28

>  <Collection>
General

>  <PPDS>
+

$$$$
F0466-0005
  Mrv2219 10102508112D          

 29 32  0  0  0  0            999 V2000
   -2.5286   -0.6208    0.0000 C   0  0  0  0  0  0  0  0  0  0  0  0
   -5.9455    0.2334    0.0000 S   0  0  0  0  0  0  0  0  0  0  0  0
   -3.8213   -2.7052    0.0000 N   0  0  0  0  0  0  0  0  0  0  0  0
   -3.0012   -1.2985    0.0000 N   0  0  0  0  0  0  0  0  0  0  0  0
   -1.6857   -0.6834    0.0000 N   0  0  0  0  0  0  0  0  0  0  0  0
   -3.0012    0.0455    0.0000 S   0  0  0  0  0  0  0  0  0  0  0  0
   -3.0012   -2.7564    0.0000 C   0  0  0  0  0  0  0  0  0  0  0  0
   -1.2985   -1.3896    0.0000 C   0  0  0  0  0  0  0  0  0  0  0  0
   -3.7871   -0.2050    0.0000 C   0  0  0  0  0  0  0  0  0  0  0  0
   -4.1687   -1.9818    0.0000 C   0  0  0  0  0  0  0  0  0  0  0  0
   -4.4193   -3.2519    0.0000 C   0  0  0  0  0  0  0  0  0  0  0  0
   -5.2109   -0.2050    0.0000 C   0  0  0  0  0  0  0  0  0  0  0  0
   -3.7871   -1.0308    0.0000 C   0  0  0  0  0  0  0  0  0  0  0  0
   -4.5047    0.2050    0.0000 C   0  0  0  0  0  0  0  0  0  0  0  0
   -2.5570   -2.0730    0.0000 C   0  0  0  0  0  0  0  0  0  0  0  0
   -1.7369   -2.1185    0.0000 C   0  0  0  0  0  0  0  0  0  0  0  0
   -6.3669   -0.5183    0.0000 O   0  0  0  0  0  0  0  0  0  0  0  0
   -5.5127    0.9738    0.0000 O   0  0  0  0  0  0  0  0  0  0  0  0
   -6.6915    0.6435    0.0000 N   0  0  0  0  0  0  0  0  0  0  0  0
   -0.4784   -1.4409    0.0000 O   0  0  0  0  0  0  0  0  0  0  0  0
   -4.9888   -2.0730    0.0000 C   0  0  0  0  0  0  0  0  0  0  0  0
   -5.1255   -2.8418    0.0000 C   0  0  0  0  0  0  0  0  0  0  0  0
   -4.3680   -4.0719    0.0000 O   0  0  0  0  0  0  0  0  0  0  0  0
   -3.7871   -1.2301    0.0000 O   0  0  0  0  0  0  0  0  0  0  0  0
   -5.2109   -1.0308    0.0000 C   0  0  0  0  0  0  0  0  0  0  0  0
   -4.5047   -1.4409    0.0000 C   0  0  0  0  0  0  0  0  0  0  0  0
   -2.6140   -3.5252    0.0000 C   0  0  0  0  0  0  0  0  0  0  0  0
   -1.3611   -2.8418    0.0000 C   0  0  0  0  0  0  0  0  0  0  0  0
   -1.7939   -3.5537    0.0000 C   0  0  0  0  0  0  0  0  0  0  0  0
  2 12  1  0  0  0  0
  3  7  1  0  0  0  0
  4  1  2  0  0  0  0
  5  1  1  0  0  0  0
  6  1  1  0  0  0  0
  7 15  2  0  0  0  0
  8  5  1  0  0  0  0
  9  6  1  0  0  0  0
 10  3  1  0  0  0  0
 11  3  1  0  0  0  0
 12 14  2  0  0  0  0
 13  4  1  0  0  0  0
 14  9  1  0  0  0  0
 15 16  1  0  0  0  0
 16  8  1  0  0  0  0
 17  2  2  0  0  0  0
 18  2  2  0  0  0  0
 19  2  1  0  0  0  0
 20  8  2  0  0  0  0
 21 10  1  0  0  0  0
 22 11  1  0  0  0  0
 23 11  2  0  0  0  0
 24 10  2  0  0  0  0
 25 26  2  0  0  0  0
 26 13  1  0  0  0  0
 27 29  2  0  0  0  0
 28 16  2  0  0  0  0
 29 28  1  0  0  0  0
  9 13  2  0  0  0  0
 25 12  1  0  0  0  0
 27  7  1  0  0  0  0
 21 22  1  0  0  0  0
M  END
>  <IDNUMBER>
F0466-0005

>  <Chemical_Name>
3-(2,5-dioxopyrrolidin-1-yl)-N-(6-sulfamoyl-1,3-benzothiazol-2-yl)benzamide

>  <PriceCoeff>
1.00

>  <CAS>
476321-54-7

>  <MW>
430.46

>  <Description>
solid

>  <FSP3>
0.11

>  <clogP>
0.45

>  <TPSA>
176.15

>  <Acceptor>
6

>  <Donor>
2

>  <RotBonds>
4

>  <HAC>
29

>  <Collection>
General

>  <PPDS>
+

$$$$
F0466-0008
  Mrv2219 10102508112D          

 29 33  0  0  0  0            999 V2000
   -4.0848   -1.4437    0.0000 C   0  0  0  0  0  0  0  0  0  0  0  0
   -0.3723   -2.1714    0.0000 N   0  0  0  0  0  0  0  0  0  0  0  0
   -4.5547   -2.0625    0.0000 N   0  0  0  0  0  0  0  0  0  0  0  0
   -3.2598   -1.4437    0.0000 N   0  0  0  0  0  0  0  0  0  0  0  0
   -4.5547   -0.7563    0.0000 S   0  0  0  0  0  0  0  0  0  0  0  0
   -5.3567   -0.9855    0.0000 C   0  0  0  0  0  0  0  0  0  0  0  0
   -0.7848   -1.4839    0.0000 C   0  0  0  0  0  0  0  0  0  0  0  0
   -2.8474   -0.7105    0.0000 C   0  0  0  0  0  0  0  0  0  0  0  0
   -5.3223   -1.8105    0.0000 C   0  0  0  0  0  0  0  0  0  0  0  0
   -0.7848   -2.8875    0.0000 C   0  0  0  0  0  0  0  0  0  0  0  0
    0.4125   -2.3375    0.0000 C   0  0  0  0  0  0  0  0  0  0  0  0
   -6.0672   -0.5730    0.0000 C   0  0  0  0  0  0  0  0  0  0  0  0
   -1.6098   -1.4495    0.0000 C   0  0  0  0  0  0  0  0  0  0  0  0
   -2.0223   -0.7563    0.0000 C   0  0  0  0  0  0  0  0  0  0  0  0
   -3.2598    0.0000    0.0000 O   0  0  0  0  0  0  0  0  0  0  0  0
    0.4870   -3.1339    0.0000 C   0  0  0  0  0  0  0  0  0  0  0  0
   -0.2348   -3.5062    0.0000 C   0  0  0  0  0  0  0  0  0  0  0  0
   -1.6098   -2.9620    0.0000 O   0  0  0  0  0  0  0  0  0  0  0  0
    1.0370   -1.7875    0.0000 O   0  0  0  0  0  0  0  0  0  0  0  0
   -6.0672   -2.2230    0.0000 C   0  0  0  0  0  0  0  0  0  0  0  0
   -6.7547   -0.9855    0.0000 C   0  0  0  0  0  0  0  0  0  0  0  0
   -6.7547   -1.8105    0.0000 C   0  0  0  0  0  0  0  0  0  0  0  0
   -0.3723   -0.7563    0.0000 C   0  0  0  0  0  0  0  0  0  0  0  0
   -1.6098   -0.0230    0.0000 C   0  0  0  0  0  0  0  0  0  0  0  0
   -6.0672    0.2348    0.0000 C   0  0  0  0  0  0  0  0  0  0  0  0
   -0.7848   -0.0230    0.0000 C   0  0  0  0  0  0  0  0  0  0  0  0
   -7.4708   -0.5730    0.0000 C   0  0  0  0  0  0  0  0  0  0  0  0
   -6.7547    0.6473    0.0000 C   0  0  0  0  0  0  0  0  0  0  0  0
   -7.5052    0.2348    0.0000 C   0  0  0  0  0  0  0  0  0  0  0  0
  2  7  1  0  0  0  0
  3  1  2  0  0  0  0
  4  1  1  0  0  0  0
  5  1  1  0  0  0  0
  6  5  1  0  0  0  0
  7 13  2  0  0  0  0
  8  4  1  0  0  0  0
  9  3  1  0  0  0  0
 10  2  1  0  0  0  0
 11  2  1  0  0  0  0
 12  6  1  0  0  0  0
 13 14  1  0  0  0  0
 14  8  1  0  0  0  0
 15  8  2  0  0  0  0
 16 11  1  0  0  0  0
 17 10  1  0  0  0  0
 18 10  2  0  0  0  0
 19 11  2  0  0  0  0
 20  9  1  0  0  0  0
 21 12  2  0  0  0  0
 22 20  2  0  0  0  0
 23 26  2  0  0  0  0
 24 14  2  0  0  0  0
 25 12  1  0  0  0  0
 26 24  1  0  0  0  0
 27 21  1  0  0  0  0
 28 25  2  0  0  0  0
 29 28  1  0  0  0  0
  6  9  2  0  0  0  0
 22 21  1  0  0  0  0
 29 27  2  0  0  0  0
 23  7  1  0  0  0  0
 17 16  1  0  0  0  0
M  END
>  <IDNUMBER>
F0466-0008

>  <Chemical_Name>
3-(2,5-dioxopyrrolidin-1-yl)-N-{naphtho[2,1-d][1,3]thiazol-2-yl}benzamide

>  <PriceCoeff>
1.00

>  <CAS>
476321-57-0

>  <MW>
401.44

>  <Description>
solid

>  <FSP3>
0.09

>  <clogP>
2.80

>  <TPSA>
107.61

>  <Acceptor>
4

>  <Donor>
1

>  <RotBonds>
3

>  <HAC>
29

>  <Collection>
General

>  <PPDS>
+

$$$$
F0466-0009
  Mrv2219 10102508112D          

 25 28  0  0  0  0            999 V2000
   -2.5788   -0.5478    0.0000 C   0  0  0  0  0  0  0  0  0  0  0  0
   -3.7828   -2.6702    0.0000 N   0  0  0  0  0  0  0  0  0  0  0  0
   -3.0410   -1.2324    0.0000 N   0  0  0  0  0  0  0  0  0  0  0  0
   -1.7288   -0.5022    0.0000 N   0  0  0  0  0  0  0  0  0  0  0  0
   -3.0410    0.1141    0.0000 S   0  0  0  0  0  0  0  0  0  0  0  0
   -2.9383   -2.6417    0.0000 C   0  0  0  0  0  0  0  0  0  0  0  0
   -1.2951   -1.1868    0.0000 C   0  0  0  0  0  0  0  0  0  0  0  0
   -4.1936   -1.9571    0.0000 C   0  0  0  0  0  0  0  0  0  0  0  0
   -4.3305   -3.2864    0.0000 C   0  0  0  0  0  0  0  0  0  0  0  0
   -3.8342   -0.9642    0.0000 C   0  0  0  0  0  0  0  0  0  0  0  0
   -3.8342   -0.1427    0.0000 C   0  0  0  0  0  0  0  0  0  0  0  0
   -2.5275   -1.9228    0.0000 C   0  0  0  0  0  0  0  0  0  0  0  0
   -1.7059   -1.9228    0.0000 C   0  0  0  0  0  0  0  0  0  0  0  0
   -0.4735   -1.1639    0.0000 O   0  0  0  0  0  0  0  0  0  0  0  0
   -5.0666   -2.9441    0.0000 C   0  0  0  0  0  0  0  0  0  0  0  0
   -4.9923   -2.1225    0.0000 C   0  0  0  0  0  0  0  0  0  0  0  0
   -3.8342   -1.1639    0.0000 O   0  0  0  0  0  0  0  0  0  0  0  0
   -4.1936   -4.1137    0.0000 O   0  0  0  0  0  0  0  0  0  0  0  0
   -2.4648   -3.3778    0.0000 C   0  0  0  0  0  0  0  0  0  0  0  0
   -1.2609   -2.6417    0.0000 C   0  0  0  0  0  0  0  0  0  0  0  0
   -1.6432   -3.3549    0.0000 C   0  0  0  0  0  0  0  0  0  0  0  0
   -4.5473   -1.3751    0.0000 C   0  0  0  0  0  0  0  0  0  0  0  0
   -4.5473    0.2739    0.0000 C   0  0  0  0  0  0  0  0  0  0  0  0
   -5.2662   -0.1427    0.0000 C   0  0  0  0  0  0  0  0  0  0  0  0
   -5.2662   -0.9642    0.0000 C   0  0  0  0  0  0  0  0  0  0  0  0
  2  6  1  0  0  0  0
  3  1  2  0  0  0  0
  4  1  1  0  0  0  0
  5  1  1  0  0  0  0
  6 12  2  0  0  0  0
  7  4  1  0  0  0  0
  8  2  1  0  0  0  0
  9  2  1  0  0  0  0
 10  3  1  0  0  0  0
 11  5  1  0  0  0  0
 12 13  1  0  0  0  0
 13  7  1  0  0  0  0
 14  7  2  0  0  0  0
 15  9  1  0  0  0  0
 16  8  1  0  0  0  0
 17  8  2  0  0  0  0
 18  9  2  0  0  0  0
 19 21  2  0  0  0  0
 20 13  2  0  0  0  0
 21 20  1  0  0  0  0
 22 10  1  0  0  0  0
 23 11  1  0  0  0  0
 24 23  2  0  0  0  0
 25 22  2  0  0  0  0
 10 11  2  0  0  0  0
 24 25  1  0  0  0  0
  6 19  1  0  0  0  0
 16 15  1  0  0  0  0
M  END
>  <IDNUMBER>
F0466-0009

>  <Chemical_Name>
N-(1,3-benzothiazol-2-yl)-3-(2,5-dioxopyrrolidin-1-yl)benzamide

>  <PriceCoeff>
1.00

>  <CAS>
314043-88-4

>  <MW>
351.38

>  <Description>
solid

>  <FSP3>
0.11

>  <clogP>
1.62

>  <TPSA>
107.61

>  <Acceptor>
4

>  <Donor>
1

>  <RotBonds>
3

>  <HAC>
25

>  <Collection>
General

>  <PPDS>
+

$$$$
F0466-0010
  Mrv2219 10102508112D          

 29 32  0  0  0  0            999 V2000
    0.2878    2.3256    0.0000 C   0  0  0  0  0  0  0  0  0  0  0  0
    1.1335    2.3550    0.0000 N   0  0  0  0  0  0  0  0  0  0  0  0
    1.5504   -1.2392    0.0000 N   0  0  0  0  0  0  0  0  0  0  0  0
   -0.1703    3.0068    0.0000 N   0  0  0  0  0  0  0  0  0  0  0  0
   -0.1703    1.6502    0.0000 S   0  0  0  0  0  0  0  0  0  0  0  0
   -0.9631    1.9028    0.0000 C   0  0  0  0  0  0  0  0  0  0  0  0
   -0.9631    2.7602    0.0000 C   0  0  0  0  0  0  0  0  0  0  0  0
    1.5504    1.6209    0.0000 C   0  0  0  0  0  0  0  0  0  0  0  0
    1.1276   -0.4992    0.0000 C   0  0  0  0  0  0  0  0  0  0  0  0
    2.3492   -1.2392    0.0000 C   0  0  0  0  0  0  0  0  0  0  0  0
    1.2744   -2.0437    0.0000 C   0  0  0  0  0  0  0  0  0  0  0  0
    1.5504    0.1879    0.0000 C   0  0  0  0  0  0  0  0  0  0  0  0
    1.1335    0.9162    0.0000 C   0  0  0  0  0  0  0  0  0  0  0  0
   -1.6914    1.5093    0.0000 C   0  0  0  0  0  0  0  0  0  0  0  0
   -1.6914    3.1478    0.0000 C   0  0  0  0  0  0  0  0  0  0  0  0
    2.3492    1.6209    0.0000 O   0  0  0  0  0  0  0  0  0  0  0  0
    2.6075   -2.0437    0.0000 C   0  0  0  0  0  0  0  0  0  0  0  0
    1.9733   -2.5077    0.0000 C   0  0  0  0  0  0  0  0  0  0  0  0
    2.8249   -0.5638    0.0000 O   0  0  0  0  0  0  0  0  0  0  0  0
    0.4640   -2.2787    0.0000 O   0  0  0  0  0  0  0  0  0  0  0  0
   -2.3961    1.9321    0.0000 C   0  0  0  0  0  0  0  0  0  0  0  0
    0.0705    3.7997    0.0000 C   0  0  0  0  0  0  0  0  0  0  0  0
   -2.3961    2.7249    0.0000 C   0  0  0  0  0  0  0  0  0  0  0  0
    0.3231   -0.4992    0.0000 C   0  0  0  0  0  0  0  0  0  0  0  0
   -3.1654    1.5445    0.0000 O   0  0  0  0  0  0  0  0  0  0  0  0
    0.2878    0.9162    0.0000 C   0  0  0  0  0  0  0  0  0  0  0  0
   -0.0881    0.1879    0.0000 C   0  0  0  0  0  0  0  0  0  0  0  0
   -3.8349    1.9909    0.0000 C   0  0  0  0  0  0  0  0  0  0  0  0
   -4.5984    1.5974    0.0000 C   0  0  0  0  0  0  0  0  0  0  0  0
  2  1  2  0  0  0  0
  3  9  1  0  0  0  0
  4  1  1  0  0  0  0
  5  1  1  0  0  0  0
  6  5  1  0  0  0  0
  7  4  1  0  0  0  0
  8  2  1  0  0  0  0
  9 12  2  0  0  0  0
 10  3  1  0  0  0  0
 11  3  1  0  0  0  0
 12 13  1  0  0  0  0
 13  8  1  0  0  0  0
 14  6  1  0  0  0  0
 15  7  1  0  0  0  0
 16  8  2  0  0  0  0
 17 10  1  0  0  0  0
 18 11  1  0  0  0  0
 19 10  2  0  0  0  0
 20 11  2  0  0  0  0
 21 14  2  0  0  0  0
 22  4  1  0  0  0  0
 23 15  2  0  0  0  0
 24 27  2  0  0  0  0
 25 21  1  0  0  0  0
 26 13  2  0  0  0  0
 27 26  1  0  0  0  0
 28 25  1  0  0  0  0
 29 28  1  0  0  0  0
  6  7  2  0  0  0  0
 23 21  1  0  0  0  0
 24  9  1  0  0  0  0
 18 17  1  0  0  0  0
M  END
>  <IDNUMBER>
F0466-0010

>  <Chemical_Name>
3-(2,5-dioxopyrrolidin-1-yl)-N-[(2Z)-6-ethoxy-3-methyl-2,3-dihydro-1,3-benzothiazol-2-ylidene]benzamide

>  <PriceCoeff>
1.00

>  <CAS>
391867-69-9

>  <MW>
409.46

>  <Description>
solid

>  <FSP3>
0.24

>  <clogP>
3.40

>  <TPSA>
104.58

>  <Acceptor>
4

>  <Donor>
0

>  <RotBonds>
5

>  <HAC>
29

>  <Collection>
General

>  <PPDS>
+

$$$$
F0466-0012
  Mrv2219 10102508112D          

 27 30  0  0  0  0            999 V2000
   -4.3404   -0.8681    0.0000 C   0  0  0  0  0  0  0  0  0  0  0  0
    0.2654   -2.8587    0.0000 N   0  0  0  0  0  0  0  0  0  0  0  0
   -4.8215   -1.5648    0.0000 N   0  0  0  0  0  0  0  0  0  0  0  0
   -4.8215   -0.2378    0.0000 S   0  0  0  0  0  0  0  0  0  0  0  0
   -0.5474   -2.8918    0.0000 C   0  0  0  0  0  0  0  0  0  0  0  0
   -3.4944   -0.8626    0.0000 N   0  0  0  0  0  0  0  0  0  0  0  0
   -5.6011   -1.3270    0.0000 C   0  0  0  0  0  0  0  0  0  0  0  0
    0.6857   -3.5554    0.0000 C   0  0  0  0  0  0  0  0  0  0  0  0
    0.8184   -2.2283    0.0000 C   0  0  0  0  0  0  0  0  0  0  0  0
   -5.6011   -0.4700    0.0000 C   0  0  0  0  0  0  0  0  0  0  0  0
   -2.2172   -1.5261    0.0000 C   0  0  0  0  0  0  0  0  0  0  0  0
   -3.0687   -1.5316    0.0000 N   0  0  0  0  0  0  0  0  0  0  0  0
   -0.9731   -2.1896    0.0000 C   0  0  0  0  0  0  0  0  0  0  0  0
   -1.7915   -2.1952    0.0000 C   0  0  0  0  0  0  0  0  0  0  0  0
    1.5261   -3.3839    0.0000 C   0  0  0  0  0  0  0  0  0  0  0  0
    1.5648   -2.5435    0.0000 C   0  0  0  0  0  0  0  0  0  0  0  0
    0.3705   -4.3516    0.0000 O   0  0  0  0  0  0  0  0  0  0  0  0
    0.6635   -1.3989    0.0000 O   0  0  0  0  0  0  0  0  0  0  0  0
   -1.8191   -0.7962    0.0000 O   0  0  0  0  0  0  0  0  0  0  0  0
   -4.5285   -2.3886    0.0000 C   0  0  0  0  0  0  0  0  0  0  0  0
   -0.9455   -3.6051    0.0000 C   0  0  0  0  0  0  0  0  0  0  0  0
   -6.3034   -1.7251    0.0000 C   0  0  0  0  0  0  0  0  0  0  0  0
   -6.3034   -0.0719    0.0000 C   0  0  0  0  0  0  0  0  0  0  0  0
   -2.1896   -2.9416    0.0000 C   0  0  0  0  0  0  0  0  0  0  0  0
   -1.7693   -3.6493    0.0000 C   0  0  0  0  0  0  0  0  0  0  0  0
   -7.0276   -1.3270    0.0000 C   0  0  0  0  0  0  0  0  0  0  0  0
   -7.0276   -0.4700    0.0000 C   0  0  0  0  0  0  0  0  0  0  0  0
  2  5  1  0  0  0  0
  3  1  1  0  0  0  0
  4  1  1  0  0  0  0
  5 13  2  0  0  0  0
  6  1  2  0  0  0  0
  7  3  1  0  0  0  0
  8  2  1  0  0  0  0
  9  2  1  0  0  0  0
 10  4  1  0  0  0  0
 11 12  1  0  0  0  0
 12  6  1  0  0  0  0
 13 14  1  0  0  0  0
 14 11  1  0  0  0  0
 15  8  1  0  0  0  0
 16  9  1  0  0  0  0
 17  8  2  0  0  0  0
 18  9  2  0  0  0  0
 19 11  2  0  0  0  0
 20  3  1  0  0  0  0
 21 25  2  0  0  0  0
 22  7  1  0  0  0  0
 23 10  1  0  0  0  0
 24 14  2  0  0  0  0
 25 24  1  0  0  0  0
 26 22  2  0  0  0  0
 27 23  2  0  0  0  0
  7 10  2  0  0  0  0
 27 26  1  0  0  0  0
  5 21  1  0  0  0  0
 16 15  1  0  0  0  0
M  END
>  <IDNUMBER>
F0466-0012

>  <Chemical_Name>
3-(2,5-dioxopyrrolidin-1-yl)-N'-[(2E)-3-methyl-2,3-dihydro-1,3-benzothiazol-2-ylidene]benzohydrazide

>  <PriceCoeff>
1.00

>  <CAS>
476321-59-2

>  <MW>
380.42

>  <Description>
solid

>  <FSP3>
0.16

>  <clogP>
2.95

>  <TPSA>
107.38

>  <Acceptor>
3

>  <Donor>
2

>  <RotBonds>
3

>  <HAC>
27

>  <Collection>
General

>  <PPDS>
+

$$$$
F0466-0014
  Mrv2219 10102508112D          

 27 30  0  0  0  0            999 V2000
   -3.7168   -2.1082    0.0000 C   0  0  0  0  0  0  0  0  0  0  0  0
   -2.8768   -2.1741    0.0000 N   0  0  0  0  0  0  0  0  0  0  0  0
    0.0385   -1.5812    0.0000 N   0  0  0  0  0  0  0  0  0  0  0  0
   -4.1944   -2.7670    0.0000 N   0  0  0  0  0  0  0  0  0  0  0  0
   -4.1944   -1.4220    0.0000 S   0  0  0  0  0  0  0  0  0  0  0  0
   -4.9576   -1.6855    0.0000 C   0  0  0  0  0  0  0  0  0  0  0  0
   -4.9576   -2.5035    0.0000 C   0  0  0  0  0  0  0  0  0  0  0  0
   -2.5144   -2.8714    0.0000 C   0  0  0  0  0  0  0  0  0  0  0  0
   -0.4227   -2.2620    0.0000 C   0  0  0  0  0  0  0  0  0  0  0  0
    0.8565   -1.6470    0.0000 C   0  0  0  0  0  0  0  0  0  0  0  0
   -0.1921   -0.7906    0.0000 C   0  0  0  0  0  0  0  0  0  0  0  0
   -1.2462   -2.2126    0.0000 C   0  0  0  0  0  0  0  0  0  0  0  0
   -1.6909   -2.9208    0.0000 C   0  0  0  0  0  0  0  0  0  0  0  0
   -5.6658   -2.9208    0.0000 C   0  0  0  0  0  0  0  0  0  0  0  0
   -5.6658   -1.2573    0.0000 C   0  0  0  0  0  0  0  0  0  0  0  0
   -2.9262   -3.5796    0.0000 O   0  0  0  0  0  0  0  0  0  0  0  0
    1.1420   -0.8620    0.0000 C   0  0  0  0  0  0  0  0  0  0  0  0
    0.5326   -0.3349    0.0000 C   0  0  0  0  0  0  0  0  0  0  0  0
   -0.9497   -0.4667    0.0000 O   0  0  0  0  0  0  0  0  0  0  0  0
    1.3176   -2.3443    0.0000 O   0  0  0  0  0  0  0  0  0  0  0  0
   -3.9035   -3.5576    0.0000 C   0  0  0  0  0  0  0  0  0  0  0  0
   -6.3850   -2.5035    0.0000 C   0  0  0  0  0  0  0  0  0  0  0  0
   -6.3850   -1.6855    0.0000 C   0  0  0  0  0  0  0  0  0  0  0  0
   -0.0603   -2.9702    0.0000 C   0  0  0  0  0  0  0  0  0  0  0  0
   -1.2956   -3.6290    0.0000 C   0  0  0  0  0  0  0  0  0  0  0  0
   -0.4776   -3.6894    0.0000 C   0  0  0  0  0  0  0  0  0  0  0  0
   -7.0932   -1.2573    0.0000 C   0  0  0  0  0  0  0  0  0  0  0  0
  2  1  2  0  0  0  0
  3  9  1  0  0  0  0
  4  1  1  0  0  0  0
  5  1  1  0  0  0  0
  6  5  1  0  0  0  0
  7  4  1  0  0  0  0
  8  2  1  0  0  0  0
  9 12  2  0  0  0  0
 10  3  1  0  0  0  0
 11  3  1  0  0  0  0
 12 13  1  0  0  0  0
 13  8  1  0  0  0  0
 14  7  1  0  0  0  0
 15  6  1  0  0  0  0
 16  8  2  0  0  0  0
 17 10  1  0  0  0  0
 18 11  1  0  0  0  0
 19 11  2  0  0  0  0
 20 10  2  0  0  0  0
 21  4  1  0  0  0  0
 22 14  2  0  0  0  0
 23 15  2  0  0  0  0
 24 26  2  0  0  0  0
 25 13  2  0  0  0  0
 26 25  1  0  0  0  0
 27 23  1  0  0  0  0
  6  7  2  0  0  0  0
 22 23  1  0  0  0  0
 24  9  1  0  0  0  0
 18 17  1  0  0  0  0
M  END
>  <IDNUMBER>
F0466-0014

>  <Chemical_Name>
N-[(2E)-3,6-dimethyl-2,3-dihydro-1,3-benzothiazol-2-ylidene]-3-(2,5-dioxopyrrolidin-1-yl)benzamide

>  <PriceCoeff>
1.00

>  <CAS>
477295-07-1

>  <MW>
379.43

>  <Description>
solid

>  <FSP3>
0.20

>  <clogP>
3.45

>  <TPSA>
95.35

>  <Acceptor>
3

>  <Donor>
0

>  <RotBonds>
3

>  <HAC>
27

>  <Collection>
General

>  <PPDS>
+

$$$$
F0466-0018
  Mrv2219 10102508112D          

 28 31  0  0  0  0            999 V2000
    1.8558    1.5064    0.0000 N   0  0  0  0  0  0  0  0  0  0  0  0
   -1.8558    0.7847    0.0000 C   0  0  0  0  0  0  0  0  0  0  0  0
   -2.4343    0.1547    0.0000 N   0  0  0  0  0  0  0  0  0  0  0  0
   -1.0310    0.7847    0.0000 N   0  0  0  0  0  0  0  0  0  0  0  0
   -3.1790    0.5097    0.0000 C   0  0  0  0  0  0  0  0  0  0  0  0
    1.4434    0.7847    0.0000 C   0  0  0  0  0  0  0  0  0  0  0  0
   -0.6186    0.0687    0.0000 C   0  0  0  0  0  0  0  0  0  0  0  0
    2.6864    1.5064    0.0000 C   0  0  0  0  0  0  0  0  0  0  0  0
    1.5867    2.2968    0.0000 C   0  0  0  0  0  0  0  0  0  0  0  0
   -2.2683    1.5064    0.0000 S   0  0  0  0  0  0  0  0  0  0  0  0
   -3.0931    1.3060    0.0000 C   0  0  0  0  0  0  0  0  0  0  0  0
    0.6186    0.7847    0.0000 C   0  0  0  0  0  0  0  0  0  0  0  0
    0.2062    0.0687    0.0000 C   0  0  0  0  0  0  0  0  0  0  0  0
   -3.8663    0.0458    0.0000 C   0  0  0  0  0  0  0  0  0  0  0  0
   -1.0310   -0.6244    0.0000 O   0  0  0  0  0  0  0  0  0  0  0  0
    2.3084    2.7780    0.0000 C   0  0  0  0  0  0  0  0  0  0  0  0
    2.9556    2.2968    0.0000 C   0  0  0  0  0  0  0  0  0  0  0  0
    3.1848    0.8190    0.0000 O   0  0  0  0  0  0  0  0  0  0  0  0
    0.7962    2.5718    0.0000 O   0  0  0  0  0  0  0  0  0  0  0  0
   -3.8090   -0.7619    0.0000 C   0  0  0  0  0  0  0  0  0  0  0  0
   -4.6052    0.4066    0.0000 C   0  0  0  0  0  0  0  0  0  0  0  0
   -5.2410   -0.8936    0.0000 C   0  0  0  0  0  0  0  0  0  0  0  0
   -4.4964   -1.2372    0.0000 C   0  0  0  0  0  0  0  0  0  0  0  0
   -5.2926   -0.0687    0.0000 C   0  0  0  0  0  0  0  0  0  0  0  0
    1.8558    0.0687    0.0000 C   0  0  0  0  0  0  0  0  0  0  0  0
   -5.9284   -1.3747    0.0000 Cl  0  0  0  0  0  0  0  0  0  0  0  0
    0.6186   -0.6244    0.0000 C   0  0  0  0  0  0  0  0  0  0  0  0
    1.4434   -0.6244    0.0000 C   0  0  0  0  0  0  0  0  0  0  0  0
  2  4  1  0  0  0  0
  3  2  2  0  0  0  0
  4  7  1  0  0  0  0
  5  3  1  0  0  0  0
  6  1  1  0  0  0  0
  7 13  1  0  0  0  0
  8  1  1  0  0  0  0
  9  1  1  0  0  0  0
 10  2  1  0  0  0  0
 11 10  1  0  0  0  0
 12  6  2  0  0  0  0
 13 12  1  0  0  0  0
 14  5  1  0  0  0  0
 15  7  2  0  0  0  0
 16  9  1  0  0  0  0
 17  8  1  0  0  0  0
 18  8  2  0  0  0  0
 19  9  2  0  0  0  0
 20 14  1  0  0  0  0
 21 14  2  0  0  0  0
 22 24  2  0  0  0  0
 23 20  2  0  0  0  0
 24 21  1  0  0  0  0
 25  6  1  0  0  0  0
 26 22  1  0  0  0  0
 27 28  1  0  0  0  0
 28 25  2  0  0  0  0
 16 17  1  0  0  0  0
 27 13  2  0  0  0  0
 11  5  2  0  0  0  0
 22 23  1  0  0  0  0
M  END
>  <IDNUMBER>
F0466-0018

>  <Chemical_Name>
N-[4-(4-chlorophenyl)-1,3-thiazol-2-yl]-3-(2,5-dioxopyrrolidin-1-yl)benzamide

>  <PriceCoeff>
1.00

>  <CAS>
476321-64-9

>  <MW>
411.86

>  <Description>
solid

>  <FSP3>
0.10

>  <clogP>
2.85

>  <TPSA>
107.61

>  <Acceptor>
4

>  <Donor>
1

>  <RotBonds>
4

>  <HAC>
28

>  <Collection>
General

>  <PPDS>
+

$$$$
F0466-0022
  Mrv2219 10102508112D          

 33 37  0  0  0  0            999 V2000
   -2.4609   -0.0412    0.0000 C   0  0  0  0  0  0  0  0  0  0  0  0
   -3.3067   -2.3259    0.0000 N   0  0  0  0  0  0  0  0  0  0  0  0
   -3.6943   -0.4934    0.0000 C   0  0  0  0  0  0  0  0  0  0  0  0
   -3.7295    0.3112    0.0000 C   0  0  0  0  0  0  0  0  0  0  0  0
   -2.9073   -0.7107    0.0000 N   0  0  0  0  0  0  0  0  0  0  0  0
   -2.9602    0.5932    0.0000 S   0  0  0  0  0  0  0  0  0  0  0  0
   -1.6387    0.0881    0.0000 N   0  0  0  0  0  0  0  0  0  0  0  0
   -2.4844   -2.2084    0.0000 C   0  0  0  0  0  0  0  0  0  0  0  0
   -1.1041   -0.5169    0.0000 C   0  0  0  0  0  0  0  0  0  0  0  0
   -3.6121   -3.1011    0.0000 C   0  0  0  0  0  0  0  0  0  0  0  0
   -3.9234   -1.7856    0.0000 C   0  0  0  0  0  0  0  0  0  0  0  0
   -2.2025   -1.4508    0.0000 C   0  0  0  0  0  0  0  0  0  0  0  0
   -1.3861   -1.3098    0.0000 C   0  0  0  0  0  0  0  0  0  0  0  0
   -4.3991   -0.9162    0.0000 C   0  0  0  0  0  0  0  0  0  0  0  0
   -4.4579    0.7048    0.0000 C   0  0  0  0  0  0  0  0  0  0  0  0
   -0.3112   -0.3759    0.0000 O   0  0  0  0  0  0  0  0  0  0  0  0
   -4.5989   -2.2554    0.0000 C   0  0  0  0  0  0  0  0  0  0  0  0
   -4.4579   -3.0307    0.0000 C   0  0  0  0  0  0  0  0  0  0  0  0
   -3.1892   -3.8119    0.0000 O   0  0  0  0  0  0  0  0  0  0  0  0
   -3.9234   -0.9867    0.0000 O   0  0  0  0  0  0  0  0  0  0  0  0
   -1.9735   -2.8604    0.0000 C   0  0  0  0  0  0  0  0  0  0  0  0
   -0.8458   -1.9735    0.0000 C   0  0  0  0  0  0  0  0  0  0  0  0
   -1.1922   -2.7487    0.0000 C   0  0  0  0  0  0  0  0  0  0  0  0
   -4.3991   -1.7327    0.0000 C   0  0  0  0  0  0  0  0  0  0  0  0
   -5.1627    0.2819    0.0000 C   0  0  0  0  0  0  0  0  0  0  0  0
   -5.1392   -0.5169    0.0000 C   0  0  0  0  0  0  0  0  0  0  0  0
   -4.4872    1.5506    0.0000 C   0  0  0  0  0  0  0  0  0  0  0  0
   -5.8440   -0.9398    0.0000 C   0  0  0  0  0  0  0  0  0  0  0  0
   -5.1392   -2.1556    0.0000 C   0  0  0  0  0  0  0  0  0  0  0  0
   -5.8968    0.6813    0.0000 C   0  0  0  0  0  0  0  0  0  0  0  0
   -5.2156    1.9499    0.0000 C   0  0  0  0  0  0  0  0  0  0  0  0
   -5.8087   -1.7620    0.0000 C   0  0  0  0  0  0  0  0  0  0  0  0
   -5.9321    1.4977    0.0000 C   0  0  0  0  0  0  0  0  0  0  0  0
  2  8  1  0  0  0  0
  3  5  1  0  0  0  0
  4  6  1  0  0  0  0
  5  1  2  0  0  0  0
  6  1  1  0  0  0  0
  7  1  1  0  0  0  0
  8 12  2  0  0  0  0
  9  7  1  0  0  0  0
 10  2  1  0  0  0  0
 11  2  1  0  0  0  0
 12 13  1  0  0  0  0
 13  9  1  0  0  0  0
 14  3  1  0  0  0  0
 15  4  1  0  0  0  0
 16  9  2  0  0  0  0
 17 11  1  0  0  0  0
 18 10  1  0  0  0  0
 19 10  2  0  0  0  0
 20 11  2  0  0  0  0
 21 23  2  0  0  0  0
 22 13  2  0  0  0  0
 23 22  1  0  0  0  0
 24 14  1  0  0  0  0
 25 15  1  0  0  0  0
 26 14  2  0  0  0  0
 27 15  2  0  0  0  0
 28 26  1  0  0  0  0
 29 24  2  0  0  0  0
 30 25  2  0  0  0  0
 31 27  1  0  0  0  0
 32 28  2  0  0  0  0
 33 31  2  0  0  0  0
  4  3  2  0  0  0  0
  8 21  1  0  0  0  0
 30 33  1  0  0  0  0
 32 29  1  0  0  0  0
 17 18  1  0  0  0  0
M  END
>  <IDNUMBER>
F0466-0022

>  <Chemical_Name>
3-(2,5-dioxopyrrolidin-1-yl)-N-(4,5-diphenyl-1,3-thiazol-2-yl)benzamide

>  <PriceCoeff>
1.00

>  <CAS>
476321-68-3

>  <MW>
453.51

>  <Description>
solid

>  <FSP3>
0.08

>  <clogP>
3.62

>  <TPSA>
107.61

>  <Acceptor>
4

>  <Donor>
1

>  <RotBonds>
5

>  <HAC>
33

>  <Collection>
General

>  <PPDS>
+

$$$$
F0466-0024
  Mrv2219 10102508112D          

 31 34  0  0  0  0            999 V2000
   -6.9411   -1.4421    0.0000 N   0  0  0  0  0  0  0  0  0  0  0  0
   -3.2072   -2.0823    0.0000 C   0  0  0  0  0  0  0  0  0  0  0  0
   -2.6508   -1.4601    0.0000 N   0  0  0  0  0  0  0  0  0  0  0  0
   -4.0390   -2.0884    0.0000 N   0  0  0  0  0  0  0  0  0  0  0  0
   -1.9148   -1.7951    0.0000 C   0  0  0  0  0  0  0  0  0  0  0  0
   -6.5282   -2.1542    0.0000 C   0  0  0  0  0  0  0  0  0  0  0  0
   -4.4279   -2.8423    0.0000 C   0  0  0  0  0  0  0  0  0  0  0  0
   -7.7848   -1.4421    0.0000 C   0  0  0  0  0  0  0  0  0  0  0  0
   -6.7257   -0.6462    0.0000 C   0  0  0  0  0  0  0  0  0  0  0  0
   -2.7944   -2.8004    0.0000 S   0  0  0  0  0  0  0  0  0  0  0  0
   -1.9686   -2.5850    0.0000 C   0  0  0  0  0  0  0  0  0  0  0  0
   -5.6906   -2.1542    0.0000 C   0  0  0  0  0  0  0  0  0  0  0  0
   -5.2716   -2.8423    0.0000 C   0  0  0  0  0  0  0  0  0  0  0  0
   -1.2147   -1.3344    0.0000 C   0  0  0  0  0  0  0  0  0  0  0  0
   -3.9971   -3.5604    0.0000 O   0  0  0  0  0  0  0  0  0  0  0  0
   -7.4139   -0.2214    0.0000 C   0  0  0  0  0  0  0  0  0  0  0  0
   -8.0422   -0.7181    0.0000 C   0  0  0  0  0  0  0  0  0  0  0  0
   -5.9358   -0.3590    0.0000 O   0  0  0  0  0  0  0  0  0  0  0  0
   -8.2875   -2.1243    0.0000 O   0  0  0  0  0  0  0  0  0  0  0  0
   -1.2506   -0.5266    0.0000 C   0  0  0  0  0  0  0  0  0  0  0  0
   -0.4787   -1.7233    0.0000 C   0  0  0  0  0  0  0  0  0  0  0  0
    0.1855   -0.4369    0.0000 C   0  0  0  0  0  0  0  0  0  0  0  0
    0.2154   -1.2447    0.0000 C   0  0  0  0  0  0  0  0  0  0  0  0
   -0.5505   -0.0778    0.0000 C   0  0  0  0  0  0  0  0  0  0  0  0
   -6.9232   -2.8782    0.0000 C   0  0  0  0  0  0  0  0  0  0  0  0
    0.8856    0.0000    0.0000 O   0  0  0  0  0  0  0  0  0  0  0  0
   -5.6666   -3.5903    0.0000 C   0  0  0  0  0  0  0  0  0  0  0  0
   -6.5103   -3.5903    0.0000 C   0  0  0  0  0  0  0  0  0  0  0  0
    0.8677    0.8377    0.0000 C   0  0  0  0  0  0  0  0  0  0  0  0
    1.5857    1.2685    0.0000 C   0  0  0  0  0  0  0  0  0  0  0  0
    1.5797    2.0823    0.0000 C   0  0  0  0  0  0  0  0  0  0  0  0
  2  4  1  0  0  0  0
  3  2  2  0  0  0  0
  4  7  1  0  0  0  0
  5  3  1  0  0  0  0
  6  1  1  0  0  0  0
  7 13  1  0  0  0  0
  8  1  1  0  0  0  0
  9  1  1  0  0  0  0
 10  2  1  0  0  0  0
 11 10  1  0  0  0  0
 12  6  2  0  0  0  0
 13 12  1  0  0  0  0
 14  5  1  0  0  0  0
 15  7  2  0  0  0  0
 16  9  1  0  0  0  0
 17  8  1  0  0  0  0
 18  9  2  0  0  0  0
 19  8  2  0  0  0  0
 20 14  1  0  0  0  0
 21 14  2  0  0  0  0
 22 23  2  0  0  0  0
 23 21  1  0  0  0  0
 24 20  2  0  0  0  0
 25  6  1  0  0  0  0
 26 22  1  0  0  0  0
 27 28  1  0  0  0  0
 28 25  2  0  0  0  0
 29 26  1  0  0  0  0
 30 29  1  0  0  0  0
 31 30  1  0  0  0  0
 17 16  1  0  0  0  0
 13 27  2  0  0  0  0
  5 11  2  0  0  0  0
 22 24  1  0  0  0  0
M  END
>  <IDNUMBER>
F0466-0024

>  <Chemical_Name>
3-(2,5-dioxopyrrolidin-1-yl)-N-[4-(4-propoxyphenyl)-1,3-thiazol-2-yl]benzamide

>  <PriceCoeff>
1.00

>  <CAS>
391867-70-2

>  <MW>
435.50

>  <Description>
solid

>  <FSP3>
0.22

>  <clogP>
3.20

>  <TPSA>
116.84

>  <Acceptor>
5

>  <Donor>
1

>  <RotBonds>
7

>  <HAC>
31

>  <Collection>
General

>  <PPDS>
+

$$$$
F0466-0029
  Mrv2219 10102508112D          

 30 33  0  0  0  0            999 V2000
    2.7749    0.8123    0.0000 N   0  0  0  0  0  0  0  0  0  0  0  0
   -1.0257    0.9546    0.0000 C   0  0  0  0  0  0  0  0  0  0  0  0
   -1.7077    0.4981    0.0000 N   0  0  0  0  0  0  0  0  0  0  0  0
   -0.2312    0.7827    0.0000 N   0  0  0  0  0  0  0  0  0  0  0  0
   -2.3954    1.0139    0.0000 C   0  0  0  0  0  0  0  0  0  0  0  0
    2.2295    0.2135    0.0000 C   0  0  0  0  0  0  0  0  0  0  0  0
    0.0060    0.0000    0.0000 C   0  0  0  0  0  0  0  0  0  0  0  0
    2.5141    1.5831    0.0000 C   0  0  0  0  0  0  0  0  0  0  0  0
    3.6288    0.8123    0.0000 C   0  0  0  0  0  0  0  0  0  0  0  0
   -1.2807    1.7550    0.0000 S   0  0  0  0  0  0  0  0  0  0  0  0
   -2.1108    1.7550    0.0000 C   0  0  0  0  0  0  0  0  0  0  0  0
   -3.1959    0.7589    0.0000 C   0  0  0  0  0  0  0  0  0  0  0  0
    1.4231    0.3854    0.0000 C   0  0  0  0  0  0  0  0  0  0  0  0
    0.8598   -0.2135    0.0000 C   0  0  0  0  0  0  0  0  0  0  0  0
   -3.7889    1.2985    0.0000 C   0  0  0  0  0  0  0  0  0  0  0  0
   -4.5538    1.0435    0.0000 C   0  0  0  0  0  0  0  0  0  0  0  0
   -0.5455   -0.6404    0.0000 O   0  0  0  0  0  0  0  0  0  0  0  0
   -4.7612    0.2786    0.0000 C   0  0  0  0  0  0  0  0  0  0  0  0
    3.8838    1.6127    0.0000 C   0  0  0  0  0  0  0  0  0  0  0  0
    3.2256    2.0634    0.0000 C   0  0  0  0  0  0  0  0  0  0  0  0
    4.1268    0.1363    0.0000 O   0  0  0  0  0  0  0  0  0  0  0  0
    1.7136    1.8440    0.0000 O   0  0  0  0  0  0  0  0  0  0  0  0
   -3.3620   -0.0712    0.0000 C   0  0  0  0  0  0  0  0  0  0  0  0
   -4.1564   -0.2846    0.0000 C   0  0  0  0  0  0  0  0  0  0  0  0
    2.4903   -0.5692    0.0000 C   0  0  0  0  0  0  0  0  0  0  0  0
   -5.5795    0.0712    0.0000 O   0  0  0  0  0  0  0  0  0  0  0  0
    1.1384   -1.0199    0.0000 C   0  0  0  0  0  0  0  0  0  0  0  0
    1.9211   -1.2096    0.0000 C   0  0  0  0  0  0  0  0  0  0  0  0
   -5.1882    1.6127    0.0000 C   0  0  0  0  0  0  0  0  0  0  0  0
   -5.8345   -0.7115    0.0000 C   0  0  0  0  0  0  0  0  0  0  0  0
  2  4  1  0  0  0  0
  3  2  2  0  0  0  0
  4  7  1  0  0  0  0
  5  3  1  0  0  0  0
  6  1  1  0  0  0  0
  7 14  1  0  0  0  0
  8  1  1  0  0  0  0
  9  1  1  0  0  0  0
 10  2  1  0  0  0  0
 11 10  1  0  0  0  0
 12  5  1  0  0  0  0
 13  6  2  0  0  0  0
 14 13  1  0  0  0  0
 15 12  2  0  0  0  0
 16 15  1  0  0  0  0
 17  7  2  0  0  0  0
 18 24  1  0  0  0  0
 19  9  1  0  0  0  0
 20  8  1  0  0  0  0
 21  9  2  0  0  0  0
 22  8  2  0  0  0  0
 23 12  1  0  0  0  0
 24 23  2  0  0  0  0
 25  6  1  0  0  0  0
 26 18  1  0  0  0  0
 27 28  1  0  0  0  0
 28 25  2  0  0  0  0
 29 16  1  0  0  0  0
 30 26  1  0  0  0  0
 20 19  1  0  0  0  0
 27 14  2  0  0  0  0
 11  5  2  0  0  0  0
 16 18  2  0  0  0  0
M  END
>  <IDNUMBER>
F0466-0029

>  <Chemical_Name>
3-(2,5-dioxopyrrolidin-1-yl)-N-[4-(4-methoxy-3-methylphenyl)-1,3-thiazol-2-yl]benzamide

>  <PriceCoeff>
1.00

>  <CAS>
476321-73-0

>  <MW>
421.47

>  <Description>
solid

>  <FSP3>
0.18

>  <clogP>
2.65

>  <TPSA>
116.84

>  <Acceptor>
5

>  <Donor>
1

>  <RotBonds>
5

>  <HAC>
30

>  <Collection>
General

>  <PPDS>
+

$$$$
F0466-0032
  Mrv2219 10102508112D          

 32 35  0  0  0  0            999 V2000
   -1.7169    0.3577    0.0000 C   0  0  0  0  0  0  0  0  0  0  0  0
   -0.5186   -0.1670    0.0000 C   0  0  0  0  0  0  0  0  0  0  0  0
   -1.8064   -0.4292    0.0000 C   0  0  0  0  0  0  0  0  0  0  0  0
    2.5814   -3.1180    0.0000 N   0  0  0  0  0  0  0  0  0  0  0  0
   -1.0671   -0.7870    0.0000 N   0  0  0  0  0  0  0  0  0  0  0  0
   -0.9240    0.5305    0.0000 S   0  0  0  0  0  0  0  0  0  0  0  0
    0.2861   -0.3577    0.0000 N   0  0  0  0  0  0  0  0  0  0  0  0
    2.3608   -2.3131    0.0000 C   0  0  0  0  0  0  0  0  0  0  0  0
    0.5246   -1.1149    0.0000 C   0  0  0  0  0  0  0  0  0  0  0  0
    3.3862   -3.3623    0.0000 C   0  0  0  0  0  0  0  0  0  0  0  0
    2.1462   -3.7975    0.0000 C   0  0  0  0  0  0  0  0  0  0  0  0
   -2.3548    0.9061    0.0000 C   0  0  0  0  0  0  0  0  0  0  0  0
    1.5798   -2.1164    0.0000 C   0  0  0  0  0  0  0  0  0  0  0  0
    1.3592   -1.3116    0.0000 C   0  0  0  0  0  0  0  0  0  0  0  0
   -2.4621   -0.9300    0.0000 C   0  0  0  0  0  0  0  0  0  0  0  0
   -0.0298   -1.7408    0.0000 O   0  0  0  0  0  0  0  0  0  0  0  0
    2.6708   -4.4354    0.0000 C   0  0  0  0  0  0  0  0  0  0  0  0
    3.3862   -4.1492    0.0000 C   0  0  0  0  0  0  0  0  0  0  0  0
    1.2937   -3.8333    0.0000 O   0  0  0  0  0  0  0  0  0  0  0  0
    4.0479   -2.8317    0.0000 O   0  0  0  0  0  0  0  0  0  0  0  0
   -2.1759    1.7109    0.0000 O   0  0  0  0  0  0  0  0  0  0  0  0
   -3.0941    0.6439    0.0000 O   0  0  0  0  0  0  0  0  0  0  0  0
    2.9569   -1.7408    0.0000 C   0  0  0  0  0  0  0  0  0  0  0  0
    1.9555   -0.7154    0.0000 C   0  0  0  0  0  0  0  0  0  0  0  0
    2.7602   -0.9360    0.0000 C   0  0  0  0  0  0  0  0  0  0  0  0
   -2.3787   -1.7169    0.0000 C   0  0  0  0  0  0  0  0  0  0  0  0
   -3.2132   -0.5723    0.0000 C   0  0  0  0  0  0  0  0  0  0  0  0
   -3.6961    1.1923    0.0000 C   0  0  0  0  0  0  0  0  0  0  0  0
   -4.4652    0.9300    0.0000 C   0  0  0  0  0  0  0  0  0  0  0  0
   -3.0344   -2.2177    0.0000 C   0  0  0  0  0  0  0  0  0  0  0  0
   -3.8630   -1.0731    0.0000 C   0  0  0  0  0  0  0  0  0  0  0  0
   -3.7497   -1.8600    0.0000 C   0  0  0  0  0  0  0  0  0  0  0  0
  2  6  1  0  0  0  0
  3  1  2  0  0  0  0
  4  8  1  0  0  0  0
  5  3  1  0  0  0  0
  6  1  1  0  0  0  0
  7  2  1  0  0  0  0
  8 13  2  0  0  0  0
  9  7  1  0  0  0  0
 10  4  1  0  0  0  0
 11  4  1  0  0  0  0
 12  1  1  0  0  0  0
 13 14  1  0  0  0  0
 14  9  1  0  0  0  0
 15  3  1  0  0  0  0
 16  9  2  0  0  0  0
 17 11  1  0  0  0  0
 18 10  1  0  0  0  0
 19 11  2  0  0  0  0
 20 10  2  0  0  0  0
 21 12  2  0  0  0  0
 22 12  1  0  0  0  0
 23 25  2  0  0  0  0
 24 14  2  0  0  0  0
 25 24  1  0  0  0  0
 26 15  1  0  0  0  0
 27 15  2  0  0  0  0
 28 22  1  0  0  0  0
 29 28  1  0  0  0  0
 30 26  2  0  0  0  0
 31 27  1  0  0  0  0
 32 31  2  0  0  0  0
  2  5  2  0  0  0  0
 32 30  1  0  0  0  0
  8 23  1  0  0  0  0
 17 18  1  0  0  0  0
M  END
>  <IDNUMBER>
F0466-0032

>  <Chemical_Name>
ethyl 2-[3-(2,5-dioxopyrrolidin-1-yl)benzamido]-4-phenyl-1,3-thiazole-5-carboxylate

>  <PriceCoeff>
1.00

>  <CAS>
391867-71-3

>  <MW>
449.48

>  <Description>
solid

>  <FSP3>
0.17

>  <clogP>
2.76

>  <TPSA>
133.91

>  <Acceptor>
6

>  <Donor>
1

>  <RotBonds>
7

>  <HAC>
32

>  <Collection>
General

$$$$
F0466-0033
  Mrv2219 10102508112D          

 25 27  0  0  0  0            999 V2000
   -1.2695   -1.0334    0.0000 C   0  0  0  0  0  0  0  0  0  0  0  0
    1.8128   -3.9680    0.0000 N   0  0  0  0  0  0  0  0  0  0  0  0
   -2.3383   -0.2894    0.0000 C   0  0  0  0  0  0  0  0  0  0  0  0
   -1.9426   -1.5117    0.0000 N   0  0  0  0  0  0  0  0  0  0  0  0
   -1.5175   -0.2834    0.0000 S   0  0  0  0  0  0  0  0  0  0  0  0
   -2.5981   -0.9980    0.0000 C   0  0  0  0  0  0  0  0  0  0  0  0
   -0.4723   -1.2046    0.0000 N   0  0  0  0  0  0  0  0  0  0  0  0
    1.5825   -3.1591    0.0000 C   0  0  0  0  0  0  0  0  0  0  0  0
   -0.2126   -1.9840    0.0000 C   0  0  0  0  0  0  0  0  0  0  0  0
    2.6217   -4.1806    0.0000 C   0  0  0  0  0  0  0  0  0  0  0  0
    1.3522   -4.6294    0.0000 C   0  0  0  0  0  0  0  0  0  0  0  0
    0.8208   -2.9760    0.0000 C   0  0  0  0  0  0  0  0  0  0  0  0
    0.5905   -2.1671    0.0000 C   0  0  0  0  0  0  0  0  0  0  0  0
   -2.8520    0.3720    0.0000 C   0  0  0  0  0  0  0  0  0  0  0  0
   -0.7794   -2.5922    0.0000 O   0  0  0  0  0  0  0  0  0  0  0  0
    1.9131   -5.2494    0.0000 C   0  0  0  0  0  0  0  0  0  0  0  0
    2.6217   -4.9660    0.0000 C   0  0  0  0  0  0  0  0  0  0  0  0
    0.5374   -4.6766    0.0000 O   0  0  0  0  0  0  0  0  0  0  0  0
    3.2594   -3.6846    0.0000 O   0  0  0  0  0  0  0  0  0  0  0  0
   -2.5449    1.1337    0.0000 O   0  0  0  0  0  0  0  0  0  0  0  0
    2.1966   -2.5922    0.0000 C   0  0  0  0  0  0  0  0  0  0  0  0
   -3.4189   -1.2046    0.0000 C   0  0  0  0  0  0  0  0  0  0  0  0
    1.2046   -1.5648    0.0000 C   0  0  0  0  0  0  0  0  0  0  0  0
    1.9840   -1.7951    0.0000 C   0  0  0  0  0  0  0  0  0  0  0  0
   -3.6786    0.2303    0.0000 C   0  0  0  0  0  0  0  0  0  0  0  0
  2  8  1  0  0  0  0
  3  5  1  0  0  0  0
  4  1  2  0  0  0  0
  5  1  1  0  0  0  0
  6  4  1  0  0  0  0
  7  1  1  0  0  0  0
  8 12  2  0  0  0  0
  9  7  1  0  0  0  0
 10  2  1  0  0  0  0
 11  2  1  0  0  0  0
 12 13  1  0  0  0  0
 13  9  1  0  0  0  0
 14  3  1  0  0  0  0
 15  9  2  0  0  0  0
 16 11  1  0  0  0  0
 17 10  1  0  0  0  0
 18 11  2  0  0  0  0
 19 10  2  0  0  0  0
 20 14  2  0  0  0  0
 21 24  2  0  0  0  0
 22  6  1  0  0  0  0
 23 13  2  0  0  0  0
 24 23  1  0  0  0  0
 25 14  1  0  0  0  0
  3  6  2  0  0  0  0
 21  8  1  0  0  0  0
 16 17  1  0  0  0  0
M  END
>  <IDNUMBER>
F0466-0033

>  <Chemical_Name>
N-(5-acetyl-4-methyl-1,3-thiazol-2-yl)-3-(2,5-dioxopyrrolidin-1-yl)benzamide

>  <PriceCoeff>
1.50

>  <CAS>
391867-72-4

>  <MW>
357.38

>  <Description>
solid

>  <FSP3>
0.24

>  <clogP>
0.36

>  <TPSA>
124.68

>  <Acceptor>
5

>  <Donor>
1

>  <RotBonds>
4

>  <HAC>
25

>  <Collection>
Advanced

>  <PPDS>
+

$$$$
F0466-0040
  Mrv2219 10102508112D          

 29 32  0  0  0  0            999 V2000
   -3.1357    3.5350    0.0000 N   0  0  0  0  0  0  0  0  0  0  0  0
   -2.3108    3.5350    0.0000 C   0  0  0  0  0  0  0  0  0  0  0  0
   -3.5350    2.8214    0.0000 C   0  0  0  0  0  0  0  0  0  0  0  0
   -3.6922    4.1373    0.0000 C   0  0  0  0  0  0  0  0  0  0  0  0
   -0.7070    2.0948    0.0000 C   0  0  0  0  0  0  0  0  0  0  0  0
    0.1048    2.0752    0.0000 N   0  0  0  0  0  0  0  0  0  0  0  0
   -1.9050    2.8214    0.0000 C   0  0  0  0  0  0  0  0  0  0  0  0
   -1.0736    2.8018    0.0000 C   0  0  0  0  0  0  0  0  0  0  0  0
    0.5499    2.7822    0.0000 C   0  0  0  0  0  0  0  0  0  0  0  0
    1.3421    2.7822    0.0000 C   0  0  0  0  0  0  0  0  0  0  0  0
    1.8068    2.0752    0.0000 O   0  0  0  0  0  0  0  0  0  0  0  0
   -1.0932    1.3681    0.0000 O   0  0  0  0  0  0  0  0  0  0  0  0
   -4.3533    2.9852    0.0000 C   0  0  0  0  0  0  0  0  0  0  0  0
   -4.4319    3.8034    0.0000 C   0  0  0  0  0  0  0  0  0  0  0  0
   -3.4892    4.9491    0.0000 O   0  0  0  0  0  0  0  0  0  0  0  0
   -3.2208    2.0359    0.0000 O   0  0  0  0  0  0  0  0  0  0  0  0
    1.3355    1.3681    0.0000 C   0  0  0  0  0  0  0  0  0  0  0  0
   -1.9050    4.2551    0.0000 C   0  0  0  0  0  0  0  0  0  0  0  0
   -0.7004    3.5284    0.0000 C   0  0  0  0  0  0  0  0  0  0  0  0
   -1.0736    4.2551    0.0000 C   0  0  0  0  0  0  0  0  0  0  0  0
    0.1244    3.4892    0.0000 C   0  0  0  0  0  0  0  0  0  0  0  0
    1.8068    3.5088    0.0000 C   0  0  0  0  0  0  0  0  0  0  0  0
    1.7282    0.6219    0.0000 C   0  0  0  0  0  0  0  0  0  0  0  0
    0.5172    1.3681    0.0000 C   0  0  0  0  0  0  0  0  0  0  0  0
    1.3617    4.2158    0.0000 C   0  0  0  0  0  0  0  0  0  0  0  0
    0.5499    4.2158    0.0000 C   0  0  0  0  0  0  0  0  0  0  0  0
    1.3028   -0.0459    0.0000 C   0  0  0  0  0  0  0  0  0  0  0  0
    0.0786    0.7004    0.0000 C   0  0  0  0  0  0  0  0  0  0  0  0
    0.4713   -0.0459    0.0000 C   0  0  0  0  0  0  0  0  0  0  0  0
  2  1  1  0  0  0  0
  3  1  1  0  0  0  0
  4  1  1  0  0  0  0
  5  8  1  0  0  0  0
  6  5  1  0  0  0  0
  7  2  2  0  0  0  0
  8  7  1  0  0  0  0
  9  6  1  0  0  0  0
 10  9  1  0  0  0  0
 11 10  1  0  0  0  0
 12  5  2  0  0  0  0
 13  3  1  0  0  0  0
 14  4  1  0  0  0  0
 15  4  2  0  0  0  0
 16  3  2  0  0  0  0
 17 11  1  0  0  0  0
 18  2  1  0  0  0  0
 19 20  1  0  0  0  0
 20 18  2  0  0  0  0
 21  9  2  0  0  0  0
 22 10  2  0  0  0  0
 23 17  1  0  0  0  0
 24 17  2  0  0  0  0
 25 26  2  0  0  0  0
 26 21  1  0  0  0  0
 27 23  2  0  0  0  0
 28 24  1  0  0  0  0
 29 28  2  0  0  0  0
 14 13  1  0  0  0  0
  8 19  2  0  0  0  0
 25 22  1  0  0  0  0
 27 29  1  0  0  0  0
M  END
>  <IDNUMBER>
F0466-0040

>  <Chemical_Name>
3-(2,5-dioxopyrrolidin-1-yl)-N-(2-phenoxyphenyl)benzamide

>  <PriceCoeff>
1.00

>  <CAS>
391867-74-6

>  <MW>
386.40

>  <Description>
solid

>  <FSP3>
0.09

>  <clogP>
2.30

>  <TPSA>
75.71

>  <Acceptor>
4

>  <Donor>
1

>  <RotBonds>
5

>  <HAC>
29

>  <Collection>
General

>  <PPDS>
+

$$$$
F0466-0043
  Mrv2219 10102508112D          

 31 34  0  0  0  0            999 V2000
   -3.2194    4.5731    0.0000 N   0  0  0  0  0  0  0  0  0  0  0  0
    1.3885    3.9831    0.0000 C   0  0  0  0  0  0  0  0  0  0  0  0
   -2.4211    4.3648    0.0000 C   0  0  0  0  0  0  0  0  0  0  0  0
    1.9785    4.5731    0.0000 C   0  0  0  0  0  0  0  0  0  0  0  0
   -3.7921    3.9831    0.0000 C   0  0  0  0  0  0  0  0  0  0  0  0
   -3.5838    5.2760    0.0000 C   0  0  0  0  0  0  0  0  0  0  0  0
   -0.4598    5.2760    0.0000 C   0  0  0  0  0  0  0  0  0  0  0  0
    0.6248    4.2086    0.0000 C   0  0  0  0  0  0  0  0  0  0  0  0
    0.3472    5.0677    0.0000 N   0  0  0  0  0  0  0  0  0  0  0  0
   -1.8396    4.9375    0.0000 C   0  0  0  0  0  0  0  0  0  0  0  0
   -1.0413    4.6860    0.0000 C   0  0  0  0  0  0  0  0  0  0  0  0
    1.6661    3.1933    0.0000 C   0  0  0  0  0  0  0  0  0  0  0  0
   -0.6681    6.0657    0.0000 O   0  0  0  0  0  0  0  0  0  0  0  0
    1.7703    5.3541    0.0000 O   0  0  0  0  0  0  0  0  0  0  0  0
   -4.4169    5.1458    0.0000 C   0  0  0  0  0  0  0  0  0  0  0  0
   -4.5037    4.3648    0.0000 C   0  0  0  0  0  0  0  0  0  0  0  0
   -3.7140    3.1500    0.0000 O   0  0  0  0  0  0  0  0  0  0  0  0
   -3.2541    6.0657    0.0000 O   0  0  0  0  0  0  0  0  0  0  0  0
    2.7683    4.3648    0.0000 C   0  0  0  0  0  0  0  0  0  0  0  0
    0.0087    3.6099    0.0000 C   0  0  0  0  0  0  0  0  0  0  0  0
    1.0501    2.6033    0.0000 C   0  0  0  0  0  0  0  0  0  0  0  0
    0.2691    2.8116    0.0000 C   0  0  0  0  0  0  0  0  0  0  0  0
   -2.2128    3.5665    0.0000 C   0  0  0  0  0  0  0  0  0  0  0  0
   -0.8331    3.8962    0.0000 C   0  0  0  0  0  0  0  0  0  0  0  0
   -1.4231    3.3583    0.0000 C   0  0  0  0  0  0  0  0  0  0  0  0
    3.3410    4.8942    0.0000 C   0  0  0  0  0  0  0  0  0  0  0  0
    2.9765    3.5665    0.0000 C   0  0  0  0  0  0  0  0  0  0  0  0
    1.2583    1.7703    0.0000 C   0  0  0  0  0  0  0  0  0  0  0  0
    3.7575    3.3235    0.0000 C   0  0  0  0  0  0  0  0  0  0  0  0
    4.1653    4.6860    0.0000 C   0  0  0  0  0  0  0  0  0  0  0  0
    4.3736    3.8962    0.0000 C   0  0  0  0  0  0  0  0  0  0  0  0
  2  8  1  0  0  0  0
  3  1  1  0  0  0  0
  4  2  1  0  0  0  0
  5  1  1  0  0  0  0
  6  1  1  0  0  0  0
  7 11  1  0  0  0  0
  8  9  1  0  0  0  0
  9  7  1  0  0  0  0
 10  3  2  0  0  0  0
 11 10  1  0  0  0  0
 12  2  2  0  0  0  0
 13  7  2  0  0  0  0
 14  4  2  0  0  0  0
 15  6  1  0  0  0  0
 16  5  1  0  0  0  0
 17  5  2  0  0  0  0
 18  6  2  0  0  0  0
 19  4  1  0  0  0  0
 20  8  2  0  0  0  0
 21 22  2  0  0  0  0
 22 20  1  0  0  0  0
 23  3  1  0  0  0  0
 24 25  1  0  0  0  0
 25 23  2  0  0  0  0
 26 19  1  0  0  0  0
 27 19  2  0  0  0  0
 28 21  1  0  0  0  0
 29 27  1  0  0  0  0
 30 26  2  0  0  0  0
 31 29  2  0  0  0  0
 15 16  1  0  0  0  0
 11 24  2  0  0  0  0
 21 12  1  0  0  0  0
 31 30  1  0  0  0  0
M  END
>  <IDNUMBER>
F0466-0043

>  <Chemical_Name>
N-(2-benzoyl-4-methylphenyl)-3-(2,5-dioxopyrrolidin-1-yl)benzamide

>  <PriceCoeff>
1.00

>  <CAS>
391867-75-7

>  <MW>
412.44

>  <Description>
solid

>  <FSP3>
0.12

>  <clogP>
3.23

>  <TPSA>
83.55

>  <Acceptor>
4

>  <Donor>
1

>  <RotBonds>
5

>  <HAC>
31

>  <Collection>
General

>  <PPDS>
+

$$$$
F0466-0044
  Mrv2219 10102508112D          

 32 35  0  0  0  0            999 V2000
   -3.1720    3.2706    0.0000 N   0  0  0  0  0  0  0  0  0  0  0  0
    1.4783    2.8272    0.0000 C   0  0  0  0  0  0  0  0  0  0  0  0
    2.0696    3.4185    0.0000 C   0  0  0  0  0  0  0  0  0  0  0  0
   -2.3405    3.0612    0.0000 C   0  0  0  0  0  0  0  0  0  0  0  0
   -3.3753    4.0652    0.0000 C   0  0  0  0  0  0  0  0  0  0  0  0
   -3.8743    2.8272    0.0000 C   0  0  0  0  0  0  0  0  0  0  0  0
    2.8519    3.1782    0.0000 C   0  0  0  0  0  0  0  0  0  0  0  0
   -0.3881    4.0405    0.0000 C   0  0  0  0  0  0  0  0  0  0  0  0
    0.6344    3.0304    0.0000 C   0  0  0  0  0  0  0  0  0  0  0  0
    0.3943    3.8373    0.0000 N   0  0  0  0  0  0  0  0  0  0  0  0
   -1.7739    3.6525    0.0000 C   0  0  0  0  0  0  0  0  0  0  0  0
   -0.9793    3.4492    0.0000 C   0  0  0  0  0  0  0  0  0  0  0  0
    1.6693    2.0264    0.0000 C   0  0  0  0  0  0  0  0  0  0  0  0
    3.4062    3.7696    0.0000 C   0  0  0  0  0  0  0  0  0  0  0  0
    1.8478    4.2130    0.0000 O   0  0  0  0  0  0  0  0  0  0  0  0
   -0.6220    4.8044    0.0000 O   0  0  0  0  0  0  0  0  0  0  0  0
   -4.2068    4.0959    0.0000 C   0  0  0  0  0  0  0  0  0  0  0  0
   -4.5025    3.3568    0.0000 C   0  0  0  0  0  0  0  0  0  0  0  0
   -3.9359    1.9956    0.0000 O   0  0  0  0  0  0  0  0  0  0  0  0
   -2.8764    4.7489    0.0000 O   0  0  0  0  0  0  0  0  0  0  0  0
    0.0739    2.4392    0.0000 C   0  0  0  0  0  0  0  0  0  0  0  0
    1.0779    1.4351    0.0000 C   0  0  0  0  0  0  0  0  0  0  0  0
    3.2029    4.6319    0.0000 Cl  0  0  0  0  0  0  0  0  0  0  0  0
    0.2957    1.6446    0.0000 C   0  0  0  0  0  0  0  0  0  0  0  0
   -2.1373    2.2913    0.0000 C   0  0  0  0  0  0  0  0  0  0  0  0
    1.2812    0.6097    0.0000 Cl  0  0  0  0  0  0  0  0  0  0  0  0
    3.0551    2.4145    0.0000 C   0  0  0  0  0  0  0  0  0  0  0  0
   -0.7391    2.6547    0.0000 C   0  0  0  0  0  0  0  0  0  0  0  0
   -1.3305    2.0880    0.0000 C   0  0  0  0  0  0  0  0  0  0  0  0
    4.2130    3.5971    0.0000 C   0  0  0  0  0  0  0  0  0  0  0  0
    3.8497    2.1742    0.0000 C   0  0  0  0  0  0  0  0  0  0  0  0
    4.4410    2.8025    0.0000 C   0  0  0  0  0  0  0  0  0  0  0  0
  2  9  1  0  0  0  0
  3  2  1  0  0  0  0
  4  1  1  0  0  0  0
  5  1  1  0  0  0  0
  6  1  1  0  0  0  0
  7  3  1  0  0  0  0
  8 12  1  0  0  0  0
  9 10  1  0  0  0  0
 10  8  1  0  0  0  0
 11  4  2  0  0  0  0
 12 11  1  0  0  0  0
 13  2  2  0  0  0  0
 14  7  1  0  0  0  0
 15  3  2  0  0  0  0
 16  8  2  0  0  0  0
 17  5  1  0  0  0  0
 18  6  1  0  0  0  0
 19  6  2  0  0  0  0
 20  5  2  0  0  0  0
 21  9  2  0  0  0  0
 22 24  2  0  0  0  0
 23 14  1  0  0  0  0
 24 21  1  0  0  0  0
 25  4  1  0  0  0  0
 26 22  1  0  0  0  0
 27  7  2  0  0  0  0
 28 29  1  0  0  0  0
 29 25  2  0  0  0  0
 30 14  2  0  0  0  0
 31 27  1  0  0  0  0
 32 31  2  0  0  0  0
 17 18  1  0  0  0  0
 12 28  2  0  0  0  0
 22 13  1  0  0  0  0
 32 30  1  0  0  0  0
M  END
>  <IDNUMBER>
F0466-0044

>  <Chemical_Name>
N-[4-chloro-2-(2-chlorobenzoyl)phenyl]-3-(2,5-dioxopyrrolidin-1-yl)benzamide

>  <PriceCoeff>
1.00

>  <CAS>
391867-76-8

>  <MW>
467.30

>  <Description>
solid

>  <FSP3>
0.08

>  <clogP>
4.07

>  <TPSA>
83.55

>  <Acceptor>
4

>  <Donor>
1

>  <RotBonds>
5

>  <HAC>
32

>  <Collection>
General

>  <PPDS>
+

$$$$
F0466-0049
  Mrv2219 10102508112D          

 32 36  0  0  0  0            999 V2000
   -7.3251    3.8563    0.0000 N   0  0  0  0  0  0  0  0  0  0  0  0
   -2.4688    2.4188    0.0000 C   0  0  0  0  0  0  0  0  0  0  0  0
   -2.0438    1.7000    0.0000 C   0  0  0  0  0  0  0  0  0  0  0  0
   -1.2312    3.1063    0.0000 C   0  0  0  0  0  0  0  0  0  0  0  0
   -2.0438    3.1063    0.0000 C   0  0  0  0  0  0  0  0  0  0  0  0
   -1.2312    1.6688    0.0000 C   0  0  0  0  0  0  0  0  0  0  0  0
   -0.8187    2.4188    0.0000 C   0  0  0  0  0  0  0  0  0  0  0  0
   -6.9314    3.1438    0.0000 C   0  0  0  0  0  0  0  0  0  0  0  0
   -8.1689    3.9751    0.0000 C   0  0  0  0  0  0  0  0  0  0  0  0
   -6.9501    4.5751    0.0000 C   0  0  0  0  0  0  0  0  0  0  0  0
   -4.9251    2.3938    0.0000 C   0  0  0  0  0  0  0  0  0  0  0  0
   -4.5001    3.1063    0.0000 N   0  0  0  0  0  0  0  0  0  0  0  0
   -6.1251    3.1438    0.0000 C   0  0  0  0  0  0  0  0  0  0  0  0
   -5.7313    2.4188    0.0000 C   0  0  0  0  0  0  0  0  0  0  0  0
   -2.4688    3.8251    0.0000 C   0  0  0  0  0  0  0  0  0  0  0  0
   -3.2750    2.4188    0.0000 C   0  0  0  0  0  0  0  0  0  0  0  0
   -2.4313    0.9750    0.0000 O   0  0  0  0  0  0  0  0  0  0  0  0
   -3.6938    3.1063    0.0000 C   0  0  0  0  0  0  0  0  0  0  0  0
   -0.7812    3.8251    0.0000 O   0  0  0  0  0  0  0  0  0  0  0  0
   -4.5001    1.6688    0.0000 O   0  0  0  0  0  0  0  0  0  0  0  0
   -8.2502    4.7938    0.0000 C   0  0  0  0  0  0  0  0  0  0  0  0
   -7.5314    5.1688    0.0000 C   0  0  0  0  0  0  0  0  0  0  0  0
   -8.7689    3.3688    0.0000 O   0  0  0  0  0  0  0  0  0  0  0  0
   -6.1251    4.6813    0.0000 O   0  0  0  0  0  0  0  0  0  0  0  0
   -3.2750    3.8563    0.0000 C   0  0  0  0  0  0  0  0  0  0  0  0
   -7.3626    2.4188    0.0000 C   0  0  0  0  0  0  0  0  0  0  0  0
   -0.8187    0.9500    0.0000 C   0  0  0  0  0  0  0  0  0  0  0  0
    0.0063    2.4188    0.0000 C   0  0  0  0  0  0  0  0  0  0  0  0
   -6.1251    1.7000    0.0000 C   0  0  0  0  0  0  0  0  0  0  0  0
   -6.9689    1.7000    0.0000 C   0  0  0  0  0  0  0  0  0  0  0  0
    0.4500    1.7000    0.0000 C   0  0  0  0  0  0  0  0  0  0  0  0
    0.0063    0.9500    0.0000 C   0  0  0  0  0  0  0  0  0  0  0  0
  2 16  1  0  0  0  0
  3  2  1  0  0  0  0
  4  5  1  0  0  0  0
  5 15  1  0  0  0  0
  6  3  1  0  0  0  0
  7  4  1  0  0  0  0
  8  1  1  0  0  0  0
  9  1  1  0  0  0  0
 10  1  1  0  0  0  0
 11 14  1  0  0  0  0
 12 11  1  0  0  0  0
 13  8  2  0  0  0  0
 14 13  1  0  0  0  0
 15 25  2  0  0  0  0
 16 18  2  0  0  0  0
 17  3  2  0  0  0  0
 18 12  1  0  0  0  0
 19  4  2  0  0  0  0
 20 11  2  0  0  0  0
 21  9  1  0  0  0  0
 22 10  1  0  0  0  0
 23  9  2  0  0  0  0
 24 10  2  0  0  0  0
 25 18  1  0  0  0  0
 26  8  1  0  0  0  0
 27  6  1  0  0  0  0
 28  7  1  0  0  0  0
 29 30  1  0  0  0  0
 30 26  2  0  0  0  0
 31 28  2  0  0  0  0
 32 27  2  0  0  0  0
 21 22  1  0  0  0  0
 29 14  2  0  0  0  0
  5  2  2  0  0  0  0
  7  6  2  0  0  0  0
 31 32  1  0  0  0  0
M  END
>  <IDNUMBER>
F0466-0049

>  <Chemical_Name>
N-(9,10-dioxo-9,10-dihydroanthracen-2-yl)-3-(2,5-dioxopyrrolidin-1-yl)benzamide

>  <PriceCoeff>
1.00

>  <CAS>
476322-98-2

>  <MW>
424.40

>  <Description>
solid

>  <FSP3>
0.08

>  <clogP>
2.55

>  <TPSA>
100.62

>  <Acceptor>
5

>  <Donor>
1

>  <RotBonds>
3

>  <HAC>
32

>  <Collection>
General

>  <PPDS>
+

$$$$
F0466-0054
  Mrv2219 10102508112D          

 27 29  0  0  0  0            999 V2000
   -7.5976    3.7213    0.0000 N   0  0  0  0  0  0  0  0  0  0  0  0
   -7.0111    3.1752    0.0000 C   0  0  0  0  0  0  0  0  0  0  0  0
   -1.8539    2.8651    0.0000 C   0  0  0  0  0  0  0  0  0  0  0  0
   -8.4268    3.5797    0.0000 C   0  0  0  0  0  0  0  0  0  0  0  0
   -7.4763    4.5303    0.0000 C   0  0  0  0  0  0  0  0  0  0  0  0
   -4.7730    2.9864    0.0000 C   0  0  0  0  0  0  0  0  0  0  0  0
   -4.5235    3.7954    0.0000 N   0  0  0  0  0  0  0  0  0  0  0  0
   -3.7145    3.9572    0.0000 C   0  0  0  0  0  0  0  0  0  0  0  0
   -2.3460    3.4988    0.0000 C   0  0  0  0  0  0  0  0  0  0  0  0
   -6.2021    3.3977    0.0000 C   0  0  0  0  0  0  0  0  0  0  0  0
   -5.6156    2.7842    0.0000 C   0  0  0  0  0  0  0  0  0  0  0  0
   -3.1550    3.3370    0.0000 C   0  0  0  0  0  0  0  0  0  0  0  0
   -3.4516    4.7257    0.0000 C   0  0  0  0  0  0  0  0  0  0  0  0
   -4.2269    2.3999    0.0000 O   0  0  0  0  0  0  0  0  0  0  0  0
   -8.7706    4.3078    0.0000 C   0  0  0  0  0  0  0  0  0  0  0  0
   -8.2043    4.8875    0.0000 C   0  0  0  0  0  0  0  0  0  0  0  0
   -8.7706    2.7842    0.0000 O   0  0  0  0  0  0  0  0  0  0  0  0
   -6.7280    4.8875    0.0000 O   0  0  0  0  0  0  0  0  0  0  0  0
   -2.0561    4.3078    0.0000 C   0  0  0  0  0  0  0  0  0  0  0  0
   -2.6696    4.9280    0.0000 C   0  0  0  0  0  0  0  0  0  0  0  0
   -2.1370    2.0561    0.0000 F   0  0  0  0  0  0  0  0  0  0  0  0
   -1.1056    3.0134    0.0000 F   0  0  0  0  0  0  0  0  0  0  0  0
   -1.3146    2.2651    0.0000 F   0  0  0  0  0  0  0  0  0  0  0  0
   -3.9977    5.2111    0.0000 Cl  0  0  0  0  0  0  0  0  0  0  0  0
   -7.2336    2.3999    0.0000 C   0  0  0  0  0  0  0  0  0  0  0  0
   -5.8449    2.0157    0.0000 C   0  0  0  0  0  0  0  0  0  0  0  0
   -6.6539    1.7798    0.0000 C   0  0  0  0  0  0  0  0  0  0  0  0
  2  1  1  0  0  0  0
  3  9  1  0  0  0  0
  4  1  1  0  0  0  0
  5  1  1  0  0  0  0
  6 11  1  0  0  0  0
  7  6  1  0  0  0  0
  8  7  1  0  0  0  0
  9 12  1  0  0  0  0
 10  2  2  0  0  0  0
 11 10  1  0  0  0  0
 12  8  2  0  0  0  0
 13  8  1  0  0  0  0
 14  6  2  0  0  0  0
 15  4  1  0  0  0  0
 16  5  1  0  0  0  0
 17  4  2  0  0  0  0
 18  5  2  0  0  0  0
 19 20  1  0  0  0  0
 20 13  2  0  0  0  0
 21  3  1  0  0  0  0
 22  3  1  0  0  0  0
 23  3  1  0  0  0  0
 24 13  1  0  0  0  0
 25  2  1  0  0  0  0
 26 27  1  0  0  0  0
 27 25  2  0  0  0  0
 15 16  1  0  0  0  0
 26 11  2  0  0  0  0
 19  9  2  0  0  0  0
M  END
>  <IDNUMBER>
F0466-0054

>  <Chemical_Name>
N-[2-chloro-5-(trifluoromethyl)phenyl]-3-(2,5-dioxopyrrolidin-1-yl)benzamide

>  <PriceCoeff>
1.00

>  <MW>
396.75

>  <Description>
solid

>  <FSP3>
0.17

>  <clogP>
2.08

>  <TPSA>
66.48

>  <Acceptor>
3

>  <Donor>
1

>  <RotBonds>
3

>  <HAC>
27

>  <Collection>
General

$$$$
F0466-0056
  Mrv2219 10102508112D          

 25 28  0  0  0  0            999 V2000
   -0.9404   -1.2824    0.0000 N   0  0  0  0  0  0  0  0  0  0  0  0
   -0.7053   -0.4774    0.0000 C   0  0  0  0  0  0  0  0  0  0  0  0
   -0.4630   -1.9663    0.0000 C   0  0  0  0  0  0  0  0  0  0  0  0
   -1.7098   -1.5033    0.0000 C   0  0  0  0  0  0  0  0  0  0  0  0
   -1.5958    1.5317    0.0000 C   0  0  0  0  0  0  0  0  0  0  0  0
   -2.4151    1.3179    0.0000 N   0  0  0  0  0  0  0  0  0  0  0  0
   -4.3956    2.3866    0.0000 C   0  0  0  0  0  0  0  0  0  0  0  0
   -1.2824    0.1211    0.0000 C   0  0  0  0  0  0  0  0  0  0  0  0
   -1.0187    0.9118    0.0000 C   0  0  0  0  0  0  0  0  0  0  0  0
   -3.8471    1.7668    0.0000 C   0  0  0  0  0  0  0  0  0  0  0  0
   -4.1605    3.1632    0.0000 C   0  0  0  0  0  0  0  0  0  0  0  0
   -5.2150    2.3866    0.0000 O   0  0  0  0  0  0  0  0  0  0  0  0
   -3.0278    1.9663    0.0000 C   0  0  0  0  0  0  0  0  0  0  0  0
   -4.8444    3.6476    0.0000 O   0  0  0  0  0  0  0  0  0  0  0  0
   -5.4928    3.1346    0.0000 C   0  0  0  0  0  0  0  0  0  0  0  0
   -1.3179    2.3083    0.0000 O   0  0  0  0  0  0  0  0  0  0  0  0
   -0.9760   -2.5719    0.0000 C   0  0  0  0  0  0  0  0  0  0  0  0
   -1.7454   -2.3083    0.0000 C   0  0  0  0  0  0  0  0  0  0  0  0
    0.4275   -1.9663    0.0000 O   0  0  0  0  0  0  0  0  0  0  0  0
   -2.3652   -0.9476    0.0000 O   0  0  0  0  0  0  0  0  0  0  0  0
   -3.3342    3.3697    0.0000 C   0  0  0  0  0  0  0  0  0  0  0  0
   -2.7927    2.7571    0.0000 C   0  0  0  0  0  0  0  0  0  0  0  0
    0.0927   -0.3064    0.0000 C   0  0  0  0  0  0  0  0  0  0  0  0
   -0.1924    1.0828    0.0000 C   0  0  0  0  0  0  0  0  0  0  0  0
    0.3420    0.4630    0.0000 C   0  0  0  0  0  0  0  0  0  0  0  0
  2  1  1  0  0  0  0
  3  1  1  0  0  0  0
  4  1  1  0  0  0  0
  5  9  1  0  0  0  0
  6  5  1  0  0  0  0
  7 10  1  0  0  0  0
  8  2  2  0  0  0  0
  9  8  1  0  0  0  0
 10 13  2  0  0  0  0
 11 21  1  0  0  0  0
 12  7  1  0  0  0  0
 13  6  1  0  0  0  0
 14 11  1  0  0  0  0
 15 12  1  0  0  0  0
 16  5  2  0  0  0  0
 17  3  1  0  0  0  0
 18  4  1  0  0  0  0
 19  3  2  0  0  0  0
 20  4  2  0  0  0  0
 21 22  2  0  0  0  0
 22 13  1  0  0  0  0
 23  2  1  0  0  0  0
 24 25  1  0  0  0  0
 25 23  2  0  0  0  0
 17 18  1  0  0  0  0
 24  9  2  0  0  0  0
  7 11  2  0  0  0  0
 14 15  1  0  0  0  0
M  END
>  <IDNUMBER>
F0466-0056

>  <Chemical_Name>
N-(2H-1,3-benzodioxol-5-yl)-3-(2,5-dioxopyrrolidin-1-yl)benzamide

>  <PriceCoeff>
1.00

>  <CAS>
391867-81-5

>  <MW>
338.31

>  <Description>
solid

>  <FSP3>
0.17

>  <clogP>
0.85

>  <TPSA>
84.94

>  <Acceptor>
5

>  <Donor>
1

>  <RotBonds>
3

>  <HAC>
25

>  <Collection>
General

>  <PPDS>
+

$$$$
F0466-0057
  Mrv2219 10102508112D          

 27 30  0  0  0  0            999 V2000
    0.0000    0.7641    0.0000 C   0  0  0  0  0  0  0  0  0  0  0  0
    0.5165    0.1202    0.0000 C   0  0  0  0  0  0  0  0  0  0  0  0
   -3.7567    2.7945    0.0000 N   0  0  0  0  0  0  0  0  0  0  0  0
    0.4245    1.4645    0.0000 S   0  0  0  0  0  0  0  0  0  0  0  0
    1.2735    0.4598    0.0000 C   0  0  0  0  0  0  0  0  0  0  0  0
   -0.8702    0.7357    0.0000 N   0  0  0  0  0  0  0  0  0  0  0  0
    1.1957    1.2735    0.0000 C   0  0  0  0  0  0  0  0  0  0  0  0
   -3.3675    2.0588    0.0000 C   0  0  0  0  0  0  0  0  0  0  0  0
   -1.2947    1.3937    0.0000 C   0  0  0  0  0  0  0  0  0  0  0  0
   -4.5773    2.9218    0.0000 C   0  0  0  0  0  0  0  0  0  0  0  0
   -3.3675    3.4808    0.0000 C   0  0  0  0  0  0  0  0  0  0  0  0
    0.3043   -0.6792    0.0000 C   0  0  0  0  0  0  0  0  0  0  0  0
    0.0920   -1.4928    0.0000 N   0  0  0  0  0  0  0  0  0  0  0  0
   -2.5682    2.0729    0.0000 C   0  0  0  0  0  0  0  0  0  0  0  0
   -2.1153    1.3937    0.0000 C   0  0  0  0  0  0  0  0  0  0  0  0
   -0.8843    2.1224    0.0000 O   0  0  0  0  0  0  0  0  0  0  0  0
   -4.6622    3.7284    0.0000 C   0  0  0  0  0  0  0  0  0  0  0  0
   -3.9053    4.0680    0.0000 C   0  0  0  0  0  0  0  0  0  0  0  0
   -5.1788    2.3135    0.0000 O   0  0  0  0  0  0  0  0  0  0  0  0
   -2.5469    3.5657    0.0000 O   0  0  0  0  0  0  0  0  0  0  0  0
    2.0375    0.1061    0.0000 C   0  0  0  0  0  0  0  0  0  0  0  0
   -3.8133    1.3512    0.0000 C   0  0  0  0  0  0  0  0  0  0  0  0
    1.8677    1.7545    0.0000 C   0  0  0  0  0  0  0  0  0  0  0  0
   -2.5398    0.6720    0.0000 C   0  0  0  0  0  0  0  0  0  0  0  0
   -3.3463    0.6155    0.0000 C   0  0  0  0  0  0  0  0  0  0  0  0
    2.6814    0.5943    0.0000 C   0  0  0  0  0  0  0  0  0  0  0  0
    2.5965    1.4149    0.0000 C   0  0  0  0  0  0  0  0  0  0  0  0
  2  1  2  0  0  0  0
  3  8  1  0  0  0  0
  4  1  1  0  0  0  0
  5  2  1  0  0  0  0
  6  1  1  0  0  0  0
  7  4  1  0  0  0  0
  8 14  2  0  0  0  0
  9  6  1  0  0  0  0
 10  3  1  0  0  0  0
 11  3  1  0  0  0  0
 12  2  1  0  0  0  0
 13 12  3  0  0  0  0
 14 15  1  0  0  0  0
 15  9  1  0  0  0  0
 16  9  2  0  0  0  0
 17 10  1  0  0  0  0
 18 11  1  0  0  0  0
 19 10  2  0  0  0  0
 20 11  2  0  0  0  0
 21  5  1  0  0  0  0
 22 25  2  0  0  0  0
 23  7  1  0  0  0  0
 24 15  2  0  0  0  0
 25 24  1  0  0  0  0
 26 21  1  0  0  0  0
 27 23  1  0  0  0  0
  7  5  2  0  0  0  0
 27 26  1  0  0  0  0
  8 22  1  0  0  0  0
 17 18  1  0  0  0  0
M  END
>  <IDNUMBER>
F0466-0057

>  <Chemical_Name>
N-(3-cyano-4,5,6,7-tetrahydro-1-benzothiophen-2-yl)-3-(2,5-dioxopyrrolidin-1-yl)benzamide

>  <PriceCoeff>
1.00

>  <CAS>
391867-82-6

>  <MW>
379.43

>  <Description>
solid

>  <FSP3>
0.30

>  <clogP>
1.43

>  <TPSA>
118.51

>  <Acceptor>
4

>  <Donor>
1

>  <RotBonds>
3

>  <HAC>
27

>  <Collection>
General

>  <PPDS>
+

$$$$
F0466-0059
  Mrv2219 10102508112D          

 28 31  0  0  0  0            999 V2000
   -1.6760    2.4373    0.0000 C   0  0  0  0  0  0  0  0  0  0  0  0
   -0.8213    2.4240    0.0000 C   0  0  0  0  0  0  0  0  0  0  0  0
   -2.1034    3.0783    0.0000 N   0  0  0  0  0  0  0  0  0  0  0  0
   -2.1969    1.7629    0.0000 N   0  0  0  0  0  0  0  0  0  0  0  0
    2.0901    0.3138    0.0000 N   0  0  0  0  0  0  0  0  0  0  0  0
   -0.4007    1.6828    0.0000 C   0  0  0  0  0  0  0  0  0  0  0  0
    1.6494    0.9816    0.0000 C   0  0  0  0  0  0  0  0  0  0  0  0
   -2.8847    2.9048    0.0000 C   0  0  0  0  0  0  0  0  0  0  0  0
    2.9115    0.2737    0.0000 C   0  0  0  0  0  0  0  0  0  0  0  0
    1.7896   -0.4274    0.0000 C   0  0  0  0  0  0  0  0  0  0  0  0
   -2.9581    2.0834    0.0000 C   0  0  0  0  0  0  0  0  0  0  0  0
   -0.3939    3.1384    0.0000 C   0  0  0  0  0  0  0  0  0  0  0  0
    0.4007    1.6828    0.0000 C   0  0  0  0  0  0  0  0  0  0  0  0
    0.8013    0.9616    0.0000 C   0  0  0  0  0  0  0  0  0  0  0  0
    0.0000    3.8396    0.0000 N   0  0  0  0  0  0  0  0  0  0  0  0
   -0.8547    0.9816    0.0000 O   0  0  0  0  0  0  0  0  0  0  0  0
    3.0918   -0.5076    0.0000 C   0  0  0  0  0  0  0  0  0  0  0  0
    2.4107   -0.9282    0.0000 C   0  0  0  0  0  0  0  0  0  0  0  0
    3.4456    0.9548    0.0000 O   0  0  0  0  0  0  0  0  0  0  0  0
    0.9683   -0.6077    0.0000 O   0  0  0  0  0  0  0  0  0  0  0  0
   -1.7562    3.8997    0.0000 C   0  0  0  0  0  0  0  0  0  0  0  0
    2.0300    1.6560    0.0000 C   0  0  0  0  0  0  0  0  0  0  0  0
    0.8080    2.3972    0.0000 C   0  0  0  0  0  0  0  0  0  0  0  0
   -3.5591    3.3855    0.0000 C   0  0  0  0  0  0  0  0  0  0  0  0
   -3.7061    1.7361    0.0000 C   0  0  0  0  0  0  0  0  0  0  0  0
    1.6094    2.3972    0.0000 C   0  0  0  0  0  0  0  0  0  0  0  0
   -4.3271    3.0383    0.0000 C   0  0  0  0  0  0  0  0  0  0  0  0
   -4.4072    2.2169    0.0000 C   0  0  0  0  0  0  0  0  0  0  0  0
  2  1  2  0  0  0  0
  3  1  1  0  0  0  0
  4  1  1  0  0  0  0
  5  7  1  0  0  0  0
  6  2  1  0  0  0  0
  7 14  2  0  0  0  0
  8  3  1  0  0  0  0
  9  5  1  0  0  0  0
 10  5  1  0  0  0  0
 11  4  1  0  0  0  0
 12  2  1  0  0  0  0
 13  6  1  0  0  0  0
 14 13  1  0  0  0  0
 15 12  3  0  0  0  0
 16  6  2  0  0  0  0
 17  9  1  0  0  0  0
 18 10  1  0  0  0  0
 19  9  2  0  0  0  0
 20 10  2  0  0  0  0
 21  3  1  0  0  0  0
 22 26  2  0  0  0  0
 23 13  2  0  0  0  0
 24  8  1  0  0  0  0
 25 11  1  0  0  0  0
 26 23  1  0  0  0  0
 27 24  2  0  0  0  0
 28 25  2  0  0  0  0
  8 11  2  0  0  0  0
 27 28  1  0  0  0  0
  7 22  1  0  0  0  0
 17 18  1  0  0  0  0
M  END
>  <IDNUMBER>
F0466-0059

>  <Chemical_Name>
3-[3-(2,5-dioxopyrrolidin-1-yl)phenyl]-2-[(2E)-1-methyl-2,3-dihydro-1H-1,3-benzodiazol-2-ylidene]-3-oxopropanenitrile

>  <PriceCoeff>
1.00

>  <CAS>
476322-99-3

>  <MW>
372.38

>  <Description>
solid

>  <FSP3>
0.14

>  <clogP>
1.81

>  <TPSA>
93.51

>  <Acceptor>
6

>  <Donor>
2

>  <RotBonds>
3

>  <HAC>
28

>  <Collection>
General

>  <PPDS>
+

$$$$
F0466-0060
  Mrv2219 10102508112D          

 28 31  0  0  0  0            999 V2000
    0.4308    2.8869    0.0000 C   0  0  0  0  0  0  0  0  0  0  0  0
    1.3117    2.8741    0.0000 C   0  0  0  0  0  0  0  0  0  0  0  0
   -3.2341    1.9803    0.0000 N   0  0  0  0  0  0  0  0  0  0  0  0
    0.1994    2.0575    0.0000 S   0  0  0  0  0  0  0  0  0  0  0  0
    1.5496    2.1025    0.0000 C   0  0  0  0  0  0  0  0  0  0  0  0
    0.0258    3.5685    0.0000 N   0  0  0  0  0  0  0  0  0  0  0  0
    0.9259    1.5945    0.0000 C   0  0  0  0  0  0  0  0  0  0  0  0
   -2.4433    2.0575    0.0000 C   0  0  0  0  0  0  0  0  0  0  0  0
   -0.7909    3.5685    0.0000 C   0  0  0  0  0  0  0  0  0  0  0  0
   -3.6971    1.3052    0.0000 C   0  0  0  0  0  0  0  0  0  0  0  0
   -3.7357    2.6169    0.0000 C   0  0  0  0  0  0  0  0  0  0  0  0
    1.7746    3.5428    0.0000 C   0  0  0  0  0  0  0  0  0  0  0  0
    2.2826    4.1986    0.0000 N   0  0  0  0  0  0  0  0  0  0  0  0
   -2.0254    2.7970    0.0000 C   0  0  0  0  0  0  0  0  0  0  0  0
   -1.1895    2.8291    0.0000 C   0  0  0  0  0  0  0  0  0  0  0  0
   -1.2088    4.2758    0.0000 O   0  0  0  0  0  0  0  0  0  0  0  0
   -4.4687    1.5367    0.0000 C   0  0  0  0  0  0  0  0  0  0  0  0
   -4.5072    2.3083    0.0000 C   0  0  0  0  0  0  0  0  0  0  0  0
   -3.3692    0.4950    0.0000 O   0  0  0  0  0  0  0  0  0  0  0  0
   -3.4721    3.4142    0.0000 O   0  0  0  0  0  0  0  0  0  0  0  0
    2.3598    1.8453    0.0000 C   0  0  0  0  0  0  0  0  0  0  0  0
   -1.9610    1.3824    0.0000 C   0  0  0  0  0  0  0  0  0  0  0  0
    0.8552    0.7716    0.0000 C   0  0  0  0  0  0  0  0  0  0  0  0
   -0.7651    2.1604    0.0000 C   0  0  0  0  0  0  0  0  0  0  0  0
   -1.1316    1.4402    0.0000 C   0  0  0  0  0  0  0  0  0  0  0  0
    2.6684    1.0802    0.0000 C   0  0  0  0  0  0  0  0  0  0  0  0
    1.5111    0.2315    0.0000 C   0  0  0  0  0  0  0  0  0  0  0  0
    2.2441    0.3793    0.0000 C   0  0  0  0  0  0  0  0  0  0  0  0
  2  1  2  0  0  0  0
  3  8  1  0  0  0  0
  4  1  1  0  0  0  0
  5  2  1  0  0  0  0
  6  1  1  0  0  0  0
  7  4  1  0  0  0  0
  8 14  2  0  0  0  0
  9  6  1  0  0  0  0
 10  3  1  0  0  0  0
 11  3  1  0  0  0  0
 12  2  1  0  0  0  0
 13 12  3  0  0  0  0
 14 15  1  0  0  0  0
 15  9  1  0  0  0  0
 16  9  2  0  0  0  0
 17 10  1  0  0  0  0
 18 11  1  0  0  0  0
 19 10  2  0  0  0  0
 20 11  2  0  0  0  0
 21  5  1  0  0  0  0
 22 25  2  0  0  0  0
 23  7  1  0  0  0  0
 24 15  2  0  0  0  0
 25 24  1  0  0  0  0
 26 21  1  0  0  0  0
 27 23  1  0  0  0  0
 28 27  1  0  0  0  0
  7  5  2  0  0  0  0
 28 26  1  0  0  0  0
 22  8  1  0  0  0  0
 17 18  1  0  0  0  0
M  END
>  <IDNUMBER>
F0466-0060

>  <Chemical_Name>
N-{3-cyano-4H,5H,6H,7H,8H-cyclohepta[b]thiophen-2-yl}-3-(2,5-dioxopyrrolidin-1-yl)benzamide

>  <PriceCoeff>
1.00

>  <CAS>
391867-83-7

>  <MW>
393.46

>  <Description>
solid

>  <FSP3>
0.33

>  <clogP>
1.99

>  <TPSA>
118.51

>  <Acceptor>
4

>  <Donor>
1

>  <RotBonds>
3

>  <HAC>
28

>  <Collection>
General

>  <PPDS>
+

$$$$
F0466-0061
  Mrv2219 10102508112D          

 32 35  0  0  0  0            999 V2000
   -0.9032    1.5367    0.0000 C   0  0  0  0  0  0  0  0  0  0  0  0
   -1.3297    0.8468    0.0000 C   0  0  0  0  0  0  0  0  0  0  0  0
   -0.0941    1.3736    0.0000 S   0  0  0  0  0  0  0  0  0  0  0  0
   -5.1371   -1.1290    0.0000 N   0  0  0  0  0  0  0  0  0  0  0  0
    0.0000    0.5770    0.0000 C   0  0  0  0  0  0  0  0  0  0  0  0
   -0.7527    0.2571    0.0000 C   0  0  0  0  0  0  0  0  0  0  0  0
   -4.6979   -0.4516    0.0000 C   0  0  0  0  0  0  0  0  0  0  0  0
   -2.1263    0.8468    0.0000 N   0  0  0  0  0  0  0  0  0  0  0  0
   -4.8673   -1.9570    0.0000 C   0  0  0  0  0  0  0  0  0  0  0  0
   -5.9587   -1.1290    0.0000 C   0  0  0  0  0  0  0  0  0  0  0  0
   -2.5152    0.1442    0.0000 C   0  0  0  0  0  0  0  0  0  0  0  0
   -1.2043    2.3270    0.0000 C   0  0  0  0  0  0  0  0  0  0  0  0
   -3.8575   -0.4956    0.0000 C   0  0  0  0  0  0  0  0  0  0  0  0
   -3.3871    0.1505    0.0000 C   0  0  0  0  0  0  0  0  0  0  0  0
    0.6774    0.1505    0.0000 C   0  0  0  0  0  0  0  0  0  0  0  0
   -2.1075   -0.5332    0.0000 O   0  0  0  0  0  0  0  0  0  0  0  0
   -5.5887   -2.4086    0.0000 C   0  0  0  0  0  0  0  0  0  0  0  0
   -6.2598   -1.8880    0.0000 C   0  0  0  0  0  0  0  0  0  0  0  0
   -4.0582   -2.2267    0.0000 O   0  0  0  0  0  0  0  0  0  0  0  0
   -6.3978   -0.3827    0.0000 O   0  0  0  0  0  0  0  0  0  0  0  0
   -0.7087    2.9856    0.0000 O   0  0  0  0  0  0  0  0  0  0  0  0
   -2.0322    2.4775    0.0000 O   0  0  0  0  0  0  0  0  0  0  0  0
   -5.0618    0.2258    0.0000 C   0  0  0  0  0  0  0  0  0  0  0  0
   -3.7947    0.9032    0.0000 C   0  0  0  0  0  0  0  0  0  0  0  0
   -4.6227    0.9345    0.0000 C   0  0  0  0  0  0  0  0  0  0  0  0
    0.6774   -0.6273    0.0000 C   0  0  0  0  0  0  0  0  0  0  0  0
    1.3800    0.5770    0.0000 C   0  0  0  0  0  0  0  0  0  0  0  0
   -2.3082    3.2114    0.0000 C   0  0  0  0  0  0  0  0  0  0  0  0
   -3.1549    3.3619    0.0000 C   0  0  0  0  0  0  0  0  0  0  0  0
    1.3612   -1.0601    0.0000 C   0  0  0  0  0  0  0  0  0  0  0  0
    2.1075    0.1694    0.0000 C   0  0  0  0  0  0  0  0  0  0  0  0
    2.1075   -0.6085    0.0000 C   0  0  0  0  0  0  0  0  0  0  0  0
  2  1  2  0  0  0  0
  3  1  1  0  0  0  0
  4  7  1  0  0  0  0
  5  3  1  0  0  0  0
  6  2  1  0  0  0  0
  7 13  2  0  0  0  0
  8  2  1  0  0  0  0
  9  4  1  0  0  0  0
 10  4  1  0  0  0  0
 11  8  1  0  0  0  0
 12  1  1  0  0  0  0
 13 14  1  0  0  0  0
 14 11  1  0  0  0  0
 15  5  1  0  0  0  0
 16 11  2  0  0  0  0
 17  9  1  0  0  0  0
 18 10  1  0  0  0  0
 19  9  2  0  0  0  0
 20 10  2  0  0  0  0
 21 12  2  0  0  0  0
 22 12  1  0  0  0  0
 23 25  2  0  0  0  0
 24 14  2  0  0  0  0
 25 24  1  0  0  0  0
 26 15  1  0  0  0  0
 27 15  2  0  0  0  0
 28 22  1  0  0  0  0
 29 28  1  0  0  0  0
 30 26  2  0  0  0  0
 31 27  1  0  0  0  0
 32 31  2  0  0  0  0
  5  6  2  0  0  0  0
 30 32  1  0  0  0  0
  7 23  1  0  0  0  0
 17 18  1  0  0  0  0
M  END
>  <IDNUMBER>
F0466-0061

>  <Chemical_Name>
ethyl 3-[3-(2,5-dioxopyrrolidin-1-yl)benzamido]-5-phenylthiophene-2-carboxylate

>  <PriceCoeff>
1.00

>  <CAS>
391867-84-8

>  <MW>
448.49

>  <Description>
solid

>  <FSP3>
0.17

>  <clogP>
3.59

>  <TPSA>
121.02

>  <Acceptor>
5

>  <Donor>
1

>  <RotBonds>
7

>  <HAC>
32

>  <Collection>
General

>  <PPDS>
+

$$$$
F0466-0262
  Mrv2219 10102508112D          

 24 26  0  0  0  0            999 V2000
    3.0057    2.2042    0.0000 C   0  0  0  0  0  0  0  0  0  0  0  0
   -2.3461    0.5260    0.0000 N   0  0  0  0  0  0  0  0  0  0  0  0
    3.6153    1.6948    0.0000 N   0  3  0  0  0  0  0  0  0  0  0  0
    0.3340    2.2960    0.0000 N   0  0  0  0  0  0  0  0  0  0  0  0
    0.9017    2.8971    0.0000 C   0  0  0  0  0  0  0  0  0  0  0  0
   -0.4008    2.6967    0.0000 C   0  0  0  0  0  0  0  0  0  0  0  0
    2.1375    2.0038    0.0000 C   0  0  0  0  0  0  0  0  0  0  0  0
    1.7032    2.7302    0.0000 C   0  0  0  0  0  0  0  0  0  0  0  0
   -1.2023    2.4046    0.0000 N   0  0  0  0  0  0  0  0  0  0  0  0
   -1.8034   -0.1002    0.0000 C   0  0  0  0  0  0  0  0  0  0  0  0
   -3.1059    0.2421    0.0000 C   0  0  0  0  0  0  0  0  0  0  0  0
    2.2627    3.3730    0.0000 S   0  0  0  0  0  0  0  0  0  0  0  0
    3.0141    3.0057    0.0000 C   0  0  0  0  0  0  0  0  0  0  0  0
   -0.2421    3.4983    0.0000 S   0  0  0  0  0  0  0  0  0  0  0  0
    0.6011    3.6069    0.0000 C   0  0  0  0  0  0  0  0  0  0  0  0
   -1.3692    1.5696    0.0000 C   0  0  0  0  0  0  0  0  0  0  0  0
   -2.1707    1.3275    0.0000 C   0  0  0  0  0  0  0  0  0  0  0  0
    4.3834    1.9704    0.0000 O   0  5  0  0  0  0  0  0  0  0  0  0
    3.5067    0.8933    0.0000 O   0  0  0  0  0  0  0  0  0  0  0  0
   -2.2960   -0.8015    0.0000 C   0  0  0  0  0  0  0  0  0  0  0  0
   -3.0474   -0.5595    0.0000 C   0  0  0  0  0  0  0  0  0  0  0  0
   -0.9268   -0.0084    0.0000 O   0  0  0  0  0  0  0  0  0  0  0  0
   -3.7738    0.7264    0.0000 O   0  0  0  0  0  0  0  0  0  0  0  0
   -0.7264    1.0019    0.0000 O   0  0  0  0  0  0  0  0  0  0  0  0
  2 17  1  0  0  0  0
  3  1  1  0  0  0  0
  4  5  1  0  0  0  0
  5  8  1  0  0  0  0
  6  4  2  0  0  0  0
  7  1  1  0  0  0  0
  8  7  2  0  0  0  0
  9  6  1  0  0  0  0
 10  2  1  0  0  0  0
 11  2  1  0  0  0  0
 12 13  1  0  0  0  0
 13  1  2  0  0  0  0
 14 15  1  0  0  0  0
 15  5  2  0  0  0  0
 16  9  1  0  0  0  0
 17 16  1  0  0  0  0
 18  3  1  0  0  0  0
 19  3  2  0  0  0  0
 20 10  1  0  0  0  0
 21 11  1  0  0  0  0
 22 10  2  0  0  0  0
 23 11  2  0  0  0  0
 24 16  2  0  0  0  0
  8 12  1  0  0  0  0
  6 14  1  0  0  0  0
 20 21  1  0  0  0  0
M  CHG  2   3   1  18  -1
M  END
>  <IDNUMBER>
F0466-0262

>  <Chemical_Name>
2-(2,5-dioxopyrrolidin-1-yl)-N-[4-(4-nitrothiophen-2-yl)-1,3-thiazol-2-yl]acetamide

>  <PriceCoeff>
1.00

>  <CAS>
476323-79-2

>  <MW>
366.37

>  <Description>
solid

>  <FSP3>
0.23

>  <clogP>
1.60

>  <TPSA>
178.99

>  <Acceptor>
6

>  <Donor>
1

>  <RotBonds>
5

>  <HAC>
24

>  <Collection>
General

>  <PPDS>
+

$$$$
F0472-0061
  Mrv2219 10102508112D          

 26 29  0  0  0  0            999 V2000
    6.3496   -2.9151    0.0000 C   0  0  0  0  0  0  0  0  0  0  0  0
    6.6846   -3.6732    0.0000 C   0  0  0  0  0  0  0  0  0  0  0  0
    6.8396   -2.2408    0.0000 C   0  0  0  0  0  0  0  0  0  0  0  0
    5.0303   -3.4680    0.0000 C   0  0  0  0  0  0  0  0  0  0  0  0
    5.5287   -2.8146    0.0000 C   0  0  0  0  0  0  0  0  0  0  0  0
    7.6689   -2.3162    0.0000 O   0  0  0  0  0  0  0  0  0  0  0  0
    7.5056   -3.7486    0.0000 C   0  0  0  0  0  0  0  0  0  0  0  0
    4.3769   -1.9769    0.0000 N   0  3  0  0  0  0  0  0  0  0  0  0
    5.2773   -4.2721    0.0000 C   0  0  0  0  0  0  0  0  0  0  0  0
    4.6240   -4.7245    0.0000 N   0  0  0  0  0  0  0  0  0  0  0  0
    7.9956   -3.0827    0.0000 C   0  0  0  0  0  0  0  0  0  0  0  0
    4.2219   -3.4680    0.0000 C   0  0  0  0  0  0  0  0  0  0  0  0
    5.1936   -2.0607    0.0000 C   0  0  0  0  0  0  0  0  0  0  0  0
    3.9706   -4.2387    0.0000 C   0  0  0  0  0  0  0  0  0  0  0  0
    6.5004   -1.4743    0.0000 O   0  0  0  0  0  0  0  0  0  0  0  0
    4.3769   -1.0597    0.0000 O   0  5  0  0  0  0  0  0  0  0  0  0
    3.4177   -1.8764    0.0000 O   0  0  0  0  0  0  0  0  0  0  0  0
    6.1988   -4.3392    0.0000 O   0  0  0  0  0  0  0  0  0  0  0  0
    7.8406   -4.5025    0.0000 C   0  0  0  0  0  0  0  0  0  0  0  0
    3.6732   -2.8439    0.0000 C   0  0  0  0  0  0  0  0  0  0  0  0
    8.8124   -3.1664    0.0000 C   0  0  0  0  0  0  0  0  0  0  0  0
    3.1664   -4.3894    0.0000 C   0  0  0  0  0  0  0  0  0  0  0  0
    8.6616   -4.5905    0.0000 C   0  0  0  0  0  0  0  0  0  0  0  0
    2.8691   -3.0156    0.0000 C   0  0  0  0  0  0  0  0  0  0  0  0
    9.1474   -3.9245    0.0000 C   0  0  0  0  0  0  0  0  0  0  0  0
    2.6178   -3.7863    0.0000 C   0  0  0  0  0  0  0  0  0  0  0  0
  2  1  2  0  0  0  0
  3  1  1  0  0  0  0
  4  5  1  0  0  0  0
  5  1  1  0  0  0  0
  6  3  1  0  0  0  0
  7  2  1  0  0  0  0
  8 13  1  0  0  0  0
  9  4  2  0  0  0  0
 10  9  1  0  0  0  0
 11  6  1  0  0  0  0
 12  4  1  0  0  0  0
 13  5  1  0  0  0  0
 14 12  2  0  0  0  0
 15  3  2  0  0  0  0
 16  8  1  0  0  0  0
 17  8  2  0  0  0  0
 18  2  1  0  0  0  0
 19  7  1  0  0  0  0
 20 12  1  0  0  0  0
 21 11  1  0  0  0  0
 22 14  1  0  0  0  0
 23 19  2  0  0  0  0
 24 20  2  0  0  0  0
 25 21  2  0  0  0  0
 26 24  1  0  0  0  0
 11  7  2  0  0  0  0
 10 14  1  0  0  0  0
 25 23  1  0  0  0  0
 22 26  2  0  0  0  0
M  CHG  2   8   1  16  -1
M  END
>  <IDNUMBER>
F0472-0061

>  <Chemical_Name>
4-hydroxy-3-[1-(1H-indol-3-yl)-2-nitroethyl]-2H-chromen-2-one

>  <PriceCoeff>
1.00

>  <CAS>
325474-34-8

>  <MW>
350.32

>  <Description>
solid

>  <FSP3>
0.11

>  <clogP>
2.82

>  <TPSA>
105.46

>  <Acceptor>
5

>  <Donor>
2

>  <RotBonds>
4

>  <HAC>
26

>  <Collection>
General

>  <PPDS>
+

$$$$
F0472-0083
  Mrv2219 10102508112D          

 20 22  0  0  0  0            999 V2000
    5.8000   -3.7167    0.0000 C   0  0  0  0  0  0  0  0  0  0  0  0
    5.0667   -3.3000    0.0000 C   0  0  0  0  0  0  0  0  0  0  0  0
    5.8000   -4.5500    0.0000 C   0  0  0  0  0  0  0  0  0  0  0  0
    5.1000   -4.9542    0.0000 O   0  0  0  0  0  0  0  0  0  0  0  0
    4.3542   -3.7500    0.0000 C   0  0  0  0  0  0  0  0  0  0  0  0
    6.5042   -3.3000    0.0000 C   0  0  0  0  0  0  0  0  0  0  0  0
    4.3542   -4.5542    0.0000 C   0  0  0  0  0  0  0  0  0  0  0  0
    7.9500   -3.3000    0.0000 C   0  0  0  0  0  0  0  0  0  0  0  0
    7.2500   -3.7042    0.0000 N   0  0  0  0  0  0  0  0  0  0  0  0
    8.6542   -3.7000    0.0000 N   0  0  0  0  0  0  0  0  0  0  0  0
    7.9167   -2.4542    0.0000 N   0  0  0  0  0  0  0  0  0  0  0  0
    6.5167   -4.9500    0.0000 O   0  0  0  0  0  0  0  0  0  0  0  0
    5.0667   -2.5000    0.0000 O   0  0  0  0  0  0  0  0  0  0  0  0
    3.6500   -3.3167    0.0000 C   0  0  0  0  0  0  0  0  0  0  0  0
    9.3542   -2.4500    0.0000 C   0  0  0  0  0  0  0  0  0  0  0  0
    3.6500   -5.0000    0.0000 C   0  0  0  0  0  0  0  0  0  0  0  0
    8.6500   -2.0500    0.0000 C   0  0  0  0  0  0  0  0  0  0  0  0
    9.3667   -3.2542    0.0000 C   0  0  0  0  0  0  0  0  0  0  0  0
    2.9500   -3.7500    0.0000 C   0  0  0  0  0  0  0  0  0  0  0  0
    2.9500   -4.5542    0.0000 C   0  0  0  0  0  0  0  0  0  0  0  0
  2  1  2  0  0  0  0
  3  1  1  0  0  0  0
  4  3  1  0  0  0  0
  5  2  1  0  0  0  0
  6  1  1  0  0  0  0
  7  4  1  0  0  0  0
  8  9  1  0  0  0  0
  9  6  2  0  0  0  0
 10  8  2  0  0  0  0
 11  8  1  0  0  0  0
 12  3  2  0  0  0  0
 13  2  1  0  0  0  0
 14  5  2  0  0  0  0
 15 17  1  0  0  0  0
 16  7  2  0  0  0  0
 17 11  2  0  0  0  0
 18 10  1  0  0  0  0
 19 14  1  0  0  0  0
 20 16  1  0  0  0  0
  5  7  1  0  0  0  0
 18 15  2  0  0  0  0
 19 20  2  0  0  0  0
M  END
>  <IDNUMBER>
F0472-0083

>  <Chemical_Name>
4-hydroxy-3-[(E)-[(pyrimidin-2-yl)imino]methyl]-2H-chromen-2-one

>  <PriceCoeff>
1.00

>  <CAS>
325474-55-3

>  <MW>
267.24

>  <Description>
solid

>  <FSP3>
0.00

>  <clogP>
1.02

>  <TPSA>
84.67

>  <Acceptor>
6

>  <Donor>
2

>  <RotBonds>
2

>  <HAC>
20

>  <Collection>
General

>  <PPDS>
+

$$$$
F0481-0378
  Mrv2219 10102508112D          

 13 13  0  0  0  0            999 V2000
    0.0932    0.1007    0.0000 N   0  0  0  0  0  0  0  0  0  0  0  0
   -1.3385    0.1007    0.0000 C   0  0  0  0  0  0  0  0  0  0  0  0
   -0.6376    0.5108    0.0000 C   0  0  0  0  0  0  0  0  0  0  0  0
   -2.0320   -1.1335    0.0000 N   0  0  0  0  0  0  0  0  0  0  0  0
   -1.3385   -0.7196    0.0000 C   0  0  0  0  0  0  0  0  0  0  0  0
    0.7942    0.5108    0.0000 C   0  0  0  0  0  0  0  0  0  0  0  0
   -2.0543    0.5108    0.0000 C   0  0  0  0  0  0  0  0  0  0  0  0
   -2.7702   -0.7196    0.0000 C   0  0  0  0  0  0  0  0  0  0  0  0
   -0.6376    1.3385    0.0000 C   0  0  0  0  0  0  0  0  0  0  0  0
   -2.7702    0.1007    0.0000 C   0  0  0  0  0  0  0  0  0  0  0  0
    0.7942    1.3385    0.0000 C   0  0  0  0  0  0  0  0  0  0  0  0
    0.0932    1.7523    0.0000 C   0  0  0  0  0  0  0  0  0  0  0  0
    2.0357    0.2573    0.0000 Cl  0  0  0  0  0  0  0  0  0  0  0  0
  3  1  1  0  0  0  0
  4  5  1  0  0  0  0
  5  2  2  0  0  0  0
  6  1  1  0  0  0  0
  7  2  1  0  0  0  0
  8 10  1  0  0  0  0
  9  3  1  0  0  0  0
 10  7  2  0  0  0  0
 11  6  1  0  0  0  0
 12 11  1  0  0  0  0
 12  9  1  0  0  0  0
  4  8  2  0  0  0  0
  2  3  1  0  0  0  0
M  END
>  <IDNUMBER>
F0481-0378

>  <Chemical_Name>
3-(piperidin-2-yl)pyridine hydrochloride

>  <PriceCoeff>
1.50

>  <CAS>
352220-15-6

>  <MW>
162.24

>  <Description>
solid

>  <FSP3>
0.50

>  <clogP>
1.90

>  <TPSA>
24.92

>  <Acceptor>
1

>  <Donor>
2

>  <RotBonds>
1

>  <HAC>
12

>  <Collection>
Advanced

>  <PPDS>
+

$$$$
F0486-1748
  Mrv2219 10102508112D          

 28 30  0  0  0  0            999 V2000
    0.6888   -8.2822    0.0000 N   0  0  0  0  0  0  0  0  0  0  0  0
   -0.9518   -8.2696    0.0000 N   0  0  0  0  0  0  0  0  0  0  0  0
    1.6030   -6.9129    0.0000 N   0  0  0  0  0  0  0  0  0  0  0  0
   -2.1541   -9.6472    0.0000 N   0  0  0  0  0  0  0  0  0  0  0  0
   -1.7741   -8.2696    0.0000 C   0  0  0  0  0  0  0  0  0  0  0  0
    1.2065   -8.2947    0.0000 C   0  0  0  0  0  0  0  0  0  0  0  0
   -2.3669   -8.8541    0.0000 C   0  0  0  0  0  0  0  0  0  0  0  0
    1.8075   -7.7144    0.0000 C   0  0  0  0  0  0  0  0  0  0  0  0
   -2.0998   -7.5016    0.0000 C   0  0  0  0  0  0  0  0  0  0  0  0
    1.5195   -9.0545    0.0000 C   0  0  0  0  0  0  0  0  0  0  0  0
   -0.5468   -8.9835    0.0000 C   0  0  0  0  0  0  0  0  0  0  0  0
    0.2672   -8.9961    0.0000 C   0  0  0  0  0  0  0  0  0  0  0  0
    0.2797   -7.5642    0.0000 C   0  0  0  0  0  0  0  0  0  0  0  0
   -0.5343   -7.5642    0.0000 C   0  0  0  0  0  0  0  0  0  0  0  0
   -1.5862   -6.8503    0.0000 C   0  0  0  0  0  0  0  0  0  0  0  0
   -2.9179   -7.3931    0.0000 C   0  0  0  0  0  0  0  0  0  0  0  0
    1.0019   -9.7056    0.0000 C   0  0  0  0  0  0  0  0  0  0  0  0
    2.3336   -9.1714    0.0000 C   0  0  0  0  0  0  0  0  0  0  0  0
    2.1207  -10.5865    0.0000 C   0  0  0  0  0  0  0  0  0  0  0  0
   -2.7176   -5.9654    0.0000 C   0  0  0  0  0  0  0  0  0  0  0  0
   -3.2185   -6.6166    0.0000 C   0  0  0  0  0  0  0  0  0  0  0  0
    2.6424   -9.9479    0.0000 C   0  0  0  0  0  0  0  0  0  0  0  0
    1.3066  -10.4696    0.0000 C   0  0  0  0  0  0  0  0  0  0  0  0
   -1.8993   -6.0906    0.0000 C   0  0  0  0  0  0  0  0  0  0  0  0
   -3.0181   -5.2098    0.0000 O   0  0  0  0  0  0  0  0  0  0  0  0
    2.4212  -11.3588    0.0000 O   0  0  0  0  0  0  0  0  0  0  0  0
   -2.5047   -4.5586    0.0000 C   0  0  0  0  0  0  0  0  0  0  0  0
    3.2227  -11.1376    0.0000 C   0  0  0  0  0  0  0  0  0  0  0  0
  2 14  1  0  0  0  0
  3  8  3  0  0  0  0
  4  7  3  0  0  0  0
  5  2  1  0  0  0  0
  6  1  1  0  0  0  0
  7  5  1  0  0  0  0
  8  6  1  0  0  0  0
  9  5  1  0  0  0  0
 10  6  1  0  0  0  0
 11 12  1  0  0  0  0
 12  1  1  0  0  0  0
 13  1  1  0  0  0  0
 14 13  1  0  0  0  0
 15  9  2  0  0  0  0
 16  9  1  0  0  0  0
 17 10  2  0  0  0  0
 18 10  1  0  0  0  0
 19 22  1  0  0  0  0
 20 21  1  0  0  0  0
 21 16  2  0  0  0  0
 22 18  2  0  0  0  0
 23 17  1  0  0  0  0
 24 15  1  0  0  0  0
 25 20  1  0  0  0  0
 26 19  1  0  0  0  0
 27 25  1  0  0  0  0
 28 26  1  0  0  0  0
 11  2  1  0  0  0  0
 19 23  2  0  0  0  0
 20 24  2  0  0  0  0
M  END
>  <IDNUMBER>
F0486-1748

>  <Chemical_Name>
2-{4-[cyano(4-methoxyphenyl)methyl]piperazin-1-yl}-2-(4-methoxyphenyl)acetonitrile

>  <PriceCoeff>
1.00

>  <CAS>
325473-60-7

>  <MW>
376.45

>  <Description>
solid

>  <FSP3>
0.36

>  <clogP>
2.95

>  <TPSA>
72.52

>  <Acceptor>
6

>  <Donor>
2

>  <RotBonds>
6

>  <HAC>
28

>  <Collection>
General

$$$$
F0494-0156
  Mrv2219 10102508112D          

 23 25  0  0  0  0            999 V2000
   -4.7902    0.9403    0.0000 N   0  3  0  0  0  0  0  0  0  0  0  0
   -4.3200    1.6455    0.0000 C   0  0  0  0  0  0  0  0  0  0  0  0
   -0.9560    1.7709    0.0000 C   0  0  0  0  0  0  0  0  0  0  0  0
   -0.2507    1.3738    0.0000 C   0  0  0  0  0  0  0  0  0  0  0  0
   -1.7343    1.5201    0.0000 O   0  0  0  0  0  0  0  0  0  0  0  0
   -2.2097    2.1940    0.0000 C   0  0  0  0  0  0  0  0  0  0  0  0
   -3.4894    1.5932    0.0000 C   0  0  0  0  0  0  0  0  0  0  0  0
    0.5015    1.7969    0.0000 N   0  0  0  0  0  0  0  0  0  0  0  0
   -0.9560    2.5962    0.0000 C   0  0  0  0  0  0  0  0  0  0  0  0
   -1.7343    2.8469    0.0000 C   0  0  0  0  0  0  0  0  0  0  0  0
   -3.0350    2.2723    0.0000 C   0  0  0  0  0  0  0  0  0  0  0  0
   -4.6648    2.4238    0.0000 C   0  0  0  0  0  0  0  0  0  0  0  0
   -5.6207    0.9977    0.0000 O   0  5  0  0  0  0  0  0  0  0  0  0
   -0.2507    0.5432    0.0000 S   0  0  0  0  0  0  0  0  0  0  0  0
   -4.4454    0.2141    0.0000 O   0  0  0  0  0  0  0  0  0  0  0  0
   -3.3850    3.0246    0.0000 C   0  0  0  0  0  0  0  0  0  0  0  0
   -4.1946    3.0977    0.0000 C   0  0  0  0  0  0  0  0  0  0  0  0
   -5.4954    2.5335    0.0000 Cl  0  0  0  0  0  0  0  0  0  0  0  0
    1.2276    1.3738    0.0000 C   0  0  0  0  0  0  0  0  0  0  0  0
    0.5015    2.6275    0.0000 C   0  0  0  0  0  0  0  0  0  0  0  0
    1.2276    3.0246    0.0000 C   0  0  0  0  0  0  0  0  0  0  0  0
    1.9276    1.7969    0.0000 C   0  0  0  0  0  0  0  0  0  0  0  0
    1.9276    2.6275    0.0000 C   0  0  0  0  0  0  0  0  0  0  0  0
  2  1  1  0  0  0  0
  3  5  1  0  0  0  0
  4  3  1  0  0  0  0
  5  6  1  0  0  0  0
  6 11  1  0  0  0  0
  7  2  2  0  0  0  0
  8  4  1  0  0  0  0
  9 10  1  0  0  0  0
 10  6  2  0  0  0  0
 11  7  1  0  0  0  0
 12  2  1  0  0  0  0
 13  1  1  0  0  0  0
 14  4  2  0  0  0  0
 15  1  2  0  0  0  0
 16 17  1  0  0  0  0
 17 12  2  0  0  0  0
 18 12  1  0  0  0  0
 19  8  1  0  0  0  0
 20  8  1  0  0  0  0
 21 20  1  0  0  0  0
 22 19  1  0  0  0  0
 23 21  1  0  0  0  0
 11 16  2  0  0  0  0
  3  9  2  0  0  0  0
 23 22  1  0  0  0  0
M  CHG  2   1   1  13  -1
M  END
>  <IDNUMBER>
F0494-0156

>  <Chemical_Name>
1-[5-(4-chloro-3-nitrophenyl)furan-2-carbothioyl]piperidine

>  <PriceCoeff>
1.00

>  <CAS>
330951-34-3

>  <MW>
350.82

>  <Description>
solid

>  <FSP3>
0.31

>  <clogP>
4.38

>  <TPSA>
91.61

>  <Acceptor>
4

>  <Donor>
1

>  <RotBonds>
4

>  <HAC>
23

>  <Collection>
General

>  <PPDS>
+

$$$$
F0496-0161
  Mrv2219 10102508112D          

 30 33  0  0  0  0            999 V2000
    5.3037    1.0921    0.0000 N   0  0  0  0  0  0  0  0  0  0  0  0
    0.7668    1.9286    0.0000 C   0  0  0  0  0  0  0  0  0  0  0  0
    0.0697    1.4813    0.0000 N   0  0  0  0  0  0  0  0  0  0  0  0
    1.5743    1.6497    0.0000 N   0  0  0  0  0  0  0  0  0  0  0  0
   -0.5577    2.0157    0.0000 C   0  0  0  0  0  0  0  0  0  0  0  0
    2.2307    2.2074    0.0000 C   0  0  0  0  0  0  0  0  0  0  0  0
    5.4780    0.2788    0.0000 C   0  0  0  0  0  0  0  0  0  0  0  0
    6.0647    1.4813    0.0000 C   0  0  0  0  0  0  0  0  0  0  0  0
    0.5635    2.7128    0.0000 S   0  0  0  0  0  0  0  0  0  0  0  0
   -0.2556    2.7651    0.0000 C   0  0  0  0  0  0  0  0  0  0  0  0
    4.5544    1.3709    0.0000 C   0  0  0  0  0  0  0  0  0  0  0  0
    2.9975    1.9286    0.0000 C   0  0  0  0  0  0  0  0  0  0  0  0
   -1.3942    1.8763    0.0000 C   0  0  0  0  0  0  0  0  0  0  0  0
    2.0448    3.0439    0.0000 O   0  0  0  0  0  0  0  0  0  0  0  0
    6.3145    0.1684    0.0000 C   0  0  0  0  0  0  0  0  0  0  0  0
    6.6456    0.9004    0.0000 C   0  0  0  0  0  0  0  0  0  0  0  0
    6.2041    2.3178    0.0000 O   0  0  0  0  0  0  0  0  0  0  0  0
    4.8855   -0.3485    0.0000 O   0  0  0  0  0  0  0  0  0  0  0  0
    4.3917    2.1784    0.0000 C   0  0  0  0  0  0  0  0  0  0  0  0
    3.9037    0.7842    0.0000 C   0  0  0  0  0  0  0  0  0  0  0  0
    3.1079    1.1153    0.0000 C   0  0  0  0  0  0  0  0  0  0  0  0
    3.6307    2.4572    0.0000 C   0  0  0  0  0  0  0  0  0  0  0  0
   -1.6730    1.1153    0.0000 C   0  0  0  0  0  0  0  0  0  0  0  0
   -1.8996    2.5095    0.0000 C   0  0  0  0  0  0  0  0  0  0  0  0
   -3.0439    1.6207    0.0000 C   0  0  0  0  0  0  0  0  0  0  0  0
   -2.7476    2.3991    0.0000 C   0  0  0  0  0  0  0  0  0  0  0  0
   -2.4862    0.9759    0.0000 C   0  0  0  0  0  0  0  0  0  0  0  0
   -3.8804    1.5336    0.0000 O   0  0  0  0  0  0  0  0  0  0  0  0
   -4.2115    0.7842    0.0000 C   0  0  0  0  0  0  0  0  0  0  0  0
   -5.0480    0.6738    0.0000 C   0  0  0  0  0  0  0  0  0  0  0  0
  2  4  1  0  0  0  0
  3  2  2  0  0  0  0
  4  6  1  0  0  0  0
  5  3  1  0  0  0  0
  6 12  1  0  0  0  0
  7  1  1  0  0  0  0
  8  1  1  0  0  0  0
  9  2  1  0  0  0  0
 10  9  1  0  0  0  0
 11  1  1  0  0  0  0
 12 21  1  0  0  0  0
 13  5  1  0  0  0  0
 14  6  2  0  0  0  0
 15  7  1  0  0  0  0
 16  8  1  0  0  0  0
 17  8  2  0  0  0  0
 18  7  2  0  0  0  0
 19 11  2  0  0  0  0
 20 11  1  0  0  0  0
 21 20  2  0  0  0  0
 22 19  1  0  0  0  0
 23 13  1  0  0  0  0
 24 13  2  0  0  0  0
 25 26  2  0  0  0  0
 26 24  1  0  0  0  0
 27 23  2  0  0  0  0
 28 25  1  0  0  0  0
 29 28  1  0  0  0  0
 30 29  1  0  0  0  0
 15 16  1  0  0  0  0
 22 12  2  0  0  0  0
  5 10  2  0  0  0  0
 25 27  1  0  0  0  0
M  END
>  <IDNUMBER>
F0496-0161

>  <Chemical_Name>
4-(2,5-dioxopyrrolidin-1-yl)-N-[4-(4-ethoxyphenyl)-1,3-thiazol-2-yl]benzamide

>  <PriceCoeff>
1.00

>  <CAS>
391896-60-9

>  <MW>
421.47

>  <Description>
solid

>  <FSP3>
0.18

>  <clogP>
2.68

>  <TPSA>
116.84

>  <Acceptor>
5

>  <Donor>
1

>  <RotBonds>
6

>  <HAC>
30

>  <Collection>
General

>  <PPDS>
+

$$$$
F0496-0188
  Mrv2219 10102508112D          

 30 33  0  0  0  0            999 V2000
    0.5826   -0.7363    0.0000 N   0  0  0  0  0  0  0  0  0  0  0  0
   -3.1433    0.0192    0.0000 C   0  0  0  0  0  0  0  0  0  0  0  0
   -3.6426    0.6657    0.0000 N   0  0  0  0  0  0  0  0  0  0  0  0
   -2.2790    0.0192    0.0000 N   0  0  0  0  0  0  0  0  0  0  0  0
   -4.4301    0.3265    0.0000 C   0  0  0  0  0  0  0  0  0  0  0  0
    0.1536    0.0192    0.0000 C   0  0  0  0  0  0  0  0  0  0  0  0
   -1.8757    0.7618    0.0000 C   0  0  0  0  0  0  0  0  0  0  0  0
    1.3893   -0.7682    0.0000 C   0  0  0  0  0  0  0  0  0  0  0  0
    0.2369   -1.4596    0.0000 C   0  0  0  0  0  0  0  0  0  0  0  0
   -3.5274   -0.6914    0.0000 S   0  0  0  0  0  0  0  0  0  0  0  0
   -4.3340   -0.4674    0.0000 C   0  0  0  0  0  0  0  0  0  0  0  0
   -0.6338    0.0192    0.0000 C   0  0  0  0  0  0  0  0  0  0  0  0
   -1.0691    0.7106    0.0000 C   0  0  0  0  0  0  0  0  0  0  0  0
   -5.1983    0.6657    0.0000 C   0  0  0  0  0  0  0  0  0  0  0  0
   -2.2790    1.4788    0.0000 O   0  0  0  0  0  0  0  0  0  0  0  0
    1.6133   -1.6133    0.0000 C   0  0  0  0  0  0  0  0  0  0  0  0
    0.8899   -2.0231    0.0000 C   0  0  0  0  0  0  0  0  0  0  0  0
    1.9654   -0.1217    0.0000 O   0  0  0  0  0  0  0  0  0  0  0  0
   -0.5570   -1.6197    0.0000 O   0  0  0  0  0  0  0  0  0  0  0  0
   -5.2432    1.4788    0.0000 C   0  0  0  0  0  0  0  0  0  0  0  0
   -5.8385    0.1856    0.0000 C   0  0  0  0  0  0  0  0  0  0  0  0
   -6.7028    1.3572    0.0000 C   0  0  0  0  0  0  0  0  0  0  0  0
   -5.9665    1.8630    0.0000 C   0  0  0  0  0  0  0  0  0  0  0  0
   -6.6068    0.5378    0.0000 C   0  0  0  0  0  0  0  0  0  0  0  0
    0.5826    0.7106    0.0000 C   0  0  0  0  0  0  0  0  0  0  0  0
   -7.4710    1.6901    0.0000 O   0  0  0  0  0  0  0  0  0  0  0  0
   -0.6338    1.4340    0.0000 C   0  0  0  0  0  0  0  0  0  0  0  0
    0.1536    1.4788    0.0000 C   0  0  0  0  0  0  0  0  0  0  0  0
   -8.1176    1.1459    0.0000 C   0  0  0  0  0  0  0  0  0  0  0  0
   -8.9050    1.4340    0.0000 C   0  0  0  0  0  0  0  0  0  0  0  0
  2  4  1  0  0  0  0
  3  2  2  0  0  0  0
  4  7  1  0  0  0  0
  5  3  1  0  0  0  0
  6  1  1  0  0  0  0
  7 13  1  0  0  0  0
  8  1  1  0  0  0  0
  9  1  1  0  0  0  0
 10  2  1  0  0  0  0
 11 10  1  0  0  0  0
 12  6  1  0  0  0  0
 13 12  2  0  0  0  0
 14  5  1  0  0  0  0
 15  7  2  0  0  0  0
 16  8  1  0  0  0  0
 17  9  1  0  0  0  0
 18  8  2  0  0  0  0
 19  9  2  0  0  0  0
 20 14  1  0  0  0  0
 21 14  2  0  0  0  0
 22 24  2  0  0  0  0
 23 20  2  0  0  0  0
 24 21  1  0  0  0  0
 25  6  2  0  0  0  0
 26 22  1  0  0  0  0
 27 28  2  0  0  0  0
 28 25  1  0  0  0  0
 29 26  1  0  0  0  0
 30 29  1  0  0  0  0
 16 17  1  0  0  0  0
 13 27  1  0  0  0  0
 11  5  2  0  0  0  0
 22 23  1  0  0  0  0
M  END
>  <IDNUMBER>
F0496-0188

>  <Chemical_Name>
3-(2,5-dioxopyrrolidin-1-yl)-N-[4-(4-ethoxyphenyl)-1,3-thiazol-2-yl]benzamide

>  <PriceCoeff>
1.00

>  <CAS>
476356-66-8

>  <MW>
421.47

>  <Description>
solid

>  <FSP3>
0.18

>  <clogP>
2.68

>  <TPSA>
116.84

>  <Acceptor>
5

>  <Donor>
1

>  <RotBonds>
6

>  <HAC>
30

>  <Collection>
General

>  <PPDS>
+

$$$$
F0507-4313
  Mrv2219 10102508112D          

 28 30  0  0  0  0            999 V2000
   -1.7171    2.9768    0.0000 N   0  0  0  0  0  0  0  0  0  0  0  0
   -7.3382    1.8584    0.0000 N   0  3  0  0  0  0  0  0  0  0  0  0
   -6.5732    1.5965    0.0000 C   0  0  0  0  0  0  0  0  0  0  0  0
   -1.0477    2.4904    0.0000 C   0  0  0  0  0  0  0  0  0  0  0  0
   -2.3906    2.4904    0.0000 C   0  0  0  0  0  0  0  0  0  0  0  0
   -1.3055    1.6963    0.0000 N   0  0  0  0  0  0  0  0  0  0  0  0
   -2.1328    1.6963    0.0000 N   0  0  0  0  0  0  0  0  0  0  0  0
   -5.9620    2.1453    0.0000 C   0  0  0  0  0  0  0  0  0  0  0  0
   -4.5733    2.4529    0.0000 C   0  0  0  0  0  0  0  0  0  0  0  0
   -5.1845    1.8917    0.0000 C   0  0  0  0  0  0  0  0  0  0  0  0
   -1.7171    3.7917    0.0000 C   0  0  0  0  0  0  0  0  0  0  0  0
   -3.7875    2.1910    0.0000 N   0  0  0  0  0  0  0  0  0  0  0  0
   -6.4027    0.7941    0.0000 C   0  0  0  0  0  0  0  0  0  0  0  0
   -7.5128    2.6692    0.0000 O   0  5  0  0  0  0  0  0  0  0  0  0
   -3.1681    2.7398    0.0000 C   0  0  0  0  0  0  0  0  0  0  0  0
   -7.9618    1.3096    0.0000 O   0  0  0  0  0  0  0  0  0  0  0  0
   -4.7355    3.2637    0.0000 O   0  0  0  0  0  0  0  0  0  0  0  0
   -0.2702    2.7398    0.0000 S   0  0  0  0  0  0  0  0  0  0  0  0
   -5.0099    1.0809    0.0000 C   0  0  0  0  0  0  0  0  0  0  0  0
   -5.6335    0.5239    0.0000 C   0  0  0  0  0  0  0  0  0  0  0  0
   -2.4322    4.2075    0.0000 C   0  0  0  0  0  0  0  0  0  0  0  0
   -0.9936    4.2033    0.0000 C   0  0  0  0  0  0  0  0  0  0  0  0
   -1.7171    5.4423    0.0000 C   0  0  0  0  0  0  0  0  0  0  0  0
   -7.0139    0.2328    0.0000 Cl  0  0  0  0  0  0  0  0  0  0  0  0
   -2.4280    5.0307    0.0000 C   0  0  0  0  0  0  0  0  0  0  0  0
   -0.9978    5.0182    0.0000 C   0  0  0  0  0  0  0  0  0  0  0  0
   -1.7171    6.2655    0.0000 F   0  0  0  0  0  0  0  0  0  0  0  0
    0.3492    2.1910    0.0000 C   0  0  0  0  0  0  0  0  0  0  0  0
  2  3  1  0  0  0  0
  3  8  1  0  0  0  0
  4  1  1  0  0  0  0
  5  1  1  0  0  0  0
  6  4  2  0  0  0  0
  7  5  2  0  0  0  0
  8 10  2  0  0  0  0
  9 12  1  0  0  0  0
 10  9  1  0  0  0  0
 11  1  1  0  0  0  0
 12 15  1  0  0  0  0
 13 20  1  0  0  0  0
 14  2  1  0  0  0  0
 15  5  1  0  0  0  0
 16  2  2  0  0  0  0
 17  9  2  0  0  0  0
 18  4  1  0  0  0  0
 19 10  1  0  0  0  0
 20 19  2  0  0  0  0
 21 11  1  0  0  0  0
 22 11  2  0  0  0  0
 23 26  2  0  0  0  0
 24 13  1  0  0  0  0
 25 21  2  0  0  0  0
 26 22  1  0  0  0  0
 27 23  1  0  0  0  0
 28 18  1  0  0  0  0
  6  7  1  0  0  0  0
 23 25  1  0  0  0  0
 13  3  2  0  0  0  0
M  CHG  2   2   1  14  -1
M  END
>  <IDNUMBER>
F0507-4313

>  <Chemical_Name>
4-chloro-N-{[4-(4-fluorophenyl)-5-(methylsulfanyl)-4H-1,2,4-triazol-3-yl]methyl}-3-nitrobenzamide

>  <PriceCoeff>
1.00

>  <CAS>
391939-06-3

>  <MW>
421.83

>  <Description>
solid

>  <FSP3>
0.12

>  <clogP>
3.48

>  <TPSA>
128.25

>  <Acceptor>
5

>  <Donor>
1

>  <RotBonds>
6

>  <HAC>
28

>  <Collection>
General

>  <PPDS>
+

$$$$
F0509-2733
  Mrv2219 10102508112D          

 30 32  0  0  0  0            999 V2000
   -5.1929    3.3917    0.0000 C   0  0  0  0  0  0  0  0  0  0  0  0
   -7.5626    4.2442    0.0000 N   0  3  0  0  0  0  0  0  0  0  0  0
   -6.9209    4.7622    0.0000 C   0  0  0  0  0  0  0  0  0  0  0  0
   -5.0188    2.5942    0.0000 S   0  0  0  0  0  0  0  0  0  0  0  0
   -4.5742    3.9417    0.0000 N   0  0  0  0  0  0  0  0  0  0  0  0
   -5.7429    2.1863    0.0000 C   0  0  0  0  0  0  0  0  0  0  0  0
   -6.0042    3.4879    0.0000 N   0  0  0  0  0  0  0  0  0  0  0  0
   -6.3479    2.7317    0.0000 N   0  0  0  0  0  0  0  0  0  0  0  0
   -4.7300    4.7484    0.0000 C   0  0  0  0  0  0  0  0  0  0  0  0
   -6.1554    4.4825    0.0000 C   0  0  0  0  0  0  0  0  0  0  0  0
   -5.5229    5.0097    0.0000 C   0  0  0  0  0  0  0  0  0  0  0  0
   -7.4297   -0.1284    0.0000 N   0  0  0  0  0  0  0  0  0  0  0  0
   -6.6734    0.2063    0.0000 C   0  0  0  0  0  0  0  0  0  0  0  0
   -7.0584    5.5734    0.0000 C   0  0  0  0  0  0  0  0  0  0  0  0
   -7.5213   -0.9488    0.0000 C   0  0  0  0  0  0  0  0  0  0  0  0
   -8.3372    4.5147    0.0000 O   0  5  0  0  0  0  0  0  0  0  0  0
   -7.4159    3.4192    0.0000 O   0  0  0  0  0  0  0  0  0  0  0  0
   -5.8254    1.3613    0.0000 S   0  0  0  0  0  0  0  0  0  0  0  0
   -4.1113    5.2938    0.0000 O   0  0  0  0  0  0  0  0  0  0  0  0
   -8.2776   -1.2834    0.0000 C   0  0  0  0  0  0  0  0  0  0  0  0
   -5.6742    5.8072    0.0000 C   0  0  0  0  0  0  0  0  0  0  0  0
   -6.0042   -0.2796    0.0000 O   0  0  0  0  0  0  0  0  0  0  0  0
   -6.4351    6.0959    0.0000 C   0  0  0  0  0  0  0  0  0  0  0  0
   -6.5817    1.0266    0.0000 C   0  0  0  0  0  0  0  0  0  0  0  0
   -7.8422    5.8713    0.0000 Cl  0  0  0  0  0  0  0  0  0  0  0  0
   -8.9422   -0.7884    0.0000 F   0  0  0  0  0  0  0  0  0  0  0  0
   -6.8522   -1.4346    0.0000 C   0  0  0  0  0  0  0  0  0  0  0  0
   -8.3647   -2.1038    0.0000 C   0  0  0  0  0  0  0  0  0  0  0  0
   -6.9347   -2.2596    0.0000 C   0  0  0  0  0  0  0  0  0  0  0  0
   -7.7047   -2.5896    0.0000 C   0  0  0  0  0  0  0  0  0  0  0  0
  2  3  1  0  0  0  0
  3 10  1  0  0  0  0
  4  1  1  0  0  0  0
  5  1  1  0  0  0  0
  6  4  1  0  0  0  0
  7  1  2  0  0  0  0
  8  7  1  0  0  0  0
  9  5  1  0  0  0  0
 10 11  2  0  0  0  0
 11  9  1  0  0  0  0
 12 13  1  0  0  0  0
 13 24  1  0  0  0  0
 14 23  1  0  0  0  0
 15 12  1  0  0  0  0
 16  2  1  0  0  0  0
 17  2  2  0  0  0  0
 18  6  1  0  0  0  0
 19  9  2  0  0  0  0
 20 15  1  0  0  0  0
 21 11  1  0  0  0  0
 22 13  2  0  0  0  0
 23 21  2  0  0  0  0
 24 18  1  0  0  0  0
 25 14  1  0  0  0  0
 26 20  1  0  0  0  0
 27 15  2  0  0  0  0
 28 20  2  0  0  0  0
 29 27  1  0  0  0  0
 30 29  2  0  0  0  0
  8  6  2  0  0  0  0
  3 14  2  0  0  0  0
 30 28  1  0  0  0  0
M  CHG  2   2   1  16  -1
M  END
>  <IDNUMBER>
F0509-2733

>  <Chemical_Name>
4-chloro-N-[5-({[(2-fluorophenyl)carbamoyl]methyl}sulfanyl)-1,3,4-thiadiazol-2-yl]-3-nitrobenzamide

>  <PriceCoeff>
1.00

>  <CAS>
389072-95-1

>  <MW>
467.88

>  <Description>
solid

>  <FSP3>
0.06

>  <clogP>
2.69

>  <TPSA>
180.66

>  <Acceptor>
6

>  <Donor>
2

>  <RotBonds>
7

>  <HAC>
30

>  <Collection>
General

>  <PPDS>
+

$$$$
F0509-3776
  Mrv2219 10102508112D          

 34 38  0  0  0  0            999 V2000
    0.7847    5.0296    0.0000 C   0  0  0  0  0  0  0  0  0  0  0  0
    5.2912    5.9796    0.0000 N   0  0  0  0  0  0  0  0  0  0  0  0
   -1.3859    1.9687    0.0000 N   0  0  0  0  0  0  0  0  0  0  0  0
    0.5691    4.2357    0.0000 S   0  0  0  0  0  0  0  0  0  0  0  0
    1.5603    5.3279    0.0000 N   0  0  0  0  0  0  0  0  0  0  0  0
   -0.2616    4.1944    0.0000 C   0  0  0  0  0  0  0  0  0  0  0  0
    0.0964    5.4702    0.0000 N   0  0  0  0  0  0  0  0  0  0  0  0
   -0.5507    4.9608    0.0000 N   0  0  0  0  0  0  0  0  0  0  0  0
    2.2027    4.7956    0.0000 C   0  0  0  0  0  0  0  0  0  0  0  0
    5.9658    5.4977    0.0000 C   0  0  0  0  0  0  0  0  0  0  0  0
    5.5390    6.7643    0.0000 C   0  0  0  0  0  0  0  0  0  0  0  0
   -1.8264    1.2757    0.0000 C   0  0  0  0  0  0  0  0  0  0  0  0
   -0.5598    2.0191    0.0000 C   0  0  0  0  0  0  0  0  0  0  0  0
   -1.9228    2.6111    0.0000 C   0  0  0  0  0  0  0  0  0  0  0  0
    4.5203    5.6905    0.0000 C   0  0  0  0  0  0  0  0  0  0  0  0
   -0.6424    3.4509    0.0000 S   0  0  0  0  0  0  0  0  0  0  0  0
    2.9737    5.0985    0.0000 C   0  0  0  0  0  0  0  0  0  0  0  0
   -2.6249    1.4869    0.0000 C   0  0  0  0  0  0  0  0  0  0  0  0
   -0.1881    2.7534    0.0000 C   0  0  0  0  0  0  0  0  0  0  0  0
    2.0697    3.9879    0.0000 O   0  0  0  0  0  0  0  0  0  0  0  0
    6.3651    6.7734    0.0000 C   0  0  0  0  0  0  0  0  0  0  0  0
    6.6266    5.9933    0.0000 C   0  0  0  0  0  0  0  0  0  0  0  0
    5.9796    4.6717    0.0000 O   0  0  0  0  0  0  0  0  0  0  0  0
    5.0526    7.4389    0.0000 O   0  0  0  0  0  0  0  0  0  0  0  0
   -0.1101    1.3308    0.0000 O   0  0  0  0  0  0  0  0  0  0  0  0
   -2.6662    2.3083    0.0000 C   0  0  0  0  0  0  0  0  0  0  0  0
    3.8732    6.2136    0.0000 C   0  0  0  0  0  0  0  0  0  0  0  0
    4.3826    4.8644    0.0000 C   0  0  0  0  0  0  0  0  0  0  0  0
    3.1022    5.9199    0.0000 C   0  0  0  0  0  0  0  0  0  0  0  0
    3.6116    4.5753    0.0000 C   0  0  0  0  0  0  0  0  0  0  0  0
   -1.6061    0.4819    0.0000 C   0  0  0  0  0  0  0  0  0  0  0  0
   -3.2031    0.9040    0.0000 C   0  0  0  0  0  0  0  0  0  0  0  0
   -2.1844   -0.1010    0.0000 C   0  0  0  0  0  0  0  0  0  0  0  0
   -2.9875    0.1193    0.0000 C   0  0  0  0  0  0  0  0  0  0  0  0
  2 15  1  0  0  0  0
  3 13  1  0  0  0  0
  4  1  1  0  0  0  0
  5  1  1  0  0  0  0
  6  4  1  0  0  0  0
  7  1  2  0  0  0  0
  8  7  1  0  0  0  0
  9  5  1  0  0  0  0
 10  2  1  0  0  0  0
 11  2  1  0  0  0  0
 12  3  1  0  0  0  0
 13 19  1  0  0  0  0
 14  3  1  0  0  0  0
 15 28  1  0  0  0  0
 16  6  1  0  0  0  0
 17  9  1  0  0  0  0
 18 12  2  0  0  0  0
 19 16  1  0  0  0  0
 20  9  2  0  0  0  0
 21 11  1  0  0  0  0
 22 10  1  0  0  0  0
 23 10  2  0  0  0  0
 24 11  2  0  0  0  0
 25 13  2  0  0  0  0
 26 14  1  0  0  0  0
 27 29  1  0  0  0  0
 28 30  2  0  0  0  0
 29 17  2  0  0  0  0
 30 17  1  0  0  0  0
 31 12  1  0  0  0  0
 32 18  1  0  0  0  0
 33 31  2  0  0  0  0
 34 33  1  0  0  0  0
  8  6  2  0  0  0  0
 27 15  2  0  0  0  0
 26 18  1  0  0  0  0
 22 21  1  0  0  0  0
 34 32  2  0  0  0  0
M  END
>  <IDNUMBER>
F0509-3776

>  <Chemical_Name>
N-(5-{[2-(2,3-dihydro-1H-indol-1-yl)-2-oxoethyl]sulfanyl}-1,3,4-thiadiazol-2-yl)-4-(2,5-dioxopyrrolidin-1-yl)benzamide

>  <PriceCoeff>
1.00

>  <CAS>
389073-30-7

>  <MW>
493.56

>  <Description>
solid

>  <FSP3>
0.22

>  <clogP>
1.02

>  <TPSA>
166.11

>  <Acceptor>
6

>  <Donor>
1

>  <RotBonds>
7

>  <HAC>
34

>  <Collection>
General

>  <PPDS>
+

$$$$
F0509-3783
  Mrv2219 10102508112D          

 33 36  0  0  0  0            999 V2000
    3.0012   -1.7559    0.0000 C   0  0  0  0  0  0  0  0  0  0  0  0
   -0.6558    1.0294    0.0000 N   0  0  0  0  0  0  0  0  0  0  0  0
    3.7651   -1.4820    0.0000 S   0  0  0  0  0  0  0  0  0  0  0  0
    2.2707   -1.3616    0.0000 N   0  0  0  0  0  0  0  0  0  0  0  0
    4.2756   -2.1212    0.0000 C   0  0  0  0  0  0  0  0  0  0  0  0
    3.0386   -2.5778    0.0000 N   0  0  0  0  0  0  0  0  0  0  0  0
    3.8274   -2.7938    0.0000 N   0  0  0  0  0  0  0  0  0  0  0  0
    2.2416   -0.5397    0.0000 C   0  0  0  0  0  0  0  0  0  0  0  0
   -1.4155    0.6973    0.0000 C   0  0  0  0  0  0  0  0  0  0  0  0
   -0.7430    1.8513    0.0000 C   0  0  0  0  0  0  0  0  0  0  0  0
    6.7663   -2.1046    0.0000 N   0  0  0  0  0  0  0  0  0  0  0  0
    0.0540    0.6433    0.0000 C   0  0  0  0  0  0  0  0  0  0  0  0
    6.3553   -1.3990    0.0000 C   0  0  0  0  0  0  0  0  0  0  0  0
    6.3760   -2.8062    0.0000 C   0  0  0  0  0  0  0  0  0  0  0  0
    1.4986   -0.1536    0.0000 C   0  0  0  0  0  0  0  0  0  0  0  0
    5.1101   -2.1088    0.0000 S   0  0  0  0  0  0  0  0  0  0  0  0
    2.9431   -0.1038    0.0000 O   0  0  0  0  0  0  0  0  0  0  0  0
   -1.5525    2.0174    0.0000 C   0  0  0  0  0  0  0  0  0  0  0  0
   -1.9634    1.3283    0.0000 C   0  0  0  0  0  0  0  0  0  0  0  0
   -1.6023   -0.1038    0.0000 O   0  0  0  0  0  0  0  0  0  0  0  0
   -0.1204    2.4118    0.0000 O   0  0  0  0  0  0  0  0  0  0  0  0
    6.7912   -3.5160    0.0000 C   0  0  0  0  0  0  0  0  0  0  0  0
    6.7497   -0.6766    0.0000 O   0  0  0  0  0  0  0  0  0  0  0  0
    0.0872   -0.1785    0.0000 C   0  0  0  0  0  0  0  0  0  0  0  0
    0.7513    1.0710    0.0000 C   0  0  0  0  0  0  0  0  0  0  0  0
    0.7887   -0.5729    0.0000 C   0  0  0  0  0  0  0  0  0  0  0  0
    1.4737    0.6724    0.0000 C   0  0  0  0  0  0  0  0  0  0  0  0
    5.5210   -1.3990    0.0000 C   0  0  0  0  0  0  0  0  0  0  0  0
    7.6131   -3.5036    0.0000 F   0  0  0  0  0  0  0  0  0  0  0  0
    5.5459   -2.8187    0.0000 C   0  0  0  0  0  0  0  0  0  0  0  0
    6.3885   -4.2383    0.0000 C   0  0  0  0  0  0  0  0  0  0  0  0
    5.1432   -3.5409    0.0000 C   0  0  0  0  0  0  0  0  0  0  0  0
    5.5583   -4.2383    0.0000 C   0  0  0  0  0  0  0  0  0  0  0  0
  2 12  1  0  0  0  0
  3  1  1  0  0  0  0
  4  1  1  0  0  0  0
  5  3  1  0  0  0  0
  6  1  2  0  0  0  0
  7  6  1  0  0  0  0
  8  4  1  0  0  0  0
  9  2  1  0  0  0  0
 10  2  1  0  0  0  0
 11 13  1  0  0  0  0
 12 25  1  0  0  0  0
 13 28  1  0  0  0  0
 14 11  1  0  0  0  0
 15  8  1  0  0  0  0
 16  5  1  0  0  0  0
 17  8  2  0  0  0  0
 18 10  1  0  0  0  0
 19  9  1  0  0  0  0
 20  9  2  0  0  0  0
 21 10  2  0  0  0  0
 22 14  2  0  0  0  0
 23 13  2  0  0  0  0
 24 26  1  0  0  0  0
 25 27  2  0  0  0  0
 26 15  2  0  0  0  0
 27 15  1  0  0  0  0
 28 16  1  0  0  0  0
 29 22  1  0  0  0  0
 30 14  1  0  0  0  0
 31 22  1  0  0  0  0
 32 30  2  0  0  0  0
 33 32  1  0  0  0  0
  5  7  2  0  0  0  0
 12 24  2  0  0  0  0
 19 18  1  0  0  0  0
 33 31  2  0  0  0  0
M  END
>  <IDNUMBER>
F0509-3783

>  <Chemical_Name>
4-(2,5-dioxopyrrolidin-1-yl)-N-[5-({[(2-fluorophenyl)carbamoyl]methyl}sulfanyl)-1,3,4-thiadiazol-2-yl]benzamide

>  <PriceCoeff>
1.00

>  <CAS>
389073-32-9

>  <MW>
485.51

>  <Description>
solid

>  <FSP3>
0.14

>  <clogP>
0.48

>  <TPSA>
174.90

>  <Acceptor>
6

>  <Donor>
2

>  <RotBonds>
7

>  <HAC>
33

>  <Collection>
General

>  <PPDS>
+

$$$$
F0526-0208
  Mrv2219 10102508112D          

 34 36  0  0  0  0            999 V2000
    3.4917    0.8000    0.0000 C   0  0  0  0  0  0  0  0  0  0  0  0
    3.0167    1.4708    0.0000 C   0  0  0  0  0  0  0  0  0  0  0  0
    2.2292    0.3958    0.0000 C   0  0  0  0  0  0  0  0  0  0  0  0
    2.2292    1.2208    0.0000 C   0  0  0  0  0  0  0  0  0  0  0  0
    3.0167    0.1375    0.0000 S   0  0  0  0  0  0  0  0  0  0  0  0
    3.0542   -2.7500    0.0000 N   0  0  0  0  0  0  0  0  0  0  0  0
    4.3167    0.7958    0.0000 N   0  0  0  0  0  0  0  0  0  0  0  0
    0.8042    0.3958    0.0000 N   0  0  0  0  0  0  0  0  0  0  0  0
    4.7292    0.0833    0.0000 C   0  0  0  0  0  0  0  0  0  0  0  0
    3.4167   -3.4917    0.0000 C   0  0  0  0  0  0  0  0  0  0  0  0
    2.2417   -2.8375    0.0000 C   0  0  0  0  0  0  0  0  0  0  0  0
    3.2667    2.2583    0.0000 C   0  0  0  0  0  0  0  0  0  0  0  0
    1.5167   -0.0167    0.0000 C   0  0  0  0  0  0  0  0  0  0  0  0
    1.5167    1.6333    0.0000 C   0  0  0  0  0  0  0  0  0  0  0  0
    3.4792   -2.0625    0.0000 C   0  0  0  0  0  0  0  0  0  0  0  0
    4.3167   -0.6292    0.0000 C   0  0  0  0  0  0  0  0  0  0  0  0
    0.8042    1.2208    0.0000 C   0  0  0  0  0  0  0  0  0  0  0  0
    5.5667    0.0833    0.0000 O   0  0  0  0  0  0  0  0  0  0  0  0
    2.1167   -3.6667    0.0000 C   0  0  0  0  0  0  0  0  0  0  0  0
    2.8042   -4.0625    0.0000 C   0  0  0  0  0  0  0  0  0  0  0  0
    1.6542   -2.2417    0.0000 O   0  0  0  0  0  0  0  0  0  0  0  0
    4.2292   -3.6542    0.0000 O   0  0  0  0  0  0  0  0  0  0  0  0
    2.7292    2.8833    0.0000 O   0  0  0  0  0  0  0  0  0  0  0  0
    4.3167   -2.0417    0.0000 C   0  0  0  0  0  0  0  0  0  0  0  0
    3.0917   -1.3292    0.0000 C   0  0  0  0  0  0  0  0  0  0  0  0
    4.7542   -1.3542    0.0000 C   0  0  0  0  0  0  0  0  0  0  0  0
    3.5042   -0.6125    0.0000 C   0  0  0  0  0  0  0  0  0  0  0  0
    0.0792   -0.0167    0.0000 C   0  0  0  0  0  0  0  0  0  0  0  0
    4.0792    2.4333    0.0000 O   0  0  0  0  0  0  0  0  0  0  0  0
    0.0917   -0.8542    0.0000 C   0  0  0  0  0  0  0  0  0  0  0  0
   -0.6208    0.3958    0.0000 C   0  0  0  0  0  0  0  0  0  0  0  0
    4.6292    1.8250    0.0000 C   0  0  0  0  0  0  0  0  0  0  0  0
    5.4375    2.0000    0.0000 C   0  0  0  0  0  0  0  0  0  0  0  0
    7.0834   -0.4375    0.0000 Cl  0  0  0  0  0  0  0  0  0  0  0  0
  3  5  1  0  0  0  0
  4  2  1  0  0  0  0
  5  1  1  0  0  0  0
  6 15  1  0  0  0  0
  7  1  1  0  0  0  0
  8 13  1  0  0  0  0
  9  7  1  0  0  0  0
 10  6  1  0  0  0  0
 11  6  1  0  0  0  0
 12  2  1  0  0  0  0
 13  3  1  0  0  0  0
 14  4  1  0  0  0  0
 15 25  2  0  0  0  0
 16  9  1  0  0  0  0
 17 14  1  0  0  0  0
 18  9  2  0  0  0  0
 19 11  1  0  0  0  0
 20 10  1  0  0  0  0
 21 11  2  0  0  0  0
 22 10  2  0  0  0  0
 23 12  2  0  0  0  0
 24 26  2  0  0  0  0
 25 27  1  0  0  0  0
 26 16  1  0  0  0  0
 27 16  2  0  0  0  0
 28  8  1  0  0  0  0
 29 12  1  0  0  0  0
 30 28  1  0  0  0  0
 31 28  1  0  0  0  0
 32 29  1  0  0  0  0
 33 32  1  0  0  0  0
  3  4  2  0  0  0  0
  8 17  1  0  0  0  0
 15 24  1  0  0  0  0
 20 19  1  0  0  0  0
  2  1  2  0  0  0  0
M  END
>  <IDNUMBER>
F0526-0208

>  <Chemical_Name>
ethyl 2-[4-(2,5-dioxopyrrolidin-1-yl)benzamido]-6-(propan-2-yl)-4H,5H,6H,7H-thieno[2,3-c]pyridine-3-carboxylate hydrochloride

>  <PriceCoeff>
1.00

>  <CAS>
1330030-39-1

>  <MW>
469.55

>  <Description>
solid

>  <FSP3>
0.42

>  <clogP>
2.45

>  <TPSA>
124.26

>  <Acceptor>
5

>  <Donor>
2

>  <RotBonds>
7

>  <HAC>
33

>  <Collection>
General

>  <PPDS>
+

$$$$
F0526-0209
  Mrv2219 10102508112D          

 33 35  0  0  0  0            999 V2000
    2.8455    0.6365    0.0000 C   0  0  0  0  0  0  0  0  0  0  0  0
    2.3629    1.3063    0.0000 C   0  0  0  0  0  0  0  0  0  0  0  0
    4.1101   -2.9328    0.0000 N   0  0  0  0  0  0  0  0  0  0  0  0
    1.5766    1.0566    0.0000 C   0  0  0  0  0  0  0  0  0  0  0  0
    1.5766    0.2330    0.0000 C   0  0  0  0  0  0  0  0  0  0  0  0
    2.3629   -0.0292    0.0000 S   0  0  0  0  0  0  0  0  0  0  0  0
    3.6733    0.6323    0.0000 N   0  0  0  0  0  0  0  0  0  0  0  0
    3.6858   -2.2257    0.0000 C   0  0  0  0  0  0  0  0  0  0  0  0
    4.0851   -0.0791    0.0000 C   0  0  0  0  0  0  0  0  0  0  0  0
    4.9214   -3.0452    0.0000 C   0  0  0  0  0  0  0  0  0  0  0  0
    3.7857   -3.6816    0.0000 C   0  0  0  0  0  0  0  0  0  0  0  0
    2.6208    2.0967    0.0000 C   0  0  0  0  0  0  0  0  0  0  0  0
    4.0851   -1.5100    0.0000 C   0  0  0  0  0  0  0  0  0  0  0  0
    0.1415    0.2330    0.0000 N   0  0  0  0  0  0  0  0  0  0  0  0
    0.8653   -0.1789    0.0000 C   0  0  0  0  0  0  0  0  0  0  0  0
    3.6733   -0.7987    0.0000 C   0  0  0  0  0  0  0  0  0  0  0  0
    0.8653    1.4726    0.0000 C   0  0  0  0  0  0  0  0  0  0  0  0
    4.9214   -0.0791    0.0000 O   0  0  0  0  0  0  0  0  0  0  0  0
    4.3971   -4.2182    0.0000 C   0  0  0  0  0  0  0  0  0  0  0  0
    5.0835   -3.8356    0.0000 C   0  0  0  0  0  0  0  0  0  0  0  0
    2.9370   -3.9063    0.0000 O   0  0  0  0  0  0  0  0  0  0  0  0
    5.5204   -2.4128    0.0000 O   0  0  0  0  0  0  0  0  0  0  0  0
    2.0759    2.7206    0.0000 O   0  0  0  0  0  0  0  0  0  0  0  0
    0.1415    1.0566    0.0000 C   0  0  0  0  0  0  0  0  0  0  0  0
    3.4320    2.2796    0.0000 O   0  0  0  0  0  0  0  0  0  0  0  0
    2.8455   -2.2132    0.0000 C   0  0  0  0  0  0  0  0  0  0  0  0
   -0.5823   -0.1789    0.0000 C   0  0  0  0  0  0  0  0  0  0  0  0
    2.8122   -0.7987    0.0000 C   0  0  0  0  0  0  0  0  0  0  0  0
    2.4336   -1.5392    0.0000 C   0  0  0  0  0  0  0  0  0  0  0  0
    3.6733    3.0659    0.0000 C   0  0  0  0  0  0  0  0  0  0  0  0
   -0.5699   -1.0109    0.0000 C   0  0  0  0  0  0  0  0  0  0  0  0
    4.4845    3.2406    0.0000 C   0  0  0  0  0  0  0  0  0  0  0  0
    7.0346   -0.3952    0.0000 Cl  0  0  0  0  0  0  0  0  0  0  0  0
  3  8  1  0  0  0  0
  4  2  1  0  0  0  0
  5  6  1  0  0  0  0
  6  1  1  0  0  0  0
  7  1  1  0  0  0  0
  8 13  2  0  0  0  0
  9  7  1  0  0  0  0
 10  3  1  0  0  0  0
 11  3  1  0  0  0  0
 12  2  1  0  0  0  0
 13 16  1  0  0  0  0
 14 15  1  0  0  0  0
 15  5  1  0  0  0  0
 16  9  1  0  0  0  0
 17  4  1  0  0  0  0
 18  9  2  0  0  0  0
 19 11  1  0  0  0  0
 20 10  1  0  0  0  0
 21 11  2  0  0  0  0
 22 10  2  0  0  0  0
 23 12  2  0  0  0  0
 24 17  1  0  0  0  0
 25 12  1  0  0  0  0
 26 29  2  0  0  0  0
 27 14  1  0  0  0  0
 28 16  2  0  0  0  0
 29 28  1  0  0  0  0
 30 25  1  0  0  0  0
 31 27  1  0  0  0  0
 32 30  1  0  0  0  0
  5  4  2  0  0  0  0
 14 24  1  0  0  0  0
  8 26  1  0  0  0  0
 20 19  1  0  0  0  0
  2  1  2  0  0  0  0
M  END
>  <IDNUMBER>
F0526-0209

>  <Chemical_Name>
ethyl 2-[3-(2,5-dioxopyrrolidin-1-yl)benzamido]-6-ethyl-4H,5H,6H,7H-thieno[2,3-c]pyridine-3-carboxylate hydrochloride

>  <PriceCoeff>
1.00

>  <CAS>
1135200-67-7

>  <MW>
455.53

>  <Description>
solid

>  <FSP3>
0.39

>  <clogP>
1.92

>  <TPSA>
124.26

>  <Acceptor>
5

>  <Donor>
2

>  <RotBonds>
7

>  <HAC>
32

>  <Collection>
General

>  <PPDS>
+

$$$$
F0526-0357
  Mrv2219 10102508112D          

 28 29  0  0  0  0            999 V2000
    1.8292   -0.2167    0.0000 C   0  0  0  0  0  0  0  0  0  0  0  0
    1.3542    0.4500    0.0000 C   0  0  0  0  0  0  0  0  0  0  0  0
    3.0792   -2.3792    0.0000 N   0  0  0  0  0  0  0  0  0  0  0  0
    0.5667    0.2000    0.0000 C   0  0  0  0  0  0  0  0  0  0  0  0
    0.5667   -0.6250    0.0000 C   0  0  0  0  0  0  0  0  0  0  0  0
    1.3542   -0.8792    0.0000 S   0  0  0  0  0  0  0  0  0  0  0  0
    2.6542   -0.2167    0.0000 N   0  0  0  0  0  0  0  0  0  0  0  0
    3.8792   -2.4792    0.0000 C   0  0  0  0  0  0  0  0  0  0  0  0
    2.7292   -3.1375    0.0000 C   0  0  0  0  0  0  0  0  0  0  0  0
    1.6042    1.2375    0.0000 C   0  0  0  0  0  0  0  0  0  0  0  0
    3.0667   -0.9375    0.0000 C   0  0  0  0  0  0  0  0  0  0  0  0
    2.6542   -1.6500    0.0000 C   0  0  0  0  0  0  0  0  0  0  0  0
   -0.8583   -0.6250    0.0000 N   0  0  0  0  0  0  0  0  0  0  0  0
   -0.1458   -1.0375    0.0000 C   0  0  0  0  0  0  0  0  0  0  0  0
   -0.1458    0.6125    0.0000 C   0  0  0  0  0  0  0  0  0  0  0  0
    3.3417   -3.7000    0.0000 C   0  0  0  0  0  0  0  0  0  0  0  0
    4.0417   -3.3042    0.0000 C   0  0  0  0  0  0  0  0  0  0  0  0
    1.9167   -3.2917    0.0000 O   0  0  0  0  0  0  0  0  0  0  0  0
    4.4417   -1.8667    0.0000 O   0  0  0  0  0  0  0  0  0  0  0  0
    1.0667    1.8583    0.0000 O   0  0  0  0  0  0  0  0  0  0  0  0
    3.9042   -0.9375    0.0000 O   0  0  0  0  0  0  0  0  0  0  0  0
   -0.8583    0.2000    0.0000 C   0  0  0  0  0  0  0  0  0  0  0  0
    2.4167    1.4125    0.0000 O   0  0  0  0  0  0  0  0  0  0  0  0
   -1.5833   -1.0375    0.0000 C   0  0  0  0  0  0  0  0  0  0  0  0
    3.2125    1.2000    0.0000 C   0  0  0  0  0  0  0  0  0  0  0  0
   -1.5708   -1.8625    0.0000 C   0  0  0  0  0  0  0  0  0  0  0  0
    3.4250    0.4083    0.0000 C   0  0  0  0  0  0  0  0  0  0  0  0
    5.9584   -0.7708    0.0000 Cl  0  0  0  0  0  0  0  0  0  0  0  0
  3 12  1  0  0  0  0
  4  2  1  0  0  0  0
  5  6  1  0  0  0  0
  6  1  1  0  0  0  0
  7  1  1  0  0  0  0
  8  3  1  0  0  0  0
  9  3  1  0  0  0  0
 10  2  1  0  0  0  0
 11  7  1  0  0  0  0
 12 11  1  0  0  0  0
 13 14  1  0  0  0  0
 14  5  1  0  0  0  0
 15  4  1  0  0  0  0
 16  9  1  0  0  0  0
 17  8  1  0  0  0  0
 18  9  2  0  0  0  0
 19  8  2  0  0  0  0
 20 10  2  0  0  0  0
 21 11  2  0  0  0  0
 22 15  1  0  0  0  0
 23 10  1  0  0  0  0
 24 13  1  0  0  0  0
 25 23  1  0  0  0  0
 26 24  1  0  0  0  0
 27 25  1  0  0  0  0
  5  4  2  0  0  0  0
 13 22  1  0  0  0  0
 17 16  1  0  0  0  0
  2  1  2  0  0  0  0
M  END
>  <IDNUMBER>
F0526-0357

>  <Chemical_Name>
ethyl 2-[2-(2,5-dioxopyrrolidin-1-yl)acetamido]-6-ethyl-4H,5H,6H,7H-thieno[2,3-c]pyridine-3-carboxylate hydrochloride

>  <PriceCoeff>
1.00

>  <CAS>
1330959-59-5

>  <MW>
393.46

>  <Description>
solid

>  <FSP3>
0.56

>  <clogP>
1.74

>  <TPSA>
124.26

>  <Acceptor>
5

>  <Donor>
2

>  <RotBonds>
7

>  <HAC>
27

>  <Collection>
General

>  <PPDS>
+

$$$$
F0526-0592
  Mrv2219 10102508112D          

 33 35  0  0  0  0            999 V2000
    2.4411    0.2860    0.0000 C   0  0  0  0  0  0  0  0  0  0  0  0
    1.9645    0.9574    0.0000 C   0  0  0  0  0  0  0  0  0  0  0  0
    1.1812   -0.1161    0.0000 C   0  0  0  0  0  0  0  0  0  0  0  0
    1.1812    0.7087    0.0000 C   0  0  0  0  0  0  0  0  0  0  0  0
    1.9645   -0.3730    0.0000 S   0  0  0  0  0  0  0  0  0  0  0  0
    2.0060   -3.2618    0.0000 N   0  0  0  0  0  0  0  0  0  0  0  0
    3.2618    0.2818    0.0000 N   0  0  0  0  0  0  0  0  0  0  0  0
   -0.2487   -0.1161    0.0000 N   0  0  0  0  0  0  0  0  0  0  0  0
    3.6803   -0.4269    0.0000 C   0  0  0  0  0  0  0  0  0  0  0  0
    2.3624   -4.0036    0.0000 C   0  0  0  0  0  0  0  0  0  0  0  0
    1.1854   -3.3488    0.0000 C   0  0  0  0  0  0  0  0  0  0  0  0
    2.2173    1.7489    0.0000 C   0  0  0  0  0  0  0  0  0  0  0  0
    0.4642   -0.5264    0.0000 C   0  0  0  0  0  0  0  0  0  0  0  0
    0.4642    1.1190    0.0000 C   0  0  0  0  0  0  0  0  0  0  0  0
    2.4245   -2.5737    0.0000 C   0  0  0  0  0  0  0  0  0  0  0  0
    3.2618   -1.1356    0.0000 C   0  0  0  0  0  0  0  0  0  0  0  0
   -0.2487    0.7087    0.0000 C   0  0  0  0  0  0  0  0  0  0  0  0
    4.5134   -0.4269    0.0000 O   0  0  0  0  0  0  0  0  0  0  0  0
    1.0610   -4.1694    0.0000 C   0  0  0  0  0  0  0  0  0  0  0  0
    1.7531   -4.5673    0.0000 C   0  0  0  0  0  0  0  0  0  0  0  0
    0.6010   -2.7520    0.0000 O   0  0  0  0  0  0  0  0  0  0  0  0
    3.1747   -4.1652    0.0000 O   0  0  0  0  0  0  0  0  0  0  0  0
    1.7158    2.3209    0.0000 O   0  0  0  0  0  0  0  0  0  0  0  0
    3.2618   -2.5530    0.0000 C   0  0  0  0  0  0  0  0  0  0  0  0
    2.0433   -1.8402    0.0000 C   0  0  0  0  0  0  0  0  0  0  0  0
    3.7052   -1.8650    0.0000 C   0  0  0  0  0  0  0  0  0  0  0  0
    2.4536   -1.1232    0.0000 C   0  0  0  0  0  0  0  0  0  0  0  0
   -0.9698   -0.5264    0.0000 C   0  0  0  0  0  0  0  0  0  0  0  0
    2.9633    1.9106    0.0000 O   0  0  0  0  0  0  0  0  0  0  0  0
   -0.9574   -1.3677    0.0000 C   0  0  0  0  0  0  0  0  0  0  0  0
   -1.6743   -0.1161    0.0000 C   0  0  0  0  0  0  0  0  0  0  0  0
    3.3488    2.7685    0.0000 C   0  0  0  0  0  0  0  0  0  0  0  0
    6.0220   -0.8040    0.0000 Cl  0  0  0  0  0  0  0  0  0  0  0  0
  3  5  1  0  0  0  0
  4  2  1  0  0  0  0
  5  1  1  0  0  0  0
  6 15  1  0  0  0  0
  7  1  1  0  0  0  0
  8 13  1  0  0  0  0
  9  7  1  0  0  0  0
 10  6  1  0  0  0  0
 11  6  1  0  0  0  0
 12  2  1  0  0  0  0
 13  3  1  0  0  0  0
 14  4  1  0  0  0  0
 15 25  2  0  0  0  0
 16  9  1  0  0  0  0
 17 14  1  0  0  0  0
 18  9  2  0  0  0  0
 19 11  1  0  0  0  0
 20 10  1  0  0  0  0
 21 11  2  0  0  0  0
 22 10  2  0  0  0  0
 23 12  2  0  0  0  0
 24 26  2  0  0  0  0
 25 27  1  0  0  0  0
 26 16  1  0  0  0  0
 27 16  2  0  0  0  0
 28  8  1  0  0  0  0
 29 12  1  0  0  0  0
 30 28  1  0  0  0  0
 31 28  1  0  0  0  0
 32 29  1  0  0  0  0
  3  4  2  0  0  0  0
  8 17  1  0  0  0  0
 15 24  1  0  0  0  0
 20 19  1  0  0  0  0
  2  1  2  0  0  0  0
M  END
>  <IDNUMBER>
F0526-0592

>  <Chemical_Name>
methyl 2-[4-(2,5-dioxopyrrolidin-1-yl)benzamido]-6-(propan-2-yl)-4H,5H,6H,7H-thieno[2,3-c]pyridine-3-carboxylate hydrochloride

>  <PriceCoeff>
1.00

>  <CAS>
1329920-44-6

>  <MW>
455.53

>  <Description>
solid

>  <FSP3>
0.39

>  <clogP>
1.92

>  <TPSA>
124.26

>  <Acceptor>
5

>  <Donor>
2

>  <RotBonds>
6

>  <HAC>
32

>  <Collection>
General

>  <PPDS>
+

$$$$
F0526-0593
  Mrv2219 10102508112D          

 32 34  0  0  0  0            999 V2000
    1.7988    0.2742    0.0000 C   0  0  0  0  0  0  0  0  0  0  0  0
    1.3210    0.9471    0.0000 C   0  0  0  0  0  0  0  0  0  0  0  0
    3.0658   -3.2818    0.0000 N   0  0  0  0  0  0  0  0  0  0  0  0
    0.5359    0.6979    0.0000 C   0  0  0  0  0  0  0  0  0  0  0  0
    0.5359   -0.1288    0.0000 C   0  0  0  0  0  0  0  0  0  0  0  0
    1.3210   -0.3863    0.0000 S   0  0  0  0  0  0  0  0  0  0  0  0
    2.6213    0.2700    0.0000 N   0  0  0  0  0  0  0  0  0  0  0  0
    2.6338   -2.5797    0.0000 C   0  0  0  0  0  0  0  0  0  0  0  0
    3.0408   -0.4404    0.0000 C   0  0  0  0  0  0  0  0  0  0  0  0
    3.8758   -3.3940    0.0000 C   0  0  0  0  0  0  0  0  0  0  0  0
    2.7417   -4.0296    0.0000 C   0  0  0  0  0  0  0  0  0  0  0  0
    1.5745    1.7406    0.0000 C   0  0  0  0  0  0  0  0  0  0  0  0
    3.0326   -1.8611    0.0000 C   0  0  0  0  0  0  0  0  0  0  0  0
   -0.8973   -0.1288    0.0000 N   0  0  0  0  0  0  0  0  0  0  0  0
   -0.1827   -0.5401    0.0000 C   0  0  0  0  0  0  0  0  0  0  0  0
    2.6213   -1.1507    0.0000 C   0  0  0  0  0  0  0  0  0  0  0  0
   -0.1827    1.1092    0.0000 C   0  0  0  0  0  0  0  0  0  0  0  0
    3.8758   -0.4404    0.0000 O   0  0  0  0  0  0  0  0  0  0  0  0
    3.3524   -4.5655    0.0000 C   0  0  0  0  0  0  0  0  0  0  0  0
    4.0378   -4.1791    0.0000 C   0  0  0  0  0  0  0  0  0  0  0  0
    1.8943   -4.2539    0.0000 O   0  0  0  0  0  0  0  0  0  0  0  0
    4.4658   -2.7667    0.0000 O   0  0  0  0  0  0  0  0  0  0  0  0
    1.0718    2.3138    0.0000 O   0  0  0  0  0  0  0  0  0  0  0  0
   -0.8973    0.6979    0.0000 C   0  0  0  0  0  0  0  0  0  0  0  0
    2.3222    1.9026    0.0000 O   0  0  0  0  0  0  0  0  0  0  0  0
    1.7988   -2.5715    0.0000 C   0  0  0  0  0  0  0  0  0  0  0  0
   -1.6201   -0.5401    0.0000 C   0  0  0  0  0  0  0  0  0  0  0  0
    1.7697   -1.1507    0.0000 C   0  0  0  0  0  0  0  0  0  0  0  0
    1.3875   -1.8943    0.0000 C   0  0  0  0  0  0  0  0  0  0  0  0
    2.7085    2.7625    0.0000 C   0  0  0  0  0  0  0  0  0  0  0  0
   -1.6159   -1.3709    0.0000 C   0  0  0  0  0  0  0  0  0  0  0  0
    5.9779   -0.8059    0.0000 Cl  0  0  0  0  0  0  0  0  0  0  0  0
  3  8  1  0  0  0  0
  4  2  1  0  0  0  0
  5  6  1  0  0  0  0
  6  1  1  0  0  0  0
  7  1  1  0  0  0  0
  8 13  2  0  0  0  0
  9  7  1  0  0  0  0
 10  3  1  0  0  0  0
 11  3  1  0  0  0  0
 12  2  1  0  0  0  0
 13 16  1  0  0  0  0
 14 15  1  0  0  0  0
 15  5  1  0  0  0  0
 16  9  1  0  0  0  0
 17  4  1  0  0  0  0
 18  9  2  0  0  0  0
 19 11  1  0  0  0  0
 20 10  1  0  0  0  0
 21 11  2  0  0  0  0
 22 10  2  0  0  0  0
 23 12  2  0  0  0  0
 24 17  1  0  0  0  0
 25 12  1  0  0  0  0
 26 29  2  0  0  0  0
 27 14  1  0  0  0  0
 28 16  2  0  0  0  0
 29 28  1  0  0  0  0
 30 25  1  0  0  0  0
 31 27  1  0  0  0  0
  5  4  2  0  0  0  0
 14 24  1  0  0  0  0
  8 26  1  0  0  0  0
 20 19  1  0  0  0  0
  2  1  2  0  0  0  0
M  END
>  <IDNUMBER>
F0526-0593

>  <Chemical_Name>
methyl 2-[3-(2,5-dioxopyrrolidin-1-yl)benzamido]-6-ethyl-4H,5H,6H,7H-thieno[2,3-c]pyridine-3-carboxylate hydrochloride

>  <PriceCoeff>
1.00

>  <CAS>
1329840-45-0

>  <MW>
441.50

>  <Description>
solid

>  <FSP3>
0.36

>  <clogP>
1.39

>  <TPSA>
124.26

>  <Acceptor>
5

>  <Donor>
2

>  <RotBonds>
6

>  <HAC>
31

>  <Collection>
General

>  <PPDS>
+

$$$$
F0526-1128
  Mrv2219 10102508112D          

 26 27  0  0  0  0            999 V2000
    3.0542    0.1458    0.0000 C   0  0  0  0  0  0  0  0  0  0  0  0
    2.5792    0.8208    0.0000 C   0  0  0  0  0  0  0  0  0  0  0  0
    4.3042   -2.0167    0.0000 N   0  0  0  0  0  0  0  0  0  0  0  0
    1.7917   -0.2542    0.0000 C   0  0  0  0  0  0  0  0  0  0  0  0
    1.7917    0.5708    0.0000 C   0  0  0  0  0  0  0  0  0  0  0  0
    2.5792   -0.5167    0.0000 S   0  0  0  0  0  0  0  0  0  0  0  0
    3.8792    0.1458    0.0000 N   0  0  0  0  0  0  0  0  0  0  0  0
    0.3667   -0.2542    0.0000 N   0  0  0  0  0  0  0  0  0  0  0  0
    5.1042   -2.1125    0.0000 C   0  0  0  0  0  0  0  0  0  0  0  0
    3.9542   -2.7667    0.0000 C   0  0  0  0  0  0  0  0  0  0  0  0
    1.0792   -0.6667    0.0000 C   0  0  0  0  0  0  0  0  0  0  0  0
    2.8292    1.6083    0.0000 C   0  0  0  0  0  0  0  0  0  0  0  0
    4.2917   -0.5667    0.0000 C   0  0  0  0  0  0  0  0  0  0  0  0
    3.8792   -1.2792    0.0000 C   0  0  0  0  0  0  0  0  0  0  0  0
    3.0917    2.3833    0.0000 N   0  0  0  0  0  0  0  0  0  0  0  0
    1.0792    0.9833    0.0000 C   0  0  0  0  0  0  0  0  0  0  0  0
    0.3667    0.5708    0.0000 C   0  0  0  0  0  0  0  0  0  0  0  0
    5.2667   -2.9417    0.0000 C   0  0  0  0  0  0  0  0  0  0  0  0
    4.5667   -3.3292    0.0000 C   0  0  0  0  0  0  0  0  0  0  0  0
    3.1417   -2.9292    0.0000 O   0  0  0  0  0  0  0  0  0  0  0  0
    5.6667   -1.5042    0.0000 O   0  0  0  0  0  0  0  0  0  0  0  0
    5.1292   -0.5667    0.0000 O   0  0  0  0  0  0  0  0  0  0  0  0
   -0.3583   -0.6667    0.0000 C   0  0  0  0  0  0  0  0  0  0  0  0
   -0.3458   -1.5042    0.0000 C   0  0  0  0  0  0  0  0  0  0  0  0
   -1.0583   -0.2542    0.0000 C   0  0  0  0  0  0  0  0  0  0  0  0
    7.1834   -0.3208    0.0000 Cl  0  0  0  0  0  0  0  0  0  0  0  0
  3 14  1  0  0  0  0
  4  6  1  0  0  0  0
  5  2  1  0  0  0  0
  6  1  1  0  0  0  0
  7  1  1  0  0  0  0
  8 11  1  0  0  0  0
  9  3  1  0  0  0  0
 10  3  1  0  0  0  0
 11  4  1  0  0  0  0
 12  2  1  0  0  0  0
 13  7  1  0  0  0  0
 14 13  1  0  0  0  0
 15 12  3  0  0  0  0
 16  5  1  0  0  0  0
 17 16  1  0  0  0  0
 18  9  1  0  0  0  0
 19 10  1  0  0  0  0
 20 10  2  0  0  0  0
 21  9  2  0  0  0  0
 22 13  2  0  0  0  0
 23  8  1  0  0  0  0
 24 23  1  0  0  0  0
 25 23  1  0  0  0  0
  4  5  2  0  0  0  0
  8 17  1  0  0  0  0
 18 19  1  0  0  0  0
  2  1  2  0  0  0  0
M  END
>  <IDNUMBER>
F0526-1128

>  <Chemical_Name>
N-[3-cyano-6-(propan-2-yl)-4H,5H,6H,7H-thieno[2,3-c]pyridin-2-yl]-2-(2,5-dioxopyrrolidin-1-yl)acetamide hydrochloride

>  <PriceCoeff>
1.00

>  <CAS>
1219186-59-0

>  <MW>
360.43

>  <Description>
solid

>  <FSP3>
0.53

>  <clogP>
0.42

>  <TPSA>
121.75

>  <Acceptor>
4

>  <Donor>
2

>  <RotBonds>
4

>  <HAC>
25

>  <Collection>
General

$$$$
F0526-1893
  Mrv2219 10102508112D          

 32 35  0  0  0  0            999 V2000
    2.2282   -1.4285    0.0000 C   0  0  0  0  0  0  0  0  0  0  0  0
    2.7030   -2.1032    0.0000 C   0  0  0  0  0  0  0  0  0  0  0  0
    2.4781   -0.6414    0.0000 C   0  0  0  0  0  0  0  0  0  0  0  0
    3.9524   -4.2647    0.0000 N   0  0  0  0  0  0  0  0  0  0  0  0
    1.4410   -1.6784    0.0000 C   0  0  0  0  0  0  0  0  0  0  0  0
    1.4410   -2.5031    0.0000 C   0  0  0  0  0  0  0  0  0  0  0  0
    1.9658    0.0000    0.0000 N   0  0  0  0  0  0  0  0  0  0  0  0
    2.2282   -2.7654    0.0000 S   0  0  0  0  0  0  0  0  0  0  0  0
    3.2402   -0.4373    0.0000 S   0  0  0  0  0  0  0  0  0  0  0  0
    3.5276   -2.1032    0.0000 N   0  0  0  0  0  0  0  0  0  0  0  0
    4.7520   -4.3605    0.0000 C   0  0  0  0  0  0  0  0  0  0  0  0
    3.6025   -5.0144    0.0000 C   0  0  0  0  0  0  0  0  0  0  0  0
    3.9399   -2.8154    0.0000 C   0  0  0  0  0  0  0  0  0  0  0  0
    2.4656    0.6497    0.0000 C   0  0  0  0  0  0  0  0  0  0  0  0
    3.2277    0.3748    0.0000 C   0  0  0  0  0  0  0  0  0  0  0  0
    3.5276   -3.5276    0.0000 C   0  0  0  0  0  0  0  0  0  0  0  0
    0.0167   -2.5031    0.0000 N   0  0  0  0  0  0  0  0  0  0  0  0
    0.7289   -2.9154    0.0000 C   0  0  0  0  0  0  0  0  0  0  0  0
    0.7289   -1.2661    0.0000 C   0  0  0  0  0  0  0  0  0  0  0  0
    4.9144   -5.1893    0.0000 C   0  0  0  0  0  0  0  0  0  0  0  0
    4.2148   -5.5766    0.0000 C   0  0  0  0  0  0  0  0  0  0  0  0
    2.7904   -5.1768    0.0000 O   0  0  0  0  0  0  0  0  0  0  0  0
    5.3143   -3.7525    0.0000 O   0  0  0  0  0  0  0  0  0  0  0  0
    4.7770   -2.8154    0.0000 O   0  0  0  0  0  0  0  0  0  0  0  0
    0.0167   -1.6784    0.0000 C   0  0  0  0  0  0  0  0  0  0  0  0
   -0.7080   -2.9154    0.0000 C   0  0  0  0  0  0  0  0  0  0  0  0
    2.3156    1.4618    0.0000 C   0  0  0  0  0  0  0  0  0  0  0  0
    3.8774    0.8996    0.0000 C   0  0  0  0  0  0  0  0  0  0  0  0
   -0.6955   -3.7400    0.0000 C   0  0  0  0  0  0  0  0  0  0  0  0
    3.7275    1.7242    0.0000 C   0  0  0  0  0  0  0  0  0  0  0  0
    2.9279    2.0324    0.0000 C   0  0  0  0  0  0  0  0  0  0  0  0
    6.8303   -1.6784    0.0000 Cl  0  0  0  0  0  0  0  0  0  0  0  0
  3  1  1  0  0  0  0
  4 16  1  0  0  0  0
  5  1  1  0  0  0  0
  6  5  2  0  0  0  0
  7  3  2  0  0  0  0
  8  2  1  0  0  0  0
  9  3  1  0  0  0  0
 10  2  1  0  0  0  0
 11  4  1  0  0  0  0
 12  4  1  0  0  0  0
 13 10  1  0  0  0  0
 14  7  1  0  0  0  0
 15  9  1  0  0  0  0
 16 13  1  0  0  0  0
 17 25  1  0  0  0  0
 18  6  1  0  0  0  0
 19  5  1  0  0  0  0
 20 11  1  0  0  0  0
 21 12  1  0  0  0  0
 22 12  2  0  0  0  0
 23 11  2  0  0  0  0
 24 13  2  0  0  0  0
 25 19  1  0  0  0  0
 26 17  1  0  0  0  0
 27 14  1  0  0  0  0
 28 15  1  0  0  0  0
 29 26  1  0  0  0  0
 30 28  2  0  0  0  0
 31 27  2  0  0  0  0
  8  6  1  0  0  0  0
 17 18  1  0  0  0  0
 15 14  2  0  0  0  0
 30 31  1  0  0  0  0
 20 21  1  0  0  0  0
  2  1  2  0  0  0  0
M  END
>  <IDNUMBER>
F0526-1893

>  <Chemical_Name>
N-[3-(1,3-benzothiazol-2-yl)-6-ethyl-4H,5H,6H,7H-thieno[2,3-c]pyridin-2-yl]-2-(2,5-dioxopyrrolidin-1-yl)acetamide hydrochloride

>  <PriceCoeff>
1.00

>  <CAS>
1330325-74-0

>  <MW>
454.57

>  <Description>
solid

>  <FSP3>
0.36

>  <clogP>
1.97

>  <TPSA>
139.09

>  <Acceptor>
4

>  <Donor>
2

>  <RotBonds>
5

>  <HAC>
31

>  <Collection>
General

>  <PPDS>
+

$$$$
F0526-1896
  Mrv2219 10102508112D          

 33 36  0  0  0  0            999 V2000
    2.5754   -1.4271    0.0000 C   0  0  0  0  0  0  0  0  0  0  0  0
    3.0497   -2.1011    0.0000 C   0  0  0  0  0  0  0  0  0  0  0  0
    2.8250   -0.6407    0.0000 C   0  0  0  0  0  0  0  0  0  0  0  0
    4.2978   -4.2603    0.0000 N   0  0  0  0  0  0  0  0  0  0  0  0
    1.7890   -2.5005    0.0000 C   0  0  0  0  0  0  0  0  0  0  0  0
    1.7890   -1.6767    0.0000 C   0  0  0  0  0  0  0  0  0  0  0  0
    2.3133    0.0000    0.0000 N   0  0  0  0  0  0  0  0  0  0  0  0
    2.5754   -2.7626    0.0000 S   0  0  0  0  0  0  0  0  0  0  0  0
    3.5864   -0.4368    0.0000 S   0  0  0  0  0  0  0  0  0  0  0  0
    3.8734   -2.1011    0.0000 N   0  0  0  0  0  0  0  0  0  0  0  0
    0.3662   -2.5005    0.0000 N   0  0  0  0  0  0  0  0  0  0  0  0
    5.0966   -4.3560    0.0000 C   0  0  0  0  0  0  0  0  0  0  0  0
    3.9483   -5.0092    0.0000 C   0  0  0  0  0  0  0  0  0  0  0  0
    1.0776   -2.9124    0.0000 C   0  0  0  0  0  0  0  0  0  0  0  0
    4.2853   -2.8125    0.0000 C   0  0  0  0  0  0  0  0  0  0  0  0
    2.8125    0.6490    0.0000 C   0  0  0  0  0  0  0  0  0  0  0  0
    3.5739    0.3744    0.0000 C   0  0  0  0  0  0  0  0  0  0  0  0
    3.8734   -3.5239    0.0000 C   0  0  0  0  0  0  0  0  0  0  0  0
    1.0776   -1.2648    0.0000 C   0  0  0  0  0  0  0  0  0  0  0  0
    0.3662   -1.6767    0.0000 C   0  0  0  0  0  0  0  0  0  0  0  0
    5.2589   -5.1840    0.0000 C   0  0  0  0  0  0  0  0  0  0  0  0
    4.5599   -5.5709    0.0000 C   0  0  0  0  0  0  0  0  0  0  0  0
    3.1370   -5.1715    0.0000 O   0  0  0  0  0  0  0  0  0  0  0  0
    5.6583   -3.7486    0.0000 O   0  0  0  0  0  0  0  0  0  0  0  0
    5.1216   -2.8125    0.0000 O   0  0  0  0  0  0  0  0  0  0  0  0
   -0.3578   -2.9124    0.0000 C   0  0  0  0  0  0  0  0  0  0  0  0
    2.6627    1.4603    0.0000 C   0  0  0  0  0  0  0  0  0  0  0  0
    4.2229    0.8987    0.0000 C   0  0  0  0  0  0  0  0  0  0  0  0
   -0.3453   -3.7486    0.0000 C   0  0  0  0  0  0  0  0  0  0  0  0
   -1.0567   -2.5005    0.0000 C   0  0  0  0  0  0  0  0  0  0  0  0
    3.2743    2.0303    0.0000 C   0  0  0  0  0  0  0  0  0  0  0  0
    4.0731    1.7224    0.0000 C   0  0  0  0  0  0  0  0  0  0  0  0
    7.1727   -1.6767    0.0000 Cl  0  0  0  0  0  0  0  0  0  0  0  0
  3  1  1  0  0  0  0
  4 18  1  0  0  0  0
  5  6  2  0  0  0  0
  6  1  1  0  0  0  0
  7  3  2  0  0  0  0
  8  2  1  0  0  0  0
  9  3  1  0  0  0  0
 10  2  1  0  0  0  0
 11 20  1  0  0  0  0
 12  4  1  0  0  0  0
 13  4  1  0  0  0  0
 14  5  1  0  0  0  0
 15 10  1  0  0  0  0
 16  7  1  0  0  0  0
 17  9  1  0  0  0  0
 18 15  1  0  0  0  0
 19  6  1  0  0  0  0
 20 19  1  0  0  0  0
 21 12  1  0  0  0  0
 22 13  1  0  0  0  0
 23 13  2  0  0  0  0
 24 12  2  0  0  0  0
 25 15  2  0  0  0  0
 26 11  1  0  0  0  0
 27 16  1  0  0  0  0
 28 17  1  0  0  0  0
 29 26  1  0  0  0  0
 30 26  1  0  0  0  0
 31 27  2  0  0  0  0
 32 28  2  0  0  0  0
  8  5  1  0  0  0  0
 11 14  1  0  0  0  0
 17 16  2  0  0  0  0
 32 31  1  0  0  0  0
 21 22  1  0  0  0  0
  2  1  2  0  0  0  0
M  END
>  <IDNUMBER>
F0526-1896

>  <Chemical_Name>
N-[3-(1,3-benzothiazol-2-yl)-6-(propan-2-yl)-4H,5H,6H,7H-thieno[2,3-c]pyridin-2-yl]-2-(2,5-dioxopyrrolidin-1-yl)acetamide hydrochloride

>  <PriceCoeff>
1.00

>  <CAS>
1189927-07-8

>  <MW>
468.59

>  <Description>
solid

>  <FSP3>
0.39

>  <clogP>
2.28

>  <TPSA>
139.09

>  <Acceptor>
4

>  <Donor>
2

>  <RotBonds>
5

>  <HAC>
32

>  <Collection>
General

>  <PPDS>
+

$$$$
F0526-2010
  Mrv2219 10102508112D          

 32 35  0  0  0  0            999 V2000
    3.4135   -4.3626    0.0000 C   0  0  0  0  0  0  0  0  0  0  0  0
    3.7465   -3.6133    0.0000 C   0  0  0  0  0  0  0  0  0  0  0  0
    4.6956   -6.5106    0.0000 N   0  0  0  0  0  0  0  0  0  0  0  0
    2.4145   -3.4760    0.0000 C   0  0  0  0  0  0  0  0  0  0  0  0
    2.5893   -4.2877    0.0000 S   0  0  0  0  0  0  0  0  0  0  0  0
    3.1263   -3.0638    0.0000 C   0  0  0  0  0  0  0  0  0  0  0  0
    3.8381   -5.0870    0.0000 N   0  0  0  0  0  0  0  0  0  0  0  0
    5.1744   -5.8570    0.0000 C   0  0  0  0  0  0  0  0  0  0  0  0
    5.1744   -7.1725    0.0000 C   0  0  0  0  0  0  0  0  0  0  0  0
    4.5500   -3.4260    0.0000 C   0  0  0  0  0  0  0  0  0  0  0  0
    3.4260   -5.8113    0.0000 C   0  0  0  0  0  0  0  0  0  0  0  0
    3.8506   -6.5231    0.0000 C   0  0  0  0  0  0  0  0  0  0  0  0
   -0.4579   -3.4884    0.0000 C   0  0  0  0  0  0  0  0  0  0  0  0
    1.6901   -3.0638    0.0000 C   0  0  0  0  0  0  0  0  0  0  0  0
   -0.4579   -4.3127    0.0000 C   0  0  0  0  0  0  0  0  0  0  0  0
   -1.2363   -3.2345    0.0000 O   0  0  0  0  0  0  0  0  0  0  0  0
   -1.2363   -4.5624    0.0000 O   0  0  0  0  0  0  0  0  0  0  0  0
   -1.7192   -3.8964    0.0000 C   0  0  0  0  0  0  0  0  0  0  0  0
    0.2540   -3.0763    0.0000 C   0  0  0  0  0  0  0  0  0  0  0  0
    5.9694   -6.9227    0.0000 C   0  0  0  0  0  0  0  0  0  0  0  0
    5.9736   -6.1193    0.0000 C   0  0  0  0  0  0  0  0  0  0  0  0
    0.9741   -3.4884    0.0000 C   0  0  0  0  0  0  0  0  0  0  0  0
    4.9204   -7.9551    0.0000 O   0  0  0  0  0  0  0  0  0  0  0  0
    4.9204   -5.0703    0.0000 O   0  0  0  0  0  0  0  0  0  0  0  0
    4.8122   -2.6475    0.0000 O   0  0  0  0  0  0  0  0  0  0  0  0
    2.6018   -5.8238    0.0000 O   0  0  0  0  0  0  0  0  0  0  0  0
    0.2540   -4.7248    0.0000 C   0  0  0  0  0  0  0  0  0  0  0  0
    5.1119   -4.0337    0.0000 O   0  0  0  0  0  0  0  0  0  0  0  0
    0.9741   -4.3127    0.0000 C   0  0  0  0  0  0  0  0  0  0  0  0
    3.2012   -2.2396    0.0000 C   0  0  0  0  0  0  0  0  0  0  0  0
    5.9112   -3.8464    0.0000 C   0  0  0  0  0  0  0  0  0  0  0  0
    6.4732   -4.4501    0.0000 C   0  0  0  0  0  0  0  0  0  0  0  0
  2  1  2  0  0  0  0
  3 12  1  0  0  0  0
  4  5  1  0  0  0  0
  5  1  1  0  0  0  0
  6  2  1  0  0  0  0
  7  1  1  0  0  0  0
  8  3  1  0  0  0  0
  9  3  1  0  0  0  0
 10  2  1  0  0  0  0
 11  7  1  0  0  0  0
 12 11  1  0  0  0  0
 13 19  1  0  0  0  0
 14  4  1  0  0  0  0
 15 27  1  0  0  0  0
 16 13  1  0  0  0  0
 17 15  1  0  0  0  0
 18 16  1  0  0  0  0
 19 22  2  0  0  0  0
 20  9  1  0  0  0  0
 21  8  1  0  0  0  0
 22 14  1  0  0  0  0
 23  9  2  0  0  0  0
 24  8  2  0  0  0  0
 25 10  2  0  0  0  0
 26 11  2  0  0  0  0
 27 29  2  0  0  0  0
 28 10  1  0  0  0  0
 29 22  1  0  0  0  0
 30  6  1  0  0  0  0
 31 28  1  0  0  0  0
 32 31  1  0  0  0  0
  4  6  2  0  0  0  0
 21 20  1  0  0  0  0
 13 15  2  0  0  0  0
 17 18  1  0  0  0  0
M  END
>  <IDNUMBER>
F0526-2010

>  <Chemical_Name>
ethyl 5-[(2H-1,3-benzodioxol-5-yl)methyl]-2-[2-(2,5-dioxopyrrolidin-1-yl)acetamido]-4-methylthiophene-3-carboxylate

>  <PriceCoeff>
1.00

>  <CAS>
476366-07-1

>  <MW>
458.48

>  <Description>
solid

>  <FSP3>
0.36

>  <clogP>
3.79

>  <TPSA>
139.48

>  <Acceptor>
7

>  <Donor>
1

>  <RotBonds>
8

>  <HAC>
32

>  <Collection>
General

>  <PPDS>
+

$$$$
F0526-2106
  Mrv2219 10102508112D          

 31 34  0  0  0  0            999 V2000
    3.4060   -0.4279    0.0000 C   0  0  0  0  0  0  0  0  0  0  0  0
    3.7383    0.3198    0.0000 C   0  0  0  0  0  0  0  0  0  0  0  0
    4.6853   -2.5712    0.0000 N   0  0  0  0  0  0  0  0  0  0  0  0
    2.4092    0.4569    0.0000 C   0  0  0  0  0  0  0  0  0  0  0  0
    2.5836   -0.3531    0.0000 S   0  0  0  0  0  0  0  0  0  0  0  0
    3.1194    0.8681    0.0000 C   0  0  0  0  0  0  0  0  0  0  0  0
    3.8296   -1.1506    0.0000 N   0  0  0  0  0  0  0  0  0  0  0  0
    5.1630   -1.9190    0.0000 C   0  0  0  0  0  0  0  0  0  0  0  0
    5.1630   -3.2316    0.0000 C   0  0  0  0  0  0  0  0  0  0  0  0
    4.5400    0.5068    0.0000 C   0  0  0  0  0  0  0  0  0  0  0  0
    3.4185   -1.8733    0.0000 C   0  0  0  0  0  0  0  0  0  0  0  0
    3.8421   -2.5836    0.0000 C   0  0  0  0  0  0  0  0  0  0  0  0
   -0.4569    0.4444    0.0000 C   0  0  0  0  0  0  0  0  0  0  0  0
    1.6864    0.8681    0.0000 C   0  0  0  0  0  0  0  0  0  0  0  0
   -0.4569   -0.3780    0.0000 C   0  0  0  0  0  0  0  0  0  0  0  0
   -1.2336    0.6978    0.0000 O   0  0  0  0  0  0  0  0  0  0  0  0
   -1.2336   -0.6272    0.0000 O   0  0  0  0  0  0  0  0  0  0  0  0
   -1.7154    0.0374    0.0000 C   0  0  0  0  0  0  0  0  0  0  0  0
    0.2534    0.8556    0.0000 C   0  0  0  0  0  0  0  0  0  0  0  0
    5.9564   -2.9823    0.0000 C   0  0  0  0  0  0  0  0  0  0  0  0
    5.9606   -2.1807    0.0000 C   0  0  0  0  0  0  0  0  0  0  0  0
    0.9719    0.4444    0.0000 C   0  0  0  0  0  0  0  0  0  0  0  0
    4.9096   -4.0124    0.0000 O   0  0  0  0  0  0  0  0  0  0  0  0
    4.9096   -1.1339    0.0000 O   0  0  0  0  0  0  0  0  0  0  0  0
    4.7768    1.2295    0.0000 O   0  0  0  0  0  0  0  0  0  0  0  0
    2.5961   -1.8858    0.0000 O   0  0  0  0  0  0  0  0  0  0  0  0
    0.2534   -0.7892    0.0000 C   0  0  0  0  0  0  0  0  0  0  0  0
    5.0591   -0.0540    0.0000 O   0  0  0  0  0  0  0  0  0  0  0  0
    0.9719   -0.3780    0.0000 C   0  0  0  0  0  0  0  0  0  0  0  0
    3.1942    1.6905    0.0000 C   0  0  0  0  0  0  0  0  0  0  0  0
    5.9978    0.0581    0.0000 C   0  0  0  0  0  0  0  0  0  0  0  0
  2  1  2  0  0  0  0
  3 12  1  0  0  0  0
  4  5  1  0  0  0  0
  5  1  1  0  0  0  0
  6  2  1  0  0  0  0
  7  1  1  0  0  0  0
  8  3  1  0  0  0  0
  9  3  1  0  0  0  0
 10  2  1  0  0  0  0
 11  7  1  0  0  0  0
 12 11  1  0  0  0  0
 13 19  1  0  0  0  0
 14  4  1  0  0  0  0
 15 27  1  0  0  0  0
 16 13  1  0  0  0  0
 17 15  1  0  0  0  0
 18 16  1  0  0  0  0
 19 22  2  0  0  0  0
 20  9  1  0  0  0  0
 21  8  1  0  0  0  0
 22 14  1  0  0  0  0
 23  9  2  0  0  0  0
 24  8  2  0  0  0  0
 25 10  2  0  0  0  0
 26 11  2  0  0  0  0
 27 29  2  0  0  0  0
 28 10  1  0  0  0  0
 29 22  1  0  0  0  0
 30  6  1  0  0  0  0
 31 28  1  0  0  0  0
  4  6  2  0  0  0  0
 21 20  1  0  0  0  0
 13 15  2  0  0  0  0
 17 18  1  0  0  0  0
M  END
>  <IDNUMBER>
F0526-2106

>  <Chemical_Name>
methyl 5-[(2H-1,3-benzodioxol-5-yl)methyl]-2-[2-(2,5-dioxopyrrolidin-1-yl)acetamido]-4-methylthiophene-3-carboxylate

>  <PriceCoeff>
1.00

>  <CAS>
476367-00-7

>  <MW>
444.46

>  <Description>
solid

>  <FSP3>
0.33

>  <clogP>
3.26

>  <TPSA>
139.48

>  <Acceptor>
7

>  <Donor>
1

>  <RotBonds>
7

>  <HAC>
31

>  <Collection>
General

>  <PPDS>
+

$$$$
F0526-2261
  Mrv2219 10102508112D          

 35 39  0  0  0  0            999 V2000
    0.5542    1.7083    0.0000 C   0  0  0  0  0  0  0  0  0  0  0  0
    0.8875    2.4583    0.0000 C   0  0  0  0  0  0  0  0  0  0  0  0
    3.0625   -1.1125    0.0000 N   0  0  0  0  0  0  0  0  0  0  0  0
   -0.4458    2.5958    0.0000 C   0  0  0  0  0  0  0  0  0  0  0  0
   -0.2708    1.7833    0.0000 S   0  0  0  0  0  0  0  0  0  0  0  0
    0.2667    3.0083    0.0000 C   0  0  0  0  0  0  0  0  0  0  0  0
    0.9792    0.9833    0.0000 N   0  0  0  0  0  0  0  0  0  0  0  0
    2.2375   -1.1375    0.0000 C   0  0  0  0  0  0  0  0  0  0  0  0
    0.5667    0.2583    0.0000 C   0  0  0  0  0  0  0  0  0  0  0  0
    3.5500   -0.4542    0.0000 C   0  0  0  0  0  0  0  0  0  0  0  0
    3.5500   -1.7542    0.0000 C   0  0  0  0  0  0  0  0  0  0  0  0
    1.6917    2.6458    0.0000 C   0  0  0  0  0  0  0  0  0  0  0  0
    1.8042   -0.4417    0.0000 C   0  0  0  0  0  0  0  0  0  0  0  0
    0.9917   -0.4542    0.0000 C   0  0  0  0  0  0  0  0  0  0  0  0
   -3.3208    2.5833    0.0000 C   0  0  0  0  0  0  0  0  0  0  0  0
   -1.1708    3.0083    0.0000 C   0  0  0  0  0  0  0  0  0  0  0  0
   -3.3208    1.7583    0.0000 C   0  0  0  0  0  0  0  0  0  0  0  0
   -4.1000    2.8375    0.0000 O   0  0  0  0  0  0  0  0  0  0  0  0
   -4.1000    1.5083    0.0000 O   0  0  0  0  0  0  0  0  0  0  0  0
   -4.5833    2.1750    0.0000 C   0  0  0  0  0  0  0  0  0  0  0  0
   -2.6083    2.9958    0.0000 C   0  0  0  0  0  0  0  0  0  0  0  0
   -0.2583    0.2458    0.0000 O   0  0  0  0  0  0  0  0  0  0  0  0
    4.3167   -1.4875    0.0000 C   0  0  0  0  0  0  0  0  0  0  0  0
    4.3167   -0.7000    0.0000 C   0  0  0  0  0  0  0  0  0  0  0  0
   -1.8875    2.5833    0.0000 C   0  0  0  0  0  0  0  0  0  0  0  0
    3.3375   -2.6042    0.0000 O   0  0  0  0  0  0  0  0  0  0  0  0
    3.2917    0.3708    0.0000 O   0  0  0  0  0  0  0  0  0  0  0  0
    2.2875    1.9875    0.0000 O   0  0  0  0  0  0  0  0  0  0  0  0
   -2.6083    1.3458    0.0000 C   0  0  0  0  0  0  0  0  0  0  0  0
    1.9292    3.3750    0.0000 N   0  0  0  0  0  0  0  0  0  0  0  0
   -1.8875    1.7583    0.0000 C   0  0  0  0  0  0  0  0  0  0  0  0
    0.3417    3.8333    0.0000 C   0  0  0  0  0  0  0  0  0  0  0  0
    1.8167   -1.8625    0.0000 C   0  0  0  0  0  0  0  0  0  0  0  0
    0.5750   -1.1917    0.0000 C   0  0  0  0  0  0  0  0  0  0  0  0
    1.0292   -1.8917    0.0000 C   0  0  0  0  0  0  0  0  0  0  0  0
  2  1  2  0  0  0  0
  3  8  1  0  0  0  0
  4  5  1  0  0  0  0
  5  1  1  0  0  0  0
  6  2  1  0  0  0  0
  7  1  1  0  0  0  0
  8 13  2  0  0  0  0
  9  7  1  0  0  0  0
 10  3  1  0  0  0  0
 11  3  1  0  0  0  0
 12  2  1  0  0  0  0
 13 14  1  0  0  0  0
 14  9  1  0  0  0  0
 15 21  1  0  0  0  0
 16  4  1  0  0  0  0
 17 29  1  0  0  0  0
 18 15  1  0  0  0  0
 19 17  1  0  0  0  0
 20 18  1  0  0  0  0
 21 25  2  0  0  0  0
 22  9  2  0  0  0  0
 23 11  1  0  0  0  0
 24 10  1  0  0  0  0
 25 16  1  0  0  0  0
 26 11  2  0  0  0  0
 27 10  2  0  0  0  0
 28 12  2  0  0  0  0
 29 31  2  0  0  0  0
 30 12  1  0  0  0  0
 31 25  1  0  0  0  0
 32  6  1  0  0  0  0
 33 35  2  0  0  0  0
 34 14  2  0  0  0  0
 35 34  1  0  0  0  0
  4  6  2  0  0  0  0
  8 33  1  0  0  0  0
 17 15  2  0  0  0  0
 24 23  1  0  0  0  0
 19 20  1  0  0  0  0
M  END
>  <IDNUMBER>
F0526-2261

>  <Chemical_Name>
5-[(2H-1,3-benzodioxol-5-yl)methyl]-2-[3-(2,5-dioxopyrrolidin-1-yl)benzamido]-4-methylthiophene-3-carboxamide

>  <PriceCoeff>
1.00

>  <CAS>
476368-62-4

>  <MW>
491.52

>  <Description>
solid

>  <FSP3>
0.20

>  <clogP>
1.88

>  <TPSA>
156.27

>  <Acceptor>
6

>  <Donor>
2

>  <RotBonds>
6

>  <HAC>
35

>  <Collection>
General

>  <PPDS>
+

$$$$
F0536-0555
  Mrv2219 10102508112D          

 29 33  0  0  0  0            999 V2000
   -3.4821    1.7431    0.0000 C   0  0  0  0  0  0  0  0  0  0  0  0
   -3.9115    3.0147    0.0000 C   0  0  0  0  0  0  0  0  0  0  0  0
   -4.3031    1.7431    0.0000 C   0  0  0  0  0  0  0  0  0  0  0  0
   -3.2210    2.5347    0.0000 N   0  0  0  0  0  0  0  0  0  0  0  0
   -3.1452    7.5789    0.0000 N   0  0  0  0  0  0  0  0  0  0  0  0
   -4.5684    2.5347    0.0000 S   0  0  0  0  0  0  0  0  0  0  0  0
   -3.9115    3.8400    0.0000 N   0  0  0  0  0  0  0  0  0  0  0  0
   -3.0442    1.0315    0.0000 C   0  0  0  0  0  0  0  0  0  0  0  0
   -3.1915    4.2484    0.0000 C   0  0  0  0  0  0  0  0  0  0  0  0
   -3.7852    8.0884    0.0000 C   0  0  0  0  0  0  0  0  0  0  0  0
   -2.4884    8.0505    0.0000 C   0  0  0  0  0  0  0  0  0  0  0  0
   -4.3031    0.2989    0.0000 O   0  0  0  0  0  0  0  0  0  0  0  0
   -3.1452    6.7495    0.0000 C   0  0  0  0  0  0  0  0  0  0  0  0
   -4.7199    1.0105    0.0000 C   0  0  0  0  0  0  0  0  0  0  0  0
   -3.4610    0.2989    0.0000 C   0  0  0  0  0  0  0  0  0  0  0  0
   -3.1789    5.0779    0.0000 C   0  0  0  0  0  0  0  0  0  0  0  0
   -2.4715    3.8610    0.0000 O   0  0  0  0  0  0  0  0  0  0  0  0
   -2.7242    8.8294    0.0000 C   0  0  0  0  0  0  0  0  0  0  0  0
   -3.5116    8.8589    0.0000 C   0  0  0  0  0  0  0  0  0  0  0  0
   -1.6421    7.7936    0.0000 O   0  0  0  0  0  0  0  0  0  0  0  0
   -4.6442    7.8358    0.0000 O   0  0  0  0  0  0  0  0  0  0  0  0
   -3.8610    6.3410    0.0000 C   0  0  0  0  0  0  0  0  0  0  0  0
   -2.4336    6.3158    0.0000 C   0  0  0  0  0  0  0  0  0  0  0  0
   -2.4463    5.4737    0.0000 C   0  0  0  0  0  0  0  0  0  0  0  0
   -3.8863    5.4990    0.0000 C   0  0  0  0  0  0  0  0  0  0  0  0
   -2.2231    1.0315    0.0000 C   0  0  0  0  0  0  0  0  0  0  0  0
   -3.0442   -0.4085    0.0000 C   0  0  0  0  0  0  0  0  0  0  0  0
   -1.8147    0.3158    0.0000 C   0  0  0  0  0  0  0  0  0  0  0  0
   -2.2231   -0.4085    0.0000 C   0  0  0  0  0  0  0  0  0  0  0  0
  2  4  2  0  0  0  0
  3  1  2  0  0  0  0
  4  1  1  0  0  0  0
  5 13  1  0  0  0  0
  6  3  1  0  0  0  0
  7  2  1  0  0  0  0
  8  1  1  0  0  0  0
  9  7  1  0  0  0  0
 10  5  1  0  0  0  0
 11  5  1  0  0  0  0
 12 15  1  0  0  0  0
 13 22  1  0  0  0  0
 14  3  1  0  0  0  0
 15  8  2  0  0  0  0
 16  9  1  0  0  0  0
 17  9  2  0  0  0  0
 18 11  1  0  0  0  0
 19 10  1  0  0  0  0
 20 11  2  0  0  0  0
 21 10  2  0  0  0  0
 22 25  2  0  0  0  0
 23 24  1  0  0  0  0
 24 16  2  0  0  0  0
 25 16  1  0  0  0  0
 26  8  1  0  0  0  0
 27 15  1  0  0  0  0
 28 26  2  0  0  0  0
 29 28  1  0  0  0  0
 12 14  1  0  0  0  0
  2  6  1  0  0  0  0
 27 29  2  0  0  0  0
 23 13  2  0  0  0  0
 18 19  1  0  0  0  0
M  END
>  <IDNUMBER>
F0536-0555

>  <Chemical_Name>
N-{4H-chromeno[4,3-d][1,3]thiazol-2-yl}-4-(2,5-dioxopyrrolidin-1-yl)benzamide

>  <PriceCoeff>
1.00

>  <CAS>
681161-98-8

>  <MW>
405.43

>  <Description>
solid

>  <FSP3>
0.14

>  <clogP>
1.92

>  <TPSA>
116.84

>  <Acceptor>
5

>  <Donor>
1

>  <RotBonds>
3

>  <HAC>
29

>  <Collection>
General

>  <PPDS>
+

$$$$
F0536-0560
  Mrv2219 10102508112D          

 28 31  0  0  0  0            999 V2000
   -3.8902    2.9982    0.0000 C   0  0  0  0  0  0  0  0  0  0  0  0
   -3.8902    3.8190    0.0000 N   0  0  0  0  0  0  0  0  0  0  0  0
   -3.2118    2.5208    0.0000 N   0  0  0  0  0  0  0  0  0  0  0  0
   -3.1281    7.5375    0.0000 N   0  0  0  0  0  0  0  0  0  0  0  0
   -4.5308    2.5208    0.0000 S   0  0  0  0  0  0  0  0  0  0  0  0
   -3.4673    1.7462    0.0000 C   0  0  0  0  0  0  0  0  0  0  0  0
   -4.3047    1.7462    0.0000 C   0  0  0  0  0  0  0  0  0  0  0  0
   -3.1741    4.2252    0.0000 C   0  0  0  0  0  0  0  0  0  0  0  0
   -2.4748    8.0065    0.0000 C   0  0  0  0  0  0  0  0  0  0  0  0
   -3.7645    8.0442    0.0000 C   0  0  0  0  0  0  0  0  0  0  0  0
   -3.0401    1.0301    0.0000 C   0  0  0  0  0  0  0  0  0  0  0  0
   -3.1281    6.7126    0.0000 C   0  0  0  0  0  0  0  0  0  0  0  0
   -3.1615    5.0501    0.0000 C   0  0  0  0  0  0  0  0  0  0  0  0
   -4.6942    1.0301    0.0000 C   0  0  0  0  0  0  0  0  0  0  0  0
   -3.4505    0.3141    0.0000 C   0  0  0  0  0  0  0  0  0  0  0  0
   -2.4580    3.8399    0.0000 O   0  0  0  0  0  0  0  0  0  0  0  0
   -3.4924    8.8105    0.0000 C   0  0  0  0  0  0  0  0  0  0  0  0
   -2.7093    8.7812    0.0000 C   0  0  0  0  0  0  0  0  0  0  0  0
   -4.6188    7.7930    0.0000 O   0  0  0  0  0  0  0  0  0  0  0  0
   -1.6331    7.7511    0.0000 O   0  0  0  0  0  0  0  0  0  0  0  0
   -4.3047    0.3141    0.0000 C   0  0  0  0  0  0  0  0  0  0  0  0
   -3.8399    6.3064    0.0000 C   0  0  0  0  0  0  0  0  0  0  0  0
   -2.4203    6.2813    0.0000 C   0  0  0  0  0  0  0  0  0  0  0  0
   -2.4329    5.4438    0.0000 C   0  0  0  0  0  0  0  0  0  0  0  0
   -3.8650    5.4689    0.0000 C   0  0  0  0  0  0  0  0  0  0  0  0
   -2.4203    2.7972    0.0000 C   0  0  0  0  0  0  0  0  0  0  0  0
   -2.2193    1.0301    0.0000 C   0  0  0  0  0  0  0  0  0  0  0  0
   -4.7318   -0.4062    0.0000 C   0  0  0  0  0  0  0  0  0  0  0  0
  2  1  2  0  0  0  0
  3  1  1  0  0  0  0
  4 12  1  0  0  0  0
  5  1  1  0  0  0  0
  6  3  1  0  0  0  0
  7  5  1  0  0  0  0
  8  2  1  0  0  0  0
  9  4  1  0  0  0  0
 10  4  1  0  0  0  0
 11  6  1  0  0  0  0
 12 22  1  0  0  0  0
 13  8  1  0  0  0  0
 14  7  1  0  0  0  0
 15 11  2  0  0  0  0
 16  8  2  0  0  0  0
 17 10  1  0  0  0  0
 18  9  1  0  0  0  0
 19 10  2  0  0  0  0
 20  9  2  0  0  0  0
 21 14  2  0  0  0  0
 22 25  2  0  0  0  0
 23 24  1  0  0  0  0
 24 13  2  0  0  0  0
 25 13  1  0  0  0  0
 26  3  1  0  0  0  0
 27 11  1  0  0  0  0
 28 21  1  0  0  0  0
  6  7  2  0  0  0  0
 15 21  1  0  0  0  0
 23 12  2  0  0  0  0
 18 17  1  0  0  0  0
M  END
>  <IDNUMBER>
F0536-0560

>  <Chemical_Name>
4-(2,5-dioxopyrrolidin-1-yl)-N-[(2E)-3,4,6-trimethyl-2,3-dihydro-1,3-benzothiazol-2-ylidene]benzamide

>  <PriceCoeff>
1.00

>  <CAS>
681162-02-7

>  <MW>
393.46

>  <Description>
solid

>  <FSP3>
0.24

>  <clogP>
3.95

>  <TPSA>
95.35

>  <Acceptor>
3

>  <Donor>
0

>  <RotBonds>
3

>  <HAC>
28

>  <Collection>
General

>  <PPDS>
+

$$$$
F0536-0731
  Mrv2219 10102508112D          

 29 33  0  0  0  0            999 V2000
   -3.4549    1.7296    0.0000 C   0  0  0  0  0  0  0  0  0  0  0  0
   -3.8810    2.9912    0.0000 C   0  0  0  0  0  0  0  0  0  0  0  0
   -1.7421    6.7219    0.0000 N   0  0  0  0  0  0  0  0  0  0  0  0
   -4.2696    1.7296    0.0000 C   0  0  0  0  0  0  0  0  0  0  0  0
   -3.1959    2.5149    0.0000 N   0  0  0  0  0  0  0  0  0  0  0  0
   -4.5328    2.5149    0.0000 S   0  0  0  0  0  0  0  0  0  0  0  0
   -3.8810    3.8101    0.0000 N   0  0  0  0  0  0  0  0  0  0  0  0
   -3.0205    1.0235    0.0000 C   0  0  0  0  0  0  0  0  0  0  0  0
   -2.4440    6.2958    0.0000 C   0  0  0  0  0  0  0  0  0  0  0  0
   -3.1667    4.2153    0.0000 C   0  0  0  0  0  0  0  0  0  0  0  0
   -1.6502    7.5324    0.0000 C   0  0  0  0  0  0  0  0  0  0  0  0
   -0.9984    6.4086    0.0000 C   0  0  0  0  0  0  0  0  0  0  0  0
   -4.2696    0.2966    0.0000 O   0  0  0  0  0  0  0  0  0  0  0  0
   -2.4523    5.4644    0.0000 C   0  0  0  0  0  0  0  0  0  0  0  0
   -3.1667    5.0425    0.0000 C   0  0  0  0  0  0  0  0  0  0  0  0
   -4.6832    1.0026    0.0000 C   0  0  0  0  0  0  0  0  0  0  0  0
   -3.4341    0.2966    0.0000 C   0  0  0  0  0  0  0  0  0  0  0  0
   -2.4523    3.8184    0.0000 O   0  0  0  0  0  0  0  0  0  0  0  0
   -0.4720    7.0436    0.0000 C   0  0  0  0  0  0  0  0  0  0  0  0
   -0.8731    7.7121    0.0000 C   0  0  0  0  0  0  0  0  0  0  0  0
   -0.7478    5.5814    0.0000 O   0  0  0  0  0  0  0  0  0  0  0  0
   -2.3144    8.1089    0.0000 O   0  0  0  0  0  0  0  0  0  0  0  0
   -3.1667    6.7052    0.0000 C   0  0  0  0  0  0  0  0  0  0  0  0
   -2.2058    1.0235    0.0000 C   0  0  0  0  0  0  0  0  0  0  0  0
   -3.8810    5.4561    0.0000 C   0  0  0  0  0  0  0  0  0  0  0  0
   -3.8810    6.2958    0.0000 C   0  0  0  0  0  0  0  0  0  0  0  0
   -3.0205   -0.4053    0.0000 C   0  0  0  0  0  0  0  0  0  0  0  0
   -1.8006    0.3133    0.0000 C   0  0  0  0  0  0  0  0  0  0  0  0
   -2.2058   -0.4053    0.0000 C   0  0  0  0  0  0  0  0  0  0  0  0
  2  5  2  0  0  0  0
  3  9  1  0  0  0  0
  4  1  2  0  0  0  0
  5  1  1  0  0  0  0
  6  4  1  0  0  0  0
  7  2  1  0  0  0  0
  8  1  1  0  0  0  0
  9 14  1  0  0  0  0
 10  7  1  0  0  0  0
 11  3  1  0  0  0  0
 12  3  1  0  0  0  0
 13 17  1  0  0  0  0
 14 15  2  0  0  0  0
 15 10  1  0  0  0  0
 16  4  1  0  0  0  0
 17  8  2  0  0  0  0
 18 10  2  0  0  0  0
 19 12  1  0  0  0  0
 20 11  1  0  0  0  0
 21 12  2  0  0  0  0
 22 11  2  0  0  0  0
 23 26  1  0  0  0  0
 24  8  1  0  0  0  0
 25 15  1  0  0  0  0
 26 25  2  0  0  0  0
 27 17  1  0  0  0  0
 28 24  2  0  0  0  0
 29 28  1  0  0  0  0
 13 16  1  0  0  0  0
  2  6  1  0  0  0  0
 27 29  2  0  0  0  0
  9 23  2  0  0  0  0
 19 20  1  0  0  0  0
M  END
>  <IDNUMBER>
F0536-0731

>  <Chemical_Name>
N-{4H-chromeno[4,3-d][1,3]thiazol-2-yl}-3-(2,5-dioxopyrrolidin-1-yl)benzamide

>  <PriceCoeff>
1.00

>  <CAS>
681163-72-4

>  <MW>
405.43

>  <Description>
solid

>  <FSP3>
0.14

>  <clogP>
1.92

>  <TPSA>
116.84

>  <Acceptor>
5

>  <Donor>
1

>  <RotBonds>
3

>  <HAC>
29

>  <Collection>
General

>  <PPDS>
+

$$$$
F0536-0736
  Mrv2219 10102508112D          

 28 31  0  0  0  0            999 V2000
   -3.8788    2.9895    0.0000 C   0  0  0  0  0  0  0  0  0  0  0  0
   -3.8788    3.8079    0.0000 N   0  0  0  0  0  0  0  0  0  0  0  0
   -1.7411    6.7181    0.0000 N   0  0  0  0  0  0  0  0  0  0  0  0
   -3.2024    2.5135    0.0000 N   0  0  0  0  0  0  0  0  0  0  0  0
   -4.5176    2.5135    0.0000 S   0  0  0  0  0  0  0  0  0  0  0  0
   -3.4572    1.7411    0.0000 C   0  0  0  0  0  0  0  0  0  0  0  0
   -4.2922    1.7411    0.0000 C   0  0  0  0  0  0  0  0  0  0  0  0
   -3.1648    4.2129    0.0000 C   0  0  0  0  0  0  0  0  0  0  0  0
   -2.4426    6.2922    0.0000 C   0  0  0  0  0  0  0  0  0  0  0  0
   -0.9979    6.4049    0.0000 C   0  0  0  0  0  0  0  0  0  0  0  0
   -1.6492    7.5281    0.0000 C   0  0  0  0  0  0  0  0  0  0  0  0
   -3.0313    1.0271    0.0000 C   0  0  0  0  0  0  0  0  0  0  0  0
   -2.4509    5.4613    0.0000 C   0  0  0  0  0  0  0  0  0  0  0  0
   -3.1648    5.0396    0.0000 C   0  0  0  0  0  0  0  0  0  0  0  0
   -4.6805    1.0271    0.0000 C   0  0  0  0  0  0  0  0  0  0  0  0
   -3.4404    0.3131    0.0000 C   0  0  0  0  0  0  0  0  0  0  0  0
   -2.4509    3.8162    0.0000 O   0  0  0  0  0  0  0  0  0  0  0  0
   -0.8726    7.7076    0.0000 C   0  0  0  0  0  0  0  0  0  0  0  0
   -0.4718    7.0396    0.0000 C   0  0  0  0  0  0  0  0  0  0  0  0
   -2.3131    8.1043    0.0000 O   0  0  0  0  0  0  0  0  0  0  0  0
   -0.7473    5.5782    0.0000 O   0  0  0  0  0  0  0  0  0  0  0  0
   -4.2922    0.3131    0.0000 C   0  0  0  0  0  0  0  0  0  0  0  0
   -2.4133    2.7891    0.0000 C   0  0  0  0  0  0  0  0  0  0  0  0
   -3.1648    6.7014    0.0000 C   0  0  0  0  0  0  0  0  0  0  0  0
   -2.2129    1.0271    0.0000 C   0  0  0  0  0  0  0  0  0  0  0  0
   -3.8788    5.4530    0.0000 C   0  0  0  0  0  0  0  0  0  0  0  0
   -3.8788    6.2922    0.0000 C   0  0  0  0  0  0  0  0  0  0  0  0
   -4.7181   -0.4050    0.0000 C   0  0  0  0  0  0  0  0  0  0  0  0
  2  1  2  0  0  0  0
  3  9  1  0  0  0  0
  4  1  1  0  0  0  0
  5  1  1  0  0  0  0
  6  4  1  0  0  0  0
  7  5  1  0  0  0  0
  8  2  1  0  0  0  0
  9 13  1  0  0  0  0
 10  3  1  0  0  0  0
 11  3  1  0  0  0  0
 12  6  1  0  0  0  0
 13 14  2  0  0  0  0
 14  8  1  0  0  0  0
 15  7  1  0  0  0  0
 16 12  2  0  0  0  0
 17  8  2  0  0  0  0
 18 11  1  0  0  0  0
 19 10  1  0  0  0  0
 20 11  2  0  0  0  0
 21 10  2  0  0  0  0
 22 15  2  0  0  0  0
 23  4  1  0  0  0  0
 24 27  1  0  0  0  0
 25 12  1  0  0  0  0
 26 14  1  0  0  0  0
 27 26  2  0  0  0  0
 28 22  1  0  0  0  0
  6  7  2  0  0  0  0
 16 22  1  0  0  0  0
  9 24  2  0  0  0  0
 19 18  1  0  0  0  0
M  END
>  <IDNUMBER>
F0536-0736

>  <Chemical_Name>
3-(2,5-dioxopyrrolidin-1-yl)-N-[(2E)-3,4,6-trimethyl-2,3-dihydro-1,3-benzothiazol-2-ylidene]benzamide

>  <PriceCoeff>
1.00

>  <CAS>
681163-76-8

>  <MW>
393.46

>  <Description>
solid

>  <FSP3>
0.24

>  <clogP>
3.95

>  <TPSA>
95.35

>  <Acceptor>
3

>  <Donor>
0

>  <RotBonds>
3

>  <HAC>
28

>  <Collection>
General

>  <PPDS>
+

$$$$
F0541-0058
  Mrv2219 10102508112D          

 27 29  0  0  0  0            999 V2000
   -2.9723    1.9503    0.0000 C   0  0  0  0  0  0  0  0  0  0  0  0
   -3.2142    1.2130    0.0000 C   0  0  0  0  0  0  0  0  0  0  0  0
   -3.6003    2.4067    0.0000 N   0  0  0  0  0  0  0  0  0  0  0  0
   -3.9982    1.2130    0.0000 C   0  0  0  0  0  0  0  0  0  0  0  0
   -4.2323    1.9503    0.0000 N   0  0  0  0  0  0  0  0  0  0  0  0
   -3.6003    0.0195    0.0000 S   0  0  0  0  0  0  0  0  0  0  0  0
   -2.2897    1.7748    0.0000 N   0  0  0  0  0  0  0  0  0  0  0  0
   -0.0468   -0.2458    0.0000 N   0  3  0  0  0  0  0  0  0  0  0  0
   -0.0195    0.5811    0.0000 C   0  0  0  0  0  0  0  0  0  0  0  0
   -4.2323    0.4758    0.0000 C   0  0  0  0  0  0  0  0  0  0  0  0
   -1.4159    2.2702    0.0000 C   0  0  0  0  0  0  0  0  0  0  0  0
   -2.9723    0.4758    0.0000 C   0  0  0  0  0  0  0  0  0  0  0  0
   -0.7333    1.0064    0.0000 C   0  0  0  0  0  0  0  0  0  0  0  0
   -0.7138    1.8450    0.0000 C   0  0  0  0  0  0  0  0  0  0  0  0
   -3.6003    3.2376    0.0000 C   0  0  0  0  0  0  0  0  0  0  0  0
   -3.0269   -0.3316    0.0000 O   0  0  0  0  0  0  0  0  0  0  0  0
   -4.2712   -0.3667    0.0000 O   0  0  0  0  0  0  0  0  0  0  0  0
    0.7060    0.9830    0.0000 C   0  0  0  0  0  0  0  0  0  0  0  0
   -0.7684   -0.6475    0.0000 O   0  5  0  0  0  0  0  0  0  0  0  0
    0.6709   -0.6709    0.0000 O   0  0  0  0  0  0  0  0  0  0  0  0
   -1.3886    3.0308    0.0000 O   0  0  0  0  0  0  0  0  0  0  0  0
    0.0156    2.2429    0.0000 C   0  0  0  0  0  0  0  0  0  0  0  0
    0.7178    1.8099    0.0000 C   0  0  0  0  0  0  0  0  0  0  0  0
    1.4159    0.5577    0.0000 Cl  0  0  0  0  0  0  0  0  0  0  0  0
   -4.3648    3.5535    0.0000 C   0  0  0  0  0  0  0  0  0  0  0  0
   -3.4872    4.0529    0.0000 C   0  0  0  0  0  0  0  0  0  0  0  0
   -2.9372    3.7407    0.0000 C   0  0  0  0  0  0  0  0  0  0  0  0
  2  1  2  0  0  0  0
  3  1  1  0  0  0  0
  4  2  1  0  0  0  0
  5  3  1  0  0  0  0
  6 12  1  0  0  0  0
  7  1  1  0  0  0  0
  8  9  1  0  0  0  0
  9 13  1  0  0  0  0
 10  4  1  0  0  0  0
 11  7  1  0  0  0  0
 12  2  1  0  0  0  0
 13 14  2  0  0  0  0
 14 11  1  0  0  0  0
 15  3  1  0  0  0  0
 16  6  2  0  0  0  0
 17  6  2  0  0  0  0
 18 23  1  0  0  0  0
 19  8  1  0  0  0  0
 20  8  2  0  0  0  0
 21 11  2  0  0  0  0
 22 14  1  0  0  0  0
 23 22  2  0  0  0  0
 24 18  1  0  0  0  0
 25 15  1  0  0  0  0
 26 15  1  0  0  0  0
 27 15  1  0  0  0  0
  4  5  2  0  0  0  0
  6 10  1  0  0  0  0
 18  9  2  0  0  0  0
M  CHG  2   8   1  19  -1
M  END
>  <IDNUMBER>
F0541-0058

>  <Chemical_Name>
N-{2-tert-butyl-5,5-dioxo-2H,4H,6H-5??-thieno[3,4-c]pyrazol-3-yl}-4-chloro-3-nitrobenzamide

>  <PriceCoeff>
1.00

>  <CAS>
449784-39-8

>  <MW>
412.85

>  <Description>
solid

>  <FSP3>
0.38

>  <clogP>
0.71

>  <TPSA>
132.58

>  <Acceptor>
6

>  <Donor>
1

>  <RotBonds>
3

>  <HAC>
27

>  <Collection>
General

>  <PPDS>
+

$$$$
F0541-0156
  Mrv2219 10102508112D          

 29 32  0  0  0  0            999 V2000
   -2.9723    1.9503    0.0000 C   0  0  0  0  0  0  0  0  0  0  0  0
   -3.2142    1.2130    0.0000 C   0  0  0  0  0  0  0  0  0  0  0  0
   -3.6003    2.4067    0.0000 N   0  0  0  0  0  0  0  0  0  0  0  0
   -3.9982    1.2130    0.0000 C   0  0  0  0  0  0  0  0  0  0  0  0
   -4.2323    1.9503    0.0000 N   0  0  0  0  0  0  0  0  0  0  0  0
   -3.6003    0.0195    0.0000 S   0  0  0  0  0  0  0  0  0  0  0  0
   -2.2897    1.7748    0.0000 N   0  0  0  0  0  0  0  0  0  0  0  0
   -0.0468   -0.2458    0.0000 N   0  3  0  0  0  0  0  0  0  0  0  0
   -0.0195    0.5811    0.0000 C   0  0  0  0  0  0  0  0  0  0  0  0
   -4.2323    0.4758    0.0000 C   0  0  0  0  0  0  0  0  0  0  0  0
   -1.4159    2.2702    0.0000 C   0  0  0  0  0  0  0  0  0  0  0  0
   -2.9723    0.4758    0.0000 C   0  0  0  0  0  0  0  0  0  0  0  0
   -0.7333    1.0064    0.0000 C   0  0  0  0  0  0  0  0  0  0  0  0
   -0.7138    1.8450    0.0000 C   0  0  0  0  0  0  0  0  0  0  0  0
   -4.2712   -0.3667    0.0000 O   0  0  0  0  0  0  0  0  0  0  0  0
   -3.0269   -0.3316    0.0000 O   0  0  0  0  0  0  0  0  0  0  0  0
    0.7060    0.9830    0.0000 C   0  0  0  0  0  0  0  0  0  0  0  0
   -0.7684   -0.6475    0.0000 O   0  5  0  0  0  0  0  0  0  0  0  0
   -3.6003    3.2376    0.0000 C   0  0  0  0  0  0  0  0  0  0  0  0
    0.6709   -0.6709    0.0000 O   0  0  0  0  0  0  0  0  0  0  0  0
   -1.3886    3.0308    0.0000 O   0  0  0  0  0  0  0  0  0  0  0  0
    0.0156    2.2429    0.0000 C   0  0  0  0  0  0  0  0  0  0  0  0
    0.7178    1.8099    0.0000 C   0  0  0  0  0  0  0  0  0  0  0  0
    1.4159    0.5577    0.0000 Cl  0  0  0  0  0  0  0  0  0  0  0  0
   -2.8787    3.6471    0.0000 C   0  0  0  0  0  0  0  0  0  0  0  0
   -4.3141    3.6471    0.0000 C   0  0  0  0  0  0  0  0  0  0  0  0
   -4.3141    4.4702    0.0000 C   0  0  0  0  0  0  0  0  0  0  0  0
   -2.8748    4.4624    0.0000 C   0  0  0  0  0  0  0  0  0  0  0  0
   -3.5925    4.8837    0.0000 C   0  0  0  0  0  0  0  0  0  0  0  0
  2  1  2  0  0  0  0
  3  1  1  0  0  0  0
  4  2  1  0  0  0  0
  5  3  1  0  0  0  0
  6 12  1  0  0  0  0
  7  1  1  0  0  0  0
  8  9  1  0  0  0  0
  9 13  1  0  0  0  0
 10  4  1  0  0  0  0
 11  7  1  0  0  0  0
 12  2  1  0  0  0  0
 13 14  2  0  0  0  0
 14 11  1  0  0  0  0
 15  6  2  0  0  0  0
 16  6  2  0  0  0  0
 17 23  1  0  0  0  0
 18  8  1  0  0  0  0
 19  3  1  0  0  0  0
 20  8  2  0  0  0  0
 21 11  2  0  0  0  0
 22 14  1  0  0  0  0
 23 22  2  0  0  0  0
 24 17  1  0  0  0  0
 25 19  2  0  0  0  0
 26 19  1  0  0  0  0
 27 26  2  0  0  0  0
 28 25  1  0  0  0  0
 29 27  1  0  0  0  0
  4  5  2  0  0  0  0
  6 10  1  0  0  0  0
 29 28  2  0  0  0  0
 17  9  2  0  0  0  0
M  CHG  2   8   1  18  -1
M  END
>  <IDNUMBER>
F0541-0156

>  <Chemical_Name>
4-chloro-N-{5,5-dioxo-2-phenyl-2H,4H,6H-5??-thieno[3,4-c]pyrazol-3-yl}-3-nitrobenzamide

>  <PriceCoeff>
1.00

>  <CAS>
681265-99-6

>  <MW>
432.84

>  <Description>
solid

>  <FSP3>
0.11

>  <clogP>
1.42

>  <TPSA>
132.58

>  <Acceptor>
6

>  <Donor>
1

>  <RotBonds>
4

>  <HAC>
29

>  <Collection>
General

>  <PPDS>
+

$$$$
F0541-0352
  Mrv2219 10102508112D          

 30 33  0  0  0  0            999 V2000
   -2.9874    1.9602    0.0000 C   0  0  0  0  0  0  0  0  0  0  0  0
   -3.2304    1.2192    0.0000 C   0  0  0  0  0  0  0  0  0  0  0  0
   -3.6186    2.4189    0.0000 N   0  0  0  0  0  0  0  0  0  0  0  0
   -4.0184    1.2192    0.0000 C   0  0  0  0  0  0  0  0  0  0  0  0
   -4.2537    1.9602    0.0000 N   0  0  0  0  0  0  0  0  0  0  0  0
   -3.6186    0.0196    0.0000 S   0  0  0  0  0  0  0  0  0  0  0  0
   -2.3013    1.7838    0.0000 N   0  0  0  0  0  0  0  0  0  0  0  0
   -0.0470   -0.2470    0.0000 N   0  3  0  0  0  0  0  0  0  0  0  0
   -0.0196    0.5841    0.0000 C   0  0  0  0  0  0  0  0  0  0  0  0
   -4.2537    0.4783    0.0000 C   0  0  0  0  0  0  0  0  0  0  0  0
   -1.4231    2.2817    0.0000 C   0  0  0  0  0  0  0  0  0  0  0  0
   -2.9874    0.4783    0.0000 C   0  0  0  0  0  0  0  0  0  0  0  0
   -0.7370    1.0115    0.0000 C   0  0  0  0  0  0  0  0  0  0  0  0
   -0.7174    1.8543    0.0000 C   0  0  0  0  0  0  0  0  0  0  0  0
   -3.6186    3.2539    0.0000 C   0  0  0  0  0  0  0  0  0  0  0  0
   -3.0422   -0.3333    0.0000 O   0  0  0  0  0  0  0  0  0  0  0  0
   -4.2929   -0.3686    0.0000 O   0  0  0  0  0  0  0  0  0  0  0  0
    0.7096    0.9880    0.0000 C   0  0  0  0  0  0  0  0  0  0  0  0
   -0.7723   -0.6508    0.0000 O   0  5  0  0  0  0  0  0  0  0  0  0
    0.6743   -0.6743    0.0000 O   0  0  0  0  0  0  0  0  0  0  0  0
   -1.3957    3.0462    0.0000 O   0  0  0  0  0  0  0  0  0  0  0  0
    0.0157    2.2542    0.0000 C   0  0  0  0  0  0  0  0  0  0  0  0
    0.7214    1.8191    0.0000 C   0  0  0  0  0  0  0  0  0  0  0  0
   -4.3282    3.6656    0.0000 C   0  0  0  0  0  0  0  0  0  0  0  0
   -2.8893    3.6656    0.0000 C   0  0  0  0  0  0  0  0  0  0  0  0
    1.4231    0.5606    0.0000 Cl  0  0  0  0  0  0  0  0  0  0  0  0
   -4.3360    4.4850    0.0000 C   0  0  0  0  0  0  0  0  0  0  0  0
   -2.8893    4.4850    0.0000 C   0  0  0  0  0  0  0  0  0  0  0  0
   -3.6186    4.9084    0.0000 C   0  0  0  0  0  0  0  0  0  0  0  0
   -3.6186    5.7317    0.0000 C   0  0  0  0  0  0  0  0  0  0  0  0
  2  1  2  0  0  0  0
  3  1  1  0  0  0  0
  4  2  1  0  0  0  0
  5  3  1  0  0  0  0
  6 12  1  0  0  0  0
  7  1  1  0  0  0  0
  8  9  1  0  0  0  0
  9 13  1  0  0  0  0
 10  4  1  0  0  0  0
 11  7  1  0  0  0  0
 12  2  1  0  0  0  0
 13 14  2  0  0  0  0
 14 11  1  0  0  0  0
 15  3  1  0  0  0  0
 16  6  2  0  0  0  0
 17  6  2  0  0  0  0
 18 23  1  0  0  0  0
 19  8  1  0  0  0  0
 20  8  2  0  0  0  0
 21 11  2  0  0  0  0
 22 14  1  0  0  0  0
 23 22  2  0  0  0  0
 24 15  1  0  0  0  0
 25 15  2  0  0  0  0
 26 18  1  0  0  0  0
 27 24  2  0  0  0  0
 28 25  1  0  0  0  0
 29 28  2  0  0  0  0
 30 29  1  0  0  0  0
  4  5  2  0  0  0  0
  6 10  1  0  0  0  0
 29 27  1  0  0  0  0
 18  9  2  0  0  0  0
M  CHG  2   8   1  19  -1
M  END
>  <IDNUMBER>
F0541-0352

>  <Chemical_Name>
4-chloro-N-[2-(4-methylphenyl)-5,5-dioxo-2H,4H,6H-5??-thieno[3,4-c]pyrazol-3-yl]-3-nitrobenzamide

>  <PriceCoeff>
1.00

>  <CAS>
449787-80-8

>  <MW>
446.86

>  <Description>
solid

>  <FSP3>
0.16

>  <clogP>
1.92

>  <TPSA>
132.58

>  <Acceptor>
6

>  <Donor>
1

>  <RotBonds>
4

>  <HAC>
30

>  <Collection>
General

$$$$
F0541-0646
  Mrv2219 10102508112D          

 32 35  0  0  0  0            999 V2000
   -2.9760    1.9527    0.0000 C   0  0  0  0  0  0  0  0  0  0  0  0
   -3.2181    1.2146    0.0000 C   0  0  0  0  0  0  0  0  0  0  0  0
   -3.6047    2.4097    0.0000 N   0  0  0  0  0  0  0  0  0  0  0  0
   -4.0031    1.2146    0.0000 C   0  0  0  0  0  0  0  0  0  0  0  0
   -4.2374    1.9527    0.0000 N   0  0  0  0  0  0  0  0  0  0  0  0
   -3.6047    0.0195    0.0000 S   0  0  0  0  0  0  0  0  0  0  0  0
   -2.2925    1.7770    0.0000 N   0  0  0  0  0  0  0  0  0  0  0  0
   -0.0469   -0.2460    0.0000 N   0  3  0  0  0  0  0  0  0  0  0  0
   -0.0195    0.5819    0.0000 C   0  0  0  0  0  0  0  0  0  0  0  0
   -4.2374    0.4764    0.0000 C   0  0  0  0  0  0  0  0  0  0  0  0
   -3.5970    5.7099    0.0000 N   0  3  0  0  0  0  0  0  0  0  0  0
   -1.4177    2.2730    0.0000 C   0  0  0  0  0  0  0  0  0  0  0  0
   -2.9760    0.4764    0.0000 C   0  0  0  0  0  0  0  0  0  0  0  0
   -0.7342    1.0076    0.0000 C   0  0  0  0  0  0  0  0  0  0  0  0
   -0.7147    1.8473    0.0000 C   0  0  0  0  0  0  0  0  0  0  0  0
   -3.6047    3.2415    0.0000 C   0  0  0  0  0  0  0  0  0  0  0  0
   -3.5930    4.8897    0.0000 C   0  0  0  0  0  0  0  0  0  0  0  0
   -3.0306   -0.3320    0.0000 O   0  0  0  0  0  0  0  0  0  0  0  0
   -4.2765   -0.3671    0.0000 O   0  0  0  0  0  0  0  0  0  0  0  0
    0.7069    0.9842    0.0000 C   0  0  0  0  0  0  0  0  0  0  0  0
   -0.7694   -0.6483    0.0000 O   0  5  0  0  0  0  0  0  0  0  0  0
   -2.8823    6.1317    0.0000 O   0  5  0  0  0  0  0  0  0  0  0  0
    0.6718   -0.6718    0.0000 O   0  0  0  0  0  0  0  0  0  0  0  0
   -4.3117    6.1199    0.0000 O   0  0  0  0  0  0  0  0  0  0  0  0
   -1.3903    3.0346    0.0000 O   0  0  0  0  0  0  0  0  0  0  0  0
    0.0157    2.2456    0.0000 C   0  0  0  0  0  0  0  0  0  0  0  0
   -4.3117    3.6516    0.0000 C   0  0  0  0  0  0  0  0  0  0  0  0
   -2.8783    3.6555    0.0000 C   0  0  0  0  0  0  0  0  0  0  0  0
   -2.8783    4.4757    0.0000 C   0  0  0  0  0  0  0  0  0  0  0  0
   -4.3117    4.4757    0.0000 C   0  0  0  0  0  0  0  0  0  0  0  0
    0.7186    1.8121    0.0000 C   0  0  0  0  0  0  0  0  0  0  0  0
    1.4177    0.5585    0.0000 Cl  0  0  0  0  0  0  0  0  0  0  0  0
  2  1  2  0  0  0  0
  3  1  1  0  0  0  0
  4  2  1  0  0  0  0
  5  3  1  0  0  0  0
  6 13  1  0  0  0  0
  7  1  1  0  0  0  0
  8  9  1  0  0  0  0
  9 14  1  0  0  0  0
 10  4  1  0  0  0  0
 11 17  1  0  0  0  0
 12  7  1  0  0  0  0
 13  2  1  0  0  0  0
 14 15  2  0  0  0  0
 15 12  1  0  0  0  0
 16  3  1  0  0  0  0
 17 29  2  0  0  0  0
 18  6  2  0  0  0  0
 19  6  2  0  0  0  0
 20 31  1  0  0  0  0
 21  8  1  0  0  0  0
 22 11  1  0  0  0  0
 23  8  2  0  0  0  0
 24 11  2  0  0  0  0
 25 12  2  0  0  0  0
 26 15  1  0  0  0  0
 27 16  1  0  0  0  0
 28 16  2  0  0  0  0
 29 28  1  0  0  0  0
 30 27  2  0  0  0  0
 31 26  2  0  0  0  0
 32 20  1  0  0  0  0
  4  5  2  0  0  0  0
  6 10  1  0  0  0  0
 17 30  1  0  0  0  0
 20  9  2  0  0  0  0
M  CHG  4   8   1  11   1  21  -1  22  -1
M  END
>  <IDNUMBER>
F0541-0646

>  <Chemical_Name>
4-chloro-3-nitro-N-[2-(4-nitrophenyl)-5,5-dioxo-2H,4H,6H-5??-thieno[3,4-c]pyrazol-3-yl]benzamide

>  <PriceCoeff>
1.00

>  <CAS>
450336-47-7

>  <MW>
477.84

>  <Description>
solid

>  <FSP3>
0.11

>  <clogP>
1.34

>  <TPSA>
175.72

>  <Acceptor>
8

>  <Donor>
1

>  <RotBonds>
5

>  <HAC>
32

>  <Collection>
General

>  <PPDS>
+

$$$$
F0541-0940
  Mrv2219 10102508112D          

 31 34  0  0  0  0            999 V2000
   -2.9723    1.9503    0.0000 C   0  0  0  0  0  0  0  0  0  0  0  0
   -3.6003    2.4067    0.0000 N   0  0  0  0  0  0  0  0  0  0  0  0
   -3.2142    1.2130    0.0000 C   0  0  0  0  0  0  0  0  0  0  0  0
   -4.2323    1.9503    0.0000 N   0  0  0  0  0  0  0  0  0  0  0  0
   -3.9982    1.2130    0.0000 C   0  0  0  0  0  0  0  0  0  0  0  0
   -3.6003    0.0195    0.0000 S   0  0  0  0  0  0  0  0  0  0  0  0
   -2.2897    1.7748    0.0000 N   0  0  0  0  0  0  0  0  0  0  0  0
   -0.0468   -0.2458    0.0000 N   0  3  0  0  0  0  0  0  0  0  0  0
   -0.0195    0.5811    0.0000 C   0  0  0  0  0  0  0  0  0  0  0  0
   -4.2323    0.4758    0.0000 C   0  0  0  0  0  0  0  0  0  0  0  0
   -3.6003    3.2376    0.0000 C   0  0  0  0  0  0  0  0  0  0  0  0
   -1.4159    2.2702    0.0000 C   0  0  0  0  0  0  0  0  0  0  0  0
   -2.9723    0.4758    0.0000 C   0  0  0  0  0  0  0  0  0  0  0  0
   -0.7333    1.0064    0.0000 C   0  0  0  0  0  0  0  0  0  0  0  0
   -2.8748    3.6471    0.0000 C   0  0  0  0  0  0  0  0  0  0  0  0
   -0.7138    1.8450    0.0000 C   0  0  0  0  0  0  0  0  0  0  0  0
   -4.2712   -0.3667    0.0000 O   0  0  0  0  0  0  0  0  0  0  0  0
   -3.0269   -0.3316    0.0000 O   0  0  0  0  0  0  0  0  0  0  0  0
    0.7060    0.9830    0.0000 C   0  0  0  0  0  0  0  0  0  0  0  0
   -0.7684   -0.6475    0.0000 O   0  5  0  0  0  0  0  0  0  0  0  0
    0.6709   -0.6709    0.0000 O   0  0  0  0  0  0  0  0  0  0  0  0
   -1.3886    3.0308    0.0000 O   0  0  0  0  0  0  0  0  0  0  0  0
   -2.8787    4.4702    0.0000 C   0  0  0  0  0  0  0  0  0  0  0  0
    0.0156    2.2429    0.0000 C   0  0  0  0  0  0  0  0  0  0  0  0
    0.7178    1.8099    0.0000 C   0  0  0  0  0  0  0  0  0  0  0  0
    1.4159    0.5577    0.0000 Cl  0  0  0  0  0  0  0  0  0  0  0  0
   -4.3063    3.6471    0.0000 C   0  0  0  0  0  0  0  0  0  0  0  0
   -2.1649    3.2376    0.0000 C   0  0  0  0  0  0  0  0  0  0  0  0
   -4.3141    4.4624    0.0000 C   0  0  0  0  0  0  0  0  0  0  0  0
   -3.6003    4.8837    0.0000 C   0  0  0  0  0  0  0  0  0  0  0  0
   -2.1609    4.8837    0.0000 C   0  0  0  0  0  0  0  0  0  0  0  0
  2  1  1  0  0  0  0
  3  1  2  0  0  0  0
  4  2  1  0  0  0  0
  5  3  1  0  0  0  0
  6 13  1  0  0  0  0
  7  1  1  0  0  0  0
  8  9  1  0  0  0  0
  9 14  1  0  0  0  0
 10  5  1  0  0  0  0
 11  2  1  0  0  0  0
 12  7  1  0  0  0  0
 13  3  1  0  0  0  0
 14 16  2  0  0  0  0
 15 11  2  0  0  0  0
 16 12  1  0  0  0  0
 17  6  2  0  0  0  0
 18  6  2  0  0  0  0
 19 25  1  0  0  0  0
 20  8  1  0  0  0  0
 21  8  2  0  0  0  0
 22 12  2  0  0  0  0
 23 15  1  0  0  0  0
 24 16  1  0  0  0  0
 25 24  2  0  0  0  0
 26 19  1  0  0  0  0
 27 11  1  0  0  0  0
 28 15  1  0  0  0  0
 29 27  2  0  0  0  0
 30 29  1  0  0  0  0
 31 23  1  0  0  0  0
  5  4  2  0  0  0  0
  6 10  1  0  0  0  0
 30 23  2  0  0  0  0
 19  9  2  0  0  0  0
M  CHG  2   8   1  20  -1
M  END
>  <IDNUMBER>
F0541-0940

>  <Chemical_Name>
4-chloro-N-[2-(2,3-dimethylphenyl)-5,5-dioxo-2H,4H,6H-5??-thieno[3,4-c]pyrazol-3-yl]-3-nitrobenzamide

>  <PriceCoeff>
1.00

>  <CAS>
450338-95-1

>  <MW>
460.89

>  <Description>
solid

>  <FSP3>
0.20

>  <clogP>
2.37

>  <TPSA>
132.58

>  <Acceptor>
6

>  <Donor>
1

>  <RotBonds>
4

>  <HAC>
31

>  <Collection>
General

>  <PPDS>
+

$$$$
F0541-1187
  Mrv2219 10102508112D          

 25 27  0  0  0  0            999 V2000
   -3.1892    2.2985    0.0000 C   0  0  0  0  0  0  0  0  0  0  0  0
   -3.8500    2.7787    0.0000 N   0  0  0  0  0  0  0  0  0  0  0  0
   -4.5149    2.2985    0.0000 N   0  0  0  0  0  0  0  0  0  0  0  0
   -3.4436    1.5227    0.0000 C   0  0  0  0  0  0  0  0  0  0  0  0
   -2.3477    2.3272    0.0000 N   0  0  0  0  0  0  0  0  0  0  0  0
   -4.2686    1.5227    0.0000 C   0  0  0  0  0  0  0  0  0  0  0  0
    0.0369    0.5910    0.0000 N   0  3  0  0  0  0  0  0  0  0  0  0
   -0.0574    1.4119    0.0000 C   0  0  0  0  0  0  0  0  0  0  0  0
   -1.6746    2.8813    0.0000 C   0  0  0  0  0  0  0  0  0  0  0  0
   -0.8209    1.7239    0.0000 C   0  0  0  0  0  0  0  0  0  0  0  0
   -0.9194    2.5571    0.0000 C   0  0  0  0  0  0  0  0  0  0  0  0
   -3.8500    3.6037    0.0000 C   0  0  0  0  0  0  0  0  0  0  0  0
    0.6075    1.9168    0.0000 C   0  0  0  0  0  0  0  0  0  0  0  0
   -0.6157    0.0944    0.0000 O   0  5  0  0  0  0  0  0  0  0  0  0
   -3.8500    0.2668    0.0000 S   0  0  0  0  0  0  0  0  0  0  0  0
    0.8045    0.2791    0.0000 O   0  0  0  0  0  0  0  0  0  0  0  0
   -1.7362    3.7433    0.0000 O   0  0  0  0  0  0  0  0  0  0  0  0
   -3.1892    0.7470    0.0000 C   0  0  0  0  0  0  0  0  0  0  0  0
   -0.2544    3.0619    0.0000 C   0  0  0  0  0  0  0  0  0  0  0  0
    0.4967    2.7418    0.0000 C   0  0  0  0  0  0  0  0  0  0  0  0
   -4.5149    0.7470    0.0000 C   0  0  0  0  0  0  0  0  0  0  0  0
    1.3709    1.5966    0.0000 Cl  0  0  0  0  0  0  0  0  0  0  0  0
   -4.6134    3.9238    0.0000 C   0  0  0  0  0  0  0  0  0  0  0  0
   -3.7391    4.4123    0.0000 C   0  0  0  0  0  0  0  0  0  0  0  0
   -3.1892    4.1045    0.0000 C   0  0  0  0  0  0  0  0  0  0  0  0
  2  1  1  0  0  0  0
  3  2  1  0  0  0  0
  4  1  2  0  0  0  0
  5  1  1  0  0  0  0
  6  4  1  0  0  0  0
  7  8  1  0  0  0  0
  8 10  1  0  0  0  0
  9  5  1  0  0  0  0
 10 11  2  0  0  0  0
 11  9  1  0  0  0  0
 12  2  1  0  0  0  0
 13 20  1  0  0  0  0
 14  7  1  0  0  0  0
 15 18  1  0  0  0  0
 16  7  2  0  0  0  0
 17  9  2  0  0  0  0
 18  4  1  0  0  0  0
 19 11  1  0  0  0  0
 20 19  2  0  0  0  0
 21  6  1  0  0  0  0
 22 13  1  0  0  0  0
 23 12  1  0  0  0  0
 24 12  1  0  0  0  0
 25 12  1  0  0  0  0
  6  3  2  0  0  0  0
 15 21  1  0  0  0  0
 13  8  2  0  0  0  0
M  CHG  2   7   1  14  -1
M  END
>  <IDNUMBER>
F0541-1187

>  <Chemical_Name>
N-{2-tert-butyl-2H,4H,6H-thieno[3,4-c]pyrazol-3-yl}-4-chloro-3-nitrobenzamide

>  <PriceCoeff>
1.00

>  <CAS>
450340-12-2

>  <MW>
380.85

>  <Description>
solid

>  <FSP3>
0.38

>  <clogP>
2.85

>  <TPSA>
115.36

>  <Acceptor>
4

>  <Donor>
1

>  <RotBonds>
3

>  <HAC>
25

>  <Collection>
General

>  <PPDS>
+

$$$$
F0541-1293
  Mrv2219 10102508112D          

 28 31  0  0  0  0            999 V2000
   -3.1903    2.2993    0.0000 C   0  0  0  0  0  0  0  0  0  0  0  0
   -3.8513    2.7797    0.0000 N   0  0  0  0  0  0  0  0  0  0  0  0
   -4.5164    2.2993    0.0000 N   0  0  0  0  0  0  0  0  0  0  0  0
   -3.4448    1.5233    0.0000 C   0  0  0  0  0  0  0  0  0  0  0  0
   -2.3485    2.3280    0.0000 N   0  0  0  0  0  0  0  0  0  0  0  0
   -4.2701    1.5233    0.0000 C   0  0  0  0  0  0  0  0  0  0  0  0
    0.0370    0.5912    0.0000 N   0  3  0  0  0  0  0  0  0  0  0  0
   -0.0574    1.4124    0.0000 C   0  0  0  0  0  0  0  0  0  0  0  0
   -1.6752    2.8823    0.0000 C   0  0  0  0  0  0  0  0  0  0  0  0
   -3.8513    3.6049    0.0000 C   0  0  0  0  0  0  0  0  0  0  0  0
   -0.8211    1.7245    0.0000 C   0  0  0  0  0  0  0  0  0  0  0  0
   -0.9197    2.5579    0.0000 C   0  0  0  0  0  0  0  0  0  0  0  0
    0.6077    1.9174    0.0000 C   0  0  0  0  0  0  0  0  0  0  0  0
   -3.1245    4.0156    0.0000 C   0  0  0  0  0  0  0  0  0  0  0  0
   -0.6159    0.0944    0.0000 O   0  5  0  0  0  0  0  0  0  0  0  0
   -3.8513    0.2668    0.0000 S   0  0  0  0  0  0  0  0  0  0  0  0
    0.8048    0.2792    0.0000 O   0  0  0  0  0  0  0  0  0  0  0  0
   -1.7368    3.7446    0.0000 O   0  0  0  0  0  0  0  0  0  0  0  0
   -3.1903    0.7472    0.0000 C   0  0  0  0  0  0  0  0  0  0  0  0
   -0.2545    3.0630    0.0000 C   0  0  0  0  0  0  0  0  0  0  0  0
    0.4968    2.7427    0.0000 C   0  0  0  0  0  0  0  0  0  0  0  0
   -4.5164    0.7472    0.0000 C   0  0  0  0  0  0  0  0  0  0  0  0
   -3.1245    4.8327    0.0000 C   0  0  0  0  0  0  0  0  0  0  0  0
    1.3714    1.5972    0.0000 Cl  0  0  0  0  0  0  0  0  0  0  0  0
   -2.4143    5.2515    0.0000 Cl  0  0  0  0  0  0  0  0  0  0  0  0
   -4.5575    4.0074    0.0000 C   0  0  0  0  0  0  0  0  0  0  0  0
   -4.5575    4.8327    0.0000 C   0  0  0  0  0  0  0  0  0  0  0  0
   -3.8513    5.2515    0.0000 C   0  0  0  0  0  0  0  0  0  0  0  0
  2  1  1  0  0  0  0
  3  2  1  0  0  0  0
  4  1  2  0  0  0  0
  5  1  1  0  0  0  0
  6  4  1  0  0  0  0
  7  8  1  0  0  0  0
  8 11  1  0  0  0  0
  9  5  1  0  0  0  0
 10  2  1  0  0  0  0
 11 12  2  0  0  0  0
 12  9  1  0  0  0  0
 13 21  1  0  0  0  0
 14 10  2  0  0  0  0
 15  7  1  0  0  0  0
 16 19  1  0  0  0  0
 17  7  2  0  0  0  0
 18  9  2  0  0  0  0
 19  4  1  0  0  0  0
 20 12  1  0  0  0  0
 21 20  2  0  0  0  0
 22  6  1  0  0  0  0
 23 14  1  0  0  0  0
 24 13  1  0  0  0  0
 25 23  1  0  0  0  0
 26 10  1  0  0  0  0
 27 26  2  0  0  0  0
 28 27  1  0  0  0  0
  6  3  2  0  0  0  0
 16 22  1  0  0  0  0
 28 23  2  0  0  0  0
 13  8  2  0  0  0  0
M  CHG  2   7   1  15  -1
M  END
>  <IDNUMBER>
F0541-1293

>  <Chemical_Name>
4-chloro-N-[2-(3-chlorophenyl)-2H,4H,6H-thieno[3,4-c]pyrazol-3-yl]-3-nitrobenzamide

>  <PriceCoeff>
1.00

>  <CAS>
450340-92-8

>  <MW>
435.28

>  <Description>
solid

>  <FSP3>
0.11

>  <clogP>
4.35

>  <TPSA>
115.36

>  <Acceptor>
4

>  <Donor>
1

>  <RotBonds>
4

>  <HAC>
28

>  <Collection>
General

>  <PPDS>
+

$$$$
F0541-1419
  Mrv2219 10102508112D          

 28 31  0  0  0  0            999 V2000
   -3.1903    2.2993    0.0000 C   0  0  0  0  0  0  0  0  0  0  0  0
   -3.8513    2.7797    0.0000 N   0  0  0  0  0  0  0  0  0  0  0  0
   -4.5164    2.2993    0.0000 N   0  0  0  0  0  0  0  0  0  0  0  0
   -3.4448    1.5233    0.0000 C   0  0  0  0  0  0  0  0  0  0  0  0
   -2.3485    2.3280    0.0000 N   0  0  0  0  0  0  0  0  0  0  0  0
   -4.2701    1.5233    0.0000 C   0  0  0  0  0  0  0  0  0  0  0  0
    0.0370    0.5912    0.0000 N   0  3  0  0  0  0  0  0  0  0  0  0
   -0.0574    1.4124    0.0000 C   0  0  0  0  0  0  0  0  0  0  0  0
   -1.6752    2.8823    0.0000 C   0  0  0  0  0  0  0  0  0  0  0  0
   -0.8211    1.7245    0.0000 C   0  0  0  0  0  0  0  0  0  0  0  0
   -0.9197    2.5579    0.0000 C   0  0  0  0  0  0  0  0  0  0  0  0
   -3.8513    3.6049    0.0000 C   0  0  0  0  0  0  0  0  0  0  0  0
    0.6077    1.9174    0.0000 C   0  0  0  0  0  0  0  0  0  0  0  0
   -0.6159    0.0944    0.0000 O   0  5  0  0  0  0  0  0  0  0  0  0
   -3.8513    0.2668    0.0000 S   0  0  0  0  0  0  0  0  0  0  0  0
    0.8048    0.2792    0.0000 O   0  0  0  0  0  0  0  0  0  0  0  0
   -1.7368    3.7446    0.0000 O   0  0  0  0  0  0  0  0  0  0  0  0
   -3.1903    0.7472    0.0000 C   0  0  0  0  0  0  0  0  0  0  0  0
   -0.2545    3.0630    0.0000 C   0  0  0  0  0  0  0  0  0  0  0  0
    0.4968    2.7427    0.0000 C   0  0  0  0  0  0  0  0  0  0  0  0
   -4.5164    0.7472    0.0000 C   0  0  0  0  0  0  0  0  0  0  0  0
   -4.5575    4.0074    0.0000 C   0  0  0  0  0  0  0  0  0  0  0  0
   -3.1245    4.0156    0.0000 C   0  0  0  0  0  0  0  0  0  0  0  0
   -3.8513    5.2515    0.0000 C   0  0  0  0  0  0  0  0  0  0  0  0
    1.3714    1.5972    0.0000 Cl  0  0  0  0  0  0  0  0  0  0  0  0
   -4.5575    4.8327    0.0000 C   0  0  0  0  0  0  0  0  0  0  0  0
   -3.1245    4.8327    0.0000 C   0  0  0  0  0  0  0  0  0  0  0  0
   -3.8431    6.0644    0.0000 F   0  0  0  0  0  0  0  0  0  0  0  0
  2  1  1  0  0  0  0
  3  2  1  0  0  0  0
  4  1  2  0  0  0  0
  5  1  1  0  0  0  0
  6  4  1  0  0  0  0
  7  8  1  0  0  0  0
  8 10  1  0  0  0  0
  9  5  1  0  0  0  0
 10 11  2  0  0  0  0
 11  9  1  0  0  0  0
 12  2  1  0  0  0  0
 13 20  1  0  0  0  0
 14  7  1  0  0  0  0
 15 18  1  0  0  0  0
 16  7  2  0  0  0  0
 17  9  2  0  0  0  0
 18  4  1  0  0  0  0
 19 11  1  0  0  0  0
 20 19  2  0  0  0  0
 21  6  1  0  0  0  0
 22 12  1  0  0  0  0
 23 12  2  0  0  0  0
 24 27  2  0  0  0  0
 25 13  1  0  0  0  0
 26 22  2  0  0  0  0
 27 23  1  0  0  0  0
 28 24  1  0  0  0  0
  6  3  2  0  0  0  0
 15 21  1  0  0  0  0
 24 26  1  0  0  0  0
 13  8  2  0  0  0  0
M  CHG  2   7   1  14  -1
M  END
>  <IDNUMBER>
F0541-1419

>  <Chemical_Name>
4-chloro-N-[2-(4-fluorophenyl)-2H,4H,6H-thieno[3,4-c]pyrazol-3-yl]-3-nitrobenzamide

>  <PriceCoeff>
1.00

>  <CAS>
450343-18-7

>  <MW>
418.83

>  <Description>
solid

>  <FSP3>
0.11

>  <clogP>
3.78

>  <TPSA>
115.36

>  <Acceptor>
4

>  <Donor>
1

>  <RotBonds>
4

>  <HAC>
28

>  <Collection>
General

>  <PPDS>
+

$$$$
F0541-1467
  Mrv2219 10102508112D          

 29 32  0  0  0  0            999 V2000
   -3.1892    2.2985    0.0000 C   0  0  0  0  0  0  0  0  0  0  0  0
   -3.8500    2.7787    0.0000 N   0  0  0  0  0  0  0  0  0  0  0  0
   -4.5149    2.2985    0.0000 N   0  0  0  0  0  0  0  0  0  0  0  0
   -3.4436    1.5227    0.0000 C   0  0  0  0  0  0  0  0  0  0  0  0
   -2.3477    2.3272    0.0000 N   0  0  0  0  0  0  0  0  0  0  0  0
   -4.2686    1.5227    0.0000 C   0  0  0  0  0  0  0  0  0  0  0  0
    0.0369    0.5910    0.0000 N   0  3  0  0  0  0  0  0  0  0  0  0
   -0.0574    1.4119    0.0000 C   0  0  0  0  0  0  0  0  0  0  0  0
   -1.6746    2.8813    0.0000 C   0  0  0  0  0  0  0  0  0  0  0  0
   -0.8209    1.7239    0.0000 C   0  0  0  0  0  0  0  0  0  0  0  0
   -0.9194    2.5571    0.0000 C   0  0  0  0  0  0  0  0  0  0  0  0
   -3.8500    3.6037    0.0000 C   0  0  0  0  0  0  0  0  0  0  0  0
    0.6075    1.9168    0.0000 C   0  0  0  0  0  0  0  0  0  0  0  0
   -0.6157    0.0944    0.0000 O   0  5  0  0  0  0  0  0  0  0  0  0
   -3.8500    0.2668    0.0000 S   0  0  0  0  0  0  0  0  0  0  0  0
    0.8045    0.2791    0.0000 O   0  0  0  0  0  0  0  0  0  0  0  0
   -1.7362    3.7433    0.0000 O   0  0  0  0  0  0  0  0  0  0  0  0
   -3.1892    0.7470    0.0000 C   0  0  0  0  0  0  0  0  0  0  0  0
   -0.2544    3.0619    0.0000 C   0  0  0  0  0  0  0  0  0  0  0  0
    0.4967    2.7418    0.0000 C   0  0  0  0  0  0  0  0  0  0  0  0
   -4.5149    0.7470    0.0000 C   0  0  0  0  0  0  0  0  0  0  0  0
   -4.5518    4.0019    0.0000 C   0  0  0  0  0  0  0  0  0  0  0  0
   -3.1235    4.0142    0.0000 C   0  0  0  0  0  0  0  0  0  0  0  0
    1.3709    1.5966    0.0000 Cl  0  0  0  0  0  0  0  0  0  0  0  0
   -3.8418    5.2455    0.0000 C   0  0  0  0  0  0  0  0  0  0  0  0
   -4.5560    4.8310    0.0000 C   0  0  0  0  0  0  0  0  0  0  0  0
   -3.1235    4.8310    0.0000 C   0  0  0  0  0  0  0  0  0  0  0  0
   -3.8418    6.0623    0.0000 O   0  0  0  0  0  0  0  0  0  0  0  0
   -3.1358    6.4810    0.0000 C   0  0  0  0  0  0  0  0  0  0  0  0
  2  1  1  0  0  0  0
  3  2  1  0  0  0  0
  4  1  2  0  0  0  0
  5  1  1  0  0  0  0
  6  4  1  0  0  0  0
  7  8  1  0  0  0  0
  8 10  1  0  0  0  0
  9  5  1  0  0  0  0
 10 11  2  0  0  0  0
 11  9  1  0  0  0  0
 12  2  1  0  0  0  0
 13 20  1  0  0  0  0
 14  7  1  0  0  0  0
 15 18  1  0  0  0  0
 16  7  2  0  0  0  0
 17  9  2  0  0  0  0
 18  4  1  0  0  0  0
 19 11  1  0  0  0  0
 20 19  2  0  0  0  0
 21  6  1  0  0  0  0
 22 12  1  0  0  0  0
 23 12  2  0  0  0  0
 24 13  1  0  0  0  0
 25 27  2  0  0  0  0
 26 22  2  0  0  0  0
 27 23  1  0  0  0  0
 28 25  1  0  0  0  0
 29 28  1  0  0  0  0
  6  3  2  0  0  0  0
 15 21  1  0  0  0  0
 25 26  1  0  0  0  0
 13  8  2  0  0  0  0
M  CHG  2   7   1  14  -1
M  END
>  <IDNUMBER>
F0541-1467

>  <Chemical_Name>
4-chloro-N-[2-(4-methoxyphenyl)-2H,4H,6H-thieno[3,4-c]pyrazol-3-yl]-3-nitrobenzamide

>  <PriceCoeff>
1.00

>  <CAS>
450343-60-9

>  <MW>
430.86

>  <Description>
solid

>  <FSP3>
0.16

>  <clogP>
3.55

>  <TPSA>
124.59

>  <Acceptor>
5

>  <Donor>
1

>  <RotBonds>
5

>  <HAC>
29

>  <Collection>
General

>  <PPDS>
+

$$$$
F0549-0283
  Mrv2219 10102508112D          

 29 31  0  0  0  0            999 V2000
   -2.3738    1.2827    0.0000 N   0  0  0  0  0  0  0  0  0  0  0  0
   -2.3738    0.4581    0.0000 S   0  0  0  0  0  0  0  0  0  0  0  0
   -3.0443    1.7616    0.0000 N   0  0  0  0  0  0  0  0  0  0  0  0
   -1.7075    1.7616    0.0000 C   0  0  0  0  0  0  0  0  0  0  0  0
   -2.7861    2.5487    0.0000 C   0  0  0  0  0  0  0  0  0  0  0  0
   -6.7092    4.3021    0.0000 N   0  3  0  0  0  0  0  0  0  0  0  0
   -5.8929    4.3853    0.0000 C   0  0  0  0  0  0  0  0  0  0  0  0
   -1.9698    2.5487    0.0000 C   0  0  0  0  0  0  0  0  0  0  0  0
   -4.0938    3.1318    0.0000 C   0  0  0  0  0  0  0  0  0  0  0  0
   -3.2734    3.2192    0.0000 O   0  0  0  0  0  0  0  0  0  0  0  0
   -5.4056    3.7190    0.0000 C   0  0  0  0  0  0  0  0  0  0  0  0
   -2.3613   -0.3665    0.0000 C   0  0  0  0  0  0  0  0  0  0  0  0
   -4.5810    3.7981    0.0000 C   0  0  0  0  0  0  0  0  0  0  0  0
   -3.2067    0.4373    0.0000 O   0  0  0  0  0  0  0  0  0  0  0  0
   -1.5617    0.4623    0.0000 O   0  0  0  0  0  0  0  0  0  0  0  0
   -5.5556    5.1350    0.0000 C   0  0  0  0  0  0  0  0  0  0  0  0
   -7.1882    4.9643    0.0000 O   0  5  0  0  0  0  0  0  0  0  0  0
   -7.0382    3.5441    0.0000 O   0  0  0  0  0  0  0  0  0  0  0  0
   -4.4311    2.3821    0.0000 O   0  0  0  0  0  0  0  0  0  0  0  0
   -0.9245    1.5076    0.0000 N   0  0  0  0  0  0  0  0  0  0  0  0
   -4.2437    4.5520    0.0000 C   0  0  0  0  0  0  0  0  0  0  0  0
   -4.7227    5.2141    0.0000 C   0  0  0  0  0  0  0  0  0  0  0  0
   -1.6450   -0.7663    0.0000 C   0  0  0  0  0  0  0  0  0  0  0  0
   -3.0693   -0.7913    0.0000 C   0  0  0  0  0  0  0  0  0  0  0  0
   -6.0262    5.8013    0.0000 Cl  0  0  0  0  0  0  0  0  0  0  0  0
   -3.0568   -1.6159    0.0000 C   0  0  0  0  0  0  0  0  0  0  0  0
   -1.6325   -1.5992    0.0000 C   0  0  0  0  0  0  0  0  0  0  0  0
   -2.3446   -2.0157    0.0000 C   0  0  0  0  0  0  0  0  0  0  0  0
   -2.3322   -2.8403    0.0000 C   0  0  0  0  0  0  0  0  0  0  0  0
  2  1  1  0  0  0  0
  3  1  1  0  0  0  0
  4  1  1  0  0  0  0
  5  3  2  0  0  0  0
  6  7  1  0  0  0  0
  7 11  2  0  0  0  0
  8  4  2  0  0  0  0
  9 10  1  0  0  0  0
 10  5  1  0  0  0  0
 11 13  1  0  0  0  0
 12  2  1  0  0  0  0
 13  9  1  0  0  0  0
 14  2  2  0  0  0  0
 15  2  2  0  0  0  0
 16 22  2  0  0  0  0
 17  6  1  0  0  0  0
 18  6  2  0  0  0  0
 19  9  2  0  0  0  0
 20  4  1  0  0  0  0
 21 13  2  0  0  0  0
 22 21  1  0  0  0  0
 23 12  1  0  0  0  0
 24 12  2  0  0  0  0
 25 16  1  0  0  0  0
 26 24  1  0  0  0  0
 27 23  2  0  0  0  0
 28 26  2  0  0  0  0
 29 28  1  0  0  0  0
  8  5  1  0  0  0  0
 27 28  1  0  0  0  0
 16  7  1  0  0  0  0
M  CHG  2   6   1  17  -1
M  END
>  <IDNUMBER>
F0549-0283

>  <Chemical_Name>
5-amino-1-(4-methylbenzenesulfonyl)-1H-pyrazol-3-yl 4-chloro-3-nitrobenzoate

>  <PriceCoeff>
1.00

>  <MW>
436.83

>  <Description>
solid

>  <FSP3>
0.06

>  <clogP>
1.73

>  <TPSA>
155.80

>  <Acceptor>
7

>  <Donor>
1

>  <RotBonds>
6

>  <HAC>
29

>  <Collection>
General

$$$$
F0550-0115
  Mrv2219 10102508112D          

 23 25  0  0  0  0            999 V2000
   -3.2456    2.8420    0.0000 N   0  0  0  0  0  0  0  0  0  0  0  0
   -1.8850    2.3926    0.0000 C   0  0  0  0  0  0  0  0  0  0  0  0
   -2.4425    3.0167    0.0000 C   0  0  0  0  0  0  0  0  0  0  0  0
   -3.5036    2.0472    0.0000 C   0  0  0  0  0  0  0  0  0  0  0  0
   -1.0818    2.5590    0.0000 C   0  0  0  0  0  0  0  0  0  0  0  0
   -2.9543    1.4356    0.0000 N   0  0  0  0  0  0  0  0  0  0  0  0
    2.6881    2.6797    0.0000 N   0  3  0  0  0  0  0  0  0  0  0  0
   -2.1429    1.6061    0.0000 C   0  0  0  0  0  0  0  0  0  0  0  0
   -0.5326    1.9557    0.0000 N   0  0  0  0  0  0  0  0  0  0  0  0
    1.9016    2.4717    0.0000 C   0  0  0  0  0  0  0  0  0  0  0  0
    1.6395    1.6810    0.0000 C   0  0  0  0  0  0  0  0  0  0  0  0
    0.2913    2.1179    0.0000 C   0  0  0  0  0  0  0  0  0  0  0  0
   -4.3275    2.0555    0.0000 S   0  0  0  0  0  0  0  0  0  0  0  0
    0.8364    1.5105    0.0000 C   0  0  0  0  0  0  0  0  0  0  0  0
    3.3330    2.1429    0.0000 O   0  5  0  0  0  0  0  0  0  0  0  0
   -2.1804    3.7949    0.0000 O   0  0  0  0  0  0  0  0  0  0  0  0
    2.9752    3.4536    0.0000 O   0  0  0  0  0  0  0  0  0  0  0  0
   -0.8197    3.3413    0.0000 O   0  0  0  0  0  0  0  0  0  0  0  0
    1.3399    3.0667    0.0000 C   0  0  0  0  0  0  0  0  0  0  0  0
    0.5285    2.9086    0.0000 C   0  0  0  0  0  0  0  0  0  0  0  0
   -3.9155    3.3288    0.0000 C   0  0  0  0  0  0  0  0  0  0  0  0
    0.5909    0.7573    0.0000 Cl  0  0  0  0  0  0  0  0  0  0  0  0
   -4.5771    2.8420    0.0000 C   0  0  0  0  0  0  0  0  0  0  0  0
  2  3  1  0  0  0  0
  3  1  1  0  0  0  0
  4  1  1  0  0  0  0
  5  2  1  0  0  0  0
  6  4  2  0  0  0  0
  7 10  1  0  0  0  0
  8  6  1  0  0  0  0
  9  5  1  0  0  0  0
 10 19  2  0  0  0  0
 11 14  2  0  0  0  0
 12  9  1  0  0  0  0
 13  4  1  0  0  0  0
 14 12  1  0  0  0  0
 15  7  1  0  0  0  0
 16  3  2  0  0  0  0
 17  7  2  0  0  0  0
 18  5  2  0  0  0  0
 19 20  1  0  0  0  0
 20 12  2  0  0  0  0
 21  1  1  0  0  0  0
 22 14  1  0  0  0  0
 23 21  1  0  0  0  0
 23 13  1  0  0  0  0
  2  8  2  0  0  0  0
 10 11  1  0  0  0  0
M  CHG  2   7   1  15  -1
M  END
>  <IDNUMBER>
F0550-0115

>  <Chemical_Name>
N-(2-chloro-4-nitrophenyl)-5-oxo-2H,3H,5H-[1,3]thiazolo[3,2-a]pyrimidine-6-carboxamide

>  <PriceCoeff>
1.00

>  <CAS>
532965-75-6

>  <MW>
352.75

>  <Description>
solid

>  <FSP3>
0.15

>  <clogP>
0.61

>  <TPSA>
130.21

>  <Acceptor>
5

>  <Donor>
1

>  <RotBonds>
3

>  <HAC>
23

>  <Collection>
General

>  <PPDS>
+

$$$$
F0550-0116
  Mrv2219 10102508112D          

 23 25  0  0  0  0            999 V2000
   -3.2553    2.8504    0.0000 N   0  0  0  0  0  0  0  0  0  0  0  0
   -1.8906    2.3997    0.0000 C   0  0  0  0  0  0  0  0  0  0  0  0
   -2.4498    3.0257    0.0000 C   0  0  0  0  0  0  0  0  0  0  0  0
   -3.5140    2.0533    0.0000 C   0  0  0  0  0  0  0  0  0  0  0  0
    0.8431    1.5150    0.0000 C   0  0  0  0  0  0  0  0  0  0  0  0
    0.5801    0.7470    0.0000 N   0  3  0  0  0  0  0  0  0  0  0  0
   -1.0851    2.5667    0.0000 C   0  0  0  0  0  0  0  0  0  0  0  0
   -2.9631    1.4398    0.0000 N   0  0  0  0  0  0  0  0  0  0  0  0
   -2.1493    1.6109    0.0000 C   0  0  0  0  0  0  0  0  0  0  0  0
    0.2922    2.1243    0.0000 C   0  0  0  0  0  0  0  0  0  0  0  0
   -0.5342    1.9615    0.0000 N   0  0  0  0  0  0  0  0  0  0  0  0
    1.6402    1.6860    0.0000 C   0  0  0  0  0  0  0  0  0  0  0  0
   -4.3404    2.0617    0.0000 S   0  0  0  0  0  0  0  0  0  0  0  0
   -0.2128    0.4841    0.0000 O   0  5  0  0  0  0  0  0  0  0  0  0
   -2.1869    3.8062    0.0000 O   0  0  0  0  0  0  0  0  0  0  0  0
    1.0935    0.0960    0.0000 O   0  0  0  0  0  0  0  0  0  0  0  0
   -0.8221    3.3513    0.0000 O   0  0  0  0  0  0  0  0  0  0  0  0
    0.5301    2.9173    0.0000 C   0  0  0  0  0  0  0  0  0  0  0  0
   -3.9272    3.3387    0.0000 C   0  0  0  0  0  0  0  0  0  0  0  0
    1.9073    2.4790    0.0000 C   0  0  0  0  0  0  0  0  0  0  0  0
   -4.5908    2.8504    0.0000 C   0  0  0  0  0  0  0  0  0  0  0  0
    1.3397    3.0758    0.0000 C   0  0  0  0  0  0  0  0  0  0  0  0
    2.6961    2.6877    0.0000 Cl  0  0  0  0  0  0  0  0  0  0  0  0
  2  3  1  0  0  0  0
  3  1  1  0  0  0  0
  4  1  1  0  0  0  0
  5 10  1  0  0  0  0
  6  5  1  0  0  0  0
  7  2  1  0  0  0  0
  8  4  2  0  0  0  0
  9  8  1  0  0  0  0
 10 11  1  0  0  0  0
 11  7  1  0  0  0  0
 12  5  2  0  0  0  0
 13  4  1  0  0  0  0
 14  6  1  0  0  0  0
 15  3  2  0  0  0  0
 16  6  2  0  0  0  0
 17  7  2  0  0  0  0
 18 10  2  0  0  0  0
 19  1  1  0  0  0  0
 20 22  2  0  0  0  0
 21 19  1  0  0  0  0
 22 18  1  0  0  0  0
 23 20  1  0  0  0  0
 21 13  1  0  0  0  0
  2  9  2  0  0  0  0
 20 12  1  0  0  0  0
M  CHG  2   6   1  14  -1
M  END
>  <IDNUMBER>
F0550-0116

>  <Chemical_Name>
N-(4-chloro-2-nitrophenyl)-5-oxo-2H,3H,5H-[1,3]thiazolo[3,2-a]pyrimidine-6-carboxamide

>  <PriceCoeff>
1.00

>  <CAS>
443329-78-0

>  <MW>
352.75

>  <Description>
solid

>  <FSP3>
0.15

>  <clogP>
1.00

>  <TPSA>
130.21

>  <Acceptor>
5

>  <Donor>
1

>  <RotBonds>
3

>  <HAC>
23

>  <Collection>
General

>  <PPDS>
+

$$$$
F0561-0605
  Mrv2219 10102508112D          

 28 31  0  0  0  0            999 V2000
   -3.2806    2.5534    0.0000 C   0  0  0  0  0  0  0  0  0  0  0  0
   -3.0173    1.7636    0.0000 C   0  0  0  0  0  0  0  0  0  0  0  0
   -4.1081    2.5534    0.0000 N   0  0  0  0  0  0  0  0  0  0  0  0
   -4.3588    1.7636    0.0000 N   0  0  0  0  0  0  0  0  0  0  0  0
   -3.6860    1.2788    0.0000 C   0  0  0  0  0  0  0  0  0  0  0  0
   -2.7916    3.2221    0.0000 N   0  0  0  0  0  0  0  0  0  0  0  0
   -1.6800    5.9720    0.0000 N   0  3  0  0  0  0  0  0  0  0  0  0
   -1.3373    5.2198    0.0000 C   0  0  0  0  0  0  0  0  0  0  0  0
   -2.6078    0.4890    0.0000 S   0  0  0  0  0  0  0  0  0  0  0  0
   -1.9767    3.1427    0.0000 C   0  0  0  0  0  0  0  0  0  0  0  0
   -3.4353    0.4890    0.0000 C   0  0  0  0  0  0  0  0  0  0  0  0
   -1.8263    4.5553    0.0000 C   0  0  0  0  0  0  0  0  0  0  0  0
   -2.3528    1.2788    0.0000 C   0  0  0  0  0  0  0  0  0  0  0  0
   -1.4877    3.8072    0.0000 C   0  0  0  0  0  0  0  0  0  0  0  0
   -0.5266    5.1404    0.0000 C   0  0  0  0  0  0  0  0  0  0  0  0
   -1.2036    6.6449    0.0000 O   0  5  0  0  0  0  0  0  0  0  0  0
   -4.5970    3.2179    0.0000 C   0  0  0  0  0  0  0  0  0  0  0  0
   -2.5033    6.0598    0.0000 O   0  0  0  0  0  0  0  0  0  0  0  0
   -2.1188   -0.1797    0.0000 O   0  0  0  0  0  0  0  0  0  0  0  0
   -1.6299    2.3821    0.0000 O   0  0  0  0  0  0  0  0  0  0  0  0
   -0.6645    3.7236    0.0000 C   0  0  0  0  0  0  0  0  0  0  0  0
   -0.1881    4.3798    0.0000 C   0  0  0  0  0  0  0  0  0  0  0  0
   -0.0459    5.7965    0.0000 Cl  0  0  0  0  0  0  0  0  0  0  0  0
   -5.4120    3.1218    0.0000 C   0  0  0  0  0  0  0  0  0  0  0  0
   -4.2585    3.9702    0.0000 C   0  0  0  0  0  0  0  0  0  0  0  0
   -4.7475    4.6180    0.0000 C   0  0  0  0  0  0  0  0  0  0  0  0
   -5.9009    3.7863    0.0000 C   0  0  0  0  0  0  0  0  0  0  0  0
   -5.5624    4.5386    0.0000 C   0  0  0  0  0  0  0  0  0  0  0  0
  2  1  2  0  0  0  0
  3  1  1  0  0  0  0
  4  3  1  0  0  0  0
  5  2  1  0  0  0  0
  6  1  1  0  0  0  0
  7  8  1  0  0  0  0
  8 12  2  0  0  0  0
  9 13  1  0  0  0  0
 10  6  1  0  0  0  0
 11  5  1  0  0  0  0
 12 14  1  0  0  0  0
 13  2  1  0  0  0  0
 14 10  1  0  0  0  0
 15 22  2  0  0  0  0
 16  7  1  0  0  0  0
 17  3  1  0  0  0  0
 18  7  2  0  0  0  0
 19  9  2  0  0  0  0
 20 10  2  0  0  0  0
 21 14  2  0  0  0  0
 22 21  1  0  0  0  0
 23 15  1  0  0  0  0
 24 17  2  0  0  0  0
 25 17  1  0  0  0  0
 26 25  2  0  0  0  0
 27 24  1  0  0  0  0
 28 26  1  0  0  0  0
  4  5  2  0  0  0  0
 11  9  1  0  0  0  0
 27 28  2  0  0  0  0
  8 15  1  0  0  0  0
M  CHG  2   7   1  16  -1
M  END
>  <IDNUMBER>
F0561-0605

>  <Chemical_Name>
4-chloro-3-nitro-N-{5-oxo-2-phenyl-2H,4H,6H-5??-thieno[3,4-c]pyrazol-3-yl}benzamide

>  <PriceCoeff>
1.00

>  <CAS>
1007193-86-3

>  <MW>
416.84

>  <Description>
solid

>  <FSP3>
0.11

>  <clogP>
1.55

>  <TPSA>
126.34

>  <Acceptor>
5

>  <Donor>
1

>  <RotBonds>
4

>  <HAC>
28

>  <Collection>
General

>  <PPDS>
+

$$$$
F0561-0607
  Mrv2219 10102508112D          

 29 32  0  0  0  0            999 V2000
   -3.2806    2.5534    0.0000 C   0  0  0  0  0  0  0  0  0  0  0  0
   -3.0173    1.7636    0.0000 C   0  0  0  0  0  0  0  0  0  0  0  0
   -4.1081    2.5534    0.0000 N   0  0  0  0  0  0  0  0  0  0  0  0
   -4.3588    1.7636    0.0000 N   0  0  0  0  0  0  0  0  0  0  0  0
   -3.6860    1.2788    0.0000 C   0  0  0  0  0  0  0  0  0  0  0  0
   -2.7916    3.2221    0.0000 N   0  0  0  0  0  0  0  0  0  0  0  0
   -1.6800    5.9720    0.0000 N   0  3  0  0  0  0  0  0  0  0  0  0
   -1.3373    5.2198    0.0000 C   0  0  0  0  0  0  0  0  0  0  0  0
   -2.6078    0.4890    0.0000 S   0  0  0  0  0  0  0  0  0  0  0  0
   -1.9767    3.1427    0.0000 C   0  0  0  0  0  0  0  0  0  0  0  0
   -3.4353    0.4890    0.0000 C   0  0  0  0  0  0  0  0  0  0  0  0
   -4.5970    3.2179    0.0000 C   0  0  0  0  0  0  0  0  0  0  0  0
   -1.8263    4.5553    0.0000 C   0  0  0  0  0  0  0  0  0  0  0  0
   -2.3528    1.2788    0.0000 C   0  0  0  0  0  0  0  0  0  0  0  0
   -1.4877    3.8072    0.0000 C   0  0  0  0  0  0  0  0  0  0  0  0
   -0.5266    5.1404    0.0000 C   0  0  0  0  0  0  0  0  0  0  0  0
   -4.2585    3.9702    0.0000 C   0  0  0  0  0  0  0  0  0  0  0  0
   -1.2036    6.6449    0.0000 O   0  5  0  0  0  0  0  0  0  0  0  0
   -2.5033    6.0598    0.0000 O   0  0  0  0  0  0  0  0  0  0  0  0
   -2.1188   -0.1797    0.0000 O   0  0  0  0  0  0  0  0  0  0  0  0
   -1.6299    2.3821    0.0000 O   0  0  0  0  0  0  0  0  0  0  0  0
   -0.6645    3.7236    0.0000 C   0  0  0  0  0  0  0  0  0  0  0  0
   -0.1881    4.3798    0.0000 C   0  0  0  0  0  0  0  0  0  0  0  0
   -4.7475    4.6180    0.0000 C   0  0  0  0  0  0  0  0  0  0  0  0
   -0.0459    5.7965    0.0000 Cl  0  0  0  0  0  0  0  0  0  0  0  0
   -4.4215    5.3703    0.0000 Cl  0  0  0  0  0  0  0  0  0  0  0  0
   -5.4120    3.1218    0.0000 C   0  0  0  0  0  0  0  0  0  0  0  0
   -5.9009    3.7863    0.0000 C   0  0  0  0  0  0  0  0  0  0  0  0
   -5.5666    4.5302    0.0000 C   0  0  0  0  0  0  0  0  0  0  0  0
  2  1  2  0  0  0  0
  3  1  1  0  0  0  0
  4  3  1  0  0  0  0
  5  2  1  0  0  0  0
  6  1  1  0  0  0  0
  7  8  1  0  0  0  0
  8 13  2  0  0  0  0
  9 14  1  0  0  0  0
 10  6  1  0  0  0  0
 11  5  1  0  0  0  0
 12  3  1  0  0  0  0
 13 15  1  0  0  0  0
 14  2  1  0  0  0  0
 15 10  1  0  0  0  0
 16 23  2  0  0  0  0
 17 12  1  0  0  0  0
 18  7  1  0  0  0  0
 19  7  2  0  0  0  0
 20  9  2  0  0  0  0
 21 10  2  0  0  0  0
 22 15  2  0  0  0  0
 23 22  1  0  0  0  0
 24 17  2  0  0  0  0
 25 16  1  0  0  0  0
 26 24  1  0  0  0  0
 27 12  2  0  0  0  0
 28 27  1  0  0  0  0
 29 28  2  0  0  0  0
  4  5  2  0  0  0  0
 11  9  1  0  0  0  0
 24 29  1  0  0  0  0
  8 16  1  0  0  0  0
M  CHG  2   7   1  18  -1
M  END
>  <IDNUMBER>
F0561-0607

>  <Chemical_Name>
4-chloro-N-[2-(3-chlorophenyl)-5-oxo-2H,4H,6H-5??-thieno[3,4-c]pyrazol-3-yl]-3-nitrobenzamide

>  <PriceCoeff>
1.00

>  <CAS>
1007192-51-9

>  <MW>
451.28

>  <Description>
solid

>  <FSP3>
0.11

>  <clogP>
2.34

>  <TPSA>
126.34

>  <Acceptor>
5

>  <Donor>
1

>  <RotBonds>
4

>  <HAC>
29

>  <Collection>
General

>  <PPDS>
+

$$$$
F0561-0608
  Mrv2219 10102508112D          

 29 32  0  0  0  0            999 V2000
   -3.2810    2.5537    0.0000 C   0  0  0  0  0  0  0  0  0  0  0  0
   -3.0177    1.7638    0.0000 C   0  0  0  0  0  0  0  0  0  0  0  0
   -4.1086    2.5537    0.0000 N   0  0  0  0  0  0  0  0  0  0  0  0
   -4.3593    1.7638    0.0000 N   0  0  0  0  0  0  0  0  0  0  0  0
   -3.6864    1.2790    0.0000 C   0  0  0  0  0  0  0  0  0  0  0  0
   -2.7920    3.2225    0.0000 N   0  0  0  0  0  0  0  0  0  0  0  0
   -1.6802    5.9727    0.0000 N   0  3  0  0  0  0  0  0  0  0  0  0
   -1.3375    5.2204    0.0000 C   0  0  0  0  0  0  0  0  0  0  0  0
   -2.6081    0.4890    0.0000 S   0  0  0  0  0  0  0  0  0  0  0  0
   -1.9769    3.1431    0.0000 C   0  0  0  0  0  0  0  0  0  0  0  0
   -3.4357    0.4890    0.0000 C   0  0  0  0  0  0  0  0  0  0  0  0
   -1.8265    4.5558    0.0000 C   0  0  0  0  0  0  0  0  0  0  0  0
   -2.3531    1.2790    0.0000 C   0  0  0  0  0  0  0  0  0  0  0  0
   -1.4879    3.8076    0.0000 C   0  0  0  0  0  0  0  0  0  0  0  0
   -4.5976    3.2183    0.0000 C   0  0  0  0  0  0  0  0  0  0  0  0
   -0.5266    5.1410    0.0000 C   0  0  0  0  0  0  0  0  0  0  0  0
   -1.2037    6.6456    0.0000 O   0  5  0  0  0  0  0  0  0  0  0  0
   -2.5036    6.0605    0.0000 O   0  0  0  0  0  0  0  0  0  0  0  0
   -2.1191   -0.1798    0.0000 O   0  0  0  0  0  0  0  0  0  0  0  0
   -1.6301    2.3824    0.0000 O   0  0  0  0  0  0  0  0  0  0  0  0
   -0.6646    3.7241    0.0000 C   0  0  0  0  0  0  0  0  0  0  0  0
   -0.1881    4.3803    0.0000 C   0  0  0  0  0  0  0  0  0  0  0  0
   -5.4126    3.1222    0.0000 C   0  0  0  0  0  0  0  0  0  0  0  0
   -4.2590    3.9706    0.0000 C   0  0  0  0  0  0  0  0  0  0  0  0
   -5.5631    4.5391    0.0000 C   0  0  0  0  0  0  0  0  0  0  0  0
   -0.0459    5.7972    0.0000 Cl  0  0  0  0  0  0  0  0  0  0  0  0
   -4.7480    4.6185    0.0000 C   0  0  0  0  0  0  0  0  0  0  0  0
   -5.8933    3.7868    0.0000 C   0  0  0  0  0  0  0  0  0  0  0  0
   -6.0480    5.1953    0.0000 F   0  0  0  0  0  0  0  0  0  0  0  0
  2  1  2  0  0  0  0
  3  1  1  0  0  0  0
  4  3  1  0  0  0  0
  5  2  1  0  0  0  0
  6  1  1  0  0  0  0
  7  8  1  0  0  0  0
  8 12  2  0  0  0  0
  9 13  1  0  0  0  0
 10  6  1  0  0  0  0
 11  5  1  0  0  0  0
 12 14  1  0  0  0  0
 13  2  1  0  0  0  0
 14 10  1  0  0  0  0
 15  3  1  0  0  0  0
 16 22  2  0  0  0  0
 17  7  1  0  0  0  0
 18  7  2  0  0  0  0
 19  9  2  0  0  0  0
 20 10  2  0  0  0  0
 21 14  2  0  0  0  0
 22 21  1  0  0  0  0
 23 15  2  0  0  0  0
 24 15  1  0  0  0  0
 25 27  1  0  0  0  0
 26 16  1  0  0  0  0
 27 24  2  0  0  0  0
 28 23  1  0  0  0  0
 29 25  1  0  0  0  0
  4  5  2  0  0  0  0
 11  9  1  0  0  0  0
 28 25  2  0  0  0  0
  8 16  1  0  0  0  0
M  CHG  2   7   1  17  -1
M  END
>  <IDNUMBER>
F0561-0608

>  <Chemical_Name>
4-chloro-N-[2-(4-fluorophenyl)-5-oxo-2H,4H,6H-5??-thieno[3,4-c]pyrazol-3-yl]-3-nitrobenzamide

>  <PriceCoeff>
1.00

>  <CAS>
1007192-96-2

>  <MW>
434.83

>  <Description>
solid

>  <FSP3>
0.11

>  <clogP>
1.77

>  <TPSA>
126.34

>  <Acceptor>
5

>  <Donor>
1

>  <RotBonds>
4

>  <HAC>
29

>  <Collection>
General

>  <PPDS>
+

$$$$
F0561-0609
  Mrv2219 10102508112D          

 30 33  0  0  0  0            999 V2000
   -3.2806    2.5534    0.0000 C   0  0  0  0  0  0  0  0  0  0  0  0
   -3.0173    1.7636    0.0000 C   0  0  0  0  0  0  0  0  0  0  0  0
   -4.1081    2.5534    0.0000 N   0  0  0  0  0  0  0  0  0  0  0  0
   -4.3588    1.7636    0.0000 N   0  0  0  0  0  0  0  0  0  0  0  0
   -3.6860    1.2788    0.0000 C   0  0  0  0  0  0  0  0  0  0  0  0
   -2.7916    3.2221    0.0000 N   0  0  0  0  0  0  0  0  0  0  0  0
   -1.6800    5.9720    0.0000 N   0  3  0  0  0  0  0  0  0  0  0  0
   -1.3373    5.2198    0.0000 C   0  0  0  0  0  0  0  0  0  0  0  0
   -2.6078    0.4890    0.0000 S   0  0  0  0  0  0  0  0  0  0  0  0
   -1.9767    3.1427    0.0000 C   0  0  0  0  0  0  0  0  0  0  0  0
   -3.4353    0.4890    0.0000 C   0  0  0  0  0  0  0  0  0  0  0  0
   -1.8263    4.5553    0.0000 C   0  0  0  0  0  0  0  0  0  0  0  0
   -2.3528    1.2788    0.0000 C   0  0  0  0  0  0  0  0  0  0  0  0
   -1.4877    3.8072    0.0000 C   0  0  0  0  0  0  0  0  0  0  0  0
   -4.5970    3.2179    0.0000 C   0  0  0  0  0  0  0  0  0  0  0  0
   -0.5266    5.1404    0.0000 C   0  0  0  0  0  0  0  0  0  0  0  0
   -1.2036    6.6449    0.0000 O   0  5  0  0  0  0  0  0  0  0  0  0
   -2.5033    6.0598    0.0000 O   0  0  0  0  0  0  0  0  0  0  0  0
   -2.1188   -0.1797    0.0000 O   0  0  0  0  0  0  0  0  0  0  0  0
   -1.6299    2.3821    0.0000 O   0  0  0  0  0  0  0  0  0  0  0  0
   -0.6645    3.7236    0.0000 C   0  0  0  0  0  0  0  0  0  0  0  0
   -0.1881    4.3798    0.0000 C   0  0  0  0  0  0  0  0  0  0  0  0
   -5.4120    3.1218    0.0000 C   0  0  0  0  0  0  0  0  0  0  0  0
   -4.2585    3.9702    0.0000 C   0  0  0  0  0  0  0  0  0  0  0  0
   -0.0459    5.7965    0.0000 Cl  0  0  0  0  0  0  0  0  0  0  0  0
   -5.5624    4.5386    0.0000 C   0  0  0  0  0  0  0  0  0  0  0  0
   -4.7475    4.6180    0.0000 C   0  0  0  0  0  0  0  0  0  0  0  0
   -5.9009    3.7863    0.0000 C   0  0  0  0  0  0  0  0  0  0  0  0
   -6.0473    5.1947    0.0000 O   0  0  0  0  0  0  0  0  0  0  0  0
   -5.7254    5.9470    0.0000 C   0  0  0  0  0  0  0  0  0  0  0  0
  2  1  2  0  0  0  0
  3  1  1  0  0  0  0
  4  3  1  0  0  0  0
  5  2  1  0  0  0  0
  6  1  1  0  0  0  0
  7  8  1  0  0  0  0
  8 12  2  0  0  0  0
  9 13  1  0  0  0  0
 10  6  1  0  0  0  0
 11  5  1  0  0  0  0
 12 14  1  0  0  0  0
 13  2  1  0  0  0  0
 14 10  1  0  0  0  0
 15  3  1  0  0  0  0
 16 22  2  0  0  0  0
 17  7  1  0  0  0  0
 18  7  2  0  0  0  0
 19  9  2  0  0  0  0
 20 10  2  0  0  0  0
 21 14  2  0  0  0  0
 22 21  1  0  0  0  0
 23 15  2  0  0  0  0
 24 15  1  0  0  0  0
 25 16  1  0  0  0  0
 26 27  1  0  0  0  0
 27 24  2  0  0  0  0
 28 23  1  0  0  0  0
 29 26  1  0  0  0  0
 30 29  1  0  0  0  0
  4  5  2  0  0  0  0
 11  9  1  0  0  0  0
 28 26  2  0  0  0  0
  8 16  1  0  0  0  0
M  CHG  2   7   1  17  -1
M  END
>  <IDNUMBER>
F0561-0609

>  <Chemical_Name>
4-chloro-N-[2-(4-methoxyphenyl)-5-oxo-2H,4H,6H-5??-thieno[3,4-c]pyrazol-3-yl]-3-nitrobenzamide

>  <PriceCoeff>
1.00

>  <CAS>
1007192-46-2

>  <MW>
446.86

>  <Description>
solid

>  <FSP3>
0.16

>  <clogP>
1.54

>  <TPSA>
135.57

>  <Acceptor>
6

>  <Donor>
1

>  <RotBonds>
5

>  <HAC>
30

>  <Collection>
General

>  <PPDS>
+

$$$$
F0561-0610
  Mrv2219 10102508112D          

 30 33  0  0  0  0            999 V2000
   -3.2810    2.5537    0.0000 C   0  0  0  0  0  0  0  0  0  0  0  0
   -4.1086    2.5537    0.0000 N   0  0  0  0  0  0  0  0  0  0  0  0
   -3.0177    1.7638    0.0000 C   0  0  0  0  0  0  0  0  0  0  0  0
   -4.3593    1.7638    0.0000 N   0  0  0  0  0  0  0  0  0  0  0  0
   -3.6864    1.2790    0.0000 C   0  0  0  0  0  0  0  0  0  0  0  0
   -2.7920    3.2225    0.0000 N   0  0  0  0  0  0  0  0  0  0  0  0
   -1.6802    5.9727    0.0000 N   0  3  0  0  0  0  0  0  0  0  0  0
   -1.3375    5.2204    0.0000 C   0  0  0  0  0  0  0  0  0  0  0  0
   -4.5976    3.2183    0.0000 C   0  0  0  0  0  0  0  0  0  0  0  0
   -2.6081    0.4890    0.0000 S   0  0  0  0  0  0  0  0  0  0  0  0
   -1.9769    3.1431    0.0000 C   0  0  0  0  0  0  0  0  0  0  0  0
   -3.4357    0.4890    0.0000 C   0  0  0  0  0  0  0  0  0  0  0  0
   -1.8265    4.5558    0.0000 C   0  0  0  0  0  0  0  0  0  0  0  0
   -2.3531    1.2790    0.0000 C   0  0  0  0  0  0  0  0  0  0  0  0
   -5.4126    3.1222    0.0000 C   0  0  0  0  0  0  0  0  0  0  0  0
   -1.4879    3.8076    0.0000 C   0  0  0  0  0  0  0  0  0  0  0  0
   -0.5266    5.1410    0.0000 C   0  0  0  0  0  0  0  0  0  0  0  0
   -1.2037    6.6456    0.0000 O   0  5  0  0  0  0  0  0  0  0  0  0
   -2.5036    6.0605    0.0000 O   0  0  0  0  0  0  0  0  0  0  0  0
   -2.1191   -0.1798    0.0000 O   0  0  0  0  0  0  0  0  0  0  0  0
   -1.6301    2.3824    0.0000 O   0  0  0  0  0  0  0  0  0  0  0  0
   -5.9016    3.7868    0.0000 C   0  0  0  0  0  0  0  0  0  0  0  0
   -0.6646    3.7241    0.0000 C   0  0  0  0  0  0  0  0  0  0  0  0
   -0.1881    4.3803    0.0000 C   0  0  0  0  0  0  0  0  0  0  0  0
   -0.0459    5.7972    0.0000 Cl  0  0  0  0  0  0  0  0  0  0  0  0
   -4.2590    3.9706    0.0000 C   0  0  0  0  0  0  0  0  0  0  0  0
   -5.7386    2.3699    0.0000 C   0  0  0  0  0  0  0  0  0  0  0  0
   -4.7480    4.6185    0.0000 C   0  0  0  0  0  0  0  0  0  0  0  0
   -5.5631    4.5391    0.0000 C   0  0  0  0  0  0  0  0  0  0  0  0
   -6.7125    3.6948    0.0000 C   0  0  0  0  0  0  0  0  0  0  0  0
  2  1  1  0  0  0  0
  3  1  2  0  0  0  0
  4  2  1  0  0  0  0
  5  3  1  0  0  0  0
  6  1  1  0  0  0  0
  7  8  1  0  0  0  0
  8 13  2  0  0  0  0
  9  2  1  0  0  0  0
 10 14  1  0  0  0  0
 11  6  1  0  0  0  0
 12  5  1  0  0  0  0
 13 16  1  0  0  0  0
 14  3  1  0  0  0  0
 15  9  2  0  0  0  0
 16 11  1  0  0  0  0
 17 24  2  0  0  0  0
 18  7  1  0  0  0  0
 19  7  2  0  0  0  0
 20 10  2  0  0  0  0
 21 11  2  0  0  0  0
 22 15  1  0  0  0  0
 23 16  2  0  0  0  0
 24 23  1  0  0  0  0
 25 17  1  0  0  0  0
 26  9  1  0  0  0  0
 27 15  1  0  0  0  0
 28 26  2  0  0  0  0
 29 28  1  0  0  0  0
 30 22  1  0  0  0  0
  4  5  2  0  0  0  0
 12 10  1  0  0  0  0
 22 29  2  0  0  0  0
  8 17  1  0  0  0  0
M  CHG  2   7   1  18  -1
M  END
>  <IDNUMBER>
F0561-0610

>  <Chemical_Name>
4-chloro-N-[2-(2,3-dimethylphenyl)-5-oxo-2H,4H,6H-5??-thieno[3,4-c]pyrazol-3-yl]-3-nitrobenzamide

>  <PriceCoeff>
1.00

>  <CAS>
1007193-30-7

>  <MW>
444.89

>  <Description>
solid

>  <FSP3>
0.20

>  <clogP>
2.50

>  <TPSA>
126.34

>  <Acceptor>
5

>  <Donor>
1

>  <RotBonds>
4

>  <HAC>
30

>  <Collection>
General

>  <PPDS>
+

$$$$
F0561-0611
  Mrv2219 10102508112D          

 30 33  0  0  0  0            999 V2000
   -3.2810    2.5537    0.0000 C   0  0  0  0  0  0  0  0  0  0  0  0
   -4.1086    2.5537    0.0000 N   0  0  0  0  0  0  0  0  0  0  0  0
   -3.0177    1.7638    0.0000 C   0  0  0  0  0  0  0  0  0  0  0  0
   -4.3593    1.7638    0.0000 N   0  0  0  0  0  0  0  0  0  0  0  0
   -3.6864    1.2790    0.0000 C   0  0  0  0  0  0  0  0  0  0  0  0
   -2.7920    3.2225    0.0000 N   0  0  0  0  0  0  0  0  0  0  0  0
   -1.6802    5.9727    0.0000 N   0  3  0  0  0  0  0  0  0  0  0  0
   -1.3375    5.2204    0.0000 C   0  0  0  0  0  0  0  0  0  0  0  0
   -2.6081    0.4890    0.0000 S   0  0  0  0  0  0  0  0  0  0  0  0
   -4.5976    3.2183    0.0000 C   0  0  0  0  0  0  0  0  0  0  0  0
   -1.9769    3.1431    0.0000 C   0  0  0  0  0  0  0  0  0  0  0  0
   -3.4357    0.4890    0.0000 C   0  0  0  0  0  0  0  0  0  0  0  0
   -1.8265    4.5558    0.0000 C   0  0  0  0  0  0  0  0  0  0  0  0
   -2.3531    1.2790    0.0000 C   0  0  0  0  0  0  0  0  0  0  0  0
   -1.4879    3.8076    0.0000 C   0  0  0  0  0  0  0  0  0  0  0  0
   -5.4126    3.1222    0.0000 C   0  0  0  0  0  0  0  0  0  0  0  0
   -0.5266    5.1410    0.0000 C   0  0  0  0  0  0  0  0  0  0  0  0
   -4.2590    3.9706    0.0000 C   0  0  0  0  0  0  0  0  0  0  0  0
   -1.2037    6.6456    0.0000 O   0  5  0  0  0  0  0  0  0  0  0  0
   -2.5036    6.0605    0.0000 O   0  0  0  0  0  0  0  0  0  0  0  0
   -2.1191   -0.1798    0.0000 O   0  0  0  0  0  0  0  0  0  0  0  0
   -1.6301    2.3824    0.0000 O   0  0  0  0  0  0  0  0  0  0  0  0
   -5.9016    3.7868    0.0000 C   0  0  0  0  0  0  0  0  0  0  0  0
   -0.6646    3.7241    0.0000 C   0  0  0  0  0  0  0  0  0  0  0  0
   -0.1881    4.3803    0.0000 C   0  0  0  0  0  0  0  0  0  0  0  0
   -4.7480    4.6185    0.0000 C   0  0  0  0  0  0  0  0  0  0  0  0
   -5.5631    4.5391    0.0000 C   0  0  0  0  0  0  0  0  0  0  0  0
   -0.0459    5.7972    0.0000 Cl  0  0  0  0  0  0  0  0  0  0  0  0
   -5.7386    2.3699    0.0000 C   0  0  0  0  0  0  0  0  0  0  0  0
   -6.0480    5.1953    0.0000 C   0  0  0  0  0  0  0  0  0  0  0  0
  2  1  1  0  0  0  0
  3  1  2  0  0  0  0
  4  2  1  0  0  0  0
  5  3  1  0  0  0  0
  6  1  1  0  0  0  0
  7  8  1  0  0  0  0
  8 13  2  0  0  0  0
  9 14  1  0  0  0  0
 10  2  1  0  0  0  0
 11  6  1  0  0  0  0
 12  5  1  0  0  0  0
 13 15  1  0  0  0  0
 14  3  1  0  0  0  0
 15 11  1  0  0  0  0
 16 10  2  0  0  0  0
 17 25  2  0  0  0  0
 18 10  1  0  0  0  0
 19  7  1  0  0  0  0
 20  7  2  0  0  0  0
 21  9  2  0  0  0  0
 22 11  2  0  0  0  0
 23 16  1  0  0  0  0
 24 15  2  0  0  0  0
 25 24  1  0  0  0  0
 26 18  2  0  0  0  0
 27 26  1  0  0  0  0
 28 17  1  0  0  0  0
 29 16  1  0  0  0  0
 30 27  1  0  0  0  0
  4  5  2  0  0  0  0
 12  9  1  0  0  0  0
 23 27  2  0  0  0  0
  8 17  1  0  0  0  0
M  CHG  2   7   1  19  -1
M  END
>  <IDNUMBER>
F0561-0611

>  <Chemical_Name>
4-chloro-N-[2-(2,4-dimethylphenyl)-5-oxo-2H,4H,6H-5??-thieno[3,4-c]pyrazol-3-yl]-3-nitrobenzamide

>  <PriceCoeff>
1.00

>  <CAS>
1007195-40-5

>  <MW>
444.89

>  <Description>
solid

>  <FSP3>
0.20

>  <clogP>
2.55

>  <TPSA>
126.34

>  <Acceptor>
5

>  <Donor>
1

>  <RotBonds>
4

>  <HAC>
30

>  <Collection>
General

>  <PPDS>
+

$$$$
F0561-0612
  Mrv2219 10102508112D          

 29 32  0  0  0  0            999 V2000
   -3.2820    2.5545    0.0000 C   0  0  0  0  0  0  0  0  0  0  0  0
   -4.1098    2.5545    0.0000 N   0  0  0  0  0  0  0  0  0  0  0  0
   -3.0186    1.7643    0.0000 C   0  0  0  0  0  0  0  0  0  0  0  0
   -4.3606    1.7643    0.0000 N   0  0  0  0  0  0  0  0  0  0  0  0
   -3.6875    1.2794    0.0000 C   0  0  0  0  0  0  0  0  0  0  0  0
   -2.7928    3.2235    0.0000 N   0  0  0  0  0  0  0  0  0  0  0  0
   -1.6807    5.9745    0.0000 N   0  3  0  0  0  0  0  0  0  0  0  0
   -1.3379    5.2220    0.0000 C   0  0  0  0  0  0  0  0  0  0  0  0
   -2.6089    0.4892    0.0000 S   0  0  0  0  0  0  0  0  0  0  0  0
   -1.9775    3.1440    0.0000 C   0  0  0  0  0  0  0  0  0  0  0  0
   -4.5989    3.2193    0.0000 C   0  0  0  0  0  0  0  0  0  0  0  0
   -3.4367    0.4892    0.0000 C   0  0  0  0  0  0  0  0  0  0  0  0
   -1.8270    4.5572    0.0000 C   0  0  0  0  0  0  0  0  0  0  0  0
   -2.3538    1.2794    0.0000 C   0  0  0  0  0  0  0  0  0  0  0  0
   -1.4884    3.8088    0.0000 C   0  0  0  0  0  0  0  0  0  0  0  0
   -0.5268    5.1425    0.0000 C   0  0  0  0  0  0  0  0  0  0  0  0
   -1.2041    6.6476    0.0000 O   0  5  0  0  0  0  0  0  0  0  0  0
   -2.5043    6.0623    0.0000 O   0  0  0  0  0  0  0  0  0  0  0  0
   -2.1197   -0.1798    0.0000 O   0  0  0  0  0  0  0  0  0  0  0  0
   -1.6305    2.3831    0.0000 O   0  0  0  0  0  0  0  0  0  0  0  0
   -5.4142    3.1231    0.0000 C   0  0  0  0  0  0  0  0  0  0  0  0
   -0.6648    3.7252    0.0000 C   0  0  0  0  0  0  0  0  0  0  0  0
   -0.1881    4.3816    0.0000 C   0  0  0  0  0  0  0  0  0  0  0  0
   -0.0460    5.7989    0.0000 Cl  0  0  0  0  0  0  0  0  0  0  0  0
   -4.2603    3.9718    0.0000 C   0  0  0  0  0  0  0  0  0  0  0  0
   -5.7403    2.3706    0.0000 C   0  0  0  0  0  0  0  0  0  0  0  0
   -5.8951    3.7879    0.0000 C   0  0  0  0  0  0  0  0  0  0  0  0
   -4.7495    4.6325    0.0000 C   0  0  0  0  0  0  0  0  0  0  0  0
   -5.5647    4.5404    0.0000 C   0  0  0  0  0  0  0  0  0  0  0  0
  2  1  1  0  0  0  0
  3  1  2  0  0  0  0
  4  2  1  0  0  0  0
  5  3  1  0  0  0  0
  6  1  1  0  0  0  0
  7  8  1  0  0  0  0
  8 13  2  0  0  0  0
  9 14  1  0  0  0  0
 10  6  1  0  0  0  0
 11  2  1  0  0  0  0
 12  5  1  0  0  0  0
 13 15  1  0  0  0  0
 14  3  1  0  0  0  0
 15 10  1  0  0  0  0
 16 23  2  0  0  0  0
 17  7  1  0  0  0  0
 18  7  2  0  0  0  0
 19  9  2  0  0  0  0
 20 10  2  0  0  0  0
 21 11  2  0  0  0  0
 22 15  2  0  0  0  0
 23 22  1  0  0  0  0
 24 16  1  0  0  0  0
 25 11  1  0  0  0  0
 26 21  1  0  0  0  0
 27 21  1  0  0  0  0
 28 25  2  0  0  0  0
 29 28  1  0  0  0  0
  4  5  2  0  0  0  0
 12  9  1  0  0  0  0
 27 29  2  0  0  0  0
  8 16  1  0  0  0  0
M  CHG  2   7   1  17  -1
M  END
>  <IDNUMBER>
F0561-0612

>  <Chemical_Name>
4-chloro-N-[2-(2-methylphenyl)-5-oxo-2H,4H,6H-5??-thieno[3,4-c]pyrazol-3-yl]-3-nitrobenzamide

>  <PriceCoeff>
1.00

>  <CAS>
1007195-37-0

>  <MW>
430.86

>  <Description>
solid

>  <FSP3>
0.16

>  <clogP>
2.05

>  <TPSA>
126.34

>  <Acceptor>
5

>  <Donor>
1

>  <RotBonds>
4

>  <HAC>
29

>  <Collection>
General

>  <PPDS>
+

$$$$
F0582-0076
  Mrv2219 10102508112D          

 25 27  0  0  0  0            999 V2000
    7.2509   -4.5896    0.0000 N   0  3  0  0  0  0  0  0  0  0  0  0
    6.7719   -5.2726    0.0000 C   0  0  0  0  0  0  0  0  0  0  0  0
    7.1217   -6.0222    0.0000 C   0  0  0  0  0  0  0  0  0  0  0  0
    5.8640  -12.2361    0.0000 N   0  0  0  0  0  0  0  0  0  0  0  0
    6.2638  -10.9700    0.0000 C   0  0  0  0  0  0  0  0  0  0  0  0
    5.4392  -10.9742    0.0000 C   0  0  0  0  0  0  0  0  0  0  0  0
    6.5262  -11.7488    0.0000 C   0  0  0  0  0  0  0  0  0  0  0  0
    7.0010   -7.4383    0.0000 C   0  0  0  0  0  0  0  0  0  0  0  0
    6.6511   -6.6969    0.0000 C   0  0  0  0  0  0  0  0  0  0  0  0
    5.1893  -11.7571    0.0000 C   0  0  0  0  0  0  0  0  0  0  0  0
    5.9473   -5.1976    0.0000 C   0  0  0  0  0  0  0  0  0  0  0  0
    6.8968   -3.8482    0.0000 O   0  5  0  0  0  0  0  0  0  0  0  0
    8.0838   -4.6604    0.0000 O   0  0  0  0  0  0  0  0  0  0  0  0
    7.8256   -7.5133    0.0000 O   0  0  0  0  0  0  0  0  0  0  0  0
    5.8265   -6.6220    0.0000 C   0  0  0  0  0  0  0  0  0  0  0  0
    5.4725   -5.8765    0.0000 C   0  0  0  0  0  0  0  0  0  0  0  0
    6.5262   -8.1130    0.0000 N   0  0  0  0  0  0  0  0  0  0  0  0
    6.7469  -10.2870    0.0000 S   0  0  0  0  0  0  0  0  0  0  0  0
    5.6016   -4.4397    0.0000 Cl  0  0  0  0  0  0  0  0  0  0  0  0
    4.8895  -10.3619    0.0000 C   0  0  0  0  0  0  0  0  0  0  0  0
    4.3897  -11.9362    0.0000 C   0  0  0  0  0  0  0  0  0  0  0  0
    6.8718   -8.8626    0.0000 C   0  0  0  0  0  0  0  0  0  0  0  0
    6.3971   -9.5373    0.0000 C   0  0  0  0  0  0  0  0  0  0  0  0
    4.0898  -10.5369    0.0000 C   0  0  0  0  0  0  0  0  0  0  0  0
    3.8357  -11.3240    0.0000 C   0  0  0  0  0  0  0  0  0  0  0  0
  2  1  1  0  0  0  0
  3  2  1  0  0  0  0
  4  7  1  0  0  0  0
  5 18  1  0  0  0  0
  6  5  1  0  0  0  0
  7  5  2  0  0  0  0
  8  9  1  0  0  0  0
  9  3  2  0  0  0  0
 10  6  2  0  0  0  0
 11  2  2  0  0  0  0
 12  1  1  0  0  0  0
 13  1  2  0  0  0  0
 14  8  2  0  0  0  0
 15 16  2  0  0  0  0
 16 11  1  0  0  0  0
 17  8  1  0  0  0  0
 18 23  1  0  0  0  0
 19 11  1  0  0  0  0
 20  6  1  0  0  0  0
 21 10  1  0  0  0  0
 22 17  1  0  0  0  0
 23 22  1  0  0  0  0
 24 20  2  0  0  0  0
 25 24  1  0  0  0  0
 15  9  1  0  0  0  0
 10  4  1  0  0  0  0
 25 21  2  0  0  0  0
M  CHG  2   1   1  12  -1
M  END
>  <IDNUMBER>
F0582-0076

>  <Chemical_Name>
4-chloro-N-[2-(1H-indol-3-ylsulfanyl)ethyl]-3-nitrobenzamide

>  <PriceCoeff>
1.00

>  <CAS>
687571-36-4

>  <MW>
375.83

>  <Description>
solid

>  <FSP3>
0.12

>  <clogP>
4.13

>  <TPSA>
113.33

>  <Acceptor>
3

>  <Donor>
2

>  <RotBonds>
6

>  <HAC>
25

>  <Collection>
General

>  <PPDS>
+

$$$$
F0588-0121
  Mrv2219 10102508112D          

 27 29  0  0  0  0            999 V2000
   -2.2107    1.7529    0.0000 C   0  0  0  0  0  0  0  0  0  0  0  0
   -2.4716    2.5356    0.0000 C   0  0  0  0  0  0  0  0  0  0  0  0
   -2.8698    1.2632    0.0000 N   0  0  0  0  0  0  0  0  0  0  0  0
   -4.6914    5.6206    0.0000 N   0  3  0  0  0  0  0  0  0  0  0  0
   -4.3344    4.8516    0.0000 C   0  0  0  0  0  0  0  0  0  0  0  0
   -1.9910    3.2084    0.0000 N   0  0  0  0  0  0  0  0  0  0  0  0
   -3.2908    2.5265    0.0000 C   0  0  0  0  0  0  0  0  0  0  0  0
   -2.3434    3.9636    0.0000 C   0  0  0  0  0  0  0  0  0  0  0  0
   -3.5426    1.7438    0.0000 C   0  0  0  0  0  0  0  0  0  0  0  0
   -1.4234    1.5104    0.0000 C   0  0  0  0  0  0  0  0  0  0  0  0
   -3.5105    4.7830    0.0000 C   0  0  0  0  0  0  0  0  0  0  0  0
   -3.1672    4.0323    0.0000 C   0  0  0  0  0  0  0  0  0  0  0  0
   -4.8149    4.1833    0.0000 C   0  0  0  0  0  0  0  0  0  0  0  0
   -5.5152    5.6892    0.0000 O   0  5  0  0  0  0  0  0  0  0  0  0
   -4.2017    6.2934    0.0000 O   0  0  0  0  0  0  0  0  0  0  0  0
   -1.8628    4.6319    0.0000 O   0  0  0  0  0  0  0  0  0  0  0  0
   -0.8192    2.0688    0.0000 O   0  0  0  0  0  0  0  0  0  0  0  0
   -3.6341    3.3595    0.0000 C   0  0  0  0  0  0  0  0  0  0  0  0
   -4.4579    3.4327    0.0000 C   0  0  0  0  0  0  0  0  0  0  0  0
   -1.2312    0.7094    0.0000 O   0  0  0  0  0  0  0  0  0  0  0  0
   -5.6388    4.2382    0.0000 Cl  0  0  0  0  0  0  0  0  0  0  0  0
   -3.8447    3.1398    0.0000 C   0  0  0  0  0  0  0  0  0  0  0  0
   -4.3481    1.5653    0.0000 C   0  0  0  0  0  0  0  0  0  0  0  0
   -1.8353    0.1510    0.0000 C   0  0  0  0  0  0  0  0  0  0  0  0
   -4.6502    2.9613    0.0000 C   0  0  0  0  0  0  0  0  0  0  0  0
   -4.8973    2.1786    0.0000 C   0  0  0  0  0  0  0  0  0  0  0  0
   -1.6477   -0.6454    0.0000 C   0  0  0  0  0  0  0  0  0  0  0  0
  2  1  2  0  0  0  0
  3  1  1  0  0  0  0
  4  5  1  0  0  0  0
  5 11  1  0  0  0  0
  6  2  1  0  0  0  0
  7  2  1  0  0  0  0
  8  6  1  0  0  0  0
  9  3  1  0  0  0  0
 10  1  1  0  0  0  0
 11 12  2  0  0  0  0
 12  8  1  0  0  0  0
 13 19  1  0  0  0  0
 14  4  1  0  0  0  0
 15  4  2  0  0  0  0
 16  8  2  0  0  0  0
 17 10  2  0  0  0  0
 18 12  1  0  0  0  0
 19 18  2  0  0  0  0
 20 10  1  0  0  0  0
 21 13  1  0  0  0  0
 22  7  1  0  0  0  0
 23  9  1  0  0  0  0
 24 20  1  0  0  0  0
 25 22  2  0  0  0  0
 26 23  2  0  0  0  0
 27 24  1  0  0  0  0
  7  9  2  0  0  0  0
 26 25  1  0  0  0  0
  5 13  2  0  0  0  0
M  CHG  2   4   1  14  -1
M  END
>  <IDNUMBER>
F0588-0121

>  <Chemical_Name>
ethyl 3-(4-chloro-3-nitrobenzamido)-1H-indole-2-carboxylate

>  <PriceCoeff>
1.00

>  <MW>
387.77

>  <Description>
solid

>  <FSP3>
0.11

>  <clogP>
4.21

>  <TPSA>
114.33

>  <Acceptor>
5

>  <Donor>
2

>  <RotBonds>
6

>  <HAC>
27

>  <Collection>
General

$$$$
F0588-0148
  Mrv2219 10102508112D          

 30 33  0  0  0  0            999 V2000
   -2.2130    1.7547    0.0000 C   0  0  0  0  0  0  0  0  0  0  0  0
   -2.4741    2.5382    0.0000 C   0  0  0  0  0  0  0  0  0  0  0  0
   -2.8727    1.2645    0.0000 N   0  0  0  0  0  0  0  0  0  0  0  0
   -0.4398    6.6572    0.0000 N   0  0  0  0  0  0  0  0  0  0  0  0
   -1.9930    3.2117    0.0000 N   0  0  0  0  0  0  0  0  0  0  0  0
   -3.2942    2.5291    0.0000 C   0  0  0  0  0  0  0  0  0  0  0  0
   -3.5462    1.7456    0.0000 C   0  0  0  0  0  0  0  0  0  0  0  0
   -2.3458    3.9677    0.0000 C   0  0  0  0  0  0  0  0  0  0  0  0
   -0.6735    7.4544    0.0000 C   0  0  0  0  0  0  0  0  0  0  0  0
    0.3757    6.6297    0.0000 C   0  0  0  0  0  0  0  0  0  0  0  0
   -1.4249    1.5120    0.0000 C   0  0  0  0  0  0  0  0  0  0  0  0
   -0.9163    5.9837    0.0000 C   0  0  0  0  0  0  0  0  0  0  0  0
   -1.8647    4.6367    0.0000 C   0  0  0  0  0  0  0  0  0  0  0  0
   -3.1705    4.0364    0.0000 O   0  0  0  0  0  0  0  0  0  0  0  0
    0.6506    7.4132    0.0000 C   0  0  0  0  0  0  0  0  0  0  0  0
    0.0046    7.9171    0.0000 C   0  0  0  0  0  0  0  0  0  0  0  0
   -1.4570    7.7293    0.0000 O   0  0  0  0  0  0  0  0  0  0  0  0
    0.8522    5.9425    0.0000 O   0  0  0  0  0  0  0  0  0  0  0  0
   -0.8201    2.0709    0.0000 O   0  0  0  0  0  0  0  0  0  0  0  0
   -0.5635    5.2277    0.0000 C   0  0  0  0  0  0  0  0  0  0  0  0
   -1.7410    6.0616    0.0000 C   0  0  0  0  0  0  0  0  0  0  0  0
   -1.0400    4.5542    0.0000 C   0  0  0  0  0  0  0  0  0  0  0  0
   -2.2130    5.3881    0.0000 C   0  0  0  0  0  0  0  0  0  0  0  0
   -1.2324    0.7101    0.0000 O   0  0  0  0  0  0  0  0  0  0  0  0
   -3.8486    3.1430    0.0000 C   0  0  0  0  0  0  0  0  0  0  0  0
   -4.3526    1.5669    0.0000 C   0  0  0  0  0  0  0  0  0  0  0  0
   -1.8372    0.1512    0.0000 C   0  0  0  0  0  0  0  0  0  0  0  0
   -4.6550    2.9643    0.0000 C   0  0  0  0  0  0  0  0  0  0  0  0
   -4.9024    2.1808    0.0000 C   0  0  0  0  0  0  0  0  0  0  0  0
   -1.6494   -0.6460    0.0000 C   0  0  0  0  0  0  0  0  0  0  0  0
  2  1  2  0  0  0  0
  3  1  1  0  0  0  0
  4 12  1  0  0  0  0
  5  2  1  0  0  0  0
  6  2  1  0  0  0  0
  7  3  1  0  0  0  0
  8  5  1  0  0  0  0
  9  4  1  0  0  0  0
 10  4  1  0  0  0  0
 11  1  1  0  0  0  0
 12 21  1  0  0  0  0
 13  8  1  0  0  0  0
 14  8  2  0  0  0  0
 15 10  1  0  0  0  0
 16  9  1  0  0  0  0
 17  9  2  0  0  0  0
 18 10  2  0  0  0  0
 19 11  2  0  0  0  0
 20 22  1  0  0  0  0
 21 23  2  0  0  0  0
 22 13  2  0  0  0  0
 23 13  1  0  0  0  0
 24 11  1  0  0  0  0
 25  6  1  0  0  0  0
 26  7  1  0  0  0  0
 27 24  1  0  0  0  0
 28 25  2  0  0  0  0
 29 26  2  0  0  0  0
 30 27  1  0  0  0  0
  6  7  2  0  0  0  0
 29 28  1  0  0  0  0
 12 20  2  0  0  0  0
 15 16  1  0  0  0  0
M  END
>  <IDNUMBER>
F0588-0148

>  <Chemical_Name>
ethyl 3-[4-(2,5-dioxopyrrolidin-1-yl)benzamido]-1H-indole-2-carboxylate

>  <PriceCoeff>
1.00

>  <CAS>
850929-80-5

>  <MW>
405.40

>  <Description>
solid

>  <FSP3>
0.18

>  <clogP>
1.87

>  <TPSA>
108.57

>  <Acceptor>
5

>  <Donor>
2

>  <RotBonds>
6

>  <HAC>
30

>  <Collection>
General

>  <PPDS>
+

$$$$
F0589-0060
  Mrv2219 10102508112D          

 29 32  0  0  0  0            999 V2000
   -2.3757    2.3423    0.0000 C   0  0  0  0  0  0  0  0  0  0  0  0
   -3.1648    2.6012    0.0000 N   0  0  0  0  0  0  0  0  0  0  0  0
   -2.3757    3.6909    0.0000 N   0  0  0  0  0  0  0  0  0  0  0  0
   -1.8872    3.0145    0.0000 C   0  0  0  0  0  0  0  0  0  0  0  0
   -3.1648    3.4279    0.0000 C   0  0  0  0  0  0  0  0  0  0  0  0
   -2.1127    1.5532    0.0000 N   0  0  0  0  0  0  0  0  0  0  0  0
   -3.5824   -1.7411    0.0000 N   0  3  0  0  0  0  0  0  0  0  0  0
   -2.9686   -1.2025    0.0000 C   0  0  0  0  0  0  0  0  0  0  0  0
   -2.6680    0.9394    0.0000 C   0  0  0  0  0  0  0  0  0  0  0  0
   -3.1147   -0.4050    0.0000 C   0  0  0  0  0  0  0  0  0  0  0  0
   -2.5052    0.1378    0.0000 C   0  0  0  0  0  0  0  0  0  0  0  0
   -1.0647    3.0145    0.0000 C   0  0  0  0  0  0  0  0  0  0  0  0
   -3.8788    2.1878    0.0000 C   0  0  0  0  0  0  0  0  0  0  0  0
   -2.1920   -1.4697    0.0000 C   0  0  0  0  0  0  0  0  0  0  0  0
   -3.4279   -2.5470    0.0000 O   0  5  0  0  0  0  0  0  0  0  0  0
   -3.8788    3.8412    0.0000 C   0  0  0  0  0  0  0  0  0  0  0  0
   -4.3590   -1.4572    0.0000 O   0  0  0  0  0  0  0  0  0  0  0  0
   -3.3068    1.2359    0.0000 O   0  0  0  0  0  0  0  0  0  0  0  0
   -1.7244   -0.1295    0.0000 C   0  0  0  0  0  0  0  0  0  0  0  0
   -4.5928    2.6012    0.0000 C   0  0  0  0  0  0  0  0  0  0  0  0
   -4.5928    3.4279    0.0000 C   0  0  0  0  0  0  0  0  0  0  0  0
   -1.5657   -0.9186    0.0000 C   0  0  0  0  0  0  0  0  0  0  0  0
   -0.6513    2.3048    0.0000 C   0  0  0  0  0  0  0  0  0  0  0  0
   -0.6597    3.7285    0.0000 C   0  0  0  0  0  0  0  0  0  0  0  0
    0.5679    3.0271    0.0000 C   0  0  0  0  0  0  0  0  0  0  0  0
   -2.0417   -2.2839    0.0000 Cl  0  0  0  0  0  0  0  0  0  0  0  0
    0.1670    3.7285    0.0000 C   0  0  0  0  0  0  0  0  0  0  0  0
    0.1545    2.3131    0.0000 C   0  0  0  0  0  0  0  0  0  0  0  0
    1.3821    3.0271    0.0000 F   0  0  0  0  0  0  0  0  0  0  0  0
  2  1  1  0  0  0  0
  3  4  1  0  0  0  0
  4  1  2  0  0  0  0
  5  2  1  0  0  0  0
  6  1  1  0  0  0  0
  7  8  1  0  0  0  0
  8 10  1  0  0  0  0
  9  6  1  0  0  0  0
 10 11  2  0  0  0  0
 11  9  1  0  0  0  0
 12  4  1  0  0  0  0
 13  2  1  0  0  0  0
 14 22  1  0  0  0  0
 15  7  1  0  0  0  0
 16  5  1  0  0  0  0
 17  7  2  0  0  0  0
 18  9  2  0  0  0  0
 19 11  1  0  0  0  0
 20 13  2  0  0  0  0
 21 20  1  0  0  0  0
 22 19  2  0  0  0  0
 23 12  2  0  0  0  0
 24 12  1  0  0  0  0
 25 27  1  0  0  0  0
 26 14  1  0  0  0  0
 27 24  2  0  0  0  0
 28 23  1  0  0  0  0
 29 25  1  0  0  0  0
  5  3  2  0  0  0  0
 25 28  2  0  0  0  0
 21 16  2  0  0  0  0
  8 14  2  0  0  0  0
M  CHG  2   7   1  15  -1
M  END
>  <IDNUMBER>
F0589-0060

>  <Chemical_Name>
4-chloro-N-[2-(4-fluorophenyl)imidazo[1,2-a]pyridin-3-yl]-3-nitrobenzamide

>  <PriceCoeff>
1.00

>  <CAS>
850930-11-9

>  <MW>
410.79

>  <Description>
solid

>  <FSP3>
0.00

>  <clogP>
4.36

>  <TPSA>
89.54

>  <Acceptor>
4

>  <Donor>
1

>  <RotBonds>
4

>  <HAC>
29

>  <Collection>
General

>  <PPDS>
+

$$$$
F0589-0131
  Mrv2219 10102508112D          

 30 33  0  0  0  0            999 V2000
   -2.3793    2.3459    0.0000 C   0  0  0  0  0  0  0  0  0  0  0  0
   -3.1696    2.6051    0.0000 N   0  0  0  0  0  0  0  0  0  0  0  0
   -2.3793    3.6965    0.0000 N   0  0  0  0  0  0  0  0  0  0  0  0
   -1.8901    3.0191    0.0000 C   0  0  0  0  0  0  0  0  0  0  0  0
   -3.1696    3.4331    0.0000 C   0  0  0  0  0  0  0  0  0  0  0  0
   -2.1159    1.5556    0.0000 N   0  0  0  0  0  0  0  0  0  0  0  0
   -3.5878   -1.7437    0.0000 N   0  3  0  0  0  0  0  0  0  0  0  0
   -2.9731   -1.2043    0.0000 C   0  0  0  0  0  0  0  0  0  0  0  0
   -2.6721    0.9409    0.0000 C   0  0  0  0  0  0  0  0  0  0  0  0
   -3.1195   -0.4057    0.0000 C   0  0  0  0  0  0  0  0  0  0  0  0
   -2.5090    0.1380    0.0000 C   0  0  0  0  0  0  0  0  0  0  0  0
   -1.0663    3.0191    0.0000 C   0  0  0  0  0  0  0  0  0  0  0  0
   -3.8847    2.1911    0.0000 C   0  0  0  0  0  0  0  0  0  0  0  0
   -2.1954   -1.4720    0.0000 C   0  0  0  0  0  0  0  0  0  0  0  0
   -3.4331   -2.5508    0.0000 O   0  5  0  0  0  0  0  0  0  0  0  0
   -3.8847    3.8471    0.0000 C   0  0  0  0  0  0  0  0  0  0  0  0
   -4.3656   -1.4594    0.0000 O   0  0  0  0  0  0  0  0  0  0  0  0
   -3.3119    1.2377    0.0000 O   0  0  0  0  0  0  0  0  0  0  0  0
   -1.7270   -0.1297    0.0000 C   0  0  0  0  0  0  0  0  0  0  0  0
   -4.5998    2.6051    0.0000 C   0  0  0  0  0  0  0  0  0  0  0  0
   -4.5998    3.4331    0.0000 C   0  0  0  0  0  0  0  0  0  0  0  0
   -1.5681   -0.9200    0.0000 C   0  0  0  0  0  0  0  0  0  0  0  0
   -0.6523    2.3040    0.0000 C   0  0  0  0  0  0  0  0  0  0  0  0
   -0.6523    3.7342    0.0000 C   0  0  0  0  0  0  0  0  0  0  0  0
   -2.0448   -2.2874    0.0000 Cl  0  0  0  0  0  0  0  0  0  0  0  0
    0.5687    3.0191    0.0000 C   0  0  0  0  0  0  0  0  0  0  0  0
    0.1673    3.7258    0.0000 C   0  0  0  0  0  0  0  0  0  0  0  0
    0.1631    2.3083    0.0000 C   0  0  0  0  0  0  0  0  0  0  0  0
    1.3842    3.0191    0.0000 O   0  0  0  0  0  0  0  0  0  0  0  0
    1.7981    2.3083    0.0000 C   0  0  0  0  0  0  0  0  0  0  0  0
  2  1  1  0  0  0  0
  3  4  1  0  0  0  0
  4  1  2  0  0  0  0
  5  2  1  0  0  0  0
  6  1  1  0  0  0  0
  7  8  1  0  0  0  0
  8 10  1  0  0  0  0
  9  6  1  0  0  0  0
 10 11  2  0  0  0  0
 11  9  1  0  0  0  0
 12  4  1  0  0  0  0
 13  2  1  0  0  0  0
 14 22  1  0  0  0  0
 15  7  1  0  0  0  0
 16  5  1  0  0  0  0
 17  7  2  0  0  0  0
 18  9  2  0  0  0  0
 19 11  1  0  0  0  0
 20 13  2  0  0  0  0
 21 20  1  0  0  0  0
 22 19  2  0  0  0  0
 23 12  2  0  0  0  0
 24 12  1  0  0  0  0
 25 14  1  0  0  0  0
 26 27  1  0  0  0  0
 27 24  2  0  0  0  0
 28 23  1  0  0  0  0
 29 26  1  0  0  0  0
 30 29  1  0  0  0  0
  5  3  2  0  0  0  0
 26 28  2  0  0  0  0
 21 16  2  0  0  0  0
  8 14  2  0  0  0  0
M  CHG  2   7   1  15  -1
M  END
>  <IDNUMBER>
F0589-0131

>  <Chemical_Name>
4-chloro-N-[2-(4-methoxyphenyl)imidazo[1,2-a]pyridin-3-yl]-3-nitrobenzamide

>  <PriceCoeff>
1.00

>  <CAS>
850930-24-4

>  <MW>
422.82

>  <Description>
solid

>  <FSP3>
0.05

>  <clogP>
4.23

>  <TPSA>
98.77

>  <Acceptor>
5

>  <Donor>
1

>  <RotBonds>
5

>  <HAC>
30

>  <Collection>
General

>  <PPDS>
+

$$$$
F0589-0344
  Mrv2219 10102508112D          

 27 30  0  0  0  0            999 V2000
   -2.3829    2.3495    0.0000 C   0  0  0  0  0  0  0  0  0  0  0  0
   -1.8929    3.0237    0.0000 C   0  0  0  0  0  0  0  0  0  0  0  0
   -3.1745    2.6091    0.0000 N   0  0  0  0  0  0  0  0  0  0  0  0
   -2.3829    3.7021    0.0000 N   0  0  0  0  0  0  0  0  0  0  0  0
   -3.1745    3.4383    0.0000 C   0  0  0  0  0  0  0  0  0  0  0  0
   -2.1191    1.5579    0.0000 N   0  0  0  0  0  0  0  0  0  0  0  0
   -3.5933   -1.7464    0.0000 N   0  3  0  0  0  0  0  0  0  0  0  0
   -2.9777   -1.2061    0.0000 C   0  0  0  0  0  0  0  0  0  0  0  0
   -2.6761    0.9423    0.0000 C   0  0  0  0  0  0  0  0  0  0  0  0
   -1.0679    3.0237    0.0000 C   0  0  0  0  0  0  0  0  0  0  0  0
   -3.1242   -0.4063    0.0000 C   0  0  0  0  0  0  0  0  0  0  0  0
   -2.5128    0.1382    0.0000 C   0  0  0  0  0  0  0  0  0  0  0  0
   -0.5863    2.3578    0.0000 S   0  0  0  0  0  0  0  0  0  0  0  0
   -3.8906    2.1945    0.0000 C   0  0  0  0  0  0  0  0  0  0  0  0
   -2.1987   -1.4742    0.0000 C   0  0  0  0  0  0  0  0  0  0  0  0
   -3.4383   -2.5547    0.0000 O   0  5  0  0  0  0  0  0  0  0  0  0
   -3.8906    3.8529    0.0000 C   0  0  0  0  0  0  0  0  0  0  0  0
   -4.3723   -1.4616    0.0000 O   0  0  0  0  0  0  0  0  0  0  0  0
   -0.5988    3.6896    0.0000 C   0  0  0  0  0  0  0  0  0  0  0  0
   -3.3169    1.2396    0.0000 O   0  0  0  0  0  0  0  0  0  0  0  0
    0.2178    2.6593    0.0000 C   0  0  0  0  0  0  0  0  0  0  0  0
   -1.7296   -0.1299    0.0000 C   0  0  0  0  0  0  0  0  0  0  0  0
   -4.6068    2.6091    0.0000 C   0  0  0  0  0  0  0  0  0  0  0  0
   -4.6068    3.4383    0.0000 C   0  0  0  0  0  0  0  0  0  0  0  0
    0.1885    3.4551    0.0000 C   0  0  0  0  0  0  0  0  0  0  0  0
   -1.5705   -0.9214    0.0000 C   0  0  0  0  0  0  0  0  0  0  0  0
   -2.0479   -2.2909    0.0000 Cl  0  0  0  0  0  0  0  0  0  0  0  0
  2  1  2  0  0  0  0
  3  1  1  0  0  0  0
  4  2  1  0  0  0  0
  5  3  1  0  0  0  0
  6  1  1  0  0  0  0
  7  8  1  0  0  0  0
  8 11  1  0  0  0  0
  9  6  1  0  0  0  0
 10  2  1  0  0  0  0
 11 12  2  0  0  0  0
 12  9  1  0  0  0  0
 13 10  1  0  0  0  0
 14  3  1  0  0  0  0
 15 26  1  0  0  0  0
 16  7  1  0  0  0  0
 17  5  1  0  0  0  0
 18  7  2  0  0  0  0
 19 10  2  0  0  0  0
 20  9  2  0  0  0  0
 21 13  1  0  0  0  0
 22 12  1  0  0  0  0
 23 14  2  0  0  0  0
 24 23  1  0  0  0  0
 25 19  1  0  0  0  0
 26 22  2  0  0  0  0
 27 15  1  0  0  0  0
  5  4  2  0  0  0  0
 24 17  2  0  0  0  0
 25 21  2  0  0  0  0
  8 15  2  0  0  0  0
M  CHG  2   7   1  16  -1
M  END
>  <IDNUMBER>
F0589-0344

>  <Chemical_Name>
4-chloro-3-nitro-N-[2-(thiophen-2-yl)imidazo[1,2-a]pyridin-3-yl]benzamide

>  <PriceCoeff>
1.00

>  <CAS>
850930-66-4

>  <MW>
398.82

>  <Description>
solid

>  <FSP3>
0.00

>  <clogP>
4.10

>  <TPSA>
117.78

>  <Acceptor>
4

>  <Donor>
1

>  <RotBonds>
4

>  <HAC>
27

>  <Collection>
General

>  <PPDS>
+

$$$$
F0608-0592
  Mrv2219 10102508112D          

 31 35  0  0  0  0            999 V2000
    0.4038   -0.1790    0.0000 N   0  0  0  0  0  0  0  0  0  0  0  0
   -2.4561    3.0181    0.0000 C   0  0  0  0  0  0  0  0  0  0  0  0
   -3.1222    2.5310    0.0000 O   0  0  0  0  0  0  0  0  0  0  0  0
   -3.7924    3.0181    0.0000 C   0  0  0  0  0  0  0  0  0  0  0  0
   -3.5343    3.7966    0.0000 N   0  0  0  0  0  0  0  0  0  0  0  0
   -1.6735    2.7558    0.0000 N   0  0  0  0  0  0  0  0  0  0  0  0
   -2.7101    3.7966    0.0000 N   0  0  0  0  0  0  0  0  0  0  0  0
    0.2290    0.6327    0.0000 C   0  0  0  0  0  0  0  0  0  0  0  0
   -1.5069    1.9565    0.0000 C   0  0  0  0  0  0  0  0  0  0  0  0
   -0.1831   -0.7618    0.0000 C   0  0  0  0  0  0  0  0  0  0  0  0
    1.1365   -0.5370    0.0000 C   0  0  0  0  0  0  0  0  0  0  0  0
   -4.5792    2.7558    0.0000 C   0  0  0  0  0  0  0  0  0  0  0  0
   -0.5578    0.8950    0.0000 C   0  0  0  0  0  0  0  0  0  0  0  0
   -0.7243    1.6943    0.0000 C   0  0  0  0  0  0  0  0  0  0  0  0
   -5.1911    3.3053    0.0000 C   0  0  0  0  0  0  0  0  0  0  0  0
   -5.9654    3.0473    0.0000 C   0  0  0  0  0  0  0  0  0  0  0  0
   -2.1189    1.3945    0.0000 O   0  0  0  0  0  0  0  0  0  0  0  0
    0.2165   -1.4904    0.0000 C   0  0  0  0  0  0  0  0  0  0  0  0
    1.0241   -1.3530    0.0000 C   0  0  0  0  0  0  0  0  0  0  0  0
   -6.1237    2.2438    0.0000 C   0  0  0  0  0  0  0  0  0  0  0  0
   -0.9949   -0.6369    0.0000 O   0  0  0  0  0  0  0  0  0  0  0  0
    1.8650   -0.1666    0.0000 O   0  0  0  0  0  0  0  0  0  0  0  0
   -4.7540    1.9441    0.0000 C   0  0  0  0  0  0  0  0  0  0  0  0
   -5.5325    1.6943    0.0000 C   0  0  0  0  0  0  0  0  0  0  0  0
    0.8492    1.1822    0.0000 C   0  0  0  0  0  0  0  0  0  0  0  0
   -0.1124    2.2480    0.0000 C   0  0  0  0  0  0  0  0  0  0  0  0
    0.6786    1.9940    0.0000 C   0  0  0  0  0  0  0  0  0  0  0  0
   -6.5733    3.6051    0.0000 C   0  0  0  0  0  0  0  0  0  0  0  0
   -6.9230    1.9857    0.0000 C   0  0  0  0  0  0  0  0  0  0  0  0
   -7.3476    3.3553    0.0000 C   0  0  0  0  0  0  0  0  0  0  0  0
   -7.5224    2.5477    0.0000 C   0  0  0  0  0  0  0  0  0  0  0  0
  2  6  1  0  0  0  0
  3  2  1  0  0  0  0
  4  3  1  0  0  0  0
  5  7  1  0  0  0  0
  6  9  1  0  0  0  0
  7  2  2  0  0  0  0
  8  1  1  0  0  0  0
  9 14  1  0  0  0  0
 10  1  1  0  0  0  0
 11  1  1  0  0  0  0
 12  4  1  0  0  0  0
 13  8  1  0  0  0  0
 14 13  2  0  0  0  0
 15 12  2  0  0  0  0
 16 15  1  0  0  0  0
 17  9  2  0  0  0  0
 18 10  1  0  0  0  0
 19 11  1  0  0  0  0
 20 24  1  0  0  0  0
 21 10  2  0  0  0  0
 22 11  2  0  0  0  0
 23 12  1  0  0  0  0
 24 23  2  0  0  0  0
 25  8  2  0  0  0  0
 26 27  2  0  0  0  0
 27 25  1  0  0  0  0
 28 16  1  0  0  0  0
 29 20  1  0  0  0  0
 30 28  1  0  0  0  0
 31 29  1  0  0  0  0
 18 19  1  0  0  0  0
 26 14  1  0  0  0  0
  5  4  2  0  0  0  0
 16 20  2  0  0  0  0
 30 31  1  0  0  0  0
M  END
>  <IDNUMBER>
F0608-0592

>  <Chemical_Name>
3-(2,5-dioxopyrrolidin-1-yl)-N-[5-(5,6,7,8-tetrahydronaphthalen-2-yl)-1,3,4-oxadiazol-2-yl]benzamide

>  <PriceCoeff>
1.00

>  <CAS>
887886-85-3

>  <MW>
416.43

>  <Description>
solid

>  <FSP3>
0.26

>  <clogP>
2.15

>  <TPSA>
105.40

>  <Acceptor>
6

>  <Donor>
1

>  <RotBonds>
4

>  <HAC>
31

>  <Collection>
General

>  <PPDS>
+

$$$$
F0608-0631
  Mrv2219 10102508112D          

 26 29  0  0  0  0            999 V2000
   -1.9543    0.5846    0.0000 N   0  0  0  0  0  0  0  0  0  0  0  0
   -2.4637    3.0274    0.0000 C   0  0  0  0  0  0  0  0  0  0  0  0
   -3.1318    2.5388    0.0000 O   0  0  0  0  0  0  0  0  0  0  0  0
   -3.8041    3.0274    0.0000 C   0  0  0  0  0  0  0  0  0  0  0  0
   -3.5452    3.8083    0.0000 N   0  0  0  0  0  0  0  0  0  0  0  0
   -2.7184    3.8083    0.0000 N   0  0  0  0  0  0  0  0  0  0  0  0
   -1.6787    2.7643    0.0000 N   0  0  0  0  0  0  0  0  0  0  0  0
   -2.5138   -0.0251    0.0000 C   0  0  0  0  0  0  0  0  0  0  0  0
   -1.1984    0.2589    0.0000 C   0  0  0  0  0  0  0  0  0  0  0  0
   -1.5116    1.9626    0.0000 C   0  0  0  0  0  0  0  0  0  0  0  0
   -4.5933    2.7643    0.0000 C   0  0  0  0  0  0  0  0  0  0  0  0
   -2.1296    1.3905    0.0000 C   0  0  0  0  0  0  0  0  0  0  0  0
   -5.2072    3.3155    0.0000 C   0  0  0  0  0  0  0  0  0  0  0  0
   -5.9839    3.0567    0.0000 C   0  0  0  0  0  0  0  0  0  0  0  0
   -1.2861   -0.5679    0.0000 C   0  0  0  0  0  0  0  0  0  0  0  0
   -2.0879   -0.7433    0.0000 C   0  0  0  0  0  0  0  0  0  0  0  0
   -6.1426    2.2507    0.0000 C   0  0  0  0  0  0  0  0  0  0  0  0
   -0.4844    0.6639    0.0000 O   0  0  0  0  0  0  0  0  0  0  0  0
   -3.3281    0.0584    0.0000 O   0  0  0  0  0  0  0  0  0  0  0  0
   -0.7266    1.6995    0.0000 O   0  0  0  0  0  0  0  0  0  0  0  0
   -4.7687    1.9501    0.0000 C   0  0  0  0  0  0  0  0  0  0  0  0
   -5.5496    1.6995    0.0000 C   0  0  0  0  0  0  0  0  0  0  0  0
   -6.5936    3.6162    0.0000 C   0  0  0  0  0  0  0  0  0  0  0  0
   -6.9444    1.9918    0.0000 C   0  0  0  0  0  0  0  0  0  0  0  0
   -7.3703    3.3656    0.0000 C   0  0  0  0  0  0  0  0  0  0  0  0
   -7.5457    2.5556    0.0000 C   0  0  0  0  0  0  0  0  0  0  0  0
  2  7  1  0  0  0  0
  3  2  1  0  0  0  0
  4  3  1  0  0  0  0
  5  6  1  0  0  0  0
  6  2  2  0  0  0  0
  7 10  1  0  0  0  0
  8  1  1  0  0  0  0
  9  1  1  0  0  0  0
 10 12  1  0  0  0  0
 11  4  1  0  0  0  0
 12  1  1  0  0  0  0
 13 11  2  0  0  0  0
 14 13  1  0  0  0  0
 15  9  1  0  0  0  0
 16  8  1  0  0  0  0
 17 22  1  0  0  0  0
 18  9  2  0  0  0  0
 19  8  2  0  0  0  0
 20 10  2  0  0  0  0
 21 11  1  0  0  0  0
 22 21  2  0  0  0  0
 23 14  1  0  0  0  0
 24 17  1  0  0  0  0
 25 23  1  0  0  0  0
 26 24  1  0  0  0  0
 15 16  1  0  0  0  0
  5  4  2  0  0  0  0
 17 14  2  0  0  0  0
 25 26  1  0  0  0  0
M  END
>  <IDNUMBER>
F0608-0631

>  <Chemical_Name>
2-(2,5-dioxopyrrolidin-1-yl)-N-[5-(5,6,7,8-tetrahydronaphthalen-2-yl)-1,3,4-oxadiazol-2-yl]acetamide

>  <PriceCoeff>
1.00

>  <CAS>
887222-78-8

>  <MW>
354.36

>  <Description>
solid

>  <FSP3>
0.39

>  <clogP>
1.98

>  <TPSA>
105.40

>  <Acceptor>
6

>  <Donor>
1

>  <RotBonds>
4

>  <HAC>
26

>  <Collection>
General

>  <PPDS>
+

$$$$
F0611-0079
  Mrv2219 10102508112D          

 28 30  0  0  0  0            999 V2000
    4.7139    3.3778    0.0000 N   0  3  0  0  0  0  0  0  0  0  0  0
    4.0000    3.7911    0.0000 C   0  0  0  0  0  0  0  0  0  0  0  0
   -1.7286    2.1545    0.0000 N   0  0  0  0  0  0  0  0  0  0  0  0
   -1.0104    2.5678    0.0000 C   0  0  0  0  0  0  0  0  0  0  0  0
   -2.4509    2.5761    0.0000 C   0  0  0  0  0  0  0  0  0  0  0  0
   -1.0104    3.4028    0.0000 C   0  0  0  0  0  0  0  0  0  0  0  0
   -1.7286    3.8162    0.0000 C   0  0  0  0  0  0  0  0  0  0  0  0
   -2.4426    3.4028    0.0000 C   0  0  0  0  0  0  0  0  0  0  0  0
    3.2860    3.4028    0.0000 C   0  0  0  0  0  0  0  0  0  0  0  0
    1.8538    3.3903    0.0000 C   0  0  0  0  0  0  0  0  0  0  0  0
    2.5720    3.8037    0.0000 C   0  0  0  0  0  0  0  0  0  0  0  0
   -3.1648    2.1545    0.0000 C   0  0  0  0  0  0  0  0  0  0  0  0
   -3.1648    3.8162    0.0000 C   0  0  0  0  0  0  0  0  0  0  0  0
    4.0125    4.6137    0.0000 C   0  0  0  0  0  0  0  0  0  0  0  0
   -3.8788    3.4028    0.0000 C   0  0  0  0  0  0  0  0  0  0  0  0
   -3.8788    2.5678    0.0000 C   0  0  0  0  0  0  0  0  0  0  0  0
    5.4405    3.7786    0.0000 O   0  5  0  0  0  0  0  0  0  0  0  0
    4.6972    2.5428    0.0000 O   0  0  0  0  0  0  0  0  0  0  0  0
   -0.2964    2.1545    0.0000 O   0  0  0  0  0  0  0  0  0  0  0  0
    1.8538    2.5678    0.0000 O   0  0  0  0  0  0  0  0  0  0  0  0
    2.5803    4.6388    0.0000 C   0  0  0  0  0  0  0  0  0  0  0  0
    3.2860    5.0396    0.0000 C   0  0  0  0  0  0  0  0  0  0  0  0
    1.1399    3.8079    0.0000 N   0  0  0  0  0  0  0  0  0  0  0  0
    4.7390    5.0229    0.0000 Cl  0  0  0  0  0  0  0  0  0  0  0  0
   -0.2964    3.8079    0.0000 C   0  0  0  0  0  0  0  0  0  0  0  0
    0.4176    3.4028    0.0000 C   0  0  0  0  0  0  0  0  0  0  0  0
   -4.5928    3.8079    0.0000 C   0  0  0  0  0  0  0  0  0  0  0  0
   -4.5928    2.1545    0.0000 C   0  0  0  0  0  0  0  0  0  0  0  0
  2  1  1  0  0  0  0
  3  4  1  0  0  0  0
  4  6  1  0  0  0  0
  5  8  1  0  0  0  0
  6 25  1  0  0  0  0
  7  6  2  0  0  0  0
  8  7  1  0  0  0  0
  9  2  1  0  0  0  0
 10 11  1  0  0  0  0
 11  9  2  0  0  0  0
 12  5  2  0  0  0  0
 13  8  2  0  0  0  0
 14  2  2  0  0  0  0
 15 13  1  0  0  0  0
 16 15  2  0  0  0  0
 17  1  1  0  0  0  0
 18  1  2  0  0  0  0
 19  4  2  0  0  0  0
 20 10  2  0  0  0  0
 21 22  2  0  0  0  0
 22 14  1  0  0  0  0
 23 10  1  0  0  0  0
 24 14  1  0  0  0  0
 25 26  1  0  0  0  0
 26 23  1  0  0  0  0
 27 15  1  0  0  0  0
 28 16  1  0  0  0  0
 21 11  1  0  0  0  0
  3  5  1  0  0  0  0
 16 12  1  0  0  0  0
M  CHG  2   1   1  17  -1
M  END
>  <IDNUMBER>
F0611-0079

>  <Chemical_Name>
4-chloro-N-[2-(6,7-dimethyl-2-oxo-1,2-dihydroquinolin-3-yl)ethyl]-3-nitrobenzamide

>  <PriceCoeff>
1.00

>  <CAS>
851403-08-2

>  <MW>
399.83

>  <Description>
solid

>  <FSP3>
0.20

>  <clogP>
3.38

>  <TPSA>
101.34

>  <Acceptor>
4

>  <Donor>
2

>  <RotBonds>
5

>  <HAC>
28

>  <Collection>
General

>  <PPDS>
+

$$$$
F0611-0297
  Mrv2219 10102508112D          

 30 32  0  0  0  0            999 V2000
   -2.4372    0.9499    0.0000 N   0  0  0  0  0  0  0  0  0  0  0  0
    3.9912    2.1706    0.0000 N   0  3  0  0  0  0  0  0  0  0  0  0
    3.2788    2.5830    0.0000 C   0  0  0  0  0  0  0  0  0  0  0  0
   -3.1496    2.1955    0.0000 C   0  0  0  0  0  0  0  0  0  0  0  0
   -3.1579    1.3706    0.0000 C   0  0  0  0  0  0  0  0  0  0  0  0
   -2.4372    2.6080    0.0000 C   0  0  0  0  0  0  0  0  0  0  0  0
   -1.7206    1.3623    0.0000 C   0  0  0  0  0  0  0  0  0  0  0  0
   -1.7206    2.1955    0.0000 C   0  0  0  0  0  0  0  0  0  0  0  0
    2.5664    2.1955    0.0000 C   0  0  0  0  0  0  0  0  0  0  0  0
    1.1374    2.1830    0.0000 C   0  0  0  0  0  0  0  0  0  0  0  0
    1.8540    2.5955    0.0000 C   0  0  0  0  0  0  0  0  0  0  0  0
    3.2913    3.4079    0.0000 C   0  0  0  0  0  0  0  0  0  0  0  0
   -3.8704    2.6080    0.0000 C   0  0  0  0  0  0  0  0  0  0  0  0
    4.7162    2.5705    0.0000 O   0  5  0  0  0  0  0  0  0  0  0  0
   -3.8704    0.9499    0.0000 C   0  0  0  0  0  0  0  0  0  0  0  0
    3.9745    1.3373    0.0000 O   0  0  0  0  0  0  0  0  0  0  0  0
   -1.0082    0.9499    0.0000 O   0  0  0  0  0  0  0  0  0  0  0  0
    1.1374    1.3623    0.0000 O   0  0  0  0  0  0  0  0  0  0  0  0
    1.8623    3.4371    0.0000 C   0  0  0  0  0  0  0  0  0  0  0  0
    2.5664    3.8329    0.0000 C   0  0  0  0  0  0  0  0  0  0  0  0
   -4.5828    2.1872    0.0000 C   0  0  0  0  0  0  0  0  0  0  0  0
    0.4250    2.5997    0.0000 N   0  0  0  0  0  0  0  0  0  0  0  0
   -4.5828    1.3623    0.0000 C   0  0  0  0  0  0  0  0  0  0  0  0
    4.0162    3.8204    0.0000 Cl  0  0  0  0  0  0  0  0  0  0  0  0
   -1.0082    2.5997    0.0000 C   0  0  0  0  0  0  0  0  0  0  0  0
   -3.8704    3.4204    0.0000 O   0  0  0  0  0  0  0  0  0  0  0  0
   -3.8621    0.1333    0.0000 O   0  0  0  0  0  0  0  0  0  0  0  0
   -0.2958    2.1872    0.0000 C   0  0  0  0  0  0  0  0  0  0  0  0
   -4.5828    3.8329    0.0000 C   0  0  0  0  0  0  0  0  0  0  0  0
   -3.1454   -0.2792    0.0000 C   0  0  0  0  0  0  0  0  0  0  0  0
  2  3  1  0  0  0  0
  3  9  1  0  0  0  0
  4  5  1  0  0  0  0
  5  1  1  0  0  0  0
  6  8  2  0  0  0  0
  7  1  1  0  0  0  0
  8  7  1  0  0  0  0
  9 11  2  0  0  0  0
 10 22  1  0  0  0  0
 11 10  1  0  0  0  0
 12 20  1  0  0  0  0
 13  4  2  0  0  0  0
 14  2  1  0  0  0  0
 15  5  2  0  0  0  0
 16  2  2  0  0  0  0
 17  7  2  0  0  0  0
 18 10  2  0  0  0  0
 19 11  1  0  0  0  0
 20 19  2  0  0  0  0
 21 23  2  0  0  0  0
 22 28  1  0  0  0  0
 23 15  1  0  0  0  0
 24 12  1  0  0  0  0
 25  8  1  0  0  0  0
 26 13  1  0  0  0  0
 27 15  1  0  0  0  0
 28 25  1  0  0  0  0
 29 26  1  0  0  0  0
 30 27  1  0  0  0  0
  6  4  1  0  0  0  0
 21 13  1  0  0  0  0
  3 12  2  0  0  0  0
M  CHG  2   2   1  14  -1
M  END
>  <IDNUMBER>
F0611-0297

>  <Chemical_Name>
4-chloro-N-[2-(5,8-dimethoxy-2-oxo-1,2-dihydroquinolin-3-yl)ethyl]-3-nitrobenzamide

>  <PriceCoeff>
1.00

>  <CAS>
851404-06-3

>  <MW>
431.83

>  <Description>
solid

>  <FSP3>
0.20

>  <clogP>
2.79

>  <TPSA>
119.80

>  <Acceptor>
6

>  <Donor>
2

>  <RotBonds>
7

>  <HAC>
30

>  <Collection>
General

>  <PPDS>
+

$$$$
F0611-0515
  Mrv2219 10102508112D          

 27 29  0  0  0  0            999 V2000
    4.7090    3.3742    0.0000 N   0  3  0  0  0  0  0  0  0  0  0  0
    3.9957    3.7871    0.0000 C   0  0  0  0  0  0  0  0  0  0  0  0
   -1.7267    2.1522    0.0000 N   0  0  0  0  0  0  0  0  0  0  0  0
   -1.0093    2.5651    0.0000 C   0  0  0  0  0  0  0  0  0  0  0  0
   -1.0093    3.3992    0.0000 C   0  0  0  0  0  0  0  0  0  0  0  0
   -1.7267    3.8121    0.0000 C   0  0  0  0  0  0  0  0  0  0  0  0
   -2.4483    2.5734    0.0000 C   0  0  0  0  0  0  0  0  0  0  0  0
    3.2825    3.3992    0.0000 C   0  0  0  0  0  0  0  0  0  0  0  0
   -2.4400    3.3992    0.0000 C   0  0  0  0  0  0  0  0  0  0  0  0
    1.8519    3.3867    0.0000 C   0  0  0  0  0  0  0  0  0  0  0  0
    2.5693    3.7996    0.0000 C   0  0  0  0  0  0  0  0  0  0  0  0
    4.0082    4.6088    0.0000 C   0  0  0  0  0  0  0  0  0  0  0  0
    5.4347    3.7746    0.0000 O   0  5  0  0  0  0  0  0  0  0  0  0
    4.6922    2.5401    0.0000 O   0  0  0  0  0  0  0  0  0  0  0  0
   -0.2961    2.1522    0.0000 O   0  0  0  0  0  0  0  0  0  0  0  0
   -3.1615    2.1522    0.0000 C   0  0  0  0  0  0  0  0  0  0  0  0
    1.8519    2.5651    0.0000 O   0  0  0  0  0  0  0  0  0  0  0  0
    2.5776    4.6339    0.0000 C   0  0  0  0  0  0  0  0  0  0  0  0
   -3.1615    3.8121    0.0000 C   0  0  0  0  0  0  0  0  0  0  0  0
    3.2825    5.0343    0.0000 C   0  0  0  0  0  0  0  0  0  0  0  0
    1.1386    3.8038    0.0000 N   0  0  0  0  0  0  0  0  0  0  0  0
   -3.8747    2.5651    0.0000 C   0  0  0  0  0  0  0  0  0  0  0  0
    4.7340    5.0176    0.0000 Cl  0  0  0  0  0  0  0  0  0  0  0  0
   -3.8747    3.3992    0.0000 C   0  0  0  0  0  0  0  0  0  0  0  0
   -0.2961    3.8038    0.0000 C   0  0  0  0  0  0  0  0  0  0  0  0
    0.4171    3.3992    0.0000 C   0  0  0  0  0  0  0  0  0  0  0  0
   -4.5879    2.1522    0.0000 C   0  0  0  0  0  0  0  0  0  0  0  0
  2  1  1  0  0  0  0
  3  4  1  0  0  0  0
  4  5  1  0  0  0  0
  5 25  1  0  0  0  0
  6  5  2  0  0  0  0
  7  9  1  0  0  0  0
  8  2  1  0  0  0  0
  9  6  1  0  0  0  0
 10 11  1  0  0  0  0
 11  8  2  0  0  0  0
 12  2  2  0  0  0  0
 13  1  1  0  0  0  0
 14  1  2  0  0  0  0
 15  4  2  0  0  0  0
 16  7  2  0  0  0  0
 17 10  2  0  0  0  0
 18 20  2  0  0  0  0
 19  9  2  0  0  0  0
 20 12  1  0  0  0  0
 21 10  1  0  0  0  0
 22 24  2  0  0  0  0
 23 12  1  0  0  0  0
 24 19  1  0  0  0  0
 25 26  1  0  0  0  0
 26 21  1  0  0  0  0
 27 22  1  0  0  0  0
 18 11  1  0  0  0  0
  3  7  1  0  0  0  0
 22 16  1  0  0  0  0
M  CHG  2   1   1  13  -1
M  END
>  <IDNUMBER>
F0611-0515

>  <Chemical_Name>
4-chloro-N-[2-(7-methyl-2-oxo-1,2-dihydroquinolin-3-yl)ethyl]-3-nitrobenzamide

>  <PriceCoeff>
1.00

>  <CAS>
851405-10-2

>  <MW>
385.80

>  <Description>
solid

>  <FSP3>
0.16

>  <clogP>
2.94

>  <TPSA>
101.34

>  <Acceptor>
4

>  <Donor>
2

>  <RotBonds>
5

>  <HAC>
27

>  <Collection>
General

>  <PPDS>
+

$$$$
F0611-0624
  Mrv2219 10102508112D          

 28 30  0  0  0  0            999 V2000
    5.4167    3.3708    0.0000 N   0  3  0  0  0  0  0  0  0  0  0  0
    4.7042    3.7833    0.0000 C   0  0  0  0  0  0  0  0  0  0  0  0
   -1.0125    2.1500    0.0000 N   0  0  0  0  0  0  0  0  0  0  0  0
   -0.2958    2.5625    0.0000 C   0  0  0  0  0  0  0  0  0  0  0  0
   -0.2958    3.3958    0.0000 C   0  0  0  0  0  0  0  0  0  0  0  0
   -1.7333    2.5708    0.0000 C   0  0  0  0  0  0  0  0  0  0  0  0
   -1.0125    3.8083    0.0000 C   0  0  0  0  0  0  0  0  0  0  0  0
    3.9917    3.3958    0.0000 C   0  0  0  0  0  0  0  0  0  0  0  0
   -1.7250    3.3958    0.0000 C   0  0  0  0  0  0  0  0  0  0  0  0
    2.5625    3.3833    0.0000 C   0  0  0  0  0  0  0  0  0  0  0  0
    3.2792    3.7958    0.0000 C   0  0  0  0  0  0  0  0  0  0  0  0
   -2.4458    2.1500    0.0000 C   0  0  0  0  0  0  0  0  0  0  0  0
    4.7167    4.6042    0.0000 C   0  0  0  0  0  0  0  0  0  0  0  0
    6.1417    3.7708    0.0000 O   0  5  0  0  0  0  0  0  0  0  0  0
    5.4000    2.5375    0.0000 O   0  0  0  0  0  0  0  0  0  0  0  0
    0.4167    2.1500    0.0000 O   0  0  0  0  0  0  0  0  0  0  0  0
    2.5625    2.5625    0.0000 O   0  0  0  0  0  0  0  0  0  0  0  0
    3.2875    4.6292    0.0000 C   0  0  0  0  0  0  0  0  0  0  0  0
   -2.4458    3.8083    0.0000 C   0  0  0  0  0  0  0  0  0  0  0  0
    3.9917    5.0292    0.0000 C   0  0  0  0  0  0  0  0  0  0  0  0
    1.8500    3.8000    0.0000 N   0  0  0  0  0  0  0  0  0  0  0  0
   -3.1583    2.5625    0.0000 C   0  0  0  0  0  0  0  0  0  0  0  0
    5.4417    5.0125    0.0000 Cl  0  0  0  0  0  0  0  0  0  0  0  0
   -3.1583    3.3958    0.0000 C   0  0  0  0  0  0  0  0  0  0  0  0
    0.4167    3.8000    0.0000 C   0  0  0  0  0  0  0  0  0  0  0  0
    1.1292    3.3958    0.0000 C   0  0  0  0  0  0  0  0  0  0  0  0
   -3.8708    2.1500    0.0000 O   0  0  0  0  0  0  0  0  0  0  0  0
   -4.5833    2.5625    0.0000 C   0  0  0  0  0  0  0  0  0  0  0  0
  2  1  1  0  0  0  0
  3  4  1  0  0  0  0
  4  5  1  0  0  0  0
  5 25  1  0  0  0  0
  6  9  1  0  0  0  0
  7  5  2  0  0  0  0
  8  2  1  0  0  0  0
  9  7  1  0  0  0  0
 10 11  1  0  0  0  0
 11  8  2  0  0  0  0
 12  6  2  0  0  0  0
 13  2  2  0  0  0  0
 14  1  1  0  0  0  0
 15  1  2  0  0  0  0
 16  4  2  0  0  0  0
 17 10  2  0  0  0  0
 18 20  2  0  0  0  0
 19  9  2  0  0  0  0
 20 13  1  0  0  0  0
 21 10  1  0  0  0  0
 22 24  2  0  0  0  0
 23 13  1  0  0  0  0
 24 19  1  0  0  0  0
 25 26  1  0  0  0  0
 26 21  1  0  0  0  0
 27 22  1  0  0  0  0
 28 27  1  0  0  0  0
 18 11  1  0  0  0  0
  3  6  1  0  0  0  0
 22 12  1  0  0  0  0
M  CHG  2   1   1  14  -1
M  END
>  <IDNUMBER>
F0611-0624

>  <Chemical_Name>
4-chloro-N-[2-(7-methoxy-2-oxo-1,2-dihydroquinolin-3-yl)ethyl]-3-nitrobenzamide

>  <PriceCoeff>
1.00

>  <CAS>
851406-07-0

>  <MW>
401.80

>  <Description>
solid

>  <FSP3>
0.16

>  <clogP>
2.63

>  <TPSA>
110.57

>  <Acceptor>
5

>  <Donor>
2

>  <RotBonds>
6

>  <HAC>
28

>  <Collection>
General

>  <PPDS>
+

$$$$
F0611-0733
  Mrv2219 10102508112D          

 28 30  0  0  0  0            999 V2000
   -2.4458    1.3583    0.0000 N   0  0  0  0  0  0  0  0  0  0  0  0
    3.9917    2.5708    0.0000 N   0  3  0  0  0  0  0  0  0  0  0  0
    3.2750    2.9833    0.0000 C   0  0  0  0  0  0  0  0  0  0  0  0
   -3.1583    1.7708    0.0000 C   0  0  0  0  0  0  0  0  0  0  0  0
   -1.7250    1.7708    0.0000 C   0  0  0  0  0  0  0  0  0  0  0  0
   -2.4458    3.0208    0.0000 C   0  0  0  0  0  0  0  0  0  0  0  0
   -3.1583    2.5958    0.0000 C   0  0  0  0  0  0  0  0  0  0  0  0
   -1.7250    2.5958    0.0000 C   0  0  0  0  0  0  0  0  0  0  0  0
    2.5667    2.5958    0.0000 C   0  0  0  0  0  0  0  0  0  0  0  0
    1.1292    2.5875    0.0000 C   0  0  0  0  0  0  0  0  0  0  0  0
    1.8500    3.0000    0.0000 C   0  0  0  0  0  0  0  0  0  0  0  0
    3.2875    3.8125    0.0000 C   0  0  0  0  0  0  0  0  0  0  0  0
    4.7167    2.9833    0.0000 O   0  5  0  0  0  0  0  0  0  0  0  0
    3.9667    1.7458    0.0000 O   0  0  0  0  0  0  0  0  0  0  0  0
   -3.8708    1.3583    0.0000 C   0  0  0  0  0  0  0  0  0  0  0  0
   -3.8708    3.0083    0.0000 C   0  0  0  0  0  0  0  0  0  0  0  0
   -1.0125    1.3583    0.0000 O   0  0  0  0  0  0  0  0  0  0  0  0
    1.1292    1.7708    0.0000 O   0  0  0  0  0  0  0  0  0  0  0  0
    1.8542    3.8458    0.0000 C   0  0  0  0  0  0  0  0  0  0  0  0
    2.5667    4.2292    0.0000 C   0  0  0  0  0  0  0  0  0  0  0  0
    0.4167    3.0083    0.0000 N   0  0  0  0  0  0  0  0  0  0  0  0
   -4.5833    1.7708    0.0000 C   0  0  0  0  0  0  0  0  0  0  0  0
   -4.5833    2.5958    0.0000 C   0  0  0  0  0  0  0  0  0  0  0  0
    4.0167    4.2167    0.0000 Cl  0  0  0  0  0  0  0  0  0  0  0  0
   -1.0083    3.0083    0.0000 C   0  0  0  0  0  0  0  0  0  0  0  0
   -0.2958    2.5958    0.0000 C   0  0  0  0  0  0  0  0  0  0  0  0
   -3.8750    3.8333    0.0000 C   0  0  0  0  0  0  0  0  0  0  0  0
   -3.8708    0.5333    0.0000 C   0  0  0  0  0  0  0  0  0  0  0  0
  2  3  1  0  0  0  0
  3  9  1  0  0  0  0
  4  1  1  0  0  0  0
  5  1  1  0  0  0  0
  6  8  2  0  0  0  0
  7  4  1  0  0  0  0
  8  5  1  0  0  0  0
  9 11  2  0  0  0  0
 10 21  1  0  0  0  0
 11 10  1  0  0  0  0
 12 20  1  0  0  0  0
 13  2  1  0  0  0  0
 14  2  2  0  0  0  0
 15  4  2  0  0  0  0
 16  7  2  0  0  0  0
 17  5  2  0  0  0  0
 18 10  2  0  0  0  0
 19 11  1  0  0  0  0
 20 19  2  0  0  0  0
 21 26  1  0  0  0  0
 22 15  1  0  0  0  0
 23 22  2  0  0  0  0
 24 12  1  0  0  0  0
 25  8  1  0  0  0  0
 26 25  1  0  0  0  0
 27 16  1  0  0  0  0
 28 15  1  0  0  0  0
  6  7  1  0  0  0  0
 23 16  1  0  0  0  0
  3 12  2  0  0  0  0
M  CHG  2   2   1  13  -1
M  END
>  <IDNUMBER>
F0611-0733

>  <Chemical_Name>
4-chloro-N-[2-(5,8-dimethyl-2-oxo-1,2-dihydroquinolin-3-yl)ethyl]-3-nitrobenzamide

>  <PriceCoeff>
1.00

>  <CAS>
851407-09-5

>  <MW>
399.83

>  <Description>
solid

>  <FSP3>
0.20

>  <clogP>
3.43

>  <TPSA>
101.34

>  <Acceptor>
4

>  <Donor>
2

>  <RotBonds>
5

>  <HAC>
28

>  <Collection>
General

>  <PPDS>
+

$$$$
F0611-0842
  Mrv2219 10102508112D          

 28 30  0  0  0  0            999 V2000
   -1.7250    2.1500    0.0000 N   0  0  0  0  0  0  0  0  0  0  0  0
    4.7042    3.3708    0.0000 N   0  3  0  0  0  0  0  0  0  0  0  0
    3.9917    3.7833    0.0000 C   0  0  0  0  0  0  0  0  0  0  0  0
   -2.4458    2.5708    0.0000 C   0  0  0  0  0  0  0  0  0  0  0  0
   -1.0083    2.5625    0.0000 C   0  0  0  0  0  0  0  0  0  0  0  0
   -1.0083    3.3958    0.0000 C   0  0  0  0  0  0  0  0  0  0  0  0
   -1.7250    3.8083    0.0000 C   0  0  0  0  0  0  0  0  0  0  0  0
   -2.4375    3.3958    0.0000 C   0  0  0  0  0  0  0  0  0  0  0  0
    3.2792    3.3958    0.0000 C   0  0  0  0  0  0  0  0  0  0  0  0
   -3.1583    2.1500    0.0000 C   0  0  0  0  0  0  0  0  0  0  0  0
    1.8500    3.3833    0.0000 C   0  0  0  0  0  0  0  0  0  0  0  0
    2.5667    3.7958    0.0000 C   0  0  0  0  0  0  0  0  0  0  0  0
    4.0042    4.6042    0.0000 C   0  0  0  0  0  0  0  0  0  0  0  0
    5.4292    3.7708    0.0000 O   0  5  0  0  0  0  0  0  0  0  0  0
    4.6875    2.5375    0.0000 O   0  0  0  0  0  0  0  0  0  0  0  0
   -0.2958    2.1500    0.0000 O   0  0  0  0  0  0  0  0  0  0  0  0
   -3.8708    2.5625    0.0000 C   0  0  0  0  0  0  0  0  0  0  0  0
   -3.1583    3.8083    0.0000 C   0  0  0  0  0  0  0  0  0  0  0  0
    1.8500    2.5625    0.0000 O   0  0  0  0  0  0  0  0  0  0  0  0
    2.5750    4.6292    0.0000 C   0  0  0  0  0  0  0  0  0  0  0  0
    3.2792    5.0292    0.0000 C   0  0  0  0  0  0  0  0  0  0  0  0
    1.1375    3.8000    0.0000 N   0  0  0  0  0  0  0  0  0  0  0  0
   -3.8708    3.3958    0.0000 C   0  0  0  0  0  0  0  0  0  0  0  0
    4.7292    5.0125    0.0000 Cl  0  0  0  0  0  0  0  0  0  0  0  0
   -0.2958    3.8000    0.0000 C   0  0  0  0  0  0  0  0  0  0  0  0
    0.4167    3.3958    0.0000 C   0  0  0  0  0  0  0  0  0  0  0  0
   -3.1500    1.3250    0.0000 C   0  0  0  0  0  0  0  0  0  0  0  0
   -4.5833    2.1500    0.0000 C   0  0  0  0  0  0  0  0  0  0  0  0
  2  3  1  0  0  0  0
  3  9  1  0  0  0  0
  4  1  1  0  0  0  0
  5  1  1  0  0  0  0
  6  5  1  0  0  0  0
  7  6  2  0  0  0  0
  8  4  1  0  0  0  0
  9 12  2  0  0  0  0
 10  4  2  0  0  0  0
 11 22  1  0  0  0  0
 12 11  1  0  0  0  0
 13 21  1  0  0  0  0
 14  2  1  0  0  0  0
 15  2  2  0  0  0  0
 16  5  2  0  0  0  0
 17 10  1  0  0  0  0
 18  8  2  0  0  0  0
 19 11  2  0  0  0  0
 20 12  1  0  0  0  0
 21 20  2  0  0  0  0
 22 26  1  0  0  0  0
 23 17  2  0  0  0  0
 24 13  1  0  0  0  0
 25  6  1  0  0  0  0
 26 25  1  0  0  0  0
 27 10  1  0  0  0  0
 28 17  1  0  0  0  0
  7  8  1  0  0  0  0
 23 18  1  0  0  0  0
  3 13  2  0  0  0  0
M  CHG  2   2   1  14  -1
M  END
>  <IDNUMBER>
F0611-0842

>  <Chemical_Name>
4-chloro-N-[2-(7,8-dimethyl-2-oxo-1,2-dihydroquinolin-3-yl)ethyl]-3-nitrobenzamide

>  <PriceCoeff>
1.00

>  <CAS>
851408-11-2

>  <MW>
399.83

>  <Description>
solid

>  <FSP3>
0.20

>  <clogP>
3.38

>  <TPSA>
101.34

>  <Acceptor>
4

>  <Donor>
2

>  <RotBonds>
5

>  <HAC>
28

>  <Collection>
General

>  <PPDS>
+

$$$$
F0614-0079
  Mrv2219 10102508112D          

 29 32  0  0  0  0            999 V2000
   -1.7483    0.1001    0.0000 C   0  0  0  0  0  0  0  0  0  0  0  0
   -1.7400   -0.7177    0.0000 C   0  0  0  0  0  0  0  0  0  0  0  0
   -2.4535    0.5215    0.0000 C   0  0  0  0  0  0  0  0  0  0  0  0
    0.4757    5.4119    0.0000 N   0  3  0  0  0  0  0  0  0  0  0  0
   -0.2462    5.0114    0.0000 C   0  0  0  0  0  0  0  0  0  0  0  0
   -2.4618   -1.1308    0.0000 O   0  0  0  0  0  0  0  0  0  0  0  0
   -2.4493    1.3477    0.0000 N   0  0  0  0  0  0  0  0  0  0  0  0
   -3.1670    0.1085    0.0000 C   0  0  0  0  0  0  0  0  0  0  0  0
   -1.7233    1.7525    0.0000 C   0  0  0  0  0  0  0  0  0  0  0  0
   -1.0265    0.5090    0.0000 C   0  0  0  0  0  0  0  0  0  0  0  0
   -0.9972    2.9876    0.0000 C   0  0  0  0  0  0  0  0  0  0  0  0
   -1.7149    2.5870    0.0000 N   0  0  0  0  0  0  0  0  0  0  0  0
   -3.1753   -0.7177    0.0000 C   0  0  0  0  0  0  0  0  0  0  0  0
   -0.2754    4.2060    0.0000 C   0  0  0  0  0  0  0  0  0  0  0  0
   -0.9847    3.8012    0.0000 C   0  0  0  0  0  0  0  0  0  0  0  0
   -1.0139    1.3352    0.0000 C   0  0  0  0  0  0  0  0  0  0  0  0
   -0.9472    5.4495    0.0000 C   0  0  0  0  0  0  0  0  0  0  0  0
    0.4924    6.2381    0.0000 O   0  5  0  0  0  0  0  0  0  0  0  0
   -1.0265   -1.1391    0.0000 O   0  0  0  0  0  0  0  0  0  0  0  0
    1.1767    4.9738    0.0000 O   0  0  0  0  0  0  0  0  0  0  0  0
   -0.2837    2.5620    0.0000 O   0  0  0  0  0  0  0  0  0  0  0  0
   -1.6982    4.2227    0.0000 C   0  0  0  0  0  0  0  0  0  0  0  0
   -1.6774    5.0489    0.0000 C   0  0  0  0  0  0  0  0  0  0  0  0
   -0.9263    6.2757    0.0000 Cl  0  0  0  0  0  0  0  0  0  0  0  0
   -3.8805    0.5258    0.0000 C   0  0  0  0  0  0  0  0  0  0  0  0
   -0.3213    0.0834    0.0000 C   0  0  0  0  0  0  0  0  0  0  0  0
   -3.8805   -1.1266    0.0000 C   0  0  0  0  0  0  0  0  0  0  0  0
   -4.5899    0.1085    0.0000 C   0  0  0  0  0  0  0  0  0  0  0  0
   -4.5899   -0.7177    0.0000 C   0  0  0  0  0  0  0  0  0  0  0  0
  2  1  1  0  0  0  0
  3  1  2  0  0  0  0
  4  5  1  0  0  0  0
  5 14  1  0  0  0  0
  6  2  1  0  0  0  0
  7  3  1  0  0  0  0
  8  3  1  0  0  0  0
  9 16  1  0  0  0  0
 10  1  1  0  0  0  0
 11 12  1  0  0  0  0
 12  9  1  0  0  0  0
 13  8  2  0  0  0  0
 14 15  2  0  0  0  0
 15 11  1  0  0  0  0
 16 10  2  0  0  0  0
 17 23  1  0  0  0  0
 18  4  1  0  0  0  0
 19  2  2  0  0  0  0
 20  4  2  0  0  0  0
 21 11  2  0  0  0  0
 22 15  1  0  0  0  0
 23 22  2  0  0  0  0
 24 17  1  0  0  0  0
 25  8  1  0  0  0  0
 26 10  1  0  0  0  0
 27 13  1  0  0  0  0
 28 25  2  0  0  0  0
 29 28  1  0  0  0  0
  9  7  2  0  0  0  0
 13  6  1  0  0  0  0
 27 29  2  0  0  0  0
 17  5  2  0  0  0  0
M  CHG  2   4   1  18  -1
M  END
>  <IDNUMBER>
F0614-0079

>  <Chemical_Name>
4-chloro-N-{4-methyl-5-oxo-5H-chromeno[4,3-b]pyridin-2-yl}-3-nitrobenzamide

>  <PriceCoeff>
1.00

>  <CAS>
851411-56-8

>  <MW>
409.78

>  <Description>
solid

>  <FSP3>
0.05

>  <clogP>
3.96

>  <TPSA>
111.43

>  <Acceptor>
6

>  <Donor>
2

>  <RotBonds>
3

>  <HAC>
29

>  <Collection>
General

>  <PPDS>
+

$$$$
F0614-0106
  Mrv2219 10102508112D          

 32 36  0  0  0  0            999 V2000
   -1.7526    0.1004    0.0000 C   0  0  0  0  0  0  0  0  0  0  0  0
   -1.7443   -0.7195    0.0000 C   0  0  0  0  0  0  0  0  0  0  0  0
   -2.4596    0.5228    0.0000 C   0  0  0  0  0  0  0  0  0  0  0  0
   -0.9663    6.2912    0.0000 N   0  0  0  0  0  0  0  0  0  0  0  0
   -2.4679   -1.1336    0.0000 O   0  0  0  0  0  0  0  0  0  0  0  0
   -2.4554    1.3511    0.0000 N   0  0  0  0  0  0  0  0  0  0  0  0
   -3.1749    0.1087    0.0000 C   0  0  0  0  0  0  0  0  0  0  0  0
   -1.7275    1.7569    0.0000 C   0  0  0  0  0  0  0  0  0  0  0  0
   -1.0290    0.5103    0.0000 C   0  0  0  0  0  0  0  0  0  0  0  0
   -1.7192    2.5934    0.0000 N   0  0  0  0  0  0  0  0  0  0  0  0
   -0.2970    6.7639    0.0000 C   0  0  0  0  0  0  0  0  0  0  0  0
   -1.6397    6.7806    0.0000 C   0  0  0  0  0  0  0  0  0  0  0  0
   -0.9997    2.9950    0.0000 C   0  0  0  0  0  0  0  0  0  0  0  0
   -3.1832   -0.7195    0.0000 C   0  0  0  0  0  0  0  0  0  0  0  0
   -0.9788    5.4588    0.0000 C   0  0  0  0  0  0  0  0  0  0  0  0
   -1.0165    1.3385    0.0000 C   0  0  0  0  0  0  0  0  0  0  0  0
   -0.9871    3.8107    0.0000 C   0  0  0  0  0  0  0  0  0  0  0  0
   -1.0290   -1.1420    0.0000 O   0  0  0  0  0  0  0  0  0  0  0  0
   -0.2844    2.5683    0.0000 O   0  0  0  0  0  0  0  0  0  0  0  0
   -1.3678    7.5587    0.0000 C   0  0  0  0  0  0  0  0  0  0  0  0
   -0.5479    7.5461    0.0000 C   0  0  0  0  0  0  0  0  0  0  0  0
    0.4811    6.4920    0.0000 O   0  0  0  0  0  0  0  0  0  0  0  0
   -2.4303    6.5297    0.0000 O   0  0  0  0  0  0  0  0  0  0  0  0
   -0.2719    5.0363    0.0000 C   0  0  0  0  0  0  0  0  0  0  0  0
   -1.7024    5.0489    0.0000 C   0  0  0  0  0  0  0  0  0  0  0  0
   -0.2719    4.2081    0.0000 C   0  0  0  0  0  0  0  0  0  0  0  0
   -1.7024    4.2332    0.0000 C   0  0  0  0  0  0  0  0  0  0  0  0
   -3.8902    0.5271    0.0000 C   0  0  0  0  0  0  0  0  0  0  0  0
   -0.3221    0.0836    0.0000 C   0  0  0  0  0  0  0  0  0  0  0  0
   -3.8902   -1.1294    0.0000 C   0  0  0  0  0  0  0  0  0  0  0  0
   -4.6012    0.1087    0.0000 C   0  0  0  0  0  0  0  0  0  0  0  0
   -4.6012   -0.7195    0.0000 C   0  0  0  0  0  0  0  0  0  0  0  0
  2  1  1  0  0  0  0
  3  1  2  0  0  0  0
  4 15  1  0  0  0  0
  5  2  1  0  0  0  0
  6  3  1  0  0  0  0
  7  3  1  0  0  0  0
  8 16  1  0  0  0  0
  9  1  1  0  0  0  0
 10  8  1  0  0  0  0
 11  4  1  0  0  0  0
 12  4  1  0  0  0  0
 13 10  1  0  0  0  0
 14  7  2  0  0  0  0
 15 25  1  0  0  0  0
 16  9  2  0  0  0  0
 17 13  1  0  0  0  0
 18  2  2  0  0  0  0
 19 13  2  0  0  0  0
 20 12  1  0  0  0  0
 21 11  1  0  0  0  0
 22 11  2  0  0  0  0
 23 12  2  0  0  0  0
 24 26  1  0  0  0  0
 25 27  2  0  0  0  0
 26 17  2  0  0  0  0
 27 17  1  0  0  0  0
 28  7  1  0  0  0  0
 29  9  1  0  0  0  0
 30 14  1  0  0  0  0
 31 28  2  0  0  0  0
 32 31  1  0  0  0  0
  8  6  2  0  0  0  0
 14  5  1  0  0  0  0
 30 32  2  0  0  0  0
 24 15  2  0  0  0  0
 20 21  1  0  0  0  0
M  END
>  <IDNUMBER>
F0614-0106

>  <Chemical_Name>
4-(2,5-dioxopyrrolidin-1-yl)-N-{4-methyl-5-oxo-5H-chromeno[4,3-b]pyridin-2-yl}benzamide

>  <PriceCoeff>
1.00

>  <CAS>
851411-78-4

>  <MW>
427.41

>  <Description>
solid

>  <FSP3>
0.12

>  <clogP>
1.77

>  <TPSA>
105.67

>  <Acceptor>
6

>  <Donor>
2

>  <RotBonds>
3

>  <HAC>
32

>  <Collection>
General

>  <PPDS>
+

$$$$
F0624-0081
  Mrv2219 10102508112D          

 25 27  0  0  0  0            999 V2000
   -1.7411    2.5636    0.0000 N   0  0  0  0  0  0  0  0  0  0  0  0
   -1.7411    1.7369    0.0000 N   0  0  0  0  0  0  0  0  0  0  0  0
   -2.4551    2.9895    0.0000 C   0  0  0  0  0  0  0  0  0  0  0  0
    1.8163    0.5010    0.0000 N   0  3  0  0  0  0  0  0  0  0  0  0
    1.8205    1.3235    0.0000 C   0  0  0  0  0  0  0  0  0  0  0  0
   -2.4551    1.3277    0.0000 N   0  0  0  0  0  0  0  0  0  0  0  0
   -3.1648    2.5636    0.0000 C   0  0  0  0  0  0  0  0  0  0  0  0
    1.1273    1.7494    0.0000 C   0  0  0  0  0  0  0  0  0  0  0  0
   -1.0229    2.9770    0.0000 C   0  0  0  0  0  0  0  0  0  0  0  0
    0.4050    2.9770    0.0000 C   0  0  0  0  0  0  0  0  0  0  0  0
   -0.3089    2.5636    0.0000 O   0  0  0  0  0  0  0  0  0  0  0  0
   -3.1648    1.7369    0.0000 C   0  0  0  0  0  0  0  0  0  0  0  0
    1.1190    2.5636    0.0000 C   0  0  0  0  0  0  0  0  0  0  0  0
    2.5428    1.7244    0.0000 C   0  0  0  0  0  0  0  0  0  0  0  0
    2.5302    0.0752    0.0000 O   0  5  0  0  0  0  0  0  0  0  0  0
    1.0898    0.1085    0.0000 O   0  0  0  0  0  0  0  0  0  0  0  0
   -2.4551    3.8079    0.0000 O   0  0  0  0  0  0  0  0  0  0  0  0
    0.4050    3.8037    0.0000 O   0  0  0  0  0  0  0  0  0  0  0  0
    1.8455    2.9770    0.0000 C   0  0  0  0  0  0  0  0  0  0  0  0
    2.5470    2.5636    0.0000 C   0  0  0  0  0  0  0  0  0  0  0  0
    3.2567    1.2985    0.0000 Cl  0  0  0  0  0  0  0  0  0  0  0  0
   -3.8788    2.9770    0.0000 C   0  0  0  0  0  0  0  0  0  0  0  0
   -3.8788    1.3277    0.0000 C   0  0  0  0  0  0  0  0  0  0  0  0
   -4.5928    2.5678    0.0000 C   0  0  0  0  0  0  0  0  0  0  0  0
   -4.5928    1.7369    0.0000 C   0  0  0  0  0  0  0  0  0  0  0  0
  2  1  1  0  0  0  0
  3  1  1  0  0  0  0
  4  5  1  0  0  0  0
  5  8  1  0  0  0  0
  6  2  2  0  0  0  0
  7  3  1  0  0  0  0
  8 13  2  0  0  0  0
  9  1  1  0  0  0  0
 10 11  1  0  0  0  0
 11  9  1  0  0  0  0
 12  7  2  0  0  0  0
 13 10  1  0  0  0  0
 14 20  1  0  0  0  0
 15  4  1  0  0  0  0
 16  4  2  0  0  0  0
 17  3  2  0  0  0  0
 18 10  2  0  0  0  0
 19 13  1  0  0  0  0
 20 19  2  0  0  0  0
 21 14  1  0  0  0  0
 22  7  1  0  0  0  0
 23 12  1  0  0  0  0
 24 22  2  0  0  0  0
 25 24  1  0  0  0  0
  6 12  1  0  0  0  0
 23 25  2  0  0  0  0
  5 14  2  0  0  0  0
M  CHG  2   4   1  15  -1
M  END
>  <IDNUMBER>
F0624-0081

>  <Chemical_Name>
(4-oxo-3,4-dihydro-1,2,3-benzotriazin-3-yl)methyl 4-chloro-3-nitrobenzoate

>  <PriceCoeff>
1.00

>  <CAS>
851862-94-7

>  <MW>
360.71

>  <Description>
solid

>  <FSP3>
0.07

>  <clogP>
2.96

>  <TPSA>
114.47

>  <Acceptor>
5

>  <Donor>
0

>  <RotBonds>
5

>  <HAC>
25

>  <Collection>
General

>  <PPDS>
+

$$$$
F0634-0003
  Mrv2219 10102508112D          

 22 24  0  0  0  0            999 V2000
   -2.4269    1.7419    0.0000 C   0  0  0  0  0  0  0  0  0  0  0  0
   -2.4311    2.5648    0.0000 C   0  0  0  0  0  0  0  0  0  0  0  0
   -3.1455    1.3284    0.0000 N   0  0  0  0  0  0  0  0  0  0  0  0
   -3.8555    2.5648    0.0000 N   0  0  0  0  0  0  0  0  0  0  0  0
   -3.8555    1.7377    0.0000 C   0  0  0  0  0  0  0  0  0  0  0  0
   -3.1455    2.9909    0.0000 C   0  0  0  0  0  0  0  0  0  0  0  0
   -1.6417    1.4913    0.0000 N   0  0  0  0  0  0  0  0  0  0  0  0
   -1.1612    2.1638    0.0000 C   0  0  0  0  0  0  0  0  0  0  0  0
   -1.6500    2.8280    0.0000 N   0  0  0  0  0  0  0  0  0  0  0  0
   -0.3341    2.1680    0.0000 C   0  0  0  0  0  0  0  0  0  0  0  0
    0.0794    1.4620    0.0000 N   0  0  0  0  0  0  0  0  0  0  0  0
   -4.5741    1.3241    0.0000 O   0  0  0  0  0  0  0  0  0  0  0  0
   -3.1455    3.8096    0.0000 O   0  0  0  0  0  0  0  0  0  0  0  0
   -3.1455    0.5013    0.0000 C   0  0  0  0  0  0  0  0  0  0  0  0
   -4.5741    2.9783    0.0000 C   0  0  0  0  0  0  0  0  0  0  0  0
   -1.3993    3.6174    0.0000 C   0  0  0  0  0  0  0  0  0  0  0  0
    0.9023    1.4620    0.0000 C   0  0  0  0  0  0  0  0  0  0  0  0
   -0.3258    0.7477    0.0000 C   0  0  0  0  0  0  0  0  0  0  0  0
   -1.9549    4.2149    0.0000 C   0  0  0  0  0  0  0  0  0  0  0  0
    1.3200    0.7519    0.0000 C   0  0  0  0  0  0  0  0  0  0  0  0
    0.0877    0.0334    0.0000 C   0  0  0  0  0  0  0  0  0  0  0  0
    0.9148    0.0376    0.0000 C   0  0  0  0  0  0  0  0  0  0  0  0
  2  1  2  0  0  0  0
  3  1  1  0  0  0  0
  4  5  1  0  0  0  0
  5  3  1  0  0  0  0
  6  2  1  0  0  0  0
  7  1  1  0  0  0  0
  8  7  2  0  0  0  0
  9  2  1  0  0  0  0
 10  8  1  0  0  0  0
 11 10  1  0  0  0  0
 12  5  2  0  0  0  0
 13  6  2  0  0  0  0
 14  3  1  0  0  0  0
 15  4  1  0  0  0  0
 16  9  1  0  0  0  0
 17 11  1  0  0  0  0
 18 11  1  0  0  0  0
 19 16  1  0  0  0  0
 20 17  1  0  0  0  0
 21 18  1  0  0  0  0
 22 21  1  0  0  0  0
  9  8  1  0  0  0  0
  6  4  1  0  0  0  0
 22 20  1  0  0  0  0
M  END
>  <IDNUMBER>
F0634-0003

>  <Chemical_Name>
7-ethyl-1,3-dimethyl-8-[(piperidin-1-yl)methyl]-2,3,6,7-tetrahydro-1H-purine-2,6-dione

>  <PriceCoeff>
1.50

>  <CAS>
876709-55-6

>  <MW>
305.38

>  <Description>
solid

>  <FSP3>
0.67

>  <clogP>
1.52

>  <TPSA>
28.42

>  <Acceptor>
3

>  <Donor>
2

>  <RotBonds>
3

>  <HAC>
22

>  <Collection>
Advanced

>  <PPDS>
+

$$$$
F0634-0010
  Mrv2219 10102508112D          

 22 24  0  0  0  0            999 V2000
   -2.4208    1.7375    0.0000 C   0  0  0  0  0  0  0  0  0  0  0  0
   -2.4250    2.5583    0.0000 C   0  0  0  0  0  0  0  0  0  0  0  0
   -3.1375    1.3250    0.0000 N   0  0  0  0  0  0  0  0  0  0  0  0
   -3.8458    2.5583    0.0000 N   0  0  0  0  0  0  0  0  0  0  0  0
   -3.8458    1.7333    0.0000 C   0  0  0  0  0  0  0  0  0  0  0  0
   -3.1375    2.9833    0.0000 C   0  0  0  0  0  0  0  0  0  0  0  0
   -1.6375    1.4875    0.0000 N   0  0  0  0  0  0  0  0  0  0  0  0
   -1.1583    2.1583    0.0000 C   0  0  0  0  0  0  0  0  0  0  0  0
   -1.6458    2.8208    0.0000 N   0  0  0  0  0  0  0  0  0  0  0  0
   -0.3333    2.1625    0.0000 C   0  0  0  0  0  0  0  0  0  0  0  0
    0.0792    1.4583    0.0000 N   0  0  0  0  0  0  0  0  0  0  0  0
   -4.5625    1.3208    0.0000 O   0  0  0  0  0  0  0  0  0  0  0  0
   -3.1375    3.8000    0.0000 O   0  0  0  0  0  0  0  0  0  0  0  0
   -3.1375    0.5000    0.0000 C   0  0  0  0  0  0  0  0  0  0  0  0
   -4.5625    2.9708    0.0000 C   0  0  0  0  0  0  0  0  0  0  0  0
    0.9167    0.0250    0.0000 O   0  0  0  0  0  0  0  0  0  0  0  0
   -1.3958    3.6083    0.0000 C   0  0  0  0  0  0  0  0  0  0  0  0
   -0.3333    0.7375    0.0000 C   0  0  0  0  0  0  0  0  0  0  0  0
    0.9000    1.4583    0.0000 C   0  0  0  0  0  0  0  0  0  0  0  0
    0.0875    0.0250    0.0000 C   0  0  0  0  0  0  0  0  0  0  0  0
    1.3167    0.7500    0.0000 C   0  0  0  0  0  0  0  0  0  0  0  0
   -1.9500    4.2042    0.0000 C   0  0  0  0  0  0  0  0  0  0  0  0
  2  1  2  0  0  0  0
  3  1  1  0  0  0  0
  4  5  1  0  0  0  0
  5  3  1  0  0  0  0
  6  2  1  0  0  0  0
  7  1  1  0  0  0  0
  8  7  2  0  0  0  0
  9  2  1  0  0  0  0
 10  8  1  0  0  0  0
 11 10  1  0  0  0  0
 12  5  2  0  0  0  0
 13  6  2  0  0  0  0
 14  3  1  0  0  0  0
 15  4  1  0  0  0  0
 16 21  1  0  0  0  0
 17  9  1  0  0  0  0
 18 11  1  0  0  0  0
 19 11  1  0  0  0  0
 20 18  1  0  0  0  0
 21 19  1  0  0  0  0
 22 17  1  0  0  0  0
  9  8  1  0  0  0  0
  6  4  1  0  0  0  0
 16 20  1  0  0  0  0
M  END
>  <IDNUMBER>
F0634-0010

>  <Chemical_Name>
7-ethyl-1,3-dimethyl-8-[(morpholin-4-yl)methyl]-2,3,6,7-tetrahydro-1H-purine-2,6-dione

>  <PriceCoeff>
1.50

>  <CAS>
838876-89-4

>  <MW>
307.35

>  <Description>
solid

>  <FSP3>
0.64

>  <clogP>
0.24

>  <TPSA>
30.68

>  <Acceptor>
4

>  <Donor>
2

>  <RotBonds>
3

>  <HAC>
22

>  <Collection>
Advanced

>  <PPDS>
+

$$$$
F0641-0072
  Mrv2219 10102508112D          

 34 37  0  0  0  0            999 V2000
   -1.7369    1.7995    0.0000 C   0  0  0  0  0  0  0  0  0  0  0  0
   -1.7286    0.9728    0.0000 C   0  0  0  0  0  0  0  0  0  0  0  0
   -2.4509    0.5595    0.0000 C   0  0  0  0  0  0  0  0  0  0  0  0
   -2.4509    2.2129    0.0000 C   0  0  0  0  0  0  0  0  0  0  0  0
   -0.9520    2.0542    0.0000 C   0  0  0  0  0  0  0  0  0  0  0  0
   -3.1565    0.9728    0.0000 N   0  0  0  0  0  0  0  0  0  0  0  0
   -3.1565    1.7995    0.0000 N   0  0  0  0  0  0  0  0  0  0  0  0
    2.2088    4.9269    0.0000 N   0  3  0  0  0  0  0  0  0  0  0  0
    1.4071    4.7515    0.0000 C   0  0  0  0  0  0  0  0  0  0  0  0
   -0.6972    2.8434    0.0000 N   0  0  0  0  0  0  0  0  0  0  0  0
   -0.9478    0.7223    0.0000 C   0  0  0  0  0  0  0  0  0  0  0  0
   -0.4635    1.3987    0.0000 S   0  0  0  0  0  0  0  0  0  0  0  0
    0.1044    3.0271    0.0000 C   0  0  0  0  0  0  0  0  0  0  0  0
   -2.4426   -0.2673    0.0000 C   0  0  0  0  0  0  0  0  0  0  0  0
    1.1566    3.9790    0.0000 C   0  0  0  0  0  0  0  0  0  0  0  0
    0.3549    3.8037    0.0000 C   0  0  0  0  0  0  0  0  0  0  0  0
    0.8518    5.3653    0.0000 C   0  0  0  0  0  0  0  0  0  0  0  0
   -2.4509    3.0396    0.0000 O   0  0  0  0  0  0  0  0  0  0  0  0
    2.7682    4.3382    0.0000 O   0  5  0  0  0  0  0  0  0  0  0  0
   -3.8705    2.2129    0.0000 C   0  0  0  0  0  0  0  0  0  0  0  0
    2.4593    5.7160    0.0000 O   0  0  0  0  0  0  0  0  0  0  0  0
    0.6639    2.4133    0.0000 O   0  0  0  0  0  0  0  0  0  0  0  0
   -1.7286   -0.6806    0.0000 O   0  0  0  0  0  0  0  0  0  0  0  0
   -0.1962    4.4091    0.0000 C   0  0  0  0  0  0  0  0  0  0  0  0
    0.0418    5.1899    0.0000 C   0  0  0  0  0  0  0  0  0  0  0  0
   -3.1648   -0.6806    0.0000 O   0  0  0  0  0  0  0  0  0  0  0  0
    1.0940    6.1502    0.0000 Cl  0  0  0  0  0  0  0  0  0  0  0  0
   -3.8788    3.0396    0.0000 C   0  0  0  0  0  0  0  0  0  0  0  0
   -4.5928    1.7912    0.0000 C   0  0  0  0  0  0  0  0  0  0  0  0
   -3.8788   -0.2673    0.0000 C   0  0  0  0  0  0  0  0  0  0  0  0
   -4.5928   -0.6806    0.0000 C   0  0  0  0  0  0  0  0  0  0  0  0
   -4.5928    3.4404    0.0000 C   0  0  0  0  0  0  0  0  0  0  0  0
   -5.3068    2.2129    0.0000 C   0  0  0  0  0  0  0  0  0  0  0  0
   -5.3068    3.0271    0.0000 C   0  0  0  0  0  0  0  0  0  0  0  0
  2  1  1  0  0  0  0
  3  2  1  0  0  0  0
  4  1  1  0  0  0  0
  5  1  2  0  0  0  0
  6  7  1  0  0  0  0
  7  4  1  0  0  0  0
  8  9  1  0  0  0  0
  9 15  2  0  0  0  0
 10  5  1  0  0  0  0
 11  2  2  0  0  0  0
 12  5  1  0  0  0  0
 13 10  1  0  0  0  0
 14  3  1  0  0  0  0
 15 16  1  0  0  0  0
 16 13  1  0  0  0  0
 17 25  2  0  0  0  0
 18  4  2  0  0  0  0
 19  8  1  0  0  0  0
 20  7  1  0  0  0  0
 21  8  2  0  0  0  0
 22 13  2  0  0  0  0
 23 14  2  0  0  0  0
 24 16  2  0  0  0  0
 25 24  1  0  0  0  0
 26 14  1  0  0  0  0
 27 17  1  0  0  0  0
 28 20  2  0  0  0  0
 29 20  1  0  0  0  0
 30 26  1  0  0  0  0
 31 30  1  0  0  0  0
 32 28  1  0  0  0  0
 33 29  2  0  0  0  0
 34 33  1  0  0  0  0
 12 11  1  0  0  0  0
  6  3  2  0  0  0  0
 32 34  2  0  0  0  0
  9 17  1  0  0  0  0
M  CHG  2   8   1  19  -1
M  END
>  <IDNUMBER>
F0641-0072

>  <Chemical_Name>
ethyl 5-(4-chloro-3-nitrobenzamido)-4-oxo-3-phenyl-3H,4H-thieno[3,4-d]pyridazine-1-carboxylate

>  <PriceCoeff>
1.00

>  <CAS>
851947-38-1

>  <MW>
498.90

>  <Description>
solid

>  <FSP3>
0.09

>  <clogP>
3.93

>  <TPSA>
159.45

>  <Acceptor>
7

>  <Donor>
2

>  <RotBonds>
7

>  <HAC>
34

>  <Collection>
General

>  <PPDS>
+

$$$$
F0651-0071
  Mrv2219 10102508112D          

 24 26  0  0  0  0            999 V2000
    8.7542   -9.3417    0.0000 N   0  3  0  0  0  0  0  0  0  0  0  0
    8.7500   -8.5167    0.0000 C   0  0  0  0  0  0  0  0  0  0  0  0
    2.9625   -8.3792    0.0000 N   0  0  0  0  0  0  0  0  0  0  0  0
    8.0292   -8.1042    0.0000 C   0  0  0  0  0  0  0  0  0  0  0  0
    3.7417   -7.3000    0.0000 C   0  0  0  0  0  0  0  0  0  0  0  0
    2.4750   -7.7167    0.0000 C   0  0  0  0  0  0  0  0  0  0  0  0
    2.9542   -7.0500    0.0000 C   0  0  0  0  0  0  0  0  0  0  0  0
    3.7417   -8.1250    0.0000 C   0  0  0  0  0  0  0  0  0  0  0  0
    7.3167   -6.8750    0.0000 C   0  0  0  0  0  0  0  0  0  0  0  0
    8.0292   -7.2792    0.0000 C   0  0  0  0  0  0  0  0  0  0  0  0
    9.4667   -8.1000    0.0000 C   0  0  0  0  0  0  0  0  0  0  0  0
    6.6042   -7.2875    0.0000 N   0  0  0  0  0  0  0  0  0  0  0  0
    8.0417   -9.7625    0.0000 O   0  5  0  0  0  0  0  0  0  0  0  0
    9.4667   -9.7542    0.0000 O   0  0  0  0  0  0  0  0  0  0  0  0
    4.4542   -6.8792    0.0000 C   0  0  0  0  0  0  0  0  0  0  0  0
    7.3125   -6.0500    0.0000 O   0  0  0  0  0  0  0  0  0  0  0  0
    8.7417   -6.8667    0.0000 C   0  0  0  0  0  0  0  0  0  0  0  0
    4.4542   -8.5375    0.0000 C   0  0  0  0  0  0  0  0  0  0  0  0
    9.4625   -7.2667    0.0000 C   0  0  0  0  0  0  0  0  0  0  0  0
    5.1750   -7.2917    0.0000 C   0  0  0  0  0  0  0  0  0  0  0  0
    5.8875   -6.8792    0.0000 C   0  0  0  0  0  0  0  0  0  0  0  0
   10.1792   -8.5042    0.0000 Cl  0  0  0  0  0  0  0  0  0  0  0  0
    5.1750   -8.1250    0.0000 C   0  0  0  0  0  0  0  0  0  0  0  0
    1.6500   -7.7167    0.0000 C   0  0  0  0  0  0  0  0  0  0  0  0
  2  1  1  0  0  0  0
  3  8  1  0  0  0  0
  4  2  2  0  0  0  0
  5 15  1  0  0  0  0
  6  7  2  0  0  0  0
  7  5  1  0  0  0  0
  8 18  1  0  0  0  0
  9 10  1  0  0  0  0
 10  4  1  0  0  0  0
 11  2  1  0  0  0  0
 12  9  1  0  0  0  0
 13  1  1  0  0  0  0
 14  1  2  0  0  0  0
 15 20  2  0  0  0  0
 16  9  2  0  0  0  0
 17 19  1  0  0  0  0
 18 23  2  0  0  0  0
 19 11  2  0  0  0  0
 20 21  1  0  0  0  0
 21 12  1  0  0  0  0
 22 11  1  0  0  0  0
 23 20  1  0  0  0  0
 24  6  1  0  0  0  0
 17 10  2  0  0  0  0
  8  5  2  0  0  0  0
  3  6  1  0  0  0  0
M  CHG  2   1   1  13  -1
M  END
>  <IDNUMBER>
F0651-0071

>  <Chemical_Name>
4-chloro-N-[(2-methyl-1H-indol-5-yl)methyl]-3-nitrobenzamide

>  <PriceCoeff>
1.00

>  <CAS>
863001-90-5

>  <MW>
343.76

>  <Description>
solid

>  <FSP3>
0.12

>  <clogP>
4.13

>  <TPSA>
88.03

>  <Acceptor>
3

>  <Donor>
2

>  <RotBonds>
4

>  <HAC>
24

>  <Collection>
General

>  <PPDS>
+

$$$$
F0666-0192
  Mrv2219 10102508112D          

 33 36  0  0  0  0            999 V2000
   -1.7759    0.8148    0.0000 C   0  0  0  0  0  0  0  0  0  0  0  0
   -2.0391    1.6046    0.0000 C   0  0  0  0  0  0  0  0  0  0  0  0
   -2.4528    0.3343    0.0000 O   0  0  0  0  0  0  0  0  0  0  0  0
    0.7187    4.1786    0.0000 N   0  3  0  0  0  0  0  0  0  0  0  0
   -0.0961    4.2663    0.0000 C   0  0  0  0  0  0  0  0  0  0  0  0
   -0.9903    0.5599    0.0000 C   0  0  0  0  0  0  0  0  0  0  0  0
   -1.5502    2.2773    0.0000 N   0  0  0  0  0  0  0  0  0  0  0  0
   -2.8581    1.6004    0.0000 C   0  0  0  0  0  0  0  0  0  0  0  0
   -1.8887    3.0294    0.0000 C   0  0  0  0  0  0  0  0  0  0  0  0
   -3.1172    0.8148    0.0000 C   0  0  0  0  0  0  0  0  0  0  0  0
   -0.8231   -0.2424    0.0000 N   0  0  0  0  0  0  0  0  0  0  0  0
   -0.5892    3.6186    0.0000 C   0  0  0  0  0  0  0  0  0  0  0  0
   -1.4040    3.6938    0.0000 C   0  0  0  0  0  0  0  0  0  0  0  0
   -0.0376   -0.5014    0.0000 C   0  0  0  0  0  0  0  0  0  0  0  0
   -0.4345    5.0310    0.0000 C   0  0  0  0  0  0  0  0  0  0  0  0
    1.0572    3.4431    0.0000 O   0  5  0  0  0  0  0  0  0  0  0  0
    1.2076    4.8513    0.0000 O   0  0  0  0  0  0  0  0  0  0  0  0
   -0.3761    1.1157    0.0000 O   0  0  0  0  0  0  0  0  0  0  0  0
   -2.7077    3.1172    0.0000 O   0  0  0  0  0  0  0  0  0  0  0  0
   -1.7382    4.4418    0.0000 C   0  0  0  0  0  0  0  0  0  0  0  0
    0.1296   -1.2954    0.0000 C   0  0  0  0  0  0  0  0  0  0  0  0
   -1.2619    5.1062    0.0000 C   0  0  0  0  0  0  0  0  0  0  0  0
    0.0418    5.6954    0.0000 Cl  0  0  0  0  0  0  0  0  0  0  0  0
   -3.4097    2.2146    0.0000 C   0  0  0  0  0  0  0  0  0  0  0  0
   -0.4721   -1.8470    0.0000 O   0  0  0  0  0  0  0  0  0  0  0  0
   -3.9195    0.6476    0.0000 C   0  0  0  0  0  0  0  0  0  0  0  0
    0.5683    0.0585    0.0000 C   0  0  0  0  0  0  0  0  0  0  0  0
    0.9193   -1.5544    0.0000 C   0  0  0  0  0  0  0  0  0  0  0  0
   -0.3009   -2.6492    0.0000 C   0  0  0  0  0  0  0  0  0  0  0  0
   -4.2203    2.0433    0.0000 C   0  0  0  0  0  0  0  0  0  0  0  0
   -4.4710    1.2536    0.0000 C   0  0  0  0  0  0  0  0  0  0  0  0
    1.3581   -0.1922    0.0000 C   0  0  0  0  0  0  0  0  0  0  0  0
    1.5294   -1.0029    0.0000 C   0  0  0  0  0  0  0  0  0  0  0  0
  2  1  2  0  0  0  0
  3  1  1  0  0  0  0
  4  5  1  0  0  0  0
  5 12  2  0  0  0  0
  6  1  1  0  0  0  0
  7  2  1  0  0  0  0
  8  2  1  0  0  0  0
  9  7  1  0  0  0  0
 10  3  1  0  0  0  0
 11  6  1  0  0  0  0
 12 13  1  0  0  0  0
 13  9  1  0  0  0  0
 14 11  1  0  0  0  0
 15 22  2  0  0  0  0
 16  4  1  0  0  0  0
 17  4  2  0  0  0  0
 18  6  2  0  0  0  0
 19  9  2  0  0  0  0
 20 13  2  0  0  0  0
 21 14  1  0  0  0  0
 22 20  1  0  0  0  0
 23 15  1  0  0  0  0
 24  8  1  0  0  0  0
 25 21  1  0  0  0  0
 26 10  1  0  0  0  0
 27 14  2  0  0  0  0
 28 21  2  0  0  0  0
 29 25  1  0  0  0  0
 30 24  2  0  0  0  0
 31 26  2  0  0  0  0
 32 27  1  0  0  0  0
 33 32  2  0  0  0  0
  8 10  2  0  0  0  0
 31 30  1  0  0  0  0
 33 28  1  0  0  0  0
  5 15  1  0  0  0  0
M  CHG  2   4   1  16  -1
M  END
>  <IDNUMBER>
F0666-0192

>  <Chemical_Name>
3-(4-chloro-3-nitrobenzamido)-N-(2-methoxyphenyl)-1-benzofuran-2-carboxamide

>  <PriceCoeff>
1.00

>  <CAS>
887891-88-5

>  <MW>
465.84

>  <Description>
solid

>  <FSP3>
0.04

>  <clogP>
4.37

>  <TPSA>
123.71

>  <Acceptor>
6

>  <Donor>
2

>  <RotBonds>
6

>  <HAC>
33

>  <Collection>
General

>  <PPDS>
+

$$$$
F0675-0061
  Mrv2219 10102508112D          

 19 20  0  0  0  0            999 V2000
   -2.0314    2.2780    0.0000 C   0  0  0  0  0  0  0  0  0  0  0  0
   -1.7890    1.4880    0.0000 C   0  0  0  0  0  0  0  0  0  0  0  0
   -1.5507    2.9426    0.0000 C   0  0  0  0  0  0  0  0  0  0  0  0
   -2.4536    1.0032    0.0000 N   0  0  0  0  0  0  0  0  0  0  0  0
   -2.8591    2.2780    0.0000 C   0  0  0  0  0  0  0  0  0  0  0  0
   -0.7230    2.8549    0.0000 C   0  0  0  0  0  0  0  0  0  0  0  0
   -3.1182    1.4922    0.0000 C   0  0  0  0  0  0  0  0  0  0  0  0
   -1.8809    3.6992    0.0000 O   0  0  0  0  0  0  0  0  0  0  0  0
   -0.3887    2.1024    0.0000 O   0  0  0  0  0  0  0  0  0  0  0  0
   -0.2382    3.5194    0.0000 N   0  0  0  0  0  0  0  0  0  0  0  0
   -0.5726    4.2677    0.0000 C   0  0  0  0  0  0  0  0  0  0  0  0
   -3.4066    2.8925    0.0000 C   0  0  0  0  0  0  0  0  0  0  0  0
   -3.9250    1.3250    0.0000 C   0  0  0  0  0  0  0  0  0  0  0  0
   -0.0836    4.9323    0.0000 C   0  0  0  0  0  0  0  0  0  0  0  0
   -0.4221    5.6847    0.0000 C   0  0  0  0  0  0  0  0  0  0  0  0
   -4.2217    2.7211    0.0000 C   0  0  0  0  0  0  0  0  0  0  0  0
    0.0669    6.3618    0.0000 C   0  0  0  0  0  0  0  0  0  0  0  0
   -1.2372    5.7808    0.0000 C   0  0  0  0  0  0  0  0  0  0  0  0
   -4.4725    1.9394    0.0000 C   0  0  0  0  0  0  0  0  0  0  0  0
  2  1  2  0  0  0  0
  3  1  1  0  0  0  0
  4  2  1  0  0  0  0
  5  1  1  0  0  0  0
  6  3  1  0  0  0  0
  7  5  2  0  0  0  0
  8  3  2  0  0  0  0
  9  6  2  0  0  0  0
 10  6  1  0  0  0  0
 11 10  1  0  0  0  0
 12  5  1  0  0  0  0
 13  7  1  0  0  0  0
 14 11  1  0  0  0  0
 15 14  1  0  0  0  0
 16 12  2  0  0  0  0
 17 15  1  0  0  0  0
 18 15  1  0  0  0  0
 19 16  1  0  0  0  0
  7  4  1  0  0  0  0
 19 13  2  0  0  0  0
M  END
>  <IDNUMBER>
F0675-0061

>  <Chemical_Name>
2-(1H-indol-3-yl)-N-(3-methylbutyl)-2-oxoacetamide

>  <PriceCoeff>
1.00

>  <CAS>
852367-28-3

>  <MW>
258.32

>  <Description>
solid

>  <FSP3>
0.33

>  <clogP>
2.92

>  <TPSA>
61.96

>  <Acceptor>
2

>  <Donor>
2

>  <RotBonds>
5

>  <HAC>
19

>  <Collection>
General

>  <PPDS>
+

$$$$
F0675-0110
  Mrv2219 10102508112D          

 19 20  0  0  0  0            999 V2000
   -2.0312    2.2777    0.0000 C   0  0  0  0  0  0  0  0  0  0  0  0
   -1.7888    1.4878    0.0000 C   0  0  0  0  0  0  0  0  0  0  0  0
   -1.5505    2.9422    0.0000 C   0  0  0  0  0  0  0  0  0  0  0  0
   -2.4532    1.0030    0.0000 N   0  0  0  0  0  0  0  0  0  0  0  0
   -2.8587    2.2777    0.0000 C   0  0  0  0  0  0  0  0  0  0  0  0
   -0.7229    2.8545    0.0000 C   0  0  0  0  0  0  0  0  0  0  0  0
   -3.1178    1.4920    0.0000 C   0  0  0  0  0  0  0  0  0  0  0  0
   -1.8807    3.6987    0.0000 O   0  0  0  0  0  0  0  0  0  0  0  0
   -0.3887    2.1022    0.0000 O   0  0  0  0  0  0  0  0  0  0  0  0
   -0.2382    3.5189    0.0000 N   0  0  0  0  0  0  0  0  0  0  0  0
   -3.4062    2.8921    0.0000 C   0  0  0  0  0  0  0  0  0  0  0  0
   -3.9244    1.3248    0.0000 C   0  0  0  0  0  0  0  0  0  0  0  0
   -0.5726    4.2755    0.0000 C   0  0  0  0  0  0  0  0  0  0  0  0
   -0.0878    4.9441    0.0000 C   0  0  0  0  0  0  0  0  0  0  0  0
    0.0544    6.3609    0.0000 C   0  0  0  0  0  0  0  0  0  0  0  0
   -0.4263    5.6965    0.0000 C   0  0  0  0  0  0  0  0  0  0  0  0
   -4.2211    2.7207    0.0000 C   0  0  0  0  0  0  0  0  0  0  0  0
   -0.2842    7.1133    0.0000 C   0  0  0  0  0  0  0  0  0  0  0  0
   -4.4719    1.9392    0.0000 C   0  0  0  0  0  0  0  0  0  0  0  0
  2  1  2  0  0  0  0
  3  1  1  0  0  0  0
  4  2  1  0  0  0  0
  5  1  1  0  0  0  0
  6  3  1  0  0  0  0
  7  5  2  0  0  0  0
  8  3  2  0  0  0  0
  9  6  2  0  0  0  0
 10  6  1  0  0  0  0
 11  5  1  0  0  0  0
 12  7  1  0  0  0  0
 13 10  1  0  0  0  0
 14 13  1  0  0  0  0
 15 16  1  0  0  0  0
 16 14  1  0  0  0  0
 17 11  2  0  0  0  0
 18 15  1  0  0  0  0
 19 17  1  0  0  0  0
  7  4  1  0  0  0  0
 19 12  2  0  0  0  0
M  END
>  <IDNUMBER>
F0675-0110

>  <Chemical_Name>
2-(1H-indol-3-yl)-2-oxo-N-pentylacetamide

>  <PriceCoeff>
1.00

>  <CAS>
852367-55-6

>  <MW>
258.32

>  <Description>
solid

>  <FSP3>
0.33

>  <clogP>
3.05

>  <TPSA>
61.96

>  <Acceptor>
2

>  <Donor>
2

>  <RotBonds>
6

>  <HAC>
19

>  <Collection>
General

>  <PPDS>
+

$$$$
F0694-0218
  Mrv2219 10102508112D          

 28 31  0  0  0  0            999 V2000
   -4.5920    6.6976    0.0000 C   0  0  0  0  0  0  0  0  0  0  0  0
   -5.3580    6.3668    0.0000 S   0  0  0  0  0  0  0  0  0  0  0  0
   -5.3078    1.3520    0.0000 N   0  3  0  0  0  0  0  0  0  0  0  0
   -4.6799    7.5347    0.0000 N   0  0  0  0  0  0  0  0  0  0  0  0
   -4.5920    1.7581    0.0000 C   0  0  0  0  0  0  0  0  0  0  0  0
   -5.9105    6.9864    0.0000 C   0  0  0  0  0  0  0  0  0  0  0  0
   -3.8887    3.8176    0.0000 C   0  0  0  0  0  0  0  0  0  0  0  0
   -4.6045    2.5827    0.0000 C   0  0  0  0  0  0  0  0  0  0  0  0
   -5.4961    7.7022    0.0000 C   0  0  0  0  0  0  0  0  0  0  0  0
   -3.8887    2.9971    0.0000 C   0  0  0  0  0  0  0  0  0  0  0  0
   -3.1729    4.2237    0.0000 N   0  0  0  0  0  0  0  0  0  0  0  0
   -3.8804    6.2832    0.0000 C   0  0  0  0  0  0  0  0  0  0  0  0
   -3.8762    1.3437    0.0000 C   0  0  0  0  0  0  0  0  0  0  0  0
   -6.0236    1.7664    0.0000 O   0  5  0  0  0  0  0  0  0  0  0  0
   -6.7352    6.9864    0.0000 N   0  0  0  0  0  0  0  0  0  0  0  0
   -5.3078    0.5358    0.0000 O   0  0  0  0  0  0  0  0  0  0  0  0
   -3.1729    5.0525    0.0000 C   0  0  0  0  0  0  0  0  0  0  0  0
   -3.8887    5.4669    0.0000 C   0  0  0  0  0  0  0  0  0  0  0  0
   -4.6045    4.2237    0.0000 O   0  0  0  0  0  0  0  0  0  0  0  0
   -3.1646    2.5827    0.0000 C   0  0  0  0  0  0  0  0  0  0  0  0
   -3.1646    1.7581    0.0000 C   0  0  0  0  0  0  0  0  0  0  0  0
   -3.8804    0.5232    0.0000 Cl  0  0  0  0  0  0  0  0  0  0  0  0
   -3.1729    6.7059    0.0000 C   0  0  0  0  0  0  0  0  0  0  0  0
   -5.9105    8.4180    0.0000 C   0  0  0  0  0  0  0  0  0  0  0  0
   -2.4571    6.2957    0.0000 C   0  0  0  0  0  0  0  0  0  0  0  0
   -7.1371    7.7022    0.0000 C   0  0  0  0  0  0  0  0  0  0  0  0
   -2.4571    5.4627    0.0000 C   0  0  0  0  0  0  0  0  0  0  0  0
   -6.7227    8.4180    0.0000 C   0  0  0  0  0  0  0  0  0  0  0  0
  2  1  1  0  0  0  0
  3  5  1  0  0  0  0
  4  1  2  0  0  0  0
  5  8  1  0  0  0  0
  6  2  1  0  0  0  0
  7 11  1  0  0  0  0
  8 10  2  0  0  0  0
  9  4  1  0  0  0  0
 10  7  1  0  0  0  0
 11 17  1  0  0  0  0
 12  1  1  0  0  0  0
 13 21  1  0  0  0  0
 14  3  1  0  0  0  0
 15  6  2  0  0  0  0
 16  3  2  0  0  0  0
 17 18  1  0  0  0  0
 18 12  2  0  0  0  0
 19  7  2  0  0  0  0
 20 10  1  0  0  0  0
 21 20  2  0  0  0  0
 22 13  1  0  0  0  0
 23 12  1  0  0  0  0
 24  9  2  0  0  0  0
 25 23  2  0  0  0  0
 26 15  1  0  0  0  0
 27 25  1  0  0  0  0
 28 24  1  0  0  0  0
  9  6  1  0  0  0  0
 27 17  2  0  0  0  0
 26 28  2  0  0  0  0
 13  5  2  0  0  0  0
M  CHG  2   3   1  14  -1
M  END
>  <IDNUMBER>
F0694-0218

>  <Chemical_Name>
4-chloro-3-nitro-N-(3-{[1,3]thiazolo[5,4-b]pyridin-2-yl}phenyl)benzamide

>  <PriceCoeff>
1.00

>  <CAS>
896679-61-1

>  <MW>
410.83

>  <Description>
solid

>  <FSP3>
0.00

>  <clogP>
4.44

>  <TPSA>
126.26

>  <Acceptor>
5

>  <Donor>
2

>  <RotBonds>
4

>  <HAC>
28

>  <Collection>
General

>  <PPDS>
+

$$$$
F0700-0021
  Mrv2219 10102508112D          

 27 30  0  0  0  0            999 V2000
    3.0354    0.0392    0.0000 N   0  0  0  0  0  0  0  0  0  0  0  0
   -1.5544   -0.7258    0.0000 C   0  0  0  0  0  0  0  0  0  0  0  0
   -2.0987   -1.3387    0.0000 N   0  0  0  0  0  0  0  0  0  0  0  0
   -2.8490   -1.0053    0.0000 C   0  0  0  0  0  0  0  0  0  0  0  0
   -0.7061   -0.7258    0.0000 N   0  0  0  0  0  0  0  0  0  0  0  0
   -0.3089    0.0000    0.0000 C   0  0  0  0  0  0  0  0  0  0  0  0
    3.5062    0.7453    0.0000 C   0  0  0  0  0  0  0  0  0  0  0  0
    3.5159   -0.6081    0.0000 C   0  0  0  0  0  0  0  0  0  0  0  0
   -1.9566    0.0000    0.0000 S   0  0  0  0  0  0  0  0  0  0  0  0
   -2.7804   -0.1815    0.0000 C   0  0  0  0  0  0  0  0  0  0  0  0
    2.2116    0.0000    0.0000 C   0  0  0  0  0  0  0  0  0  0  0  0
   -3.5551   -1.4760    0.0000 C   0  0  0  0  0  0  0  0  0  0  0  0
    0.5345    0.0000    0.0000 C   0  0  0  0  0  0  0  0  0  0  0  0
   -3.5110   -2.2999    0.0000 N   0  0  0  0  0  0  0  0  0  0  0  0
   -0.7061    0.7306    0.0000 O   0  0  0  0  0  0  0  0  0  0  0  0
    4.3006    0.4511    0.0000 C   0  0  0  0  0  0  0  0  0  0  0  0
    4.3006   -0.3580    0.0000 C   0  0  0  0  0  0  0  0  0  0  0  0
    3.2120    1.5691    0.0000 O   0  0  0  0  0  0  0  0  0  0  0  0
    3.2217   -1.4172    0.0000 O   0  0  0  0  0  0  0  0  0  0  0  0
    1.7850    0.7061    0.0000 C   0  0  0  0  0  0  0  0  0  0  0  0
    1.7850   -0.7503    0.0000 C   0  0  0  0  0  0  0  0  0  0  0  0
    0.9612   -0.7503    0.0000 C   0  0  0  0  0  0  0  0  0  0  0  0
    0.9612    0.7061    0.0000 C   0  0  0  0  0  0  0  0  0  0  0  0
   -4.1926   -2.7510    0.0000 C   0  0  0  0  0  0  0  0  0  0  0  0
   -4.2907   -1.1033    0.0000 C   0  0  0  0  0  0  0  0  0  0  0  0
   -4.9233   -2.3734    0.0000 C   0  0  0  0  0  0  0  0  0  0  0  0
   -4.9674   -1.5496    0.0000 C   0  0  0  0  0  0  0  0  0  0  0  0
  2  5  1  0  0  0  0
  3  2  2  0  0  0  0
  4  3  1  0  0  0  0
  5  6  1  0  0  0  0
  6 13  1  0  0  0  0
  7  1  1  0  0  0  0
  8  1  1  0  0  0  0
  9  2  1  0  0  0  0
 10  9  1  0  0  0  0
 11  1  1  0  0  0  0
 12  4  1  0  0  0  0
 13 22  2  0  0  0  0
 14 12  1  0  0  0  0
 15  6  2  0  0  0  0
 16  7  1  0  0  0  0
 17  8  1  0  0  0  0
 18  7  2  0  0  0  0
 19  8  2  0  0  0  0
 20 11  1  0  0  0  0
 21 11  2  0  0  0  0
 22 21  1  0  0  0  0
 23 20  2  0  0  0  0
 24 14  2  0  0  0  0
 25 12  2  0  0  0  0
 26 27  2  0  0  0  0
 27 25  1  0  0  0  0
 16 17  1  0  0  0  0
 23 13  1  0  0  0  0
 10  4  2  0  0  0  0
 26 24  1  0  0  0  0
M  END
>  <IDNUMBER>
F0700-0021

>  <Chemical_Name>
4-(2,5-dioxopyrrolidin-1-yl)-N-[4-(pyridin-2-yl)-1,3-thiazol-2-yl]benzamide

>  <PriceCoeff>
1.00

>  <CAS>
361479-24-5

>  <MW>
378.40

>  <Description>
solid

>  <FSP3>
0.11

>  <clogP>
0.95

>  <TPSA>
120.50

>  <Acceptor>
5

>  <Donor>
2

>  <RotBonds>
4

>  <HAC>
27

>  <Collection>
General

>  <PPDS>
+

$$$$
F0700-0029
  Mrv2219 10102508112D          

 22 24  0  0  0  0            999 V2000
    1.5373    1.4866    0.0000 N   0  0  0  0  0  0  0  0  0  0  0  0
   -2.1397    1.5485    0.0000 N   0  0  0  0  0  0  0  0  0  0  0  0
   -1.3458    1.7738    0.0000 C   0  0  0  0  0  0  0  0  0  0  0  0
   -2.5959    2.2299    0.0000 C   0  0  0  0  0  0  0  0  0  0  0  0
   -0.6532    1.2782    0.0000 N   0  0  0  0  0  0  0  0  0  0  0  0
    1.7569    2.2749    0.0000 C   0  0  0  0  0  0  0  0  0  0  0  0
    2.2018    1.0305    0.0000 C   0  0  0  0  0  0  0  0  0  0  0  0
   -1.3008    2.5621    0.0000 S   0  0  0  0  0  0  0  0  0  0  0  0
   -2.0722    2.8549    0.0000 C   0  0  0  0  0  0  0  0  0  0  0  0
    0.1070    1.6161    0.0000 C   0  0  0  0  0  0  0  0  0  0  0  0
    0.7490    1.1262    0.0000 C   0  0  0  0  0  0  0  0  0  0  0  0
   -3.4462    2.2299    0.0000 C   0  0  0  0  0  0  0  0  0  0  0  0
   -3.8685    1.5316    0.0000 N   0  0  0  0  0  0  0  0  0  0  0  0
    2.6072    2.2749    0.0000 C   0  0  0  0  0  0  0  0  0  0  0  0
    2.8437    1.5485    0.0000 C   0  0  0  0  0  0  0  0  0  0  0  0
    1.2558    2.9675    0.0000 O   0  0  0  0  0  0  0  0  0  0  0  0
    2.2130    0.1801    0.0000 O   0  0  0  0  0  0  0  0  0  0  0  0
    0.1577    2.4269    0.0000 O   0  0  0  0  0  0  0  0  0  0  0  0
   -4.6794    1.5147    0.0000 C   0  0  0  0  0  0  0  0  0  0  0  0
   -3.8291    2.9506    0.0000 C   0  0  0  0  0  0  0  0  0  0  0  0
   -5.1298    2.2468    0.0000 C   0  0  0  0  0  0  0  0  0  0  0  0
   -4.6794    2.9506    0.0000 C   0  0  0  0  0  0  0  0  0  0  0  0
  2  3  2  0  0  0  0
  3  5  1  0  0  0  0
  4  2  1  0  0  0  0
  5 10  1  0  0  0  0
  6  1  1  0  0  0  0
  7  1  1  0  0  0  0
  8  3  1  0  0  0  0
  9  8  1  0  0  0  0
 10 11  1  0  0  0  0
 11  1  1  0  0  0  0
 12  4  1  0  0  0  0
 13 12  1  0  0  0  0
 14  6  1  0  0  0  0
 15  7  1  0  0  0  0
 16  6  2  0  0  0  0
 17  7  2  0  0  0  0
 18 10  2  0  0  0  0
 19 13  2  0  0  0  0
 20 12  2  0  0  0  0
 21 22  2  0  0  0  0
 22 20  1  0  0  0  0
 14 15  1  0  0  0  0
  9  4  2  0  0  0  0
 21 19  1  0  0  0  0
M  END
>  <IDNUMBER>
F0700-0029

>  <Chemical_Name>
2-(2,5-dioxopyrrolidin-1-yl)-N-[4-(pyridin-2-yl)-1,3-thiazol-2-yl]acetamide

>  <PriceCoeff>
1.00

>  <MW>
316.34

>  <Description>
solid

>  <FSP3>
0.21

>  <clogP>
0.77

>  <TPSA>
84.58

>  <Acceptor>
5

>  <Donor>
2

>  <RotBonds>
4

>  <HAC>
22

>  <Collection>
General

$$$$
F0700-0132
  Mrv2219 10102508112D          

 22 24  0  0  0  0            999 V2000
   -0.5454    1.8371    0.0000 N   0  0  0  0  0  0  0  0  0  0  0  0
   -5.5056    0.9243    0.0000 C   0  0  0  0  0  0  0  0  0  0  0  0
   -5.4539    1.7223    0.0000 N   0  0  0  0  0  0  0  0  0  0  0  0
   -4.7822    0.5970    0.0000 S   0  0  0  0  0  0  0  0  0  0  0  0
    0.3158    1.8084    0.0000 C   0  0  0  0  0  0  0  0  0  0  0  0
   -0.7578    2.6121    0.0000 C   0  0  0  0  0  0  0  0  0  0  0  0
   -4.2311    1.1998    0.0000 C   0  0  0  0  0  0  0  0  0  0  0  0
   -4.6444    1.9232    0.0000 C   0  0  0  0  0  0  0  0  0  0  0  0
   -1.7854    1.1712    0.0000 C   0  0  0  0  0  0  0  0  0  0  0  0
   -0.9587    1.1482    0.0000 C   0  0  0  0  0  0  0  0  0  0  0  0
   -3.4044    1.1998    0.0000 C   0  0  0  0  0  0  0  0  0  0  0  0
   -2.1643    1.8888    0.0000 N   0  0  0  0  0  0  0  0  0  0  0  0
   -2.9910    1.9232    0.0000 C   0  0  0  0  0  0  0  0  0  0  0  0
    0.5569    2.5777    0.0000 C   0  0  0  0  0  0  0  0  0  0  0  0
   -0.0976    3.0771    0.0000 C   0  0  0  0  0  0  0  0  0  0  0  0
    0.8095    1.1195    0.0000 O   0  0  0  0  0  0  0  0  0  0  0  0
   -1.5615    2.9107    0.0000 O   0  0  0  0  0  0  0  0  0  0  0  0
   -2.1988    0.4822    0.0000 O   0  0  0  0  0  0  0  0  0  0  0  0
   -6.2290    0.4822    0.0000 S   0  0  0  0  0  0  0  0  0  0  0  0
   -4.2311    2.6351    0.0000 C   0  0  0  0  0  0  0  0  0  0  0  0
   -3.4044    2.6351    0.0000 C   0  0  0  0  0  0  0  0  0  0  0  0
   -6.9581    0.8726    0.0000 C   0  0  0  0  0  0  0  0  0  0  0  0
  2  4  1  0  0  0  0
  3  8  1  0  0  0  0
  4  7  1  0  0  0  0
  5  1  1  0  0  0  0
  6  1  1  0  0  0  0
  7 11  1  0  0  0  0
  8 20  1  0  0  0  0
  9 10  1  0  0  0  0
 10  1  1  0  0  0  0
 11 13  2  0  0  0  0
 12  9  1  0  0  0  0
 13 12  1  0  0  0  0
 14  5  1  0  0  0  0
 15  6  1  0  0  0  0
 16  5  2  0  0  0  0
 17  6  2  0  0  0  0
 18  9  2  0  0  0  0
 19  2  1  0  0  0  0
 20 21  2  0  0  0  0
 21 13  1  0  0  0  0
 22 19  1  0  0  0  0
 14 15  1  0  0  0  0
  7  8  2  0  0  0  0
  2  3  2  0  0  0  0
M  END
>  <IDNUMBER>
F0700-0132

>  <Chemical_Name>
2-(2,5-dioxopyrrolidin-1-yl)-N-[2-(methylsulfanyl)-1,3-benzothiazol-6-yl]acetamide

>  <PriceCoeff>
1.00

>  <CAS>
393837-50-8

>  <MW>
335.40

>  <Description>
solid

>  <FSP3>
0.29

>  <clogP>
2.37

>  <TPSA>
132.91

>  <Acceptor>
4

>  <Donor>
1

>  <RotBonds>
4

>  <HAC>
22

>  <Collection>
General

>  <PPDS>
+

$$$$
F0700-0133
  Mrv2219 10102508112D          

 25 27  0  0  0  0            999 V2000
   -3.0848    2.1461    0.0000 C   0  0  0  0  0  0  0  0  0  0  0  0
   -0.6217    0.7353    0.0000 N   0  0  0  0  0  0  0  0  0  0  0  0
   -3.5451    1.4826    0.0000 N   0  0  0  0  0  0  0  0  0  0  0  0
   -4.3521    1.7157    0.0000 C   0  0  0  0  0  0  0  0  0  0  0  0
   -6.5043    3.0070    0.0000 N   0  3  0  0  0  0  0  0  0  0  0  0
   -4.3521    2.5407    0.0000 C   0  0  0  0  0  0  0  0  0  0  0  0
   -3.5451    2.8097    0.0000 S   0  0  0  0  0  0  0  0  0  0  0  0
   -2.2538    2.1701    0.0000 N   0  0  0  0  0  0  0  0  0  0  0  0
   -5.7869    2.5407    0.0000 C   0  0  0  0  0  0  0  0  0  0  0  0
   -0.8548   -0.0717    0.0000 C   0  0  0  0  0  0  0  0  0  0  0  0
    0.2152    0.7353    0.0000 C   0  0  0  0  0  0  0  0  0  0  0  0
   -5.0695    2.9711    0.0000 C   0  0  0  0  0  0  0  0  0  0  0  0
   -5.0695    1.3092    0.0000 C   0  0  0  0  0  0  0  0  0  0  0  0
   -1.8592    1.4527    0.0000 C   0  0  0  0  0  0  0  0  0  0  0  0
   -5.7869    1.7157    0.0000 C   0  0  0  0  0  0  0  0  0  0  0  0
   -1.0223    1.4527    0.0000 C   0  0  0  0  0  0  0  0  0  0  0  0
   -6.5043    3.8320    0.0000 O   0  5  0  0  0  0  0  0  0  0  0  0
   -7.2217    2.6005    0.0000 O   0  0  0  0  0  0  0  0  0  0  0  0
   -0.1913   -0.5261    0.0000 C   0  0  0  0  0  0  0  0  0  0  0  0
    0.4723   -0.0717    0.0000 C   0  0  0  0  0  0  0  0  0  0  0  0
   -1.6500   -0.3827    0.0000 O   0  0  0  0  0  0  0  0  0  0  0  0
    0.7234    1.3929    0.0000 O   0  0  0  0  0  0  0  0  0  0  0  0
   -2.2538    0.7353    0.0000 O   0  0  0  0  0  0  0  0  0  0  0  0
   -5.0695    0.4782    0.0000 O   0  0  0  0  0  0  0  0  0  0  0  0
   -4.3521    0.0478    0.0000 C   0  0  0  0  0  0  0  0  0  0  0  0
  2 16  1  0  0  0  0
  3  1  2  0  0  0  0
  4  3  1  0  0  0  0
  5  9  1  0  0  0  0
  6  7  1  0  0  0  0
  7  1  1  0  0  0  0
  8  1  1  0  0  0  0
  9 12  2  0  0  0  0
 10  2  1  0  0  0  0
 11  2  1  0  0  0  0
 12  6  1  0  0  0  0
 13  4  1  0  0  0  0
 14  8  1  0  0  0  0
 15 13  2  0  0  0  0
 16 14  1  0  0  0  0
 17  5  1  0  0  0  0
 18  5  2  0  0  0  0
 19 10  1  0  0  0  0
 20 11  1  0  0  0  0
 21 10  2  0  0  0  0
 22 11  2  0  0  0  0
 23 14  2  0  0  0  0
 24 13  1  0  0  0  0
 25 24  1  0  0  0  0
  4  6  2  0  0  0  0
 15  9  1  0  0  0  0
 19 20  1  0  0  0  0
M  CHG  2   5   1  17  -1
M  END
>  <IDNUMBER>
F0700-0133

>  <Chemical_Name>
2-(2,5-dioxopyrrolidin-1-yl)-N-(4-methoxy-6-nitro-1,3-benzothiazol-2-yl)acetamide

>  <PriceCoeff>
1.00

>  <CAS>
477280-52-7

>  <MW>
364.33

>  <Description>
solid

>  <FSP3>
0.29

>  <clogP>
1.57

>  <TPSA>
159.98

>  <Acceptor>
7

>  <Donor>
1

>  <RotBonds>
5

>  <HAC>
25

>  <Collection>
General

>  <PPDS>
+

$$$$
F0700-0135
  Mrv2219 10102508112D          

 23 25  0  0  0  0            999 V2000
   -3.2071    2.5866    0.0000 C   0  0  0  0  0  0  0  0  0  0  0  0
   -1.9714    2.1691    0.0000 C   0  0  0  0  0  0  0  0  0  0  0  0
    0.4613    0.6370    0.0000 N   0  0  0  0  0  0  0  0  0  0  0  0
   -3.2071    1.7737    0.0000 C   0  0  0  0  0  0  0  0  0  0  0  0
   -2.4383    1.5101    0.0000 N   0  0  0  0  0  0  0  0  0  0  0  0
   -2.4383    2.8501    0.0000 S   0  0  0  0  0  0  0  0  0  0  0  0
   -1.1203    2.1088    0.0000 N   0  0  0  0  0  0  0  0  0  0  0  0
   -3.9155    3.0094    0.0000 C   0  0  0  0  0  0  0  0  0  0  0  0
    1.2521    0.4228    0.0000 C   0  0  0  0  0  0  0  0  0  0  0  0
    0.0055   -0.0714    0.0000 C   0  0  0  0  0  0  0  0  0  0  0  0
   -0.7523    1.4004    0.0000 C   0  0  0  0  0  0  0  0  0  0  0  0
    0.0659    1.3454    0.0000 C   0  0  0  0  0  0  0  0  0  0  0  0
   -3.9155    1.3454    0.0000 C   0  0  0  0  0  0  0  0  0  0  0  0
   -4.6294    1.7737    0.0000 C   0  0  0  0  0  0  0  0  0  0  0  0
   -4.6294    2.5866    0.0000 C   0  0  0  0  0  0  0  0  0  0  0  0
   -3.9155    3.8222    0.0000 O   0  0  0  0  0  0  0  0  0  0  0  0
    1.3015   -0.4174    0.0000 C   0  0  0  0  0  0  0  0  0  0  0  0
    0.5327   -0.7084    0.0000 C   0  0  0  0  0  0  0  0  0  0  0  0
    1.9111    0.9500    0.0000 O   0  0  0  0  0  0  0  0  0  0  0  0
   -0.8347   -0.1538    0.0000 O   0  0  0  0  0  0  0  0  0  0  0  0
   -1.1807    0.6864    0.0000 O   0  0  0  0  0  0  0  0  0  0  0  0
   -5.4476    1.9770    0.0000 C   0  0  0  0  0  0  0  0  0  0  0  0
   -4.8381    0.9830    0.0000 C   0  0  0  0  0  0  0  0  0  0  0  0
  2  6  1  0  0  0  0
  3 12  1  0  0  0  0
  4  1  2  0  0  0  0
  5  4  1  0  0  0  0
  6  1  1  0  0  0  0
  7  2  1  0  0  0  0
  8  1  1  0  0  0  0
  9  3  1  0  0  0  0
 10  3  1  0  0  0  0
 11  7  1  0  0  0  0
 12 11  1  0  0  0  0
 13  4  1  0  0  0  0
 14 15  1  0  0  0  0
 15  8  1  0  0  0  0
 16  8  2  0  0  0  0
 17  9  1  0  0  0  0
 18 10  1  0  0  0  0
 19  9  2  0  0  0  0
 20 10  2  0  0  0  0
 21 11  2  0  0  0  0
 22 14  1  0  0  0  0
 23 14  1  0  0  0  0
  5  2  2  0  0  0  0
 13 14  1  0  0  0  0
 18 17  1  0  0  0  0
M  END
>  <IDNUMBER>
F0700-0135

>  <Chemical_Name>
N-(5,5-dimethyl-7-oxo-4,5,6,7-tetrahydro-1,3-benzothiazol-2-yl)-2-(2,5-dioxopyrrolidin-1-yl)acetamide

>  <PriceCoeff>
1.00

>  <CAS>
393837-51-9

>  <MW>
335.38

>  <Description>
solid

>  <FSP3>
0.53

>  <clogP>
1.26

>  <TPSA>
124.68

>  <Acceptor>
5

>  <Donor>
1

>  <RotBonds>
3

>  <HAC>
23

>  <Collection>
General

$$$$
F0700-0136
  Mrv2219 10102508112D          

 27 30  0  0  0  0            999 V2000
   -3.3039    1.4291    0.0000 C   0  0  0  0  0  0  0  0  0  0  0  0
    1.2445    3.4724    0.0000 N   0  0  0  0  0  0  0  0  0  0  0  0
   -3.7441    0.7770    0.0000 N   0  0  0  0  0  0  0  0  0  0  0  0
   -2.4725    1.4291    0.0000 C   0  0  0  0  0  0  0  0  0  0  0  0
   -3.7604    2.0867    0.0000 S   0  0  0  0  0  0  0  0  0  0  0  0
    1.8259    4.0701    0.0000 C   0  0  0  0  0  0  0  0  0  0  0  0
    1.6520    2.7388    0.0000 C   0  0  0  0  0  0  0  0  0  0  0  0
   -4.5592    0.9944    0.0000 C   0  0  0  0  0  0  0  0  0  0  0  0
   -0.0163    2.7822    0.0000 C   0  0  0  0  0  0  0  0  0  0  0  0
   -4.5646    1.8422    0.0000 C   0  0  0  0  0  0  0  0  0  0  0  0
    0.4293    3.4724    0.0000 C   0  0  0  0  0  0  0  0  0  0  0  0
   -2.0649    0.7118    0.0000 C   0  0  0  0  0  0  0  0  0  0  0  0
   -2.0378    2.1464    0.0000 C   0  0  0  0  0  0  0  0  0  0  0  0
   -0.8096    2.8040    0.0000 N   0  0  0  0  0  0  0  0  0  0  0  0
   -1.2335    2.1138    0.0000 C   0  0  0  0  0  0  0  0  0  0  0  0
    2.4616    2.8963    0.0000 C   0  0  0  0  0  0  0  0  0  0  0  0
    2.5812    3.7114    0.0000 C   0  0  0  0  0  0  0  0  0  0  0  0
    1.3097    1.9726    0.0000 O   0  0  0  0  0  0  0  0  0  0  0  0
    1.6791    4.9178    0.0000 O   0  0  0  0  0  0  0  0  0  0  0  0
    0.3967    2.0867    0.0000 O   0  0  0  0  0  0  0  0  0  0  0  0
   -1.2661    0.7118    0.0000 C   0  0  0  0  0  0  0  0  0  0  0  0
   -0.8422    1.4128    0.0000 C   0  0  0  0  0  0  0  0  0  0  0  0
   -2.4725   -0.0055    0.0000 O   0  0  0  0  0  0  0  0  0  0  0  0
   -5.2439    0.5814    0.0000 C   0  0  0  0  0  0  0  0  0  0  0  0
   -5.2765    2.2768    0.0000 C   0  0  0  0  0  0  0  0  0  0  0  0
   -5.9993    1.8422    0.0000 C   0  0  0  0  0  0  0  0  0  0  0  0
   -5.9938    0.9781    0.0000 C   0  0  0  0  0  0  0  0  0  0  0  0
  2 11  1  0  0  0  0
  3  1  2  0  0  0  0
  4  1  1  0  0  0  0
  5  1  1  0  0  0  0
  6  2  1  0  0  0  0
  7  2  1  0  0  0  0
  8  3  1  0  0  0  0
  9 14  1  0  0  0  0
 10  5  1  0  0  0  0
 11  9  1  0  0  0  0
 12  4  2  0  0  0  0
 13  4  1  0  0  0  0
 14 15  1  0  0  0  0
 15 13  2  0  0  0  0
 16  7  1  0  0  0  0
 17  6  1  0  0  0  0
 18  7  2  0  0  0  0
 19  6  2  0  0  0  0
 20  9  2  0  0  0  0
 21 12  1  0  0  0  0
 22 15  1  0  0  0  0
 23 12  1  0  0  0  0
 24  8  1  0  0  0  0
 25 10  1  0  0  0  0
 26 25  2  0  0  0  0
 27 24  2  0  0  0  0
 10  8  2  0  0  0  0
 21 22  2  0  0  0  0
 26 27  1  0  0  0  0
 17 16  1  0  0  0  0
M  END
>  <IDNUMBER>
F0700-0136

>  <Chemical_Name>
N-[3-(1,3-benzothiazol-2-yl)-4-hydroxyphenyl]-2-(2,5-dioxopyrrolidin-1-yl)acetamide

>  <PriceCoeff>
1.00

>  <CAS>
393837-52-0

>  <MW>
381.41

>  <Description>
solid

>  <FSP3>
0.16

>  <clogP>
2.06

>  <TPSA>
127.84

>  <Acceptor>
5

>  <Donor>
2

>  <RotBonds>
4

>  <HAC>
27

>  <Collection>
General

>  <PPDS>
+

$$$$
F0700-0137
  Mrv2219 10102508112D          

 24 27  0  0  0  0            999 V2000
    2.1656   -0.4790    0.0000 C   0  0  0  0  0  0  0  0  0  0  0  0
    4.6351   -1.9407    0.0000 N   0  0  0  0  0  0  0  0  0  0  0  0
    0.9037   -0.0417    0.0000 C   0  0  0  0  0  0  0  0  0  0  0  0
    0.2041    0.4081    0.0000 C   0  0  0  0  0  0  0  0  0  0  0  0
    1.6908   -1.0869    0.0000 N   0  0  0  0  0  0  0  0  0  0  0  0
    1.7033    0.2082    0.0000 S   0  0  0  0  0  0  0  0  0  0  0  0
   -1.1452    0.5830    0.0000 N   0  0  0  0  0  0  0  0  0  0  0  0
    0.0542    1.2201    0.0000 S   0  0  0  0  0  0  0  0  0  0  0  0
    2.9734   -0.4790    0.0000 N   0  0  0  0  0  0  0  0  0  0  0  0
    0.8870   -0.8162    0.0000 C   0  0  0  0  0  0  0  0  0  0  0  0
   -0.5331    0.0458    0.0000 C   0  0  0  0  0  0  0  0  0  0  0  0
    5.4472   -2.1364    0.0000 C   0  0  0  0  0  0  0  0  0  0  0  0
    4.2145   -2.6278    0.0000 C   0  0  0  0  0  0  0  0  0  0  0  0
   -0.7829    1.3451    0.0000 C   0  0  0  0  0  0  0  0  0  0  0  0
    3.4024   -1.1786    0.0000 C   0  0  0  0  0  0  0  0  0  0  0  0
    4.2270   -1.2035    0.0000 C   0  0  0  0  0  0  0  0  0  0  0  0
    4.7642   -3.2483    0.0000 C   0  0  0  0  0  0  0  0  0  0  0  0
    5.5139   -2.9152    0.0000 C   0  0  0  0  0  0  0  0  0  0  0  0
    0.1624   -1.2368    0.0000 C   0  0  0  0  0  0  0  0  0  0  0  0
   -0.5580   -0.8370    0.0000 C   0  0  0  0  0  0  0  0  0  0  0  0
    3.3733   -2.7360    0.0000 O   0  0  0  0  0  0  0  0  0  0  0  0
    6.1135   -1.6034    0.0000 O   0  0  0  0  0  0  0  0  0  0  0  0
    2.9651   -1.8782    0.0000 O   0  0  0  0  0  0  0  0  0  0  0  0
   -1.1744    2.0697    0.0000 C   0  0  0  0  0  0  0  0  0  0  0  0
  2 16  1  0  0  0  0
  3  6  1  0  0  0  0
  4  3  1  0  0  0  0
  5  1  2  0  0  0  0
  6  1  1  0  0  0  0
  7 11  1  0  0  0  0
  8  4  1  0  0  0  0
  9  1  1  0  0  0  0
 10  5  1  0  0  0  0
 11  4  2  0  0  0  0
 12  2  1  0  0  0  0
 13  2  1  0  0  0  0
 14  8  1  0  0  0  0
 15  9  1  0  0  0  0
 16 15  1  0  0  0  0
 17 13  1  0  0  0  0
 18 12  1  0  0  0  0
 19 10  1  0  0  0  0
 20 19  2  0  0  0  0
 21 13  2  0  0  0  0
 22 12  2  0  0  0  0
 23 15  2  0  0  0  0
 24 14  1  0  0  0  0
  3 10  2  0  0  0  0
 11 20  1  0  0  0  0
  7 14  2  0  0  0  0
 17 18  1  0  0  0  0
M  END
>  <IDNUMBER>
F0700-0137

>  <Chemical_Name>
2-(2,5-dioxopyrrolidin-1-yl)-N-{11-methyl-3,12-dithia-5,10-diazatricyclo[7.3.0.0?,?]dodeca-1(9),2(6),4,7,10-pentaen-4-yl}acetamide

>  <PriceCoeff>
1.00

>  <CAS>
361479-44-9

>  <MW>
360.41

>  <Description>
solid

>  <FSP3>
0.27

>  <clogP>
2.00

>  <TPSA>
148.74

>  <Acceptor>
5

>  <Donor>
1

>  <RotBonds>
3

>  <HAC>
24

>  <Collection>
General

>  <PPDS>
+

$$$$
F0700-0138
  Mrv2219 10102508112D          

 22 24  0  0  0  0            999 V2000
    1.2333    1.1716    0.0000 N   0  0  0  0  0  0  0  0  0  0  0  0
   -1.2725    2.6515    0.0000 C   0  0  0  0  0  0  0  0  0  0  0  0
   -1.7490    2.0349    0.0000 N   0  0  0  0  0  0  0  0  0  0  0  0
   -2.5674    2.3040    0.0000 C   0  0  0  0  0  0  0  0  0  0  0  0
   -0.4484    2.6515    0.0000 N   0  0  0  0  0  0  0  0  0  0  0  0
    0.8072    0.4709    0.0000 C   0  0  0  0  0  0  0  0  0  0  0  0
    2.0574    0.9698    0.0000 C   0  0  0  0  0  0  0  0  0  0  0  0
   -1.7434    3.3411    0.0000 S   0  0  0  0  0  0  0  0  0  0  0  0
   -0.0168    1.9452    0.0000 C   0  0  0  0  0  0  0  0  0  0  0  0
   -2.5506    3.0944    0.0000 C   0  0  0  0  0  0  0  0  0  0  0  0
    0.8129    1.9116    0.0000 C   0  0  0  0  0  0  0  0  0  0  0  0
   -3.2458    1.8611    0.0000 C   0  0  0  0  0  0  0  0  0  0  0  0
    2.1247    0.1793    0.0000 C   0  0  0  0  0  0  0  0  0  0  0  0
    1.3679   -0.1570    0.0000 C   0  0  0  0  0  0  0  0  0  0  0  0
    2.7301    1.5079    0.0000 O   0  0  0  0  0  0  0  0  0  0  0  0
   -0.0448    0.3643    0.0000 O   0  0  0  0  0  0  0  0  0  0  0  0
   -0.4652    1.2277    0.0000 O   0  0  0  0  0  0  0  0  0  0  0  0
   -3.9017    0.5998    0.0000 N   0  0  0  0  0  0  0  0  0  0  0  0
   -3.2065    1.0370    0.0000 C   0  0  0  0  0  0  0  0  0  0  0  0
   -3.9690    2.2367    0.0000 C   0  0  0  0  0  0  0  0  0  0  0  0
   -4.6417    0.9698    0.0000 C   0  0  0  0  0  0  0  0  0  0  0  0
   -4.6697    1.8107    0.0000 C   0  0  0  0  0  0  0  0  0  0  0  0
  2  5  1  0  0  0  0
  3  2  2  0  0  0  0
  4  3  1  0  0  0  0
  5  9  1  0  0  0  0
  6  1  1  0  0  0  0
  7  1  1  0  0  0  0
  8  2  1  0  0  0  0
  9 11  1  0  0  0  0
 10  8  1  0  0  0  0
 11  1  1  0  0  0  0
 12  4  1  0  0  0  0
 13  7  1  0  0  0  0
 14  6  1  0  0  0  0
 15  7  2  0  0  0  0
 16  6  2  0  0  0  0
 17  9  2  0  0  0  0
 18 19  2  0  0  0  0
 19 12  1  0  0  0  0
 20 12  2  0  0  0  0
 21 22  2  0  0  0  0
 22 20  1  0  0  0  0
 13 14  1  0  0  0  0
  4 10  2  0  0  0  0
 21 18  1  0  0  0  0
M  END
>  <IDNUMBER>
F0700-0138

>  <Chemical_Name>
2-(2,5-dioxopyrrolidin-1-yl)-N-[4-(pyridin-3-yl)-1,3-thiazol-2-yl]acetamide

>  <PriceCoeff>
1.00

>  <CAS>
393837-53-1

>  <MW>
316.34

>  <Description>
solid

>  <FSP3>
0.21

>  <clogP>
0.56

>  <TPSA>
120.50

>  <Acceptor>
5

>  <Donor>
2

>  <RotBonds>
4

>  <HAC>
22

>  <Collection>
General

>  <PPDS>
+

$$$$
F0700-0154
  Mrv2219 10102508112D          

 27 30  0  0  0  0            999 V2000
    2.4086    2.0685    0.0000 N   0  0  0  0  0  0  0  0  0  0  0  0
   -3.8137   -1.0705    0.0000 C   0  0  0  0  0  0  0  0  0  0  0  0
   -3.6798   -0.2732    0.0000 N   0  0  0  0  0  0  0  0  0  0  0  0
   -3.0721   -1.4441    0.0000 S   0  0  0  0  0  0  0  0  0  0  0  0
    2.0128    1.3381    0.0000 C   0  0  0  0  0  0  0  0  0  0  0  0
    2.0741    2.8268    0.0000 C   0  0  0  0  0  0  0  0  0  0  0  0
    3.2171    2.1354    0.0000 C   0  0  0  0  0  0  0  0  0  0  0  0
   -2.4755   -0.8754    0.0000 C   0  0  0  0  0  0  0  0  0  0  0  0
    0.0056    0.5296    0.0000 C   0  0  0  0  0  0  0  0  0  0  0  0
   -2.8546   -0.1394    0.0000 C   0  0  0  0  0  0  0  0  0  0  0  0
   -0.3791   -0.1840    0.0000 N   0  0  0  0  0  0  0  0  0  0  0  0
    1.1876    1.2991    0.0000 C   0  0  0  0  0  0  0  0  0  0  0  0
    0.8419    0.5520    0.0000 C   0  0  0  0  0  0  0  0  0  0  0  0
   -1.6670   -0.8921    0.0000 C   0  0  0  0  0  0  0  0  0  0  0  0
   -1.1987   -0.1840    0.0000 C   0  0  0  0  0  0  0  0  0  0  0  0
   -0.4293    1.2321    0.0000 O   0  0  0  0  0  0  0  0  0  0  0  0
    3.4178    2.9383    0.0000 C   0  0  0  0  0  0  0  0  0  0  0  0
    2.7488    3.3731    0.0000 C   0  0  0  0  0  0  0  0  0  0  0  0
    3.7524    1.5332    0.0000 O   0  0  0  0  0  0  0  0  0  0  0  0
    1.2712    3.0108    0.0000 O   0  0  0  0  0  0  0  0  0  0  0  0
   -4.5663   -1.4441    0.0000 S   0  0  0  0  0  0  0  0  0  0  0  0
   -2.4253    0.5631    0.0000 C   0  0  0  0  0  0  0  0  0  0  0  0
   -1.5834    0.4962    0.0000 C   0  0  0  0  0  0  0  0  0  0  0  0
    2.4755    0.6022    0.0000 C   0  0  0  0  0  0  0  0  0  0  0  0
    1.2768   -0.1227    0.0000 C   0  0  0  0  0  0  0  0  0  0  0  0
    2.0797   -0.1171    0.0000 C   0  0  0  0  0  0  0  0  0  0  0  0
   -5.2465   -0.9758    0.0000 C   0  0  0  0  0  0  0  0  0  0  0  0
  2  4  1  0  0  0  0
  3 10  1  0  0  0  0
  4  8  1  0  0  0  0
  5  1  1  0  0  0  0
  6  1  1  0  0  0  0
  7  1  1  0  0  0  0
  8 14  1  0  0  0  0
  9 13  1  0  0  0  0
 10 22  1  0  0  0  0
 11  9  1  0  0  0  0
 12  5  2  0  0  0  0
 13 12  1  0  0  0  0
 14 15  2  0  0  0  0
 15 11  1  0  0  0  0
 16  9  2  0  0  0  0
 17  7  1  0  0  0  0
 18  6  1  0  0  0  0
 19  7  2  0  0  0  0
 20  6  2  0  0  0  0
 21  2  1  0  0  0  0
 22 23  2  0  0  0  0
 23 15  1  0  0  0  0
 24  5  1  0  0  0  0
 25 26  1  0  0  0  0
 26 24  2  0  0  0  0
 27 21  1  0  0  0  0
 18 17  1  0  0  0  0
 13 25  2  0  0  0  0
  8 10  2  0  0  0  0
  2  3  2  0  0  0  0
M  END
>  <IDNUMBER>
F0700-0154

>  <Chemical_Name>
3-(2,5-dioxopyrrolidin-1-yl)-N-[2-(methylsulfanyl)-1,3-benzothiazol-6-yl]benzamide

>  <PriceCoeff>
1.00

>  <CAS>
361479-46-1

>  <MW>
397.47

>  <Description>
solid

>  <FSP3>
0.16

>  <clogP>
2.55

>  <TPSA>
132.91

>  <Acceptor>
4

>  <Donor>
1

>  <RotBonds>
4

>  <HAC>
27

>  <Collection>
General

>  <PPDS>
+

$$$$
F0700-0155
  Mrv2219 10102508112D          

 30 33  0  0  0  0            999 V2000
    0.8048    0.5148    0.0000 C   0  0  0  0  0  0  0  0  0  0  0  0
    4.5148   -0.2663    0.0000 N   0  0  0  0  0  0  0  0  0  0  0  0
    1.1420   -0.2545    0.0000 N   0  0  0  0  0  0  0  0  0  0  0  0
    0.5385   -0.7870    0.0000 C   0  0  0  0  0  0  0  0  0  0  0  0
   -1.6094   -2.0591    0.0000 N   0  3  0  0  0  0  0  0  0  0  0  0
   -0.2071   -0.3610    0.0000 C   0  0  0  0  0  0  0  0  0  0  0  0
    1.2071    1.2366    0.0000 N   0  0  0  0  0  0  0  0  0  0  0  0
    0.0000    0.4260    0.0000 S   0  0  0  0  0  0  0  0  0  0  0  0
   -0.8816   -1.6036    0.0000 C   0  0  0  0  0  0  0  0  0  0  0  0
    3.6923   -0.2545    0.0000 C   0  0  0  0  0  0  0  0  0  0  0  0
    2.0414    1.2366    0.0000 C   0  0  0  0  0  0  0  0  0  0  0  0
    4.9763   -0.9290    0.0000 C   0  0  0  0  0  0  0  0  0  0  0  0
    5.0651    0.3846    0.0000 C   0  0  0  0  0  0  0  0  0  0  0  0
   -0.9171   -0.7811    0.0000 C   0  0  0  0  0  0  0  0  0  0  0  0
    0.5208   -1.6036    0.0000 C   0  0  0  0  0  0  0  0  0  0  0  0
   -0.2308   -2.0119    0.0000 C   0  0  0  0  0  0  0  0  0  0  0  0
    3.2899    0.4970    0.0000 C   0  0  0  0  0  0  0  0  0  0  0  0
    2.4556    0.5148    0.0000 C   0  0  0  0  0  0  0  0  0  0  0  0
   -2.3372   -1.6568    0.0000 O   0  5  0  0  0  0  0  0  0  0  0  0
   -1.5916   -2.8935    0.0000 O   0  0  0  0  0  0  0  0  0  0  0  0
    2.4556    1.9644    0.0000 O   0  0  0  0  0  0  0  0  0  0  0  0
    5.7751   -0.7515    0.0000 C   0  0  0  0  0  0  0  0  0  0  0  0
    5.8047    0.0650    0.0000 C   0  0  0  0  0  0  0  0  0  0  0  0
    4.6863   -1.7278    0.0000 O   0  0  0  0  0  0  0  0  0  0  0  0
    4.8698    1.1834    0.0000 O   0  0  0  0  0  0  0  0  0  0  0  0
    1.2486   -2.0591    0.0000 O   0  0  0  0  0  0  0  0  0  0  0  0
    3.2722   -0.8935    0.0000 C   0  0  0  0  0  0  0  0  0  0  0  0
    2.0296   -0.2190    0.0000 C   0  0  0  0  0  0  0  0  0  0  0  0
    2.4379   -0.9231    0.0000 C   0  0  0  0  0  0  0  0  0  0  0  0
    1.9586   -1.6568    0.0000 C   0  0  0  0  0  0  0  0  0  0  0  0
  2 10  1  0  0  0  0
  3  1  2  0  0  0  0
  4  3  1  0  0  0  0
  5  9  1  0  0  0  0
  6  8  1  0  0  0  0
  7  1  1  0  0  0  0
  8  1  1  0  0  0  0
  9 14  2  0  0  0  0
 10 17  2  0  0  0  0
 11  7  1  0  0  0  0
 12  2  1  0  0  0  0
 13  2  1  0  0  0  0
 14  6  1  0  0  0  0
 15  4  1  0  0  0  0
 16 15  2  0  0  0  0
 17 18  1  0  0  0  0
 18 11  1  0  0  0  0
 19  5  1  0  0  0  0
 20  5  2  0  0  0  0
 21 11  2  0  0  0  0
 22 12  1  0  0  0  0
 23 13  1  0  0  0  0
 24 12  2  0  0  0  0
 25 13  2  0  0  0  0
 26 15  1  0  0  0  0
 27 29  2  0  0  0  0
 28 18  2  0  0  0  0
 29 28  1  0  0  0  0
 30 26  1  0  0  0  0
  6  4  2  0  0  0  0
  9 16  1  0  0  0  0
 27 10  1  0  0  0  0
 22 23  1  0  0  0  0
M  CHG  2   5   1  19  -1
M  END
>  <IDNUMBER>
F0700-0155

>  <Chemical_Name>
3-(2,5-dioxopyrrolidin-1-yl)-N-(4-methoxy-6-nitro-1,3-benzothiazol-2-yl)benzamide

>  <PriceCoeff>
1.00

>  <CAS>
361479-47-2

>  <MW>
426.40

>  <Description>
solid

>  <FSP3>
0.16

>  <clogP>
1.75

>  <TPSA>
159.98

>  <Acceptor>
7

>  <Donor>
1

>  <RotBonds>
5

>  <HAC>
30

>  <Collection>
General

>  <PPDS>
+

$$$$
F0700-0156
  Mrv2219 10102508112D          

 32 36  0  0  0  0            999 V2000
   -1.2367   -0.1673    0.0000 C   0  0  0  0  0  0  0  0  0  0  0  0
    4.5585   -0.2688    0.0000 N   0  0  0  0  0  0  0  0  0  0  0  0
   -1.7385   -0.8126    0.0000 N   0  0  0  0  0  0  0  0  0  0  0  0
   -0.4241   -0.1853    0.0000 C   0  0  0  0  0  0  0  0  0  0  0  0
   -1.6668    0.5018    0.0000 S   0  0  0  0  0  0  0  0  0  0  0  0
    3.7280   -0.2569    0.0000 C   0  0  0  0  0  0  0  0  0  0  0  0
    5.0245   -0.9380    0.0000 C   0  0  0  0  0  0  0  0  0  0  0  0
    5.1141    0.3883    0.0000 C   0  0  0  0  0  0  0  0  0  0  0  0
    2.0612    1.2486    0.0000 C   0  0  0  0  0  0  0  0  0  0  0  0
   -2.5272   -0.5079    0.0000 C   0  0  0  0  0  0  0  0  0  0  0  0
   -2.4853    0.3047    0.0000 C   0  0  0  0  0  0  0  0  0  0  0  0
    1.2188    1.2486    0.0000 N   0  0  0  0  0  0  0  0  0  0  0  0
    3.3218    0.5018    0.0000 C   0  0  0  0  0  0  0  0  0  0  0  0
    2.4794    0.5198    0.0000 C   0  0  0  0  0  0  0  0  0  0  0  0
    0.0000   -0.9141    0.0000 C   0  0  0  0  0  0  0  0  0  0  0  0
   -0.0179    0.5317    0.0000 C   0  0  0  0  0  0  0  0  0  0  0  0
    0.8126    0.5317    0.0000 C   0  0  0  0  0  0  0  0  0  0  0  0
    2.4794    1.9834    0.0000 O   0  0  0  0  0  0  0  0  0  0  0  0
    5.8608    0.0657    0.0000 C   0  0  0  0  0  0  0  0  0  0  0  0
    5.8310   -0.7588    0.0000 C   0  0  0  0  0  0  0  0  0  0  0  0
    4.9169    1.1948    0.0000 O   0  0  0  0  0  0  0  0  0  0  0  0
    4.7317   -1.7446    0.0000 O   0  0  0  0  0  0  0  0  0  0  0  0
    0.8126   -0.9022    0.0000 C   0  0  0  0  0  0  0  0  0  0  0  0
    1.2248   -0.1853    0.0000 C   0  0  0  0  0  0  0  0  0  0  0  0
   -0.5018   -1.4757    0.0000 O   0  0  0  0  0  0  0  0  0  0  0  0
    3.3039   -0.9022    0.0000 C   0  0  0  0  0  0  0  0  0  0  0  0
    2.0493   -0.2211    0.0000 C   0  0  0  0  0  0  0  0  0  0  0  0
    2.4615   -0.9320    0.0000 C   0  0  0  0  0  0  0  0  0  0  0  0
   -3.2560   -0.8843    0.0000 C   0  0  0  0  0  0  0  0  0  0  0  0
   -3.1545    0.7647    0.0000 C   0  0  0  0  0  0  0  0  0  0  0  0
   -3.9012    0.3883    0.0000 C   0  0  0  0  0  0  0  0  0  0  0  0
   -3.9431   -0.4302    0.0000 C   0  0  0  0  0  0  0  0  0  0  0  0
  2  6  1  0  0  0  0
  3  1  2  0  0  0  0
  4  1  1  0  0  0  0
  5  1  1  0  0  0  0
  6 13  2  0  0  0  0
  7  2  1  0  0  0  0
  8  2  1  0  0  0  0
  9 12  1  0  0  0  0
 10  3  1  0  0  0  0
 11  5  1  0  0  0  0
 12 17  1  0  0  0  0
 13 14  1  0  0  0  0
 14  9  1  0  0  0  0
 15  4  2  0  0  0  0
 16  4  1  0  0  0  0
 17 16  2  0  0  0  0
 18  9  2  0  0  0  0
 19  8  1  0  0  0  0
 20  7  1  0  0  0  0
 21  8  2  0  0  0  0
 22  7  2  0  0  0  0
 23 15  1  0  0  0  0
 24 17  1  0  0  0  0
 25 15  1  0  0  0  0
 26 28  2  0  0  0  0
 27 14  2  0  0  0  0
 28 27  1  0  0  0  0
 29 10  1  0  0  0  0
 30 11  1  0  0  0  0
 31 30  2  0  0  0  0
 32 29  2  0  0  0  0
 11 10  2  0  0  0  0
 23 24  2  0  0  0  0
 31 32  1  0  0  0  0
  6 26  1  0  0  0  0
 19 20  1  0  0  0  0
M  END
>  <IDNUMBER>
F0700-0156

>  <Chemical_Name>
N-[3-(1,3-benzothiazol-2-yl)-4-hydroxyphenyl]-3-(2,5-dioxopyrrolidin-1-yl)benzamide

>  <PriceCoeff>
1.00

>  <CAS>
361479-48-3

>  <MW>
443.47

>  <Description>
solid

>  <FSP3>
0.08

>  <clogP>
2.24

>  <TPSA>
127.84

>  <Acceptor>
5

>  <Donor>
2

>  <RotBonds>
4

>  <HAC>
32

>  <Collection>
General

>  <PPDS>
+

$$$$
F0700-0157
  Mrv2219 10102508112D          

 27 30  0  0  0  0            999 V2000
    5.4029    2.7282    0.0000 N   0  0  0  0  0  0  0  0  0  0  0  0
    1.7535    0.4993    0.0000 C   0  0  0  0  0  0  0  0  0  0  0  0
    1.1650    1.0995    0.0000 N   0  0  0  0  0  0  0  0  0  0  0  0
    0.4339    0.7132    0.0000 C   0  0  0  0  0  0  0  0  0  0  0  0
    2.5677    0.5468    0.0000 N   0  0  0  0  0  0  0  0  0  0  0  0
   -0.2615    1.1590    0.0000 C   0  0  0  0  0  0  0  0  0  0  0  0
   -1.0461    0.8499    0.0000 S   0  0  0  0  0  0  0  0  0  0  0  0
    5.0166    2.0149    0.0000 C   0  0  0  0  0  0  0  0  0  0  0  0
    2.9660    1.2779    0.0000 C   0  0  0  0  0  0  0  0  0  0  0  0
    4.9987    3.4236    0.0000 C   0  0  0  0  0  0  0  0  0  0  0  0
    6.2291    2.8827    0.0000 C   0  0  0  0  0  0  0  0  0  0  0  0
    1.3612   -0.2140    0.0000 S   0  0  0  0  0  0  0  0  0  0  0  0
   -1.5453    1.4918    0.0000 C   0  0  0  0  0  0  0  0  0  0  0  0
    0.5528   -0.0417    0.0000 C   0  0  0  0  0  0  0  0  0  0  0  0
   -0.3150    1.9733    0.0000 C   0  0  0  0  0  0  0  0  0  0  0  0
    4.2082    1.9971    0.0000 C   0  0  0  0  0  0  0  0  0  0  0  0
    3.8040    1.2779    0.0000 C   0  0  0  0  0  0  0  0  0  0  0  0
   -1.1174    2.1694    0.0000 C   0  0  0  0  0  0  0  0  0  0  0  0
    2.5202    1.9554    0.0000 O   0  0  0  0  0  0  0  0  0  0  0  0
    5.5872    4.0239    0.0000 C   0  0  0  0  0  0  0  0  0  0  0  0
    6.3004    3.6672    0.0000 C   0  0  0  0  0  0  0  0  0  0  0  0
    4.1607    3.5603    0.0000 O   0  0  0  0  0  0  0  0  0  0  0  0
    6.8532    2.3002    0.0000 O   0  0  0  0  0  0  0  0  0  0  0  0
   -2.3716    1.4562    0.0000 Br  0  0  0  0  0  0  0  0  0  0  0  0
    5.4623    1.3135    0.0000 C   0  0  0  0  0  0  0  0  0  0  0  0
    4.2498    0.5706    0.0000 C   0  0  0  0  0  0  0  0  0  0  0  0
    5.0641    0.5884    0.0000 C   0  0  0  0  0  0  0  0  0  0  0  0
  2  5  1  0  0  0  0
  3  2  2  0  0  0  0
  4  3  1  0  0  0  0
  5  9  1  0  0  0  0
  6  4  1  0  0  0  0
  7  6  1  0  0  0  0
  8  1  1  0  0  0  0
  9 17  1  0  0  0  0
 10  1  1  0  0  0  0
 11  1  1  0  0  0  0
 12  2  1  0  0  0  0
 13  7  1  0  0  0  0
 14 12  1  0  0  0  0
 15  6  2  0  0  0  0
 16  8  2  0  0  0  0
 17 16  1  0  0  0  0
 18 15  1  0  0  0  0
 19  9  2  0  0  0  0
 20 10  1  0  0  0  0
 21 11  1  0  0  0  0
 22 10  2  0  0  0  0
 23 11  2  0  0  0  0
 24 13  1  0  0  0  0
 25  8  1  0  0  0  0
 26 27  1  0  0  0  0
 27 25  2  0  0  0  0
 21 20  1  0  0  0  0
 26 17  2  0  0  0  0
 14  4  2  0  0  0  0
 13 18  2  0  0  0  0
M  END
>  <IDNUMBER>
F0700-0157

>  <Chemical_Name>
N-[4-(5-bromothiophen-2-yl)-1,3-thiazol-2-yl]-3-(2,5-dioxopyrrolidin-1-yl)benzamide

>  <PriceCoeff>
1.00

>  <CAS>
361479-49-4

>  <MW>
462.34

>  <Description>
solid

>  <FSP3>
0.11

>  <clogP>
2.88

>  <TPSA>
135.85

>  <Acceptor>
4

>  <Donor>
1

>  <RotBonds>
4

>  <HAC>
27

>  <Collection>
General

>  <PPDS>
+

$$$$
F0700-0158
  Mrv2219 10102508112D          

 31 34  0  0  0  0            999 V2000
    5.4138    2.7337    0.0000 N   0  0  0  0  0  0  0  0  0  0  0  0
    1.7570    0.5003    0.0000 C   0  0  0  0  0  0  0  0  0  0  0  0
    1.1674    1.1018    0.0000 N   0  0  0  0  0  0  0  0  0  0  0  0
    2.5729    0.5479    0.0000 N   0  0  0  0  0  0  0  0  0  0  0  0
    0.4348    0.7147    0.0000 C   0  0  0  0  0  0  0  0  0  0  0  0
    5.0267    2.0190    0.0000 C   0  0  0  0  0  0  0  0  0  0  0  0
    2.9720    1.2804    0.0000 C   0  0  0  0  0  0  0  0  0  0  0  0
    5.0089    3.4305    0.0000 C   0  0  0  0  0  0  0  0  0  0  0  0
    6.2417    2.8885    0.0000 C   0  0  0  0  0  0  0  0  0  0  0  0
    1.3639   -0.2144    0.0000 S   0  0  0  0  0  0  0  0  0  0  0  0
    0.5539   -0.0417    0.0000 C   0  0  0  0  0  0  0  0  0  0  0  0
    4.2167    2.0011    0.0000 C   0  0  0  0  0  0  0  0  0  0  0  0
    3.8118    1.2804    0.0000 C   0  0  0  0  0  0  0  0  0  0  0  0
   -0.3037    1.0660    0.0000 C   0  0  0  0  0  0  0  0  0  0  0  0
   -2.5729    2.0666    0.0000 C   0  0  0  0  0  0  0  0  0  0  0  0
   -1.8165    1.7450    0.0000 C   0  0  0  0  0  0  0  0  0  0  0  0
    2.5253    1.9594    0.0000 O   0  0  0  0  0  0  0  0  0  0  0  0
    6.3132    3.6747    0.0000 C   0  0  0  0  0  0  0  0  0  0  0  0
    5.5985    4.0320    0.0000 C   0  0  0  0  0  0  0  0  0  0  0  0
    6.8671    2.3049    0.0000 O   0  0  0  0  0  0  0  0  0  0  0  0
    4.1691    3.5675    0.0000 O   0  0  0  0  0  0  0  0  0  0  0  0
   -0.9767    0.5896    0.0000 C   0  0  0  0  0  0  0  0  0  0  0  0
   -0.3752    1.8879    0.0000 C   0  0  0  0  0  0  0  0  0  0  0  0
   -1.7331    0.9291    0.0000 C   0  0  0  0  0  0  0  0  0  0  0  0
   -1.1375    2.2334    0.0000 C   0  0  0  0  0  0  0  0  0  0  0  0
    5.4734    1.3162    0.0000 C   0  0  0  0  0  0  0  0  0  0  0  0
    4.2584    0.5718    0.0000 C   0  0  0  0  0  0  0  0  0  0  0  0
    5.0743    0.5896    0.0000 C   0  0  0  0  0  0  0  0  0  0  0  0
   -3.1447    1.5306    0.0000 C   0  0  0  0  0  0  0  0  0  0  0  0
   -3.3352    2.3346    0.0000 C   0  0  0  0  0  0  0  0  0  0  0  0
   -2.6920    2.9302    0.0000 C   0  0  0  0  0  0  0  0  0  0  0  0
  2  4  1  0  0  0  0
  3  2  2  0  0  0  0
  4  7  1  0  0  0  0
  5  3  1  0  0  0  0
  6  1  1  0  0  0  0
  7 13  1  0  0  0  0
  8  1  1  0  0  0  0
  9  1  1  0  0  0  0
 10  2  1  0  0  0  0
 11 10  1  0  0  0  0
 12  6  2  0  0  0  0
 13 12  1  0  0  0  0
 14  5  1  0  0  0  0
 15 16  1  0  0  0  0
 16 25  2  0  0  0  0
 17  7  2  0  0  0  0
 18  9  1  0  0  0  0
 19  8  1  0  0  0  0
 20  9  2  0  0  0  0
 21  8  2  0  0  0  0
 22 14  1  0  0  0  0
 23 14  2  0  0  0  0
 24 22  2  0  0  0  0
 25 23  1  0  0  0  0
 26  6  1  0  0  0  0
 27 28  1  0  0  0  0
 28 26  2  0  0  0  0
 29 15  1  0  0  0  0
 30 15  1  0  0  0  0
 31 15  1  0  0  0  0
 19 18  1  0  0  0  0
 13 27  2  0  0  0  0
  5 11  2  0  0  0  0
 16 24  1  0  0  0  0
M  END
>  <IDNUMBER>
F0700-0158

>  <Chemical_Name>
N-[4-(4-tert-butylphenyl)-1,3-thiazol-2-yl]-3-(2,5-dioxopyrrolidin-1-yl)benzamide

>  <PriceCoeff>
1.00

>  <CAS>
477280-67-4

>  <MW>
433.52

>  <Description>
solid

>  <FSP3>
0.25

>  <clogP>
3.95

>  <TPSA>
107.61

>  <Acceptor>
4

>  <Donor>
1

>  <RotBonds>
4

>  <HAC>
31

>  <Collection>
General

>  <PPDS>
+

$$$$
F0700-0159
  Mrv2219 10102508112D          

 32 36  0  0  0  0            999 V2000
    0.4169    2.7492    0.0000 C   0  0  0  0  0  0  0  0  0  0  0  0
    5.2206    0.3082    0.0000 N   0  0  0  0  0  0  0  0  0  0  0  0
    1.2750    2.7492    0.0000 C   0  0  0  0  0  0  0  0  0  0  0  0
   -0.0483    2.0484    0.0000 C   0  0  0  0  0  0  0  0  0  0  0  0
    2.5439    2.9910    0.0000 C   0  0  0  0  0  0  0  0  0  0  0  0
    1.8369    3.3535    0.0000 N   0  0  0  0  0  0  0  0  0  0  0  0
    0.0423    3.4743    0.0000 C   0  0  0  0  0  0  0  0  0  0  0  0
    3.3052    3.3535    0.0000 N   0  0  0  0  0  0  0  0  0  0  0  0
   -0.8640    2.0966    0.0000 O   0  0  0  0  0  0  0  0  0  0  0  0
    4.5499    0.7915    0.0000 C   0  0  0  0  0  0  0  0  0  0  0  0
    3.9940    2.8942    0.0000 C   0  0  0  0  0  0  0  0  0  0  0  0
    5.9699    0.6102    0.0000 C   0  0  0  0  0  0  0  0  0  0  0  0
    5.2992   -0.5076    0.0000 C   0  0  0  0  0  0  0  0  0  0  0  0
    2.4714    2.1692    0.0000 S   0  0  0  0  0  0  0  0  0  0  0  0
    1.6677    2.0241    0.0000 C   0  0  0  0  0  0  0  0  0  0  0  0
   -0.7976    3.5106    0.0000 C   0  0  0  0  0  0  0  0  0  0  0  0
   -1.2326    2.7855    0.0000 C   0  0  0  0  0  0  0  0  0  0  0  0
    4.6224    1.6133    0.0000 C   0  0  0  0  0  0  0  0  0  0  0  0
    3.9215    2.0604    0.0000 C   0  0  0  0  0  0  0  0  0  0  0  0
    0.3324    1.3051    0.0000 O   0  0  0  0  0  0  0  0  0  0  0  0
    4.7372    3.2568    0.0000 O   0  0  0  0  0  0  0  0  0  0  0  0
    6.5076   -0.0061    0.0000 C   0  0  0  0  0  0  0  0  0  0  0  0
    6.0968   -0.6949    0.0000 C   0  0  0  0  0  0  0  0  0  0  0  0
    6.1693    1.4259    0.0000 O   0  0  0  0  0  0  0  0  0  0  0  0
    4.6466   -1.0876    0.0000 O   0  0  0  0  0  0  0  0  0  0  0  0
    3.8429    0.4350    0.0000 C   0  0  0  0  0  0  0  0  0  0  0  0
    3.1964    1.7160    0.0000 C   0  0  0  0  0  0  0  0  0  0  0  0
    3.1602    0.8882    0.0000 C   0  0  0  0  0  0  0  0  0  0  0  0
   -1.1540    4.2055    0.0000 C   0  0  0  0  0  0  0  0  0  0  0  0
   -2.0302    2.8459    0.0000 C   0  0  0  0  0  0  0  0  0  0  0  0
   -1.9879    4.2538    0.0000 C   0  0  0  0  0  0  0  0  0  0  0  0
   -2.4592    3.5649    0.0000 C   0  0  0  0  0  0  0  0  0  0  0  0
  2 10  1  0  0  0  0
  3  1  1  0  0  0  0
  4  1  1  0  0  0  0
  5  6  2  0  0  0  0
  6  3  1  0  0  0  0
  7  1  2  0  0  0  0
  8  5  1  0  0  0  0
  9  4  1  0  0  0  0
 10 18  2  0  0  0  0
 11  8  1  0  0  0  0
 12  2  1  0  0  0  0
 13  2  1  0  0  0  0
 14 15  1  0  0  0  0
 15  3  2  0  0  0  0
 16  7  1  0  0  0  0
 17 16  2  0  0  0  0
 18 19  1  0  0  0  0
 19 11  1  0  0  0  0
 20  4  2  0  0  0  0
 21 11  2  0  0  0  0
 22 12  1  0  0  0  0
 23 13  1  0  0  0  0
 24 12  2  0  0  0  0
 25 13  2  0  0  0  0
 26 28  2  0  0  0  0
 27 19  2  0  0  0  0
 28 27  1  0  0  0  0
 29 16  1  0  0  0  0
 30 17  1  0  0  0  0
 31 29  2  0  0  0  0
 32 31  1  0  0  0  0
  9 17  1  0  0  0  0
 14  5  1  0  0  0  0
 32 30  2  0  0  0  0
 26 10  1  0  0  0  0
 23 22  1  0  0  0  0
M  END
>  <IDNUMBER>
F0700-0159

>  <Chemical_Name>
3-(2,5-dioxopyrrolidin-1-yl)-N-[4-(2-oxo-2H-chromen-3-yl)-1,3-thiazol-2-yl]benzamide

>  <PriceCoeff>
1.00

>  <CAS>
393837-55-3

>  <MW>
445.45

>  <Description>
solid

>  <FSP3>
0.09

>  <clogP>
1.63

>  <TPSA>
133.91

>  <Acceptor>
6

>  <Donor>
1

>  <RotBonds>
4

>  <HAC>
32

>  <Collection>
General

>  <PPDS>
+

$$$$
F0700-0160
  Mrv2219 10102508112D          

 28 31  0  0  0  0            999 V2000
    0.1708    2.7983    0.0000 C   0  0  0  0  0  0  0  0  0  0  0  0
   -0.3841    3.4141    0.0000 C   0  0  0  0  0  0  0  0  0  0  0  0
    4.8834    0.5425    0.0000 N   0  0  0  0  0  0  0  0  0  0  0  0
    0.9938    2.8654    0.0000 C   0  0  0  0  0  0  0  0  0  0  0  0
    2.2741    3.2677    0.0000 C   0  0  0  0  0  0  0  0  0  0  0  0
    1.4876    3.5299    0.0000 N   0  0  0  0  0  0  0  0  0  0  0  0
   -1.1157    3.0665    0.0000 S   0  0  0  0  0  0  0  0  0  0  0  0
    2.9812    3.6518    0.0000 N   0  0  0  0  0  0  0  0  0  0  0  0
   -1.0242    2.2679    0.0000 C   0  0  0  0  0  0  0  0  0  0  0  0
    4.2128    1.0425    0.0000 C   0  0  0  0  0  0  0  0  0  0  0  0
   -0.2378    2.0972    0.0000 C   0  0  0  0  0  0  0  0  0  0  0  0
    3.6824    3.2129    0.0000 C   0  0  0  0  0  0  0  0  0  0  0  0
    4.9444   -0.2743    0.0000 C   0  0  0  0  0  0  0  0  0  0  0  0
    5.6150    0.8718    0.0000 C   0  0  0  0  0  0  0  0  0  0  0  0
    2.2496    2.4143    0.0000 S   0  0  0  0  0  0  0  0  0  0  0  0
    1.4632    2.1886    0.0000 C   0  0  0  0  0  0  0  0  0  0  0  0
    4.3225    1.8594    0.0000 C   0  0  0  0  0  0  0  0  0  0  0  0
    3.6580    2.3594    0.0000 C   0  0  0  0  0  0  0  0  0  0  0  0
    4.4140    3.5969    0.0000 O   0  0  0  0  0  0  0  0  0  0  0  0
    5.7309   -0.4817    0.0000 C   0  0  0  0  0  0  0  0  0  0  0  0
    6.1454    0.1950    0.0000 C   0  0  0  0  0  0  0  0  0  0  0  0
    4.2981   -0.8292    0.0000 O   0  0  0  0  0  0  0  0  0  0  0  0
    5.8223    1.6827    0.0000 O   0  0  0  0  0  0  0  0  0  0  0  0
   -0.2378    4.2371    0.0000 Cl  0  0  0  0  0  0  0  0  0  0  0  0
   -1.6765    1.7131    0.0000 Cl  0  0  0  0  0  0  0  0  0  0  0  0
    3.4446    0.7254    0.0000 C   0  0  0  0  0  0  0  0  0  0  0  0
    2.8959    2.0057    0.0000 C   0  0  0  0  0  0  0  0  0  0  0  0
    2.8045    1.2193    0.0000 C   0  0  0  0  0  0  0  0  0  0  0  0
  2  1  2  0  0  0  0
  3 10  1  0  0  0  0
  4  1  1  0  0  0  0
  5  6  2  0  0  0  0
  6  4  1  0  0  0  0
  7  2  1  0  0  0  0
  8  5  1  0  0  0  0
  9 11  2  0  0  0  0
 10 17  2  0  0  0  0
 11  1  1  0  0  0  0
 12  8  1  0  0  0  0
 13  3  1  0  0  0  0
 14  3  1  0  0  0  0
 15 16  1  0  0  0  0
 16  4  2  0  0  0  0
 17 18  1  0  0  0  0
 18 12  1  0  0  0  0
 19 12  2  0  0  0  0
 20 13  1  0  0  0  0
 21 14  1  0  0  0  0
 22 13  2  0  0  0  0
 23 14  2  0  0  0  0
 24  2  1  0  0  0  0
 25  9  1  0  0  0  0
 26 28  2  0  0  0  0
 27 18  2  0  0  0  0
 28 27  1  0  0  0  0
  9  7  1  0  0  0  0
  5 15  1  0  0  0  0
 10 26  1  0  0  0  0
 21 20  1  0  0  0  0
M  END
>  <IDNUMBER>
F0700-0160

>  <Chemical_Name>
N-[4-(2,5-dichlorothiophen-3-yl)-1,3-thiazol-2-yl]-3-(2,5-dioxopyrrolidin-1-yl)benzamide

>  <PriceCoeff>
1.00

>  <CAS>
393837-56-4

>  <MW>
452.33

>  <Description>
solid

>  <FSP3>
0.11

>  <clogP>
2.98

>  <TPSA>
135.85

>  <Acceptor>
4

>  <Donor>
1

>  <RotBonds>
4

>  <HAC>
28

>  <Collection>
General

>  <PPDS>
+

$$$$
F0700-0161
  Mrv2219 10102508112D          

 29 32  0  0  0  0            999 V2000
    4.8036    0.5702    0.0000 N   0  0  0  0  0  0  0  0  0  0  0  0
    2.2127    3.3035    0.0000 C   0  0  0  0  0  0  0  0  0  0  0  0
    1.4380    3.6382    0.0000 N   0  0  0  0  0  0  0  0  0  0  0  0
    2.9565    3.6631    0.0000 N   0  0  0  0  0  0  0  0  0  0  0  0
    0.8988    2.9751    0.0000 C   0  0  0  0  0  0  0  0  0  0  0  0
    4.1465    1.0722    0.0000 C   0  0  0  0  0  0  0  0  0  0  0  0
    3.6321    3.2168    0.0000 C   0  0  0  0  0  0  0  0  0  0  0  0
    4.8345   -0.2666    0.0000 C   0  0  0  0  0  0  0  0  0  0  0  0
    5.6031    0.8367    0.0000 C   0  0  0  0  0  0  0  0  0  0  0  0
    2.1260    2.4730    0.0000 S   0  0  0  0  0  0  0  0  0  0  0  0
    1.3202    2.2995    0.0000 C   0  0  0  0  0  0  0  0  0  0  0  0
    0.0992    2.9751    0.0000 C   0  0  0  0  0  0  0  0  0  0  0  0
    4.2395    1.8780    0.0000 C   0  0  0  0  0  0  0  0  0  0  0  0
    3.5764    2.3801    0.0000 C   0  0  0  0  0  0  0  0  0  0  0  0
   -1.1466    2.2623    0.0000 C   0  0  0  0  0  0  0  0  0  0  0  0
   -0.3161    2.2623    0.0000 C   0  0  0  0  0  0  0  0  0  0  0  0
   -1.5619    2.9751    0.0000 C   0  0  0  0  0  0  0  0  0  0  0  0
    4.3883    3.5701    0.0000 O   0  0  0  0  0  0  0  0  0  0  0  0
    5.6341   -0.5020    0.0000 C   0  0  0  0  0  0  0  0  0  0  0  0
    6.0804    0.1797    0.0000 C   0  0  0  0  0  0  0  0  0  0  0  0
    4.1714   -0.7996    0.0000 O   0  0  0  0  0  0  0  0  0  0  0  0
    5.8449    1.6363    0.0000 O   0  0  0  0  0  0  0  0  0  0  0  0
   -0.3470    3.6940    0.0000 C   0  0  0  0  0  0  0  0  0  0  0  0
   -1.1466    3.6940    0.0000 C   0  0  0  0  0  0  0  0  0  0  0  0
   -1.5929    1.5185    0.0000 Cl  0  0  0  0  0  0  0  0  0  0  0  0
   -2.3987    2.9751    0.0000 Cl  0  0  0  0  0  0  0  0  0  0  0  0
    3.4028    0.7438    0.0000 C   0  0  0  0  0  0  0  0  0  0  0  0
    2.8326    2.0577    0.0000 C   0  0  0  0  0  0  0  0  0  0  0  0
    2.7520    1.2210    0.0000 C   0  0  0  0  0  0  0  0  0  0  0  0
  2  4  1  0  0  0  0
  3  2  2  0  0  0  0
  4  7  1  0  0  0  0
  5  3  1  0  0  0  0
  6  1  1  0  0  0  0
  7 14  1  0  0  0  0
  8  1  1  0  0  0  0
  9  1  1  0  0  0  0
 10  2  1  0  0  0  0
 11 10  1  0  0  0  0
 12  5  1  0  0  0  0
 13  6  2  0  0  0  0
 14 13  1  0  0  0  0
 15 16  2  0  0  0  0
 16 12  1  0  0  0  0
 17 24  2  0  0  0  0
 18  7  2  0  0  0  0
 19  8  1  0  0  0  0
 20  9  1  0  0  0  0
 21  8  2  0  0  0  0
 22  9  2  0  0  0  0
 23 12  2  0  0  0  0
 24 23  1  0  0  0  0
 25 15  1  0  0  0  0
 26 17  1  0  0  0  0
 27  6  1  0  0  0  0
 28 29  1  0  0  0  0
 29 27  2  0  0  0  0
 19 20  1  0  0  0  0
 28 14  2  0  0  0  0
 11  5  2  0  0  0  0
 17 15  1  0  0  0  0
M  END
>  <IDNUMBER>
F0700-0161

>  <Chemical_Name>
N-[4-(3,4-dichlorophenyl)-1,3-thiazol-2-yl]-3-(2,5-dioxopyrrolidin-1-yl)benzamide

>  <PriceCoeff>
1.00

>  <CAS>
477280-68-5

>  <MW>
446.31

>  <Description>
solid

>  <FSP3>
0.10

>  <clogP>
3.44

>  <TPSA>
107.61

>  <Acceptor>
4

>  <Donor>
1

>  <RotBonds>
4

>  <HAC>
29

>  <Collection>
General

>  <PPDS>
+

$$$$
F0700-0163
  Mrv2219 10102508112D          

 32 35  0  0  0  0            999 V2000
    1.4080   -0.0543    0.0000 C   0  0  0  0  0  0  0  0  0  0  0  0
    1.0069    0.6475    0.0000 C   0  0  0  0  0  0  0  0  0  0  0  0
    2.3229    0.9233    0.0000 C   0  0  0  0  0  0  0  0  0  0  0  0
    1.0653   -0.8397    0.0000 C   0  0  0  0  0  0  0  0  0  0  0  0
    4.8797   -1.8800    0.0000 N   0  0  0  0  0  0  0  0  0  0  0  0
    1.5333    1.2742    0.0000 N   0  0  0  0  0  0  0  0  0  0  0  0
    2.2352    0.1086    0.0000 S   0  0  0  0  0  0  0  0  0  0  0  0
    3.0874    1.2742    0.0000 N   0  0  0  0  0  0  0  0  0  0  0  0
    0.2381   -0.9192    0.0000 C   0  0  0  0  0  0  0  0  0  0  0  0
    4.2154   -1.3704    0.0000 C   0  0  0  0  0  0  0  0  0  0  0  0
    3.7392    0.7729    0.0000 C   0  0  0  0  0  0  0  0  0  0  0  0
    4.8797   -2.6989    0.0000 C   0  0  0  0  0  0  0  0  0  0  0  0
    5.6651   -1.6293    0.0000 C   0  0  0  0  0  0  0  0  0  0  0  0
    0.1797    0.6893    0.0000 C   0  0  0  0  0  0  0  0  0  0  0  0
    4.3157   -0.5515    0.0000 C   0  0  0  0  0  0  0  0  0  0  0  0
    3.6514   -0.0543    0.0000 C   0  0  0  0  0  0  0  0  0  0  0  0
   -0.2214    1.3995    0.0000 S   0  0  0  0  0  0  0  0  0  0  0  0
    1.5333   -1.4957    0.0000 O   0  0  0  0  0  0  0  0  0  0  0  0
   -0.3593    0.0459    0.0000 C   0  0  0  0  0  0  0  0  0  0  0  0
    4.5037    1.1155    0.0000 O   0  0  0  0  0  0  0  0  0  0  0  0
    5.6651   -2.9496    0.0000 C   0  0  0  0  0  0  0  0  0  0  0  0
    6.1414   -2.2853    0.0000 C   0  0  0  0  0  0  0  0  0  0  0  0
    4.2154   -3.2002    0.0000 O   0  0  0  0  0  0  0  0  0  0  0  0
    5.9200   -0.8064    0.0000 O   0  0  0  0  0  0  0  0  0  0  0  0
   -1.0611    1.1865    0.0000 C   0  0  0  0  0  0  0  0  0  0  0  0
   -1.1405    0.3969    0.0000 C   0  0  0  0  0  0  0  0  0  0  0  0
   -0.5139   -0.9944    0.0000 F   0  0  0  0  0  0  0  0  0  0  0  0
   -0.3718   -0.3050    0.0000 F   0  0  0  0  0  0  0  0  0  0  0  0
   -0.2339   -1.6419    0.0000 F   0  0  0  0  0  0  0  0  0  0  0  0
    3.4592   -1.6837    0.0000 C   0  0  0  0  0  0  0  0  0  0  0  0
    2.8952   -0.3677    0.0000 C   0  0  0  0  0  0  0  0  0  0  0  0
    2.7992   -1.1824    0.0000 C   0  0  0  0  0  0  0  0  0  0  0  0
  2  1  2  0  0  0  0
  3  7  1  0  0  0  0
  4  1  1  0  0  0  0
  5 10  1  0  0  0  0
  6  2  1  0  0  0  0
  7  1  1  0  0  0  0
  8  3  1  0  0  0  0
  9  4  1  0  0  0  0
 10 15  2  0  0  0  0
 11  8  1  0  0  0  0
 12  5  1  0  0  0  0
 13  5  1  0  0  0  0
 14  2  1  0  0  0  0
 15 16  1  0  0  0  0
 16 11  1  0  0  0  0
 17 14  1  0  0  0  0
 18  4  2  0  0  0  0
 19 14  2  0  0  0  0
 20 11  2  0  0  0  0
 21 12  1  0  0  0  0
 22 13  1  0  0  0  0
 23 12  2  0  0  0  0
 24 13  2  0  0  0  0
 25 17  1  0  0  0  0
 26 19  1  0  0  0  0
 27  9  1  0  0  0  0
 28  9  1  0  0  0  0
 29  9  1  0  0  0  0
 30 32  2  0  0  0  0
 31 16  2  0  0  0  0
 32 31  1  0  0  0  0
  3  6  2  0  0  0  0
 25 26  2  0  0  0  0
 10 30  1  0  0  0  0
 22 21  1  0  0  0  0
M  END
>  <IDNUMBER>
F0700-0163

>  <Chemical_Name>
3-(2,5-dioxopyrrolidin-1-yl)-N-[4-(thiophen-2-yl)-5-(2,2,2-trifluoroacetyl)-1,3-thiazol-2-yl]benzamide

>  <PriceCoeff>
1.00

>  <CAS>
393837-57-5

>  <MW>
479.45

>  <Description>
solid

>  <FSP3>
0.15

>  <clogP>
2.41

>  <TPSA>
152.92

>  <Acceptor>
5

>  <Donor>
1

>  <RotBonds>
5

>  <HAC>
32

>  <Collection>
General

>  <PPDS>
+

$$$$
F0700-0166
  Mrv2219 10102508112D          

 30 34  0  0  0  0            999 V2000
    5.3061    1.3661    0.0000 N   0  0  0  0  0  0  0  0  0  0  0  0
    1.6302   -0.6006    0.0000 C   0  0  0  0  0  0  0  0  0  0  0  0
    1.1087    0.0725    0.0000 N   0  0  0  0  0  0  0  0  0  0  0  0
    2.4221   -0.6402    0.0000 N   0  0  0  0  0  0  0  0  0  0  0  0
    0.3960   -0.1848    0.0000 C   0  0  0  0  0  0  0  0  0  0  0  0
    4.8903    0.6863    0.0000 C   0  0  0  0  0  0  0  0  0  0  0  0
    2.8313    0.0000    0.0000 C   0  0  0  0  0  0  0  0  0  0  0  0
    6.1245    1.4255    0.0000 C   0  0  0  0  0  0  0  0  0  0  0  0
    4.9893    2.1118    0.0000 C   0  0  0  0  0  0  0  0  0  0  0  0
    1.1352   -1.2473    0.0000 S   0  0  0  0  0  0  0  0  0  0  0  0
    0.3762   -1.0362    0.0000 C   0  0  0  0  0  0  0  0  0  0  0  0
   -0.2705    0.3101    0.0000 C   0  0  0  0  0  0  0  0  0  0  0  0
    4.0654    0.7128    0.0000 C   0  0  0  0  0  0  0  0  0  0  0  0
   -1.6829    0.4685    0.0000 C   0  0  0  0  0  0  0  0  0  0  0  0
    3.6497    0.0000    0.0000 C   0  0  0  0  0  0  0  0  0  0  0  0
   -1.0229   -0.0265    0.0000 C   0  0  0  0  0  0  0  0  0  0  0  0
   -1.6169    1.2407    0.0000 C   0  0  0  0  0  0  0  0  0  0  0  0
   -2.4551    0.2376    0.0000 O   0  0  0  0  0  0  0  0  0  0  0  0
   -2.3165    1.5773    0.0000 O   0  0  0  0  0  0  0  0  0  0  0  0
   -2.8709    0.9702    0.0000 C   0  0  0  0  0  0  0  0  0  0  0  0
    2.4617    0.7128    0.0000 O   0  0  0  0  0  0  0  0  0  0  0  0
    5.6229    2.6135    0.0000 C   0  0  0  0  0  0  0  0  0  0  0  0
    6.3027    2.2373    0.0000 C   0  0  0  0  0  0  0  0  0  0  0  0
    4.2040    2.2967    0.0000 O   0  0  0  0  0  0  0  0  0  0  0  0
    6.6327    0.7853    0.0000 O   0  0  0  0  0  0  0  0  0  0  0  0
   -0.1782    1.1021    0.0000 C   0  0  0  0  0  0  0  0  0  0  0  0
   -0.8447    1.5839    0.0000 C   0  0  0  0  0  0  0  0  0  0  0  0
    5.3128   -0.0265    0.0000 C   0  0  0  0  0  0  0  0  0  0  0  0
    4.0456   -0.7590    0.0000 C   0  0  0  0  0  0  0  0  0  0  0  0
    4.8903   -0.7590    0.0000 C   0  0  0  0  0  0  0  0  0  0  0  0
  2  4  1  0  0  0  0
  3  2  2  0  0  0  0
  4  7  1  0  0  0  0
  5  3  1  0  0  0  0
  6  1  1  0  0  0  0
  7 15  1  0  0  0  0
  8  1  1  0  0  0  0
  9  1  1  0  0  0  0
 10  2  1  0  0  0  0
 11 10  1  0  0  0  0
 12  5  1  0  0  0  0
 13  6  2  0  0  0  0
 14 16  1  0  0  0  0
 15 13  1  0  0  0  0
 16 12  2  0  0  0  0
 17 27  1  0  0  0  0
 18 14  1  0  0  0  0
 19 17  1  0  0  0  0
 20 18  1  0  0  0  0
 21  7  2  0  0  0  0
 22  9  1  0  0  0  0
 23  8  1  0  0  0  0
 24  9  2  0  0  0  0
 25  8  2  0  0  0  0
 26 12  1  0  0  0  0
 27 26  2  0  0  0  0
 28  6  1  0  0  0  0
 29 30  1  0  0  0  0
 30 28  2  0  0  0  0
 23 22  1  0  0  0  0
 29 15  2  0  0  0  0
 11  5  2  0  0  0  0
 14 17  2  0  0  0  0
 19 20  1  0  0  0  0
M  END
>  <IDNUMBER>
F0700-0166

>  <Chemical_Name>
N-[4-(2H-1,3-benzodioxol-5-yl)-1,3-thiazol-2-yl]-3-(2,5-dioxopyrrolidin-1-yl)benzamide

>  <PriceCoeff>
1.00

>  <CAS>
393837-58-6

>  <MW>
421.43

>  <Description>
solid

>  <FSP3>
0.14

>  <clogP>
2.17

>  <TPSA>
126.07

>  <Acceptor>
6

>  <Donor>
1

>  <RotBonds>
4

>  <HAC>
30

>  <Collection>
General

>  <PPDS>
+

$$$$
F0700-0168
  Mrv2219 10102508112D          

 26 29  0  0  0  0            999 V2000
    5.3393   -0.0405    0.0000 N   0  0  0  0  0  0  0  0  0  0  0  0
    0.3179    1.4157    0.0000 N   0  0  0  0  0  0  0  0  0  0  0  0
    4.5303   -0.0405    0.0000 C   0  0  0  0  0  0  0  0  0  0  0  0
    0.8321    2.0744    0.0000 C   0  0  0  0  0  0  0  0  0  0  0  0
    0.3525    2.7331    0.0000 S   0  0  0  0  0  0  0  0  0  0  0  0
    5.7958    0.6703    0.0000 C   0  0  0  0  0  0  0  0  0  0  0  0
    5.8940   -0.6761    0.0000 C   0  0  0  0  0  0  0  0  0  0  0  0
    2.8835    1.3810    0.0000 C   0  0  0  0  0  0  0  0  0  0  0  0
   -0.4622    1.6930    0.0000 C   0  0  0  0  0  0  0  0  0  0  0  0
   -0.4160    2.5251    0.0000 C   0  0  0  0  0  0  0  0  0  0  0  0
    4.1143    0.6529    0.0000 C   0  0  0  0  0  0  0  0  0  0  0  0
    3.2995    0.6703    0.0000 C   0  0  0  0  0  0  0  0  0  0  0  0
    2.0802    1.3463    0.0000 O   0  0  0  0  0  0  0  0  0  0  0  0
    6.6567   -0.3179    0.0000 C   0  0  0  0  0  0  0  0  0  0  0  0
    6.5701    0.4796    0.0000 C   0  0  0  0  0  0  0  0  0  0  0  0
    5.6860   -1.4967    0.0000 O   0  0  0  0  0  0  0  0  0  0  0  0
    5.4491    1.4503    0.0000 O   0  0  0  0  0  0  0  0  0  0  0  0
    3.2822    2.0802    0.0000 O   0  0  0  0  0  0  0  0  0  0  0  0
    1.6642    2.0744    0.0000 C   0  0  0  0  0  0  0  0  0  0  0  0
    4.1143   -0.7686    0.0000 C   0  0  0  0  0  0  0  0  0  0  0  0
    2.8950   -0.0405    0.0000 C   0  0  0  0  0  0  0  0  0  0  0  0
    3.2822   -0.7686    0.0000 C   0  0  0  0  0  0  0  0  0  0  0  0
   -1.1788    1.3348    0.0000 C   0  0  0  0  0  0  0  0  0  0  0  0
   -1.1095    2.9817    0.0000 C   0  0  0  0  0  0  0  0  0  0  0  0
   -1.8664    2.6118    0.0000 C   0  0  0  0  0  0  0  0  0  0  0  0
   -1.9011    1.7335    0.0000 C   0  0  0  0  0  0  0  0  0  0  0  0
  2  4  2  0  0  0  0
  3  1  1  0  0  0  0
  4 19  1  0  0  0  0
  5  4  1  0  0  0  0
  6  1  1  0  0  0  0
  7  1  1  0  0  0  0
  8 12  1  0  0  0  0
  9  2  1  0  0  0  0
 10  5  1  0  0  0  0
 11  3  2  0  0  0  0
 12 11  1  0  0  0  0
 13  8  1  0  0  0  0
 14  7  1  0  0  0  0
 15  6  1  0  0  0  0
 16  7  2  0  0  0  0
 17  6  2  0  0  0  0
 18  8  2  0  0  0  0
 19 13  1  0  0  0  0
 20  3  1  0  0  0  0
 21 22  1  0  0  0  0
 22 20  2  0  0  0  0
 23  9  1  0  0  0  0
 24 10  1  0  0  0  0
 25 24  2  0  0  0  0
 26 23  2  0  0  0  0
 15 14  1  0  0  0  0
 21 12  2  0  0  0  0
 10  9  2  0  0  0  0
 25 26  1  0  0  0  0
M  END
>  <IDNUMBER>
F0700-0168

>  <Chemical_Name>
(1,3-benzothiazol-2-yl)methyl 3-(2,5-dioxopyrrolidin-1-yl)benzoate

>  <PriceCoeff>
1.00

>  <CAS>
393837-60-0

>  <MW>
366.39

>  <Description>
solid

>  <FSP3>
0.16

>  <clogP>
2.21

>  <TPSA>
104.81

>  <Acceptor>
5

>  <Donor>
0

>  <RotBonds>
5

>  <HAC>
26

>  <Collection>
General

>  <PPDS>
+

$$$$
F0703-0001
  Mrv2219 10102508112D          

 14 14  0  0  0  0            999 V2000
   -0.4223    1.6071    0.0000 C   0  0  0  0  0  0  0  0  0  0  0  0
   -1.1379    2.0177    0.0000 C   0  0  0  0  0  0  0  0  0  0  0  0
   -1.8495    1.6071    0.0000 C   0  0  0  0  0  0  0  0  0  0  0  0
   -0.4223    0.7820    0.0000 C   0  0  0  0  0  0  0  0  0  0  0  0
   -1.1379    0.3714    0.0000 C   0  0  0  0  0  0  0  0  0  0  0  0
   -1.8495    0.7820    0.0000 C   0  0  0  0  0  0  0  0  0  0  0  0
   -2.5651    2.0372    0.0000 N   0  0  0  0  0  0  0  0  0  0  0  0
   -3.2807    1.6266    0.0000 C   0  0  0  0  0  0  0  0  0  0  0  0
    0.3089    2.0372    0.0000 Cl  0  0  0  0  0  0  0  0  0  0  0  0
   -3.9885    2.0372    0.0000 O   0  0  0  0  0  0  0  0  0  0  0  0
   -1.1379    2.8466    0.0000 Cl  0  0  0  0  0  0  0  0  0  0  0  0
    0.3089    0.3714    0.0000 O   0  0  0  0  0  0  0  0  0  0  0  0
   -1.1379   -0.4575    0.0000 Cl  0  0  0  0  0  0  0  0  0  0  0  0
   -3.2807    0.7977    0.0000 C   0  0  0  0  0  0  0  0  0  0  0  0
  2  1  1  0  0  0  0
  3  2  2  0  0  0  0
  4  1  2  0  0  0  0
  5  4  1  0  0  0  0
  6  5  2  0  0  0  0
  7  3  1  0  0  0  0
  8  7  1  0  0  0  0
  9  1  1  0  0  0  0
 10  8  2  0  0  0  0
 11  2  1  0  0  0  0
 12  4  1  0  0  0  0
 13  5  1  0  0  0  0
 14  8  1  0  0  0  0
  6  3  1  0  0  0  0
M  END
>  <IDNUMBER>
F0703-0001

>  <Chemical_Name>
N-(2,3,5-trichloro-4-hydroxyphenyl)acetamide

>  <PriceCoeff>
1.00

>  <CAS>
307553-56-6

>  <MW>
254.50

>  <Description>
solid

>  <FSP3>
0.12

>  <clogP>
1.67

>  <TPSA>
49.33

>  <Acceptor>
2

>  <Donor>
2

>  <RotBonds>
1

>  <HAC>
14

>  <Collection>
General

>  <PPDS>
+

$$$$
F0703-0193
  Mrv2219 10102508112D          

 20 21  0  0  0  0            999 V2000
   -1.4381   -1.1186    0.0000 S   0  0  0  0  0  0  0  0  0  0  0  0
   -0.0959   -0.6591    0.0000 C   0  0  0  0  0  0  0  0  0  0  0  0
   -0.6352   -1.2744    0.0000 N   0  0  0  0  0  0  0  0  0  0  0  0
    0.7231   -0.8149    0.0000 C   0  0  0  0  0  0  0  0  0  0  0  0
    1.2464   -0.1958    0.0000 C   0  0  0  0  0  0  0  0  0  0  0  0
    0.9748    0.5872    0.0000 C   0  0  0  0  0  0  0  0  0  0  0  0
    0.1718    0.7390    0.0000 C   0  0  0  0  0  0  0  0  0  0  0  0
   -0.3675    0.1278    0.0000 C   0  0  0  0  0  0  0  0  0  0  0  0
   -1.6139   -1.9216    0.0000 O   0  0  0  0  0  0  0  0  0  0  0  0
   -1.2903   -0.2917    0.0000 O   0  0  0  0  0  0  0  0  0  0  0  0
   -2.2651   -0.9468    0.0000 C   0  0  0  0  0  0  0  0  0  0  0  0
    2.0654   -0.3516    0.0000 Cl  0  0  0  0  0  0  0  0  0  0  0  0
    1.5340    1.1985    0.0000 O   0  0  0  0  0  0  0  0  0  0  0  0
    1.0107   -1.5820    0.0000 C   0  0  0  0  0  0  0  0  0  0  0  0
   -0.0959    1.5300    0.0000 C   0  0  0  0  0  0  0  0  0  0  0  0
   -2.8243   -1.5380    0.0000 C   0  0  0  0  0  0  0  0  0  0  0  0
   -2.5127   -0.1598    0.0000 C   0  0  0  0  0  0  0  0  0  0  0  0
   -3.6273   -1.3703    0.0000 C   0  0  0  0  0  0  0  0  0  0  0  0
   -3.3197    0.0120    0.0000 C   0  0  0  0  0  0  0  0  0  0  0  0
   -3.8790   -0.5793    0.0000 C   0  0  0  0  0  0  0  0  0  0  0  0
  2  3  1  0  0  0  0
  3  1  1  0  0  0  0
  4  2  1  0  0  0  0
  5  4  2  0  0  0  0
  6  7  2  0  0  0  0
  7  8  1  0  0  0  0
  8  2  2  0  0  0  0
  9  1  2  0  0  0  0
 10  1  2  0  0  0  0
 11  1  1  0  0  0  0
 12  5  1  0  0  0  0
 13  6  1  0  0  0  0
 14  4  1  0  0  0  0
 15  7  1  0  0  0  0
 16 11  1  0  0  0  0
 17 11  2  0  0  0  0
 18 16  2  0  0  0  0
 19 17  1  0  0  0  0
 20 19  2  0  0  0  0
 18 20  1  0  0  0  0
  5  6  1  0  0  0  0
M  END
>  <IDNUMBER>
F0703-0193

>  <Chemical_Name>
N-(3-chloro-4-hydroxy-2,5-dimethylphenyl)benzenesulfonamide

>  <PriceCoeff>
1.00

>  <CAS>
314751-55-8

>  <MW>
311.78

>  <Description>
solid

>  <FSP3>
0.14

>  <clogP>
3.04

>  <TPSA>
74.78

>  <Acceptor>
4

>  <Donor>
2

>  <RotBonds>
3

>  <HAC>
20

>  <Collection>
General

>  <PPDS>
+

$$$$
F0709-0029
  Mrv2219 10102508112D          

 26 27  0  0  0  0            999 V2000
   -1.0218   -2.6834    0.0000 C   0  0  0  0  0  0  0  0  0  0  0  0
   -1.7405   -2.2722    0.0000 N   0  3  0  0  0  0  0  0  0  0  0  0
    1.1257   -1.4373    0.0000 C   0  0  0  0  0  0  0  0  0  0  0  0
    3.2773    1.4580    0.0000 N   0  3  0  0  0  0  0  0  0  0  0  0
    0.4030   -1.0260    0.0000 C   0  0  0  0  0  0  0  0  0  0  0  0
   -0.3074   -2.2597    0.0000 C   0  0  0  0  0  0  0  0  0  0  0  0
   -0.3074   -1.4373    0.0000 N   0  0  0  0  0  0  0  0  0  0  0  0
    1.8361   -1.0260    0.0000 C   0  0  0  0  0  0  0  0  0  0  0  0
    1.1257   -2.2597    0.0000 C   0  0  0  0  0  0  0  0  0  0  0  0
    2.5546    1.0426    0.0000 C   0  0  0  0  0  0  0  0  0  0  0  0
   -1.0218   -3.5058    0.0000 C   0  0  0  0  0  0  0  0  0  0  0  0
    1.1257   -3.1030    0.0000 N   0  0  0  0  0  0  0  0  0  0  0  0
   -1.7405   -1.4497    0.0000 O   0  5  0  0  0  0  0  0  0  0  0  0
    3.9919    1.0426    0.0000 O   0  5  0  0  0  0  0  0  0  0  0  0
   -2.4507   -2.6834    0.0000 O   0  0  0  0  0  0  0  0  0  0  0  0
    3.2773    2.2804    0.0000 O   0  0  0  0  0  0  0  0  0  0  0  0
    1.8361   -0.2036    0.0000 C   0  0  0  0  0  0  0  0  0  0  0  0
    2.5546    0.2119    0.0000 C   0  0  0  0  0  0  0  0  0  0  0  0
    0.4030   -0.2036    0.0000 O   0  0  0  0  0  0  0  0  0  0  0  0
    0.4030   -2.6834    0.0000 C   0  0  0  0  0  0  0  0  0  0  0  0
   -0.3074   -3.9254    0.0000 C   0  0  0  0  0  0  0  0  0  0  0  0
    0.4030   -3.5058    0.0000 C   0  0  0  0  0  0  0  0  0  0  0  0
   -0.3074   -4.7520    0.0000 Cl  0  0  0  0  0  0  0  0  0  0  0  0
    1.8361    1.4538    0.0000 C   0  0  0  0  0  0  0  0  0  0  0  0
    1.1257    1.0426    0.0000 C   0  0  0  0  0  0  0  0  0  0  0  0
    1.1257    0.2119    0.0000 C   0  0  0  0  0  0  0  0  0  0  0  0
  2  1  1  0  0  0  0
  3  5  1  0  0  0  0
  4 10  1  0  0  0  0
  5  7  1  0  0  0  0
  6  1  2  0  0  0  0
  7  6  1  0  0  0  0
  8  3  2  0  0  0  0
  9  3  1  0  0  0  0
 10 18  2  0  0  0  0
 11  1  1  0  0  0  0
 12  9  3  0  0  0  0
 13  2  1  0  0  0  0
 14  4  1  0  0  0  0
 15  2  2  0  0  0  0
 16  4  2  0  0  0  0
 17  8  1  0  0  0  0
 18 17  1  0  0  0  0
 19  5  2  0  0  0  0
 20  6  1  0  0  0  0
 21 11  2  0  0  0  0
 22 21  1  0  0  0  0
 23 21  1  0  0  0  0
 24 25  2  0  0  0  0
 25 26  1  0  0  0  0
 26 17  2  0  0  0  0
 20 22  2  0  0  0  0
 24 10  1  0  0  0  0
M  CHG  4   2   1   4   1  13  -1  14  -1
M  END
>  <IDNUMBER>
F0709-0029

>  <Chemical_Name>
(2Z)-N-(4-chloro-2-nitrophenyl)-2-cyano-3-(3-nitrophenyl)prop-2-enamide

>  <PriceCoeff>
1.00

>  <CAS>
332918-81-7

>  <MW>
372.72

>  <Description>
solid

>  <FSP3>
0.00

>  <clogP>
3.37

>  <TPSA>
139.17

>  <Acceptor>
6

>  <Donor>
1

>  <RotBonds>
5

>  <HAC>
26

>  <Collection>
General

>  <PPDS>
+

$$$$
F0709-0099
  Mrv2219 10102508112D          

 24 25  0  0  0  0            999 V2000
    3.7292   -2.8167    0.0000 C   0  0  0  0  0  0  0  0  0  0  0  0
    3.7292   -3.6417    0.0000 N   0  3  0  0  0  0  0  0  0  0  0  0
    1.5792   -1.5792    0.0000 C   0  0  0  0  0  0  0  0  0  0  0  0
    1.5875   -2.4042    0.0000 C   0  0  0  0  0  0  0  0  0  0  0  0
    3.0167   -2.4042    0.0000 C   0  0  0  0  0  0  0  0  0  0  0  0
    2.3000   -2.8167    0.0000 N   0  0  0  0  0  0  0  0  0  0  0  0
    0.8542   -1.1667    0.0000 C   0  0  0  0  0  0  0  0  0  0  0  0
    2.2875   -1.1667    0.0000 C   0  0  0  0  0  0  0  0  0  0  0  0
    4.4417   -2.4042    0.0000 C   0  0  0  0  0  0  0  0  0  0  0  0
    3.0042   -0.7500    0.0000 N   0  0  0  0  0  0  0  0  0  0  0  0
    3.0167   -4.0542    0.0000 O   0  5  0  0  0  0  0  0  0  0  0  0
    4.4417   -4.0542    0.0000 O   0  0  0  0  0  0  0  0  0  0  0  0
    0.8750   -2.8167    0.0000 O   0  0  0  0  0  0  0  0  0  0  0  0
    3.0167   -1.5792    0.0000 C   0  0  0  0  0  0  0  0  0  0  0  0
    0.1375   -1.5917    0.0000 C   0  0  0  0  0  0  0  0  0  0  0  0
    4.4417   -1.5792    0.0000 C   0  0  0  0  0  0  0  0  0  0  0  0
    3.7292   -1.1667    0.0000 C   0  0  0  0  0  0  0  0  0  0  0  0
    5.1625   -1.1667    0.0000 Cl  0  0  0  0  0  0  0  0  0  0  0  0
   -1.2875   -2.4167    0.0000 C   0  0  0  0  0  0  0  0  0  0  0  0
   -0.5708   -1.1792    0.0000 C   0  0  0  0  0  0  0  0  0  0  0  0
    0.1375   -2.4167    0.0000 C   0  0  0  0  0  0  0  0  0  0  0  0
   -1.2875   -1.5917    0.0000 C   0  0  0  0  0  0  0  0  0  0  0  0
   -0.5708   -2.8292    0.0000 C   0  0  0  0  0  0  0  0  0  0  0  0
   -2.0083   -2.8292    0.0000 C   0  0  0  0  0  0  0  0  0  0  0  0
  2  1  1  0  0  0  0
  3  4  1  0  0  0  0
  4  6  1  0  0  0  0
  5  1  2  0  0  0  0
  6  5  1  0  0  0  0
  7  3  2  0  0  0  0
  8  3  1  0  0  0  0
  9  1  1  0  0  0  0
 10  8  3  0  0  0  0
 11  2  1  0  0  0  0
 12  2  2  0  0  0  0
 13  4  2  0  0  0  0
 14  5  1  0  0  0  0
 15  7  1  0  0  0  0
 16  9  2  0  0  0  0
 17 16  1  0  0  0  0
 18 16  1  0  0  0  0
 19 23  2  0  0  0  0
 20 15  1  0  0  0  0
 21 15  2  0  0  0  0
 22 20  2  0  0  0  0
 23 21  1  0  0  0  0
 24 19  1  0  0  0  0
 14 17  2  0  0  0  0
 22 19  1  0  0  0  0
M  CHG  2   2   1  11  -1
M  END
>  <IDNUMBER>
F0709-0099

>  <Chemical_Name>
(2Z)-N-(4-chloro-2-nitrophenyl)-2-cyano-3-(4-methylphenyl)prop-2-enamide

>  <PriceCoeff>
1.00

>  <CAS>
444097-92-1

>  <MW>
341.75

>  <Description>
solid

>  <FSP3>
0.06

>  <clogP>
4.12

>  <TPSA>
96.03

>  <Acceptor>
4

>  <Donor>
1

>  <RotBonds>
4

>  <HAC>
24

>  <Collection>
General

>  <PPDS>
+

$$$$
F0709-0274
  Mrv2219 10102508112D          

 27 28  0  0  0  0            999 V2000
    3.7417   -5.5625    0.0000 C   0  0  0  0  0  0  0  0  0  0  0  0
    3.7292   -6.3875    0.0000 N   0  3  0  0  0  0  0  0  0  0  0  0
    1.5917   -4.3167    0.0000 C   0  0  0  0  0  0  0  0  0  0  0  0
    1.6000   -5.1417    0.0000 C   0  0  0  0  0  0  0  0  0  0  0  0
    3.0292   -5.1417    0.0000 C   0  0  0  0  0  0  0  0  0  0  0  0
    2.3167   -5.5625    0.0000 N   0  0  0  0  0  0  0  0  0  0  0  0
    0.8667   -3.9042    0.0000 C   0  0  0  0  0  0  0  0  0  0  0  0
    2.3042   -3.9042    0.0000 C   0  0  0  0  0  0  0  0  0  0  0  0
    4.4542   -5.1500    0.0000 C   0  0  0  0  0  0  0  0  0  0  0  0
    3.0167   -3.4792    0.0000 N   0  0  0  0  0  0  0  0  0  0  0  0
    3.0167   -6.7917    0.0000 O   0  5  0  0  0  0  0  0  0  0  0  0
   -1.2708   -4.3292    0.0000 C   0  0  0  0  0  0  0  0  0  0  0  0
    4.4417   -6.8042    0.0000 O   0  0  0  0  0  0  0  0  0  0  0  0
    0.1542   -4.3292    0.0000 C   0  0  0  0  0  0  0  0  0  0  0  0
    0.8917   -5.5542    0.0000 O   0  0  0  0  0  0  0  0  0  0  0  0
   -0.5583   -3.9167    0.0000 C   0  0  0  0  0  0  0  0  0  0  0  0
   -1.2708   -5.1542    0.0000 C   0  0  0  0  0  0  0  0  0  0  0  0
    3.0292   -4.3167    0.0000 C   0  0  0  0  0  0  0  0  0  0  0  0
    4.4542   -4.3167    0.0000 C   0  0  0  0  0  0  0  0  0  0  0  0
   -0.5583   -5.5667    0.0000 C   0  0  0  0  0  0  0  0  0  0  0  0
    0.1542   -5.1542    0.0000 C   0  0  0  0  0  0  0  0  0  0  0  0
    3.7417   -3.9125    0.0000 C   0  0  0  0  0  0  0  0  0  0  0  0
   -1.9958   -3.9167    0.0000 O   0  0  0  0  0  0  0  0  0  0  0  0
    5.1750   -3.9042    0.0000 Cl  0  0  0  0  0  0  0  0  0  0  0  0
   -1.9958   -5.5750    0.0000 O   0  0  0  0  0  0  0  0  0  0  0  0
   -1.9958   -3.0917    0.0000 C   0  0  0  0  0  0  0  0  0  0  0  0
   -1.9958   -6.4000    0.0000 C   0  0  0  0  0  0  0  0  0  0  0  0
  2  1  1  0  0  0  0
  3  4  1  0  0  0  0
  4  6  1  0  0  0  0
  5  1  2  0  0  0  0
  6  5  1  0  0  0  0
  7  3  2  0  0  0  0
  8  3  1  0  0  0  0
  9  1  1  0  0  0  0
 10  8  3  0  0  0  0
 11  2  1  0  0  0  0
 12 16  2  0  0  0  0
 13  2  2  0  0  0  0
 14  7  1  0  0  0  0
 15  4  2  0  0  0  0
 16 14  1  0  0  0  0
 17 20  2  0  0  0  0
 18  5  1  0  0  0  0
 19  9  2  0  0  0  0
 20 21  1  0  0  0  0
 21 14  2  0  0  0  0
 22 19  1  0  0  0  0
 23 12  1  0  0  0  0
 24 19  1  0  0  0  0
 25 17  1  0  0  0  0
 26 23  1  0  0  0  0
 27 25  1  0  0  0  0
 18 22  2  0  0  0  0
 17 12  1  0  0  0  0
M  CHG  2   2   1  11  -1
M  END
>  <IDNUMBER>
F0709-0274

>  <Chemical_Name>
(2Z)-N-(4-chloro-2-nitrophenyl)-2-cyano-3-(3,4-dimethoxyphenyl)prop-2-enamide

>  <PriceCoeff>
1.00

>  <CAS>
332918-83-9

>  <MW>
387.77

>  <Description>
solid

>  <FSP3>
0.11

>  <clogP>
3.28

>  <TPSA>
114.49

>  <Acceptor>
6

>  <Donor>
1

>  <RotBonds>
6

>  <HAC>
27

>  <Collection>
General

>  <PPDS>
+

$$$$
F0709-0469
  Mrv2219 10102508112D          

 27 29  0  0  0  0            999 V2000
    3.7791   -3.9037    0.0000 C   0  0  0  0  0  0  0  0  0  0  0  0
   -0.2367   -3.2642    0.0000 N   0  3  0  0  0  0  0  0  0  0  0  0
   -0.3696   -4.0781    0.0000 C   0  0  0  0  0  0  0  0  0  0  0  0
    1.0507   -4.3273    0.0000 C   0  0  0  0  0  0  0  0  0  0  0  0
    0.2658   -4.6139    0.0000 C   0  0  0  0  0  0  0  0  0  0  0  0
    4.5723   -4.0989    0.0000 C   0  0  0  0  0  0  0  0  0  0  0  0
    1.7235   -4.8090    0.0000 O   0  0  0  0  0  0  0  0  0  0  0  0
    3.2060   -4.5017    0.0000 C   0  0  0  0  0  0  0  0  0  0  0  0
    2.3962   -4.3024    0.0000 C   0  0  0  0  0  0  0  0  0  0  0  0
    4.8007   -4.8962    0.0000 N   0  0  0  0  0  0  0  0  0  0  0  0
    3.5424   -3.1064    0.0000 C   0  0  0  0  0  0  0  0  0  0  0  0
    1.2999   -3.5673    0.0000 C   0  0  0  0  0  0  0  0  0  0  0  0
    3.3182   -2.3090    0.0000 N   0  0  0  0  0  0  0  0  0  0  0  0
   -1.1295   -4.3772    0.0000 C   0  0  0  0  0  0  0  0  0  0  0  0
    2.1221   -3.5673    0.0000 C   0  0  0  0  0  0  0  0  0  0  0  0
    0.1288   -5.4361    0.0000 C   0  0  0  0  0  0  0  0  0  0  0  0
    0.5274   -2.9693    0.0000 O   0  5  0  0  0  0  0  0  0  0  0  0
   -0.8721   -2.7451    0.0000 O   0  0  0  0  0  0  0  0  0  0  0  0
    5.1371   -3.5133    0.0000 O   0  0  0  0  0  0  0  0  0  0  0  0
   -1.2666   -5.1952    0.0000 C   0  0  0  0  0  0  0  0  0  0  0  0
   -0.6478   -5.7227    0.0000 C   0  0  0  0  0  0  0  0  0  0  0  0
   -2.0639   -5.5109    0.0000 Cl  0  0  0  0  0  0  0  0  0  0  0  0
    4.2359   -5.4735    0.0000 C   0  0  0  0  0  0  0  0  0  0  0  0
    5.5981   -5.0873    0.0000 C   0  0  0  0  0  0  0  0  0  0  0  0
    5.8306   -5.8680    0.0000 C   0  0  0  0  0  0  0  0  0  0  0  0
    4.4644   -6.2584    0.0000 C   0  0  0  0  0  0  0  0  0  0  0  0
    5.2617   -6.4702    0.0000 C   0  0  0  0  0  0  0  0  0  0  0  0
  2  3  1  0  0  0  0
  3  5  2  0  0  0  0
  4  7  1  0  0  0  0
  5  4  1  0  0  0  0
  6  1  1  0  0  0  0
  7  9  1  0  0  0  0
  8  1  2  0  0  0  0
  9  8  1  0  0  0  0
 10  6  1  0  0  0  0
 11  1  1  0  0  0  0
 12 15  1  0  0  0  0
 13 11  3  0  0  0  0
 14  3  1  0  0  0  0
 15  9  2  0  0  0  0
 16  5  1  0  0  0  0
 17  2  1  0  0  0  0
 18  2  2  0  0  0  0
 19  6  2  0  0  0  0
 20 21  1  0  0  0  0
 21 16  2  0  0  0  0
 22 20  1  0  0  0  0
 23 10  1  0  0  0  0
 24 10  1  0  0  0  0
 25 24  1  0  0  0  0
 26 23  1  0  0  0  0
 27 25  1  0  0  0  0
  4 12  2  0  0  0  0
 26 27  1  0  0  0  0
 14 20  2  0  0  0  0
M  CHG  2   2   1  17  -1
M  END
>  <IDNUMBER>
F0709-0469

>  <Chemical_Name>
(2E)-3-[5-(4-chloro-2-nitrophenyl)furan-2-yl]-2-[(E)-piperidine-1-carbonyl]prop-2-enenitrile

>  <PriceCoeff>
1.00

>  <CAS>
476616-33-8

>  <MW>
385.80

>  <Description>
solid

>  <FSP3>
0.26

>  <clogP>
4.32

>  <TPSA>
100.38

>  <Acceptor>
5

>  <Donor>
0

>  <RotBonds>
5

>  <HAC>
27

>  <Collection>
General

>  <PPDS>
+

$$$$
F0715-0371
  Mrv2219 10102508112D          

 28 30  0  0  0  0            999 V2000
   -1.4176    0.1844    0.0000 C   0  0  0  0  0  0  0  0  0  0  0  0
   -0.7747   -0.9697    0.0000 C   0  0  0  0  0  0  0  0  0  0  0  0
   -1.5124   -0.6377    0.0000 S   0  0  0  0  0  0  0  0  0  0  0  0
   -2.0183    0.7377    0.0000 N   0  0  0  0  0  0  0  0  0  0  0  0
   -0.5955    0.3320    0.0000 N   0  0  0  0  0  0  0  0  0  0  0  0
   -0.2055   -0.4269    0.0000 C   0  0  0  0  0  0  0  0  0  0  0  0
   -5.4016    2.5559    0.0000 N   0  0  0  0  0  0  0  0  0  0  0  0
   -2.7983    0.5059    0.0000 C   0  0  0  0  0  0  0  0  0  0  0  0
   -5.3384    3.3464    0.0000 C   0  0  0  0  0  0  0  0  0  0  0  0
   -6.2079    2.3399    0.0000 C   0  0  0  0  0  0  0  0  0  0  0  0
   -0.5955   -1.8076    0.0000 C   0  0  0  0  0  0  0  0  0  0  0  0
   -4.7588    2.0500    0.0000 C   0  0  0  0  0  0  0  0  0  0  0  0
   -3.4412    1.0118    0.0000 C   0  0  0  0  0  0  0  0  0  0  0  0
   -2.9881   -0.2530    0.0000 O   0  0  0  0  0  0  0  0  0  0  0  0
   -6.6032    3.0355    0.0000 C   0  0  0  0  0  0  0  0  0  0  0  0
   -6.0710    3.6626    0.0000 C   0  0  0  0  0  0  0  0  0  0  0  0
   -6.5241    1.5336    0.0000 O   0  0  0  0  0  0  0  0  0  0  0  0
   -4.6112    3.7469    0.0000 O   0  0  0  0  0  0  0  0  0  0  0  0
   -1.2174   -2.3452    0.0000 O   0  0  0  0  0  0  0  0  0  0  0  0
   -4.8694    1.2279    0.0000 C   0  0  0  0  0  0  0  0  0  0  0  0
   -3.9788    2.3557    0.0000 C   0  0  0  0  0  0  0  0  0  0  0  0
   -4.2159    0.7219    0.0000 C   0  0  0  0  0  0  0  0  0  0  0  0
   -3.3306    1.8339    0.0000 C   0  0  0  0  0  0  0  0  0  0  0  0
   -0.2055    1.0381    0.0000 C   0  0  0  0  0  0  0  0  0  0  0  0
    0.1897   -2.0711    0.0000 O   0  0  0  0  0  0  0  0  0  0  0  0
    0.6061   -0.5533    0.0000 C   0  0  0  0  0  0  0  0  0  0  0  0
    0.8063   -1.5389    0.0000 C   0  0  0  0  0  0  0  0  0  0  0  0
    1.5863   -1.8076    0.0000 C   0  0  0  0  0  0  0  0  0  0  0  0
  2  3  1  0  0  0  0
  3  1  1  0  0  0  0
  4  1  2  0  0  0  0
  5  1  1  0  0  0  0
  6  5  1  0  0  0  0
  7 12  1  0  0  0  0
  8  4  1  0  0  0  0
  9  7  1  0  0  0  0
 10  7  1  0  0  0  0
 11  2  1  0  0  0  0
 12 21  2  0  0  0  0
 13  8  1  0  0  0  0
 14  8  2  0  0  0  0
 15 10  1  0  0  0  0
 16  9  1  0  0  0  0
 17 10  2  0  0  0  0
 18  9  2  0  0  0  0
 19 11  2  0  0  0  0
 20 22  2  0  0  0  0
 21 23  1  0  0  0  0
 22 13  1  0  0  0  0
 23 13  2  0  0  0  0
 24  5  1  0  0  0  0
 25 11  1  0  0  0  0
 26  6  1  0  0  0  0
 27 25  1  0  0  0  0
 28 27  1  0  0  0  0
  2  6  2  0  0  0  0
 20 12  1  0  0  0  0
 16 15  1  0  0  0  0
M  END
>  <IDNUMBER>
F0715-0371

>  <Chemical_Name>
ethyl (2Z)-2-{[4-(2,5-dioxopyrrolidin-1-yl)benzoyl]imino}-3,4-dimethyl-2,3-dihydro-1,3-thiazole-5-carboxylate

>  <PriceCoeff>
1.00

>  <CAS>
393838-93-2

>  <MW>
401.44

>  <Description>
solid

>  <FSP3>
0.32

>  <clogP>
2.35

>  <TPSA>
121.65

>  <Acceptor>
5

>  <Donor>
0

>  <RotBonds>
6

>  <HAC>
28

>  <Collection>
General

>  <PPDS>
+

$$$$
F0715-0381
  Mrv2219 10102508112D          

 23 24  0  0  0  0            999 V2000
   -1.5034   -1.4415    0.0000 C   0  0  0  0  0  0  0  0  0  0  0  0
   -0.1633   -1.4865    0.0000 C   0  0  0  0  0  0  0  0  0  0  0  0
   -0.8108   -0.9685    0.0000 S   0  0  0  0  0  0  0  0  0  0  0  0
   -1.2162   -2.2693    0.0000 N   0  0  0  0  0  0  0  0  0  0  0  0
   -3.8963   -0.6082    0.0000 N   0  0  0  0  0  0  0  0  0  0  0  0
   -0.3998   -2.2355    0.0000 C   0  0  0  0  0  0  0  0  0  0  0  0
   -2.2748   -1.1993    0.0000 N   0  0  0  0  0  0  0  0  0  0  0  0
   -4.6791   -0.3773    0.0000 C   0  0  0  0  0  0  0  0  0  0  0  0
   -3.8682   -1.4584    0.0000 C   0  0  0  0  0  0  0  0  0  0  0  0
    0.6588   -1.2388    0.0000 C   0  0  0  0  0  0  0  0  0  0  0  0
   -2.4493   -0.3885    0.0000 C   0  0  0  0  0  0  0  0  0  0  0  0
   -3.2602   -0.0901    0.0000 C   0  0  0  0  0  0  0  0  0  0  0  0
   -4.6565   -1.6949    0.0000 C   0  0  0  0  0  0  0  0  0  0  0  0
   -5.1521   -1.0361    0.0000 C   0  0  0  0  0  0  0  0  0  0  0  0
   -3.1362   -1.9426    0.0000 O   0  0  0  0  0  0  0  0  0  0  0  0
   -4.9268    0.4504    0.0000 O   0  0  0  0  0  0  0  0  0  0  0  0
    0.8502   -0.4280    0.0000 O   0  0  0  0  0  0  0  0  0  0  0  0
   -1.8244    0.1520    0.0000 O   0  0  0  0  0  0  0  0  0  0  0  0
   -1.7061   -2.9280    0.0000 C   0  0  0  0  0  0  0  0  0  0  0  0
    1.2669   -1.8244    0.0000 O   0  0  0  0  0  0  0  0  0  0  0  0
    0.1070   -2.9280    0.0000 C   0  0  0  0  0  0  0  0  0  0  0  0
    1.0867   -2.6408    0.0000 C   0  0  0  0  0  0  0  0  0  0  0  0
    1.6949   -3.1983    0.0000 C   0  0  0  0  0  0  0  0  0  0  0  0
  2  3  1  0  0  0  0
  3  1  1  0  0  0  0
  4  1  1  0  0  0  0
  5 12  1  0  0  0  0
  6  4  1  0  0  0  0
  7  1  2  0  0  0  0
  8  5  1  0  0  0  0
  9  5  1  0  0  0  0
 10  2  1  0  0  0  0
 11  7  1  0  0  0  0
 12 11  1  0  0  0  0
 13  9  1  0  0  0  0
 14  8  1  0  0  0  0
 15  9  2  0  0  0  0
 16  8  2  0  0  0  0
 17 10  2  0  0  0  0
 18 11  2  0  0  0  0
 19  4  1  0  0  0  0
 20 10  1  0  0  0  0
 21  6  1  0  0  0  0
 22 20  1  0  0  0  0
 23 22  1  0  0  0  0
  2  6  2  0  0  0  0
 14 13  1  0  0  0  0
M  END
>  <IDNUMBER>
F0715-0381

>  <Chemical_Name>
ethyl (2Z)-2-{[2-(2,5-dioxopyrrolidin-1-yl)acetyl]imino}-3,4-dimethyl-2,3-dihydro-1,3-thiazole-5-carboxylate

>  <PriceCoeff>
1.00

>  <CAS>
393839-00-4

>  <MW>
339.37

>  <Description>
solid

>  <FSP3>
0.50

>  <clogP>
2.18

>  <TPSA>
121.65

>  <Acceptor>
5

>  <Donor>
0

>  <RotBonds>
6

>  <HAC>
23

>  <Collection>
General

>  <PPDS>
+

$$$$
F0715-0438
  Mrv2219 10102508112D          

 26 28  0  0  0  0            999 V2000
   -4.1903   -3.2835    0.0000 N   0  0  0  0  0  0  0  0  0  0  0  0
   -1.9285   -2.1362    0.0000 C   0  0  0  0  0  0  0  0  0  0  0  0
   -1.1582   -2.4476    0.0000 N   0  0  0  0  0  0  0  0  0  0  0  0
   -0.6064   -1.8412    0.0000 C   0  0  0  0  0  0  0  0  0  0  0  0
    0.2186   -1.8412    0.0000 C   0  0  0  0  0  0  0  0  0  0  0  0
   -2.6497   -2.5295    0.0000 N   0  0  0  0  0  0  0  0  0  0  0  0
   -3.5675   -3.8407    0.0000 C   0  0  0  0  0  0  0  0  0  0  0  0
   -4.8951   -3.6932    0.0000 C   0  0  0  0  0  0  0  0  0  0  0  0
   -1.8302   -1.2948    0.0000 S   0  0  0  0  0  0  0  0  0  0  0  0
   -1.0107   -1.1364    0.0000 C   0  0  0  0  0  0  0  0  0  0  0  0
   -3.3435   -2.1034    0.0000 C   0  0  0  0  0  0  0  0  0  0  0  0
    0.6392   -2.5295    0.0000 C   0  0  0  0  0  0  0  0  0  0  0  0
   -4.1247   -2.4749    0.0000 C   0  0  0  0  0  0  0  0  0  0  0  0
    1.4915   -2.5623    0.0000 C   0  0  0  0  0  0  0  0  0  0  0  0
    0.6392   -1.1145    0.0000 C   0  0  0  0  0  0  0  0  0  0  0  0
   -3.9336   -4.5728    0.0000 C   0  0  0  0  0  0  0  0  0  0  0  0
   -4.7367   -4.4799    0.0000 C   0  0  0  0  0  0  0  0  0  0  0  0
   -2.7043   -3.6549    0.0000 O   0  0  0  0  0  0  0  0  0  0  0  0
   -5.6545   -3.2999    0.0000 O   0  0  0  0  0  0  0  0  0  0  0  0
   -3.3052   -1.2948    0.0000 O   0  0  0  0  0  0  0  0  0  0  0  0
    1.9012   -1.8193    0.0000 C   0  0  0  0  0  0  0  0  0  0  0  0
    1.4915   -1.1145    0.0000 C   0  0  0  0  0  0  0  0  0  0  0  0
    0.2186   -3.3163    0.0000 O   0  0  0  0  0  0  0  0  0  0  0  0
    2.7371   -1.8412    0.0000 O   0  0  0  0  0  0  0  0  0  0  0  0
    0.6283   -4.0046    0.0000 C   0  0  0  0  0  0  0  0  0  0  0  0
    3.1960   -1.1145    0.0000 C   0  0  0  0  0  0  0  0  0  0  0  0
  2  6  1  0  0  0  0
  3  2  2  0  0  0  0
  4  3  1  0  0  0  0
  5  4  1  0  0  0  0
  6 11  1  0  0  0  0
  7  1  1  0  0  0  0
  8  1  1  0  0  0  0
  9  2  1  0  0  0  0
 10  9  1  0  0  0  0
 11 13  1  0  0  0  0
 12  5  1  0  0  0  0
 13  1  1  0  0  0  0
 14 12  2  0  0  0  0
 15  5  2  0  0  0  0
 16  7  1  0  0  0  0
 17  8  1  0  0  0  0
 18  7  2  0  0  0  0
 19  8  2  0  0  0  0
 20 11  2  0  0  0  0
 21 22  2  0  0  0  0
 22 15  1  0  0  0  0
 23 12  1  0  0  0  0
 24 21  1  0  0  0  0
 25 23  1  0  0  0  0
 26 24  1  0  0  0  0
 16 17  1  0  0  0  0
  4 10  2  0  0  0  0
 14 21  1  0  0  0  0
M  END
>  <IDNUMBER>
F0715-0438

>  <Chemical_Name>
N-[4-(2,4-dimethoxyphenyl)-1,3-thiazol-2-yl]-2-(2,5-dioxopyrrolidin-1-yl)acetamide

>  <PriceCoeff>
1.00

>  <CAS>
361481-82-5

>  <MW>
375.40

>  <Description>
solid

>  <FSP3>
0.29

>  <clogP>
1.47

>  <TPSA>
126.07

>  <Acceptor>
6

>  <Donor>
1

>  <RotBonds>
6

>  <HAC>
26

>  <Collection>
General

>  <PPDS>
+

$$$$
F0715-0484
  Mrv2219 10102508112D          

 27 30  0  0  0  0            999 V2000
   -5.6693    1.5108    0.0000 N   0  0  0  0  0  0  0  0  0  0  0  0
   -1.2616    0.1661    0.0000 C   0  0  0  0  0  0  0  0  0  0  0  0
   -0.4776    0.4932    0.0000 N   0  0  0  0  0  0  0  0  0  0  0  0
   -1.9728    0.5763    0.0000 N   0  0  0  0  0  0  0  0  0  0  0  0
    0.0623   -0.1298    0.0000 C   0  0  0  0  0  0  0  0  0  0  0  0
   -2.6737    0.1661    0.0000 C   0  0  0  0  0  0  0  0  0  0  0  0
   -6.4272    1.1214    0.0000 C   0  0  0  0  0  0  0  0  0  0  0  0
   -5.8198    2.2999    0.0000 C   0  0  0  0  0  0  0  0  0  0  0  0
   -1.1837   -0.6594    0.0000 S   0  0  0  0  0  0  0  0  0  0  0  0
   -0.3686   -0.8307    0.0000 C   0  0  0  0  0  0  0  0  0  0  0  0
   -4.9476    1.1837    0.0000 C   0  0  0  0  0  0  0  0  0  0  0  0
   -3.4213    0.4984    0.0000 C   0  0  0  0  0  0  0  0  0  0  0  0
   -2.6789   -0.6074    0.0000 O   0  0  0  0  0  0  0  0  0  0  0  0
   -6.9723    1.6977    0.0000 C   0  0  0  0  0  0  0  0  0  0  0  0
   -6.6038    2.4400    0.0000 C   0  0  0  0  0  0  0  0  0  0  0  0
   -6.5362    0.2751    0.0000 O   0  0  0  0  0  0  0  0  0  0  0  0
   -5.1968    2.8658    0.0000 O   0  0  0  0  0  0  0  0  0  0  0  0
    0.9086   -0.1298    0.0000 C   0  0  0  0  0  0  0  0  0  0  0  0
    2.5543   -0.1713    0.0000 N   0  0  0  0  0  0  0  0  0  0  0  0
   -4.2520    1.6769    0.0000 C   0  0  0  0  0  0  0  0  0  0  0  0
   -4.8594    0.3738    0.0000 C   0  0  0  0  0  0  0  0  0  0  0  0
   -3.5044    1.3239    0.0000 C   0  0  0  0  0  0  0  0  0  0  0  0
   -4.1065    0.0415    0.0000 C   0  0  0  0  0  0  0  0  0  0  0  0
    2.1390    0.5763    0.0000 C   0  0  0  0  0  0  0  0  0  0  0  0
    2.1234   -0.8722    0.0000 C   0  0  0  0  0  0  0  0  0  0  0  0
    1.3135    0.5607    0.0000 C   0  0  0  0  0  0  0  0  0  0  0  0
    1.2927   -0.8722    0.0000 C   0  0  0  0  0  0  0  0  0  0  0  0
  2  4  1  0  0  0  0
  3  2  2  0  0  0  0
  4  6  1  0  0  0  0
  5  3  1  0  0  0  0
  6 12  1  0  0  0  0
  7  1  1  0  0  0  0
  8  1  1  0  0  0  0
  9  2  1  0  0  0  0
 10  9  1  0  0  0  0
 11  1  1  0  0  0  0
 12 23  1  0  0  0  0
 13  6  2  0  0  0  0
 14  7  1  0  0  0  0
 15  8  1  0  0  0  0
 16  7  2  0  0  0  0
 17  8  2  0  0  0  0
 18  5  1  0  0  0  0
 19 25  2  0  0  0  0
 20 11  2  0  0  0  0
 21 11  1  0  0  0  0
 22 20  1  0  0  0  0
 23 21  2  0  0  0  0
 24 26  2  0  0  0  0
 25 27  1  0  0  0  0
 26 18  1  0  0  0  0
 27 18  2  0  0  0  0
 15 14  1  0  0  0  0
 22 12  2  0  0  0  0
 10  5  2  0  0  0  0
 19 24  1  0  0  0  0
M  END
>  <IDNUMBER>
F0715-0484

>  <Chemical_Name>
4-(2,5-dioxopyrrolidin-1-yl)-N-[4-(pyridin-4-yl)-1,3-thiazol-2-yl]benzamide

>  <PriceCoeff>
1.00

>  <CAS>
393839-12-8

>  <MW>
378.40

>  <Description>
solid

>  <FSP3>
0.11

>  <clogP>
0.74

>  <TPSA>
120.50

>  <Acceptor>
5

>  <Donor>
2

>  <RotBonds>
4

>  <HAC>
27

>  <Collection>
General

>  <PPDS>
+

$$$$
F0715-0490
  Mrv2219 10102508112D          

 22 24  0  0  0  0            999 V2000
   -4.1993   -3.2905    0.0000 N   0  0  0  0  0  0  0  0  0  0  0  0
   -1.9326   -2.1408    0.0000 C   0  0  0  0  0  0  0  0  0  0  0  0
   -1.1607   -2.4529    0.0000 N   0  0  0  0  0  0  0  0  0  0  0  0
   -0.6077   -1.8451    0.0000 C   0  0  0  0  0  0  0  0  0  0  0  0
   -2.6554   -2.5350    0.0000 N   0  0  0  0  0  0  0  0  0  0  0  0
   -3.5752   -3.8490    0.0000 C   0  0  0  0  0  0  0  0  0  0  0  0
   -4.9056   -3.7012    0.0000 C   0  0  0  0  0  0  0  0  0  0  0  0
   -1.8341   -1.2976    0.0000 S   0  0  0  0  0  0  0  0  0  0  0  0
   -3.3507   -2.1079    0.0000 C   0  0  0  0  0  0  0  0  0  0  0  0
   -1.0128   -1.1389    0.0000 C   0  0  0  0  0  0  0  0  0  0  0  0
   -4.1336   -2.4802    0.0000 C   0  0  0  0  0  0  0  0  0  0  0  0
   -3.9420   -4.5826    0.0000 C   0  0  0  0  0  0  0  0  0  0  0  0
   -4.7469   -4.4896    0.0000 C   0  0  0  0  0  0  0  0  0  0  0  0
   -2.7101   -3.6628    0.0000 O   0  0  0  0  0  0  0  0  0  0  0  0
   -5.6667   -3.3070    0.0000 O   0  0  0  0  0  0  0  0  0  0  0  0
    0.2190   -1.8451    0.0000 C   0  0  0  0  0  0  0  0  0  0  0  0
   -3.3124   -1.2976    0.0000 O   0  0  0  0  0  0  0  0  0  0  0  0
    1.9053   -1.8232    0.0000 N   0  0  0  0  0  0  0  0  0  0  0  0
    1.4947   -2.5678    0.0000 C   0  0  0  0  0  0  0  0  0  0  0  0
    1.4947   -1.1169    0.0000 C   0  0  0  0  0  0  0  0  0  0  0  0
    0.6406   -1.1169    0.0000 C   0  0  0  0  0  0  0  0  0  0  0  0
    0.6406   -2.5350    0.0000 C   0  0  0  0  0  0  0  0  0  0  0  0
  2  5  1  0  0  0  0
  3  2  2  0  0  0  0
  4  3  1  0  0  0  0
  5  9  1  0  0  0  0
  6  1  1  0  0  0  0
  7  1  1  0  0  0  0
  8  2  1  0  0  0  0
  9 11  1  0  0  0  0
 10  8  1  0  0  0  0
 11  1  1  0  0  0  0
 12  6  1  0  0  0  0
 13  7  1  0  0  0  0
 14  6  2  0  0  0  0
 15  7  2  0  0  0  0
 16  4  1  0  0  0  0
 17  9  2  0  0  0  0
 18 19  1  0  0  0  0
 19 22  2  0  0  0  0
 20 21  1  0  0  0  0
 21 16  2  0  0  0  0
 22 16  1  0  0  0  0
 13 12  1  0  0  0  0
 10  4  2  0  0  0  0
 20 18  2  0  0  0  0
M  END
>  <IDNUMBER>
F0715-0490

>  <Chemical_Name>
2-(2,5-dioxopyrrolidin-1-yl)-N-[4-(pyridin-4-yl)-1,3-thiazol-2-yl]acetamide

>  <PriceCoeff>
1.00

>  <CAS>
441289-96-9

>  <MW>
316.34

>  <Description>
solid

>  <FSP3>
0.21

>  <clogP>
0.56

>  <TPSA>
120.50

>  <Acceptor>
5

>  <Donor>
2

>  <RotBonds>
4

>  <HAC>
22

>  <Collection>
General

>  <PPDS>
+

$$$$
F0722-1840
  Mrv2219 10102508112D          

 14 14  0  0  0  0            999 V2000
    0.2758    1.3926    0.0000 C   0  0  0  0  0  0  0  0  0  0  0  0
   -0.0105   -1.0785    0.0000 C   0  0  0  0  0  0  0  0  0  0  0  0
   -0.4991    1.1064    0.0000 O   0  0  0  0  0  0  0  0  0  0  0  0
    0.6422   -1.5532    0.0000 O   0  0  0  0  0  0  0  0  0  0  0  0
   -0.7958   -1.4380    0.0000 C   0  0  0  0  0  0  0  0  0  0  0  0
    0.3386    2.2303    0.0000 O   0  0  0  0  0  0  0  0  0  0  0  0
    0.9459    0.9179    0.0000 C   0  0  0  0  0  0  0  0  0  0  0  0
    0.8377    0.0838    0.0000 C   0  0  0  0  0  0  0  0  0  0  0  0
    0.0838   -0.2513    0.0000 C   0  0  0  0  0  0  0  0  0  0  0  0
   -0.8760   -2.2233    0.0000 C   0  0  0  0  0  0  0  0  0  0  0  0
   -1.4519   -0.9354    0.0000 C   0  0  0  0  0  0  0  0  0  0  0  0
   -1.6194   -2.5793    0.0000 C   0  0  0  0  0  0  0  0  0  0  0  0
   -2.2058   -1.2705    0.0000 C   0  0  0  0  0  0  0  0  0  0  0  0
   -2.3000   -2.0837    0.0000 C   0  0  0  0  0  0  0  0  0  0  0  0
  2  9  1  0  0  0  0
  3  1  2  0  0  0  0
  4  2  2  0  0  0  0
  5  2  1  0  0  0  0
  6  1  1  0  0  0  0
  7  1  1  0  0  0  0
  8  7  1  0  0  0  0
  9  8  1  0  0  0  0
 10  5  2  0  0  0  0
 11  5  1  0  0  0  0
 12 10  1  0  0  0  0
 13 11  2  0  0  0  0
 14 13  1  0  0  0  0
 14 12  2  0  0  0  0
M  END
>  <IDNUMBER>
F0722-1840

>  <Chemical_Name>
5-oxo-5-phenylpentanoic acid

>  <PriceCoeff>
1.00

>  <CAS>
1501-05-9

>  <MW>
192.21

>  <Description>
solid

>  <FSP3>
0.27

>  <clogP>
2.12

>  <TPSA>
54.37

>  <Acceptor>
3

>  <Donor>
0

>  <RotBonds>
5

>  <HAC>
14

>  <Collection>
General

>  <PPDS>
+

$$$$
F0722-2692
  Mrv2219 10102508112D          

 25 27  0  0  0  0            999 V2000
    3.5560  -11.8518    0.0000 N   0  3  0  0  0  0  0  0  0  0  0  0
    3.5435   -9.3760    0.0000 C   0  0  0  0  0  0  0  0  0  0  0  0
    3.5435   -8.5617    0.0000 C   0  0  0  0  0  0  0  0  0  0  0  0
    4.2664   -9.7872    0.0000 C   0  0  0  0  0  0  0  0  0  0  0  0
    3.5560  -11.0210    0.0000 C   0  0  0  0  0  0  0  0  0  0  0  0
    4.2664  -10.6180    0.0000 C   0  0  0  0  0  0  0  0  0  0  0  0
    7.0953   -6.4971    0.0000 N   0  0  0  0  0  0  0  0  0  0  0  0
    4.2539   -8.1547    0.0000 N   0  0  0  0  0  0  0  0  0  0  0  0
    2.8414   -9.7872    0.0000 C   0  0  0  0  0  0  0  0  0  0  0  0
    2.8414  -12.2631    0.0000 O   0  5  0  0  0  0  0  0  0  0  0  0
    6.3850   -6.9167    0.0000 C   0  0  0  0  0  0  0  0  0  0  0  0
    4.2664  -12.2631    0.0000 O   0  0  0  0  0  0  0  0  0  0  0  0
    2.8414   -8.1547    0.0000 O   0  0  0  0  0  0  0  0  0  0  0  0
    2.8414  -10.6180    0.0000 C   0  0  0  0  0  0  0  0  0  0  0  0
    8.5243   -5.6829    0.0000 O   0  0  0  0  0  0  0  0  0  0  0  0
    4.9643   -7.7434    0.0000 C   0  0  0  0  0  0  0  0  0  0  0  0
    6.3850   -7.7434    0.0000 C   0  0  0  0  0  0  0  0  0  0  0  0
    5.6829   -6.4971    0.0000 C   0  0  0  0  0  0  0  0  0  0  0  0
    4.9850   -9.3760    0.0000 Cl  0  0  0  0  0  0  0  0  0  0  0  0
    4.9643   -6.9167    0.0000 C   0  0  0  0  0  0  0  0  0  0  0  0
    5.6829   -8.1547    0.0000 C   0  0  0  0  0  0  0  0  0  0  0  0
    7.0953   -5.6829    0.0000 C   0  0  0  0  0  0  0  0  0  0  0  0
    7.8140   -6.9084    0.0000 C   0  0  0  0  0  0  0  0  0  0  0  0
    8.5243   -6.4971    0.0000 C   0  0  0  0  0  0  0  0  0  0  0  0
    7.8057   -5.2634    0.0000 C   0  0  0  0  0  0  0  0  0  0  0  0
  2  9  1  0  0  0  0
  3  2  1  0  0  0  0
  4  6  1  0  0  0  0
  5  1  1  0  0  0  0
  6  5  2  0  0  0  0
  7 11  1  0  0  0  0
  8  3  1  0  0  0  0
  9 14  2  0  0  0  0
 10  1  1  0  0  0  0
 11 17  1  0  0  0  0
 12  1  2  0  0  0  0
 13  3  2  0  0  0  0
 14  5  1  0  0  0  0
 15 24  1  0  0  0  0
 16  8  1  0  0  0  0
 17 21  2  0  0  0  0
 18 20  1  0  0  0  0
 19  4  1  0  0  0  0
 20 16  2  0  0  0  0
 21 16  1  0  0  0  0
 22  7  1  0  0  0  0
 23  7  1  0  0  0  0
 24 23  1  0  0  0  0
 25 22  1  0  0  0  0
  4  2  2  0  0  0  0
 11 18  2  0  0  0  0
 25 15  1  0  0  0  0
M  CHG  2   1   1  10  -1
M  END
>  <IDNUMBER>
F0722-2692

>  <Chemical_Name>
2-chloro-N-[4-(morpholin-4-yl)phenyl]-4-nitrobenzamide

>  <PriceCoeff>
1.00

>  <CAS>
303972-20-5

>  <MW>
361.78

>  <Description>
solid

>  <FSP3>
0.24

>  <clogP>
2.23

>  <TPSA>
84.71

>  <Acceptor>
5

>  <Donor>
2

>  <RotBonds>
4

>  <HAC>
25

>  <Collection>
General

>  <PPDS>
+

$$$$
F0722-8675
  Mrv2219 10102508112D          

 16 18  0  0  0  0            999 V2000
    0.9024   -0.9580    0.0000 N   0  0  0  0  0  0  0  0  0  0  0  0
    0.1331   -0.7064    0.0000 C   0  0  0  0  0  0  0  0  0  0  0  0
    1.3935   -0.2928    0.0000 C   0  0  0  0  0  0  0  0  0  0  0  0
    0.1331    0.1064    0.0000 C   0  0  0  0  0  0  0  0  0  0  0  0
    0.9096    0.3750    0.0000 C   0  0  0  0  0  0  0  0  0  0  0  0
   -0.5710   -1.1201    0.0000 C   0  0  0  0  0  0  0  0  0  0  0  0
   -0.5807    0.5202    0.0000 C   0  0  0  0  0  0  0  0  0  0  0  0
    2.2281   -0.2032    0.0000 C   0  0  0  0  0  0  0  0  0  0  0  0
    2.5717    0.5419    0.0000 N   0  0  0  0  0  0  0  0  0  0  0  0
   -1.2846   -0.7185    0.0000 C   0  0  0  0  0  0  0  0  0  0  0  0
   -1.2967    0.0944    0.0000 C   0  0  0  0  0  0  0  0  0  0  0  0
    2.0781    1.2193    0.0000 C   0  0  0  0  0  0  0  0  0  0  0  0
    1.2508    1.1370    0.0000 C   0  0  0  0  0  0  0  0  0  0  0  0
   -2.0225   -1.1201    0.0000 O   0  0  0  0  0  0  0  0  0  0  0  0
    2.7217   -0.8806    0.0000 C   0  0  0  0  0  0  0  0  0  0  0  0
   -2.7410   -0.6967    0.0000 C   0  0  0  0  0  0  0  0  0  0  0  0
  2  1  1  0  0  0  0
  3  1  1  0  0  0  0
  4  2  2  0  0  0  0
  5  3  1  0  0  0  0
  6  2  1  0  0  0  0
  7  4  1  0  0  0  0
  8  3  2  0  0  0  0
  9  8  1  0  0  0  0
 10  6  2  0  0  0  0
 11 10  1  0  0  0  0
 12  9  2  0  0  0  0
 13  5  2  0  0  0  0
 14 10  1  0  0  0  0
 15  8  1  0  0  0  0
 16 14  1  0  0  0  0
  4  5  1  0  0  0  0
 12 13  1  0  0  0  0
 11  7  2  0  0  0  0
M  END
>  <IDNUMBER>
F0722-8675

>  <Chemical_Name>
7-methoxy-1-methyl-9H-pyrido[3,4-b]indole

>  <PriceCoeff>
1.00

>  <CAS>
442-51-3

>  <MW>
212.25

>  <Description>
solid

>  <FSP3>
0.15

>  <clogP>
3.03

>  <TPSA>
37.91

>  <Acceptor>
2

>  <Donor>
2

>  <RotBonds>
1

>  <HAC>
16

>  <Collection>
General

>  <PPDS>
+

$$$$
F0725-0495
  Mrv2219 10102508112D          

 31 35  0  0  0  0            999 V2000
    0.5599    2.2787    0.0000 C   0  0  0  0  0  0  0  0  0  0  0  0
    5.4478    3.6728    0.0000 N   0  0  0  0  0  0  0  0  0  0  0  0
    0.0224    1.6404    0.0000 N   0  0  0  0  0  0  0  0  0  0  0  0
    0.1568    2.9674    0.0000 S   0  0  0  0  0  0  0  0  0  0  0  0
    6.2708    3.7568    0.0000 C   0  0  0  0  0  0  0  0  0  0  0  0
    5.1286    4.4623    0.0000 C   0  0  0  0  0  0  0  0  0  0  0  0
    3.8129    0.8678    0.0000 C   0  0  0  0  0  0  0  0  0  0  0  0
   -0.7166    1.9652    0.0000 C   0  0  0  0  0  0  0  0  0  0  0  0
   -0.6326    2.7826    0.0000 C   0  0  0  0  0  0  0  0  0  0  0  0
    2.9955    0.8678    0.0000 N   0  0  0  0  0  0  0  0  0  0  0  0
    1.3830    2.2844    0.0000 C   0  0  0  0  0  0  0  0  0  0  0  0
    5.0390    3.0010    0.0000 C   0  0  0  0  0  0  0  0  0  0  0  0
    4.2160    1.5621    0.0000 C   0  0  0  0  0  0  0  0  0  0  0  0
    2.5755    1.5732    0.0000 C   0  0  0  0  0  0  0  0  0  0  0  0
    1.7861    1.5900    0.0000 C   0  0  0  0  0  0  0  0  0  0  0  0
    5.7781    4.9886    0.0000 C   0  0  0  0  0  0  0  0  0  0  0  0
    6.4556    4.5967    0.0000 C   0  0  0  0  0  0  0  0  0  0  0  0
    4.2160    0.1344    0.0000 O   0  0  0  0  0  0  0  0  0  0  0  0
    6.8083    3.0906    0.0000 O   0  0  0  0  0  0  0  0  0  0  0  0
    4.3056    4.6302    0.0000 O   0  0  0  0  0  0  0  0  0  0  0  0
    5.4478    2.2844    0.0000 C   0  0  0  0  0  0  0  0  0  0  0  0
    4.2048    2.9842    0.0000 C   0  0  0  0  0  0  0  0  0  0  0  0
    3.8017    2.2787    0.0000 C   0  0  0  0  0  0  0  0  0  0  0  0
    5.0447    1.5900    0.0000 C   0  0  0  0  0  0  0  0  0  0  0  0
    1.7693    2.9730    0.0000 C   0  0  0  0  0  0  0  0  0  0  0  0
    2.5587    2.9842    0.0000 C   0  0  0  0  0  0  0  0  0  0  0  0
   -1.4781    1.6404    0.0000 C   0  0  0  0  0  0  0  0  0  0  0  0
   -1.3381    3.2418    0.0000 C   0  0  0  0  0  0  0  0  0  0  0  0
    3.0234    2.2787    0.0000 C   0  0  0  0  0  0  0  0  0  0  0  0
   -2.0771    2.9506    0.0000 C   0  0  0  0  0  0  0  0  0  0  0  0
   -2.1668    2.1107    0.0000 C   0  0  0  0  0  0  0  0  0  0  0  0
  2 12  1  0  0  0  0
  3  1  2  0  0  0  0
  4  1  1  0  0  0  0
  5  2  1  0  0  0  0
  6  2  1  0  0  0  0
  7 10  1  0  0  0  0
  8  3  1  0  0  0  0
  9  4  1  0  0  0  0
 10 14  1  0  0  0  0
 11  1  1  0  0  0  0
 12 21  1  0  0  0  0
 13  7  1  0  0  0  0
 14 15  1  0  0  0  0
 15 11  2  0  0  0  0
 16  6  1  0  0  0  0
 17  5  1  0  0  0  0
 18  7  2  0  0  0  0
 19  5  2  0  0  0  0
 20  6  2  0  0  0  0
 21 24  2  0  0  0  0
 22 23  1  0  0  0  0
 23 13  2  0  0  0  0
 24 13  1  0  0  0  0
 25 11  1  0  0  0  0
 26 25  2  0  0  0  0
 27  8  1  0  0  0  0
 28  9  1  0  0  0  0
 29 26  1  0  0  0  0
 30 28  2  0  0  0  0
 31 27  2  0  0  0  0
  9  8  2  0  0  0  0
 29 14  2  0  0  0  0
 30 31  1  0  0  0  0
 12 22  2  0  0  0  0
 16 17  1  0  0  0  0
M  END
>  <IDNUMBER>
F0725-0495

>  <Chemical_Name>
N-[3-(1,3-benzothiazol-2-yl)phenyl]-4-(2,5-dioxopyrrolidin-1-yl)benzamide

>  <PriceCoeff>
1.00

>  <CAS>
448240-53-7

>  <MW>
427.48

>  <Description>
solid

>  <FSP3>
0.08

>  <clogP>
3.01

>  <TPSA>
107.61

>  <Acceptor>
4

>  <Donor>
1

>  <RotBonds>
4

>  <HAC>
31

>  <Collection>
General

>  <PPDS>
+

$$$$
F0737-0246
  Mrv2219 10102508112D          

 29 33  0  0  0  0            999 V2000
   -2.8692   -0.2391    0.0000 C   0  0  0  0  0  0  0  0  0  0  0  0
   -4.7234    0.8149    0.0000 C   0  0  0  0  0  0  0  0  0  0  0  0
   -4.0647    0.3171    0.0000 C   0  0  0  0  0  0  0  0  0  0  0  0
    1.7323    0.0976    0.0000 N   0  0  0  0  0  0  0  0  0  0  0  0
   -3.4108   -0.8540    0.0000 N   0  0  0  0  0  0  0  0  0  0  0  0
   -4.7966    1.6346    0.0000 N   0  0  0  0  0  0  0  0  0  0  0  0
   -2.0299   -0.3367    0.0000 N   0  0  0  0  0  0  0  0  0  0  0  0
   -3.2449    0.4831    0.0000 S   0  0  0  0  0  0  0  0  0  0  0  0
   -4.1574   -0.5026    0.0000 C   0  0  0  0  0  0  0  0  0  0  0  0
   -6.0116    1.1125    0.0000 S   0  0  0  0  0  0  0  0  0  0  0  0
   -5.4700    0.4831    0.0000 C   0  0  0  0  0  0  0  0  0  0  0  0
   -1.5614    0.3464    0.0000 C   0  0  0  0  0  0  0  0  0  0  0  0
   -5.5871    1.8152    0.0000 C   0  0  0  0  0  0  0  0  0  0  0  0
    2.2300    0.7027    0.0000 C   0  0  0  0  0  0  0  0  0  0  0  0
    2.2007   -0.5466    0.0000 C   0  0  0  0  0  0  0  0  0  0  0  0
    0.9222    0.1122    0.0000 C   0  0  0  0  0  0  0  0  0  0  0  0
   -0.7417    0.2489    0.0000 C   0  0  0  0  0  0  0  0  0  0  0  0
   -1.8884    1.0930    0.0000 O   0  0  0  0  0  0  0  0  0  0  0  0
    2.9912    0.4489    0.0000 C   0  0  0  0  0  0  0  0  0  0  0  0
    2.9473   -0.3270    0.0000 C   0  0  0  0  0  0  0  0  0  0  0  0
   -4.8844   -0.8247    0.0000 C   0  0  0  0  0  0  0  0  0  0  0  0
    2.0104    1.5371    0.0000 O   0  0  0  0  0  0  0  0  0  0  0  0
    1.9372   -1.3810    0.0000 O   0  0  0  0  0  0  0  0  0  0  0  0
   -5.5627   -0.3367    0.0000 C   0  0  0  0  0  0  0  0  0  0  0  0
    0.5709    0.8344    0.0000 C   0  0  0  0  0  0  0  0  0  0  0  0
    0.4294   -0.5905    0.0000 C   0  0  0  0  0  0  0  0  0  0  0  0
   -0.3903   -0.5026    0.0000 C   0  0  0  0  0  0  0  0  0  0  0  0
   -0.2489    0.9320    0.0000 C   0  0  0  0  0  0  0  0  0  0  0  0
   -5.9141    2.5911    0.0000 C   0  0  0  0  0  0  0  0  0  0  0  0
  2  3  1  0  0  0  0
  3  8  1  0  0  0  0
  4 16  1  0  0  0  0
  5  1  2  0  0  0  0
  6  2  1  0  0  0  0
  7  1  1  0  0  0  0
  8  1  1  0  0  0  0
  9  5  1  0  0  0  0
 10 11  1  0  0  0  0
 11  2  2  0  0  0  0
 12  7  1  0  0  0  0
 13  6  2  0  0  0  0
 14  4  1  0  0  0  0
 15  4  1  0  0  0  0
 16 25  1  0  0  0  0
 17 12  1  0  0  0  0
 18 12  2  0  0  0  0
 19 14  1  0  0  0  0
 20 15  1  0  0  0  0
 21  9  1  0  0  0  0
 22 14  2  0  0  0  0
 23 15  2  0  0  0  0
 24 21  2  0  0  0  0
 25 28  2  0  0  0  0
 26 27  1  0  0  0  0
 27 17  2  0  0  0  0
 28 17  1  0  0  0  0
 29 13  1  0  0  0  0
  9  3  2  0  0  0  0
 11 24  1  0  0  0  0
 10 13  1  0  0  0  0
 16 26  2  0  0  0  0
 19 20  1  0  0  0  0
M  END
>  <IDNUMBER>
F0737-0246

>  <Chemical_Name>
4-(2,5-dioxopyrrolidin-1-yl)-N-{11-methyl-3,10-dithia-5,12-diazatricyclo[7.3.0.0?,?]dodeca-1(9),2(6),4,7,11-pentaen-4-yl}benzamide

>  <PriceCoeff>
1.00

>  <CAS>
441290-39-7

>  <MW>
422.48

>  <Description>
solid

>  <FSP3>
0.15

>  <clogP>
2.18

>  <TPSA>
148.74

>  <Acceptor>
5

>  <Donor>
1

>  <RotBonds>
3

>  <HAC>
29

>  <Collection>
General

>  <PPDS>
+

$$$$
F0737-0267
  Mrv2219 10102508112D          

 27 30  0  0  0  0            999 V2000
    1.2225    1.9061    0.0000 N   0  0  0  0  0  0  0  0  0  0  0  0
   -3.3313    2.6187    0.0000 C   0  0  0  0  0  0  0  0  0  0  0  0
   -3.7484    1.8945    0.0000 N   0  0  0  0  0  0  0  0  0  0  0  0
   -4.5480    2.0857    0.0000 C   0  0  0  0  0  0  0  0  0  0  0  0
   -2.4970    2.6187    0.0000 N   0  0  0  0  0  0  0  0  0  0  0  0
   -5.1911    1.5584    0.0000 C   0  0  0  0  0  0  0  0  0  0  0  0
   -2.0799    1.8945    0.0000 C   0  0  0  0  0  0  0  0  0  0  0  0
    1.7092    2.5492    0.0000 C   0  0  0  0  0  0  0  0  0  0  0  0
    1.7207    1.2688    0.0000 C   0  0  0  0  0  0  0  0  0  0  0  0
   -5.1911    0.7589    0.0000 O   0  0  0  0  0  0  0  0  0  0  0  0
   -3.8875    3.2270    0.0000 S   0  0  0  0  0  0  0  0  0  0  0  0
   -4.6349    2.8968    0.0000 C   0  0  0  0  0  0  0  0  0  0  0  0
   -5.9964    1.8076    0.0000 C   0  0  0  0  0  0  0  0  0  0  0  0
    0.3998    1.9061    0.0000 C   0  0  0  0  0  0  0  0  0  0  0  0
   -5.9964    0.5040    0.0000 C   0  0  0  0  0  0  0  0  0  0  0  0
   -6.4773    1.1413    0.0000 C   0  0  0  0  0  0  0  0  0  0  0  0
   -1.2514    1.8945    0.0000 C   0  0  0  0  0  0  0  0  0  0  0  0
   -2.4970    1.1761    0.0000 O   0  0  0  0  0  0  0  0  0  0  0  0
    2.4855    2.3117    0.0000 C   0  0  0  0  0  0  0  0  0  0  0  0
    2.4739    1.5295    0.0000 C   0  0  0  0  0  0  0  0  0  0  0  0
    1.4600    3.3834    0.0000 O   0  0  0  0  0  0  0  0  0  0  0  0
    1.5006    0.4171    0.0000 O   0  0  0  0  0  0  0  0  0  0  0  0
   -0.0174    2.6187    0.0000 C   0  0  0  0  0  0  0  0  0  0  0  0
    0.0000    1.1993    0.0000 C   0  0  0  0  0  0  0  0  0  0  0  0
   -0.8343    1.1819    0.0000 C   0  0  0  0  0  0  0  0  0  0  0  0
   -0.8517    2.6013    0.0000 C   0  0  0  0  0  0  0  0  0  0  0  0
   -6.2861   -0.3302    0.0000 C   0  0  0  0  0  0  0  0  0  0  0  0
  2  5  1  0  0  0  0
  3  2  2  0  0  0  0
  4  3  1  0  0  0  0
  5  7  1  0  0  0  0
  6  4  1  0  0  0  0
  7 17  1  0  0  0  0
  8  1  1  0  0  0  0
  9  1  1  0  0  0  0
 10  6  1  0  0  0  0
 11  2  1  0  0  0  0
 12 11  1  0  0  0  0
 13  6  2  0  0  0  0
 14  1  1  0  0  0  0
 15 10  1  0  0  0  0
 16 13  1  0  0  0  0
 17 25  2  0  0  0  0
 18  7  2  0  0  0  0
 19  8  1  0  0  0  0
 20  9  1  0  0  0  0
 21  8  2  0  0  0  0
 22  9  2  0  0  0  0
 23 14  1  0  0  0  0
 24 14  2  0  0  0  0
 25 24  1  0  0  0  0
 26 23  2  0  0  0  0
 27 15  1  0  0  0  0
 19 20  1  0  0  0  0
 26 17  1  0  0  0  0
 12  4  2  0  0  0  0
 15 16  2  0  0  0  0
M  END
>  <IDNUMBER>
F0737-0267

>  <Chemical_Name>
4-(2,5-dioxopyrrolidin-1-yl)-N-[4-(5-methylfuran-2-yl)-1,3-thiazol-2-yl]benzamide

>  <PriceCoeff>
1.00

>  <CAS>
476642-35-0

>  <MW>
381.41

>  <Description>
solid

>  <FSP3>
0.16

>  <clogP>
2.01

>  <TPSA>
120.75

>  <Acceptor>
5

>  <Donor>
1

>  <RotBonds>
4

>  <HAC>
27

>  <Collection>
General

>  <PPDS>
+

$$$$
F0737-0314
  Mrv2219 10102508112D          

 27 30  0  0  0  0            999 V2000
   -1.0645    2.8922    0.0000 N   0  0  0  0  0  0  0  0  0  0  0  0
   -4.7600    2.1624    0.0000 C   0  0  0  0  0  0  0  0  0  0  0  0
   -5.3023    1.5465    0.0000 N   0  0  0  0  0  0  0  0  0  0  0  0
   -6.0454    1.9013    0.0000 C   0  0  0  0  0  0  0  0  0  0  0  0
   -3.9298    2.1624    0.0000 N   0  0  0  0  0  0  0  0  0  0  0  0
   -6.7818    1.5465    0.0000 C   0  0  0  0  0  0  0  0  0  0  0  0
   -1.4461    2.1892    0.0000 C   0  0  0  0  0  0  0  0  0  0  0  0
   -3.5349    1.4461    0.0000 C   0  0  0  0  0  0  0  0  0  0  0  0
   -1.4192    3.6486    0.0000 C   0  0  0  0  0  0  0  0  0  0  0  0
   -0.2343    3.0260    0.0000 C   0  0  0  0  0  0  0  0  0  0  0  0
   -7.0429    0.7431    0.0000 O   0  0  0  0  0  0  0  0  0  0  0  0
   -5.1750    2.8653    0.0000 S   0  0  0  0  0  0  0  0  0  0  0  0
   -5.9784    2.7046    0.0000 C   0  0  0  0  0  0  0  0  0  0  0  0
   -7.4647    2.0017    0.0000 C   0  0  0  0  0  0  0  0  0  0  0  0
   -2.2829    2.1892    0.0000 C   0  0  0  0  0  0  0  0  0  0  0  0
   -2.7046    1.4461    0.0000 C   0  0  0  0  0  0  0  0  0  0  0  0
   -7.8463    0.7431    0.0000 C   0  0  0  0  0  0  0  0  0  0  0  0
   -8.1342    1.5197    0.0000 C   0  0  0  0  0  0  0  0  0  0  0  0
   -3.9566    0.7163    0.0000 O   0  0  0  0  0  0  0  0  0  0  0  0
   -0.8368    4.2110    0.0000 C   0  0  0  0  0  0  0  0  0  0  0  0
   -0.1004    3.8294    0.0000 C   0  0  0  0  0  0  0  0  0  0  0  0
   -2.2495    3.7960    0.0000 O   0  0  0  0  0  0  0  0  0  0  0  0
    0.3482    2.4436    0.0000 O   0  0  0  0  0  0  0  0  0  0  0  0
   -1.0376    1.4461    0.0000 C   0  0  0  0  0  0  0  0  0  0  0  0
   -2.2495    0.7431    0.0000 C   0  0  0  0  0  0  0  0  0  0  0  0
   -1.4461    0.7431    0.0000 C   0  0  0  0  0  0  0  0  0  0  0  0
   -8.3283    0.0334    0.0000 C   0  0  0  0  0  0  0  0  0  0  0  0
  2  5  1  0  0  0  0
  3  2  2  0  0  0  0
  4  3  1  0  0  0  0
  5  8  1  0  0  0  0
  6  4  1  0  0  0  0
  7  1  1  0  0  0  0
  8 16  1  0  0  0  0
  9  1  1  0  0  0  0
 10  1  1  0  0  0  0
 11  6  1  0  0  0  0
 12  2  1  0  0  0  0
 13 12  1  0  0  0  0
 14  6  2  0  0  0  0
 15  7  2  0  0  0  0
 16 15  1  0  0  0  0
 17 11  1  0  0  0  0
 18 14  1  0  0  0  0
 19  8  2  0  0  0  0
 20  9  1  0  0  0  0
 21 10  1  0  0  0  0
 22  9  2  0  0  0  0
 23 10  2  0  0  0  0
 24  7  1  0  0  0  0
 25 26  1  0  0  0  0
 26 24  2  0  0  0  0
 27 17  1  0  0  0  0
 20 21  1  0  0  0  0
 25 16  2  0  0  0  0
  4 13  2  0  0  0  0
 18 17  2  0  0  0  0
M  END
>  <IDNUMBER>
F0737-0314

>  <Chemical_Name>
3-(2,5-dioxopyrrolidin-1-yl)-N-[4-(5-methylfuran-2-yl)-1,3-thiazol-2-yl]benzamide

>  <PriceCoeff>
1.00

>  <CAS>
476642-70-3

>  <MW>
381.41

>  <Description>
solid

>  <FSP3>
0.16

>  <clogP>
2.01

>  <TPSA>
120.75

>  <Acceptor>
5

>  <Donor>
1

>  <RotBonds>
4

>  <HAC>
27

>  <Collection>
General

>  <PPDS>
+

$$$$
F0739-0005
  Mrv2219 10102508112D          

 32 36  0  0  0  0            999 V2000
   -1.7148    0.0558    0.0000 C   0  0  0  0  0  0  0  0  0  0  0  0
   -1.3056   -0.6584    0.0000 C   0  0  0  0  0  0  0  0  0  0  0  0
   -0.4650    0.7700    0.0000 N   0  0  0  0  0  0  0  0  0  0  0  0
   -0.0744    0.0558    0.0000 C   0  0  0  0  0  0  0  0  0  0  0  0
   -0.4873   -0.6584    0.0000 N   0  0  0  0  0  0  0  0  0  0  0  0
   -1.3056    0.7700    0.0000 C   0  0  0  0  0  0  0  0  0  0  0  0
   -1.8748   -1.2833    0.0000 S   0  0  0  0  0  0  0  0  0  0  0  0
   -2.5405   -0.1228    0.0000 C   0  0  0  0  0  0  0  0  0  0  0  0
   -2.6298   -0.9411    0.0000 C   0  0  0  0  0  0  0  0  0  0  0  0
    0.7626    0.0744    0.0000 S   0  0  0  0  0  0  0  0  0  0  0  0
    4.4971   -0.6250    0.0000 C   0  0  0  0  0  0  0  0  0  0  0  0
   -0.0186    1.4693    0.0000 C   0  0  0  0  0  0  0  0  0  0  0  0
   -1.7148    1.5027    0.0000 O   0  0  0  0  0  0  0  0  0  0  0  0
    3.6751   -0.6250    0.0000 C   0  0  0  0  0  0  0  0  0  0  0  0
    4.9249   -1.3391    0.0000 O   0  0  0  0  0  0  0  0  0  0  0  0
    3.2845   -1.3391    0.0000 C   0  0  0  0  0  0  0  0  0  0  0  0
    3.2622    0.0893    0.0000 C   0  0  0  0  0  0  0  0  0  0  0  0
    1.1940   -0.6399    0.0000 C   0  0  0  0  0  0  0  0  0  0  0  0
    2.0124   -0.6250    0.0000 C   0  0  0  0  0  0  0  0  0  0  0  0
    4.9100    0.0893    0.0000 O   0  0  0  0  0  0  0  0  0  0  0  0
   -3.1989    0.3757    0.0000 C   0  0  0  0  0  0  0  0  0  0  0  0
    2.4252    0.0893    0.0000 C   0  0  0  0  0  0  0  0  0  0  0  0
    2.4438   -1.3391    0.0000 C   0  0  0  0  0  0  0  0  0  0  0  0
   -3.3775   -1.2833    0.0000 C   0  0  0  0  0  0  0  0  0  0  0  0
   -0.4129    2.1984    0.0000 C   0  0  0  0  0  0  0  0  0  0  0  0
    0.8034    1.4469    0.0000 C   0  0  0  0  0  0  0  0  0  0  0  0
    4.4971    0.8034    0.0000 C   0  0  0  0  0  0  0  0  0  0  0  0
   -3.9689    0.0186    0.0000 C   0  0  0  0  0  0  0  0  0  0  0  0
   -4.0358   -0.8034    0.0000 C   0  0  0  0  0  0  0  0  0  0  0  0
    0.0335    2.8976    0.0000 C   0  0  0  0  0  0  0  0  0  0  0  0
    1.2312    2.1426    0.0000 C   0  0  0  0  0  0  0  0  0  0  0  0
    0.8369    2.8753    0.0000 C   0  0  0  0  0  0  0  0  0  0  0  0
  2  1  2  0  0  0  0
  3  6  1  0  0  0  0
  4  3  1  0  0  0  0
  5  2  1  0  0  0  0
  6  1  1  0  0  0  0
  7  2  1  0  0  0  0
  8  1  1  0  0  0  0
  9  8  2  0  0  0  0
 10  4  1  0  0  0  0
 11 14  1  0  0  0  0
 12  3  1  0  0  0  0
 13  6  2  0  0  0  0
 14 16  2  0  0  0  0
 15 11  2  0  0  0  0
 16 23  1  0  0  0  0
 17 22  2  0  0  0  0
 18 10  1  0  0  0  0
 19 18  1  0  0  0  0
 20 11  1  0  0  0  0
 21  8  1  0  0  0  0
 22 19  1  0  0  0  0
 23 19  2  0  0  0  0
 24  9  1  0  0  0  0
 25 12  1  0  0  0  0
 26 12  2  0  0  0  0
 27 20  1  0  0  0  0
 28 21  1  0  0  0  0
 29 28  1  0  0  0  0
 30 25  2  0  0  0  0
 31 26  1  0  0  0  0
 32 31  2  0  0  0  0
  9  7  1  0  0  0  0
  4  5  2  0  0  0  0
 24 29  1  0  0  0  0
 32 30  1  0  0  0  0
 17 14  1  0  0  0  0
M  END
>  <IDNUMBER>
F0739-0005

>  <Chemical_Name>
methyl 4-[({3-oxo-4-phenyl-8-thia-4,6-diazatricyclo[7.4.0.0?,?]trideca-1(9),2(7),5-trien-5-yl}sulfanyl)methyl]benzoate

>  <PriceCoeff>
1.00

>  <CAS>
325693-61-6

>  <MW>
462.58

>  <Description>
solid

>  <FSP3>
0.24

>  <clogP>
6.68

>  <TPSA>
112.51

>  <Acceptor>
4

>  <Donor>
0

>  <RotBonds>
6

>  <HAC>
32

>  <Collection>
General

>  <PPDS>
+

$$$$
F0739-0014
  Mrv2219 10102508112D          

 32 35  0  0  0  0            999 V2000
   -2.9663   -0.5418    0.0000 C   0  0  0  0  0  0  0  0  0  0  0  0
   -2.7090   -1.3253    0.0000 C   0  0  0  0  0  0  0  0  0  0  0  0
   -1.6020   -0.1092    0.0000 N   0  0  0  0  0  0  0  0  0  0  0  0
   -1.3565   -0.8770    0.0000 C   0  0  0  0  0  0  0  0  0  0  0  0
   -1.9021   -1.4968    0.0000 N   0  0  0  0  0  0  0  0  0  0  0  0
   -2.4050    0.0779    0.0000 C   0  0  0  0  0  0  0  0  0  0  0  0
   -3.3795   -1.8125    0.0000 S   0  0  0  0  0  0  0  0  0  0  0  0
   -3.7888   -0.5185    0.0000 C   0  0  0  0  0  0  0  0  0  0  0  0
   -4.0343   -1.3097    0.0000 C   0  0  0  0  0  0  0  0  0  0  0  0
   -0.5145   -1.0447    0.0000 S   0  0  0  0  0  0  0  0  0  0  0  0
   -1.0407    0.4872    0.0000 C   0  0  0  0  0  0  0  0  0  0  0  0
   -2.6505    0.8848    0.0000 O   0  0  0  0  0  0  0  0  0  0  0  0
    4.0266    1.0875    0.0000 N   0  0  0  0  0  0  0  0  0  0  0  0
    0.8303   -0.5613    0.0000 C   0  0  0  0  0  0  0  0  0  0  0  0
    1.1109   -1.3448    0.0000 O   0  0  0  0  0  0  0  0  0  0  0  0
    0.0273   -0.4093    0.0000 C   0  0  0  0  0  0  0  0  0  0  0  0
    5.0556    2.3582    0.0000 O   0  0  0  0  0  0  0  0  0  0  0  0
    1.3565    0.0585    0.0000 N   0  0  0  0  0  0  0  0  0  0  0  0
   -4.2994    0.1520    0.0000 C   0  0  0  0  0  0  0  0  0  0  0  0
   -4.8373   -1.5709    0.0000 C   0  0  0  0  0  0  0  0  0  0  0  0
    3.5081    0.4327    0.0000 C   0  0  0  0  0  0  0  0  0  0  0  0
    2.6818    0.5613    0.0000 C   0  0  0  0  0  0  0  0  0  0  0  0
    3.7303    1.8554    0.0000 C   0  0  0  0  0  0  0  0  0  0  0  0
    4.8334    0.9550    0.0000 C   0  0  0  0  0  0  0  0  0  0  0  0
    2.1556   -0.0741    0.0000 C   0  0  0  0  0  0  0  0  0  0  0  0
    4.2371    2.4908    0.0000 C   0  0  0  0  0  0  0  0  0  0  0  0
    5.3597    1.6098    0.0000 C   0  0  0  0  0  0  0  0  0  0  0  0
   -0.2339    0.3235    0.0000 C   0  0  0  0  0  0  0  0  0  0  0  0
   -1.2824    1.2746    0.0000 C   0  0  0  0  0  0  0  0  0  0  0  0
   -0.7211    1.8905    0.0000 C   0  0  0  0  0  0  0  0  0  0  0  0
    0.3080    0.9355    0.0000 C   0  0  0  0  0  0  0  0  0  0  0  0
    0.0468    1.7267    0.0000 C   0  0  0  0  0  0  0  0  0  0  0  0
  2  1  2  0  0  0  0
  3  6  1  0  0  0  0
  4  3  1  0  0  0  0
  5  2  1  0  0  0  0
  6  1  1  0  0  0  0
  7  2  1  0  0  0  0
  8  1  1  0  0  0  0
  9  8  2  0  0  0  0
 10  4  1  0  0  0  0
 11  3  1  0  0  0  0
 12  6  2  0  0  0  0
 13 21  1  0  0  0  0
 14 16  1  0  0  0  0
 15 14  2  0  0  0  0
 16 10  1  0  0  0  0
 17 27  1  0  0  0  0
 18 14  1  0  0  0  0
 19  8  1  0  0  0  0
 20  9  1  0  0  0  0
 21 22  1  0  0  0  0
 22 25  1  0  0  0  0
 23 13  1  0  0  0  0
 24 13  1  0  0  0  0
 25 18  1  0  0  0  0
 26 23  1  0  0  0  0
 27 24  1  0  0  0  0
 28 11  2  0  0  0  0
 29 11  1  0  0  0  0
 30 29  2  0  0  0  0
 31 28  1  0  0  0  0
 32 30  1  0  0  0  0
  7  9  1  0  0  0  0
  5  4  2  0  0  0  0
 31 32  2  0  0  0  0
 26 17  1  0  0  0  0
M  END
>  <IDNUMBER>
F0739-0014

>  <Chemical_Name>
2-({5,6-dimethyl-4-oxo-3-phenyl-3H,4H-thieno[2,3-d]pyrimidin-2-yl}sulfanyl)-N-[3-(morpholin-4-yl)propyl]acetamide

>  <PriceCoeff>
1.00

>  <CAS>
325693-68-3

>  <MW>
472.62

>  <Description>
solid

>  <FSP3>
0.43

>  <clogP>
3.81

>  <TPSA>
127.78

>  <Acceptor>
4

>  <Donor>
2

>  <RotBonds>
8

>  <HAC>
32

>  <Collection>
General

>  <PPDS>
+

$$$$
F0739-0015
  Mrv2219 10102508112D          

 26 28  0  0  0  0            999 V2000
   -2.9663   -0.5418    0.0000 C   0  0  0  0  0  0  0  0  0  0  0  0
   -2.7090   -1.3253    0.0000 C   0  0  0  0  0  0  0  0  0  0  0  0
   -1.6020   -0.1092    0.0000 N   0  0  0  0  0  0  0  0  0  0  0  0
   -1.3565   -0.8770    0.0000 C   0  0  0  0  0  0  0  0  0  0  0  0
   -1.9021   -1.4968    0.0000 N   0  0  0  0  0  0  0  0  0  0  0  0
   -2.4050    0.0779    0.0000 C   0  0  0  0  0  0  0  0  0  0  0  0
   -3.3795   -1.8125    0.0000 S   0  0  0  0  0  0  0  0  0  0  0  0
   -3.7888   -0.5185    0.0000 C   0  0  0  0  0  0  0  0  0  0  0  0
   -4.0343   -1.3097    0.0000 C   0  0  0  0  0  0  0  0  0  0  0  0
   -0.5145   -1.0447    0.0000 S   0  0  0  0  0  0  0  0  0  0  0  0
   -1.0407    0.4872    0.0000 C   0  0  0  0  0  0  0  0  0  0  0  0
   -2.6505    0.8848    0.0000 O   0  0  0  0  0  0  0  0  0  0  0  0
    0.8303   -0.5613    0.0000 C   0  0  0  0  0  0  0  0  0  0  0  0
    1.1109   -1.3448    0.0000 O   0  0  0  0  0  0  0  0  0  0  0  0
    0.0273   -0.4093    0.0000 C   0  0  0  0  0  0  0  0  0  0  0  0
    1.3565    0.0585    0.0000 N   0  0  0  0  0  0  0  0  0  0  0  0
   -4.2994    0.1520    0.0000 C   0  0  0  0  0  0  0  0  0  0  0  0
   -4.8373   -1.5709    0.0000 C   0  0  0  0  0  0  0  0  0  0  0  0
    3.5081    0.4327    0.0000 O   0  0  0  0  0  0  0  0  0  0  0  0
   -0.2339    0.3235    0.0000 C   0  0  0  0  0  0  0  0  0  0  0  0
   -1.2824    1.2746    0.0000 C   0  0  0  0  0  0  0  0  0  0  0  0
    2.1556   -0.0741    0.0000 C   0  0  0  0  0  0  0  0  0  0  0  0
    2.6818    0.5613    0.0000 C   0  0  0  0  0  0  0  0  0  0  0  0
   -0.7211    1.8905    0.0000 C   0  0  0  0  0  0  0  0  0  0  0  0
    0.3080    0.9355    0.0000 C   0  0  0  0  0  0  0  0  0  0  0  0
    0.0468    1.7267    0.0000 C   0  0  0  0  0  0  0  0  0  0  0  0
  2  1  2  0  0  0  0
  3  6  1  0  0  0  0
  4  3  1  0  0  0  0
  5  2  1  0  0  0  0
  6  1  1  0  0  0  0
  7  2  1  0  0  0  0
  8  1  1  0  0  0  0
  9  8  2  0  0  0  0
 10  4  1  0  0  0  0
 11  3  1  0  0  0  0
 12  6  2  0  0  0  0
 13 15  1  0  0  0  0
 14 13  2  0  0  0  0
 15 10  1  0  0  0  0
 16 13  1  0  0  0  0
 17  8  1  0  0  0  0
 18  9  1  0  0  0  0
 19 23  1  0  0  0  0
 20 11  2  0  0  0  0
 21 11  1  0  0  0  0
 22 16  1  0  0  0  0
 23 22  1  0  0  0  0
 24 21  2  0  0  0  0
 25 20  1  0  0  0  0
 26 24  1  0  0  0  0
  9  7  1  0  0  0  0
  4  5  2  0  0  0  0
 26 25  2  0  0  0  0
M  END
>  <IDNUMBER>
F0739-0015

>  <Chemical_Name>
2-({5,6-dimethyl-4-oxo-3-phenyl-3H,4H-thieno[2,3-d]pyrimidin-2-yl}sulfanyl)-N-(2-hydroxyethyl)acetamide

>  <PriceCoeff>
1.00

>  <CAS>
325693-69-4

>  <MW>
389.49

>  <Description>
solid

>  <FSP3>
0.28

>  <clogP>
2.74

>  <TPSA>
135.54

>  <Acceptor>
4

>  <Donor>
2

>  <RotBonds>
6

>  <HAC>
26

>  <Collection>
General

>  <PPDS>
+

$$$$
F0745-0118
  Mrv2219 10102508112D          

 20 21  0  0  0  0            999 V2000
   -1.7022   -0.2228    0.0000 N   0  0  0  0  0  0  0  0  0  0  0  0
   -2.0364    2.8163    0.0000 N   0  0  0  0  0  0  0  0  0  0  0  0
   -2.7977    0.7614    0.0000 C   0  0  0  0  0  0  0  0  0  0  0  0
   -2.2592    1.3864    0.0000 C   0  0  0  0  0  0  0  0  0  0  0  0
   -1.3678   -0.9656    0.0000 C   0  0  0  0  0  0  0  0  0  0  0  0
   -1.2564    2.6925    0.0000 C   0  0  0  0  0  0  0  0  0  0  0  0
   -2.5254    0.0000    0.0000 N   0  0  0  0  0  0  0  0  0  0  0  0
   -2.5563    2.1540    0.0000 N   0  0  0  0  0  0  0  0  0  0  0  0
   -1.0708    0.3465    0.0000 C   0  0  0  0  0  0  0  0  0  0  0  0
   -2.2221    3.5961    0.0000 C   0  0  0  0  0  0  0  0  0  0  0  0
   -0.5695   -0.8419    0.0000 S   0  0  0  0  0  0  0  0  0  0  0  0
   -0.8851    3.4847    0.0000 S   0  0  0  0  0  0  0  0  0  0  0  0
   -0.3899   -0.0743    0.0000 C   0  0  0  0  0  0  0  0  0  0  0  0
   -1.5164    4.0295    0.0000 C   0  0  0  0  0  0  0  0  0  0  0  0
   -1.7827   -1.7084    0.0000 S   0  0  0  0  0  0  0  0  0  0  0  0
   -0.8913    1.9250    0.0000 S   0  0  0  0  0  0  0  0  0  0  0  0
   -1.7084    1.2813    0.0000 O   0  0  0  0  0  0  0  0  0  0  0  0
   -3.5961    0.9099    0.0000 O   0  0  0  0  0  0  0  0  0  0  0  0
   -1.1450    0.8171    0.0000 O   0  0  0  0  0  0  0  0  0  0  0  0
   -3.0020    3.9119    0.0000 O   0  0  0  0  0  0  0  0  0  0  0  0
  2  8  1  0  0  0  0
  3  7  1  0  0  0  0
  4  3  1  0  0  0  0
  5  1  1  0  0  0  0
  6  2  1  0  0  0  0
  7  1  1  0  0  0  0
  8  4  1  0  0  0  0
  9  1  1  0  0  0  0
 10  2  1  0  0  0  0
 11  5  1  0  0  0  0
 12  6  1  0  0  0  0
 13  9  1  0  0  0  0
 14 10  1  0  0  0  0
 15  5  2  0  0  0  0
 16  6  2  0  0  0  0
 17  4  2  0  0  0  0
 18  3  2  0  0  0  0
 19  9  2  0  0  0  0
 20 10  2  0  0  0  0
 13 11  1  0  0  0  0
 12 14  1  0  0  0  0
M  END
>  <IDNUMBER>
F0745-0118

>  <Chemical_Name>
N,N'-bis(4-oxo-2-sulfanylidene-1,3-thiazolidin-3-yl)ethanediamide

>  <PriceCoeff>
1.00

>  <CAS>
98437-08-2

>  <MW>
350.42

>  <Description>
solid

>  <FSP3>
0.25

>  <clogP>
-2.57

>  <TPSA>
213.60

>  <Acceptor>
6

>  <Donor>
2

>  <RotBonds>
3

>  <HAC>
20

>  <Collection>
General

>  <PPDS>
+

$$$$
F0745-0119
  Mrv2219 10102508112D          

 22 23  0  0  0  0            999 V2000
   -0.6592   -0.2626    0.0000 N   0  0  0  0  0  0  0  0  0  0  0  0
   -0.9432    0.5091    0.0000 C   0  0  0  0  0  0  0  0  0  0  0  0
    0.1340   -0.3913    0.0000 N   0  0  0  0  0  0  0  0  0  0  0  0
   -1.3023   -0.7717    0.0000 C   0  0  0  0  0  0  0  0  0  0  0  0
    0.4502   -1.2219    0.0000 C   0  0  0  0  0  0  0  0  0  0  0  0
   -1.7953    0.4769    0.0000 S   0  0  0  0  0  0  0  0  0  0  0  0
    1.2862   -1.3505    0.0000 C   0  0  0  0  0  0  0  0  0  0  0  0
    2.8940   -1.7364    0.0000 C   0  0  0  0  0  0  0  0  0  0  0  0
    2.6368   -0.9004    0.0000 C   0  0  0  0  0  0  0  0  0  0  0  0
    2.3206   -2.3152    0.0000 C   0  0  0  0  0  0  0  0  0  0  0  0
    1.5435   -2.1223    0.0000 C   0  0  0  0  0  0  0  0  0  0  0  0
    1.8061   -0.7289    0.0000 C   0  0  0  0  0  0  0  0  0  0  0  0
   -1.9937   -0.3216    0.0000 C   0  0  0  0  0  0  0  0  0  0  0  0
   -0.4769    1.2219    0.0000 S   0  0  0  0  0  0  0  0  0  0  0  0
   -1.3023   -1.6078    0.0000 O   0  0  0  0  0  0  0  0  0  0  0  0
   -0.0911   -1.8650    0.0000 O   0  0  0  0  0  0  0  0  0  0  0  0
    3.7301   -1.9293    0.0000 O   0  0  0  0  0  0  0  0  0  0  0  0
    3.1406   -0.2572    0.0000 O   0  0  0  0  0  0  0  0  0  0  0  0
    2.5779   -3.0924    0.0000 O   0  0  0  0  0  0  0  0  0  0  0  0
    4.3089   -1.2916    0.0000 C   0  0  0  0  0  0  0  0  0  0  0  0
    3.9873   -0.3913    0.0000 C   0  0  0  0  0  0  0  0  0  0  0  0
    2.0580   -3.7301    0.0000 C   0  0  0  0  0  0  0  0  0  0  0  0
  2  1  1  0  0  0  0
  3  1  1  0  0  0  0
  4  1  1  0  0  0  0
  5  3  1  0  0  0  0
  6  2  1  0  0  0  0
  7  5  1  0  0  0  0
  8  9  1  0  0  0  0
  9 12  2  0  0  0  0
 10 11  1  0  0  0  0
 11  7  2  0  0  0  0
 12  7  1  0  0  0  0
 13  4  1  0  0  0  0
 14  2  2  0  0  0  0
 15  4  2  0  0  0  0
 16  5  2  0  0  0  0
 17  8  1  0  0  0  0
 18  9  1  0  0  0  0
 19 10  1  0  0  0  0
 20 17  1  0  0  0  0
 21 18  1  0  0  0  0
 22 19  1  0  0  0  0
  6 13  1  0  0  0  0
 10  8  2  0  0  0  0
M  END
>  <IDNUMBER>
F0745-0119

>  <Chemical_Name>
3,4,5-trimethoxy-N-(4-oxo-2-sulfanylidene-1,3-thiazolidin-3-yl)benzamide

>  <PriceCoeff>
1.00

>  <CAS>
67572-50-3

>  <MW>
342.39

>  <Description>
solid

>  <FSP3>
0.31

>  <clogP>
0.10

>  <TPSA>
134.49

>  <Acceptor>
6

>  <Donor>
1

>  <RotBonds>
5

>  <HAC>
22

>  <Collection>
General

>  <PPDS>
+

$$$$
F0745-0532
  Mrv2219 10102508112D          

 33 38  0  0  0  0            999 V2000
   -0.4534    1.9820    0.0000 C   0  0  0  0  0  0  0  0  0  0  0  0
   -0.4840    1.2228    0.0000 C   0  0  0  0  0  0  0  0  0  0  0  0
    0.9171    1.9973    0.0000 N   0  0  0  0  0  0  0  0  0  0  0  0
    0.2191    0.8356    0.0000 N   0  0  0  0  0  0  0  0  0  0  0  0
    0.8917    1.2228    0.0000 C   0  0  0  0  0  0  0  0  0  0  0  0
    0.2191    2.4253    0.0000 C   0  0  0  0  0  0  0  0  0  0  0  0
    1.0140   -1.1821    0.0000 N   0  0  0  0  0  0  0  0  0  0  0  0
    0.3720   -1.7120    0.0000 C   0  0  0  0  0  0  0  0  0  0  0  0
    1.7120   -1.6560    0.0000 C   0  0  0  0  0  0  0  0  0  0  0  0
   -1.1158    0.8356    0.0000 S   0  0  0  0  0  0  0  0  0  0  0  0
   -1.8291    1.9820    0.0000 C   0  0  0  0  0  0  0  0  0  0  0  0
   -1.8139    1.1871    0.0000 C   0  0  0  0  0  0  0  0  0  0  0  0
    1.5031   -2.4457    0.0000 C   0  0  0  0  0  0  0  0  0  0  0  0
    0.6930   -2.4661    0.0000 C   0  0  0  0  0  0  0  0  0  0  0  0
    1.5897    2.4457    0.0000 C   0  0  0  0  0  0  0  0  0  0  0  0
    0.2038    3.3628    0.0000 O   0  0  0  0  0  0  0  0  0  0  0  0
    2.5273   -1.3503    0.0000 O   0  0  0  0  0  0  0  0  0  0  0  0
   -0.4076   -1.4420    0.0000 O   0  0  0  0  0  0  0  0  0  0  0  0
    1.5897    0.8713    0.0000 S   0  0  0  0  0  0  0  0  0  0  0  0
    0.9528   -0.3414    0.0000 C   0  0  0  0  0  0  0  0  0  0  0  0
   -2.6546    2.2776    0.0000 C   0  0  0  0  0  0  0  0  0  0  0  0
   -2.5833    0.9120    0.0000 C   0  0  0  0  0  0  0  0  0  0  0  0
    1.6254    0.0764    0.0000 C   0  0  0  0  0  0  0  0  0  0  0  0
    1.9617   -3.1998    0.0000 C   0  0  0  0  0  0  0  0  0  0  0  0
    0.3057   -3.2763    0.0000 C   0  0  0  0  0  0  0  0  0  0  0  0
   -3.1335    1.5540    0.0000 C   0  0  0  0  0  0  0  0  0  0  0  0
    1.6101    3.3118    0.0000 C   0  0  0  0  0  0  0  0  0  0  0  0
    2.3438    2.0330    0.0000 C   0  0  0  0  0  0  0  0  0  0  0  0
    1.5897   -3.9335    0.0000 C   0  0  0  0  0  0  0  0  0  0  0  0
    0.6930   -3.9743    0.0000 C   0  0  0  0  0  0  0  0  0  0  0  0
    3.0928    2.4457    0.0000 C   0  0  0  0  0  0  0  0  0  0  0  0
    2.3591    3.7297    0.0000 C   0  0  0  0  0  0  0  0  0  0  0  0
    3.1183    3.2660    0.0000 C   0  0  0  0  0  0  0  0  0  0  0  0
  2  1  2  0  0  0  0
  3  6  1  0  0  0  0
  4  2  1  0  0  0  0
  5  3  1  0  0  0  0
  6  1  1  0  0  0  0
  7 20  1  0  0  0  0
  8  7  1  0  0  0  0
  9  7  1  0  0  0  0
 10  2  1  0  0  0  0
 11  1  1  0  0  0  0
 12 11  2  0  0  0  0
 13  9  1  0  0  0  0
 14  8  1  0  0  0  0
 15  3  1  0  0  0  0
 16  6  2  0  0  0  0
 17  9  2  0  0  0  0
 18  8  2  0  0  0  0
 19  5  1  0  0  0  0
 20 23  1  0  0  0  0
 21 11  1  0  0  0  0
 22 12  1  0  0  0  0
 23 19  1  0  0  0  0
 24 13  1  0  0  0  0
 25 14  1  0  0  0  0
 26 21  1  0  0  0  0
 27 15  1  0  0  0  0
 28 15  2  0  0  0  0
 29 24  2  0  0  0  0
 30 25  2  0  0  0  0
 31 28  1  0  0  0  0
 32 27  2  0  0  0  0
 33 31  2  0  0  0  0
 12 10  1  0  0  0  0
 26 22  1  0  0  0  0
  4  5  2  0  0  0  0
 33 32  1  0  0  0  0
 13 14  2  0  0  0  0
 29 30  1  0  0  0  0
M  END
>  <IDNUMBER>
F0745-0532

>  <Chemical_Name>
2-[2-({12-oxo-11-phenyl-7-thia-9,11-diazatricyclo[6.4.0.0?,?]dodeca-1(8),2(6),9-trien-10-yl}sulfanyl)ethyl]-2,3-dihydro-1H-isoindole-1,3-dione

>  <PriceCoeff>
1.00

>  <CAS>
307512-59-0

>  <MW>
473.57

>  <Description>
solid

>  <FSP3>
0.20

>  <clogP>
5.80

>  <TPSA>
123.59

>  <Acceptor>
4

>  <Donor>
0

>  <RotBonds>
5

>  <HAC>
33

>  <Collection>
General

>  <PPDS>
+

$$$$
F0745-1002
  Mrv2219 10102508112D          

 12 12  0  0  0  0            999 V2000
   -0.4190    0.8329    0.0000 C   0  0  0  0  0  0  0  0  0  0  0  0
   -1.2369    1.0723    0.0000 C   0  0  0  0  0  0  0  0  0  0  0  0
   -1.9102    0.5636    0.0000 S   0  0  0  0  0  0  0  0  0  0  0  0
   -0.2344    0.0399    0.0000 N   0  0  0  0  0  0  0  0  0  0  0  0
    0.7780   -1.0174    0.0000 C   0  0  0  0  0  0  0  0  0  0  0  0
   -1.4963    1.8553    0.0000 C   0  0  0  0  0  0  0  0  0  0  0  0
   -2.5736    1.0723    0.0000 C   0  0  0  0  0  0  0  0  0  0  0  0
    0.1796    1.4314    0.0000 O   0  0  0  0  0  0  0  0  0  0  0  0
   -2.3142    1.8553    0.0000 C   0  0  0  0  0  0  0  0  0  0  0  0
    1.5612   -1.2769    0.0000 O   0  0  0  0  0  0  0  0  0  0  0  0
    0.5835   -0.1996    0.0000 C   0  0  0  0  0  0  0  0  0  0  0  0
    0.1547   -1.5911    0.0000 O   0  0  0  0  0  0  0  0  0  0  0  0
  2  1  1  0  0  0  0
  3  2  1  0  0  0  0
  4  1  1  0  0  0  0
  5 11  1  0  0  0  0
  6  2  2  0  0  0  0
  7  3  1  0  0  0  0
  8  1  2  0  0  0  0
  9  6  1  0  0  0  0
 10  5  2  0  0  0  0
 11  4  1  0  0  0  0
 12  5  1  0  0  0  0
  9  7  2  0  0  0  0
M  END
>  <IDNUMBER>
F0745-1002

>  <Chemical_Name>
2-[(thiophen-2-yl)formamido]acetic acid

>  <PriceCoeff>
1.00

>  <CAS>
33955-17-8

>  <MW>
185.20

>  <Description>
solid

>  <FSP3>
0.14

>  <clogP>
0.56

>  <TPSA>
66.40

>  <Acceptor>
3

>  <Donor>
1

>  <RotBonds>
3

>  <HAC>
12

>  <Collection>
General

>  <PPDS>
+

$$$$
F0752-0089
  Mrv2219 10102508112D          

 21 22  0  0  0  0            999 V2000
    2.3042    0.6583    0.0000 P   0  0  0  0  0  0  0  0  0  0  0  0
    2.3042    1.4708    0.0000 S   0  0  0  0  0  0  0  0  0  0  0  0
    1.4792    0.6583    0.0000 C   0  0  0  0  0  0  0  0  0  0  0  0
    2.3042   -0.1792    0.0000 C   0  0  0  0  0  0  0  0  0  0  0  0
    3.1125    0.6875    0.0000 S   0  0  0  0  0  0  0  0  0  0  0  0
    1.0750   -0.0667    0.0000 C   0  0  0  0  0  0  0  0  0  0  0  0
    1.5792   -0.5875    0.0000 C   0  0  0  0  0  0  0  0  0  0  0  0
    1.0875    1.3583    0.0000 C   0  0  0  0  0  0  0  0  0  0  0  0
    3.0292   -0.5875    0.0000 C   0  0  0  0  0  0  0  0  0  0  0  0
    3.0292   -1.4250    0.0000 C   0  0  0  0  0  0  0  0  0  0  0  0
    1.5792   -1.4125    0.0000 C   0  0  0  0  0  0  0  0  0  0  0  0
    0.2500   -0.0667    0.0000 C   0  0  0  0  0  0  0  0  0  0  0  0
    0.2500    1.3583    0.0000 C   0  0  0  0  0  0  0  0  0  0  0  0
   -0.1583    0.6583    0.0000 C   0  0  0  0  0  0  0  0  0  0  0  0
    2.3042   -1.8042    0.0000 C   0  0  0  0  0  0  0  0  0  0  0  0
    4.5833   -0.1042    0.0000 N   0  0  0  0  0  0  0  0  0  0  0  0
    6.2458   -0.1042    0.0000 O   0  0  0  0  0  0  0  0  0  0  0  0
    5.0000    0.6083    0.0000 C   0  0  0  0  0  0  0  0  0  0  0  0
    5.0000   -0.8292    0.0000 C   0  0  0  0  0  0  0  0  0  0  0  0
    5.8125   -0.8292    0.0000 C   0  0  0  0  0  0  0  0  0  0  0  0
    5.8250    0.6083    0.0000 C   0  0  0  0  0  0  0  0  0  0  0  0
  8  3  2  0  0  0  0
  9  4  1  0  0  0  0
 10  9  2  0  0  0  0
 11  7  1  0  0  0  0
 12  6  2  0  0  0  0
 13  8  1  0  0  0  0
 14 13  2  0  0  0  0
 15 10  1  0  0  0  0
 11 15  2  0  0  0  0
 12 14  1  0  0  0  0
  2  1  2  0  0  0  0
  3  1  1  0  0  0  0
  4  1  1  0  0  0  0
  5  1  1  0  0  0  0
  6  3  1  0  0  0  0
  7  4  2  0  0  0  0
 17 20  1  0  0  0  0
 18 16  1  0  0  0  0
 19 16  1  0  0  0  0
 20 19  1  0  0  0  0
 21 18  1  0  0  0  0
 21 17  1  0  0  0  0
M  END
>  <IDNUMBER>
F0752-0089

>  <Chemical_Name>
diphenyl(sulfanyl)-??-phosphanethione; morpholine

>  <PriceCoeff>
1.00

>  <CAS>
19855-99-3

>  <MW>
250.32

>  <Description>
solid

>  <FSP3>
0.00

>  <clogP>
3.81

>  <TPSA>
80.70

>  <Acceptor>
1

>  <Donor>
0

>  <RotBonds>
2

>  <HAC>
15

>  <Collection>
General

$$$$
F0758-0026
  Mrv2219 10102508112D          

 22 24  0  0  0  0            999 V2000
   -0.7464    0.1464    0.0000 C   0  0  0  0  0  0  0  0  0  0  0  0
   -1.4679    1.3821    0.0000 C   0  0  0  0  0  0  0  0  0  0  0  0
   -0.0285    0.5571    0.0000 C   0  0  0  0  0  0  0  0  0  0  0  0
   -1.4679    0.5571    0.0000 C   0  0  0  0  0  0  0  0  0  0  0  0
   -0.7464    1.7964    0.0000 O   0  0  0  0  0  0  0  0  0  0  0  0
   -0.0285    1.3821    0.0000 C   0  0  0  0  0  0  0  0  0  0  0  0
   -2.1714    1.7964    0.0000 C   0  0  0  0  0  0  0  0  0  0  0  0
   -2.1714    0.1464    0.0000 C   0  0  0  0  0  0  0  0  0  0  0  0
   -0.7464   -0.6750    0.0000 O   0  0  0  0  0  0  0  0  0  0  0  0
   -2.8893    1.3821    0.0000 C   0  0  0  0  0  0  0  0  0  0  0  0
    0.6893    0.1464    0.0000 C   0  0  0  0  0  0  0  0  0  0  0  0
   -2.8893    0.5571    0.0000 C   0  0  0  0  0  0  0  0  0  0  0  0
    0.7107    1.8107    0.0000 C   0  0  0  0  0  0  0  0  0  0  0  0
   -3.6285    1.8107    0.0000 O   0  0  0  0  0  0  0  0  0  0  0  0
   -2.1536    2.5678    0.0000 C   0  0  0  0  0  0  0  0  0  0  0  0
    0.6893   -0.6750    0.0000 C   0  0  0  0  0  0  0  0  0  0  0  0
    1.3965    0.5571    0.0000 C   0  0  0  0  0  0  0  0  0  0  0  0
   -4.3286    1.4000    0.0000 C   0  0  0  0  0  0  0  0  0  0  0  0
   -5.0535    1.8107    0.0000 C   0  0  0  0  0  0  0  0  0  0  0  0
    1.3965   -1.0857    0.0000 C   0  0  0  0  0  0  0  0  0  0  0  0
    2.1143    0.1464    0.0000 C   0  0  0  0  0  0  0  0  0  0  0  0
    2.1143   -0.6750    0.0000 C   0  0  0  0  0  0  0  0  0  0  0  0
  2  4  2  0  0  0  0
  3  1  1  0  0  0  0
  4  1  1  0  0  0  0
  5  2  1  0  0  0  0
  6  3  2  0  0  0  0
  7  2  1  0  0  0  0
  8  4  1  0  0  0  0
  9  1  2  0  0  0  0
 10 12  1  0  0  0  0
 11  3  1  0  0  0  0
 12  8  2  0  0  0  0
 13  6  1  0  0  0  0
 14 10  1  0  0  0  0
 15  7  1  0  0  0  0
 16 11  1  0  0  0  0
 17 11  2  0  0  0  0
 18 14  1  0  0  0  0
 19 18  1  0  0  0  0
 20 16  2  0  0  0  0
 21 17  1  0  0  0  0
 22 21  2  0  0  0  0
  5  6  1  0  0  0  0
  7 10  2  0  0  0  0
 20 22  1  0  0  0  0
M  END
>  <IDNUMBER>
F0758-0026

>  <Chemical_Name>
7-ethoxy-2,8-dimethyl-3-phenyl-4H-chromen-4-one

>  <PriceCoeff>
1.00

>  <CAS>
315233-56-8

>  <MW>
294.34

>  <Description>
solid

>  <FSP3>
0.21

>  <clogP>
4.31

>  <TPSA>
35.53

>  <Acceptor>
3

>  <Donor>
0

>  <RotBonds>
3

>  <HAC>
22

>  <Collection>
General

>  <PPDS>
+

$$$$
F0758-0027
  Mrv2219 10102508112D          

 21 23  0  0  0  0            999 V2000
   -0.7464    0.1464    0.0000 C   0  0  0  0  0  0  0  0  0  0  0  0
   -1.4679    1.3821    0.0000 C   0  0  0  0  0  0  0  0  0  0  0  0
   -0.0285    0.5571    0.0000 C   0  0  0  0  0  0  0  0  0  0  0  0
   -1.4679    0.5571    0.0000 C   0  0  0  0  0  0  0  0  0  0  0  0
   -0.7464    1.7964    0.0000 O   0  0  0  0  0  0  0  0  0  0  0  0
   -0.0285    1.3821    0.0000 C   0  0  0  0  0  0  0  0  0  0  0  0
   -2.1714    1.7964    0.0000 C   0  0  0  0  0  0  0  0  0  0  0  0
   -2.1714    0.1464    0.0000 C   0  0  0  0  0  0  0  0  0  0  0  0
   -0.7464   -0.6750    0.0000 O   0  0  0  0  0  0  0  0  0  0  0  0
   -2.8893    1.3821    0.0000 C   0  0  0  0  0  0  0  0  0  0  0  0
    0.6893    0.1464    0.0000 C   0  0  0  0  0  0  0  0  0  0  0  0
   -2.8893    0.5571    0.0000 C   0  0  0  0  0  0  0  0  0  0  0  0
    0.7107    1.8107    0.0000 C   0  0  0  0  0  0  0  0  0  0  0  0
   -3.6285    1.8107    0.0000 O   0  0  0  0  0  0  0  0  0  0  0  0
   -2.1536    2.5464    0.0000 C   0  0  0  0  0  0  0  0  0  0  0  0
    0.6893   -0.6750    0.0000 C   0  0  0  0  0  0  0  0  0  0  0  0
    1.3965    0.5571    0.0000 C   0  0  0  0  0  0  0  0  0  0  0  0
   -4.3286    1.4000    0.0000 C   0  0  0  0  0  0  0  0  0  0  0  0
    1.3965   -1.0857    0.0000 C   0  0  0  0  0  0  0  0  0  0  0  0
    2.1143    0.1464    0.0000 C   0  0  0  0  0  0  0  0  0  0  0  0
    2.1143   -0.6750    0.0000 C   0  0  0  0  0  0  0  0  0  0  0  0
  2  4  2  0  0  0  0
  3  1  1  0  0  0  0
  4  1  1  0  0  0  0
  5  2  1  0  0  0  0
  6  3  2  0  0  0  0
  7  2  1  0  0  0  0
  8  4  1  0  0  0  0
  9  1  2  0  0  0  0
 10 12  1  0  0  0  0
 11  3  1  0  0  0  0
 12  8  2  0  0  0  0
 13  6  1  0  0  0  0
 14 10  1  0  0  0  0
 15  7  1  0  0  0  0
 16 11  1  0  0  0  0
 17 11  2  0  0  0  0
 18 14  1  0  0  0  0
 19 16  2  0  0  0  0
 20 17  1  0  0  0  0
 21 20  2  0  0  0  0
  5  6  1  0  0  0  0
  7 10  2  0  0  0  0
 19 21  1  0  0  0  0
M  END
>  <IDNUMBER>
F0758-0027

>  <Chemical_Name>
7-methoxy-2,8-dimethyl-3-phenyl-4H-chromen-4-one

>  <PriceCoeff>
1.00

>  <CAS>
315233-57-9

>  <MW>
280.32

>  <Description>
solid

>  <FSP3>
0.17

>  <clogP>
3.78

>  <TPSA>
35.53

>  <Acceptor>
3

>  <Donor>
0

>  <RotBonds>
2

>  <HAC>
21

>  <Collection>
General

>  <PPDS>
+

$$$$
F0758-0028
  Mrv2219 10102508112D          

 20 22  0  0  0  0            999 V2000
   -0.0285    0.5571    0.0000 C   0  0  0  0  0  0  0  0  0  0  0  0
   -0.7464    0.1464    0.0000 C   0  0  0  0  0  0  0  0  0  0  0  0
   -0.0285    1.3821    0.0000 C   0  0  0  0  0  0  0  0  0  0  0  0
   -1.4679    0.5571    0.0000 C   0  0  0  0  0  0  0  0  0  0  0  0
   -1.4679    1.3821    0.0000 C   0  0  0  0  0  0  0  0  0  0  0  0
   -0.7464    1.7964    0.0000 O   0  0  0  0  0  0  0  0  0  0  0  0
   -2.1714    1.7964    0.0000 C   0  0  0  0  0  0  0  0  0  0  0  0
   -2.1714    0.1464    0.0000 C   0  0  0  0  0  0  0  0  0  0  0  0
   -0.7464   -0.6750    0.0000 O   0  0  0  0  0  0  0  0  0  0  0  0
    0.6893    0.1464    0.0000 C   0  0  0  0  0  0  0  0  0  0  0  0
   -2.8893    1.3821    0.0000 C   0  0  0  0  0  0  0  0  0  0  0  0
   -2.8893    0.5571    0.0000 C   0  0  0  0  0  0  0  0  0  0  0  0
    0.7107    1.8107    0.0000 C   0  0  0  0  0  0  0  0  0  0  0  0
   -3.6285    1.8107    0.0000 O   0  0  0  0  0  0  0  0  0  0  0  0
    0.6893   -0.6750    0.0000 C   0  0  0  0  0  0  0  0  0  0  0  0
    1.3965    0.5571    0.0000 C   0  0  0  0  0  0  0  0  0  0  0  0
   -4.3286    1.4000    0.0000 C   0  0  0  0  0  0  0  0  0  0  0  0
    1.3965   -1.0857    0.0000 C   0  0  0  0  0  0  0  0  0  0  0  0
    2.1143    0.1464    0.0000 C   0  0  0  0  0  0  0  0  0  0  0  0
    2.1143   -0.6750    0.0000 C   0  0  0  0  0  0  0  0  0  0  0  0
  2  1  1  0  0  0  0
  3  1  2  0  0  0  0
  4  2  1  0  0  0  0
  5  6  1  0  0  0  0
  6  3  1  0  0  0  0
  7  5  1  0  0  0  0
  8  4  1  0  0  0  0
  9  2  2  0  0  0  0
 10  1  1  0  0  0  0
 11  7  2  0  0  0  0
 12  8  2  0  0  0  0
 13  3  1  0  0  0  0
 14 11  1  0  0  0  0
 15 10  1  0  0  0  0
 16 10  2  0  0  0  0
 17 14  1  0  0  0  0
 18 15  2  0  0  0  0
 19 16  1  0  0  0  0
 20 19  2  0  0  0  0
  5  4  2  0  0  0  0
 20 18  1  0  0  0  0
 12 11  1  0  0  0  0
M  END
>  <IDNUMBER>
F0758-0028

>  <Chemical_Name>
7-methoxy-2-methyl-3-phenyl-4H-chromen-4-one

>  <PriceCoeff>
1.00

>  <CAS>
19725-44-1

>  <MW>
266.29

>  <Description>
solid

>  <FSP3>
0.12

>  <clogP>
3.29

>  <TPSA>
35.53

>  <Acceptor>
3

>  <Donor>
0

>  <RotBonds>
2

>  <HAC>
20

>  <Collection>
General

>  <PPDS>
+

$$$$
F0758-0029
  Mrv2219 10102508112D          

 21 23  0  0  0  0            999 V2000
   -0.0285    0.5571    0.0000 C   0  0  0  0  0  0  0  0  0  0  0  0
   -0.7464    0.1464    0.0000 C   0  0  0  0  0  0  0  0  0  0  0  0
   -0.0285    1.3821    0.0000 C   0  0  0  0  0  0  0  0  0  0  0  0
   -1.4679    0.5571    0.0000 C   0  0  0  0  0  0  0  0  0  0  0  0
   -1.4679    1.3821    0.0000 C   0  0  0  0  0  0  0  0  0  0  0  0
   -0.7464    1.7964    0.0000 O   0  0  0  0  0  0  0  0  0  0  0  0
   -2.1714    1.7964    0.0000 C   0  0  0  0  0  0  0  0  0  0  0  0
   -2.1714    0.1464    0.0000 C   0  0  0  0  0  0  0  0  0  0  0  0
   -0.7464   -0.6750    0.0000 O   0  0  0  0  0  0  0  0  0  0  0  0
    0.6893    0.1464    0.0000 C   0  0  0  0  0  0  0  0  0  0  0  0
   -2.8893    1.3821    0.0000 C   0  0  0  0  0  0  0  0  0  0  0  0
   -2.8893    0.5571    0.0000 C   0  0  0  0  0  0  0  0  0  0  0  0
    0.7107    1.8107    0.0000 C   0  0  0  0  0  0  0  0  0  0  0  0
   -3.6285    1.8107    0.0000 O   0  0  0  0  0  0  0  0  0  0  0  0
    0.6893   -0.6750    0.0000 C   0  0  0  0  0  0  0  0  0  0  0  0
    1.3965    0.5571    0.0000 C   0  0  0  0  0  0  0  0  0  0  0  0
   -4.3286    1.4000    0.0000 C   0  0  0  0  0  0  0  0  0  0  0  0
   -4.8821    1.8821    0.0000 C   0  0  0  0  0  0  0  0  0  0  0  0
    2.1143    0.1464    0.0000 C   0  0  0  0  0  0  0  0  0  0  0  0
    1.3965   -1.0857    0.0000 C   0  0  0  0  0  0  0  0  0  0  0  0
    2.1143   -0.6750    0.0000 C   0  0  0  0  0  0  0  0  0  0  0  0
  2  1  1  0  0  0  0
  3  1  2  0  0  0  0
  4  2  1  0  0  0  0
  5  6  1  0  0  0  0
  6  3  1  0  0  0  0
  7  5  1  0  0  0  0
  8  4  1  0  0  0  0
  9  2  2  0  0  0  0
 10  1  1  0  0  0  0
 11  7  2  0  0  0  0
 12  8  2  0  0  0  0
 13  3  1  0  0  0  0
 14 11  1  0  0  0  0
 15 10  1  0  0  0  0
 16 10  2  0  0  0  0
 17 14  1  0  0  0  0
 18 17  1  0  0  0  0
 19 16  1  0  0  0  0
 20 15  2  0  0  0  0
 21 19  2  0  0  0  0
  4  5  2  0  0  0  0
 20 21  1  0  0  0  0
 11 12  1  0  0  0  0
M  END
>  <IDNUMBER>
F0758-0029

>  <Chemical_Name>
7-ethoxy-2-methyl-3-phenyl-4H-chromen-4-one

>  <PriceCoeff>
1.00

>  <CAS>
315233-58-0

>  <MW>
280.32

>  <Description>
solid

>  <FSP3>
0.17

>  <clogP>
3.81

>  <TPSA>
35.53

>  <Acceptor>
3

>  <Donor>
0

>  <RotBonds>
3

>  <HAC>
21

>  <Collection>
General

>  <PPDS>
+

$$$$
F0758-0031
  Mrv2219 10102508112D          

 23 25  0  0  0  0            999 V2000
   -0.6942    0.1926    0.0000 C   0  0  0  0  0  0  0  0  0  0  0  0
   -1.4065    1.4356    0.0000 C   0  0  0  0  0  0  0  0  0  0  0  0
    0.0255    0.6106    0.0000 C   0  0  0  0  0  0  0  0  0  0  0  0
   -1.4065    0.6106    0.0000 C   0  0  0  0  0  0  0  0  0  0  0  0
   -0.6942    1.8318    0.0000 O   0  0  0  0  0  0  0  0  0  0  0  0
    0.0255    1.4356    0.0000 C   0  0  0  0  0  0  0  0  0  0  0  0
   -2.1044    1.8318    0.0000 C   0  0  0  0  0  0  0  0  0  0  0  0
   -2.8203    1.4356    0.0000 C   0  0  0  0  0  0  0  0  0  0  0  0
   -2.1044    0.1926    0.0000 C   0  0  0  0  0  0  0  0  0  0  0  0
   -3.5327    1.8499    0.0000 O   0  0  0  0  0  0  0  0  0  0  0  0
   -4.2487    1.4356    0.0000 C   0  0  0  0  0  0  0  0  0  0  0  0
   -0.6942   -0.6252    0.0000 O   0  0  0  0  0  0  0  0  0  0  0  0
    0.7414    0.1926    0.0000 C   0  0  0  0  0  0  0  0  0  0  0  0
   -2.8203    0.6106    0.0000 C   0  0  0  0  0  0  0  0  0  0  0  0
   -4.2705    0.6106    0.0000 O   0  0  0  0  0  0  0  0  0  0  0  0
    0.7414    1.8499    0.0000 C   0  0  0  0  0  0  0  0  0  0  0  0
   -2.0608    2.5587    0.0000 C   0  0  0  0  0  0  0  0  0  0  0  0
   -4.9683    1.8499    0.0000 C   0  0  0  0  0  0  0  0  0  0  0  0
    0.7233   -0.6252    0.0000 C   0  0  0  0  0  0  0  0  0  0  0  0
    1.4538    0.6106    0.0000 C   0  0  0  0  0  0  0  0  0  0  0  0
    2.1516    0.1926    0.0000 C   0  0  0  0  0  0  0  0  0  0  0  0
    1.4393   -1.0467    0.0000 C   0  0  0  0  0  0  0  0  0  0  0  0
    2.1516   -0.6433    0.0000 C   0  0  0  0  0  0  0  0  0  0  0  0
  2  4  2  0  0  0  0
  3  1  1  0  0  0  0
  4  1  1  0  0  0  0
  5  2  1  0  0  0  0
  6  3  2  0  0  0  0
  7  2  1  0  0  0  0
  8 14  1  0  0  0  0
  9  4  1  0  0  0  0
 10  8  1  0  0  0  0
 11 10  1  0  0  0  0
 12  1  2  0  0  0  0
 13  3  1  0  0  0  0
 14  9  2  0  0  0  0
 15 11  2  0  0  0  0
 16  6  1  0  0  0  0
 17  7  1  0  0  0  0
 18 11  1  0  0  0  0
 19 13  1  0  0  0  0
 20 13  2  0  0  0  0
 21 20  1  0  0  0  0
 22 19  2  0  0  0  0
 23 21  2  0  0  0  0
  5  6  1  0  0  0  0
  7  8  2  0  0  0  0
 22 23  1  0  0  0  0
M  END
>  <IDNUMBER>
F0758-0031

>  <Chemical_Name>
2,8-dimethyl-4-oxo-3-phenyl-4H-chromen-7-yl acetate

>  <PriceCoeff>
1.00

>  <CAS>
39582-06-4

>  <MW>
308.33

>  <Description>
solid

>  <FSP3>
0.16

>  <clogP>
3.21

>  <TPSA>
52.60

>  <Acceptor>
4

>  <Donor>
0

>  <RotBonds>
3

>  <HAC>
23

>  <Collection>
General

>  <PPDS>
+

$$$$
F0758-0033
  Mrv2219 10102508112D          

 19 21  0  0  0  0            999 V2000
    0.0255    0.6106    0.0000 C   0  0  0  0  0  0  0  0  0  0  0  0
   -0.6942    0.1926    0.0000 C   0  0  0  0  0  0  0  0  0  0  0  0
    0.0255    1.4356    0.0000 C   0  0  0  0  0  0  0  0  0  0  0  0
   -1.4065    0.6106    0.0000 C   0  0  0  0  0  0  0  0  0  0  0  0
   -1.4065    1.4356    0.0000 C   0  0  0  0  0  0  0  0  0  0  0  0
   -0.6942    1.8318    0.0000 O   0  0  0  0  0  0  0  0  0  0  0  0
   -2.1044    1.8318    0.0000 C   0  0  0  0  0  0  0  0  0  0  0  0
   -2.1044    0.1926    0.0000 C   0  0  0  0  0  0  0  0  0  0  0  0
   -0.6942   -0.6252    0.0000 O   0  0  0  0  0  0  0  0  0  0  0  0
    0.7414    0.1926    0.0000 C   0  0  0  0  0  0  0  0  0  0  0  0
   -2.8203    1.4356    0.0000 C   0  0  0  0  0  0  0  0  0  0  0  0
   -2.8203    0.6106    0.0000 C   0  0  0  0  0  0  0  0  0  0  0  0
    0.7414    1.8499    0.0000 C   0  0  0  0  0  0  0  0  0  0  0  0
   -3.5327    1.8499    0.0000 O   0  0  0  0  0  0  0  0  0  0  0  0
    0.7233   -0.6252    0.0000 C   0  0  0  0  0  0  0  0  0  0  0  0
    1.4538    0.6106    0.0000 C   0  0  0  0  0  0  0  0  0  0  0  0
    2.1516    0.1926    0.0000 C   0  0  0  0  0  0  0  0  0  0  0  0
    1.4393   -1.0467    0.0000 C   0  0  0  0  0  0  0  0  0  0  0  0
    2.1516   -0.6433    0.0000 C   0  0  0  0  0  0  0  0  0  0  0  0
  2  1  1  0  0  0  0
  3  1  2  0  0  0  0
  4  2  1  0  0  0  0
  5  6  1  0  0  0  0
  6  3  1  0  0  0  0
  7  5  1  0  0  0  0
  8  4  1  0  0  0  0
  9  2  2  0  0  0  0
 10  1  1  0  0  0  0
 11  7  2  0  0  0  0
 12  8  2  0  0  0  0
 13  3  1  0  0  0  0
 14 11  1  0  0  0  0
 15 10  1  0  0  0  0
 16 10  2  0  0  0  0
 17 16  1  0  0  0  0
 18 15  2  0  0  0  0
 19 17  2  0  0  0  0
  5  4  2  0  0  0  0
 18 19  1  0  0  0  0
 11 12  1  0  0  0  0
M  END
>  <IDNUMBER>
F0758-0033

>  <Chemical_Name>
7-hydroxy-2-methyl-3-phenyl-4H-chromen-4-one

>  <PriceCoeff>
1.00

>  <CAS>
2859-88-3

>  <MW>
252.27

>  <Description>
solid

>  <FSP3>
0.06

>  <clogP>
3.24

>  <TPSA>
46.53

>  <Acceptor>
3

>  <Donor>
1

>  <RotBonds>
1

>  <HAC>
19

>  <Collection>
General

>  <PPDS>
+

$$$$
F0758-0045
  Mrv2219 10102508112D          

 24 26  0  0  0  0            999 V2000
    1.0410    1.0489    0.0000 C   0  0  0  0  0  0  0  0  0  0  0  0
    0.6286    0.3496    0.0000 C   0  0  0  0  0  0  0  0  0  0  0  0
    0.6286    1.7874    0.0000 C   0  0  0  0  0  0  0  0  0  0  0  0
   -0.2003    0.3496    0.0000 C   0  0  0  0  0  0  0  0  0  0  0  0
   -0.5971    1.0489    0.0000 C   0  0  0  0  0  0  0  0  0  0  0  0
   -0.2003    1.7638    0.0000 O   0  0  0  0  0  0  0  0  0  0  0  0
   -1.4260    1.0489    0.0000 C   0  0  0  0  0  0  0  0  0  0  0  0
    1.8738    1.0489    0.0000 C   0  0  0  0  0  0  0  0  0  0  0  0
   -0.5971   -0.3811    0.0000 C   0  0  0  0  0  0  0  0  0  0  0  0
    1.0646   -0.3811    0.0000 O   0  0  0  0  0  0  0  0  0  0  0  0
   -3.0484   -0.3653    0.0000 C   0  0  0  0  0  0  0  0  0  0  0  0
   -1.8227    0.3496    0.0000 C   0  0  0  0  0  0  0  0  0  0  0  0
   -2.6516    0.3496    0.0000 O   0  0  0  0  0  0  0  0  0  0  0  0
   -2.6516   -1.0842    0.0000 O   0  0  0  0  0  0  0  0  0  0  0  0
    2.2667    1.7638    0.0000 C   0  0  0  0  0  0  0  0  0  0  0  0
    2.2667    0.3496    0.0000 C   0  0  0  0  0  0  0  0  0  0  0  0
   -1.4102   -0.3811    0.0000 C   0  0  0  0  0  0  0  0  0  0  0  0
    1.0253    2.5180    0.0000 C   0  0  0  0  0  0  0  0  0  0  0  0
    3.4923    1.0489    0.0000 C   0  0  0  0  0  0  0  0  0  0  0  0
    3.0995    0.3496    0.0000 C   0  0  0  0  0  0  0  0  0  0  0  0
    3.0798    1.7874    0.0000 C   0  0  0  0  0  0  0  0  0  0  0  0
    4.3251    1.0489    0.0000 O   0  0  0  0  0  0  0  0  0  0  0  0
   -3.8615   -0.3457    0.0000 C   0  0  0  0  0  0  0  0  0  0  0  0
    4.7180    0.3300    0.0000 C   0  0  0  0  0  0  0  0  0  0  0  0
  2  1  1  0  0  0  0
  3  1  2  0  0  0  0
  4  2  1  0  0  0  0
  5  6  1  0  0  0  0
  6  3  1  0  0  0  0
  7  5  1  0  0  0  0
  8  1  1  0  0  0  0
  9  4  1  0  0  0  0
 10  2  2  0  0  0  0
 11 13  1  0  0  0  0
 12  7  2  0  0  0  0
 13 12  1  0  0  0  0
 14 11  2  0  0  0  0
 15  8  1  0  0  0  0
 16  8  2  0  0  0  0
 17  9  2  0  0  0  0
 18  3  1  0  0  0  0
 19 20  2  0  0  0  0
 20 16  1  0  0  0  0
 21 15  2  0  0  0  0
 22 19  1  0  0  0  0
 23 11  1  0  0  0  0
 24 22  1  0  0  0  0
 21 19  1  0  0  0  0
  4  5  2  0  0  0  0
 17 12  1  0  0  0  0
M  END
>  <IDNUMBER>
F0758-0045

>  <Chemical_Name>
3-(4-methoxyphenyl)-2-methyl-4-oxo-4H-chromen-7-yl acetate

>  <PriceCoeff>
1.00

>  <CAS>
70460-66-1

>  <MW>
324.33

>  <Description>
solid

>  <FSP3>
0.16

>  <clogP>
2.65

>  <TPSA>
61.83

>  <Acceptor>
5

>  <Donor>
0

>  <RotBonds>
4

>  <HAC>
24

>  <Collection>
General

>  <PPDS>
+

$$$$
F0758-0046
  Mrv2219 10102508112D          

 21 23  0  0  0  0            999 V2000
    1.0361    1.0439    0.0000 C   0  0  0  0  0  0  0  0  0  0  0  0
    0.6256    0.3479    0.0000 C   0  0  0  0  0  0  0  0  0  0  0  0
    0.6256    1.7789    0.0000 C   0  0  0  0  0  0  0  0  0  0  0  0
   -0.1994    0.3479    0.0000 C   0  0  0  0  0  0  0  0  0  0  0  0
   -0.5943    1.0439    0.0000 C   0  0  0  0  0  0  0  0  0  0  0  0
   -0.1994    1.7555    0.0000 O   0  0  0  0  0  0  0  0  0  0  0  0
   -1.4193    1.0439    0.0000 C   0  0  0  0  0  0  0  0  0  0  0  0
    1.8650    1.0439    0.0000 C   0  0  0  0  0  0  0  0  0  0  0  0
   -0.5943   -0.3793    0.0000 C   0  0  0  0  0  0  0  0  0  0  0  0
    1.0596   -0.3793    0.0000 O   0  0  0  0  0  0  0  0  0  0  0  0
    2.2560    1.7555    0.0000 C   0  0  0  0  0  0  0  0  0  0  0  0
    2.2560    0.3479    0.0000 C   0  0  0  0  0  0  0  0  0  0  0  0
   -1.8141    0.3479    0.0000 C   0  0  0  0  0  0  0  0  0  0  0  0
   -1.4036   -0.3793    0.0000 C   0  0  0  0  0  0  0  0  0  0  0  0
    1.0205    2.5062    0.0000 C   0  0  0  0  0  0  0  0  0  0  0  0
    3.4758    1.0439    0.0000 C   0  0  0  0  0  0  0  0  0  0  0  0
    3.0848    0.3479    0.0000 C   0  0  0  0  0  0  0  0  0  0  0  0
    3.0653    1.7789    0.0000 C   0  0  0  0  0  0  0  0  0  0  0  0
   -2.6391    0.3479    0.0000 O   0  0  0  0  0  0  0  0  0  0  0  0
    4.3047    1.0439    0.0000 O   0  0  0  0  0  0  0  0  0  0  0  0
    4.6957    0.3284    0.0000 C   0  0  0  0  0  0  0  0  0  0  0  0
  2  1  1  0  0  0  0
  3  1  2  0  0  0  0
  4  2  1  0  0  0  0
  5  6  1  0  0  0  0
  6  3  1  0  0  0  0
  7  5  1  0  0  0  0
  8  1  1  0  0  0  0
  9  4  1  0  0  0  0
 10  2  2  0  0  0  0
 11  8  1  0  0  0  0
 12  8  2  0  0  0  0
 13  7  2  0  0  0  0
 14  9  2  0  0  0  0
 15  3  1  0  0  0  0
 16 17  2  0  0  0  0
 17 12  1  0  0  0  0
 18 11  2  0  0  0  0
 19 13  1  0  0  0  0
 20 16  1  0  0  0  0
 21 20  1  0  0  0  0
 16 18  1  0  0  0  0
  5  4  2  0  0  0  0
 13 14  1  0  0  0  0
M  END
>  <IDNUMBER>
F0758-0046

>  <Chemical_Name>
7-hydroxy-3-(4-methoxyphenyl)-2-methyl-4H-chromen-4-one

>  <PriceCoeff>
1.00

>  <CAS>
13004-42-7

>  <MW>
282.29

>  <Description>
solid

>  <FSP3>
0.12

>  <clogP>
2.84

>  <TPSA>
55.76

>  <Acceptor>
4

>  <Donor>
1

>  <RotBonds>
2

>  <HAC>
21

>  <Collection>
General

>  <PPDS>
+

$$$$
F0758-0076
  Mrv2219 10102508112D          

 21 23  0  0  0  0            999 V2000
    0.8579    1.1502    0.0000 C   0  0  0  0  0  0  0  0  0  0  0  0
   -0.3808    0.4462    0.0000 C   0  0  0  0  0  0  0  0  0  0  0  0
    0.4501    0.4270    0.0000 C   0  0  0  0  0  0  0  0  0  0  0  0
   -0.7848    1.1502    0.0000 C   0  0  0  0  0  0  0  0  0  0  0  0
   -0.3808    1.8657    0.0000 O   0  0  0  0  0  0  0  0  0  0  0  0
    0.4501    1.8657    0.0000 C   0  0  0  0  0  0  0  0  0  0  0  0
   -1.6157    1.1657    0.0000 C   0  0  0  0  0  0  0  0  0  0  0  0
   -0.8040   -0.2770    0.0000 C   0  0  0  0  0  0  0  0  0  0  0  0
   -2.0273    0.4462    0.0000 C   0  0  0  0  0  0  0  0  0  0  0  0
    1.6658    1.1272    0.0000 C   0  0  0  0  0  0  0  0  0  0  0  0
    0.8771   -0.2924    0.0000 O   0  0  0  0  0  0  0  0  0  0  0  0
   -1.6157   -0.2770    0.0000 C   0  0  0  0  0  0  0  0  0  0  0  0
   -2.8352    0.4616    0.0000 O   0  0  0  0  0  0  0  0  0  0  0  0
   -2.1813    1.8773    0.0000 C   0  0  0  0  0  0  0  0  0  0  0  0
    2.0773    0.4270    0.0000 C   0  0  0  0  0  0  0  0  0  0  0  0
    2.0927    1.8465    0.0000 C   0  0  0  0  0  0  0  0  0  0  0  0
   -3.2506   -0.2308    0.0000 C   0  0  0  0  0  0  0  0  0  0  0  0
   -4.0701   -0.2116    0.0000 C   0  0  0  0  0  0  0  0  0  0  0  0
    2.9083    1.8465    0.0000 C   0  0  0  0  0  0  0  0  0  0  0  0
    2.9083    0.4116    0.0000 C   0  0  0  0  0  0  0  0  0  0  0  0
    3.3122    1.1272    0.0000 C   0  0  0  0  0  0  0  0  0  0  0  0
  2  3  1  0  0  0  0
  3  1  1  0  0  0  0
  4  5  1  0  0  0  0
  5  6  1  0  0  0  0
  6  1  2  0  0  0  0
  7  4  1  0  0  0  0
  8  2  1  0  0  0  0
  9  7  2  0  0  0  0
 10  1  1  0  0  0  0
 11  3  2  0  0  0  0
 12  8  2  0  0  0  0
 13  9  1  0  0  0  0
 14  7  1  0  0  0  0
 15 10  2  0  0  0  0
 16 10  1  0  0  0  0
 17 13  1  0  0  0  0
 18 17  1  0  0  0  0
 19 16  2  0  0  0  0
 20 15  1  0  0  0  0
 21 19  1  0  0  0  0
  4  2  2  0  0  0  0
 20 21  2  0  0  0  0
  9 12  1  0  0  0  0
M  END
>  <IDNUMBER>
F0758-0076

>  <Chemical_Name>
7-ethoxy-8-methyl-3-phenyl-4H-chromen-4-one

>  <PriceCoeff>
1.00

>  <CAS>
163218-84-6

>  <MW>
280.32

>  <Description>
solid

>  <FSP3>
0.17

>  <clogP>
4.11

>  <TPSA>
35.53

>  <Acceptor>
3

>  <Donor>
0

>  <RotBonds>
3

>  <HAC>
21

>  <Collection>
General

>  <PPDS>
+

$$$$
F0758-0077
  Mrv2219 10102508112D          

 20 22  0  0  0  0            999 V2000
    0.8579    1.1502    0.0000 C   0  0  0  0  0  0  0  0  0  0  0  0
    0.4501    0.4270    0.0000 C   0  0  0  0  0  0  0  0  0  0  0  0
   -0.3808    0.4462    0.0000 C   0  0  0  0  0  0  0  0  0  0  0  0
    0.4501    1.8657    0.0000 C   0  0  0  0  0  0  0  0  0  0  0  0
   -0.7848    1.1502    0.0000 C   0  0  0  0  0  0  0  0  0  0  0  0
   -0.3808    1.8657    0.0000 O   0  0  0  0  0  0  0  0  0  0  0  0
   -0.8040   -0.2770    0.0000 C   0  0  0  0  0  0  0  0  0  0  0  0
   -1.6157    1.1657    0.0000 C   0  0  0  0  0  0  0  0  0  0  0  0
    1.6658    1.1272    0.0000 C   0  0  0  0  0  0  0  0  0  0  0  0
    0.8771   -0.2924    0.0000 O   0  0  0  0  0  0  0  0  0  0  0  0
   -2.0273    0.4462    0.0000 C   0  0  0  0  0  0  0  0  0  0  0  0
   -1.6157   -0.2770    0.0000 C   0  0  0  0  0  0  0  0  0  0  0  0
   -2.8352    0.4616    0.0000 O   0  0  0  0  0  0  0  0  0  0  0  0
    2.0773    0.4270    0.0000 C   0  0  0  0  0  0  0  0  0  0  0  0
    2.0927    1.8465    0.0000 C   0  0  0  0  0  0  0  0  0  0  0  0
   -3.2506   -0.2308    0.0000 C   0  0  0  0  0  0  0  0  0  0  0  0
   -4.0701   -0.2116    0.0000 C   0  0  0  0  0  0  0  0  0  0  0  0
    2.9083    1.8465    0.0000 C   0  0  0  0  0  0  0  0  0  0  0  0
    2.9083    0.4116    0.0000 C   0  0  0  0  0  0  0  0  0  0  0  0
    3.3122    1.1272    0.0000 C   0  0  0  0  0  0  0  0  0  0  0  0
  2  1  1  0  0  0  0
  3  2  1  0  0  0  0
  4  1  2  0  0  0  0
  5  6  1  0  0  0  0
  6  4  1  0  0  0  0
  7  3  1  0  0  0  0
  8  5  1  0  0  0  0
  9  1  1  0  0  0  0
 10  2  2  0  0  0  0
 11  8  2  0  0  0  0
 12  7  2  0  0  0  0
 13 11  1  0  0  0  0
 14  9  2  0  0  0  0
 15  9  1  0  0  0  0
 16 13  1  0  0  0  0
 17 16  1  0  0  0  0
 18 15  2  0  0  0  0
 19 14  1  0  0  0  0
 20 18  1  0  0  0  0
  3  5  2  0  0  0  0
 20 19  2  0  0  0  0
 12 11  1  0  0  0  0
M  END
>  <IDNUMBER>
F0758-0077

>  <Chemical_Name>
7-ethoxy-3-phenyl-4H-chromen-4-one

>  <PriceCoeff>
1.00

>  <CAS>
13057-73-3

>  <MW>
266.29

>  <Description>
solid

>  <FSP3>
0.12

>  <clogP>
3.62

>  <TPSA>
35.53

>  <Acceptor>
3

>  <Donor>
0

>  <RotBonds>
3

>  <HAC>
20

>  <Collection>
General

>  <PPDS>
+

$$$$
F0758-0104
  Mrv2219 10102508112D          

 21 23  0  0  0  0            999 V2000
    0.8558    1.1473    0.0000 C   0  0  0  0  0  0  0  0  0  0  0  0
    0.4490    0.4259    0.0000 C   0  0  0  0  0  0  0  0  0  0  0  0
   -0.3799    0.4451    0.0000 C   0  0  0  0  0  0  0  0  0  0  0  0
    0.4490    1.8611    0.0000 C   0  0  0  0  0  0  0  0  0  0  0  0
   -0.7828    1.1473    0.0000 C   0  0  0  0  0  0  0  0  0  0  0  0
   -0.3799    1.8611    0.0000 O   0  0  0  0  0  0  0  0  0  0  0  0
   -1.6117    1.1627    0.0000 C   0  0  0  0  0  0  0  0  0  0  0  0
   -0.8020   -0.2763    0.0000 C   0  0  0  0  0  0  0  0  0  0  0  0
   -3.2425   -0.2302    0.0000 C   0  0  0  0  0  0  0  0  0  0  0  0
    1.6616    1.1473    0.0000 C   0  0  0  0  0  0  0  0  0  0  0  0
    0.8749   -0.2917    0.0000 O   0  0  0  0  0  0  0  0  0  0  0  0
   -2.0223    0.4451    0.0000 C   0  0  0  0  0  0  0  0  0  0  0  0
   -2.8281    0.4605    0.0000 O   0  0  0  0  0  0  0  0  0  0  0  0
   -4.0638   -0.2648    0.0000 O   0  0  0  0  0  0  0  0  0  0  0  0
   -1.6117   -0.2763    0.0000 C   0  0  0  0  0  0  0  0  0  0  0  0
   -2.8972   -0.9555    0.0000 C   0  0  0  0  0  0  0  0  0  0  0  0
    2.0760    0.4336    0.0000 C   0  0  0  0  0  0  0  0  0  0  0  0
    2.0760    1.8611    0.0000 C   0  0  0  0  0  0  0  0  0  0  0  0
    2.9010    1.8611    0.0000 C   0  0  0  0  0  0  0  0  0  0  0  0
    2.9010    0.4336    0.0000 C   0  0  0  0  0  0  0  0  0  0  0  0
    3.3040    1.1473    0.0000 C   0  0  0  0  0  0  0  0  0  0  0  0
  2  1  1  0  0  0  0
  3  2  1  0  0  0  0
  4  1  2  0  0  0  0
  5  6  1  0  0  0  0
  6  4  1  0  0  0  0
  7  5  1  0  0  0  0
  8  3  1  0  0  0  0
  9 13  1  0  0  0  0
 10  1  1  0  0  0  0
 11  2  2  0  0  0  0
 12  7  2  0  0  0  0
 13 12  1  0  0  0  0
 14  9  2  0  0  0  0
 15  8  2  0  0  0  0
 16  9  1  0  0  0  0
 17 10  2  0  0  0  0
 18 10  1  0  0  0  0
 19 18  2  0  0  0  0
 20 17  1  0  0  0  0
 21 19  1  0  0  0  0
  3  5  2  0  0  0  0
 20 21  2  0  0  0  0
 15 12  1  0  0  0  0
M  END
>  <IDNUMBER>
F0758-0104

>  <Chemical_Name>
4-oxo-3-phenyl-4H-chromen-7-yl acetate

>  <PriceCoeff>
1.00

>  <CAS>
13020-22-9

>  <MW>
280.27

>  <Description>
solid

>  <FSP3>
0.06

>  <clogP>
2.52

>  <TPSA>
52.60

>  <Acceptor>
4

>  <Donor>
0

>  <RotBonds>
3

>  <HAC>
21

>  <Collection>
General

>  <PPDS>
+

$$$$
F0758-0105
  Mrv2219 10102508112D          

 22 24  0  0  0  0            999 V2000
    0.8558    1.1473    0.0000 C   0  0  0  0  0  0  0  0  0  0  0  0
   -0.3799    0.4451    0.0000 C   0  0  0  0  0  0  0  0  0  0  0  0
    0.4490    0.4259    0.0000 C   0  0  0  0  0  0  0  0  0  0  0  0
   -0.7828    1.1473    0.0000 C   0  0  0  0  0  0  0  0  0  0  0  0
   -0.3799    1.8611    0.0000 O   0  0  0  0  0  0  0  0  0  0  0  0
    0.4490    1.8611    0.0000 C   0  0  0  0  0  0  0  0  0  0  0  0
   -1.6117    1.1627    0.0000 C   0  0  0  0  0  0  0  0  0  0  0  0
   -2.0223    0.4451    0.0000 C   0  0  0  0  0  0  0  0  0  0  0  0
   -0.8020   -0.2763    0.0000 C   0  0  0  0  0  0  0  0  0  0  0  0
   -2.8281    0.4605    0.0000 O   0  0  0  0  0  0  0  0  0  0  0  0
   -3.2425   -0.2302    0.0000 C   0  0  0  0  0  0  0  0  0  0  0  0
    1.6616    1.1473    0.0000 C   0  0  0  0  0  0  0  0  0  0  0  0
    0.8749   -0.2917    0.0000 O   0  0  0  0  0  0  0  0  0  0  0  0
   -1.6117   -0.2763    0.0000 C   0  0  0  0  0  0  0  0  0  0  0  0
   -4.0638   -0.2648    0.0000 O   0  0  0  0  0  0  0  0  0  0  0  0
   -2.0453    1.8880    0.0000 C   0  0  0  0  0  0  0  0  0  0  0  0
   -2.8972   -0.9555    0.0000 C   0  0  0  0  0  0  0  0  0  0  0  0
    2.0760    1.8611    0.0000 C   0  0  0  0  0  0  0  0  0  0  0  0
    2.0760    0.4336    0.0000 C   0  0  0  0  0  0  0  0  0  0  0  0
    2.9010    0.4336    0.0000 C   0  0  0  0  0  0  0  0  0  0  0  0
    2.9010    1.8611    0.0000 C   0  0  0  0  0  0  0  0  0  0  0  0
    3.3040    1.1473    0.0000 C   0  0  0  0  0  0  0  0  0  0  0  0
  2  3  1  0  0  0  0
  3  1  1  0  0  0  0
  4  5  1  0  0  0  0
  5  6  1  0  0  0  0
  6  1  2  0  0  0  0
  7  4  1  0  0  0  0
  8  7  2  0  0  0  0
  9  2  1  0  0  0  0
 10  8  1  0  0  0  0
 11 10  1  0  0  0  0
 12  1  1  0  0  0  0
 13  3  2  0  0  0  0
 14  9  2  0  0  0  0
 15 11  2  0  0  0  0
 16  7  1  0  0  0  0
 17 11  1  0  0  0  0
 18 12  1  0  0  0  0
 19 12  2  0  0  0  0
 20 19  1  0  0  0  0
 21 18  2  0  0  0  0
 22 20  2  0  0  0  0
  4  2  2  0  0  0  0
 21 22  1  0  0  0  0
  8 14  1  0  0  0  0
M  END
>  <IDNUMBER>
F0758-0105

>  <Chemical_Name>
8-methyl-4-oxo-3-phenyl-4H-chromen-7-yl acetate

>  <PriceCoeff>
1.00

>  <CAS>
315233-86-4

>  <MW>
294.30

>  <Description>
solid

>  <FSP3>
0.11

>  <clogP>
3.02

>  <TPSA>
52.60

>  <Acceptor>
4

>  <Donor>
0

>  <RotBonds>
3

>  <HAC>
22

>  <Collection>
General

>  <PPDS>
+

$$$$
F0758-0117
  Mrv2219 10102508112D          

 22 24  0  0  0  0            999 V2000
   -0.3718    0.5694    0.0000 C   0  0  0  0  0  0  0  0  0  0  0  0
   -0.7630   -0.1433    0.0000 C   0  0  0  0  0  0  0  0  0  0  0  0
   -0.7901    1.2859    0.0000 C   0  0  0  0  0  0  0  0  0  0  0  0
   -1.5996   -0.1433    0.0000 C   0  0  0  0  0  0  0  0  0  0  0  0
   -2.0179    0.5577    0.0000 C   0  0  0  0  0  0  0  0  0  0  0  0
   -1.6268    1.2859    0.0000 O   0  0  0  0  0  0  0  0  0  0  0  0
   -2.8662    0.5422    0.0000 C   0  0  0  0  0  0  0  0  0  0  0  0
   -1.9986   -0.8831    0.0000 C   0  0  0  0  0  0  0  0  0  0  0  0
   -0.3214   -0.8521    0.0000 O   0  0  0  0  0  0  0  0  0  0  0  0
    0.4455    0.5694    0.0000 C   0  0  0  0  0  0  0  0  0  0  0  0
   -3.2729   -0.1743    0.0000 C   0  0  0  0  0  0  0  0  0  0  0  0
   -4.1095   -0.1743    0.0000 O   0  0  0  0  0  0  0  0  0  0  0  0
   -2.8352   -0.8831    0.0000 C   0  0  0  0  0  0  0  0  0  0  0  0
   -0.3835    1.9947    0.0000 C   0  0  0  0  0  0  0  0  0  0  0  0
   -4.5201   -0.8831    0.0000 C   0  0  0  0  0  0  0  0  0  0  0  0
    0.8638    1.2859    0.0000 C   0  0  0  0  0  0  0  0  0  0  0  0
    0.8638   -0.1433    0.0000 C   0  0  0  0  0  0  0  0  0  0  0  0
   -4.1211   -1.5958    0.0000 C   0  0  0  0  0  0  0  0  0  0  0  0
   -5.3295   -0.8715    0.0000 C   0  0  0  0  0  0  0  0  0  0  0  0
    1.6888    1.2859    0.0000 C   0  0  0  0  0  0  0  0  0  0  0  0
    1.6888   -0.1433    0.0000 C   0  0  0  0  0  0  0  0  0  0  0  0
    2.0955    0.5694    0.0000 C   0  0  0  0  0  0  0  0  0  0  0  0
  2  1  1  0  0  0  0
  3  1  2  0  0  0  0
  4  2  1  0  0  0  0
  5  6  1  0  0  0  0
  6  3  1  0  0  0  0
  7  5  1  0  0  0  0
  8  4  1  0  0  0  0
  9  2  2  0  0  0  0
 10  1  1  0  0  0  0
 11  7  2  0  0  0  0
 12 11  1  0  0  0  0
 13  8  2  0  0  0  0
 14  3  1  0  0  0  0
 15 12  1  0  0  0  0
 16 10  1  0  0  0  0
 17 10  2  0  0  0  0
 18 15  1  0  0  0  0
 19 15  1  0  0  0  0
 20 16  2  0  0  0  0
 21 17  1  0  0  0  0
 22 21  2  0  0  0  0
  4  5  2  0  0  0  0
 22 20  1  0  0  0  0
 13 11  1  0  0  0  0
M  END
>  <IDNUMBER>
F0758-0117

>  <Chemical_Name>
2-methyl-3-phenyl-7-(propan-2-yloxy)-4H-chromen-4-one

>  <PriceCoeff>
1.00

>  <CAS>
35212-25-0

>  <MW>
294.34

>  <Description>
solid

>  <FSP3>
0.21

>  <clogP>
4.12

>  <TPSA>
35.53

>  <Acceptor>
3

>  <Donor>
0

>  <RotBonds>
3

>  <HAC>
22

>  <Collection>
General

$$$$
F0761-0032
  Mrv2219 10102508112D          

 26 28  0  0  0  0            999 V2000
   -0.8885   -4.0964    0.0000 N   0  3  0  0  0  0  0  0  0  0  0  0
   -0.3754   -2.5154    0.0000 C   0  0  0  0  0  0  0  0  0  0  0  0
    0.9428   -2.7156    0.0000 C   0  0  0  0  0  0  0  0  0  0  0  0
   -1.4392   -3.4790    0.0000 C   0  0  0  0  0  0  0  0  0  0  0  0
   -1.1847   -2.6906    0.0000 C   0  0  0  0  0  0  0  0  0  0  0  0
    0.2169   -3.0953    0.0000 O   0  0  0  0  0  0  0  0  0  0  0  0
    1.7187   -2.9951    0.0000 C   0  0  0  0  0  0  0  0  0  0  0  0
    2.3569   -2.4653    0.0000 N   0  0  0  0  0  0  0  0  0  0  0  0
    3.6167   -1.4058    0.0000 N   0  0  0  0  0  0  0  0  0  0  0  0
   -0.0083   -1.7812    0.0000 C   0  0  0  0  0  0  0  0  0  0  0  0
    0.8051   -1.9022    0.0000 C   0  0  0  0  0  0  0  0  0  0  0  0
    4.2549   -0.8760    0.0000 C   0  0  0  0  0  0  0  0  0  0  0  0
   -2.2484   -3.6542    0.0000 C   0  0  0  0  0  0  0  0  0  0  0  0
   -1.7395   -2.0816    0.0000 C   0  0  0  0  0  0  0  0  0  0  0  0
   -1.1471   -4.8806    0.0000 O   0  5  0  0  0  0  0  0  0  0  0  0
    1.8563   -3.8086    0.0000 S   0  0  0  0  0  0  0  0  0  0  0  0
   -0.0834   -3.9212    0.0000 O   0  0  0  0  0  0  0  0  0  0  0  0
    3.1286   -2.7449    0.0000 C   0  0  0  0  0  0  0  0  0  0  0  0
    2.2067   -1.6561    0.0000 C   0  0  0  0  0  0  0  0  0  0  0  0
    3.7585   -2.2192    0.0000 C   0  0  0  0  0  0  0  0  0  0  0  0
    2.8450   -1.1263    0.0000 C   0  0  0  0  0  0  0  0  0  0  0  0
    5.0225   -1.1555    0.0000 O   0  0  0  0  0  0  0  0  0  0  0  0
   -2.7990   -3.0410    0.0000 C   0  0  0  0  0  0  0  0  0  0  0  0
   -2.5404   -2.2568    0.0000 C   0  0  0  0  0  0  0  0  0  0  0  0
   -3.6167   -3.2162    0.0000 Cl  0  0  0  0  0  0  0  0  0  0  0  0
    4.1089   -0.0626    0.0000 C   0  0  0  0  0  0  0  0  0  0  0  0
  2  5  1  0  0  0  0
  3  6  1  0  0  0  0
  4  1  1  0  0  0  0
  5  4  2  0  0  0  0
  6  2  1  0  0  0  0
  7  3  1  0  0  0  0
  8  7  1  0  0  0  0
  9 21  1  0  0  0  0
 10  2  2  0  0  0  0
 11 10  1  0  0  0  0
 12  9  1  0  0  0  0
 13  4  1  0  0  0  0
 14  5  1  0  0  0  0
 15  1  1  0  0  0  0
 16  7  2  0  0  0  0
 17  1  2  0  0  0  0
 18  8  1  0  0  0  0
 19  8  1  0  0  0  0
 20 18  1  0  0  0  0
 21 19  1  0  0  0  0
 22 12  2  0  0  0  0
 23 13  2  0  0  0  0
 24 23  1  0  0  0  0
 25 23  1  0  0  0  0
 26 12  1  0  0  0  0
 24 14  2  0  0  0  0
 11  3  2  0  0  0  0
  9 20  1  0  0  0  0
M  CHG  2   1   1  15  -1
M  END
>  <IDNUMBER>
F0761-0032

>  <Chemical_Name>
1-{4-[5-(4-chloro-2-nitrophenyl)furan-2-carbothioyl]piperazin-1-yl}ethan-1-one

>  <PriceCoeff>
1.00

>  <CAS>
394238-26-7

>  <MW>
393.84

>  <Description>
solid

>  <FSP3>
0.29

>  <clogP>
2.81

>  <TPSA>
111.92

>  <Acceptor>
5

>  <Donor>
1

>  <RotBonds>
5

>  <HAC>
26

>  <Collection>
General

>  <PPDS>
+

$$$$
F0762-0316
  Mrv2219 10102508112D          

 23 24  0  0  0  0            999 V2000
    3.4988   -1.4259    0.0000 C   0  0  0  0  0  0  0  0  0  0  0  0
    3.4988   -0.5976    0.0000 N   0  3  0  0  0  0  0  0  0  0  0  0
    1.3641   -0.1649    0.0000 C   0  0  0  0  0  0  0  0  0  0  0  0
    2.0688   -0.5852    0.0000 C   0  0  0  0  0  0  0  0  0  0  0  0
    2.7859   -1.8339    0.0000 C   0  0  0  0  0  0  0  0  0  0  0  0
    2.0688   -1.4259    0.0000 N   0  0  0  0  0  0  0  0  0  0  0  0
    0.6429   -0.5605    0.0000 C   0  0  0  0  0  0  0  0  0  0  0  0
    0.6305   -1.3970    0.0000 C   0  0  0  0  0  0  0  0  0  0  0  0
    1.3888    0.6676    0.0000 C   0  0  0  0  0  0  0  0  0  0  0  0
    1.2405   -1.9575    0.0000 O   0  0  0  0  0  0  0  0  0  0  0  0
    4.2158   -1.8339    0.0000 C   0  0  0  0  0  0  0  0  0  0  0  0
    1.4012    1.4918    0.0000 N   0  0  0  0  0  0  0  0  0  0  0  0
   -0.0824   -1.7968    0.0000 C   0  0  0  0  0  0  0  0  0  0  0  0
    0.8943   -2.6993    0.0000 C   0  0  0  0  0  0  0  0  0  0  0  0
    4.2076   -0.1854    0.0000 O   0  5  0  0  0  0  0  0  0  0  0  0
    0.0865   -2.6128    0.0000 C   0  0  0  0  0  0  0  0  0  0  0  0
    3.1155    0.0618    0.0000 O   0  0  0  0  0  0  0  0  0  0  0  0
    2.6375   -0.2761    0.0000 O   0  0  0  0  0  0  0  0  0  0  0  0
    2.7859   -2.6622    0.0000 C   0  0  0  0  0  0  0  0  0  0  0  0
    4.2158   -2.6622    0.0000 C   0  0  0  0  0  0  0  0  0  0  0  0
    3.4988   -3.0702    0.0000 C   0  0  0  0  0  0  0  0  0  0  0  0
    4.9370   -3.0784    0.0000 Cl  0  0  0  0  0  0  0  0  0  0  0  0
    1.2899   -3.4287    0.0000 C   0  0  0  0  0  0  0  0  0  0  0  0
  2  1  1  0  0  0  0
  3  4  1  0  0  0  0
  4  6  1  0  0  0  0
  5  1  1  0  0  0  0
  6  5  1  0  0  0  0
  7  3  2  0  0  0  0
  8  7  1  0  0  0  0
  9  3  1  0  0  0  0
 10  8  1  0  0  0  0
 11  1  2  0  0  0  0
 12  9  3  0  0  0  0
 13  8  2  0  0  0  0
 14 10  1  0  0  0  0
 15  2  1  0  0  0  0
 16 13  1  0  0  0  0
 17  2  2  0  0  0  0
 18  4  2  0  0  0  0
 19  5  2  0  0  0  0
 20 11  1  0  0  0  0
 21 20  2  0  0  0  0
 22 20  1  0  0  0  0
 23 14  1  0  0  0  0
 21 19  1  0  0  0  0
 14 16  2  0  0  0  0
M  CHG  2   2   1  15  -1
M  END
>  <IDNUMBER>
F0762-0316

>  <Chemical_Name>
(2Z)-N-(4-chloro-2-nitrophenyl)-2-cyano-3-(5-methylfuran-2-yl)prop-2-enamide

>  <PriceCoeff>
1.00

>  <CAS>
327075-44-5

>  <MW>
331.71

>  <Description>
solid

>  <FSP3>
0.07

>  <clogP>
3.30

>  <TPSA>
109.17

>  <Acceptor>
5

>  <Donor>
1

>  <RotBonds>
4

>  <HAC>
23

>  <Collection>
General

>  <PPDS>
+

$$$$
F0762-0364
  Mrv2219 10102508112D          

 24 25  0  0  0  0            999 V2000
   -2.8966    2.2228    0.0000 C   0  0  0  0  0  0  0  0  0  0  0  0
    0.6784   -0.6784    0.0000 N   0  3  0  0  0  0  0  0  0  0  0  0
   -2.1816    1.8104    0.0000 C   0  0  0  0  0  0  0  0  0  0  0  0
   -2.1816    0.9854    0.0000 N   0  0  0  0  0  0  0  0  0  0  0  0
   -0.0366   -0.2612    0.0000 C   0  0  0  0  0  0  0  0  0  0  0  0
   -3.6116    1.8104    0.0000 C   0  0  0  0  0  0  0  0  0  0  0  0
   -2.8966    3.0478    0.0000 C   0  0  0  0  0  0  0  0  0  0  0  0
   -0.0366    0.5637    0.0000 C   0  0  0  0  0  0  0  0  0  0  0  0
   -1.4666    0.5637    0.0000 C   0  0  0  0  0  0  0  0  0  0  0  0
   -2.8966    3.8728    0.0000 N   0  0  0  0  0  0  0  0  0  0  0  0
   -0.7516    0.9762    0.0000 C   0  0  0  0  0  0  0  0  0  0  0  0
    0.6784   -1.5125    0.0000 O   0  5  0  0  0  0  0  0  0  0  0  0
    1.3933   -0.2659    0.0000 O   0  0  0  0  0  0  0  0  0  0  0  0
   -1.4712    2.2228    0.0000 O   0  0  0  0  0  0  0  0  0  0  0  0
   -0.7516   -0.6737    0.0000 C   0  0  0  0  0  0  0  0  0  0  0  0
   -1.4666   -0.2612    0.0000 C   0  0  0  0  0  0  0  0  0  0  0  0
   -3.6116    0.9854    0.0000 C   0  0  0  0  0  0  0  0  0  0  0  0
   -0.7516    1.8012    0.0000 Cl  0  0  0  0  0  0  0  0  0  0  0  0
   -3.6116   -0.6646    0.0000 C   0  0  0  0  0  0  0  0  0  0  0  0
   -2.8966    0.5729    0.0000 C   0  0  0  0  0  0  0  0  0  0  0  0
   -4.3174    0.5729    0.0000 C   0  0  0  0  0  0  0  0  0  0  0  0
   -4.3174   -0.2521    0.0000 C   0  0  0  0  0  0  0  0  0  0  0  0
   -2.8966   -0.2521    0.0000 C   0  0  0  0  0  0  0  0  0  0  0  0
   -3.6162   -1.4896    0.0000 C   0  0  0  0  0  0  0  0  0  0  0  0
  2  5  1  0  0  0  0
  3  1  1  0  0  0  0
  4  3  1  0  0  0  0
  5 15  2  0  0  0  0
  6  1  2  0  0  0  0
  7  1  1  0  0  0  0
  8 11  2  0  0  0  0
  9  4  1  0  0  0  0
 10  7  3  0  0  0  0
 11  9  1  0  0  0  0
 12  2  1  0  0  0  0
 13  2  2  0  0  0  0
 14  3  2  0  0  0  0
 15 16  1  0  0  0  0
 16  9  2  0  0  0  0
 17  6  1  0  0  0  0
 18 11  1  0  0  0  0
 19 22  2  0  0  0  0
 20 17  1  0  0  0  0
 21 17  2  0  0  0  0
 22 21  1  0  0  0  0
 23 20  2  0  0  0  0
 24 19  1  0  0  0  0
 19 23  1  0  0  0  0
  8  5  1  0  0  0  0
M  CHG  2   2   1  12  -1
M  END
>  <IDNUMBER>
F0762-0364

>  <Chemical_Name>
(2Z)-N-(2-chloro-4-nitrophenyl)-2-cyano-3-(4-methylphenyl)prop-2-enamide

>  <PriceCoeff>
1.00

>  <CAS>
444101-75-1

>  <MW>
341.75

>  <Description>
solid

>  <FSP3>
0.06

>  <clogP>
3.73

>  <TPSA>
96.03

>  <Acceptor>
4

>  <Donor>
1

>  <RotBonds>
4

>  <HAC>
24

>  <Collection>
General

>  <PPDS>
+

$$$$
F0762-0368
  Mrv2219 10102508112D          

 24 25  0  0  0  0            999 V2000
   -2.8950    2.2216    0.0000 C   0  0  0  0  0  0  0  0  0  0  0  0
    0.6780   -0.6780    0.0000 N   0  3  0  0  0  0  0  0  0  0  0  0
   -2.1804    1.8094    0.0000 C   0  0  0  0  0  0  0  0  0  0  0  0
   -2.1804    0.9848    0.0000 N   0  0  0  0  0  0  0  0  0  0  0  0
   -0.0366   -0.2611    0.0000 C   0  0  0  0  0  0  0  0  0  0  0  0
   -3.6096    1.8094    0.0000 C   0  0  0  0  0  0  0  0  0  0  0  0
   -2.8950    3.0462    0.0000 C   0  0  0  0  0  0  0  0  0  0  0  0
   -0.0366    0.5634    0.0000 C   0  0  0  0  0  0  0  0  0  0  0  0
   -1.4658    0.5634    0.0000 C   0  0  0  0  0  0  0  0  0  0  0  0
   -2.8950    3.8707    0.0000 N   0  0  0  0  0  0  0  0  0  0  0  0
   -0.7512    0.9757    0.0000 C   0  0  0  0  0  0  0  0  0  0  0  0
    0.6780   -1.5117    0.0000 O   0  5  0  0  0  0  0  0  0  0  0  0
    1.3926   -0.2657    0.0000 O   0  0  0  0  0  0  0  0  0  0  0  0
   -1.4704    2.2216    0.0000 O   0  0  0  0  0  0  0  0  0  0  0  0
   -0.7512   -0.6734    0.0000 C   0  0  0  0  0  0  0  0  0  0  0  0
   -1.4658   -0.2611    0.0000 C   0  0  0  0  0  0  0  0  0  0  0  0
   -3.6096    0.9848    0.0000 C   0  0  0  0  0  0  0  0  0  0  0  0
   -0.7512    1.8003    0.0000 Cl  0  0  0  0  0  0  0  0  0  0  0  0
   -3.6096   -0.6643    0.0000 C   0  0  0  0  0  0  0  0  0  0  0  0
   -3.6096   -1.4888    0.0000 Cl  0  0  0  0  0  0  0  0  0  0  0  0
   -4.3242    0.5726    0.0000 C   0  0  0  0  0  0  0  0  0  0  0  0
   -2.8950    0.5726    0.0000 C   0  0  0  0  0  0  0  0  0  0  0  0
   -4.3242   -0.2520    0.0000 C   0  0  0  0  0  0  0  0  0  0  0  0
   -2.8950   -0.2520    0.0000 C   0  0  0  0  0  0  0  0  0  0  0  0
  2  5  1  0  0  0  0
  3  1  1  0  0  0  0
  4  3  1  0  0  0  0
  5 15  2  0  0  0  0
  6  1  2  0  0  0  0
  7  1  1  0  0  0  0
  8 11  2  0  0  0  0
  9  4  1  0  0  0  0
 10  7  3  0  0  0  0
 11  9  1  0  0  0  0
 12  2  1  0  0  0  0
 13  2  2  0  0  0  0
 14  3  2  0  0  0  0
 15 16  1  0  0  0  0
 16  9  2  0  0  0  0
 17  6  1  0  0  0  0
 18 11  1  0  0  0  0
 19 24  1  0  0  0  0
 20 19  1  0  0  0  0
 21 17  2  0  0  0  0
 22 17  1  0  0  0  0
 23 21  1  0  0  0  0
 24 22  2  0  0  0  0
 19 23  2  0  0  0  0
  8  5  1  0  0  0  0
M  CHG  2   2   1  12  -1
M  END
>  <IDNUMBER>
F0762-0368

>  <Chemical_Name>
(2Z)-N-(2-chloro-4-nitrophenyl)-3-(4-chlorophenyl)-2-cyanoprop-2-enamide

>  <PriceCoeff>
1.00

>  <CAS>
332918-34-0

>  <MW>
362.17

>  <Description>
solid

>  <FSP3>
0.00

>  <clogP>
3.95

>  <TPSA>
96.03

>  <Acceptor>
4

>  <Donor>
1

>  <RotBonds>
4

>  <HAC>
24

>  <Collection>
General

>  <PPDS>
+

$$$$
F0762-0395
  Mrv2219 10102508112D          

 22 23  0  0  0  0            999 V2000
    1.2797  -11.6046    0.0000 C   0  0  0  0  0  0  0  0  0  0  0  0
    5.5580   -9.9563    0.0000 N   0  3  0  0  0  0  0  0  0  0  0  0
    2.0873  -11.4307    0.0000 C   0  0  0  0  0  0  0  0  0  0  0  0
    2.3358  -10.6397    0.0000 N   0  0  0  0  0  0  0  0  0  0  0  0
    1.0230  -12.3791    0.0000 C   0  0  0  0  0  0  0  0  0  0  0  0
    4.7504  -10.1261    0.0000 C   0  0  0  0  0  0  0  0  0  0  0  0
    0.7248  -10.9876    0.0000 C   0  0  0  0  0  0  0  0  0  0  0  0
    4.2037   -9.5215    0.0000 C   0  0  0  0  0  0  0  0  0  0  0  0
    3.1476  -10.4657    0.0000 C   0  0  0  0  0  0  0  0  0  0  0  0
    0.1657  -10.3788    0.0000 N   0  0  0  0  0  0  0  0  0  0  0  0
    3.4044   -9.6954    0.0000 C   0  0  0  0  0  0  0  0  0  0  0  0
    0.2154  -12.5613    0.0000 C   0  0  0  0  0  0  0  0  0  0  0  0
    6.1129  -10.5651    0.0000 O   0  5  0  0  0  0  0  0  0  0  0  0
    5.8065   -9.1736    0.0000 O   0  0  0  0  0  0  0  0  0  0  0  0
   -0.0331  -13.3441    0.0000 O   0  0  0  0  0  0  0  0  0  0  0  0
    2.6340  -12.0395    0.0000 O   0  0  0  0  0  0  0  0  0  0  0  0
   -0.4555  -12.0685    0.0000 C   0  0  0  0  0  0  0  0  0  0  0  0
   -0.8656  -13.3441    0.0000 C   0  0  0  0  0  0  0  0  0  0  0  0
    4.5019  -10.9130    0.0000 C   0  0  0  0  0  0  0  0  0  0  0  0
    3.7025  -11.0870    0.0000 C   0  0  0  0  0  0  0  0  0  0  0  0
   -1.1140  -12.5655    0.0000 C   0  0  0  0  0  0  0  0  0  0  0  0
    2.8370   -9.0742    0.0000 Cl  0  0  0  0  0  0  0  0  0  0  0  0
  2  6  1  0  0  0  0
  3  1  1  0  0  0  0
  4  3  1  0  0  0  0
  5  1  2  0  0  0  0
  6 19  2  0  0  0  0
  7  1  1  0  0  0  0
  8 11  2  0  0  0  0
  9  4  1  0  0  0  0
 10  7  3  0  0  0  0
 11  9  1  0  0  0  0
 12  5  1  0  0  0  0
 13  2  1  0  0  0  0
 14  2  2  0  0  0  0
 15 12  1  0  0  0  0
 16  3  2  0  0  0  0
 17 12  2  0  0  0  0
 18 15  1  0  0  0  0
 19 20  1  0  0  0  0
 20  9  2  0  0  0  0
 21 17  1  0  0  0  0
 22 11  1  0  0  0  0
 21 18  2  0  0  0  0
  6  8  1  0  0  0  0
M  CHG  2   2   1  13  -1
M  END
>  <IDNUMBER>
F0762-0395

>  <Chemical_Name>
(2E)-N-(2-chloro-4-nitrophenyl)-2-cyano-3-(furan-2-yl)prop-2-enamide

>  <PriceCoeff>
1.00

>  <CAS>
385380-52-9

>  <MW>
317.68

>  <Description>
solid

>  <FSP3>
0.00

>  <clogP>
2.41

>  <TPSA>
109.17

>  <Acceptor>
5

>  <Donor>
1

>  <RotBonds>
4

>  <HAC>
22

>  <Collection>
General

>  <PPDS>
+

$$$$
F0774-0090
  Mrv2219 10102508112D          

 21 23  0  0  0  0            999 V2000
   -2.2534   -0.4361    0.0000 C   0  0  0  0  0  0  0  0  0  0  0  0
   -2.2534    0.4034    0.0000 N   0  0  0  0  0  0  0  0  0  0  0  0
   -1.5374   -0.8541    0.0000 C   0  0  0  0  0  0  0  0  0  0  0  0
   -2.9658    0.8032    0.0000 C   0  0  0  0  0  0  0  0  0  0  0  0
   -1.5374   -1.6719    0.0000 C   0  0  0  0  0  0  0  0  0  0  0  0
   -0.8250   -0.4361    0.0000 C   0  0  0  0  0  0  0  0  0  0  0  0
   -0.8250   -2.0935    0.0000 C   0  0  0  0  0  0  0  0  0  0  0  0
   -2.9658   -0.8541    0.0000 O   0  0  0  0  0  0  0  0  0  0  0  0
   -1.5374    0.8032    0.0000 C   0  0  0  0  0  0  0  0  0  0  0  0
   -2.9658    1.6428    0.0000 C   0  0  0  0  0  0  0  0  0  0  0  0
   -2.2534    2.0462    0.0000 C   0  0  0  0  0  0  0  0  0  0  0  0
   -1.5374    1.6428    0.0000 C   0  0  0  0  0  0  0  0  0  0  0  0
   -0.1054   -1.6719    0.0000 C   0  0  0  0  0  0  0  0  0  0  0  0
   -2.2534   -2.0935    0.0000 Cl  0  0  0  0  0  0  0  0  0  0  0  0
   -0.1054   -0.8541    0.0000 C   0  0  0  0  0  0  0  0  0  0  0  0
    0.6252   -2.0935    0.0000 Cl  0  0  0  0  0  0  0  0  0  0  0  0
   -3.6817    0.4034    0.0000 C   0  0  0  0  0  0  0  0  0  0  0  0
   -3.6817    2.0462    0.0000 C   0  0  0  0  0  0  0  0  0  0  0  0
   -0.8250    0.3889    0.0000 C   0  0  0  0  0  0  0  0  0  0  0  0
   -4.4014    0.8032    0.0000 C   0  0  0  0  0  0  0  0  0  0  0  0
   -4.4014    1.6428    0.0000 C   0  0  0  0  0  0  0  0  0  0  0  0
  2  1  1  0  0  0  0
  3  1  1  0  0  0  0
  4  2  1  0  0  0  0
  5  3  2  0  0  0  0
  6  3  1  0  0  0  0
  7  5  1  0  0  0  0
  8  1  2  0  0  0  0
  9  2  1  0  0  0  0
 10  4  2  0  0  0  0
 11 12  1  0  0  0  0
 12  9  1  0  0  0  0
 13 15  1  0  0  0  0
 14  5  1  0  0  0  0
 15  6  2  0  0  0  0
 16 13  1  0  0  0  0
 17  4  1  0  0  0  0
 18 10  1  0  0  0  0
 19  9  1  0  0  0  0
 20 17  2  0  0  0  0
 21 20  1  0  0  0  0
 13  7  2  0  0  0  0
 11 10  1  0  0  0  0
 21 18  2  0  0  0  0
M  END
>  <IDNUMBER>
F0774-0090

>  <Chemical_Name>
1-(2,4-dichlorobenzoyl)-2-methyl-1,2,3,4-tetrahydroquinoline

>  <PriceCoeff>
1.00

>  <CAS>
325739-39-7

>  <MW>
320.21

>  <Description>
solid

>  <FSP3>
0.24

>  <clogP>
5.09

>  <TPSA>
20.31

>  <Acceptor>
1

>  <Donor>
0

>  <RotBonds>
2

>  <HAC>
21

>  <Collection>
General

>  <PPDS>
+

$$$$
F0777-0033
  Mrv2219 10102508112D          

 19 20  0  0  0  0            999 V2000
   -1.1479   -0.7476    0.0000 N   0  0  0  0  0  0  0  0  0  0  0  0
   -1.9132   -1.9558    0.0000 C   0  0  0  0  0  0  0  0  0  0  0  0
   -1.8990   -1.0523    0.0000 C   0  0  0  0  0  0  0  0  0  0  0  0
   -2.6325   -2.3384    0.0000 O   0  0  0  0  0  0  0  0  0  0  0  0
   -1.0487    0.0708    0.0000 C   0  0  0  0  0  0  0  0  0  0  0  0
   -0.4854   -1.2366    0.0000 C   0  0  0  0  0  0  0  0  0  0  0  0
   -1.1656   -2.4695    0.0000 O   0  0  0  0  0  0  0  0  0  0  0  0
    0.2587   -0.8964    0.0000 C   0  0  0  0  0  0  0  0  0  0  0  0
   -1.7007    0.5633    0.0000 C   0  0  0  0  0  0  0  0  0  0  0  0
    0.9247   -1.3747    0.0000 C   0  0  0  0  0  0  0  0  0  0  0  0
   -2.4624    0.2409    0.0000 C   0  0  0  0  0  0  0  0  0  0  0  0
    0.3437   -0.0992    0.0000 C   0  0  0  0  0  0  0  0  0  0  0  0
   -1.6121    1.3888    0.0000 C   0  0  0  0  0  0  0  0  0  0  0  0
    1.1090    0.2409    0.0000 C   0  0  0  0  0  0  0  0  0  0  0  0
    1.6723   -1.0523    0.0000 C   0  0  0  0  0  0  0  0  0  0  0  0
   -3.1320    0.7228    0.0000 C   0  0  0  0  0  0  0  0  0  0  0  0
   -2.2817    1.8884    0.0000 C   0  0  0  0  0  0  0  0  0  0  0  0
    1.7751   -0.2374    0.0000 C   0  0  0  0  0  0  0  0  0  0  0  0
   -3.0470    1.5483    0.0000 C   0  0  0  0  0  0  0  0  0  0  0  0
  2  3  1  0  0  0  0
  3  1  1  0  0  0  0
  4  2  2  0  0  0  0
  5  1  1  0  0  0  0
  6  1  1  0  0  0  0
  7  2  1  0  0  0  0
  8  6  1  0  0  0  0
  9  5  1  0  0  0  0
 10  8  2  0  0  0  0
 11  9  1  0  0  0  0
 12  8  1  0  0  0  0
 13  9  2  0  0  0  0
 14 12  2  0  0  0  0
 15 10  1  0  0  0  0
 16 11  2  0  0  0  0
 17 13  1  0  0  0  0
 18 14  1  0  0  0  0
 19 17  2  0  0  0  0
 18 15  2  0  0  0  0
 16 19  1  0  0  0  0
M  END
>  <IDNUMBER>
F0777-0033

>  <Chemical_Name>
2-(dibenzylamino)acetic acid

>  <PriceCoeff>
1.00

>  <CAS>
17360-47-3

>  <MW>
255.32

>  <Description>
solid

>  <FSP3>
0.19

>  <clogP>
1.42

>  <TPSA>
40.54

>  <Acceptor>
2

>  <Donor>
1

>  <RotBonds>
6

>  <HAC>
19

>  <Collection>
General

>  <PPDS>
+

$$$$
F0777-0554
  Mrv2219 10102508112D          

 13 13  0  0  0  0            999 V2000
    0.5125    0.4853    0.0000 C   0  0  0  0  0  0  0  0  0  0  0  0
   -0.2057   -0.7454    0.0000 N   0  0  0  0  0  0  0  0  0  0  0  0
    1.2385    0.9162    0.0000 S   0  0  0  0  0  0  0  0  0  0  0  0
    0.5125   -0.3261    0.0000 N   0  0  0  0  0  0  0  0  0  0  0  0
   -0.1864    0.8969    0.0000 N   0  0  0  0  0  0  0  0  0  0  0  0
   -0.2057   -1.5880    0.0000 C   0  0  0  0  0  0  0  0  0  0  0  0
   -0.9318   -2.8420    0.0000 C   0  0  0  0  0  0  0  0  0  0  0  0
   -0.9318   -2.0189    0.0000 C   0  0  0  0  0  0  0  0  0  0  0  0
   -1.6617   -3.2613    0.0000 C   0  0  0  0  0  0  0  0  0  0  0  0
   -1.6617   -4.0999    0.0000 Br  0  0  0  0  0  0  0  0  0  0  0  0
   -2.3722   -2.0189    0.0000 C   0  0  0  0  0  0  0  0  0  0  0  0
   -2.3722   -2.8420    0.0000 C   0  0  0  0  0  0  0  0  0  0  0  0
   -1.6423   -1.6113    0.0000 C   0  0  0  0  0  0  0  0  0  0  0  0
  2  4  1  0  0  0  0
  3  1  2  0  0  0  0
  4  1  1  0  0  0  0
  5  1  1  0  0  0  0
  6  2  2  0  0  0  0
  7  8  2  0  0  0  0
  8  6  1  0  0  0  0
  9  7  1  0  0  0  0
 10  9  1  0  0  0  0
 11 13  2  0  0  0  0
 12 11  1  0  0  0  0
 13  8  1  0  0  0  0
 12  9  2  0  0  0  0
M  END
>  <IDNUMBER>
F0777-0554

>  <Chemical_Name>
[(E)-[(3-bromophenyl)methylidene]amino]thiourea

>  <PriceCoeff>
1.00

>  <CAS>
1346145-39-8

>  <MW>
258.14

>  <Description>
solid

>  <FSP3>
0.00

>  <clogP>
2.95

>  <TPSA>
82.50

>  <Acceptor>
2

>  <Donor>
3

>  <RotBonds>
2

>  <HAC>
13

>  <Collection>
General

>  <PPDS>
+

$$$$
F0777-0561
  Mrv2219 10102508112D          

 13 13  0  0  0  0            999 V2000
   -1.0524    0.3581    0.0000 C   0  0  0  0  0  0  0  0  0  0  0  0
   -1.7632   -0.8651    0.0000 N   0  0  0  0  0  0  0  0  0  0  0  0
   -2.4740   -2.1379    0.0000 C   0  0  0  0  0  0  0  0  0  0  0  0
   -0.3306    0.7548    0.0000 S   0  0  0  0  0  0  0  0  0  0  0  0
   -1.0524   -0.4684    0.0000 N   0  0  0  0  0  0  0  0  0  0  0  0
   -2.4740   -2.9754    0.0000 C   0  0  0  0  0  0  0  0  0  0  0  0
   -1.7632   -1.7191    0.0000 C   0  0  0  0  0  0  0  0  0  0  0  0
   -1.7632    0.7548    0.0000 N   0  0  0  0  0  0  0  0  0  0  0  0
   -1.7632   -3.3721    0.0000 O   0  0  0  0  0  0  0  0  0  0  0  0
   -3.1903   -1.7191    0.0000 C   0  0  0  0  0  0  0  0  0  0  0  0
   -3.1903   -3.3777    0.0000 C   0  0  0  0  0  0  0  0  0  0  0  0
   -3.9011   -2.1379    0.0000 C   0  0  0  0  0  0  0  0  0  0  0  0
   -3.9011   -2.9754    0.0000 C   0  0  0  0  0  0  0  0  0  0  0  0
  2  5  1  0  0  0  0
  3  7  1  0  0  0  0
  4  1  2  0  0  0  0
  5  1  1  0  0  0  0
  6  3  2  0  0  0  0
  7  2  2  0  0  0  0
  8  1  1  0  0  0  0
  9  6  1  0  0  0  0
 10  3  1  0  0  0  0
 11  6  1  0  0  0  0
 12 10  2  0  0  0  0
 13 12  1  0  0  0  0
 13 11  2  0  0  0  0
M  END
>  <IDNUMBER>
F0777-0561

>  <Chemical_Name>
[(E)-[(2-hydroxyphenyl)methylidene]amino]thiourea

>  <PriceCoeff>
1.00

>  <CAS>
17149-00-7

>  <MW>
195.24

>  <Description>
solid

>  <FSP3>
0.00

>  <clogP>
1.20

>  <TPSA>
102.73

>  <Acceptor>
3

>  <Donor>
4

>  <RotBonds>
2

>  <HAC>
13

>  <Collection>
General

>  <PPDS>
+

$$$$
F0777-1948
  Mrv2219 10102508112D          

 15 15  0  0  0  0            999 V2000
    1.2167   -0.1292    0.0000 C   0  0  0  0  0  0  0  0  0  0  0  0
   -0.2125   -0.1292    0.0000 N   0  0  0  0  0  0  0  0  0  0  0  0
    1.2167   -0.9542    0.0000 S   0  0  0  0  0  0  0  0  0  0  0  0
    0.5042    0.2833    0.0000 N   0  0  0  0  0  0  0  0  0  0  0  0
    1.9292    0.2833    0.0000 N   0  0  0  0  0  0  0  0  0  0  0  0
   -0.9250    0.2875    0.0000 C   0  0  0  0  0  0  0  0  0  0  0  0
   -1.6458   -0.1250    0.0000 C   0  0  0  0  0  0  0  0  0  0  0  0
   -3.0625   -0.9500    0.0000 C   0  0  0  0  0  0  0  0  0  0  0  0
   -1.6458   -0.9500    0.0000 C   0  0  0  0  0  0  0  0  0  0  0  0
   -2.3583    0.2958    0.0000 C   0  0  0  0  0  0  0  0  0  0  0  0
   -3.0625   -0.1250    0.0000 C   0  0  0  0  0  0  0  0  0  0  0  0
   -2.3583   -1.3542    0.0000 C   0  0  0  0  0  0  0  0  0  0  0  0
   -3.7833   -1.3625    0.0000 O   0  0  0  0  0  0  0  0  0  0  0  0
   -4.4958   -0.9500    0.0000 C   0  0  0  0  0  0  0  0  0  0  0  0
   -5.2083   -1.3625    0.0000 C   0  0  0  0  0  0  0  0  0  0  0  0
  2  4  1  0  0  0  0
  3  1  2  0  0  0  0
  4  1  1  0  0  0  0
  5  1  1  0  0  0  0
  6  2  2  0  0  0  0
  7  6  1  0  0  0  0
  8 11  2  0  0  0  0
  9  7  1  0  0  0  0
 10  7  2  0  0  0  0
 11 10  1  0  0  0  0
 12  9  2  0  0  0  0
 13  8  1  0  0  0  0
 14 13  1  0  0  0  0
 15 14  1  0  0  0  0
  8 12  1  0  0  0  0
M  END
>  <IDNUMBER>
F0777-1948

>  <Chemical_Name>
[(E)-[(4-ethoxyphenyl)methylidene]amino]thiourea

>  <PriceCoeff>
1.00

>  <CAS>
1548686-57-2

>  <MW>
223.29

>  <Description>
solid

>  <FSP3>
0.20

>  <clogP>
2.45

>  <TPSA>
91.73

>  <Acceptor>
3

>  <Donor>
3

>  <RotBonds>
4

>  <HAC>
15

>  <Collection>
General

>  <PPDS>
+

$$$$
F0777-2101
  Mrv2219 10102508112D          

 19 21  0  0  0  0            999 V2000
    0.6556   -0.5804    0.0000 N   0  0  0  0  0  0  0  0  0  0  0  0
   -0.0960   -0.9061    0.0000 C   0  0  0  0  0  0  0  0  0  0  0  0
   -0.0125   -1.7328    0.0000 O   0  0  0  0  0  0  0  0  0  0  0  0
    1.2067   -1.1942    0.0000 N   0  0  0  0  0  0  0  0  0  0  0  0
    0.7933   -1.9081    0.0000 C   0  0  0  0  0  0  0  0  0  0  0  0
   -0.8100   -0.4927    0.0000 C   0  0  0  0  0  0  0  0  0  0  0  0
    1.1315   -2.6597    0.0000 C   0  0  0  0  0  0  0  0  0  0  0  0
    1.9540   -2.7474    0.0000 O   0  0  0  0  0  0  0  0  0  0  0  0
    2.2839   -3.5073    0.0000 C   0  0  0  0  0  0  0  0  0  0  0  0
   -0.8100    0.3340    0.0000 C   0  0  0  0  0  0  0  0  0  0  0  0
   -1.5240   -0.9061    0.0000 C   0  0  0  0  0  0  0  0  0  0  0  0
    1.7954   -4.1711    0.0000 C   0  0  0  0  0  0  0  0  0  0  0  0
    3.1106   -3.5866    0.0000 C   0  0  0  0  0  0  0  0  0  0  0  0
   -2.2379   -0.4927    0.0000 C   0  0  0  0  0  0  0  0  0  0  0  0
   -1.5240    0.7473    0.0000 C   0  0  0  0  0  0  0  0  0  0  0  0
    2.1294   -4.9227    0.0000 C   0  0  0  0  0  0  0  0  0  0  0  0
    3.4363   -4.3465    0.0000 C   0  0  0  0  0  0  0  0  0  0  0  0
    2.9478   -5.0146    0.0000 C   0  0  0  0  0  0  0  0  0  0  0  0
   -2.2379    0.3340    0.0000 C   0  0  0  0  0  0  0  0  0  0  0  0
  2  1  2  0  0  0  0
  3  2  1  0  0  0  0
  4  1  1  0  0  0  0
  5  4  2  0  0  0  0
  6  2  1  0  0  0  0
  7  5  1  0  0  0  0
  8  7  1  0  0  0  0
  9  8  1  0  0  0  0
 10  6  1  0  0  0  0
 11  6  2  0  0  0  0
 12  9  2  0  0  0  0
 13  9  1  0  0  0  0
 14 11  1  0  0  0  0
 15 10  2  0  0  0  0
 16 12  1  0  0  0  0
 17 13  2  0  0  0  0
 18 17  1  0  0  0  0
 19 14  2  0  0  0  0
  3  5  1  0  0  0  0
 15 19  1  0  0  0  0
 16 18  2  0  0  0  0
M  END
>  <IDNUMBER>
F0777-2101

>  <Chemical_Name>
2-(phenoxymethyl)-5-phenyl-1,3,4-oxadiazole

>  <PriceCoeff>
1.00

>  <MW>
252.27

>  <Description>
solid

>  <FSP3>
0.07

>  <clogP>
2.38

>  <TPSA>
48.15

>  <Acceptor>
4

>  <Donor>
0

>  <RotBonds>
4

>  <HAC>
19

>  <Collection>
General

$$$$
F0777-2196
  Mrv2219 10102508112D          

 18 19  0  0  0  0            999 V2000
    3.7736   -1.4520    0.0000 C   0  0  0  0  0  0  0  0  0  0  0  0
    0.9278   -0.9236    0.0000 C   0  0  0  0  0  0  0  0  0  0  0  0
    2.3757   -1.1525    0.0000 N   0  0  0  0  0  0  0  0  0  0  0  0
    1.5976   -1.4021    0.0000 C   0  0  0  0  0  0  0  0  0  0  0  0
    4.7346   -0.3994    0.0000 C   0  0  0  0  0  0  0  0  0  0  0  0
    3.9483   -0.6490    0.0000 C   0  0  0  0  0  0  0  0  0  0  0  0
    2.9872   -1.7017    0.0000 C   0  0  0  0  0  0  0  0  0  0  0  0
    0.9278   -0.0916    0.0000 C   0  0  0  0  0  0  0  0  0  0  0  0
    0.9278    0.7239    0.0000 N   0  0  0  0  0  0  0  0  0  0  0  0
    5.3462   -0.9528    0.0000 C   0  0  0  0  0  0  0  0  0  0  0  0
    4.3852   -2.0095    0.0000 C   0  0  0  0  0  0  0  0  0  0  0  0
    5.1673   -1.7599    0.0000 C   0  0  0  0  0  0  0  0  0  0  0  0
    4.9094    0.4077    0.0000 Cl  0  0  0  0  0  0  0  0  0  0  0  0
    3.3367   -0.0916    0.0000 O   0  0  0  0  0  0  0  0  0  0  0  0
    5.7789   -2.3133    0.0000 Cl  0  0  0  0  0  0  0  0  0  0  0  0
    0.2663   -1.4021    0.0000 C   0  0  0  0  0  0  0  0  0  0  0  0
    1.3397   -2.1884    0.0000 C   0  0  0  0  0  0  0  0  0  0  0  0
    0.5159   -2.1884    0.0000 C   0  0  0  0  0  0  0  0  0  0  0  0
  2  4  2  0  0  0  0
  3  7  2  0  0  0  0
  4  3  1  0  0  0  0
  5  6  2  0  0  0  0
  6  1  1  0  0  0  0
  7  1  1  0  0  0  0
  8  2  1  0  0  0  0
  9  8  3  0  0  0  0
 10 12  2  0  0  0  0
 11  1  2  0  0  0  0
 12 11  1  0  0  0  0
 13  5  1  0  0  0  0
 14  6  1  0  0  0  0
 15 12  1  0  0  0  0
 16  2  1  0  0  0  0
 17  4  1  0  0  0  0
 18 17  1  0  0  0  0
 10  5  1  0  0  0  0
 18 16  1  0  0  0  0
M  END
>  <IDNUMBER>
F0777-2196

>  <Chemical_Name>
2-[(E)-[(3,5-dichloro-2-hydroxyphenyl)methylidene]amino]cyclopent-1-ene-1-carbonitrile

>  <PriceCoeff>
1.00

>  <CAS>
325804-62-4

>  <MW>
281.14

>  <Description>
solid

>  <FSP3>
0.23

>  <clogP>
3.10

>  <TPSA>
56.38

>  <Acceptor>
3

>  <Donor>
2

>  <RotBonds>
2

>  <HAC>
18

>  <Collection>
General

>  <PPDS>
+

$$$$
F0778-0193
  Mrv2219 10102508112D          

 28 31  0  0  0  0            999 V2000
   -3.2323    2.4918    0.0000 C   0  0  0  0  0  0  0  0  0  0  0  0
   -3.9021    2.9786    0.0000 N   0  0  0  0  0  0  0  0  0  0  0  0
   -4.5760    2.4918    0.0000 N   0  0  0  0  0  0  0  0  0  0  0  0
   -3.4902    1.6973    0.0000 C   0  0  0  0  0  0  0  0  0  0  0  0
   -2.4543    2.7414    0.0000 N   0  0  0  0  0  0  0  0  0  0  0  0
   -4.3263    1.6973    0.0000 C   0  0  0  0  0  0  0  0  0  0  0  0
    0.0916    4.3056    0.0000 N   0  3  0  0  0  0  0  0  0  0  0  0
   -0.0999    3.5152    0.0000 C   0  0  0  0  0  0  0  0  0  0  0  0
   -1.8429    2.1923    0.0000 C   0  0  0  0  0  0  0  0  0  0  0  0
   -3.9021    3.7939    0.0000 C   0  0  0  0  0  0  0  0  0  0  0  0
   -0.8861    3.2655    0.0000 C   0  0  0  0  0  0  0  0  0  0  0  0
   -1.0566    2.4419    0.0000 C   0  0  0  0  0  0  0  0  0  0  0  0
    0.5158    2.9578    0.0000 C   0  0  0  0  0  0  0  0  0  0  0  0
    0.8861    4.5469    0.0000 O   0  5  0  0  0  0  0  0  0  0  0  0
   -3.9021    0.4244    0.0000 S   0  0  0  0  0  0  0  0  0  0  0  0
   -0.4950    4.8590    0.0000 O   0  0  0  0  0  0  0  0  0  0  0  0
   -2.0093    1.3852    0.0000 O   0  0  0  0  0  0  0  0  0  0  0  0
   -3.2323    0.9110    0.0000 C   0  0  0  0  0  0  0  0  0  0  0  0
   -3.1906    4.1932    0.0000 C   0  0  0  0  0  0  0  0  0  0  0  0
   -0.4575    1.8970    0.0000 C   0  0  0  0  0  0  0  0  0  0  0  0
    0.3370    2.1424    0.0000 C   0  0  0  0  0  0  0  0  0  0  0  0
   -4.5760    0.9110    0.0000 C   0  0  0  0  0  0  0  0  0  0  0  0
    1.2980    3.2156    0.0000 Cl  0  0  0  0  0  0  0  0  0  0  0  0
   -4.6259    4.1974    0.0000 C   0  0  0  0  0  0  0  0  0  0  0  0
   -2.4918    3.7648    0.0000 C   0  0  0  0  0  0  0  0  0  0  0  0
   -3.1906    5.0211    0.0000 C   0  0  0  0  0  0  0  0  0  0  0  0
   -4.6134    5.0169    0.0000 C   0  0  0  0  0  0  0  0  0  0  0  0
   -3.9063    5.4288    0.0000 C   0  0  0  0  0  0  0  0  0  0  0  0
  2  1  1  0  0  0  0
  3  2  1  0  0  0  0
  4  1  2  0  0  0  0
  5  1  1  0  0  0  0
  6  4  1  0  0  0  0
  7  8  1  0  0  0  0
  8 11  2  0  0  0  0
  9  5  1  0  0  0  0
 10  2  1  0  0  0  0
 11 12  1  0  0  0  0
 12  9  1  0  0  0  0
 13 21  2  0  0  0  0
 14  7  1  0  0  0  0
 15 18  1  0  0  0  0
 16  7  2  0  0  0  0
 17  9  2  0  0  0  0
 18  4  1  0  0  0  0
 19 10  2  0  0  0  0
 20 12  2  0  0  0  0
 21 20  1  0  0  0  0
 22  6  1  0  0  0  0
 23 13  1  0  0  0  0
 24 10  1  0  0  0  0
 25 19  1  0  0  0  0
 26 19  1  0  0  0  0
 27 24  2  0  0  0  0
 28 27  1  0  0  0  0
  3  6  2  0  0  0  0
 22 15  1  0  0  0  0
 28 26  2  0  0  0  0
 13  8  1  0  0  0  0
M  CHG  2   7   1  14  -1
M  END
>  <IDNUMBER>
F0778-0193

>  <Chemical_Name>
4-chloro-N-[2-(2-methylphenyl)-2H,4H,6H-thieno[3,4-c]pyrazol-3-yl]-3-nitrobenzamide

>  <PriceCoeff>
1.00

>  <CAS>
396721-78-1

>  <MW>
414.87

>  <Description>
solid

>  <FSP3>
0.16

>  <clogP>
4.06

>  <TPSA>
115.36

>  <Acceptor>
4

>  <Donor>
1

>  <RotBonds>
4

>  <HAC>
28

>  <Collection>
General

>  <PPDS>
+

$$$$
F0778-0194
  Mrv2219 10102508112D          

 28 31  0  0  0  0            999 V2000
   -3.2320    2.4916    0.0000 C   0  0  0  0  0  0  0  0  0  0  0  0
   -3.9017    2.9783    0.0000 N   0  0  0  0  0  0  0  0  0  0  0  0
   -4.5756    2.4916    0.0000 N   0  0  0  0  0  0  0  0  0  0  0  0
   -3.4899    1.6971    0.0000 C   0  0  0  0  0  0  0  0  0  0  0  0
   -2.4541    2.7412    0.0000 N   0  0  0  0  0  0  0  0  0  0  0  0
   -4.3260    1.6971    0.0000 C   0  0  0  0  0  0  0  0  0  0  0  0
    0.0915    4.3052    0.0000 N   0  3  0  0  0  0  0  0  0  0  0  0
   -0.0998    3.5149    0.0000 C   0  0  0  0  0  0  0  0  0  0  0  0
   -1.8427    2.1921    0.0000 C   0  0  0  0  0  0  0  0  0  0  0  0
   -0.8860    3.2653    0.0000 C   0  0  0  0  0  0  0  0  0  0  0  0
   -1.0565    2.4417    0.0000 C   0  0  0  0  0  0  0  0  0  0  0  0
   -3.9017    3.7936    0.0000 C   0  0  0  0  0  0  0  0  0  0  0  0
    0.5158    2.9575    0.0000 C   0  0  0  0  0  0  0  0  0  0  0  0
    0.8860    4.5465    0.0000 O   0  5  0  0  0  0  0  0  0  0  0  0
   -3.9017    0.4243    0.0000 S   0  0  0  0  0  0  0  0  0  0  0  0
   -0.4950    4.8585    0.0000 O   0  0  0  0  0  0  0  0  0  0  0  0
   -2.0091    1.3852    0.0000 O   0  0  0  0  0  0  0  0  0  0  0  0
   -3.2320    0.9110    0.0000 C   0  0  0  0  0  0  0  0  0  0  0  0
   -0.4575    1.8968    0.0000 C   0  0  0  0  0  0  0  0  0  0  0  0
    0.3369    2.1422    0.0000 C   0  0  0  0  0  0  0  0  0  0  0  0
   -4.5756    0.9110    0.0000 C   0  0  0  0  0  0  0  0  0  0  0  0
   -4.6130    4.1971    0.0000 C   0  0  0  0  0  0  0  0  0  0  0  0
   -3.1821    4.1971    0.0000 C   0  0  0  0  0  0  0  0  0  0  0  0
    1.2978    3.2154    0.0000 Cl  0  0  0  0  0  0  0  0  0  0  0  0
   -3.1821    5.0207    0.0000 C   0  0  0  0  0  0  0  0  0  0  0  0
   -4.6130    5.0207    0.0000 C   0  0  0  0  0  0  0  0  0  0  0  0
   -3.8934    5.4283    0.0000 C   0  0  0  0  0  0  0  0  0  0  0  0
   -3.9017    6.2686    0.0000 C   0  0  0  0  0  0  0  0  0  0  0  0
  2  1  1  0  0  0  0
  3  2  1  0  0  0  0
  4  1  2  0  0  0  0
  5  1  1  0  0  0  0
  6  4  1  0  0  0  0
  7  8  1  0  0  0  0
  8 10  2  0  0  0  0
  9  5  1  0  0  0  0
 10 11  1  0  0  0  0
 11  9  1  0  0  0  0
 12  2  1  0  0  0  0
 13 20  2  0  0  0  0
 14  7  1  0  0  0  0
 15 18  1  0  0  0  0
 16  7  2  0  0  0  0
 17  9  2  0  0  0  0
 18  4  1  0  0  0  0
 19 11  2  0  0  0  0
 20 19  1  0  0  0  0
 21  6  1  0  0  0  0
 22 12  1  0  0  0  0
 23 12  2  0  0  0  0
 24 13  1  0  0  0  0
 25 23  1  0  0  0  0
 26 22  2  0  0  0  0
 27 25  2  0  0  0  0
 28 27  1  0  0  0  0
  3  6  2  0  0  0  0
 21 15  1  0  0  0  0
 27 26  1  0  0  0  0
 13  8  1  0  0  0  0
M  CHG  2   7   1  14  -1
M  END
>  <IDNUMBER>
F0778-0194

>  <Chemical_Name>
4-chloro-N-[2-(4-methylphenyl)-2H,4H,6H-thieno[3,4-c]pyrazol-3-yl]-3-nitrobenzamide

>  <PriceCoeff>
1.00

>  <CAS>
396721-82-7

>  <MW>
414.87

>  <Description>
solid

>  <FSP3>
0.16

>  <clogP>
4.06

>  <TPSA>
115.36

>  <Acceptor>
4

>  <Donor>
1

>  <RotBonds>
4

>  <HAC>
28

>  <Collection>
General

>  <PPDS>
+

$$$$
F0778-0195
  Mrv2219 10102508112D          

 30 33  0  0  0  0            999 V2000
   -3.2323    2.4918    0.0000 C   0  0  0  0  0  0  0  0  0  0  0  0
   -3.9021    2.9786    0.0000 N   0  0  0  0  0  0  0  0  0  0  0  0
   -4.5760    2.4918    0.0000 N   0  0  0  0  0  0  0  0  0  0  0  0
   -3.4902    1.6973    0.0000 C   0  0  0  0  0  0  0  0  0  0  0  0
   -2.4543    2.7414    0.0000 N   0  0  0  0  0  0  0  0  0  0  0  0
   -4.3263    1.6973    0.0000 C   0  0  0  0  0  0  0  0  0  0  0  0
    0.0916    4.3056    0.0000 N   0  3  0  0  0  0  0  0  0  0  0  0
   -0.0999    3.5152    0.0000 C   0  0  0  0  0  0  0  0  0  0  0  0
   -3.9188    6.2816    0.0000 N   0  3  0  0  0  0  0  0  0  0  0  0
   -1.8429    2.1923    0.0000 C   0  0  0  0  0  0  0  0  0  0  0  0
   -0.8861    3.2655    0.0000 C   0  0  0  0  0  0  0  0  0  0  0  0
   -1.0566    2.4419    0.0000 C   0  0  0  0  0  0  0  0  0  0  0  0
   -3.9021    3.7939    0.0000 C   0  0  0  0  0  0  0  0  0  0  0  0
   -3.9063    5.4580    0.0000 C   0  0  0  0  0  0  0  0  0  0  0  0
    0.5158    2.9578    0.0000 C   0  0  0  0  0  0  0  0  0  0  0  0
    0.8861    4.5469    0.0000 O   0  5  0  0  0  0  0  0  0  0  0  0
   -3.9021    0.4244    0.0000 S   0  0  0  0  0  0  0  0  0  0  0  0
   -3.2406    6.7559    0.0000 O   0  5  0  0  0  0  0  0  0  0  0  0
   -0.4950    4.8590    0.0000 O   0  0  0  0  0  0  0  0  0  0  0  0
   -4.6009    6.7185    0.0000 O   0  0  0  0  0  0  0  0  0  0  0  0
   -2.0093    1.3852    0.0000 O   0  0  0  0  0  0  0  0  0  0  0  0
   -3.2323    0.9110    0.0000 C   0  0  0  0  0  0  0  0  0  0  0  0
   -0.4575    1.8970    0.0000 C   0  0  0  0  0  0  0  0  0  0  0  0
   -4.6134    4.2099    0.0000 C   0  0  0  0  0  0  0  0  0  0  0  0
   -3.1906    4.2099    0.0000 C   0  0  0  0  0  0  0  0  0  0  0  0
   -3.1824    5.0336    0.0000 C   0  0  0  0  0  0  0  0  0  0  0  0
   -4.6134    5.0336    0.0000 C   0  0  0  0  0  0  0  0  0  0  0  0
    0.3370    2.1424    0.0000 C   0  0  0  0  0  0  0  0  0  0  0  0
   -4.5760    0.9110    0.0000 C   0  0  0  0  0  0  0  0  0  0  0  0
    1.2980    3.2156    0.0000 Cl  0  0  0  0  0  0  0  0  0  0  0  0
  2  1  1  0  0  0  0
  3  2  1  0  0  0  0
  4  1  2  0  0  0  0
  5  1  1  0  0  0  0
  6  4  1  0  0  0  0
  7  8  1  0  0  0  0
  8 11  2  0  0  0  0
  9 14  1  0  0  0  0
 10  5  1  0  0  0  0
 11 12  1  0  0  0  0
 12 10  1  0  0  0  0
 13  2  1  0  0  0  0
 14 26  2  0  0  0  0
 15 28  2  0  0  0  0
 16  7  1  0  0  0  0
 17 22  1  0  0  0  0
 18  9  1  0  0  0  0
 19  7  2  0  0  0  0
 20  9  2  0  0  0  0
 21 10  2  0  0  0  0
 22  4  1  0  0  0  0
 23 12  2  0  0  0  0
 24 13  1  0  0  0  0
 25 13  2  0  0  0  0
 26 25  1  0  0  0  0
 27 24  2  0  0  0  0
 28 23  1  0  0  0  0
 29  6  1  0  0  0  0
 30 15  1  0  0  0  0
  3  6  2  0  0  0  0
 29 17  1  0  0  0  0
 27 14  1  0  0  0  0
 15  8  1  0  0  0  0
M  CHG  4   7   1   9   1  16  -1  18  -1
M  END
>  <IDNUMBER>
F0778-0195

>  <Chemical_Name>
4-chloro-3-nitro-N-[2-(4-nitrophenyl)-2H,4H,6H-thieno[3,4-c]pyrazol-3-yl]benzamide

>  <PriceCoeff>
1.00

>  <CAS>
396721-83-8

>  <MW>
445.84

>  <Description>
solid

>  <FSP3>
0.11

>  <clogP>
3.48

>  <TPSA>
158.50

>  <Acceptor>
6

>  <Donor>
1

>  <RotBonds>
5

>  <HAC>
30

>  <Collection>
General

>  <PPDS>
+

$$$$
F0778-0277
  Mrv2219 10102508112D          

 31 35  0  0  0  0            999 V2000
   -3.2413    2.4988    0.0000 C   0  0  0  0  0  0  0  0  0  0  0  0
   -3.9129    2.9868    0.0000 N   0  0  0  0  0  0  0  0  0  0  0  0
   -4.5887    2.4988    0.0000 N   0  0  0  0  0  0  0  0  0  0  0  0
   -3.5000    1.7020    0.0000 C   0  0  0  0  0  0  0  0  0  0  0  0
   -2.4612    2.7491    0.0000 N   0  0  0  0  0  0  0  0  0  0  0  0
   -4.3384    1.7020    0.0000 C   0  0  0  0  0  0  0  0  0  0  0  0
    1.2890    3.2371    0.0000 N   0  0  0  0  0  0  0  0  0  0  0  0
   -1.8480    2.1984    0.0000 C   0  0  0  0  0  0  0  0  0  0  0  0
   -3.9129    3.8045    0.0000 C   0  0  0  0  0  0  0  0  0  0  0  0
    1.9565    2.7991    0.0000 C   0  0  0  0  0  0  0  0  0  0  0  0
    1.5644    4.0048    0.0000 C   0  0  0  0  0  0  0  0  0  0  0  0
    0.5006    2.9868    0.0000 C   0  0  0  0  0  0  0  0  0  0  0  0
   -3.9129    0.4255    0.0000 S   0  0  0  0  0  0  0  0  0  0  0  0
   -1.0596    2.4487    0.0000 C   0  0  0  0  0  0  0  0  0  0  0  0
   -2.0149    1.3891    0.0000 O   0  0  0  0  0  0  0  0  0  0  0  0
    2.3778    4.0090    0.0000 C   0  0  0  0  0  0  0  0  0  0  0  0
    2.6073    3.2413    0.0000 C   0  0  0  0  0  0  0  0  0  0  0  0
    1.0680    4.7181    0.0000 O   0  0  0  0  0  0  0  0  0  0  0  0
    1.9899    1.8981    0.0000 O   0  0  0  0  0  0  0  0  0  0  0  0
   -3.2413    0.9136    0.0000 C   0  0  0  0  0  0  0  0  0  0  0  0
   -3.1996    4.2050    0.0000 C   0  0  0  0  0  0  0  0  0  0  0  0
    0.3296    2.1609    0.0000 C   0  0  0  0  0  0  0  0  0  0  0  0
   -0.1084    3.5292    0.0000 C   0  0  0  0  0  0  0  0  0  0  0  0
   -0.4463    1.8981    0.0000 C   0  0  0  0  0  0  0  0  0  0  0  0
   -0.8843    3.2747    0.0000 C   0  0  0  0  0  0  0  0  0  0  0  0
   -4.5887    0.9136    0.0000 C   0  0  0  0  0  0  0  0  0  0  0  0
   -4.6388    4.2092    0.0000 C   0  0  0  0  0  0  0  0  0  0  0  0
   -2.4988    3.7753    0.0000 C   0  0  0  0  0  0  0  0  0  0  0  0
   -3.1996    5.0352    0.0000 C   0  0  0  0  0  0  0  0  0  0  0  0
   -4.6263    5.0310    0.0000 C   0  0  0  0  0  0  0  0  0  0  0  0
   -3.9171    5.4440    0.0000 C   0  0  0  0  0  0  0  0  0  0  0  0
  2  1  1  0  0  0  0
  3  2  1  0  0  0  0
  4  1  2  0  0  0  0
  5  1  1  0  0  0  0
  6  4  1  0  0  0  0
  7 12  1  0  0  0  0
  8  5  1  0  0  0  0
  9  2  1  0  0  0  0
 10  7  1  0  0  0  0
 11  7  1  0  0  0  0
 12 23  2  0  0  0  0
 13 20  1  0  0  0  0
 14  8  1  0  0  0  0
 15  8  2  0  0  0  0
 16 11  1  0  0  0  0
 17 10  1  0  0  0  0
 18 11  2  0  0  0  0
 19 10  2  0  0  0  0
 20  4  1  0  0  0  0
 21  9  2  0  0  0  0
 22 24  2  0  0  0  0
 23 25  1  0  0  0  0
 24 14  1  0  0  0  0
 25 14  2  0  0  0  0
 26  6  1  0  0  0  0
 27  9  1  0  0  0  0
 28 21  1  0  0  0  0
 29 21  1  0  0  0  0
 30 27  2  0  0  0  0
 31 30  1  0  0  0  0
  3  6  2  0  0  0  0
 26 13  1  0  0  0  0
 22 12  1  0  0  0  0
 31 29  2  0  0  0  0
 17 16  1  0  0  0  0
M  END
>  <IDNUMBER>
F0778-0277

>  <Chemical_Name>
4-(2,5-dioxopyrrolidin-1-yl)-N-[2-(2-methylphenyl)-2H,4H,6H-thieno[3,4-c]pyrazol-3-yl]benzamide

>  <PriceCoeff>
1.00

>  <CAS>
361172-36-3

>  <MW>
432.49

>  <Description>
solid

>  <FSP3>
0.22

>  <clogP>
1.72

>  <TPSA>
109.60

>  <Acceptor>
4

>  <Donor>
1

>  <RotBonds>
4

>  <HAC>
31

>  <Collection>
General

>  <PPDS>
+

$$$$
F0778-0278
  Mrv2219 10102508112D          

 31 35  0  0  0  0            999 V2000
   -3.2369    2.4953    0.0000 C   0  0  0  0  0  0  0  0  0  0  0  0
   -3.9076    2.9827    0.0000 N   0  0  0  0  0  0  0  0  0  0  0  0
   -4.5824    2.4953    0.0000 N   0  0  0  0  0  0  0  0  0  0  0  0
   -3.4951    1.6997    0.0000 C   0  0  0  0  0  0  0  0  0  0  0  0
   -2.4578    2.7453    0.0000 N   0  0  0  0  0  0  0  0  0  0  0  0
   -4.3325    1.6997    0.0000 C   0  0  0  0  0  0  0  0  0  0  0  0
    1.2873    3.2327    0.0000 N   0  0  0  0  0  0  0  0  0  0  0  0
   -1.8455    2.1954    0.0000 C   0  0  0  0  0  0  0  0  0  0  0  0
    1.5622    3.9992    0.0000 C   0  0  0  0  0  0  0  0  0  0  0  0
    1.9538    2.7953    0.0000 C   0  0  0  0  0  0  0  0  0  0  0  0
   -3.9076    3.7993    0.0000 C   0  0  0  0  0  0  0  0  0  0  0  0
    0.4999    2.9827    0.0000 C   0  0  0  0  0  0  0  0  0  0  0  0
   -3.9076    0.4249    0.0000 S   0  0  0  0  0  0  0  0  0  0  0  0
   -1.0581    2.4453    0.0000 C   0  0  0  0  0  0  0  0  0  0  0  0
   -2.0121    1.3872    0.0000 O   0  0  0  0  0  0  0  0  0  0  0  0
    2.3746    4.0034    0.0000 C   0  0  0  0  0  0  0  0  0  0  0  0
    2.6037    3.2369    0.0000 C   0  0  0  0  0  0  0  0  0  0  0  0
    1.0665    4.7116    0.0000 O   0  0  0  0  0  0  0  0  0  0  0  0
    1.9871    1.8954    0.0000 O   0  0  0  0  0  0  0  0  0  0  0  0
   -3.2369    0.9123    0.0000 C   0  0  0  0  0  0  0  0  0  0  0  0
   -0.1083    3.5243    0.0000 C   0  0  0  0  0  0  0  0  0  0  0  0
    0.3291    2.1579    0.0000 C   0  0  0  0  0  0  0  0  0  0  0  0
   -0.8831    3.2702    0.0000 C   0  0  0  0  0  0  0  0  0  0  0  0
   -0.4457    1.8954    0.0000 C   0  0  0  0  0  0  0  0  0  0  0  0
   -4.5824    0.9123    0.0000 C   0  0  0  0  0  0  0  0  0  0  0  0
   -4.6199    4.2034    0.0000 C   0  0  0  0  0  0  0  0  0  0  0  0
   -3.1869    4.2034    0.0000 C   0  0  0  0  0  0  0  0  0  0  0  0
   -3.1869    5.0283    0.0000 C   0  0  0  0  0  0  0  0  0  0  0  0
   -4.6199    5.0283    0.0000 C   0  0  0  0  0  0  0  0  0  0  0  0
   -3.8993    5.4365    0.0000 C   0  0  0  0  0  0  0  0  0  0  0  0
   -3.9076    6.2780    0.0000 C   0  0  0  0  0  0  0  0  0  0  0  0
  2  1  1  0  0  0  0
  3  2  1  0  0  0  0
  4  1  2  0  0  0  0
  5  1  1  0  0  0  0
  6  4  1  0  0  0  0
  7 12  1  0  0  0  0
  8  5  1  0  0  0  0
  9  7  1  0  0  0  0
 10  7  1  0  0  0  0
 11  2  1  0  0  0  0
 12 22  1  0  0  0  0
 13 20  1  0  0  0  0
 14  8  1  0  0  0  0
 15  8  2  0  0  0  0
 16  9  1  0  0  0  0
 17 10  1  0  0  0  0
 18  9  2  0  0  0  0
 19 10  2  0  0  0  0
 20  4  1  0  0  0  0
 21 23  1  0  0  0  0
 22 24  2  0  0  0  0
 23 14  2  0  0  0  0
 24 14  1  0  0  0  0
 25  6  1  0  0  0  0
 26 11  1  0  0  0  0
 27 11  2  0  0  0  0
 28 27  1  0  0  0  0
 29 26  2  0  0  0  0
 30 28  2  0  0  0  0
 31 30  1  0  0  0  0
  3  6  2  0  0  0  0
 25 13  1  0  0  0  0
 21 12  2  0  0  0  0
 30 29  1  0  0  0  0
 17 16  1  0  0  0  0
M  END
>  <IDNUMBER>
F0778-0278

>  <Chemical_Name>
4-(2,5-dioxopyrrolidin-1-yl)-N-[2-(4-methylphenyl)-2H,4H,6H-thieno[3,4-c]pyrazol-3-yl]benzamide

>  <PriceCoeff>
1.00

>  <CAS>
396722-70-6

>  <MW>
432.49

>  <Description>
solid

>  <FSP3>
0.22

>  <clogP>
1.72

>  <TPSA>
109.60

>  <Acceptor>
4

>  <Donor>
1

>  <RotBonds>
4

>  <HAC>
31

>  <Collection>
General

>  <PPDS>
+

$$$$
F0778-0280
  Mrv2219 10102508112D          

 32 36  0  0  0  0            999 V2000
   -3.2337    2.4929    0.0000 C   0  0  0  0  0  0  0  0  0  0  0  0
   -3.9038    2.9798    0.0000 N   0  0  0  0  0  0  0  0  0  0  0  0
   -4.5779    2.4929    0.0000 N   0  0  0  0  0  0  0  0  0  0  0  0
   -3.4917    1.6980    0.0000 C   0  0  0  0  0  0  0  0  0  0  0  0
   -2.4555    2.7426    0.0000 N   0  0  0  0  0  0  0  0  0  0  0  0
   -4.3282    1.6980    0.0000 C   0  0  0  0  0  0  0  0  0  0  0  0
    1.2860    3.2295    0.0000 N   0  0  0  0  0  0  0  0  0  0  0  0
   -3.9038    3.7956    0.0000 C   0  0  0  0  0  0  0  0  0  0  0  0
   -1.8436    2.1933    0.0000 C   0  0  0  0  0  0  0  0  0  0  0  0
    1.9519    2.7925    0.0000 C   0  0  0  0  0  0  0  0  0  0  0  0
    1.5607    3.9953    0.0000 C   0  0  0  0  0  0  0  0  0  0  0  0
   -4.6279    4.2118    0.0000 C   0  0  0  0  0  0  0  0  0  0  0  0
    0.4994    2.9798    0.0000 C   0  0  0  0  0  0  0  0  0  0  0  0
   -3.1920    4.1993    0.0000 C   0  0  0  0  0  0  0  0  0  0  0  0
   -3.9038    0.4245    0.0000 S   0  0  0  0  0  0  0  0  0  0  0  0
   -1.0571    2.4430    0.0000 C   0  0  0  0  0  0  0  0  0  0  0  0
   -2.0101    1.3859    0.0000 O   0  0  0  0  0  0  0  0  0  0  0  0
    2.3723    3.9995    0.0000 C   0  0  0  0  0  0  0  0  0  0  0  0
    2.6012    3.2337    0.0000 C   0  0  0  0  0  0  0  0  0  0  0  0
   -4.6154    5.0359    0.0000 C   0  0  0  0  0  0  0  0  0  0  0  0
    1.9851    1.8936    0.0000 O   0  0  0  0  0  0  0  0  0  0  0  0
    1.0655    4.7070    0.0000 O   0  0  0  0  0  0  0  0  0  0  0  0
   -3.2337    0.9115    0.0000 C   0  0  0  0  0  0  0  0  0  0  0  0
    0.3288    2.1558    0.0000 C   0  0  0  0  0  0  0  0  0  0  0  0
   -0.1082    3.5208    0.0000 C   0  0  0  0  0  0  0  0  0  0  0  0
   -0.4452    1.8936    0.0000 C   0  0  0  0  0  0  0  0  0  0  0  0
   -0.8823    3.2669    0.0000 C   0  0  0  0  0  0  0  0  0  0  0  0
   -4.5779    0.9115    0.0000 C   0  0  0  0  0  0  0  0  0  0  0  0
   -3.1838    5.0234    0.0000 C   0  0  0  0  0  0  0  0  0  0  0  0
   -3.8913    5.4478    0.0000 C   0  0  0  0  0  0  0  0  0  0  0  0
   -5.3396    3.7914    0.0000 C   0  0  0  0  0  0  0  0  0  0  0  0
   -3.8913    6.2718    0.0000 C   0  0  0  0  0  0  0  0  0  0  0  0
  2  1  1  0  0  0  0
  3  2  1  0  0  0  0
  4  1  2  0  0  0  0
  5  1  1  0  0  0  0
  6  4  1  0  0  0  0
  7 13  1  0  0  0  0
  8  2  1  0  0  0  0
  9  5  1  0  0  0  0
 10  7  1  0  0  0  0
 11  7  1  0  0  0  0
 12  8  1  0  0  0  0
 13 25  2  0  0  0  0
 14  8  2  0  0  0  0
 15 23  1  0  0  0  0
 16  9  1  0  0  0  0
 17  9  2  0  0  0  0
 18 11  1  0  0  0  0
 19 10  1  0  0  0  0
 20 12  2  0  0  0  0
 21 10  2  0  0  0  0
 22 11  2  0  0  0  0
 23  4  1  0  0  0  0
 24 26  2  0  0  0  0
 25 27  1  0  0  0  0
 26 16  1  0  0  0  0
 27 16  2  0  0  0  0
 28  6  1  0  0  0  0
 29 14  1  0  0  0  0
 30 29  2  0  0  0  0
 31 12  1  0  0  0  0
 32 30  1  0  0  0  0
  6  3  2  0  0  0  0
 15 28  1  0  0  0  0
 13 24  1  0  0  0  0
 20 30  1  0  0  0  0
 18 19  1  0  0  0  0
M  END
>  <IDNUMBER>
F0778-0280

>  <Chemical_Name>
N-[2-(2,4-dimethylphenyl)-2H,4H,6H-thieno[3,4-c]pyrazol-3-yl]-4-(2,5-dioxopyrrolidin-1-yl)benzamide

>  <PriceCoeff>
1.00

>  <CAS>
396722-72-8

>  <MW>
446.52

>  <Description>
solid

>  <FSP3>
0.25

>  <clogP>
2.21

>  <TPSA>
109.60

>  <Acceptor>
4

>  <Donor>
1

>  <RotBonds>
4

>  <HAC>
32

>  <Collection>
General

>  <PPDS>
+

$$$$
F0778-0281
  Mrv2219 10102508112D          

 32 36  0  0  0  0            999 V2000
   -3.2365    2.4950    0.0000 C   0  0  0  0  0  0  0  0  0  0  0  0
   -3.9071    2.9824    0.0000 N   0  0  0  0  0  0  0  0  0  0  0  0
   -4.5818    2.4950    0.0000 N   0  0  0  0  0  0  0  0  0  0  0  0
   -3.4947    1.6995    0.0000 C   0  0  0  0  0  0  0  0  0  0  0  0
   -2.4575    2.7449    0.0000 N   0  0  0  0  0  0  0  0  0  0  0  0
   -4.3319    1.6995    0.0000 C   0  0  0  0  0  0  0  0  0  0  0  0
    1.2871    3.2323    0.0000 N   0  0  0  0  0  0  0  0  0  0  0  0
   -3.9071    3.7988    0.0000 C   0  0  0  0  0  0  0  0  0  0  0  0
   -1.8452    2.1951    0.0000 C   0  0  0  0  0  0  0  0  0  0  0  0
    1.9536    2.7949    0.0000 C   0  0  0  0  0  0  0  0  0  0  0  0
    1.5620    3.9987    0.0000 C   0  0  0  0  0  0  0  0  0  0  0  0
    0.4998    2.9824    0.0000 C   0  0  0  0  0  0  0  0  0  0  0  0
   -3.9071    0.4249    0.0000 S   0  0  0  0  0  0  0  0  0  0  0  0
   -1.0580    2.4450    0.0000 C   0  0  0  0  0  0  0  0  0  0  0  0
   -4.6193    4.1987    0.0000 C   0  0  0  0  0  0  0  0  0  0  0  0
   -3.1948    4.1904    0.0000 C   0  0  0  0  0  0  0  0  0  0  0  0
   -2.0119    1.3871    0.0000 O   0  0  0  0  0  0  0  0  0  0  0  0
    2.3742    4.0029    0.0000 C   0  0  0  0  0  0  0  0  0  0  0  0
    2.6034    3.2365    0.0000 C   0  0  0  0  0  0  0  0  0  0  0  0
    1.0664    4.7110    0.0000 O   0  0  0  0  0  0  0  0  0  0  0  0
    1.9869    1.8952    0.0000 O   0  0  0  0  0  0  0  0  0  0  0  0
   -3.2365    0.9122    0.0000 C   0  0  0  0  0  0  0  0  0  0  0  0
   -3.1823    5.0151    0.0000 C   0  0  0  0  0  0  0  0  0  0  0  0
   -4.5985    5.0234    0.0000 C   0  0  0  0  0  0  0  0  0  0  0  0
   -0.1083    3.5239    0.0000 C   0  0  0  0  0  0  0  0  0  0  0  0
    0.3291    2.1576    0.0000 C   0  0  0  0  0  0  0  0  0  0  0  0
   -0.8830    3.2698    0.0000 C   0  0  0  0  0  0  0  0  0  0  0  0
   -0.4457    1.8952    0.0000 C   0  0  0  0  0  0  0  0  0  0  0  0
   -4.5818    0.9122    0.0000 C   0  0  0  0  0  0  0  0  0  0  0  0
   -3.8946    5.4358    0.0000 C   0  0  0  0  0  0  0  0  0  0  0  0
   -5.3316    5.4525    0.0000 C   0  0  0  0  0  0  0  0  0  0  0  0
   -2.4575    5.4150    0.0000 C   0  0  0  0  0  0  0  0  0  0  0  0
  2  1  1  0  0  0  0
  3  2  1  0  0  0  0
  4  1  2  0  0  0  0
  5  1  1  0  0  0  0
  6  4  1  0  0  0  0
  7 12  1  0  0  0  0
  8  2  1  0  0  0  0
  9  5  1  0  0  0  0
 10  7  1  0  0  0  0
 11  7  1  0  0  0  0
 12 26  1  0  0  0  0
 13 22  1  0  0  0  0
 14  9  1  0  0  0  0
 15  8  1  0  0  0  0
 16  8  2  0  0  0  0
 17  9  2  0  0  0  0
 18 11  1  0  0  0  0
 19 10  1  0  0  0  0
 20 11  2  0  0  0  0
 21 10  2  0  0  0  0
 22  4  1  0  0  0  0
 23 16  1  0  0  0  0
 24 15  2  0  0  0  0
 25 27  1  0  0  0  0
 26 28  2  0  0  0  0
 27 14  2  0  0  0  0
 28 14  1  0  0  0  0
 29  6  1  0  0  0  0
 30 23  2  0  0  0  0
 31 24  1  0  0  0  0
 32 23  1  0  0  0  0
  3  6  2  0  0  0  0
 29 13  1  0  0  0  0
 25 12  2  0  0  0  0
 24 30  1  0  0  0  0
 19 18  1  0  0  0  0
M  END
>  <IDNUMBER>
F0778-0281

>  <Chemical_Name>
N-[2-(3,5-dimethylphenyl)-2H,4H,6H-thieno[3,4-c]pyrazol-3-yl]-4-(2,5-dioxopyrrolidin-1-yl)benzamide

>  <PriceCoeff>
1.00

>  <CAS>
396722-73-9

>  <MW>
446.52

>  <Description>
solid

>  <FSP3>
0.25

>  <clogP>
2.21

>  <TPSA>
109.60

>  <Acceptor>
4

>  <Donor>
1

>  <RotBonds>
4

>  <HAC>
32

>  <Collection>
General

>  <PPDS>
+

$$$$
F0779-0458
  Mrv2219 10102508112D          

 31 36  0  0  0  0            999 V2000
    0.8473   -0.0616    0.0000 C   0  0  0  0  0  0  0  0  0  0  0  0
    5.3663    0.7189    0.0000 N   0  0  0  0  0  0  0  0  0  0  0  0
    0.3749    0.5700    0.0000 N   0  0  0  0  0  0  0  0  0  0  0  0
   -0.4262    0.3081    0.0000 C   0  0  0  0  0  0  0  0  0  0  0  0
    1.6690   -0.0616    0.0000 N   0  0  0  0  0  0  0  0  0  0  0  0
   -0.3697   -0.5290    0.0000 C   0  0  0  0  0  0  0  0  0  0  0  0
    0.4365   -0.7395    0.0000 S   0  0  0  0  0  0  0  0  0  0  0  0
   -1.1656    0.6727    0.0000 C   0  0  0  0  0  0  0  0  0  0  0  0
   -1.8024   -0.6008    0.0000 C   0  0  0  0  0  0  0  0  0  0  0  0
    2.0387    0.6573    0.0000 C   0  0  0  0  0  0  0  0  0  0  0  0
    5.8747    0.0873    0.0000 C   0  0  0  0  0  0  0  0  0  0  0  0
    5.8747    1.3711    0.0000 C   0  0  0  0  0  0  0  0  0  0  0  0
   -1.8743    0.2413    0.0000 C   0  0  0  0  0  0  0  0  0  0  0  0
   -1.0732   -0.9705    0.0000 C   0  0  0  0  0  0  0  0  0  0  0  0
    4.5446    0.7343    0.0000 C   0  0  0  0  0  0  0  0  0  0  0  0
    2.8962    0.7035    0.0000 C   0  0  0  0  0  0  0  0  0  0  0  0
   -2.6035    0.6110    0.0000 C   0  0  0  0  0  0  0  0  0  0  0  0
   -2.6138   -0.8833    0.0000 C   0  0  0  0  0  0  0  0  0  0  0  0
    1.6228    1.3813    0.0000 O   0  0  0  0  0  0  0  0  0  0  0  0
    6.6141    0.3235    0.0000 C   0  0  0  0  0  0  0  0  0  0  0  0
    6.6552    1.1092    0.0000 C   0  0  0  0  0  0  0  0  0  0  0  0
    5.6128   -0.7755    0.0000 O   0  0  0  0  0  0  0  0  0  0  0  0
    5.6282    2.2132    0.0000 O   0  0  0  0  0  0  0  0  0  0  0  0
    4.1493    0.0410    0.0000 C   0  0  0  0  0  0  0  0  0  0  0  0
    4.1030    1.4583    0.0000 C   0  0  0  0  0  0  0  0  0  0  0  0
   -3.1992    0.0256    0.0000 C   0  0  0  0  0  0  0  0  0  0  0  0
    3.3276    0.0000    0.0000 C   0  0  0  0  0  0  0  0  0  0  0  0
    3.2711    1.4327    0.0000 C   0  0  0  0  0  0  0  0  0  0  0  0
   -1.2119    1.4738    0.0000 C   0  0  0  0  0  0  0  0  0  0  0  0
   -1.9359    1.8641    0.0000 C   0  0  0  0  0  0  0  0  0  0  0  0
   -2.6754    1.4327    0.0000 C   0  0  0  0  0  0  0  0  0  0  0  0
  2 15  1  0  0  0  0
  3  1  2  0  0  0  0
  4  3  1  0  0  0  0
  5  1  1  0  0  0  0
  6  7  1  0  0  0  0
  7  1  1  0  0  0  0
  8  4  1  0  0  0  0
  9 14  2  0  0  0  0
 10  5  1  0  0  0  0
 11  2  1  0  0  0  0
 12  2  1  0  0  0  0
 13  8  2  0  0  0  0
 14  6  1  0  0  0  0
 15 25  2  0  0  0  0
 16 10  1  0  0  0  0
 17 13  1  0  0  0  0
 18  9  1  0  0  0  0
 19 10  2  0  0  0  0
 20 11  1  0  0  0  0
 21 12  1  0  0  0  0
 22 11  2  0  0  0  0
 23 12  2  0  0  0  0
 24 27  2  0  0  0  0
 25 28  1  0  0  0  0
 26 18  1  0  0  0  0
 27 16  1  0  0  0  0
 28 16  2  0  0  0  0
 29  8  1  0  0  0  0
 30 29  2  0  0  0  0
 31 30  1  0  0  0  0
  6  4  2  0  0  0  0
  9 13  1  0  0  0  0
 24 15  1  0  0  0  0
 26 17  1  0  0  0  0
 17 31  2  0  0  0  0
 20 21  1  0  0  0  0
M  END
>  <IDNUMBER>
F0779-0458

>  <Chemical_Name>
N-{4H,5H-acenaphthyleno[5,4-d][1,3]thiazol-8-yl}-4-(2,5-dioxopyrrolidin-1-yl)benzamide

>  <PriceCoeff>
1.00

>  <CAS>
477325-96-5

>  <MW>
427.48

>  <Description>
solid

>  <FSP3>
0.17

>  <clogP>
3.25

>  <TPSA>
107.61

>  <Acceptor>
4

>  <Donor>
1

>  <RotBonds>
3

>  <HAC>
31

>  <Collection>
General

>  <PPDS>
+

$$$$
F0779-0470
  Mrv2219 10102508112D          

 26 30  0  0  0  0            999 V2000
    0.8717    0.9085    0.0000 C   0  0  0  0  0  0  0  0  0  0  0  0
    2.1446   -1.2176    0.0000 N   0  0  0  0  0  0  0  0  0  0  0  0
    0.3921    0.2444    0.0000 N   0  0  0  0  0  0  0  0  0  0  0  0
   -0.3828    0.5119    0.0000 C   0  0  0  0  0  0  0  0  0  0  0  0
   -0.3459    1.3421    0.0000 C   0  0  0  0  0  0  0  0  0  0  0  0
    0.4428    1.5865    0.0000 S   0  0  0  0  0  0  0  0  0  0  0  0
   -1.1069    0.1245    0.0000 C   0  0  0  0  0  0  0  0  0  0  0  0
    1.7019    0.9085    0.0000 N   0  0  0  0  0  0  0  0  0  0  0  0
    2.9518   -1.3144    0.0000 C   0  0  0  0  0  0  0  0  0  0  0  0
    1.8449   -1.9786    0.0000 C   0  0  0  0  0  0  0  0  0  0  0  0
   -1.7941    1.3790    0.0000 C   0  0  0  0  0  0  0  0  0  0  0  0
   -1.8264    0.5488    0.0000 C   0  0  0  0  0  0  0  0  0  0  0  0
    2.1216    0.1799    0.0000 C   0  0  0  0  0  0  0  0  0  0  0  0
   -1.0746    1.7664    0.0000 C   0  0  0  0  0  0  0  0  0  0  0  0
    1.7342   -0.5028    0.0000 C   0  0  0  0  0  0  0  0  0  0  0  0
   -2.5689    0.1475    0.0000 C   0  0  0  0  0  0  0  0  0  0  0  0
   -2.5827    1.6188    0.0000 C   0  0  0  0  0  0  0  0  0  0  0  0
    3.1547   -2.1078    0.0000 C   0  0  0  0  0  0  0  0  0  0  0  0
    2.4398   -2.5090    0.0000 C   0  0  0  0  0  0  0  0  0  0  0  0
    3.5421   -0.6826    0.0000 O   0  0  0  0  0  0  0  0  0  0  0  0
    0.9824   -2.2138    0.0000 O   0  0  0  0  0  0  0  0  0  0  0  0
    2.9656    0.2029    0.0000 O   0  0  0  0  0  0  0  0  0  0  0  0
   -3.1685    0.7195    0.0000 C   0  0  0  0  0  0  0  0  0  0  0  0
   -1.1438   -0.6826    0.0000 C   0  0  0  0  0  0  0  0  0  0  0  0
   -1.8771   -1.0839    0.0000 C   0  0  0  0  0  0  0  0  0  0  0  0
   -2.6012   -0.6965    0.0000 C   0  0  0  0  0  0  0  0  0  0  0  0
  2 15  1  0  0  0  0
  3  1  2  0  0  0  0
  4  3  1  0  0  0  0
  5  6  1  0  0  0  0
  6  1  1  0  0  0  0
  7  4  1  0  0  0  0
  8  1  1  0  0  0  0
  9  2  1  0  0  0  0
 10  2  1  0  0  0  0
 11 14  2  0  0  0  0
 12  7  2  0  0  0  0
 13  8  1  0  0  0  0
 14  5  1  0  0  0  0
 15 13  1  0  0  0  0
 16 12  1  0  0  0  0
 17 11  1  0  0  0  0
 18  9  1  0  0  0  0
 19 10  1  0  0  0  0
 20  9  2  0  0  0  0
 21 10  2  0  0  0  0
 22 13  2  0  0  0  0
 23 17  1  0  0  0  0
 24  7  1  0  0  0  0
 25 24  2  0  0  0  0
 26 25  1  0  0  0  0
  5  4  2  0  0  0  0
 11 12  1  0  0  0  0
 19 18  1  0  0  0  0
 23 16  1  0  0  0  0
 16 26  2  0  0  0  0
M  END
>  <IDNUMBER>
F0779-0470

>  <Chemical_Name>
N-{4H,5H-acenaphthyleno[5,4-d][1,3]thiazol-8-yl}-2-(2,5-dioxopyrrolidin-1-yl)acetamide

>  <PriceCoeff>
1.00

>  <CAS>
477326-07-1

>  <MW>
365.41

>  <Description>
solid

>  <FSP3>
0.26

>  <clogP>
3.07

>  <TPSA>
107.61

>  <Acceptor>
4

>  <Donor>
1

>  <RotBonds>
3

>  <HAC>
26

>  <Collection>
General

>  <PPDS>
+

$$$$
F0779-0473
  Mrv2219 10102508112D          

 31 36  0  0  0  0            999 V2000
   -0.0777    1.2442    0.0000 C   0  0  0  0  0  0  0  0  0  0  0  0
    3.6778    0.6175    0.0000 N   0  0  0  0  0  0  0  0  0  0  0  0
   -0.5489    1.8891    0.0000 N   0  0  0  0  0  0  0  0  0  0  0  0
   -1.3311    1.6284    0.0000 C   0  0  0  0  0  0  0  0  0  0  0  0
    0.7182    1.2442    0.0000 N   0  0  0  0  0  0  0  0  0  0  0  0
   -1.2991    0.8188    0.0000 C   0  0  0  0  0  0  0  0  0  0  0  0
   -0.4940    0.5854    0.0000 S   0  0  0  0  0  0  0  0  0  0  0  0
   -2.0675    2.0126    0.0000 C   0  0  0  0  0  0  0  0  0  0  0  0
    3.2386    1.2991    0.0000 C   0  0  0  0  0  0  0  0  0  0  0  0
    1.1574    1.9761    0.0000 C   0  0  0  0  0  0  0  0  0  0  0  0
   -2.7400    0.7822    0.0000 C   0  0  0  0  0  0  0  0  0  0  0  0
    3.4032   -0.1418    0.0000 C   0  0  0  0  0  0  0  0  0  0  0  0
    4.4783    0.5443    0.0000 C   0  0  0  0  0  0  0  0  0  0  0  0
   -2.7674    1.5872    0.0000 C   0  0  0  0  0  0  0  0  0  0  0  0
   -2.0126    0.3842    0.0000 C   0  0  0  0  0  0  0  0  0  0  0  0
    2.4015    1.2854    0.0000 C   0  0  0  0  0  0  0  0  0  0  0  0
    1.9623    1.9898    0.0000 C   0  0  0  0  0  0  0  0  0  0  0  0
   -3.5084    1.9577    0.0000 C   0  0  0  0  0  0  0  0  0  0  0  0
   -3.5130    0.4940    0.0000 C   0  0  0  0  0  0  0  0  0  0  0  0
    0.6998    2.7034    0.0000 O   0  0  0  0  0  0  0  0  0  0  0  0
    4.0071   -0.6449    0.0000 C   0  0  0  0  0  0  0  0  0  0  0  0
    4.7069   -0.2379    0.0000 C   0  0  0  0  0  0  0  0  0  0  0  0
    2.5434   -0.4163    0.0000 O   0  0  0  0  0  0  0  0  0  0  0  0
    5.0684    1.1893    0.0000 O   0  0  0  0  0  0  0  0  0  0  0  0
   -4.0985    1.3860    0.0000 C   0  0  0  0  0  0  0  0  0  0  0  0
   -2.0996    2.8132    0.0000 C   0  0  0  0  0  0  0  0  0  0  0  0
    3.6412    2.0309    0.0000 C   0  0  0  0  0  0  0  0  0  0  0  0
    2.3604    2.7034    0.0000 C   0  0  0  0  0  0  0  0  0  0  0  0
   -2.8223    3.2065    0.0000 C   0  0  0  0  0  0  0  0  0  0  0  0
    3.1883    2.7446    0.0000 C   0  0  0  0  0  0  0  0  0  0  0  0
   -3.5496    2.7995    0.0000 C   0  0  0  0  0  0  0  0  0  0  0  0
  2  9  1  0  0  0  0
  3  1  2  0  0  0  0
  4  3  1  0  0  0  0
  5  1  1  0  0  0  0
  6  7  1  0  0  0  0
  7  1  1  0  0  0  0
  8  4  1  0  0  0  0
  9 16  1  0  0  0  0
 10  5  1  0  0  0  0
 11 15  2  0  0  0  0
 12  2  1  0  0  0  0
 13  2  1  0  0  0  0
 14  8  2  0  0  0  0
 15  6  1  0  0  0  0
 16 17  2  0  0  0  0
 17 10  1  0  0  0  0
 18 14  1  0  0  0  0
 19 11  1  0  0  0  0
 20 10  2  0  0  0  0
 21 12  1  0  0  0  0
 22 13  1  0  0  0  0
 23 12  2  0  0  0  0
 24 13  2  0  0  0  0
 25 19  1  0  0  0  0
 26  8  1  0  0  0  0
 27 30  1  0  0  0  0
 28 17  1  0  0  0  0
 29 26  2  0  0  0  0
 30 28  2  0  0  0  0
 31 29  1  0  0  0  0
  6  4  2  0  0  0  0
 11 14  1  0  0  0  0
 25 18  1  0  0  0  0
 27  9  2  0  0  0  0
 18 31  2  0  0  0  0
 21 22  1  0  0  0  0
M  END
>  <IDNUMBER>
F0779-0473

>  <Chemical_Name>
N-{4H,5H-acenaphthyleno[5,4-d][1,3]thiazol-8-yl}-3-(2,5-dioxopyrrolidin-1-yl)benzamide

>  <PriceCoeff>
1.00

>  <CAS>
477326-10-6

>  <MW>
427.48

>  <Description>
solid

>  <FSP3>
0.17

>  <clogP>
3.25

>  <TPSA>
107.61

>  <Acceptor>
4

>  <Donor>
1

>  <RotBonds>
3

>  <HAC>
31

>  <Collection>
General

>  <PPDS>
+

$$$$
F0779-0531
  Mrv2219 10102508112D          

 31 34  0  0  0  0            999 V2000
    0.3286    0.5699    0.0000 C   0  0  0  0  0  0  0  0  0  0  0  0
    0.8831   -0.0668    0.0000 C   0  0  0  0  0  0  0  0  0  0  0  0
   -0.4261    0.2875    0.0000 S   0  0  0  0  0  0  0  0  0  0  0  0
    5.3650    0.7187    0.0000 N   0  0  0  0  0  0  0  0  0  0  0  0
   -0.3696   -0.5545    0.0000 C   0  0  0  0  0  0  0  0  0  0  0  0
    0.4313   -0.7753    0.0000 C   0  0  0  0  0  0  0  0  0  0  0  0
    1.6686   -0.0616    0.0000 N   0  0  0  0  0  0  0  0  0  0  0  0
    5.8733    1.3708    0.0000 C   0  0  0  0  0  0  0  0  0  0  0  0
    5.8733    0.0872    0.0000 C   0  0  0  0  0  0  0  0  0  0  0  0
    2.0382    0.6571    0.0000 C   0  0  0  0  0  0  0  0  0  0  0  0
    0.4775    1.3708    0.0000 C   0  0  0  0  0  0  0  0  0  0  0  0
    4.5436    0.7341    0.0000 C   0  0  0  0  0  0  0  0  0  0  0  0
    2.8956    0.7033    0.0000 C   0  0  0  0  0  0  0  0  0  0  0  0
   -1.0011   -1.0935    0.0000 C   0  0  0  0  0  0  0  0  0  0  0  0
    1.6224    1.3810    0.0000 O   0  0  0  0  0  0  0  0  0  0  0  0
    6.6536    1.1089    0.0000 C   0  0  0  0  0  0  0  0  0  0  0  0
    6.6126    0.3234    0.0000 C   0  0  0  0  0  0  0  0  0  0  0  0
    5.6269    2.2127    0.0000 O   0  0  0  0  0  0  0  0  0  0  0  0
    5.6115   -0.7753    0.0000 O   0  0  0  0  0  0  0  0  0  0  0  0
    1.2167    1.5966    0.0000 O   0  0  0  0  0  0  0  0  0  0  0  0
    4.1483    0.0410    0.0000 C   0  0  0  0  0  0  0  0  0  0  0  0
    4.1021    1.4580    0.0000 C   0  0  0  0  0  0  0  0  0  0  0  0
    3.3268    0.0000    0.0000 C   0  0  0  0  0  0  0  0  0  0  0  0
    3.2704    1.4324    0.0000 C   0  0  0  0  0  0  0  0  0  0  0  0
   -0.2002    1.8636    0.0000 O   0  0  0  0  0  0  0  0  0  0  0  0
   -1.7866   -0.8215    0.0000 C   0  0  0  0  0  0  0  0  0  0  0  0
   -0.8779   -1.9098    0.0000 C   0  0  0  0  0  0  0  0  0  0  0  0
   -0.9395    1.5966    0.0000 C   0  0  0  0  0  0  0  0  0  0  0  0
   -2.4283   -1.3400    0.0000 C   0  0  0  0  0  0  0  0  0  0  0  0
   -1.4940   -2.4233    0.0000 C   0  0  0  0  0  0  0  0  0  0  0  0
   -2.2743   -2.1614    0.0000 C   0  0  0  0  0  0  0  0  0  0  0  0
  2  1  2  0  0  0  0
  3  1  1  0  0  0  0
  4 12  1  0  0  0  0
  5  3  1  0  0  0  0
  6  2  1  0  0  0  0
  7  2  1  0  0  0  0
  8  4  1  0  0  0  0
  9  4  1  0  0  0  0
 10  7  1  0  0  0  0
 11  1  1  0  0  0  0
 12 22  2  0  0  0  0
 13 10  1  0  0  0  0
 14  5  1  0  0  0  0
 15 10  2  0  0  0  0
 16  8  1  0  0  0  0
 17  9  1  0  0  0  0
 18  8  2  0  0  0  0
 19  9  2  0  0  0  0
 20 11  2  0  0  0  0
 21 23  2  0  0  0  0
 22 24  1  0  0  0  0
 23 13  1  0  0  0  0
 24 13  2  0  0  0  0
 25 11  1  0  0  0  0
 26 14  1  0  0  0  0
 27 14  2  0  0  0  0
 28 25  1  0  0  0  0
 29 26  2  0  0  0  0
 30 27  1  0  0  0  0
 31 30  2  0  0  0  0
  6  5  2  0  0  0  0
 29 31  1  0  0  0  0
 12 21  1  0  0  0  0
 16 17  1  0  0  0  0
M  END
>  <IDNUMBER>
F0779-0531

>  <Chemical_Name>
methyl 3-[4-(2,5-dioxopyrrolidin-1-yl)benzamido]-5-phenylthiophene-2-carboxylate

>  <PriceCoeff>
1.00

>  <CAS>
477326-56-0

>  <MW>
434.46

>  <Description>
solid

>  <FSP3>
0.13

>  <clogP>
3.06

>  <TPSA>
121.02

>  <Acceptor>
5

>  <Donor>
1

>  <RotBonds>
6

>  <HAC>
31

>  <Collection>
General

>  <PPDS>
+

$$$$
F0779-0604
  Mrv2219 10102508112D          

 30 34  0  0  0  0            999 V2000
   -1.0858    0.7631    0.0000 C   0  0  0  0  0  0  0  0  0  0  0  0
   -0.4251    0.3073    0.0000 C   0  0  0  0  0  0  0  0  0  0  0  0
    5.3525    0.7170    0.0000 N   0  0  0  0  0  0  0  0  0  0  0  0
    0.3739    0.5685    0.0000 N   0  0  0  0  0  0  0  0  0  0  0  0
   -1.8849    0.5071    0.0000 N   0  0  0  0  0  0  0  0  0  0  0  0
    0.8451   -0.0615    0.0000 C   0  0  0  0  0  0  0  0  0  0  0  0
   -1.0397    1.5314    0.0000 S   0  0  0  0  0  0  0  0  0  0  0  0
    1.6647   -0.0615    0.0000 N   0  0  0  0  0  0  0  0  0  0  0  0
    2.0335    0.6556    0.0000 C   0  0  0  0  0  0  0  0  0  0  0  0
    5.8596    1.3676    0.0000 C   0  0  0  0  0  0  0  0  0  0  0  0
    5.8596    0.0870    0.0000 C   0  0  0  0  0  0  0  0  0  0  0  0
    0.4354   -0.7376    0.0000 S   0  0  0  0  0  0  0  0  0  0  0  0
   -0.3688   -0.5276    0.0000 C   0  0  0  0  0  0  0  0  0  0  0  0
   -2.3151    1.1934    0.0000 C   0  0  0  0  0  0  0  0  0  0  0  0
   -1.7825    1.8234    0.0000 C   0  0  0  0  0  0  0  0  0  0  0  0
    4.5330    0.7324    0.0000 C   0  0  0  0  0  0  0  0  0  0  0  0
    2.8888    0.7017    0.0000 C   0  0  0  0  0  0  0  0  0  0  0  0
    1.6186    1.3778    0.0000 O   0  0  0  0  0  0  0  0  0  0  0  0
    6.6381    1.1064    0.0000 C   0  0  0  0  0  0  0  0  0  0  0  0
    6.5972    0.3227    0.0000 C   0  0  0  0  0  0  0  0  0  0  0  0
    5.6138    2.2075    0.0000 O   0  0  0  0  0  0  0  0  0  0  0  0
    5.5984   -0.7735    0.0000 O   0  0  0  0  0  0  0  0  0  0  0  0
    4.0925    1.4546    0.0000 C   0  0  0  0  0  0  0  0  0  0  0  0
    4.1386    0.0409    0.0000 C   0  0  0  0  0  0  0  0  0  0  0  0
    3.2628    1.4290    0.0000 C   0  0  0  0  0  0  0  0  0  0  0  0
    3.3191    0.0000    0.0000 C   0  0  0  0  0  0  0  0  0  0  0  0
   -3.1500    1.3317    0.0000 C   0  0  0  0  0  0  0  0  0  0  0  0
   -2.0539    2.6071    0.0000 C   0  0  0  0  0  0  0  0  0  0  0  0
   -2.8683    2.7607    0.0000 C   0  0  0  0  0  0  0  0  0  0  0  0
   -3.4420    2.1154    0.0000 C   0  0  0  0  0  0  0  0  0  0  0  0
  2  1  1  0  0  0  0
  3 16  1  0  0  0  0
  4  2  1  0  0  0  0
  5  1  2  0  0  0  0
  6  4  2  0  0  0  0
  7  1  1  0  0  0  0
  8  6  1  0  0  0  0
  9  8  1  0  0  0  0
 10  3  1  0  0  0  0
 11  3  1  0  0  0  0
 12 13  1  0  0  0  0
 13  2  2  0  0  0  0
 14  5  1  0  0  0  0
 15  7  1  0  0  0  0
 16 24  1  0  0  0  0
 17  9  1  0  0  0  0
 18  9  2  0  0  0  0
 19 10  1  0  0  0  0
 20 11  1  0  0  0  0
 21 10  2  0  0  0  0
 22 11  2  0  0  0  0
 23 25  1  0  0  0  0
 24 26  2  0  0  0  0
 25 17  2  0  0  0  0
 26 17  1  0  0  0  0
 27 14  1  0  0  0  0
 28 15  1  0  0  0  0
 29 28  2  0  0  0  0
 30 27  2  0  0  0  0
 15 14  2  0  0  0  0
 12  6  1  0  0  0  0
 29 30  1  0  0  0  0
 23 16  2  0  0  0  0
 19 20  1  0  0  0  0
M  END
>  <IDNUMBER>
F0779-0604

>  <Chemical_Name>
N-[4-(1,3-benzothiazol-2-yl)-1,3-thiazol-2-yl]-4-(2,5-dioxopyrrolidin-1-yl)benzamide

>  <PriceCoeff>
1.00

>  <MW>
434.49

>  <Description>
solid

>  <FSP3>
0.10

>  <clogP>
2.36

>  <TPSA>
148.74

>  <Acceptor>
5

>  <Donor>
1

>  <RotBonds>
4

>  <HAC>
30

>  <Collection>
General

$$$$
F0779-0616
  Mrv2219 10102508112D          

 25 28  0  0  0  0            999 V2000
   -1.0427    0.0505    0.0000 C   0  0  0  0  0  0  0  0  0  0  0  0
   -0.3812    0.5099    0.0000 C   0  0  0  0  0  0  0  0  0  0  0  0
    2.1360   -1.2127    0.0000 N   0  0  0  0  0  0  0  0  0  0  0  0
    0.3905    0.2434    0.0000 N   0  0  0  0  0  0  0  0  0  0  0  0
   -1.0703   -0.7901    0.0000 N   0  0  0  0  0  0  0  0  0  0  0  0
    0.8682    0.9049    0.0000 C   0  0  0  0  0  0  0  0  0  0  0  0
   -1.7455    0.3674    0.0000 S   0  0  0  0  0  0  0  0  0  0  0  0
    1.6950    0.9049    0.0000 N   0  0  0  0  0  0  0  0  0  0  0  0
    1.8375   -1.9706    0.0000 C   0  0  0  0  0  0  0  0  0  0  0  0
    2.9399   -1.3092    0.0000 C   0  0  0  0  0  0  0  0  0  0  0  0
    0.4410    1.5802    0.0000 S   0  0  0  0  0  0  0  0  0  0  0  0
   -0.3445    1.3367    0.0000 C   0  0  0  0  0  0  0  0  0  0  0  0
    2.1131    0.1791    0.0000 C   0  0  0  0  0  0  0  0  0  0  0  0
   -1.8742   -0.9693    0.0000 C   0  0  0  0  0  0  0  0  0  0  0  0
   -2.2738   -0.2389    0.0000 C   0  0  0  0  0  0  0  0  0  0  0  0
    1.7272   -0.5007    0.0000 C   0  0  0  0  0  0  0  0  0  0  0  0
    2.4300   -2.4989    0.0000 C   0  0  0  0  0  0  0  0  0  0  0  0
    3.1420   -2.0993    0.0000 C   0  0  0  0  0  0  0  0  0  0  0  0
    0.9784   -2.2049    0.0000 O   0  0  0  0  0  0  0  0  0  0  0  0
    3.5279   -0.6799    0.0000 O   0  0  0  0  0  0  0  0  0  0  0  0
    2.9537    0.2021    0.0000 O   0  0  0  0  0  0  0  0  0  0  0  0
   -2.2830   -1.6859    0.0000 C   0  0  0  0  0  0  0  0  0  0  0  0
   -3.1098   -0.2251    0.0000 C   0  0  0  0  0  0  0  0  0  0  0  0
   -3.5417   -0.9417    0.0000 C   0  0  0  0  0  0  0  0  0  0  0  0
   -3.1236   -1.7088    0.0000 C   0  0  0  0  0  0  0  0  0  0  0  0
  2  1  1  0  0  0  0
  3 16  1  0  0  0  0
  4  2  1  0  0  0  0
  5  1  2  0  0  0  0
  6  4  2  0  0  0  0
  7  1  1  0  0  0  0
  8  6  1  0  0  0  0
  9  3  1  0  0  0  0
 10  3  1  0  0  0  0
 11 12  1  0  0  0  0
 12  2  2  0  0  0  0
 13  8  1  0  0  0  0
 14  5  1  0  0  0  0
 15  7  1  0  0  0  0
 16 13  1  0  0  0  0
 17  9  1  0  0  0  0
 18 10  1  0  0  0  0
 19  9  2  0  0  0  0
 20 10  2  0  0  0  0
 21 13  2  0  0  0  0
 22 14  1  0  0  0  0
 23 15  1  0  0  0  0
 24 23  2  0  0  0  0
 25 22  2  0  0  0  0
 15 14  2  0  0  0  0
 11  6  1  0  0  0  0
 24 25  1  0  0  0  0
 18 17  1  0  0  0  0
M  END
>  <IDNUMBER>
F0779-0616

>  <Chemical_Name>
N-[4-(1,3-benzothiazol-2-yl)-1,3-thiazol-2-yl]-2-(2,5-dioxopyrrolidin-1-yl)acetamide

>  <PriceCoeff>
1.00

>  <MW>
372.42

>  <Description>
solid

>  <FSP3>
0.19

>  <clogP>
2.18

>  <TPSA>
148.74

>  <Acceptor>
5

>  <Donor>
1

>  <RotBonds>
4

>  <HAC>
25

>  <Collection>
General

$$$$
F0779-0619
  Mrv2219 10102508112D          

 30 34  0  0  0  0            999 V2000
   -1.9893    2.0712    0.0000 C   0  0  0  0  0  0  0  0  0  0  0  0
   -1.3247    1.6205    0.0000 C   0  0  0  0  0  0  0  0  0  0  0  0
    3.6600    0.6145    0.0000 N   0  0  0  0  0  0  0  0  0  0  0  0
   -0.5463    1.8800    0.0000 N   0  0  0  0  0  0  0  0  0  0  0  0
   -2.7813    1.8027    0.0000 N   0  0  0  0  0  0  0  0  0  0  0  0
   -0.0774    1.2382    0.0000 C   0  0  0  0  0  0  0  0  0  0  0  0
   -1.9483    2.8360    0.0000 S   0  0  0  0  0  0  0  0  0  0  0  0
    0.7147    1.2382    0.0000 N   0  0  0  0  0  0  0  0  0  0  0  0
    3.2229    1.2928    0.0000 C   0  0  0  0  0  0  0  0  0  0  0  0
    1.1517    1.9665    0.0000 C   0  0  0  0  0  0  0  0  0  0  0  0
    4.4566    0.5417    0.0000 C   0  0  0  0  0  0  0  0  0  0  0  0
    3.3868   -0.1412    0.0000 C   0  0  0  0  0  0  0  0  0  0  0  0
   -0.4916    0.5826    0.0000 S   0  0  0  0  0  0  0  0  0  0  0  0
   -1.2928    0.8148    0.0000 C   0  0  0  0  0  0  0  0  0  0  0  0
   -3.2229    2.4809    0.0000 C   0  0  0  0  0  0  0  0  0  0  0  0
   -2.6994    3.1091    0.0000 C   0  0  0  0  0  0  0  0  0  0  0  0
    2.3899    1.2791    0.0000 C   0  0  0  0  0  0  0  0  0  0  0  0
    1.9529    1.9802    0.0000 C   0  0  0  0  0  0  0  0  0  0  0  0
    0.6965    2.6903    0.0000 O   0  0  0  0  0  0  0  0  0  0  0  0
    4.6842   -0.2368    0.0000 C   0  0  0  0  0  0  0  0  0  0  0  0
    3.9877   -0.6419    0.0000 C   0  0  0  0  0  0  0  0  0  0  0  0
    5.0439    1.1835    0.0000 O   0  0  0  0  0  0  0  0  0  0  0  0
    2.5311   -0.4143    0.0000 O   0  0  0  0  0  0  0  0  0  0  0  0
    3.6236    2.0212    0.0000 C   0  0  0  0  0  0  0  0  0  0  0  0
    2.3489    2.6903    0.0000 C   0  0  0  0  0  0  0  0  0  0  0  0
    3.1729    2.7313    0.0000 C   0  0  0  0  0  0  0  0  0  0  0  0
   -4.0423    2.6038    0.0000 C   0  0  0  0  0  0  0  0  0  0  0  0
   -2.9862    3.8921    0.0000 C   0  0  0  0  0  0  0  0  0  0  0  0
   -3.8056    4.0378    0.0000 C   0  0  0  0  0  0  0  0  0  0  0  0
   -4.3655    3.3822    0.0000 C   0  0  0  0  0  0  0  0  0  0  0  0
  2  1  1  0  0  0  0
  3  9  1  0  0  0  0
  4  2  1  0  0  0  0
  5  1  2  0  0  0  0
  6  4  2  0  0  0  0
  7  1  1  0  0  0  0
  8  6  1  0  0  0  0
  9 17  1  0  0  0  0
 10  8  1  0  0  0  0
 11  3  1  0  0  0  0
 12  3  1  0  0  0  0
 13 14  1  0  0  0  0
 14  2  2  0  0  0  0
 15  5  1  0  0  0  0
 16  7  1  0  0  0  0
 17 18  2  0  0  0  0
 18 10  1  0  0  0  0
 19 10  2  0  0  0  0
 20 11  1  0  0  0  0
 21 12  1  0  0  0  0
 22 11  2  0  0  0  0
 23 12  2  0  0  0  0
 24 26  1  0  0  0  0
 25 18  1  0  0  0  0
 26 25  2  0  0  0  0
 27 15  1  0  0  0  0
 28 16  1  0  0  0  0
 29 28  2  0  0  0  0
 30 27  2  0  0  0  0
 16 15  2  0  0  0  0
 13  6  1  0  0  0  0
 29 30  1  0  0  0  0
  9 24  2  0  0  0  0
 20 21  1  0  0  0  0
M  END
>  <IDNUMBER>
F0779-0619

>  <Chemical_Name>
N-[4-(1,3-benzothiazol-2-yl)-1,3-thiazol-2-yl]-3-(2,5-dioxopyrrolidin-1-yl)benzamide

>  <PriceCoeff>
1.00

>  <CAS>
477486-60-5

>  <MW>
434.49

>  <Description>
solid

>  <FSP3>
0.10

>  <clogP>
2.36

>  <TPSA>
148.74

>  <Acceptor>
5

>  <Donor>
1

>  <RotBonds>
4

>  <HAC>
30

>  <Collection>
General

>  <PPDS>
+

$$$$
F0789-0022
  Mrv2219 10102508112D          

 27 30  0  0  0  0            999 V2000
    3.0778   -1.5638    0.0000 N   0  0  0  0  0  0  0  0  0  0  0  0
   -0.6423   -0.8527    0.0000 C   0  0  0  0  0  0  0  0  0  0  0  0
   -1.1929   -0.2294    0.0000 N   0  0  0  0  0  0  0  0  0  0  0  0
    0.1835   -0.8527    0.0000 N   0  0  0  0  0  0  0  0  0  0  0  0
   -1.9460   -0.5773    0.0000 C   0  0  0  0  0  0  0  0  0  0  0  0
    2.6611   -0.8527    0.0000 C   0  0  0  0  0  0  0  0  0  0  0  0
    0.6003   -0.1530    0.0000 C   0  0  0  0  0  0  0  0  0  0  0  0
    3.8883   -1.6058    0.0000 C   0  0  0  0  0  0  0  0  0  0  0  0
    2.7872   -2.3207    0.0000 C   0  0  0  0  0  0  0  0  0  0  0  0
   -1.0667   -1.5484    0.0000 S   0  0  0  0  0  0  0  0  0  0  0  0
   -1.8772   -1.3803    0.0000 C   0  0  0  0  0  0  0  0  0  0  0  0
    1.8352   -0.8527    0.0000 C   0  0  0  0  0  0  0  0  0  0  0  0
    1.4261   -0.1530    0.0000 C   0  0  0  0  0  0  0  0  0  0  0  0
   -2.6267   -0.1185    0.0000 C   0  0  0  0  0  0  0  0  0  0  0  0
    0.1988    0.5811    0.0000 O   0  0  0  0  0  0  0  0  0  0  0  0
    4.0872   -2.3896    0.0000 C   0  0  0  0  0  0  0  0  0  0  0  0
    3.4295   -2.8331    0.0000 C   0  0  0  0  0  0  0  0  0  0  0  0
    4.4198   -0.9635    0.0000 O   0  0  0  0  0  0  0  0  0  0  0  0
    1.9767   -2.5388    0.0000 O   0  0  0  0  0  0  0  0  0  0  0  0
   -4.0220    0.0115    0.0000 N   0  0  0  0  0  0  0  0  0  0  0  0
    3.0778   -0.1530    0.0000 C   0  0  0  0  0  0  0  0  0  0  0  0
   -3.3607   -0.4626    0.0000 C   0  0  0  0  0  0  0  0  0  0  0  0
    1.8352    0.5811    0.0000 C   0  0  0  0  0  0  0  0  0  0  0  0
    2.6611    0.5811    0.0000 C   0  0  0  0  0  0  0  0  0  0  0  0
   -2.5540    0.7072    0.0000 C   0  0  0  0  0  0  0  0  0  0  0  0
   -3.9876    0.8220    0.0000 C   0  0  0  0  0  0  0  0  0  0  0  0
   -3.2307    1.1890    0.0000 C   0  0  0  0  0  0  0  0  0  0  0  0
  2  4  1  0  0  0  0
  3  2  2  0  0  0  0
  4  7  1  0  0  0  0
  5  3  1  0  0  0  0
  6  1  1  0  0  0  0
  7 13  1  0  0  0  0
  8  1  1  0  0  0  0
  9  1  1  0  0  0  0
 10  2  1  0  0  0  0
 11 10  1  0  0  0  0
 12  6  1  0  0  0  0
 13 12  2  0  0  0  0
 14  5  1  0  0  0  0
 15  7  2  0  0  0  0
 16  8  1  0  0  0  0
 17  9  1  0  0  0  0
 18  8  2  0  0  0  0
 19  9  2  0  0  0  0
 20 22  2  0  0  0  0
 21  6  2  0  0  0  0
 22 14  1  0  0  0  0
 23 24  2  0  0  0  0
 24 21  1  0  0  0  0
 25 14  2  0  0  0  0
 26 27  2  0  0  0  0
 27 25  1  0  0  0  0
 16 17  1  0  0  0  0
 13 23  1  0  0  0  0
 11  5  2  0  0  0  0
 26 20  1  0  0  0  0
M  END
>  <IDNUMBER>
F0789-0022

>  <Chemical_Name>
3-(2,5-dioxopyrrolidin-1-yl)-N-[4-(pyridin-3-yl)-1,3-thiazol-2-yl]benzamide

>  <PriceCoeff>
1.00

>  <CAS>
361479-60-9

>  <MW>
378.40

>  <Description>
solid

>  <FSP3>
0.11

>  <clogP>
0.74

>  <TPSA>
120.50

>  <Acceptor>
5

>  <Donor>
2

>  <RotBonds>
4

>  <HAC>
27

>  <Collection>
General

>  <PPDS>
+

$$$$
F0789-0023
  Mrv2219 10102508112D          

 28 31  0  0  0  0            999 V2000
   -1.8964   -1.3138    0.0000 C   0  0  0  0  0  0  0  0  0  0  0  0
   -0.6569   -0.8955    0.0000 C   0  0  0  0  0  0  0  0  0  0  0  0
   -1.8964   -0.4849    0.0000 C   0  0  0  0  0  0  0  0  0  0  0  0
    3.0774   -1.6111    0.0000 N   0  0  0  0  0  0  0  0  0  0  0  0
   -1.1262   -0.2229    0.0000 N   0  0  0  0  0  0  0  0  0  0  0  0
   -1.1262   -1.5524    0.0000 S   0  0  0  0  0  0  0  0  0  0  0  0
    0.1877   -0.8955    0.0000 N   0  0  0  0  0  0  0  0  0  0  0  0
   -2.6120   -1.7244    0.0000 C   0  0  0  0  0  0  0  0  0  0  0  0
    2.6629   -0.8955    0.0000 C   0  0  0  0  0  0  0  0  0  0  0  0
    0.5983   -0.1877    0.0000 C   0  0  0  0  0  0  0  0  0  0  0  0
    2.8154   -2.3813    0.0000 C   0  0  0  0  0  0  0  0  0  0  0  0
    3.8986   -1.6111    0.0000 C   0  0  0  0  0  0  0  0  0  0  0  0
    1.8339   -0.8955    0.0000 C   0  0  0  0  0  0  0  0  0  0  0  0
    1.4234   -0.1877    0.0000 C   0  0  0  0  0  0  0  0  0  0  0  0
   -2.6120   -0.0743    0.0000 C   0  0  0  0  0  0  0  0  0  0  0  0
   -3.3276   -0.4849    0.0000 C   0  0  0  0  0  0  0  0  0  0  0  0
   -3.3276   -1.3138    0.0000 C   0  0  0  0  0  0  0  0  0  0  0  0
   -2.6120   -2.5495    0.0000 O   0  0  0  0  0  0  0  0  0  0  0  0
    0.1877    0.5474    0.0000 O   0  0  0  0  0  0  0  0  0  0  0  0
    3.4880   -2.8506    0.0000 C   0  0  0  0  0  0  0  0  0  0  0  0
    4.1449   -2.3813    0.0000 C   0  0  0  0  0  0  0  0  0  0  0  0
    2.0216   -2.6629    0.0000 O   0  0  0  0  0  0  0  0  0  0  0  0
    4.3913   -0.9541    0.0000 O   0  0  0  0  0  0  0  0  0  0  0  0
    3.0774   -0.1877    0.0000 C   0  0  0  0  0  0  0  0  0  0  0  0
    1.8339    0.5474    0.0000 C   0  0  0  0  0  0  0  0  0  0  0  0
    2.6629    0.5474    0.0000 C   0  0  0  0  0  0  0  0  0  0  0  0
   -4.0549   -0.1095    0.0000 C   0  0  0  0  0  0  0  0  0  0  0  0
   -3.9259   -1.0675    0.0000 C   0  0  0  0  0  0  0  0  0  0  0  0
  2  6  1  0  0  0  0
  3  1  2  0  0  0  0
  4  9  1  0  0  0  0
  5  3  1  0  0  0  0
  6  1  1  0  0  0  0
  7  2  1  0  0  0  0
  8  1  1  0  0  0  0
  9 13  1  0  0  0  0
 10  7  1  0  0  0  0
 11  4  1  0  0  0  0
 12  4  1  0  0  0  0
 13 14  2  0  0  0  0
 14 10  1  0  0  0  0
 15  3  1  0  0  0  0
 16 17  1  0  0  0  0
 17  8  1  0  0  0  0
 18  8  2  0  0  0  0
 19 10  2  0  0  0  0
 20 11  1  0  0  0  0
 21 12  1  0  0  0  0
 22 11  2  0  0  0  0
 23 12  2  0  0  0  0
 24 26  1  0  0  0  0
 25 14  1  0  0  0  0
 26 25  2  0  0  0  0
 27 16  1  0  0  0  0
 28 16  1  0  0  0  0
  5  2  2  0  0  0  0
 15 16  1  0  0  0  0
 24  9  2  0  0  0  0
 20 21  1  0  0  0  0
M  END
>  <IDNUMBER>
F0789-0023

>  <Chemical_Name>
N-(5,5-dimethyl-7-oxo-4,5,6,7-tetrahydro-1,3-benzothiazol-2-yl)-3-(2,5-dioxopyrrolidin-1-yl)benzamide

>  <PriceCoeff>
1.50

>  <CAS>
361479-61-0

>  <MW>
397.45

>  <Description>
solid

>  <FSP3>
0.35

>  <clogP>
1.44

>  <TPSA>
124.68

>  <Acceptor>
5

>  <Donor>
1

>  <RotBonds>
3

>  <HAC>
28

>  <Collection>
Advanced

>  <PPDS>
+

$$$$
F0799-0005
  Mrv2219 10102508112D          

 17 18  0  0  0  0            999 V2000
    2.3196   -0.9723    0.0000 C   0  0  0  0  0  0  0  0  0  0  0  0
    2.3196   -0.1614    0.0000 C   0  0  0  0  0  0  0  0  0  0  0  0
    3.0129   -1.3909    0.0000 N   0  0  0  0  0  0  0  0  0  0  0  0
    1.6002   -1.3778    0.0000 N   0  0  0  0  0  0  0  0  0  0  0  0
    0.9069   -0.1614    0.0000 N   0  0  0  0  0  0  0  0  0  0  0  0
    0.9069   -0.9854    0.0000 C   0  0  0  0  0  0  0  0  0  0  0  0
    1.6002    0.2572    0.0000 C   0  0  0  0  0  0  0  0  0  0  0  0
    3.7192   -0.9854    0.0000 C   0  0  0  0  0  0  0  0  0  0  0  0
    3.7323   -0.1614    0.0000 N   0  0  0  0  0  0  0  0  0  0  0  0
    0.2006   -1.3909    0.0000 O   0  0  0  0  0  0  0  0  0  0  0  0
    1.6002    1.0682    0.0000 O   0  0  0  0  0  0  0  0  0  0  0  0
    4.4125   -1.3909    0.0000 Br  0  0  0  0  0  0  0  0  0  0  0  0
    1.6002   -2.2019    0.0000 C   0  0  0  0  0  0  0  0  0  0  0  0
    0.1177    0.0479    0.0000 C   0  0  0  0  0  0  0  0  0  0  0  0
    4.5912   -0.1614    0.0000 C   0  0  0  0  0  0  0  0  0  0  0  0
    5.0142    0.5842    0.0000 C   0  0  0  0  0  0  0  0  0  0  0  0
    5.8775    0.5842    0.0000 C   0  0  0  0  0  0  0  0  0  0  0  0
  2  1  2  0  0  0  0
  3  1  1  0  0  0  0
  4  1  1  0  0  0  0
  5  6  1  0  0  0  0
  6  4  1  0  0  0  0
  7  2  1  0  0  0  0
  8  3  2  0  0  0  0
  9  2  1  0  0  0  0
 10  6  2  0  0  0  0
 11  7  2  0  0  0  0
 12  8  1  0  0  0  0
 13  4  1  0  0  0  0
 14  5  1  0  0  0  0
 15  9  1  0  0  0  0
 16 15  1  0  0  0  0
 17 16  2  0  0  0  0
  8  9  1  0  0  0  0
  7  5  1  0  0  0  0
M  END
>  <IDNUMBER>
F0799-0005

>  <Chemical_Name>
8-bromo-1,3-dimethyl-7-(prop-2-en-1-yl)-2,3,6,7-tetrahydro-1H-purine-2,6-dione

>  <PriceCoeff>
1.00

>  <CAS>
82463-67-0

>  <MW>
299.13

>  <Description>
solid

>  <FSP3>
0.30

>  <clogP>
1.25

>  <TPSA>
58.44

>  <Acceptor>
3

>  <Donor>
1

>  <RotBonds>
2

>  <HAC>
17

>  <Collection>
General

>  <PPDS>
+

$$$$
F0799-0006
  Mrv2219 10102508112D          

 17 18  0  0  0  0            999 V2000
    2.3196   -0.8546    0.0000 C   0  0  0  0  0  0  0  0  0  0  0  0
    2.3196   -0.0436    0.0000 C   0  0  0  0  0  0  0  0  0  0  0  0
    3.0129   -1.2732    0.0000 N   0  0  0  0  0  0  0  0  0  0  0  0
    1.6002   -1.2601    0.0000 N   0  0  0  0  0  0  0  0  0  0  0  0
    0.9069   -0.0436    0.0000 N   0  0  0  0  0  0  0  0  0  0  0  0
    0.9069   -0.8677    0.0000 C   0  0  0  0  0  0  0  0  0  0  0  0
    1.6002    0.3749    0.0000 C   0  0  0  0  0  0  0  0  0  0  0  0
    3.7192   -0.8677    0.0000 C   0  0  0  0  0  0  0  0  0  0  0  0
    3.7323   -0.0436    0.0000 N   0  0  0  0  0  0  0  0  0  0  0  0
    0.2006   -1.2732    0.0000 O   0  0  0  0  0  0  0  0  0  0  0  0
    1.6002    1.1859    0.0000 O   0  0  0  0  0  0  0  0  0  0  0  0
    4.4125   -1.2732    0.0000 S   0  0  0  0  0  0  0  0  0  0  0  0
    1.6002   -2.0842    0.0000 C   0  0  0  0  0  0  0  0  0  0  0  0
    0.1177    0.1657    0.0000 C   0  0  0  0  0  0  0  0  0  0  0  0
    4.5912   -0.0436    0.0000 C   0  0  0  0  0  0  0  0  0  0  0  0
    5.0142    0.7019    0.0000 C   0  0  0  0  0  0  0  0  0  0  0  0
    5.8775    0.7019    0.0000 C   0  0  0  0  0  0  0  0  0  0  0  0
  2  1  2  0  0  0  0
  3  1  1  0  0  0  0
  4  1  1  0  0  0  0
  5  6  1  0  0  0  0
  6  4  1  0  0  0  0
  7  2  1  0  0  0  0
  8  3  2  0  0  0  0
  9  2  1  0  0  0  0
 10  6  2  0  0  0  0
 11  7  2  0  0  0  0
 12  8  1  0  0  0  0
 13  4  1  0  0  0  0
 14  5  1  0  0  0  0
 15  9  1  0  0  0  0
 16 15  1  0  0  0  0
 17 16  2  0  0  0  0
  8  9  1  0  0  0  0
  7  5  1  0  0  0  0
M  END
>  <IDNUMBER>
F0799-0006

>  <Chemical_Name>
1,3-dimethyl-7-(prop-2-en-1-yl)-8-sulfanyl-2,3,6,7-tetrahydro-1H-purine-2,6-dione

>  <PriceCoeff>
1.00

>  <CAS>
378198-24-4

>  <MW>
252.29

>  <Description>
solid

>  <FSP3>
0.30

>  <clogP>
1.54

>  <TPSA>
97.24

>  <Acceptor>
3

>  <Donor>
2

>  <RotBonds>
2

>  <HAC>
17

>  <Collection>
General

>  <PPDS>
+

$$$$
F0799-0048
  Mrv2219 10102508112D          

 17 18  0  0  0  0            999 V2000
    2.3283   -0.9723    0.0000 C   0  0  0  0  0  0  0  0  0  0  0  0
    2.3283   -0.1614    0.0000 C   0  0  0  0  0  0  0  0  0  0  0  0
    3.0216   -1.3909    0.0000 N   0  0  0  0  0  0  0  0  0  0  0  0
    1.6089   -1.3909    0.0000 N   0  0  0  0  0  0  0  0  0  0  0  0
    0.9069   -0.1614    0.0000 N   0  0  0  0  0  0  0  0  0  0  0  0
    0.9069   -0.9854    0.0000 C   0  0  0  0  0  0  0  0  0  0  0  0
    1.6089    0.2441    0.0000 C   0  0  0  0  0  0  0  0  0  0  0  0
    3.7192   -0.9985    0.0000 C   0  0  0  0  0  0  0  0  0  0  0  0
    3.7323   -0.1744    0.0000 N   0  0  0  0  0  0  0  0  0  0  0  0
    0.2006   -1.3909    0.0000 O   0  0  0  0  0  0  0  0  0  0  0  0
    1.6089    1.0682    0.0000 O   0  0  0  0  0  0  0  0  0  0  0  0
    4.4212   -1.4040    0.0000 N   0  0  0  0  0  0  0  0  0  0  0  0
    1.6089   -2.2019    0.0000 C   0  0  0  0  0  0  0  0  0  0  0  0
    0.1177    0.0479    0.0000 C   0  0  0  0  0  0  0  0  0  0  0  0
    4.5912   -0.1744    0.0000 C   0  0  0  0  0  0  0  0  0  0  0  0
    5.0229    0.5711    0.0000 C   0  0  0  0  0  0  0  0  0  0  0  0
    5.8775    0.5711    0.0000 C   0  0  0  0  0  0  0  0  0  0  0  0
  2  1  2  0  0  0  0
  3  1  1  0  0  0  0
  4  1  1  0  0  0  0
  5  6  1  0  0  0  0
  6  4  1  0  0  0  0
  7  2  1  0  0  0  0
  8  3  2  0  0  0  0
  9  2  1  0  0  0  0
 10  6  2  0  0  0  0
 11  7  2  0  0  0  0
 12  8  1  0  0  0  0
 13  4  1  0  0  0  0
 14  5  1  0  0  0  0
 15  9  1  0  0  0  0
 16 15  1  0  0  0  0
 17 16  2  0  0  0  0
  8  9  1  0  0  0  0
  7  5  1  0  0  0  0
M  END
>  <IDNUMBER>
F0799-0048

>  <Chemical_Name>
8-amino-1,3-dimethyl-7-(prop-2-en-1-yl)-2,3,6,7-tetrahydro-1H-purine-2,6-dione

>  <PriceCoeff>
1.50

>  <CAS>
135574-30-0

>  <MW>
235.24

>  <Description>
solid

>  <FSP3>
0.30

>  <clogP>
0.46

>  <TPSA>
84.46

>  <Acceptor>
3

>  <Donor>
2

>  <RotBonds>
2

>  <HAC>
17

>  <Collection>
Advanced

>  <PPDS>
+

$$$$
F0799-0049
  Mrv2219 10102508112D          

 18 19  0  0  0  0            999 V2000
    2.3223   -0.9734    0.0000 C   0  0  0  0  0  0  0  0  0  0  0  0
    2.3223   -0.1615    0.0000 C   0  0  0  0  0  0  0  0  0  0  0  0
    3.0163   -1.3925    0.0000 N   0  0  0  0  0  0  0  0  0  0  0  0
    1.6020   -1.3794    0.0000 N   0  0  0  0  0  0  0  0  0  0  0  0
    0.9080   -0.1615    0.0000 N   0  0  0  0  0  0  0  0  0  0  0  0
    0.9080   -0.9865    0.0000 C   0  0  0  0  0  0  0  0  0  0  0  0
    1.6020    0.2444    0.0000 C   0  0  0  0  0  0  0  0  0  0  0  0
    3.7234   -0.9865    0.0000 C   0  0  0  0  0  0  0  0  0  0  0  0
    3.7365   -0.1746    0.0000 N   0  0  0  0  0  0  0  0  0  0  0  0
    0.2008   -1.3925    0.0000 O   0  0  0  0  0  0  0  0  0  0  0  0
    1.6020    1.0694    0.0000 O   0  0  0  0  0  0  0  0  0  0  0  0
    4.4175   -1.4056    0.0000 N   0  0  0  0  0  0  0  0  0  0  0  0
    1.6020   -2.2044    0.0000 C   0  0  0  0  0  0  0  0  0  0  0  0
    0.1179    0.0480    0.0000 C   0  0  0  0  0  0  0  0  0  0  0  0
    4.5964   -0.1746    0.0000 C   0  0  0  0  0  0  0  0  0  0  0  0
    5.0199    0.5718    0.0000 C   0  0  0  0  0  0  0  0  0  0  0  0
    5.8842    0.5718    0.0000 C   0  0  0  0  0  0  0  0  0  0  0  0
    5.1246   -1.0127    0.0000 C   0  0  0  0  0  0  0  0  0  0  0  0
  2  1  2  0  0  0  0
  3  1  1  0  0  0  0
  4  1  1  0  0  0  0
  5  6  1  0  0  0  0
  6  4  1  0  0  0  0
  7  2  1  0  0  0  0
  8  3  2  0  0  0  0
  9  2  1  0  0  0  0
 10  6  2  0  0  0  0
 11  7  2  0  0  0  0
 12  8  1  0  0  0  0
 13  4  1  0  0  0  0
 14  5  1  0  0  0  0
 15  9  1  0  0  0  0
 16 15  1  0  0  0  0
 17 16  2  0  0  0  0
 18 12  1  0  0  0  0
  8  9  1  0  0  0  0
  7  5  1  0  0  0  0
M  END
>  <IDNUMBER>
F0799-0049

>  <Chemical_Name>
1,3-dimethyl-8-(methylamino)-7-(prop-2-en-1-yl)-2,3,6,7-tetrahydro-1H-purine-2,6-dione

>  <PriceCoeff>
1.00

>  <CAS>
377050-67-4

>  <MW>
249.27

>  <Description>
solid

>  <FSP3>
0.36

>  <clogP>
1.29

>  <TPSA>
70.47

>  <Acceptor>
3

>  <Donor>
2

>  <RotBonds>
3

>  <HAC>
18

>  <Collection>
General

>  <PPDS>
+

$$$$
F0799-0051
  Mrv2219 10102508112D          

 19 20  0  0  0  0            999 V2000
    2.3220   -0.9733    0.0000 C   0  0  0  0  0  0  0  0  0  0  0  0
    2.3220   -0.1615    0.0000 C   0  0  0  0  0  0  0  0  0  0  0  0
    3.0159   -1.3923    0.0000 N   0  0  0  0  0  0  0  0  0  0  0  0
    1.6018   -1.3792    0.0000 N   0  0  0  0  0  0  0  0  0  0  0  0
    0.9078   -0.1615    0.0000 N   0  0  0  0  0  0  0  0  0  0  0  0
    3.7230   -0.9864    0.0000 C   0  0  0  0  0  0  0  0  0  0  0  0
    0.9078   -0.9864    0.0000 C   0  0  0  0  0  0  0  0  0  0  0  0
    1.6018    0.2488    0.0000 C   0  0  0  0  0  0  0  0  0  0  0  0
    3.7361   -0.1615    0.0000 N   0  0  0  0  0  0  0  0  0  0  0  0
    4.4169   -1.4054    0.0000 N   0  0  0  0  0  0  0  0  0  0  0  0
    0.2008   -1.3923    0.0000 O   0  0  0  0  0  0  0  0  0  0  0  0
    1.6018    1.0692    0.0000 O   0  0  0  0  0  0  0  0  0  0  0  0
    4.5958   -0.1615    0.0000 C   0  0  0  0  0  0  0  0  0  0  0  0
    1.6018   -2.2042    0.0000 C   0  0  0  0  0  0  0  0  0  0  0  0
    0.1178    0.0480    0.0000 C   0  0  0  0  0  0  0  0  0  0  0  0
    5.0193    0.5762    0.0000 C   0  0  0  0  0  0  0  0  0  0  0  0
    5.8834    0.5762    0.0000 C   0  0  0  0  0  0  0  0  0  0  0  0
    5.1240   -1.0082    0.0000 C   0  0  0  0  0  0  0  0  0  0  0  0
    4.4125   -2.2129    0.0000 C   0  0  0  0  0  0  0  0  0  0  0  0
  2  1  2  0  0  0  0
  3  1  1  0  0  0  0
  4  1  1  0  0  0  0
  5  7  1  0  0  0  0
  6  3  2  0  0  0  0
  7  4  1  0  0  0  0
  8  2  1  0  0  0  0
  9  2  1  0  0  0  0
 10  6  1  0  0  0  0
 11  7  2  0  0  0  0
 12  8  2  0  0  0  0
 13  9  1  0  0  0  0
 14  4  1  0  0  0  0
 15  5  1  0  0  0  0
 16 13  1  0  0  0  0
 17 16  2  0  0  0  0
 18 10  1  0  0  0  0
 19 10  1  0  0  0  0
  6  9  1  0  0  0  0
  8  5  1  0  0  0  0
M  END
>  <IDNUMBER>
F0799-0051

>  <Chemical_Name>
8-(dimethylamino)-1,3-dimethyl-7-(prop-2-en-1-yl)-2,3,6,7-tetrahydro-1H-purine-2,6-dione

>  <PriceCoeff>
1.00

>  <CAS>
377064-38-5

>  <MW>
263.30

>  <Description>
solid

>  <FSP3>
0.42

>  <clogP>
1.44

>  <TPSA>
61.68

>  <Acceptor>
3

>  <Donor>
2

>  <RotBonds>
3

>  <HAC>
19

>  <Collection>
General

>  <PPDS>
+

$$$$
F0799-0087
  Mrv2219 10102508112D          

 19 20  0  0  0  0            999 V2000
    0.0044    0.6464    0.0000 C   0  0  0  0  0  0  0  0  0  0  0  0
    0.0044    1.4535    0.0000 C   0  0  0  0  0  0  0  0  0  0  0  0
    0.6942    0.2299    0.0000 N   0  0  0  0  0  0  0  0  0  0  0  0
   -0.7115    0.2343    0.0000 N   0  0  0  0  0  0  0  0  0  0  0  0
   -1.4014    1.4535    0.0000 N   0  0  0  0  0  0  0  0  0  0  0  0
   -1.4014    0.6334    0.0000 C   0  0  0  0  0  0  0  0  0  0  0  0
   -0.7115    1.8613    0.0000 C   0  0  0  0  0  0  0  0  0  0  0  0
    1.3971    0.6248    0.0000 C   0  0  0  0  0  0  0  0  0  0  0  0
    1.4101    1.4448    0.0000 N   0  0  0  0  0  0  0  0  0  0  0  0
   -2.1043    0.2299    0.0000 O   0  0  0  0  0  0  0  0  0  0  0  0
   -0.7115    2.6770    0.0000 O   0  0  0  0  0  0  0  0  0  0  0  0
    2.0870    0.2299    0.0000 Br  0  0  0  0  0  0  0  0  0  0  0  0
   -0.7115   -0.5771    0.0000 C   0  0  0  0  0  0  0  0  0  0  0  0
   -2.1954    1.6617    0.0000 C   0  0  0  0  0  0  0  0  0  0  0  0
    2.0219    2.0436    0.0000 C   0  0  0  0  0  0  0  0  0  0  0  0
    2.8419    1.8179    0.0000 C   0  0  0  0  0  0  0  0  0  0  0  0
    4.2824    2.1824    0.0000 C   0  0  0  0  0  0  0  0  0  0  0  0
    3.4537    2.4167    0.0000 C   0  0  0  0  0  0  0  0  0  0  0  0
    4.8941    2.7811    0.0000 C   0  0  0  0  0  0  0  0  0  0  0  0
  2  1  2  0  0  0  0
  3  1  1  0  0  0  0
  4  1  1  0  0  0  0
  5  6  1  0  0  0  0
  6  4  1  0  0  0  0
  7  2  1  0  0  0  0
  8  3  2  0  0  0  0
  9  2  1  0  0  0  0
 10  6  2  0  0  0  0
 11  7  2  0  0  0  0
 12  8  1  0  0  0  0
 13  4  1  0  0  0  0
 14  5  1  0  0  0  0
 15  9  1  0  0  0  0
 16 15  1  0  0  0  0
 17 18  1  0  0  0  0
 18 16  1  0  0  0  0
 19 17  1  0  0  0  0
  8  9  1  0  0  0  0
  7  5  1  0  0  0  0
M  END
>  <IDNUMBER>
F0799-0087

>  <Chemical_Name>
8-bromo-1,3-dimethyl-7-pentyl-2,3,6,7-tetrahydro-1H-purine-2,6-dione

>  <PriceCoeff>
1.00

>  <CAS>
1150-47-6

>  <MW>
329.20

>  <Description>
solid

>  <FSP3>
0.58

>  <clogP>
2.97

>  <TPSA>
58.44

>  <Acceptor>
3

>  <Donor>
1

>  <RotBonds>
4

>  <HAC>
19

>  <Collection>
General

>  <PPDS>
+

$$$$
F0799-0088
  Mrv2219 10102508112D          

 20 21  0  0  0  0            999 V2000
   -0.3483    0.5372    0.0000 C   0  0  0  0  0  0  0  0  0  0  0  0
   -0.3483    1.3180    0.0000 C   0  0  0  0  0  0  0  0  0  0  0  0
    0.3190    0.1343    0.0000 N   0  0  0  0  0  0  0  0  0  0  0  0
   -1.0410    0.1385    0.0000 N   0  0  0  0  0  0  0  0  0  0  0  0
   -1.7125    1.3180    0.0000 N   0  0  0  0  0  0  0  0  0  0  0  0
   -1.7125    0.5246    0.0000 C   0  0  0  0  0  0  0  0  0  0  0  0
   -1.0410    1.7125    0.0000 C   0  0  0  0  0  0  0  0  0  0  0  0
    0.9948    0.5162    0.0000 C   0  0  0  0  0  0  0  0  0  0  0  0
    1.0074    1.3096    0.0000 N   0  0  0  0  0  0  0  0  0  0  0  0
   -2.3926    0.1343    0.0000 O   0  0  0  0  0  0  0  0  0  0  0  0
   -1.0410    2.5017    0.0000 O   0  0  0  0  0  0  0  0  0  0  0  0
    1.6664    0.1343    0.0000 Br  0  0  0  0  0  0  0  0  0  0  0  0
   -1.0410   -0.6465    0.0000 C   0  0  0  0  0  0  0  0  0  0  0  0
   -2.4765    1.5194    0.0000 C   0  0  0  0  0  0  0  0  0  0  0  0
    1.5992    1.8889    0.0000 C   0  0  0  0  0  0  0  0  0  0  0  0
    2.3968    1.6705    0.0000 C   0  0  0  0  0  0  0  0  0  0  0  0
    4.3696    2.6150    0.0000 C   0  0  0  0  0  0  0  0  0  0  0  0
    3.7819    2.0232    0.0000 C   0  0  0  0  0  0  0  0  0  0  0  0
    2.9886    2.2498    0.0000 C   0  0  0  0  0  0  0  0  0  0  0  0
    5.1671    2.4009    0.0000 C   0  0  0  0  0  0  0  0  0  0  0  0
  2  1  2  0  0  0  0
  3  1  1  0  0  0  0
  4  1  1  0  0  0  0
  5  6  1  0  0  0  0
  6  4  1  0  0  0  0
  7  2  1  0  0  0  0
  8  3  2  0  0  0  0
  9  2  1  0  0  0  0
 10  6  2  0  0  0  0
 11  7  2  0  0  0  0
 12  8  1  0  0  0  0
 13  4  1  0  0  0  0
 14  5  1  0  0  0  0
 15  9  1  0  0  0  0
 16 15  1  0  0  0  0
 17 18  1  0  0  0  0
 18 19  1  0  0  0  0
 19 16  1  0  0  0  0
 20 17  1  0  0  0  0
  8  9  1  0  0  0  0
  7  5  1  0  0  0  0
M  END
>  <IDNUMBER>
F0799-0088

>  <Chemical_Name>
8-bromo-7-hexyl-1,3-dimethyl-2,3,6,7-tetrahydro-1H-purine-2,6-dione

>  <PriceCoeff>
1.00

>  <CAS>
1225-19-0

>  <MW>
343.23

>  <Description>
solid

>  <FSP3>
0.62

>  <clogP>
3.50

>  <TPSA>
58.44

>  <Acceptor>
3

>  <Donor>
1

>  <RotBonds>
5

>  <HAC>
20

>  <Collection>
General

>  <PPDS>
+

$$$$
F0799-0101
  Mrv2219 10102508112D          

 21 23  0  0  0  0            999 V2000
    0.0311    1.0472    0.0000 C   0  0  0  0  0  0  0  0  0  0  0  0
    0.0311    1.8725    0.0000 C   0  0  0  0  0  0  0  0  0  0  0  0
    0.7366    0.6212    0.0000 N   0  0  0  0  0  0  0  0  0  0  0  0
   -0.7011    0.6212    0.0000 N   0  0  0  0  0  0  0  0  0  0  0  0
    1.4555    1.0205    0.0000 C   0  0  0  0  0  0  0  0  0  0  0  0
   -1.4066    1.8725    0.0000 N   0  0  0  0  0  0  0  0  0  0  0  0
   -1.4066    1.0339    0.0000 C   0  0  0  0  0  0  0  0  0  0  0  0
   -0.7011    2.2852    0.0000 C   0  0  0  0  0  0  0  0  0  0  0  0
    1.4688    1.8592    0.0000 N   0  0  0  0  0  0  0  0  0  0  0  0
    2.1610    0.6123    0.0000 N   0  0  0  0  0  0  0  0  0  0  0  0
    3.5809   -0.2042    0.0000 N   0  0  0  0  0  0  0  0  0  0  0  0
   -2.1254    0.6212    0.0000 O   0  0  0  0  0  0  0  0  0  0  0  0
   -0.7011    3.1238    0.0000 O   0  0  0  0  0  0  0  0  0  0  0  0
    2.1610   -0.2042    0.0000 C   0  0  0  0  0  0  0  0  0  0  0  0
    2.8665    1.0250    0.0000 C   0  0  0  0  0  0  0  0  0  0  0  0
   -0.7011   -0.2042    0.0000 C   0  0  0  0  0  0  0  0  0  0  0  0
   -2.2186    2.0855    0.0000 C   0  0  0  0  0  0  0  0  0  0  0  0
    2.0944    2.4715    0.0000 C   0  0  0  0  0  0  0  0  0  0  0  0
    3.5809    0.6123    0.0000 C   0  0  0  0  0  0  0  0  0  0  0  0
    2.8665   -0.6123    0.0000 C   0  0  0  0  0  0  0  0  0  0  0  0
    4.2864   -0.6123    0.0000 C   0  0  0  0  0  0  0  0  0  0  0  0
  2  1  2  0  0  0  0
  3  1  1  0  0  0  0
  4  1  1  0  0  0  0
  5  3  2  0  0  0  0
  6  7  1  0  0  0  0
  7  4  1  0  0  0  0
  8  2  1  0  0  0  0
  9  2  1  0  0  0  0
 10  5  1  0  0  0  0
 11 19  1  0  0  0  0
 12  7  2  0  0  0  0
 13  8  2  0  0  0  0
 14 10  1  0  0  0  0
 15 10  1  0  0  0  0
 16  4  1  0  0  0  0
 17  6  1  0  0  0  0
 18  9  1  0  0  0  0
 19 15  1  0  0  0  0
 20 14  1  0  0  0  0
 21 11  1  0  0  0  0
  5  9  1  0  0  0  0
  8  6  1  0  0  0  0
 20 11  1  0  0  0  0
M  END
>  <IDNUMBER>
F0799-0101

>  <Chemical_Name>
1,3,7-trimethyl-8-(4-methylpiperazin-1-yl)-2,3,6,7-tetrahydro-1H-purine-2,6-dione

>  <PriceCoeff>
1.00

>  <CAS>
96294-94-9

>  <MW>
292.34

>  <Description>
solid

>  <FSP3>
0.62

>  <clogP>
0.52

>  <TPSA>
64.92

>  <Acceptor>
4

>  <Donor>
3

>  <RotBonds>
1

>  <HAC>
21

>  <Collection>
General

>  <PPDS>
+

$$$$
F0804-1671
  Mrv2219 10102508112D          

 27 30  0  0  0  0            999 V2000
    0.5500    0.6958    0.0000 C   0  0  0  0  0  0  0  0  0  0  0  0
    0.1500   -0.0250    0.0000 S   0  0  0  0  0  0  0  0  0  0  0  0
   -0.7583    0.9583    0.0000 N   0  0  0  0  0  0  0  0  0  0  0  0
   -0.6583    0.1375    0.0000 C   0  0  0  0  0  0  0  0  0  0  0  0
   -0.0083    1.3000    0.0000 C   0  0  0  0  0  0  0  0  0  0  0  0
    1.3667    0.7875    0.0000 C   0  0  0  0  0  0  0  0  0  0  0  0
    4.8042   -2.6500    0.0000 N   0  0  0  0  0  0  0  0  0  0  0  0
    3.9792   -2.6542    0.0000 C   0  0  0  0  0  0  0  0  0  0  0  0
    5.0625   -3.4250    0.0000 C   0  0  0  0  0  0  0  0  0  0  0  0
    4.4042   -3.9167    0.0000 S   0  0  0  0  0  0  0  0  0  0  0  0
    3.7375   -3.4375    0.0000 C   0  0  0  0  0  0  0  0  0  0  0  0
    1.8625    0.1250    0.0000 N   0  0  0  0  0  0  0  0  0  0  0  0
    3.4917   -1.9875    0.0000 C   0  0  0  0  0  0  0  0  0  0  0  0
   -1.2708   -0.4167    0.0000 C   0  0  0  0  0  0  0  0  0  0  0  0
    1.6917    1.5458    0.0000 O   0  0  0  0  0  0  0  0  0  0  0  0
    2.5042   -0.6667    0.0000 C   0  0  0  0  0  0  0  0  0  0  0  0
    2.6667   -2.0792    0.0000 C   0  0  0  0  0  0  0  0  0  0  0  0
    3.8250   -1.2292    0.0000 C   0  0  0  0  0  0  0  0  0  0  0  0
    2.1792   -1.4250    0.0000 C   0  0  0  0  0  0  0  0  0  0  0  0
    3.3292   -0.5667    0.0000 C   0  0  0  0  0  0  0  0  0  0  0  0
    0.1542    2.1083    0.0000 C   0  0  0  0  0  0  0  0  0  0  0  0
    5.8542   -3.6750    0.0000 C   0  0  0  0  0  0  0  0  0  0  0  0
   -2.0583   -0.1750    0.0000 C   0  0  0  0  0  0  0  0  0  0  0  0
   -1.0875   -1.2250    0.0000 C   0  0  0  0  0  0  0  0  0  0  0  0
   -2.6583   -0.7292    0.0000 C   0  0  0  0  0  0  0  0  0  0  0  0
   -1.7000   -1.7792    0.0000 C   0  0  0  0  0  0  0  0  0  0  0  0
   -2.4833   -1.5375    0.0000 C   0  0  0  0  0  0  0  0  0  0  0  0
  2  1  1  0  0  0  0
  3  5  1  0  0  0  0
  4  2  1  0  0  0  0
  5  1  2  0  0  0  0
  6  1  1  0  0  0  0
  7  8  1  0  0  0  0
  8 13  1  0  0  0  0
  9  7  2  0  0  0  0
 10 11  1  0  0  0  0
 11  8  2  0  0  0  0
 12  6  1  0  0  0  0
 13 18  1  0  0  0  0
 14  4  1  0  0  0  0
 15  6  2  0  0  0  0
 16 12  1  0  0  0  0
 17 19  1  0  0  0  0
 18 20  2  0  0  0  0
 19 16  2  0  0  0  0
 20 16  1  0  0  0  0
 21  5  1  0  0  0  0
 22  9  1  0  0  0  0
 23 14  2  0  0  0  0
 24 14  1  0  0  0  0
 25 23  1  0  0  0  0
 26 24  2  0  0  0  0
 27 26  1  0  0  0  0
  3  4  2  0  0  0  0
 17 13  2  0  0  0  0
 25 27  2  0  0  0  0
  9 10  1  0  0  0  0
M  END
>  <IDNUMBER>
F0804-1671

>  <Chemical_Name>
4-methyl-N-[4-(2-methyl-1,3-thiazol-4-yl)phenyl]-2-phenyl-1,3-thiazole-5-carboxamide

>  <PriceCoeff>
1.00

>  <CAS>
364625-70-7

>  <MW>
391.51

>  <Description>
solid

>  <FSP3>
0.10

>  <clogP>
4.98

>  <TPSA>
111.36

>  <Acceptor>
3

>  <Donor>
1

>  <RotBonds>
4

>  <HAC>
27

>  <Collection>
General

>  <PPDS>
+

$$$$
F0806-0059
  Mrv2219 10102508112D          

 29 32  0  0  0  0            999 V2000
   -2.0843    0.5562    0.0000 C   0  0  0  0  0  0  0  0  0  0  0  0
   -1.5222    1.1709    0.0000 C   0  0  0  0  0  0  0  0  0  0  0  0
   -2.8103    0.8372    0.0000 S   0  0  0  0  0  0  0  0  0  0  0  0
    3.0738    1.4930    0.0000 N   0  0  0  0  0  0  0  0  0  0  0  0
   -0.6791    1.0831    0.0000 N   0  0  0  0  0  0  0  0  0  0  0  0
   -1.9672    1.8735    0.0000 C   0  0  0  0  0  0  0  0  0  0  0  0
   -2.7693    1.6803    0.0000 C   0  0  0  0  0  0  0  0  0  0  0  0
   -0.2049    1.7564    0.0000 C   0  0  0  0  0  0  0  0  0  0  0  0
    3.5890    2.0843    0.0000 C   0  0  0  0  0  0  0  0  0  0  0  0
    3.5188    0.8372    0.0000 C   0  0  0  0  0  0  0  0  0  0  0  0
   -1.9437   -0.3221    0.0000 C   0  0  0  0  0  0  0  0  0  0  0  0
    2.2541    1.5398    0.0000 C   0  0  0  0  0  0  0  0  0  0  0  0
    0.6148    1.6803    0.0000 C   0  0  0  0  0  0  0  0  0  0  0  0
   -0.5386    2.5234    0.0000 O   0  0  0  0  0  0  0  0  0  0  0  0
    4.3560    1.8032    0.0000 C   0  0  0  0  0  0  0  0  0  0  0  0
    4.2857    1.0304    0.0000 C   0  0  0  0  0  0  0  0  0  0  0  0
    3.4134    2.9449    0.0000 O   0  0  0  0  0  0  0  0  0  0  0  0
    3.2318    0.0000    0.0000 O   0  0  0  0  0  0  0  0  0  0  0  0
   -2.5936   -0.8255    0.0000 O   0  0  0  0  0  0  0  0  0  0  0  0
    1.7799    0.8607    0.0000 C   0  0  0  0  0  0  0  0  0  0  0  0
    1.9028    2.2658    0.0000 C   0  0  0  0  0  0  0  0  0  0  0  0
    0.9544    0.9309    0.0000 C   0  0  0  0  0  0  0  0  0  0  0  0
    1.0773    2.3361    0.0000 C   0  0  0  0  0  0  0  0  0  0  0  0
   -1.1533   -0.6323    0.0000 O   0  0  0  0  0  0  0  0  0  0  0  0
   -1.7154    2.6873    0.0000 C   0  0  0  0  0  0  0  0  0  0  0  0
   -3.3489    2.2658    0.0000 C   0  0  0  0  0  0  0  0  0  0  0  0
   -0.4859   -0.0937    0.0000 C   0  0  0  0  0  0  0  0  0  0  0  0
   -2.3126    3.2786    0.0000 C   0  0  0  0  0  0  0  0  0  0  0  0
   -3.0913    3.0503    0.0000 C   0  0  0  0  0  0  0  0  0  0  0  0
  2  1  2  0  0  0  0
  3  1  1  0  0  0  0
  4 12  1  0  0  0  0
  5  2  1  0  0  0  0
  6  2  1  0  0  0  0
  7  3  1  0  0  0  0
  8  5  1  0  0  0  0
  9  4  1  0  0  0  0
 10  4  1  0  0  0  0
 11  1  1  0  0  0  0
 12 21  1  0  0  0  0
 13  8  1  0  0  0  0
 14  8  2  0  0  0  0
 15  9  1  0  0  0  0
 16 10  1  0  0  0  0
 17  9  2  0  0  0  0
 18 10  2  0  0  0  0
 19 11  2  0  0  0  0
 20 22  1  0  0  0  0
 21 23  2  0  0  0  0
 22 13  2  0  0  0  0
 23 13  1  0  0  0  0
 24 11  1  0  0  0  0
 25  6  1  0  0  0  0
 26  7  1  0  0  0  0
 27 24  1  0  0  0  0
 28 25  2  0  0  0  0
 29 26  2  0  0  0  0
  6  7  2  0  0  0  0
 28 29  1  0  0  0  0
 20 12  2  0  0  0  0
 15 16  1  0  0  0  0
M  END
>  <IDNUMBER>
F0806-0059

>  <Chemical_Name>
methyl 3-[4-(2,5-dioxopyrrolidin-1-yl)benzamido]-1-benzothiophene-2-carboxylate

>  <PriceCoeff>
1.00

>  <CAS>
477490-43-0

>  <MW>
408.43

>  <Description>
solid

>  <FSP3>
0.14

>  <clogP>
2.35

>  <TPSA>
121.02

>  <Acceptor>
5

>  <Donor>
1

>  <RotBonds>
5

>  <HAC>
29

>  <Collection>
General

>  <PPDS>
+

$$$$
F0806-0077
  Mrv2219 10102508112D          

 24 26  0  0  0  0            999 V2000
   -3.9916   -2.6452    0.0000 C   0  0  0  0  0  0  0  0  0  0  0  0
   -3.4397   -2.0030    0.0000 C   0  0  0  0  0  0  0  0  0  0  0  0
   -0.8564   -0.7755    0.0000 N   0  0  0  0  0  0  0  0  0  0  0  0
   -4.7195   -2.3265    0.0000 S   0  0  0  0  0  0  0  0  0  0  0  0
   -3.8774   -1.2988    0.0000 C   0  0  0  0  0  0  0  0  0  0  0  0
   -1.0990    0.0000    0.0000 C   0  0  0  0  0  0  0  0  0  0  0  0
   -0.0523   -0.7279    0.0000 C   0  0  0  0  0  0  0  0  0  0  0  0
   -4.6767   -1.5034    0.0000 C   0  0  0  0  0  0  0  0  0  0  0  0
   -3.8060   -3.4683    0.0000 C   0  0  0  0  0  0  0  0  0  0  0  0
   -2.6214   -2.0743    0.0000 N   0  0  0  0  0  0  0  0  0  0  0  0
   -2.1361   -1.3892    0.0000 C   0  0  0  0  0  0  0  0  0  0  0  0
   -1.3131   -1.4463    0.0000 C   0  0  0  0  0  0  0  0  0  0  0  0
   -0.4710    0.5090    0.0000 C   0  0  0  0  0  0  0  0  0  0  0  0
    0.1761    0.0380    0.0000 C   0  0  0  0  0  0  0  0  0  0  0  0
   -1.9411    0.2807    0.0000 O   0  0  0  0  0  0  0  0  0  0  0  0
    0.5138   -1.4035    0.0000 O   0  0  0  0  0  0  0  0  0  0  0  0
   -4.4197   -4.0154    0.0000 O   0  0  0  0  0  0  0  0  0  0  0  0
   -2.5072   -0.6328    0.0000 O   0  0  0  0  0  0  0  0  0  0  0  0
   -3.0067   -3.7442    0.0000 O   0  0  0  0  0  0  0  0  0  0  0  0
   -3.6490   -0.4995    0.0000 C   0  0  0  0  0  0  0  0  0  0  0  0
   -5.2476   -0.9135    0.0000 C   0  0  0  0  0  0  0  0  0  0  0  0
   -2.3930   -3.2162    0.0000 C   0  0  0  0  0  0  0  0  0  0  0  0
   -4.2199    0.0951    0.0000 C   0  0  0  0  0  0  0  0  0  0  0  0
   -5.0192   -0.1047    0.0000 C   0  0  0  0  0  0  0  0  0  0  0  0
  2  1  2  0  0  0  0
  3 12  1  0  0  0  0
  4  1  1  0  0  0  0
  5  2  1  0  0  0  0
  6  3  1  0  0  0  0
  7  3  1  0  0  0  0
  8  4  1  0  0  0  0
  9  1  1  0  0  0  0
 10  2  1  0  0  0  0
 11 10  1  0  0  0  0
 12 11  1  0  0  0  0
 13  6  1  0  0  0  0
 14  7  1  0  0  0  0
 15  6  2  0  0  0  0
 16  7  2  0  0  0  0
 17  9  2  0  0  0  0
 18 11  2  0  0  0  0
 19  9  1  0  0  0  0
 20  5  1  0  0  0  0
 21  8  1  0  0  0  0
 22 19  1  0  0  0  0
 23 20  2  0  0  0  0
 24 21  2  0  0  0  0
  8  5  2  0  0  0  0
 24 23  1  0  0  0  0
 13 14  1  0  0  0  0
M  END
>  <IDNUMBER>
F0806-0077

>  <Chemical_Name>
methyl 3-[2-(2,5-dioxopyrrolidin-1-yl)acetamido]-1-benzothiophene-2-carboxylate

>  <PriceCoeff>
1.00

>  <CAS>
477490-58-7

>  <MW>
346.36

>  <Description>
solid

>  <FSP3>
0.25

>  <clogP>
2.17

>  <TPSA>
121.02

>  <Acceptor>
5

>  <Donor>
1

>  <RotBonds>
5

>  <HAC>
24

>  <Collection>
General

>  <PPDS>
+

$$$$
F0806-0078
  Mrv2219 10102508112D          

 29 32  0  0  0  0            999 V2000
   -3.0864   -1.8644    0.0000 C   0  0  0  0  0  0  0  0  0  0  0  0
   -2.5473   -1.2399    0.0000 C   0  0  0  0  0  0  0  0  0  0  0  0
   -3.8231   -1.5410    0.0000 S   0  0  0  0  0  0  0  0  0  0  0  0
    1.5499    0.3594    0.0000 N   0  0  0  0  0  0  0  0  0  0  0  0
   -1.7071   -1.2984    0.0000 N   0  0  0  0  0  0  0  0  0  0  0  0
   -2.9785   -0.5256    0.0000 C   0  0  0  0  0  0  0  0  0  0  0  0
    0.8806   -0.0943    0.0000 C   0  0  0  0  0  0  0  0  0  0  0  0
   -1.2534   -0.6110    0.0000 C   0  0  0  0  0  0  0  0  0  0  0  0
   -3.7737   -0.7413    0.0000 C   0  0  0  0  0  0  0  0  0  0  0  0
    1.3118    1.1545    0.0000 C   0  0  0  0  0  0  0  0  0  0  0  0
    2.3631    0.3369    0.0000 C   0  0  0  0  0  0  0  0  0  0  0  0
   -2.9111   -2.6820    0.0000 C   0  0  0  0  0  0  0  0  0  0  0  0
    0.0404   -0.0315    0.0000 C   0  0  0  0  0  0  0  0  0  0  0  0
   -0.4313   -0.7008    0.0000 C   0  0  0  0  0  0  0  0  0  0  0  0
   -1.5993    0.1437    0.0000 O   0  0  0  0  0  0  0  0  0  0  0  0
    1.9992    1.6128    0.0000 C   0  0  0  0  0  0  0  0  0  0  0  0
    2.6281    1.1321    0.0000 C   0  0  0  0  0  0  0  0  0  0  0  0
    0.5167    1.4556    0.0000 O   0  0  0  0  0  0  0  0  0  0  0  0
    2.8618   -0.3549    0.0000 O   0  0  0  0  0  0  0  0  0  0  0  0
   -3.5401   -3.2211    0.0000 O   0  0  0  0  0  0  0  0  0  0  0  0
   -2.1384   -2.9651    0.0000 O   0  0  0  0  0  0  0  0  0  0  0  0
    1.2265   -0.8491    0.0000 C   0  0  0  0  0  0  0  0  0  0  0  0
   -2.7449    0.2515    0.0000 C   0  0  0  0  0  0  0  0  0  0  0  0
   -4.3352   -0.1393    0.0000 C   0  0  0  0  0  0  0  0  0  0  0  0
   -0.0898   -1.4331    0.0000 C   0  0  0  0  0  0  0  0  0  0  0  0
    0.7547   -1.5140    0.0000 C   0  0  0  0  0  0  0  0  0  0  0  0
   -1.5095   -2.4440    0.0000 C   0  0  0  0  0  0  0  0  0  0  0  0
   -3.3244    0.8580    0.0000 C   0  0  0  0  0  0  0  0  0  0  0  0
   -4.1196    0.6424    0.0000 C   0  0  0  0  0  0  0  0  0  0  0  0
  2  1  2  0  0  0  0
  3  1  1  0  0  0  0
  4  7  1  0  0  0  0
  5  2  1  0  0  0  0
  6  2  1  0  0  0  0
  7 13  2  0  0  0  0
  8  5  1  0  0  0  0
  9  3  1  0  0  0  0
 10  4  1  0  0  0  0
 11  4  1  0  0  0  0
 12  1  1  0  0  0  0
 13 14  1  0  0  0  0
 14  8  1  0  0  0  0
 15  8  2  0  0  0  0
 16 10  1  0  0  0  0
 17 11  1  0  0  0  0
 18 10  2  0  0  0  0
 19 11  2  0  0  0  0
 20 12  2  0  0  0  0
 21 12  1  0  0  0  0
 22 26  2  0  0  0  0
 23  6  1  0  0  0  0
 24  9  1  0  0  0  0
 25 14  2  0  0  0  0
 26 25  1  0  0  0  0
 27 21  1  0  0  0  0
 28 23  2  0  0  0  0
 29 24  2  0  0  0  0
  6  9  2  0  0  0  0
 28 29  1  0  0  0  0
 22  7  1  0  0  0  0
 17 16  1  0  0  0  0
M  END
>  <IDNUMBER>
F0806-0078

>  <Chemical_Name>
methyl 3-[3-(2,5-dioxopyrrolidin-1-yl)benzamido]-1-benzothiophene-2-carboxylate

>  <PriceCoeff>
1.00

>  <CAS>
477490-59-8

>  <MW>
408.43

>  <Description>
solid

>  <FSP3>
0.14

>  <clogP>
2.35

>  <TPSA>
121.02

>  <Acceptor>
5

>  <Donor>
1

>  <RotBonds>
5

>  <HAC>
29

>  <Collection>
General

>  <PPDS>
+

$$$$
F0806-0249
  Mrv2219 10102508112D          

 27 30  0  0  0  0            999 V2000
    2.7197   -2.0630    0.0000 N   0  0  0  0  0  0  0  0  0  0  0  0
   -0.8340   -0.9628    0.0000 C   0  0  0  0  0  0  0  0  0  0  0  0
   -0.4260   -0.2662    0.0000 N   0  0  0  0  0  0  0  0  0  0  0  0
   -1.6105   -0.9628    0.0000 S   0  0  0  0  0  0  0  0  0  0  0  0
   -0.5014   -1.7214    0.0000 N   0  0  0  0  0  0  0  0  0  0  0  0
    1.9743   -1.7614    0.0000 C   0  0  0  0  0  0  0  0  0  0  0  0
    0.3905   -0.2662    0.0000 C   0  0  0  0  0  0  0  0  0  0  0  0
   -1.8234   -1.7614    0.0000 C   0  0  0  0  0  0  0  0  0  0  0  0
    3.2521   -1.4375    0.0000 C   0  0  0  0  0  0  0  0  0  0  0  0
    3.1456   -2.7551    0.0000 C   0  0  0  0  0  0  0  0  0  0  0  0
   -1.1136   -2.2139    0.0000 C   0  0  0  0  0  0  0  0  0  0  0  0
    1.5751   -1.0293    0.0000 C   0  0  0  0  0  0  0  0  0  0  0  0
    0.7631   -0.9982    0.0000 C   0  0  0  0  0  0  0  0  0  0  0  0
    0.8297    0.4260    0.0000 O   0  0  0  0  0  0  0  0  0  0  0  0
    4.0108   -1.7614    0.0000 C   0  0  0  0  0  0  0  0  0  0  0  0
    3.9575   -2.5334    0.0000 C   0  0  0  0  0  0  0  0  0  0  0  0
    3.0746   -0.6034    0.0000 O   0  0  0  0  0  0  0  0  0  0  0  0
    2.8528   -3.5450    0.0000 O   0  0  0  0  0  0  0  0  0  0  0  0
   -2.5689   -2.1163    0.0000 C   0  0  0  0  0  0  0  0  0  0  0  0
    1.5440   -2.4491    0.0000 C   0  0  0  0  0  0  0  0  0  0  0  0
    0.3373   -1.6815    0.0000 C   0  0  0  0  0  0  0  0  0  0  0  0
    0.7320   -2.4269    0.0000 C   0  0  0  0  0  0  0  0  0  0  0  0
   -2.6575   -2.9282    0.0000 C   0  0  0  0  0  0  0  0  0  0  0  0
   -3.2299   -1.6504    0.0000 C   0  0  0  0  0  0  0  0  0  0  0  0
   -3.4207   -3.3320    0.0000 C   0  0  0  0  0  0  0  0  0  0  0  0
   -4.0151   -2.0010    0.0000 C   0  0  0  0  0  0  0  0  0  0  0  0
   -4.0950   -2.8262    0.0000 C   0  0  0  0  0  0  0  0  0  0  0  0
  2  3  1  0  0  0  0
  3  7  1  0  0  0  0
  4  2  1  0  0  0  0
  5  2  2  0  0  0  0
  6  1  1  0  0  0  0
  7 13  1  0  0  0  0
  8  4  1  0  0  0  0
  9  1  1  0  0  0  0
 10  1  1  0  0  0  0
 11  5  1  0  0  0  0
 12  6  2  0  0  0  0
 13 12  1  0  0  0  0
 14  7  2  0  0  0  0
 15  9  1  0  0  0  0
 16 10  1  0  0  0  0
 17  9  2  0  0  0  0
 18 10  2  0  0  0  0
 19  8  1  0  0  0  0
 20  6  1  0  0  0  0
 21 22  1  0  0  0  0
 22 20  2  0  0  0  0
 23 19  1  0  0  0  0
 24 19  2  0  0  0  0
 25 23  2  0  0  0  0
 26 24  1  0  0  0  0
 27 26  2  0  0  0  0
 16 15  1  0  0  0  0
 21 13  2  0  0  0  0
  8 11  2  0  0  0  0
 25 27  1  0  0  0  0
M  END
>  <IDNUMBER>
F0806-0249

>  <Chemical_Name>
3-(2,5-dioxopyrrolidin-1-yl)-N-(5-phenyl-1,3-thiazol-2-yl)benzamide

>  <PriceCoeff>
1.00

>  <CAS>
397279-12-8

>  <MW>
377.42

>  <Description>
solid

>  <FSP3>
0.10

>  <clogP>
2.13

>  <TPSA>
107.61

>  <Acceptor>
4

>  <Donor>
1

>  <RotBonds>
4

>  <HAC>
27

>  <Collection>
General

>  <PPDS>
+

$$$$
F0806-0416
  Mrv2219 10102508112D          

 24 26  0  0  0  0            999 V2000
   -1.9381    0.1662    0.0000 C   0  0  0  0  0  0  0  0  0  0  0  0
   -2.7599    0.0950    0.0000 C   0  0  0  0  0  0  0  0  0  0  0  0
    0.5558    0.1853    0.0000 N   0  0  0  0  0  0  0  0  0  0  0  0
   -1.6198   -0.6128    0.0000 S   0  0  0  0  0  0  0  0  0  0  0  0
   -2.9594   -0.7601    0.0000 C   0  0  0  0  0  0  0  0  0  0  0  0
   -2.2468   -1.1828    0.0000 C   0  0  0  0  0  0  0  0  0  0  0  0
   -1.5343    0.8788    0.0000 N   0  0  0  0  0  0  0  0  0  0  0  0
    1.0451    0.8218    0.0000 C   0  0  0  0  0  0  0  0  0  0  0  0
    1.0593   -0.4418    0.0000 C   0  0  0  0  0  0  0  0  0  0  0  0
   -3.2872    0.7220    0.0000 C   0  0  0  0  0  0  0  0  0  0  0  0
   -0.6840    0.8788    0.0000 C   0  0  0  0  0  0  0  0  0  0  0  0
   -0.2660    0.1710    0.0000 C   0  0  0  0  0  0  0  0  0  0  0  0
    1.8099   -0.2043    0.0000 C   0  0  0  0  0  0  0  0  0  0  0  0
    1.8241    0.6080    0.0000 C   0  0  0  0  0  0  0  0  0  0  0  0
    0.8171   -1.2874    0.0000 O   0  0  0  0  0  0  0  0  0  0  0  0
    0.7980    1.6768    0.0000 O   0  0  0  0  0  0  0  0  0  0  0  0
   -3.0734    1.5913    0.0000 O   0  0  0  0  0  0  0  0  0  0  0  0
   -0.2802    1.6103    0.0000 O   0  0  0  0  0  0  0  0  0  0  0  0
   -4.0615    0.5367    0.0000 N   0  0  0  0  0  0  0  0  0  0  0  0
   -3.7574   -1.0451    0.0000 C   0  0  0  0  0  0  0  0  0  0  0  0
   -2.1328   -1.9999    0.0000 C   0  0  0  0  0  0  0  0  0  0  0  0
   -4.0045   -1.8431    0.0000 C   0  0  0  0  0  0  0  0  0  0  0  0
   -2.7171   -2.6222    0.0000 C   0  0  0  0  0  0  0  0  0  0  0  0
   -3.5579   -2.5272    0.0000 C   0  0  0  0  0  0  0  0  0  0  0  0
  2  1  2  0  0  0  0
  3 12  1  0  0  0  0
  4  1  1  0  0  0  0
  5  2  1  0  0  0  0
  6  4  1  0  0  0  0
  7  1  1  0  0  0  0
  8  3  1  0  0  0  0
  9  3  1  0  0  0  0
 10  2  1  0  0  0  0
 11  7  1  0  0  0  0
 12 11  1  0  0  0  0
 13  9  1  0  0  0  0
 14  8  1  0  0  0  0
 15  9  2  0  0  0  0
 16  8  2  0  0  0  0
 17 10  2  0  0  0  0
 18 11  2  0  0  0  0
 19 10  1  0  0  0  0
 20  5  1  0  0  0  0
 21  6  1  0  0  0  0
 22 20  1  0  0  0  0
 23 21  1  0  0  0  0
 24 23  1  0  0  0  0
  5  6  2  0  0  0  0
 24 22  1  0  0  0  0
 14 13  1  0  0  0  0
M  END
>  <IDNUMBER>
F0806-0416

>  <Chemical_Name>
2-[2-(2,5-dioxopyrrolidin-1-yl)acetamido]-4H,5H,6H,7H,8H-cyclohepta[b]thiophene-3-carboxamide

>  <PriceCoeff>
1.00

>  <CAS>
477494-65-8

>  <MW>
349.40

>  <Description>
solid

>  <FSP3>
0.50

>  <clogP>
1.69

>  <TPSA>
137.81

>  <Acceptor>
4

>  <Donor>
2

>  <RotBonds>
4

>  <HAC>
24

>  <Collection>
General

>  <PPDS>
+

$$$$
F0806-0417
  Mrv2219 10102508112D          

 29 32  0  0  0  0            999 V2000
   -0.8414   -0.9713    0.0000 C   0  0  0  0  0  0  0  0  0  0  0  0
   -1.6605   -1.0607    0.0000 C   0  0  0  0  0  0  0  0  0  0  0  0
    2.7436   -2.0812    0.0000 N   0  0  0  0  0  0  0  0  0  0  0  0
   -0.5057   -1.7232    0.0000 S   0  0  0  0  0  0  0  0  0  0  0  0
   -1.8261   -1.8843    0.0000 C   0  0  0  0  0  0  0  0  0  0  0  0
   -0.4297   -0.2685    0.0000 N   0  0  0  0  0  0  0  0  0  0  0  0
   -1.1099   -2.2960    0.0000 C   0  0  0  0  0  0  0  0  0  0  0  0
    1.9917   -1.7769    0.0000 C   0  0  0  0  0  0  0  0  0  0  0  0
    0.3939   -0.2685    0.0000 C   0  0  0  0  0  0  0  0  0  0  0  0
    3.2807   -1.4501    0.0000 C   0  0  0  0  0  0  0  0  0  0  0  0
    3.1733   -2.7794    0.0000 C   0  0  0  0  0  0  0  0  0  0  0  0
   -2.1841   -0.4476    0.0000 C   0  0  0  0  0  0  0  0  0  0  0  0
    1.5889   -1.0384    0.0000 C   0  0  0  0  0  0  0  0  0  0  0  0
    0.7699   -1.0070    0.0000 C   0  0  0  0  0  0  0  0  0  0  0  0
    0.8370    0.4297    0.0000 O   0  0  0  0  0  0  0  0  0  0  0  0
    4.0461   -1.7769    0.0000 C   0  0  0  0  0  0  0  0  0  0  0  0
    3.9924   -2.5557    0.0000 C   0  0  0  0  0  0  0  0  0  0  0  0
    3.1017   -0.6087    0.0000 O   0  0  0  0  0  0  0  0  0  0  0  0
    2.8779   -3.5761    0.0000 O   0  0  0  0  0  0  0  0  0  0  0  0
   -1.9827    0.3983    0.0000 O   0  0  0  0  0  0  0  0  0  0  0  0
   -2.9360   -0.6490    0.0000 N   0  0  0  0  0  0  0  0  0  0  0  0
   -2.5914   -2.1886    0.0000 C   0  0  0  0  0  0  0  0  0  0  0  0
    1.5575   -2.4706    0.0000 C   0  0  0  0  0  0  0  0  0  0  0  0
   -0.9891   -3.1017    0.0000 C   0  0  0  0  0  0  0  0  0  0  0  0
    0.3402   -1.6963    0.0000 C   0  0  0  0  0  0  0  0  0  0  0  0
    0.7385   -2.4483    0.0000 C   0  0  0  0  0  0  0  0  0  0  0  0
   -2.8286   -2.9943    0.0000 C   0  0  0  0  0  0  0  0  0  0  0  0
   -1.5396   -3.7238    0.0000 C   0  0  0  0  0  0  0  0  0  0  0  0
   -2.3766   -3.6522    0.0000 C   0  0  0  0  0  0  0  0  0  0  0  0
  2  1  2  0  0  0  0
  3  8  1  0  0  0  0
  4  1  1  0  0  0  0
  5  2  1  0  0  0  0
  6  1  1  0  0  0  0
  7  4  1  0  0  0  0
  8 13  2  0  0  0  0
  9  6  1  0  0  0  0
 10  3  1  0  0  0  0
 11  3  1  0  0  0  0
 12  2  1  0  0  0  0
 13 14  1  0  0  0  0
 14  9  1  0  0  0  0
 15  9  2  0  0  0  0
 16 10  1  0  0  0  0
 17 11  1  0  0  0  0
 18 10  2  0  0  0  0
 19 11  2  0  0  0  0
 20 12  2  0  0  0  0
 21 12  1  0  0  0  0
 22  5  1  0  0  0  0
 23 26  2  0  0  0  0
 24  7  1  0  0  0  0
 25 14  2  0  0  0  0
 26 25  1  0  0  0  0
 27 22  1  0  0  0  0
 28 24  1  0  0  0  0
 29 28  1  0  0  0  0
  5  7  2  0  0  0  0
 29 27  1  0  0  0  0
 23  8  1  0  0  0  0
 17 16  1  0  0  0  0
M  END
>  <IDNUMBER>
F0806-0417

>  <Chemical_Name>
2-[3-(2,5-dioxopyrrolidin-1-yl)benzamido]-4H,5H,6H,7H,8H-cyclohepta[b]thiophene-3-carboxamide

>  <PriceCoeff>
1.00

>  <CAS>
477494-67-0

>  <MW>
411.47

>  <Description>
solid

>  <FSP3>
0.33

>  <clogP>
1.87

>  <TPSA>
137.81

>  <Acceptor>
4

>  <Donor>
2

>  <RotBonds>
4

>  <HAC>
29

>  <Collection>
General

>  <PPDS>
+

$$$$
F0806-0876
  Mrv2219 10102508112D          

 27 29  0  0  0  0            999 V2000
    1.9507   -0.2058    0.0000 N   0  0  0  0  0  0  0  0  0  0  0  0
    2.5323    0.3640    0.0000 C   0  0  0  0  0  0  0  0  0  0  0  0
    2.3622   -0.9061    0.0000 C   0  0  0  0  0  0  0  0  0  0  0  0
   -1.3255    0.2374    0.0000 C   0  0  0  0  0  0  0  0  0  0  0  0
   -1.8518   -0.4076    0.0000 N   0  0  0  0  0  0  0  0  0  0  0  0
   -5.3772   -3.4186    0.0000 N   0  0  0  0  0  0  0  0  0  0  0  0
    1.1395   -0.0990    0.0000 C   0  0  0  0  0  0  0  0  0  0  0  0
   -2.6549   -0.2730    0.0000 C   0  0  0  0  0  0  0  0  0  0  0  0
   -4.8272   -2.7816    0.0000 C   0  0  0  0  0  0  0  0  0  0  0  0
   -0.5064    0.1385    0.0000 C   0  0  0  0  0  0  0  0  0  0  0  0
   -1.6262    0.9971    0.0000 O   0  0  0  0  0  0  0  0  0  0  0  0
    3.2643    0.0198    0.0000 C   0  0  0  0  0  0  0  0  0  0  0  0
    3.1496   -0.7597    0.0000 C   0  0  0  0  0  0  0  0  0  0  0  0
    2.3780    1.2345    0.0000 O   0  0  0  0  0  0  0  0  0  0  0  0
    2.0219   -1.7252    0.0000 O   0  0  0  0  0  0  0  0  0  0  0  0
   -3.1812   -0.9180    0.0000 C   0  0  0  0  0  0  0  0  0  0  0  0
    0.8230    0.6607    0.0000 C   0  0  0  0  0  0  0  0  0  0  0  0
    0.6173   -0.7478    0.0000 C   0  0  0  0  0  0  0  0  0  0  0  0
   -0.2097   -0.6212    0.0000 C   0  0  0  0  0  0  0  0  0  0  0  0
    0.0040    0.7794    0.0000 C   0  0  0  0  0  0  0  0  0  0  0  0
   -2.9161   -1.6896    0.0000 S   0  0  0  0  0  0  0  0  0  0  0  0
   -4.2693   -2.1406    0.0000 C   0  0  0  0  0  0  0  0  0  0  0  0
   -2.9557    0.5064    0.0000 C   0  0  0  0  0  0  0  0  0  0  0  0
   -3.4502   -2.3068    0.0000 C   0  0  0  0  0  0  0  0  0  0  0  0
   -3.9844   -0.8072    0.0000 C   0  0  0  0  0  0  0  0  0  0  0  0
   -3.7589    0.6370    0.0000 C   0  0  0  0  0  0  0  0  0  0  0  0
   -4.2930   -0.0277    0.0000 C   0  0  0  0  0  0  0  0  0  0  0  0
  2  1  1  0  0  0  0
  3  1  1  0  0  0  0
  4 10  1  0  0  0  0
  5  4  1  0  0  0  0
  6  9  3  0  0  0  0
  7  1  1  0  0  0  0
  8  5  1  0  0  0  0
  9 22  1  0  0  0  0
 10 19  2  0  0  0  0
 11  4  2  0  0  0  0
 12  2  1  0  0  0  0
 13  3  1  0  0  0  0
 14  2  2  0  0  0  0
 15  3  2  0  0  0  0
 16  8  2  0  0  0  0
 17  7  1  0  0  0  0
 18  7  2  0  0  0  0
 19 18  1  0  0  0  0
 20 17  2  0  0  0  0
 21 16  1  0  0  0  0
 22 24  1  0  0  0  0
 23  8  1  0  0  0  0
 24 21  1  0  0  0  0
 25 16  1  0  0  0  0
 26 23  2  0  0  0  0
 27 26  1  0  0  0  0
 13 12  1  0  0  0  0
 10 20  1  0  0  0  0
 25 27  2  0  0  0  0
M  END
>  <IDNUMBER>
F0806-0876

>  <Chemical_Name>
N-{2-[(2-cyanoethyl)sulfanyl]phenyl}-4-(2,5-dioxopyrrolidin-1-yl)benzamide

>  <PriceCoeff>
1.00

>  <MW>
379.43

>  <Description>
solid

>  <FSP3>
0.20

>  <clogP>
0.46

>  <TPSA>
139.31

>  <Acceptor>
4

>  <Donor>
1

>  <RotBonds>
6

>  <HAC>
27

>  <Collection>
General

$$$$
F0807-0134
  Mrv2219 10102508112D          

 22 23  0  0  0  0            999 V2000
   -0.9421    0.1485    0.0000 N   0  0  0  0  0  0  0  0  0  0  0  0
   -1.3588   -0.5653    0.0000 C   0  0  0  0  0  0  0  0  0  0  0  0
   -0.1051    0.1485    0.0000 C   0  0  0  0  0  0  0  0  0  0  0  0
   -2.1741   -0.5653    0.0000 C   0  0  0  0  0  0  0  0  0  0  0  0
    2.3626    0.1485    0.0000 N   0  0  0  0  0  0  0  0  0  0  0  0
   -0.9421   -1.2755    0.0000 C   0  0  0  0  0  0  0  0  0  0  0  0
    0.3080   -0.5653    0.0000 N   0  0  0  0  0  0  0  0  0  0  0  0
    0.3080    0.8660    0.0000 S   0  0  0  0  0  0  0  0  0  0  0  0
    4.0149    0.1485    0.0000 O   0  0  0  0  0  0  0  0  0  0  0  0
   -1.3588   -1.9893    0.0000 C   0  0  0  0  0  0  0  0  0  0  0  0
   -2.5944   -1.2755    0.0000 C   0  0  0  0  0  0  0  0  0  0  0  0
   -2.1741   -1.9893    0.0000 C   0  0  0  0  0  0  0  0  0  0  0  0
   -0.1268   -1.2755    0.0000 O   0  0  0  0  0  0  0  0  0  0  0  0
    1.1305   -0.5653    0.0000 C   0  0  0  0  0  0  0  0  0  0  0  0
    1.5473    0.1485    0.0000 C   0  0  0  0  0  0  0  0  0  0  0  0
   -3.4097   -1.2755    0.0000 O   0  0  0  0  0  0  0  0  0  0  0  0
    2.7829   -0.5653    0.0000 C   0  0  0  0  0  0  0  0  0  0  0  0
    2.7829    0.8660    0.0000 C   0  0  0  0  0  0  0  0  0  0  0  0
    3.5982   -0.5653    0.0000 C   0  0  0  0  0  0  0  0  0  0  0  0
    3.5982    0.8660    0.0000 C   0  0  0  0  0  0  0  0  0  0  0  0
    0.2935   -1.9893    0.0000 C   0  0  0  0  0  0  0  0  0  0  0  0
   -3.8337   -0.5653    0.0000 C   0  0  0  0  0  0  0  0  0  0  0  0
  2  1  1  0  0  0  0
  3  1  2  0  0  0  0
  4  2  1  0  0  0  0
  5 15  1  0  0  0  0
  6  2  2  0  0  0  0
  7  3  1  0  0  0  0
  8  3  1  0  0  0  0
  9 20  1  0  0  0  0
 10  6  1  0  0  0  0
 11  4  2  0  0  0  0
 12 10  2  0  0  0  0
 13  6  1  0  0  0  0
 14  7  1  0  0  0  0
 15 14  1  0  0  0  0
 16 11  1  0  0  0  0
 17  5  1  0  0  0  0
 18  5  1  0  0  0  0
 19 17  1  0  0  0  0
 20 18  1  0  0  0  0
 21 13  1  0  0  0  0
 22 16  1  0  0  0  0
 12 11  1  0  0  0  0
 19  9  1  0  0  0  0
M  END
>  <IDNUMBER>
F0807-0134

>  <Chemical_Name>
(E)-N'-(2,5-dimethoxyphenyl)-N-[2-(morpholin-4-yl)ethyl]carbamimidothioic acid

>  <PriceCoeff>
1.00

>  <CAS>
326016-25-5

>  <MW>
325.43

>  <Description>
solid

>  <FSP3>
0.53

>  <clogP>
1.12

>  <TPSA>
94.12

>  <Acceptor>
3

>  <Donor>
4

>  <RotBonds>
7

>  <HAC>
22

>  <Collection>
General

>  <PPDS>
+

$$$$
F0807-0406
  Mrv2219 10102508112D          

 14 15  0  0  0  0            999 V2000
   -1.2668    0.1525    0.0000 C   0  0  0  0  0  0  0  0  0  0  0  0
   -1.2668    0.9813    0.0000 C   0  0  0  0  0  0  0  0  0  0  0  0
   -1.9823   -0.2815    0.0000 N   0  0  0  0  0  0  0  0  0  0  0  0
   -2.6938    0.9813    0.0000 N   0  0  0  0  0  0  0  0  0  0  0  0
   -2.6938    0.1525    0.0000 C   0  0  0  0  0  0  0  0  0  0  0  0
   -1.9823    1.3919    0.0000 C   0  0  0  0  0  0  0  0  0  0  0  0
   -0.5004   -0.1095    0.0000 N   0  0  0  0  0  0  0  0  0  0  0  0
   -0.5004    1.2199    0.0000 N   0  0  0  0  0  0  0  0  0  0  0  0
   -0.0312    0.5630    0.0000 C   0  0  0  0  0  0  0  0  0  0  0  0
   -3.4250   -0.2815    0.0000 O   0  0  0  0  0  0  0  0  0  0  0  0
   -1.9823    2.2169    0.0000 O   0  0  0  0  0  0  0  0  0  0  0  0
   -1.9823   -1.1065    0.0000 C   0  0  0  0  0  0  0  0  0  0  0  0
    0.8133    0.5630    0.0000 Br  0  0  0  0  0  0  0  0  0  0  0  0
   -3.4250    1.3919    0.0000 C   0  0  0  0  0  0  0  0  0  0  0  0
  2  1  2  0  0  0  0
  3  1  1  0  0  0  0
  4  5  1  0  0  0  0
  5  3  1  0  0  0  0
  6  2  1  0  0  0  0
  7  1  1  0  0  0  0
  8  2  1  0  0  0  0
  9  7  1  0  0  0  0
 10  5  2  0  0  0  0
 11  6  2  0  0  0  0
 12  3  1  0  0  0  0
 13  9  1  0  0  0  0
 14  4  1  0  0  0  0
  9  8  2  0  0  0  0
  4  6  1  0  0  0  0
M  END
>  <IDNUMBER>
F0807-0406

>  <Chemical_Name>
8-bromo-1,3-dimethyl-2,3,6,9-tetrahydro-1H-purine-2,6-dione

>  <PriceCoeff>
1.00

>  <CAS>
10381-75-6

>  <MW>
259.06

>  <Description>
solid

>  <FSP3>
0.29

>  <clogP>
-0.28

>  <TPSA>
69.30

>  <Acceptor>
4

>  <Donor>
2

>  <RotBonds>
0

>  <HAC>
14

>  <Collection>
General

>  <PPDS>
+

$$$$
F0807-0474
  Mrv2219 10102508112D          

 22 23  0  0  0  0            999 V2000
   -0.9464    0.3978    0.0000 N   0  0  0  0  0  0  0  0  0  0  0  0
   -2.1838    1.1158    0.0000 N   0  0  0  0  0  0  0  0  0  0  0  0
   -2.1838   -0.3131    0.0000 N   0  0  0  0  0  0  0  0  0  0  0  0
   -1.3700    1.0900    0.0000 C   0  0  0  0  0  0  0  0  0  0  0  0
   -2.6036    0.4088    0.0000 C   0  0  0  0  0  0  0  0  0  0  0  0
   -1.3662   -0.3241    0.0000 C   0  0  0  0  0  0  0  0  0  0  0  0
   -0.9574    1.8081    0.0000 S   0  0  0  0  0  0  0  0  0  0  0  0
    0.2799    2.5152    0.0000 C   0  0  0  0  0  0  0  0  0  0  0  0
   -0.1178    1.8081    0.0000 C   0  0  0  0  0  0  0  0  0  0  0  0
   -0.9574   -1.0422    0.0000 N   0  0  0  0  0  0  0  0  0  0  0  0
   -3.4432    0.4088    0.0000 N   0  0  0  0  0  0  0  0  0  0  0  0
   -0.1289    3.2260    0.0000 O   0  0  0  0  0  0  0  0  0  0  0  0
    1.1048    2.5042    0.0000 C   0  0  0  0  0  0  0  0  0  0  0  0
   -3.8631    1.1158    0.0000 C   0  0  0  0  0  0  0  0  0  0  0  0
   -1.3700   -1.7566    0.0000 C   0  0  0  0  0  0  0  0  0  0  0  0
    1.5173    3.2222    0.0000 C   0  0  0  0  0  0  0  0  0  0  0  0
    1.5063    1.7860    0.0000 C   0  0  0  0  0  0  0  0  0  0  0  0
   -4.7027    1.1158    0.0000 C   0  0  0  0  0  0  0  0  0  0  0  0
   -0.9722   -2.4563    0.0000 C   0  0  0  0  0  0  0  0  0  0  0  0
    2.3311    1.7860    0.0000 C   0  0  0  0  0  0  0  0  0  0  0  0
    2.3459    3.2112    0.0000 C   0  0  0  0  0  0  0  0  0  0  0  0
    2.7547    2.4931    0.0000 C   0  0  0  0  0  0  0  0  0  0  0  0
  2  4  2  0  0  0  0
  3  6  1  0  0  0  0
  4  1  1  0  0  0  0
  5  3  2  0  0  0  0
  6  1  2  0  0  0  0
  7  4  1  0  0  0  0
  8  9  1  0  0  0  0
  9  7  1  0  0  0  0
 10  6  1  0  0  0  0
 11  5  1  0  0  0  0
 12  8  2  0  0  0  0
 13  8  1  0  0  0  0
 14 11  1  0  0  0  0
 15 10  1  0  0  0  0
 16 13  2  0  0  0  0
 17 13  1  0  0  0  0
 18 14  1  0  0  0  0
 19 15  1  0  0  0  0
 20 17  2  0  0  0  0
 21 16  1  0  0  0  0
 22 20  1  0  0  0  0
  5  2  1  0  0  0  0
 21 22  2  0  0  0  0
M  END
>  <IDNUMBER>
F0807-0474

>  <Chemical_Name>
2-{[4,6-bis(ethylamino)-1,3,5-triazin-2-yl]sulfanyl}-1-phenylethan-1-one

>  <PriceCoeff>
1.00

>  <CAS>
324578-53-2

>  <MW>
317.41

>  <Description>
solid

>  <FSP3>
0.33

>  <clogP>
3.85

>  <TPSA>
105.10

>  <Acceptor>
4

>  <Donor>
2

>  <RotBonds>
8

>  <HAC>
22

>  <Collection>
General

>  <PPDS>
+

$$$$
F0808-0002
  Mrv2219 10102508112D          

 21 22  0  0  0  0            999 V2000
   -2.7387    0.8495    0.0000 S   0  0  0  0  0  0  0  0  0  0  0  0
   -1.9260    1.0290    0.0000 N   0  0  0  0  0  0  0  0  0  0  0  0
   -0.2533   -0.7968    0.0000 C   0  0  0  0  0  0  0  0  0  0  0  0
   -1.0395   -0.9498    0.0000 C   0  0  0  0  0  0  0  0  0  0  0  0
    0.0000   -0.0053    0.0000 C   0  0  0  0  0  0  0  0  0  0  0  0
   -1.3719    0.4221    0.0000 C   0  0  0  0  0  0  0  0  0  0  0  0
   -3.5460    0.6491    0.0000 C   0  0  0  0  0  0  0  0  0  0  0  0
   -0.5646    0.5962    0.0000 C   0  0  0  0  0  0  0  0  0  0  0  0
   -1.5989   -0.3641    0.0000 C   0  0  0  0  0  0  0  0  0  0  0  0
   -2.9128    1.6622    0.0000 O   0  0  0  0  0  0  0  0  0  0  0  0
   -2.5329    0.0158    0.0000 O   0  0  0  0  0  0  0  0  0  0  0  0
   -3.7782   -0.1636    0.0000 C   0  0  0  0  0  0  0  0  0  0  0  0
   -4.1106    1.2295    0.0000 C   0  0  0  0  0  0  0  0  0  0  0  0
    0.8074    0.2163    0.0000 Cl  0  0  0  0  0  0  0  0  0  0  0  0
   -1.2664   -1.7308    0.0000 Cl  0  0  0  0  0  0  0  0  0  0  0  0
    0.3008   -1.3984    0.0000 O   0  0  0  0  0  0  0  0  0  0  0  0
   -5.1238    0.2480    0.0000 C   0  0  0  0  0  0  0  0  0  0  0  0
   -4.5592   -0.3641    0.0000 C   0  0  0  0  0  0  0  0  0  0  0  0
   -4.9180    1.0078    0.0000 C   0  0  0  0  0  0  0  0  0  0  0  0
   -5.9628    0.0422    0.0000 O   0  0  0  0  0  0  0  0  0  0  0  0
   -6.4852    0.6754    0.0000 C   0  0  0  0  0  0  0  0  0  0  0  0
  2  1  1  0  0  0  0
  3  4  2  0  0  0  0
  4  9  1  0  0  0  0
  5  8  2  0  0  0  0
  6  2  1  0  0  0  0
  7  1  1  0  0  0  0
  8  6  1  0  0  0  0
  9  6  2  0  0  0  0
 10  1  2  0  0  0  0
 11  1  2  0  0  0  0
 12  7  2  0  0  0  0
 13  7  1  0  0  0  0
 14  5  1  0  0  0  0
 15  4  1  0  0  0  0
 16  3  1  0  0  0  0
 17 19  1  0  0  0  0
 18 12  1  0  0  0  0
 19 13  2  0  0  0  0
 20 17  1  0  0  0  0
 21 20  1  0  0  0  0
 18 17  2  0  0  0  0
  5  3  1  0  0  0  0
M  END
>  <IDNUMBER>
F0808-0002

>  <Chemical_Name>
N-(3,5-dichloro-4-hydroxyphenyl)-4-methoxybenzene-1-sulfonamide

>  <PriceCoeff>
1.00

>  <CAS>
321577-31-5

>  <MW>
348.20

>  <Description>
solid

>  <FSP3>
0.08

>  <clogP>
3.28

>  <TPSA>
84.01

>  <Acceptor>
5

>  <Donor>
2

>  <RotBonds>
4

>  <HAC>
21

>  <Collection>
General

>  <PPDS>
+

$$$$
F0808-0260
  Mrv2219 10102508112D          

 24 26  0  0  0  0            999 V2000
    0.2750    0.4400    0.0000 S   0  0  0  0  0  0  0  0  0  0  0  0
    1.9250    0.4400    0.0000 C   0  0  0  0  0  0  0  0  0  0  0  0
    1.1000    0.4400    0.0000 N   0  0  0  0  0  0  0  0  0  0  0  0
    2.3284    1.1550    0.0000 C   0  0  0  0  0  0  0  0  0  0  0  0
    3.1534    1.1550    0.0000 C   0  0  0  0  0  0  0  0  0  0  0  0
    3.5750    0.4400    0.0000 C   0  0  0  0  0  0  0  0  0  0  0  0
    2.3284   -0.2613    0.0000 C   0  0  0  0  0  0  0  0  0  0  0  0
    3.1534   -0.2613    0.0000 C   0  0  0  0  0  0  0  0  0  0  0  0
   -0.5454    0.4400    0.0000 C   0  0  0  0  0  0  0  0  0  0  0  0
    0.2750   -0.3713    0.0000 O   0  0  0  0  0  0  0  0  0  0  0  0
    0.2796    1.2650    0.0000 O   0  0  0  0  0  0  0  0  0  0  0  0
    1.9250    1.8700    0.0000 Cl  0  0  0  0  0  0  0  0  0  0  0  0
    3.5750    1.8700    0.0000 Cl  0  0  0  0  0  0  0  0  0  0  0  0
   -0.9579   -0.2613    0.0000 C   0  0  0  0  0  0  0  0  0  0  0  0
   -0.9487    1.1687    0.0000 C   0  0  0  0  0  0  0  0  0  0  0  0
    4.4000    0.4400    0.0000 O   0  0  0  0  0  0  0  0  0  0  0  0
   -1.7829    1.1687    0.0000 C   0  0  0  0  0  0  0  0  0  0  0  0
   -1.7829   -0.2613    0.0000 C   0  0  0  0  0  0  0  0  0  0  0  0
   -2.1954    0.4537    0.0000 C   0  0  0  0  0  0  0  0  0  0  0  0
    1.9250   -0.9762    0.0000 C   0  0  0  0  0  0  0  0  0  0  0  0
    3.5750   -0.9762    0.0000 C   0  0  0  0  0  0  0  0  0  0  0  0
   -3.0250    0.4354    0.0000 C   0  0  0  0  0  0  0  0  0  0  0  0
    3.1534   -1.6912    0.0000 C   0  0  0  0  0  0  0  0  0  0  0  0
    2.3284   -1.6912    0.0000 C   0  0  0  0  0  0  0  0  0  0  0  0
  2  3  1  0  0  0  0
  3  1  1  0  0  0  0
  4  2  2  0  0  0  0
  5  4  1  0  0  0  0
  6  8  1  0  0  0  0
  7  2  1  0  0  0  0
  8  7  1  0  0  0  0
  9  1  1  0  0  0  0
 10  1  2  0  0  0  0
 11  1  2  0  0  0  0
 12  4  1  0  0  0  0
 13  5  1  0  0  0  0
 14  9  2  0  0  0  0
 15  9  1  0  0  0  0
 16  6  1  0  0  0  0
 17 15  2  0  0  0  0
 18 14  1  0  0  0  0
 19 17  1  0  0  0  0
 20  7  2  0  0  0  0
 21  8  2  0  0  0  0
 22 19  1  0  0  0  0
 23 24  2  0  0  0  0
 24 20  1  0  0  0  0
 18 19  2  0  0  0  0
  5  6  2  0  0  0  0
 21 23  1  0  0  0  0
M  END
>  <IDNUMBER>
F0808-0260

>  <Chemical_Name>
N-(2,3-dichloro-4-hydroxynaphthalen-1-yl)-4-methylbenzene-1-sulfonamide

>  <PriceCoeff>
1.00

>  <CAS>
178970-84-8

>  <MW>
382.26

>  <Description>
solid

>  <FSP3>
0.06

>  <clogP>
4.48

>  <TPSA>
74.78

>  <Acceptor>
4

>  <Donor>
2

>  <RotBonds>
3

>  <HAC>
24

>  <Collection>
General

>  <PPDS>
+

$$$$
F0808-0261
  Mrv2219 10102508112D          

 23 25  0  0  0  0            999 V2000
    0.2750    0.4400    0.0000 S   0  0  0  0  0  0  0  0  0  0  0  0
    1.9250    0.4400    0.0000 C   0  0  0  0  0  0  0  0  0  0  0  0
    1.1000    0.4400    0.0000 N   0  0  0  0  0  0  0  0  0  0  0  0
    2.3284    1.1550    0.0000 C   0  0  0  0  0  0  0  0  0  0  0  0
    3.1534    1.1550    0.0000 C   0  0  0  0  0  0  0  0  0  0  0  0
    3.5750    0.4400    0.0000 C   0  0  0  0  0  0  0  0  0  0  0  0
    2.3284   -0.2613    0.0000 C   0  0  0  0  0  0  0  0  0  0  0  0
    3.1534   -0.2613    0.0000 C   0  0  0  0  0  0  0  0  0  0  0  0
    0.2750   -0.3713    0.0000 O   0  0  0  0  0  0  0  0  0  0  0  0
    0.2796    1.2650    0.0000 O   0  0  0  0  0  0  0  0  0  0  0  0
   -0.5454    0.4400    0.0000 C   0  0  0  0  0  0  0  0  0  0  0  0
    1.9250    1.8700    0.0000 Cl  0  0  0  0  0  0  0  0  0  0  0  0
    3.5750    1.8700    0.0000 Cl  0  0  0  0  0  0  0  0  0  0  0  0
    4.4000    0.4400    0.0000 O   0  0  0  0  0  0  0  0  0  0  0  0
    1.9250   -0.9762    0.0000 C   0  0  0  0  0  0  0  0  0  0  0  0
    3.5750   -0.9762    0.0000 C   0  0  0  0  0  0  0  0  0  0  0  0
   -0.9487    1.1687    0.0000 C   0  0  0  0  0  0  0  0  0  0  0  0
   -0.9579   -0.2613    0.0000 C   0  0  0  0  0  0  0  0  0  0  0  0
    3.1534   -1.6912    0.0000 C   0  0  0  0  0  0  0  0  0  0  0  0
    2.3284   -1.6912    0.0000 C   0  0  0  0  0  0  0  0  0  0  0  0
   -1.7829    1.1687    0.0000 C   0  0  0  0  0  0  0  0  0  0  0  0
   -1.7829   -0.2613    0.0000 C   0  0  0  0  0  0  0  0  0  0  0  0
   -2.1954    0.4537    0.0000 C   0  0  0  0  0  0  0  0  0  0  0  0
  2  3  1  0  0  0  0
  3  1  1  0  0  0  0
  4  2  2  0  0  0  0
  5  4  1  0  0  0  0
  6  8  1  0  0  0  0
  7  2  1  0  0  0  0
  8  7  1  0  0  0  0
  9  1  2  0  0  0  0
 10  1  2  0  0  0  0
 11  1  1  0  0  0  0
 12  4  1  0  0  0  0
 13  5  1  0  0  0  0
 14  6  1  0  0  0  0
 15  7  2  0  0  0  0
 16  8  2  0  0  0  0
 17 11  1  0  0  0  0
 18 11  2  0  0  0  0
 19 20  2  0  0  0  0
 20 15  1  0  0  0  0
 21 17  2  0  0  0  0
 22 18  1  0  0  0  0
 23 22  2  0  0  0  0
 23 21  1  0  0  0  0
  6  5  2  0  0  0  0
 19 16  1  0  0  0  0
M  END
>  <IDNUMBER>
F0808-0261

>  <Chemical_Name>
N-(2,3-dichloro-4-hydroxynaphthalen-1-yl)benzenesulfonamide

>  <PriceCoeff>
1.00

>  <CAS>
178970-83-7

>  <MW>
368.23

>  <Description>
solid

>  <FSP3>
0.00

>  <clogP>
3.98

>  <TPSA>
74.78

>  <Acceptor>
4

>  <Donor>
2

>  <RotBonds>
3

>  <HAC>
23

>  <Collection>
General

>  <PPDS>
+

$$$$
F0808-0278
  Mrv2219 10102508112D          

 21 22  0  0  0  0            999 V2000
   -1.7455    0.4410    0.0000 S   0  0  0  0  0  0  0  0  0  0  0  0
   -0.9325    0.4410    0.0000 N   0  0  0  0  0  0  0  0  0  0  0  0
   -2.5724    0.4410    0.0000 C   0  0  0  0  0  0  0  0  0  0  0  0
   -1.7455   -0.3721    0.0000 O   0  0  0  0  0  0  0  0  0  0  0  0
   -1.7455    1.2678    0.0000 O   0  0  0  0  0  0  0  0  0  0  0  0
    0.7212   -0.9693    0.0000 C   0  0  0  0  0  0  0  0  0  0  0  0
    0.3078   -0.2618    0.0000 C   0  0  0  0  0  0  0  0  0  0  0  0
   -0.5099   -0.2618    0.0000 C   0  0  0  0  0  0  0  0  0  0  0  0
    0.3170   -1.6950    0.0000 C   0  0  0  0  0  0  0  0  0  0  0  0
   -4.2398    0.4410    0.0000 C   0  0  0  0  0  0  0  0  0  0  0  0
   -2.9904   -0.2618    0.0000 C   0  0  0  0  0  0  0  0  0  0  0  0
   -2.9904    1.1576    0.0000 C   0  0  0  0  0  0  0  0  0  0  0  0
   -3.8173   -0.2618    0.0000 C   0  0  0  0  0  0  0  0  0  0  0  0
   -3.8173    1.1576    0.0000 C   0  0  0  0  0  0  0  0  0  0  0  0
   -0.4961   -1.6950    0.0000 C   0  0  0  0  0  0  0  0  0  0  0  0
    1.5481   -0.9693    0.0000 Cl  0  0  0  0  0  0  0  0  0  0  0  0
   -0.9187   -0.9784    0.0000 C   0  0  0  0  0  0  0  0  0  0  0  0
   -5.1080    0.4226    0.0000 C   0  0  0  0  0  0  0  0  0  0  0  0
    0.7212   -2.4025    0.0000 O   0  0  0  0  0  0  0  0  0  0  0  0
   -5.5352    1.1254    0.0000 C   0  0  0  0  0  0  0  0  0  0  0  0
   -5.5077   -0.2940    0.0000 C   0  0  0  0  0  0  0  0  0  0  0  0
  2  1  1  0  0  0  0
  3  1  1  0  0  0  0
  4  1  2  0  0  0  0
  5  1  2  0  0  0  0
  6  7  1  0  0  0  0
  7  8  2  0  0  0  0
  8  2  1  0  0  0  0
  9 15  1  0  0  0  0
 10 14  1  0  0  0  0
 11  3  2  0  0  0  0
 12  3  1  0  0  0  0
 13 11  1  0  0  0  0
 14 12  2  0  0  0  0
 15 17  2  0  0  0  0
 16  6  1  0  0  0  0
 17  8  1  0  0  0  0
 18 10  1  0  0  0  0
 19  9  1  0  0  0  0
 20 18  1  0  0  0  0
 21 18  1  0  0  0  0
 13 10  2  0  0  0  0
  6  9  2  0  0  0  0
M  END
>  <IDNUMBER>
F0808-0278

>  <Chemical_Name>
N-(3-chloro-4-hydroxyphenyl)-4-(propan-2-yl)benzene-1-sulfonamide

>  <PriceCoeff>
1.00

>  <CAS>
301314-34-1

>  <MW>
325.81

>  <Description>
solid

>  <FSP3>
0.20

>  <clogP>
4.08

>  <TPSA>
74.78

>  <Acceptor>
4

>  <Donor>
2

>  <RotBonds>
4

>  <HAC>
21

>  <Collection>
General

>  <PPDS>
+

$$$$
F0808-0453
  Mrv2219 10102508112D          

 19 20  0  0  0  0            999 V2000
   -0.2534    2.0706    0.0000 S   0  0  0  0  0  0  0  0  0  0  0  0
   -1.0784    2.0706    0.0000 N   0  0  0  0  0  0  0  0  0  0  0  0
   -1.4882    1.3750    0.0000 C   0  0  0  0  0  0  0  0  0  0  0  0
   -2.3240    1.3750    0.0000 N   0  0  0  0  0  0  0  0  0  0  0  0
    0.5824    2.0706    0.0000 C   0  0  0  0  0  0  0  0  0  0  0  0
   -1.2563    0.5985    0.0000 S   0  0  0  0  0  0  0  0  0  0  0  0
   -0.2534    2.9063    0.0000 O   0  0  0  0  0  0  0  0  0  0  0  0
   -0.2534    1.2456    0.0000 O   0  0  0  0  0  0  0  0  0  0  0  0
    3.0628    2.0706    0.0000 C   0  0  0  0  0  0  0  0  0  0  0  0
    2.2378    2.0706    0.0000 C   0  0  0  0  0  0  0  0  0  0  0  0
   -2.5504    0.5985    0.0000 C   0  0  0  0  0  0  0  0  0  0  0  0
   -1.9357    0.1078    0.0000 C   0  0  0  0  0  0  0  0  0  0  0  0
    0.9922    1.3750    0.0000 C   0  0  0  0  0  0  0  0  0  0  0  0
    0.9922    2.7985    0.0000 C   0  0  0  0  0  0  0  0  0  0  0  0
    1.8172    2.7985    0.0000 C   0  0  0  0  0  0  0  0  0  0  0  0
    1.8172    1.3750    0.0000 C   0  0  0  0  0  0  0  0  0  0  0  0
    3.8878    2.0706    0.0000 C   0  0  0  0  0  0  0  0  0  0  0  0
    3.0628    2.9063    0.0000 C   0  0  0  0  0  0  0  0  0  0  0  0
    3.0628    1.2456    0.0000 C   0  0  0  0  0  0  0  0  0  0  0  0
  2  1  1  0  0  0  0
  3  2  1  0  0  0  0
  4  3  2  0  0  0  0
  5  1  1  0  0  0  0
  6  3  1  0  0  0  0
  7  1  2  0  0  0  0
  8  1  2  0  0  0  0
  9 10  1  0  0  0  0
 10 15  1  0  0  0  0
 11  4  1  0  0  0  0
 12  6  1  0  0  0  0
 13  5  2  0  0  0  0
 14  5  1  0  0  0  0
 15 14  2  0  0  0  0
 16 13  1  0  0  0  0
 17  9  1  0  0  0  0
 18  9  1  0  0  0  0
 19  9  1  0  0  0  0
 10 16  2  0  0  0  0
 12 11  2  0  0  0  0
M  END
>  <IDNUMBER>
F0808-0453

>  <Chemical_Name>
4-tert-butyl-N-(1,3-thiazol-2-yl)benzene-1-sulfonamide

>  <PriceCoeff>
1.00

>  <CAS>
305373-52-8

>  <MW>
296.41

>  <Description>
solid

>  <FSP3>
0.31

>  <clogP>
3.43

>  <TPSA>
95.68

>  <Acceptor>
3

>  <Donor>
1

>  <RotBonds>
3

>  <HAC>
19

>  <Collection>
General

>  <PPDS>
+

$$$$
F0808-0581
  Mrv2219 10102508112D          

 20 21  0  0  0  0            999 V2000
   -1.6890   -0.7445    0.0000 S   0  0  0  0  0  0  0  0  0  0  0  0
   -2.4797   -1.0217    0.0000 C   0  0  0  0  0  0  0  0  0  0  0  0
   -0.9035   -0.4775    0.0000 N   0  0  0  0  0  0  0  0  0  0  0  0
   -2.6286   -1.8328    0.0000 C   0  0  0  0  0  0  0  0  0  0  0  0
   -1.9663    0.0410    0.0000 O   0  0  0  0  0  0  0  0  0  0  0  0
   -1.4170   -1.5402    0.0000 O   0  0  0  0  0  0  0  0  0  0  0  0
    0.1848    1.4170    0.0000 C   0  0  0  0  0  0  0  0  0  0  0  0
    0.0360    0.6109    0.0000 C   0  0  0  0  0  0  0  0  0  0  0  0
   -3.1420   -0.4980    0.0000 C   0  0  0  0  0  0  0  0  0  0  0  0
   -0.7547    0.3337    0.0000 C   0  0  0  0  0  0  0  0  0  0  0  0
   -0.4569    1.9355    0.0000 C   0  0  0  0  0  0  0  0  0  0  0  0
   -3.3884   -2.1307    0.0000 C   0  0  0  0  0  0  0  0  0  0  0  0
   -1.1962    1.6890    0.0000 C   0  0  0  0  0  0  0  0  0  0  0  0
    0.6983    1.8482    0.0000 Cl  0  0  0  0  0  0  0  0  0  0  0  0
   -3.9069   -0.8009    0.0000 C   0  0  0  0  0  0  0  0  0  0  0  0
   -4.0301   -1.6070    0.0000 C   0  0  0  0  0  0  0  0  0  0  0  0
   -1.3708    0.8779    0.0000 C   0  0  0  0  0  0  0  0  0  0  0  0
   -0.3645    2.7724    0.0000 O   0  0  0  0  0  0  0  0  0  0  0  0
   -1.9355   -2.3001    0.0000 C   0  0  0  0  0  0  0  0  0  0  0  0
   -4.8208   -1.9098    0.0000 C   0  0  0  0  0  0  0  0  0  0  0  0
  2  1  1  0  0  0  0
  3  1  1  0  0  0  0
  4  2  2  0  0  0  0
  5  1  2  0  0  0  0
  6  1  2  0  0  0  0
  7  8  1  0  0  0  0
  8 10  2  0  0  0  0
  9  2  1  0  0  0  0
 10  3  1  0  0  0  0
 11 13  1  0  0  0  0
 12  4  1  0  0  0  0
 13 17  2  0  0  0  0
 14  7  1  0  0  0  0
 15  9  2  0  0  0  0
 16 15  1  0  0  0  0
 17 10  1  0  0  0  0
 18 11  1  0  0  0  0
 19  4  1  0  0  0  0
 20 16  1  0  0  0  0
 12 16  2  0  0  0  0
  7 11  2  0  0  0  0
M  END
>  <IDNUMBER>
F0808-0581

>  <Chemical_Name>
N-(3-chloro-4-hydroxyphenyl)-2,4-dimethylbenzene-1-sulfonamide

>  <PriceCoeff>
1.00

>  <MW>
311.78

>  <Description>
solid

>  <FSP3>
0.14

>  <clogP>
3.65

>  <TPSA>
74.78

>  <Acceptor>
4

>  <Donor>
2

>  <RotBonds>
3

>  <HAC>
20

>  <Collection>
General

$$$$
F0808-0637
  Mrv2219 10102508112D          

 20 21  0  0  0  0            999 V2000
   -1.7692   -0.6813    0.0000 S   0  0  0  0  0  0  0  0  0  0  0  0
   -2.5509   -0.9560    0.0000 C   0  0  0  0  0  0  0  0  0  0  0  0
   -0.9770   -0.3803    0.0000 N   0  0  0  0  0  0  0  0  0  0  0  0
   -1.4577   -1.4630    0.0000 O   0  0  0  0  0  0  0  0  0  0  0  0
   -2.0439    0.1268    0.0000 O   0  0  0  0  0  0  0  0  0  0  0  0
    0.1109    1.5210    0.0000 C   0  0  0  0  0  0  0  0  0  0  0  0
   -0.0422    0.7130    0.0000 C   0  0  0  0  0  0  0  0  0  0  0  0
   -0.8239    0.4383    0.0000 C   0  0  0  0  0  0  0  0  0  0  0  0
   -3.1635   -0.4490    0.0000 C   0  0  0  0  0  0  0  0  0  0  0  0
   -2.6776   -1.7745    0.0000 C   0  0  0  0  0  0  0  0  0  0  0  0
   -0.5492    2.0861    0.0000 C   0  0  0  0  0  0  0  0  0  0  0  0
   -1.3097    1.7745    0.0000 C   0  0  0  0  0  0  0  0  0  0  0  0
   -3.9452   -0.7341    0.0000 C   0  0  0  0  0  0  0  0  0  0  0  0
    0.8926    1.7745    0.0000 Cl  0  0  0  0  0  0  0  0  0  0  0  0
   -3.4645   -2.0756    0.0000 C   0  0  0  0  0  0  0  0  0  0  0  0
   -1.4577    0.9665    0.0000 C   0  0  0  0  0  0  0  0  0  0  0  0
   -4.0719   -1.5210    0.0000 C   0  0  0  0  0  0  0  0  0  0  0  0
   -0.3961    2.8941    0.0000 O   0  0  0  0  0  0  0  0  0  0  0  0
   -3.0050    0.3803    0.0000 C   0  0  0  0  0  0  0  0  0  0  0  0
   -3.5913   -2.8889    0.0000 C   0  0  0  0  0  0  0  0  0  0  0  0
  2  1  1  0  0  0  0
  3  1  1  0  0  0  0
  4  1  2  0  0  0  0
  5  1  2  0  0  0  0
  6  7  1  0  0  0  0
  7  8  2  0  0  0  0
  8  3  1  0  0  0  0
  9  2  1  0  0  0  0
 10  2  2  0  0  0  0
 11 12  1  0  0  0  0
 12 16  2  0  0  0  0
 13  9  2  0  0  0  0
 14  6  1  0  0  0  0
 15 10  1  0  0  0  0
 16  8  1  0  0  0  0
 17 15  2  0  0  0  0
 18 11  1  0  0  0  0
 19  9  1  0  0  0  0
 20 15  1  0  0  0  0
 13 17  1  0  0  0  0
 11  6  2  0  0  0  0
M  END
>  <IDNUMBER>
F0808-0637

>  <Chemical_Name>
N-(3-chloro-4-hydroxyphenyl)-2,5-dimethylbenzene-1-sulfonamide

>  <PriceCoeff>
1.00

>  <CAS>
333444-24-9

>  <MW>
311.78

>  <Description>
solid

>  <FSP3>
0.14

>  <clogP>
3.65

>  <TPSA>
74.78

>  <Acceptor>
4

>  <Donor>
2

>  <RotBonds>
3

>  <HAC>
20

>  <Collection>
General

>  <PPDS>
+

$$$$
F0808-1789
  Mrv2219 10102508112D          

 21 22  0  0  0  0            999 V2000
   -2.7183   -1.2906    0.0000 S   0  0  0  0  0  0  0  0  0  0  0  0
   -0.5876   -1.7134    0.0000 C   0  0  0  0  0  0  0  0  0  0  0  0
    0.1318   -1.2906    0.0000 N   0  3  0  0  0  0  0  0  0  0  0  0
   -3.4542   -0.8622    0.0000 N   0  0  0  0  0  0  0  0  0  0  0  0
   -1.2960   -1.2906    0.0000 C   0  0  0  0  0  0  0  0  0  0  0  0
   -2.0044   -1.7134    0.0000 C   0  0  0  0  0  0  0  0  0  0  0  0
   -3.4542   -0.0220    0.0000 C   0  0  0  0  0  0  0  0  0  0  0  0
   -2.3009   -0.5492    0.0000 O   0  0  0  0  0  0  0  0  0  0  0  0
   -3.1632   -1.9990    0.0000 O   0  0  0  0  0  0  0  0  0  0  0  0
   -0.5876   -2.5262    0.0000 C   0  0  0  0  0  0  0  0  0  0  0  0
    0.1318   -0.4668    0.0000 O   0  5  0  0  0  0  0  0  0  0  0  0
   -2.7183    0.3734    0.0000 C   0  0  0  0  0  0  0  0  0  0  0  0
   -4.1681    0.3734    0.0000 C   0  0  0  0  0  0  0  0  0  0  0  0
   -4.1681    1.2136    0.0000 C   0  0  0  0  0  0  0  0  0  0  0  0
   -2.7183    1.2136    0.0000 C   0  0  0  0  0  0  0  0  0  0  0  0
    0.8402   -1.6860    0.0000 O   0  0  0  0  0  0  0  0  0  0  0  0
   -3.4542    1.6090    0.0000 C   0  0  0  0  0  0  0  0  0  0  0  0
   -2.0044   -2.5262    0.0000 C   0  0  0  0  0  0  0  0  0  0  0  0
   -1.2960   -2.9490    0.0000 C   0  0  0  0  0  0  0  0  0  0  0  0
   -3.4542    2.4548    0.0000 O   0  0  0  0  0  0  0  0  0  0  0  0
    0.1318   -2.9490    0.0000 Cl  0  0  0  0  0  0  0  0  0  0  0  0
  2  5  1  0  0  0  0
  3  2  1  0  0  0  0
  4  1  1  0  0  0  0
  5  6  2  0  0  0  0
  6  1  1  0  0  0  0
  7  4  2  0  0  0  0
  8  1  2  0  0  0  0
  9  1  2  0  0  0  0
 10 19  1  0  0  0  0
 11  3  1  0  0  0  0
 12  7  1  0  0  0  0
 13  7  1  0  0  0  0
 14 13  2  0  0  0  0
 15 12  2  0  0  0  0
 16  3  2  0  0  0  0
 17 14  1  0  0  0  0
 18  6  1  0  0  0  0
 19 18  2  0  0  0  0
 20 17  2  0  0  0  0
 21 10  1  0  0  0  0
  2 10  2  0  0  0  0
 17 15  1  0  0  0  0
M  CHG  2   3   1  11  -1
M  END
>  <IDNUMBER>
F0808-1789

>  <Chemical_Name>
4-chloro-3-nitro-N-(4-oxocyclohexa-2,5-dien-1-ylidene)benzene-1-sulfonamide

>  <PriceCoeff>
1.00

>  <CAS>
327060-12-8

>  <MW>
326.71

>  <Description>
solid

>  <FSP3>
0.00

>  <clogP>
2.32

>  <TPSA>
115.09

>  <Acceptor>
6

>  <Donor>
0

>  <RotBonds>
3

>  <HAC>
21

>  <Collection>
General

>  <PPDS>
+

$$$$
F0808-1896
  Mrv2219 10102508112D          

 23 25  0  0  0  0            999 V2000
   -2.1467    0.8323    0.0000 S   0  0  0  0  0  0  0  0  0  0  0  0
   -2.1467    0.0263    0.0000 N   0  0  0  0  0  0  0  0  0  0  0  0
   -1.4369   -0.3943    0.0000 C   0  0  0  0  0  0  0  0  0  0  0  0
    0.0000   -1.2355    0.0000 C   0  0  0  0  0  0  0  0  0  0  0  0
   -0.7272   -1.6561    0.0000 C   0  0  0  0  0  0  0  0  0  0  0  0
   -0.7272   -0.0088    0.0000 C   0  0  0  0  0  0  0  0  0  0  0  0
    0.0000   -0.4294    0.0000 C   0  0  0  0  0  0  0  0  0  0  0  0
   -1.4369   -1.2355    0.0000 C   0  0  0  0  0  0  0  0  0  0  0  0
   -2.1467    1.6735    0.0000 C   0  0  0  0  0  0  0  0  0  0  0  0
   -2.9878    0.8323    0.0000 O   0  0  0  0  0  0  0  0  0  0  0  0
   -1.3055    0.8323    0.0000 O   0  0  0  0  0  0  0  0  0  0  0  0
   -2.8652    2.0415    0.0000 C   0  0  0  0  0  0  0  0  0  0  0  0
   -1.4369    2.0415    0.0000 C   0  0  0  0  0  0  0  0  0  0  0  0
    0.7449   -0.0614    0.0000 Cl  0  0  0  0  0  0  0  0  0  0  0  0
    0.7097   -1.6123    0.0000 O   0  0  0  0  0  0  0  0  0  0  0  0
   -2.1467    3.2595    0.0000 C   0  0  0  0  0  0  0  0  0  0  0  0
   -1.4369    2.8390    0.0000 C   0  0  0  0  0  0  0  0  0  0  0  0
   -2.8652    2.8827    0.0000 C   0  0  0  0  0  0  0  0  0  0  0  0
   -2.0941    4.1970    0.0000 F   0  0  0  0  0  0  0  0  0  0  0  0
   -0.7272   -2.4535    0.0000 C   0  0  0  0  0  0  0  0  0  0  0  0
   -2.1467   -1.6561    0.0000 C   0  0  0  0  0  0  0  0  0  0  0  0
   -1.4369   -2.8741    0.0000 C   0  0  0  0  0  0  0  0  0  0  0  0
   -2.1992   -2.4535    0.0000 C   0  0  0  0  0  0  0  0  0  0  0  0
  2  1  1  0  0  0  0
  3  2  1  0  0  0  0
  4  5  1  0  0  0  0
  5  8  2  0  0  0  0
  6  3  2  0  0  0  0
  7  6  1  0  0  0  0
  8  3  1  0  0  0  0
  9  1  1  0  0  0  0
 10  1  2  0  0  0  0
 11  1  2  0  0  0  0
 12  9  1  0  0  0  0
 13  9  2  0  0  0  0
 14  7  1  0  0  0  0
 15  4  1  0  0  0  0
 16 17  2  0  0  0  0
 17 13  1  0  0  0  0
 18 12  2  0  0  0  0
 19 16  1  0  0  0  0
 20  5  1  0  0  0  0
 21  8  1  0  0  0  0
 22 23  1  0  0  0  0
 23 21  2  0  0  0  0
 16 18  1  0  0  0  0
  4  7  2  0  0  0  0
 22 20  2  0  0  0  0
M  END
>  <IDNUMBER>
F0808-1896

>  <Chemical_Name>
N-(3-chloro-4-hydroxynaphthalen-1-yl)-4-fluorobenzene-1-sulfonamide

>  <PriceCoeff>
1.00

>  <CAS>
425410-79-3

>  <MW>
351.78

>  <Description>
solid

>  <FSP3>
0.00

>  <clogP>
4.23

>  <TPSA>
74.78

>  <Acceptor>
4

>  <Donor>
2

>  <RotBonds>
3

>  <HAC>
23

>  <Collection>
General

>  <PPDS>
+

$$$$
F0808-2337
  Mrv2219 10102508112D          

 30 32  0  0  0  0            999 V2000
   -4.2435    3.9548    0.0000 S   0  0  0  0  0  0  0  0  0  0  0  0
   -3.4858    4.3301    0.0000 N   0  0  0  0  0  0  0  0  0  0  0  0
   -0.6062    4.0920    0.0000 C   0  0  0  0  0  0  0  0  0  0  0  0
   -1.3784    3.8465    0.0000 C   0  0  0  0  0  0  0  0  0  0  0  0
   -5.7374    2.3599    0.0000 C   0  0  0  0  0  0  0  0  0  0  0  0
   -5.7734    1.5299    0.0000 N   0  3  0  0  0  0  0  0  0  0  0  0
   -0.1226    3.4352    0.0000 C   0  0  0  0  0  0  0  0  0  0  0  0
   -2.7929    3.8898    0.0000 C   0  0  0  0  0  0  0  0  0  0  0  0
   -4.9724    3.5724    0.0000 C   0  0  0  0  0  0  0  0  0  0  0  0
   -0.6062    2.7713    0.0000 O   0  0  0  0  0  0  0  0  0  0  0  0
   -5.0157    2.7713    0.0000 C   0  0  0  0  0  0  0  0  0  0  0  0
   -1.3784    3.0238    0.0000 C   0  0  0  0  0  0  0  0  0  0  0  0
   -2.1001    4.2652    0.0000 C   0  0  0  0  0  0  0  0  0  0  0  0
   -3.4568    5.1672    0.0000 C   0  0  0  0  0  0  0  0  0  0  0  0
   -3.8682    3.2259    0.0000 O   0  0  0  0  0  0  0  0  0  0  0  0
   -4.6260    4.7126    0.0000 O   0  0  0  0  0  0  0  0  0  0  0  0
   -0.3391    4.8858    0.0000 C   0  0  0  0  0  0  0  0  0  0  0  0
   -6.4663    2.8506    0.0000 C   0  0  0  0  0  0  0  0  0  0  0  0
   -5.0446    1.1186    0.0000 O   0  5  0  0  0  0  0  0  0  0  0  0
   -6.4663    1.1186    0.0000 O   0  0  0  0  0  0  0  0  0  0  0  0
   -2.7929    3.0238    0.0000 C   0  0  0  0  0  0  0  0  0  0  0  0
   -2.1001    2.5981    0.0000 C   0  0  0  0  0  0  0  0  0  0  0  0
   -5.6652    4.0197    0.0000 C   0  0  0  0  0  0  0  0  0  0  0  0
   -2.7207    5.5569    0.0000 O   0  0  0  0  0  0  0  0  0  0  0  0
   -0.8588    5.5136    0.0000 O   0  0  0  0  0  0  0  0  0  0  0  0
   -6.4013    3.6733    0.0000 C   0  0  0  0  0  0  0  0  0  0  0  0
   -7.2240    2.5042    0.0000 Cl  0  0  0  0  0  0  0  0  0  0  0  0
    0.7001    3.3991    0.0000 C   0  0  0  0  0  0  0  0  0  0  0  0
   -4.1496    5.6219    0.0000 C   0  0  0  0  0  0  0  0  0  0  0  0
    0.4980    5.0229    0.0000 C   0  0  0  0  0  0  0  0  0  0  0  0
  2  1  1  0  0  0  0
  3  4  1  0  0  0  0
  4 13  1  0  0  0  0
  5 11  2  0  0  0  0
  6  5  1  0  0  0  0
  7  3  2  0  0  0  0
  8  2  1  0  0  0  0
  9  1  1  0  0  0  0
 10 12  1  0  0  0  0
 11  9  1  0  0  0  0
 12 22  1  0  0  0  0
 13  8  2  0  0  0  0
 14  2  1  0  0  0  0
 15  1  2  0  0  0  0
 16  1  2  0  0  0  0
 17  3  1  0  0  0  0
 18 26  2  0  0  0  0
 19  6  1  0  0  0  0
 20  6  2  0  0  0  0
 21  8  1  0  0  0  0
 22 21  2  0  0  0  0
 23  9  2  0  0  0  0
 24 14  2  0  0  0  0
 25 17  2  0  0  0  0
 26 23  1  0  0  0  0
 27 18  1  0  0  0  0
 28  7  1  0  0  0  0
 29 14  1  0  0  0  0
 30 17  1  0  0  0  0
 18  5  1  0  0  0  0
 12  4  2  0  0  0  0
 10  7  1  0  0  0  0
M  CHG  2   6   1  19  -1
M  END
>  <IDNUMBER>
F0808-2337

>  <Chemical_Name>
N-(3-acetyl-2-methyl-1-benzofuran-5-yl)-N-(4-chloro-3-nitrobenzenesulfonyl)acetamide

>  <PriceCoeff>
1.00

>  <CAS>
420106-71-4

>  <MW>
450.85

>  <Description>
solid

>  <FSP3>
0.16

>  <clogP>
3.94

>  <TPSA>
136.18

>  <Acceptor>
7

>  <Donor>
0

>  <RotBonds>
6

>  <HAC>
30

>  <Collection>
General

>  <PPDS>
+

$$$$
F0816-0636
  Mrv2219 10102508112D          

 31 35  0  0  0  0            999 V2000
    4.1609   -0.3647    0.0000 N   0  0  0  0  0  0  0  0  0  0  0  0
   -2.0385    1.8951    0.0000 C   0  0  0  0  0  0  0  0  0  0  0  0
   -2.5048    1.2135    0.0000 N   0  0  0  0  0  0  0  0  0  0  0  0
   -2.5048    2.5288    0.0000 S   0  0  0  0  0  0  0  0  0  0  0  0
    3.7544    0.3527    0.0000 C   0  0  0  0  0  0  0  0  0  0  0  0
    3.9277   -1.1718    0.0000 C   0  0  0  0  0  0  0  0  0  0  0  0
    4.9919   -0.3647    0.0000 C   0  0  0  0  0  0  0  0  0  0  0  0
    1.6919    1.0701    0.0000 C   0  0  0  0  0  0  0  0  0  0  0  0
   -3.2760    1.4646    0.0000 C   0  0  0  0  0  0  0  0  0  0  0  0
   -3.2760    2.2957    0.0000 C   0  0  0  0  0  0  0  0  0  0  0  0
    1.2913    1.7875    0.0000 N   0  0  0  0  0  0  0  0  0  0  0  0
    2.9234    0.3527    0.0000 C   0  0  0  0  0  0  0  0  0  0  0  0
    2.5169    1.0701    0.0000 C   0  0  0  0  0  0  0  0  0  0  0  0
   -1.2135    1.8413    0.0000 C   0  0  0  0  0  0  0  0  0  0  0  0
    1.2913    0.3527    0.0000 O   0  0  0  0  0  0  0  0  0  0  0  0
    4.5913   -1.6321    0.0000 C   0  0  0  0  0  0  0  0  0  0  0  0
    5.2190   -1.1718    0.0000 C   0  0  0  0  0  0  0  0  0  0  0  0
    3.1267   -1.4587    0.0000 O   0  0  0  0  0  0  0  0  0  0  0  0
    5.4761    0.3168    0.0000 O   0  0  0  0  0  0  0  0  0  0  0  0
   -0.8071    1.1239    0.0000 C   0  0  0  0  0  0  0  0  0  0  0  0
   -0.7472    2.5288    0.0000 C   0  0  0  0  0  0  0  0  0  0  0  0
    0.4544    1.7875    0.0000 C   0  0  0  0  0  0  0  0  0  0  0  0
    0.0778    2.5048    0.0000 C   0  0  0  0  0  0  0  0  0  0  0  0
    0.0000    1.0940    0.0000 C   0  0  0  0  0  0  0  0  0  0  0  0
    4.1609    1.0701    0.0000 C   0  0  0  0  0  0  0  0  0  0  0  0
    2.9234    1.7875    0.0000 C   0  0  0  0  0  0  0  0  0  0  0  0
    3.7544    1.7875    0.0000 C   0  0  0  0  0  0  0  0  0  0  0  0
   -3.9934    1.0342    0.0000 C   0  0  0  0  0  0  0  0  0  0  0  0
   -3.9934    2.7021    0.0000 C   0  0  0  0  0  0  0  0  0  0  0  0
   -4.7108    2.2957    0.0000 C   0  0  0  0  0  0  0  0  0  0  0  0
   -4.7108    1.4646    0.0000 C   0  0  0  0  0  0  0  0  0  0  0  0
  2 14  1  0  0  0  0
  3  2  2  0  0  0  0
  4  2  1  0  0  0  0
  5  1  1  0  0  0  0
  6  1  1  0  0  0  0
  7  1  1  0  0  0  0
  8 13  1  0  0  0  0
  9  3  1  0  0  0  0
 10  4  1  0  0  0  0
 11  8  1  0  0  0  0
 12  5  1  0  0  0  0
 13 12  2  0  0  0  0
 14 20  2  0  0  0  0
 15  8  2  0  0  0  0
 16  6  1  0  0  0  0
 17  7  1  0  0  0  0
 18  6  2  0  0  0  0
 19  7  2  0  0  0  0
 20 24  1  0  0  0  0
 21 23  2  0  0  0  0
 22 11  1  0  0  0  0
 23 22  1  0  0  0  0
 24 22  2  0  0  0  0
 25  5  2  0  0  0  0
 26 27  2  0  0  0  0
 27 25  1  0  0  0  0
 28  9  1  0  0  0  0
 29 10  1  0  0  0  0
 30 29  2  0  0  0  0
 31 28  2  0  0  0  0
 17 16  1  0  0  0  0
 13 26  1  0  0  0  0
 21 14  1  0  0  0  0
  9 10  2  0  0  0  0
 31 30  1  0  0  0  0
M  END
>  <IDNUMBER>
F0816-0636

>  <Chemical_Name>
N-[4-(1,3-benzothiazol-2-yl)phenyl]-3-(2,5-dioxopyrrolidin-1-yl)benzamide

>  <PriceCoeff>
1.00

>  <CAS>
477538-30-0

>  <MW>
427.48

>  <Description>
solid

>  <FSP3>
0.08

>  <clogP>
3.01

>  <TPSA>
107.61

>  <Acceptor>
4

>  <Donor>
1

>  <RotBonds>
4

>  <HAC>
31

>  <Collection>
General

>  <PPDS>
+

$$$$
F0817-0057
  Mrv2219 10102508112D          

 25 28  0  0  0  0            999 V2000
    2.0434    0.9557    0.0000 N   0  0  0  0  0  0  0  0  0  0  0  0
    2.5112    1.6154    0.0000 C   0  0  0  0  0  0  0  0  0  0  0  0
    2.5912    0.3319    0.0000 C   0  0  0  0  0  0  0  0  0  0  0  0
   -1.2676    0.9117    0.0000 C   0  0  0  0  0  0  0  0  0  0  0  0
   -1.6915    1.6274    0.0000 N   0  0  0  0  0  0  0  0  0  0  0  0
    1.2276    0.9117    0.0000 C   0  0  0  0  0  0  0  0  0  0  0  0
   -3.7627    2.3352    0.0000 C   0  0  0  0  0  0  0  0  0  0  0  0
   -4.9983    1.7954    0.0000 S   0  0  0  0  0  0  0  0  0  0  0  0
   -4.1866    1.6274    0.0000 C   0  0  0  0  0  0  0  0  0  0  0  0
   -0.4439    0.9117    0.0000 C   0  0  0  0  0  0  0  0  0  0  0  0
   -5.0863    2.6032    0.0000 C   0  0  0  0  0  0  0  0  0  0  0  0
   -2.5152    1.6274    0.0000 C   0  0  0  0  0  0  0  0  0  0  0  0
   -2.9390    2.3352    0.0000 C   0  0  0  0  0  0  0  0  0  0  0  0
   -4.3386    2.9470    0.0000 C   0  0  0  0  0  0  0  0  0  0  0  0
    3.2989    1.4235    0.0000 C   0  0  0  0  0  0  0  0  0  0  0  0
    3.3389    0.6238    0.0000 C   0  0  0  0  0  0  0  0  0  0  0  0
   -1.6915    0.1879    0.0000 O   0  0  0  0  0  0  0  0  0  0  0  0
    2.2113    2.4472    0.0000 O   0  0  0  0  0  0  0  0  0  0  0  0
    2.3872   -0.5278    0.0000 O   0  0  0  0  0  0  0  0  0  0  0  0
    0.8198    1.6274    0.0000 C   0  0  0  0  0  0  0  0  0  0  0  0
    0.8037    0.1639    0.0000 C   0  0  0  0  0  0  0  0  0  0  0  0
   -0.0200    1.6274    0.0000 C   0  0  0  0  0  0  0  0  0  0  0  0
   -0.0200    0.1879    0.0000 C   0  0  0  0  0  0  0  0  0  0  0  0
   -3.7627    0.8957    0.0000 C   0  0  0  0  0  0  0  0  0  0  0  0
   -2.9390    0.8757    0.0000 C   0  0  0  0  0  0  0  0  0  0  0  0
  2  1  1  0  0  0  0
  3  1  1  0  0  0  0
  4 10  1  0  0  0  0
  5  4  1  0  0  0  0
  6  1  1  0  0  0  0
  7 13  1  0  0  0  0
  8  9  1  0  0  0  0
  9 24  1  0  0  0  0
 10 23  2  0  0  0  0
 11 14  2  0  0  0  0
 12  5  1  0  0  0  0
 13 12  2  0  0  0  0
 14  7  1  0  0  0  0
 15  2  1  0  0  0  0
 16  3  1  0  0  0  0
 17  4  2  0  0  0  0
 18  2  2  0  0  0  0
 19  3  2  0  0  0  0
 20  6  1  0  0  0  0
 21  6  2  0  0  0  0
 22 20  2  0  0  0  0
 23 21  1  0  0  0  0
 24 25  2  0  0  0  0
 25 12  1  0  0  0  0
 16 15  1  0  0  0  0
 10 22  1  0  0  0  0
  9  7  2  0  0  0  0
 11  8  1  0  0  0  0
M  END
>  <IDNUMBER>
F0817-0057

>  <Chemical_Name>
N-(1-benzothiophen-5-yl)-4-(2,5-dioxopyrrolidin-1-yl)benzamide

>  <PriceCoeff>
1.00

>  <CAS>
477502-91-3

>  <MW>
350.39

>  <Description>
solid

>  <FSP3>
0.11

>  <clogP>
1.96

>  <TPSA>
94.72

>  <Acceptor>
3

>  <Donor>
1

>  <RotBonds>
3

>  <HAC>
25

>  <Collection>
General

>  <PPDS>
+

$$$$
F0817-0075
  Mrv2219 10102508112D          

 25 28  0  0  0  0            999 V2000
    1.8614   -0.8585    0.0000 N   0  0  0  0  0  0  0  0  0  0  0  0
    1.4404   -0.1486    0.0000 C   0  0  0  0  0  0  0  0  0  0  0  0
    2.6744   -0.9699    0.0000 C   0  0  0  0  0  0  0  0  0  0  0  0
    1.5642   -1.6220    0.0000 C   0  0  0  0  0  0  0  0  0  0  0  0
   -0.6273    0.5572    0.0000 C   0  0  0  0  0  0  0  0  0  0  0  0
   -1.0400    1.2711    0.0000 N   0  0  0  0  0  0  0  0  0  0  0  0
    0.6108   -0.1527    0.0000 C   0  0  0  0  0  0  0  0  0  0  0  0
    0.1981    0.5572    0.0000 C   0  0  0  0  0  0  0  0  0  0  0  0
   -3.1201    2.0016    0.0000 C   0  0  0  0  0  0  0  0  0  0  0  0
   -4.3541    1.4692    0.0000 S   0  0  0  0  0  0  0  0  0  0  0  0
   -3.5369    1.2877    0.0000 C   0  0  0  0  0  0  0  0  0  0  0  0
   -4.4160    2.2782    0.0000 C   0  0  0  0  0  0  0  0  0  0  0  0
   -1.8778    1.2711    0.0000 C   0  0  0  0  0  0  0  0  0  0  0  0
   -2.2905    1.9810    0.0000 C   0  0  0  0  0  0  0  0  0  0  0  0
   -3.6772    2.6207    0.0000 C   0  0  0  0  0  0  0  0  0  0  0  0
   -1.0400   -0.1527    0.0000 O   0  0  0  0  0  0  0  0  0  0  0  0
    2.8519   -1.7623    0.0000 C   0  0  0  0  0  0  0  0  0  0  0  0
    2.1461   -2.1585    0.0000 C   0  0  0  0  0  0  0  0  0  0  0  0
    3.2687   -0.3343    0.0000 O   0  0  0  0  0  0  0  0  0  0  0  0
    0.7099   -1.8366    0.0000 O   0  0  0  0  0  0  0  0  0  0  0  0
   -3.1201    0.5572    0.0000 C   0  0  0  0  0  0  0  0  0  0  0  0
   -2.2905    0.5572    0.0000 C   0  0  0  0  0  0  0  0  0  0  0  0
    1.8614    0.5778    0.0000 C   0  0  0  0  0  0  0  0  0  0  0  0
    0.5985    1.2711    0.0000 C   0  0  0  0  0  0  0  0  0  0  0  0
    1.4362    1.2835    0.0000 C   0  0  0  0  0  0  0  0  0  0  0  0
  2  1  1  0  0  0  0
  3  1  1  0  0  0  0
  4  1  1  0  0  0  0
  5  8  1  0  0  0  0
  6  5  1  0  0  0  0
  7  2  1  0  0  0  0
  8  7  2  0  0  0  0
  9 14  1  0  0  0  0
 10 11  1  0  0  0  0
 11 21  1  0  0  0  0
 12 15  2  0  0  0  0
 13  6  1  0  0  0  0
 14 13  2  0  0  0  0
 15  9  1  0  0  0  0
 16  5  2  0  0  0  0
 17  3  1  0  0  0  0
 18  4  1  0  0  0  0
 19  3  2  0  0  0  0
 20  4  2  0  0  0  0
 21 22  2  0  0  0  0
 22 13  1  0  0  0  0
 23  2  2  0  0  0  0
 24 25  2  0  0  0  0
 25 23  1  0  0  0  0
 18 17  1  0  0  0  0
 24  8  1  0  0  0  0
 11  9  2  0  0  0  0
 12 10  1  0  0  0  0
M  END
>  <IDNUMBER>
F0817-0075

>  <Chemical_Name>
N-(1-benzothiophen-5-yl)-3-(2,5-dioxopyrrolidin-1-yl)benzamide

>  <PriceCoeff>
1.00

>  <CAS>
477503-09-6

>  <MW>
350.39

>  <Description>
solid

>  <FSP3>
0.11

>  <clogP>
1.96

>  <TPSA>
94.72

>  <Acceptor>
3

>  <Donor>
1

>  <RotBonds>
3

>  <HAC>
25

>  <Collection>
General

>  <PPDS>
+

$$$$
F0817-0139
  Mrv2219 10102508112D          

 30 34  0  0  0  0            999 V2000
   -2.4945    1.6022    0.0000 C   0  0  0  0  0  0  0  0  0  0  0  0
   -3.7715    2.0107    0.0000 C   0  0  0  0  0  0  0  0  0  0  0  0
   -4.4932    2.3795    0.0000 C   0  0  0  0  0  0  0  0  0  0  0  0
    2.0266    0.9478    0.0000 N   0  0  0  0  0  0  0  0  0  0  0  0
   -2.9506    0.9161    0.0000 N   0  0  0  0  0  0  0  0  0  0  0  0
   -5.8337    2.5064    0.0000 N   0  0  0  0  0  0  0  0  0  0  0  0
   -5.5204    3.2559    0.0000 C   0  0  0  0  0  0  0  0  0  0  0  0
   -1.6775    1.6141    0.0000 N   0  0  0  0  0  0  0  0  0  0  0  0
   -2.9704    2.2684    0.0000 S   0  0  0  0  0  0  0  0  0  0  0  0
   -4.7074    3.2004    0.0000 S   0  0  0  0  0  0  0  0  0  0  0  0
   -3.7556    1.1540    0.0000 C   0  0  0  0  0  0  0  0  0  0  0  0
   -5.2071    1.9353    0.0000 C   0  0  0  0  0  0  0  0  0  0  0  0
   -1.2571    0.9042    0.0000 C   0  0  0  0  0  0  0  0  0  0  0  0
    2.4906    1.6022    0.0000 C   0  0  0  0  0  0  0  0  0  0  0  0
    2.5698    0.3291    0.0000 C   0  0  0  0  0  0  0  0  0  0  0  0
    1.2175    0.9042    0.0000 C   0  0  0  0  0  0  0  0  0  0  0  0
   -0.4402    0.9042    0.0000 C   0  0  0  0  0  0  0  0  0  0  0  0
   -1.6775    0.1864    0.0000 O   0  0  0  0  0  0  0  0  0  0  0  0
    3.3115    0.6187    0.0000 C   0  0  0  0  0  0  0  0  0  0  0  0
    3.2718    1.4118    0.0000 C   0  0  0  0  0  0  0  0  0  0  0  0
   -5.2071    1.1382    0.0000 C   0  0  0  0  0  0  0  0  0  0  0  0
   -4.4694    0.7257    0.0000 C   0  0  0  0  0  0  0  0  0  0  0  0
    2.1931    2.4271    0.0000 O   0  0  0  0  0  0  0  0  0  0  0  0
    2.3676   -0.5235    0.0000 O   0  0  0  0  0  0  0  0  0  0  0  0
   -5.9765    3.9539    0.0000 S   0  0  0  0  0  0  0  0  0  0  0  0
    0.7971    0.1626    0.0000 C   0  0  0  0  0  0  0  0  0  0  0  0
    0.8130    1.6141    0.0000 C   0  0  0  0  0  0  0  0  0  0  0  0
   -0.0198    0.1864    0.0000 C   0  0  0  0  0  0  0  0  0  0  0  0
   -0.0198    1.6141    0.0000 C   0  0  0  0  0  0  0  0  0  0  0  0
   -5.6116    4.6995    0.0000 C   0  0  0  0  0  0  0  0  0  0  0  0
  2  9  1  0  0  0  0
  3  2  1  0  0  0  0
  4 16  1  0  0  0  0
  5  1  2  0  0  0  0
  6 12  1  0  0  0  0
  7 10  1  0  0  0  0
  8  1  1  0  0  0  0
  9  1  1  0  0  0  0
 10  3  1  0  0  0  0
 11  5  1  0  0  0  0
 12  3  2  0  0  0  0
 13  8  1  0  0  0  0
 14  4  1  0  0  0  0
 15  4  1  0  0  0  0
 16 27  1  0  0  0  0
 17 13  1  0  0  0  0
 18 13  2  0  0  0  0
 19 15  1  0  0  0  0
 20 14  1  0  0  0  0
 21 22  2  0  0  0  0
 22 11  1  0  0  0  0
 23 14  2  0  0  0  0
 24 15  2  0  0  0  0
 25  7  1  0  0  0  0
 26 28  1  0  0  0  0
 27 29  2  0  0  0  0
 28 17  2  0  0  0  0
 29 17  1  0  0  0  0
 30 25  1  0  0  0  0
  2 11  2  0  0  0  0
 21 12  1  0  0  0  0
  7  6  2  0  0  0  0
 16 26  2  0  0  0  0
 20 19  1  0  0  0  0
M  END
>  <IDNUMBER>
F0817-0139

>  <Chemical_Name>
4-(2,5-dioxopyrrolidin-1-yl)-N-[11-(methylsulfanyl)-3,12-dithia-5,10-diazatricyclo[7.3.0.0?,?]dodeca-1(9),2(6),4,7,10-pentaen-4-yl]benzamide

>  <PriceCoeff>
1.00

>  <CAS>
477503-54-1

>  <MW>
454.55

>  <Description>
solid

>  <FSP3>
0.15

>  <clogP>
2.84

>  <TPSA>
174.04

>  <Acceptor>
5

>  <Donor>
1

>  <RotBonds>
4

>  <HAC>
30

>  <Collection>
General

>  <PPDS>
+

$$$$
F0817-0154
  Mrv2219 10102508112D          

 25 28  0  0  0  0            999 V2000
   -1.6855    0.0426    0.0000 C   0  0  0  0  0  0  0  0  0  0  0  0
    1.1663   -0.0272    0.0000 N   0  0  0  0  0  0  0  0  0  0  0  0
   -2.9874   -0.2015    0.0000 C   0  0  0  0  0  0  0  0  0  0  0  0
   -3.8088   -0.2209    0.0000 C   0  0  0  0  0  0  0  0  0  0  0  0
   -1.7630   -0.7711    0.0000 N   0  0  0  0  0  0  0  0  0  0  0  0
   -5.0758   -0.7478    0.0000 N   0  0  0  0  0  0  0  0  0  0  0  0
   -5.1456    0.0465    0.0000 C   0  0  0  0  0  0  0  0  0  0  0  0
   -2.4178    0.3836    0.0000 S   0  0  0  0  0  0  0  0  0  0  0  0
   -4.3900    0.3913    0.0000 S   0  0  0  0  0  0  0  0  0  0  0  0
   -0.9725    0.4185    0.0000 N   0  0  0  0  0  0  0  0  0  0  0  0
   -2.5689   -0.9455    0.0000 C   0  0  0  0  0  0  0  0  0  0  0  0
   -4.2273   -0.9455    0.0000 C   0  0  0  0  0  0  0  0  0  0  0  0
    1.1431   -0.8718    0.0000 C   0  0  0  0  0  0  0  0  0  0  0  0
    1.9412    0.1821    0.0000 C   0  0  0  0  0  0  0  0  0  0  0  0
   -0.2751    0.0000    0.0000 C   0  0  0  0  0  0  0  0  0  0  0  0
    0.4650    0.3836    0.0000 C   0  0  0  0  0  0  0  0  0  0  0  0
    2.4062   -0.4921    0.0000 C   0  0  0  0  0  0  0  0  0  0  0  0
    1.9063   -1.1198    0.0000 C   0  0  0  0  0  0  0  0  0  0  0  0
   -3.8437   -1.6739    0.0000 C   0  0  0  0  0  0  0  0  0  0  0  0
   -2.9758   -1.6739    0.0000 C   0  0  0  0  0  0  0  0  0  0  0  0
    2.2125    0.9725    0.0000 O   0  0  0  0  0  0  0  0  0  0  0  0
    0.4533   -1.3639    0.0000 O   0  0  0  0  0  0  0  0  0  0  0  0
   -0.2906   -0.8408    0.0000 O   0  0  0  0  0  0  0  0  0  0  0  0
   -5.8857    0.4494    0.0000 S   0  0  0  0  0  0  0  0  0  0  0  0
   -5.8973    1.2747    0.0000 C   0  0  0  0  0  0  0  0  0  0  0  0
  2 16  1  0  0  0  0
  3  8  1  0  0  0  0
  4  3  1  0  0  0  0
  5  1  2  0  0  0  0
  6 12  1  0  0  0  0
  7  9  1  0  0  0  0
  8  1  1  0  0  0  0
  9  4  1  0  0  0  0
 10  1  1  0  0  0  0
 11  5  1  0  0  0  0
 12  4  2  0  0  0  0
 13  2  1  0  0  0  0
 14  2  1  0  0  0  0
 15 10  1  0  0  0  0
 16 15  1  0  0  0  0
 17 14  1  0  0  0  0
 18 13  1  0  0  0  0
 19 20  2  0  0  0  0
 20 11  1  0  0  0  0
 21 14  2  0  0  0  0
 22 13  2  0  0  0  0
 23 15  2  0  0  0  0
 24  7  1  0  0  0  0
 25 24  1  0  0  0  0
  3 11  2  0  0  0  0
 19 12  1  0  0  0  0
  7  6  2  0  0  0  0
 17 18  1  0  0  0  0
M  END
>  <IDNUMBER>
F0817-0154

>  <Chemical_Name>
2-(2,5-dioxopyrrolidin-1-yl)-N-[11-(methylsulfanyl)-3,12-dithia-5,10-diazatricyclo[7.3.0.0?,?]dodeca-1(9),2(6),4,7,10-pentaen-4-yl]acetamide

>  <PriceCoeff>
1.00

>  <CAS>
477503-66-5

>  <MW>
392.48

>  <Description>
solid

>  <FSP3>
0.27

>  <clogP>
2.66

>  <TPSA>
174.04

>  <Acceptor>
5

>  <Donor>
1

>  <RotBonds>
4

>  <HAC>
25

>  <Collection>
General

>  <PPDS>
+

$$$$
F0817-0157
  Mrv2219 10102508112D          

 30 34  0  0  0  0            999 V2000
   -1.8441    1.0309    0.0000 C   0  0  0  0  0  0  0  0  0  0  0  0
    2.3206    0.0328    0.0000 N   0  0  0  0  0  0  0  0  0  0  0  0
   -3.1748    1.0802    0.0000 C   0  0  0  0  0  0  0  0  0  0  0  0
   -3.9757    1.2280    0.0000 C   0  0  0  0  0  0  0  0  0  0  0  0
   -2.0824    0.2588    0.0000 N   0  0  0  0  0  0  0  0  0  0  0  0
   -5.3065    0.9857    0.0000 N   0  0  0  0  0  0  0  0  0  0  0  0
   -5.2079    1.7866    0.0000 C   0  0  0  0  0  0  0  0  0  0  0  0
   -1.0555    1.2527    0.0000 N   0  0  0  0  0  0  0  0  0  0  0  0
   -2.4848    1.5402    0.0000 S   0  0  0  0  0  0  0  0  0  0  0  0
   -4.4070    1.9673    0.0000 S   0  0  0  0  0  0  0  0  0  0  0  0
   -2.9284    0.2588    0.0000 C   0  0  0  0  0  0  0  0  0  0  0  0
   -4.5344    0.6119    0.0000 C   0  0  0  0  0  0  0  0  0  0  0  0
    1.7250    0.6038    0.0000 C   0  0  0  0  0  0  0  0  0  0  0  0
   -0.4641    0.6900    0.0000 C   0  0  0  0  0  0  0  0  0  0  0  0
    3.1338    0.1602    0.0000 C   0  0  0  0  0  0  0  0  0  0  0  0
    2.2467   -0.7886    0.0000 C   0  0  0  0  0  0  0  0  0  0  0  0
    0.9241    0.3573    0.0000 C   0  0  0  0  0  0  0  0  0  0  0  0
    0.3245    0.9323    0.0000 C   0  0  0  0  0  0  0  0  0  0  0  0
   -0.6612   -0.1027    0.0000 O   0  0  0  0  0  0  0  0  0  0  0  0
    3.5281   -0.5463    0.0000 C   0  0  0  0  0  0  0  0  0  0  0  0
    2.9613   -1.1336    0.0000 C   0  0  0  0  0  0  0  0  0  0  0  0
   -4.3208   -0.1479    0.0000 C   0  0  0  0  0  0  0  0  0  0  0  0
   -3.4952   -0.3491    0.0000 C   0  0  0  0  0  0  0  0  0  0  0  0
    3.5281    0.9323    0.0000 O   0  0  0  0  0  0  0  0  0  0  0  0
    1.4951   -1.2322    0.0000 O   0  0  0  0  0  0  0  0  0  0  0  0
   -5.8486    2.3493    0.0000 S   0  0  0  0  0  0  0  0  0  0  0  0
    1.9222    1.4005    0.0000 C   0  0  0  0  0  0  0  0  0  0  0  0
    0.5093    1.7209    0.0000 C   0  0  0  0  0  0  0  0  0  0  0  0
    1.3102    1.9550    0.0000 C   0  0  0  0  0  0  0  0  0  0  0  0
   -5.6885    3.1625    0.0000 C   0  0  0  0  0  0  0  0  0  0  0  0
  2 13  1  0  0  0  0
  3  9  1  0  0  0  0
  4  3  1  0  0  0  0
  5  1  2  0  0  0  0
  6 12  1  0  0  0  0
  7 10  1  0  0  0  0
  8  1  1  0  0  0  0
  9  1  1  0  0  0  0
 10  4  1  0  0  0  0
 11  5  1  0  0  0  0
 12  4  2  0  0  0  0
 13 17  1  0  0  0  0
 14  8  1  0  0  0  0
 15  2  1  0  0  0  0
 16  2  1  0  0  0  0
 17 18  2  0  0  0  0
 18 14  1  0  0  0  0
 19 14  2  0  0  0  0
 20 15  1  0  0  0  0
 21 16  1  0  0  0  0
 22 23  2  0  0  0  0
 23 11  1  0  0  0  0
 24 15  2  0  0  0  0
 25 16  2  0  0  0  0
 26  7  1  0  0  0  0
 27 29  1  0  0  0  0
 28 18  1  0  0  0  0
 29 28  2  0  0  0  0
 30 26  1  0  0  0  0
  3 11  2  0  0  0  0
 22 12  1  0  0  0  0
  7  6  2  0  0  0  0
 13 27  2  0  0  0  0
 20 21  1  0  0  0  0
M  END
>  <IDNUMBER>
F0817-0157

>  <Chemical_Name>
3-(2,5-dioxopyrrolidin-1-yl)-N-[11-(methylsulfanyl)-3,12-dithia-5,10-diazatricyclo[7.3.0.0?,?]dodeca-1(9),2(6),4,7,10-pentaen-4-yl]benzamide

>  <PriceCoeff>
1.00

>  <CAS>
477503-69-8

>  <MW>
454.55

>  <Description>
solid

>  <FSP3>
0.15

>  <clogP>
2.84

>  <TPSA>
174.04

>  <Acceptor>
5

>  <Donor>
1

>  <RotBonds>
4

>  <HAC>
30

>  <Collection>
General

>  <PPDS>
+

$$$$
F0817-0238
  Mrv2219 10102508112D          

 31 35  0  0  0  0            999 V2000
    2.3203    0.0328    0.0000 N   0  0  0  0  0  0  0  0  0  0  0  0
   -4.5666   -0.4928    0.0000 N   0  0  0  0  0  0  0  0  0  0  0  0
   -4.2093    0.2669    0.0000 C   0  0  0  0  0  0  0  0  0  0  0  0
   -4.8253    0.8213    0.0000 O   0  0  0  0  0  0  0  0  0  0  0  0
    1.7248    0.6037    0.0000 C   0  0  0  0  0  0  0  0  0  0  0  0
    2.2464   -0.7885    0.0000 C   0  0  0  0  0  0  0  0  0  0  0  0
    3.1334    0.1602    0.0000 C   0  0  0  0  0  0  0  0  0  0  0  0
   -0.4640    0.6899    0.0000 C   0  0  0  0  0  0  0  0  0  0  0  0
   -5.3920   -0.3819    0.0000 C   0  0  0  0  0  0  0  0  0  0  0  0
   -5.5317    0.4435    0.0000 C   0  0  0  0  0  0  0  0  0  0  0  0
   -1.0554    1.2525    0.0000 N   0  0  0  0  0  0  0  0  0  0  0  0
    0.9240    0.3573    0.0000 C   0  0  0  0  0  0  0  0  0  0  0  0
    0.3245    0.9322    0.0000 C   0  0  0  0  0  0  0  0  0  0  0  0
   -3.4003    0.5421    0.0000 C   0  0  0  0  0  0  0  0  0  0  0  0
   -0.6611   -0.1027    0.0000 O   0  0  0  0  0  0  0  0  0  0  0  0
    3.5277   -0.5462    0.0000 C   0  0  0  0  0  0  0  0  0  0  0  0
    2.9609   -1.1334    0.0000 C   0  0  0  0  0  0  0  0  0  0  0  0
    3.5277    0.9322    0.0000 O   0  0  0  0  0  0  0  0  0  0  0  0
    1.4949   -1.2320    0.0000 O   0  0  0  0  0  0  0  0  0  0  0  0
   -2.8048   -0.0288    0.0000 C   0  0  0  0  0  0  0  0  0  0  0  0
   -3.2360    1.3429    0.0000 C   0  0  0  0  0  0  0  0  0  0  0  0
   -1.8357    1.0307    0.0000 C   0  0  0  0  0  0  0  0  0  0  0  0
   -2.0040    0.2299    0.0000 C   0  0  0  0  0  0  0  0  0  0  0  0
   -2.4352    1.5975    0.0000 C   0  0  0  0  0  0  0  0  0  0  0  0
    1.9219    1.4003    0.0000 C   0  0  0  0  0  0  0  0  0  0  0  0
    0.5093    1.7207    0.0000 C   0  0  0  0  0  0  0  0  0  0  0  0
    1.3101    1.9547    0.0000 C   0  0  0  0  0  0  0  0  0  0  0  0
   -6.0040   -0.9363    0.0000 C   0  0  0  0  0  0  0  0  0  0  0  0
   -6.3120    0.7104    0.0000 C   0  0  0  0  0  0  0  0  0  0  0  0
   -6.9526    0.1971    0.0000 C   0  0  0  0  0  0  0  0  0  0  0  0
   -6.8171   -0.6406    0.0000 C   0  0  0  0  0  0  0  0  0  0  0  0
  2  3  2  0  0  0  0
  3 14  1  0  0  0  0
  4  3  1  0  0  0  0
  5  1  1  0  0  0  0
  6  1  1  0  0  0  0
  7  1  1  0  0  0  0
  8 13  1  0  0  0  0
  9  2  1  0  0  0  0
 10  4  1  0  0  0  0
 11  8  1  0  0  0  0
 12  5  1  0  0  0  0
 13 12  2  0  0  0  0
 14 21  2  0  0  0  0
 15  8  2  0  0  0  0
 16  7  1  0  0  0  0
 17  6  1  0  0  0  0
 18  7  2  0  0  0  0
 19  6  2  0  0  0  0
 20 23  2  0  0  0  0
 21 24  1  0  0  0  0
 22 11  1  0  0  0  0
 23 22  1  0  0  0  0
 24 22  2  0  0  0  0
 25  5  2  0  0  0  0
 26 27  2  0  0  0  0
 27 25  1  0  0  0  0
 28  9  1  0  0  0  0
 29 10  1  0  0  0  0
 30 29  2  0  0  0  0
 31 28  2  0  0  0  0
 17 16  1  0  0  0  0
 13 26  1  0  0  0  0
 14 20  1  0  0  0  0
 10  9  2  0  0  0  0
 30 31  1  0  0  0  0
M  END
>  <IDNUMBER>
F0817-0238

>  <Chemical_Name>
N-[4-(1,3-benzoxazol-2-yl)phenyl]-3-(2,5-dioxopyrrolidin-1-yl)benzamide

>  <PriceCoeff>
1.00

>  <CAS>
404841-55-0

>  <MW>
411.41

>  <Description>
solid

>  <FSP3>
0.08

>  <clogP>
2.33

>  <TPSA>
92.51

>  <Acceptor>
5

>  <Donor>
1

>  <RotBonds>
4

>  <HAC>
31

>  <Collection>
General

>  <PPDS>
+

$$$$
F0825-0278
  Mrv2219 10102508112D          

 20 22  0  0  0  0            999 V2000
   -2.3623    1.1258    0.0000 N   0  0  0  0  0  0  0  0  0  0  0  0
   -2.9282    1.7286    0.0000 C   0  0  0  0  0  0  0  0  0  0  0  0
   -1.5502    1.1749    0.0000 N   0  0  0  0  0  0  0  0  0  0  0  0
   -2.7498    0.4182    0.0000 C   0  0  0  0  0  0  0  0  0  0  0  0
   -1.1749    1.8762    0.0000 C   0  0  0  0  0  0  0  0  0  0  0  0
   -3.6664    1.3779    0.0000 S   0  0  0  0  0  0  0  0  0  0  0  0
   -0.3629    1.8762    0.0000 C   0  0  0  0  0  0  0  0  0  0  0  0
    0.0431    2.5837    0.0000 C   0  0  0  0  0  0  0  0  0  0  0  0
   -3.5618    0.5905    0.0000 C   0  0  0  0  0  0  0  0  0  0  0  0
   -2.7805    2.5406    0.0000 S   0  0  0  0  0  0  0  0  0  0  0  0
   -1.5809    2.5406    0.0000 O   0  0  0  0  0  0  0  0  0  0  0  0
   -2.3807   -0.3384    0.0000 O   0  0  0  0  0  0  0  0  0  0  0  0
    0.8859    2.5837    0.0000 C   0  0  0  0  0  0  0  0  0  0  0  0
    0.0554    1.1565    0.0000 C   0  0  0  0  0  0  0  0  0  0  0  0
   -0.3691    3.2788    0.0000 C   0  0  0  0  0  0  0  0  0  0  0  0
    0.9290    1.1749    0.0000 C   0  0  0  0  0  0  0  0  0  0  0  0
    1.3103    1.8762    0.0000 C   0  0  0  0  0  0  0  0  0  0  0  0
    1.2550    3.2972    0.0000 C   0  0  0  0  0  0  0  0  0  0  0  0
    0.0247    4.0048    0.0000 C   0  0  0  0  0  0  0  0  0  0  0  0
    0.8552    4.0048    0.0000 C   0  0  0  0  0  0  0  0  0  0  0  0
  2  1  1  0  0  0  0
  3  1  1  0  0  0  0
  4  1  1  0  0  0  0
  5  3  1  0  0  0  0
  6  2  1  0  0  0  0
  7  5  1  0  0  0  0
  8  7  2  0  0  0  0
  9  4  1  0  0  0  0
 10  2  2  0  0  0  0
 11  5  2  0  0  0  0
 12  4  2  0  0  0  0
 13  8  1  0  0  0  0
 14  7  1  0  0  0  0
 15  8  1  0  0  0  0
 16 14  2  0  0  0  0
 17 16  1  0  0  0  0
 18 13  1  0  0  0  0
 19 15  2  0  0  0  0
 20 19  1  0  0  0  0
  9  6  1  0  0  0  0
 17 13  2  0  0  0  0
 18 20  2  0  0  0  0
M  END
>  <IDNUMBER>
F0825-0278

>  <Chemical_Name>
N-(4-oxo-2-sulfanylidene-1,3-thiazolidin-3-yl)naphthalene-1-carboxamide

>  <PriceCoeff>
1.00

>  <CAS>
315684-11-8

>  <MW>
302.37

>  <Description>
solid

>  <FSP3>
0.07

>  <clogP>
1.97

>  <TPSA>
106.80

>  <Acceptor>
3

>  <Donor>
1

>  <RotBonds>
2

>  <HAC>
20

>  <Collection>
General

>  <PPDS>
+

$$$$
F0827-0102
  Mrv2219 10102508112D          

 18 20  0  0  0  0            999 V2000
   -2.0473    0.5865    0.0000 N   0  0  0  0  0  0  0  0  0  0  0  0
   -1.2579    0.6308    0.0000 N   0  0  0  0  0  0  0  0  0  0  0  0
   -2.5231   -0.1033    0.0000 C   0  0  0  0  0  0  0  0  0  0  0  0
   -2.5416    1.2136    0.0000 C   0  0  0  0  0  0  0  0  0  0  0  0
   -0.7636    0.0184    0.0000 C   0  0  0  0  0  0  0  0  0  0  0  0
   -0.8152    1.3021    0.0000 C   0  0  0  0  0  0  0  0  0  0  0  0
   -3.3162    0.1439    0.0000 C   0  0  0  0  0  0  0  0  0  0  0  0
   -3.3162    0.9738    0.0000 C   0  0  0  0  0  0  0  0  0  0  0  0
    0.0000    0.3099    0.0000 S   0  0  0  0  0  0  0  0  0  0  0  0
   -0.0553    1.0919    0.0000 C   0  0  0  0  0  0  0  0  0  0  0  0
   -2.1100   -0.5128    0.0000 O   0  0  0  0  0  0  0  0  0  0  0  0
   -2.3018    1.8333    0.0000 O   0  0  0  0  0  0  0  0  0  0  0  0
   -0.9037   -0.6898    0.0000 S   0  0  0  0  0  0  0  0  0  0  0  0
   -1.0181    2.0104    0.0000 O   0  0  0  0  0  0  0  0  0  0  0  0
   -4.0282    1.3906    0.0000 C   0  0  0  0  0  0  0  0  0  0  0  0
   -4.0282   -0.2693    0.0000 C   0  0  0  0  0  0  0  0  0  0  0  0
   -4.7475    0.1439    0.0000 C   0  0  0  0  0  0  0  0  0  0  0  0
   -4.7475    0.9738    0.0000 C   0  0  0  0  0  0  0  0  0  0  0  0
  2  1  1  0  0  0  0
  3  1  1  0  0  0  0
  4  1  1  0  0  0  0
  5  2  1  0  0  0  0
  6  2  1  0  0  0  0
  7  3  1  0  0  0  0
  8  4  1  0  0  0  0
  9  5  1  0  0  0  0
 10  6  1  0  0  0  0
 11  3  2  0  0  0  0
 12  4  2  0  0  0  0
 13  5  2  0  0  0  0
 14  6  2  0  0  0  0
 15  8  1  0  0  0  0
 16  7  1  0  0  0  0
 17 16  2  0  0  0  0
 18 15  2  0  0  0  0
  8  7  2  0  0  0  0
 10  9  1  0  0  0  0
 18 17  1  0  0  0  0
M  END
>  <IDNUMBER>
F0827-0102

>  <Chemical_Name>
2-(4-oxo-2-sulfanylidene-1,3-thiazolidin-3-yl)-2,3-dihydro-1H-isoindole-1,3-dione

>  <PriceCoeff>
1.00

>  <CAS>
182558-48-1

>  <MW>
278.31

>  <Description>
solid

>  <FSP3>
0.09

>  <clogP>
0.57

>  <TPSA>
115.08

>  <Acceptor>
4

>  <Donor>
0

>  <RotBonds>
1

>  <HAC>
18

>  <Collection>
General

>  <PPDS>
+

$$$$
F0834-0675
  Mrv2219 10102508112D          

 29 32  0  0  0  0            999 V2000
   -5.1183    5.6586    0.0000 N   0  0  0  0  0  0  0  0  0  0  0  0
    0.1373    6.9130    0.0000 C   0  0  0  0  0  0  0  0  0  0  0  0
   -0.3936    7.5447    0.0000 N   0  0  0  0  0  0  0  0  0  0  0  0
    0.8836    7.2105    0.0000 O   0  0  0  0  0  0  0  0  0  0  0  0
   -2.2936    5.2099    0.0000 C   0  0  0  0  0  0  0  0  0  0  0  0
   -5.9286    5.5258    0.0000 C   0  0  0  0  0  0  0  0  0  0  0  0
   -4.9855    6.4734    0.0000 C   0  0  0  0  0  0  0  0  0  0  0  0
   -3.0627    4.9078    0.0000 N   0  0  0  0  0  0  0  0  0  0  0  0
   -3.7036    5.4296    0.0000 C   0  0  0  0  0  0  0  0  0  0  0  0
    0.0458    8.2406    0.0000 C   0  0  0  0  0  0  0  0  0  0  0  0
   -4.4728    5.1412    0.0000 C   0  0  0  0  0  0  0  0  0  0  0  0
    0.8378    8.0255    0.0000 C   0  0  0  0  0  0  0  0  0  0  0  0
    0.0183    6.0889    0.0000 C   0  0  0  0  0  0  0  0  0  0  0  0
   -1.6481    4.6834    0.0000 N   0  0  0  0  0  0  0  0  0  0  0  0
   -2.1654    6.0202    0.0000 S   0  0  0  0  0  0  0  0  0  0  0  0
   -0.7508    5.7959    0.0000 C   0  0  0  0  0  0  0  0  0  0  0  0
   -6.2994    6.2628    0.0000 C   0  0  0  0  0  0  0  0  0  0  0  0
   -5.7226    6.8443    0.0000 C   0  0  0  0  0  0  0  0  0  0  0  0
   -6.2994    4.7842    0.0000 O   0  0  0  0  0  0  0  0  0  0  0  0
   -4.2439    6.8535    0.0000 O   0  0  0  0  0  0  0  0  0  0  0  0
   -0.8744    4.9764    0.0000 C   0  0  0  0  0  0  0  0  0  0  0  0
   -3.5800    6.2491    0.0000 O   0  0  0  0  0  0  0  0  0  0  0  0
    0.6639    5.5899    0.0000 C   0  0  0  0  0  0  0  0  0  0  0  0
    0.5493    4.7704    0.0000 C   0  0  0  0  0  0  0  0  0  0  0  0
   -0.1739    9.0280    0.0000 C   0  0  0  0  0  0  0  0  0  0  0  0
    1.4146    8.6114    0.0000 C   0  0  0  0  0  0  0  0  0  0  0  0
   -0.2151    4.4637    0.0000 C   0  0  0  0  0  0  0  0  0  0  0  0
    1.1995    9.3989    0.0000 C   0  0  0  0  0  0  0  0  0  0  0  0
    0.4029    9.6186    0.0000 C   0  0  0  0  0  0  0  0  0  0  0  0
  2 13  1  0  0  0  0
  3  2  2  0  0  0  0
  4  2  1  0  0  0  0
  5  8  1  0  0  0  0
  6  1  1  0  0  0  0
  7  1  1  0  0  0  0
  8  9  1  0  0  0  0
  9 11  1  0  0  0  0
 10  3  1  0  0  0  0
 11  1  1  0  0  0  0
 12  4  1  0  0  0  0
 13 16  2  0  0  0  0
 14  5  1  0  0  0  0
 15  5  2  0  0  0  0
 16 21  1  0  0  0  0
 17  6  1  0  0  0  0
 18  7  1  0  0  0  0
 19  6  2  0  0  0  0
 20  7  2  0  0  0  0
 21 14  1  0  0  0  0
 22  9  2  0  0  0  0
 23 24  2  0  0  0  0
 24 27  1  0  0  0  0
 25 10  1  0  0  0  0
 26 12  1  0  0  0  0
 27 21  2  0  0  0  0
 28 26  2  0  0  0  0
 29 25  2  0  0  0  0
 17 18  1  0  0  0  0
 13 23  1  0  0  0  0
 10 12  2  0  0  0  0
 29 28  1  0  0  0  0
M  END
>  <IDNUMBER>
F0834-0675

>  <Chemical_Name>
1-[3-(1,3-benzoxazol-2-yl)phenyl]-3-[2-(2,5-dioxopyrrolidin-1-yl)acetyl]thiourea

>  <PriceCoeff>
1.00

>  <CAS>
398999-46-7

>  <MW>
408.43

>  <Description>
solid

>  <FSP3>
0.15

>  <clogP>
2.04

>  <TPSA>
136.63

>  <Acceptor>
6

>  <Donor>
2

>  <RotBonds>
4

>  <HAC>
29

>  <Collection>
General

>  <PPDS>
+

$$$$
F0834-1057
  Mrv2219 10102508112D          

 23 25  0  0  0  0            999 V2000
   -3.8908    2.9987    0.0000 C   0  0  0  0  0  0  0  0  0  0  0  0
   -3.8782    5.4781    0.0000 N   0  0  0  0  0  0  0  0  0  0  0  0
   -3.2039    2.5338    0.0000 N   0  0  0  0  0  0  0  0  0  0  0  0
   -3.8908    3.8196    0.0000 N   0  0  0  0  0  0  0  0  0  0  0  0
   -4.5441    2.5338    0.0000 S   0  0  0  0  0  0  0  0  0  0  0  0
   -3.4510    1.7339    0.0000 C   0  0  0  0  0  0  0  0  0  0  0  0
   -4.3054    1.7339    0.0000 C   0  0  0  0  0  0  0  0  0  0  0  0
   -4.6363    5.1682    0.0000 C   0  0  0  0  0  0  0  0  0  0  0  0
   -3.9661    6.2739    0.0000 C   0  0  0  0  0  0  0  0  0  0  0  0
   -3.1746    4.2259    0.0000 C   0  0  0  0  0  0  0  0  0  0  0  0
   -3.1746    5.0551    0.0000 C   0  0  0  0  0  0  0  0  0  0  0  0
   -3.0364    1.0303    0.0000 C   0  0  0  0  0  0  0  0  0  0  0  0
   -4.7619    6.4498    0.0000 C   0  0  0  0  0  0  0  0  0  0  0  0
   -5.1723    5.7839    0.0000 C   0  0  0  0  0  0  0  0  0  0  0  0
   -3.3170    6.8770    0.0000 O   0  0  0  0  0  0  0  0  0  0  0  0
   -4.8457    4.3138    0.0000 O   0  0  0  0  0  0  0  0  0  0  0  0
   -2.4501    3.8196    0.0000 O   0  0  0  0  0  0  0  0  0  0  0  0
   -2.4082    2.7893    0.0000 C   0  0  0  0  0  0  0  0  0  0  0  0
   -4.7075    1.0303    0.0000 C   0  0  0  0  0  0  0  0  0  0  0  0
   -2.2071    1.0303    0.0000 O   0  0  0  0  0  0  0  0  0  0  0  0
   -4.3054    0.3099    0.0000 C   0  0  0  0  0  0  0  0  0  0  0  0
   -3.4510    0.3099    0.0000 C   0  0  0  0  0  0  0  0  0  0  0  0
   -1.7799    1.7339    0.0000 C   0  0  0  0  0  0  0  0  0  0  0  0
  2 11  1  0  0  0  0
  3  1  1  0  0  0  0
  4  1  2  0  0  0  0
  5  1  1  0  0  0  0
  6  3  1  0  0  0  0
  7  5  1  0  0  0  0
  8  2  1  0  0  0  0
  9  2  1  0  0  0  0
 10  4  1  0  0  0  0
 11 10  1  0  0  0  0
 12  6  1  0  0  0  0
 13  9  1  0  0  0  0
 14  8  1  0  0  0  0
 15  9  2  0  0  0  0
 16  8  2  0  0  0  0
 17 10  2  0  0  0  0
 18  3  1  0  0  0  0
 19  7  1  0  0  0  0
 20 12  1  0  0  0  0
 21 19  2  0  0  0  0
 22 12  2  0  0  0  0
 23 20  1  0  0  0  0
  7  6  2  0  0  0  0
 21 22  1  0  0  0  0
 14 13  1  0  0  0  0
M  END
>  <IDNUMBER>
F0834-1057

>  <Chemical_Name>
2-(2,5-dioxopyrrolidin-1-yl)-N-[(2E)-4-methoxy-3-methyl-2,3-dihydro-1,3-benzothiazol-2-ylidene]acetamide

>  <PriceCoeff>
1.00

>  <CAS>
477294-97-6

>  <MW>
333.36

>  <Description>
solid

>  <FSP3>
0.33

>  <clogP>
2.70

>  <TPSA>
104.58

>  <Acceptor>
4

>  <Donor>
0

>  <RotBonds>
4

>  <HAC>
23

>  <Collection>
General

>  <PPDS>
+

$$$$
F0834-1059
  Mrv2219 10102508112D          

 22 24  0  0  0  0            999 V2000
   -3.9022    3.0075    0.0000 C   0  0  0  0  0  0  0  0  0  0  0  0
   -3.8896    5.4942    0.0000 N   0  0  0  0  0  0  0  0  0  0  0  0
   -3.2092    2.5413    0.0000 N   0  0  0  0  0  0  0  0  0  0  0  0
   -3.9022    3.8308    0.0000 N   0  0  0  0  0  0  0  0  0  0  0  0
   -4.5701    2.5413    0.0000 S   0  0  0  0  0  0  0  0  0  0  0  0
   -4.3054    1.7474    0.0000 C   0  0  0  0  0  0  0  0  0  0  0  0
   -3.4611    1.7474    0.0000 C   0  0  0  0  0  0  0  0  0  0  0  0
   -4.6499    5.1834    0.0000 C   0  0  0  0  0  0  0  0  0  0  0  0
   -3.9778    6.2923    0.0000 C   0  0  0  0  0  0  0  0  0  0  0  0
   -3.1839    4.2383    0.0000 C   0  0  0  0  0  0  0  0  0  0  0  0
   -3.1839    5.0700    0.0000 C   0  0  0  0  0  0  0  0  0  0  0  0
   -4.7256    1.0334    0.0000 C   0  0  0  0  0  0  0  0  0  0  0  0
   -3.0579    1.0334    0.0000 C   0  0  0  0  0  0  0  0  0  0  0  0
   -5.1875    5.8009    0.0000 C   0  0  0  0  0  0  0  0  0  0  0  0
   -4.7760    6.4687    0.0000 C   0  0  0  0  0  0  0  0  0  0  0  0
   -4.8599    4.3265    0.0000 O   0  0  0  0  0  0  0  0  0  0  0  0
   -3.3267    6.8972    0.0000 O   0  0  0  0  0  0  0  0  0  0  0  0
   -2.4573    3.8308    0.0000 O   0  0  0  0  0  0  0  0  0  0  0  0
   -4.3054    0.3234    0.0000 C   0  0  0  0  0  0  0  0  0  0  0  0
   -3.4611    0.3234    0.0000 C   0  0  0  0  0  0  0  0  0  0  0  0
   -2.4153    2.7932    0.0000 C   0  0  0  0  0  0  0  0  0  0  0  0
   -4.7465   -0.4074    0.0000 F   0  0  0  0  0  0  0  0  0  0  0  0
  2 11  1  0  0  0  0
  3  1  1  0  0  0  0
  4  1  2  0  0  0  0
  5  1  1  0  0  0  0
  6  5  1  0  0  0  0
  7  3  1  0  0  0  0
  8  2  1  0  0  0  0
  9  2  1  0  0  0  0
 10  4  1  0  0  0  0
 11 10  1  0  0  0  0
 12  6  1  0  0  0  0
 13  7  1  0  0  0  0
 14  8  1  0  0  0  0
 15  9  1  0  0  0  0
 16  8  2  0  0  0  0
 17  9  2  0  0  0  0
 18 10  2  0  0  0  0
 19 12  2  0  0  0  0
 20 13  2  0  0  0  0
 21  3  1  0  0  0  0
 22 19  1  0  0  0  0
  6  7  2  0  0  0  0
 19 20  1  0  0  0  0
 14 15  1  0  0  0  0
M  END
>  <IDNUMBER>
F0834-1059

>  <Chemical_Name>
2-(2,5-dioxopyrrolidin-1-yl)-N-[(2E)-6-fluoro-3-methyl-2,3-dihydro-1,3-benzothiazol-2-ylidene]acetamide

>  <PriceCoeff>
1.00

>  <CAS>
477294-98-7

>  <MW>
321.33

>  <Description>
solid

>  <FSP3>
0.29

>  <clogP>
2.92

>  <TPSA>
95.35

>  <Acceptor>
3

>  <Donor>
0

>  <RotBonds>
3

>  <HAC>
22

>  <Collection>
General

>  <PPDS>
+

$$$$
F0834-1072
  Mrv2219 10102508112D          

 28 31  0  0  0  0            999 V2000
   -3.2186    2.5136    0.0000 C   0  0  0  0  0  0  0  0  0  0  0  0
   -3.8984    2.9794    0.0000 C   0  0  0  0  0  0  0  0  0  0  0  0
   -1.7456    6.7142    0.0000 N   0  0  0  0  0  0  0  0  0  0  0  0
   -3.4494    1.7121    0.0000 O   0  0  0  0  0  0  0  0  0  0  0  0
   -3.8984    3.8271    0.0000 N   0  0  0  0  0  0  0  0  0  0  0  0
   -4.5530    2.4800    0.0000 C   0  0  0  0  0  0  0  0  0  0  0  0
   -2.4632    6.2987    0.0000 C   0  0  0  0  0  0  0  0  0  0  0  0
   -3.1808    4.2341    0.0000 C   0  0  0  0  0  0  0  0  0  0  0  0
   -1.6449    7.5199    0.0000 C   0  0  0  0  0  0  0  0  0  0  0  0
   -0.9945    6.3869    0.0000 C   0  0  0  0  0  0  0  0  0  0  0  0
   -4.2677    1.6827    0.0000 C   0  0  0  0  0  0  0  0  0  0  0  0
   -2.4549    2.8199    0.0000 C   0  0  0  0  0  0  0  0  0  0  0  0
   -2.4674    5.4679    0.0000 C   0  0  0  0  0  0  0  0  0  0  0  0
   -3.1808    5.0608    0.0000 C   0  0  0  0  0  0  0  0  0  0  0  0
   -2.4632    3.8228    0.0000 O   0  0  0  0  0  0  0  0  0  0  0  0
   -0.8518    7.6919    0.0000 C   0  0  0  0  0  0  0  0  0  0  0  0
   -0.4532    6.9995    0.0000 C   0  0  0  0  0  0  0  0  0  0  0  0
   -2.2744    8.1241    0.0000 O   0  0  0  0  0  0  0  0  0  0  0  0
   -0.7679    5.5392    0.0000 O   0  0  0  0  0  0  0  0  0  0  0  0
   -1.7960    2.2996    0.0000 O   0  0  0  0  0  0  0  0  0  0  0  0
   -2.3290    3.6466    0.0000 N   0  0  0  0  0  0  0  0  0  0  0  0
   -3.1808    6.7225    0.0000 C   0  0  0  0  0  0  0  0  0  0  0  0
   -5.3587    2.6269    0.0000 C   0  0  0  0  0  0  0  0  0  0  0  0
   -4.8048    1.0658    0.0000 C   0  0  0  0  0  0  0  0  0  0  0  0
   -3.8984    5.4679    0.0000 C   0  0  0  0  0  0  0  0  0  0  0  0
   -3.8984    6.2987    0.0000 C   0  0  0  0  0  0  0  0  0  0  0  0
   -5.9042    2.0017    0.0000 C   0  0  0  0  0  0  0  0  0  0  0  0
   -5.6356    1.2295    0.0000 C   0  0  0  0  0  0  0  0  0  0  0  0
  2  1  2  0  0  0  0
  3  7  1  0  0  0  0
  4  1  1  0  0  0  0
  5  2  1  0  0  0  0
  6  2  1  0  0  0  0
  7 13  1  0  0  0  0
  8  5  1  0  0  0  0
  9  3  1  0  0  0  0
 10  3  1  0  0  0  0
 11  4  1  0  0  0  0
 12  1  1  0  0  0  0
 13 14  2  0  0  0  0
 14  8  1  0  0  0  0
 15  8  2  0  0  0  0
 16  9  1  0  0  0  0
 17 10  1  0  0  0  0
 18  9  2  0  0  0  0
 19 10  2  0  0  0  0
 20 12  2  0  0  0  0
 21 12  1  0  0  0  0
 22 26  1  0  0  0  0
 23  6  1  0  0  0  0
 24 11  1  0  0  0  0
 25 14  1  0  0  0  0
 26 25  2  0  0  0  0
 27 23  2  0  0  0  0
 28 24  2  0  0  0  0
 11  6  2  0  0  0  0
 27 28  1  0  0  0  0
 22  7  2  0  0  0  0
 16 17  1  0  0  0  0
M  END
>  <IDNUMBER>
F0834-1072

>  <Chemical_Name>
3-[3-(2,5-dioxopyrrolidin-1-yl)benzamido]-1-benzofuran-2-carboxamide

>  <PriceCoeff>
1.00

>  <CAS>
399000-59-0

>  <MW>
377.35

>  <Description>
solid

>  <FSP3>
0.10

>  <clogP>
0.46

>  <TPSA>
122.71

>  <Acceptor>
5

>  <Donor>
2

>  <RotBonds>
4

>  <HAC>
28

>  <Collection>
General

>  <PPDS>
+

$$$$
F0834-1073
  Mrv2219 10102508112D          

 28 31  0  0  0  0            999 V2000
   -3.8906    2.9986    0.0000 C   0  0  0  0  0  0  0  0  0  0  0  0
   -3.8906    3.8194    0.0000 N   0  0  0  0  0  0  0  0  0  0  0  0
   -3.2038    2.5337    0.0000 N   0  0  0  0  0  0  0  0  0  0  0  0
   -1.7422    6.7008    0.0000 N   0  0  0  0  0  0  0  0  0  0  0  0
   -4.5439    2.5337    0.0000 S   0  0  0  0  0  0  0  0  0  0  0  0
   -3.4509    1.7338    0.0000 C   0  0  0  0  0  0  0  0  0  0  0  0
   -4.3052    1.7338    0.0000 C   0  0  0  0  0  0  0  0  0  0  0  0
   -3.1745    4.2257    0.0000 C   0  0  0  0  0  0  0  0  0  0  0  0
   -2.4583    6.2862    0.0000 C   0  0  0  0  0  0  0  0  0  0  0  0
   -0.9926    6.3742    0.0000 C   0  0  0  0  0  0  0  0  0  0  0  0
   -1.6417    7.5049    0.0000 C   0  0  0  0  0  0  0  0  0  0  0  0
   -2.4625    5.4570    0.0000 C   0  0  0  0  0  0  0  0  0  0  0  0
   -3.1745    5.0507    0.0000 C   0  0  0  0  0  0  0  0  0  0  0  0
   -3.0363    1.0302    0.0000 C   0  0  0  0  0  0  0  0  0  0  0  0
   -2.4583    3.8152    0.0000 O   0  0  0  0  0  0  0  0  0  0  0  0
   -0.8501    7.6766    0.0000 C   0  0  0  0  0  0  0  0  0  0  0  0
   -0.4523    6.9856    0.0000 C   0  0  0  0  0  0  0  0  0  0  0  0
   -2.2699    8.1080    0.0000 O   0  0  0  0  0  0  0  0  0  0  0  0
   -0.7664    5.5281    0.0000 O   0  0  0  0  0  0  0  0  0  0  0  0
   -2.4081    2.7892    0.0000 C   0  0  0  0  0  0  0  0  0  0  0  0
   -4.7073    1.0302    0.0000 C   0  0  0  0  0  0  0  0  0  0  0  0
   -3.1745    6.7092    0.0000 C   0  0  0  0  0  0  0  0  0  0  0  0
   -2.2070    1.0302    0.0000 O   0  0  0  0  0  0  0  0  0  0  0  0
   -3.8906    5.4570    0.0000 C   0  0  0  0  0  0  0  0  0  0  0  0
   -3.8906    6.2862    0.0000 C   0  0  0  0  0  0  0  0  0  0  0  0
   -4.3052    0.3099    0.0000 C   0  0  0  0  0  0  0  0  0  0  0  0
   -3.4509    0.3099    0.0000 C   0  0  0  0  0  0  0  0  0  0  0  0
   -1.7799    1.7338    0.0000 C   0  0  0  0  0  0  0  0  0  0  0  0
  2  1  2  0  0  0  0
  3  1  1  0  0  0  0
  4  9  1  0  0  0  0
  5  1  1  0  0  0  0
  6  3  1  0  0  0  0
  7  5  1  0  0  0  0
  8  2  1  0  0  0  0
  9 12  1  0  0  0  0
 10  4  1  0  0  0  0
 11  4  1  0  0  0  0
 12 13  2  0  0  0  0
 13  8  1  0  0  0  0
 14  6  1  0  0  0  0
 15  8  2  0  0  0  0
 16 11  1  0  0  0  0
 17 10  1  0  0  0  0
 18 11  2  0  0  0  0
 19 10  2  0  0  0  0
 20  3  1  0  0  0  0
 21  7  1  0  0  0  0
 22 25  1  0  0  0  0
 23 14  1  0  0  0  0
 24 13  1  0  0  0  0
 25 24  2  0  0  0  0
 26 21  2  0  0  0  0
 27 14  2  0  0  0  0
 28 23  1  0  0  0  0
  7  6  2  0  0  0  0
 26 27  1  0  0  0  0
 22  9  2  0  0  0  0
 16 17  1  0  0  0  0
M  END
>  <IDNUMBER>
F0834-1073

>  <Chemical_Name>
3-(2,5-dioxopyrrolidin-1-yl)-N-[(2E)-4-methoxy-3-methyl-2,3-dihydro-1,3-benzothiazol-2-ylidene]benzamide

>  <PriceCoeff>
1.00

>  <CAS>
477295-06-0

>  <MW>
395.43

>  <Description>
solid

>  <FSP3>
0.20

>  <clogP>
2.87

>  <TPSA>
104.58

>  <Acceptor>
4

>  <Donor>
0

>  <RotBonds>
4

>  <HAC>
28

>  <Collection>
General

>  <PPDS>
+

$$$$
F0834-1075
  Mrv2219 10102508112D          

 27 30  0  0  0  0            999 V2000
   -3.8906    2.9986    0.0000 C   0  0  0  0  0  0  0  0  0  0  0  0
   -3.8906    3.8194    0.0000 N   0  0  0  0  0  0  0  0  0  0  0  0
   -1.7422    6.7008    0.0000 N   0  0  0  0  0  0  0  0  0  0  0  0
   -3.1996    2.5337    0.0000 N   0  0  0  0  0  0  0  0  0  0  0  0
   -4.5565    2.5337    0.0000 S   0  0  0  0  0  0  0  0  0  0  0  0
   -4.2927    1.7422    0.0000 C   0  0  0  0  0  0  0  0  0  0  0  0
   -3.4509    1.7422    0.0000 C   0  0  0  0  0  0  0  0  0  0  0  0
   -3.1745    4.2257    0.0000 C   0  0  0  0  0  0  0  0  0  0  0  0
   -2.4583    6.2862    0.0000 C   0  0  0  0  0  0  0  0  0  0  0  0
   -0.9926    6.3742    0.0000 C   0  0  0  0  0  0  0  0  0  0  0  0
   -1.6417    7.5049    0.0000 C   0  0  0  0  0  0  0  0  0  0  0  0
   -2.4625    5.4570    0.0000 C   0  0  0  0  0  0  0  0  0  0  0  0
   -3.1745    5.0507    0.0000 C   0  0  0  0  0  0  0  0  0  0  0  0
   -4.7115    1.0302    0.0000 C   0  0  0  0  0  0  0  0  0  0  0  0
   -3.0488    1.0302    0.0000 C   0  0  0  0  0  0  0  0  0  0  0  0
   -2.4583    3.8152    0.0000 O   0  0  0  0  0  0  0  0  0  0  0  0
   -0.4523    6.9856    0.0000 C   0  0  0  0  0  0  0  0  0  0  0  0
   -0.8501    7.6766    0.0000 C   0  0  0  0  0  0  0  0  0  0  0  0
   -0.7664    5.5281    0.0000 O   0  0  0  0  0  0  0  0  0  0  0  0
   -2.2699    8.1080    0.0000 O   0  0  0  0  0  0  0  0  0  0  0  0
   -4.2927    0.3224    0.0000 C   0  0  0  0  0  0  0  0  0  0  0  0
   -3.4509    0.3224    0.0000 C   0  0  0  0  0  0  0  0  0  0  0  0
   -2.4081    2.7850    0.0000 C   0  0  0  0  0  0  0  0  0  0  0  0
   -4.7324   -0.4063    0.0000 F   0  0  0  0  0  0  0  0  0  0  0  0
   -3.1745    6.7092    0.0000 C   0  0  0  0  0  0  0  0  0  0  0  0
   -3.8906    5.4570    0.0000 C   0  0  0  0  0  0  0  0  0  0  0  0
   -3.8906    6.2862    0.0000 C   0  0  0  0  0  0  0  0  0  0  0  0
  2  1  2  0  0  0  0
  3  9  1  0  0  0  0
  4  1  1  0  0  0  0
  5  1  1  0  0  0  0
  6  5  1  0  0  0  0
  7  4  1  0  0  0  0
  8  2  1  0  0  0  0
  9 12  1  0  0  0  0
 10  3  1  0  0  0  0
 11  3  1  0  0  0  0
 12 13  2  0  0  0  0
 13  8  1  0  0  0  0
 14  6  1  0  0  0  0
 15  7  1  0  0  0  0
 16  8  2  0  0  0  0
 17 10  1  0  0  0  0
 18 11  1  0  0  0  0
 19 10  2  0  0  0  0
 20 11  2  0  0  0  0
 21 14  2  0  0  0  0
 22 15  2  0  0  0  0
 23  4  1  0  0  0  0
 24 21  1  0  0  0  0
 25 27  1  0  0  0  0
 26 13  1  0  0  0  0
 27 26  2  0  0  0  0
  6  7  2  0  0  0  0
 21 22  1  0  0  0  0
 25  9  2  0  0  0  0
 18 17  1  0  0  0  0
M  END
>  <IDNUMBER>
F0834-1075

>  <Chemical_Name>
3-(2,5-dioxopyrrolidin-1-yl)-N-[(2E)-6-fluoro-3-methyl-2,3-dihydro-1,3-benzothiazol-2-ylidene]benzamide

>  <PriceCoeff>
1.00

>  <CAS>
477295-08-2

>  <MW>
383.40

>  <Description>
solid

>  <FSP3>
0.16

>  <clogP>
3.09

>  <TPSA>
95.35

>  <Acceptor>
3

>  <Donor>
0

>  <RotBonds>
3

>  <HAC>
27

>  <Collection>
General

>  <PPDS>
+

$$$$
F0838-0491
  Mrv2219 10102508112D          

 25 27  0  0  0  0            999 V2000
    0.9437   -0.0919    0.0000 C   0  0  0  0  0  0  0  0  0  0  0  0
    1.7704   -0.0919    0.0000 N   0  0  0  0  0  0  0  0  0  0  0  0
    4.2505   -0.0919    0.0000 C   0  0  0  0  0  0  0  0  0  0  0  0
    3.4238   -0.0919    0.0000 N   0  0  0  0  0  0  0  0  0  0  0  0
    0.5303   -0.8059    0.0000 C   0  0  0  0  0  0  0  0  0  0  0  0
    4.6638    0.6221    0.0000 C   0  0  0  0  0  0  0  0  0  0  0  0
    2.1837    0.6221    0.0000 C   0  0  0  0  0  0  0  0  0  0  0  0
    3.0104    0.6221    0.0000 C   0  0  0  0  0  0  0  0  0  0  0  0
    2.1837   -0.8059    0.0000 C   0  0  0  0  0  0  0  0  0  0  0  0
    3.0104   -0.8059    0.0000 C   0  0  0  0  0  0  0  0  0  0  0  0
    0.5303    0.6221    0.0000 O   0  0  0  0  0  0  0  0  0  0  0  0
   -0.2964   -0.8059    0.0000 C   0  0  0  0  0  0  0  0  0  0  0  0
    5.4906    0.6221    0.0000 C   0  0  0  0  0  0  0  0  0  0  0  0
    4.6638   -0.8059    0.0000 O   0  0  0  0  0  0  0  0  0  0  0  0
   -0.7098   -0.0919    0.0000 F   0  0  0  0  0  0  0  0  0  0  0  0
    5.8997   -0.0919    0.0000 F   0  0  0  0  0  0  0  0  0  0  0  0
    0.9437   -1.5198    0.0000 C   0  0  0  0  0  0  0  0  0  0  0  0
    4.2505    1.3403    0.0000 C   0  0  0  0  0  0  0  0  0  0  0  0
    1.7704    1.3403    0.0000 C   0  0  0  0  0  0  0  0  0  0  0  0
    5.8997    1.3403    0.0000 C   0  0  0  0  0  0  0  0  0  0  0  0
   -0.7098   -1.5198    0.0000 C   0  0  0  0  0  0  0  0  0  0  0  0
    0.5303   -2.2338    0.0000 C   0  0  0  0  0  0  0  0  0  0  0  0
    4.6638    2.0542    0.0000 C   0  0  0  0  0  0  0  0  0  0  0  0
    5.4906    2.0542    0.0000 C   0  0  0  0  0  0  0  0  0  0  0  0
   -0.2964   -2.2338    0.0000 C   0  0  0  0  0  0  0  0  0  0  0  0
  2  1  1  0  0  0  0
  3  4  1  0  0  0  0
  4 10  1  0  0  0  0
  5  1  1  0  0  0  0
  6  3  1  0  0  0  0
  7  2  1  0  0  0  0
  8  7  1  0  0  0  0
  9  2  1  0  0  0  0
 10  9  1  0  0  0  0
 11  1  2  0  0  0  0
 12  5  1  0  0  0  0
 13  6  2  0  0  0  0
 14  3  2  0  0  0  0
 15 12  1  0  0  0  0
 16 13  1  0  0  0  0
 17  5  2  0  0  0  0
 18  6  1  0  0  0  0
 19  7  1  0  0  0  0
 20 13  1  0  0  0  0
 21 12  2  0  0  0  0
 22 17  1  0  0  0  0
 23 18  2  0  0  0  0
 24 23  1  0  0  0  0
 25 22  2  0  0  0  0
  4  8  1  0  0  0  0
 25 21  1  0  0  0  0
 24 20  2  0  0  0  0
M  END
>  <IDNUMBER>
F0838-0491

>  <Chemical_Name>
1,4-bis(2-fluorobenzoyl)-2-methylpiperazine

>  <PriceCoeff>
1.00

>  <CAS>
425678-28-0

>  <MW>
344.36

>  <Description>
solid

>  <FSP3>
0.26

>  <clogP>
2.89

>  <TPSA>
40.62

>  <Acceptor>
2

>  <Donor>
0

>  <RotBonds>
4

>  <HAC>
25

>  <Collection>
General

>  <PPDS>
+

$$$$
F0838-0508
  Mrv2219 10102508112D          

 22 24  0  0  0  0            999 V2000
    0.3619   -0.9528    0.0000 C   0  0  0  0  0  0  0  0  0  0  0  0
   -1.0535    0.6962    0.0000 C   0  0  0  0  0  0  0  0  0  0  0  0
   -0.3389    1.9331    0.0000 N   0  3  0  0  0  0  0  0  0  0  0  0
   -1.0535    1.5208    0.0000 C   0  0  0  0  0  0  0  0  0  0  0  0
   -0.3389    0.2840    0.0000 C   0  0  0  0  0  0  0  0  0  0  0  0
    0.4398   -1.7774    0.0000 N   0  0  0  0  0  0  0  0  0  0  0  0
   -0.3527   -0.5406    0.0000 N   0  0  0  0  0  0  0  0  0  0  0  0
    1.1269   -0.6368    0.0000 S   0  0  0  0  0  0  0  0  0  0  0  0
    1.2552   -1.9698    0.0000 C   0  0  0  0  0  0  0  0  0  0  0  0
    1.6766   -1.2552    0.0000 C   0  0  0  0  0  0  0  0  0  0  0  0
   -1.7819    1.9468    0.0000 C   0  0  0  0  0  0  0  0  0  0  0  0
   -1.7819    0.2840    0.0000 C   0  0  0  0  0  0  0  0  0  0  0  0
   -0.3389    2.7347    0.0000 O   0  5  0  0  0  0  0  0  0  0  0  0
    0.3757    1.5208    0.0000 O   0  0  0  0  0  0  0  0  0  0  0  0
    0.3619    0.6825    0.0000 O   0  0  0  0  0  0  0  0  0  0  0  0
   -2.4965    1.5208    0.0000 C   0  0  0  0  0  0  0  0  0  0  0  0
   -2.4965    0.6962    0.0000 C   0  0  0  0  0  0  0  0  0  0  0  0
   -3.2111    1.9468    0.0000 Cl  0  0  0  0  0  0  0  0  0  0  0  0
    1.6628   -2.6432    0.0000 C   0  0  0  0  0  0  0  0  0  0  0  0
    2.5011   -1.2552    0.0000 C   0  0  0  0  0  0  0  0  0  0  0  0
    2.4782   -2.6432    0.0000 C   0  0  0  0  0  0  0  0  0  0  0  0
    2.9043   -1.9698    0.0000 C   0  0  0  0  0  0  0  0  0  0  0  0
  2  5  1  0  0  0  0
  3  4  1  0  0  0  0
  4  2  1  0  0  0  0
  5  7  1  0  0  0  0
  6  1  2  0  0  0  0
  7  1  1  0  0  0  0
  8  1  1  0  0  0  0
  9  6  1  0  0  0  0
 10  8  1  0  0  0  0
 11  4  2  0  0  0  0
 12  2  2  0  0  0  0
 13  3  1  0  0  0  0
 14  3  2  0  0  0  0
 15  5  2  0  0  0  0
 16 17  2  0  0  0  0
 17 12  1  0  0  0  0
 18 16  1  0  0  0  0
 19  9  1  0  0  0  0
 20 10  1  0  0  0  0
 21 19  2  0  0  0  0
 22 20  2  0  0  0  0
  9 10  2  0  0  0  0
 21 22  1  0  0  0  0
 11 16  1  0  0  0  0
M  CHG  2   3   1  13  -1
M  END
>  <IDNUMBER>
F0838-0508

>  <Chemical_Name>
N-(1,3-benzothiazol-2-yl)-4-chloro-2-nitrobenzamide

>  <PriceCoeff>
1.00

>  <CAS>
330215-59-3

>  <MW>
333.75

>  <Description>
solid

>  <FSP3>
0.00

>  <clogP>
3.16

>  <TPSA>
113.37

>  <Acceptor>
4

>  <Donor>
1

>  <RotBonds>
3

>  <HAC>
22

>  <Collection>
General

>  <PPDS>
+

$$$$
F0838-0514
  Mrv2219 10102508112D          

 25 27  0  0  0  0            999 V2000
   -0.1466    0.4814    0.0000 C   0  0  0  0  0  0  0  0  0  0  0  0
    1.9986    0.0687    0.0000 C   0  0  0  0  0  0  0  0  0  0  0  0
    1.2698   -1.1688    0.0000 N   0  3  0  0  0  0  0  0  0  0  0  0
    1.9940   -0.7564    0.0000 C   0  0  0  0  0  0  0  0  0  0  0  0
    1.2836    0.4905    0.0000 C   0  0  0  0  0  0  0  0  0  0  0  0
   -0.1466    1.3064    0.0000 N   0  0  0  0  0  0  0  0  0  0  0  0
    0.5685    0.0687    0.0000 N   0  0  0  0  0  0  0  0  0  0  0  0
   -0.8617    0.0687    0.0000 S   0  0  0  0  0  0  0  0  0  0  0  0
   -1.5768    0.4905    0.0000 C   0  0  0  0  0  0  0  0  0  0  0  0
   -1.5768    1.3064    0.0000 C   0  0  0  0  0  0  0  0  0  0  0  0
    2.6999   -1.1688    0.0000 C   0  0  0  0  0  0  0  0  0  0  0  0
    2.6999    0.4814    0.0000 C   0  0  0  0  0  0  0  0  0  0  0  0
   -2.2828    0.0779    0.0000 C   0  0  0  0  0  0  0  0  0  0  0  0
    0.5547   -0.7564    0.0000 O   0  5  0  0  0  0  0  0  0  0  0  0
    1.2698   -1.9986    0.0000 O   0  0  0  0  0  0  0  0  0  0  0  0
    1.2698    1.3064    0.0000 O   0  0  0  0  0  0  0  0  0  0  0  0
   -2.2828    1.7189    0.0000 C   0  0  0  0  0  0  0  0  0  0  0  0
    3.4241   -0.7564    0.0000 C   0  0  0  0  0  0  0  0  0  0  0  0
   -2.9933    0.4814    0.0000 C   0  0  0  0  0  0  0  0  0  0  0  0
    3.4150    0.0779    0.0000 C   0  0  0  0  0  0  0  0  0  0  0  0
   -2.9933    1.3064    0.0000 C   0  0  0  0  0  0  0  0  0  0  0  0
    4.1301   -1.1597    0.0000 Cl  0  0  0  0  0  0  0  0  0  0  0  0
   -3.7083    0.0641    0.0000 O   0  0  0  0  0  0  0  0  0  0  0  0
   -3.7083   -0.7610    0.0000 C   0  0  0  0  0  0  0  0  0  0  0  0
   -4.4234   -1.1735    0.0000 C   0  0  0  0  0  0  0  0  0  0  0  0
  2  5  1  0  0  0  0
  3  4  1  0  0  0  0
  4  2  2  0  0  0  0
  5  7  1  0  0  0  0
  6  1  2  0  0  0  0
  7  1  1  0  0  0  0
  8  1  1  0  0  0  0
  9  8  1  0  0  0  0
 10  6  1  0  0  0  0
 11  4  1  0  0  0  0
 12  2  1  0  0  0  0
 13  9  1  0  0  0  0
 14  3  1  0  0  0  0
 15  3  2  0  0  0  0
 16  5  2  0  0  0  0
 17 10  1  0  0  0  0
 18 20  1  0  0  0  0
 19 13  2  0  0  0  0
 20 12  2  0  0  0  0
 21 17  2  0  0  0  0
 22 18  1  0  0  0  0
 23 19  1  0  0  0  0
 24 23  1  0  0  0  0
 25 24  1  0  0  0  0
  9 10  2  0  0  0  0
 19 21  1  0  0  0  0
 11 18  2  0  0  0  0
M  CHG  2   3   1  14  -1
M  END
>  <IDNUMBER>
F0838-0514

>  <Chemical_Name>
4-chloro-N-(6-ethoxy-1,3-benzothiazol-2-yl)-2-nitrobenzamide

>  <PriceCoeff>
1.00

>  <CAS>
362489-07-4

>  <MW>
377.80

>  <Description>
solid

>  <FSP3>
0.12

>  <clogP>
3.97

>  <TPSA>
122.60

>  <Acceptor>
5

>  <Donor>
1

>  <RotBonds>
5

>  <HAC>
25

>  <Collection>
General

>  <PPDS>
+

$$$$
F0846-0687
  Mrv2219 10102508112D          

 26 29  0  0  0  0            999 V2000
   -5.2833    2.9375    0.0000 C   0  0  0  0  0  0  0  0  0  0  0  0
   -3.8833    5.4542    0.0000 N   0  0  0  0  0  0  0  0  0  0  0  0
   -6.0542    2.6583    0.0000 N   0  0  0  0  0  0  0  0  0  0  0  0
   -4.5708    2.5583    0.0000 C   0  0  0  0  0  0  0  0  0  0  0  0
   -5.3083    3.7500    0.0000 O   0  0  0  0  0  0  0  0  0  0  0  0
   -4.6333    5.1375    0.0000 C   0  0  0  0  0  0  0  0  0  0  0  0
   -3.9708    6.2667    0.0000 C   0  0  0  0  0  0  0  0  0  0  0  0
   -3.8708    2.9583    0.0000 C   0  0  0  0  0  0  0  0  0  0  0  0
   -3.1583    4.2042    0.0000 C   0  0  0  0  0  0  0  0  0  0  0  0
   -6.5417    3.2958    0.0000 C   0  0  0  0  0  0  0  0  0  0  0  0
   -3.8708    3.8000    0.0000 N   0  0  0  0  0  0  0  0  0  0  0  0
   -6.0667    3.9833    0.0000 C   0  0  0  0  0  0  0  0  0  0  0  0
   -3.1583    5.0417    0.0000 C   0  0  0  0  0  0  0  0  0  0  0  0
   -5.1750    5.7625    0.0000 C   0  0  0  0  0  0  0  0  0  0  0  0
   -4.7708    6.4417    0.0000 C   0  0  0  0  0  0  0  0  0  0  0  0
   -4.8083    4.3292    0.0000 O   0  0  0  0  0  0  0  0  0  0  0  0
   -3.3458    6.8292    0.0000 O   0  0  0  0  0  0  0  0  0  0  0  0
   -2.4375    3.7958    0.0000 O   0  0  0  0  0  0  0  0  0  0  0  0
   -4.5625    1.7250    0.0000 C   0  0  0  0  0  0  0  0  0  0  0  0
   -3.1375    2.5708    0.0000 C   0  0  0  0  0  0  0  0  0  0  0  0
   -7.3667    3.3625    0.0000 C   0  0  0  0  0  0  0  0  0  0  0  0
   -6.4292    4.7167    0.0000 C   0  0  0  0  0  0  0  0  0  0  0  0
   -3.8625    1.3333    0.0000 C   0  0  0  0  0  0  0  0  0  0  0  0
   -3.1458    1.7458    0.0000 C   0  0  0  0  0  0  0  0  0  0  0  0
   -7.2500    4.7917    0.0000 C   0  0  0  0  0  0  0  0  0  0  0  0
   -7.7292    4.0917    0.0000 C   0  0  0  0  0  0  0  0  0  0  0  0
  2 13  1  0  0  0  0
  3  1  2  0  0  0  0
  4  1  1  0  0  0  0
  5  1  1  0  0  0  0
  6  2  1  0  0  0  0
  7  2  1  0  0  0  0
  8  4  1  0  0  0  0
  9 11  1  0  0  0  0
 10  3  1  0  0  0  0
 11  8  1  0  0  0  0
 12  5  1  0  0  0  0
 13  9  1  0  0  0  0
 14  6  1  0  0  0  0
 15  7  1  0  0  0  0
 16  6  2  0  0  0  0
 17  7  2  0  0  0  0
 18  9  2  0  0  0  0
 19  4  2  0  0  0  0
 20  8  2  0  0  0  0
 21 10  1  0  0  0  0
 22 12  1  0  0  0  0
 23 19  1  0  0  0  0
 24 23  2  0  0  0  0
 25 22  2  0  0  0  0
 26 21  2  0  0  0  0
 12 10  2  0  0  0  0
 24 20  1  0  0  0  0
 25 26  1  0  0  0  0
 14 15  1  0  0  0  0
M  END
>  <IDNUMBER>
F0846-0687

>  <Chemical_Name>
N-[2-(1,3-benzoxazol-2-yl)phenyl]-2-(2,5-dioxopyrrolidin-1-yl)acetamide

>  <PriceCoeff>
1.00

>  <CAS>
477501-00-1

>  <MW>
349.34

>  <Description>
solid

>  <FSP3>
0.16

>  <clogP>
1.12

>  <TPSA>
92.51

>  <Acceptor>
5

>  <Donor>
1

>  <RotBonds>
4

>  <HAC>
26

>  <Collection>
General

>  <PPDS>
+

$$$$
F0846-0695
  Mrv2219 10102508112D          

 30 33  0  0  0  0            999 V2000
    2.4542   -2.9917    0.0000 C   0  0  0  0  0  0  0  0  0  0  0  0
    1.7875   -2.5000    0.0000 C   0  0  0  0  0  0  0  0  0  0  0  0
    2.5042    1.2208    0.0000 N   0  0  0  0  0  0  0  0  0  0  0  0
    2.1917   -3.7667    0.0000 O   0  0  0  0  0  0  0  0  0  0  0  0
    1.7875   -1.6750    0.0000 N   0  0  0  0  0  0  0  0  0  0  0  0
    1.1167   -2.9792    0.0000 C   0  0  0  0  0  0  0  0  0  0  0  0
    1.7875    0.8083    0.0000 C   0  0  0  0  0  0  0  0  0  0  0  0
    1.0667   -1.2625    0.0000 C   0  0  0  0  0  0  0  0  0  0  0  0
    2.6250    2.0458    0.0000 C   0  0  0  0  0  0  0  0  0  0  0  0
    3.2500    0.8583    0.0000 C   0  0  0  0  0  0  0  0  0  0  0  0
    1.3667   -3.7667    0.0000 C   0  0  0  0  0  0  0  0  0  0  0  0
    3.2542   -2.7542    0.0000 C   0  0  0  0  0  0  0  0  0  0  0  0
    1.7875   -0.0167    0.0000 C   0  0  0  0  0  0  0  0  0  0  0  0
    1.0667   -0.4292    0.0000 C   0  0  0  0  0  0  0  0  0  0  0  0
    0.3542   -1.6750    0.0000 O   0  0  0  0  0  0  0  0  0  0  0  0
    3.4375    2.1833    0.0000 C   0  0  0  0  0  0  0  0  0  0  0  0
    3.8167    1.4583    0.0000 C   0  0  0  0  0  0  0  0  0  0  0  0
    2.0417    2.6208    0.0000 O   0  0  0  0  0  0  0  0  0  0  0  0
    3.3917    0.0458    0.0000 O   0  0  0  0  0  0  0  0  0  0  0  0
    3.4417   -1.9667    0.0000 O   0  0  0  0  0  0  0  0  0  0  0  0
    3.8542   -3.3250    0.0000 O   0  0  0  0  0  0  0  0  0  0  0  0
    1.0667    1.2208    0.0000 C   0  0  0  0  0  0  0  0  0  0  0  0
    0.3125   -2.8042    0.0000 C   0  0  0  0  0  0  0  0  0  0  0  0
    0.8167   -4.3750    0.0000 C   0  0  0  0  0  0  0  0  0  0  0  0
    0.3542   -0.0167    0.0000 C   0  0  0  0  0  0  0  0  0  0  0  0
    0.3542    0.8083    0.0000 C   0  0  0  0  0  0  0  0  0  0  0  0
    3.6667   -4.1125    0.0000 C   0  0  0  0  0  0  0  0  0  0  0  0
   -0.2458   -3.4167    0.0000 C   0  0  0  0  0  0  0  0  0  0  0  0
    0.0167   -4.1917    0.0000 C   0  0  0  0  0  0  0  0  0  0  0  0
    4.2667   -4.6750    0.0000 C   0  0  0  0  0  0  0  0  0  0  0  0
  2  1  2  0  0  0  0
  3  7  1  0  0  0  0
  4  1  1  0  0  0  0
  5  2  1  0  0  0  0
  6  2  1  0  0  0  0
  7 13  1  0  0  0  0
  8  5  1  0  0  0  0
  9  3  1  0  0  0  0
 10  3  1  0  0  0  0
 11  4  1  0  0  0  0
 12  1  1  0  0  0  0
 13 14  2  0  0  0  0
 14  8  1  0  0  0  0
 15  8  2  0  0  0  0
 16  9  1  0  0  0  0
 17 10  1  0  0  0  0
 18  9  2  0  0  0  0
 19 10  2  0  0  0  0
 20 12  2  0  0  0  0
 21 12  1  0  0  0  0
 22 26  1  0  0  0  0
 23  6  1  0  0  0  0
 24 11  1  0  0  0  0
 25 14  1  0  0  0  0
 26 25  2  0  0  0  0
 27 21  1  0  0  0  0
 28 23  2  0  0  0  0
 29 24  2  0  0  0  0
 30 27  1  0  0  0  0
 11  6  2  0  0  0  0
 28 29  1  0  0  0  0
  7 22  2  0  0  0  0
 16 17  1  0  0  0  0
M  END
>  <IDNUMBER>
F0846-0695

>  <Chemical_Name>
ethyl 3-[3-(2,5-dioxopyrrolidin-1-yl)benzamido]-1-benzofuran-2-carboxylate

>  <PriceCoeff>
1.00

>  <CAS>
477501-08-9

>  <MW>
406.39

>  <Description>
solid

>  <FSP3>
0.18

>  <clogP>
2.32

>  <TPSA>
105.92

>  <Acceptor>
6

>  <Donor>
1

>  <RotBonds>
6

>  <HAC>
30

>  <Collection>
General

>  <PPDS>
+

$$$$
F0847-0015
  Mrv2219 10102508112D          

 20 21  0  0  0  0            999 V2000
    1.0705    0.2572    0.0000 N   0  3  0  0  0  0  0  0  0  0  0  0
   -2.4926   -0.4879    0.0000 C   0  0  0  0  0  0  0  0  0  0  0  0
   -1.1309   -0.0265    0.0000 C   0  0  0  0  0  0  0  0  0  0  0  0
    0.2307    0.4198    0.0000 C   0  0  0  0  0  0  0  0  0  0  0  0
   -1.6756   -0.6506    0.0000 N   0  0  0  0  0  0  0  0  0  0  0  0
   -0.3139   -0.1967    0.0000 C   0  0  0  0  0  0  0  0  0  0  0  0
    1.3428   -0.5258    0.0000 O   0  5  0  0  0  0  0  0  0  0  0  0
    1.5924    0.8927    0.0000 O   0  0  0  0  0  0  0  0  0  0  0  0
   -1.4033    0.7452    0.0000 C   0  0  0  0  0  0  0  0  0  0  0  0
   -3.0373   -1.1234    0.0000 O   0  0  0  0  0  0  0  0  0  0  0  0
   -2.7422    0.2912    0.0000 O   0  0  0  0  0  0  0  0  0  0  0  0
   -0.0416    1.1990    0.0000 C   0  0  0  0  0  0  0  0  0  0  0  0
   -0.8359    1.3617    0.0000 C   0  0  0  0  0  0  0  0  0  0  0  0
   -3.8770   -0.9419    0.0000 C   0  0  0  0  0  0  0  0  0  0  0  0
   -2.2355    0.9078    0.0000 O   0  0  0  0  0  0  0  0  0  0  0  0
   -4.4557   -1.5432    0.0000 C   0  0  0  0  0  0  0  0  0  0  0  0
   -4.1039   -0.1400    0.0000 C   0  0  0  0  0  0  0  0  0  0  0  0
   -4.8869    0.0567    0.0000 C   0  0  0  0  0  0  0  0  0  0  0  0
   -5.2500   -1.3201    0.0000 C   0  0  0  0  0  0  0  0  0  0  0  0
   -5.4619   -0.5258    0.0000 C   0  0  0  0  0  0  0  0  0  0  0  0
  2  5  1  0  0  0  0
  3  6  1  0  0  0  0
  4  1  1  0  0  0  0
  5  3  1  0  0  0  0
  6  4  2  0  0  0  0
  7  1  1  0  0  0  0
  8  1  2  0  0  0  0
  9 13  1  0  0  0  0
 10  2  1  0  0  0  0
 11  2  2  0  0  0  0
 12  4  1  0  0  0  0
 13 12  2  0  0  0  0
 14 10  1  0  0  0  0
 15  9  1  0  0  0  0
 16 14  2  0  0  0  0
 17 14  1  0  0  0  0
 18 17  2  0  0  0  0
 19 16  1  0  0  0  0
 20 18  1  0  0  0  0
  3  9  2  0  0  0  0
 19 20  2  0  0  0  0
M  CHG  2   1   1   7  -1
M  END
>  <IDNUMBER>
F0847-0015

>  <Chemical_Name>
phenyl N-(2-hydroxy-5-nitrophenyl)carbamate

>  <PriceCoeff>
1.00

>  <CAS>
43112-62-5

>  <MW>
274.23

>  <Description>
solid

>  <FSP3>
0.00

>  <clogP>
3.12

>  <TPSA>
101.70

>  <Acceptor>
5

>  <Donor>
2

>  <RotBonds>
4

>  <HAC>
20

>  <Collection>
General

>  <PPDS>
+

$$$$
F0849-3107
  Mrv2219 10102508112D          

 33 36  0  0  0  0            999 V2000
    3.3583   -2.1571    0.0000 N   0  0  0  0  0  0  0  0  0  0  0  0
    3.8321   -2.8221    0.0000 C   0  0  0  0  0  0  0  0  0  0  0  0
    3.3458   -3.4913    0.0000 N   0  0  0  0  0  0  0  0  0  0  0  0
    2.5686   -3.2336    0.0000 C   0  0  0  0  0  0  0  0  0  0  0  0
    2.5810   -2.4065    0.0000 C   0  0  0  0  0  0  0  0  0  0  0  0
    3.6575   -1.3882    0.0000 C   0  0  0  0  0  0  0  0  0  0  0  0
    1.8454   -3.6451    0.0000 C   0  0  0  0  0  0  0  0  0  0  0  0
    4.6550   -2.8720    0.0000 C   0  0  0  0  0  0  0  0  0  0  0  0
    3.1339   -0.7481    0.0000 C   0  0  0  0  0  0  0  0  0  0  0  0
    5.1039   -2.1862    0.0000 C   0  0  0  0  0  0  0  0  0  0  0  0
    1.1264   -3.2211    0.0000 C   0  0  0  0  0  0  0  0  0  0  0  0
    5.9351   -2.2361    0.0000 C   0  0  0  0  0  0  0  0  0  0  0  0
    4.4680   -1.2635    0.0000 C   0  0  0  0  0  0  0  0  0  0  0  0
    1.9202   -1.9077    0.0000 O   0  0  0  0  0  0  0  0  0  0  0  0
    6.3092   -2.9718    0.0000 C   0  0  0  0  0  0  0  0  0  0  0  0
    3.4331    0.0207    0.0000 C   0  0  0  0  0  0  0  0  0  0  0  0
    5.0249   -3.6159    0.0000 C   0  0  0  0  0  0  0  0  0  0  0  0
    0.4157   -3.6284    0.0000 C   0  0  0  0  0  0  0  0  0  0  0  0
    5.8479   -3.6658    0.0000 C   0  0  0  0  0  0  0  0  0  0  0  0
    4.7673   -0.4988    0.0000 C   0  0  0  0  0  0  0  0  0  0  0  0
    4.2519    0.1454    0.0000 C   0  0  0  0  0  0  0  0  0  0  0  0
    6.3840   -1.5586    0.0000 O   0  0  0  0  0  0  0  0  0  0  0  0
    7.1239   -3.0216    0.0000 O   0  0  0  0  0  0  0  0  0  0  0  0
    0.4157   -4.4431    0.0000 O   0  0  0  0  0  0  0  0  0  0  0  0
    2.3234   -0.8770    0.0000 C   0  0  0  0  0  0  0  0  0  0  0  0
    1.1264   -2.3857    0.0000 C   0  0  0  0  0  0  0  0  0  0  0  0
   -0.2993   -3.2169    0.0000 C   0  0  0  0  0  0  0  0  0  0  0  0
    4.5511    0.9102    0.0000 C   0  0  0  0  0  0  0  0  0  0  0  0
    6.0100   -0.8229    0.0000 C   0  0  0  0  0  0  0  0  0  0  0  0
    7.5727   -2.3317    0.0000 C   0  0  0  0  0  0  0  0  0  0  0  0
    1.1264   -4.8545    0.0000 C   0  0  0  0  0  0  0  0  0  0  0  0
    0.4157   -1.9743    0.0000 C   0  0  0  0  0  0  0  0  0  0  0  0
   -0.2993   -2.3857    0.0000 C   0  0  0  0  0  0  0  0  0  0  0  0
  2  1  1  0  0  0  0
  3  2  2  0  0  0  0
  4  5  1  0  0  0  0
  5  1  1  0  0  0  0
  6  1  1  0  0  0  0
  7  4  2  0  0  0  0
  8  2  1  0  0  0  0
  9  6  1  0  0  0  0
 10  8  1  0  0  0  0
 11  7  1  0  0  0  0
 12 10  2  0  0  0  0
 13  6  2  0  0  0  0
 14  5  2  0  0  0  0
 15 19  2  0  0  0  0
 16  9  2  0  0  0  0
 17  8  2  0  0  0  0
 18 11  1  0  0  0  0
 19 17  1  0  0  0  0
 20 13  1  0  0  0  0
 21 20  2  0  0  0  0
 22 12  1  0  0  0  0
 23 15  1  0  0  0  0
 24 18  1  0  0  0  0
 25  9  1  0  0  0  0
 26 11  2  0  0  0  0
 27 18  2  0  0  0  0
 28 21  1  0  0  0  0
 29 22  1  0  0  0  0
 30 23  1  0  0  0  0
 31 24  1  0  0  0  0
 32 26  1  0  0  0  0
 33 32  2  0  0  0  0
  4  3  1  0  0  0  0
 16 21  1  0  0  0  0
 15 12  1  0  0  0  0
 27 33  1  0  0  0  0
M  END
>  <IDNUMBER>
F0849-3107

>  <Chemical_Name>
(4E)-2-(3,4-dimethoxyphenyl)-1-(2,4-dimethylphenyl)-4-[(2-methoxyphenyl)methylidene]-4,5-dihydro-1H-imidazol-5-one

>  <PriceCoeff>
1.00

>  <CAS>
292057-50-2

>  <MW>
442.51

>  <Description>
solid

>  <FSP3>
0.19

>  <clogP>
5.08

>  <TPSA>
60.36

>  <Acceptor>
5

>  <Donor>
0

>  <RotBonds>
6

>  <HAC>
33

>  <Collection>
General

>  <PPDS>
+

$$$$
F0849-3787
  Mrv2219 10102508112D          

 28 31  0  0  0  0            999 V2000
   -1.7297    0.2157    0.0000 N   0  0  0  0  0  0  0  0  0  0  0  0
   -1.0582   -0.2483    0.0000 C   0  0  0  0  0  0  0  0  0  0  0  0
   -1.4652    0.9890    0.0000 C   0  0  0  0  0  0  0  0  0  0  0  0
   -0.3907    0.2157    0.0000 C   0  0  0  0  0  0  0  0  0  0  0  0
   -0.6552    0.9890    0.0000 C   0  0  0  0  0  0  0  0  0  0  0  0
    0.3704   -0.0163    0.0000 N   0  0  0  0  0  0  0  0  0  0  0  0
   -2.5112    0.0447    0.0000 C   0  0  0  0  0  0  0  0  0  0  0  0
    1.9536   -0.5250    0.0000 N   0  0  0  0  0  0  0  0  0  0  0  0
   -1.0460   -1.1030    0.0000 O   0  0  0  0  0  0  0  0  0  0  0  0
    2.7351   -0.7611    0.0000 C   0  0  0  0  0  0  0  0  0  0  0  0
   -1.9495    1.6809    0.0000 O   0  0  0  0  0  0  0  0  0  0  0  0
    0.9931    0.5209    0.0000 C   0  0  0  0  0  0  0  0  0  0  0  0
    0.5536   -0.8303    0.0000 C   0  0  0  0  0  0  0  0  0  0  0  0
    1.7746    0.2564    0.0000 C   0  0  0  0  0  0  0  0  0  0  0  0
    1.3228   -1.0786    0.0000 C   0  0  0  0  0  0  0  0  0  0  0  0
   -2.7798   -0.7489    0.0000 C   0  0  0  0  0  0  0  0  0  0  0  0
    2.9182   -1.5670    0.0000 C   0  0  0  0  0  0  0  0  0  0  0  0
    3.3497   -0.1954    0.0000 C   0  0  0  0  0  0  0  0  0  0  0  0
    4.3346   -1.2251    0.0000 C   0  0  0  0  0  0  0  0  0  0  0  0
    3.7282   -1.8112    0.0000 C   0  0  0  0  0  0  0  0  0  0  0  0
    4.1392   -0.4396    0.0000 C   0  0  0  0  0  0  0  0  0  0  0  0
    5.1160   -1.4530    0.0000 F   0  0  0  0  0  0  0  0  0  0  0  0
   -2.1937   -1.3472    0.0000 O   0  0  0  0  0  0  0  0  0  0  0  0
   -3.0728    0.6552    0.0000 C   0  0  0  0  0  0  0  0  0  0  0  0
   -3.5653   -0.9443    0.0000 C   0  0  0  0  0  0  0  0  0  0  0  0
   -1.3878   -1.1396    0.0000 C   0  0  0  0  0  0  0  0  0  0  0  0
   -3.8787    0.4884    0.0000 C   0  0  0  0  0  0  0  0  0  0  0  0
   -4.1229   -0.2971    0.0000 C   0  0  0  0  0  0  0  0  0  0  0  0
  2  1  1  0  0  0  0
  3  1  1  0  0  0  0
  4  2  1  0  0  0  0
  5  3  1  0  0  0  0
  6  4  1  0  0  0  0
  7  1  1  0  0  0  0
  8 15  1  0  0  0  0
  9  2  2  0  0  0  0
 10  8  1  0  0  0  0
 11  3  2  0  0  0  0
 12  6  1  0  0  0  0
 13  6  1  0  0  0  0
 14 12  1  0  0  0  0
 15 13  1  0  0  0  0
 16  7  2  0  0  0  0
 17 10  1  0  0  0  0
 18 10  2  0  0  0  0
 19 21  2  0  0  0  0
 20 17  2  0  0  0  0
 21 18  1  0  0  0  0
 22 19  1  0  0  0  0
 23 16  1  0  0  0  0
 24  7  1  0  0  0  0
 25 16  1  0  0  0  0
 26 23  1  0  0  0  0
 27 24  2  0  0  0  0
 28 27  1  0  0  0  0
  5  4  1  0  0  0  0
 25 28  2  0  0  0  0
  8 14  1  0  0  0  0
 19 20  1  0  0  0  0
M  END
>  <IDNUMBER>
F0849-3787

>  <Chemical_Name>
3-[4-(4-fluorophenyl)piperazin-1-yl]-1-(2-methoxyphenyl)pyrrolidine-2,5-dione

>  <PriceCoeff>
1.00

>  <CAS>
299408-81-4

>  <MW>
383.42

>  <Description>
solid

>  <FSP3>
0.33

>  <clogP>
3.55

>  <TPSA>
53.09

>  <Acceptor>
4

>  <Donor>
2

>  <RotBonds>
4

>  <HAC>
28

>  <Collection>
General

>  <PPDS>
+

$$$$
F0849-4319
  Mrv2219 10102508112D          

 24 26  0  0  0  0            999 V2000
    0.9113    0.3472    0.0000 N   0  0  0  0  0  0  0  0  0  0  0  0
    0.1302    0.6509    0.0000 C   0  0  0  0  0  0  0  0  0  0  0  0
    0.8499   -0.4666    0.0000 C   0  0  0  0  0  0  0  0  0  0  0  0
    0.0434   -0.6835    0.0000 C   0  0  0  0  0  0  0  0  0  0  0  0
   -0.3906    0.0181    0.0000 C   0  0  0  0  0  0  0  0  0  0  0  0
   -0.1736   -1.4900    0.0000 N   0  0  0  0  0  0  0  0  0  0  0  0
    1.5768    0.8245    0.0000 C   0  0  0  0  0  0  0  0  0  0  0  0
   -0.0434    1.4719    0.0000 O   0  0  0  0  0  0  0  0  0  0  0  0
    1.5081   -0.9873    0.0000 O   0  0  0  0  0  0  0  0  0  0  0  0
    1.5009    1.6491    0.0000 C   0  0  0  0  0  0  0  0  0  0  0  0
    2.3254    0.4883    0.0000 C   0  0  0  0  0  0  0  0  0  0  0  0
   -0.9836   -1.7070    0.0000 C   0  0  0  0  0  0  0  0  0  0  0  0
    2.9221    1.7902    0.0000 C   0  0  0  0  0  0  0  0  0  0  0  0
   -2.5713   -2.0975    0.0000 C   0  0  0  0  0  0  0  0  0  0  0  0
    2.9980    0.9728    0.0000 C   0  0  0  0  0  0  0  0  0  0  0  0
    2.1735    2.1373    0.0000 C   0  0  0  0  0  0  0  0  0  0  0  0
   -1.5732   -1.1103    0.0000 C   0  0  0  0  0  0  0  0  0  0  0  0
   -1.2115   -2.4990    0.0000 C   0  0  0  0  0  0  0  0  0  0  0  0
   -2.0071   -2.6943    0.0000 C   0  0  0  0  0  0  0  0  0  0  0  0
   -2.3398   -1.3273    0.0000 C   0  0  0  0  0  0  0  0  0  0  0  0
    3.6020    2.2747    0.0000 O   0  0  0  0  0  0  0  0  0  0  0  0
   -3.3850   -2.3037    0.0000 O   0  0  0  0  0  0  0  0  0  0  0  0
    3.5188    3.0992    0.0000 C   0  0  0  0  0  0  0  0  0  0  0  0
   -3.6200   -3.0956    0.0000 C   0  0  0  0  0  0  0  0  0  0  0  0
  2  1  1  0  0  0  0
  3  1  1  0  0  0  0
  4  3  1  0  0  0  0
  5  2  1  0  0  0  0
  6  4  1  0  0  0  0
  7  1  1  0  0  0  0
  8  2  2  0  0  0  0
  9  3  2  0  0  0  0
 10  7  2  0  0  0  0
 11  7  1  0  0  0  0
 12  6  1  0  0  0  0
 13 15  1  0  0  0  0
 14 19  2  0  0  0  0
 15 11  2  0  0  0  0
 16 10  1  0  0  0  0
 17 12  1  0  0  0  0
 18 12  2  0  0  0  0
 19 18  1  0  0  0  0
 20 17  2  0  0  0  0
 21 13  1  0  0  0  0
 22 14  1  0  0  0  0
 23 21  1  0  0  0  0
 24 22  1  0  0  0  0
  4  5  1  0  0  0  0
 13 16  2  0  0  0  0
 14 20  1  0  0  0  0
M  END
>  <IDNUMBER>
F0849-4319

>  <Chemical_Name>
1-(4-methoxyphenyl)-3-[(4-methoxyphenyl)amino]pyrrolidine-2,5-dione

>  <PriceCoeff>
1.00

>  <CAS>
37034-97-2

>  <MW>
326.35

>  <Description>
solid

>  <FSP3>
0.22

>  <clogP>
2.68

>  <TPSA>
67.87

>  <Acceptor>
5

>  <Donor>
1

>  <RotBonds>
5

>  <HAC>
24

>  <Collection>
General

>  <PPDS>
+

$$$$
F0850-4769
  Mrv2219 10102508112D          

 20 22  0  0  0  0            999 V2000
    1.4739   -1.6504    0.0000 C   0  0  0  0  0  0  0  0  0  0  0  0
    0.7325   -2.0740    0.0000 C   0  0  0  0  0  0  0  0  0  0  0  0
    0.0265   -1.6504    0.0000 C   0  0  0  0  0  0  0  0  0  0  0  0
    1.4739   -0.8237    0.0000 C   0  0  0  0  0  0  0  0  0  0  0  0
    0.0265   -0.8237    0.0000 C   0  0  0  0  0  0  0  0  0  0  0  0
    0.7325   -0.4001    0.0000 O   0  0  0  0  0  0  0  0  0  0  0  0
    1.9769   -1.9416    0.0000 C   0  0  0  0  0  0  0  0  0  0  0  0
   -0.7031   -2.0740    0.0000 C   0  0  0  0  0  0  0  0  0  0  0  0
   -0.7031   -0.4001    0.0000 C   0  0  0  0  0  0  0  0  0  0  0  0
    0.7325   -2.9154    0.0000 O   0  0  0  0  0  0  0  0  0  0  0  0
    1.9769   -2.5182    0.0000 C   0  0  0  0  0  0  0  0  0  0  0  0
   -1.4356   -0.8237    0.0000 C   0  0  0  0  0  0  0  0  0  0  0  0
   -1.4356   -1.6504    0.0000 C   0  0  0  0  0  0  0  0  0  0  0  0
    1.4680   -2.8153    0.0000 O   0  0  0  0  0  0  0  0  0  0  0  0
   -2.1681   -0.4001    0.0000 O   0  0  0  0  0  0  0  0  0  0  0  0
    2.4741   -1.6504    0.0000 C   0  0  0  0  0  0  0  0  0  0  0  0
    2.4741   -2.8153    0.0000 C   0  0  0  0  0  0  0  0  0  0  0  0
    1.4680   -3.3919    0.0000 C   0  0  0  0  0  0  0  0  0  0  0  0
    2.9771   -1.9416    0.0000 C   0  0  0  0  0  0  0  0  0  0  0  0
    2.9771   -2.5182    0.0000 C   0  0  0  0  0  0  0  0  0  0  0  0
  2  1  1  0  0  0  0
  3  2  1  0  0  0  0
  4  1  2  0  0  0  0
  5  6  1  0  0  0  0
  6  4  1  0  0  0  0
  7  1  1  0  0  0  0
  8  3  2  0  0  0  0
  9  5  2  0  0  0  0
 10  2  2  0  0  0  0
 11  7  2  0  0  0  0
 12  9  1  0  0  0  0
 13  8  1  0  0  0  0
 14 11  1  0  0  0  0
 15 12  1  0  0  0  0
 16  7  1  0  0  0  0
 17 11  1  0  0  0  0
 18 14  1  0  0  0  0
 19 16  2  0  0  0  0
 20 19  1  0  0  0  0
  5  3  1  0  0  0  0
 20 17  2  0  0  0  0
 12 13  2  0  0  0  0
M  END
>  <IDNUMBER>
F0850-4769

>  <Chemical_Name>
7-hydroxy-3-(2-methoxyphenyl)-4H-chromen-4-one

>  <PriceCoeff>
1.00

>  <CAS>
63909-40-0

>  <MW>
268.26

>  <Description>
solid

>  <FSP3>
0.06

>  <clogP>
2.08

>  <TPSA>
55.76

>  <Acceptor>
4

>  <Donor>
1

>  <RotBonds>
2

>  <HAC>
20

>  <Collection>
General

$$$$
F0850-4773
  Mrv2219 10102508112D          

 24 26  0  0  0  0            999 V2000
    2.6450   -1.6717    0.0000 C   0  0  0  0  0  0  0  0  0  0  0  0
    1.8817   -2.1042    0.0000 C   0  0  0  0  0  0  0  0  0  0  0  0
    1.1526   -1.6809    0.0000 C   0  0  0  0  0  0  0  0  0  0  0  0
    2.6450   -0.8559    0.0000 C   0  0  0  0  0  0  0  0  0  0  0  0
    1.1526   -0.8559    0.0000 C   0  0  0  0  0  0  0  0  0  0  0  0
    1.8817   -0.4449    0.0000 O   0  0  0  0  0  0  0  0  0  0  0  0
    3.1733   -1.9776    0.0000 C   0  0  0  0  0  0  0  0  0  0  0  0
    0.3986   -0.4449    0.0000 C   0  0  0  0  0  0  0  0  0  0  0  0
    0.3986   -2.1042    0.0000 C   0  0  0  0  0  0  0  0  0  0  0  0
   -1.8694   -0.8559    0.0000 C   0  0  0  0  0  0  0  0  0  0  0  0
    1.8817   -2.9416    0.0000 O   0  0  0  0  0  0  0  0  0  0  0  0
   -0.3584   -0.8559    0.0000 C   0  0  0  0  0  0  0  0  0  0  0  0
    3.1733   -2.5955    0.0000 C   0  0  0  0  0  0  0  0  0  0  0  0
   -1.1124   -0.4449    0.0000 O   0  0  0  0  0  0  0  0  0  0  0  0
   -1.8786   -1.7056    0.0000 O   0  0  0  0  0  0  0  0  0  0  0  0
   -0.3584   -1.6809    0.0000 C   0  0  0  0  0  0  0  0  0  0  0  0
    2.6357   -2.8952    0.0000 O   0  0  0  0  0  0  0  0  0  0  0  0
    3.7079   -1.6717    0.0000 C   0  0  0  0  0  0  0  0  0  0  0  0
   -2.6326   -0.4357    0.0000 C   0  0  0  0  0  0  0  0  0  0  0  0
    3.7079   -2.8952    0.0000 C   0  0  0  0  0  0  0  0  0  0  0  0
    2.6357   -3.5132    0.0000 C   0  0  0  0  0  0  0  0  0  0  0  0
   -3.3989   -0.8559    0.0000 C   0  0  0  0  0  0  0  0  0  0  0  0
    4.2301   -1.9776    0.0000 C   0  0  0  0  0  0  0  0  0  0  0  0
    4.2301   -2.5955    0.0000 C   0  0  0  0  0  0  0  0  0  0  0  0
  2  1  1  0  0  0  0
  3  2  1  0  0  0  0
  4  1  2  0  0  0  0
  5  6  1  0  0  0  0
  6  4  1  0  0  0  0
  7  1  1  0  0  0  0
  8  5  2  0  0  0  0
  9  3  2  0  0  0  0
 10 14  1  0  0  0  0
 11  2  2  0  0  0  0
 12  8  1  0  0  0  0
 13  7  2  0  0  0  0
 14 12  1  0  0  0  0
 15 10  2  0  0  0  0
 16  9  1  0  0  0  0
 17 13  1  0  0  0  0
 18  7  1  0  0  0  0
 19 10  1  0  0  0  0
 20 13  1  0  0  0  0
 21 17  1  0  0  0  0
 22 19  1  0  0  0  0
 23 18  2  0  0  0  0
 24 23  1  0  0  0  0
  5  3  1  0  0  0  0
 24 20  2  0  0  0  0
 12 16  2  0  0  0  0
M  END
>  <IDNUMBER>
F0850-4773

>  <Chemical_Name>
3-(2-methoxyphenyl)-4-oxo-4H-chromen-7-yl propanoate

>  <PriceCoeff>
1.00

>  <CAS>
303121-45-1

>  <MW>
324.33

>  <Description>
solid

>  <FSP3>
0.16

>  <clogP>
2.42

>  <TPSA>
61.83

>  <Acceptor>
5

>  <Donor>
0

>  <RotBonds>
5

>  <HAC>
24

>  <Collection>
General

>  <PPDS>
+

$$$$
F0850-4775
  Mrv2219 10102508112D          

 28 31  0  0  0  0            999 V2000
    2.9118   -2.0997    0.0000 C   0  0  0  0  0  0  0  0  0  0  0  0
    2.1644   -2.5138    0.0000 C   0  0  0  0  0  0  0  0  0  0  0  0
    1.4656   -2.0997    0.0000 C   0  0  0  0  0  0  0  0  0  0  0  0
    2.9118   -1.3038    0.0000 C   0  0  0  0  0  0  0  0  0  0  0  0
    1.4656   -1.3038    0.0000 C   0  0  0  0  0  0  0  0  0  0  0  0
    2.1644   -0.8929    0.0000 O   0  0  0  0  0  0  0  0  0  0  0  0
    3.4586   -2.4200    0.0000 C   0  0  0  0  0  0  0  0  0  0  0  0
   -1.4623   -1.3038    0.0000 C   0  0  0  0  0  0  0  0  0  0  0  0
    0.7376   -0.8929    0.0000 C   0  0  0  0  0  0  0  0  0  0  0  0
   -0.7247   -0.8929    0.0000 O   0  0  0  0  0  0  0  0  0  0  0  0
    0.7376   -2.5138    0.0000 C   0  0  0  0  0  0  0  0  0  0  0  0
    0.0000   -1.3038    0.0000 C   0  0  0  0  0  0  0  0  0  0  0  0
    2.1644   -3.3388    0.0000 O   0  0  0  0  0  0  0  0  0  0  0  0
   -1.4623   -2.1256    0.0000 O   0  0  0  0  0  0  0  0  0  0  0  0
    3.4586   -3.0671    0.0000 C   0  0  0  0  0  0  0  0  0  0  0  0
   -2.1903   -0.8929    0.0000 C   0  0  0  0  0  0  0  0  0  0  0  0
    0.0000   -2.0997    0.0000 C   0  0  0  0  0  0  0  0  0  0  0  0
    2.9021   -3.3809    0.0000 O   0  0  0  0  0  0  0  0  0  0  0  0
    4.0118   -2.0965    0.0000 C   0  0  0  0  0  0  0  0  0  0  0  0
    4.0118   -3.3809    0.0000 C   0  0  0  0  0  0  0  0  0  0  0  0
   -2.1903   -0.0679    0.0000 C   0  0  0  0  0  0  0  0  0  0  0  0
   -2.9279   -1.2941    0.0000 C   0  0  0  0  0  0  0  0  0  0  0  0
    2.9021   -4.0215    0.0000 C   0  0  0  0  0  0  0  0  0  0  0  0
    4.5715   -2.4103    0.0000 C   0  0  0  0  0  0  0  0  0  0  0  0
    4.5715   -3.0671    0.0000 C   0  0  0  0  0  0  0  0  0  0  0  0
   -3.6656   -0.8929    0.0000 C   0  0  0  0  0  0  0  0  0  0  0  0
   -2.9279    0.3462    0.0000 C   0  0  0  0  0  0  0  0  0  0  0  0
   -3.6656   -0.0615    0.0000 C   0  0  0  0  0  0  0  0  0  0  0  0
  2  1  1  0  0  0  0
  3  2  1  0  0  0  0
  4  1  2  0  0  0  0
  5  6  1  0  0  0  0
  6  4  1  0  0  0  0
  7  1  1  0  0  0  0
  8 10  1  0  0  0  0
  9  5  2  0  0  0  0
 10 12  1  0  0  0  0
 11  3  2  0  0  0  0
 12  9  1  0  0  0  0
 13  2  2  0  0  0  0
 14  8  2  0  0  0  0
 15  7  2  0  0  0  0
 16  8  1  0  0  0  0
 17 11  1  0  0  0  0
 18 15  1  0  0  0  0
 19  7  1  0  0  0  0
 20 15  1  0  0  0  0
 21 16  2  0  0  0  0
 22 16  1  0  0  0  0
 23 18  1  0  0  0  0
 24 19  2  0  0  0  0
 25 24  1  0  0  0  0
 26 22  2  0  0  0  0
 27 21  1  0  0  0  0
 28 26  1  0  0  0  0
  5  3  1  0  0  0  0
 25 20  2  0  0  0  0
 12 17  2  0  0  0  0
 27 28  2  0  0  0  0
M  END
>  <IDNUMBER>
F0850-4775

>  <Chemical_Name>
3-(2-methoxyphenyl)-4-oxo-4H-chromen-7-yl benzoate

>  <PriceCoeff>
1.00

>  <CAS>
303121-48-4

>  <MW>
372.37

>  <Description>
solid

>  <FSP3>
0.04

>  <clogP>
4.02

>  <TPSA>
61.83

>  <Acceptor>
5

>  <Donor>
0

>  <RotBonds>
5

>  <HAC>
28

>  <Collection>
General

>  <PPDS>
+

$$$$
F0850-4777
  Mrv2219 10102508112D          

 29 32  0  0  0  0            999 V2000
    3.2478   -2.1617    0.0000 C   0  0  0  0  0  0  0  0  0  0  0  0
    2.5063   -2.5621    0.0000 C   0  0  0  0  0  0  0  0  0  0  0  0
    1.7997   -2.1617    0.0000 C   0  0  0  0  0  0  0  0  0  0  0  0
    3.2478   -1.3611    0.0000 C   0  0  0  0  0  0  0  0  0  0  0  0
    1.7997   -1.3611    0.0000 C   0  0  0  0  0  0  0  0  0  0  0  0
    2.5063   -0.9503    0.0000 O   0  0  0  0  0  0  0  0  0  0  0  0
    3.8430   -2.5063    0.0000 C   0  0  0  0  0  0  0  0  0  0  0  0
   -1.1383   -1.3611    0.0000 C   0  0  0  0  0  0  0  0  0  0  0  0
    1.0583   -0.9503    0.0000 C   0  0  0  0  0  0  0  0  0  0  0  0
   -0.4038   -0.9503    0.0000 O   0  0  0  0  0  0  0  0  0  0  0  0
    1.0583   -2.5621    0.0000 C   0  0  0  0  0  0  0  0  0  0  0  0
   -1.8762   -0.9503    0.0000 C   0  0  0  0  0  0  0  0  0  0  0  0
    0.3342   -1.3611    0.0000 C   0  0  0  0  0  0  0  0  0  0  0  0
    2.5063   -3.3871    0.0000 O   0  0  0  0  0  0  0  0  0  0  0  0
   -1.1452   -2.1861    0.0000 O   0  0  0  0  0  0  0  0  0  0  0  0
    3.8430   -3.1886    0.0000 C   0  0  0  0  0  0  0  0  0  0  0  0
   -1.8762   -0.1253    0.0000 C   0  0  0  0  0  0  0  0  0  0  0  0
   -2.6073   -1.3507    0.0000 C   0  0  0  0  0  0  0  0  0  0  0  0
    0.3342   -2.1617    0.0000 C   0  0  0  0  0  0  0  0  0  0  0  0
   -3.3591   -0.9503    0.0000 C   0  0  0  0  0  0  0  0  0  0  0  0
   -2.6073    0.2889    0.0000 C   0  0  0  0  0  0  0  0  0  0  0  0
   -3.3591   -0.1253    0.0000 C   0  0  0  0  0  0  0  0  0  0  0  0
    3.2478   -3.5402    0.0000 O   0  0  0  0  0  0  0  0  0  0  0  0
    4.4314   -2.1548    0.0000 C   0  0  0  0  0  0  0  0  0  0  0  0
    4.4314   -3.5402    0.0000 C   0  0  0  0  0  0  0  0  0  0  0  0
   -4.1006    0.2889    0.0000 C   0  0  0  0  0  0  0  0  0  0  0  0
    3.2478   -4.2225    0.0000 C   0  0  0  0  0  0  0  0  0  0  0  0
    5.0371   -2.5063    0.0000 C   0  0  0  0  0  0  0  0  0  0  0  0
    5.0371   -3.1886    0.0000 C   0  0  0  0  0  0  0  0  0  0  0  0
  2  1  1  0  0  0  0
  3  2  1  0  0  0  0
  4  1  2  0  0  0  0
  5  6  1  0  0  0  0
  6  4  1  0  0  0  0
  7  1  1  0  0  0  0
  8 10  1  0  0  0  0
  9  5  2  0  0  0  0
 10 13  1  0  0  0  0
 11  3  2  0  0  0  0
 12  8  1  0  0  0  0
 13  9  1  0  0  0  0
 14  2  2  0  0  0  0
 15  8  2  0  0  0  0
 16  7  2  0  0  0  0
 17 12  2  0  0  0  0
 18 12  1  0  0  0  0
 19 11  1  0  0  0  0
 20 18  2  0  0  0  0
 21 17  1  0  0  0  0
 22 20  1  0  0  0  0
 23 16  1  0  0  0  0
 24  7  1  0  0  0  0
 25 16  1  0  0  0  0
 26 22  1  0  0  0  0
 27 23  1  0  0  0  0
 28 24  2  0  0  0  0
 29 28  1  0  0  0  0
  5  3  1  0  0  0  0
 29 25  2  0  0  0  0
 13 19  2  0  0  0  0
 21 22  2  0  0  0  0
M  END
>  <IDNUMBER>
F0850-4777

>  <Chemical_Name>
3-(2-methoxyphenyl)-4-oxo-4H-chromen-7-yl 4-methylbenzoate

>  <PriceCoeff>
1.00

>  <CAS>
303121-52-0

>  <MW>
386.40

>  <Description>
solid

>  <FSP3>
0.08

>  <clogP>
4.52

>  <TPSA>
61.83

>  <Acceptor>
5

>  <Donor>
0

>  <RotBonds>
5

>  <HAC>
29

>  <Collection>
General

>  <PPDS>
+

$$$$
F0850-5995
  Mrv2219 10102508112D          

 31 36  0  0  0  0            999 V2000
    6.3667   -4.4917    0.0000 N   0  0  0  0  0  0  0  0  0  0  0  0
    9.1542   -0.2375    0.0000 N   0  0  0  0  0  0  0  0  0  0  0  0
    9.8250    0.2458    0.0000 C   0  0  0  0  0  0  0  0  0  0  0  0
    5.6292   -4.1542    0.0000 C   0  0  0  0  0  0  0  0  0  0  0  0
    5.7042   -3.3375    0.0000 N   0  0  0  0  0  0  0  0  0  0  0  0
   10.4917   -0.2375    0.0000 N   0  0  0  0  0  0  0  0  0  0  0  0
    6.9292   -3.8750    0.0000 C   0  0  0  0  0  0  0  0  0  0  0  0
    9.4042   -1.0167    0.0000 C   0  0  0  0  0  0  0  0  0  0  0  0
    6.5167   -3.1625    0.0000 C   0  0  0  0  0  0  0  0  0  0  0  0
   10.2375   -1.0167    0.0000 C   0  0  0  0  0  0  0  0  0  0  0  0
    4.8250   -4.3375    0.0000 C   0  0  0  0  0  0  0  0  0  0  0  0
   10.0792    1.0333    0.0000 C   0  0  0  0  0  0  0  0  0  0  0  0
    7.7542   -3.8750    0.0000 C   0  0  0  0  0  0  0  0  0  0  0  0
    8.9917   -1.7375    0.0000 C   0  0  0  0  0  0  0  0  0  0  0  0
    9.7792    1.7958    0.0000 N   0  0  0  0  0  0  0  0  0  0  0  0
    4.3167   -4.9875    0.0000 N   0  0  0  0  0  0  0  0  0  0  0  0
    8.1667   -3.1625    0.0000 C   0  0  0  0  0  0  0  0  0  0  0  0
    9.4042   -2.4500    0.0000 C   0  0  0  0  0  0  0  0  0  0  0  0
    6.9292   -2.4417    0.0000 C   0  0  0  0  0  0  0  0  0  0  0  0
   10.6417   -1.7375    0.0000 C   0  0  0  0  0  0  0  0  0  0  0  0
    8.9917   -3.1625    0.0000 C   0  0  0  0  0  0  0  0  0  0  0  0
   10.2375   -2.4500    0.0000 C   0  0  0  0  0  0  0  0  0  0  0  0
    7.7542   -2.4417    0.0000 C   0  0  0  0  0  0  0  0  0  0  0  0
    3.5000   -4.8750    0.0000 C   0  0  0  0  0  0  0  0  0  0  0  0
   10.2917    2.4458    0.0000 C   0  0  0  0  0  0  0  0  0  0  0  0
    4.5125   -3.5750    0.0000 C   0  0  0  0  0  0  0  0  0  0  0  0
   10.8917    0.9125    0.0000 C   0  0  0  0  0  0  0  0  0  0  0  0
    3.1875   -4.1042    0.0000 C   0  0  0  0  0  0  0  0  0  0  0  0
   11.1042    2.3333    0.0000 C   0  0  0  0  0  0  0  0  0  0  0  0
    3.6917   -3.4542    0.0000 C   0  0  0  0  0  0  0  0  0  0  0  0
   11.4125    1.5583    0.0000 C   0  0  0  0  0  0  0  0  0  0  0  0
  2  8  1  0  0  0  0
  3  2  2  0  0  0  0
  4  1  2  0  0  0  0
  5  4  1  0  0  0  0
  6 10  1  0  0  0  0
  7  1  1  0  0  0  0
  8 14  1  0  0  0  0
  9  7  2  0  0  0  0
 10 20  1  0  0  0  0
 11  4  1  0  0  0  0
 12  3  1  0  0  0  0
 13  7  1  0  0  0  0
 14 18  2  0  0  0  0
 15 12  1  0  0  0  0
 16 11  1  0  0  0  0
 17 13  2  0  0  0  0
 18 21  1  0  0  0  0
 19  9  1  0  0  0  0
 20 22  2  0  0  0  0
 21 17  1  0  0  0  0
 22 18  1  0  0  0  0
 23 17  1  0  0  0  0
 24 16  2  0  0  0  0
 25 15  2  0  0  0  0
 26 11  2  0  0  0  0
 27 12  2  0  0  0  0
 28 30  2  0  0  0  0
 29 31  2  0  0  0  0
 30 26  1  0  0  0  0
 31 27  1  0  0  0  0
  5  9  1  0  0  0  0
 23 19  2  0  0  0  0
 24 28  1  0  0  0  0
 10  8  2  0  0  0  0
  3  6  1  0  0  0  0
 25 29  1  0  0  0  0
M  END
>  <IDNUMBER>
F0850-5995

>  <Chemical_Name>
2-(pyridin-2-yl)-5-{[2-(pyridin-2-yl)-1H-1,3-benzodiazol-5-yl]methyl}-1H-1,3-benzodiazole

>  <PriceCoeff>
1.00

>  <CAS>
309941-59-1

>  <MW>
402.45

>  <Description>
solid

>  <FSP3>
0.04

>  <clogP>
4.99

>  <TPSA>
83.14

>  <Acceptor>
6

>  <Donor>
6

>  <RotBonds>
4

>  <HAC>
31

>  <Collection>
General

>  <PPDS>
+

$$$$
F0850-6838
  Mrv2219 10102508112D          

 12 12  0  0  0  0            999 V2000
    0.2040    2.0548    0.0000 C   0  0  0  0  0  0  0  0  0  0  0  0
    0.2040    1.2390    0.0000 C   0  0  0  0  0  0  0  0  0  0  0  0
   -0.4840    0.8371    0.0000 C   0  0  0  0  0  0  0  0  0  0  0  0
   -0.4840    2.4719    0.0000 O   0  0  0  0  0  0  0  0  0  0  0  0
   -0.4992    0.0091    0.0000 C   0  0  0  0  0  0  0  0  0  0  0  0
   -0.4992   -1.6439    0.0000 C   0  0  0  0  0  0  0  0  0  0  0  0
    0.9163    2.4567    0.0000 O   0  0  0  0  0  0  0  0  0  0  0  0
   -0.4992   -2.4597    0.0000 Br  0  0  0  0  0  0  0  0  0  0  0  0
   -1.2146   -0.4018    0.0000 C   0  0  0  0  0  0  0  0  0  0  0  0
    0.2040   -0.4018    0.0000 C   0  0  0  0  0  0  0  0  0  0  0  0
   -1.2146   -1.2268    0.0000 C   0  0  0  0  0  0  0  0  0  0  0  0
    0.2040   -1.2268    0.0000 C   0  0  0  0  0  0  0  0  0  0  0  0
  2  1  1  0  0  0  0
  3  2  2  0  0  0  0
  4  1  2  0  0  0  0
  5  3  1  0  0  0  0
  6 12  1  0  0  0  0
  7  1  1  0  0  0  0
  8  6  1  0  0  0  0
  9  5  2  0  0  0  0
 10  5  1  0  0  0  0
 11  9  1  0  0  0  0
 12 10  2  0  0  0  0
 11  6  2  0  0  0  0
M  END
>  <IDNUMBER>
F0850-6838

>  <Chemical_Name>
(2E)-3-(4-bromophenyl)prop-2-enoic acid

>  <PriceCoeff>
1.00

>  <CAS>
17916-60-8

>  <MW>
227.06

>  <Description>
solid

>  <FSP3>
0.00

>  <clogP>
2.90

>  <TPSA>
37.30

>  <Acceptor>
2

>  <Donor>
0

>  <RotBonds>
2

>  <HAC>
12

>  <Collection>
General

$$$$
F0852-0174
  Mrv2219 10102508112D          

 17 19  0  0  0  0            999 V2000
    2.6664    0.8250    0.0000 C   0  0  0  0  0  0  0  0  0  0  0  0
    2.1680    1.5149    0.0000 N   0  0  0  0  0  0  0  0  0  0  0  0
    2.1680    0.1669    0.0000 N   0  0  0  0  0  0  0  0  0  0  0  0
    1.4020    1.2669    0.0000 C   0  0  0  0  0  0  0  0  0  0  0  0
    1.4020    0.4125    0.0000 C   0  0  0  0  0  0  0  0  0  0  0  0
    3.4914    0.8250    0.0000 C   0  0  0  0  0  0  0  0  0  0  0  0
    3.9039    0.1105    0.0000 C   0  0  0  0  0  0  0  0  0  0  0  0
    3.9039    1.5443    0.0000 C   0  0  0  0  0  0  0  0  0  0  0  0
    5.1413    0.8250    0.0000 C   0  0  0  0  0  0  0  0  0  0  0  0
    4.7288    1.5443    0.0000 C   0  0  0  0  0  0  0  0  0  0  0  0
    4.7288    0.1105    0.0000 C   0  0  0  0  0  0  0  0  0  0  0  0
    5.9663    0.8250    0.0000 O   0  0  0  0  0  0  0  0  0  0  0  0
    0.6580    1.6254    0.0000 C   0  0  0  0  0  0  0  0  0  0  0  0
    0.6875    0.0000    0.0000 C   0  0  0  0  0  0  0  0  0  0  0  0
    6.6808    0.4125    0.0000 C   0  0  0  0  0  0  0  0  0  0  0  0
    0.0000    0.4125    0.0000 C   0  0  0  0  0  0  0  0  0  0  0  0
    0.0000    1.2375    0.0000 C   0  0  0  0  0  0  0  0  0  0  0  0
  2  1  2  0  0  0  0
  3  1  1  0  0  0  0
  4  2  1  0  0  0  0
  5  3  1  0  0  0  0
  6  1  1  0  0  0  0
  7  6  2  0  0  0  0
  8  6  1  0  0  0  0
  9 10  1  0  0  0  0
 10  8  2  0  0  0  0
 11  7  1  0  0  0  0
 12  9  1  0  0  0  0
 13  4  2  0  0  0  0
 14  5  2  0  0  0  0
 15 12  1  0  0  0  0
 16 14  1  0  0  0  0
 17 13  1  0  0  0  0
  5  4  1  0  0  0  0
  9 11  2  0  0  0  0
 16 17  2  0  0  0  0
M  END
>  <IDNUMBER>
F0852-0174

>  <Chemical_Name>
2-(4-methoxyphenyl)-1H-1,3-benzodiazole

>  <PriceCoeff>
1.00

>  <CAS>
2620-81-7

>  <MW>
224.26

>  <Description>
solid

>  <FSP3>
0.07

>  <clogP>
3.68

>  <TPSA>
37.91

>  <Acceptor>
3

>  <Donor>
2

>  <RotBonds>
2

>  <HAC>
17

>  <Collection>
General

>  <PPDS>
+

$$$$
F0853-0315
  Mrv2219 10102508112D          

 15 17  0  0  0  0            999 V2000
    2.6911    0.8250    0.0000 C   0  0  0  0  0  0  0  0  0  0  0  0
    2.1976    1.5149    0.0000 N   0  0  0  0  0  0  0  0  0  0  0  0
    2.1976    0.1669    0.0000 N   0  0  0  0  0  0  0  0  0  0  0  0
    1.4290    1.2670    0.0000 C   0  0  0  0  0  0  0  0  0  0  0  0
    1.4290    0.4125    0.0000 C   0  0  0  0  0  0  0  0  0  0  0  0
    3.5161    0.8545    0.0000 C   0  0  0  0  0  0  0  0  0  0  0  0
    0.6875    1.6500    0.0000 C   0  0  0  0  0  0  0  0  0  0  0  0
    0.7145    0.0000    0.0000 C   0  0  0  0  0  0  0  0  0  0  0  0
    3.9581    0.1375    0.0000 C   0  0  0  0  0  0  0  0  0  0  0  0
    3.9040    1.5444    0.0000 C   0  0  0  0  0  0  0  0  0  0  0  0
    0.0000    1.2375    0.0000 C   0  0  0  0  0  0  0  0  0  0  0  0
    0.0000    0.4125    0.0000 C   0  0  0  0  0  0  0  0  0  0  0  0
    4.7290    1.5444    0.0000 C   0  0  0  0  0  0  0  0  0  0  0  0
    4.7831    0.1375    0.0000 C   0  0  0  0  0  0  0  0  0  0  0  0
    5.1661    0.8545    0.0000 C   0  0  0  0  0  0  0  0  0  0  0  0
  2  1  2  0  0  0  0
  3  1  1  0  0  0  0
  4  2  1  0  0  0  0
  5  3  1  0  0  0  0
  6  1  1  0  0  0  0
  7  4  2  0  0  0  0
  8  5  2  0  0  0  0
  9  6  2  0  0  0  0
 10  6  1  0  0  0  0
 11  7  1  0  0  0  0
 12  8  1  0  0  0  0
 13 10  2  0  0  0  0
 14  9  1  0  0  0  0
 15 13  1  0  0  0  0
  5  4  1  0  0  0  0
 15 14  2  0  0  0  0
 12 11  2  0  0  0  0
M  END
>  <IDNUMBER>
F0853-0315

>  <Chemical_Name>
2-phenyl-1H-1,3-benzodiazole

>  <PriceCoeff>
1.00

>  <MW>
194.23

>  <Description>
solid

>  <FSP3>
0.00

>  <clogP>
3.66

>  <TPSA>
28.68

>  <Acceptor>
2

>  <Donor>
2

>  <RotBonds>
1

>  <HAC>
15

>  <Collection>
General

$$$$
F0866-0212
  Mrv2219 10102508112D          

 28 30  0  0  0  0            999 V2000
   -1.9254   -1.4660    0.0000 C   0  0  0  0  0  0  0  0  0  0  0  0
   -2.1460   -2.2380    0.0000 C   0  0  0  0  0  0  0  0  0  0  0  0
    0.9007    0.7674    0.0000 N   0  0  0  0  0  0  0  0  0  0  0  0
   -1.1029   -1.4200    0.0000 S   0  0  0  0  0  0  0  0  0  0  0  0
   -1.4338   -2.6791    0.0000 C   0  0  0  0  0  0  0  0  0  0  0  0
   -2.5182   -0.8685    0.0000 N   0  0  0  0  0  0  0  0  0  0  0  0
   -0.8225   -2.1920    0.0000 C   0  0  0  0  0  0  0  0  0  0  0  0
   -2.2977   -0.0551    0.0000 C   0  0  0  0  0  0  0  0  0  0  0  0
    1.2545    1.5118    0.0000 C   0  0  0  0  0  0  0  0  0  0  0  0
    1.5211    0.2344    0.0000 C   0  0  0  0  0  0  0  0  0  0  0  0
   -2.9365   -2.5413    0.0000 C   0  0  0  0  0  0  0  0  0  0  0  0
    0.1103    0.5882    0.0000 C   0  0  0  0  0  0  0  0  0  0  0  0
   -1.4843    0.1654    0.0000 C   0  0  0  0  0  0  0  0  0  0  0  0
   -2.8905    0.5468    0.0000 O   0  0  0  0  0  0  0  0  0  0  0  0
    2.0450    1.4291    0.0000 C   0  0  0  0  0  0  0  0  0  0  0  0
    2.2242    0.6571    0.0000 C   0  0  0  0  0  0  0  0  0  0  0  0
    0.8272    2.2609    0.0000 O   0  0  0  0  0  0  0  0  0  0  0  0
    1.4660   -0.6479    0.0000 O   0  0  0  0  0  0  0  0  0  0  0  0
   -3.0697   -3.3638    0.0000 O   0  0  0  0  0  0  0  0  0  0  0  0
   -0.4917    1.1810    0.0000 C   0  0  0  0  0  0  0  0  0  0  0  0
   -0.0919   -0.1839    0.0000 C   0  0  0  0  0  0  0  0  0  0  0  0
   -0.9053   -0.4044    0.0000 C   0  0  0  0  0  0  0  0  0  0  0  0
   -1.2637    0.9604    0.0000 C   0  0  0  0  0  0  0  0  0  0  0  0
   -3.5798   -1.9898    0.0000 O   0  0  0  0  0  0  0  0  0  0  0  0
   -1.3464   -3.5155    0.0000 C   0  0  0  0  0  0  0  0  0  0  0  0
   -0.0229   -2.4815    0.0000 C   0  0  0  0  0  0  0  0  0  0  0  0
   -4.3702   -2.3023    0.0000 C   0  0  0  0  0  0  0  0  0  0  0  0
   -5.0135   -1.7693    0.0000 C   0  0  0  0  0  0  0  0  0  0  0  0
  2  1  2  0  0  0  0
  3 12  1  0  0  0  0
  4  1  1  0  0  0  0
  5  2  1  0  0  0  0
  6  1  1  0  0  0  0
  7  4  1  0  0  0  0
  8  6  1  0  0  0  0
  9  3  1  0  0  0  0
 10  3  1  0  0  0  0
 11  2  1  0  0  0  0
 12 20  1  0  0  0  0
 13  8  1  0  0  0  0
 14  8  2  0  0  0  0
 15  9  1  0  0  0  0
 16 10  1  0  0  0  0
 17  9  2  0  0  0  0
 18 10  2  0  0  0  0
 19 11  2  0  0  0  0
 20 23  2  0  0  0  0
 21 22  1  0  0  0  0
 22 13  2  0  0  0  0
 23 13  1  0  0  0  0
 24 11  1  0  0  0  0
 25  5  1  0  0  0  0
 26  7  1  0  0  0  0
 27 24  1  0  0  0  0
 28 27  1  0  0  0  0
  7  5  2  0  0  0  0
 12 21  2  0  0  0  0
 16 15  1  0  0  0  0
M  END
>  <IDNUMBER>
F0866-0212

>  <Chemical_Name>
ethyl 2-[4-(2,5-dioxopyrrolidin-1-yl)benzamido]-4,5-dimethylthiophene-3-carboxylate

>  <PriceCoeff>
1.00

>  <CAS>
374083-39-3

>  <MW>
400.45

>  <Description>
solid

>  <FSP3>
0.30

>  <clogP>
2.44

>  <TPSA>
121.02

>  <Acceptor>
5

>  <Donor>
1

>  <RotBonds>
6

>  <HAC>
28

>  <Collection>
General

>  <PPDS>
+

$$$$
F0866-0364
  Mrv2219 10102508112D          

 30 34  0  0  0  0            999 V2000
    3.0211    1.3933    0.0000 N   0  0  0  0  0  0  0  0  0  0  0  0
   -1.3473   -0.0598    0.0000 C   0  0  0  0  0  0  0  0  0  0  0  0
   -1.7473   -0.7910    0.0000 N   0  0  0  0  0  0  0  0  0  0  0  0
   -0.5333    0.0919    0.0000 N   0  0  0  0  0  0  0  0  0  0  0  0
   -2.5613   -0.6621    0.0000 C   0  0  0  0  0  0  0  0  0  0  0  0
   -0.2437    0.8645    0.0000 C   0  0  0  0  0  0  0  0  0  0  0  0
    3.4074    2.1199    0.0000 C   0  0  0  0  0  0  0  0  0  0  0  0
    3.6190    0.8277    0.0000 C   0  0  0  0  0  0  0  0  0  0  0  0
   -1.9266    0.5333    0.0000 S   0  0  0  0  0  0  0  0  0  0  0  0
   -2.6716    0.1609    0.0000 C   0  0  0  0  0  0  0  0  0  0  0  0
   -3.2004   -1.1634    0.0000 C   0  0  0  0  0  0  0  0  0  0  0  0
   -4.6167   -1.4117    0.0000 C   0  0  0  0  0  0  0  0  0  0  0  0
    2.2073    1.2645    0.0000 C   0  0  0  0  0  0  0  0  0  0  0  0
   -3.9730   -0.8829    0.0000 C   0  0  0  0  0  0  0  0  0  0  0  0
    0.5931    0.9933    0.0000 C   0  0  0  0  0  0  0  0  0  0  0  0
   -4.4650   -2.2257    0.0000 C   0  0  0  0  0  0  0  0  0  0  0  0
   -5.4307   -1.3014    0.0000 O   0  0  0  0  0  0  0  0  0  0  0  0
   -5.2099   -2.5981    0.0000 O   0  0  0  0  0  0  0  0  0  0  0  0
   -5.8169   -2.0463    0.0000 C   0  0  0  0  0  0  0  0  0  0  0  0
   -0.7541    1.5037    0.0000 O   0  0  0  0  0  0  0  0  0  0  0  0
    4.2121    1.9865    0.0000 C   0  0  0  0  0  0  0  0  0  0  0  0
    4.3363    1.2140    0.0000 C   0  0  0  0  0  0  0  0  0  0  0  0
    3.0211    2.9061    0.0000 O   0  0  0  0  0  0  0  0  0  0  0  0
    3.5086   -0.0552    0.0000 O   0  0  0  0  0  0  0  0  0  0  0  0
   -3.0717   -1.9865    0.0000 C   0  0  0  0  0  0  0  0  0  0  0  0
    1.9175    0.4920    0.0000 C   0  0  0  0  0  0  0  0  0  0  0  0
    1.6968    1.8991    0.0000 C   0  0  0  0  0  0  0  0  0  0  0  0
   -3.6925   -2.5154    0.0000 C   0  0  0  0  0  0  0  0  0  0  0  0
    1.1036    0.3540    0.0000 C   0  0  0  0  0  0  0  0  0  0  0  0
    0.8829    1.7657    0.0000 C   0  0  0  0  0  0  0  0  0  0  0  0
  2  4  1  0  0  0  0
  3  2  2  0  0  0  0
  4  6  1  0  0  0  0
  5  3  1  0  0  0  0
  6 15  1  0  0  0  0
  7  1  1  0  0  0  0
  8  1  1  0  0  0  0
  9  2  1  0  0  0  0
 10  9  1  0  0  0  0
 11  5  1  0  0  0  0
 12 14  1  0  0  0  0
 13  1  1  0  0  0  0
 14 11  2  0  0  0  0
 15 30  1  0  0  0  0
 16 28  1  0  0  0  0
 17 12  1  0  0  0  0
 18 16  1  0  0  0  0
 19 17  1  0  0  0  0
 20  6  2  0  0  0  0
 21  7  1  0  0  0  0
 22  8  1  0  0  0  0
 23  7  2  0  0  0  0
 24  8  2  0  0  0  0
 25 11  1  0  0  0  0
 26 13  2  0  0  0  0
 27 13  1  0  0  0  0
 28 25  2  0  0  0  0
 29 26  1  0  0  0  0
 30 27  2  0  0  0  0
 22 21  1  0  0  0  0
 15 29  2  0  0  0  0
 10  5  2  0  0  0  0
 16 12  2  0  0  0  0
 19 18  1  0  0  0  0
M  END
>  <IDNUMBER>
F0866-0364

>  <Chemical_Name>
N-[4-(2H-1,3-benzodioxol-5-yl)-1,3-thiazol-2-yl]-4-(2,5-dioxopyrrolidin-1-yl)benzamide

>  <PriceCoeff>
1.00

>  <CAS>
477547-52-7

>  <MW>
421.43

>  <Description>
solid

>  <FSP3>
0.14

>  <clogP>
2.17

>  <TPSA>
126.07

>  <Acceptor>
6

>  <Donor>
1

>  <RotBonds>
4

>  <HAC>
30

>  <Collection>
General

>  <PPDS>
+

$$$$
F0873-0006
  Mrv2219 10102508112D          

 16 16  0  0  0  0            999 V2000
   -2.7621    1.2858    0.0000 N   0  3  0  0  0  0  0  0  0  0  0  0
    0.5239    0.7798    0.0000 C   0  0  0  0  0  0  0  0  0  0  0  0
   -1.9288    1.1430    0.0000 C   0  0  0  0  0  0  0  0  0  0  0  0
    1.0418    1.4287    0.0000 N   0  0  0  0  0  0  0  0  0  0  0  0
   -3.0717    2.0656    0.0000 O   0  5  0  0  0  0  0  0  0  0  0  0
   -3.2800    0.6369    0.0000 O   0  0  0  0  0  0  0  0  0  0  0  0
   -0.3036    0.8869    0.0000 C   0  0  0  0  0  0  0  0  0  0  0  0
    1.2144    2.8574    0.0000 C   0  0  0  0  0  0  0  0  0  0  0  0
    0.8394    0.0297    0.0000 O   0  0  0  0  0  0  0  0  0  0  0  0
    2.0419    2.7443    0.0000 O   0  0  0  0  0  0  0  0  0  0  0  0
   -1.6192    0.3750    0.0000 C   0  0  0  0  0  0  0  0  0  0  0  0
   -1.3870    1.8038    0.0000 C   0  0  0  0  0  0  0  0  0  0  0  0
   -0.5893    1.6609    0.0000 C   0  0  0  0  0  0  0  0  0  0  0  0
   -0.8155    0.2619    0.0000 C   0  0  0  0  0  0  0  0  0  0  0  0
    0.7204    2.2085    0.0000 C   0  0  0  0  0  0  0  0  0  0  0  0
    0.8989    3.6015    0.0000 O   0  0  0  0  0  0  0  0  0  0  0  0
  2  7  1  0  0  0  0
  3  1  1  0  0  0  0
  4  2  1  0  0  0  0
  5  1  1  0  0  0  0
  6  1  2  0  0  0  0
  7 13  2  0  0  0  0
  8 15  1  0  0  0  0
  9  2  2  0  0  0  0
 10  8  2  0  0  0  0
 11  3  1  0  0  0  0
 12  3  2  0  0  0  0
 13 12  1  0  0  0  0
 14 11  2  0  0  0  0
 15  4  1  0  0  0  0
 16  8  1  0  0  0  0
  7 14  1  0  0  0  0
M  CHG  2   1   1   5  -1
M  END
>  <IDNUMBER>
F0873-0006

>  <Chemical_Name>
2-[(4-nitrophenyl)formamido]acetic acid

>  <PriceCoeff>
1.00

>  <CAS>
2645-07-0

>  <MW>
224.17

>  <Description>
solid

>  <FSP3>
0.11

>  <clogP>
0.41

>  <TPSA>
109.54

>  <Acceptor>
5

>  <Donor>
1

>  <RotBonds>
4

>  <HAC>
16

>  <Collection>
General

>  <PPDS>
+

$$$$
F0880-0006
  Mrv2219 10102508112D          

 17 18  0  0  0  0            999 V2000
    5.9744   -3.2219    0.0000 C   0  0  0  0  0  0  0  0  0  0  0  0
    8.8459   -3.2316    0.0000 C   0  0  0  0  0  0  0  0  0  0  0  0
    5.9809   -4.0451    0.0000 C   0  0  0  0  0  0  0  0  0  0  0  0
    7.4118   -3.2252    0.0000 N   0  0  0  0  0  0  0  0  0  0  0  0
    5.2703   -2.8007    0.0000 C   0  0  0  0  0  0  0  0  0  0  0  0
    9.5630   -2.8168    0.0000 S   0  0  0  0  0  0  0  0  0  0  0  0
    8.1256   -2.8104    0.0000 N   0  0  0  0  0  0  0  0  0  0  0  0
    6.6979   -2.8104    0.0000 C   0  0  0  0  0  0  0  0  0  0  0  0
    5.2606   -4.4503    0.0000 C   0  0  0  0  0  0  0  0  0  0  0  0
    4.5532   -3.2059    0.0000 C   0  0  0  0  0  0  0  0  0  0  0  0
    4.5435   -4.0355    0.0000 C   0  0  0  0  0  0  0  0  0  0  0  0
    8.8459   -4.0612    0.0000 N   0  0  0  0  0  0  0  0  0  0  0  0
    5.2767   -1.9711    0.0000 O   0  0  0  0  0  0  0  0  0  0  0  0
    6.6883   -4.4663    0.0000 C   0  0  0  0  0  0  0  0  0  0  0  0
    5.2477   -5.2703    0.0000 C   0  0  0  0  0  0  0  0  0  0  0  0
    6.6786   -5.2895    0.0000 C   0  0  0  0  0  0  0  0  0  0  0  0
    5.9552   -5.6947    0.0000 C   0  0  0  0  0  0  0  0  0  0  0  0
  2  7  1  0  0  0  0
  3  1  1  0  0  0  0
  4  8  2  0  0  0  0
  5  1  2  0  0  0  0
  6  2  2  0  0  0  0
  7  4  1  0  0  0  0
  8  1  1  0  0  0  0
  9  3  1  0  0  0  0
 10  5  1  0  0  0  0
 11 10  2  0  0  0  0
 12  2  1  0  0  0  0
 13  5  1  0  0  0  0
 14  3  2  0  0  0  0
 15  9  2  0  0  0  0
 16 14  1  0  0  0  0
 17 16  2  0  0  0  0
 11  9  1  0  0  0  0
 17 15  1  0  0  0  0
M  END
>  <IDNUMBER>
F0880-0006

>  <Chemical_Name>
[(E)-[(2-hydroxynaphthalen-1-yl)methylidene]amino]thiourea

>  <PriceCoeff>
1.00

>  <CAS>
1335024-24-2

>  <MW>
245.30

>  <Description>
solid

>  <FSP3>
0.00

>  <clogP>
2.37

>  <TPSA>
102.73

>  <Acceptor>
3

>  <Donor>
4

>  <RotBonds>
2

>  <HAC>
17

>  <Collection>
General

>  <PPDS>
+

$$$$
F0882-0657
  Mrv2219 10102508112D          

 28 31  0  0  0  0            999 V2000
   -0.2597    1.1202    0.0000 C   0  0  0  0  0  0  0  0  0  0  0  0
    0.5682    1.1472    0.0000 N   0  0  0  0  0  0  0  0  0  0  0  0
   -0.7305    0.4166    0.0000 N   0  0  0  0  0  0  0  0  0  0  0  0
    4.2913    0.5465    0.0000 N   0  0  0  0  0  0  0  0  0  0  0  0
   -0.7305    1.7478    0.0000 S   0  0  0  0  0  0  0  0  0  0  0  0
   -1.5098    0.6764    0.0000 C   0  0  0  0  0  0  0  0  0  0  0  0
   -1.5098    1.5098    0.0000 C   0  0  0  0  0  0  0  0  0  0  0  0
    1.0120    0.4491    0.0000 C   0  0  0  0  0  0  0  0  0  0  0  0
    4.7783    1.2121    0.0000 C   0  0  0  0  0  0  0  0  0  0  0  0
    4.7891   -0.0704    0.0000 C   0  0  0  0  0  0  0  0  0  0  0  0
    3.4796    0.5195    0.0000 C   0  0  0  0  0  0  0  0  0  0  0  0
    1.8399    0.4708    0.0000 C   0  0  0  0  0  0  0  0  0  0  0  0
   -2.2349    0.2597    0.0000 C   0  0  0  0  0  0  0  0  0  0  0  0
    0.6224   -0.2814    0.0000 O   0  0  0  0  0  0  0  0  0  0  0  0
    5.5413    0.9741    0.0000 C   0  0  0  0  0  0  0  0  0  0  0  0
    5.5575    0.2110    0.0000 C   0  0  0  0  0  0  0  0  0  0  0  0
    4.4806    2.0401    0.0000 O   0  0  0  0  0  0  0  0  0  0  0  0
    4.5835   -0.9146    0.0000 O   0  0  0  0  0  0  0  0  0  0  0  0
    3.0899   -0.2003    0.0000 C   0  0  0  0  0  0  0  0  0  0  0  0
    3.0575    1.2283    0.0000 C   0  0  0  0  0  0  0  0  0  0  0  0
    2.2295    1.1959    0.0000 C   0  0  0  0  0  0  0  0  0  0  0  0
    2.2565   -0.2327    0.0000 C   0  0  0  0  0  0  0  0  0  0  0  0
   -0.4708   -0.3896    0.0000 C   0  0  0  0  0  0  0  0  0  0  0  0
   -2.2349    1.9264    0.0000 C   0  0  0  0  0  0  0  0  0  0  0  0
   -2.2673   -0.5899    0.0000 O   0  0  0  0  0  0  0  0  0  0  0  0
   -2.9384    1.5098    0.0000 C   0  0  0  0  0  0  0  0  0  0  0  0
   -2.9384    0.6494    0.0000 C   0  0  0  0  0  0  0  0  0  0  0  0
   -1.5585   -1.0120    0.0000 C   0  0  0  0  0  0  0  0  0  0  0  0
  2  1  2  0  0  0  0
  3  1  1  0  0  0  0
  4 11  1  0  0  0  0
  5  1  1  0  0  0  0
  6  3  1  0  0  0  0
  7  5  1  0  0  0  0
  8  2  1  0  0  0  0
  9  4  1  0  0  0  0
 10  4  1  0  0  0  0
 11 19  2  0  0  0  0
 12  8  1  0  0  0  0
 13  6  1  0  0  0  0
 14  8  2  0  0  0  0
 15  9  1  0  0  0  0
 16 10  1  0  0  0  0
 17  9  2  0  0  0  0
 18 10  2  0  0  0  0
 19 22  1  0  0  0  0
 20 21  2  0  0  0  0
 21 12  1  0  0  0  0
 22 12  2  0  0  0  0
 23  3  1  0  0  0  0
 24  7  1  0  0  0  0
 25 13  1  0  0  0  0
 26 24  2  0  0  0  0
 27 13  2  0  0  0  0
 28 25  1  0  0  0  0
  6  7  2  0  0  0  0
 26 27  1  0  0  0  0
 11 20  1  0  0  0  0
 16 15  1  0  0  0  0
M  END
>  <IDNUMBER>
F0882-0657

>  <Chemical_Name>
4-(2,5-dioxopyrrolidin-1-yl)-N-[(2E)-4-methoxy-3-methyl-2,3-dihydro-1,3-benzothiazol-2-ylidene]benzamide

>  <PriceCoeff>
1.00

>  <CAS>
477557-23-6

>  <MW>
395.43

>  <Description>
solid

>  <FSP3>
0.20

>  <clogP>
2.87

>  <TPSA>
104.58

>  <Acceptor>
4

>  <Donor>
0

>  <RotBonds>
4

>  <HAC>
28

>  <Collection>
General

>  <PPDS>
+

$$$$
F0882-0814
  Mrv2219 10102508112D          

 27 29  0  0  0  0            999 V2000
   -6.7505    5.4725    0.0000 N   0  0  0  0  0  0  0  0  0  0  0  0
   -3.1762    5.0912    0.0000 C   0  0  0  0  0  0  0  0  0  0  0  0
   -3.5827    6.3650    0.0000 C   0  0  0  0  0  0  0  0  0  0  0  0
   -3.8341    5.5940    0.0000 S   0  0  0  0  0  0  0  0  0  0  0  0
   -2.7362    6.3273    0.0000 C   0  0  0  0  0  0  0  0  0  0  0  0
   -3.1762    4.2280    0.0000 N   0  0  0  0  0  0  0  0  0  0  0  0
   -7.5090    5.1457    0.0000 C   0  0  0  0  0  0  0  0  0  0  0  0
   -6.8679    6.2645    0.0000 C   0  0  0  0  0  0  0  0  0  0  0  0
   -2.5099    5.5731    0.0000 C   0  0  0  0  0  0  0  0  0  0  0  0
   -3.8927    3.8215    0.0000 C   0  0  0  0  0  0  0  0  0  0  0  0
   -4.0561    7.0564    0.0000 C   0  0  0  0  0  0  0  0  0  0  0  0
   -6.0382    5.0703    0.0000 C   0  0  0  0  0  0  0  0  0  0  0  0
   -4.6093    4.2280    0.0000 C   0  0  0  0  0  0  0  0  0  0  0  0
   -3.8927    2.9876    0.0000 O   0  0  0  0  0  0  0  0  0  0  0  0
   -7.6598    6.4153    0.0000 C   0  0  0  0  0  0  0  0  0  0  0  0
   -8.0495    5.7491    0.0000 C   0  0  0  0  0  0  0  0  0  0  0  0
   -6.2351    6.8930    0.0000 O   0  0  0  0  0  0  0  0  0  0  0  0
   -7.6807    4.2909    0.0000 O   0  0  0  0  0  0  0  0  0  0  0  0
   -3.6790    7.7855    0.0000 O   0  0  0  0  0  0  0  0  0  0  0  0
   -6.0298    4.2406    0.0000 C   0  0  0  0  0  0  0  0  0  0  0  0
   -5.3132    5.4851    0.0000 C   0  0  0  0  0  0  0  0  0  0  0  0
   -4.5883    5.0912    0.0000 C   0  0  0  0  0  0  0  0  0  0  0  0
   -5.3258    3.8341    0.0000 C   0  0  0  0  0  0  0  0  0  0  0  0
   -4.8775    7.0187    0.0000 O   0  0  0  0  0  0  0  0  0  0  0  0
   -2.2208    6.9810    0.0000 C   0  0  0  0  0  0  0  0  0  0  0  0
   -5.3300    7.7101    0.0000 C   0  0  0  0  0  0  0  0  0  0  0  0
   -6.1597    7.6473    0.0000 C   0  0  0  0  0  0  0  0  0  0  0  0
  2  6  1  0  0  0  0
  3  4  1  0  0  0  0
  4  2  1  0  0  0  0
  5  9  1  0  0  0  0
  6 10  1  0  0  0  0
  7  1  1  0  0  0  0
  8  1  1  0  0  0  0
  9  2  2  0  0  0  0
 10 13  1  0  0  0  0
 11  3  1  0  0  0  0
 12  1  1  0  0  0  0
 13 22  2  0  0  0  0
 14 10  2  0  0  0  0
 15  8  1  0  0  0  0
 16  7  1  0  0  0  0
 17  8  2  0  0  0  0
 18  7  2  0  0  0  0
 19 11  2  0  0  0  0
 20 12  1  0  0  0  0
 21 12  2  0  0  0  0
 22 21  1  0  0  0  0
 23 20  2  0  0  0  0
 24 11  1  0  0  0  0
 25  5  1  0  0  0  0
 26 24  1  0  0  0  0
 27 26  1  0  0  0  0
 16 15  1  0  0  0  0
 23 13  1  0  0  0  0
  3  5  2  0  0  0  0
M  END
>  <IDNUMBER>
F0882-0814

>  <Chemical_Name>
ethyl 5-[4-(2,5-dioxopyrrolidin-1-yl)benzamido]-3-methylthiophene-2-carboxylate

>  <PriceCoeff>
1.00

>  <CAS>
477567-89-8

>  <MW>
386.42

>  <Description>
solid

>  <FSP3>
0.26

>  <clogP>
1.99

>  <TPSA>
121.02

>  <Acceptor>
5

>  <Donor>
1

>  <RotBonds>
6

>  <HAC>
27

>  <Collection>
General

>  <PPDS>
+

$$$$
F0882-0937
  Mrv2219 10102508112D          

 29 32  0  0  0  0            999 V2000
   -6.7407    5.4645    0.0000 N   0  0  0  0  0  0  0  0  0  0  0  0
   -3.1716    5.0629    0.0000 C   0  0  0  0  0  0  0  0  0  0  0  0
   -3.8243    5.5775    0.0000 N   0  0  0  0  0  0  0  0  0  0  0  0
   -3.5356    6.3432    0.0000 C   0  0  0  0  0  0  0  0  0  0  0  0
   -3.1716    4.2218    0.0000 N   0  0  0  0  0  0  0  0  0  0  0  0
   -4.0628    6.9666    0.0000 C   0  0  0  0  0  0  0  0  0  0  0  0
   -3.8870    3.8160    0.0000 C   0  0  0  0  0  0  0  0  0  0  0  0
   -6.8579    6.2553    0.0000 C   0  0  0  0  0  0  0  0  0  0  0  0
   -7.4980    5.1382    0.0000 C   0  0  0  0  0  0  0  0  0  0  0  0
   -2.5063    5.5231    0.0000 S   0  0  0  0  0  0  0  0  0  0  0  0
   -2.7113    6.3013    0.0000 C   0  0  0  0  0  0  0  0  0  0  0  0
   -4.8787    6.8285    0.0000 C   0  0  0  0  0  0  0  0  0  0  0  0
   -6.0294    5.0629    0.0000 C   0  0  0  0  0  0  0  0  0  0  0  0
   -5.4059    7.4729    0.0000 C   0  0  0  0  0  0  0  0  0  0  0  0
   -3.7783    7.7491    0.0000 C   0  0  0  0  0  0  0  0  0  0  0  0
   -4.6025    4.2218    0.0000 C   0  0  0  0  0  0  0  0  0  0  0  0
   -3.8870    2.9833    0.0000 O   0  0  0  0  0  0  0  0  0  0  0  0
   -7.6487    6.4060    0.0000 C   0  0  0  0  0  0  0  0  0  0  0  0
   -8.0378    5.7407    0.0000 C   0  0  0  0  0  0  0  0  0  0  0  0
   -6.2260    6.8830    0.0000 O   0  0  0  0  0  0  0  0  0  0  0  0
   -7.6696    4.2846    0.0000 O   0  0  0  0  0  0  0  0  0  0  0  0
   -6.0210    4.2344    0.0000 C   0  0  0  0  0  0  0  0  0  0  0  0
   -5.3055    5.4771    0.0000 C   0  0  0  0  0  0  0  0  0  0  0  0
   -4.5817    5.0837    0.0000 C   0  0  0  0  0  0  0  0  0  0  0  0
   -5.3180    3.8285    0.0000 C   0  0  0  0  0  0  0  0  0  0  0  0
   -5.1214    8.2470    0.0000 C   0  0  0  0  0  0  0  0  0  0  0  0
   -5.1800    6.0545    0.0000 Cl  0  0  0  0  0  0  0  0  0  0  0  0
   -4.3055    8.3850    0.0000 C   0  0  0  0  0  0  0  0  0  0  0  0
   -5.6695    8.8788    0.0000 Cl  0  0  0  0  0  0  0  0  0  0  0  0
  2  5  1  0  0  0  0
  3  2  2  0  0  0  0
  4  3  1  0  0  0  0
  5  7  1  0  0  0  0
  6  4  1  0  0  0  0
  7 16  1  0  0  0  0
  8  1  1  0  0  0  0
  9  1  1  0  0  0  0
 10  2  1  0  0  0  0
 11 10  1  0  0  0  0
 12  6  2  0  0  0  0
 13  1  1  0  0  0  0
 14 12  1  0  0  0  0
 15  6  1  0  0  0  0
 16 24  2  0  0  0  0
 17  7  2  0  0  0  0
 18  8  1  0  0  0  0
 19  9  1  0  0  0  0
 20  8  2  0  0  0  0
 21  9  2  0  0  0  0
 22 13  1  0  0  0  0
 23 13  2  0  0  0  0
 24 23  1  0  0  0  0
 25 22  2  0  0  0  0
 26 28  1  0  0  0  0
 27 12  1  0  0  0  0
 28 15  2  0  0  0  0
 29 26  1  0  0  0  0
 19 18  1  0  0  0  0
 25 16  1  0  0  0  0
  4 11  2  0  0  0  0
 14 26  2  0  0  0  0
M  END
>  <IDNUMBER>
F0882-0937

>  <Chemical_Name>
N-[4-(2,4-dichlorophenyl)-1,3-thiazol-2-yl]-4-(2,5-dioxopyrrolidin-1-yl)benzamide

>  <PriceCoeff>
1.00

>  <CAS>
477568-94-8

>  <MW>
446.31

>  <Description>
solid

>  <FSP3>
0.10

>  <clogP>
3.31

>  <TPSA>
107.61

>  <Acceptor>
4

>  <Donor>
1

>  <RotBonds>
4

>  <HAC>
29

>  <Collection>
General

>  <PPDS>
+

$$$$
F0882-0957
  Mrv2219 10102508112D          

 24 26  0  0  0  0            999 V2000
   -5.3202    3.8175    0.0000 N   0  0  0  0  0  0  0  0  0  0  0  0
   -3.1729    5.0649    0.0000 C   0  0  0  0  0  0  0  0  0  0  0  0
   -3.8259    5.5798    0.0000 N   0  0  0  0  0  0  0  0  0  0  0  0
   -3.5370    6.3458    0.0000 C   0  0  0  0  0  0  0  0  0  0  0  0
   -4.0645    6.9695    0.0000 C   0  0  0  0  0  0  0  0  0  0  0  0
   -3.1729    4.2236    0.0000 N   0  0  0  0  0  0  0  0  0  0  0  0
   -5.4375    3.0013    0.0000 C   0  0  0  0  0  0  0  0  0  0  0  0
   -6.0570    4.1440    0.0000 C   0  0  0  0  0  0  0  0  0  0  0  0
   -2.5073    5.5254    0.0000 S   0  0  0  0  0  0  0  0  0  0  0  0
   -2.7124    6.3039    0.0000 C   0  0  0  0  0  0  0  0  0  0  0  0
   -3.8886    3.8175    0.0000 C   0  0  0  0  0  0  0  0  0  0  0  0
   -4.8807    6.8314    0.0000 C   0  0  0  0  0  0  0  0  0  0  0  0
   -4.6044    4.2236    0.0000 C   0  0  0  0  0  0  0  0  0  0  0  0
   -5.4081    7.4760    0.0000 C   0  0  0  0  0  0  0  0  0  0  0  0
   -3.7798    7.7523    0.0000 C   0  0  0  0  0  0  0  0  0  0  0  0
   -6.2286    2.8506    0.0000 C   0  0  0  0  0  0  0  0  0  0  0  0
   -6.5970    3.5496    0.0000 C   0  0  0  0  0  0  0  0  0  0  0  0
   -4.8096    2.4068    0.0000 O   0  0  0  0  0  0  0  0  0  0  0  0
   -6.2579    4.9896    0.0000 O   0  0  0  0  0  0  0  0  0  0  0  0
   -3.8886    2.9971    0.0000 O   0  0  0  0  0  0  0  0  0  0  0  0
   -5.1235    8.2504    0.0000 C   0  0  0  0  0  0  0  0  0  0  0  0
   -5.1821    6.0570    0.0000 Cl  0  0  0  0  0  0  0  0  0  0  0  0
   -4.3073    8.3885    0.0000 C   0  0  0  0  0  0  0  0  0  0  0  0
   -5.6718    8.8825    0.0000 Cl  0  0  0  0  0  0  0  0  0  0  0  0
  2  6  1  0  0  0  0
  3  2  2  0  0  0  0
  4  3  1  0  0  0  0
  5  4  1  0  0  0  0
  6 11  1  0  0  0  0
  7  1  1  0  0  0  0
  8  1  1  0  0  0  0
  9  2  1  0  0  0  0
 10  9  1  0  0  0  0
 11 13  1  0  0  0  0
 12  5  2  0  0  0  0
 13  1  1  0  0  0  0
 14 12  1  0  0  0  0
 15  5  1  0  0  0  0
 16  7  1  0  0  0  0
 17  8  1  0  0  0  0
 18  7  2  0  0  0  0
 19  8  2  0  0  0  0
 20 11  2  0  0  0  0
 21 23  1  0  0  0  0
 22 12  1  0  0  0  0
 23 15  2  0  0  0  0
 24 21  1  0  0  0  0
 16 17  1  0  0  0  0
  4 10  2  0  0  0  0
 14 21  2  0  0  0  0
M  END
>  <IDNUMBER>
F0882-0957

>  <Chemical_Name>
N-[4-(2,4-dichlorophenyl)-1,3-thiazol-2-yl]-2-(2,5-dioxopyrrolidin-1-yl)acetamide

>  <PriceCoeff>
1.00

>  <CAS>
477569-12-3

>  <MW>
384.24

>  <Description>
solid

>  <FSP3>
0.20

>  <clogP>
3.13

>  <TPSA>
107.61

>  <Acceptor>
4

>  <Donor>
1

>  <RotBonds>
4

>  <HAC>
24

>  <Collection>
General

>  <PPDS>
+

$$$$
F0882-1056
  Mrv2219 10102508112D          

 31 35  0  0  0  0            999 V2000
    3.0644   -0.6759    0.0000 C   0  0  0  0  0  0  0  0  0  0  0  0
    2.9855   -1.4928    0.0000 N   0  0  0  0  0  0  0  0  0  0  0  0
    5.6601   -4.9884    0.0000 N   0  0  0  0  0  0  0  0  0  0  0  0
    2.3262   -0.3401    0.0000 S   0  0  0  0  0  0  0  0  0  0  0  0
    3.7361   -0.1990    0.0000 C   0  0  0  0  0  0  0  0  0  0  0  0
    6.3443   -5.4404    0.0000 C   0  0  0  0  0  0  0  0  0  0  0  0
    5.0174   -5.5026    0.0000 C   0  0  0  0  0  0  0  0  0  0  0  0
    5.3284   -1.6960    0.0000 C   0  0  0  0  0  0  0  0  0  0  0  0
    4.5696   -1.3601    0.0000 N   0  0  0  0  0  0  0  0  0  0  0  0
    4.4908   -0.5391    0.0000 C   0  0  0  0  0  0  0  0  0  0  0  0
    2.1811   -1.6669    0.0000 C   0  0  0  0  0  0  0  0  0  0  0  0
    1.7706   -0.9579    0.0000 C   0  0  0  0  0  0  0  0  0  0  0  0
    5.5772   -4.1591    0.0000 C   0  0  0  0  0  0  0  0  0  0  0  0
    5.4113   -2.5170    0.0000 C   0  0  0  0  0  0  0  0  0  0  0  0
    5.9960   -1.2191    0.0000 O   0  0  0  0  0  0  0  0  0  0  0  0
    5.3118   -6.2738    0.0000 C   0  0  0  0  0  0  0  0  0  0  0  0
    6.1246   -6.2323    0.0000 C   0  0  0  0  0  0  0  0  0  0  0  0
    4.2213   -5.2911    0.0000 O   0  0  0  0  0  0  0  0  0  0  0  0
    7.1197   -5.1501    0.0000 O   0  0  0  0  0  0  0  0  0  0  0  0
    6.2448   -3.6822    0.0000 C   0  0  0  0  0  0  0  0  0  0  0  0
    4.8184   -3.8232    0.0000 C   0  0  0  0  0  0  0  0  0  0  0  0
    4.7396   -3.0022    0.0000 C   0  0  0  0  0  0  0  0  0  0  0  0
    6.1619   -2.8611    0.0000 C   0  0  0  0  0  0  0  0  0  0  0  0
    3.6573    0.6220    0.0000 C   0  0  0  0  0  0  0  0  0  0  0  0
    5.1625   -0.0539    0.0000 C   0  0  0  0  0  0  0  0  0  0  0  0
    1.7706   -2.3802    0.0000 C   0  0  0  0  0  0  0  0  0  0  0  0
    0.9454   -0.9579    0.0000 C   0  0  0  0  0  0  0  0  0  0  0  0
    4.3208    1.1030    0.0000 C   0  0  0  0  0  0  0  0  0  0  0  0
    5.0796    0.7671    0.0000 C   0  0  0  0  0  0  0  0  0  0  0  0
    0.9454   -2.3802    0.0000 C   0  0  0  0  0  0  0  0  0  0  0  0
    0.5349   -1.6669    0.0000 C   0  0  0  0  0  0  0  0  0  0  0  0
  2  1  2  0  0  0  0
  3 13  1  0  0  0  0
  4  1  1  0  0  0  0
  5  1  1  0  0  0  0
  6  3  1  0  0  0  0
  7  3  1  0  0  0  0
  8  9  1  0  0  0  0
  9 10  1  0  0  0  0
 10  5  2  0  0  0  0
 11  2  1  0  0  0  0
 12  4  1  0  0  0  0
 13 20  1  0  0  0  0
 14  8  1  0  0  0  0
 15  8  2  0  0  0  0
 16  7  1  0  0  0  0
 17  6  1  0  0  0  0
 18  7  2  0  0  0  0
 19  6  2  0  0  0  0
 20 23  2  0  0  0  0
 21 22  1  0  0  0  0
 22 14  2  0  0  0  0
 23 14  1  0  0  0  0
 24  5  1  0  0  0  0
 25 10  1  0  0  0  0
 26 11  1  0  0  0  0
 27 12  1  0  0  0  0
 28 24  2  0  0  0  0
 29 28  1  0  0  0  0
 30 26  2  0  0  0  0
 31 27  2  0  0  0  0
 12 11  2  0  0  0  0
 25 29  2  0  0  0  0
 31 30  1  0  0  0  0
 13 21  2  0  0  0  0
 17 16  1  0  0  0  0
M  END
>  <IDNUMBER>
F0882-1056

>  <Chemical_Name>
N-[2-(1,3-benzothiazol-2-yl)phenyl]-4-(2,5-dioxopyrrolidin-1-yl)benzamide

>  <PriceCoeff>
1.00

>  <MW>
427.48

>  <Description>
solid

>  <FSP3>
0.08

>  <clogP>
1.98

>  <TPSA>
72.54

>  <Acceptor>
4

>  <Donor>
1

>  <RotBonds>
4

>  <HAC>
31

>  <Collection>
General

$$$$
F0886-0007
  Mrv2219 10102508112D          

 20 22  0  0  0  0            999 V2000
   -0.0112    1.7370    0.0000 C   0  0  0  0  0  0  0  0  0  0  0  0
    0.3891    2.4645    0.0000 C   0  0  0  0  0  0  0  0  0  0  0  0
   -0.8741    1.7200    0.0000 N   0  0  0  0  0  0  0  0  0  0  0  0
   -1.3309    2.3968    0.0000 C   0  0  0  0  0  0  0  0  0  0  0  0
   -0.8911    3.1300    0.0000 N   0  0  0  0  0  0  0  0  0  0  0  0
    0.5640    1.1336    0.0000 N   0  0  0  0  0  0  0  0  0  0  0  0
   -0.0620    3.1639    0.0000 C   0  0  0  0  0  0  0  0  0  0  0  0
    1.1900    2.3179    0.0000 N   0  0  0  0  0  0  0  0  0  0  0  0
    1.3592    1.5058    0.0000 C   0  0  0  0  0  0  0  0  0  0  0  0
    3.1357    3.2597    0.0000 N   0  0  0  0  0  0  0  0  0  0  0  0
   -2.1768    2.3798    0.0000 O   0  0  0  0  0  0  0  0  0  0  0  0
    0.3271    3.9026    0.0000 O   0  0  0  0  0  0  0  0  0  0  0  0
    1.7653    2.9044    0.0000 C   0  0  0  0  0  0  0  0  0  0  0  0
   -1.2689    0.9926    0.0000 C   0  0  0  0  0  0  0  0  0  0  0  0
    4.2862    4.4102    0.0000 O   0  0  0  0  0  0  0  0  0  0  0  0
    2.5605    2.6845    0.0000 C   0  0  0  0  0  0  0  0  0  0  0  0
    3.9139    3.0567    0.0000 C   0  0  0  0  0  0  0  0  0  0  0  0
    2.9158    4.0549    0.0000 C   0  0  0  0  0  0  0  0  0  0  0  0
    3.5022    4.6301    0.0000 C   0  0  0  0  0  0  0  0  0  0  0  0
    4.4892    3.6206    0.0000 C   0  0  0  0  0  0  0  0  0  0  0  0
  2  1  2  0  0  0  0
  3  1  1  0  0  0  0
  4  3  1  0  0  0  0
  5  4  1  0  0  0  0
  6  1  1  0  0  0  0
  7  2  1  0  0  0  0
  8  2  1  0  0  0  0
  9  6  2  0  0  0  0
 10 16  1  0  0  0  0
 11  4  2  0  0  0  0
 12  7  2  0  0  0  0
 13  8  1  0  0  0  0
 14  3  1  0  0  0  0
 15 19  1  0  0  0  0
 16 13  1  0  0  0  0
 17 10  1  0  0  0  0
 18 10  1  0  0  0  0
 19 18  1  0  0  0  0
 20 17  1  0  0  0  0
  9  8  1  0  0  0  0
  5  7  1  0  0  0  0
 15 20  1  0  0  0  0
M  END
>  <IDNUMBER>
F0886-0007

>  <Chemical_Name>
3-methyl-7-[2-(morpholin-4-yl)ethyl]-2,3,6,7-tetrahydro-1H-purine-2,6-dione

>  <PriceCoeff>
1.50

>  <CAS>
354795-11-2

>  <MW>
279.30

>  <Description>
solid

>  <FSP3>
0.58

>  <clogP>
-0.71

>  <TPSA>
79.70

>  <Acceptor>
4

>  <Donor>
3

>  <RotBonds>
3

>  <HAC>
20

>  <Collection>
Advanced

>  <PPDS>
+

$$$$
F0886-0008
  Mrv2219 10102508112D          

 21 23  0  0  0  0            999 V2000
   -0.3014    0.5402    0.0000 C   0  0  0  0  0  0  0  0  0  0  0  0
    0.1081    1.2796    0.0000 C   0  0  0  0  0  0  0  0  0  0  0  0
   -1.1715    0.5232    0.0000 N   0  0  0  0  0  0  0  0  0  0  0  0
   -1.1886    1.9563    0.0000 N   0  0  0  0  0  0  0  0  0  0  0  0
   -1.6208    1.2056    0.0000 C   0  0  0  0  0  0  0  0  0  0  0  0
   -0.3526    1.9905    0.0000 C   0  0  0  0  0  0  0  0  0  0  0  0
    0.2900   -0.0569    0.0000 N   0  0  0  0  0  0  0  0  0  0  0  0
    0.9213    1.1374    0.0000 N   0  0  0  0  0  0  0  0  0  0  0  0
    1.0806    0.3184    0.0000 C   0  0  0  0  0  0  0  0  0  0  0  0
   -2.4739    1.1886    0.0000 O   0  0  0  0  0  0  0  0  0  0  0  0
    0.0399    2.7241    0.0000 O   0  0  0  0  0  0  0  0  0  0  0  0
    2.8721    2.0815    0.0000 N   0  0  0  0  0  0  0  0  0  0  0  0
    1.5014    1.7175    0.0000 C   0  0  0  0  0  0  0  0  0  0  0  0
   -1.5639   -0.2105    0.0000 C   0  0  0  0  0  0  0  0  0  0  0  0
   -1.6151    2.7070    0.0000 C   0  0  0  0  0  0  0  0  0  0  0  0
    4.0322    3.2417    0.0000 O   0  0  0  0  0  0  0  0  0  0  0  0
    2.2920    1.5014    0.0000 C   0  0  0  0  0  0  0  0  0  0  0  0
    2.6616    2.8777    0.0000 C   0  0  0  0  0  0  0  0  0  0  0  0
    3.6682    1.8710    0.0000 C   0  0  0  0  0  0  0  0  0  0  0  0
    4.2483    2.4511    0.0000 C   0  0  0  0  0  0  0  0  0  0  0  0
    3.2474    3.4578    0.0000 C   0  0  0  0  0  0  0  0  0  0  0  0
  2  1  2  0  0  0  0
  3  1  1  0  0  0  0
  4  5  1  0  0  0  0
  5  3  1  0  0  0  0
  6  2  1  0  0  0  0
  7  1  1  0  0  0  0
  8  2  1  0  0  0  0
  9  7  2  0  0  0  0
 10  5  2  0  0  0  0
 11  6  2  0  0  0  0
 12 17  1  0  0  0  0
 13  8  1  0  0  0  0
 14  3  1  0  0  0  0
 15  4  1  0  0  0  0
 16 20  1  0  0  0  0
 17 13  1  0  0  0  0
 18 12  1  0  0  0  0
 19 12  1  0  0  0  0
 20 19  1  0  0  0  0
 21 18  1  0  0  0  0
  9  8  1  0  0  0  0
  4  6  1  0  0  0  0
 16 21  1  0  0  0  0
M  END
>  <IDNUMBER>
F0886-0008

>  <Chemical_Name>
1,3-dimethyl-7-[2-(morpholin-4-yl)ethyl]-2,3,6,7-tetrahydro-1H-purine-2,6-dione

>  <PriceCoeff>
1.50

>  <CAS>
85745-76-2

>  <MW>
293.32

>  <Description>
solid

>  <FSP3>
0.62

>  <clogP>
-0.07

>  <TPSA>
70.91

>  <Acceptor>
4

>  <Donor>
2

>  <RotBonds>
3

>  <HAC>
21

>  <Collection>
Advanced

>  <PPDS>
+

$$$$
F0886-0009
  Mrv2219 10102508112D          

 18 19  0  0  0  0            999 V2000
   -0.0111    1.7218    0.0000 C   0  0  0  0  0  0  0  0  0  0  0  0
    0.3858    2.4428    0.0000 C   0  0  0  0  0  0  0  0  0  0  0  0
    0.5591    1.1236    0.0000 N   0  0  0  0  0  0  0  0  0  0  0  0
   -0.8664    1.7050    0.0000 N   0  0  0  0  0  0  0  0  0  0  0  0
   -0.8832    3.1025    0.0000 N   0  0  0  0  0  0  0  0  0  0  0  0
   -1.3192    2.3758    0.0000 C   0  0  0  0  0  0  0  0  0  0  0  0
   -0.0615    3.1360    0.0000 C   0  0  0  0  0  0  0  0  0  0  0  0
    1.3473    1.4926    0.0000 C   0  0  0  0  0  0  0  0  0  0  0  0
    1.1796    2.2975    0.0000 N   0  0  0  0  0  0  0  0  0  0  0  0
   -2.1577    2.3590    0.0000 O   0  0  0  0  0  0  0  0  0  0  0  0
    0.3243    3.8683    0.0000 O   0  0  0  0  0  0  0  0  0  0  0  0
    2.1130    1.1404    0.0000 N   0  0  0  0  0  0  0  0  0  0  0  0
   -1.2578    0.9838    0.0000 C   0  0  0  0  0  0  0  0  0  0  0  0
   -1.1068    3.9243    0.0000 C   0  0  0  0  0  0  0  0  0  0  0  0
    1.7497    2.8789    0.0000 C   0  0  0  0  0  0  0  0  0  0  0  0
    3.6616   -0.7267    0.0000 O   0  0  0  0  0  0  0  0  0  0  0  0
    2.3143    0.4025    0.0000 C   0  0  0  0  0  0  0  0  0  0  0  0
    3.5050    0.1174    0.0000 C   0  0  0  0  0  0  0  0  0  0  0  0
  2  1  2  0  0  0  0
  3  1  1  0  0  0  0
  4  1  1  0  0  0  0
  5  6  1  0  0  0  0
  6  4  1  0  0  0  0
  7  2  1  0  0  0  0
  8  3  2  0  0  0  0
  9  2  1  0  0  0  0
 10  6  2  0  0  0  0
 11  7  2  0  0  0  0
 12  8  1  0  0  0  0
 13  4  1  0  0  0  0
 14  5  1  0  0  0  0
 15  9  1  0  0  0  0
 16 18  1  0  0  0  0
 17 12  1  0  0  0  0
 18 17  1  0  0  0  0
  8  9  1  0  0  0  0
  5  7  1  0  0  0  0
M  END
>  <IDNUMBER>
F0886-0009

>  <Chemical_Name>
8-[(2-hydroxyethyl)amino]-1,3,7-trimethyl-2,3,6,7-tetrahydro-1H-purine-2,6-dione

>  <PriceCoeff>
1.50

>  <CAS>
6320-10-1

>  <MW>
253.26

>  <Description>
solid

>  <FSP3>
0.50

>  <clogP>
-0.25

>  <TPSA>
90.70

>  <Acceptor>
4

>  <Donor>
3

>  <RotBonds>
3

>  <HAC>
18

>  <Collection>
Advanced

>  <PPDS>
+

$$$$
F0886-0010
  Mrv2219 10102508112D          

 20 22  0  0  0  0            999 V2000
   -0.3016    0.5406    0.0000 C   0  0  0  0  0  0  0  0  0  0  0  0
    0.1082    1.2805    0.0000 C   0  0  0  0  0  0  0  0  0  0  0  0
   -1.1723    0.5235    0.0000 N   0  0  0  0  0  0  0  0  0  0  0  0
   -1.6220    1.2065    0.0000 C   0  0  0  0  0  0  0  0  0  0  0  0
   -1.1894    1.9577    0.0000 N   0  0  0  0  0  0  0  0  0  0  0  0
    0.2902   -0.0570    0.0000 N   0  0  0  0  0  0  0  0  0  0  0  0
   -0.3528    1.9918    0.0000 C   0  0  0  0  0  0  0  0  0  0  0  0
    0.9220    1.1382    0.0000 N   0  0  0  0  0  0  0  0  0  0  0  0
    1.0813    0.3187    0.0000 C   0  0  0  0  0  0  0  0  0  0  0  0
    2.8740    2.0829    0.0000 N   0  0  0  0  0  0  0  0  0  0  0  0
   -2.4756    1.1894    0.0000 O   0  0  0  0  0  0  0  0  0  0  0  0
    0.0399    2.7260    0.0000 O   0  0  0  0  0  0  0  0  0  0  0  0
    1.5024    1.7187    0.0000 C   0  0  0  0  0  0  0  0  0  0  0  0
   -1.5650   -0.2106    0.0000 C   0  0  0  0  0  0  0  0  0  0  0  0
    2.2935    1.5024    0.0000 C   0  0  0  0  0  0  0  0  0  0  0  0
    3.6707    1.8723    0.0000 C   0  0  0  0  0  0  0  0  0  0  0  0
    2.6634    2.8796    0.0000 C   0  0  0  0  0  0  0  0  0  0  0  0
    3.2496    3.4601    0.0000 C   0  0  0  0  0  0  0  0  0  0  0  0
    4.2512    2.4528    0.0000 C   0  0  0  0  0  0  0  0  0  0  0  0
    4.0350    3.2439    0.0000 C   0  0  0  0  0  0  0  0  0  0  0  0
  2  1  2  0  0  0  0
  3  1  1  0  0  0  0
  4  3  1  0  0  0  0
  5  4  1  0  0  0  0
  6  1  1  0  0  0  0
  7  2  1  0  0  0  0
  8  2  1  0  0  0  0
  9  6  2  0  0  0  0
 10 15  1  0  0  0  0
 11  4  2  0  0  0  0
 12  7  2  0  0  0  0
 13  8  1  0  0  0  0
 14  3  1  0  0  0  0
 15 13  1  0  0  0  0
 16 10  1  0  0  0  0
 17 10  1  0  0  0  0
 18 17  1  0  0  0  0
 19 16  1  0  0  0  0
 20 18  1  0  0  0  0
  9  8  1  0  0  0  0
  5  7  1  0  0  0  0
 20 19  1  0  0  0  0
M  END
>  <IDNUMBER>
F0886-0010

>  <Chemical_Name>
3-methyl-7-[2-(piperidin-1-yl)ethyl]-2,3,6,7-tetrahydro-1H-purine-2,6-dione

>  <PriceCoeff>
1.50

>  <CAS>
335403-11-7

>  <MW>
277.32

>  <Description>
solid

>  <FSP3>
0.62

>  <clogP>
0.51

>  <TPSA>
70.47

>  <Acceptor>
3

>  <Donor>
3

>  <RotBonds>
3

>  <HAC>
20

>  <Collection>
Advanced

>  <PPDS>
+

$$$$
F0887-0017
  Mrv2219 10102508112D          

 17 18  0  0  0  0            999 V2000
    2.6648   -1.5733    0.0000 C   0  0  0  0  0  0  0  0  0  0  0  0
    2.6648   -0.7840    0.0000 C   0  0  0  0  0  0  0  0  0  0  0  0
    3.3566   -1.9883    0.0000 N   0  0  0  0  0  0  0  0  0  0  0  0
    1.9422   -1.9730    0.0000 N   0  0  0  0  0  0  0  0  0  0  0  0
    1.2504   -0.7840    0.0000 N   0  0  0  0  0  0  0  0  0  0  0  0
    1.2504   -1.5886    0.0000 C   0  0  0  0  0  0  0  0  0  0  0  0
    1.9422   -0.3843    0.0000 C   0  0  0  0  0  0  0  0  0  0  0  0
    4.0586   -1.6040    0.0000 C   0  0  0  0  0  0  0  0  0  0  0  0
    4.0740   -0.7840    0.0000 N   0  0  0  0  0  0  0  0  0  0  0  0
    0.5432   -1.9883    0.0000 O   0  0  0  0  0  0  0  0  0  0  0  0
    1.9422    0.4407    0.0000 O   0  0  0  0  0  0  0  0  0  0  0  0
    4.7863   -2.0191    0.0000 N   0  0  0  0  0  0  0  0  0  0  0  0
    1.9422   -2.7826    0.0000 C   0  0  0  0  0  0  0  0  0  0  0  0
    0.5688   -0.3895    0.0000 C   0  0  0  0  0  0  0  0  0  0  0  0
    4.5711    0.0922    0.0000 C   0  0  0  0  0  0  0  0  0  0  0  0
    4.7863   -2.8493    0.0000 C   0  0  0  0  0  0  0  0  0  0  0  0
    5.5857    0.0922    0.0000 C   0  0  0  0  0  0  0  0  0  0  0  0
  2  1  2  0  0  0  0
  3  1  1  0  0  0  0
  4  1  1  0  0  0  0
  5  6  1  0  0  0  0
  6  4  1  0  0  0  0
  7  2  1  0  0  0  0
  8  3  2  0  0  0  0
  9  2  1  0  0  0  0
 10  6  2  0  0  0  0
 11  7  2  0  0  0  0
 12  8  1  0  0  0  0
 13  4  1  0  0  0  0
 14  5  1  0  0  0  0
 15  9  1  0  0  0  0
 16 12  1  0  0  0  0
 17 15  1  0  0  0  0
  9  8  1  0  0  0  0
  5  7  1  0  0  0  0
M  END
>  <IDNUMBER>
F0887-0017

>  <Chemical_Name>
7-ethyl-1,3-dimethyl-8-(methylamino)-2,3,6,7-tetrahydro-1H-purine-2,6-dione

>  <PriceCoeff>
1.50

>  <CAS>
333752-03-7

>  <MW>
237.26

>  <Description>
solid

>  <FSP3>
0.50

>  <clogP>
1.04

>  <TPSA>
70.47

>  <Acceptor>
3

>  <Donor>
2

>  <RotBonds>
2

>  <HAC>
17

>  <Collection>
Advanced

>  <PPDS>
+

$$$$
F0887-0018
  Mrv2219 10102508112D          

 18 19  0  0  0  0            999 V2000
    2.6633   -1.5417    0.0000 C   0  0  0  0  0  0  0  0  0  0  0  0
    2.6633   -0.7427    0.0000 C   0  0  0  0  0  0  0  0  0  0  0  0
    3.3548   -1.9565    0.0000 N   0  0  0  0  0  0  0  0  0  0  0  0
    1.9412   -1.9412    0.0000 N   0  0  0  0  0  0  0  0  0  0  0  0
    1.2497   -0.7427    0.0000 N   0  0  0  0  0  0  0  0  0  0  0  0
    4.0564   -1.5673    0.0000 C   0  0  0  0  0  0  0  0  0  0  0  0
    1.2497   -1.5519    0.0000 C   0  0  0  0  0  0  0  0  0  0  0  0
    1.9412   -0.3432    0.0000 C   0  0  0  0  0  0  0  0  0  0  0  0
    4.0718   -0.7427    0.0000 N   0  0  0  0  0  0  0  0  0  0  0  0
    4.7837   -1.9821    0.0000 N   0  0  0  0  0  0  0  0  0  0  0  0
    0.5429   -1.9565    0.0000 O   0  0  0  0  0  0  0  0  0  0  0  0
    1.9412    0.4712    0.0000 O   0  0  0  0  0  0  0  0  0  0  0  0
    1.9412   -2.7402    0.0000 C   0  0  0  0  0  0  0  0  0  0  0  0
    0.5685   -0.3534    0.0000 C   0  0  0  0  0  0  0  0  0  0  0  0
    4.5686    0.1331    0.0000 C   0  0  0  0  0  0  0  0  0  0  0  0
    4.7837   -2.8118    0.0000 C   0  0  0  0  0  0  0  0  0  0  0  0
    5.5007   -1.5570    0.0000 C   0  0  0  0  0  0  0  0  0  0  0  0
    5.5827    0.1331    0.0000 C   0  0  0  0  0  0  0  0  0  0  0  0
  2  1  2  0  0  0  0
  3  1  1  0  0  0  0
  4  1  1  0  0  0  0
  5  7  1  0  0  0  0
  6  3  2  0  0  0  0
  7  4  1  0  0  0  0
  8  2  1  0  0  0  0
  9  2  1  0  0  0  0
 10  6  1  0  0  0  0
 11  7  2  0  0  0  0
 12  8  2  0  0  0  0
 13  4  1  0  0  0  0
 14  5  1  0  0  0  0
 15  9  1  0  0  0  0
 16 10  1  0  0  0  0
 17 10  1  0  0  0  0
 18 15  1  0  0  0  0
  9  6  1  0  0  0  0
  8  5  1  0  0  0  0
M  END
>  <IDNUMBER>
F0887-0018

>  <Chemical_Name>
8-(dimethylamino)-7-ethyl-1,3-dimethyl-2,3,6,7-tetrahydro-1H-purine-2,6-dione

>  <PriceCoeff>
1.50

>  <CAS>
159626-53-6

>  <MW>
251.28

>  <Description>
solid

>  <FSP3>
0.55

>  <clogP>
1.19

>  <TPSA>
61.68

>  <Acceptor>
3

>  <Donor>
2

>  <RotBonds>
2

>  <HAC>
18

>  <Collection>
Advanced

>  <PPDS>
+

$$$$
F0887-0184
  Mrv2219 10102508112D          

 18 19  0  0  0  0            999 V2000
    1.3312   -1.6088    0.0000 C   0  0  0  0  0  0  0  0  0  0  0  0
    1.3312   -0.8172    0.0000 C   0  0  0  0  0  0  0  0  0  0  0  0
    2.0251   -2.0251    0.0000 N   0  0  0  0  0  0  0  0  0  0  0  0
    0.6065   -2.0097    0.0000 N   0  0  0  0  0  0  0  0  0  0  0  0
   -0.0873   -0.8172    0.0000 N   0  0  0  0  0  0  0  0  0  0  0  0
   -0.0873   -1.6242    0.0000 C   0  0  0  0  0  0  0  0  0  0  0  0
    0.6065   -0.4163    0.0000 C   0  0  0  0  0  0  0  0  0  0  0  0
    2.7292   -1.6396    0.0000 C   0  0  0  0  0  0  0  0  0  0  0  0
    2.7446   -0.8172    0.0000 N   0  0  0  0  0  0  0  0  0  0  0  0
   -0.7966   -2.0251    0.0000 O   0  0  0  0  0  0  0  0  0  0  0  0
    0.6065    0.4111    0.0000 O   0  0  0  0  0  0  0  0  0  0  0  0
    5.1706    0.3340    0.0000 N   0  0  0  0  0  0  0  0  0  0  0  0
    3.4231   -2.0405    0.0000 Br  0  0  0  0  0  0  0  0  0  0  0  0
    4.4459   -0.3752    0.0000 C   0  0  0  0  0  0  0  0  0  0  0  0
    0.6065   -2.8217    0.0000 C   0  0  0  0  0  0  0  0  0  0  0  0
   -0.7710   -0.4215    0.0000 C   0  0  0  0  0  0  0  0  0  0  0  0
    3.4693   -0.1079    0.0000 C   0  0  0  0  0  0  0  0  0  0  0  0
    6.1420    0.0565    0.0000 O   0  0  0  0  0  0  0  0  0  0  0  0
  2  1  2  0  0  0  0
  3  1  1  0  0  0  0
  4  1  1  0  0  0  0
  5  6  1  0  0  0  0
  6  4  1  0  0  0  0
  7  2  1  0  0  0  0
  8  3  2  0  0  0  0
  9  2  1  0  0  0  0
 10  6  2  0  0  0  0
 11  7  2  0  0  0  0
 12 14  2  0  0  0  0
 13  8  1  0  0  0  0
 14 17  1  0  0  0  0
 15  4  1  0  0  0  0
 16  5  1  0  0  0  0
 17  9  1  0  0  0  0
 18 12  1  0  0  0  0
  8  9  1  0  0  0  0
  7  5  1  0  0  0  0
M  END
>  <IDNUMBER>
F0887-0184

>  <Chemical_Name>
8-bromo-7-[(2E)-2-(hydroxyimino)ethyl]-1,3-dimethyl-2,3,6,7-tetrahydro-1H-purine-2,6-dione

>  <PriceCoeff>
1.00

>  <CAS>
333755-65-0

>  <MW>
316.11

>  <Description>
solid

>  <FSP3>
0.33

>  <clogP>
0.27

>  <TPSA>
91.03

>  <Acceptor>
5

>  <Donor>
3

>  <RotBonds>
2

>  <HAC>
18

>  <Collection>
General

>  <PPDS>
+

$$$$
F0887-0187
  Mrv2219 10102508112D          

 30 32  0  0  0  0            999 V2000
   -0.6372   -1.5182    0.0000 C   0  0  0  0  0  0  0  0  0  0  0  0
   -0.6372   -0.7313    0.0000 C   0  0  0  0  0  0  0  0  0  0  0  0
    0.0428   -1.9288    0.0000 N   0  0  0  0  0  0  0  0  0  0  0  0
    0.7356   -1.5439    0.0000 C   0  0  0  0  0  0  0  0  0  0  0  0
    0.7484   -0.7313    0.0000 N   0  0  0  0  0  0  0  0  0  0  0  0
   -1.3471   -1.9159    0.0000 N   0  0  0  0  0  0  0  0  0  0  0  0
   -2.0356   -1.5310    0.0000 C   0  0  0  0  0  0  0  0  0  0  0  0
   -2.0356   -0.7313    0.0000 N   0  0  0  0  0  0  0  0  0  0  0  0
   -1.3471   -0.3336    0.0000 C   0  0  0  0  0  0  0  0  0  0  0  0
    1.4156   -1.9416    0.0000 N   0  0  0  0  0  0  0  0  0  0  0  0
   -2.7413   -1.9288    0.0000 O   0  0  0  0  0  0  0  0  0  0  0  0
   -1.3471    0.4704    0.0000 O   0  0  0  0  0  0  0  0  0  0  0  0
    2.7884   -2.7327    0.0000 N   0  0  0  0  0  0  0  0  0  0  0  0
    1.4669   -0.0300    0.0000 C   0  0  0  0  0  0  0  0  0  0  0  0
   -1.3471   -2.7071    0.0000 C   0  0  0  0  0  0  0  0  0  0  0  0
    1.4156   -2.7327    0.0000 C   0  0  0  0  0  0  0  0  0  0  0  0
    2.1084   -1.5310    0.0000 C   0  0  0  0  0  0  0  0  0  0  0  0
    2.9295    0.5730    0.0000 O   0  0  0  0  0  0  0  0  0  0  0  0
    2.0956   -3.1219    0.0000 C   0  0  0  0  0  0  0  0  0  0  0  0
    2.7884   -1.9416    0.0000 C   0  0  0  0  0  0  0  0  0  0  0  0
    2.4376   -0.2994    0.0000 C   0  0  0  0  0  0  0  0  0  0  0  0
    6.5773   -0.6886    0.0000 C   0  0  0  0  0  0  0  0  0  0  0  0
    5.8504   -1.1248    0.0000 C   0  0  0  0  0  0  0  0  0  0  0  0
    6.5560    0.1582    0.0000 O   0  0  0  0  0  0  0  0  0  0  0  0
    5.1191   -2.3950    0.0000 N   0  0  0  0  0  0  0  0  0  0  0  0
    7.3129   -1.0863    0.0000 O   0  0  0  0  0  0  0  0  0  0  0  0
    5.8504   -1.9716    0.0000 C   0  0  0  0  0  0  0  0  0  0  0  0
    5.1191   -0.7014    0.0000 C   0  0  0  0  0  0  0  0  0  0  0  0
    4.3878   -1.9716    0.0000 C   0  0  0  0  0  0  0  0  0  0  0  0
    4.3878   -1.1248    0.0000 C   0  0  0  0  0  0  0  0  0  0  0  0
 11  7  2  0  0  0  0
 12  9  2  0  0  0  0
 13 20  1  0  0  0  0
 14  5  1  0  0  0  0
 15  6  1  0  0  0  0
 16 10  1  0  0  0  0
 17 10  1  0  0  0  0
 18 21  1  0  0  0  0
 19 16  1  0  0  0  0
 20 17  1  0  0  0  0
 21 14  1  0  0  0  0
  9  8  1  0  0  0  0
  4  5  1  0  0  0  0
 13 19  1  0  0  0  0
  2  1  2  0  0  0  0
  3  1  1  0  0  0  0
  4  3  2  0  0  0  0
  5  2  1  0  0  0  0
  6  1  1  0  0  0  0
  7  6  1  0  0  0  0
  8  7  1  0  0  0  0
  9  2  1  0  0  0  0
 10  4  1  0  0  0  0
 23 22  1  0  0  0  0
 24 22  2  0  0  0  0
 25 27  2  0  0  0  0
 26 22  1  0  0  0  0
 27 23  1  0  0  0  0
 28 23  2  0  0  0  0
 29 30  2  0  0  0  0
 30 28  1  0  0  0  0
 25 29  1  0  0  0  0
M  END
>  <IDNUMBER>
F0887-0187

>  <Chemical_Name>
7-(2-hydroxyethyl)-3-methyl-8-(piperazin-1-yl)-2,3,6,7-tetrahydro-1H-purine-2,6-dione; pyridine-3-carboxylic acid

>  <PriceCoeff>
1.50

>  <CAS>
459783-97-2

>  <MW>
294.31

>  <Description>
solid

>  <FSP3>
0.58

>  <clogP>
-1.52

>  <TPSA>
102.73

>  <Acceptor>
5

>  <Donor>
5

>  <RotBonds>
3

>  <HAC>
21

>  <Collection>
Advanced

>  <PPDS>
+

$$$$
F0896-0503
  Mrv2219 10102508112D          

 13 13  0  0  0  0            999 V2000
    4.2350   -0.7119    0.0000 C   0  0  0  0  0  0  0  0  0  0  0  0
    2.8164   -0.5638    0.0000 N   0  0  0  0  0  0  0  0  0  0  0  0
    4.2350   -1.5355    0.0000 S   0  0  0  0  0  0  0  0  0  0  0  0
    3.5179   -0.2962    0.0000 N   0  0  0  0  0  0  0  0  0  0  0  0
    4.9443   -0.2988    0.0000 N   0  0  0  0  0  0  0  0  0  0  0  0
    2.0993   -0.1585    0.0000 C   0  0  0  0  0  0  0  0  0  0  0  0
    1.3900   -0.5716    0.0000 C   0  0  0  0  0  0  0  0  0  0  0  0
   -0.0364   -1.4030    0.0000 C   0  0  0  0  0  0  0  0  0  0  0  0
    1.3900   -1.4030    0.0000 C   0  0  0  0  0  0  0  0  0  0  0  0
    0.6729   -0.1637    0.0000 C   0  0  0  0  0  0  0  0  0  0  0  0
    0.6729   -1.8109    0.0000 C   0  0  0  0  0  0  0  0  0  0  0  0
   -0.0364   -0.5768    0.0000 C   0  0  0  0  0  0  0  0  0  0  0  0
   -0.7534   -1.8109    0.0000 O   0  0  0  0  0  0  0  0  0  0  0  0
  2  4  1  0  0  0  0
  3  1  2  0  0  0  0
  4  1  1  0  0  0  0
  5  1  1  0  0  0  0
  6  2  2  0  0  0  0
  7  6  1  0  0  0  0
  8 12  2  0  0  0  0
  9  7  1  0  0  0  0
 10  7  2  0  0  0  0
 11  9  2  0  0  0  0
 12 10  1  0  0  0  0
 13  8  1  0  0  0  0
 11  8  1  0  0  0  0
M  END
>  <IDNUMBER>
F0896-0503

>  <Chemical_Name>
[(E)-[(4-hydroxyphenyl)methylidene]amino]thiourea

>  <PriceCoeff>
1.00

>  <CAS>
947527-72-2

>  <MW>
195.24

>  <Description>
solid

>  <FSP3>
0.00

>  <clogP>
1.20

>  <TPSA>
102.73

>  <Acceptor>
3

>  <Donor>
4

>  <RotBonds>
2

>  <HAC>
13

>  <Collection>
General

>  <PPDS>
+

$$$$
F0900-0449
  Mrv2219 10102508112D          

 20 23  0  0  0  0            999 V2000
   -0.1283   -0.4107    0.0000 C   0  0  0  0  0  0  0  0  0  0  0  0
    1.9177    0.2933    0.0000 C   0  0  0  0  0  0  0  0  0  0  0  0
   -0.5830   -1.0707    0.0000 N   0  0  0  0  0  0  0  0  0  0  0  0
    2.3760    0.9533    0.0000 N   0  0  0  0  0  0  0  0  0  0  0  0
   -0.5830    0.2493    0.0000 S   0  0  0  0  0  0  0  0  0  0  0  0
    2.3760   -0.3667    0.0000 S   0  0  0  0  0  0  0  0  0  0  0  0
    3.1827    0.7040    0.0000 C   0  0  0  0  0  0  0  0  0  0  0  0
   -1.3823   -0.8250    0.0000 C   0  0  0  0  0  0  0  0  0  0  0  0
    3.1827   -0.1210    0.0000 C   0  0  0  0  0  0  0  0  0  0  0  0
   -1.3823    0.0000    0.0000 C   0  0  0  0  0  0  0  0  0  0  0  0
    0.6930   -0.4107    0.0000 S   0  0  0  0  0  0  0  0  0  0  0  0
    1.1000    0.2933    0.0000 S   0  0  0  0  0  0  0  0  0  0  0  0
   -2.0973   -1.2357    0.0000 C   0  0  0  0  0  0  0  0  0  0  0  0
    3.8977    1.1183    0.0000 C   0  0  0  0  0  0  0  0  0  0  0  0
    3.8977   -0.5317    0.0000 C   0  0  0  0  0  0  0  0  0  0  0  0
   -2.0973    0.4143    0.0000 C   0  0  0  0  0  0  0  0  0  0  0  0
   -2.8123   -0.8250    0.0000 C   0  0  0  0  0  0  0  0  0  0  0  0
    4.6200   -0.1210    0.0000 C   0  0  0  0  0  0  0  0  0  0  0  0
    4.6200    0.7040    0.0000 C   0  0  0  0  0  0  0  0  0  0  0  0
   -2.8123    0.0000    0.0000 C   0  0  0  0  0  0  0  0  0  0  0  0
  2 12  1  0  0  0  0
  3  1  2  0  0  0  0
  4  2  2  0  0  0  0
  5  1  1  0  0  0  0
  6  2  1  0  0  0  0
  7  4  1  0  0  0  0
  8  3  1  0  0  0  0
  9  6  1  0  0  0  0
 10  5  1  0  0  0  0
 11  1  1  0  0  0  0
 12 11  1  0  0  0  0
 13  8  1  0  0  0  0
 14  7  1  0  0  0  0
 15  9  1  0  0  0  0
 16 10  1  0  0  0  0
 17 13  2  0  0  0  0
 18 15  2  0  0  0  0
 19 14  2  0  0  0  0
 20 16  2  0  0  0  0
  8 10  2  0  0  0  0
 20 17  1  0  0  0  0
  9  7  2  0  0  0  0
 18 19  1  0  0  0  0
M  END
>  <IDNUMBER>
F0900-0449

>  <Chemical_Name>
2-(1,3-benzothiazol-2-yldisulfanyl)-1,3-benzothiazole

>  <PriceCoeff>
1.00

>  <CAS>
120-78-5

>  <MW>
332.50

>  <Description>
solid

>  <FSP3>
0.00

>  <clogP>
5.71

>  <TPSA>
25.78

>  <Acceptor>
2

>  <Donor>
0

>  <RotBonds>
3

>  <HAC>
20

>  <Collection>
General

$$$$
F0901-0811
  Mrv2219 10102508112D          

 18 19  0  0  0  0            999 V2000
    0.1258   -0.2174    0.0000 N   0  0  0  0  0  0  0  0  0  0  0  0
   -0.7284   -0.2174    0.0000 C   0  0  0  0  0  0  0  0  0  0  0  0
   -1.0030   -1.0069    0.0000 N   0  0  0  0  0  0  0  0  0  0  0  0
    0.3547   -1.0069    0.0000 C   0  0  0  0  0  0  0  0  0  0  0  0
   -0.2936   -1.4645    0.0000 O   0  0  0  0  0  0  0  0  0  0  0  0
   -1.2090    0.4423    0.0000 C   0  0  0  0  0  0  0  0  0  0  0  0
    2.0404   -2.3799    0.0000 C   0  0  0  0  0  0  0  0  0  0  0  0
    2.6888   -1.8345    0.0000 O   0  0  0  0  0  0  0  0  0  0  0  0
   -0.8886    1.2090    0.0000 C   0  0  0  0  0  0  0  0  0  0  0  0
   -2.0251    0.3508    0.0000 C   0  0  0  0  0  0  0  0  0  0  0  0
    1.1327   -1.2815    0.0000 C   0  0  0  0  0  0  0  0  0  0  0  0
    1.2700   -2.0937    0.0000 C   0  0  0  0  0  0  0  0  0  0  0  0
   -2.2158    1.7810    0.0000 C   0  0  0  0  0  0  0  0  0  0  0  0
    2.1090   -3.1846    0.0000 O   0  0  0  0  0  0  0  0  0  0  0  0
   -2.5286    1.0069    0.0000 C   0  0  0  0  0  0  0  0  0  0  0  0
   -1.3844    1.8725    0.0000 C   0  0  0  0  0  0  0  0  0  0  0  0
   -2.7116    2.4256    0.0000 O   0  0  0  0  0  0  0  0  0  0  0  0
   -2.3989    3.1883    0.0000 C   0  0  0  0  0  0  0  0  0  0  0  0
  2  1  1  0  0  0  0
  3  2  2  0  0  0  0
  4  1  2  0  0  0  0
  5  4  1  0  0  0  0
  6  2  1  0  0  0  0
  7 12  1  0  0  0  0
  8  7  2  0  0  0  0
  9  6  2  0  0  0  0
 10  6  1  0  0  0  0
 11  4  1  0  0  0  0
 12 11  1  0  0  0  0
 13 15  1  0  0  0  0
 14  7  1  0  0  0  0
 15 10  2  0  0  0  0
 16  9  1  0  0  0  0
 17 13  1  0  0  0  0
 18 17  1  0  0  0  0
  3  5  1  0  0  0  0
 13 16  2  0  0  0  0
M  END
>  <IDNUMBER>
F0901-0811

>  <Chemical_Name>
3-[3-(4-methoxyphenyl)-1,2,4-oxadiazol-5-yl]propanoic acid

>  <PriceCoeff>
1.50

>  <CAS>
94192-18-4

>  <MW>
248.24

>  <Description>
solid

>  <FSP3>
0.25

>  <clogP>
1.96

>  <TPSA>
85.45

>  <Acceptor>
6

>  <Donor>
0

>  <RotBonds>
5

>  <HAC>
18

>  <Collection>
Advanced

>  <PPDS>
+

$$$$
F0902-0374
  Mrv2219 10102508112D          

 27 30  0  0  0  0            999 V2000
   -1.9659    1.9201    0.0000 N   0  0  0  0  0  0  0  0  0  0  0  0
   -2.2866    2.6759    0.0000 C   0  0  0  0  0  0  0  0  0  0  0  0
   -1.1299    2.0232    0.0000 C   0  0  0  0  0  0  0  0  0  0  0  0
   -0.9620    2.8248    0.0000 C   0  0  0  0  0  0  0  0  0  0  0  0
   -1.6796    3.2256    0.0000 C   0  0  0  0  0  0  0  0  0  0  0  0
   -2.3477    1.2025    0.0000 C   0  0  0  0  0  0  0  0  0  0  0  0
    2.5195    1.2673    0.0000 N   0  0  0  0  0  0  0  0  0  0  0  0
   -0.1947    3.1722    0.0000 N   0  0  0  0  0  0  0  0  0  0  0  0
   -3.1150    2.8477    0.0000 O   0  0  0  0  0  0  0  0  0  0  0  0
    1.8362    1.7369    0.0000 C   0  0  0  0  0  0  0  0  0  0  0  0
   -0.5459    1.3933    0.0000 O   0  0  0  0  0  0  0  0  0  0  0  0
   -3.1722    1.1567    0.0000 C   0  0  0  0  0  0  0  0  0  0  0  0
    3.8937    0.3168    0.0000 O   0  0  0  0  0  0  0  0  0  0  0  0
    1.0994    1.3933    0.0000 C   0  0  0  0  0  0  0  0  0  0  0  0
    1.9049    2.5653    0.0000 C   0  0  0  0  0  0  0  0  0  0  0  0
    0.4619    2.6988    0.0000 C   0  0  0  0  0  0  0  0  0  0  0  0
   -3.6265    1.8743    0.0000 Cl  0  0  0  0  0  0  0  0  0  0  0  0
    1.2368    3.0424    0.0000 C   0  0  0  0  0  0  0  0  0  0  0  0
    0.3932    1.8628    0.0000 C   0  0  0  0  0  0  0  0  0  0  0  0
    3.2791    1.6147    0.0000 C   0  0  0  0  0  0  0  0  0  0  0  0
    2.4431    0.4428    0.0000 C   0  0  0  0  0  0  0  0  0  0  0  0
   -1.8972    0.4886    0.0000 C   0  0  0  0  0  0  0  0  0  0  0  0
    3.9548    1.1414    0.0000 C   0  0  0  0  0  0  0  0  0  0  0  0
    3.1417   -0.0268    0.0000 C   0  0  0  0  0  0  0  0  0  0  0  0
   -3.5577    0.4428    0.0000 C   0  0  0  0  0  0  0  0  0  0  0  0
   -2.3019   -0.2290    0.0000 C   0  0  0  0  0  0  0  0  0  0  0  0
   -3.1264   -0.2558    0.0000 C   0  0  0  0  0  0  0  0  0  0  0  0
  2  1  1  0  0  0  0
  3  1  1  0  0  0  0
  4  3  1  0  0  0  0
  5  2  1  0  0  0  0
  6  1  1  0  0  0  0
  7 10  1  0  0  0  0
  8  4  1  0  0  0  0
  9  2  2  0  0  0  0
 10 14  1  0  0  0  0
 11  3  2  0  0  0  0
 12  6  1  0  0  0  0
 13 24  1  0  0  0  0
 14 19  2  0  0  0  0
 15 18  1  0  0  0  0
 16  8  1  0  0  0  0
 17 12  1  0  0  0  0
 18 16  2  0  0  0  0
 19 16  1  0  0  0  0
 20  7  1  0  0  0  0
 21  7  1  0  0  0  0
 22  6  2  0  0  0  0
 23 20  1  0  0  0  0
 24 21  1  0  0  0  0
 25 12  2  0  0  0  0
 26 22  1  0  0  0  0
 27 26  2  0  0  0  0
  5  4  1  0  0  0  0
 25 27  1  0  0  0  0
 10 15  2  0  0  0  0
 23 13  1  0  0  0  0
M  END
>  <IDNUMBER>
F0902-0374

>  <Chemical_Name>
1-(2-chlorophenyl)-3-{[4-(morpholin-4-yl)phenyl]amino}pyrrolidine-2,5-dione

>  <PriceCoeff>
1.00

>  <CAS>
301648-92-0

>  <MW>
385.84

>  <Description>
solid

>  <FSP3>
0.30

>  <clogP>
2.54

>  <TPSA>
61.88

>  <Acceptor>
5

>  <Donor>
2

>  <RotBonds>
4

>  <HAC>
27

>  <Collection>
General

>  <PPDS>
+

$$$$
F0902-0375
  Mrv2219 10102508112D          

 26 28  0  0  0  0            999 V2000
   -1.5080    0.0654    0.0000 N   0  0  0  0  0  0  0  0  0  0  0  0
   -1.1541    0.8271    0.0000 C   0  0  0  0  0  0  0  0  0  0  0  0
   -0.9079   -0.4886    0.0000 C   0  0  0  0  0  0  0  0  0  0  0  0
   -0.1847   -0.0616    0.0000 C   0  0  0  0  0  0  0  0  0  0  0  0
   -0.3424    0.7117    0.0000 C   0  0  0  0  0  0  0  0  0  0  0  0
   -2.3198   -0.0462    0.0000 C   0  0  0  0  0  0  0  0  0  0  0  0
    0.5579   -0.3963    0.0000 N   0  0  0  0  0  0  0  0  0  0  0  0
   -1.5426    1.5811    0.0000 O   0  0  0  0  0  0  0  0  0  0  0  0
   -0.9810   -1.3080    0.0000 O   0  0  0  0  0  0  0  0  0  0  0  0
   -2.8468    0.5963    0.0000 C   0  0  0  0  0  0  0  0  0  0  0  0
    1.2465    0.0769    0.0000 C   0  0  0  0  0  0  0  0  0  0  0  0
    2.6007    1.0348    0.0000 C   0  0  0  0  0  0  0  0  0  0  0  0
    1.1695    0.8887    0.0000 C   0  0  0  0  0  0  0  0  0  0  0  0
    1.9890   -0.2770    0.0000 C   0  0  0  0  0  0  0  0  0  0  0  0
    1.8466    1.3695    0.0000 C   0  0  0  0  0  0  0  0  0  0  0  0
    2.6814    0.2154    0.0000 C   0  0  0  0  0  0  0  0  0  0  0  0
   -2.5352    1.3849    0.0000 O   0  0  0  0  0  0  0  0  0  0  0  0
   -2.6314   -0.7887    0.0000 C   0  0  0  0  0  0  0  0  0  0  0  0
    3.2470    1.5196    0.0000 O   0  0  0  0  0  0  0  0  0  0  0  0
   -3.6778    0.4809    0.0000 C   0  0  0  0  0  0  0  0  0  0  0  0
   -3.0584    1.9966    0.0000 C   0  0  0  0  0  0  0  0  0  0  0  0
    4.0202    1.1964    0.0000 C   0  0  0  0  0  0  0  0  0  0  0  0
   -2.7545    2.7660    0.0000 C   0  0  0  0  0  0  0  0  0  0  0  0
   -3.4585   -0.9233    0.0000 C   0  0  0  0  0  0  0  0  0  0  0  0
   -3.2315    3.4239    0.0000 C   0  0  0  0  0  0  0  0  0  0  0  0
   -3.9817   -0.2809    0.0000 C   0  0  0  0  0  0  0  0  0  0  0  0
  2  1  1  0  0  0  0
  3  1  1  0  0  0  0
  4  3  1  0  0  0  0
  5  2  1  0  0  0  0
  6  1  1  0  0  0  0
  7  4  1  0  0  0  0
  8  2  2  0  0  0  0
  9  3  2  0  0  0  0
 10  6  1  0  0  0  0
 11  7  1  0  0  0  0
 12 16  1  0  0  0  0
 13 11  2  0  0  0  0
 14 11  1  0  0  0  0
 15 13  1  0  0  0  0
 16 14  2  0  0  0  0
 17 10  1  0  0  0  0
 18  6  2  0  0  0  0
 19 12  1  0  0  0  0
 20 10  2  0  0  0  0
 21 17  1  0  0  0  0
 22 19  1  0  0  0  0
 23 21  1  0  0  0  0
 24 18  1  0  0  0  0
 25 23  1  0  0  0  0
 26 24  2  0  0  0  0
  4  5  1  0  0  0  0
 26 20  1  0  0  0  0
 15 12  2  0  0  0  0
M  END
>  <IDNUMBER>
F0902-0375

>  <Chemical_Name>
3-[(4-methoxyphenyl)amino]-1-(2-propoxyphenyl)pyrrolidine-2,5-dione

>  <PriceCoeff>
1.00

>  <CAS>
352666-08-1

>  <MW>
354.40

>  <Description>
solid

>  <FSP3>
0.30

>  <clogP>
3.74

>  <TPSA>
67.87

>  <Acceptor>
5

>  <Donor>
1

>  <RotBonds>
7

>  <HAC>
26

>  <Collection>
General

>  <PPDS>
+

$$$$
F0902-0900
  Mrv2219 10102508112D          

 28 30  0  0  0  0            999 V2000
   -0.8688   -0.3794    0.0000 N   0  0  0  0  0  0  0  0  0  0  0  0
   -0.4038    0.3181    0.0000 C   0  0  0  0  0  0  0  0  0  0  0  0
   -0.3640   -1.0035    0.0000 C   0  0  0  0  0  0  0  0  0  0  0  0
    0.4069   -0.7190    0.0000 C   0  0  0  0  0  0  0  0  0  0  0  0
    0.3886    0.0887    0.0000 C   0  0  0  0  0  0  0  0  0  0  0  0
   -1.6888   -0.3794    0.0000 C   0  0  0  0  0  0  0  0  0  0  0  0
    2.5362   -1.2115    0.0000 C   0  0  0  0  0  0  0  0  0  0  0  0
    1.1014   -1.1748    0.0000 S   0  0  0  0  0  0  0  0  0  0  0  0
   -2.1018    1.7774    0.0000 C   0  0  0  0  0  0  0  0  0  0  0  0
    1.8387   -0.7710    0.0000 C   0  0  0  0  0  0  0  0  0  0  0  0
    2.4995   -2.0559    0.0000 C   0  0  0  0  0  0  0  0  0  0  0  0
   -2.1018    0.3304    0.0000 C   0  0  0  0  0  0  0  0  0  0  0  0
   -1.6888    1.0799    0.0000 S   0  0  0  0  0  0  0  0  0  0  0  0
   -0.6761    1.1166    0.0000 O   0  0  0  0  0  0  0  0  0  0  0  0
   -0.5751   -1.8356    0.0000 O   0  0  0  0  0  0  0  0  0  0  0  0
    3.2307   -2.4720    0.0000 O   0  0  0  0  0  0  0  0  0  0  0  0
   -2.8237    1.3583    0.0000 F   0  0  0  0  0  0  0  0  0  0  0  0
   -1.3828    2.2180    0.0000 F   0  0  0  0  0  0  0  0  0  0  0  0
   -2.5209    2.4842    0.0000 F   0  0  0  0  0  0  0  0  0  0  0  0
    1.7744   -2.4444    0.0000 O   0  0  0  0  0  0  0  0  0  0  0  0
    3.2705   -0.8444    0.0000 C   0  0  0  0  0  0  0  0  0  0  0  0
   -2.1170   -1.1014    0.0000 C   0  0  0  0  0  0  0  0  0  0  0  0
    1.8754    0.0459    0.0000 C   0  0  0  0  0  0  0  0  0  0  0  0
   -2.9339    0.3304    0.0000 C   0  0  0  0  0  0  0  0  0  0  0  0
    3.3072   -0.0123    0.0000 C   0  0  0  0  0  0  0  0  0  0  0  0
   -2.9339   -1.1014    0.0000 C   0  0  0  0  0  0  0  0  0  0  0  0
    2.6066    0.4375    0.0000 C   0  0  0  0  0  0  0  0  0  0  0  0
   -3.3408   -0.3794    0.0000 C   0  0  0  0  0  0  0  0  0  0  0  0
  2  1  1  0  0  0  0
  3  1  1  0  0  0  0
  4  3  1  0  0  0  0
  5  2  1  0  0  0  0
  6  1  1  0  0  0  0
  7 10  2  0  0  0  0
  8  4  1  0  0  0  0
  9 13  1  0  0  0  0
 10  8  1  0  0  0  0
 11  7  1  0  0  0  0
 12  6  2  0  0  0  0
 13 12  1  0  0  0  0
 14  2  2  0  0  0  0
 15  3  2  0  0  0  0
 16 11  2  0  0  0  0
 17  9  1  0  0  0  0
 18  9  1  0  0  0  0
 19  9  1  0  0  0  0
 20 11  1  0  0  0  0
 21  7  1  0  0  0  0
 22  6  1  0  0  0  0
 23 10  1  0  0  0  0
 24 12  1  0  0  0  0
 25 27  1  0  0  0  0
 26 22  2  0  0  0  0
 27 23  2  0  0  0  0
 28 26  1  0  0  0  0
  4  5  1  0  0  0  0
 24 28  2  0  0  0  0
 21 25  2  0  0  0  0
M  END
>  <IDNUMBER>
F0902-0900

>  <Chemical_Name>
2-[(2,5-dioxo-1-{2-[(trifluoromethyl)sulfanyl]phenyl}pyrrolidin-3-yl)sulfanyl]benzoic acid

>  <PriceCoeff>
1.00

>  <CAS>
302552-57-4

>  <MW>
427.42

>  <Description>
solid

>  <FSP3>
0.17

>  <clogP>
3.74

>  <TPSA>
125.28

>  <Acceptor>
4

>  <Donor>
0

>  <RotBonds>
5

>  <HAC>
28

>  <Collection>
General

>  <PPDS>
+

$$$$
F0902-0905
  Mrv2219 10102508112D          

 30 33  0  0  0  0            999 V2000
   -1.0477    0.3813    0.0000 N   0  0  0  0  0  0  0  0  0  0  0  0
   -0.3813    0.8636    0.0000 C   0  0  0  0  0  0  0  0  0  0  0  0
   -0.7891   -0.3726    0.0000 C   0  0  0  0  0  0  0  0  0  0  0  0
    0.0526   -0.3726    0.0000 C   0  0  0  0  0  0  0  0  0  0  0  0
    0.2937    0.3813    0.0000 C   0  0  0  0  0  0  0  0  0  0  0  0
    3.7393   -1.1047    0.0000 N   0  0  0  0  0  0  0  0  0  0  0  0
    0.4252   -1.1047    0.0000 N   0  0  0  0  0  0  0  0  0  0  0  0
   -1.8017    0.6444    0.0000 C   0  0  0  0  0  0  0  0  0  0  0  0
   -0.3813    1.6834    0.0000 O   0  0  0  0  0  0  0  0  0  0  0  0
    2.9239   -1.1047    0.0000 C   0  0  0  0  0  0  0  0  0  0  0  0
   -1.2843   -1.0565    0.0000 O   0  0  0  0  0  0  0  0  0  0  0  0
   -4.7563    0.8767    0.0000 C   0  0  0  0  0  0  0  0  0  0  0  0
   -4.1644    1.4203    0.0000 O   0  0  0  0  0  0  0  0  0  0  0  0
   -4.5896    0.0745    0.0000 O   0  0  0  0  0  0  0  0  0  0  0  0
    5.4182   -1.1222    0.0000 O   0  0  0  0  0  0  0  0  0  0  0  0
   -1.9595    1.4684    0.0000 C   0  0  0  0  0  0  0  0  0  0  0  0
   -2.4197    0.1183    0.0000 C   0  0  0  0  0  0  0  0  0  0  0  0
    2.5031   -1.8061    0.0000 C   0  0  0  0  0  0  0  0  0  0  0  0
    2.5031   -0.3726    0.0000 C   0  0  0  0  0  0  0  0  0  0  0  0
    1.2625   -1.1047    0.0000 C   0  0  0  0  0  0  0  0  0  0  0  0
   -3.3798    1.1792    0.0000 C   0  0  0  0  0  0  0  0  0  0  0  0
    1.6834   -1.8061    0.0000 C   0  0  0  0  0  0  0  0  0  0  0  0
    1.6834   -0.3726    0.0000 C   0  0  0  0  0  0  0  0  0  0  0  0
   -2.7486    1.7360    0.0000 C   0  0  0  0  0  0  0  0  0  0  0  0
   -3.2088    0.3813    0.0000 C   0  0  0  0  0  0  0  0  0  0  0  0
    4.1601   -0.3726    0.0000 C   0  0  0  0  0  0  0  0  0  0  0  0
    4.1557   -1.8061    0.0000 C   0  0  0  0  0  0  0  0  0  0  0  0
   -5.5452    1.1178    0.0000 C   0  0  0  0  0  0  0  0  0  0  0  0
    4.9974   -0.3858    0.0000 C   0  0  0  0  0  0  0  0  0  0  0  0
    4.9755   -1.8193    0.0000 C   0  0  0  0  0  0  0  0  0  0  0  0
  2  1  1  0  0  0  0
  3  1  1  0  0  0  0
  4  3  1  0  0  0  0
  5  2  1  0  0  0  0
  6 10  1  0  0  0  0
  7  4  1  0  0  0  0
  8  1  1  0  0  0  0
  9  2  2  0  0  0  0
 10 19  2  0  0  0  0
 11  3  2  0  0  0  0
 12 13  1  0  0  0  0
 13 21  1  0  0  0  0
 14 12  2  0  0  0  0
 15 30  1  0  0  0  0
 16  8  2  0  0  0  0
 17  8  1  0  0  0  0
 18 22  2  0  0  0  0
 19 23  1  0  0  0  0
 20  7  1  0  0  0  0
 21 25  1  0  0  0  0
 22 20  1  0  0  0  0
 23 20  2  0  0  0  0
 24 16  1  0  0  0  0
 25 17  2  0  0  0  0
 26  6  1  0  0  0  0
 27  6  1  0  0  0  0
 28 12  1  0  0  0  0
 29 26  1  0  0  0  0
 30 27  1  0  0  0  0
  4  5  1  0  0  0  0
 24 21  2  0  0  0  0
 18 10  1  0  0  0  0
 29 15  1  0  0  0  0
M  END
>  <IDNUMBER>
F0902-0905

>  <Chemical_Name>
4-(3-{[4-(morpholin-4-yl)phenyl]amino}-2,5-dioxopyrrolidin-1-yl)phenyl acetate

>  <PriceCoeff>
1.00

>  <CAS>
355115-33-2

>  <MW>
409.44

>  <Description>
solid

>  <FSP3>
0.32

>  <clogP>
1.46

>  <TPSA>
88.18

>  <Acceptor>
7

>  <Donor>
2

>  <RotBonds>
6

>  <HAC>
30

>  <Collection>
General

>  <PPDS>
+

$$$$
F0902-3042
  Mrv2219 10102508112D          

 21 23  0  0  0  0            999 V2000
   -2.1438   -0.7467    0.0000 N   0  0  0  0  0  0  0  0  0  0  0  0
   -1.7269   -1.4613    0.0000 C   0  0  0  0  0  0  0  0  0  0  0  0
   -1.7178   -0.0321    0.0000 C   0  0  0  0  0  0  0  0  0  0  0  0
   -0.4901   -0.7467    0.0000 C   0  0  0  0  0  0  0  0  0  0  0  0
   -0.9024   -0.0321    0.0000 C   0  0  0  0  0  0  0  0  0  0  0  0
    0.3298   -0.7467    0.0000 N   0  0  0  0  0  0  0  0  0  0  0  0
    2.0110   -0.7467    0.0000 N   0  0  0  0  0  0  0  0  0  0  0  0
   -2.1438   -2.1988    0.0000 O   0  0  0  0  0  0  0  0  0  0  0  0
   -2.1026    0.7100    0.0000 O   0  0  0  0  0  0  0  0  0  0  0  0
    0.7558   -0.0046    0.0000 C   0  0  0  0  0  0  0  0  0  0  0  0
    0.7558   -1.4613    0.0000 C   0  0  0  0  0  0  0  0  0  0  0  0
    2.8584   -0.7467    0.0000 C   0  0  0  0  0  0  0  0  0  0  0  0
    1.5804   -0.0046    0.0000 C   0  0  0  0  0  0  0  0  0  0  0  0
    1.5804   -1.4613    0.0000 C   0  0  0  0  0  0  0  0  0  0  0  0
   -2.9271   -0.7467    0.0000 C   0  0  0  0  0  0  0  0  0  0  0  0
    3.2432   -0.0184    0.0000 C   0  0  0  0  0  0  0  0  0  0  0  0
    2.8034    0.7146    0.0000 C   0  0  0  0  0  0  0  0  0  0  0  0
    4.0677   -0.0184    0.0000 C   0  0  0  0  0  0  0  0  0  0  0  0
    3.2432    1.4429    0.0000 C   0  0  0  0  0  0  0  0  0  0  0  0
    4.4709    0.7146    0.0000 C   0  0  0  0  0  0  0  0  0  0  0  0
    4.0677    1.4429    0.0000 C   0  0  0  0  0  0  0  0  0  0  0  0
  2  1  1  0  0  0  0
  3  1  1  0  0  0  0
  4  2  1  0  0  0  0
  5  3  1  0  0  0  0
  6  4  1  0  0  0  0
  7 14  1  0  0  0  0
  8  2  2  0  0  0  0
  9  3  2  0  0  0  0
 10  6  1  0  0  0  0
 11  6  1  0  0  0  0
 12  7  1  0  0  0  0
 13 10  1  0  0  0  0
 14 11  1  0  0  0  0
 15  1  1  0  0  0  0
 16 12  1  0  0  0  0
 17 16  2  0  0  0  0
 18 16  1  0  0  0  0
 19 17  1  0  0  0  0
 20 18  2  0  0  0  0
 21 20  1  0  0  0  0
  4  5  1  0  0  0  0
  7 13  1  0  0  0  0
 19 21  2  0  0  0  0
M  END
>  <IDNUMBER>
F0902-3042

>  <Chemical_Name>
3-(4-benzylpiperazin-1-yl)-1-methylpyrrolidine-2,5-dione

>  <PriceCoeff>
1.50

>  <CAS>
313378-64-2

>  <MW>
287.36

>  <Description>
solid

>  <FSP3>
0.50

>  <clogP>
2.64

>  <TPSA>
43.86

>  <Acceptor>
4

>  <Donor>
2

>  <RotBonds>
3

>  <HAC>
21

>  <Collection>
Advanced

>  <PPDS>
+

$$$$
F0907-0036
  Mrv2219 10102508112D          

 24 26  0  0  0  0            999 V2000
    0.5338    1.2206    0.0000 C   0  0  0  0  0  0  0  0  0  0  0  0
   -0.9099    1.2206    0.0000 C   0  0  0  0  0  0  0  0  0  0  0  0
   -0.1880    1.6306    0.0000 C   0  0  0  0  0  0  0  0  0  0  0  0
   -0.9099    0.3995    0.0000 C   0  0  0  0  0  0  0  0  0  0  0  0
    0.5338    0.3995    0.0000 C   0  0  0  0  0  0  0  0  0  0  0  0
   -0.1880   -0.0117    0.0000 N   0  0  0  0  0  0  0  0  0  0  0  0
   -1.6352   -0.0117    0.0000 C   0  0  0  0  0  0  0  0  0  0  0  0
   -2.3547    0.3995    0.0000 C   0  0  0  0  0  0  0  0  0  0  0  0
   -1.6352    1.6306    0.0000 C   0  0  0  0  0  0  0  0  0  0  0  0
    1.2451    1.6189    0.0000 C   0  0  0  0  0  0  0  0  0  0  0  0
   -2.3547    1.2206    0.0000 C   0  0  0  0  0  0  0  0  0  0  0  0
   -3.0637    0.0000    0.0000 N   0  0  0  0  0  0  0  0  0  0  0  0
   -0.1880    2.4540    0.0000 O   0  0  0  0  0  0  0  0  0  0  0  0
    1.9179    1.1821    0.0000 O   0  0  0  0  0  0  0  0  0  0  0  0
   -3.0766    1.6306    0.0000 F   0  0  0  0  0  0  0  0  0  0  0  0
    1.2580    2.4400    0.0000 O   0  0  0  0  0  0  0  0  0  0  0  0
   -0.1880   -0.8211    0.0000 C   0  0  0  0  0  0  0  0  0  0  0  0
   -3.0766   -0.8094    0.0000 C   0  0  0  0  0  0  0  0  0  0  0  0
   -3.7739    0.3995    0.0000 C   0  0  0  0  0  0  0  0  0  0  0  0
    1.9798    2.8395    0.0000 C   0  0  0  0  0  0  0  0  0  0  0  0
    0.4602   -1.3573    0.0000 C   0  0  0  0  0  0  0  0  0  0  0  0
   -4.4852    0.0000    0.0000 C   0  0  0  0  0  0  0  0  0  0  0  0
   -3.7856   -1.2206    0.0000 C   0  0  0  0  0  0  0  0  0  0  0  0
    1.9670    3.6489    0.0000 C   0  0  0  0  0  0  0  0  0  0  0  0
  2  3  1  0  0  0  0
  3  1  1  0  0  0  0
  4  6  1  0  0  0  0
  5  1  2  0  0  0  0
  6  5  1  0  0  0  0
  7  4  1  0  0  0  0
  8  7  2  0  0  0  0
  9  2  1  0  0  0  0
 10  1  1  0  0  0  0
 11  9  2  0  0  0  0
 12  8  1  0  0  0  0
 13  3  2  0  0  0  0
 14 10  2  0  0  0  0
 15 11  1  0  0  0  0
 16 10  1  0  0  0  0
 17  6  1  0  0  0  0
 18 12  1  0  0  0  0
 19 12  1  0  0  0  0
 20 16  1  0  0  0  0
 21 17  1  0  0  0  0
 22 19  1  0  0  0  0
 23 18  1  0  0  0  0
 24 20  1  0  0  0  0
  2  4  2  0  0  0  0
 11  8  1  0  0  0  0
 23 22  1  0  0  0  0
M  END
>  <IDNUMBER>
F0907-0036

>  <Chemical_Name>
ethyl 1-ethyl-6-fluoro-4-oxo-7-(pyrrolidin-1-yl)-1,4-dihydroquinoline-3-carboxylate

>  <PriceCoeff>
1.00

>  <CAS>
340746-30-7

>  <MW>
332.38

>  <Description>
solid

>  <FSP3>
0.44

>  <clogP>
2.07

>  <TPSA>
49.85

>  <Acceptor>
5

>  <Donor>
2

>  <RotBonds>
5

>  <HAC>
24

>  <Collection>
General

$$$$
F0907-6685
  Mrv2219 10102508112D          

 16 17  0  0  0  0            999 V2000
   -2.3089   -0.9185    0.0000 C   0  0  0  0  0  0  0  0  0  0  0  0
   -2.3089   -0.0935    0.0000 C   0  0  0  0  0  0  0  0  0  0  0  0
   -1.5323   -1.1781    0.0000 N   0  0  0  0  0  0  0  0  0  0  0  0
   -3.0162   -1.3431    0.0000 N   0  0  0  0  0  0  0  0  0  0  0  0
   -3.7224   -0.0935    0.0000 N   0  0  0  0  0  0  0  0  0  0  0  0
   -3.7224   -0.9427    0.0000 C   0  0  0  0  0  0  0  0  0  0  0  0
   -3.0162    0.3312    0.0000 C   0  0  0  0  0  0  0  0  0  0  0  0
   -1.0616   -0.4927    0.0000 C   0  0  0  0  0  0  0  0  0  0  0  0
   -1.5323    0.1650    0.0000 N   0  0  0  0  0  0  0  0  0  0  0  0
   -4.4309   -1.3650    0.0000 O   0  0  0  0  0  0  0  0  0  0  0  0
   -3.0162    1.1539    0.0000 O   0  0  0  0  0  0  0  0  0  0  0  0
   -0.2377   -0.4927    0.0000 S   0  0  0  0  0  0  0  0  0  0  0  0
   -3.0162   -2.1681    0.0000 C   0  0  0  0  0  0  0  0  0  0  0  0
   -4.4309    0.3554    0.0000 C   0  0  0  0  0  0  0  0  0  0  0  0
   -1.2519    0.9439    0.0000 C   0  0  0  0  0  0  0  0  0  0  0  0
    0.1881   -1.2012    0.0000 C   0  0  0  0  0  0  0  0  0  0  0  0
  2  1  2  0  0  0  0
  3  1  1  0  0  0  0
  4  1  1  0  0  0  0
  5  6  1  0  0  0  0
  6  4  1  0  0  0  0
  7  2  1  0  0  0  0
  8  3  2  0  0  0  0
  9  2  1  0  0  0  0
 10  6  2  0  0  0  0
 11  7  2  0  0  0  0
 12  8  1  0  0  0  0
 13  4  1  0  0  0  0
 14  5  1  0  0  0  0
 15  9  1  0  0  0  0
 16 12  1  0  0  0  0
  9  8  1  0  0  0  0
  5  7  1  0  0  0  0
M  END
>  <IDNUMBER>
F0907-6685

>  <Chemical_Name>
1,3,7-trimethyl-8-(methylsulfanyl)-2,3,6,7-tetrahydro-1H-purine-2,6-dione

>  <PriceCoeff>
1.50

>  <CAS>
6287-54-3

>  <MW>
240.28

>  <Description>
solid

>  <FSP3>
0.44

>  <clogP>
1.10

>  <TPSA>
83.74

>  <Acceptor>
3

>  <Donor>
1

>  <RotBonds>
1

>  <HAC>
16

>  <Collection>
Advanced

$$$$
F0908-2782
  Mrv2219 10102508112D          

 14 15  0  0  0  0            999 V2000
    0.1267   -0.4525    0.0000 C   0  0  0  0  0  0  0  0  0  0  0  0
    0.9406   -0.7082    0.0000 N   0  0  0  0  0  0  0  0  0  0  0  0
    0.1267    0.3725    0.0000 C   0  0  0  0  0  0  0  0  0  0  0  0
   -0.5809   -0.8711    0.0000 N   0  0  0  0  0  0  0  0  0  0  0  0
   -1.3003   -0.4525    0.0000 C   0  0  0  0  0  0  0  0  0  0  0  0
   -1.3003    0.3725    0.0000 N   0  0  0  0  0  0  0  0  0  0  0  0
    1.4054   -0.0339    0.0000 C   0  0  0  0  0  0  0  0  0  0  0  0
   -0.5809    0.7900    0.0000 C   0  0  0  0  0  0  0  0  0  0  0  0
    0.9406    0.6259    0.0000 N   0  0  0  0  0  0  0  0  0  0  0  0
   -2.0441   -0.8711    0.0000 O   0  0  0  0  0  0  0  0  0  0  0  0
   -0.5809    1.6261    0.0000 O   0  0  0  0  0  0  0  0  0  0  0  0
    2.2420   -0.0339    0.0000 Br  0  0  0  0  0  0  0  0  0  0  0  0
   -0.5809   -1.7066    0.0000 C   0  0  0  0  0  0  0  0  0  0  0  0
    1.2197    1.4170    0.0000 C   0  0  0  0  0  0  0  0  0  0  0  0
  2  1  1  0  0  0  0
  3  1  2  0  0  0  0
  4  1  1  0  0  0  0
  5  4  1  0  0  0  0
  6  5  1  0  0  0  0
  7  2  2  0  0  0  0
  8  3  1  0  0  0  0
  9  3  1  0  0  0  0
 10  5  2  0  0  0  0
 11  8  2  0  0  0  0
 12  7  1  0  0  0  0
 13  4  1  0  0  0  0
 14  9  1  0  0  0  0
  9  7  1  0  0  0  0
  8  6  1  0  0  0  0
M  END
>  <IDNUMBER>
F0908-2782

>  <Chemical_Name>
8-bromo-3,7-dimethyl-2,3,6,7-tetrahydro-1H-purine-2,6-dione

>  <PriceCoeff>
1.00

>  <CAS>
15371-15-0

>  <MW>
259.06

>  <Description>
solid

>  <FSP3>
0.29

>  <clogP>
0.23

>  <TPSA>
67.23

>  <Acceptor>
3

>  <Donor>
2

>  <RotBonds>
0

>  <HAC>
14

>  <Collection>
General

>  <PPDS>
+

$$$$
F0908-3710
  Mrv2219 10102508112D          

 16 17  0  0  0  0            999 V2000
   -1.6942    0.0958    0.0000 C   0  0  0  0  0  0  0  0  0  0  0  0
   -2.4066    0.5138    0.0000 N   0  0  0  0  0  0  0  0  0  0  0  0
   -1.6942   -0.7124    0.0000 N   0  0  0  0  0  0  0  0  0  0  0  0
   -0.9818    0.5138    0.0000 N   0  0  0  0  0  0  0  0  0  0  0  0
   -3.1190    0.0958    0.0000 C   0  0  0  0  0  0  0  0  0  0  0  0
   -2.4066   -1.1285    0.0000 C   0  0  0  0  0  0  0  0  0  0  0  0
   -3.1190   -0.7124    0.0000 C   0  0  0  0  0  0  0  0  0  0  0  0
   -0.2694    0.1217    0.0000 C   0  0  0  0  0  0  0  0  0  0  0  0
    0.4430    0.5138    0.0000 C   0  0  0  0  0  0  0  0  0  0  0  0
    1.1554    0.1217    0.0000 C   0  0  0  0  0  0  0  0  0  0  0  0
    1.8498    0.5478    0.0000 O   0  0  0  0  0  0  0  0  0  0  0  0
    0.4430   -1.1285    0.0000 C   0  0  0  0  0  0  0  0  0  0  0  0
   -0.2694   -0.7124    0.0000 C   0  0  0  0  0  0  0  0  0  0  0  0
   -3.8314    0.5138    0.0000 C   0  0  0  0  0  0  0  0  0  0  0  0
   -2.4066   -1.9616    0.0000 C   0  0  0  0  0  0  0  0  0  0  0  0
    1.1554   -0.7124    0.0000 C   0  0  0  0  0  0  0  0  0  0  0  0
  2  1  2  0  0  0  0
  3  1  1  0  0  0  0
  4  1  1  0  0  0  0
  5  2  1  0  0  0  0
  6  3  2  0  0  0  0
  7  6  1  0  0  0  0
  8  4  1  0  0  0  0
  9  8  1  0  0  0  0
 10  9  2  0  0  0  0
 11 10  1  0  0  0  0
 12 13  1  0  0  0  0
 13  8  2  0  0  0  0
 14  5  1  0  0  0  0
 15  6  1  0  0  0  0
 16 12  2  0  0  0  0
  5  7  2  0  0  0  0
 16 10  1  0  0  0  0
M  END
>  <IDNUMBER>
F0908-3710

>  <Chemical_Name>
3-[(4,6-dimethylpyrimidin-2-yl)amino]phenol

>  <PriceCoeff>
1.50

>  <CAS>
81261-83-8

>  <MW>
215.25

>  <Description>
solid

>  <FSP3>
0.17

>  <clogP>
2.81

>  <TPSA>
58.04

>  <Acceptor>
4

>  <Donor>
2

>  <RotBonds>
2

>  <HAC>
16

>  <Collection>
Advanced

>  <PPDS>
+

$$$$
F0908-3954
  Mrv2219 10102508112D          

 11 11  0  0  0  0            999 V2000
   -1.1217    1.6391    0.0000 C   0  0  0  0  0  0  0  0  0  0  0  0
   -1.8298    0.4012    0.0000 S   0  0  0  0  0  0  0  0  0  0  0  0
   -1.1217    2.4767    0.0000 O   0  0  0  0  0  0  0  0  0  0  0  0
   -1.8298    1.2389    0.0000 C   0  0  0  0  0  0  0  0  0  0  0  0
   -0.4105    1.2389    0.0000 O   0  0  0  0  0  0  0  0  0  0  0  0
   -2.5597   -0.0353    0.0000 C   0  0  0  0  0  0  0  0  0  0  0  0
   -2.5597   -0.8740    0.0000 C   0  0  0  0  0  0  0  0  0  0  0  0
   -3.2698    0.3846    0.0000 C   0  0  0  0  0  0  0  0  0  0  0  0
   -3.9810   -0.0353    0.0000 C   0  0  0  0  0  0  0  0  0  0  0  0
   -3.2698   -1.2752    0.0000 C   0  0  0  0  0  0  0  0  0  0  0  0
   -3.9810   -0.8740    0.0000 C   0  0  0  0  0  0  0  0  0  0  0  0
  2  4  1  0  0  0  0
  3  1  2  0  0  0  0
  4  1  1  0  0  0  0
  5  1  1  0  0  0  0
  6  2  1  0  0  0  0
  7  6  2  0  0  0  0
  8  6  1  0  0  0  0
  9  8  2  0  0  0  0
 10  7  1  0  0  0  0
 11  9  1  0  0  0  0
 10 11  2  0  0  0  0
M  END
>  <IDNUMBER>
F0908-3954

>  <Chemical_Name>
2-(phenylsulfanyl)acetic acid

>  <PriceCoeff>
1.00

>  <CAS>
103-04-8

>  <MW>
168.22

>  <Description>
solid

>  <FSP3>
0.13

>  <clogP>
1.77

>  <TPSA>
37.30

>  <Acceptor>
2

>  <Donor>
0

>  <RotBonds>
3

>  <HAC>
11

>  <Collection>
General

>  <PPDS>
+

$$$$
F0909-0011
  Mrv2219 10102508112D          

 28 33  0  0  0  0            999 V2000
    2.2088    0.8643    0.0000 C   0  0  0  0  0  0  0  0  0  0  0  0
    2.2088   -2.4468    0.0000 C   0  0  0  0  0  0  0  0  0  0  0  0
    2.8726    1.3486    0.0000 N   0  0  0  0  0  0  0  0  0  0  0  0
    1.5449   -2.9311    0.0000 N   0  0  0  0  0  0  0  0  0  0  0  0
    1.5324    1.3486    0.0000 O   0  0  0  0  0  0  0  0  0  0  0  0
    2.8852   -2.9353    0.0000 O   0  0  0  0  0  0  0  0  0  0  0  0
    2.2088   -1.6201    0.0000 C   0  0  0  0  0  0  0  0  0  0  0  0
    2.2088    0.0376    0.0000 C   0  0  0  0  0  0  0  0  0  0  0  0
    1.4948   -1.2067    0.0000 C   0  0  0  0  0  0  0  0  0  0  0  0
    1.4948   -0.3800    0.0000 C   0  0  0  0  0  0  0  0  0  0  0  0
    2.6179    2.1377    0.0000 C   0  0  0  0  0  0  0  0  0  0  0  0
    1.8079   -3.7119    0.0000 C   0  0  0  0  0  0  0  0  0  0  0  0
    2.6346   -3.7202    0.0000 C   0  0  0  0  0  0  0  0  0  0  0  0
    1.7829    2.1294    0.0000 C   0  0  0  0  0  0  0  0  0  0  0  0
    2.9311   -0.3758    0.0000 C   0  0  0  0  0  0  0  0  0  0  0  0
    2.9311   -1.2067    0.0000 C   0  0  0  0  0  0  0  0  0  0  0  0
    0.7808    0.0334    0.0000 C   0  0  0  0  0  0  0  0  0  0  0  0
    0.7808   -1.6201    0.0000 C   0  0  0  0  0  0  0  0  0  0  0  0
    3.0230    2.8517    0.0000 C   0  0  0  0  0  0  0  0  0  0  0  0
    1.3946   -4.4259    0.0000 C   0  0  0  0  0  0  0  0  0  0  0  0
    1.3695    2.8434    0.0000 C   0  0  0  0  0  0  0  0  0  0  0  0
    3.0438   -4.4259    0.0000 C   0  0  0  0  0  0  0  0  0  0  0  0
    0.0668   -1.2067    0.0000 C   0  0  0  0  0  0  0  0  0  0  0  0
    0.0668   -0.3800    0.0000 C   0  0  0  0  0  0  0  0  0  0  0  0
    1.7787    3.5574    0.0000 C   0  0  0  0  0  0  0  0  0  0  0  0
    1.8079   -5.1398    0.0000 C   0  0  0  0  0  0  0  0  0  0  0  0
    2.6346   -5.1398    0.0000 C   0  0  0  0  0  0  0  0  0  0  0  0
    2.6096    3.5657    0.0000 C   0  0  0  0  0  0  0  0  0  0  0  0
  2  7  1  0  0  0  0
  3  1  2  0  0  0  0
  4  2  2  0  0  0  0
  5  1  1  0  0  0  0
  6  2  1  0  0  0  0
  7 16  2  0  0  0  0
  8  1  1  0  0  0  0
  9 10  1  0  0  0  0
 10  8  1  0  0  0  0
 11  3  1  0  0  0  0
 12  4  1  0  0  0  0
 13  6  1  0  0  0  0
 14  5  1  0  0  0  0
 15  8  2  0  0  0  0
 16 15  1  0  0  0  0
 17 10  2  0  0  0  0
 18  9  2  0  0  0  0
 19 11  2  0  0  0  0
 20 12  2  0  0  0  0
 21 14  2  0  0  0  0
 22 13  2  0  0  0  0
 23 24  2  0  0  0  0
 24 17  1  0  0  0  0
 25 21  1  0  0  0  0
 26 20  1  0  0  0  0
 27 22  1  0  0  0  0
 28 19  1  0  0  0  0
 14 11  1  0  0  0  0
  9  7  1  0  0  0  0
 28 25  2  0  0  0  0
 18 23  1  0  0  0  0
 13 12  1  0  0  0  0
 26 27  2  0  0  0  0
M  END
>  <IDNUMBER>
F0909-0011

>  <Chemical_Name>
2-[4-(1,3-benzoxazol-2-yl)naphthalen-1-yl]-1,3-benzoxazole

>  <PriceCoeff>
1.00

>  <CAS>
5089-22-5

>  <MW>
362.38

>  <Description>
solid

>  <FSP3>
0.00

>  <clogP>
6.06

>  <TPSA>
52.06

>  <Acceptor>
4

>  <Donor>
0

>  <RotBonds>
2

>  <HAC>
28

>  <Collection>
General

>  <PPDS>
+

$$$$
F0909-0423
  Mrv2219 10102508112D          

 17 17  0  0  0  0            999 V2000
    3.1242   -0.5387    0.0000 C   0  0  0  0  0  0  0  0  0  0  0  0
    2.6518   -1.2223    0.0000 N   0  0  0  0  0  0  0  0  0  0  0  0
    2.6518    0.0953    0.0000 S   0  0  0  0  0  0  0  0  0  0  0  0
    1.8811   -0.9737    0.0000 C   0  0  0  0  0  0  0  0  0  0  0  0
    1.8811   -0.1409    0.0000 C   0  0  0  0  0  0  0  0  0  0  0  0
    3.9570   -0.5014    0.0000 S   0  0  0  0  0  0  0  0  0  0  0  0
    1.1602   -1.3839    0.0000 C   0  0  0  0  0  0  0  0  0  0  0  0
    1.1602    0.2693    0.0000 C   0  0  0  0  0  0  0  0  0  0  0  0
    4.4045   -1.1975    0.0000 C   0  0  0  0  0  0  0  0  0  0  0  0
    0.4517   -0.9613    0.0000 C   0  0  0  0  0  0  0  0  0  0  0  0
    0.4517   -0.1533    0.0000 C   0  0  0  0  0  0  0  0  0  0  0  0
    6.7456   -0.5387    0.0000 S   0  0  0  0  0  0  0  0  0  0  0  0
    6.9776    0.2569    0.0000 O   0  0  0  0  0  0  0  0  0  0  0  0
    7.5162   -0.7873    0.0000 O   0  0  0  0  0  0  0  0  0  0  0  0
    5.9997   -0.4392    0.0000 O   0  0  0  0  0  0  0  0  0  0  0  0
    6.4845   -1.3218    0.0000 O   0  0  0  0  0  0  0  0  0  0  0  0
    5.6890   -1.5082    0.0000 C   0  0  0  0  0  0  0  0  0  0  0  0
  8  5  1  0  0  0  0
  9  6  1  0  0  0  0
 10  7  2  0  0  0  0
 11  8  2  0  0  0  0
  5  4  2  0  0  0  0
 11 10  1  0  0  0  0
  2  1  2  0  0  0  0
  3  1  1  0  0  0  0
  4  2  1  0  0  0  0
  5  3  1  0  0  0  0
  6  1  1  0  0  0  0
  7  4  1  0  0  0  0
 13 12  2  0  0  0  0
 14 12  2  0  0  0  0
 15 12  1  0  0  0  0
 16 12  1  0  0  0  0
 17 16  1  0  0  0  0
M  END
>  <IDNUMBER>
F0909-0423

>  <Chemical_Name>
2-(methylsulfanyl)-1,3-benzothiazole; methoxysulfonic acid

>  <PriceCoeff>
1.00

>  <CAS>
1329871-59-1

>  <MW>
181.27

>  <Description>
solid

>  <FSP3>
0.13

>  <clogP>
3.23

>  <TPSA>
12.89

>  <Acceptor>
1

>  <Donor>
0

>  <RotBonds>
1

>  <HAC>
11

>  <Collection>
General

$$$$
F0911-2383
  Mrv2219 10102508112D          

 24 26  0  0  0  0            999 V2000
   -1.6067   -0.3233    0.0000 C   0  0  0  0  0  0  0  0  0  0  0  0
   -1.6067    0.4526    0.0000 C   0  0  0  0  0  0  0  0  0  0  0  0
   -2.2889   -0.7113    0.0000 N   0  0  0  0  0  0  0  0  0  0  0  0
   -2.9646    0.4526    0.0000 N   0  0  0  0  0  0  0  0  0  0  0  0
   -2.9646   -0.3233    0.0000 C   0  0  0  0  0  0  0  0  0  0  0  0
   -2.2889    0.8308    0.0000 C   0  0  0  0  0  0  0  0  0  0  0  0
   -0.9181   -0.7113    0.0000 N   0  0  0  0  0  0  0  0  0  0  0  0
   -0.2425    0.4526    0.0000 N   0  0  0  0  0  0  0  0  0  0  0  0
   -0.2425   -0.3233    0.0000 C   0  0  0  0  0  0  0  0  0  0  0  0
    0.4785    0.8502    0.0000 C   0  0  0  0  0  0  0  0  0  0  0  0
    1.1865    0.4267    0.0000 C   0  0  0  0  0  0  0  0  0  0  0  0
   -3.7017   -0.7274    0.0000 O   0  0  0  0  0  0  0  0  0  0  0  0
   -2.2889    1.6649    0.0000 O   0  0  0  0  0  0  0  0  0  0  0  0
    1.1865   -0.3912    0.0000 N   0  0  0  0  0  0  0  0  0  0  0  0
    1.9301    0.8308    0.0000 O   0  0  0  0  0  0  0  0  0  0  0  0
   -2.2889   -1.5421    0.0000 C   0  0  0  0  0  0  0  0  0  0  0  0
   -3.7017    0.8502    0.0000 C   0  0  0  0  0  0  0  0  0  0  0  0
    1.9139   -0.8277    0.0000 C   0  0  0  0  0  0  0  0  0  0  0  0
    2.6381   -0.4267    0.0000 C   0  0  0  0  0  0  0  0  0  0  0  0
    3.3493   -0.8535    0.0000 C   0  0  0  0  0  0  0  0  0  0  0  0
    2.6381    0.4041    0.0000 C   0  0  0  0  0  0  0  0  0  0  0  0
    4.0638   -0.4267    0.0000 C   0  0  0  0  0  0  0  0  0  0  0  0
    3.3493    0.8147    0.0000 C   0  0  0  0  0  0  0  0  0  0  0  0
    4.0638    0.4041    0.0000 C   0  0  0  0  0  0  0  0  0  0  0  0
  2  1  2  0  0  0  0
  3  1  1  0  0  0  0
  4  5  1  0  0  0  0
  5  3  1  0  0  0  0
  6  2  1  0  0  0  0
  7  1  1  0  0  0  0
  8  2  1  0  0  0  0
  9  7  2  0  0  0  0
 10  8  1  0  0  0  0
 11 10  1  0  0  0  0
 12  5  2  0  0  0  0
 13  6  2  0  0  0  0
 14 11  1  0  0  0  0
 15 11  2  0  0  0  0
 16  3  1  0  0  0  0
 17  4  1  0  0  0  0
 18 14  1  0  0  0  0
 19 18  1  0  0  0  0
 20 19  2  0  0  0  0
 21 19  1  0  0  0  0
 22 20  1  0  0  0  0
 23 21  2  0  0  0  0
 24 23  1  0  0  0  0
  9  8  1  0  0  0  0
  4  6  1  0  0  0  0
 24 22  2  0  0  0  0
M  END
>  <IDNUMBER>
F0911-2383

>  <Chemical_Name>
N-benzyl-2-(1,3-dimethyl-2,6-dioxo-2,3,6,7-tetrahydro-1H-purin-7-yl)acetamide

>  <PriceCoeff>
1.00

>  <CAS>
332117-36-9

>  <MW>
327.34

>  <Description>
solid

>  <FSP3>
0.25

>  <clogP>
0.76

>  <TPSA>
87.54

>  <Acceptor>
4

>  <Donor>
2

>  <RotBonds>
4

>  <HAC>
24

>  <Collection>
General

>  <PPDS>
+

$$$$
F0911-3695
  Mrv2219 10102508112D          

 26 28  0  0  0  0            999 V2000
    2.5927   -1.7810    0.0000 C   0  0  0  0  0  0  0  0  0  0  0  0
    1.8446   -2.1929    0.0000 C   0  0  0  0  0  0  0  0  0  0  0  0
    1.1298   -1.7810    0.0000 C   0  0  0  0  0  0  0  0  0  0  0  0
    2.5927   -0.9814    0.0000 C   0  0  0  0  0  0  0  0  0  0  0  0
    1.1298   -0.9814    0.0000 C   0  0  0  0  0  0  0  0  0  0  0  0
    1.8446   -0.5573    0.0000 O   0  0  0  0  0  0  0  0  0  0  0  0
    3.1167   -2.0748    0.0000 C   0  0  0  0  0  0  0  0  0  0  0  0
   -1.8324   -0.9814    0.0000 C   0  0  0  0  0  0  0  0  0  0  0  0
    0.3907   -0.5573    0.0000 C   0  0  0  0  0  0  0  0  0  0  0  0
   -1.0904   -0.5573    0.0000 O   0  0  0  0  0  0  0  0  0  0  0  0
    0.3907   -2.1929    0.0000 C   0  0  0  0  0  0  0  0  0  0  0  0
   -2.5806   -0.5573    0.0000 C   0  0  0  0  0  0  0  0  0  0  0  0
   -0.3513   -0.9814    0.0000 C   0  0  0  0  0  0  0  0  0  0  0  0
    1.8446   -3.0198    0.0000 O   0  0  0  0  0  0  0  0  0  0  0  0
   -1.8415   -1.8082    0.0000 O   0  0  0  0  0  0  0  0  0  0  0  0
    3.1167   -2.6805    0.0000 C   0  0  0  0  0  0  0  0  0  0  0  0
   -0.3513   -1.7810    0.0000 C   0  0  0  0  0  0  0  0  0  0  0  0
    2.5927   -2.9804    0.0000 O   0  0  0  0  0  0  0  0  0  0  0  0
    3.6346   -1.7810    0.0000 C   0  0  0  0  0  0  0  0  0  0  0  0
   -3.3317   -0.1454    0.0000 C   0  0  0  0  0  0  0  0  0  0  0  0
   -2.1535    0.1605    0.0000 C   0  0  0  0  0  0  0  0  0  0  0  0
   -3.0228   -1.2752    0.0000 C   0  0  0  0  0  0  0  0  0  0  0  0
    3.6346   -2.9804    0.0000 C   0  0  0  0  0  0  0  0  0  0  0  0
    2.5927   -3.5741    0.0000 C   0  0  0  0  0  0  0  0  0  0  0  0
    4.1465   -2.0748    0.0000 C   0  0  0  0  0  0  0  0  0  0  0  0
    4.1465   -2.6805    0.0000 C   0  0  0  0  0  0  0  0  0  0  0  0
  2  1  1  0  0  0  0
  3  2  1  0  0  0  0
  4  1  2  0  0  0  0
  5  6  1  0  0  0  0
  6  4  1  0  0  0  0
  7  1  1  0  0  0  0
  8 10  1  0  0  0  0
  9  5  2  0  0  0  0
 10 13  1  0  0  0  0
 11  3  2  0  0  0  0
 12  8  1  0  0  0  0
 13  9  1  0  0  0  0
 14  2  2  0  0  0  0
 15  8  2  0  0  0  0
 16  7  2  0  0  0  0
 17 11  1  0  0  0  0
 18 16  1  0  0  0  0
 19  7  1  0  0  0  0
 20 12  1  0  0  0  0
 21 12  1  0  0  0  0
 22 12  1  0  0  0  0
 23 16  1  0  0  0  0
 24 18  1  0  0  0  0
 25 19  2  0  0  0  0
 26 25  1  0  0  0  0
  5  3  1  0  0  0  0
 26 23  2  0  0  0  0
 13 17  2  0  0  0  0
M  END
>  <IDNUMBER>
F0911-3695

>  <Chemical_Name>
3-(2-methoxyphenyl)-4-oxo-4H-chromen-7-yl 2,2-dimethylpropanoate

>  <PriceCoeff>
1.00

>  <CAS>
303121-59-7

>  <MW>
352.38

>  <Description>
solid

>  <FSP3>
0.24

>  <clogP>
3.13

>  <TPSA>
61.83

>  <Acceptor>
5

>  <Donor>
0

>  <RotBonds>
4

>  <HAC>
26

>  <Collection>
General

>  <PPDS>
+

$$$$
F0913-0305
  Mrv2219 10102508112D          

 16 18  0  0  0  0            999 V2000
    5.1935   -2.2709    0.0000 C   0  0  0  0  0  0  0  0  0  0  0  0
    4.7119   -1.6108    0.0000 N   0  0  0  0  0  0  0  0  0  0  0  0
    4.7119   -2.9434    0.0000 O   0  0  0  0  0  0  0  0  0  0  0  0
    3.9398   -1.8599    0.0000 C   0  0  0  0  0  0  0  0  0  0  0  0
    3.9398   -2.6943    0.0000 C   0  0  0  0  0  0  0  0  0  0  0  0
    6.0196   -2.2584    0.0000 C   0  0  0  0  0  0  0  0  0  0  0  0
    6.4306   -2.9641    0.0000 C   0  0  0  0  0  0  0  0  0  0  0  0
    7.2526   -2.9641    0.0000 C   0  0  0  0  0  0  0  0  0  0  0  0
    7.6636   -3.6740    0.0000 N   0  0  0  0  0  0  0  0  0  0  0  0
    6.4182   -1.5361    0.0000 C   0  0  0  0  0  0  0  0  0  0  0  0
    3.2299   -1.4489    0.0000 C   0  0  0  0  0  0  0  0  0  0  0  0
    7.2484   -1.5361    0.0000 C   0  0  0  0  0  0  0  0  0  0  0  0
    3.2299   -3.1053    0.0000 C   0  0  0  0  0  0  0  0  0  0  0  0
    7.6636   -2.2460    0.0000 C   0  0  0  0  0  0  0  0  0  0  0  0
    2.5075   -1.8723    0.0000 C   0  0  0  0  0  0  0  0  0  0  0  0
    2.5075   -2.6819    0.0000 C   0  0  0  0  0  0  0  0  0  0  0  0
  2  1  2  0  0  0  0
  3  1  1  0  0  0  0
  4  2  1  0  0  0  0
  5  3  1  0  0  0  0
  6  1  1  0  0  0  0
  7  6  1  0  0  0  0
  8  7  2  0  0  0  0
  9  8  1  0  0  0  0
 10  6  2  0  0  0  0
 11  4  1  0  0  0  0
 12 10  1  0  0  0  0
 13  5  1  0  0  0  0
 14 12  2  0  0  0  0
 15 11  2  0  0  0  0
 16 13  2  0  0  0  0
  5  4  2  0  0  0  0
  8 14  1  0  0  0  0
 15 16  1  0  0  0  0
M  END
>  <IDNUMBER>
F0913-0305

>  <Chemical_Name>
3-(1,3-benzoxazol-2-yl)aniline

>  <PriceCoeff>
1.00

>  <CAS>
41373-36-8

>  <MW>
210.24

>  <Description>
solid

>  <FSP3>
0.00

>  <clogP>
2.52

>  <TPSA>
52.05

>  <Acceptor>
3

>  <Donor>
1

>  <RotBonds>
1

>  <HAC>
16

>  <Collection>
General

>  <PPDS>
+

$$$$
F0914-3327
  Mrv2219 10102508112D          

 13 14  0  0  0  0            999 V2000
    3.9842   -1.4045    0.0000 C   0  0  0  0  0  0  0  0  0  0  0  0
    3.2771   -1.8170    0.0000 N   0  0  0  0  0  0  0  0  0  0  0  0
    3.9842   -0.5795    0.0000 C   0  0  0  0  0  0  0  0  0  0  0  0
    4.7503   -1.8464    0.0000 C   0  0  0  0  0  0  0  0  0  0  0  0
    2.5552   -1.4045    0.0000 C   0  0  0  0  0  0  0  0  0  0  0  0
    2.5552   -0.5795    0.0000 C   0  0  0  0  0  0  0  0  0  0  0  0
    4.7749   -2.6976    0.0000 O   0  0  0  0  0  0  0  0  0  0  0  0
    5.5164   -1.4045    0.0000 N   0  0  0  0  0  0  0  0  0  0  0  0
    1.8464   -1.8170    0.0000 C   0  0  0  0  0  0  0  0  0  0  0  0
    1.8464   -0.1768    0.0000 C   0  0  0  0  0  0  0  0  0  0  0  0
    6.2857   -1.8562    0.0000 C   0  0  0  0  0  0  0  0  0  0  0  0
    1.1393   -1.4045    0.0000 C   0  0  0  0  0  0  0  0  0  0  0  0
    1.1393   -0.5795    0.0000 C   0  0  0  0  0  0  0  0  0  0  0  0
  2  1  1  0  0  0  0
  3  1  2  0  0  0  0
  4  1  1  0  0  0  0
  5  2  1  0  0  0  0
  6  3  1  0  0  0  0
  7  4  2  0  0  0  0
  8  4  1  0  0  0  0
  9  5  1  0  0  0  0
 10  6  1  0  0  0  0
 11  8  1  0  0  0  0
 12  9  2  0  0  0  0
 13 10  2  0  0  0  0
  6  5  2  0  0  0  0
 13 12  1  0  0  0  0
M  END
>  <IDNUMBER>
F0914-3327

>  <Chemical_Name>
N-methyl-1H-indole-2-carboxamide

>  <PriceCoeff>
1.00

>  <CAS>
69808-71-5

>  <MW>
174.20

>  <Description>
solid

>  <FSP3>
0.10

>  <clogP>
1.07

>  <TPSA>
44.89

>  <Acceptor>
1

>  <Donor>
2

>  <RotBonds>
1

>  <HAC>
13

>  <Collection>
General

>  <PPDS>
+

$$$$
F0915-0501
  Mrv2219 10102508112D          

 26 28  0  0  0  0            999 V2000
   -0.0172    1.1498    0.0000 N   0  0  0  0  0  0  0  0  0  0  0  0
    0.7073    1.5893    0.0000 C   0  0  0  0  0  0  0  0  0  0  0  0
    0.1556    0.3324    0.0000 C   0  0  0  0  0  0  0  0  0  0  0  0
    0.9669    0.2536    0.0000 C   0  0  0  0  0  0  0  0  0  0  0  0
    1.3216    1.0195    0.0000 C   0  0  0  0  0  0  0  0  0  0  0  0
   -0.7446    1.5893    0.0000 C   0  0  0  0  0  0  0  0  0  0  0  0
    2.6351   -1.2195    0.0000 C   0  0  0  0  0  0  0  0  0  0  0  0
    1.3772   -0.4850    0.0000 S   0  0  0  0  0  0  0  0  0  0  0  0
    2.2168   -0.5102    0.0000 C   0  0  0  0  0  0  0  0  0  0  0  0
    2.2168   -1.9278    0.0000 C   0  0  0  0  0  0  0  0  0  0  0  0
   -2.8806    1.1801    0.0000 C   0  0  0  0  0  0  0  0  0  0  0  0
   -1.4448    1.1670    0.0000 C   0  0  0  0  0  0  0  0  0  0  0  0
   -2.1642    1.5893    0.0000 C   0  0  0  0  0  0  0  0  0  0  0  0
    0.7891    2.4007    0.0000 O   0  0  0  0  0  0  0  0  0  0  0  0
   -0.3718   -0.2880    0.0000 O   0  0  0  0  0  0  0  0  0  0  0  0
    2.6492   -2.6492    0.0000 O   0  0  0  0  0  0  0  0  0  0  0  0
   -2.8988    0.3546    0.0000 O   0  0  0  0  0  0  0  0  0  0  0  0
    1.3772   -1.9500    0.0000 O   0  0  0  0  0  0  0  0  0  0  0  0
   -3.6172    1.5681    0.0000 O   0  0  0  0  0  0  0  0  0  0  0  0
   -0.7446    2.4007    0.0000 C   0  0  0  0  0  0  0  0  0  0  0  0
    3.4656   -1.2195    0.0000 C   0  0  0  0  0  0  0  0  0  0  0  0
    2.6492    0.2142    0.0000 C   0  0  0  0  0  0  0  0  0  0  0  0
   -2.1642    2.4007    0.0000 C   0  0  0  0  0  0  0  0  0  0  0  0
   -1.4448    2.8099    0.0000 C   0  0  0  0  0  0  0  0  0  0  0  0
    3.8798   -0.5102    0.0000 C   0  0  0  0  0  0  0  0  0  0  0  0
    3.4656    0.2142    0.0000 C   0  0  0  0  0  0  0  0  0  0  0  0
  2  1  1  0  0  0  0
  3  1  1  0  0  0  0
  4  3  1  0  0  0  0
  5  2  1  0  0  0  0
  6  1  1  0  0  0  0
  7  9  2  0  0  0  0
  8  4  1  0  0  0  0
  9  8  1  0  0  0  0
 10  7  1  0  0  0  0
 11 13  1  0  0  0  0
 12  6  1  0  0  0  0
 13 12  2  0  0  0  0
 14  2  2  0  0  0  0
 15  3  2  0  0  0  0
 16 10  2  0  0  0  0
 17 11  2  0  0  0  0
 18 10  1  0  0  0  0
 19 11  1  0  0  0  0
 20  6  2  0  0  0  0
 21  7  1  0  0  0  0
 22  9  1  0  0  0  0
 23 24  2  0  0  0  0
 24 20  1  0  0  0  0
 25 26  1  0  0  0  0
 26 22  2  0  0  0  0
  5  4  1  0  0  0  0
 13 23  1  0  0  0  0
 25 21  2  0  0  0  0
M  END
>  <IDNUMBER>
F0915-0501

>  <Chemical_Name>
3-{3-[(2-carboxyphenyl)sulfanyl]-2,5-dioxopyrrolidin-1-yl}benzoic acid

>  <PriceCoeff>
1.00

>  <CAS>
428450-58-2

>  <MW>
371.36

>  <Description>
solid

>  <FSP3>
0.11

>  <clogP>
2.13

>  <TPSA>
137.28

>  <Acceptor>
6

>  <Donor>
0

>  <RotBonds>
5

>  <HAC>
26

>  <Collection>
General

>  <PPDS>
+

$$$$
F0915-1528
  Mrv2219 10102508112D          

 15 16  0  0  0  0            999 V2000
   -3.0576   -0.7664    0.0000 C   0  0  0  0  0  0  0  0  0  0  0  0
   -3.0576    0.0475    0.0000 C   0  0  0  0  0  0  0  0  0  0  0  0
   -2.2762   -1.0310    0.0000 N   0  0  0  0  0  0  0  0  0  0  0  0
   -3.7698   -1.1897    0.0000 N   0  0  0  0  0  0  0  0  0  0  0  0
   -4.4819    0.0515    0.0000 N   0  0  0  0  0  0  0  0  0  0  0  0
   -4.4819   -0.7664    0.0000 C   0  0  0  0  0  0  0  0  0  0  0  0
   -3.7698    0.4639    0.0000 C   0  0  0  0  0  0  0  0  0  0  0  0
   -1.7770   -0.3663    0.0000 C   0  0  0  0  0  0  0  0  0  0  0  0
   -2.2681    0.3011    0.0000 N   0  0  0  0  0  0  0  0  0  0  0  0
   -5.2090   -1.1815    0.0000 O   0  0  0  0  0  0  0  0  0  0  0  0
   -3.7779    1.2887    0.0000 O   0  0  0  0  0  0  0  0  0  0  0  0
   -0.9550   -0.3541    0.0000 N   0  0  0  0  0  0  0  0  0  0  0  0
   -3.7779   -2.0077    0.0000 C   0  0  0  0  0  0  0  0  0  0  0  0
   -5.2090    0.4639    0.0000 C   0  0  0  0  0  0  0  0  0  0  0  0
   -2.0551    1.1055    0.0000 C   0  0  0  0  0  0  0  0  0  0  0  0
  2  1  2  0  0  0  0
  3  1  1  0  0  0  0
  4  1  1  0  0  0  0
  5  6  1  0  0  0  0
  6  4  1  0  0  0  0
  7  2  1  0  0  0  0
  8  3  2  0  0  0  0
  9  2  1  0  0  0  0
 10  6  2  0  0  0  0
 11  7  2  0  0  0  0
 12  8  1  0  0  0  0
 13  4  1  0  0  0  0
 14  5  1  0  0  0  0
 15  9  1  0  0  0  0
  8  9  1  0  0  0  0
  7  5  1  0  0  0  0
M  END
>  <IDNUMBER>
F0915-1528

>  <Chemical_Name>
8-amino-1,3,7-trimethyl-2,3,6,7-tetrahydro-1H-purine-2,6-dione

>  <PriceCoeff>
1.50

>  <CAS>
37789-28-9

>  <MW>
209.21

>  <Description>
solid

>  <FSP3>
0.38

>  <clogP>
-0.31

>  <TPSA>
84.46

>  <Acceptor>
3

>  <Donor>
2

>  <RotBonds>
0

>  <HAC>
15

>  <Collection>
Advanced

$$$$
F0915-6107
  Mrv2219 10102508112D          

 21 22  0  0  0  0            999 V2000
    2.3209   -2.5559    0.0000 C   0  0  0  0  0  0  0  0  0  0  0  0
    3.0449   -2.9590    0.0000 C   0  0  0  0  0  0  0  0  0  0  0  0
    2.3209   -1.7192    0.0000 C   0  0  0  0  0  0  0  0  0  0  0  0
    1.6065   -1.3066    0.0000 C   0  0  0  0  0  0  0  0  0  0  0  0
    1.6065   -2.9590    0.0000 C   0  0  0  0  0  0  0  0  0  0  0  0
    5.8988   -2.9570    0.0000 C   0  0  0  0  0  0  0  0  0  0  0  0
    3.7593   -2.5559    0.0000 C   0  0  0  0  0  0  0  0  0  0  0  0
    5.9141   -3.7727    0.0000 C   0  0  0  0  0  0  0  0  0  0  0  0
    5.1767   -2.5406    0.0000 C   0  0  0  0  0  0  0  0  0  0  0  0
    4.4776   -2.9590    0.0000 C   0  0  0  0  0  0  0  0  0  0  0  0
    3.0449   -3.7956    0.0000 O   0  0  0  0  0  0  0  0  0  0  0  0
    5.1920   -4.1968    0.0000 C   0  0  0  0  0  0  0  0  0  0  0  0
    0.9016   -1.7192    0.0000 C   0  0  0  0  0  0  0  0  0  0  0  0
    3.0449   -1.3028    0.0000 O   0  0  0  0  0  0  0  0  0  0  0  0
    0.9016   -2.5559    0.0000 C   0  0  0  0  0  0  0  0  0  0  0  0
    4.4642   -3.7880    0.0000 C   0  0  0  0  0  0  0  0  0  0  0  0
    6.6151   -2.5349    0.0000 O   0  0  0  0  0  0  0  0  0  0  0  0
    6.6209   -4.1968    0.0000 O   0  0  0  0  0  0  0  0  0  0  0  0
    0.1796   -1.3066    0.0000 O   0  0  0  0  0  0  0  0  0  0  0  0
    7.3353   -2.9418    0.0000 C   0  0  0  0  0  0  0  0  0  0  0  0
    6.6209   -5.0163    0.0000 C   0  0  0  0  0  0  0  0  0  0  0  0
  2  1  1  0  0  0  0
  3  1  1  0  0  0  0
  4  3  2  0  0  0  0
  5  1  2  0  0  0  0
  6  9  2  0  0  0  0
  7  2  1  0  0  0  0
  8 12  2  0  0  0  0
  9 10  1  0  0  0  0
 10  7  1  0  0  0  0
 11  2  2  0  0  0  0
 12 16  1  0  0  0  0
 13 15  2  0  0  0  0
 14  3  1  0  0  0  0
 15  5  1  0  0  0  0
 16 10  2  0  0  0  0
 17  6  1  0  0  0  0
 18  8  1  0  0  0  0
 19 13  1  0  0  0  0
 20 17  1  0  0  0  0
 21 18  1  0  0  0  0
  4 13  1  0  0  0  0
  6  8  1  0  0  0  0
M  END
>  <IDNUMBER>
F0915-6107

>  <Chemical_Name>
1-(2,4-dihydroxyphenyl)-2-(3,4-dimethoxyphenyl)ethan-1-one

>  <PriceCoeff>
1.00

>  <CAS>
24126-98-5

>  <MW>
288.30

>  <Description>
solid

>  <FSP3>
0.19

>  <clogP>
2.84

>  <TPSA>
75.99

>  <Acceptor>
5

>  <Donor>
2

>  <RotBonds>
5

>  <HAC>
21

>  <Collection>
General

>  <PPDS>
+

$$$$
F0915-6513
  Mrv2219 10102508112D          

 32 36  0  0  0  0            999 V2000
   -1.2426    2.3213    0.0000 C   0  0  0  0  0  0  0  0  0  0  0  0
   -1.0005    1.5356    0.0000 C   0  0  0  0  0  0  0  0  0  0  0  0
    0.0708    2.7496    0.0000 N   0  0  0  0  0  0  0  0  0  0  0  0
    0.3327    1.9602    0.0000 C   0  0  0  0  0  0  0  0  0  0  0  0
   -0.1924    1.3531    0.0000 N   0  0  0  0  0  0  0  0  0  0  0  0
   -0.6840    2.9284    0.0000 C   0  0  0  0  0  0  0  0  0  0  0  0
   -1.6858    1.0675    0.0000 S   0  0  0  0  0  0  0  0  0  0  0  0
   -2.0756    2.3213    0.0000 C   0  0  0  0  0  0  0  0  0  0  0  0
   -2.3101    1.5356    0.0000 C   0  0  0  0  0  0  0  0  0  0  0  0
    1.2004    1.7702    0.0000 S   0  0  0  0  0  0  0  0  0  0  0  0
    0.6530    3.3716    0.0000 C   0  0  0  0  0  0  0  0  0  0  0  0
   -0.8975    3.7663    0.0000 O   0  0  0  0  0  0  0  0  0  0  0  0
    2.5634    2.2431    0.0000 C   0  0  0  0  0  0  0  0  0  0  0  0
    3.1481    2.9023    0.0000 O   0  0  0  0  0  0  0  0  0  0  0  0
    1.7702    2.4033    0.0000 C   0  0  0  0  0  0  0  0  0  0  0  0
    2.8241    1.4574    0.0000 N   0  0  0  0  0  0  0  0  0  0  0  0
   -2.7533    2.7980    0.0000 C   0  0  0  0  0  0  0  0  0  0  0  0
   -3.1481    1.5356    0.0000 C   0  0  0  0  0  0  0  0  0  0  0  0
    2.3014    0.8329    0.0000 C   0  0  0  0  0  0  0  0  0  0  0  0
    2.0384   -0.5897    0.0000 C   0  0  0  0  0  0  0  0  0  0  0  0
   -3.4088    2.2953    0.0000 C   0  0  0  0  0  0  0  0  0  0  0  0
    1.4425    3.1916    0.0000 C   0  0  0  0  0  0  0  0  0  0  0  0
    0.3923    4.1313    0.0000 C   0  0  0  0  0  0  0  0  0  0  0  0
    2.5634    0.0447    0.0000 C   0  0  0  0  0  0  0  0  0  0  0  0
    1.2451   -0.3985    0.0000 C   0  0  0  0  0  0  0  0  0  0  0  0
    2.3014   -1.3158    0.0000 C   0  0  0  0  0  0  0  0  0  0  0  0
    0.9173    4.7669    0.0000 C   0  0  0  0  0  0  0  0  0  0  0  0
    1.9887    3.8209    0.0000 C   0  0  0  0  0  0  0  0  0  0  0  0
    0.6778   -1.0055    0.0000 C   0  0  0  0  0  0  0  0  0  0  0  0
    1.7764   -1.9676    0.0000 C   0  0  0  0  0  0  0  0  0  0  0  0
    0.9831   -1.8360    0.0000 C   0  0  0  0  0  0  0  0  0  0  0  0
    1.7702    4.5856    0.0000 C   0  0  0  0  0  0  0  0  0  0  0  0
  2  1  2  0  0  0  0
  3  6  1  0  0  0  0
  4  3  1  0  0  0  0
  5  2  1  0  0  0  0
  6  1  1  0  0  0  0
  7  2  1  0  0  0  0
  8  1  1  0  0  0  0
  9  8  2  0  0  0  0
 10  4  1  0  0  0  0
 11  3  1  0  0  0  0
 12  6  2  0  0  0  0
 13 15  1  0  0  0  0
 14 13  2  0  0  0  0
 15 10  1  0  0  0  0
 16 13  1  0  0  0  0
 17  8  1  0  0  0  0
 18  9  1  0  0  0  0
 19 16  1  0  0  0  0
 20 24  1  0  0  0  0
 21 17  1  0  0  0  0
 22 11  1  0  0  0  0
 23 11  2  0  0  0  0
 24 19  1  0  0  0  0
 25 20  1  0  0  0  0
 26 20  2  0  0  0  0
 27 23  1  0  0  0  0
 28 22  2  0  0  0  0
 29 25  2  0  0  0  0
 30 26  1  0  0  0  0
 31 30  2  0  0  0  0
 32 27  2  0  0  0  0
  7  9  1  0  0  0  0
  4  5  2  0  0  0  0
 21 18  1  0  0  0  0
 32 28  1  0  0  0  0
 29 31  1  0  0  0  0
M  END
>  <IDNUMBER>
F0915-6513

>  <Chemical_Name>
2-({12-oxo-11-phenyl-7-thia-9,11-diazatricyclo[6.4.0.0?,?]dodeca-1(8),2(6),9-trien-10-yl}sulfanyl)-N-(2-phenylethyl)acetamide

>  <PriceCoeff>
1.00

>  <CAS>
315710-97-5

>  <MW>
461.60

>  <Description>
solid

>  <FSP3>
0.24

>  <clogP>
5.23

>  <TPSA>
115.31

>  <Acceptor>
3

>  <Donor>
1

>  <RotBonds>
7

>  <HAC>
32

>  <Collection>
General

>  <PPDS>
+

$$$$
F0916-2583
  Mrv2219 10102508112D          

 28 31  0  0  0  0            999 V2000
    3.7834    0.9836    0.0000 C   0  0  0  0  0  0  0  0  0  0  0  0
    3.0492    0.5710    0.0000 C   0  0  0  0  0  0  0  0  0  0  0  0
    2.3473    0.9836    0.0000 C   0  0  0  0  0  0  0  0  0  0  0  0
    3.7834    1.8163    0.0000 C   0  0  0  0  0  0  0  0  0  0  0  0
    2.3473    1.8163    0.0000 C   0  0  0  0  0  0  0  0  0  0  0  0
    3.0492    2.2272    0.0000 O   0  0  0  0  0  0  0  0  0  0  0  0
    4.4945    0.5710    0.0000 C   0  0  0  0  0  0  0  0  0  0  0  0
    1.6269    0.5710    0.0000 C   0  0  0  0  0  0  0  0  0  0  0  0
    1.6269    2.2272    0.0000 C   0  0  0  0  0  0  0  0  0  0  0  0
    3.0492   -0.2494    0.0000 O   0  0  0  0  0  0  0  0  0  0  0  0
    4.4806   -0.2494    0.0000 C   0  0  0  0  0  0  0  0  0  0  0  0
    0.9143    1.8101    0.0000 C   0  0  0  0  0  0  0  0  0  0  0  0
    0.2032    2.2180    0.0000 O   0  0  0  0  0  0  0  0  0  0  0  0
    0.9143    0.9836    0.0000 C   0  0  0  0  0  0  0  0  0  0  0  0
   -1.2221    2.2180    0.0000 C   0  0  0  0  0  0  0  0  0  0  0  0
   -0.5018    1.8101    0.0000 C   0  0  0  0  0  0  0  0  0  0  0  0
   -2.6428    3.0446    0.0000 C   0  0  0  0  0  0  0  0  0  0  0  0
   -1.2129    3.0446    0.0000 C   0  0  0  0  0  0  0  0  0  0  0  0
   -1.9194    1.8101    0.0000 C   0  0  0  0  0  0  0  0  0  0  0  0
    3.7603   -0.6526    0.0000 O   0  0  0  0  0  0  0  0  0  0  0  0
   -1.9332    3.4586    0.0000 C   0  0  0  0  0  0  0  0  0  0  0  0
   -2.6428    2.2180    0.0000 C   0  0  0  0  0  0  0  0  0  0  0  0
    5.1964    0.9836    0.0000 C   0  0  0  0  0  0  0  0  0  0  0  0
    5.1917   -0.6526    0.0000 C   0  0  0  0  0  0  0  0  0  0  0  0
   -3.3447    3.4586    0.0000 C   0  0  0  0  0  0  0  0  0  0  0  0
    3.7603   -1.4838    0.0000 C   0  0  0  0  0  0  0  0  0  0  0  0
    5.9105    0.5710    0.0000 C   0  0  0  0  0  0  0  0  0  0  0  0
    5.9105   -0.2540    0.0000 C   0  0  0  0  0  0  0  0  0  0  0  0
  2  1  1  0  0  0  0
  3  2  1  0  0  0  0
  4  1  2  0  0  0  0
  5  6  1  0  0  0  0
  6  4  1  0  0  0  0
  7  1  1  0  0  0  0
  8  3  2  0  0  0  0
  9  5  2  0  0  0  0
 10  2  2  0  0  0  0
 11  7  2  0  0  0  0
 12  9  1  0  0  0  0
 13 12  1  0  0  0  0
 14  8  1  0  0  0  0
 15 16  1  0  0  0  0
 16 13  1  0  0  0  0
 17 22  1  0  0  0  0
 18 15  2  0  0  0  0
 19 15  1  0  0  0  0
 20 11  1  0  0  0  0
 21 18  1  0  0  0  0
 22 19  2  0  0  0  0
 23  7  1  0  0  0  0
 24 11  1  0  0  0  0
 25 17  1  0  0  0  0
 26 20  1  0  0  0  0
 27 23  2  0  0  0  0
 28 27  1  0  0  0  0
  5  3  1  0  0  0  0
 24 28  2  0  0  0  0
 12 14  2  0  0  0  0
 21 17  2  0  0  0  0
M  END
>  <IDNUMBER>
F0916-2583

>  <Chemical_Name>
3-(2-methoxyphenyl)-7-[(4-methylphenyl)methoxy]-4H-chromen-4-one

>  <PriceCoeff>
1.00

>  <CAS>
329224-97-7

>  <MW>
372.41

>  <Description>
solid

>  <FSP3>
0.12

>  <clogP>
4.73

>  <TPSA>
44.76

>  <Acceptor>
4

>  <Donor>
0

>  <RotBonds>
5

>  <HAC>
28

>  <Collection>
General

>  <PPDS>
+

$$$$
F0917-0657
  Mrv2219 10102508112D          

 12 12  0  0  0  0            999 V2000
    6.6610   -3.8499    0.0000 C   0  0  0  0  0  0  0  0  0  0  0  0
    5.2381   -3.8499    0.0000 S   0  0  0  0  0  0  0  0  0  0  0  0
    6.6552   -3.0204    0.0000 O   0  0  0  0  0  0  0  0  0  0  0  0
    5.9505   -4.2627    0.0000 C   0  0  0  0  0  0  0  0  0  0  0  0
    4.5296   -4.2627    0.0000 C   0  0  0  0  0  0  0  0  0  0  0  0
    3.1049   -5.0884    0.0000 C   0  0  0  0  0  0  0  0  0  0  0  0
    7.3733   -4.2531    0.0000 O   0  0  0  0  0  0  0  0  0  0  0  0
    2.3848   -5.4974    0.0000 F   0  0  0  0  0  0  0  0  0  0  0  0
    4.5296   -5.0884    0.0000 C   0  0  0  0  0  0  0  0  0  0  0  0
    3.8153   -3.8499    0.0000 C   0  0  0  0  0  0  0  0  0  0  0  0
    3.8153   -5.5012    0.0000 C   0  0  0  0  0  0  0  0  0  0  0  0
    3.1049   -4.2627    0.0000 C   0  0  0  0  0  0  0  0  0  0  0  0
  2  4  1  0  0  0  0
  3  1  2  0  0  0  0
  4  1  1  0  0  0  0
  5  2  1  0  0  0  0
  6 12  2  0  0  0  0
  7  1  1  0  0  0  0
  8  6  1  0  0  0  0
  9  5  1  0  0  0  0
 10  5  2  0  0  0  0
 11  9  2  0  0  0  0
 12 10  1  0  0  0  0
 11  6  1  0  0  0  0
M  END
>  <IDNUMBER>
F0917-0657

>  <Chemical_Name>
2-[(4-fluorophenyl)sulfanyl]acetic acid

>  <PriceCoeff>
1.00

>  <CAS>
332-51-4

>  <MW>
186.21

>  <Description>
solid

>  <FSP3>
0.13

>  <clogP>
2.00

>  <TPSA>
37.30

>  <Acceptor>
2

>  <Donor>
0

>  <RotBonds>
3

>  <HAC>
12

>  <Collection>
General

>  <PPDS>
+

$$$$
F0918-0101
  Mrv2219 10102508112D          

 17 18  0  0  0  0            999 V2000
    1.2817   -1.0701    0.0000 S   0  0  0  0  0  0  0  0  0  0  0  0
    1.2817   -0.2432    0.0000 O   0  0  0  0  0  0  0  0  0  0  0  0
    2.1002   -1.0701    0.0000 O   0  0  0  0  0  0  0  0  0  0  0  0
    0.4353   -1.0701    0.0000 O   0  0  0  0  0  0  0  0  0  0  0  0
    1.2817   -1.9165    0.0000 C   0  0  0  0  0  0  0  0  0  0  0  0
    0.5550    0.1559    0.0000 C   0  0  0  0  0  0  0  0  0  0  0  0
   -0.8631    1.0023    0.0000 C   0  0  0  0  0  0  0  0  0  0  0  0
   -1.5768    1.4209    0.0000 Cl  0  0  0  0  0  0  0  0  0  0  0  0
    0.5745    0.9782    0.0000 C   0  0  0  0  0  0  0  0  0  0  0  0
   -0.1559   -0.2432    0.0000 C   0  0  0  0  0  0  0  0  0  0  0  0
   -0.1411    1.4014    0.0000 C   0  0  0  0  0  0  0  0  0  0  0  0
   -0.8631    0.1559    0.0000 C   0  0  0  0  0  0  0  0  0  0  0  0
    1.9935   -2.3165    0.0000 C   0  0  0  0  0  0  0  0  0  0  0  0
    0.5550   -2.3165    0.0000 C   0  0  0  0  0  0  0  0  0  0  0  0
    2.0130   -3.1193    0.0000 C   0  0  0  0  0  0  0  0  0  0  0  0
    0.5745   -3.1434    0.0000 C   0  0  0  0  0  0  0  0  0  0  0  0
    1.2817   -3.5638    0.0000 C   0  0  0  0  0  0  0  0  0  0  0  0
  2  1  1  0  0  0  0
  3  1  2  0  0  0  0
  4  1  2  0  0  0  0
  5  1  1  0  0  0  0
  6  2  1  0  0  0  0
  7 12  2  0  0  0  0
  8  7  1  0  0  0  0
  9  6  1  0  0  0  0
 10  6  2  0  0  0  0
 11  9  2  0  0  0  0
 12 10  1  0  0  0  0
 13  5  2  0  0  0  0
 14  5  1  0  0  0  0
 15 13  1  0  0  0  0
 16 14  2  0  0  0  0
 17 16  1  0  0  0  0
 17 15  2  0  0  0  0
  7 11  1  0  0  0  0
M  END
>  <IDNUMBER>
F0918-0101

>  <Chemical_Name>
4-chlorophenyl benzenesulfonate

>  <PriceCoeff>
1.00

>  <CAS>
80-38-6

>  <MW>
268.72

>  <Description>
solid

>  <FSP3>
0.00

>  <clogP>
3.94

>  <TPSA>
51.75

>  <Acceptor>
3

>  <Donor>
0

>  <RotBonds>
3

>  <HAC>
17

>  <Collection>
General

>  <PPDS>
+

$$$$
F0918-4252
  Mrv2219 10102508112D          

 20 22  0  0  0  0            999 V2000
    3.7592    2.0665    0.0000 C   0  0  0  0  0  0  0  0  0  0  0  0
    3.7592    1.2448    0.0000 C   0  0  0  0  0  0  0  0  0  0  0  0
    2.9792    2.3352    0.0000 N   0  0  0  0  0  0  0  0  0  0  0  0
    4.4712    2.4835    0.0000 N   0  0  0  0  0  0  0  0  0  0  0  0
    2.4927    1.6495    0.0000 C   0  0  0  0  0  0  0  0  0  0  0  0
    5.1847    1.2448    0.0000 N   0  0  0  0  0  0  0  0  0  0  0  0
    5.1847    2.0665    0.0000 C   0  0  0  0  0  0  0  0  0  0  0  0
    4.4712    0.8340    0.0000 C   0  0  0  0  0  0  0  0  0  0  0  0
    2.9792    0.9823    0.0000 N   0  0  0  0  0  0  0  0  0  0  0  0
    1.6587    1.5753    0.0000 N   0  0  0  0  0  0  0  0  0  0  0  0
    5.9307    2.4835    0.0000 O   0  0  0  0  0  0  0  0  0  0  0  0
    4.4712    0.0000    0.0000 O   0  0  0  0  0  0  0  0  0  0  0  0
    0.0000    1.4317    0.0000 N   0  0  0  0  0  0  0  0  0  0  0  0
    4.4712    3.3128    0.0000 C   0  0  0  0  0  0  0  0  0  0  0  0
    5.9307    0.8340    0.0000 C   0  0  0  0  0  0  0  0  0  0  0  0
    2.7105    0.1761    0.0000 C   0  0  0  0  0  0  0  0  0  0  0  0
    1.3159    0.8340    0.0000 C   0  0  0  0  0  0  0  0  0  0  0  0
    1.1954    2.2580    0.0000 C   0  0  0  0  0  0  0  0  0  0  0  0
    0.5097    0.7367    0.0000 C   0  0  0  0  0  0  0  0  0  0  0  0
    0.3614    2.1869    0.0000 C   0  0  0  0  0  0  0  0  0  0  0  0
  2  1  2  0  0  0  0
  3  1  1  0  0  0  0
  4  1  1  0  0  0  0
  5  3  2  0  0  0  0
  6  7  1  0  0  0  0
  7  4  1  0  0  0  0
  8  2  1  0  0  0  0
  9  2  1  0  0  0  0
 10  5  1  0  0  0  0
 11  7  2  0  0  0  0
 12  8  2  0  0  0  0
 13 20  1  0  0  0  0
 14  4  1  0  0  0  0
 15  6  1  0  0  0  0
 16  9  1  0  0  0  0
 17 10  1  0  0  0  0
 18 10  1  0  0  0  0
 19 17  1  0  0  0  0
 20 18  1  0  0  0  0
  5  9  1  0  0  0  0
  8  6  1  0  0  0  0
 13 19  1  0  0  0  0
M  END
>  <IDNUMBER>
F0918-4252

>  <Chemical_Name>
1,3,7-trimethyl-8-(piperazin-1-yl)-2,3,6,7-tetrahydro-1H-purine-2,6-dione

>  <PriceCoeff>
1.00

>  <CAS>
50693-74-8

>  <MW>
278.31

>  <Description>
solid

>  <FSP3>
0.58

>  <clogP>
-0.06

>  <TPSA>
73.71

>  <Acceptor>
4

>  <Donor>
3

>  <RotBonds>
1

>  <HAC>
20

>  <Collection>
General

>  <PPDS>
+

$$$$
F0918-6187
  Mrv2219 10102508112D          

 22 23  0  0  0  0            999 V2000
   -6.4535    6.0395    0.0000 C   0  0  0  0  0  0  0  0  0  0  0  0
   -6.0274    6.7503    0.0000 C   0  0  0  0  0  0  0  0  0  0  0  0
   -5.9204    5.4236    0.0000 N   0  0  0  0  0  0  0  0  0  0  0  0
   -5.2359    6.5786    0.0000 C   0  0  0  0  0  0  0  0  0  0  0  0
   -5.1571    5.7508    0.0000 N   0  0  0  0  0  0  0  0  0  0  0  0
   -7.2773    5.9628    0.0000 N   0  3  0  0  0  0  0  0  0  0  0  0
   -4.4544    2.0354    0.0000 C   0  0  0  0  0  0  0  0  0  0  0  0
   -5.1208    1.5487    0.0000 N   0  0  0  0  0  0  0  0  0  0  0  0
   -3.8063    1.5669    0.0000 C   0  0  0  0  0  0  0  0  0  0  0  0
   -4.4544    2.8673    0.0000 N   0  0  0  0  0  0  0  0  0  0  0  0
   -4.8603    0.7733    0.0000 O   0  0  0  0  0  0  0  0  0  0  0  0
   -4.0425    0.7855    0.0000 C   0  0  0  0  0  0  0  0  0  0  0  0
   -7.7538    6.6412    0.0000 O   0  5  0  0  0  0  0  0  0  0  0  0
   -3.7396    3.2833    0.0000 C   0  0  0  0  0  0  0  0  0  0  0  0
   -7.6226    5.2116    0.0000 O   0  0  0  0  0  0  0  0  0  0  0  0
   -6.3505    7.5257    0.0000 Cl  0  0  0  0  0  0  0  0  0  0  0  0
   -3.0309    2.8734    0.0000 O   0  0  0  0  0  0  0  0  0  0  0  0
   -4.4423    5.3388    0.0000 C   0  0  0  0  0  0  0  0  0  0  0  0
   -4.6180    7.1259    0.0000 C   0  0  0  0  0  0  0  0  0  0  0  0
   -4.4544    4.5150    0.0000 C   0  0  0  0  0  0  0  0  0  0  0  0
   -3.7396    4.1031    0.0000 C   0  0  0  0  0  0  0  0  0  0  0  0
   -3.5437    0.1131    0.0000 C   0  0  0  0  0  0  0  0  0  0  0  0
  2  1  1  0  0  0  0
  3  1  2  0  0  0  0
  4  2  2  0  0  0  0
  5  3  1  0  0  0  0
  6  1  1  0  0  0  0
  7 10  1  0  0  0  0
  8  7  2  0  0  0  0
  9  7  1  0  0  0  0
 10 14  1  0  0  0  0
 11  8  1  0  0  0  0
 12  9  2  0  0  0  0
 13  6  1  0  0  0  0
 14 21  1  0  0  0  0
 15  6  2  0  0  0  0
 16  2  1  0  0  0  0
 17 14  2  0  0  0  0
 18  5  1  0  0  0  0
 19  4  1  0  0  0  0
 20 18  1  0  0  0  0
 21 20  1  0  0  0  0
 22 12  1  0  0  0  0
  4  5  1  0  0  0  0
 12 11  1  0  0  0  0
M  CHG  2   6   1  13  -1
M  END
>  <IDNUMBER>
F0918-6187

>  <Chemical_Name>
4-(4-chloro-5-methyl-3-nitro-1H-pyrazol-1-yl)-N-(5-methyl-1,2-oxazol-3-yl)butanamide

>  <PriceCoeff>
1.00

>  <CAS>
852691-53-3

>  <MW>
327.72

>  <Description>
solid

>  <FSP3>
0.42

>  <clogP>
1.57

>  <TPSA>
116.09

>  <Acceptor>
6

>  <Donor>
1

>  <RotBonds>
6

>  <HAC>
22

>  <Collection>
General

>  <PPDS>
+

$$$$
F0918-6267
  Mrv2219 10102508112D          

 16 18  0  0  0  0            999 V2000
    3.3048   -0.8362    0.0000 C   0  0  0  0  0  0  0  0  0  0  0  0
    3.8975   -0.2532    0.0000 N   0  0  0  0  0  0  0  0  0  0  0  0
    2.3748    1.1697    0.0000 C   0  0  0  0  0  0  0  0  0  0  0  0
    3.2609    0.4455    0.0000 C   0  0  0  0  0  0  0  0  0  0  0  0
    3.8975    0.5685    0.0000 C   0  0  0  0  0  0  0  0  0  0  0  0
    2.4807   -0.8362    0.0000 O   0  0  0  0  0  0  0  0  0  0  0  0
    3.3267    1.1576    0.0000 N   0  0  0  0  0  0  0  0  0  0  0  0
    1.9038    0.5904    0.0000 C   0  0  0  0  0  0  0  0  0  0  0  0
    1.9038   -0.2410    0.0000 C   0  0  0  0  0  0  0  0  0  0  0  0
    4.6741    0.8824    0.0000 S   0  0  0  0  0  0  0  0  0  0  0  0
    3.4362   -1.6481    0.0000 C   0  0  0  0  0  0  0  0  0  0  0  0
    3.8817    0.9993    0.0000 C   0  0  0  0  0  0  0  0  0  0  0  0
    1.1916    0.9993    0.0000 C   0  0  0  0  0  0  0  0  0  0  0  0
    1.1880   -0.6513    0.0000 C   0  0  0  0  0  0  0  0  0  0  0  0
    0.4796    0.5904    0.0000 C   0  0  0  0  0  0  0  0  0  0  0  0
    0.4747   -0.2276    0.0000 C   0  0  0  0  0  0  0  0  0  0  0  0
  2  1  1  0  0  0  0
  3  4  1  0  0  0  0
  4  1  1  0  0  0  0
  5  2  1  0  0  0  0
  6  1  1  0  0  0  0
  7  3  1  0  0  0  0
  8  9  1  0  0  0  0
  9  6  1  0  0  0  0
 10  5  2  0  0  0  0
 11  1  1  0  0  0  0
 12  4  1  0  0  0  0
 13  8  2  0  0  0  0
 14  9  2  0  0  0  0
 15 16  2  0  0  0  0
 16 14  1  0  0  0  0
  3  8  1  0  0  0  0
  7  5  1  0  0  0  0
 15 13  1  0  0  0  0
M  END
>  <IDNUMBER>
F0918-6267

>  <Chemical_Name>
9,13-dimethyl-8-oxa-10,12-diazatricyclo[7.3.1.0?,?]trideca-2(7),3,5-triene-11-thione

>  <PriceCoeff>
1.00

>  <CAS>
1005287-24-0

>  <MW>
234.32

>  <Description>
solid

>  <FSP3>
0.42

>  <clogP>
1.95

>  <TPSA>
65.38

>  <Acceptor>
2

>  <Donor>
2

>  <RotBonds>
0

>  <HAC>
16

>  <Collection>
General

>  <PPDS>
+

$$$$
F0918-7910
  Mrv2219 10102508112D          

 10 11  0  0  0  0            999 V2000
    0.1870   -0.1495    0.0000 N   0  0  0  0  0  0  0  0  0  0  0  0
    0.6742    0.5205    0.0000 C   0  0  0  0  0  0  0  0  0  0  0  0
   -0.6024    0.1062    0.0000 C   0  0  0  0  0  0  0  0  0  0  0  0
   -0.6034    0.9352    0.0000 C   0  0  0  0  0  0  0  0  0  0  0  0
    0.1860    1.1920    0.0000 C   0  0  0  0  0  0  0  0  0  0  0  0
    1.4985    0.5205    0.0000 O   0  0  0  0  0  0  0  0  0  0  0  0
   -1.3146   -0.3065    0.0000 C   0  0  0  0  0  0  0  0  0  0  0  0
   -1.3162    1.3442    0.0000 C   0  0  0  0  0  0  0  0  0  0  0  0
   -2.0274    0.9310    0.0000 C   0  0  0  0  0  0  0  0  0  0  0  0
   -2.0290    0.1062    0.0000 C   0  0  0  0  0  0  0  0  0  0  0  0
  2  1  1  0  0  0  0
  3  1  1  0  0  0  0
  4  3  1  0  0  0  0
  5  2  1  0  0  0  0
  6  2  2  0  0  0  0
  7  3  2  0  0  0  0
  8  4  2  0  0  0  0
  9 10  2  0  0  0  0
 10  7  1  0  0  0  0
  4  5  1  0  0  0  0
  9  8  1  0  0  0  0
M  END
>  <IDNUMBER>
F0918-7910

>  <Chemical_Name>
2,3-dihydro-1H-indol-2-one

>  <PriceCoeff>
1.00

>  <CAS>
59-48-3

>  <MW>
133.15

>  <Description>
solid

>  <FSP3>
0.13

>  <clogP>
1.18

>  <TPSA>
29.10

>  <Acceptor>
1

>  <Donor>
1

>  <RotBonds>
0

>  <HAC>
10

>  <Collection>
General

>  <PPDS>
+

$$$$
F0919-4623
  Mrv2219 10102508112D          

 13 14  0  0  0  0            999 V2000
    2.7049   -1.3918    0.0000 C   0  0  0  0  0  0  0  0  0  0  0  0
    1.9932   -2.6387    0.0000 C   0  0  0  0  0  0  0  0  0  0  0  0
    2.7122   -3.0418    0.0000 C   0  0  0  0  0  0  0  0  0  0  0  0
    3.4197   -2.6387    0.0000 C   0  0  0  0  0  0  0  0  0  0  0  0
    1.9932   -1.8137    0.0000 C   0  0  0  0  0  0  0  0  0  0  0  0
    3.4197   -1.8137    0.0000 C   0  0  0  0  0  0  0  0  0  0  0  0
    2.8812   -3.8448    0.0000 O   0  0  0  0  0  0  0  0  0  0  0  0
    4.0305   -3.1835    0.0000 O   0  0  0  0  0  0  0  0  0  0  0  0
    3.6968   -3.9329    0.0000 C   0  0  0  0  0  0  0  0  0  0  0  0
    2.7049   -0.5668    0.0000 C   0  0  0  0  0  0  0  0  0  0  0  0
    3.4197   -0.1543    0.0000 O   0  0  0  0  0  0  0  0  0  0  0  0
    1.2784   -1.4044    0.0000 O   0  0  0  0  0  0  0  0  0  0  0  0
    0.5668   -1.8169    0.0000 C   0  0  0  0  0  0  0  0  0  0  0  0
  2  5  2  0  0  0  0
  3  4  2  0  0  0  0
  4  6  1  0  0  0  0
  5  1  1  0  0  0  0
  6  1  2  0  0  0  0
  7  3  1  0  0  0  0
  8  4  1  0  0  0  0
  9  8  1  0  0  0  0
 10  1  1  0  0  0  0
 11 10  2  0  0  0  0
 12  5  1  0  0  0  0
 13 12  1  0  0  0  0
  2  3  1  0  0  0  0
  7  9  1  0  0  0  0
M  END
>  <IDNUMBER>
F0919-4623

>  <Chemical_Name>
6-methoxy-2H-1,3-benzodioxole-5-carbaldehyde

>  <PriceCoeff>
1.00

>  <CAS>
5780-00-7

>  <MW>
180.16

>  <Description>
solid

>  <FSP3>
0.22

>  <clogP>
1.15

>  <TPSA>
44.76

>  <Acceptor>
4

>  <Donor>
0

>  <RotBonds>
2

>  <HAC>
13

>  <Collection>
General

>  <PPDS>
+

$$$$
F0920-5439
  Mrv2219 10102508112D          

 34 36  0  0  0  0            999 V2000
    2.1699   -1.3480    0.0000 C   0  0  0  0  0  0  0  0  0  0  0  0
    3.5901   -1.3480    0.0000 C   0  0  0  0  0  0  0  0  0  0  0  0
    2.8792   -0.9328    0.0000 C   0  0  0  0  0  0  0  0  0  0  0  0
    1.4589   -0.9379    0.0000 C   0  0  0  0  0  0  0  0  0  0  0  0
    2.1699   -2.1699    0.0000 C   0  0  0  0  0  0  0  0  0  0  0  0
    3.5901   -2.1699    0.0000 C   0  0  0  0  0  0  0  0  0  0  0  0
    4.3112   -0.9379    0.0000 C   0  0  0  0  0  0  0  0  0  0  0  0
    0.7379   -1.3480    0.0000 C   0  0  0  0  0  0  0  0  0  0  0  0
    2.8792   -2.5817    0.0000 N   0  0  0  0  0  0  0  0  0  0  0  0
    2.8792   -0.1025    0.0000 C   0  0  0  0  0  0  0  0  0  0  0  0
    0.7379   -2.1699    0.0000 C   0  0  0  0  0  0  0  0  0  0  0  0
    2.8792    1.5564    0.0000 C   0  0  0  0  0  0  0  0  0  0  0  0
    0.0269   -0.9328    0.0000 C   0  0  0  0  0  0  0  0  0  0  0  0
    1.4589   -2.5884    0.0000 C   0  0  0  0  0  0  0  0  0  0  0  0
    2.1581    1.1429    0.0000 C   0  0  0  0  0  0  0  0  0  0  0  0
    3.6019    1.1429    0.0000 C   0  0  0  0  0  0  0  0  0  0  0  0
    2.1648    0.3076    0.0000 C   0  0  0  0  0  0  0  0  0  0  0  0
    3.6019    0.3126    0.0000 C   0  0  0  0  0  0  0  0  0  0  0  0
    5.0221   -1.3480    0.0000 O   0  0  0  0  0  0  0  0  0  0  0  0
    1.4589   -0.1109    0.0000 O   0  0  0  0  0  0  0  0  0  0  0  0
    4.3112   -0.1109    0.0000 O   0  0  0  0  0  0  0  0  0  0  0  0
    0.0269   -0.1025    0.0000 O   0  0  0  0  0  0  0  0  0  0  0  0
    1.4438    1.5564    0.0000 Cl  0  0  0  0  0  0  0  0  0  0  0  0
    2.8792    2.3817    0.0000 O   0  0  0  0  0  0  0  0  0  0  0  0
   -0.6941   -1.3429    0.0000 O   0  0  0  0  0  0  0  0  0  0  0  0
    4.3112    1.5564    0.0000 O   0  0  0  0  0  0  0  0  0  0  0  0
    4.3112   -2.5884    0.0000 C   0  0  0  0  0  0  0  0  0  0  0  0
    0.0269   -2.5817    0.0000 C   0  0  0  0  0  0  0  0  0  0  0  0
    5.7432   -0.9379    0.0000 C   0  0  0  0  0  0  0  0  0  0  0  0
    5.0339    1.1429    0.0000 C   0  0  0  0  0  0  0  0  0  0  0  0
   -1.4051   -0.9328    0.0000 C   0  0  0  0  0  0  0  0  0  0  0  0
    5.7432   -0.1160    0.0000 C   0  0  0  0  0  0  0  0  0  0  0  0
    6.4542   -1.3564    0.0000 C   0  0  0  0  0  0  0  0  0  0  0  0
    5.7432    1.5581    0.0000 C   0  0  0  0  0  0  0  0  0  0  0  0
  2  3  1  0  0  0  0
  3  1  1  0  0  0  0
  4  1  1  0  0  0  0
  5  1  2  0  0  0  0
  6  9  1  0  0  0  0
  7  2  1  0  0  0  0
  8  4  1  0  0  0  0
  9  5  1  0  0  0  0
 10  3  1  0  0  0  0
 11 14  1  0  0  0  0
 12 16  2  0  0  0  0
 13  8  1  0  0  0  0
 14  5  1  0  0  0  0
 15 17  2  0  0  0  0
 16 18  1  0  0  0  0
 17 10  1  0  0  0  0
 18 10  2  0  0  0  0
 19  7  1  0  0  0  0
 20  4  2  0  0  0  0
 21  7  2  0  0  0  0
 22 13  2  0  0  0  0
 23 15  1  0  0  0  0
 24 12  1  0  0  0  0
 25 13  1  0  0  0  0
 26 16  1  0  0  0  0
 27  6  1  0  0  0  0
 28 11  1  0  0  0  0
 29 19  1  0  0  0  0
 30 26  1  0  0  0  0
 31 25  1  0  0  0  0
 32 29  1  0  0  0  0
 33 29  1  0  0  0  0
 34 30  1  0  0  0  0
 11  8  1  0  0  0  0
  2  6  2  0  0  0  0
 15 12  1  0  0  0  0
M  END
>  <IDNUMBER>
F0920-5439

>  <Chemical_Name>
6-methyl 3-propan-2-yl 4-(3-chloro-5-ethoxy-4-hydroxyphenyl)-2,7-dimethyl-5-oxo-1,4,5,6,7,8-hexahydroquinoline-3,6-dicarboxylate

>  <PriceCoeff>
1.00

>  <CAS>
1005122-65-5

>  <MW>
491.96

>  <Description>
solid

>  <FSP3>
0.48

>  <clogP>
3.91

>  <TPSA>
111.16

>  <Acceptor>
7

>  <Donor>
2

>  <RotBonds>
8

>  <HAC>
34

>  <Collection>
General

>  <PPDS>
+

$$$$
F0920-6579
  Mrv2219 10102508112D          

 17 19  0  0  0  0            999 V2000
    6.4215   -4.0142    0.0000 C   0  0  0  0  0  0  0  0  0  0  0  0
    7.1423   -3.5793    0.0000 N   0  0  0  0  0  0  0  0  0  0  0  0
    7.1321   -2.7585    0.0000 C   0  0  0  0  0  0  0  0  0  0  0  0
    5.7089   -2.7708    0.0000 C   0  0  0  0  0  0  0  0  0  0  0  0
    4.9881   -4.0142    0.0000 C   0  0  0  0  0  0  0  0  0  0  0  0
    6.4194   -2.3542    0.0000 N   0  0  0  0  0  0  0  0  0  0  0  0
    4.9881   -3.1873    0.0000 C   0  0  0  0  0  0  0  0  0  0  0  0
    5.6987   -4.4287    0.0000 O   0  0  0  0  0  0  0  0  0  0  0  0
    6.4215   -3.1873    0.0000 C   0  0  0  0  0  0  0  0  0  0  0  0
    7.8405   -2.3338    0.0000 O   0  0  0  0  0  0  0  0  0  0  0  0
    4.2776   -4.4287    0.0000 C   0  0  0  0  0  0  0  0  0  0  0  0
    6.4317   -4.8391    0.0000 C   0  0  0  0  0  0  0  0  0  0  0  0
    4.2776   -2.7769    0.0000 C   0  0  0  0  0  0  0  0  0  0  0  0
    4.2756   -5.2393    0.0000 O   0  0  0  0  0  0  0  0  0  0  0  0
    3.5670   -3.1873    0.0000 C   0  0  0  0  0  0  0  0  0  0  0  0
    3.5670   -4.0142    0.0000 C   0  0  0  0  0  0  0  0  0  0  0  0
    4.9861   -5.6559    0.0000 C   0  0  0  0  0  0  0  0  0  0  0  0
  2  1  1  0  0  0  0
  3  2  1  0  0  0  0
  4  9  1  0  0  0  0
  5  8  1  0  0  0  0
  6  4  1  0  0  0  0
  7  4  1  0  0  0  0
  8  1  1  0  0  0  0
  9  1  1  0  0  0  0
 10  3  2  0  0  0  0
 11  5  2  0  0  0  0
 12  1  1  0  0  0  0
 13  7  2  0  0  0  0
 14 11  1  0  0  0  0
 15 13  1  0  0  0  0
 16 11  1  0  0  0  0
 17 14  1  0  0  0  0
  7  5  1  0  0  0  0
  6  3  1  0  0  0  0
 15 16  2  0  0  0  0
M  END
>  <IDNUMBER>
F0920-6579

>  <Chemical_Name>
6-methoxy-9-methyl-8-oxa-10,12-diazatricyclo[7.3.1.0?,?]trideca-2,4,6-trien-11-one

>  <PriceCoeff>
1.00

>  <CAS>
702667-76-3

>  <MW>
234.25

>  <Description>
solid

>  <FSP3>
0.42

>  <clogP>
1.32

>  <TPSA>
59.59

>  <Acceptor>
3

>  <Donor>
2

>  <RotBonds>
1

>  <HAC>
17

>  <Collection>
General

>  <PPDS>
+

$$$$
F0921-1014
  Mrv2219 10102508112D          

 20 22  0  0  0  0            999 V2000
    0.1562   -2.1892    0.0000 C   0  0  0  0  0  0  0  0  0  0  0  0
    0.7642   -1.6776    0.0000 O   0  0  0  0  0  0  0  0  0  0  0  0
    0.5071   -0.9330    0.0000 C   0  0  0  0  0  0  0  0  0  0  0  0
   -0.5134   -1.7088    0.0000 C   0  0  0  0  0  0  0  0  0  0  0  0
   -0.3000   -0.9330    0.0000 C   0  0  0  0  0  0  0  0  0  0  0  0
    0.9116   -0.2179    0.0000 C   0  0  0  0  0  0  0  0  0  0  0  0
    1.7633   -0.1562    0.0000 C   0  0  0  0  0  0  0  0  0  0  0  0
    2.1490    0.5134    0.0000 C   0  0  0  0  0  0  0  0  0  0  0  0
    0.1821   -3.0480    0.0000 O   0  0  0  0  0  0  0  0  0  0  0  0
    2.1892   -0.9116    0.0000 O   0  0  0  0  0  0  0  0  0  0  0  0
    3.0168    0.5134    0.0000 C   0  0  0  0  0  0  0  0  0  0  0  0
    1.7392    1.2115    0.0000 C   0  0  0  0  0  0  0  0  0  0  0  0
    2.1892    1.9472    0.0000 C   0  0  0  0  0  0  0  0  0  0  0  0
    3.4284    1.2410    0.0000 C   0  0  0  0  0  0  0  0  0  0  0  0
    2.9552    1.9472    0.0000 C   0  0  0  0  0  0  0  0  0  0  0  0
   -1.3321   -1.9213    0.0000 C   0  0  0  0  0  0  0  0  0  0  0  0
   -0.8678   -0.3384    0.0000 C   0  0  0  0  0  0  0  0  0  0  0  0
    3.4078    2.6874    0.0000 C   0  0  0  0  0  0  0  0  0  0  0  0
   -1.9017   -1.3133    0.0000 C   0  0  0  0  0  0  0  0  0  0  0  0
   -1.6669   -0.5473    0.0000 C   0  0  0  0  0  0  0  0  0  0  0  0
  2  1  1  0  0  0  0
  3  2  1  0  0  0  0
  4  1  1  0  0  0  0
  5  4  2  0  0  0  0
  6  3  1  0  0  0  0
  7  6  1  0  0  0  0
  8  7  1  0  0  0  0
  9  1  2  0  0  0  0
 10  7  2  0  0  0  0
 11  8  1  0  0  0  0
 12  8  2  0  0  0  0
 13 12  1  0  0  0  0
 14 11  2  0  0  0  0
 15 13  2  0  0  0  0
 16  4  1  0  0  0  0
 17  5  1  0  0  0  0
 18 15  1  0  0  0  0
 19 16  2  0  0  0  0
 20 19  1  0  0  0  0
  3  5  1  0  0  0  0
 20 17  2  0  0  0  0
 15 14  1  0  0  0  0
M  END
>  <IDNUMBER>
F0921-1014

>  <Chemical_Name>
3-[2-(4-methylphenyl)-2-oxoethyl]-1,3-dihydro-2-benzofuran-1-one

>  <PriceCoeff>
1.00

>  <CAS>
69322-22-1

>  <MW>
266.29

>  <Description>
solid

>  <FSP3>
0.18

>  <clogP>
2.57

>  <TPSA>
43.37

>  <Acceptor>
3

>  <Donor>
0

>  <RotBonds>
3

>  <HAC>
20

>  <Collection>
General

>  <PPDS>
+

$$$$
F0921-2538
  Mrv2219 10102508112D          

 19 20  0  0  0  0            999 V2000
   -1.0424    0.8086    0.0000 C   0  0  0  0  0  0  0  0  0  0  0  0
   -0.3168    0.4020    0.0000 O   0  0  0  0  0  0  0  0  0  0  0  0
   -0.3092   -0.4148    0.0000 C   0  0  0  0  0  0  0  0  0  0  0  0
    0.3967   -0.8418    0.0000 C   0  0  0  0  0  0  0  0  0  0  0  0
    0.3967   -1.6519    0.0000 C   0  0  0  0  0  0  0  0  0  0  0  0
   -1.0424    1.6594    0.0000 N   0  0  0  0  0  0  0  0  0  0  0  0
   -0.3092   -2.0599    0.0000 C   0  0  0  0  0  0  0  0  0  0  0  0
   -1.7590    0.4133    0.0000 O   0  0  0  0  0  0  0  0  0  0  0  0
   -1.0221   -0.8418    0.0000 C   0  0  0  0  0  0  0  0  0  0  0  0
   -1.0221   -1.6519    0.0000 C   0  0  0  0  0  0  0  0  0  0  0  0
   -0.3168   -2.8882    0.0000 Cl  0  0  0  0  0  0  0  0  0  0  0  0
    1.1088   -0.4148    0.0000 C   0  0  0  0  0  0  0  0  0  0  0  0
    1.1088   -2.0599    0.0000 C   0  0  0  0  0  0  0  0  0  0  0  0
   -1.7590    2.0645    0.0000 C   0  0  0  0  0  0  0  0  0  0  0  0
   -0.3386    2.0645    0.0000 C   0  0  0  0  0  0  0  0  0  0  0  0
   -0.3386    2.8965    0.0000 C   0  0  0  0  0  0  0  0  0  0  0  0
   -1.7590    2.8965    0.0000 C   0  0  0  0  0  0  0  0  0  0  0  0
    1.8359   -1.6519    0.0000 C   0  0  0  0  0  0  0  0  0  0  0  0
    1.8359   -0.8418    0.0000 C   0  0  0  0  0  0  0  0  0  0  0  0
  2  1  1  0  0  0  0
  3  2  1  0  0  0  0
  4  3  2  0  0  0  0
  5  4  1  0  0  0  0
  6  1  1  0  0  0  0
  7 10  1  0  0  0  0
  8  1  2  0  0  0  0
  9  3  1  0  0  0  0
 10  9  2  0  0  0  0
 11  7  1  0  0  0  0
 12  4  1  0  0  0  0
 13  5  1  0  0  0  0
 14  6  1  0  0  0  0
 15  6  1  0  0  0  0
 16 15  1  0  0  0  0
 17 14  1  0  0  0  0
 18 19  1  0  0  0  0
 19 12  2  0  0  0  0
  5  7  2  0  0  0  0
 18 13  2  0  0  0  0
M  END
>  <IDNUMBER>
F0921-2538

>  <Chemical_Name>
4-chloronaphthalen-1-yl N,N-diethylcarbamate

>  <PriceCoeff>
1.00

>  <CAS>
431906-85-3

>  <MW>
277.75

>  <Description>
solid

>  <FSP3>
0.27

>  <clogP>
4.51

>  <TPSA>
29.54

>  <Acceptor>
2

>  <Donor>
0

>  <RotBonds>
5

>  <HAC>
19

>  <Collection>
General

$$$$
F0921-3451
  Mrv2219 10102508112D          

 21 23  0  0  0  0            999 V2000
    0.7449   -1.7428    0.0000 C   0  0  0  0  0  0  0  0  0  0  0  0
    0.7331   -0.9314    0.0000 C   0  0  0  0  0  0  0  0  0  0  0  0
    0.0157   -2.1537    0.0000 N   0  0  0  0  0  0  0  0  0  0  0  0
   -0.6927   -0.9314    0.0000 N   0  0  0  0  0  0  0  0  0  0  0  0
   -0.6927   -1.7428    0.0000 C   0  0  0  0  0  0  0  0  0  0  0  0
    0.0157   -0.5127    0.0000 C   0  0  0  0  0  0  0  0  0  0  0  0
    1.5275   -1.9919    0.0000 N   0  0  0  0  0  0  0  0  0  0  0  0
    1.5275   -0.6744    0.0000 N   0  0  0  0  0  0  0  0  0  0  0  0
    2.0167   -1.3280    0.0000 C   0  0  0  0  0  0  0  0  0  0  0  0
    1.7767    0.0965    0.0000 C   0  0  0  0  0  0  0  0  0  0  0  0
   -1.4153   -2.1654    0.0000 O   0  0  0  0  0  0  0  0  0  0  0  0
    0.0157    0.3000    0.0000 O   0  0  0  0  0  0  0  0  0  0  0  0
    0.0157   -2.9820    0.0000 C   0  0  0  0  0  0  0  0  0  0  0  0
   -1.4153   -0.5257    0.0000 C   0  0  0  0  0  0  0  0  0  0  0  0
    2.5881    0.2700    0.0000 C   0  0  0  0  0  0  0  0  0  0  0  0
    4.2043    0.6092    0.0000 C   0  0  0  0  0  0  0  0  0  0  0  0
    5.0092    0.7814    0.0000 Cl  0  0  0  0  0  0  0  0  0  0  0  0
    2.8372    1.0449    0.0000 C   0  0  0  0  0  0  0  0  0  0  0  0
    3.1477   -0.3261    0.0000 C   0  0  0  0  0  0  0  0  0  0  0  0
    3.9565   -0.1526    0.0000 C   0  0  0  0  0  0  0  0  0  0  0  0
    3.6447    1.2158    0.0000 C   0  0  0  0  0  0  0  0  0  0  0  0
  2  1  2  0  0  0  0
  3  1  1  0  0  0  0
  4  5  1  0  0  0  0
  5  3  1  0  0  0  0
  6  2  1  0  0  0  0
  7  1  1  0  0  0  0
  8  2  1  0  0  0  0
  9  7  2  0  0  0  0
 10  8  1  0  0  0  0
 11  5  2  0  0  0  0
 12  6  2  0  0  0  0
 13  3  1  0  0  0  0
 14  4  1  0  0  0  0
 15 10  1  0  0  0  0
 16 20  2  0  0  0  0
 17 16  1  0  0  0  0
 18 15  1  0  0  0  0
 19 15  2  0  0  0  0
 20 19  1  0  0  0  0
 21 18  2  0  0  0  0
  9  8  1  0  0  0  0
  4  6  1  0  0  0  0
 21 16  1  0  0  0  0
M  END
>  <IDNUMBER>
F0921-3451

>  <Chemical_Name>
7-[(4-chlorophenyl)methyl]-1,3-dimethyl-2,3,6,7-tetrahydro-1H-purine-2,6-dione

>  <PriceCoeff>
1.00

>  <CAS>
373614-35-8

>  <MW>
304.73

>  <Description>
solid

>  <FSP3>
0.21

>  <clogP>
2.19

>  <TPSA>
58.44

>  <Acceptor>
3

>  <Donor>
1

>  <RotBonds>
2

>  <HAC>
21

>  <Collection>
General

>  <PPDS>
+

$$$$
F0921-4246
  Mrv2219 10102508112D          

 18 19  0  0  0  0            999 V2000
    7.2652   -4.0693    0.0000 N   0  0  0  0  0  0  0  0  0  0  0  0
    6.5437   -4.4806    0.0000 C   0  0  0  0  0  0  0  0  0  0  0  0
    7.0943   -3.2655    0.0000 C   0  0  0  0  0  0  0  0  0  0  0  0
    6.2779   -3.1769    0.0000 C   0  0  0  0  0  0  0  0  0  0  0  0
    5.9425   -3.9300    0.0000 N   0  0  0  0  0  0  0  0  0  0  0  0
    5.8729   -2.4618    0.0000 C   0  0  0  0  0  0  0  0  0  0  0  0
    6.4551   -5.3097    0.0000 S   0  0  0  0  0  0  0  0  0  0  0  0
    3.8035   -3.1516    0.0000 C   0  0  0  0  0  0  0  0  0  0  0  0
    7.6576   -2.6517    0.0000 O   0  0  0  0  0  0  0  0  0  0  0  0
    5.0439   -2.4555    0.0000 C   0  0  0  0  0  0  0  0  0  0  0  0
    3.3921   -2.4365    0.0000 C   0  0  0  0  0  0  0  0  0  0  0  0
    4.6262   -3.1643    0.0000 C   0  0  0  0  0  0  0  0  0  0  0  0
    8.0183   -4.4173    0.0000 C   0  0  0  0  0  0  0  0  0  0  0  0
    3.8161   -1.7277    0.0000 C   0  0  0  0  0  0  0  0  0  0  0  0
    3.3731   -3.8668    0.0000 Cl  0  0  0  0  0  0  0  0  0  0  0  0
    4.6325   -1.7277    0.0000 C   0  0  0  0  0  0  0  0  0  0  0  0
    2.5694   -2.4302    0.0000 O   0  0  0  0  0  0  0  0  0  0  0  0
    8.1006   -5.2401    0.0000 C   0  0  0  0  0  0  0  0  0  0  0  0
  2  1  1  0  0  0  0
  3  1  1  0  0  0  0
  4  3  1  0  0  0  0
  5  2  1  0  0  0  0
  6  4  2  0  0  0  0
  7  2  2  0  0  0  0
  8 12  2  0  0  0  0
  9  3  2  0  0  0  0
 10  6  1  0  0  0  0
 11 14  2  0  0  0  0
 12 10  1  0  0  0  0
 13  1  1  0  0  0  0
 14 16  1  0  0  0  0
 15  8  1  0  0  0  0
 16 10  2  0  0  0  0
 17 11  1  0  0  0  0
 18 13  1  0  0  0  0
  5  4  1  0  0  0  0
 11  8  1  0  0  0  0
M  END
>  <IDNUMBER>
F0921-4246

>  <Chemical_Name>
(5Z)-5-[(3-chloro-4-hydroxyphenyl)methylidene]-3-ethyl-2-sulfanylideneimidazolidin-4-one

>  <PriceCoeff>
1.00

>  <MW>
282.75

>  <Description>
solid

>  <FSP3>
0.17

>  <clogP>
2.01

>  <TPSA>
84.66

>  <Acceptor>
3

>  <Donor>
2

>  <RotBonds>
2

>  <HAC>
18

>  <Collection>
General

$$$$
F1008-0057
  Mrv2219 10102508112D          

 23 26  0  0  0  0            999 V2000
   -1.2115    1.1818    0.0000 N   0  0  0  0  0  0  0  0  0  0  0  0
   -2.3983    0.3956    0.0000 C   0  0  0  0  0  0  0  0  0  0  0  0
   -1.9730   -0.2967    0.0000 C   0  0  0  0  0  0  0  0  0  0  0  0
   -1.1423   -0.2720    0.0000 N   0  0  0  0  0  0  0  0  0  0  0  0
   -0.7368    0.4697    0.0000 C   0  0  0  0  0  0  0  0  0  0  0  0
   -2.0176    1.1275    0.0000 C   0  0  0  0  0  0  0  0  0  0  0  0
   -2.4923   -0.9346    0.0000 S   0  0  0  0  0  0  0  0  0  0  0  0
   -3.2044    0.1780    0.0000 C   0  0  0  0  0  0  0  0  0  0  0  0
   -3.2290   -0.6281    0.0000 C   0  0  0  0  0  0  0  0  0  0  0  0
   -0.8308    1.9137    0.0000 C   0  0  0  0  0  0  0  0  0  0  0  0
   -2.4725    1.8395    0.0000 O   0  0  0  0  0  0  0  0  0  0  0  0
    0.0940    0.4896    0.0000 S   0  0  0  0  0  0  0  0  0  0  0  0
   -1.2610    2.6060    0.0000 C   0  0  0  0  0  0  0  0  0  0  0  0
   -3.8966    0.6329    0.0000 C   0  0  0  0  0  0  0  0  0  0  0  0
   -3.9708   -1.0286    0.0000 C   0  0  0  0  0  0  0  0  0  0  0  0
    0.0198    1.9384    0.0000 C   0  0  0  0  0  0  0  0  0  0  0  0
   -2.0917    2.5763    0.0000 C   0  0  0  0  0  0  0  0  0  0  0  0
   -0.8851    3.3180    0.0000 C   0  0  0  0  0  0  0  0  0  0  0  0
    0.5192    1.2016    0.0000 C   0  0  0  0  0  0  0  0  0  0  0  0
   -4.6285    0.2522    0.0000 C   0  0  0  0  0  0  0  0  0  0  0  0
   -4.6532   -0.5786    0.0000 C   0  0  0  0  0  0  0  0  0  0  0  0
    0.4005    2.6703    0.0000 C   0  0  0  0  0  0  0  0  0  0  0  0
   -0.0742    3.3626    0.0000 C   0  0  0  0  0  0  0  0  0  0  0  0
  2  6  1  0  0  0  0
  3  2  2  0  0  0  0
  4  5  2  0  0  0  0
  5  1  1  0  0  0  0
  6  1  1  0  0  0  0
  7  3  1  0  0  0  0
  8  2  1  0  0  0  0
  9  8  2  0  0  0  0
 10  1  1  0  0  0  0
 11  6  2  0  0  0  0
 12  5  1  0  0  0  0
 13 10  2  0  0  0  0
 14  8  1  0  0  0  0
 15  9  1  0  0  0  0
 16 10  1  0  0  0  0
 17 13  1  0  0  0  0
 18 13  1  0  0  0  0
 19 12  1  0  0  0  0
 20 14  1  0  0  0  0
 21 20  1  0  0  0  0
 22 16  2  0  0  0  0
 23 22  1  0  0  0  0
  4  3  1  0  0  0  0
 18 23  2  0  0  0  0
  9  7  1  0  0  0  0
 15 21  1  0  0  0  0
M  END
>  <IDNUMBER>
F1008-0057

>  <Chemical_Name>
4-(2-methylphenyl)-5-(methylsulfanyl)-8-thia-4,6-diazatricyclo[7.4.0.0?,?]trideca-1(9),2(7),5-trien-3-one

>  <PriceCoeff>
1.00

>  <CAS>
378753-08-3

>  <MW>
342.48

>  <Description>
solid

>  <FSP3>
0.33

>  <clogP>
5.64

>  <TPSA>
86.21

>  <Acceptor>
2

>  <Donor>
0

>  <RotBonds>
2

>  <HAC>
23

>  <Collection>
General

>  <PPDS>
+

$$$$
F1008-0074
  Mrv2219 10102508112D          

 35 39  0  0  0  0            999 V2000
   -2.3331    1.3513    0.0000 N   0  0  0  0  0  0  0  0  0  0  0  0
   -3.5782    0.6478    0.0000 C   0  0  0  0  0  0  0  0  0  0  0  0
   -3.1581   -0.0810    0.0000 C   0  0  0  0  0  0  0  0  0  0  0  0
   -3.1581    1.3513    0.0000 C   0  0  0  0  0  0  0  0  0  0  0  0
   -2.3331   -0.0607    0.0000 N   0  0  0  0  0  0  0  0  0  0  0  0
   -1.9232    0.6478    0.0000 C   0  0  0  0  0  0  0  0  0  0  0  0
   -3.7199   -0.6884    0.0000 S   0  0  0  0  0  0  0  0  0  0  0  0
   -4.3728    0.4504    0.0000 C   0  0  0  0  0  0  0  0  0  0  0  0
   -4.4487   -0.3492    0.0000 C   0  0  0  0  0  0  0  0  0  0  0  0
   -1.0932    0.6478    0.0000 S   0  0  0  0  0  0  0  0  0  0  0  0
    0.1418    1.3513    0.0000 C   0  0  0  0  0  0  0  0  0  0  0  0
    0.5517    0.6225    0.0000 N   0  0  0  0  0  0  0  0  0  0  0  0
   -2.1661    2.1661    0.0000 C   0  0  0  0  0  0  0  0  0  0  0  0
   -3.5782    2.0801    0.0000 O   0  0  0  0  0  0  0  0  0  0  0  0
   -0.6832    1.3513    0.0000 C   0  0  0  0  0  0  0  0  0  0  0  0
    0.5517    2.0598    0.0000 O   0  0  0  0  0  0  0  0  0  0  0  0
    1.3817    0.6225    0.0000 C   0  0  0  0  0  0  0  0  0  0  0  0
    0.1418   -0.0810    0.0000 C   0  0  0  0  0  0  0  0  0  0  0  0
   -1.2096    2.2724    0.0000 C   0  0  0  0  0  0  0  0  0  0  0  0
   -5.0560    0.9363    0.0000 C   0  0  0  0  0  0  0  0  0  0  0  0
   -5.2028   -0.7136    0.0000 C   0  0  0  0  0  0  0  0  0  0  0  0
    1.7967    1.3513    0.0000 C   0  0  0  0  0  0  0  0  0  0  0  0
    1.7967   -0.0810    0.0000 C   0  0  0  0  0  0  0  0  0  0  0  0
    0.5517   -0.8098    0.0000 C   0  0  0  0  0  0  0  0  0  0  0  0
   -0.6832   -0.0810    0.0000 C   0  0  0  0  0  0  0  0  0  0  0  0
   -1.6398    2.9708    0.0000 C   0  0  0  0  0  0  0  0  0  0  0  0
   -0.3644    2.3028    0.0000 C   0  0  0  0  0  0  0  0  0  0  0  0
   -5.8101    0.6022    0.0000 C   0  0  0  0  0  0  0  0  0  0  0  0
   -5.8860   -0.2277    0.0000 C   0  0  0  0  0  0  0  0  0  0  0  0
    2.6166    1.3513    0.0000 C   0  0  0  0  0  0  0  0  0  0  0  0
    2.6166   -0.0810    0.0000 C   0  0  0  0  0  0  0  0  0  0  0  0
    0.0355    2.9911    0.0000 C   0  0  0  0  0  0  0  0  0  0  0  0
   -1.2096    3.7047    0.0000 C   0  0  0  0  0  0  0  0  0  0  0  0
   -0.3644    3.7047    0.0000 C   0  0  0  0  0  0  0  0  0  0  0  0
    3.0367    0.6478    0.0000 C   0  0  0  0  0  0  0  0  0  0  0  0
  2  4  1  0  0  0  0
  3  5  1  0  0  0  0
  4  1  1  0  0  0  0
  5  6  2  0  0  0  0
  6  1  1  0  0  0  0
  7  3  1  0  0  0  0
  8  2  1  0  0  0  0
  9  8  2  0  0  0  0
 10  6  1  0  0  0  0
 11 15  1  0  0  0  0
 12 11  1  0  0  0  0
 13  1  1  0  0  0  0
 14  4  2  0  0  0  0
 15 10  1  0  0  0  0
 16 11  2  0  0  0  0
 17 12  1  0  0  0  0
 18 12  1  0  0  0  0
 19 13  1  0  0  0  0
 20  8  1  0  0  0  0
 21  9  1  0  0  0  0
 22 17  2  0  0  0  0
 23 17  1  0  0  0  0
 24 18  1  0  0  0  0
 25 18  1  0  0  0  0
 26 19  1  0  0  0  0
 27 19  2  0  0  0  0
 28 20  1  0  0  0  0
 29 28  1  0  0  0  0
 30 22  1  0  0  0  0
 31 23  2  0  0  0  0
 32 27  1  0  0  0  0
 33 26  2  0  0  0  0
 34 32  2  0  0  0  0
 35 31  1  0  0  0  0
  2  3  2  0  0  0  0
  9  7  1  0  0  0  0
 34 33  1  0  0  0  0
 21 29  1  0  0  0  0
 35 30  2  0  0  0  0
M  END
>  <IDNUMBER>
F1008-0074

>  <Chemical_Name>
2-({4-benzyl-3-oxo-8-thia-4,6-diazatricyclo[7.4.0.0?,?]trideca-1(9),2(7),5-trien-5-yl}sulfanyl)-N-phenyl-N-(propan-2-yl)acetamide

>  <PriceCoeff>
1.00

>  <CAS>
361174-99-4

>  <MW>
503.68

>  <Description>
solid

>  <FSP3>
0.32

>  <clogP>
6.37

>  <TPSA>
106.52

>  <Acceptor>
3

>  <Donor>
0

>  <RotBonds>
8

>  <HAC>
35

>  <Collection>
General

>  <PPDS>
+

$$$$
F1008-0085
  Mrv2219 10102508112D          

 31 35  0  0  0  0            999 V2000
   -4.3855   -1.4749    0.0000 C   0  0  0  0  0  0  0  0  0  0  0  0
   -3.8513   -2.1205    0.0000 C   0  0  0  0  0  0  0  0  0  0  0  0
   -3.3169   -0.5732    0.0000 N   0  0  0  0  0  0  0  0  0  0  0  0
   -2.7549   -1.1855    0.0000 C   0  0  0  0  0  0  0  0  0  0  0  0
   -3.0499   -1.9591    0.0000 N   0  0  0  0  0  0  0  0  0  0  0  0
   -4.1184   -0.7346    0.0000 C   0  0  0  0  0  0  0  0  0  0  0  0
   -4.2742   -2.8106    0.0000 S   0  0  0  0  0  0  0  0  0  0  0  0
   -5.1369   -1.8255    0.0000 C   0  0  0  0  0  0  0  0  0  0  0  0
   -5.0534   -2.6269    0.0000 C   0  0  0  0  0  0  0  0  0  0  0  0
   -1.9312   -1.0519    0.0000 S   0  0  0  0  0  0  0  0  0  0  0  0
   -3.0499    0.2282    0.0000 C   0  0  0  0  0  0  0  0  0  0  0  0
   -4.6527   -0.0891    0.0000 O   0  0  0  0  0  0  0  0  0  0  0  0
   -0.8014   -0.1392    0.0000 C   0  0  0  0  0  0  0  0  0  0  0  0
   -1.6306   -0.2728    0.0000 C   0  0  0  0  0  0  0  0  0  0  0  0
   -0.2950   -0.7847    0.0000 O   0  0  0  0  0  0  0  0  0  0  0  0
   -0.5119    0.6622    0.0000 C   0  0  0  0  0  0  0  0  0  0  0  0
   -3.6064    0.8181    0.0000 C   0  0  0  0  0  0  0  0  0  0  0  0
   -2.2484    0.3951    0.0000 C   0  0  0  0  0  0  0  0  0  0  0  0
   -5.8883   -1.4749    0.0000 C   0  0  0  0  0  0  0  0  0  0  0  0
   -2.0036    1.1632    0.0000 C   0  0  0  0  0  0  0  0  0  0  0  0
   -3.3670    1.5972    0.0000 C   0  0  0  0  0  0  0  0  0  0  0  0
   -2.5656    1.7531    0.0000 C   0  0  0  0  0  0  0  0  0  0  0  0
   -5.7213   -3.1112    0.0000 C   0  0  0  0  0  0  0  0  0  0  0  0
    0.3173    0.7958    0.0000 C   0  0  0  0  0  0  0  0  0  0  0  0
   -1.0185    1.2968    0.0000 C   0  0  0  0  0  0  0  0  0  0  0  0
   -2.3319    2.5545    0.0000 C   0  0  0  0  0  0  0  0  0  0  0  0
   -6.5561   -1.9368    0.0000 C   0  0  0  0  0  0  0  0  0  0  0  0
   -6.4726   -2.7883    0.0000 C   0  0  0  0  0  0  0  0  0  0  0  0
   -0.7290    2.0481    0.0000 C   0  0  0  0  0  0  0  0  0  0  0  0
    0.6400    1.5638    0.0000 C   0  0  0  0  0  0  0  0  0  0  0  0
    0.1058    2.2040    0.0000 C   0  0  0  0  0  0  0  0  0  0  0  0
  2  1  2  0  0  0  0
  3  6  1  0  0  0  0
  4  3  1  0  0  0  0
  5  2  1  0  0  0  0
  6  1  1  0  0  0  0
  7  2  1  0  0  0  0
  8  1  1  0  0  0  0
  9  8  2  0  0  0  0
 10  4  1  0  0  0  0
 11  3  1  0  0  0  0
 12  6  2  0  0  0  0
 13 14  1  0  0  0  0
 14 10  1  0  0  0  0
 15 13  2  0  0  0  0
 16 13  1  0  0  0  0
 17 11  2  0  0  0  0
 18 11  1  0  0  0  0
 19  8  1  0  0  0  0
 20 18  2  0  0  0  0
 21 17  1  0  0  0  0
 22 20  1  0  0  0  0
 23  9  1  0  0  0  0
 24 16  1  0  0  0  0
 25 16  2  0  0  0  0
 26 22  1  0  0  0  0
 27 19  1  0  0  0  0
 28 27  1  0  0  0  0
 29 25  1  0  0  0  0
 30 24  2  0  0  0  0
 31 29  2  0  0  0  0
  7  9  1  0  0  0  0
  4  5  2  0  0  0  0
 28 23  1  0  0  0  0
 21 22  2  0  0  0  0
 30 31  1  0  0  0  0
M  END
>  <IDNUMBER>
F1008-0085

>  <Chemical_Name>
4-(4-methylphenyl)-5-[(2-oxo-2-phenylethyl)sulfanyl]-8-thia-4,6-diazatricyclo[7.4.0.0?,?]trideca-1(9),2(7),5-trien-3-one

>  <PriceCoeff>
1.00

>  <CAS>
332393-05-2

>  <MW>
446.58

>  <Description>
solid

>  <FSP3>
0.24

>  <clogP>
6.60

>  <TPSA>
103.28

>  <Acceptor>
3

>  <Donor>
0

>  <RotBonds>
5

>  <HAC>
31

>  <Collection>
General

>  <PPDS>
+

$$$$
F1008-0142
  Mrv2219 10102508112D          

 38 42  0  0  0  0            999 V2000
   -3.2517   -0.8791    0.0000 C   0  0  0  0  0  0  0  0  0  0  0  0
   -2.8095   -1.5747    0.0000 C   0  0  0  0  0  0  0  0  0  0  0  0
   -2.0653   -0.1187    0.0000 N   0  0  0  0  0  0  0  0  0  0  0  0
   -1.5961   -0.8251    0.0000 C   0  0  0  0  0  0  0  0  0  0  0  0
   -2.0060   -1.5530    0.0000 N   0  0  0  0  0  0  0  0  0  0  0  0
   -2.8904   -0.1510    0.0000 C   0  0  0  0  0  0  0  0  0  0  0  0
   -3.3595   -2.2001    0.0000 S   0  0  0  0  0  0  0  0  0  0  0  0
   -4.0552   -1.0839    0.0000 C   0  0  0  0  0  0  0  0  0  0  0  0
   -4.1037   -1.8820    0.0000 C   0  0  0  0  0  0  0  0  0  0  0  0
   -0.7710   -0.8251    0.0000 S   0  0  0  0  0  0  0  0  0  0  0  0
    0.4746   -0.1025    0.0000 C   0  0  0  0  0  0  0  0  0  0  0  0
    0.8629   -0.7982    0.0000 N   0  0  0  0  0  0  0  0  0  0  0  0
   -1.6986    0.6254    0.0000 C   0  0  0  0  0  0  0  0  0  0  0  0
   -3.3271    0.5769    0.0000 O   0  0  0  0  0  0  0  0  0  0  0  0
    0.2966    2.8580    0.0000 C   0  0  0  0  0  0  0  0  0  0  0  0
   -0.5338    2.8256    0.0000 N   0  0  0  0  0  0  0  0  0  0  0  0
   -0.3504   -0.1025    0.0000 C   0  0  0  0  0  0  0  0  0  0  0  0
    0.8898    0.6254    0.0000 O   0  0  0  0  0  0  0  0  0  0  0  0
    1.6879   -0.8251    0.0000 C   0  0  0  0  0  0  0  0  0  0  0  0
    0.6848    3.5859    0.0000 O   0  0  0  0  0  0  0  0  0  0  0  0
   -0.8682    0.6740    0.0000 C   0  0  0  0  0  0  0  0  0  0  0  0
   -2.1354    1.3211    0.0000 C   0  0  0  0  0  0  0  0  0  0  0  0
   -0.9222    2.0707    0.0000 C   0  0  0  0  0  0  0  0  0  0  0  0
    0.4529   -1.5261    0.0000 C   0  0  0  0  0  0  0  0  0  0  0  0
   -4.7238   -0.6471    0.0000 C   0  0  0  0  0  0  0  0  0  0  0  0
   -0.4799    1.4020    0.0000 C   0  0  0  0  0  0  0  0  0  0  0  0
   -1.7472    2.0491    0.0000 C   0  0  0  0  0  0  0  0  0  0  0  0
   -4.8316   -2.2702    0.0000 C   0  0  0  0  0  0  0  0  0  0  0  0
    0.7334    2.1785    0.0000 C   0  0  0  0  0  0  0  0  0  0  0  0
    2.1085   -1.5261    0.0000 C   0  0  0  0  0  0  0  0  0  0  0  0
    2.1085   -0.1187    0.0000 C   0  0  0  0  0  0  0  0  0  0  0  0
    0.8629   -2.2217    0.0000 C   0  0  0  0  0  0  0  0  0  0  0  0
   -0.3828   -1.4938    0.0000 C   0  0  0  0  0  0  0  0  0  0  0  0
   -5.4788   -1.0085    0.0000 C   0  0  0  0  0  0  0  0  0  0  0  0
   -5.5273   -1.8119    0.0000 C   0  0  0  0  0  0  0  0  0  0  0  0
    2.9336   -0.1025    0.0000 C   0  0  0  0  0  0  0  0  0  0  0  0
    2.9336   -1.5261    0.0000 C   0  0  0  0  0  0  0  0  0  0  0  0
    3.3487   -0.8251    0.0000 C   0  0  0  0  0  0  0  0  0  0  0  0
  2  1  2  0  0  0  0
  3  6  1  0  0  0  0
  4  3  1  0  0  0  0
  5  2  1  0  0  0  0
  6  1  1  0  0  0  0
  7  2  1  0  0  0  0
  8  1  1  0  0  0  0
  9  8  2  0  0  0  0
 10  4  1  0  0  0  0
 11 17  1  0  0  0  0
 12 11  1  0  0  0  0
 13  3  1  0  0  0  0
 14  6  2  0  0  0  0
 15 16  1  0  0  0  0
 16 23  1  0  0  0  0
 17 10  1  0  0  0  0
 18 11  2  0  0  0  0
 19 12  1  0  0  0  0
 20 15  2  0  0  0  0
 21 13  1  0  0  0  0
 22 13  2  0  0  0  0
 23 27  2  0  0  0  0
 24 12  1  0  0  0  0
 25  8  1  0  0  0  0
 26 21  2  0  0  0  0
 27 22  1  0  0  0  0
 28  9  1  0  0  0  0
 29 15  1  0  0  0  0
 30 19  1  0  0  0  0
 31 19  2  0  0  0  0
 32 24  1  0  0  0  0
 33 24  1  0  0  0  0
 34 25  1  0  0  0  0
 35 34  1  0  0  0  0
 36 31  1  0  0  0  0
 37 30  2  0  0  0  0
 38 36  2  0  0  0  0
  7  9  1  0  0  0  0
  5  4  2  0  0  0  0
 35 28  1  0  0  0  0
 26 23  1  0  0  0  0
 37 38  1  0  0  0  0
M  END
>  <IDNUMBER>
F1008-0142

>  <Chemical_Name>
2-{[4-(4-acetamidophenyl)-3-oxo-8-thia-4,6-diazatricyclo[7.4.0.0?,?]trideca-1(9),2(7),5-trien-5-yl]sulfanyl}-N-phenyl-N-(propan-2-yl)acetamide

>  <PriceCoeff>
1.00

>  <CAS>
380340-58-9

>  <MW>
546.70

>  <Description>
solid

>  <FSP3>
0.31

>  <clogP>
6.02

>  <TPSA>
135.62

>  <Acceptor>
4

>  <Donor>
1

>  <RotBonds>
8

>  <HAC>
38

>  <Collection>
General

>  <PPDS>
+

$$$$
F1008-0242
  Mrv2219 10102508112D          

 40 42  0  0  0  0            999 V2000
   -0.2694    0.7047    0.0000 C   0  0  0  0  0  0  0  0  0  0  0  0
   -0.7171    0.0249    0.0000 N   0  0  0  0  0  0  0  0  0  0  0  0
   -0.7171    1.3513    0.0000 N   0  0  0  0  0  0  0  0  0  0  0  0
   -1.5130    1.1068    0.0000 C   0  0  0  0  0  0  0  0  0  0  0  0
   -1.5130    0.2694    0.0000 C   0  0  0  0  0  0  0  0  0  0  0  0
    2.2053   -0.7379    0.0000 C   0  0  0  0  0  0  0  0  0  0  0  0
    0.5721    0.7047    0.0000 S   0  0  0  0  0  0  0  0  0  0  0  0
    1.8032   -1.4426    0.0000 C   0  0  0  0  0  0  0  0  0  0  0  0
    0.9617   -1.4426    0.0000 O   0  0  0  0  0  0  0  0  0  0  0  0
    1.8032    0.0000    0.0000 C   0  0  0  0  0  0  0  0  0  0  0  0
    0.5514   -2.1639    0.0000 C   0  0  0  0  0  0  0  0  0  0  0  0
    0.9866    0.0000    0.0000 C   0  0  0  0  0  0  0  0  0  0  0  0
    2.2053    0.7047    0.0000 O   0  0  0  0  0  0  0  0  0  0  0  0
   -0.2694   -2.1390    0.0000 F   0  0  0  0  0  0  0  0  0  0  0  0
    0.9617   -2.8769    0.0000 F   0  0  0  0  0  0  0  0  0  0  0  0
   -0.4560    2.1721    0.0000 C   0  0  0  0  0  0  0  0  0  0  0  0
   -2.2094    1.5130    0.0000 C   0  0  0  0  0  0  0  0  0  0  0  0
    3.0261   -0.7379    0.0000 C   0  0  0  0  0  0  0  0  0  0  0  0
   -2.2094   -0.1410    0.0000 C   0  0  0  0  0  0  0  0  0  0  0  0
    2.2053   -2.1639    0.0000 C   0  0  0  0  0  0  0  0  0  0  0  0
    3.4365   -1.4426    0.0000 C   0  0  0  0  0  0  0  0  0  0  0  0
   -2.9307    1.1068    0.0000 C   0  0  0  0  0  0  0  0  0  0  0  0
   -2.9307    0.2694    0.0000 C   0  0  0  0  0  0  0  0  0  0  0  0
    3.0261   -2.1805    0.0000 C   0  0  0  0  0  0  0  0  0  0  0  0
    6.3423    0.0995    0.0000 C   0  0  0  0  0  0  0  0  0  0  0  0
    6.1765   -1.2892    0.0000 C   0  0  0  0  0  0  0  0  0  0  0  0
    5.8656   -0.5472    0.0000 C   0  0  0  0  0  0  0  0  0  0  0  0
    6.0066    0.8705    0.0000 N   0  3  0  0  0  0  0  0  0  0  0  0
    5.6583   -1.9649    0.0000 N   0  3  0  0  0  0  0  0  0  0  0  0
    8.3072   -0.8208    0.0000 N   0  3  0  0  0  0  0  0  0  0  0  0
    7.4864   -0.7337    0.0000 C   0  0  0  0  0  0  0  0  0  0  0  0
    6.9973   -1.4177    0.0000 C   0  0  0  0  0  0  0  0  0  0  0  0
    7.1631    0.0000    0.0000 C   0  0  0  0  0  0  0  0  0  0  0  0
    4.8541   -1.8488    0.0000 O   0  5  0  0  0  0  0  0  0  0  0  0
    6.4998    1.5214    0.0000 O   0  5  0  0  0  0  0  0  0  0  0  0
    8.6554   -1.5545    0.0000 O   0  5  0  0  0  0  0  0  0  0  0  0
    5.2107    0.9451    0.0000 O   0  0  0  0  0  0  0  0  0  0  0  0
    5.9817   -2.7235    0.0000 O   0  0  0  0  0  0  0  0  0  0  0  0
    8.7798   -0.1368    0.0000 O   0  0  0  0  0  0  0  0  0  0  0  0
    5.0406   -0.4477    0.0000 O   0  0  0  0  0  0  0  0  0  0  0  0
 18  6  2  0  0  0  0
 19  5  1  0  0  0  0
 20  8  2  0  0  0  0
 21 18  1  0  0  0  0
 22 17  2  0  0  0  0
 23 19  2  0  0  0  0
 24 21  2  0  0  0  0
  4  5  2  0  0  0  0
 22 23  1  0  0  0  0
 24 20  1  0  0  0  0
  2  1  2  0  0  0  0
  3  1  1  0  0  0  0
  4  3  1  0  0  0  0
  5  2  1  0  0  0  0
  6 10  1  0  0  0  0
  7  1  1  0  0  0  0
  8  6  1  0  0  0  0
  9  8  1  0  0  0  0
 10 12  1  0  0  0  0
 11  9  1  0  0  0  0
 12  7  1  0  0  0  0
 13 10  2  0  0  0  0
 14 11  1  0  0  0  0
 15 11  1  0  0  0  0
 16  3  1  0  0  0  0
 17  4  1  0  0  0  0
 26 27  2  0  0  0  0
 27 25  1  0  0  0  0
 28 25  1  0  0  0  0
 29 26  1  0  0  0  0
 30 31  1  0  0  0  0
 31 33  1  0  0  0  0
 32 31  2  0  0  0  0
 33 25  2  0  0  0  0
 34 29  1  0  0  0  0
 35 28  1  0  0  0  0
 36 30  1  0  0  0  0
 37 28  2  0  0  0  0
 38 29  2  0  0  0  0
 39 30  2  0  0  0  0
 40 27  1  0  0  0  0
 26 32  1  0  0  0  0
M  CHG  6  28   1  29   1  30   1  34  -1  35  -1  36  -1
M  END
>  <IDNUMBER>
F1008-0242

>  <Chemical_Name>
1-[2-(difluoromethoxy)phenyl]-2-[(1-methyl-1H-1,3-benzodiazol-2-yl)sulfanyl]ethan-1-one; 2,4,6-trinitrophenol

>  <PriceCoeff>
1.00

>  <CAS>
381165-88-4

>  <MW>
348.37

>  <Description>
solid

>  <FSP3>
0.18

>  <clogP>
4.35

>  <TPSA>
69.42

>  <Acceptor>
3

>  <Donor>
0

>  <RotBonds>
6

>  <HAC>
24

>  <Collection>
General

>  <PPDS>
+

$$$$
F1009-0410
  Mrv2219 10102508112D          

 28 31  0  0  0  0            999 V2000
   -3.8902    2.9982    0.0000 C   0  0  0  0  0  0  0  0  0  0  0  0
   -3.8902    3.8190    0.0000 N   0  0  0  0  0  0  0  0  0  0  0  0
   -3.2369    2.5083    0.0000 N   0  0  0  0  0  0  0  0  0  0  0  0
   -3.1281    7.5375    0.0000 N   0  0  0  0  0  0  0  0  0  0  0  0
   -4.5602    2.5083    0.0000 S   0  0  0  0  0  0  0  0  0  0  0  0
   -4.3215    1.7420    0.0000 C   0  0  0  0  0  0  0  0  0  0  0  0
   -3.4756    1.7420    0.0000 C   0  0  0  0  0  0  0  0  0  0  0  0
   -3.1741    4.2252    0.0000 C   0  0  0  0  0  0  0  0  0  0  0  0
   -2.4748    8.0065    0.0000 C   0  0  0  0  0  0  0  0  0  0  0  0
   -3.7645    8.0442    0.0000 C   0  0  0  0  0  0  0  0  0  0  0  0
   -4.7318    1.0259    0.0000 C   0  0  0  0  0  0  0  0  0  0  0  0
   -3.1281    6.7126    0.0000 C   0  0  0  0  0  0  0  0  0  0  0  0
   -3.0610    1.0259    0.0000 C   0  0  0  0  0  0  0  0  0  0  0  0
   -3.1615    5.0501    0.0000 C   0  0  0  0  0  0  0  0  0  0  0  0
   -2.4580    3.8399    0.0000 O   0  0  0  0  0  0  0  0  0  0  0  0
   -2.7093    8.7812    0.0000 C   0  0  0  0  0  0  0  0  0  0  0  0
   -3.4924    8.8105    0.0000 C   0  0  0  0  0  0  0  0  0  0  0  0
   -1.6331    7.7511    0.0000 O   0  0  0  0  0  0  0  0  0  0  0  0
   -4.6188    7.7930    0.0000 O   0  0  0  0  0  0  0  0  0  0  0  0
   -3.8399    6.3064    0.0000 C   0  0  0  0  0  0  0  0  0  0  0  0
   -2.4203    6.2813    0.0000 C   0  0  0  0  0  0  0  0  0  0  0  0
   -2.4329    5.4438    0.0000 C   0  0  0  0  0  0  0  0  0  0  0  0
   -3.8650    5.4689    0.0000 C   0  0  0  0  0  0  0  0  0  0  0  0
   -4.3215    0.3141    0.0000 C   0  0  0  0  0  0  0  0  0  0  0  0
   -2.4455    2.7889    0.0000 C   0  0  0  0  0  0  0  0  0  0  0  0
   -3.4756    0.3141    0.0000 C   0  0  0  0  0  0  0  0  0  0  0  0
   -4.7318   -0.4188    0.0000 O   0  0  0  0  0  0  0  0  0  0  0  0
   -5.5610   -0.4188    0.0000 C   0  0  0  0  0  0  0  0  0  0  0  0
  2  1  2  0  0  0  0
  3  1  1  0  0  0  0
  4 12  1  0  0  0  0
  5  1  1  0  0  0  0
  6  5  1  0  0  0  0
  7  3  1  0  0  0  0
  8  2  1  0  0  0  0
  9  4  1  0  0  0  0
 10  4  1  0  0  0  0
 11  6  1  0  0  0  0
 12 20  1  0  0  0  0
 13  7  1  0  0  0  0
 14  8  1  0  0  0  0
 15  8  2  0  0  0  0
 16  9  1  0  0  0  0
 17 10  1  0  0  0  0
 18  9  2  0  0  0  0
 19 10  2  0  0  0  0
 20 23  2  0  0  0  0
 21 22  1  0  0  0  0
 22 14  2  0  0  0  0
 23 14  1  0  0  0  0
 24 11  2  0  0  0  0
 25  3  1  0  0  0  0
 26 13  2  0  0  0  0
 27 24  1  0  0  0  0
 28 27  1  0  0  0  0
  6  7  2  0  0  0  0
 24 26  1  0  0  0  0
 21 12  2  0  0  0  0
 16 17  1  0  0  0  0
M  END
>  <IDNUMBER>
F1009-0410

>  <Chemical_Name>
4-(2,5-dioxopyrrolidin-1-yl)-N-[(2E)-6-methoxy-3-methyl-2,3-dihydro-1,3-benzothiazol-2-ylidene]benzamide

>  <PriceCoeff>
1.00

>  <CAS>
681232-17-7

>  <MW>
395.43

>  <Description>
solid

>  <FSP3>
0.20

>  <clogP>
2.87

>  <TPSA>
104.58

>  <Acceptor>
4

>  <Donor>
0

>  <RotBonds>
4

>  <HAC>
28

>  <Collection>
General

>  <PPDS>
+

$$$$
F1011-0198
  Mrv2219 10102508112D          

 26 29  0  0  0  0            999 V2000
    4.6741  -13.6076    0.0000 N   0  0  0  0  0  0  0  0  0  0  0  0
    6.9128  -14.8993    0.0000 N   0  0  0  0  0  0  0  0  0  0  0  0
    5.3854  -12.3725    0.0000 C   0  0  0  0  0  0  0  0  0  0  0  0
    3.9583  -12.3725    0.0000 C   0  0  0  0  0  0  0  0  0  0  0  0
    5.3854  -13.1973    0.0000 C   0  0  0  0  0  0  0  0  0  0  0  0
    3.9583  -13.1973    0.0000 C   0  0  0  0  0  0  0  0  0  0  0  0
    7.6897  -14.5502    0.0000 C   0  0  0  0  0  0  0  0  0  0  0  0
    6.9958  -15.7547    0.0000 C   0  0  0  0  0  0  0  0  0  0  0  0
    4.6741  -14.4716    0.0000 C   0  0  0  0  0  0  0  0  0  0  0  0
    6.1666  -14.4672    0.0000 C   0  0  0  0  0  0  0  0  0  0  0  0
    6.0924  -13.6076    0.0000 C   0  0  0  0  0  0  0  0  0  0  0  0
    3.2514  -13.6076    0.0000 C   0  0  0  0  0  0  0  0  0  0  0  0
    6.0924  -11.9579    0.0000 C   0  0  0  0  0  0  0  0  0  0  0  0
    3.2514  -11.9579    0.0000 C   0  0  0  0  0  0  0  0  0  0  0  0
    5.4203  -14.9037    0.0000 C   0  0  0  0  0  0  0  0  0  0  0  0
    7.8338  -15.9380    0.0000 C   0  0  0  0  0  0  0  0  0  0  0  0
    8.2658  -15.1918    0.0000 C   0  0  0  0  0  0  0  0  0  0  0  0
    7.8730  -13.6992    0.0000 O   0  0  0  0  0  0  0  0  0  0  0  0
    6.3543  -16.3308    0.0000 O   0  0  0  0  0  0  0  0  0  0  0  0
    6.8125  -12.3725    0.0000 C   0  0  0  0  0  0  0  0  0  0  0  0
    2.5399  -12.3725    0.0000 C   0  0  0  0  0  0  0  0  0  0  0  0
    2.5399  -13.1973    0.0000 C   0  0  0  0  0  0  0  0  0  0  0  0
    6.8125  -13.1973    0.0000 C   0  0  0  0  0  0  0  0  0  0  0  0
    1.7850  -11.9317    0.0000 Cl  0  0  0  0  0  0  0  0  0  0  0  0
    7.5588  -11.9317    0.0000 Cl  0  0  0  0  0  0  0  0  0  0  0  0
    5.4116  -15.7678    0.0000 O   0  0  0  0  0  0  0  0  0  0  0  0
  2 10  1  0  0  0  0
  3  5  2  0  0  0  0
  4  6  2  0  0  0  0
  5  1  1  0  0  0  0
  6  1  1  0  0  0  0
  7  2  1  0  0  0  0
  8  2  1  0  0  0  0
  9  1  1  0  0  0  0
 10 15  1  0  0  0  0
 11  5  1  0  0  0  0
 12  6  1  0  0  0  0
 13  3  1  0  0  0  0
 14  4  1  0  0  0  0
 15  9  1  0  0  0  0
 16  8  1  0  0  0  0
 17  7  1  0  0  0  0
 18  7  2  0  0  0  0
 19  8  2  0  0  0  0
 20 23  1  0  0  0  0
 21 22  1  0  0  0  0
 22 12  2  0  0  0  0
 23 11  2  0  0  0  0
 24 21  1  0  0  0  0
 25 20  1  0  0  0  0
 26 15  1  0  0  0  0
  4  3  1  0  0  0  0
 21 14  2  0  0  0  0
 13 20  2  0  0  0  0
 16 17  1  0  0  0  0
M  END
>  <IDNUMBER>
F1011-0198

>  <Chemical_Name>
1-[3-(3,6-dichloro-9H-carbazol-9-yl)-2-hydroxypropyl]pyrrolidine-2,5-dione

>  <PriceCoeff>
1.00

>  <CAS>
314052-84-1

>  <MW>
391.25

>  <Description>
solid

>  <FSP3>
0.26

>  <clogP>
4.06

>  <TPSA>
62.54

>  <Acceptor>
3

>  <Donor>
1

>  <RotBonds>
4

>  <HAC>
26

>  <Collection>
General

>  <PPDS>
+

$$$$
F1015-0025
  Mrv2219 10102508112D          

 31 34  0  0  0  0            999 V2000
   -1.7651    0.7994    0.0000 C   0  0  0  0  0  0  0  0  0  0  0  0
   -2.2256    1.4773    0.0000 C   0  0  0  0  0  0  0  0  0  0  0  0
   -2.9930    1.2279    0.0000 C   0  0  0  0  0  0  0  0  0  0  0  0
   -2.9930    0.4029    0.0000 C   0  0  0  0  0  0  0  0  0  0  0  0
   -2.2256    0.1535    0.0000 S   0  0  0  0  0  0  0  0  0  0  0  0
    2.7884    0.1087    0.0000 N   0  0  0  0  0  0  0  0  0  0  0  0
   -0.9401    0.7994    0.0000 N   0  0  0  0  0  0  0  0  0  0  0  0
   -0.5116    0.0959    0.0000 C   0  0  0  0  0  0  0  0  0  0  0  0
    3.2681    0.7674    0.0000 C   0  0  0  0  0  0  0  0  0  0  0  0
    3.2681   -0.5053    0.0000 C   0  0  0  0  0  0  0  0  0  0  0  0
   -1.9186    2.2767    0.0000 C   0  0  0  0  0  0  0  0  0  0  0  0
    1.9762    0.0959    0.0000 C   0  0  0  0  0  0  0  0  0  0  0  0
   -3.7029    1.6627    0.0000 C   0  0  0  0  0  0  0  0  0  0  0  0
    0.3134    0.0959    0.0000 C   0  0  0  0  0  0  0  0  0  0  0  0
   -3.7029    0.0000    0.0000 C   0  0  0  0  0  0  0  0  0  0  0  0
   -0.9401   -0.6396    0.0000 O   0  0  0  0  0  0  0  0  0  0  0  0
    4.0355    0.5308    0.0000 C   0  0  0  0  0  0  0  0  0  0  0  0
    4.0483   -0.2559    0.0000 C   0  0  0  0  0  0  0  0  0  0  0  0
    2.9995    1.5860    0.0000 O   0  0  0  0  0  0  0  0  0  0  0  0
    3.0506   -1.3495    0.0000 O   0  0  0  0  0  0  0  0  0  0  0  0
   -1.1255    2.4302    0.0000 O   0  0  0  0  0  0  0  0  0  0  0  0
    1.5413   -0.6396    0.0000 C   0  0  0  0  0  0  0  0  0  0  0  0
    1.5797    0.7994    0.0000 C   0  0  0  0  0  0  0  0  0  0  0  0
    0.7483    0.7994    0.0000 C   0  0  0  0  0  0  0  0  0  0  0  0
    0.7163   -0.6396    0.0000 C   0  0  0  0  0  0  0  0  0  0  0  0
   -2.4750    2.9163    0.0000 O   0  0  0  0  0  0  0  0  0  0  0  0
   -4.4447    1.2598    0.0000 C   0  0  0  0  0  0  0  0  0  0  0  0
   -4.4447    0.4029    0.0000 C   0  0  0  0  0  0  0  0  0  0  0  0
   -2.1999    3.6837    0.0000 C   0  0  0  0  0  0  0  0  0  0  0  0
   -5.1419   -0.0256    0.0000 C   0  0  0  0  0  0  0  0  0  0  0  0
   -2.7563    4.2977    0.0000 C   0  0  0  0  0  0  0  0  0  0  0  0
  2  1  2  0  0  0  0
  3  2  1  0  0  0  0
  4  5  1  0  0  0  0
  5  1  1  0  0  0  0
  6 12  1  0  0  0  0
  7  1  1  0  0  0  0
  8  7  1  0  0  0  0
  9  6  1  0  0  0  0
 10  6  1  0  0  0  0
 11  2  1  0  0  0  0
 12 22  2  0  0  0  0
 13  3  1  0  0  0  0
 14  8  1  0  0  0  0
 15  4  1  0  0  0  0
 16  8  2  0  0  0  0
 17  9  1  0  0  0  0
 18 10  1  0  0  0  0
 19  9  2  0  0  0  0
 20 10  2  0  0  0  0
 21 11  2  0  0  0  0
 22 25  1  0  0  0  0
 23 24  2  0  0  0  0
 24 14  1  0  0  0  0
 25 14  2  0  0  0  0
 26 11  1  0  0  0  0
 27 13  1  0  0  0  0
 28 15  1  0  0  0  0
 29 26  1  0  0  0  0
 30 28  1  0  0  0  0
 31 29  1  0  0  0  0
  3  4  2  0  0  0  0
 27 28  1  0  0  0  0
 23 12  1  0  0  0  0
 18 17  1  0  0  0  0
M  END
>  <IDNUMBER>
F1015-0025

>  <Chemical_Name>
ethyl 2-[4-(2,5-dioxopyrrolidin-1-yl)benzamido]-6-methyl-4,5,6,7-tetrahydro-1-benzothiophene-3-carboxylate

>  <PriceCoeff>
1.00

>  <CAS>
681236-05-5

>  <MW>
440.51

>  <Description>
solid

>  <FSP3>
0.39

>  <clogP>
3.58

>  <TPSA>
121.02

>  <Acceptor>
5

>  <Donor>
1

>  <RotBonds>
6

>  <HAC>
31

>  <Collection>
General

>  <PPDS>
+

$$$$
F1015-0042
  Mrv2219 10102508112D          

 33 36  0  0  0  0            999 V2000
    1.2402    0.1135    0.0000 C   0  0  0  0  0  0  0  0  0  0  0  0
    0.5927    0.5002    0.0000 S   0  0  0  0  0  0  0  0  0  0  0  0
    2.0810    0.2859    0.0000 S   0  0  0  0  0  0  0  0  0  0  0  0
    2.4383   -0.4709    0.0000 C   0  0  0  0  0  0  0  0  0  0  0  0
    7.0291    0.3489    0.0000 N   0  0  0  0  0  0  0  0  0  0  0  0
   -2.7199    1.2570    0.0000 N   0  3  0  0  0  0  0  0  0  0  0  0
    3.2582   -0.4709    0.0000 N   0  0  0  0  0  0  0  0  0  0  0  0
    1.8960   -1.0637    0.0000 N   0  0  0  0  0  0  0  0  0  0  0  0
    1.1729   -0.6853    0.0000 C   0  0  0  0  0  0  0  0  0  0  0  0
    3.7205    0.2775    0.0000 C   0  0  0  0  0  0  0  0  0  0  0  0
    7.5336   -0.2901    0.0000 C   0  0  0  0  0  0  0  0  0  0  0  0
    7.5210    1.0173    0.0000 C   0  0  0  0  0  0  0  0  0  0  0  0
   -0.2523    0.6768    0.0000 C   0  0  0  0  0  0  0  0  0  0  0  0
    6.2051    0.3363    0.0000 C   0  0  0  0  0  0  0  0  0  0  0  0
   -1.8666    1.0804    0.0000 C   0  0  0  0  0  0  0  0  0  0  0  0
    0.7483    1.3327    0.0000 O   0  0  0  0  0  0  0  0  0  0  0  0
    0.3826   -0.3153    0.0000 O   0  0  0  0  0  0  0  0  0  0  0  0
   -3.0017    2.0389    0.0000 O   0  5  0  0  0  0  0  0  0  0  0  0
    4.5445    0.2859    0.0000 C   0  0  0  0  0  0  0  0  0  0  0  0
   -3.2875    0.5885    0.0000 O   0  0  0  0  0  0  0  0  0  0  0  0
    3.3465    1.0047    0.0000 O   0  0  0  0  0  0  0  0  0  0  0  0
    8.3029    0.7693    0.0000 C   0  0  0  0  0  0  0  0  0  0  0  0
    8.3113   -0.0169    0.0000 C   0  0  0  0  0  0  0  0  0  0  0  0
    7.2518    1.8497    0.0000 O   0  0  0  0  0  0  0  0  0  0  0  0
    7.3065   -1.1519    0.0000 O   0  0  0  0  0  0  0  0  0  0  0  0
   -0.5170    1.5008    0.0000 C   0  0  0  0  0  0  0  0  0  0  0  0
   -0.8450    0.0841    0.0000 C   0  0  0  0  0  0  0  0  0  0  0  0
    5.7805    1.0426    0.0000 C   0  0  0  0  0  0  0  0  0  0  0  0
    5.8057   -0.3952    0.0000 C   0  0  0  0  0  0  0  0  0  0  0  0
   -1.6479    0.2733    0.0000 C   0  0  0  0  0  0  0  0  0  0  0  0
   -1.3201    1.6900    0.0000 C   0  0  0  0  0  0  0  0  0  0  0  0
    4.9734   -0.4205    0.0000 C   0  0  0  0  0  0  0  0  0  0  0  0
    4.9355    1.0047    0.0000 C   0  0  0  0  0  0  0  0  0  0  0  0
  2  1  1  0  0  0  0
  3  1  1  0  0  0  0
  4  3  1  0  0  0  0
  5 14  1  0  0  0  0
  6 15  1  0  0  0  0
  7  4  1  0  0  0  0
  8  9  1  0  0  0  0
  9  1  2  0  0  0  0
 10  7  1  0  0  0  0
 11  5  1  0  0  0  0
 12  5  1  0  0  0  0
 13  2  1  0  0  0  0
 14 28  1  0  0  0  0
 15 30  1  0  0  0  0
 16  2  2  0  0  0  0
 17  2  2  0  0  0  0
 18  6  1  0  0  0  0
 19 10  1  0  0  0  0
 20  6  2  0  0  0  0
 21 10  2  0  0  0  0
 22 12  1  0  0  0  0
 23 11  1  0  0  0  0
 24 12  2  0  0  0  0
 25 11  2  0  0  0  0
 26 13  2  0  0  0  0
 27 13  1  0  0  0  0
 28 33  2  0  0  0  0
 29 32  1  0  0  0  0
 30 27  2  0  0  0  0
 31 26  1  0  0  0  0
 32 19  2  0  0  0  0
 33 19  1  0  0  0  0
  8  4  2  0  0  0  0
 15 31  2  0  0  0  0
 14 29  2  0  0  0  0
 23 22  1  0  0  0  0
M  CHG  2   6   1  18  -1
M  END
>  <IDNUMBER>
F1015-0042

>  <Chemical_Name>
4-(2,5-dioxopyrrolidin-1-yl)-N-[5-(4-nitrobenzenesulfonyl)-1,3-thiazol-2-yl]benzamide

>  <PriceCoeff>
1.00

>  <CAS>
438034-85-6

>  <MW>
486.48

>  <Description>
solid

>  <FSP3>
0.10

>  <clogP>
0.78

>  <TPSA>
193.27

>  <Acceptor>
8

>  <Donor>
1

>  <RotBonds>
6

>  <HAC>
33

>  <Collection>
General

>  <PPDS>
+

$$$$
F1018-1721
  Mrv2219 10102508112D          

 19 20  0  0  0  0            999 V2000
    1.3921    1.6499    0.0000 N   0  0  0  0  0  0  0  0  0  0  0  0
    2.1066    1.2375    0.0000 C   0  0  0  0  0  0  0  0  0  0  0  0
    2.8309    1.6622    0.0000 C   0  0  0  0  0  0  0  0  0  0  0  0
    3.5454    0.4125    0.0000 N   0  3  0  0  0  0  0  0  0  0  0  0
    1.2178    2.4479    0.0000 N   0  0  0  0  0  0  0  0  0  0  0  0
    3.5454    1.2375    0.0000 C   0  0  0  0  0  0  0  0  0  0  0  0
    0.6801    1.2375    0.0000 C   0  0  0  0  0  0  0  0  0  0  0  0
    0.0688    1.7948    0.0000 C   0  0  0  0  0  0  0  0  0  0  0  0
    0.4125    2.5412    0.0000 C   0  0  0  0  0  0  0  0  0  0  0  0
    2.8309    2.4774    0.0000 C   0  0  0  0  0  0  0  0  0  0  0  0
    4.2574    1.6622    0.0000 C   0  0  0  0  0  0  0  0  0  0  0  0
    2.8309    0.0000    0.0000 O   0  5  0  0  0  0  0  0  0  0  0  0
    2.1066    0.4125    0.0000 O   0  0  0  0  0  0  0  0  0  0  0  0
    4.2574    0.0000    0.0000 O   0  0  0  0  0  0  0  0  0  0  0  0
    4.2574    2.4774    0.0000 C   0  0  0  0  0  0  0  0  0  0  0  0
    3.5454    2.8899    0.0000 C   0  0  0  0  0  0  0  0  0  0  0  0
    4.9817    2.8899    0.0000 Cl  0  0  0  0  0  0  0  0  0  0  0  0
    0.5991    0.4125    0.0000 C   0  0  0  0  0  0  0  0  0  0  0  0
    0.0000    3.2581    0.0000 C   0  0  0  0  0  0  0  0  0  0  0  0
  2  1  1  0  0  0  0
  3  2  1  0  0  0  0
  4  6  1  0  0  0  0
  5  1  1  0  0  0  0
  6  3  2  0  0  0  0
  7  1  1  0  0  0  0
  8  7  2  0  0  0  0
  9  5  2  0  0  0  0
 10  3  1  0  0  0  0
 11  6  1  0  0  0  0
 12  4  1  0  0  0  0
 13  2  2  0  0  0  0
 14  4  2  0  0  0  0
 15 16  1  0  0  0  0
 16 10  2  0  0  0  0
 17 15  1  0  0  0  0
 18  7  1  0  0  0  0
 19  9  1  0  0  0  0
  8  9  1  0  0  0  0
 15 11  2  0  0  0  0
M  CHG  2   4   1  12  -1
M  END
>  <IDNUMBER>
F1018-1721

>  <Chemical_Name>
1-(4-chloro-2-nitrobenzoyl)-3,5-dimethyl-1H-pyrazole

>  <PriceCoeff>
1.00

>  <CAS>
333311-20-9

>  <MW>
279.68

>  <Description>
solid

>  <FSP3>
0.17

>  <clogP>
3.99

>  <TPSA>
78.03

>  <Acceptor>
4

>  <Donor>
0

>  <RotBonds>
3

>  <HAC>
19

>  <Collection>
General

>  <PPDS>
+

$$$$
F1029-0049
  Mrv2219 10102508112D          

 34 37  0  0  0  0            999 V2000
    1.3580   -0.0411    0.0000 N   0  3  0  0  0  0  0  0  0  0  0  0
    0.7057    0.4185    0.0000 C   0  0  0  0  0  0  0  0  0  0  0  0
    1.2965   -0.8780    0.0000 N   0  0  0  0  0  0  0  0  0  0  0  0
    2.0062    0.4389    0.0000 C   0  0  0  0  0  0  0  0  0  0  0  0
   -0.0451    0.0862    0.0000 N   0  0  0  0  0  0  0  0  0  0  0  0
    0.9600    1.2020    0.0000 C   0  0  0  0  0  0  0  0  0  0  0  0
    0.5662   -1.2103    0.0000 C   0  0  0  0  0  0  0  0  0  0  0  0
    1.7518    1.2020    0.0000 S   0  0  0  0  0  0  0  0  0  0  0  0
   -0.1313   -0.7303    0.0000 C   0  0  0  0  0  0  0  0  0  0  0  0
    0.4800   -2.0349    0.0000 C   0  0  0  0  0  0  0  0  0  0  0  0
    0.4595    1.8297    0.0000 C   0  0  0  0  0  0  0  0  0  0  0  0
   -0.9066   -1.0503    0.0000 O   0  0  0  0  0  0  0  0  0  0  0  0
    2.8226    0.2092    0.0000 S   0  0  0  0  0  0  0  0  0  0  0  0
    1.1488   -2.5149    0.0000 C   0  0  0  0  0  0  0  0  0  0  0  0
   -0.2543   -2.3919    0.0000 C   0  0  0  0  0  0  0  0  0  0  0  0
    0.7426    2.5805    0.0000 C   0  0  0  0  0  0  0  0  0  0  0  0
   -0.3569    1.6985    0.0000 C   0  0  0  0  0  0  0  0  0  0  0  0
    3.4134    0.7836    0.0000 C   0  0  0  0  0  0  0  0  0  0  0  0
    1.0626   -3.3354    0.0000 C   0  0  0  0  0  0  0  0  0  0  0  0
   -0.3159   -3.1877    0.0000 C   0  0  0  0  0  0  0  0  0  0  0  0
   -0.8615    2.3590    0.0000 C   0  0  0  0  0  0  0  0  0  0  0  0
    0.2257    3.2082    0.0000 C   0  0  0  0  0  0  0  0  0  0  0  0
    0.3569   -3.6719    0.0000 C   0  0  0  0  0  0  0  0  0  0  0  0
   -0.5497    3.0851    0.0000 C   0  0  0  0  0  0  0  0  0  0  0  0
    7.4996   -0.1559    0.0000 S   0  0  0  0  0  0  0  0  0  0  0  0
    8.4268   -0.1354    0.0000 O   0  5  0  0  0  0  0  0  0  0  0  0
    7.4996   -1.0585    0.0000 O   0  0  0  0  0  0  0  0  0  0  0  0
    7.4627    0.7795    0.0000 O   0  0  0  0  0  0  0  0  0  0  0  0
    6.5560   -0.1559    0.0000 C   0  0  0  0  0  0  0  0  0  0  0  0
    6.0514    0.6154    0.0000 C   0  0  0  0  0  0  0  0  0  0  0  0
    6.1211   -0.9805    0.0000 C   0  0  0  0  0  0  0  0  0  0  0  0
    5.1283    0.5949    0.0000 C   0  0  0  0  0  0  0  0  0  0  0  0
    5.1980   -0.9969    0.0000 C   0  0  0  0  0  0  0  0  0  0  0  0
    4.6852   -0.2092    0.0000 C   0  0  0  0  0  0  0  0  0  0  0  0
 12  9  2  0  0  0  0
 13  4  1  0  0  0  0
 14 10  1  0  0  0  0
 15 10  2  0  0  0  0
 16 11  2  0  0  0  0
 17 11  1  0  0  0  0
 18 13  1  0  0  0  0
 19 14  2  0  0  0  0
 20 15  1  0  0  0  0
 21 17  2  0  0  0  0
 22 16  1  0  0  0  0
 23 20  2  0  0  0  0
 24 21  1  0  0  0  0
  8  6  1  0  0  0  0
  9  5  1  0  0  0  0
 19 23  1  0  0  0  0
 22 24  2  0  0  0  0
  2  1  1  0  0  0  0
  3  1  1  0  0  0  0
  4  1  2  0  0  0  0
  5  2  1  0  0  0  0
  6  2  2  0  0  0  0
  7  3  2  0  0  0  0
  8  4  1  0  0  0  0
  9  7  1  0  0  0  0
 10  7  1  0  0  0  0
 11  6  1  0  0  0  0
 26 25  1  0  0  0  0
 27 25  2  0  0  0  0
 28 25  2  0  0  0  0
 29 25  1  0  0  0  0
 30 29  2  0  0  0  0
 31 29  1  0  0  0  0
 32 30  1  0  0  0  0
 33 31  2  0  0  0  0
 34 33  1  0  0  0  0
 32 34  2  0  0  0  0
M  CHG  2   1   1  26  -1
M  END
>  <IDNUMBER>
F1029-0049

>  <Chemical_Name>
6-(methylsulfanyl)-2-oxo-3,8-diphenyl-1H,2H-5??-[1,3]thiazolo[3,4-b][1,2,4]triazin-5-ylium benzenesulfonate

>  <PriceCoeff>
1.00

>  <CAS>
104194-63-0

>  <MW>
352.45

>  <Description>
solid

>  <FSP3>
0.06

>  <clogP>
0.88

>  <TPSA>
45.34

>  <Acceptor>
2

>  <Donor>
2

>  <RotBonds>
3

>  <HAC>
24

>  <Collection>
General

$$$$
F1029-0052
  Mrv2219 10102508112D          

 27 29  0  0  0  0            999 V2000
    1.5456    1.4436    0.0000 N   0  3  0  0  0  0  0  0  0  0  0  0
    1.5701    2.2389    0.0000 C   0  0  0  0  0  0  0  0  0  0  0  0
    2.2797    1.1704    0.0000 C   0  0  0  0  0  0  0  0  0  0  0  0
    2.3287    2.4550    0.0000 S   0  0  0  0  0  0  0  0  0  0  0  0
    2.7813    1.7984    0.0000 C   0  0  0  0  0  0  0  0  0  0  0  0
    0.7382    1.2560    0.0000 C   0  0  0  0  0  0  0  0  0  0  0  0
    0.7953    2.5284    0.0000 S   0  0  0  0  0  0  0  0  0  0  0  0
    0.3058    1.9166    0.0000 C   0  0  0  0  0  0  0  0  0  0  0  0
    2.5244    0.3874    0.0000 N   0  0  0  0  0  0  0  0  0  0  0  0
    3.5887    1.7984    0.0000 C   0  0  0  0  0  0  0  0  0  0  0  0
    0.4159    0.4771    0.0000 C   0  0  0  0  0  0  0  0  0  0  0  0
   -0.4975    1.9778    0.0000 C   0  0  0  0  0  0  0  0  0  0  0  0
    4.0047    1.0970    0.0000 C   0  0  0  0  0  0  0  0  0  0  0  0
    3.9925    2.5080    0.0000 C   0  0  0  0  0  0  0  0  0  0  0  0
    4.8121    1.0970    0.0000 C   0  0  0  0  0  0  0  0  0  0  0  0
    4.8244    2.5039    0.0000 C   0  0  0  0  0  0  0  0  0  0  0  0
    5.2241    1.7821    0.0000 C   0  0  0  0  0  0  0  0  0  0  0  0
    9.2857    1.4395    0.0000 S   0  0  0  0  0  0  0  0  0  0  0  0
   10.2075    1.4599    0.0000 O   0  5  0  0  0  0  0  0  0  0  0  0
    9.2857    0.5423    0.0000 O   0  0  0  0  0  0  0  0  0  0  0  0
    9.2490    2.3694    0.0000 O   0  0  0  0  0  0  0  0  0  0  0  0
    8.3479    1.4395    0.0000 C   0  0  0  0  0  0  0  0  0  0  0  0
    7.8462    2.2062    0.0000 C   0  0  0  0  0  0  0  0  0  0  0  0
    7.9155    0.6198    0.0000 C   0  0  0  0  0  0  0  0  0  0  0  0
    6.9287    2.1859    0.0000 C   0  0  0  0  0  0  0  0  0  0  0  0
    6.9980    0.6034    0.0000 C   0  0  0  0  0  0  0  0  0  0  0  0
    6.4882    1.3865    0.0000 C   0  0  0  0  0  0  0  0  0  0  0  0
 12  8  1  0  0  0  0
 13 10  2  0  0  0  0
 14 10  1  0  0  0  0
 15 13  1  0  0  0  0
 16 14  2  0  0  0  0
 17 16  1  0  0  0  0
  7  8  1  0  0  0  0
  4  5  1  0  0  0  0
 15 17  2  0  0  0  0
  2  1  2  0  0  0  0
  3  1  1  0  0  0  0
  4  2  1  0  0  0  0
  5  3  2  0  0  0  0
  6  1  1  0  0  0  0
  7  2  1  0  0  0  0
  8  6  2  0  0  0  0
  9  3  1  0  0  0  0
 10  5  1  0  0  0  0
 11  6  1  0  0  0  0
 19 18  1  0  0  0  0
 20 18  2  0  0  0  0
 21 18  2  0  0  0  0
 22 18  1  0  0  0  0
 23 22  2  0  0  0  0
 24 22  1  0  0  0  0
 25 23  1  0  0  0  0
 26 24  2  0  0  0  0
 27 26  1  0  0  0  0
 25 27  2  0  0  0  0
M  CHG  2   1   1  19  -1
M  END
>  <IDNUMBER>
F1029-0052

>  <Chemical_Name>
3-amino-5,6-dimethyl-2-phenyl-4??-[1,3]thiazolo[2,3-b][1,3]thiazol-4-ylium benzenesulfonate

>  <PriceCoeff>
1.00

>  <CAS>
483966-79-6

>  <MW>
261.38

>  <Description>
solid

>  <FSP3>
0.15

>  <clogP>
-1.23

>  <TPSA>
30.12

>  <Acceptor>
0

>  <Donor>
1

>  <RotBonds>
1

>  <HAC>
17

>  <Collection>
General

$$$$
F1029-0066
  Mrv2219 10102508112D          

 32 35  0  0  0  0            999 V2000
    2.2011    0.2114    0.0000 N   0  3  0  0  0  0  0  0  0  0  0  0
    2.2011    1.0528    0.0000 C   0  0  0  0  0  0  0  0  0  0  0  0
    2.9887   -0.0290    0.0000 C   0  0  0  0  0  0  0  0  0  0  0  0
    2.9887    1.3016    0.0000 S   0  0  0  0  0  0  0  0  0  0  0  0
    3.4695    0.6425    0.0000 C   0  0  0  0  0  0  0  0  0  0  0  0
    1.4964    1.4632    0.0000 N   0  0  0  0  0  0  0  0  0  0  0  0
    1.4964   -0.1907    0.0000 C   0  0  0  0  0  0  0  0  0  0  0  0
    0.7959    1.0528    0.0000 C   0  0  0  0  0  0  0  0  0  0  0  0
    0.7959    0.2114    0.0000 C   0  0  0  0  0  0  0  0  0  0  0  0
    4.2696    0.6798    0.0000 C   0  0  0  0  0  0  0  0  0  0  0  0
    3.2374   -0.8207    0.0000 N   0  0  0  0  0  0  0  0  0  0  0  0
    0.0788    1.4632    0.0000 C   0  0  0  0  0  0  0  0  0  0  0  0
    4.6426    1.4259    0.0000 C   0  0  0  0  0  0  0  0  0  0  0  0
    4.7172    0.0000    0.0000 C   0  0  0  0  0  0  0  0  0  0  0  0
    0.0788    2.2840    0.0000 C   0  0  0  0  0  0  0  0  0  0  0  0
   -0.6176    1.0528    0.0000 C   0  0  0  0  0  0  0  0  0  0  0  0
   -0.6176    2.6943    0.0000 C   0  0  0  0  0  0  0  0  0  0  0  0
    5.4634    1.4757    0.0000 C   0  0  0  0  0  0  0  0  0  0  0  0
    5.5338    0.0331    0.0000 C   0  0  0  0  0  0  0  0  0  0  0  0
   -1.3306    1.4632    0.0000 C   0  0  0  0  0  0  0  0  0  0  0  0
    5.9111    0.7668    0.0000 C   0  0  0  0  0  0  0  0  0  0  0  0
   -1.3306    2.2840    0.0000 C   0  0  0  0  0  0  0  0  0  0  0  0
   10.0397    0.8622    0.0000 S   0  0  0  0  0  0  0  0  0  0  0  0
   10.9765    0.8829    0.0000 O   0  5  0  0  0  0  0  0  0  0  0  0
   10.0397   -0.0497    0.0000 O   0  0  0  0  0  0  0  0  0  0  0  0
   10.0024    1.8073    0.0000 O   0  0  0  0  0  0  0  0  0  0  0  0
    9.0863    0.8622    0.0000 C   0  0  0  0  0  0  0  0  0  0  0  0
    8.5764    1.6415    0.0000 C   0  0  0  0  0  0  0  0  0  0  0  0
    8.6469    0.0290    0.0000 C   0  0  0  0  0  0  0  0  0  0  0  0
    7.6438    1.6208    0.0000 C   0  0  0  0  0  0  0  0  0  0  0  0
    7.7142    0.0124    0.0000 C   0  0  0  0  0  0  0  0  0  0  0  0
    7.1961    0.8083    0.0000 C   0  0  0  0  0  0  0  0  0  0  0  0
 12  8  1  0  0  0  0
 13 10  1  0  0  0  0
 14 10  2  0  0  0  0
 15 12  2  0  0  0  0
 16 12  1  0  0  0  0
 17 15  1  0  0  0  0
 18 13  2  0  0  0  0
 19 14  1  0  0  0  0
 20 16  2  0  0  0  0
 21 19  2  0  0  0  0
 22 20  1  0  0  0  0
  4  5  1  0  0  0  0
  6  8  2  0  0  0  0
 18 21  1  0  0  0  0
 17 22  2  0  0  0  0
  2  1  2  0  0  0  0
  3  1  1  0  0  0  0
  4  2  1  0  0  0  0
  5  3  2  0  0  0  0
  6  2  1  0  0  0  0
  7  1  1  0  0  0  0
  8  9  1  0  0  0  0
  9  7  2  0  0  0  0
 10  5  1  0  0  0  0
 11  3  1  0  0  0  0
 24 23  1  0  0  0  0
 25 23  2  0  0  0  0
 26 23  2  0  0  0  0
 27 23  1  0  0  0  0
 28 27  2  0  0  0  0
 29 27  1  0  0  0  0
 30 28  1  0  0  0  0
 31 29  2  0  0  0  0
 32 31  1  0  0  0  0
 30 32  2  0  0  0  0
M  CHG  2   1   1  24  -1
M  END
>  <IDNUMBER>
F1029-0066

>  <Chemical_Name>
3-amino-2,7-diphenyl-4??-[1,3]thiazolo[3,2-a]pyrimidin-4-ylium benzenesulfonate

>  <PriceCoeff>
1.00

>  <CAS>
483966-84-3

>  <MW>
304.39

>  <Description>
solid

>  <FSP3>
0.00

>  <clogP>
-0.11

>  <TPSA>
43.01

>  <Acceptor>
1

>  <Donor>
1

>  <RotBonds>
2

>  <HAC>
22

>  <Collection>
General

$$$$
F1029-0070
  Mrv2219 10102508112D          

 30 33  0  0  0  0            999 V2000
    0.7148   -1.6803    0.0000 N   0  3  0  0  0  0  0  0  0  0  0  0
    1.3722   -2.1363    0.0000 C   0  0  0  0  0  0  0  0  0  0  0  0
    0.9613   -0.9038    0.0000 C   0  0  0  0  0  0  0  0  0  0  0  0
    2.0253   -1.6761    0.0000 C   0  0  0  0  0  0  0  0  0  0  0  0
    1.7747   -0.9038    0.0000 S   0  0  0  0  0  0  0  0  0  0  0  0
   -0.0821   -1.8610    0.0000 C   0  0  0  0  0  0  0  0  0  0  0  0
    0.3821   -0.2753    0.0000 C   0  0  0  0  0  0  0  0  0  0  0  0
    1.3927   -2.9497    0.0000 N   0  0  0  0  0  0  0  0  0  0  0  0
    2.8141   -1.8775    0.0000 C   0  0  0  0  0  0  0  0  0  0  0  0
   -0.6491   -1.2694    0.0000 C   0  0  0  0  0  0  0  0  0  0  0  0
   -0.4190   -0.4807    0.0000 C   0  0  0  0  0  0  0  0  0  0  0  0
   -0.2958   -2.6292    0.0000 C   0  0  0  0  0  0  0  0  0  0  0  0
    3.3769   -1.2736    0.0000 C   0  0  0  0  0  0  0  0  0  0  0  0
    3.0483   -2.6498    0.0000 C   0  0  0  0  0  0  0  0  0  0  0  0
   -1.4378   -1.4338    0.0000 C   0  0  0  0  0  0  0  0  0  0  0  0
   -1.0969   -2.8264    0.0000 C   0  0  0  0  0  0  0  0  0  0  0  0
    4.1780   -1.4707    0.0000 C   0  0  0  0  0  0  0  0  0  0  0  0
    3.8247   -2.8388    0.0000 C   0  0  0  0  0  0  0  0  0  0  0  0
   -1.6843   -2.2061    0.0000 C   0  0  0  0  0  0  0  0  0  0  0  0
    4.4163   -2.2430    0.0000 C   0  0  0  0  0  0  0  0  0  0  0  0
    8.5080   -1.6843    0.0000 S   0  0  0  0  0  0  0  0  0  0  0  0
    9.4365   -1.6638    0.0000 O   0  5  0  0  0  0  0  0  0  0  0  0
    8.5080   -2.5881    0.0000 O   0  0  0  0  0  0  0  0  0  0  0  0
    8.4710   -0.7476    0.0000 O   0  0  0  0  0  0  0  0  0  0  0  0
    7.5632   -1.6843    0.0000 C   0  0  0  0  0  0  0  0  0  0  0  0
    7.0579   -0.9120    0.0000 C   0  0  0  0  0  0  0  0  0  0  0  0
    7.1277   -2.5100    0.0000 C   0  0  0  0  0  0  0  0  0  0  0  0
    6.1335   -0.9325    0.0000 C   0  0  0  0  0  0  0  0  0  0  0  0
    6.2033   -2.5265    0.0000 C   0  0  0  0  0  0  0  0  0  0  0  0
    5.6898   -1.7377    0.0000 C   0  0  0  0  0  0  0  0  0  0  0  0
 12  6  1  0  0  0  0
 13  9  1  0  0  0  0
 14  9  2  0  0  0  0
 15 10  1  0  0  0  0
 16 12  2  0  0  0  0
 17 13  2  0  0  0  0
 18 14  1  0  0  0  0
 19 16  1  0  0  0  0
 20 18  2  0  0  0  0
  5  4  1  0  0  0  0
 11  7  2  0  0  0  0
 19 15  2  0  0  0  0
 17 20  1  0  0  0  0
  2  1  1  0  0  0  0
  3  1  2  0  0  0  0
  4  2  2  0  0  0  0
  5  3  1  0  0  0  0
  6  1  1  0  0  0  0
  7  3  1  0  0  0  0
  8  2  1  0  0  0  0
  9  4  1  0  0  0  0
 10  6  2  0  0  0  0
 11 10  1  0  0  0  0
 22 21  1  0  0  0  0
 23 21  2  0  0  0  0
 24 21  2  0  0  0  0
 25 21  1  0  0  0  0
 26 25  2  0  0  0  0
 27 25  1  0  0  0  0
 28 26  1  0  0  0  0
 29 27  2  0  0  0  0
 30 29  1  0  0  0  0
 28 30  2  0  0  0  0
M  CHG  2   1   1  22  -1
M  END
>  <IDNUMBER>
F1029-0070

>  <Chemical_Name>
1-amino-2-phenyl-10??-[1,3]thiazolo[3,2-a]quinolin-10-ylium benzenesulfonate

>  <PriceCoeff>
1.00

>  <MW>
277.36

>  <Description>
solid

>  <FSP3>
0.00

>  <clogP>
0.54

>  <TPSA>
30.12

>  <Acceptor>
0

>  <Donor>
1

>  <RotBonds>
1

>  <HAC>
20

>  <Collection>
General

$$$$
F1058-0140
  Mrv2219 10102508112D          

 20 20  0  0  0  0            999 V2000
    3.1250   -0.5875    0.0000 S   0  0  0  0  0  0  0  0  0  0  0  0
    1.0625    0.1250    0.0000 C   0  0  0  0  0  0  0  0  0  0  0  0
    0.6500    0.8458    0.0000 N   0  3  0  0  0  0  0  0  0  0  0  0
    2.3000   -0.5875    0.0000 C   0  0  0  0  0  0  0  0  0  0  0  0
    1.8875    0.1250    0.0000 C   0  0  0  0  0  0  0  0  0  0  0  0
    3.9500   -0.5875    0.0000 N   0  0  0  0  0  0  0  0  0  0  0  0
    3.1250   -1.4125    0.0000 O   0  0  0  0  0  0  0  0  0  0  0  0
    3.1250    0.2375    0.0000 O   0  0  0  0  0  0  0  0  0  0  0  0
    0.6500   -0.5875    0.0000 C   0  0  0  0  0  0  0  0  0  0  0  0
    1.0625    1.5583    0.0000 O   0  5  0  0  0  0  0  0  0  0  0  0
   -0.1750    0.8458    0.0000 O   0  0  0  0  0  0  0  0  0  0  0  0
    1.8875   -1.3042    0.0000 C   0  0  0  0  0  0  0  0  0  0  0  0
    1.0625   -1.3042    0.0000 C   0  0  0  0  0  0  0  0  0  0  0  0
   -0.1750   -0.5875    0.0000 Cl  0  0  0  0  0  0  0  0  0  0  0  0
    4.3625   -1.3042    0.0000 C   0  0  0  0  0  0  0  0  0  0  0  0
    4.3625    0.1250    0.0000 C   0  0  0  0  0  0  0  0  0  0  0  0
    5.1875    0.1250    0.0000 C   0  0  0  0  0  0  0  0  0  0  0  0
    5.1875   -1.3042    0.0000 C   0  0  0  0  0  0  0  0  0  0  0  0
    5.6042    0.8458    0.0000 C   0  0  0  0  0  0  0  0  0  0  0  0
    5.6042   -2.0167    0.0000 C   0  0  0  0  0  0  0  0  0  0  0  0
  2  5  1  0  0  0  0
  3  2  1  0  0  0  0
  4  1  1  0  0  0  0
  5  4  2  0  0  0  0
  6  1  1  0  0  0  0
  7  1  2  0  0  0  0
  8  1  2  0  0  0  0
  9 13  1  0  0  0  0
 10  3  1  0  0  0  0
 11  3  2  0  0  0  0
 12  4  1  0  0  0  0
 13 12  2  0  0  0  0
 14  9  1  0  0  0  0
 15  6  1  0  0  0  0
 16  6  1  0  0  0  0
 17 16  1  0  0  0  0
 18 15  1  0  0  0  0
 19 17  1  0  0  0  0
 20 18  1  0  0  0  0
  9  2  2  0  0  0  0
M  CHG  2   3   1  10  -1
M  END
>  <IDNUMBER>
F1058-0140

>  <Chemical_Name>
4-chloro-3-nitro-N,N-dipropylbenzene-1-sulfonamide

>  <PriceCoeff>
1.00

>  <CAS>
368427-79-6

>  <MW>
320.79

>  <Description>
solid

>  <FSP3>
0.50

>  <clogP>
3.76

>  <TPSA>
88.90

>  <Acceptor>
4

>  <Donor>
0

>  <RotBonds>
7

>  <HAC>
20

>  <Collection>
General

>  <PPDS>
+

$$$$
F1064-0001
  Mrv2219 10102508112D          

 23 24  0  0  0  0            999 V2000
   -2.0928    1.0490    0.0000 C   0  0  0  0  0  0  0  0  0  0  0  0
   -2.0928    1.8800    0.0000 C   0  0  0  0  0  0  0  0  0  0  0  0
   -1.3175    0.8057    0.0000 N   0  0  0  0  0  0  0  0  0  0  0  0
   -2.7973    0.6334    0.0000 N   0  0  0  0  0  0  0  0  0  0  0  0
   -3.5067    1.8800    0.0000 N   0  0  0  0  0  0  0  0  0  0  0  0
   -3.5067    1.0490    0.0000 C   0  0  0  0  0  0  0  0  0  0  0  0
   -2.7973    2.2905    0.0000 C   0  0  0  0  0  0  0  0  0  0  0  0
   -0.8310    1.4594    0.0000 C   0  0  0  0  0  0  0  0  0  0  0  0
   -1.3175    2.1436    0.0000 N   0  0  0  0  0  0  0  0  0  0  0  0
   -4.2364    0.6334    0.0000 O   0  0  0  0  0  0  0  0  0  0  0  0
   -2.7973    3.1165    0.0000 O   0  0  0  0  0  0  0  0  0  0  0  0
    0.0000    1.4594    0.0000 N   0  0  0  0  0  0  0  0  0  0  0  0
   -2.7973   -0.1875    0.0000 C   0  0  0  0  0  0  0  0  0  0  0  0
   -4.2364    2.2905    0.0000 C   0  0  0  0  0  0  0  0  0  0  0  0
   -1.0490    2.9442    0.0000 C   0  0  0  0  0  0  0  0  0  0  0  0
    1.6470    0.0557    0.0000 N   0  0  0  0  0  0  0  0  0  0  0  0
    0.4105    0.7550    0.0000 C   0  0  0  0  0  0  0  0  0  0  0  0
    1.2365    0.7854    0.0000 C   0  0  0  0  0  0  0  0  0  0  0  0
    2.4780    0.0760    0.0000 C   0  0  0  0  0  0  0  0  0  0  0  0
    1.2365   -0.6537    0.0000 C   0  0  0  0  0  0  0  0  0  0  0  0
   -0.2432    3.1165    0.0000 C   0  0  0  0  0  0  0  0  0  0  0  0
    2.8936   -0.6284    0.0000 C   0  0  0  0  0  0  0  0  0  0  0  0
    0.4105   -0.6284    0.0000 C   0  0  0  0  0  0  0  0  0  0  0  0
  2  1  2  0  0  0  0
  3  1  1  0  0  0  0
  4  1  1  0  0  0  0
  5  6  1  0  0  0  0
  6  4  1  0  0  0  0
  7  2  1  0  0  0  0
  8  3  2  0  0  0  0
  9  2  1  0  0  0  0
 10  6  2  0  0  0  0
 11  7  2  0  0  0  0
 12  8  1  0  0  0  0
 13  4  1  0  0  0  0
 14  5  1  0  0  0  0
 15  9  1  0  0  0  0
 16 18  1  0  0  0  0
 17 12  1  0  0  0  0
 18 17  1  0  0  0  0
 19 16  1  0  0  0  0
 20 16  1  0  0  0  0
 21 15  1  0  0  0  0
 22 19  1  0  0  0  0
 23 20  1  0  0  0  0
  8  9  1  0  0  0  0
  7  5  1  0  0  0  0
M  END
>  <IDNUMBER>
F1064-0001

>  <Chemical_Name>
8-{[2-(diethylamino)ethyl]amino}-7-ethyl-1,3-dimethyl-2,3,6,7-tetrahydro-1H-purine-2,6-dione

>  <PriceCoeff>
1.50

>  <CAS>
505080-56-8

>  <MW>
322.41

>  <Description>
solid

>  <FSP3>
0.67

>  <clogP>
2.31

>  <TPSA>
73.71

>  <Acceptor>
4

>  <Donor>
3

>  <RotBonds>
7

>  <HAC>
23

>  <Collection>
Advanced

>  <PPDS>
+

$$$$
F1064-0180
  Mrv2219 10102508112D          

 17 18  0  0  0  0            999 V2000
   -2.8365   -0.4623    0.0000 C   0  0  0  0  0  0  0  0  0  0  0  0
   -2.5626    0.3367    0.0000 C   0  0  0  0  0  0  0  0  0  0  0  0
   -2.1688   -0.9417    0.0000 N   0  0  0  0  0  0  0  0  0  0  0  0
   -3.6470   -0.6164    0.0000 N   0  0  0  0  0  0  0  0  0  0  0  0
   -3.9324    0.7819    0.0000 N   0  0  0  0  0  0  0  0  0  0  0  0
   -4.1949    0.0171    0.0000 C   0  0  0  0  0  0  0  0  0  0  0  0
   -3.1105    0.9531    0.0000 C   0  0  0  0  0  0  0  0  0  0  0  0
   -1.4839   -0.4509    0.0000 C   0  0  0  0  0  0  0  0  0  0  0  0
   -1.7293    0.3367    0.0000 N   0  0  0  0  0  0  0  0  0  0  0  0
   -5.0453   -0.1599    0.0000 O   0  0  0  0  0  0  0  0  0  0  0  0
   -2.8080    1.7578    0.0000 O   0  0  0  0  0  0  0  0  0  0  0  0
   -0.6791   -0.7078    0.0000 N   0  0  0  0  0  0  0  0  0  0  0  0
   -3.9039   -1.4383    0.0000 C   0  0  0  0  0  0  0  0  0  0  0  0
   -4.4518    1.4383    0.0000 C   0  0  0  0  0  0  0  0  0  0  0  0
   -1.1814    0.9760    0.0000 C   0  0  0  0  0  0  0  0  0  0  0  0
   -0.3709    0.8390    0.0000 C   0  0  0  0  0  0  0  0  0  0  0  0
    0.1770    1.4554    0.0000 C   0  0  0  0  0  0  0  0  0  0  0  0
  2  1  2  0  0  0  0
  3  1  1  0  0  0  0
  4  1  1  0  0  0  0
  5  6  1  0  0  0  0
  6  4  1  0  0  0  0
  7  2  1  0  0  0  0
  8  3  2  0  0  0  0
  9  2  1  0  0  0  0
 10  6  2  0  0  0  0
 11  7  2  0  0  0  0
 12  8  1  0  0  0  0
 13  4  1  0  0  0  0
 14  5  1  0  0  0  0
 15  9  1  0  0  0  0
 16 15  1  0  0  0  0
 17 16  1  0  0  0  0
  8  9  1  0  0  0  0
  5  7  1  0  0  0  0
M  END
>  <IDNUMBER>
F1064-0180

>  <Chemical_Name>
8-amino-1,3-dimethyl-7-propyl-2,3,6,7-tetrahydro-1H-purine-2,6-dione

>  <PriceCoeff>
1.50

>  <CAS>
135574-31-1

>  <MW>
237.26

>  <Description>
solid

>  <FSP3>
0.50

>  <clogP>
0.75

>  <TPSA>
84.46

>  <Acceptor>
3

>  <Donor>
2

>  <RotBonds>
2

>  <HAC>
17

>  <Collection>
Advanced

>  <PPDS>
+

$$$$
F1064-0183
  Mrv2219 10102508112D          

 19 20  0  0  0  0            999 V2000
   -2.3657   -0.3466    0.0000 C   0  0  0  0  0  0  0  0  0  0  0  0
   -2.1103    0.4378    0.0000 C   0  0  0  0  0  0  0  0  0  0  0  0
   -1.6967   -0.8089    0.0000 N   0  0  0  0  0  0  0  0  0  0  0  0
   -3.1564   -0.5534    0.0000 N   0  0  0  0  0  0  0  0  0  0  0  0
   -3.4483    0.8758    0.0000 N   0  0  0  0  0  0  0  0  0  0  0  0
   -3.7158    0.0668    0.0000 C   0  0  0  0  0  0  0  0  0  0  0  0
   -2.6576    1.0521    0.0000 C   0  0  0  0  0  0  0  0  0  0  0  0
   -1.0217   -0.3163    0.0000 C   0  0  0  0  0  0  0  0  0  0  0  0
   -1.2893    0.4378    0.0000 N   0  0  0  0  0  0  0  0  0  0  0  0
   -4.5248   -0.1338    0.0000 O   0  0  0  0  0  0  0  0  0  0  0  0
   -2.4266    1.8428    0.0000 O   0  0  0  0  0  0  0  0  0  0  0  0
   -0.2372   -0.5534    0.0000 N   0  0  0  0  0  0  0  0  0  0  0  0
   -3.3875   -1.3380    0.0000 C   0  0  0  0  0  0  0  0  0  0  0  0
   -4.0077    1.4899    0.0000 C   0  0  0  0  0  0  0  0  0  0  0  0
   -0.7967    1.1433    0.0000 C   0  0  0  0  0  0  0  0  0  0  0  0
    0.0000   -1.3380    0.0000 C   0  0  0  0  0  0  0  0  0  0  0  0
    0.0244    1.0521    0.0000 C   0  0  0  0  0  0  0  0  0  0  0  0
    0.7846   -1.5387    0.0000 C   0  0  0  0  0  0  0  0  0  0  0  0
    0.5169    1.7271    0.0000 C   0  0  0  0  0  0  0  0  0  0  0  0
  2  1  2  0  0  0  0
  3  1  1  0  0  0  0
  4  1  1  0  0  0  0
  5  6  1  0  0  0  0
  6  4  1  0  0  0  0
  7  2  1  0  0  0  0
  8  3  2  0  0  0  0
  9  2  1  0  0  0  0
 10  6  2  0  0  0  0
 11  7  2  0  0  0  0
 12  8  1  0  0  0  0
 13  4  1  0  0  0  0
 14  5  1  0  0  0  0
 15  9  1  0  0  0  0
 16 12  1  0  0  0  0
 17 15  1  0  0  0  0
 18 16  1  0  0  0  0
 19 17  1  0  0  0  0
  9  8  1  0  0  0  0
  7  5  1  0  0  0  0
M  END
>  <IDNUMBER>
F1064-0183

>  <Chemical_Name>
8-(ethylamino)-1,3-dimethyl-7-propyl-2,3,6,7-tetrahydro-1H-purine-2,6-dione

>  <PriceCoeff>
1.00

>  <CAS>
505081-19-6

>  <MW>
265.31

>  <Description>
solid

>  <FSP3>
0.58

>  <clogP>
2.10

>  <TPSA>
70.47

>  <Acceptor>
3

>  <Donor>
2

>  <RotBonds>
4

>  <HAC>
19

>  <Collection>
General

>  <PPDS>
+

$$$$
F1065-0002
  Mrv2219 10102508112D          

 24 26  0  0  0  0            999 V2000
   -0.8887    0.5072    0.0000 N   0  0  0  0  0  0  0  0  0  0  0  0
   -0.1663    0.9374    0.0000 C   0  0  0  0  0  0  0  0  0  0  0  0
   -0.7142   -0.3084    0.0000 C   0  0  0  0  0  0  0  0  0  0  0  0
    0.1015   -0.3896    0.0000 C   0  0  0  0  0  0  0  0  0  0  0  0
    0.4545    0.3733    0.0000 C   0  0  0  0  0  0  0  0  0  0  0  0
    1.7572   -1.8505    0.0000 C   0  0  0  0  0  0  0  0  0  0  0  0
    0.5154   -1.1241    0.0000 S   0  0  0  0  0  0  0  0  0  0  0  0
    1.3513   -1.1485    0.0000 C   0  0  0  0  0  0  0  0  0  0  0  0
    1.3513   -2.5687    0.0000 C   0  0  0  0  0  0  0  0  0  0  0  0
   -1.6070    0.9374    0.0000 C   0  0  0  0  0  0  0  0  0  0  0  0
   -0.0690    1.7531    0.0000 O   0  0  0  0  0  0  0  0  0  0  0  0
   -1.2377   -0.9293    0.0000 O   0  0  0  0  0  0  0  0  0  0  0  0
    1.7815   -3.2911    0.0000 O   0  0  0  0  0  0  0  0  0  0  0  0
   -1.6070    1.7531    0.0000 C   0  0  0  0  0  0  0  0  0  0  0  0
   -2.3090    0.5316    0.0000 C   0  0  0  0  0  0  0  0  0  0  0  0
    0.5154   -2.5850    0.0000 O   0  0  0  0  0  0  0  0  0  0  0  0
   -3.0314    1.7531    0.0000 C   0  0  0  0  0  0  0  0  0  0  0  0
   -3.0314    0.9374    0.0000 C   0  0  0  0  0  0  0  0  0  0  0  0
   -2.3090    2.1629    0.0000 C   0  0  0  0  0  0  0  0  0  0  0  0
   -3.7456    2.1548    0.0000 F   0  0  0  0  0  0  0  0  0  0  0  0
    2.5972   -1.8505    0.0000 C   0  0  0  0  0  0  0  0  0  0  0  0
    1.7815   -0.4261    0.0000 C   0  0  0  0  0  0  0  0  0  0  0  0
    3.0070   -1.1485    0.0000 C   0  0  0  0  0  0  0  0  0  0  0  0
    2.5972   -0.4261    0.0000 C   0  0  0  0  0  0  0  0  0  0  0  0
  2  1  1  0  0  0  0
  3  1  1  0  0  0  0
  4  3  1  0  0  0  0
  5  2  1  0  0  0  0
  6  8  2  0  0  0  0
  7  4  1  0  0  0  0
  8  7  1  0  0  0  0
  9  6  1  0  0  0  0
 10  1  1  0  0  0  0
 11  2  2  0  0  0  0
 12  3  2  0  0  0  0
 13  9  2  0  0  0  0
 14 10  2  0  0  0  0
 15 10  1  0  0  0  0
 16  9  1  0  0  0  0
 17 18  1  0  0  0  0
 18 15  2  0  0  0  0
 19 14  1  0  0  0  0
 20 17  1  0  0  0  0
 21  6  1  0  0  0  0
 22  8  1  0  0  0  0
 23 24  1  0  0  0  0
 24 22  2  0  0  0  0
  4  5  1  0  0  0  0
 19 17  2  0  0  0  0
 21 23  2  0  0  0  0
M  END
>  <IDNUMBER>
F1065-0002

>  <Chemical_Name>
2-{[1-(4-fluorophenyl)-2,5-dioxopyrrolidin-3-yl]sulfanyl}benzoic acid

>  <PriceCoeff>
1.00

>  <CAS>
307543-64-2

>  <MW>
345.34

>  <Description>
solid

>  <FSP3>
0.12

>  <clogP>
2.49

>  <TPSA>
99.98

>  <Acceptor>
4

>  <Donor>
0

>  <RotBonds>
4

>  <HAC>
24

>  <Collection>
General

>  <PPDS>
+

$$$$
F1065-0020
  Mrv2219 10102508112D          

 28 31  0  0  0  0            999 V2000
   -2.2083    0.2820    0.0000 N   0  0  0  0  0  0  0  0  0  0  0  0
   -2.8464    0.7925    0.0000 C   0  0  0  0  0  0  0  0  0  0  0  0
   -1.4960    0.7124    0.0000 C   0  0  0  0  0  0  0  0  0  0  0  0
   -2.4101   -0.5343    0.0000 C   0  0  0  0  0  0  0  0  0  0  0  0
   -1.7186    1.5049    0.0000 C   0  0  0  0  0  0  0  0  0  0  0  0
   -2.5437    1.5642    0.0000 C   0  0  0  0  0  0  0  0  0  0  0  0
   -1.7779   -1.0893    0.0000 C   0  0  0  0  0  0  0  0  0  0  0  0
    2.0332    1.2704    0.0000 N   0  0  0  0  0  0  0  0  0  0  0  0
   -1.1398    2.0985    0.0000 N   0  0  0  0  0  0  0  0  0  0  0  0
   -3.6478    0.5580    0.0000 O   0  0  0  0  0  0  0  0  0  0  0  0
    1.2466    1.4603    0.0000 C   0  0  0  0  0  0  0  0  0  0  0  0
   -0.7272    0.4155    0.0000 O   0  0  0  0  0  0  0  0  0  0  0  0
   -1.9738   -1.8907    0.0000 C   0  0  0  0  0  0  0  0  0  0  0  0
    3.6330    0.8904    0.0000 O   0  0  0  0  0  0  0  0  0  0  0  0
    0.6767    0.8696    0.0000 C   0  0  0  0  0  0  0  0  0  0  0  0
    1.0240    2.2587    0.0000 C   0  0  0  0  0  0  0  0  0  0  0  0
   -0.3354    1.8848    0.0000 C   0  0  0  0  0  0  0  0  0  0  0  0
   -3.1937   -0.7688    0.0000 C   0  0  0  0  0  0  0  0  0  0  0  0
    0.2404    2.4546    0.0000 C   0  0  0  0  0  0  0  0  0  0  0  0
   -0.1158    1.0923    0.0000 C   0  0  0  0  0  0  0  0  0  0  0  0
    2.2706    0.4957    0.0000 C   0  0  0  0  0  0  0  0  0  0  0  0
    2.6031    1.8610    0.0000 C   0  0  0  0  0  0  0  0  0  0  0  0
   -0.9854   -0.8459    0.0000 C   0  0  0  0  0  0  0  0  0  0  0  0
   -3.3718   -1.5791    0.0000 C   0  0  0  0  0  0  0  0  0  0  0  0
   -2.7574   -2.1490    0.0000 C   0  0  0  0  0  0  0  0  0  0  0  0
    3.3748    1.6829    0.0000 C   0  0  0  0  0  0  0  0  0  0  0  0
    3.0631    0.2820    0.0000 C   0  0  0  0  0  0  0  0  0  0  0  0
   -1.3416   -2.4487    0.0000 C   0  0  0  0  0  0  0  0  0  0  0  0
  2  1  1  0  0  0  0
  3  1  1  0  0  0  0
  4  1  1  0  0  0  0
  5  3  1  0  0  0  0
  6  2  1  0  0  0  0
  7  4  1  0  0  0  0
  8 11  1  0  0  0  0
  9  5  1  0  0  0  0
 10  2  2  0  0  0  0
 11 15  2  0  0  0  0
 12  3  2  0  0  0  0
 13  7  2  0  0  0  0
 14 26  1  0  0  0  0
 15 20  1  0  0  0  0
 16 19  2  0  0  0  0
 17  9  1  0  0  0  0
 18  4  2  0  0  0  0
 19 17  1  0  0  0  0
 20 17  2  0  0  0  0
 21  8  1  0  0  0  0
 22  8  1  0  0  0  0
 23  7  1  0  0  0  0
 24 18  1  0  0  0  0
 25 24  2  0  0  0  0
 26 22  1  0  0  0  0
 27 21  1  0  0  0  0
 28 13  1  0  0  0  0
  6  5  1  0  0  0  0
 25 13  1  0  0  0  0
 11 16  1  0  0  0  0
 14 27  1  0  0  0  0
M  END
>  <IDNUMBER>
F1065-0020

>  <Chemical_Name>
1-(2,3-dimethylphenyl)-3-{[4-(morpholin-4-yl)phenyl]amino}pyrrolidine-2,5-dione

>  <PriceCoeff>
1.00

>  <CAS>
473704-46-0

>  <MW>
379.45

>  <Description>
solid

>  <FSP3>
0.36

>  <clogP>
2.49

>  <TPSA>
61.88

>  <Acceptor>
5

>  <Donor>
2

>  <RotBonds>
4

>  <HAC>
28

>  <Collection>
General

>  <PPDS>
+

$$$$
F1065-0021
  Mrv2219 10102508112D          

 30 33  0  0  0  0            999 V2000
   -0.7497   -0.6873    0.0000 N   0  0  0  0  0  0  0  0  0  0  0  0
   -0.4831    0.0958    0.0000 C   0  0  0  0  0  0  0  0  0  0  0  0
   -0.0833   -1.1871    0.0000 C   0  0  0  0  0  0  0  0  0  0  0  0
    0.5998   -0.7039    0.0000 C   0  0  0  0  0  0  0  0  0  0  0  0
    0.3291    0.0958    0.0000 C   0  0  0  0  0  0  0  0  0  0  0  0
    3.8361    1.2995    0.0000 N   0  0  0  0  0  0  0  0  0  0  0  0
    1.4037   -0.9372    0.0000 N   0  0  0  0  0  0  0  0  0  0  0  0
   -1.5619   -0.7872    0.0000 C   0  0  0  0  0  0  0  0  0  0  0  0
   -4.3484   -1.8660    0.0000 C   0  0  0  0  0  0  0  0  0  0  0  0
   -0.9497    0.7997    0.0000 O   0  0  0  0  0  0  0  0  0  0  0  0
    3.2155    0.7455    0.0000 C   0  0  0  0  0  0  0  0  0  0  0  0
   -0.0833   -2.0035    0.0000 O   0  0  0  0  0  0  0  0  0  0  0  0
   -4.0193   -1.1163    0.0000 S   0  0  0  0  0  0  0  0  0  0  0  0
    5.0649    2.3949    0.0000 O   0  0  0  0  0  0  0  0  0  0  0  0
   -2.0700   -0.1375    0.0000 C   0  0  0  0  0  0  0  0  0  0  0  0
   -1.8493   -1.5661    0.0000 C   0  0  0  0  0  0  0  0  0  0  0  0
    3.3988   -0.0667    0.0000 C   0  0  0  0  0  0  0  0  0  0  0  0
    2.4366    0.9996    0.0000 C   0  0  0  0  0  0  0  0  0  0  0  0
    2.0035   -0.3791    0.0000 C   0  0  0  0  0  0  0  0  0  0  0  0
   -3.1988   -1.0288    0.0000 C   0  0  0  0  0  0  0  0  0  0  0  0
   -3.8694   -2.5158    0.0000 F   0  0  0  0  0  0  0  0  0  0  0  0
   -5.1689   -1.9535    0.0000 F   0  0  0  0  0  0  0  0  0  0  0  0
    2.7782   -0.6290    0.0000 C   0  0  0  0  0  0  0  0  0  0  0  0
    1.8160    0.4206    0.0000 C   0  0  0  0  0  0  0  0  0  0  0  0
   -2.6615   -1.6994    0.0000 C   0  0  0  0  0  0  0  0  0  0  0  0
   -2.8823   -0.2791    0.0000 C   0  0  0  0  0  0  0  0  0  0  0  0
    3.6654    2.1117    0.0000 C   0  0  0  0  0  0  0  0  0  0  0  0
    4.6275    1.0329    0.0000 C   0  0  0  0  0  0  0  0  0  0  0  0
    5.2356    1.5702    0.0000 C   0  0  0  0  0  0  0  0  0  0  0  0
    4.2984    2.6615    0.0000 C   0  0  0  0  0  0  0  0  0  0  0  0
  2  1  1  0  0  0  0
  3  1  1  0  0  0  0
  4  3  1  0  0  0  0
  5  2  1  0  0  0  0
  6 11  1  0  0  0  0
  7  4  1  0  0  0  0
  8  1  1  0  0  0  0
  9 13  1  0  0  0  0
 10  2  2  0  0  0  0
 11 18  1  0  0  0  0
 12  3  2  0  0  0  0
 13 20  1  0  0  0  0
 14 29  1  0  0  0  0
 15  8  2  0  0  0  0
 16  8  1  0  0  0  0
 17 23  1  0  0  0  0
 18 24  2  0  0  0  0
 19  7  1  0  0  0  0
 20 25  1  0  0  0  0
 21  9  1  0  0  0  0
 22  9  1  0  0  0  0
 23 19  2  0  0  0  0
 24 19  1  0  0  0  0
 25 16  2  0  0  0  0
 26 15  1  0  0  0  0
 27  6  1  0  0  0  0
 28  6  1  0  0  0  0
 29 28  1  0  0  0  0
 30 27  1  0  0  0  0
  5  4  1  0  0  0  0
 26 20  2  0  0  0  0
 17 11  2  0  0  0  0
 30 14  1  0  0  0  0
M  END
>  <IDNUMBER>
F1065-0021

>  <Chemical_Name>
1-{4-[(difluoromethyl)sulfanyl]phenyl}-3-{[4-(morpholin-4-yl)phenyl]amino}pyrrolidine-2,5-dione

>  <PriceCoeff>
1.00

>  <CAS>
473705-02-1

>  <MW>
433.47

>  <Description>
solid

>  <FSP3>
0.33

>  <clogP>
2.95

>  <TPSA>
87.18

>  <Acceptor>
5

>  <Donor>
2

>  <RotBonds>
6

>  <HAC>
30

>  <Collection>
General

>  <PPDS>
+

$$$$
F1065-0143
  Mrv2219 10102508112D          

 24 26  0  0  0  0            999 V2000
   -0.8843    1.0966    0.0000 N   0  0  0  0  0  0  0  0  0  0  0  0
   -0.7042    0.2958    0.0000 C   0  0  0  0  0  0  0  0  0  0  0  0
   -0.1640    1.5146    0.0000 C   0  0  0  0  0  0  0  0  0  0  0  0
    0.1158    0.2026    0.0000 C   0  0  0  0  0  0  0  0  0  0  0  0
    0.4470    0.9615    0.0000 C   0  0  0  0  0  0  0  0  0  0  0  0
    1.7590   -1.2188    0.0000 C   0  0  0  0  0  0  0  0  0  0  0  0
    0.5145   -0.5049    0.0000 S   0  0  0  0  0  0  0  0  0  0  0  0
    1.3506   -0.5049    0.0000 C   0  0  0  0  0  0  0  0  0  0  0  0
    1.3346   -1.9423    0.0000 C   0  0  0  0  0  0  0  0  0  0  0  0
   -1.5918    1.5146    0.0000 C   0  0  0  0  0  0  0  0  0  0  0  0
   -1.2606   -0.3216    0.0000 O   0  0  0  0  0  0  0  0  0  0  0  0
   -0.0643    2.3411    0.0000 O   0  0  0  0  0  0  0  0  0  0  0  0
    1.7494   -2.6626    0.0000 O   0  0  0  0  0  0  0  0  0  0  0  0
    0.5049   -1.9423    0.0000 O   0  0  0  0  0  0  0  0  0  0  0  0
   -2.3025    1.1159    0.0000 C   0  0  0  0  0  0  0  0  0  0  0  0
    2.5887   -1.2188    0.0000 C   0  0  0  0  0  0  0  0  0  0  0  0
    1.7590    0.2026    0.0000 C   0  0  0  0  0  0  0  0  0  0  0  0
   -3.0099    1.5403    0.0000 C   0  0  0  0  0  0  0  0  0  0  0  0
   -2.3121    0.2797    0.0000 C   0  0  0  0  0  0  0  0  0  0  0  0
    2.9939   -0.5049    0.0000 C   0  0  0  0  0  0  0  0  0  0  0  0
    2.5887    0.1897    0.0000 C   0  0  0  0  0  0  0  0  0  0  0  0
   -3.0356   -0.1158    0.0000 C   0  0  0  0  0  0  0  0  0  0  0  0
   -3.7432    1.1287    0.0000 C   0  0  0  0  0  0  0  0  0  0  0  0
   -3.7528    0.3087    0.0000 C   0  0  0  0  0  0  0  0  0  0  0  0
  2  1  1  0  0  0  0
  3  1  1  0  0  0  0
  4  2  1  0  0  0  0
  5  3  1  0  0  0  0
  6  8  2  0  0  0  0
  7  4  1  0  0  0  0
  8  7  1  0  0  0  0
  9  6  1  0  0  0  0
 10  1  1  0  0  0  0
 11  2  2  0  0  0  0
 12  3  2  0  0  0  0
 13  9  2  0  0  0  0
 14  9  1  0  0  0  0
 15 10  1  0  0  0  0
 16  6  1  0  0  0  0
 17  8  1  0  0  0  0
 18 15  2  0  0  0  0
 19 15  1  0  0  0  0
 20 21  1  0  0  0  0
 21 17  2  0  0  0  0
 22 19  2  0  0  0  0
 23 18  1  0  0  0  0
 24 22  1  0  0  0  0
  5  4  1  0  0  0  0
 24 23  2  0  0  0  0
 20 16  2  0  0  0  0
M  END
>  <IDNUMBER>
F1065-0143

>  <Chemical_Name>
2-[(1-benzyl-2,5-dioxopyrrolidin-3-yl)sulfanyl]benzoic acid

>  <PriceCoeff>
1.00

>  <MW>
341.38

>  <Description>
solid

>  <FSP3>
0.17

>  <clogP>
2.82

>  <TPSA>
130.10

>  <Acceptor>
4

>  <Donor>
0

>  <RotBonds>
5

>  <HAC>
24

>  <Collection>
General

$$$$
F1065-0144
  Mrv2219 10102508112D          

 25 27  0  0  0  0            999 V2000
   -0.5626    1.1033    0.0000 N   0  0  0  0  0  0  0  0  0  0  0  0
    0.0782    1.5627    0.0000 C   0  0  0  0  0  0  0  0  0  0  0  0
   -0.3250    0.3094    0.0000 C   0  0  0  0  0  0  0  0  0  0  0  0
   -1.2908    1.4877    0.0000 C   0  0  0  0  0  0  0  0  0  0  0  0
    0.5157    0.3094    0.0000 C   0  0  0  0  0  0  0  0  0  0  0  0
    0.7533    1.1033    0.0000 C   0  0  0  0  0  0  0  0  0  0  0  0
    2.1410   -1.1158    0.0000 C   0  0  0  0  0  0  0  0  0  0  0  0
    0.9220   -0.4032    0.0000 S   0  0  0  0  0  0  0  0  0  0  0  0
    1.7378   -0.4032    0.0000 C   0  0  0  0  0  0  0  0  0  0  0  0
   -1.9753    1.0283    0.0000 C   0  0  0  0  0  0  0  0  0  0  0  0
    1.7253   -1.8284    0.0000 C   0  0  0  0  0  0  0  0  0  0  0  0
    0.0782    2.3878    0.0000 O   0  0  0  0  0  0  0  0  0  0  0  0
   -0.8220   -0.3501    0.0000 O   0  0  0  0  0  0  0  0  0  0  0  0
    2.1410   -2.5410    0.0000 O   0  0  0  0  0  0  0  0  0  0  0  0
   -2.7254    1.3971    0.0000 C   0  0  0  0  0  0  0  0  0  0  0  0
    0.9220   -1.8284    0.0000 O   0  0  0  0  0  0  0  0  0  0  0  0
   -1.3377    2.2878    0.0000 C   0  0  0  0  0  0  0  0  0  0  0  0
    2.9755   -1.1158    0.0000 C   0  0  0  0  0  0  0  0  0  0  0  0
   -1.8909    0.2125    0.0000 C   0  0  0  0  0  0  0  0  0  0  0  0
    2.1410    0.3094    0.0000 C   0  0  0  0  0  0  0  0  0  0  0  0
   -2.0722    2.6785    0.0000 C   0  0  0  0  0  0  0  0  0  0  0  0
   -2.7473    2.2222    0.0000 C   0  0  0  0  0  0  0  0  0  0  0  0
   -3.4130    0.9626    0.0000 C   0  0  0  0  0  0  0  0  0  0  0  0
    3.3974   -0.4032    0.0000 C   0  0  0  0  0  0  0  0  0  0  0  0
    2.9755    0.3094    0.0000 C   0  0  0  0  0  0  0  0  0  0  0  0
  2  1  1  0  0  0  0
  3  1  1  0  0  0  0
  4  1  1  0  0  0  0
  5  3  1  0  0  0  0
  6  2  1  0  0  0  0
  7  9  2  0  0  0  0
  8  5  1  0  0  0  0
  9  8  1  0  0  0  0
 10  4  1  0  0  0  0
 11  7  1  0  0  0  0
 12  2  2  0  0  0  0
 13  3  2  0  0  0  0
 14 11  2  0  0  0  0
 15 10  2  0  0  0  0
 16 11  1  0  0  0  0
 17  4  2  0  0  0  0
 18  7  1  0  0  0  0
 19 10  1  0  0  0  0
 20  9  1  0  0  0  0
 21 17  1  0  0  0  0
 22 21  2  0  0  0  0
 23 15  1  0  0  0  0
 24 25  1  0  0  0  0
 25 20  2  0  0  0  0
  6  5  1  0  0  0  0
 15 22  1  0  0  0  0
 24 18  2  0  0  0  0
M  END
>  <IDNUMBER>
F1065-0144

>  <Chemical_Name>
2-{[1-(2,3-dimethylphenyl)-2,5-dioxopyrrolidin-3-yl]sulfanyl}benzoic acid

>  <PriceCoeff>
1.00

>  <MW>
355.41

>  <Description>
solid

>  <FSP3>
0.21

>  <clogP>
2.62

>  <TPSA>
99.98

>  <Acceptor>
4

>  <Donor>
0

>  <RotBonds>
4

>  <HAC>
25

>  <Collection>
General

$$$$
F1065-0145
  Mrv2219 10102508112D          

 26 28  0  0  0  0            999 V2000
    0.1414    0.9635    0.0000 N   0  0  0  0  0  0  0  0  0  0  0  0
    0.8419    1.4074    0.0000 C   0  0  0  0  0  0  0  0  0  0  0  0
    0.3585    0.1545    0.0000 C   0  0  0  0  0  0  0  0  0  0  0  0
    1.1838    0.1151    0.0000 C   0  0  0  0  0  0  0  0  0  0  0  0
    1.4634    0.8550    0.0000 C   0  0  0  0  0  0  0  0  0  0  0  0
    2.9432   -1.1872    0.0000 C   0  0  0  0  0  0  0  0  0  0  0  0
    1.6574   -0.5919    0.0000 S   0  0  0  0  0  0  0  0  0  0  0  0
    2.4697   -0.5130    0.0000 C   0  0  0  0  0  0  0  0  0  0  0  0
    2.6045   -1.9731    0.0000 C   0  0  0  0  0  0  0  0  0  0  0  0
   -0.5689    1.3812    0.0000 C   0  0  0  0  0  0  0  0  0  0  0  0
    0.9076    2.2361    0.0000 O   0  0  0  0  0  0  0  0  0  0  0  0
   -0.1677   -0.4867    0.0000 O   0  0  0  0  0  0  0  0  0  0  0  0
    3.0780   -2.6275    0.0000 O   0  0  0  0  0  0  0  0  0  0  0  0
   -1.2726    0.9635    0.0000 C   0  0  0  0  0  0  0  0  0  0  0  0
   -0.5689    2.2197    0.0000 C   0  0  0  0  0  0  0  0  0  0  0  0
    1.7758   -2.0520    0.0000 O   0  0  0  0  0  0  0  0  0  0  0  0
   -1.9895    2.2197    0.0000 C   0  0  0  0  0  0  0  0  0  0  0  0
   -1.2726    2.6209    0.0000 C   0  0  0  0  0  0  0  0  0  0  0  0
   -1.9895    1.3680    0.0000 C   0  0  0  0  0  0  0  0  0  0  0  0
    3.7522   -1.1444    0.0000 C   0  0  0  0  0  0  0  0  0  0  0  0
   -2.7195    2.6406    0.0000 O   0  0  0  0  0  0  0  0  0  0  0  0
    2.8412    0.2236    0.0000 C   0  0  0  0  0  0  0  0  0  0  0  0
   -3.4331    2.2361    0.0000 C   0  0  0  0  0  0  0  0  0  0  0  0
    4.1270   -0.3946    0.0000 C   0  0  0  0  0  0  0  0  0  0  0  0
    3.6436    0.2926    0.0000 C   0  0  0  0  0  0  0  0  0  0  0  0
   -4.1599    2.6603    0.0000 C   0  0  0  0  0  0  0  0  0  0  0  0
  2  1  1  0  0  0  0
  3  1  1  0  0  0  0
  4  3  1  0  0  0  0
  5  2  1  0  0  0  0
  6  8  2  0  0  0  0
  7  4  1  0  0  0  0
  8  7  1  0  0  0  0
  9  6  1  0  0  0  0
 10  1  1  0  0  0  0
 11  2  2  0  0  0  0
 12  3  2  0  0  0  0
 13  9  2  0  0  0  0
 14 10  1  0  0  0  0
 15 10  2  0  0  0  0
 16  9  1  0  0  0  0
 17 18  2  0  0  0  0
 18 15  1  0  0  0  0
 19 14  2  0  0  0  0
 20  6  1  0  0  0  0
 21 17  1  0  0  0  0
 22  8  1  0  0  0  0
 23 21  1  0  0  0  0
 24 25  1  0  0  0  0
 25 22  2  0  0  0  0
 26 23  1  0  0  0  0
  5  4  1  0  0  0  0
 19 17  1  0  0  0  0
 24 20  2  0  0  0  0
M  END
>  <IDNUMBER>
F1065-0145

>  <Chemical_Name>
2-{[1-(4-ethoxyphenyl)-2,5-dioxopyrrolidin-3-yl]sulfanyl}benzoic acid

>  <PriceCoeff>
1.00

>  <CAS>
308293-17-6

>  <MW>
371.41

>  <Description>
solid

>  <FSP3>
0.21

>  <clogP>
2.69

>  <TPSA>
109.21

>  <Acceptor>
5

>  <Donor>
0

>  <RotBonds>
6

>  <HAC>
26

>  <Collection>
General

>  <PPDS>
+

$$$$
F1065-0148
  Mrv2219 10102508112D          

 23 25  0  0  0  0            999 V2000
   -0.5304    0.3713    0.0000 N   0  0  0  0  0  0  0  0  0  0  0  0
   -0.3713   -0.4562    0.0000 C   0  0  0  0  0  0  0  0  0  0  0  0
    0.4376   -0.5729    0.0000 C   0  0  0  0  0  0  0  0  0  0  0  0
    0.1936    0.7452    0.0000 C   0  0  0  0  0  0  0  0  0  0  0  0
    0.8063    0.1883    0.0000 C   0  0  0  0  0  0  0  0  0  0  0  0
   -1.1987    0.8487    0.0000 C   0  0  0  0  0  0  0  0  0  0  0  0
    0.8593   -1.2836    0.0000 N   0  0  0  0  0  0  0  0  0  0  0  0
   -1.9493    0.5065    0.0000 C   0  0  0  0  0  0  0  0  0  0  0  0
   -0.9521   -1.0423    0.0000 O   0  0  0  0  0  0  0  0  0  0  0  0
    0.2971    1.5727    0.0000 O   0  0  0  0  0  0  0  0  0  0  0  0
    1.6894   -1.2836    0.0000 C   0  0  0  0  0  0  0  0  0  0  0  0
   -2.6176    0.9627    0.0000 C   0  0  0  0  0  0  0  0  0  0  0  0
    0.4456   -2.0050    0.0000 O   0  0  0  0  0  0  0  0  0  0  0  0
   -1.1430    1.6867    0.0000 C   0  0  0  0  0  0  0  0  0  0  0  0
   -2.0262   -0.3103    0.0000 C   0  0  0  0  0  0  0  0  0  0  0  0
   -1.8140    2.1376    0.0000 C   0  0  0  0  0  0  0  0  0  0  0  0
   -2.5460    1.7902    0.0000 C   0  0  0  0  0  0  0  0  0  0  0  0
   -3.3549    0.6020    0.0000 C   0  0  0  0  0  0  0  0  0  0  0  0
    2.0925   -1.9918    0.0000 C   0  0  0  0  0  0  0  0  0  0  0  0
    2.0872   -0.5517    0.0000 C   0  0  0  0  0  0  0  0  0  0  0  0
    2.9200   -0.5517    0.0000 C   0  0  0  0  0  0  0  0  0  0  0  0
    2.9386   -1.9758    0.0000 C   0  0  0  0  0  0  0  0  0  0  0  0
    3.3337   -1.2730    0.0000 C   0  0  0  0  0  0  0  0  0  0  0  0
  2  1  1  0  0  0  0
  3  2  1  0  0  0  0
  4  1  1  0  0  0  0
  5  4  1  0  0  0  0
  6  1  1  0  0  0  0
  7  3  1  0  0  0  0
  8  6  1  0  0  0  0
  9  2  2  0  0  0  0
 10  4  2  0  0  0  0
 11  7  1  0  0  0  0
 12  8  2  0  0  0  0
 13  7  1  0  0  0  0
 14  6  2  0  0  0  0
 15  8  1  0  0  0  0
 16 14  1  0  0  0  0
 17 16  2  0  0  0  0
 18 12  1  0  0  0  0
 19 11  1  0  0  0  0
 20 11  2  0  0  0  0
 21 20  1  0  0  0  0
 22 19  2  0  0  0  0
 23 21  2  0  0  0  0
  5  3  1  0  0  0  0
 12 17  1  0  0  0  0
 23 22  1  0  0  0  0
M  END
>  <IDNUMBER>
F1065-0148

>  <Chemical_Name>
1-(2,3-dimethylphenyl)-3-(N-phenylhydroxyamino)pyrrolidine-2,5-dione

>  <PriceCoeff>
1.00

>  <CAS>
317814-61-2

>  <MW>
310.35

>  <Description>
solid

>  <FSP3>
0.22

>  <clogP>
3.25

>  <TPSA>
60.85

>  <Acceptor>
4

>  <Donor>
2

>  <RotBonds>
3

>  <HAC>
23

>  <Collection>
General

>  <PPDS>
+

$$$$
F1065-0214
  Mrv2219 10102508112D          

 29 32  0  0  0  0            999 V2000
   -2.0511    1.0218    0.0000 N   0  0  0  0  0  0  0  0  0  0  0  0
   -2.6939    1.5272    0.0000 C   0  0  0  0  0  0  0  0  0  0  0  0
   -1.3785    1.4565    0.0000 C   0  0  0  0  0  0  0  0  0  0  0  0
   -1.5606    2.2294    0.0000 C   0  0  0  0  0  0  0  0  0  0  0  0
   -2.3817    2.2852    0.0000 C   0  0  0  0  0  0  0  0  0  0  0  0
    2.1774    1.9730    0.0000 N   0  0  0  0  0  0  0  0  0  0  0  0
   -0.9921    2.8276    0.0000 N   0  0  0  0  0  0  0  0  0  0  0  0
   -2.2703    0.2229    0.0000 C   0  0  0  0  0  0  0  0  0  0  0  0
   -3.4965    1.2931    0.0000 O   0  0  0  0  0  0  0  0  0  0  0  0
    1.4083    2.1811    0.0000 C   0  0  0  0  0  0  0  0  0  0  0  0
   -0.5982    1.1333    0.0000 O   0  0  0  0  0  0  0  0  0  0  0  0
   -1.6609   -0.3270    0.0000 C   0  0  0  0  0  0  0  0  0  0  0  0
   -3.0432    0.0000    0.0000 C   0  0  0  0  0  0  0  0  0  0  0  0
    1.2039    2.9725    0.0000 C   0  0  0  0  0  0  0  0  0  0  0  0
    0.8286    1.5903    0.0000 C   0  0  0  0  0  0  0  0  0  0  0  0
   -0.1784    2.5973    0.0000 C   0  0  0  0  0  0  0  0  0  0  0  0
   -2.6604   -1.3822    0.0000 C   0  0  0  0  0  0  0  0  0  0  0  0
    0.4013    3.1843    0.0000 C   0  0  0  0  0  0  0  0  0  0  0  0
    0.0260    1.8021    0.0000 C   0  0  0  0  0  0  0  0  0  0  0  0
   -3.2661   -0.8063    0.0000 C   0  0  0  0  0  0  0  0  0  0  0  0
   -1.8690   -1.1296    0.0000 C   0  0  0  0  0  0  0  0  0  0  0  0
    2.4115    1.1778    0.0000 C   0  0  0  0  0  0  0  0  0  0  0  0
    2.7682    2.5601    0.0000 C   0  0  0  0  0  0  0  0  0  0  0  0
   -2.8499   -2.1551    0.0000 O   0  0  0  0  0  0  0  0  0  0  0  0
   -3.6228   -2.3892    0.0000 C   0  0  0  0  0  0  0  0  0  0  0  0
    3.2141    0.9549    0.0000 C   0  0  0  0  0  0  0  0  0  0  0  0
    3.5671    2.3632    0.0000 C   0  0  0  0  0  0  0  0  0  0  0  0
   -3.8086   -3.1695    0.0000 C   0  0  0  0  0  0  0  0  0  0  0  0
    3.7900    1.5717    0.0000 C   0  0  0  0  0  0  0  0  0  0  0  0
  2  1  1  0  0  0  0
  3  1  1  0  0  0  0
  4  3  1  0  0  0  0
  5  2  1  0  0  0  0
  6 10  1  0  0  0  0
  7  4  1  0  0  0  0
  8  1  1  0  0  0  0
  9  2  2  0  0  0  0
 10 15  2  0  0  0  0
 11  3  2  0  0  0  0
 12  8  1  0  0  0  0
 13  8  2  0  0  0  0
 14 18  2  0  0  0  0
 15 19  1  0  0  0  0
 16  7  1  0  0  0  0
 17 20  2  0  0  0  0
 18 16  1  0  0  0  0
 19 16  2  0  0  0  0
 20 13  1  0  0  0  0
 21 12  2  0  0  0  0
 22  6  1  0  0  0  0
 23  6  1  0  0  0  0
 24 17  1  0  0  0  0
 25 24  1  0  0  0  0
 26 22  1  0  0  0  0
 27 23  1  0  0  0  0
 28 25  1  0  0  0  0
 29 27  1  0  0  0  0
  4  5  1  0  0  0  0
 21 17  1  0  0  0  0
 14 10  1  0  0  0  0
 26 29  1  0  0  0  0
M  END
>  <IDNUMBER>
F1065-0214

>  <Chemical_Name>
1-(4-ethoxyphenyl)-3-{[4-(piperidin-1-yl)phenyl]amino}pyrrolidine-2,5-dione

>  <PriceCoeff>
1.00

>  <CAS>
353744-92-0

>  <MW>
393.48

>  <Description>
solid

>  <FSP3>
0.39

>  <clogP>
3.94

>  <TPSA>
61.88

>  <Acceptor>
5

>  <Donor>
2

>  <RotBonds>
6

>  <HAC>
29

>  <Collection>
General

>  <PPDS>
+

$$$$
F1065-0219
  Mrv2219 10102508112D          

 26 28  0  0  0  0            999 V2000
   -0.1345    0.5649    0.0000 N   0  0  0  0  0  0  0  0  0  0  0  0
    0.5688    0.9684    0.0000 C   0  0  0  0  0  0  0  0  0  0  0  0
    0.0461   -0.2306    0.0000 C   0  0  0  0  0  0  0  0  0  0  0  0
    0.8455   -0.3228    0.0000 C   0  0  0  0  0  0  0  0  0  0  0  0
   -2.9360    2.2327    0.0000 N   0  3  0  0  0  0  0  0  0  0  0  0
    1.1990    0.4266    0.0000 C   0  0  0  0  0  0  0  0  0  0  0  0
    2.0791   -1.0299    0.0000 C   0  0  0  0  0  0  0  0  0  0  0  0
    2.4902   -1.7332    0.0000 C   0  0  0  0  0  0  0  0  0  0  0  0
    1.2490   -1.0299    0.0000 S   0  0  0  0  0  0  0  0  0  0  0  0
    2.0752   -2.4480    0.0000 C   0  0  0  0  0  0  0  0  0  0  0  0
   -0.8301    0.9684    0.0000 C   0  0  0  0  0  0  0  0  0  0  0  0
   -2.2443    1.8100    0.0000 C   0  0  0  0  0  0  0  0  0  0  0  0
    2.4902   -0.3228    0.0000 N   0  0  0  0  0  0  0  0  0  0  0  0
   -2.9821    3.0628    0.0000 O   0  5  0  0  0  0  0  0  0  0  0  0
    0.6726    1.7946    0.0000 O   0  0  0  0  0  0  0  0  0  0  0  0
   -3.6738    1.9023    0.0000 O   0  0  0  0  0  0  0  0  0  0  0  0
   -0.5073   -0.8455    0.0000 O   0  0  0  0  0  0  0  0  0  0  0  0
    2.4902   -3.1820    0.0000 O   0  0  0  0  0  0  0  0  0  0  0  0
   -0.8301    1.7946    0.0000 C   0  0  0  0  0  0  0  0  0  0  0  0
   -1.5525    0.5726    0.0000 C   0  0  0  0  0  0  0  0  0  0  0  0
   -2.2558    0.9800    0.0000 C   0  0  0  0  0  0  0  0  0  0  0  0
   -1.5525    2.2097    0.0000 C   0  0  0  0  0  0  0  0  0  0  0  0
    1.2451   -2.4480    0.0000 O   0  0  0  0  0  0  0  0  0  0  0  0
    3.3203   -1.7332    0.0000 C   0  0  0  0  0  0  0  0  0  0  0  0
    3.3203   -0.3267    0.0000 C   0  0  0  0  0  0  0  0  0  0  0  0
    3.7162   -1.0299    0.0000 C   0  0  0  0  0  0  0  0  0  0  0  0
  2  1  1  0  0  0  0
  3  1  1  0  0  0  0
  4  3  1  0  0  0  0
  5 12  1  0  0  0  0
  6  2  1  0  0  0  0
  7  9  1  0  0  0  0
  8  7  2  0  0  0  0
  9  4  1  0  0  0  0
 10  8  1  0  0  0  0
 11  1  1  0  0  0  0
 12 21  1  0  0  0  0
 13  7  1  0  0  0  0
 14  5  1  0  0  0  0
 15  2  2  0  0  0  0
 16  5  2  0  0  0  0
 17  3  2  0  0  0  0
 18 10  2  0  0  0  0
 19 11  2  0  0  0  0
 20 11  1  0  0  0  0
 21 20  2  0  0  0  0
 22 19  1  0  0  0  0
 23 10  1  0  0  0  0
 24  8  1  0  0  0  0
 25 13  2  0  0  0  0
 26 25  1  0  0  0  0
  6  4  1  0  0  0  0
 22 12  2  0  0  0  0
 26 24  2  0  0  0  0
M  CHG  2   5   1  14  -1
M  END
>  <IDNUMBER>
F1065-0219

>  <Chemical_Name>
2-{[1-(4-nitrophenyl)-2,5-dioxopyrrolidin-3-yl]sulfanyl}pyridine-3-carboxylic acid

>  <PriceCoeff>
1.00

>  <CAS>
308293-33-6

>  <MW>
373.34

>  <Description>
solid

>  <FSP3>
0.12

>  <clogP>
1.85

>  <TPSA>
156.01

>  <Acceptor>
7

>  <Donor>
1

>  <RotBonds>
5

>  <HAC>
26

>  <Collection>
General

>  <PPDS>
+

$$$$
F1065-0258
  Mrv2219 10102508112D          

 23 25  0  0  0  0            999 V2000
   -1.2494    0.4468    0.0000 N   0  0  0  0  0  0  0  0  0  0  0  0
   -0.5137    0.7839    0.0000 C   0  0  0  0  0  0  0  0  0  0  0  0
   -1.1451   -0.3880    0.0000 C   0  0  0  0  0  0  0  0  0  0  0  0
   -0.3291   -0.5137    0.0000 C   0  0  0  0  0  0  0  0  0  0  0  0
    0.0562    0.2328    0.0000 C   0  0  0  0  0  0  0  0  0  0  0  0
   -1.9557    0.8641    0.0000 C   0  0  0  0  0  0  0  0  0  0  0  0
    0.0241   -1.2521    0.0000 N   0  0  0  0  0  0  0  0  0  0  0  0
   -0.3853    1.5865    0.0000 O   0  0  0  0  0  0  0  0  0  0  0  0
   -1.7310   -0.9551    0.0000 O   0  0  0  0  0  0  0  0  0  0  0  0
   -2.6727    0.4468    0.0000 C   0  0  0  0  0  0  0  0  0  0  0  0
    0.8455   -1.2949    0.0000 C   0  0  0  0  0  0  0  0  0  0  0  0
    2.4908   -1.4046    0.0000 C   0  0  0  0  0  0  0  0  0  0  0  0
    3.3068   -1.4474    0.0000 F   0  0  0  0  0  0  0  0  0  0  0  0
    1.1986   -2.0333    0.0000 C   0  0  0  0  0  0  0  0  0  0  0  0
    1.2949   -0.6287    0.0000 C   0  0  0  0  0  0  0  0  0  0  0  0
    2.1297   -0.6742    0.0000 C   0  0  0  0  0  0  0  0  0  0  0  0
    2.0253   -2.0895    0.0000 C   0  0  0  0  0  0  0  0  0  0  0  0
   -2.6727   -0.3719    0.0000 O   0  0  0  0  0  0  0  0  0  0  0  0
   -1.9557    1.6775    0.0000 C   0  0  0  0  0  0  0  0  0  0  0  0
   -3.3844    0.8641    0.0000 C   0  0  0  0  0  0  0  0  0  0  0  0
   -3.3710   -0.7732    0.0000 C   0  0  0  0  0  0  0  0  0  0  0  0
   -2.6727    2.1002    0.0000 C   0  0  0  0  0  0  0  0  0  0  0  0
   -3.3844    1.6775    0.0000 C   0  0  0  0  0  0  0  0  0  0  0  0
  2  1  1  0  0  0  0
  3  1  1  0  0  0  0
  4  3  1  0  0  0  0
  5  2  1  0  0  0  0
  6  1  1  0  0  0  0
  7  4  1  0  0  0  0
  8  2  2  0  0  0  0
  9  3  2  0  0  0  0
 10  6  1  0  0  0  0
 11  7  1  0  0  0  0
 12 16  2  0  0  0  0
 13 12  1  0  0  0  0
 14 11  1  0  0  0  0
 15 11  2  0  0  0  0
 16 15  1  0  0  0  0
 17 14  2  0  0  0  0
 18 10  1  0  0  0  0
 19  6  2  0  0  0  0
 20 10  2  0  0  0  0
 21 18  1  0  0  0  0
 22 19  1  0  0  0  0
 23 22  2  0  0  0  0
  5  4  1  0  0  0  0
 20 23  1  0  0  0  0
 17 12  1  0  0  0  0
M  END
>  <IDNUMBER>
F1065-0258

>  <Chemical_Name>
3-[(4-fluorophenyl)amino]-1-(2-methoxyphenyl)pyrrolidine-2,5-dione

>  <PriceCoeff>
1.00

>  <CAS>
380872-66-2

>  <MW>
314.31

>  <Description>
solid

>  <FSP3>
0.18

>  <clogP>
3.02

>  <TPSA>
58.64

>  <Acceptor>
4

>  <Donor>
1

>  <RotBonds>
4

>  <HAC>
23

>  <Collection>
General

>  <PPDS>
+

$$$$
F1065-0260
  Mrv2219 10102508112D          

 27 30  0  0  0  0            999 V2000
   -0.6708    0.4927    0.0000 N   0  0  0  0  0  0  0  0  0  0  0  0
   -0.0207    0.9399    0.0000 C   0  0  0  0  0  0  0  0  0  0  0  0
    1.6190   -1.0973    0.0000 C   0  0  0  0  0  0  0  0  0  0  0  0
   -0.4348   -0.2981    0.0000 C   0  0  0  0  0  0  0  0  0  0  0  0
    2.0992   -0.4389    0.0000 N   0  0  0  0  0  0  0  0  0  0  0  0
    0.3975   -0.3396    0.0000 C   0  0  0  0  0  0  0  0  0  0  0  0
    0.6749    0.4472    0.0000 C   0  0  0  0  0  0  0  0  0  0  0  0
   -1.4243    0.7950    0.0000 C   0  0  0  0  0  0  0  0  0  0  0  0
   -3.5235    0.1491    0.0000 C   0  0  0  0  0  0  0  0  0  0  0  0
    2.0992   -1.7680    0.0000 O   0  0  0  0  0  0  0  0  0  0  0  0
    0.7950   -1.0558    0.0000 S   0  0  0  0  0  0  0  0  0  0  0  0
    2.8735   -0.6956    0.0000 C   0  0  0  0  0  0  0  0  0  0  0  0
   -2.8528    0.6417    0.0000 C   0  0  0  0  0  0  0  0  0  0  0  0
    2.8735   -1.5196    0.0000 C   0  0  0  0  0  0  0  0  0  0  0  0
   -2.0826    0.3064    0.0000 C   0  0  0  0  0  0  0  0  0  0  0  0
   -0.0207    1.7721    0.0000 O   0  0  0  0  0  0  0  0  0  0  0  0
   -0.9689   -0.9565    0.0000 O   0  0  0  0  0  0  0  0  0  0  0  0
   -4.0204    0.8405    0.0000 F   0  0  0  0  0  0  0  0  0  0  0  0
   -3.0433   -0.5341    0.0000 F   0  0  0  0  0  0  0  0  0  0  0  0
   -4.2191   -0.3396    0.0000 F   0  0  0  0  0  0  0  0  0  0  0  0
   -1.5485    1.6396    0.0000 C   0  0  0  0  0  0  0  0  0  0  0  0
   -2.9439    1.4533    0.0000 C   0  0  0  0  0  0  0  0  0  0  0  0
   -2.2856    1.9502    0.0000 C   0  0  0  0  0  0  0  0  0  0  0  0
    3.5816   -0.2857    0.0000 C   0  0  0  0  0  0  0  0  0  0  0  0
    3.5816   -1.9419    0.0000 C   0  0  0  0  0  0  0  0  0  0  0  0
    4.3144   -0.6956    0.0000 C   0  0  0  0  0  0  0  0  0  0  0  0
    4.3144   -1.5196    0.0000 C   0  0  0  0  0  0  0  0  0  0  0  0
  2  1  1  0  0  0  0
  3 11  1  0  0  0  0
  4  1  1  0  0  0  0
  5  3  2  0  0  0  0
  6  4  1  0  0  0  0
  7  2  1  0  0  0  0
  8  1  1  0  0  0  0
  9 13  1  0  0  0  0
 10  3  1  0  0  0  0
 11  6  1  0  0  0  0
 12  5  1  0  0  0  0
 13 15  2  0  0  0  0
 14 10  1  0  0  0  0
 15  8  1  0  0  0  0
 16  2  2  0  0  0  0
 17  4  2  0  0  0  0
 18  9  1  0  0  0  0
 19  9  1  0  0  0  0
 20  9  1  0  0  0  0
 21  8  2  0  0  0  0
 22 23  2  0  0  0  0
 23 21  1  0  0  0  0
 24 12  2  0  0  0  0
 25 14  2  0  0  0  0
 26 24  1  0  0  0  0
 27 25  1  0  0  0  0
  7  6  1  0  0  0  0
 22 13  1  0  0  0  0
 14 12  1  0  0  0  0
 27 26  2  0  0  0  0
M  END
>  <IDNUMBER>
F1065-0260

>  <Chemical_Name>
3-(1,3-benzoxazol-2-ylsulfanyl)-1-[3-(trifluoromethyl)phenyl]pyrrolidine-2,5-dione

>  <PriceCoeff>
1.00

>  <CAS>
301683-32-9

>  <MW>
392.35

>  <Description>
solid

>  <FSP3>
0.17

>  <clogP>
4.19

>  <TPSA>
88.71

>  <Acceptor>
4

>  <Donor>
0

>  <RotBonds>
3

>  <HAC>
27

>  <Collection>
General

>  <PPDS>
+

$$$$
F1065-0275
  Mrv2219 10102508112D          

 24 26  0  0  0  0            999 V2000
   -1.2447   -0.0450    0.0000 N   0  0  0  0  0  0  0  0  0  0  0  0
   -0.9862    0.7503    0.0000 C   0  0  0  0  0  0  0  0  0  0  0  0
   -0.5817   -0.5058    0.0000 C   0  0  0  0  0  0  0  0  0  0  0  0
    0.0927   -0.0337    0.0000 C   0  0  0  0  0  0  0  0  0  0  0  0
   -0.1686    0.7503    0.0000 C   0  0  0  0  0  0  0  0  0  0  0  0
    2.2789    0.0477    0.0000 C   0  0  0  0  0  0  0  0  0  0  0  0
   -2.0119   -0.3400    0.0000 C   0  0  0  0  0  0  0  0  0  0  0  0
    0.8682   -0.2726    0.0000 S   0  0  0  0  0  0  0  0  0  0  0  0
    1.4865    0.3007    0.0000 C   0  0  0  0  0  0  0  0  0  0  0  0
    2.4727   -0.7419    0.0000 C   0  0  0  0  0  0  0  0  0  0  0  0
   -1.4920    1.4302    0.0000 O   0  0  0  0  0  0  0  0  0  0  0  0
   -0.5367   -1.3403    0.0000 O   0  0  0  0  0  0  0  0  0  0  0  0
   -2.1327   -1.1464    0.0000 C   0  0  0  0  0  0  0  0  0  0  0  0
    1.8883   -1.3150    0.0000 O   0  0  0  0  0  0  0  0  0  0  0  0
    3.2707   -0.9553    0.0000 O   0  0  0  0  0  0  0  0  0  0  0  0
    2.8689    0.6210    0.0000 C   0  0  0  0  0  0  0  0  0  0  0  0
   -2.6609    0.1826    0.0000 C   0  0  0  0  0  0  0  0  0  0  0  0
    1.2841    1.1014    0.0000 C   0  0  0  0  0  0  0  0  0  0  0  0
   -1.4976   -1.6551    0.0000 C   0  0  0  0  0  0  0  0  0  0  0  0
   -2.9138   -1.4359    0.0000 C   0  0  0  0  0  0  0  0  0  0  0  0
    2.6666    1.4246    0.0000 C   0  0  0  0  0  0  0  0  0  0  0  0
   -3.4281   -0.1209    0.0000 C   0  0  0  0  0  0  0  0  0  0  0  0
    1.8911    1.6607    0.0000 C   0  0  0  0  0  0  0  0  0  0  0  0
   -3.5545   -0.8963    0.0000 C   0  0  0  0  0  0  0  0  0  0  0  0
  2  1  1  0  0  0  0
  3  1  1  0  0  0  0
  4  3  1  0  0  0  0
  5  2  1  0  0  0  0
  6  9  1  0  0  0  0
  7  1  1  0  0  0  0
  8  4  1  0  0  0  0
  9  8  1  0  0  0  0
 10  6  1  0  0  0  0
 11  2  2  0  0  0  0
 12  3  2  0  0  0  0
 13  7  1  0  0  0  0
 14 10  2  0  0  0  0
 15 10  1  0  0  0  0
 16  6  2  0  0  0  0
 17  7  2  0  0  0  0
 18  9  2  0  0  0  0
 19 13  1  0  0  0  0
 20 13  2  0  0  0  0
 21 23  2  0  0  0  0
 22 17  1  0  0  0  0
 23 18  1  0  0  0  0
 24 22  2  0  0  0  0
  5  4  1  0  0  0  0
 20 24  1  0  0  0  0
 16 21  1  0  0  0  0
M  END
>  <IDNUMBER>
F1065-0275

>  <Chemical_Name>
2-{[1-(2-methylphenyl)-2,5-dioxopyrrolidin-3-yl]sulfanyl}benzoic acid

>  <PriceCoeff>
1.00

>  <CAS>
301683-43-2

>  <MW>
341.38

>  <Description>
solid

>  <FSP3>
0.17

>  <clogP>
2.17

>  <TPSA>
99.98

>  <Acceptor>
4

>  <Donor>
0

>  <RotBonds>
4

>  <HAC>
24

>  <Collection>
General

>  <PPDS>
+

$$$$
F1065-0277
  Mrv2219 10102508112D          

 27 29  0  0  0  0            999 V2000
   -0.5580    0.0374    0.0000 N   0  0  0  0  0  0  0  0  0  0  0  0
   -0.2450    0.7860    0.0000 C   0  0  0  0  0  0  0  0  0  0  0  0
    0.0817   -0.5036    0.0000 C   0  0  0  0  0  0  0  0  0  0  0  0
    0.7656   -0.0749    0.0000 C   0  0  0  0  0  0  0  0  0  0  0  0
    0.5853    0.7349    0.0000 C   0  0  0  0  0  0  0  0  0  0  0  0
   -1.3236   -0.2586    0.0000 C   0  0  0  0  0  0  0  0  0  0  0  0
   -3.3651    0.5069    0.0000 C   0  0  0  0  0  0  0  0  0  0  0  0
    2.9534   -0.1770    0.0000 C   0  0  0  0  0  0  0  0  0  0  0  0
    1.5515   -0.3913    0.0000 S   0  0  0  0  0  0  0  0  0  0  0  0
    2.1878    0.1327    0.0000 C   0  0  0  0  0  0  0  0  0  0  0  0
    3.0657   -0.9936    0.0000 C   0  0  0  0  0  0  0  0  0  0  0  0
   -2.7322   -0.0238    0.0000 C   0  0  0  0  0  0  0  0  0  0  0  0
   -1.9599    0.2620    0.0000 C   0  0  0  0  0  0  0  0  0  0  0  0
   -0.6703    1.5073    0.0000 O   0  0  0  0  0  0  0  0  0  0  0  0
    0.0443   -1.3372    0.0000 O   0  0  0  0  0  0  0  0  0  0  0  0
    2.4124   -1.5005    0.0000 O   0  0  0  0  0  0  0  0  0  0  0  0
   -3.8959   -0.1463    0.0000 F   0  0  0  0  0  0  0  0  0  0  0  0
   -4.0081    1.0310    0.0000 F   0  0  0  0  0  0  0  0  0  0  0  0
   -2.8445    1.1432    0.0000 F   0  0  0  0  0  0  0  0  0  0  0  0
    3.8380   -1.3066    0.0000 O   0  0  0  0  0  0  0  0  0  0  0  0
   -1.4699   -1.0752    0.0000 C   0  0  0  0  0  0  0  0  0  0  0  0
    3.5931    0.3436    0.0000 C   0  0  0  0  0  0  0  0  0  0  0  0
    2.0721    0.9493    0.0000 C   0  0  0  0  0  0  0  0  0  0  0  0
   -2.8751   -0.8302    0.0000 C   0  0  0  0  0  0  0  0  0  0  0  0
   -2.2218   -1.3508    0.0000 C   0  0  0  0  0  0  0  0  0  0  0  0
    3.4740    1.1602    0.0000 C   0  0  0  0  0  0  0  0  0  0  0  0
    2.7254    1.4563    0.0000 C   0  0  0  0  0  0  0  0  0  0  0  0
  2  1  1  0  0  0  0
  3  1  1  0  0  0  0
  4  3  1  0  0  0  0
  5  2  1  0  0  0  0
  6  1  1  0  0  0  0
  7 12  1  0  0  0  0
  8 10  1  0  0  0  0
  9  4  1  0  0  0  0
 10  9  1  0  0  0  0
 11  8  1  0  0  0  0
 12 13  1  0  0  0  0
 13  6  2  0  0  0  0
 14  2  2  0  0  0  0
 15  3  2  0  0  0  0
 16 11  2  0  0  0  0
 17  7  1  0  0  0  0
 18  7  1  0  0  0  0
 19  7  1  0  0  0  0
 20 11  1  0  0  0  0
 21  6  1  0  0  0  0
 22  8  2  0  0  0  0
 23 10  2  0  0  0  0
 24 25  1  0  0  0  0
 25 21  2  0  0  0  0
 26 27  2  0  0  0  0
 27 23  1  0  0  0  0
  4  5  1  0  0  0  0
 24 12  2  0  0  0  0
 26 22  1  0  0  0  0
M  END
>  <IDNUMBER>
F1065-0277

>  <Chemical_Name>
2-({2,5-dioxo-1-[3-(trifluoromethyl)phenyl]pyrrolidin-3-yl}sulfanyl)benzoic acid

>  <PriceCoeff>
1.00

>  <CAS>
301683-45-4

>  <MW>
395.35

>  <Description>
solid

>  <FSP3>
0.17

>  <clogP>
3.44

>  <TPSA>
99.98

>  <Acceptor>
4

>  <Donor>
0

>  <RotBonds>
4

>  <HAC>
27

>  <Collection>
General

>  <PPDS>
+

$$$$
F1065-0279
  Mrv2219 10102508112D          

 24 26  0  0  0  0            999 V2000
   -0.7100    0.1751    0.0000 N   0  0  0  0  0  0  0  0  0  0  0  0
   -0.4004    0.9258    0.0000 C   0  0  0  0  0  0  0  0  0  0  0  0
   -0.0719   -0.3660    0.0000 C   0  0  0  0  0  0  0  0  0  0  0  0
    0.6131    0.0625    0.0000 C   0  0  0  0  0  0  0  0  0  0  0  0
    0.4348    0.8727    0.0000 C   0  0  0  0  0  0  0  0  0  0  0  0
    2.8058   -0.0375    0.0000 C   0  0  0  0  0  0  0  0  0  0  0  0
    1.4013   -0.2534    0.0000 S   0  0  0  0  0  0  0  0  0  0  0  0
    2.0395    0.2721    0.0000 C   0  0  0  0  0  0  0  0  0  0  0  0
    2.9184   -0.8539    0.0000 C   0  0  0  0  0  0  0  0  0  0  0  0
   -1.4795   -0.1158    0.0000 C   0  0  0  0  0  0  0  0  0  0  0  0
   -0.8226    1.6484    0.0000 O   0  0  0  0  0  0  0  0  0  0  0  0
   -0.1095   -1.2011    0.0000 O   0  0  0  0  0  0  0  0  0  0  0  0
    2.2647   -1.3638    0.0000 O   0  0  0  0  0  0  0  0  0  0  0  0
   -2.1114    0.4004    0.0000 C   0  0  0  0  0  0  0  0  0  0  0  0
   -1.6234   -0.9384    0.0000 C   0  0  0  0  0  0  0  0  0  0  0  0
    3.6816   -1.1668    0.0000 O   0  0  0  0  0  0  0  0  0  0  0  0
   -3.0278   -0.6882    0.0000 C   0  0  0  0  0  0  0  0  0  0  0  0
   -2.8777    0.1095    0.0000 C   0  0  0  0  0  0  0  0  0  0  0  0
   -2.3741   -1.2137    0.0000 C   0  0  0  0  0  0  0  0  0  0  0  0
   -3.8005   -0.9603    0.0000 Cl  0  0  0  0  0  0  0  0  0  0  0  0
    3.4439    0.4848    0.0000 C   0  0  0  0  0  0  0  0  0  0  0  0
    1.9175    1.0885    0.0000 C   0  0  0  0  0  0  0  0  0  0  0  0
    3.3250    1.3012    0.0000 C   0  0  0  0  0  0  0  0  0  0  0  0
    2.5743    1.5921    0.0000 C   0  0  0  0  0  0  0  0  0  0  0  0
  2  1  1  0  0  0  0
  3  1  1  0  0  0  0
  4  3  1  0  0  0  0
  5  2  1  0  0  0  0
  6  8  1  0  0  0  0
  7  4  1  0  0  0  0
  8  7  1  0  0  0  0
  9  6  1  0  0  0  0
 10  1  1  0  0  0  0
 11  2  2  0  0  0  0
 12  3  2  0  0  0  0
 13  9  2  0  0  0  0
 14 10  2  0  0  0  0
 15 10  1  0  0  0  0
 16  9  1  0  0  0  0
 17 19  1  0  0  0  0
 18 14  1  0  0  0  0
 19 15  2  0  0  0  0
 20 17  1  0  0  0  0
 21  6  2  0  0  0  0
 22  8  2  0  0  0  0
 23 24  2  0  0  0  0
 24 22  1  0  0  0  0
  5  4  1  0  0  0  0
 18 17  2  0  0  0  0
 21 23  1  0  0  0  0
M  END
>  <IDNUMBER>
F1065-0279

>  <Chemical_Name>
2-{[1-(4-chlorophenyl)-2,5-dioxopyrrolidin-3-yl]sulfanyl}benzoic acid

>  <PriceCoeff>
1.00

>  <CAS>
301683-47-6

>  <MW>
361.80

>  <Description>
solid

>  <FSP3>
0.12

>  <clogP>
3.06

>  <TPSA>
99.98

>  <Acceptor>
4

>  <Donor>
0

>  <RotBonds>
4

>  <HAC>
24

>  <Collection>
General

>  <PPDS>
+

$$$$
F1065-0321
  Mrv2219 10102508112D          

 24 26  0  0  0  0            999 V2000
   -0.4098    0.6431    0.0000 N   0  0  0  0  0  0  0  0  0  0  0  0
    0.1466    1.2653    0.0000 C   0  0  0  0  0  0  0  0  0  0  0  0
    0.0030   -0.0748    0.0000 C   0  0  0  0  0  0  0  0  0  0  0  0
    0.8107    0.1077    0.0000 C   0  0  0  0  0  0  0  0  0  0  0  0
    0.9093    0.9123    0.0000 C   0  0  0  0  0  0  0  0  0  0  0  0
    2.8387   -0.7090    0.0000 C   0  0  0  0  0  0  0  0  0  0  0  0
    1.4388   -0.4338    0.0000 S   0  0  0  0  0  0  0  0  0  0  0  0
    2.2255   -0.1646    0.0000 C   0  0  0  0  0  0  0  0  0  0  0  0
    2.6951   -1.5345    0.0000 C   0  0  0  0  0  0  0  0  0  0  0  0
   -1.2443    0.6431    0.0000 C   0  0  0  0  0  0  0  0  0  0  0  0
    0.0030    2.0700    0.0000 O   0  0  0  0  0  0  0  0  0  0  0  0
   -0.3231   -0.8375    0.0000 O   0  0  0  0  0  0  0  0  0  0  0  0
    3.3413   -2.0670    0.0000 O   0  0  0  0  0  0  0  0  0  0  0  0
   -1.6482    1.3640    0.0000 C   0  0  0  0  0  0  0  0  0  0  0  0
   -1.6482   -0.0748    0.0000 C   0  0  0  0  0  0  0  0  0  0  0  0
    1.9384   -1.8337    0.0000 O   0  0  0  0  0  0  0  0  0  0  0  0
   -2.8865    0.6431    0.0000 C   0  0  0  0  0  0  0  0  0  0  0  0
   -2.4857    1.3640    0.0000 C   0  0  0  0  0  0  0  0  0  0  0  0
   -2.4857   -0.0748    0.0000 C   0  0  0  0  0  0  0  0  0  0  0  0
   -3.7062    0.6431    0.0000 Br  0  0  0  0  0  0  0  0  0  0  0  0
    3.6165   -0.4338    0.0000 C   0  0  0  0  0  0  0  0  0  0  0  0
    2.3691    0.6431    0.0000 C   0  0  0  0  0  0  0  0  0  0  0  0
    3.7600    0.3829    0.0000 C   0  0  0  0  0  0  0  0  0  0  0  0
    3.1438    0.9123    0.0000 C   0  0  0  0  0  0  0  0  0  0  0  0
  2  1  1  0  0  0  0
  3  1  1  0  0  0  0
  4  3  1  0  0  0  0
  5  2  1  0  0  0  0
  6  8  1  0  0  0  0
  7  4  1  0  0  0  0
  8  7  1  0  0  0  0
  9  6  1  0  0  0  0
 10  1  1  0  0  0  0
 11  2  2  0  0  0  0
 12  3  2  0  0  0  0
 13  9  2  0  0  0  0
 14 10  2  0  0  0  0
 15 10  1  0  0  0  0
 16  9  1  0  0  0  0
 17 19  1  0  0  0  0
 18 14  1  0  0  0  0
 19 15  2  0  0  0  0
 20 17  1  0  0  0  0
 21  6  2  0  0  0  0
 22  8  2  0  0  0  0
 23 24  2  0  0  0  0
 24 22  1  0  0  0  0
  5  4  1  0  0  0  0
 18 17  2  0  0  0  0
 21 23  1  0  0  0  0
M  END
>  <IDNUMBER>
F1065-0321

>  <Chemical_Name>
2-{[1-(4-bromophenyl)-2,5-dioxopyrrolidin-3-yl]sulfanyl}benzoic acid

>  <PriceCoeff>
1.00

>  <CAS>
300559-67-5

>  <MW>
406.25

>  <Description>
solid

>  <FSP3>
0.12

>  <clogP>
3.21

>  <TPSA>
99.98

>  <Acceptor>
4

>  <Donor>
0

>  <RotBonds>
4

>  <HAC>
24

>  <Collection>
General

>  <PPDS>
+

$$$$
F1065-0329
  Mrv2219 10102508112D          

 23 25  0  0  0  0            999 V2000
   -1.2499   -0.2689    0.0000 N   0  0  0  0  0  0  0  0  0  0  0  0
   -0.7328    0.3693    0.0000 C   0  0  0  0  0  0  0  0  0  0  0  0
   -0.8037   -0.9574    0.0000 C   0  0  0  0  0  0  0  0  0  0  0  0
    0.0000   -0.7357    0.0000 C   0  0  0  0  0  0  0  0  0  0  0  0
    0.0266    0.0798    0.0000 C   0  0  0  0  0  0  0  0  0  0  0  0
   -2.0802   -0.2689    0.0000 C   0  0  0  0  0  0  0  0  0  0  0  0
    0.6589   -1.2529    0.0000 N   0  0  0  0  0  0  0  0  0  0  0  0
   -0.9544    1.1848    0.0000 O   0  0  0  0  0  0  0  0  0  0  0  0
   -1.0785   -1.7404    0.0000 O   0  0  0  0  0  0  0  0  0  0  0  0
   -2.4909    0.4580    0.0000 C   0  0  0  0  0  0  0  0  0  0  0  0
    1.4183   -0.9485    0.0000 C   0  0  0  0  0  0  0  0  0  0  0  0
    2.9548   -0.3191    0.0000 C   0  0  0  0  0  0  0  0  0  0  0  0
    1.5247   -0.1330    0.0000 C   0  0  0  0  0  0  0  0  0  0  0  0
    2.0684   -1.4449    0.0000 C   0  0  0  0  0  0  0  0  0  0  0  0
   -2.0890    1.1671    0.0000 O   0  0  0  0  0  0  0  0  0  0  0  0
    2.8366   -1.1258    0.0000 C   0  0  0  0  0  0  0  0  0  0  0  0
    2.2959    0.1773    0.0000 C   0  0  0  0  0  0  0  0  0  0  0  0
   -2.4909   -0.9839    0.0000 C   0  0  0  0  0  0  0  0  0  0  0  0
   -3.3212    0.4580    0.0000 C   0  0  0  0  0  0  0  0  0  0  0  0
    3.7142   -0.0118    0.0000 C   0  0  0  0  0  0  0  0  0  0  0  0
   -2.4909    1.8674    0.0000 C   0  0  0  0  0  0  0  0  0  0  0  0
   -3.3212   -0.9839    0.0000 C   0  0  0  0  0  0  0  0  0  0  0  0
   -3.7378   -0.2689    0.0000 C   0  0  0  0  0  0  0  0  0  0  0  0
  2  1  1  0  0  0  0
  3  1  1  0  0  0  0
  4  3  1  0  0  0  0
  5  2  1  0  0  0  0
  6  1  1  0  0  0  0
  7  4  1  0  0  0  0
  8  2  2  0  0  0  0
  9  3  2  0  0  0  0
 10  6  1  0  0  0  0
 11  7  1  0  0  0  0
 12 16  1  0  0  0  0
 13 11  2  0  0  0  0
 14 11  1  0  0  0  0
 15 10  1  0  0  0  0
 16 14  2  0  0  0  0
 17 13  1  0  0  0  0
 18  6  2  0  0  0  0
 19 10  2  0  0  0  0
 20 12  1  0  0  0  0
 21 15  1  0  0  0  0
 22 18  1  0  0  0  0
 23 22  2  0  0  0  0
  4  5  1  0  0  0  0
 23 19  1  0  0  0  0
 12 17  2  0  0  0  0
M  END
>  <IDNUMBER>
F1065-0329

>  <Chemical_Name>
1-(2-methoxyphenyl)-3-[(4-methylphenyl)amino]pyrrolidine-2,5-dione

>  <PriceCoeff>
1.00

>  <CAS>
342615-88-7

>  <MW>
310.35

>  <Description>
solid

>  <FSP3>
0.22

>  <clogP>
3.07

>  <TPSA>
58.64

>  <Acceptor>
4

>  <Donor>
1

>  <RotBonds>
4

>  <HAC>
23

>  <Collection>
General

>  <PPDS>
+

$$$$
F1065-0330
  Mrv2219 10102508112D          

 22 24  0  0  0  0            999 V2000
   -1.3003    0.0090    0.0000 N   0  0  0  0  0  0  0  0  0  0  0  0
   -0.7861    0.6457    0.0000 C   0  0  0  0  0  0  0  0  0  0  0  0
   -0.8579   -0.6726    0.0000 C   0  0  0  0  0  0  0  0  0  0  0  0
   -0.0598   -0.4514    0.0000 C   0  0  0  0  0  0  0  0  0  0  0  0
   -0.0329    0.3587    0.0000 C   0  0  0  0  0  0  0  0  0  0  0  0
    0.6008   -0.9685    0.0000 N   0  0  0  0  0  0  0  0  0  0  0  0
   -2.1253    0.0090    0.0000 C   0  0  0  0  0  0  0  0  0  0  0  0
   -1.0043    1.4587    0.0000 O   0  0  0  0  0  0  0  0  0  0  0  0
   -1.1358   -1.4557    0.0000 O   0  0  0  0  0  0  0  0  0  0  0  0
    1.3541   -0.6666    0.0000 C   0  0  0  0  0  0  0  0  0  0  0  0
    2.8905   -0.0359    0.0000 C   0  0  0  0  0  0  0  0  0  0  0  0
    1.4617    0.1435    0.0000 C   0  0  0  0  0  0  0  0  0  0  0  0
    2.0087   -1.1598    0.0000 C   0  0  0  0  0  0  0  0  0  0  0  0
    2.7650   -0.8459    0.0000 C   0  0  0  0  0  0  0  0  0  0  0  0
    2.2269    0.4543    0.0000 C   0  0  0  0  0  0  0  0  0  0  0  0
    3.6438    0.2660    0.0000 O   0  0  0  0  0  0  0  0  0  0  0  0
   -2.5437   -0.7025    0.0000 C   0  0  0  0  0  0  0  0  0  0  0  0
   -2.5437    0.7323    0.0000 C   0  0  0  0  0  0  0  0  0  0  0  0
    3.7573    1.0731    0.0000 C   0  0  0  0  0  0  0  0  0  0  0  0
   -3.3687   -0.7025    0.0000 C   0  0  0  0  0  0  0  0  0  0  0  0
   -3.3687    0.7323    0.0000 C   0  0  0  0  0  0  0  0  0  0  0  0
   -3.7812    0.0090    0.0000 C   0  0  0  0  0  0  0  0  0  0  0  0
  2  1  1  0  0  0  0
  3  1  1  0  0  0  0
  4  3  1  0  0  0  0
  5  2  1  0  0  0  0
  6  4  1  0  0  0  0
  7  1  1  0  0  0  0
  8  2  2  0  0  0  0
  9  3  2  0  0  0  0
 10  6  1  0  0  0  0
 11 14  1  0  0  0  0
 12 10  2  0  0  0  0
 13 10  1  0  0  0  0
 14 13  2  0  0  0  0
 15 12  1  0  0  0  0
 16 11  1  0  0  0  0
 17  7  2  0  0  0  0
 18  7  1  0  0  0  0
 19 16  1  0  0  0  0
 20 17  1  0  0  0  0
 21 18  2  0  0  0  0
 22 21  1  0  0  0  0
  4  5  1  0  0  0  0
 20 22  2  0  0  0  0
 11 15  2  0  0  0  0
M  END
>  <IDNUMBER>
F1065-0330

>  <Chemical_Name>
3-[(4-methoxyphenyl)amino]-1-phenylpyrrolidine-2,5-dione

>  <PriceCoeff>
1.00

>  <CAS>
37910-31-9

>  <MW>
296.32

>  <Description>
solid

>  <FSP3>
0.18

>  <clogP>
2.59

>  <TPSA>
58.64

>  <Acceptor>
4

>  <Donor>
1

>  <RotBonds>
4

>  <HAC>
22

>  <Collection>
General

>  <PPDS>
+

$$$$
F1065-0354
  Mrv2219 10102508112D          

 24 26  0  0  0  0            999 V2000
   -0.8263    0.3434    0.0000 N   0  0  0  0  0  0  0  0  0  0  0  0
   -0.3622    1.0383    0.0000 C   0  0  0  0  0  0  0  0  0  0  0  0
   -0.3220   -0.2925    0.0000 C   0  0  0  0  0  0  0  0  0  0  0  0
    0.4534   -0.0108    0.0000 C   0  0  0  0  0  0  0  0  0  0  0  0
    0.4293    0.8049    0.0000 C   0  0  0  0  0  0  0  0  0  0  0  0
   -1.6500    0.3542    0.0000 C   0  0  0  0  0  0  0  0  0  0  0  0
    2.5784   -0.5473    0.0000 C   0  0  0  0  0  0  0  0  0  0  0  0
    1.1591   -0.4615    0.0000 S   0  0  0  0  0  0  0  0  0  0  0  0
    1.8862   -0.0966    0.0000 C   0  0  0  0  0  0  0  0  0  0  0  0
    2.5301   -1.3630    0.0000 C   0  0  0  0  0  0  0  0  0  0  0  0
   -2.0605    1.0625    0.0000 C   0  0  0  0  0  0  0  0  0  0  0  0
   -0.6439    1.8244    0.0000 O   0  0  0  0  0  0  0  0  0  0  0  0
   -0.5446   -1.0947    0.0000 O   0  0  0  0  0  0  0  0  0  0  0  0
    3.2196   -1.8137    0.0000 O   0  0  0  0  0  0  0  0  0  0  0  0
   -2.8869    1.0625    0.0000 C   0  0  0  0  0  0  0  0  0  0  0  0
    1.7815   -1.7386    0.0000 O   0  0  0  0  0  0  0  0  0  0  0  0
   -2.0605   -0.3569    0.0000 C   0  0  0  0  0  0  0  0  0  0  0  0
   -3.3135    1.7842    0.0000 Cl  0  0  0  0  0  0  0  0  0  0  0  0
    3.3162   -0.1637    0.0000 C   0  0  0  0  0  0  0  0  0  0  0  0
    1.9345    0.7298    0.0000 C   0  0  0  0  0  0  0  0  0  0  0  0
   -2.8869   -0.3542    0.0000 C   0  0  0  0  0  0  0  0  0  0  0  0
   -3.2974    0.3542    0.0000 C   0  0  0  0  0  0  0  0  0  0  0  0
    3.3672    0.6520    0.0000 C   0  0  0  0  0  0  0  0  0  0  0  0
    2.6589    1.1027    0.0000 C   0  0  0  0  0  0  0  0  0  0  0  0
  2  1  1  0  0  0  0
  3  1  1  0  0  0  0
  4  3  1  0  0  0  0
  5  2  1  0  0  0  0
  6  1  1  0  0  0  0
  7  9  2  0  0  0  0
  8  4  1  0  0  0  0
  9  8  1  0  0  0  0
 10  7  1  0  0  0  0
 11  6  2  0  0  0  0
 12  2  2  0  0  0  0
 13  3  2  0  0  0  0
 14 10  2  0  0  0  0
 15 11  1  0  0  0  0
 16 10  1  0  0  0  0
 17  6  1  0  0  0  0
 18 15  1  0  0  0  0
 19  7  1  0  0  0  0
 20  9  1  0  0  0  0
 21 17  2  0  0  0  0
 22 21  1  0  0  0  0
 23 24  1  0  0  0  0
 24 20  2  0  0  0  0
  5  4  1  0  0  0  0
 22 15  2  0  0  0  0
 23 19  2  0  0  0  0
M  END
>  <IDNUMBER>
F1065-0354

>  <Chemical_Name>
2-{[1-(3-chlorophenyl)-2,5-dioxopyrrolidin-3-yl]sulfanyl}benzoic acid

>  <PriceCoeff>
1.00

>  <CAS>
302552-56-3

>  <MW>
361.80

>  <Description>
solid

>  <FSP3>
0.12

>  <clogP>
3.06

>  <TPSA>
99.98

>  <Acceptor>
4

>  <Donor>
0

>  <RotBonds>
4

>  <HAC>
24

>  <Collection>
General

>  <PPDS>
+

$$$$
F1065-0356
  Mrv2219 10102508112D          

 26 29  0  0  0  0            999 V2000
   -2.0835   -0.1013    0.0000 N   0  0  0  0  0  0  0  0  0  0  0  0
   -1.6169    0.5823    0.0000 C   0  0  0  0  0  0  0  0  0  0  0  0
    0.6511   -0.5643    0.0000 C   0  0  0  0  0  0  0  0  0  0  0  0
   -1.5735   -0.7415    0.0000 C   0  0  0  0  0  0  0  0  0  0  0  0
    0.7958    0.2713    0.0000 N   0  0  0  0  0  0  0  0  0  0  0  0
   -0.7813   -0.4594    0.0000 C   0  0  0  0  0  0  0  0  0  0  0  0
   -0.8247    0.3653    0.0000 C   0  0  0  0  0  0  0  0  0  0  0  0
    1.3709   -0.9549    0.0000 S   0  0  0  0  0  0  0  0  0  0  0  0
    1.9786   -0.3617    0.0000 C   0  0  0  0  0  0  0  0  0  0  0  0
   -0.0868   -0.9152    0.0000 S   0  0  0  0  0  0  0  0  0  0  0  0
    1.6097    0.3762    0.0000 C   0  0  0  0  0  0  0  0  0  0  0  0
    2.8359   -0.3943    0.0000 C   0  0  0  0  0  0  0  0  0  0  0  0
   -2.9191   -0.1013    0.0000 C   0  0  0  0  0  0  0  0  0  0  0  0
   -1.9207    1.3636    0.0000 O   0  0  0  0  0  0  0  0  0  0  0  0
   -1.7905   -1.5626    0.0000 O   0  0  0  0  0  0  0  0  0  0  0  0
    2.0546    1.0815    0.0000 C   0  0  0  0  0  0  0  0  0  0  0  0
    3.2699    0.3038    0.0000 C   0  0  0  0  0  0  0  0  0  0  0  0
    2.9082    1.0417    0.0000 C   0  0  0  0  0  0  0  0  0  0  0  0
    4.1055    0.2785    0.0000 O   0  0  0  0  0  0  0  0  0  0  0  0
   -3.3278    0.6077    0.0000 C   0  0  0  0  0  0  0  0  0  0  0  0
   -3.3278   -0.8247    0.0000 C   0  0  0  0  0  0  0  0  0  0  0  0
    4.5396    0.9838    0.0000 C   0  0  0  0  0  0  0  0  0  0  0  0
    4.1489    1.7037    0.0000 C   0  0  0  0  0  0  0  0  0  0  0  0
   -4.1525    0.5932    0.0000 C   0  0  0  0  0  0  0  0  0  0  0  0
   -4.1525   -0.8247    0.0000 C   0  0  0  0  0  0  0  0  0  0  0  0
   -4.5757   -0.1013    0.0000 C   0  0  0  0  0  0  0  0  0  0  0  0
  2  1  1  0  0  0  0
  3 10  1  0  0  0  0
  4  1  1  0  0  0  0
  5  3  2  0  0  0  0
  6  4  1  0  0  0  0
  7  2  1  0  0  0  0
  8  3  1  0  0  0  0
  9  8  1  0  0  0  0
 10  6  1  0  0  0  0
 11  5  1  0  0  0  0
 12  9  2  0  0  0  0
 13  1  1  0  0  0  0
 14  2  2  0  0  0  0
 15  4  2  0  0  0  0
 16 11  2  0  0  0  0
 17 12  1  0  0  0  0
 18 16  1  0  0  0  0
 19 17  1  0  0  0  0
 20 13  2  0  0  0  0
 21 13  1  0  0  0  0
 22 19  1  0  0  0  0
 23 22  1  0  0  0  0
 24 20  1  0  0  0  0
 25 21  2  0  0  0  0
 26 25  1  0  0  0  0
  7  6  1  0  0  0  0
 26 24  2  0  0  0  0
  9 11  1  0  0  0  0
 18 17  2  0  0  0  0
M  END
>  <IDNUMBER>
F1065-0356

>  <Chemical_Name>
3-[(6-ethoxy-1,3-benzothiazol-2-yl)sulfanyl]-1-phenylpyrrolidine-2,5-dione

>  <PriceCoeff>
1.00

>  <CAS>
302552-58-5

>  <MW>
384.47

>  <Description>
solid

>  <FSP3>
0.21

>  <clogP>
4.32

>  <TPSA>
113.04

>  <Acceptor>
4

>  <Donor>
0

>  <RotBonds>
5

>  <HAC>
26

>  <Collection>
General

>  <PPDS>
+

$$$$
F1065-0364
  Mrv2219 10102508112D          

 30 33  0  0  0  0            999 V2000
   -1.3710    0.3882    0.0000 N   0  0  0  0  0  0  0  0  0  0  0  0
   -0.7117    0.8695    0.0000 C   0  0  0  0  0  0  0  0  0  0  0  0
   -1.1162   -0.3882    0.0000 C   0  0  0  0  0  0  0  0  0  0  0  0
   -0.2871   -0.3882    0.0000 C   0  0  0  0  0  0  0  0  0  0  0  0
   -0.0202    0.3882    0.0000 C   0  0  0  0  0  0  0  0  0  0  0  0
   -2.1312    0.6511    0.0000 C   0  0  0  0  0  0  0  0  0  0  0  0
   -4.1695   -0.1497    0.0000 C   0  0  0  0  0  0  0  0  0  0  0  0
    3.4133   -1.0960    0.0000 N   0  0  0  0  0  0  0  0  0  0  0  0
    0.1011   -1.0960    0.0000 N   0  0  0  0  0  0  0  0  0  0  0  0
   -3.5426    0.3842    0.0000 C   0  0  0  0  0  0  0  0  0  0  0  0
   -2.7500    0.1172    0.0000 C   0  0  0  0  0  0  0  0  0  0  0  0
   -0.7117    1.6945    0.0000 O   0  0  0  0  0  0  0  0  0  0  0  0
    2.5883   -1.0960    0.0000 C   0  0  0  0  0  0  0  0  0  0  0  0
   -1.6136   -1.0676    0.0000 O   0  0  0  0  0  0  0  0  0  0  0  0
   -3.9753   -0.9019    0.0000 F   0  0  0  0  0  0  0  0  0  0  0  0
   -4.7518   -0.7441    0.0000 F   0  0  0  0  0  0  0  0  0  0  0  0
   -5.0187    0.0971    0.0000 F   0  0  0  0  0  0  0  0  0  0  0  0
    5.0754   -1.1162    0.0000 O   0  0  0  0  0  0  0  0  0  0  0  0
    2.1838   -1.7997    0.0000 C   0  0  0  0  0  0  0  0  0  0  0  0
    2.1838   -0.3882    0.0000 C   0  0  0  0  0  0  0  0  0  0  0  0
    0.9261   -1.0960    0.0000 C   0  0  0  0  0  0  0  0  0  0  0  0
    1.3588   -0.3882    0.0000 C   0  0  0  0  0  0  0  0  0  0  0  0
    1.3588   -1.7997    0.0000 C   0  0  0  0  0  0  0  0  0  0  0  0
   -2.2930    1.4680    0.0000 C   0  0  0  0  0  0  0  0  0  0  0  0
    3.8338   -1.7997    0.0000 C   0  0  0  0  0  0  0  0  0  0  0  0
    3.8338   -0.3882    0.0000 C   0  0  0  0  0  0  0  0  0  0  0  0
   -3.7084    1.1849    0.0000 C   0  0  0  0  0  0  0  0  0  0  0  0
   -3.0775    1.7430    0.0000 C   0  0  0  0  0  0  0  0  0  0  0  0
    4.6588   -0.3882    0.0000 C   0  0  0  0  0  0  0  0  0  0  0  0
    4.6588   -1.8118    0.0000 C   0  0  0  0  0  0  0  0  0  0  0  0
  2  1  1  0  0  0  0
  3  1  1  0  0  0  0
  4  3  1  0  0  0  0
  5  2  1  0  0  0  0
  6  1  1  0  0  0  0
  7 10  1  0  0  0  0
  8 13  1  0  0  0  0
  9  4  1  0  0  0  0
 10 11  2  0  0  0  0
 11  6  1  0  0  0  0
 12  2  2  0  0  0  0
 13 19  1  0  0  0  0
 14  3  2  0  0  0  0
 15  7  1  0  0  0  0
 16  7  1  0  0  0  0
 17  7  1  0  0  0  0
 18 29  1  0  0  0  0
 19 23  2  0  0  0  0
 20 22  1  0  0  0  0
 21  9  1  0  0  0  0
 22 21  2  0  0  0  0
 23 21  1  0  0  0  0
 24  6  2  0  0  0  0
 25  8  1  0  0  0  0
 26  8  1  0  0  0  0
 27 28  2  0  0  0  0
 28 24  1  0  0  0  0
 29 26  1  0  0  0  0
 30 25  1  0  0  0  0
  5  4  1  0  0  0  0
 27 10  1  0  0  0  0
 20 13  2  0  0  0  0
 30 18  1  0  0  0  0
M  END
>  <IDNUMBER>
F1065-0364

>  <Chemical_Name>
3-{[4-(morpholin-4-yl)phenyl]amino}-1-[3-(trifluoromethyl)phenyl]pyrrolidine-2,5-dione

>  <PriceCoeff>
1.00

>  <CAS>
355115-32-1

>  <MW>
419.40

>  <Description>
solid

>  <FSP3>
0.33

>  <clogP>
3.32

>  <TPSA>
61.88

>  <Acceptor>
5

>  <Donor>
2

>  <RotBonds>
4

>  <HAC>
30

>  <Collection>
General

>  <PPDS>
+

$$$$
F1065-0366
  Mrv2219 10102508112D          

 27 30  0  0  0  0            999 V2000
   -2.3170   -0.2234    0.0000 N   0  0  0  0  0  0  0  0  0  0  0  0
   -2.0503   -1.0401    0.0000 C   0  0  0  0  0  0  0  0  0  0  0  0
   -1.6269    0.2367    0.0000 C   0  0  0  0  0  0  0  0  0  0  0  0
   -1.2002   -1.0401    0.0000 C   0  0  0  0  0  0  0  0  0  0  0  0
   -0.9568   -0.2234    0.0000 C   0  0  0  0  0  0  0  0  0  0  0  0
    2.5337   -1.7436    0.0000 N   0  0  0  0  0  0  0  0  0  0  0  0
   -0.8001   -1.7436    0.0000 N   0  0  0  0  0  0  0  0  0  0  0  0
   -3.0971    0.0366    0.0000 C   0  0  0  0  0  0  0  0  0  0  0  0
    1.6836   -1.7436    0.0000 C   0  0  0  0  0  0  0  0  0  0  0  0
   -2.5604   -1.7202    0.0000 O   0  0  0  0  0  0  0  0  0  0  0  0
   -1.6269    1.0568    0.0000 O   0  0  0  0  0  0  0  0  0  0  0  0
    1.2835   -1.0401    0.0000 C   0  0  0  0  0  0  0  0  0  0  0  0
    1.2835   -2.4537    0.0000 C   0  0  0  0  0  0  0  0  0  0  0  0
    0.0400   -1.7436    0.0000 C   0  0  0  0  0  0  0  0  0  0  0  0
   -3.2505    0.8568    0.0000 C   0  0  0  0  0  0  0  0  0  0  0  0
    0.4401   -1.0401    0.0000 C   0  0  0  0  0  0  0  0  0  0  0  0
    0.4401   -2.4537    0.0000 C   0  0  0  0  0  0  0  0  0  0  0  0
    2.9338   -2.4537    0.0000 C   0  0  0  0  0  0  0  0  0  0  0  0
    2.9338   -1.0401    0.0000 C   0  0  0  0  0  0  0  0  0  0  0  0
   -2.6504    1.3968    0.0000 C   0  0  0  0  0  0  0  0  0  0  0  0
   -4.0372    1.1302    0.0000 C   0  0  0  0  0  0  0  0  0  0  0  0
    3.7839   -2.4537    0.0000 C   0  0  0  0  0  0  0  0  0  0  0  0
    3.7839   -1.0401    0.0000 C   0  0  0  0  0  0  0  0  0  0  0  0
   -4.2172    1.9303    0.0000 C   0  0  0  0  0  0  0  0  0  0  0  0
   -2.8104    2.2170    0.0000 C   0  0  0  0  0  0  0  0  0  0  0  0
    4.1839   -1.7436    0.0000 C   0  0  0  0  0  0  0  0  0  0  0  0
   -3.5871    2.4670    0.0000 C   0  0  0  0  0  0  0  0  0  0  0  0
  2  1  1  0  0  0  0
  3  1  1  0  0  0  0
  4  2  1  0  0  0  0
  5  3  1  0  0  0  0
  6  9  1  0  0  0  0
  7  4  1  0  0  0  0
  8  1  1  0  0  0  0
  9 13  1  0  0  0  0
 10  2  2  0  0  0  0
 11  3  2  0  0  0  0
 12 16  1  0  0  0  0
 13 17  2  0  0  0  0
 14  7  1  0  0  0  0
 15  8  1  0  0  0  0
 16 14  2  0  0  0  0
 17 14  1  0  0  0  0
 18  6  1  0  0  0  0
 19  6  1  0  0  0  0
 20 15  2  0  0  0  0
 21 15  1  0  0  0  0
 22 18  1  0  0  0  0
 23 19  1  0  0  0  0
 24 21  2  0  0  0  0
 25 20  1  0  0  0  0
 26 23  1  0  0  0  0
 27 24  1  0  0  0  0
  4  5  1  0  0  0  0
 25 27  2  0  0  0  0
 12  9  2  0  0  0  0
 22 26  1  0  0  0  0
M  END
>  <IDNUMBER>
F1065-0366

>  <Chemical_Name>
1-benzyl-3-{[4-(piperidin-1-yl)phenyl]amino}pyrrolidine-2,5-dione

>  <PriceCoeff>
1.00

>  <CAS>
471916-28-6

>  <MW>
363.45

>  <Description>
solid

>  <FSP3>
0.36

>  <clogP>
4.07

>  <TPSA>
52.65

>  <Acceptor>
4

>  <Donor>
2

>  <RotBonds>
5

>  <HAC>
27

>  <Collection>
General

>  <PPDS>
+

$$$$
F1065-0368
  Mrv2219 10102508112D          

 22 24  0  0  0  0            999 V2000
   -0.0732    0.4118    0.0000 N   0  0  0  0  0  0  0  0  0  0  0  0
    0.3874   -0.2319    0.0000 C   0  0  0  0  0  0  0  0  0  0  0  0
    0.4027    1.0768    0.0000 C   0  0  0  0  0  0  0  0  0  0  0  0
    1.1745    0.0092    0.0000 C   0  0  0  0  0  0  0  0  0  0  0  0
    1.1745    0.8297    0.0000 C   0  0  0  0  0  0  0  0  0  0  0  0
    1.8303   -0.4973    0.0000 N   0  0  0  0  0  0  0  0  0  0  0  0
   -0.9121    0.3630    0.0000 C   0  0  0  0  0  0  0  0  0  0  0  0
    0.1678   -1.0250    0.0000 O   0  0  0  0  0  0  0  0  0  0  0  0
    0.1678    1.8761    0.0000 O   0  0  0  0  0  0  0  0  0  0  0  0
    1.7205   -1.3026    0.0000 C   0  0  0  0  0  0  0  0  0  0  0  0
    2.6022   -0.1830    0.0000 C   0  0  0  0  0  0  0  0  0  0  0  0
   -1.3545    1.0616    0.0000 C   0  0  0  0  0  0  0  0  0  0  0  0
   -1.2782   -0.3325    0.0000 C   0  0  0  0  0  0  0  0  0  0  0  0
   -2.5594    0.3020    0.0000 C   0  0  0  0  0  0  0  0  0  0  0  0
   -2.1201   -0.3783    0.0000 C   0  0  0  0  0  0  0  0  0  0  0  0
   -2.1690    1.0341    0.0000 C   0  0  0  0  0  0  0  0  0  0  0  0
    2.3917   -1.8151    0.0000 C   0  0  0  0  0  0  0  0  0  0  0  0
    3.2702   -0.6620    0.0000 C   0  0  0  0  0  0  0  0  0  0  0  0
    3.1604   -1.5009    0.0000 C   0  0  0  0  0  0  0  0  0  0  0  0
   -3.3770    0.2562    0.0000 O   0  0  0  0  0  0  0  0  0  0  0  0
   -3.8589    0.9487    0.0000 C   0  0  0  0  0  0  0  0  0  0  0  0
    3.8285   -1.9890    0.0000 C   0  0  0  0  0  0  0  0  0  0  0  0
  2  1  1  0  0  0  0
  3  1  1  0  0  0  0
  4  2  1  0  0  0  0
  5  3  1  0  0  0  0
  6  4  1  0  0  0  0
  7  1  1  0  0  0  0
  8  2  2  0  0  0  0
  9  3  2  0  0  0  0
 10  6  1  0  0  0  0
 11  6  1  0  0  0  0
 12  7  2  0  0  0  0
 13  7  1  0  0  0  0
 14 15  1  0  0  0  0
 15 13  2  0  0  0  0
 16 12  1  0  0  0  0
 17 10  1  0  0  0  0
 18 11  1  0  0  0  0
 19 18  1  0  0  0  0
 20 14  1  0  0  0  0
 21 20  1  0  0  0  0
 22 19  1  0  0  0  0
  5  4  1  0  0  0  0
 14 16  2  0  0  0  0
 17 19  1  0  0  0  0
M  END
>  <IDNUMBER>
F1065-0368

>  <Chemical_Name>
1-(4-methoxyphenyl)-3-(4-methylpiperidin-1-yl)pyrrolidine-2,5-dione

>  <PriceCoeff>
1.50

>  <MW>
302.37

>  <Description>
solid

>  <FSP3>
0.53

>  <clogP>
2.97

>  <TPSA>
69.39

>  <Acceptor>
3

>  <Donor>
1

>  <RotBonds>
3

>  <HAC>
22

>  <Collection>
Advanced

$$$$
F1065-0404
  Mrv2219 10102508112D          

 25 27  0  0  0  0            999 V2000
   -0.8601    0.6230    0.0000 N   0  0  0  0  0  0  0  0  0  0  0  0
   -0.1982    1.0901    0.0000 C   0  0  0  0  0  0  0  0  0  0  0  0
   -0.5947   -0.1699    0.0000 C   0  0  0  0  0  0  0  0  0  0  0  0
    0.2123   -0.1699    0.0000 C   0  0  0  0  0  0  0  0  0  0  0  0
    0.4672    0.6230    0.0000 C   0  0  0  0  0  0  0  0  0  0  0  0
    1.9680   -1.4582    0.0000 C   0  0  0  0  0  0  0  0  0  0  0  0
   -1.6247    0.9026    0.0000 C   0  0  0  0  0  0  0  0  0  0  0  0
    0.6796   -0.8531    0.0000 S   0  0  0  0  0  0  0  0  0  0  0  0
    1.4901   -0.7787    0.0000 C   0  0  0  0  0  0  0  0  0  0  0  0
    1.6176   -2.2086    0.0000 C   0  0  0  0  0  0  0  0  0  0  0  0
   -0.1982    1.9113    0.0000 O   0  0  0  0  0  0  0  0  0  0  0  0
   -1.0618   -0.8531    0.0000 O   0  0  0  0  0  0  0  0  0  0  0  0
    2.0706   -2.8882    0.0000 O   0  0  0  0  0  0  0  0  0  0  0  0
   -1.7591    1.7166    0.0000 C   0  0  0  0  0  0  0  0  0  0  0  0
    0.8070   -2.2971    0.0000 O   0  0  0  0  0  0  0  0  0  0  0  0
    2.8033   -1.3839    0.0000 C   0  0  0  0  0  0  0  0  0  0  0  0
   -2.2511    0.3680    0.0000 C   0  0  0  0  0  0  0  0  0  0  0  0
    1.8512   -0.0248    0.0000 C   0  0  0  0  0  0  0  0  0  0  0  0
   -1.1326    2.2369    0.0000 C   0  0  0  0  0  0  0  0  0  0  0  0
   -2.5448    2.0069    0.0000 C   0  0  0  0  0  0  0  0  0  0  0  0
    3.1430   -0.6407    0.0000 C   0  0  0  0  0  0  0  0  0  0  0  0
   -1.2600    3.0333    0.0000 C   0  0  0  0  0  0  0  0  0  0  0  0
   -3.0333    0.6654    0.0000 C   0  0  0  0  0  0  0  0  0  0  0  0
    2.6759    0.0389    0.0000 C   0  0  0  0  0  0  0  0  0  0  0  0
   -3.1713    1.4830    0.0000 C   0  0  0  0  0  0  0  0  0  0  0  0
  2  1  1  0  0  0  0
  3  1  1  0  0  0  0
  4  3  1  0  0  0  0
  5  2  1  0  0  0  0
  6  9  2  0  0  0  0
  7  1  1  0  0  0  0
  8  4  1  0  0  0  0
  9  8  1  0  0  0  0
 10  6  1  0  0  0  0
 11  2  2  0  0  0  0
 12  3  2  0  0  0  0
 13 10  2  0  0  0  0
 14  7  2  0  0  0  0
 15 10  1  0  0  0  0
 16  6  1  0  0  0  0
 17  7  1  0  0  0  0
 18  9  1  0  0  0  0
 19 14  1  0  0  0  0
 20 14  1  0  0  0  0
 21 24  1  0  0  0  0
 22 19  1  0  0  0  0
 23 17  2  0  0  0  0
 24 18  2  0  0  0  0
 25 23  1  0  0  0  0
  5  4  1  0  0  0  0
 25 20  2  0  0  0  0
 21 16  2  0  0  0  0
M  END
>  <IDNUMBER>
F1065-0404

>  <Chemical_Name>
2-{[1-(2-ethylphenyl)-2,5-dioxopyrrolidin-3-yl]sulfanyl}benzoic acid

>  <PriceCoeff>
1.00

>  <CAS>
305372-99-0

>  <MW>
355.41

>  <Description>
solid

>  <FSP3>
0.21

>  <clogP>
2.70

>  <TPSA>
99.98

>  <Acceptor>
4

>  <Donor>
0

>  <RotBonds>
5

>  <HAC>
25

>  <Collection>
General

>  <PPDS>
+

$$$$
F1065-0405
  Mrv2219 10102508112D          

 29 32  0  0  0  0            999 V2000
    0.2896    0.6998    0.0000 N   0  0  0  0  0  0  0  0  0  0  0  0
    0.9515    1.1687    0.0000 C   0  0  0  0  0  0  0  0  0  0  0  0
    0.5413   -0.0862    0.0000 C   0  0  0  0  0  0  0  0  0  0  0  0
    1.3652   -0.0862    0.0000 C   0  0  0  0  0  0  0  0  0  0  0  0
    1.6169    0.6998    0.0000 C   0  0  0  0  0  0  0  0  0  0  0  0
    3.1270   -1.3894    0.0000 C   0  0  0  0  0  0  0  0  0  0  0  0
    1.8341   -0.7860    0.0000 S   0  0  0  0  0  0  0  0  0  0  0  0
    2.6477   -0.7033    0.0000 C   0  0  0  0  0  0  0  0  0  0  0  0
    2.7753   -2.1341    0.0000 C   0  0  0  0  0  0  0  0  0  0  0  0
   -2.7891    1.8479    0.0000 N   0  0  0  0  0  0  0  0  0  0  0  0
   -0.4723    0.9791    0.0000 C   0  0  0  0  0  0  0  0  0  0  0  0
   -2.0237    1.5583    0.0000 C   0  0  0  0  0  0  0  0  0  0  0  0
    0.9515    1.9961    0.0000 O   0  0  0  0  0  0  0  0  0  0  0  0
    0.0827   -0.7860    0.0000 O   0  0  0  0  0  0  0  0  0  0  0  0
    3.2269   -2.8167    0.0000 O   0  0  0  0  0  0  0  0  0  0  0  0
   -0.6171    1.7962    0.0000 C   0  0  0  0  0  0  0  0  0  0  0  0
   -1.1032    0.4413    0.0000 C   0  0  0  0  0  0  0  0  0  0  0  0
   -1.3928    2.0858    0.0000 C   0  0  0  0  0  0  0  0  0  0  0  0
   -1.8892    0.7447    0.0000 C   0  0  0  0  0  0  0  0  0  0  0  0
    1.9583   -2.2340    0.0000 O   0  0  0  0  0  0  0  0  0  0  0  0
    3.9716   -1.3067    0.0000 C   0  0  0  0  0  0  0  0  0  0  0  0
   -2.9235    2.6650    0.0000 C   0  0  0  0  0  0  0  0  0  0  0  0
   -3.4303    1.3239    0.0000 C   0  0  0  0  0  0  0  0  0  0  0  0
    3.0201    0.0414    0.0000 C   0  0  0  0  0  0  0  0  0  0  0  0
    4.3026   -0.5792    0.0000 C   0  0  0  0  0  0  0  0  0  0  0  0
   -3.6992    2.9545    0.0000 C   0  0  0  0  0  0  0  0  0  0  0  0
   -4.1957    1.6203    0.0000 C   0  0  0  0  0  0  0  0  0  0  0  0
    3.8199    0.1103    0.0000 C   0  0  0  0  0  0  0  0  0  0  0  0
   -4.3301    2.4271    0.0000 C   0  0  0  0  0  0  0  0  0  0  0  0
  2  1  1  0  0  0  0
  3  1  1  0  0  0  0
  4  3  1  0  0  0  0
  5  2  1  0  0  0  0
  6  8  2  0  0  0  0
  7  4  1  0  0  0  0
  8  7  1  0  0  0  0
  9  6  1  0  0  0  0
 10 12  1  0  0  0  0
 11  1  1  0  0  0  0
 12 19  1  0  0  0  0
 13  2  2  0  0  0  0
 14  3  2  0  0  0  0
 15  9  2  0  0  0  0
 16 11  2  0  0  0  0
 17 11  1  0  0  0  0
 18 16  1  0  0  0  0
 19 17  2  0  0  0  0
 20  9  1  0  0  0  0
 21  6  1  0  0  0  0
 22 10  1  0  0  0  0
 23 10  1  0  0  0  0
 24  8  1  0  0  0  0
 25 28  1  0  0  0  0
 26 22  1  0  0  0  0
 27 23  1  0  0  0  0
 28 24  2  0  0  0  0
 29 27  1  0  0  0  0
  4  5  1  0  0  0  0
 18 12  2  0  0  0  0
 21 25  2  0  0  0  0
 26 29  1  0  0  0  0
M  END
>  <IDNUMBER>
F1065-0405

>  <Chemical_Name>
2-({2,5-dioxo-1-[4-(piperidin-1-yl)phenyl]pyrrolidin-3-yl}sulfanyl)benzoic acid

>  <PriceCoeff>
1.00

>  <CAS>
305373-00-6

>  <MW>
410.49

>  <Description>
solid

>  <FSP3>
0.32

>  <clogP>
2.91

>  <TPSA>
103.22

>  <Acceptor>
5

>  <Donor>
1

>  <RotBonds>
5

>  <HAC>
29

>  <Collection>
General

>  <PPDS>
+

$$$$
F1065-0411
  Mrv2219 10102508112D          

 29 32  0  0  0  0            999 V2000
   -1.3917    0.0000    0.0000 N   0  0  0  0  0  0  0  0  0  0  0  0
   -0.9547    0.6797    0.0000 C   0  0  0  0  0  0  0  0  0  0  0  0
   -0.8860   -0.6311    0.0000 C   0  0  0  0  0  0  0  0  0  0  0  0
   -0.1294   -0.3439    0.0000 C   0  0  0  0  0  0  0  0  0  0  0  0
   -0.1658    0.4814    0.0000 C   0  0  0  0  0  0  0  0  0  0  0  0
    3.5602    0.3600    0.0000 N   0  0  0  0  0  0  0  0  0  0  0  0
    0.5340   -0.8739    0.0000 N   0  0  0  0  0  0  0  0  0  0  0  0
   -2.2049    0.0000    0.0000 C   0  0  0  0  0  0  0  0  0  0  0  0
   -1.2623    1.4564    0.0000 O   0  0  0  0  0  0  0  0  0  0  0  0
    2.8158    0.0485    0.0000 C   0  0  0  0  0  0  0  0  0  0  0  0
   -1.0883   -1.4564    0.0000 O   0  0  0  0  0  0  0  0  0  0  0  0
    5.0774    0.9669    0.0000 O   0  0  0  0  0  0  0  0  0  0  0  0
   -2.6216    0.7120    0.0000 C   0  0  0  0  0  0  0  0  0  0  0  0
   -2.6216   -0.7282    0.0000 C   0  0  0  0  0  0  0  0  0  0  0  0
    2.6985   -0.7444    0.0000 C   0  0  0  0  0  0  0  0  0  0  0  0
    2.1402    0.5542    0.0000 C   0  0  0  0  0  0  0  0  0  0  0  0
    1.2785   -0.5502    0.0000 C   0  0  0  0  0  0  0  0  0  0  0  0
   -3.8839    0.0000    0.0000 C   0  0  0  0  0  0  0  0  0  0  0  0
    1.9419   -1.0681    0.0000 C   0  0  0  0  0  0  0  0  0  0  0  0
    1.4079    0.2427    0.0000 C   0  0  0  0  0  0  0  0  0  0  0  0
   -3.4591   -0.7282    0.0000 C   0  0  0  0  0  0  0  0  0  0  0  0
   -3.4591    0.7120    0.0000 C   0  0  0  0  0  0  0  0  0  0  0  0
    4.2035   -0.1456    0.0000 C   0  0  0  0  0  0  0  0  0  0  0  0
    3.6695    1.1652    0.0000 C   0  0  0  0  0  0  0  0  0  0  0  0
   -4.7051    0.0121    0.0000 O   0  0  0  0  0  0  0  0  0  0  0  0
    4.9803    0.1658    0.0000 C   0  0  0  0  0  0  0  0  0  0  0  0
    4.4220    1.4766    0.0000 C   0  0  0  0  0  0  0  0  0  0  0  0
   -5.1178   -0.6797    0.0000 C   0  0  0  0  0  0  0  0  0  0  0  0
   -4.7051   -1.3756    0.0000 C   0  0  0  0  0  0  0  0  0  0  0  0
  2  1  1  0  0  0  0
  3  1  1  0  0  0  0
  4  3  1  0  0  0  0
  5  2  1  0  0  0  0
  6 10  1  0  0  0  0
  7  4  1  0  0  0  0
  8  1  1  0  0  0  0
  9  2  2  0  0  0  0
 10 16  1  0  0  0  0
 11  3  2  0  0  0  0
 12 27  1  0  0  0  0
 13  8  2  0  0  0  0
 14  8  1  0  0  0  0
 15 19  1  0  0  0  0
 16 20  2  0  0  0  0
 17  7  1  0  0  0  0
 18 21  1  0  0  0  0
 19 17  2  0  0  0  0
 20 17  1  0  0  0  0
 21 14  2  0  0  0  0
 22 13  1  0  0  0  0
 23  6  1  0  0  0  0
 24  6  1  0  0  0  0
 25 18  1  0  0  0  0
 26 23  1  0  0  0  0
 27 24  1  0  0  0  0
 28 25  1  0  0  0  0
 29 28  1  0  0  0  0
  5  4  1  0  0  0  0
 22 18  2  0  0  0  0
 10 15  2  0  0  0  0
 26 12  1  0  0  0  0
M  END
>  <IDNUMBER>
F1065-0411

>  <Chemical_Name>
1-(4-ethoxyphenyl)-3-{[4-(morpholin-4-yl)phenyl]amino}pyrrolidine-2,5-dione

>  <PriceCoeff>
1.00

>  <CAS>
355115-11-6

>  <MW>
395.45

>  <Description>
solid

>  <FSP3>
0.36

>  <clogP>
2.56

>  <TPSA>
71.11

>  <Acceptor>
6

>  <Donor>
2

>  <RotBonds>
6

>  <HAC>
29

>  <Collection>
General

>  <PPDS>
+

$$$$
F1065-0413
  Mrv2219 10102508112D          

 28 31  0  0  0  0            999 V2000
   -1.4320    0.0000    0.0000 N   0  0  0  0  0  0  0  0  0  0  0  0
   -0.9858    0.6815    0.0000 C   0  0  0  0  0  0  0  0  0  0  0  0
   -0.9250   -0.6491    0.0000 C   0  0  0  0  0  0  0  0  0  0  0  0
   -0.1663   -0.3570    0.0000 C   0  0  0  0  0  0  0  0  0  0  0  0
   -0.2069    0.4705    0.0000 C   0  0  0  0  0  0  0  0  0  0  0  0
    3.5537    0.2758    0.0000 N   0  0  0  0  0  0  0  0  0  0  0  0
    0.4665   -0.8804    0.0000 N   0  0  0  0  0  0  0  0  0  0  0  0
   -2.2515    0.0203    0.0000 C   0  0  0  0  0  0  0  0  0  0  0  0
   -1.2981    1.4604    0.0000 O   0  0  0  0  0  0  0  0  0  0  0  0
    2.7911    0.0000    0.0000 C   0  0  0  0  0  0  0  0  0  0  0  0
   -1.1399   -1.4604    0.0000 O   0  0  0  0  0  0  0  0  0  0  0  0
   -2.6491   -0.7099    0.0000 C   0  0  0  0  0  0  0  0  0  0  0  0
   -2.6491    0.7261    0.0000 C   0  0  0  0  0  0  0  0  0  0  0  0
    2.1906    0.5314    0.0000 C   0  0  0  0  0  0  0  0  0  0  0  0
    2.6572   -0.8276    0.0000 C   0  0  0  0  0  0  0  0  0  0  0  0
    1.2657   -0.5882    0.0000 C   0  0  0  0  0  0  0  0  0  0  0  0
   -3.8782    0.0203    0.0000 C   0  0  0  0  0  0  0  0  0  0  0  0
    1.4158    0.2393    0.0000 C   0  0  0  0  0  0  0  0  0  0  0  0
    1.8985   -1.1197    0.0000 C   0  0  0  0  0  0  0  0  0  0  0  0
   -3.4685    0.7261    0.0000 C   0  0  0  0  0  0  0  0  0  0  0  0
   -3.4888   -0.7099    0.0000 C   0  0  0  0  0  0  0  0  0  0  0  0
    4.1907   -0.2434    0.0000 C   0  0  0  0  0  0  0  0  0  0  0  0
    3.6997    1.0913    0.0000 C   0  0  0  0  0  0  0  0  0  0  0  0
   -4.7180    0.0203    0.0000 O   0  0  0  0  0  0  0  0  0  0  0  0
   -5.1317    0.7261    0.0000 C   0  0  0  0  0  0  0  0  0  0  0  0
    4.9654    0.0446    0.0000 C   0  0  0  0  0  0  0  0  0  0  0  0
    4.4462    1.3631    0.0000 C   0  0  0  0  0  0  0  0  0  0  0  0
    5.0912    0.8600    0.0000 C   0  0  0  0  0  0  0  0  0  0  0  0
  2  1  1  0  0  0  0
  3  1  1  0  0  0  0
  4  3  1  0  0  0  0
  5  2  1  0  0  0  0
  6 10  1  0  0  0  0
  7  4  1  0  0  0  0
  8  1  1  0  0  0  0
  9  2  2  0  0  0  0
 10 15  2  0  0  0  0
 11  3  2  0  0  0  0
 12  8  1  0  0  0  0
 13  8  2  0  0  0  0
 14 18  2  0  0  0  0
 15 19  1  0  0  0  0
 16  7  1  0  0  0  0
 17 20  2  0  0  0  0
 18 16  1  0  0  0  0
 19 16  2  0  0  0  0
 20 13  1  0  0  0  0
 21 12  2  0  0  0  0
 22  6  1  0  0  0  0
 23  6  1  0  0  0  0
 24 17  1  0  0  0  0
 25 24  1  0  0  0  0
 26 22  1  0  0  0  0
 27 23  1  0  0  0  0
 28 27  1  0  0  0  0
  4  5  1  0  0  0  0
 21 17  1  0  0  0  0
 14 10  1  0  0  0  0
 26 28  1  0  0  0  0
M  END
>  <IDNUMBER>
F1065-0413

>  <Chemical_Name>
1-(4-methoxyphenyl)-3-{[4-(piperidin-1-yl)phenyl]amino}pyrrolidine-2,5-dione

>  <PriceCoeff>
1.00

>  <CAS>
309924-01-4

>  <MW>
379.45

>  <Description>
solid

>  <FSP3>
0.36

>  <clogP>
3.41

>  <TPSA>
61.88

>  <Acceptor>
5

>  <Donor>
2

>  <RotBonds>
5

>  <HAC>
28

>  <Collection>
General

>  <PPDS>
+

$$$$
F1065-0444
  Mrv2219 10102508112D          

 27 30  0  0  0  0            999 V2000
   -1.7812   -1.0681    0.0000 N   0  0  0  0  0  0  0  0  0  0  0  0
   -1.5456   -0.2549    0.0000 C   0  0  0  0  0  0  0  0  0  0  0  0
   -1.1100   -1.5327    0.0000 C   0  0  0  0  0  0  0  0  0  0  0  0
   -0.4356   -1.0197    0.0000 C   0  0  0  0  0  0  0  0  0  0  0  0
   -0.7325   -0.2549    0.0000 C   0  0  0  0  0  0  0  0  0  0  0  0
   -2.5427   -1.3552    0.0000 C   0  0  0  0  0  0  0  0  0  0  0  0
    2.6718    1.1197    0.0000 N   0  0  0  0  0  0  0  0  0  0  0  0
    0.3517   -1.2294    0.0000 N   0  0  0  0  0  0  0  0  0  0  0  0
   -2.0135    0.4130    0.0000 O   0  0  0  0  0  0  0  0  0  0  0  0
    2.0909    0.5388    0.0000 C   0  0  0  0  0  0  0  0  0  0  0  0
   -1.1100   -2.3620    0.0000 O   0  0  0  0  0  0  0  0  0  0  0  0
   -3.1751   -0.8358    0.0000 C   0  0  0  0  0  0  0  0  0  0  0  0
    3.8237    2.2813    0.0000 O   0  0  0  0  0  0  0  0  0  0  0  0
    2.3233   -0.2614    0.0000 C   0  0  0  0  0  0  0  0  0  0  0  0
    1.2778    0.7518    0.0000 C   0  0  0  0  0  0  0  0  0  0  0  0
    0.9293   -0.6486    0.0000 C   0  0  0  0  0  0  0  0  0  0  0  0
   -3.0557   -0.0226    0.0000 F   0  0  0  0  0  0  0  0  0  0  0  0
    0.7099    0.1516    0.0000 C   0  0  0  0  0  0  0  0  0  0  0  0
    1.7328   -0.8519    0.0000 C   0  0  0  0  0  0  0  0  0  0  0  0
    2.4524    1.9070    0.0000 C   0  0  0  0  0  0  0  0  0  0  0  0
    3.4688    0.9067    0.0000 C   0  0  0  0  0  0  0  0  0  0  0  0
   -2.6718   -2.1587    0.0000 C   0  0  0  0  0  0  0  0  0  0  0  0
    4.0561    1.4811    0.0000 C   0  0  0  0  0  0  0  0  0  0  0  0
    3.0235    2.4943    0.0000 C   0  0  0  0  0  0  0  0  0  0  0  0
   -3.9496   -1.1262    0.0000 C   0  0  0  0  0  0  0  0  0  0  0  0
   -3.4429   -2.4524    0.0000 C   0  0  0  0  0  0  0  0  0  0  0  0
   -4.0818   -1.9361    0.0000 C   0  0  0  0  0  0  0  0  0  0  0  0
  2  1  1  0  0  0  0
  3  1  1  0  0  0  0
  4  3  1  0  0  0  0
  5  2  1  0  0  0  0
  6  1  1  0  0  0  0
  7 10  1  0  0  0  0
  8  4  1  0  0  0  0
  9  2  2  0  0  0  0
 10 14  2  0  0  0  0
 11  3  2  0  0  0  0
 12  6  2  0  0  0  0
 13 23  1  0  0  0  0
 14 19  1  0  0  0  0
 15 18  2  0  0  0  0
 16  8  1  0  0  0  0
 17 12  1  0  0  0  0
 18 16  1  0  0  0  0
 19 16  2  0  0  0  0
 20  7  1  0  0  0  0
 21  7  1  0  0  0  0
 22  6  1  0  0  0  0
 23 21  1  0  0  0  0
 24 20  1  0  0  0  0
 25 12  1  0  0  0  0
 26 22  2  0  0  0  0
 27 26  1  0  0  0  0
  4  5  1  0  0  0  0
 27 25  2  0  0  0  0
 15 10  1  0  0  0  0
 24 13  1  0  0  0  0
M  END
>  <IDNUMBER>
F1065-0444

>  <Chemical_Name>
1-(2-fluorophenyl)-3-{[4-(morpholin-4-yl)phenyl]amino}pyrrolidine-2,5-dione

>  <PriceCoeff>
1.00

>  <CAS>
342615-49-0

>  <MW>
369.39

>  <Description>
solid

>  <FSP3>
0.30

>  <clogP>
2.20

>  <TPSA>
61.88

>  <Acceptor>
5

>  <Donor>
2

>  <RotBonds>
4

>  <HAC>
27

>  <Collection>
General

>  <PPDS>
+

$$$$
F1065-0447
  Mrv2219 10102508112D          

 24 26  0  0  0  0            999 V2000
   -1.4076    0.4437    0.0000 N   0  0  0  0  0  0  0  0  0  0  0  0
   -0.7368   -0.0106    0.0000 C   0  0  0  0  0  0  0  0  0  0  0  0
   -1.1620    1.2571    0.0000 C   0  0  0  0  0  0  0  0  0  0  0  0
   -0.0607    0.4965    0.0000 C   0  0  0  0  0  0  0  0  0  0  0  0
    1.3020    0.8636    0.0000 C   0  0  0  0  0  0  0  0  0  0  0  0
   -0.3565    1.2571    0.0000 C   0  0  0  0  0  0  0  0  0  0  0  0
    2.1022    0.6629    0.0000 C   0  0  0  0  0  0  0  0  0  0  0  0
    0.7289    0.2826    0.0000 S   0  0  0  0  0  0  0  0  0  0  0  0
    2.3161   -0.1268    0.0000 C   0  0  0  0  0  0  0  0  0  0  0  0
   -2.1550    0.1664    0.0000 C   0  0  0  0  0  0  0  0  0  0  0  0
    1.0802    1.6611    0.0000 N   0  0  0  0  0  0  0  0  0  0  0  0
   -0.7368   -0.8425    0.0000 O   0  0  0  0  0  0  0  0  0  0  0  0
   -1.6374    1.9226    0.0000 O   0  0  0  0  0  0  0  0  0  0  0  0
    3.1058   -0.3486    0.0000 O   0  0  0  0  0  0  0  0  0  0  0  0
    1.7536   -0.7316    0.0000 O   0  0  0  0  0  0  0  0  0  0  0  0
   -2.2818   -0.6365    0.0000 C   0  0  0  0  0  0  0  0  0  0  0  0
    2.6938    1.2491    0.0000 C   0  0  0  0  0  0  0  0  0  0  0  0
    1.6480    2.2633    0.0000 C   0  0  0  0  0  0  0  0  0  0  0  0
   -3.0556   -0.9217    0.0000 C   0  0  0  0  0  0  0  0  0  0  0  0
   -1.6374   -1.1594    0.0000 C   0  0  0  0  0  0  0  0  0  0  0  0
    2.4508    2.0494    0.0000 C   0  0  0  0  0  0  0  0  0  0  0  0
   -1.7826   -1.9675    0.0000 C   0  0  0  0  0  0  0  0  0  0  0  0
   -3.1982   -1.7457    0.0000 C   0  0  0  0  0  0  0  0  0  0  0  0
   -2.5485   -2.2607    0.0000 C   0  0  0  0  0  0  0  0  0  0  0  0
  2  1  1  0  0  0  0
  3  1  1  0  0  0  0
  4  2  1  0  0  0  0
  5  8  1  0  0  0  0
  6  3  1  0  0  0  0
  7  5  2  0  0  0  0
  8  4  1  0  0  0  0
  9  7  1  0  0  0  0
 10  1  1  0  0  0  0
 11  5  1  0  0  0  0
 12  2  2  0  0  0  0
 13  3  2  0  0  0  0
 14  9  2  0  0  0  0
 15  9  1  0  0  0  0
 16 10  1  0  0  0  0
 17  7  1  0  0  0  0
 18 11  2  0  0  0  0
 19 16  2  0  0  0  0
 20 16  1  0  0  0  0
 21 18  1  0  0  0  0
 22 20  2  0  0  0  0
 23 19  1  0  0  0  0
 24 22  1  0  0  0  0
  6  4  1  0  0  0  0
 24 23  2  0  0  0  0
 17 21  2  0  0  0  0
M  END
>  <IDNUMBER>
F1065-0447

>  <Chemical_Name>
2-[(1-benzyl-2,5-dioxopyrrolidin-3-yl)sulfanyl]pyridine-3-carboxylic acid

>  <PriceCoeff>
1.00

>  <CAS>
302804-32-6

>  <MW>
342.37

>  <Description>
solid

>  <FSP3>
0.18

>  <clogP>
2.25

>  <TPSA>
112.87

>  <Acceptor>
5

>  <Donor>
1

>  <RotBonds>
5

>  <HAC>
24

>  <Collection>
General

>  <PPDS>
+

$$$$
F1065-0450
  Mrv2219 10102508112D          

 27 29  0  0  0  0            999 V2000
   -1.0106   -0.0483    0.0000 N   0  0  0  0  0  0  0  0  0  0  0  0
   -1.0468    0.7602    0.0000 C   0  0  0  0  0  0  0  0  0  0  0  0
   -1.5567   -1.3606    0.0000 C   0  0  0  0  0  0  0  0  0  0  0  0
   -1.6532   -0.5340    0.0000 C   0  0  0  0  0  0  0  0  0  0  0  0
   -0.2142   -0.2896    0.0000 C   0  0  0  0  0  0  0  0  0  0  0  0
   -0.8055   -1.6683    0.0000 N   0  3  0  0  0  0  0  0  0  0  0  0
    0.2293    0.3982    0.0000 C   0  0  0  0  0  0  0  0  0  0  0  0
   -0.2685    1.0378    0.0000 C   0  0  0  0  0  0  0  0  0  0  0  0
    2.2476    1.1675    0.0000 C   0  0  0  0  0  0  0  0  0  0  0  0
    1.0499    0.4344    0.0000 S   0  0  0  0  0  0  0  0  0  0  0  0
    1.4390    1.1554    0.0000 C   0  0  0  0  0  0  0  0  0  0  0  0
    2.7001    0.4585    0.0000 C   0  0  0  0  0  0  0  0  0  0  0  0
   -2.4225   -0.2203    0.0000 C   0  0  0  0  0  0  0  0  0  0  0  0
   -2.2083   -1.8674    0.0000 C   0  0  0  0  0  0  0  0  0  0  0  0
   -0.6305   -2.4889    0.0000 O   0  5  0  0  0  0  0  0  0  0  0  0
   -1.7166    1.2309    0.0000 O   0  0  0  0  0  0  0  0  0  0  0  0
   -0.2172   -1.2701    0.0000 O   0  0  0  0  0  0  0  0  0  0  0  0
    0.0754   -1.0619    0.0000 O   0  0  0  0  0  0  0  0  0  0  0  0
    3.5327    0.4676    0.0000 O   0  0  0  0  0  0  0  0  0  0  0  0
    2.3079   -0.2746    0.0000 O   0  0  0  0  0  0  0  0  0  0  0  0
   -3.0922   -0.7150    0.0000 C   0  0  0  0  0  0  0  0  0  0  0  0
   -2.9686   -1.5416    0.0000 C   0  0  0  0  0  0  0  0  0  0  0  0
    2.6427    1.8916    0.0000 C   0  0  0  0  0  0  0  0  0  0  0  0
    1.0137    1.8463    0.0000 C   0  0  0  0  0  0  0  0  0  0  0  0
   -3.6172   -2.0485    0.0000 C   0  0  0  0  0  0  0  0  0  0  0  0
    2.2114    2.5854    0.0000 C   0  0  0  0  0  0  0  0  0  0  0  0
    1.4149    2.5673    0.0000 C   0  0  0  0  0  0  0  0  0  0  0  0
  2  1  1  0  0  0  0
  3  4  1  0  0  0  0
  4  1  1  0  0  0  0
  5  1  1  0  0  0  0
  6  3  1  0  0  0  0
  7  5  1  0  0  0  0
  8  2  1  0  0  0  0
  9 11  2  0  0  0  0
 10  7  1  0  0  0  0
 11 10  1  0  0  0  0
 12  9  1  0  0  0  0
 13  4  2  0  0  0  0
 14  3  2  0  0  0  0
 15  6  1  0  0  0  0
 16  2  2  0  0  0  0
 17  6  2  0  0  0  0
 18  5  2  0  0  0  0
 19 12  2  0  0  0  0
 20 12  1  0  0  0  0
 21 13  1  0  0  0  0
 22 21  2  0  0  0  0
 23  9  1  0  0  0  0
 24 11  1  0  0  0  0
 25 22  1  0  0  0  0
 26 27  1  0  0  0  0
 27 24  2  0  0  0  0
  8  7  1  0  0  0  0
 22 14  1  0  0  0  0
 23 26  2  0  0  0  0
M  CHG  2   6   1  15  -1
M  END
>  <IDNUMBER>
F1065-0450

>  <Chemical_Name>
2-{[1-(4-methyl-2-nitrophenyl)-2,5-dioxopyrrolidin-3-yl]sulfanyl}benzoic acid

>  <PriceCoeff>
1.00

>  <CAS>
302804-35-9

>  <MW>
386.38

>  <Description>
solid

>  <FSP3>
0.17

>  <clogP>
2.91

>  <TPSA>
145.80

>  <Acceptor>
6

>  <Donor>
0

>  <RotBonds>
5

>  <HAC>
27

>  <Collection>
General

>  <PPDS>
+

$$$$
F1065-0525
  Mrv2219 10102508112D          

 27 29  0  0  0  0            999 V2000
   -0.4888    0.3707    0.0000 N   0  0  0  0  0  0  0  0  0  0  0  0
   -0.3805    1.1777    0.0000 C   0  0  0  0  0  0  0  0  0  0  0  0
    0.2362    0.0000    0.0000 C   0  0  0  0  0  0  0  0  0  0  0  0
    0.8169    0.5872    0.0000 C   0  0  0  0  0  0  0  0  0  0  0  0
    0.4462    1.3254    0.0000 C   0  0  0  0  0  0  0  0  0  0  0  0
    2.9526    0.9941    0.0000 C   0  0  0  0  0  0  0  0  0  0  0  0
    1.6371    0.4691    0.0000 S   0  0  0  0  0  0  0  0  0  0  0  0
    2.1489    1.1122    0.0000 C   0  0  0  0  0  0  0  0  0  0  0  0
    3.2315    0.2329    0.0000 C   0  0  0  0  0  0  0  0  0  0  0  0
   -1.2171    0.0000    0.0000 C   0  0  0  0  0  0  0  0  0  0  0  0
   -0.9547    1.7584    0.0000 O   0  0  0  0  0  0  0  0  0  0  0  0
    0.3773   -0.8169    0.0000 O   0  0  0  0  0  0  0  0  0  0  0  0
   -3.4251   -1.9520    0.0000 C   0  0  0  0  0  0  0  0  0  0  0  0
    4.0386    0.0787    0.0000 O   0  0  0  0  0  0  0  0  0  0  0  0
   -3.4021   -1.1450    0.0000 O   0  0  0  0  0  0  0  0  0  0  0  0
   -2.7426   -2.3753    0.0000 O   0  0  0  0  0  0  0  0  0  0  0  0
   -1.2368   -0.8169    0.0000 C   0  0  0  0  0  0  0  0  0  0  0  0
   -1.9061    0.4429    0.0000 C   0  0  0  0  0  0  0  0  0  0  0  0
   -2.6771   -0.7611    0.0000 C   0  0  0  0  0  0  0  0  0  0  0  0
    2.7394   -0.4232    0.0000 O   0  0  0  0  0  0  0  0  0  0  0  0
   -2.6541    0.0656    0.0000 C   0  0  0  0  0  0  0  0  0  0  0  0
   -1.9684   -1.2040    0.0000 C   0  0  0  0  0  0  0  0  0  0  0  0
    3.4644    1.6535    0.0000 C   0  0  0  0  0  0  0  0  0  0  0  0
    1.8339    1.8667    0.0000 C   0  0  0  0  0  0  0  0  0  0  0  0
   -4.1501   -2.3457    0.0000 C   0  0  0  0  0  0  0  0  0  0  0  0
    3.1495    2.3982    0.0000 C   0  0  0  0  0  0  0  0  0  0  0  0
    2.3457    2.5163    0.0000 C   0  0  0  0  0  0  0  0  0  0  0  0
  2  1  1  0  0  0  0
  3  1  1  0  0  0  0
  4  3  1  0  0  0  0
  5  2  1  0  0  0  0
  6  8  1  0  0  0  0
  7  4  1  0  0  0  0
  8  7  1  0  0  0  0
  9  6  1  0  0  0  0
 10  1  1  0  0  0  0
 11  2  2  0  0  0  0
 12  3  2  0  0  0  0
 13 15  1  0  0  0  0
 14  9  2  0  0  0  0
 15 19  1  0  0  0  0
 16 13  2  0  0  0  0
 17 10  1  0  0  0  0
 18 10  2  0  0  0  0
 19 21  2  0  0  0  0
 20  9  1  0  0  0  0
 21 18  1  0  0  0  0
 22 17  2  0  0  0  0
 23  6  2  0  0  0  0
 24  8  2  0  0  0  0
 25 13  1  0  0  0  0
 26 27  2  0  0  0  0
 27 24  1  0  0  0  0
  5  4  1  0  0  0  0
 22 19  1  0  0  0  0
 23 26  1  0  0  0  0
M  END
>  <IDNUMBER>
F1065-0525

>  <Chemical_Name>
2-({1-[4-(acetyloxy)phenyl]-2,5-dioxopyrrolidin-3-yl}sulfanyl)benzoic acid

>  <PriceCoeff>
1.00

>  <CAS>
305373-35-7

>  <MW>
385.39

>  <Description>
solid

>  <FSP3>
0.16

>  <clogP>
1.59

>  <TPSA>
126.28

>  <Acceptor>
6

>  <Donor>
0

>  <RotBonds>
6

>  <HAC>
27

>  <Collection>
General

>  <PPDS>
+

$$$$
F1065-0535
  Mrv2219 10102508112D          

 29 31  0  0  0  0            999 V2000
   -0.2548    0.1497    0.0000 N   0  0  0  0  0  0  0  0  0  0  0  0
   -1.0575    0.0000    0.0000 C   0  0  0  0  0  0  0  0  0  0  0  0
   -1.6595    0.5733    0.0000 C   0  0  0  0  0  0  0  0  0  0  0  0
    0.1051    0.8887    0.0000 C   0  0  0  0  0  0  0  0  0  0  0  0
   -1.4397   -0.7645    0.0000 S   0  0  0  0  0  0  0  0  0  0  0  0
    0.3568   -0.4109    0.0000 C   0  0  0  0  0  0  0  0  0  0  0  0
   -2.4080    0.1783    0.0000 C   0  0  0  0  0  0  0  0  0  0  0  0
   -2.2551   -0.6721    0.0000 C   0  0  0  0  0  0  0  0  0  0  0  0
    1.0734    0.0000    0.0000 C   0  0  0  0  0  0  0  0  0  0  0  0
    0.9078    0.8122    0.0000 C   0  0  0  0  0  0  0  0  0  0  0  0
    3.2139   -0.4109    0.0000 C   0  0  0  0  0  0  0  0  0  0  0  0
   -1.5671    1.3919    0.0000 C   0  0  0  0  0  0  0  0  0  0  0  0
    1.7997   -0.4109    0.0000 S   0  0  0  0  0  0  0  0  0  0  0  0
    2.5131    0.0159    0.0000 C   0  0  0  0  0  0  0  0  0  0  0  0
    3.2139   -1.2263    0.0000 C   0  0  0  0  0  0  0  0  0  0  0  0
   -0.1688    1.6531    0.0000 O   0  0  0  0  0  0  0  0  0  0  0  0
    0.2803   -1.2263    0.0000 O   0  0  0  0  0  0  0  0  0  0  0  0
   -0.8027    1.7359    0.0000 O   0  0  0  0  0  0  0  0  0  0  0  0
    3.9369   -1.6468    0.0000 O   0  0  0  0  0  0  0  0  0  0  0  0
    2.5131   -1.6468    0.0000 O   0  0  0  0  0  0  0  0  0  0  0  0
   -2.2169    1.9270    0.0000 O   0  0  0  0  0  0  0  0  0  0  0  0
   -3.1343    0.5606    0.0000 C   0  0  0  0  0  0  0  0  0  0  0  0
   -2.8253   -1.2359    0.0000 C   0  0  0  0  0  0  0  0  0  0  0  0
    3.9369    0.0159    0.0000 C   0  0  0  0  0  0  0  0  0  0  0  0
    2.5131    0.8409    0.0000 C   0  0  0  0  0  0  0  0  0  0  0  0
   -3.0259    1.5671    0.0000 C   0  0  0  0  0  0  0  0  0  0  0  0
    3.9369    0.8409    0.0000 C   0  0  0  0  0  0  0  0  0  0  0  0
    3.2139    1.2581    0.0000 C   0  0  0  0  0  0  0  0  0  0  0  0
   -3.6948    2.0354    0.0000 C   0  0  0  0  0  0  0  0  0  0  0  0
  2  1  1  0  0  0  0
  3  2  2  0  0  0  0
  4  1  1  0  0  0  0
  5  2  1  0  0  0  0
  6  1  1  0  0  0  0
  7  3  1  0  0  0  0
  8  5  1  0  0  0  0
  9  6  1  0  0  0  0
 10  4  1  0  0  0  0
 11 14  2  0  0  0  0
 12  3  1  0  0  0  0
 13  9  1  0  0  0  0
 14 13  1  0  0  0  0
 15 11  1  0  0  0  0
 16  4  2  0  0  0  0
 17  6  2  0  0  0  0
 18 12  2  0  0  0  0
 19 15  2  0  0  0  0
 20 15  1  0  0  0  0
 21 12  1  0  0  0  0
 22  7  1  0  0  0  0
 23  8  1  0  0  0  0
 24 11  1  0  0  0  0
 25 14  1  0  0  0  0
 26 21  1  0  0  0  0
 27 28  1  0  0  0  0
 28 25  2  0  0  0  0
 29 26  1  0  0  0  0
  9 10  1  0  0  0  0
  7  8  2  0  0  0  0
 24 27  2  0  0  0  0
M  END
>  <IDNUMBER>
F1065-0535

>  <Chemical_Name>
2-({1-[3-(ethoxycarbonyl)-4,5-dimethylthiophen-2-yl]-2,5-dioxopyrrolidin-3-yl}sulfanyl)benzoic acid

>  <PriceCoeff>
1.00

>  <CAS>
303033-65-0

>  <MW>
433.50

>  <Description>
solid

>  <FSP3>
0.30

>  <clogP>
3.77

>  <TPSA>
154.52

>  <Acceptor>
6

>  <Donor>
0

>  <RotBonds>
7

>  <HAC>
29

>  <Collection>
General

>  <PPDS>
+

$$$$
F1065-0536
  Mrv2219 10102508112D          

 26 28  0  0  0  0            999 V2000
   -0.1909    0.1423    0.0000 N   0  0  0  0  0  0  0  0  0  0  0  0
    0.1683    0.8897    0.0000 C   0  0  0  0  0  0  0  0  0  0  0  0
    0.4174   -0.4109    0.0000 C   0  0  0  0  0  0  0  0  0  0  0  0
    1.1388    0.0000    0.0000 C   0  0  0  0  0  0  0  0  0  0  0  0
   -3.4132   -0.4886    0.0000 N   0  3  0  0  0  0  0  0  0  0  0  0
    0.9706    0.8120    0.0000 C   0  0  0  0  0  0  0  0  0  0  0  0
    3.2741   -0.4109    0.0000 C   0  0  0  0  0  0  0  0  0  0  0  0
    1.8635   -0.4109    0.0000 S   0  0  0  0  0  0  0  0  0  0  0  0
    2.5656    0.0162    0.0000 C   0  0  0  0  0  0  0  0  0  0  0  0
    3.2741   -1.2262    0.0000 C   0  0  0  0  0  0  0  0  0  0  0  0
   -0.9867   -0.0033    0.0000 C   0  0  0  0  0  0  0  0  0  0  0  0
   -2.6109   -0.3333    0.0000 C   0  0  0  0  0  0  0  0  0  0  0  0
   -4.0085    0.0938    0.0000 O   0  5  0  0  0  0  0  0  0  0  0  0
   -0.1035    1.6467    0.0000 O   0  0  0  0  0  0  0  0  0  0  0  0
   -3.7238   -1.2424    0.0000 O   0  0  0  0  0  0  0  0  0  0  0  0
    0.3494   -1.2262    0.0000 O   0  0  0  0  0  0  0  0  0  0  0  0
    3.9891   -1.6436    0.0000 O   0  0  0  0  0  0  0  0  0  0  0  0
   -1.5400    0.6082    0.0000 C   0  0  0  0  0  0  0  0  0  0  0  0
   -1.2391   -0.7991    0.0000 C   0  0  0  0  0  0  0  0  0  0  0  0
   -2.0576   -0.9609    0.0000 C   0  0  0  0  0  0  0  0  0  0  0  0
   -2.3456    0.4529    0.0000 C   0  0  0  0  0  0  0  0  0  0  0  0
    2.5656   -1.6436    0.0000 O   0  0  0  0  0  0  0  0  0  0  0  0
    3.9891    0.0162    0.0000 C   0  0  0  0  0  0  0  0  0  0  0  0
    2.5656    0.8412    0.0000 C   0  0  0  0  0  0  0  0  0  0  0  0
    3.9891    0.8412    0.0000 C   0  0  0  0  0  0  0  0  0  0  0  0
    3.2741    1.2521    0.0000 C   0  0  0  0  0  0  0  0  0  0  0  0
  2  1  1  0  0  0  0
  3  1  1  0  0  0  0
  4  3  1  0  0  0  0
  5 12  1  0  0  0  0
  6  2  1  0  0  0  0
  7  9  2  0  0  0  0
  8  4  1  0  0  0  0
  9  8  1  0  0  0  0
 10  7  1  0  0  0  0
 11  1  1  0  0  0  0
 12 20  1  0  0  0  0
 13  5  1  0  0  0  0
 14  2  2  0  0  0  0
 15  5  2  0  0  0  0
 16  3  2  0  0  0  0
 17 10  2  0  0  0  0
 18 11  2  0  0  0  0
 19 11  1  0  0  0  0
 20 19  2  0  0  0  0
 21 18  1  0  0  0  0
 22 10  1  0  0  0  0
 23  7  1  0  0  0  0
 24  9  1  0  0  0  0
 25 26  1  0  0  0  0
 26 24  2  0  0  0  0
  6  4  1  0  0  0  0
 21 12  2  0  0  0  0
 25 23  2  0  0  0  0
M  CHG  2   5   1  13  -1
M  END
>  <IDNUMBER>
F1065-0536

>  <Chemical_Name>
2-{[1-(4-nitrophenyl)-2,5-dioxopyrrolidin-3-yl]sulfanyl}benzoic acid

>  <PriceCoeff>
1.00

>  <CAS>
303033-66-1

>  <MW>
372.35

>  <Description>
solid

>  <FSP3>
0.12

>  <clogP>
2.41

>  <TPSA>
143.12

>  <Acceptor>
6

>  <Donor>
0

>  <RotBonds>
5

>  <HAC>
26

>  <Collection>
General

>  <PPDS>
+

$$$$
F1065-0537
  Mrv2219 10102508112D          

 25 27  0  0  0  0            999 V2000
   -1.1369   -0.1787    0.0000 N   0  0  0  0  0  0  0  0  0  0  0  0
   -1.3926   -0.9260    0.0000 C   0  0  0  0  0  0  0  0  0  0  0  0
   -0.3202   -0.1787    0.0000 C   0  0  0  0  0  0  0  0  0  0  0  0
   -0.0745   -0.9632    0.0000 C   0  0  0  0  0  0  0  0  0  0  0  0
   -0.7373   -1.4324    0.0000 C   0  0  0  0  0  0  0  0  0  0  0  0
    2.0952   -0.6851    0.0000 C   0  0  0  0  0  0  0  0  0  0  0  0
   -1.6384    0.4667    0.0000 C   0  0  0  0  0  0  0  0  0  0  0  0
    0.7447   -1.1196    0.0000 S   0  0  0  0  0  0  0  0  0  0  0  0
    1.2958   -0.4990    0.0000 C   0  0  0  0  0  0  0  0  0  0  0  0
    2.3533   -1.4770    0.0000 C   0  0  0  0  0  0  0  0  0  0  0  0
   -2.1820   -1.1494    0.0000 O   0  0  0  0  0  0  0  0  0  0  0  0
    0.1638    0.5039    0.0000 O   0  0  0  0  0  0  0  0  0  0  0  0
   -1.3156    1.2213    0.0000 C   0  0  0  0  0  0  0  0  0  0  0  0
    3.1452   -1.6409    0.0000 O   0  0  0  0  0  0  0  0  0  0  0  0
   -0.4990    1.3156    0.0000 S   0  0  0  0  0  0  0  0  0  0  0  0
    1.7973   -2.0778    0.0000 O   0  0  0  0  0  0  0  0  0  0  0  0
    2.6661   -0.0819    0.0000 C   0  0  0  0  0  0  0  0  0  0  0  0
   -2.4576    0.3575    0.0000 C   0  0  0  0  0  0  0  0  0  0  0  0
    1.0377    0.2755    0.0000 C   0  0  0  0  0  0  0  0  0  0  0  0
   -1.8221    1.8891    0.0000 C   0  0  0  0  0  0  0  0  0  0  0  0
   -0.1688    2.0604    0.0000 C   0  0  0  0  0  0  0  0  0  0  0  0
    2.4079    0.6926    0.0000 C   0  0  0  0  0  0  0  0  0  0  0  0
   -2.9615    1.0103    0.0000 C   0  0  0  0  0  0  0  0  0  0  0  0
    1.6036    0.8763    0.0000 C   0  0  0  0  0  0  0  0  0  0  0  0
   -2.6437    1.7774    0.0000 C   0  0  0  0  0  0  0  0  0  0  0  0
  2  1  1  0  0  0  0
  3  1  1  0  0  0  0
  4  3  1  0  0  0  0
  5  2  1  0  0  0  0
  6  9  2  0  0  0  0
  7  1  1  0  0  0  0
  8  4  1  0  0  0  0
  9  8  1  0  0  0  0
 10  6  1  0  0  0  0
 11  2  2  0  0  0  0
 12  3  2  0  0  0  0
 13  7  2  0  0  0  0
 14 10  2  0  0  0  0
 15 13  1  0  0  0  0
 16 10  1  0  0  0  0
 17  6  1  0  0  0  0
 18  7  1  0  0  0  0
 19  9  1  0  0  0  0
 20 13  1  0  0  0  0
 21 15  1  0  0  0  0
 22 24  1  0  0  0  0
 23 18  2  0  0  0  0
 24 19  2  0  0  0  0
 25 23  1  0  0  0  0
  5  4  1  0  0  0  0
 25 20  2  0  0  0  0
 22 17  2  0  0  0  0
M  END
>  <IDNUMBER>
F1065-0537

>  <Chemical_Name>
2-({1-[2-(methylsulfanyl)phenyl]-2,5-dioxopyrrolidin-3-yl}sulfanyl)benzoic acid

>  <PriceCoeff>
1.00

>  <CAS>
303033-67-2

>  <MW>
373.45

>  <Description>
solid

>  <FSP3>
0.17

>  <clogP>
2.63

>  <TPSA>
125.28

>  <Acceptor>
4

>  <Donor>
0

>  <RotBonds>
5

>  <HAC>
25

>  <Collection>
General

>  <PPDS>
+

$$$$
F1065-0545
  Mrv2219 10102508112D          

 24 26  0  0  0  0            999 V2000
   -1.1441   -0.0907    0.0000 N   0  0  0  0  0  0  0  0  0  0  0  0
   -1.3940   -0.8330    0.0000 C   0  0  0  0  0  0  0  0  0  0  0  0
   -0.3307   -0.0907    0.0000 C   0  0  0  0  0  0  0  0  0  0  0  0
   -0.0931   -0.8697    0.0000 C   0  0  0  0  0  0  0  0  0  0  0  0
   -0.7398   -1.3475    0.0000 C   0  0  0  0  0  0  0  0  0  0  0  0
    1.2813   -0.4189    0.0000 C   0  0  0  0  0  0  0  0  0  0  0  0
    2.0824   -0.5953    0.0000 C   0  0  0  0  0  0  0  0  0  0  0  0
    0.7374   -1.0314    0.0000 S   0  0  0  0  0  0  0  0  0  0  0  0
   -1.6365    0.5439    0.0000 C   0  0  0  0  0  0  0  0  0  0  0  0
    2.3397   -1.3842    0.0000 C   0  0  0  0  0  0  0  0  0  0  0  0
    1.0241    0.3577    0.0000 N   0  0  0  0  0  0  0  0  0  0  0  0
   -2.1828   -1.0584    0.0000 O   0  0  0  0  0  0  0  0  0  0  0  0
    0.1495    0.5880    0.0000 O   0  0  0  0  0  0  0  0  0  0  0  0
   -1.3205    1.3058    0.0000 C   0  0  0  0  0  0  0  0  0  0  0  0
    3.1334   -1.5459    0.0000 O   0  0  0  0  0  0  0  0  0  0  0  0
    1.7811   -1.9844    0.0000 O   0  0  0  0  0  0  0  0  0  0  0  0
   -0.5071    1.3891    0.0000 Cl  0  0  0  0  0  0  0  0  0  0  0  0
    2.6459    0.0049    0.0000 C   0  0  0  0  0  0  0  0  0  0  0  0
   -2.4597    0.4385    0.0000 C   0  0  0  0  0  0  0  0  0  0  0  0
    1.5900    0.9555    0.0000 C   0  0  0  0  0  0  0  0  0  0  0  0
   -1.8227    1.9672    0.0000 C   0  0  0  0  0  0  0  0  0  0  0  0
    2.3985    0.7791    0.0000 C   0  0  0  0  0  0  0  0  0  0  0  0
   -2.9594    1.0951    0.0000 C   0  0  0  0  0  0  0  0  0  0  0  0
   -2.6434    1.8643    0.0000 C   0  0  0  0  0  0  0  0  0  0  0  0
  2  1  1  0  0  0  0
  3  1  1  0  0  0  0
  4  3  1  0  0  0  0
  5  2  1  0  0  0  0
  6  8  1  0  0  0  0
  7  6  2  0  0  0  0
  8  4  1  0  0  0  0
  9  1  1  0  0  0  0
 10  7  1  0  0  0  0
 11  6  1  0  0  0  0
 12  2  2  0  0  0  0
 13  3  2  0  0  0  0
 14  9  2  0  0  0  0
 15 10  2  0  0  0  0
 16 10  1  0  0  0  0
 17 14  1  0  0  0  0
 18  7  1  0  0  0  0
 19  9  1  0  0  0  0
 20 11  2  0  0  0  0
 21 14  1  0  0  0  0
 22 20  1  0  0  0  0
 23 19  2  0  0  0  0
 24 23  1  0  0  0  0
  5  4  1  0  0  0  0
 24 21  2  0  0  0  0
 22 18  2  0  0  0  0
M  END
>  <IDNUMBER>
F1065-0545

>  <Chemical_Name>
2-{[1-(2-chlorophenyl)-2,5-dioxopyrrolidin-3-yl]sulfanyl}pyridine-3-carboxylic acid

>  <PriceCoeff>
1.00

>  <CAS>
303033-72-9

>  <MW>
362.79

>  <Description>
solid

>  <FSP3>
0.12

>  <clogP>
2.10

>  <TPSA>
112.87

>  <Acceptor>
5

>  <Donor>
1

>  <RotBonds>
4

>  <HAC>
24

>  <Collection>
General

>  <PPDS>
+

$$$$
F1065-0552
  Mrv2219 10102508112D          

 27 30  0  0  0  0            999 V2000
   -1.8051   -0.1936    0.0000 N   0  0  0  0  0  0  0  0  0  0  0  0
   -1.3027   -0.8263    0.0000 C   0  0  0  0  0  0  0  0  0  0  0  0
   -1.3697    0.5136    0.0000 C   0  0  0  0  0  0  0  0  0  0  0  0
   -0.5880    0.2865    0.0000 C   0  0  0  0  0  0  0  0  0  0  0  0
   -0.5322   -0.5359    0.0000 C   0  0  0  0  0  0  0  0  0  0  0  0
   -2.6314   -0.2903    0.0000 C   0  0  0  0  0  0  0  0  0  0  0  0
    3.2158    0.0335    0.0000 N   0  0  0  0  0  0  0  0  0  0  0  0
    0.0149    0.8710    0.0000 N   0  0  0  0  0  0  0  0  0  0  0  0
   -3.1116    0.3908    0.0000 C   0  0  0  0  0  0  0  0  0  0  0  0
   -1.5372   -1.6302    0.0000 O   0  0  0  0  0  0  0  0  0  0  0  0
    2.4268    0.2345    0.0000 C   0  0  0  0  0  0  0  0  0  0  0  0
   -1.6600    1.2841    0.0000 O   0  0  0  0  0  0  0  0  0  0  0  0
    4.8052   -0.3796    0.0000 O   0  0  0  0  0  0  0  0  0  0  0  0
    1.8461   -0.3610    0.0000 C   0  0  0  0  0  0  0  0  0  0  0  0
    2.2035    1.0236    0.0000 C   0  0  0  0  0  0  0  0  0  0  0  0
    0.8189    0.6438    0.0000 C   0  0  0  0  0  0  0  0  0  0  0  0
   -3.9379    0.3089    0.0000 C   0  0  0  0  0  0  0  0  0  0  0  0
    1.0422   -0.1377    0.0000 C   0  0  0  0  0  0  0  0  0  0  0  0
    1.3995    1.2283    0.0000 C   0  0  0  0  0  0  0  0  0  0  0  0
   -2.9776   -1.0534    0.0000 C   0  0  0  0  0  0  0  0  0  0  0  0
   -4.3957    0.9789    0.0000 Cl  0  0  0  0  0  0  0  0  0  0  0  0
    3.4318   -0.7705    0.0000 C   0  0  0  0  0  0  0  0  0  0  0  0
    3.7891    0.6103    0.0000 C   0  0  0  0  0  0  0  0  0  0  0  0
   -3.7927   -1.1278    0.0000 C   0  0  0  0  0  0  0  0  0  0  0  0
    4.2357   -0.9826    0.0000 C   0  0  0  0  0  0  0  0  0  0  0  0
    4.5893    0.4094    0.0000 C   0  0  0  0  0  0  0  0  0  0  0  0
   -4.2728   -0.4689    0.0000 C   0  0  0  0  0  0  0  0  0  0  0  0
  2  1  1  0  0  0  0
  3  1  1  0  0  0  0
  4  3  1  0  0  0  0
  5  2  1  0  0  0  0
  6  1  1  0  0  0  0
  7 11  1  0  0  0  0
  8  4  1  0  0  0  0
  9  6  2  0  0  0  0
 10  2  2  0  0  0  0
 11 15  1  0  0  0  0
 12  3  2  0  0  0  0
 13 26  1  0  0  0  0
 14 18  1  0  0  0  0
 15 19  2  0  0  0  0
 16  8  1  0  0  0  0
 17  9  1  0  0  0  0
 18 16  2  0  0  0  0
 19 16  1  0  0  0  0
 20  6  1  0  0  0  0
 21 17  1  0  0  0  0
 22  7  1  0  0  0  0
 23  7  1  0  0  0  0
 24 20  2  0  0  0  0
 25 22  1  0  0  0  0
 26 23  1  0  0  0  0
 27 24  1  0  0  0  0
  5  4  1  0  0  0  0
 27 17  2  0  0  0  0
 11 14  2  0  0  0  0
 13 25  1  0  0  0  0
M  END
>  <IDNUMBER>
F1065-0552

>  <Chemical_Name>
1-(3-chlorophenyl)-3-{[4-(morpholin-4-yl)phenyl]amino}pyrrolidine-2,5-dione

>  <PriceCoeff>
1.00

>  <CAS>
473445-43-1

>  <MW>
385.84

>  <Description>
solid

>  <FSP3>
0.30

>  <clogP>
2.94

>  <TPSA>
61.88

>  <Acceptor>
5

>  <Donor>
2

>  <RotBonds>
4

>  <HAC>
27

>  <Collection>
General

>  <PPDS>
+

$$$$
F1065-0594
  Mrv2219 10102508112D          

 27 30  0  0  0  0            999 V2000
   -0.0121   -0.0041    0.0000 N   0  0  0  0  0  0  0  0  0  0  0  0
    0.4531    0.6756    0.0000 C   0  0  0  0  0  0  0  0  0  0  0  0
    0.5138   -0.6473    0.0000 C   0  0  0  0  0  0  0  0  0  0  0  0
    1.2663   -0.3762    0.0000 C   0  0  0  0  0  0  0  0  0  0  0  0
    1.2501    0.4369    0.0000 C   0  0  0  0  0  0  0  0  0  0  0  0
   -3.2972    0.0121    0.0000 N   0  0  0  0  0  0  0  0  0  0  0  0
    1.9703   -0.8253    0.0000 N   0  0  0  0  0  0  0  0  0  0  0  0
   -0.8253    0.0121    0.0000 C   0  0  0  0  0  0  0  0  0  0  0  0
   -2.4597    0.0121    0.0000 C   0  0  0  0  0  0  0  0  0  0  0  0
    0.1821    1.4686    0.0000 O   0  0  0  0  0  0  0  0  0  0  0  0
    0.2954   -1.4605    0.0000 O   0  0  0  0  0  0  0  0  0  0  0  0
   -1.2339   -0.6838    0.0000 C   0  0  0  0  0  0  0  0  0  0  0  0
   -1.2137    0.7484    0.0000 C   0  0  0  0  0  0  0  0  0  0  0  0
   -2.0512   -0.6838    0.0000 C   0  0  0  0  0  0  0  0  0  0  0  0
   -2.0512    0.7484    0.0000 C   0  0  0  0  0  0  0  0  0  0  0  0
   -4.9236    0.0121    0.0000 O   0  0  0  0  0  0  0  0  0  0  0  0
    2.7066   -0.4531    0.0000 C   0  0  0  0  0  0  0  0  0  0  0  0
    4.1630    0.3034    0.0000 C   0  0  0  0  0  0  0  0  0  0  0  0
    4.9034    0.6756    0.0000 F   0  0  0  0  0  0  0  0  0  0  0  0
    2.7673    0.3843    0.0000 C   0  0  0  0  0  0  0  0  0  0  0  0
    3.4025   -0.9022    0.0000 C   0  0  0  0  0  0  0  0  0  0  0  0
    4.1428   -0.5138    0.0000 C   0  0  0  0  0  0  0  0  0  0  0  0
    3.4833    0.7484    0.0000 C   0  0  0  0  0  0  0  0  0  0  0  0
   -3.7018    0.7484    0.0000 C   0  0  0  0  0  0  0  0  0  0  0  0
   -3.7018   -0.6838    0.0000 C   0  0  0  0  0  0  0  0  0  0  0  0
   -4.5231   -0.6838    0.0000 C   0  0  0  0  0  0  0  0  0  0  0  0
   -4.5352    0.7484    0.0000 C   0  0  0  0  0  0  0  0  0  0  0  0
  2  1  1  0  0  0  0
  3  1  1  0  0  0  0
  4  3  1  0  0  0  0
  5  2  1  0  0  0  0
  6  9  1  0  0  0  0
  7  4  1  0  0  0  0
  8  1  1  0  0  0  0
  9 15  2  0  0  0  0
 10  2  2  0  0  0  0
 11  3  2  0  0  0  0
 12  8  1  0  0  0  0
 13  8  2  0  0  0  0
 14 12  2  0  0  0  0
 15 13  1  0  0  0  0
 16 26  1  0  0  0  0
 17  7  1  0  0  0  0
 18 22  2  0  0  0  0
 19 18  1  0  0  0  0
 20 17  1  0  0  0  0
 21 17  2  0  0  0  0
 22 21  1  0  0  0  0
 23 20  2  0  0  0  0
 24  6  1  0  0  0  0
 25  6  1  0  0  0  0
 26 25  1  0  0  0  0
 27 24  1  0  0  0  0
  5  4  1  0  0  0  0
 14  9  1  0  0  0  0
 18 23  1  0  0  0  0
 16 27  1  0  0  0  0
M  END
>  <IDNUMBER>
F1065-0594

>  <Chemical_Name>
3-[(4-fluorophenyl)amino]-1-[4-(morpholin-4-yl)phenyl]pyrrolidine-2,5-dione

>  <PriceCoeff>
1.00

>  <CAS>
473568-22-8

>  <MW>
369.39

>  <Description>
solid

>  <FSP3>
0.30

>  <clogP>
2.39

>  <TPSA>
61.88

>  <Acceptor>
5

>  <Donor>
2

>  <RotBonds>
4

>  <HAC>
27

>  <Collection>
General

>  <PPDS>
+

$$$$
F1065-0606
  Mrv2219 10102508112D          

 21 23  0  0  0  0            999 V2000
   -0.5513    0.6406    0.0000 N   0  0  0  0  0  0  0  0  0  0  0  0
    0.1098    0.1506    0.0000 C   0  0  0  0  0  0  0  0  0  0  0  0
   -0.2884    1.4216    0.0000 C   0  0  0  0  0  0  0  0  0  0  0  0
    0.7683    0.6329    0.0000 C   0  0  0  0  0  0  0  0  0  0  0  0
    0.5232    1.4216    0.0000 C   0  0  0  0  0  0  0  0  0  0  0  0
    1.5314    0.2756    0.0000 N   0  0  0  0  0  0  0  0  0  0  0  0
   -1.3476    0.3982    0.0000 C   0  0  0  0  0  0  0  0  0  0  0  0
    0.1021   -0.6840    0.0000 O   0  0  0  0  0  0  0  0  0  0  0  0
   -0.7937    2.0954    0.0000 O   0  0  0  0  0  0  0  0  0  0  0  0
    1.6156   -0.5513    0.0000 C   0  0  0  0  0  0  0  0  0  0  0  0
   -1.5211   -0.4084    0.0000 C   0  0  0  0  0  0  0  0  0  0  0  0
    0.9494   -1.0209    0.0000 C   0  0  0  0  0  0  0  0  0  0  0  0
    2.3762   -0.8805    0.0000 C   0  0  0  0  0  0  0  0  0  0  0  0
   -2.3047   -0.6432    0.0000 C   0  0  0  0  0  0  0  0  0  0  0  0
   -0.9162   -0.9494    0.0000 C   0  0  0  0  0  0  0  0  0  0  0  0
    1.0286   -1.8479    0.0000 C   0  0  0  0  0  0  0  0  0  0  0  0
   -2.4782   -1.4395    0.0000 C   0  0  0  0  0  0  0  0  0  0  0  0
   -1.0924   -1.7560    0.0000 C   0  0  0  0  0  0  0  0  0  0  0  0
    2.4604   -1.7024    0.0000 C   0  0  0  0  0  0  0  0  0  0  0  0
    1.7866   -2.1848    0.0000 C   0  0  0  0  0  0  0  0  0  0  0  0
   -1.8759   -1.9934    0.0000 C   0  0  0  0  0  0  0  0  0  0  0  0
  2  1  1  0  0  0  0
  3  1  1  0  0  0  0
  4  2  1  0  0  0  0
  5  3  1  0  0  0  0
  6  4  1  0  0  0  0
  7  1  1  0  0  0  0
  8  2  2  0  0  0  0
  9  3  2  0  0  0  0
 10  6  1  0  0  0  0
 11  7  1  0  0  0  0
 12 10  2  0  0  0  0
 13 10  1  0  0  0  0
 14 11  2  0  0  0  0
 15 11  1  0  0  0  0
 16 12  1  0  0  0  0
 17 14  1  0  0  0  0
 18 15  2  0  0  0  0
 19 13  2  0  0  0  0
 20 19  1  0  0  0  0
 21 18  1  0  0  0  0
  5  4  1  0  0  0  0
 21 17  2  0  0  0  0
 16 20  2  0  0  0  0
M  END
>  <IDNUMBER>
F1065-0606

>  <Chemical_Name>
1-benzyl-3-(phenylamino)pyrrolidine-2,5-dione

>  <PriceCoeff>
1.00

>  <CAS>
27036-51-7

>  <MW>
280.32

>  <Description>
solid

>  <FSP3>
0.18

>  <clogP>
3.23

>  <TPSA>
49.41

>  <Acceptor>
3

>  <Donor>
1

>  <RotBonds>
4

>  <HAC>
21

>  <Collection>
General

>  <PPDS>
+

$$$$
F1065-0747
  Mrv2219 10102508112D          

 28 30  0  0  0  0            999 V2000
   -1.2656   -0.3465    0.0000 N   0  0  0  0  0  0  0  0  0  0  0  0
   -1.5910   -1.0757    0.0000 C   0  0  0  0  0  0  0  0  0  0  0  0
   -0.4490   -0.3887    0.0000 C   0  0  0  0  0  0  0  0  0  0  0  0
   -1.7688    0.3586    0.0000 C   0  0  0  0  0  0  0  0  0  0  0  0
   -1.4072    1.0998    0.0000 C   0  0  0  0  0  0  0  0  0  0  0  0
   -0.2622   -1.1933    0.0000 C   0  0  0  0  0  0  0  0  0  0  0  0
   -0.9763   -1.6181    0.0000 C   0  0  0  0  0  0  0  0  0  0  0  0
    1.9436   -1.0757    0.0000 C   0  0  0  0  0  0  0  0  0  0  0  0
    0.5183   -1.4132    0.0000 S   0  0  0  0  0  0  0  0  0  0  0  0
    1.1330   -0.8437    0.0000 C   0  0  0  0  0  0  0  0  0  0  0  0
   -0.5876    1.1661    0.0000 C   0  0  0  0  0  0  0  0  0  0  0  0
    2.1545   -1.8472    0.0000 C   0  0  0  0  0  0  0  0  0  0  0  0
   -2.4015   -1.2204    0.0000 O   0  0  0  0  0  0  0  0  0  0  0  0
    0.0754    0.2622    0.0000 O   0  0  0  0  0  0  0  0  0  0  0  0
   -0.2170    0.6237    0.0000 O   0  0  0  0  0  0  0  0  0  0  0  0
    2.9500   -2.0611    0.0000 O   0  0  0  0  0  0  0  0  0  0  0  0
    1.6121   -2.4619    0.0000 O   0  0  0  0  0  0  0  0  0  0  0  0
   -0.2501    1.9134    0.0000 O   0  0  0  0  0  0  0  0  0  0  0  0
   -2.5763    0.2772    0.0000 C   0  0  0  0  0  0  0  0  0  0  0  0
   -1.8772    1.7778    0.0000 C   0  0  0  0  0  0  0  0  0  0  0  0
    2.5161   -0.4731    0.0000 C   0  0  0  0  0  0  0  0  0  0  0  0
    0.9040   -0.0482    0.0000 C   0  0  0  0  0  0  0  0  0  0  0  0
   -0.7322    2.5823    0.0000 C   0  0  0  0  0  0  0  0  0  0  0  0
   -2.6999    1.6995    0.0000 C   0  0  0  0  0  0  0  0  0  0  0  0
   -3.0524    0.9552    0.0000 C   0  0  0  0  0  0  0  0  0  0  0  0
    2.2811    0.3224    0.0000 C   0  0  0  0  0  0  0  0  0  0  0  0
    1.4735    0.5393    0.0000 C   0  0  0  0  0  0  0  0  0  0  0  0
   -1.5518    2.5100    0.0000 C   0  0  0  0  0  0  0  0  0  0  0  0
  2  1  1  0  0  0  0
  3  1  1  0  0  0  0
  4  1  1  0  0  0  0
  5  4  2  0  0  0  0
  6  3  1  0  0  0  0
  7  2  1  0  0  0  0
  8 10  2  0  0  0  0
  9  6  1  0  0  0  0
 10  9  1  0  0  0  0
 11  5  1  0  0  0  0
 12  8  1  0  0  0  0
 13  2  2  0  0  0  0
 14  3  2  0  0  0  0
 15 11  2  0  0  0  0
 16 12  2  0  0  0  0
 17 12  1  0  0  0  0
 18 11  1  0  0  0  0
 19  4  1  0  0  0  0
 20  5  1  0  0  0  0
 21  8  1  0  0  0  0
 22 10  1  0  0  0  0
 23 18  1  0  0  0  0
 24 25  1  0  0  0  0
 25 19  2  0  0  0  0
 26 27  1  0  0  0  0
 27 22  2  0  0  0  0
 28 23  1  0  0  0  0
  6  7  1  0  0  0  0
 24 20  2  0  0  0  0
 26 21  2  0  0  0  0
M  END
>  <IDNUMBER>
F1065-0747

>  <Chemical_Name>
2-({1-[2-(ethoxycarbonyl)phenyl]-2,5-dioxopyrrolidin-3-yl}sulfanyl)benzoic acid

>  <PriceCoeff>
1.00

>  <CAS>
367907-18-4

>  <MW>
399.42

>  <Description>
solid

>  <FSP3>
0.20

>  <clogP>
3.08

>  <TPSA>
126.28

>  <Acceptor>
6

>  <Donor>
0

>  <RotBonds>
7

>  <HAC>
28

>  <Collection>
General

>  <PPDS>
+

$$$$
F1065-0769
  Mrv2219 10102508112D          

 30 33  0  0  0  0            999 V2000
   -1.4101   -1.1180    0.0000 N   0  0  0  0  0  0  0  0  0  0  0  0
   -1.7324   -1.8567    0.0000 C   0  0  0  0  0  0  0  0  0  0  0  0
   -0.5909   -1.1818    0.0000 C   0  0  0  0  0  0  0  0  0  0  0  0
   -0.3995   -1.9741    0.0000 C   0  0  0  0  0  0  0  0  0  0  0  0
   -1.1045   -2.4072    0.0000 C   0  0  0  0  0  0  0  0  0  0  0  0
   -3.3137    1.6082    0.0000 C   0  0  0  0  0  0  0  0  0  0  0  0
    2.7295    0.1376    0.0000 N   0  0  0  0  0  0  0  0  0  0  0  0
    0.3928   -2.1991    0.0000 N   0  0  0  0  0  0  0  0  0  0  0  0
   -1.8936   -0.4432    0.0000 C   0  0  0  0  0  0  0  0  0  0  0  0
   -2.8303    0.9132    0.0000 C   0  0  0  0  0  0  0  0  0  0  0  0
   -2.5382   -2.0178    0.0000 O   0  0  0  0  0  0  0  0  0  0  0  0
    2.1487   -0.4566    0.0000 C   0  0  0  0  0  0  0  0  0  0  0  0
   -0.0570   -0.5237    0.0000 O   0  0  0  0  0  0  0  0  0  0  0  0
   -2.7161   -0.5070    0.0000 C   0  0  0  0  0  0  0  0  0  0  0  0
   -1.5410    0.3189    0.0000 C   0  0  0  0  0  0  0  0  0  0  0  0
   -2.0110    0.9938    0.0000 C   0  0  0  0  0  0  0  0  0  0  0  0
   -3.1895    0.1712    0.0000 C   0  0  0  0  0  0  0  0  0  0  0  0
   -3.8039    2.2964    0.0000 F   0  0  0  0  0  0  0  0  0  0  0  0
   -2.6355    2.0916    0.0000 F   0  0  0  0  0  0  0  0  0  0  0  0
   -4.0053    1.1381    0.0000 F   0  0  0  0  0  0  0  0  0  0  0  0
    3.8912    1.2993    0.0000 O   0  0  0  0  0  0  0  0  0  0  0  0
    1.3430   -0.2451    0.0000 C   0  0  0  0  0  0  0  0  0  0  0  0
    2.3770   -1.2624    0.0000 C   0  0  0  0  0  0  0  0  0  0  0  0
    0.9905   -1.6351    0.0000 C   0  0  0  0  0  0  0  0  0  0  0  0
    0.7655   -0.8293    0.0000 C   0  0  0  0  0  0  0  0  0  0  0  0
    1.7962   -1.8432    0.0000 C   0  0  0  0  0  0  0  0  0  0  0  0
    3.5185   -0.0705    0.0000 C   0  0  0  0  0  0  0  0  0  0  0  0
    2.5013    0.9266    0.0000 C   0  0  0  0  0  0  0  0  0  0  0  0
    4.0993    0.5103    0.0000 C   0  0  0  0  0  0  0  0  0  0  0  0
    3.0653    1.5276    0.0000 C   0  0  0  0  0  0  0  0  0  0  0  0
  2  1  1  0  0  0  0
  3  1  1  0  0  0  0
  4  3  1  0  0  0  0
  5  2  1  0  0  0  0
  6 10  1  0  0  0  0
  7 12  1  0  0  0  0
  8  4  1  0  0  0  0
  9  1  1  0  0  0  0
 10 16  2  0  0  0  0
 11  2  2  0  0  0  0
 12 23  2  0  0  0  0
 13  3  2  0  0  0  0
 14  9  1  0  0  0  0
 15  9  2  0  0  0  0
 16 15  1  0  0  0  0
 17 14  2  0  0  0  0
 18  6  1  0  0  0  0
 19  6  1  0  0  0  0
 20  6  1  0  0  0  0
 21 30  1  0  0  0  0
 22 25  2  0  0  0  0
 23 26  1  0  0  0  0
 24  8  1  0  0  0  0
 25 24  1  0  0  0  0
 26 24  2  0  0  0  0
 27  7  1  0  0  0  0
 28  7  1  0  0  0  0
 29 27  1  0  0  0  0
 30 28  1  0  0  0  0
  4  5  1  0  0  0  0
 10 17  1  0  0  0  0
 12 22  1  0  0  0  0
 21 29  1  0  0  0  0
M  END
>  <IDNUMBER>
F1065-0769

>  <Chemical_Name>
3-{[4-(morpholin-4-yl)phenyl]amino}-1-[4-(trifluoromethyl)phenyl]pyrrolidine-2,5-dione

>  <PriceCoeff>
1.00

>  <CAS>
471915-80-7

>  <MW>
419.40

>  <Description>
solid

>  <FSP3>
0.33

>  <clogP>
3.32

>  <TPSA>
61.88

>  <Acceptor>
5

>  <Donor>
2

>  <RotBonds>
4

>  <HAC>
30

>  <Collection>
General

>  <PPDS>
+

$$$$
F1065-0770
  Mrv2219 10102508112D          

 28 30  0  0  0  0            999 V2000
   -1.1749   -0.7448    0.0000 N   0  0  0  0  0  0  0  0  0  0  0  0
   -1.4966   -1.4826    0.0000 C   0  0  0  0  0  0  0  0  0  0  0  0
   -0.3531   -0.8008    0.0000 C   0  0  0  0  0  0  0  0  0  0  0  0
   -1.7728    1.3602    0.0000 C   0  0  0  0  0  0  0  0  0  0  0  0
   -0.1643   -1.5945    0.0000 C   0  0  0  0  0  0  0  0  0  0  0  0
   -1.6644   -0.0665    0.0000 C   0  0  0  0  0  0  0  0  0  0  0  0
   -0.8777   -2.0281    0.0000 C   0  0  0  0  0  0  0  0  0  0  0  0
   -1.4267    2.1155    0.0000 C   0  0  0  0  0  0  0  0  0  0  0  0
    2.0281   -1.4686    0.0000 C   0  0  0  0  0  0  0  0  0  0  0  0
   -1.3008    0.6888    0.0000 C   0  0  0  0  0  0  0  0  0  0  0  0
    0.6294   -1.8183    0.0000 S   0  0  0  0  0  0  0  0  0  0  0  0
    1.2204   -1.2588    0.0000 C   0  0  0  0  0  0  0  0  0  0  0  0
    2.2484   -2.2554    0.0000 C   0  0  0  0  0  0  0  0  0  0  0  0
   -2.5980    1.2868    0.0000 C   0  0  0  0  0  0  0  0  0  0  0  0
   -2.3043   -1.6400    0.0000 O   0  0  0  0  0  0  0  0  0  0  0  0
    0.1714   -0.1504    0.0000 O   0  0  0  0  0  0  0  0  0  0  0  0
   -2.4757   -0.1294    0.0000 C   0  0  0  0  0  0  0  0  0  0  0  0
    3.0457   -2.4757    0.0000 O   0  0  0  0  0  0  0  0  0  0  0  0
   -2.9477    0.5455    0.0000 C   0  0  0  0  0  0  0  0  0  0  0  0
   -2.1679    2.4722    0.0000 F   0  0  0  0  0  0  0  0  0  0  0  0
   -1.0665    2.8813    0.0000 F   0  0  0  0  0  0  0  0  0  0  0  0
   -0.6993    1.7588    0.0000 F   0  0  0  0  0  0  0  0  0  0  0  0
    1.6924   -2.8778    0.0000 O   0  0  0  0  0  0  0  0  0  0  0  0
   -3.0631    1.9477    0.0000 Cl  0  0  0  0  0  0  0  0  0  0  0  0
    2.6051   -0.8847    0.0000 C   0  0  0  0  0  0  0  0  0  0  0  0
    0.9966   -0.4511    0.0000 C   0  0  0  0  0  0  0  0  0  0  0  0
    2.3813   -0.0770    0.0000 C   0  0  0  0  0  0  0  0  0  0  0  0
    1.5771    0.1259    0.0000 C   0  0  0  0  0  0  0  0  0  0  0  0
  2  1  1  0  0  0  0
  3  1  1  0  0  0  0
  4 10  1  0  0  0  0
  5  3  1  0  0  0  0
  6  1  1  0  0  0  0
  7  2  1  0  0  0  0
  8  4  1  0  0  0  0
  9 12  2  0  0  0  0
 10  6  2  0  0  0  0
 11  5  1  0  0  0  0
 12 11  1  0  0  0  0
 13  9  1  0  0  0  0
 14 19  1  0  0  0  0
 15  2  2  0  0  0  0
 16  3  2  0  0  0  0
 17  6  1  0  0  0  0
 18 13  2  0  0  0  0
 19 17  2  0  0  0  0
 20  8  1  0  0  0  0
 21  8  1  0  0  0  0
 22  8  1  0  0  0  0
 23 13  1  0  0  0  0
 24 14  1  0  0  0  0
 25  9  1  0  0  0  0
 26 12  1  0  0  0  0
 27 28  1  0  0  0  0
 28 26  2  0  0  0  0
  7  5  1  0  0  0  0
 14  4  2  0  0  0  0
 27 25  2  0  0  0  0
M  END
>  <IDNUMBER>
F1065-0770

>  <Chemical_Name>
2-({1-[4-chloro-3-(trifluoromethyl)phenyl]-2,5-dioxopyrrolidin-3-yl}sulfanyl)benzoic acid

>  <PriceCoeff>
1.00

>  <CAS>
367908-34-7

>  <MW>
429.80

>  <Description>
solid

>  <FSP3>
0.17

>  <clogP>
4.05

>  <TPSA>
99.98

>  <Acceptor>
4

>  <Donor>
0

>  <RotBonds>
4

>  <HAC>
28

>  <Collection>
General

>  <PPDS>
+

$$$$
F1065-0793
  Mrv2219 10102508112D          

 26 28  0  0  0  0            999 V2000
   -0.7933   -0.6181    0.0000 N   0  0  0  0  0  0  0  0  0  0  0  0
   -1.1205   -1.3486    0.0000 C   0  0  0  0  0  0  0  0  0  0  0  0
    0.0232   -0.6644    0.0000 C   0  0  0  0  0  0  0  0  0  0  0  0
    0.2116   -1.4676    0.0000 C   0  0  0  0  0  0  0  0  0  0  0  0
   -0.5024   -1.8940    0.0000 C   0  0  0  0  0  0  0  0  0  0  0  0
    2.4195   -1.3486    0.0000 C   0  0  0  0  0  0  0  0  0  0  0  0
    0.9949   -1.6891    0.0000 S   0  0  0  0  0  0  0  0  0  0  0  0
    1.6097   -1.1139    0.0000 C   0  0  0  0  0  0  0  0  0  0  0  0
    2.6311   -2.1254    0.0000 C   0  0  0  0  0  0  0  0  0  0  0  0
   -1.2957    0.0793    0.0000 C   0  0  0  0  0  0  0  0  0  0  0  0
   -1.9303   -1.4973    0.0000 O   0  0  0  0  0  0  0  0  0  0  0  0
    0.5553   -0.0132    0.0000 O   0  0  0  0  0  0  0  0  0  0  0  0
   -2.2212    1.4279    0.0000 C   0  0  0  0  0  0  0  0  0  0  0  0
   -2.6839    2.0989    0.0000 N   0  0  0  0  0  0  0  0  0  0  0  0
    3.4244   -2.3303    0.0000 O   0  0  0  0  0  0  0  0  0  0  0  0
   -2.1022    0.0000    0.0000 C   0  0  0  0  0  0  0  0  0  0  0  0
   -0.9288    0.8296    0.0000 C   0  0  0  0  0  0  0  0  0  0  0  0
   -2.5748    0.6842    0.0000 C   0  0  0  0  0  0  0  0  0  0  0  0
   -1.3982    1.5039    0.0000 C   0  0  0  0  0  0  0  0  0  0  0  0
    2.0857   -2.7368    0.0000 O   0  0  0  0  0  0  0  0  0  0  0  0
    2.9881   -0.7536    0.0000 C   0  0  0  0  0  0  0  0  0  0  0  0
    1.3783   -0.3206    0.0000 C   0  0  0  0  0  0  0  0  0  0  0  0
   -3.5069    2.0229    0.0000 C   0  0  0  0  0  0  0  0  0  0  0  0
   -2.3269    2.8327    0.0000 C   0  0  0  0  0  0  0  0  0  0  0  0
    2.7600    0.0496    0.0000 C   0  0  0  0  0  0  0  0  0  0  0  0
    1.9469    0.2644    0.0000 C   0  0  0  0  0  0  0  0  0  0  0  0
  2  1  1  0  0  0  0
  3  1  1  0  0  0  0
  4  3  1  0  0  0  0
  5  2  1  0  0  0  0
  6  8  2  0  0  0  0
  7  4  1  0  0  0  0
  8  7  1  0  0  0  0
  9  6  1  0  0  0  0
 10  1  1  0  0  0  0
 11  2  2  0  0  0  0
 12  3  2  0  0  0  0
 13 19  2  0  0  0  0
 14 13  1  0  0  0  0
 15  9  2  0  0  0  0
 16 10  1  0  0  0  0
 17 10  2  0  0  0  0
 18 16  2  0  0  0  0
 19 17  1  0  0  0  0
 20  9  1  0  0  0  0
 21  6  1  0  0  0  0
 22  8  1  0  0  0  0
 23 14  1  0  0  0  0
 24 14  1  0  0  0  0
 25 26  1  0  0  0  0
 26 22  2  0  0  0  0
  5  4  1  0  0  0  0
 18 13  1  0  0  0  0
 21 25  2  0  0  0  0
M  END
>  <IDNUMBER>
F1065-0793

>  <Chemical_Name>
2-({1-[4-(dimethylamino)phenyl]-2,5-dioxopyrrolidin-3-yl}sulfanyl)benzoic acid

>  <PriceCoeff>
1.00

>  <CAS>
367908-50-7

>  <MW>
370.42

>  <Description>
solid

>  <FSP3>
0.21

>  <clogP>
2.24

>  <TPSA>
103.22

>  <Acceptor>
5

>  <Donor>
1

>  <RotBonds>
5

>  <HAC>
26

>  <Collection>
General

>  <PPDS>
+

$$$$
F1070-0203
  Mrv2219 10102508112D          

 20 22  0  0  0  0            999 V2000
    6.9418   -3.9910    0.0000 C   0  0  0  0  0  0  0  0  0  0  0  0
    6.9418   -4.8157    0.0000 C   0  0  0  0  0  0  0  0  0  0  0  0
    5.5168   -3.9910    0.0000 N   0  0  0  0  0  0  0  0  0  0  0  0
    7.6566   -3.5786    0.0000 N   0  0  0  0  0  0  0  0  0  0  0  0
    5.5168   -4.8157    0.0000 C   0  0  0  0  0  0  0  0  0  0  0  0
    8.3622   -4.8157    0.0000 N   0  0  0  0  0  0  0  0  0  0  0  0
    8.3622   -4.0001    0.0000 C   0  0  0  0  0  0  0  0  0  0  0  0
    7.6474   -5.2281    0.0000 C   0  0  0  0  0  0  0  0  0  0  0  0
    6.2270   -5.2281    0.0000 N   0  0  0  0  0  0  0  0  0  0  0  0
    4.8020   -5.2281    0.0000 N   0  0  0  0  0  0  0  0  0  0  0  0
    9.0862   -3.5923    0.0000 O   0  0  0  0  0  0  0  0  0  0  0  0
    7.6428   -6.0529    0.0000 O   0  0  0  0  0  0  0  0  0  0  0  0
    7.6566   -2.7538    0.0000 C   0  0  0  0  0  0  0  0  0  0  0  0
    9.0770   -5.2419    0.0000 C   0  0  0  0  0  0  0  0  0  0  0  0
    3.3724   -6.0529    0.0000 O   0  0  0  0  0  0  0  0  0  0  0  0
    6.2316   -6.0529    0.0000 C   0  0  0  0  0  0  0  0  0  0  0  0
    4.8020   -6.0529    0.0000 C   0  0  0  0  0  0  0  0  0  0  0  0
    4.0872   -4.8157    0.0000 C   0  0  0  0  0  0  0  0  0  0  0  0
    3.3724   -5.2281    0.0000 C   0  0  0  0  0  0  0  0  0  0  0  0
    4.0872   -6.4653    0.0000 C   0  0  0  0  0  0  0  0  0  0  0  0
  2  1  2  0  0  0  0
  3  1  1  0  0  0  0
  4  1  1  0  0  0  0
  5  3  2  0  0  0  0
  6  7  1  0  0  0  0
  7  4  1  0  0  0  0
  8  2  1  0  0  0  0
  9  2  1  0  0  0  0
 10  5  1  0  0  0  0
 11  7  2  0  0  0  0
 12  8  2  0  0  0  0
 13  4  1  0  0  0  0
 14  6  1  0  0  0  0
 15 19  1  0  0  0  0
 16  9  1  0  0  0  0
 17 10  1  0  0  0  0
 18 10  1  0  0  0  0
 19 18  1  0  0  0  0
 20 17  1  0  0  0  0
  5  9  1  0  0  0  0
  8  6  1  0  0  0  0
 20 15  1  0  0  0  0
M  END
>  <IDNUMBER>
F1070-0203

>  <Chemical_Name>
1,3,7-trimethyl-8-(morpholin-4-yl)-2,3,6,7-tetrahydro-1H-purine-2,6-dione

>  <PriceCoeff>
1.50

>  <CAS>
5436-38-4

>  <MW>
279.30

>  <Description>
solid

>  <FSP3>
0.58

>  <clogP>
-0.04

>  <TPSA>
70.91

>  <Acceptor>
4

>  <Donor>
2

>  <RotBonds>
1

>  <HAC>
20

>  <Collection>
Advanced

>  <PPDS>
+

$$$$
F1084-0888
  Mrv2219 10102508112D          

 19 20  0  0  0  0            999 V2000
    0.3917    0.4959    0.0000 N   0  3  0  0  0  0  0  0  0  0  0  0
    2.5420   -0.7418    0.0000 C   0  0  0  0  0  0  0  0  0  0  0  0
    3.2546   -1.1543    0.0000 C   0  0  0  0  0  0  0  0  0  0  0  0
    3.2546   -1.9794    0.0000 N   0  0  0  0  0  0  0  0  0  0  0  0
    1.8252   -1.1543    0.0000 C   0  0  0  0  0  0  0  0  0  0  0  0
    1.1126    0.0875    0.0000 C   0  0  0  0  0  0  0  0  0  0  0  0
    1.1126   -0.7418    0.0000 C   0  0  0  0  0  0  0  0  0  0  0  0
    2.5420    0.0875    0.0000 C   0  0  0  0  0  0  0  0  0  0  0  0
    3.8421   -2.5628    0.0000 C   0  0  0  0  0  0  0  0  0  0  0  0
    0.3917    1.3209    0.0000 O   0  5  0  0  0  0  0  0  0  0  0  0
   -0.3208    0.0833    0.0000 O   0  0  0  0  0  0  0  0  0  0  0  0
    4.6380   -2.3420    0.0000 N   0  0  0  0  0  0  0  0  0  0  0  0
    3.9671   -0.7376    0.0000 O   0  0  0  0  0  0  0  0  0  0  0  0
    1.8252    0.5001    0.0000 C   0  0  0  0  0  0  0  0  0  0  0  0
    1.8169   -1.9794    0.0000 Cl  0  0  0  0  0  0  0  0  0  0  0  0
    5.2048   -2.9295    0.0000 C   0  0  0  0  0  0  0  0  0  0  0  0
    3.6171   -3.3546    0.0000 C   0  0  0  0  0  0  0  0  0  0  0  0
    4.9922   -3.7254    0.0000 C   0  0  0  0  0  0  0  0  0  0  0  0
    4.2005   -3.9379    0.0000 C   0  0  0  0  0  0  0  0  0  0  0  0
  2  8  1  0  0  0  0
  3  2  1  0  0  0  0
  4  3  1  0  0  0  0
  5  7  1  0  0  0  0
  6  1  1  0  0  0  0
  7  6  2  0  0  0  0
  8 14  2  0  0  0  0
  9  4  1  0  0  0  0
 10  1  1  0  0  0  0
 11  1  2  0  0  0  0
 12  9  1  0  0  0  0
 13  3  2  0  0  0  0
 14  6  1  0  0  0  0
 15  5  1  0  0  0  0
 16 12  2  0  0  0  0
 17  9  2  0  0  0  0
 18 19  2  0  0  0  0
 19 17  1  0  0  0  0
  5  2  2  0  0  0  0
 16 18  1  0  0  0  0
M  CHG  2   1   1  10  -1
M  END
>  <IDNUMBER>
F1084-0888

>  <Chemical_Name>
2-chloro-4-nitro-N-(pyridin-2-yl)benzamide

>  <PriceCoeff>
1.00

>  <CAS>
176165-76-7

>  <MW>
277.66

>  <Description>
solid

>  <FSP3>
0.00

>  <clogP>
1.78

>  <TPSA>
85.13

>  <Acceptor>
4

>  <Donor>
2

>  <RotBonds>
3

>  <HAC>
19

>  <Collection>
General

>  <PPDS>
+

$$$$
F1085-0016
  Mrv2219 10102508112D          

 15 15  0  0  0  0            999 V2000
   -0.5459   -0.9227    0.0000 C   0  0  0  0  0  0  0  0  0  0  0  0
    0.2768   -0.6229    0.0000 C   0  0  0  0  0  0  0  0  0  0  0  0
   -0.6459   -1.7301    0.0000 C   0  0  0  0  0  0  0  0  0  0  0  0
   -1.1687   -0.3999    0.0000 C   0  0  0  0  0  0  0  0  0  0  0  0
    0.8996   -1.1380    0.0000 N   0  0  0  0  0  0  0  0  0  0  0  0
   -1.4224   -2.0300    0.0000 C   0  0  0  0  0  0  0  0  0  0  0  0
    2.3067   -1.3610    0.0000 C   0  0  0  0  0  0  0  0  0  0  0  0
    0.4230    0.2229    0.0000 O   0  0  0  0  0  0  0  0  0  0  0  0
    3.0757   -1.0688    0.0000 O   0  0  0  0  0  0  0  0  0  0  0  0
    1.6686   -0.8381    0.0000 C   0  0  0  0  0  0  0  0  0  0  0  0
   -2.0530   -1.5071    0.0000 C   0  0  0  0  0  0  0  0  0  0  0  0
    0.0078   -2.2836    0.0000 Cl  0  0  0  0  0  0  0  0  0  0  0  0
   -1.9377   -0.6997    0.0000 C   0  0  0  0  0  0  0  0  0  0  0  0
    2.1530   -2.1760    0.0000 O   0  0  0  0  0  0  0  0  0  0  0  0
   -2.8295   -1.8070    0.0000 Cl  0  0  0  0  0  0  0  0  0  0  0  0
  2  1  1  0  0  0  0
  3  1  2  0  0  0  0
  4  1  1  0  0  0  0
  5  2  1  0  0  0  0
  6  3  1  0  0  0  0
  7 10  1  0  0  0  0
  8  2  2  0  0  0  0
  9  7  2  0  0  0  0
 10  5  1  0  0  0  0
 11 13  1  0  0  0  0
 12  3  1  0  0  0  0
 13  4  2  0  0  0  0
 14  7  1  0  0  0  0
 15 11  1  0  0  0  0
 11  6  2  0  0  0  0
M  END
>  <IDNUMBER>
F1085-0016

>  <Chemical_Name>
2-[(2,4-dichlorophenyl)formamido]acetic acid

>  <PriceCoeff>
1.00

>  <CAS>
7554-79-2

>  <MW>
248.06

>  <Description>
solid

>  <FSP3>
0.11

>  <clogP>
1.73

>  <TPSA>
66.40

>  <Acceptor>
3

>  <Donor>
1

>  <RotBonds>
3

>  <HAC>
15

>  <Collection>
General

>  <PPDS>
+

$$$$
F1086-0006
  Mrv2219 10102508112D          

 24 27  0  0  0  0            999 V2000
    1.8327   -1.2108    0.0000 C   0  0  0  0  0  0  0  0  0  0  0  0
    2.3054   -1.8825    0.0000 C   0  0  0  0  0  0  0  0  0  0  0  0
    2.9854   -0.3774    0.0000 N   0  0  0  0  0  0  0  0  0  0  0  0
    3.1264   -1.8037    0.0000 N   0  0  0  0  0  0  0  0  0  0  0  0
    3.4705   -1.0491    0.0000 C   0  0  0  0  0  0  0  0  0  0  0  0
    2.1644   -0.4644    0.0000 C   0  0  0  0  0  0  0  0  0  0  0  0
    1.8286   -2.5418    0.0000 S   0  0  0  0  0  0  0  0  0  0  0  0
    1.0491   -1.4678    0.0000 C   0  0  0  0  0  0  0  0  0  0  0  0
    1.0491   -2.2888    0.0000 C   0  0  0  0  0  0  0  0  0  0  0  0
    5.5894   -1.5549    0.0000 C   0  0  0  0  0  0  0  0  0  0  0  0
    3.3254    0.3690    0.0000 C   0  0  0  0  0  0  0  0  0  0  0  0
    6.0745   -2.2266    0.0000 C   0  0  0  0  0  0  0  0  0  0  0  0
    1.6835    0.2073    0.0000 O   0  0  0  0  0  0  0  0  0  0  0  0
    4.2915   -0.9703    0.0000 S   0  0  0  0  0  0  0  0  0  0  0  0
    0.3359   -1.0491    0.0000 C   0  0  0  0  0  0  0  0  0  0  0  0
    4.7684   -1.6420    0.0000 C   0  0  0  0  0  0  0  0  0  0  0  0
    0.3359   -2.7035    0.0000 C   0  0  0  0  0  0  0  0  0  0  0  0
    4.1464    0.4478    0.0000 C   0  0  0  0  0  0  0  0  0  0  0  0
    2.8403    1.0407    0.0000 C   0  0  0  0  0  0  0  0  0  0  0  0
   -0.3732   -1.4596    0.0000 C   0  0  0  0  0  0  0  0  0  0  0  0
   -0.3732   -2.2930    0.0000 C   0  0  0  0  0  0  0  0  0  0  0  0
    3.1844    1.7871    0.0000 C   0  0  0  0  0  0  0  0  0  0  0  0
    4.4905    1.2024    0.0000 C   0  0  0  0  0  0  0  0  0  0  0  0
    4.0096    1.8741    0.0000 C   0  0  0  0  0  0  0  0  0  0  0  0
  2  1  2  0  0  0  0
  3  6  1  0  0  0  0
  4  2  1  0  0  0  0
  5  3  1  0  0  0  0
  6  1  1  0  0  0  0
  7  2  1  0  0  0  0
  8  1  1  0  0  0  0
  9  8  2  0  0  0  0
 10 16  1  0  0  0  0
 11  3  1  0  0  0  0
 12 10  3  0  0  0  0
 13  6  2  0  0  0  0
 14  5  1  0  0  0  0
 15  8  1  0  0  0  0
 16 14  1  0  0  0  0
 17  9  1  0  0  0  0
 18 11  2  0  0  0  0
 19 11  1  0  0  0  0
 20 15  1  0  0  0  0
 21 20  1  0  0  0  0
 22 19  2  0  0  0  0
 23 18  1  0  0  0  0
 24 22  1  0  0  0  0
  7  9  1  0  0  0  0
  5  4  2  0  0  0  0
 21 17  1  0  0  0  0
 24 23  2  0  0  0  0
M  END
>  <IDNUMBER>
F1086-0006

>  <Chemical_Name>
4-phenyl-5-(prop-2-yn-1-ylsulfanyl)-8-thia-4,6-diazatricyclo[7.4.0.0?,?]trideca-1(9),2(7),5-trien-3-one

>  <PriceCoeff>
1.00

>  <CAS>
249750-75-2

>  <MW>
352.47

>  <Description>
solid

>  <FSP3>
0.26

>  <clogP>
5.74

>  <TPSA>
86.21

>  <Acceptor>
2

>  <Donor>
0

>  <RotBonds>
4

>  <HAC>
24

>  <Collection>
General

>  <PPDS>
+

$$$$
F1086-0007
  Mrv2219 10102508112D          

 22 24  0  0  0  0            999 V2000
    1.8327   -1.2108    0.0000 C   0  0  0  0  0  0  0  0  0  0  0  0
    2.3054   -1.8825    0.0000 C   0  0  0  0  0  0  0  0  0  0  0  0
    2.9854   -0.3774    0.0000 N   0  0  0  0  0  0  0  0  0  0  0  0
    3.1264   -1.8037    0.0000 N   0  0  0  0  0  0  0  0  0  0  0  0
    3.4705   -1.0491    0.0000 C   0  0  0  0  0  0  0  0  0  0  0  0
    2.1644   -0.4644    0.0000 C   0  0  0  0  0  0  0  0  0  0  0  0
    1.8286   -2.5418    0.0000 S   0  0  0  0  0  0  0  0  0  0  0  0
    1.0491   -1.4678    0.0000 C   0  0  0  0  0  0  0  0  0  0  0  0
    1.0491   -2.2888    0.0000 C   0  0  0  0  0  0  0  0  0  0  0  0
    5.5894   -1.5549    0.0000 C   0  0  0  0  0  0  0  0  0  0  0  0
    3.3254    0.3690    0.0000 C   0  0  0  0  0  0  0  0  0  0  0  0
    6.0745   -2.2266    0.0000 C   0  0  0  0  0  0  0  0  0  0  0  0
    1.6835    0.2073    0.0000 O   0  0  0  0  0  0  0  0  0  0  0  0
    4.2915   -0.9703    0.0000 S   0  0  0  0  0  0  0  0  0  0  0  0
    0.3359   -1.0491    0.0000 C   0  0  0  0  0  0  0  0  0  0  0  0
    4.7684   -1.6420    0.0000 C   0  0  0  0  0  0  0  0  0  0  0  0
    0.3359   -2.7035    0.0000 C   0  0  0  0  0  0  0  0  0  0  0  0
    4.1464    0.4478    0.0000 C   0  0  0  0  0  0  0  0  0  0  0  0
    2.8403    1.0407    0.0000 C   0  0  0  0  0  0  0  0  0  0  0  0
    3.1844    1.7871    0.0000 C   0  0  0  0  0  0  0  0  0  0  0  0
    4.4905    1.2024    0.0000 C   0  0  0  0  0  0  0  0  0  0  0  0
    4.0096    1.8741    0.0000 C   0  0  0  0  0  0  0  0  0  0  0  0
  2  1  2  0  0  0  0
  3  6  1  0  0  0  0
  4  2  1  0  0  0  0
  5  3  1  0  0  0  0
  6  1  1  0  0  0  0
  7  2  1  0  0  0  0
  8  1  1  0  0  0  0
  9  8  2  0  0  0  0
 10 16  1  0  0  0  0
 11  3  1  0  0  0  0
 12 10  3  0  0  0  0
 13  6  2  0  0  0  0
 14  5  1  0  0  0  0
 15  8  1  0  0  0  0
 16 14  1  0  0  0  0
 17  9  1  0  0  0  0
 18 11  2  0  0  0  0
 19 11  1  0  0  0  0
 20 19  2  0  0  0  0
 21 18  1  0  0  0  0
 22 20  1  0  0  0  0
  7  9  1  0  0  0  0
  5  4  2  0  0  0  0
 22 21  2  0  0  0  0
M  END
>  <IDNUMBER>
F1086-0007

>  <Chemical_Name>
5,6-dimethyl-3-phenyl-2-(prop-2-yn-1-ylsulfanyl)-3H,4H-thieno[2,3-d]pyrimidin-4-one

>  <PriceCoeff>
1.00

>  <CAS>
433700-80-2

>  <MW>
326.44

>  <Description>
solid

>  <FSP3>
0.18

>  <clogP>
5.11

>  <TPSA>
86.21

>  <Acceptor>
2

>  <Donor>
0

>  <RotBonds>
4

>  <HAC>
22

>  <Collection>
General

>  <PPDS>
+

$$$$
F1086-0008
  Mrv2219 10102508112D          

 23 26  0  0  0  0            999 V2000
    2.2925   -1.8821    0.0000 C   0  0  0  0  0  0  0  0  0  0  0  0
    2.7776   -2.5495    0.0000 C   0  0  0  0  0  0  0  0  0  0  0  0
    3.4492   -1.0489    0.0000 N   0  0  0  0  0  0  0  0  0  0  0  0
    3.5860   -2.4667    0.0000 N   0  0  0  0  0  0  0  0  0  0  0  0
    3.9342   -1.7205    0.0000 C   0  0  0  0  0  0  0  0  0  0  0  0
    2.6283   -1.1317    0.0000 C   0  0  0  0  0  0  0  0  0  0  0  0
    2.2925   -3.2129    0.0000 S   0  0  0  0  0  0  0  0  0  0  0  0
    1.5090   -2.1309    0.0000 C   0  0  0  0  0  0  0  0  0  0  0  0
    1.5090   -2.9517    0.0000 C   0  0  0  0  0  0  0  0  0  0  0  0
    6.0484   -2.2179    0.0000 C   0  0  0  0  0  0  0  0  0  0  0  0
    3.7932   -0.2985    0.0000 C   0  0  0  0  0  0  0  0  0  0  0  0
    6.5335   -2.8895    0.0000 C   0  0  0  0  0  0  0  0  0  0  0  0
    2.1433   -0.4643    0.0000 O   0  0  0  0  0  0  0  0  0  0  0  0
    4.7550   -1.6334    0.0000 S   0  0  0  0  0  0  0  0  0  0  0  0
    0.8001   -1.7205    0.0000 C   0  0  0  0  0  0  0  0  0  0  0  0
    0.0912   -2.9600    0.0000 C   0  0  0  0  0  0  0  0  0  0  0  0
    5.2276   -2.3050    0.0000 C   0  0  0  0  0  0  0  0  0  0  0  0
    0.0912   -2.1267    0.0000 C   0  0  0  0  0  0  0  0  0  0  0  0
    3.3082    0.3689    0.0000 C   0  0  0  0  0  0  0  0  0  0  0  0
    4.6140   -0.2156    0.0000 C   0  0  0  0  0  0  0  0  0  0  0  0
    4.9540    0.5306    0.0000 C   0  0  0  0  0  0  0  0  0  0  0  0
    3.6482    1.1193    0.0000 C   0  0  0  0  0  0  0  0  0  0  0  0
    4.4690    1.2022    0.0000 C   0  0  0  0  0  0  0  0  0  0  0  0
  2  1  2  0  0  0  0
  3  6  1  0  0  0  0
  4  2  1  0  0  0  0
  5  3  1  0  0  0  0
  6  1  1  0  0  0  0
  7  2  1  0  0  0  0
  8  1  1  0  0  0  0
  9  8  2  0  0  0  0
 10 17  1  0  0  0  0
 11  3  1  0  0  0  0
 12 10  3  0  0  0  0
 13  6  2  0  0  0  0
 14  5  1  0  0  0  0
 15  8  1  0  0  0  0
 16  9  1  0  0  0  0
 17 14  1  0  0  0  0
 18 15  1  0  0  0  0
 19 11  1  0  0  0  0
 20 11  2  0  0  0  0
 21 20  1  0  0  0  0
 22 19  2  0  0  0  0
 23 21  2  0  0  0  0
  7  9  1  0  0  0  0
 16 18  1  0  0  0  0
  5  4  2  0  0  0  0
 23 22  1  0  0  0  0
M  END
>  <IDNUMBER>
F1086-0008

>  <Chemical_Name>
11-phenyl-10-(prop-2-yn-1-ylsulfanyl)-7-thia-9,11-diazatricyclo[6.4.0.0?,?]dodeca-1(8),2(6),9-trien-12-one

>  <PriceCoeff>
1.00

>  <CAS>
314042-08-5

>  <MW>
338.45

>  <Description>
solid

>  <FSP3>
0.22

>  <clogP>
5.18

>  <TPSA>
86.21

>  <Acceptor>
2

>  <Donor>
0

>  <RotBonds>
4

>  <HAC>
23

>  <Collection>
General

>  <PPDS>
+

$$$$
F1099-0052
  Mrv2219 10102508112D          

 10 10  0  0  0  0            999 V2000
    0.6639   -0.2046    0.0000 C   0  0  0  0  0  0  0  0  0  0  0  0
    0.6681    0.6221    0.0000 O   0  0  0  0  0  0  0  0  0  0  0  0
   -0.0584   -0.6180    0.0000 C   0  0  0  0  0  0  0  0  0  0  0  0
    1.3778   -0.6263    0.0000 N   0  0  0  0  0  0  0  0  0  0  0  0
    2.0918   -0.2046    0.0000 N   0  0  0  0  0  0  0  0  0  0  0  0
   -0.0584   -1.4447    0.0000 C   0  0  0  0  0  0  0  0  0  0  0  0
   -0.7724   -0.2046    0.0000 C   0  0  0  0  0  0  0  0  0  0  0  0
   -0.7724   -1.8580    0.0000 C   0  0  0  0  0  0  0  0  0  0  0  0
   -1.4781   -0.6180    0.0000 C   0  0  0  0  0  0  0  0  0  0  0  0
   -1.4781   -1.4447    0.0000 C   0  0  0  0  0  0  0  0  0  0  0  0
  2  1  2  0  0  0  0
  3  1  1  0  0  0  0
  4  1  1  0  0  0  0
  5  4  1  0  0  0  0
  6  3  1  0  0  0  0
  7  3  2  0  0  0  0
  8  6  2  0  0  0  0
  9  7  1  0  0  0  0
 10  9  2  0  0  0  0
 10  8  1  0  0  0  0
M  END
>  <IDNUMBER>
F1099-0052

>  <Chemical_Name>
benzohydrazide

>  <PriceCoeff>
1.00

>  <CAS>
613-94-5

>  <MW>
136.15

>  <Description>
solid

>  <FSP3>
0.00

>  <clogP>
0.29

>  <TPSA>
55.12

>  <Acceptor>
1

>  <Donor>
2

>  <RotBonds>
1

>  <HAC>
10

>  <Collection>
General

>  <PPDS>
+

$$$$
F1105-0061
  Mrv2219 10102508112D          

 25 27  0  0  0  0            999 V2000
   -1.9112    5.7383    0.0000 C   0  0  0  0  0  0  0  0  0  0  0  0
   -1.4300    6.4211    0.0000 N   0  0  0  0  0  0  0  0  0  0  0  0
   -2.6950    5.9995    0.0000 C   0  0  0  0  0  0  0  0  0  0  0  0
   -1.9112    7.0720    0.0000 C   0  0  0  0  0  0  0  0  0  0  0  0
   -2.6950    6.8245    0.0000 C   0  0  0  0  0  0  0  0  0  0  0  0
   -3.4053    5.5870    0.0000 C   0  0  0  0  0  0  0  0  0  0  0  0
   -5.5503    1.8700    0.0000 C   0  0  0  0  0  0  0  0  0  0  0  0
   -4.1203    4.3541    0.0000 C   0  0  0  0  0  0  0  0  0  0  0  0
   -3.4053    4.7620    0.0000 N   0  0  0  0  0  0  0  0  0  0  0  0
   -4.8353    2.2916    0.0000 C   0  0  0  0  0  0  0  0  0  0  0  0
   -4.1203    3.5291    0.0000 C   0  0  0  0  0  0  0  0  0  0  0  0
   -4.8353    3.1166    0.0000 C   0  0  0  0  0  0  0  0  0  0  0  0
   -1.6591    4.9545    0.0000 O   0  0  0  0  0  0  0  0  0  0  0  0
   -1.6500    7.8695    0.0000 O   0  0  0  0  0  0  0  0  0  0  0  0
   -4.8353    4.7620    0.0000 O   0  0  0  0  0  0  0  0  0  0  0  0
   -6.2790    1.4529    0.0000 F   0  0  0  0  0  0  0  0  0  0  0  0
   -5.9674    2.5941    0.0000 F   0  0  0  0  0  0  0  0  0  0  0  0
   -5.1378    1.1504    0.0000 F   0  0  0  0  0  0  0  0  0  0  0  0
   -0.6050    6.4258    0.0000 C   0  0  0  0  0  0  0  0  0  0  0  0
   -3.4053    7.2370    0.0000 C   0  0  0  0  0  0  0  0  0  0  0  0
   -4.1203    5.9995    0.0000 C   0  0  0  0  0  0  0  0  0  0  0  0
   -4.1203    1.8791    0.0000 C   0  0  0  0  0  0  0  0  0  0  0  0
   -3.4053    3.1166    0.0000 C   0  0  0  0  0  0  0  0  0  0  0  0
   -4.1203    6.8245    0.0000 C   0  0  0  0  0  0  0  0  0  0  0  0
   -3.4053    2.2916    0.0000 C   0  0  0  0  0  0  0  0  0  0  0  0
  2  1  1  0  0  0  0
  3  1  1  0  0  0  0
  4  2  1  0  0  0  0
  5  3  2  0  0  0  0
  6  3  1  0  0  0  0
  7 10  1  0  0  0  0
  8  9  1  0  0  0  0
  9  6  1  0  0  0  0
 10 12  1  0  0  0  0
 11  8  1  0  0  0  0
 12 11  2  0  0  0  0
 13  1  2  0  0  0  0
 14  4  2  0  0  0  0
 15  8  2  0  0  0  0
 16  7  1  0  0  0  0
 17  7  1  0  0  0  0
 18  7  1  0  0  0  0
 19  2  1  0  0  0  0
 20  5  1  0  0  0  0
 21  6  2  0  0  0  0
 22 25  1  0  0  0  0
 23 11  1  0  0  0  0
 24 21  1  0  0  0  0
 25 23  2  0  0  0  0
  5  4  1  0  0  0  0
 20 24  2  0  0  0  0
 10 22  2  0  0  0  0
M  END
>  <IDNUMBER>
F1105-0061

>  <Chemical_Name>
N-(2-methyl-1,3-dioxo-2,3-dihydro-1H-isoindol-4-yl)-3-(trifluoromethyl)benzamide

>  <PriceCoeff>
1.00

>  <CAS>
683232-17-9

>  <MW>
348.28

>  <Description>
solid

>  <FSP3>
0.12

>  <clogP>
3.50

>  <TPSA>
66.48

>  <Acceptor>
3

>  <Donor>
1

>  <RotBonds>
2

>  <HAC>
25

>  <Collection>
General

>  <PPDS>
+

$$$$
F1105-0086
  Mrv2219 10102508112D          

 28 31  0  0  0  0            999 V2000
   -1.9112    5.7384    0.0000 C   0  0  0  0  0  0  0  0  0  0  0  0
   -1.4300    6.4212    0.0000 N   0  0  0  0  0  0  0  0  0  0  0  0
   -2.6950    5.9996    0.0000 C   0  0  0  0  0  0  0  0  0  0  0  0
   -1.9112    7.0721    0.0000 C   0  0  0  0  0  0  0  0  0  0  0  0
   -5.5504    1.8791    0.0000 N   0  0  0  0  0  0  0  0  0  0  0  0
   -2.6950    6.8246    0.0000 C   0  0  0  0  0  0  0  0  0  0  0  0
   -3.4054    5.5871    0.0000 C   0  0  0  0  0  0  0  0  0  0  0  0
   -4.8354    2.2916    0.0000 C   0  0  0  0  0  0  0  0  0  0  0  0
   -5.6741    1.0587    0.0000 C   0  0  0  0  0  0  0  0  0  0  0  0
   -6.2929    2.2366    0.0000 C   0  0  0  0  0  0  0  0  0  0  0  0
   -4.1204    4.3541    0.0000 C   0  0  0  0  0  0  0  0  0  0  0  0
   -3.4054    4.7621    0.0000 N   0  0  0  0  0  0  0  0  0  0  0  0
   -4.8354    3.1166    0.0000 C   0  0  0  0  0  0  0  0  0  0  0  0
   -4.1204    3.5291    0.0000 C   0  0  0  0  0  0  0  0  0  0  0  0
   -1.6591    4.9546    0.0000 O   0  0  0  0  0  0  0  0  0  0  0  0
   -1.6500    7.8696    0.0000 O   0  0  0  0  0  0  0  0  0  0  0  0
   -4.8354    4.7621    0.0000 O   0  0  0  0  0  0  0  0  0  0  0  0
   -6.8521    1.6362    0.0000 C   0  0  0  0  0  0  0  0  0  0  0  0
   -6.4716    0.9166    0.0000 C   0  0  0  0  0  0  0  0  0  0  0  0
   -6.4304    3.0525    0.0000 O   0  0  0  0  0  0  0  0  0  0  0  0
   -5.0829    0.4904    0.0000 O   0  0  0  0  0  0  0  0  0  0  0  0
   -0.6050    6.4259    0.0000 C   0  0  0  0  0  0  0  0  0  0  0  0
   -3.4054    7.2371    0.0000 C   0  0  0  0  0  0  0  0  0  0  0  0
   -4.1204    5.9996    0.0000 C   0  0  0  0  0  0  0  0  0  0  0  0
   -4.1204    1.8791    0.0000 C   0  0  0  0  0  0  0  0  0  0  0  0
   -3.4054    3.1166    0.0000 C   0  0  0  0  0  0  0  0  0  0  0  0
   -4.1204    6.8246    0.0000 C   0  0  0  0  0  0  0  0  0  0  0  0
   -3.4054    2.2916    0.0000 C   0  0  0  0  0  0  0  0  0  0  0  0
  2  1  1  0  0  0  0
  3  1  1  0  0  0  0
  4  2  1  0  0  0  0
  5  8  1  0  0  0  0
  6  3  2  0  0  0  0
  7  3  1  0  0  0  0
  8 13  1  0  0  0  0
  9  5  1  0  0  0  0
 10  5  1  0  0  0  0
 11 12  1  0  0  0  0
 12  7  1  0  0  0  0
 13 14  2  0  0  0  0
 14 11  1  0  0  0  0
 15  1  2  0  0  0  0
 16  4  2  0  0  0  0
 17 11  2  0  0  0  0
 18 10  1  0  0  0  0
 19  9  1  0  0  0  0
 20 10  2  0  0  0  0
 21  9  2  0  0  0  0
 22  2  1  0  0  0  0
 23  6  1  0  0  0  0
 24  7  2  0  0  0  0
 25 28  1  0  0  0  0
 26 14  1  0  0  0  0
 27 24  1  0  0  0  0
 28 26  2  0  0  0  0
  6  4  1  0  0  0  0
 23 27  2  0  0  0  0
  8 25  2  0  0  0  0
 19 18  1  0  0  0  0
M  END
>  <IDNUMBER>
F1105-0086

>  <Chemical_Name>
3-(2,5-dioxopyrrolidin-1-yl)-N-(2-methyl-1,3-dioxo-2,3-dihydro-1H-isoindol-4-yl)benzamide

>  <PriceCoeff>
1.00

>  <CAS>
683232-43-1

>  <MW>
377.35

>  <Description>
solid

>  <FSP3>
0.15

>  <clogP>
0.63

>  <TPSA>
103.86

>  <Acceptor>
5

>  <Donor>
1

>  <RotBonds>
3

>  <HAC>
28

>  <Collection>
General

>  <PPDS>
+

$$$$
F1105-0218
  Mrv2219 10102508112D          

 23 25  0  0  0  0            999 V2000
   -2.7268    8.2124    0.0000 N   0  0  0  0  0  0  0  0  0  0  0  0
   -2.3157    7.4999    0.0000 C   0  0  0  0  0  0  0  0  0  0  0  0
   -3.5306    8.0434    0.0000 C   0  0  0  0  0  0  0  0  0  0  0  0
   -1.0825    3.7682    0.0000 N   0  3  0  0  0  0  0  0  0  0  0  0
   -1.9412    4.9101    0.0000 C   0  0  0  0  0  0  0  0  0  0  0  0
   -2.6035    4.4305    0.0000 C   0  0  0  0  0  0  0  0  0  0  0  0
   -2.8729    6.8833    0.0000 C   0  0  0  0  0  0  0  0  0  0  0  0
   -3.6175    7.2258    0.0000 C   0  0  0  0  0  0  0  0  0  0  0  0
   -1.1875    4.5903    0.0000 C   0  0  0  0  0  0  0  0  0  0  0  0
   -3.3571    4.7594    0.0000 N   0  0  0  0  0  0  0  0  0  0  0  0
   -4.2889    6.7416    0.0000 C   0  0  0  0  0  0  0  0  0  0  0  0
   -1.7493    3.2840    0.0000 O   0  5  0  0  0  0  0  0  0  0  0  0
   -2.7816    6.0611    0.0000 C   0  0  0  0  0  0  0  0  0  0  0  0
   -0.3243    3.4484    0.0000 O   0  0  0  0  0  0  0  0  0  0  0  0
   -1.4936    7.4314    0.0000 O   0  0  0  0  0  0  0  0  0  0  0  0
   -4.1473    8.5915    0.0000 O   0  0  0  0  0  0  0  0  0  0  0  0
   -3.4484    5.5815    0.0000 C   0  0  0  0  0  0  0  0  0  0  0  0
   -2.5167    3.6129    0.0000 O   0  0  0  0  0  0  0  0  0  0  0  0
   -4.2067    5.9195    0.0000 C   0  0  0  0  0  0  0  0  0  0  0  0
   -2.0371    5.7323    0.0000 C   0  0  0  0  0  0  0  0  0  0  0  0
   -0.5207    5.0745    0.0000 C   0  0  0  0  0  0  0  0  0  0  0  0
   -1.3793    6.2255    0.0000 C   0  0  0  0  0  0  0  0  0  0  0  0
   -0.6120    5.8967    0.0000 C   0  0  0  0  0  0  0  0  0  0  0  0
  2  1  1  0  0  0  0
  3  1  1  0  0  0  0
  4  9  1  0  0  0  0
  5  6  1  0  0  0  0
  6 10  1  0  0  0  0
  7  2  1  0  0  0  0
  8  3  1  0  0  0  0
  9  5  2  0  0  0  0
 10 17  1  0  0  0  0
 11  8  1  0  0  0  0
 12  4  1  0  0  0  0
 13  7  1  0  0  0  0
 14  4  2  0  0  0  0
 15  2  2  0  0  0  0
 16  3  2  0  0  0  0
 17 13  2  0  0  0  0
 18  6  2  0  0  0  0
 19 11  2  0  0  0  0
 20  5  1  0  0  0  0
 21  9  1  0  0  0  0
 22 20  2  0  0  0  0
 23 22  1  0  0  0  0
  8  7  2  0  0  0  0
 19 17  1  0  0  0  0
 21 23  2  0  0  0  0
M  CHG  2   4   1  12  -1
M  END
>  <IDNUMBER>
F1105-0218

>  <Chemical_Name>
N-(1,3-dioxo-2,3-dihydro-1H-isoindol-5-yl)-2-nitrobenzamide

>  <PriceCoeff>
1.00

>  <CAS>
683235-81-6

>  <MW>
311.25

>  <Description>
solid

>  <FSP3>
0.00

>  <clogP>
1.04

>  <TPSA>
118.41

>  <Acceptor>
5

>  <Donor>
2

>  <RotBonds>
3

>  <HAC>
23

>  <Collection>
General

>  <PPDS>
+

$$$$
F1108-0022
  Mrv2219 10102508112D          

 20 22  0  0  0  0            999 V2000
   -2.7603   -1.0925    0.0000 C   0  0  0  0  0  0  0  0  0  0  0  0
   -2.8645   -2.4309    0.0000 N   0  0  0  0  0  0  0  0  0  0  0  0
   -2.3267   -1.7930    0.0000 C   0  0  0  0  0  0  0  0  0  0  0  0
   -3.5733   -1.2884    0.0000 C   0  0  0  0  0  0  0  0  0  0  0  0
   -1.6345   -0.2169    0.0000 C   0  0  0  0  0  0  0  0  0  0  0  0
   -2.4475   -0.3252    0.0000 C   0  0  0  0  0  0  0  0  0  0  0  0
   -3.6359   -2.1140    0.0000 C   0  0  0  0  0  0  0  0  0  0  0  0
   -1.1216   -0.8673    0.0000 N   0  0  0  0  0  0  0  0  0  0  0  0
   -1.3134    0.5462    0.0000 O   0  0  0  0  0  0  0  0  0  0  0  0
   -0.3085   -0.7547    0.0000 C   0  0  0  0  0  0  0  0  0  0  0  0
    0.2043   -1.4052    0.0000 C   0  0  0  0  0  0  0  0  0  0  0  0
   -4.2488   -0.8173    0.0000 C   0  0  0  0  0  0  0  0  0  0  0  0
   -4.3739   -2.4685    0.0000 C   0  0  0  0  0  0  0  0  0  0  0  0
    1.0174   -1.2926    0.0000 C   0  0  0  0  0  0  0  0  0  0  0  0
   -0.1084   -2.1682    0.0000 C   0  0  0  0  0  0  0  0  0  0  0  0
   -4.9911   -1.1800    0.0000 C   0  0  0  0  0  0  0  0  0  0  0  0
   -5.0536   -2.0056    0.0000 C   0  0  0  0  0  0  0  0  0  0  0  0
    1.5303   -1.9431    0.0000 C   0  0  0  0  0  0  0  0  0  0  0  0
    0.4003   -2.8187    0.0000 C   0  0  0  0  0  0  0  0  0  0  0  0
    1.2176   -2.7061    0.0000 C   0  0  0  0  0  0  0  0  0  0  0  0
  2  3  1  0  0  0  0
  3  1  2  0  0  0  0
  4  1  1  0  0  0  0
  5  6  1  0  0  0  0
  6  1  1  0  0  0  0
  7  4  2  0  0  0  0
  8  5  1  0  0  0  0
  9  5  2  0  0  0  0
 10  8  1  0  0  0  0
 11 10  1  0  0  0  0
 12  4  1  0  0  0  0
 13  7  1  0  0  0  0
 14 11  2  0  0  0  0
 15 11  1  0  0  0  0
 16 12  2  0  0  0  0
 17 16  1  0  0  0  0
 18 14  1  0  0  0  0
 19 15  2  0  0  0  0
 20 19  1  0  0  0  0
  7  2  1  0  0  0  0
 17 13  2  0  0  0  0
 20 18  2  0  0  0  0
M  END
>  <IDNUMBER>
F1108-0022

>  <Chemical_Name>
N-benzyl-2-(1H-indol-3-yl)acetamide

>  <PriceCoeff>
1.00

>  <MW>
264.32

>  <Description>
solid

>  <FSP3>
0.12

>  <clogP>
2.71

>  <TPSA>
44.89

>  <Acceptor>
1

>  <Donor>
2

>  <RotBonds>
4

>  <HAC>
20

>  <Collection>
General

$$$$
F1118-0368
  Mrv2219 10102508112D          

 21 22  0  0  0  0            999 V2000
    6.9535   -0.9916    0.0000 N   0  3  0  0  0  0  0  0  0  0  0  0
    6.3243   -1.5290    0.0000 C   0  0  0  0  0  0  0  0  0  0  0  0
    5.5493   -1.2499    0.0000 C   0  0  0  0  0  0  0  0  0  0  0  0
    0.6500   -2.4414    0.0000 O   0  0  0  0  0  0  0  0  0  0  0  0
    1.3290   -1.9873    0.0000 C   0  0  0  0  0  0  0  0  0  0  0  0
    6.4660   -2.3415    0.0000 C   0  0  0  0  0  0  0  0  0  0  0  0
    0.0042   -1.9290    0.0000 C   0  0  0  0  0  0  0  0  0  0  0  0
    7.7283   -1.2666    0.0000 O   0  5  0  0  0  0  0  0  0  0  0  0
    3.5163   -2.0248    0.0000 C   0  0  0  0  0  0  0  0  0  0  0  0
    1.0999   -1.1874    0.0000 C   0  0  0  0  0  0  0  0  0  0  0  0
    0.2874   -1.1624    0.0000 C   0  0  0  0  0  0  0  0  0  0  0  0
    6.8117   -0.1792    0.0000 O   0  0  0  0  0  0  0  0  0  0  0  0
    4.1412   -1.4915    0.0000 N   0  0  0  0  0  0  0  0  0  0  0  0
    4.9162   -1.7790    0.0000 C   0  0  0  0  0  0  0  0  0  0  0  0
    3.6538   -2.8372    0.0000 O   0  0  0  0  0  0  0  0  0  0  0  0
    5.8369   -2.8747    0.0000 C   0  0  0  0  0  0  0  0  0  0  0  0
    2.1040   -2.2665    0.0000 C   0  0  0  0  0  0  0  0  0  0  0  0
    2.7414   -1.7415    0.0000 C   0  0  0  0  0  0  0  0  0  0  0  0
    5.0619   -2.5914    0.0000 C   0  0  0  0  0  0  0  0  0  0  0  0
    7.2659   -2.5539    0.0000 Cl  0  0  0  0  0  0  0  0  0  0  0  0
   -0.7957   -2.1540    0.0000 C   0  0  0  0  0  0  0  0  0  0  0  0
  2  1  1  0  0  0  0
  3  2  2  0  0  0  0
  4  5  1  0  0  0  0
  5 17  1  0  0  0  0
  6  2  1  0  0  0  0
  7  4  1  0  0  0  0
  8  1  1  0  0  0  0
  9 13  1  0  0  0  0
 10  5  2  0  0  0  0
 11 10  1  0  0  0  0
 12  1  2  0  0  0  0
 13 14  1  0  0  0  0
 14  3  1  0  0  0  0
 15  9  2  0  0  0  0
 16  6  2  0  0  0  0
 17 18  1  0  0  0  0
 18  9  1  0  0  0  0
 19 16  1  0  0  0  0
 20  6  1  0  0  0  0
 21  7  1  0  0  0  0
 19 14  2  0  0  0  0
  7 11  2  0  0  0  0
M  CHG  2   1   1   8  -1
M  END
>  <IDNUMBER>
F1118-0368

>  <Chemical_Name>
N-(4-chloro-3-nitrophenyl)-3-(5-methylfuran-2-yl)propanamide

>  <PriceCoeff>
1.00

>  <CAS>
327075-11-6

>  <MW>
308.72

>  <Description>
solid

>  <FSP3>
0.21

>  <clogP>
3.88

>  <TPSA>
85.38

>  <Acceptor>
4

>  <Donor>
1

>  <RotBonds>
5

>  <HAC>
21

>  <Collection>
General

>  <PPDS>
+

$$$$
F1130-0015
  Mrv2219 10102508112D          

 24 27  0  0  0  0            999 V2000
    0.7792   -2.0375    0.0000 C   0  0  0  0  0  0  0  0  0  0  0  0
   -0.5458   -2.3542    0.0000 C   0  0  0  0  0  0  0  0  0  0  0  0
    1.4917   -1.6167    0.0000 C   0  0  0  0  0  0  0  0  0  0  0  0
    0.1917   -2.6917    0.0000 C   0  0  0  0  0  0  0  0  0  0  0  0
    0.0167   -2.1875    0.0000 C   0  0  0  0  0  0  0  0  0  0  0  0
    0.8167   -1.2167    0.0000 C   0  0  0  0  0  0  0  0  0  0  0  0
   -0.4583   -3.1750    0.0000 C   0  0  0  0  0  0  0  0  0  0  0  0
   -1.3583   -2.5417    0.0000 C   0  0  0  0  0  0  0  0  0  0  0  0
   -0.5083   -1.5042    0.0000 C   0  0  0  0  0  0  0  0  0  0  0  0
    1.4875   -0.7917    0.0000 N   0  0  0  0  0  0  0  0  0  0  0  0
   -0.6833   -1.8917    0.0000 C   0  0  0  0  0  0  0  0  0  0  0  0
    0.0792   -0.8750    0.0000 C   0  0  0  0  0  0  0  0  0  0  0  0
    2.9167   -0.7917    0.0000 C   0  0  0  0  0  0  0  0  0  0  0  0
    2.2042   -2.0292    0.0000 O   0  0  0  0  0  0  0  0  0  0  0  0
    2.9167   -1.6167    0.0000 O   0  0  0  0  0  0  0  0  0  0  0  0
   -0.6583   -1.0917    0.0000 C   0  0  0  0  0  0  0  0  0  0  0  0
   -1.1208   -3.6625    0.0000 C   0  0  0  0  0  0  0  0  0  0  0  0
    0.3000   -3.5042    0.0000 C   0  0  0  0  0  0  0  0  0  0  0  0
    2.1917   -0.3792    0.0000 C   0  0  0  0  0  0  0  0  0  0  0  0
    3.6292   -0.3750    0.0000 O   0  0  0  0  0  0  0  0  0  0  0  0
    0.3917   -4.3167    0.0000 C   0  0  0  0  0  0  0  0  0  0  0  0
   -1.0333   -4.4792    0.0000 C   0  0  0  0  0  0  0  0  0  0  0  0
   -0.2750   -4.8125    0.0000 C   0  0  0  0  0  0  0  0  0  0  0  0
   -0.1833   -5.6292    0.0000 C   0  0  0  0  0  0  0  0  0  0  0  0
  2  4  1  0  0  0  0
  3  1  1  0  0  0  0
  4  1  1  0  0  0  0
  5  1  1  0  0  0  0
  6  1  1  0  0  0  0
  7  2  1  0  0  0  0
  8 11  1  0  0  0  0
  9 12  1  0  0  0  0
 10  3  1  0  0  0  0
 11  5  1  0  0  0  0
 12  6  1  0  0  0  0
 13 19  1  0  0  0  0
 14  3  2  0  0  0  0
 15 13  2  0  0  0  0
 16 12  1  0  0  0  0
 17  7  2  0  0  0  0
 18  7  1  0  0  0  0
 19 10  1  0  0  0  0
 20 13  1  0  0  0  0
 21 18  2  0  0  0  0
 22 17  1  0  0  0  0
 23 21  1  0  0  0  0
 24 23  1  0  0  0  0
 16 11  1  0  0  0  0
  9  2  1  0  0  0  0
  8  2  1  0  0  0  0
 23 22  2  0  0  0  0
M  END
>  <IDNUMBER>
F1130-0015

>  <Chemical_Name>
2-{[3-(4-methylphenyl)adamantan-1-yl]formamido}acetic acid

>  <PriceCoeff>
1.50

>  <CAS>
500198-50-5

>  <MW>
327.42

>  <Description>
solid

>  <FSP3>
0.60

>  <clogP>
3.66

>  <TPSA>
66.40

>  <Acceptor>
3

>  <Donor>
1

>  <RotBonds>
4

>  <HAC>
24

>  <Collection>
Advanced

>  <PPDS>
+

$$$$
F1130-0019
  Mrv2219 10102508112D          

 15 15  0  0  0  0            999 V2000
    2.1755   -1.3103    0.0000 C   0  0  0  0  0  0  0  0  0  0  0  0
    2.8619   -0.8486    0.0000 N   0  0  0  0  0  0  0  0  0  0  0  0
    4.2845   -0.7612    0.0000 C   0  0  0  0  0  0  0  0  0  0  0  0
    3.5981   -1.2147    0.0000 C   0  0  0  0  0  0  0  0  0  0  0  0
    1.4268   -0.9359    0.0000 C   0  0  0  0  0  0  0  0  0  0  0  0
    2.2254   -2.1381    0.0000 O   0  0  0  0  0  0  0  0  0  0  0  0
    5.0207   -1.1356    0.0000 O   0  0  0  0  0  0  0  0  0  0  0  0
    1.3852   -0.1165    0.0000 C   0  0  0  0  0  0  0  0  0  0  0  0
    0.7280   -1.3852    0.0000 C   0  0  0  0  0  0  0  0  0  0  0  0
    4.2346    0.0624    0.0000 O   0  0  0  0  0  0  0  0  0  0  0  0
   -0.0457   -0.1914    0.0000 C   0  0  0  0  0  0  0  0  0  0  0  0
    0.0000   -1.0150    0.0000 C   0  0  0  0  0  0  0  0  0  0  0  0
    0.6489    0.2579    0.0000 C   0  0  0  0  0  0  0  0  0  0  0  0
   -0.7820    0.1830    0.0000 F   0  0  0  0  0  0  0  0  0  0  0  0
    3.6439   -2.0383    0.0000 C   0  0  0  0  0  0  0  0  0  0  0  0
  2  1  1  0  0  0  0
  3  4  1  0  0  0  0
  4  2  1  0  0  0  0
  5  1  1  0  0  0  0
  6  1  2  0  0  0  0
  7  3  2  0  0  0  0
  8  5  2  0  0  0  0
  9  5  1  0  0  0  0
 10  3  1  0  0  0  0
 11 12  1  0  0  0  0
 12  9  2  0  0  0  0
 13  8  1  0  0  0  0
 14 11  1  0  0  0  0
 15  4  1  0  0  0  0
 11 13  2  0  0  0  0
M  END
>  <IDNUMBER>
F1130-0019

>  <Chemical_Name>
2-[(4-fluorophenyl)formamido]propanoic acid

>  <PriceCoeff>
1.00

>  <CAS>
451-28-5

>  <MW>
211.19

>  <Description>
solid

>  <FSP3>
0.20

>  <clogP>
1.24

>  <TPSA>
66.40

>  <Acceptor>
3

>  <Donor>
1

>  <RotBonds>
3

>  <HAC>
15

>  <Collection>
General

>  <PPDS>
+

$$$$
F1130-0072
  Mrv2219 10102508112D          

 15 15  0  0  0  0            999 V2000
    2.8959   -1.6328    0.0000 C   0  0  0  0  0  0  0  0  0  0  0  0
    3.5814   -1.1716    0.0000 N   0  0  0  0  0  0  0  0  0  0  0  0
    2.1480   -1.2589    0.0000 C   0  0  0  0  0  0  0  0  0  0  0  0
    5.0024   -1.0844    0.0000 C   0  0  0  0  0  0  0  0  0  0  0  0
    2.9458   -2.4597    0.0000 O   0  0  0  0  0  0  0  0  0  0  0  0
    5.7378   -1.4583    0.0000 O   0  0  0  0  0  0  0  0  0  0  0  0
    4.3168   -1.5373    0.0000 C   0  0  0  0  0  0  0  0  0  0  0  0
    2.1065   -0.4404    0.0000 C   0  0  0  0  0  0  0  0  0  0  0  0
    1.4500   -1.7076    0.0000 C   0  0  0  0  0  0  0  0  0  0  0  0
    0.6773   -0.5152    0.0000 C   0  0  0  0  0  0  0  0  0  0  0  0
    4.9525   -0.2617    0.0000 O   0  0  0  0  0  0  0  0  0  0  0  0
    0.7229   -1.3379    0.0000 C   0  0  0  0  0  0  0  0  0  0  0  0
    1.3711   -0.0665    0.0000 C   0  0  0  0  0  0  0  0  0  0  0  0
   -0.0581   -0.1413    0.0000 O   0  0  0  0  0  0  0  0  0  0  0  0
   -0.7437   -0.5900    0.0000 C   0  0  0  0  0  0  0  0  0  0  0  0
  2  1  1  0  0  0  0
  3  1  1  0  0  0  0
  4  7  1  0  0  0  0
  5  1  2  0  0  0  0
  6  4  2  0  0  0  0
  7  2  1  0  0  0  0
  8  3  2  0  0  0  0
  9  3  1  0  0  0  0
 10 12  1  0  0  0  0
 11  4  1  0  0  0  0
 12  9  2  0  0  0  0
 13  8  1  0  0  0  0
 14 10  1  0  0  0  0
 15 14  1  0  0  0  0
 10 13  2  0  0  0  0
M  END
>  <IDNUMBER>
F1130-0072

>  <Chemical_Name>
2-[(4-methoxyphenyl)formamido]acetic acid

>  <PriceCoeff>
1.00

>  <CAS>
13214-64-7

>  <MW>
209.20

>  <Description>
solid

>  <FSP3>
0.20

>  <clogP>
0.37

>  <TPSA>
75.63

>  <Acceptor>
4

>  <Donor>
1

>  <RotBonds>
4

>  <HAC>
15

>  <Collection>
General

>  <PPDS>
+

$$$$
F1130-0080
  Mrv2219 10102508112D          

 18 20  0  0  0  0            999 V2000
    1.1792   -1.1792    0.0000 C   0  0  0  0  0  0  0  0  0  0  0  0
    2.8875   -1.2250    0.0000 C   0  0  0  0  0  0  0  0  0  0  0  0
    0.4375   -0.0542    0.0000 C   0  0  0  0  0  0  0  0  0  0  0  0
   -0.2833   -1.1042    0.0000 C   0  0  0  0  0  0  0  0  0  0  0  0
   -0.1208   -1.5625    0.0000 C   0  0  0  0  0  0  0  0  0  0  0  0
    5.0000   -0.6750    0.0000 C   0  0  0  0  0  0  0  0  0  0  0  0
    3.5750   -0.7625    0.0000 N   0  0  0  0  0  0  0  0  0  0  0  0
    2.1292   -0.8500    0.0000 C   0  0  0  0  0  0  0  0  0  0  0  0
    1.1792   -0.3542    0.0000 C   0  0  0  0  0  0  0  0  0  0  0  0
    0.6292   -1.8667    0.0000 C   0  0  0  0  0  0  0  0  0  0  0  0
    0.4292   -1.3667    0.0000 C   0  0  0  0  0  0  0  0  0  0  0  0
    2.9375   -2.0542    0.0000 O   0  0  0  0  0  0  0  0  0  0  0  0
    5.7375   -1.0500    0.0000 O   0  0  0  0  0  0  0  0  0  0  0  0
   -0.2833   -0.3125    0.0000 C   0  0  0  0  0  0  0  0  0  0  0  0
   -0.1208   -0.7167    0.0000 C   0  0  0  0  0  0  0  0  0  0  0  0
   -0.9208   -1.7875    0.0000 C   0  0  0  0  0  0  0  0  0  0  0  0
    4.3125   -1.1292    0.0000 C   0  0  0  0  0  0  0  0  0  0  0  0
    4.9542    0.1500    0.0000 O   0  0  0  0  0  0  0  0  0  0  0  0
  2  8  1  0  0  0  0
  3  9  1  0  0  0  0
  4 11  1  0  0  0  0
  5 10  1  0  0  0  0
  6 17  1  0  0  0  0
  7  2  1  0  0  0  0
  8  1  1  0  0  0  0
  9  1  1  0  0  0  0
 10  1  1  0  0  0  0
 11  1  1  0  0  0  0
 12  2  2  0  0  0  0
 13  6  2  0  0  0  0
 14  4  1  0  0  0  0
 15  5  1  0  0  0  0
 16  4  1  0  0  0  0
 17  7  1  0  0  0  0
 18  6  1  0  0  0  0
 16  5  1  0  0  0  0
 14  3  1  0  0  0  0
  3 15  1  0  0  0  0
M  END
>  <IDNUMBER>
F1130-0080

>  <Chemical_Name>
2-[2-(adamantan-1-yl)acetamido]acetic acid

>  <PriceCoeff>
1.50

>  <CAS>
237400-99-6

>  <MW>
251.32

>  <Description>
solid

>  <FSP3>
0.86

>  <clogP>
3.41

>  <TPSA>
66.40

>  <Acceptor>
3

>  <Donor>
1

>  <RotBonds>
4

>  <HAC>
18

>  <Collection>
Advanced

>  <PPDS>
+

$$$$
F1142-4026
  Mrv2219 10102508112D          

 31 35  0  0  0  0            999 V2000
   -2.0208    1.6000    0.0000 C   0  0  0  0  0  0  0  0  0  0  0  0
   -1.7833    0.8208    0.0000 C   0  0  0  0  0  0  0  0  0  0  0  0
   -0.6833    2.0208    0.0000 N   0  0  0  0  0  0  0  0  0  0  0  0
   -0.4208    1.2458    0.0000 C   0  0  0  0  0  0  0  0  0  0  0  0
   -0.9833    0.6458    0.0000 N   0  0  0  0  0  0  0  0  0  0  0  0
   -1.4625    2.2083    0.0000 C   0  0  0  0  0  0  0  0  0  0  0  0
   -2.4625    0.3458    0.0000 S   0  0  0  0  0  0  0  0  0  0  0  0
   -2.8458    1.6000    0.0000 C   0  0  0  0  0  0  0  0  0  0  0  0
   -3.1000    0.8208    0.0000 C   0  0  0  0  0  0  0  0  0  0  0  0
    0.4167    1.0833    0.0000 S   0  0  0  0  0  0  0  0  0  0  0  0
    2.0542    0.8208    0.0000 C   0  0  0  0  0  0  0  0  0  0  0  0
   -0.1500    2.6458    0.0000 C   0  0  0  0  0  0  0  0  0  0  0  0
   -1.6833    3.0000    0.0000 O   0  0  0  0  0  0  0  0  0  0  0  0
    1.5375    0.1833    0.0000 C   0  0  0  0  0  0  0  0  0  0  0  0
    1.7542    1.6000    0.0000 C   0  0  0  0  0  0  0  0  0  0  0  0
    1.8375   -0.6000    0.0000 C   0  0  0  0  0  0  0  0  0  0  0  0
    0.9375    1.7208    0.0000 C   0  0  0  0  0  0  0  0  0  0  0  0
    2.6542   -0.7167    0.0000 C   0  0  0  0  0  0  0  0  0  0  0  0
    2.8542    0.7000    0.0000 C   0  0  0  0  0  0  0  0  0  0  0  0
    2.2792    2.2458    0.0000 O   0  0  0  0  0  0  0  0  0  0  0  0
    3.1542   -0.0792    0.0000 C   0  0  0  0  0  0  0  0  0  0  0  0
   -3.5208    2.0833    0.0000 C   0  0  0  0  0  0  0  0  0  0  0  0
   -3.9208    0.8208    0.0000 C   0  0  0  0  0  0  0  0  0  0  0  0
   -4.1833    1.5625    0.0000 C   0  0  0  0  0  0  0  0  0  0  0  0
    1.3167   -1.2542    0.0000 C   0  0  0  0  0  0  0  0  0  0  0  0
   -0.4208    3.4208    0.0000 C   0  0  0  0  0  0  0  0  0  0  0  0
    0.6667    2.5000    0.0000 C   0  0  0  0  0  0  0  0  0  0  0  0
    3.0000   -1.5000    0.0000 C   0  0  0  0  0  0  0  0  0  0  0  0
    1.2000    3.1208    0.0000 C   0  0  0  0  0  0  0  0  0  0  0  0
    0.1042    4.0417    0.0000 C   0  0  0  0  0  0  0  0  0  0  0  0
    0.9167    3.9208    0.0000 C   0  0  0  0  0  0  0  0  0  0  0  0
  2  1  2  0  0  0  0
  3  6  1  0  0  0  0
  4  3  1  0  0  0  0
  5  2  1  0  0  0  0
  6  1  1  0  0  0  0
  7  2  1  0  0  0  0
  8  1  1  0  0  0  0
  9  8  2  0  0  0  0
 10  4  1  0  0  0  0
 11 15  1  0  0  0  0
 12  3  1  0  0  0  0
 13  6  2  0  0  0  0
 14 11  1  0  0  0  0
 15 17  1  0  0  0  0
 16 14  2  0  0  0  0
 17 10  1  0  0  0  0
 18 21  2  0  0  0  0
 19 11  2  0  0  0  0
 20 15  2  0  0  0  0
 21 19  1  0  0  0  0
 22  8  1  0  0  0  0
 23  9  1  0  0  0  0
 24 22  1  0  0  0  0
 25 16  1  0  0  0  0
 26 12  2  0  0  0  0
 27 12  1  0  0  0  0
 28 18  1  0  0  0  0
 29 27  2  0  0  0  0
 30 26  1  0  0  0  0
 31 29  1  0  0  0  0
  7  9  1  0  0  0  0
  4  5  2  0  0  0  0
 24 23  1  0  0  0  0
 30 31  2  0  0  0  0
 16 18  1  0  0  0  0
M  END
>  <IDNUMBER>
F1142-4026

>  <Chemical_Name>
10-{[2-(3,4-dimethylphenyl)-2-oxoethyl]sulfanyl}-11-phenyl-7-thia-9,11-diazatricyclo[6.4.0.0?,?]dodeca-1(8),2(6),9-trien-12-one

>  <PriceCoeff>
1.00

>  <CAS>
709000-78-2

>  <MW>
446.58

>  <Description>
solid

>  <FSP3>
0.24

>  <clogP>
6.49

>  <TPSA>
103.28

>  <Acceptor>
3

>  <Donor>
0

>  <RotBonds>
5

>  <HAC>
31

>  <Collection>
General

>  <PPDS>
+

$$$$
F1142-6543
  Mrv2219 10102508112D          

 22 23  0  0  0  0            999 V2000
    4.0182    1.5554    0.0000 N   0  0  0  0  0  0  0  0  0  0  0  0
    3.9294    0.7368    0.0000 C   0  0  0  0  0  0  0  0  0  0  0  0
    4.6117    0.2182    0.0000 C   0  0  0  0  0  0  0  0  0  0  0  0
    4.7754    1.8828    0.0000 C   0  0  0  0  0  0  0  0  0  0  0  0
    5.8941   -0.7982    0.0000 C   0  0  0  0  0  0  0  0  0  0  0  0
    6.0579   -0.0069    0.0000 C   0  0  0  0  0  0  0  0  0  0  0  0
    5.1369   -1.1256    0.0000 C   0  0  0  0  0  0  0  0  0  0  0  0
    4.4820   -0.6004    0.0000 C   0  0  0  0  0  0  0  0  0  0  0  0
    5.4030    0.5457    0.0000 C   0  0  0  0  0  0  0  0  0  0  0  0
    3.1722    0.3820    0.0000 O   0  0  0  0  0  0  0  0  0  0  0  0
    5.4303    1.3917    0.0000 O   0  0  0  0  0  0  0  0  0  0  0  0
    3.3019    1.9169    0.0000 C   0  0  0  0  0  0  0  0  0  0  0  0
    6.5490   -1.3576    0.0000 O   0  0  0  0  0  0  0  0  0  0  0  0
    6.8765    0.2456    0.0000 O   0  0  0  0  0  0  0  0  0  0  0  0
    5.0414   -1.9442    0.0000 O   0  0  0  0  0  0  0  0  0  0  0  0
    4.9732    2.6741    0.0000 C   0  0  0  0  0  0  0  0  0  0  0  0
    7.2927   -1.0642    0.0000 C   0  0  0  0  0  0  0  0  0  0  0  0
    4.2842   -2.2717    0.0000 C   0  0  0  0  0  0  0  0  0  0  0  0
    7.4564   -0.3343    0.0000 C   0  0  0  0  0  0  0  0  0  0  0  0
    3.1108    2.7015    0.0000 C   0  0  0  0  0  0  0  0  0  0  0  0
    4.4479    3.3290    0.0000 C   0  0  0  0  0  0  0  0  0  0  0  0
    3.6293    3.3290    0.0000 C   0  0  0  0  0  0  0  0  0  0  0  0
  2  1  1  0  0  0  0
  3  2  1  0  0  0  0
  4  1  1  0  0  0  0
  5  6  1  0  0  0  0
  6  9  2  0  0  0  0
  7  8  1  0  0  0  0
  8  3  2  0  0  0  0
  9  3  1  0  0  0  0
 10  2  2  0  0  0  0
 11  4  2  0  0  0  0
 12  1  1  0  0  0  0
 13  5  1  0  0  0  0
 14  6  1  0  0  0  0
 15  7  1  0  0  0  0
 16  4  1  0  0  0  0
 17 13  1  0  0  0  0
 18 15  1  0  0  0  0
 19 14  1  0  0  0  0
 20 12  1  0  0  0  0
 21 16  1  0  0  0  0
 22 20  1  0  0  0  0
 22 21  1  0  0  0  0
  7  5  2  0  0  0  0
M  END
>  <IDNUMBER>
F1142-6543

>  <Chemical_Name>
1-(3,4,5-trimethoxybenzoyl)azepan-2-one

>  <PriceCoeff>
1.00

>  <CAS>
35782-95-7

>  <MW>
307.34

>  <Description>
solid

>  <FSP3>
0.50

>  <clogP>
1.12

>  <TPSA>
65.07

>  <Acceptor>
5

>  <Donor>
0

>  <RotBonds>
5

>  <HAC>
22

>  <Collection>
General

>  <PPDS>
+

$$$$
F1143-0416
  Mrv2219 10102508112D          

 32 36  0  0  0  0            999 V2000
   -4.9545    0.2812    0.0000 C   0  0  0  0  0  0  0  0  0  0  0  0
   -4.6971   -0.5266    0.0000 C   0  0  0  0  0  0  0  0  0  0  0  0
   -3.5842    0.6761    0.0000 N   0  0  0  0  0  0  0  0  0  0  0  0
   -3.3508   -0.1257    0.0000 C   0  0  0  0  0  0  0  0  0  0  0  0
   -3.9253   -0.7241    0.0000 N   0  0  0  0  0  0  0  0  0  0  0  0
   -4.3801    0.8556    0.0000 C   0  0  0  0  0  0  0  0  0  0  0  0
   -5.3853   -0.9873    0.0000 S   0  0  0  0  0  0  0  0  0  0  0  0
   -5.7742    0.2812    0.0000 C   0  0  0  0  0  0  0  0  0  0  0  0
   -6.0255   -0.5266    0.0000 C   0  0  0  0  0  0  0  0  0  0  0  0
   -2.5132   -0.2932    0.0000 S   0  0  0  0  0  0  0  0  0  0  0  0
   -3.0337    1.2505    0.0000 C   0  0  0  0  0  0  0  0  0  0  0  0
   -4.6134    1.6515    0.0000 O   0  0  0  0  0  0  0  0  0  0  0  0
   -1.1967    0.1914    0.0000 C   0  0  0  0  0  0  0  0  0  0  0  0
   -0.6462    0.8556    0.0000 N   0  0  0  0  0  0  0  0  0  0  0  0
   -0.8796   -0.5805    0.0000 O   0  0  0  0  0  0  0  0  0  0  0  0
   -2.0045    0.3590    0.0000 C   0  0  0  0  0  0  0  0  0  0  0  0
    0.1496    0.7120    0.0000 C   0  0  0  0  0  0  0  0  0  0  0  0
   -6.2470    0.9335    0.0000 C   0  0  0  0  0  0  0  0  0  0  0  0
   -6.7795   -0.8437    0.0000 C   0  0  0  0  0  0  0  0  0  0  0  0
   -3.2611    2.0285    0.0000 C   0  0  0  0  0  0  0  0  0  0  0  0
   -2.2259    1.0531    0.0000 C   0  0  0  0  0  0  0  0  0  0  0  0
    0.4369   -0.0718    0.0000 C   0  0  0  0  0  0  0  0  0  0  0  0
    0.7001    1.3643    0.0000 C   0  0  0  0  0  0  0  0  0  0  0  0
   -7.0846    0.9992    0.0000 C   0  0  0  0  0  0  0  0  0  0  0  0
   -7.4975   -0.4129    0.0000 C   0  0  0  0  0  0  0  0  0  0  0  0
   -1.6515    1.6275    0.0000 C   0  0  0  0  0  0  0  0  0  0  0  0
   -2.6866    2.6029    0.0000 C   0  0  0  0  0  0  0  0  0  0  0  0
    1.5079    1.2207    0.0000 C   0  0  0  0  0  0  0  0  0  0  0  0
    1.2447   -0.2154    0.0000 C   0  0  0  0  0  0  0  0  0  0  0  0
    1.7951    0.4248    0.0000 C   0  0  0  0  0  0  0  0  0  0  0  0
   -1.8849    2.3994    0.0000 C   0  0  0  0  0  0  0  0  0  0  0  0
   -7.6292    0.3590    0.0000 C   0  0  0  0  0  0  0  0  0  0  0  0
  2  1  2  0  0  0  0
  3  6  1  0  0  0  0
  4  3  1  0  0  0  0
  5  2  1  0  0  0  0
  6  1  1  0  0  0  0
  7  2  1  0  0  0  0
  8  1  1  0  0  0  0
  9  8  2  0  0  0  0
 10  4  1  0  0  0  0
 11  3  1  0  0  0  0
 12  6  2  0  0  0  0
 13 16  1  0  0  0  0
 14 13  1  0  0  0  0
 15 13  2  0  0  0  0
 16 10  1  0  0  0  0
 17 14  1  0  0  0  0
 18  8  1  0  0  0  0
 19  9  1  0  0  0  0
 20 11  2  0  0  0  0
 21 11  1  0  0  0  0
 22 17  2  0  0  0  0
 23 17  1  0  0  0  0
 24 18  1  0  0  0  0
 25 19  1  0  0  0  0
 26 21  2  0  0  0  0
 27 20  1  0  0  0  0
 28 23  2  0  0  0  0
 29 22  1  0  0  0  0
 30 28  1  0  0  0  0
 31 26  1  0  0  0  0
 32 24  1  0  0  0  0
  7  9  1  0  0  0  0
  4  5  2  0  0  0  0
 25 32  1  0  0  0  0
 31 27  2  0  0  0  0
 30 29  2  0  0  0  0
M  END
>  <IDNUMBER>
F1143-0416

>  <Chemical_Name>
2-({3-oxo-4-phenyl-8-thia-4,6-diazatricyclo[7.5.0.0?,?]tetradeca-1(9),2(7),5-trien-5-yl}sulfanyl)-N-phenylacetamide

>  <PriceCoeff>
1.00

>  <CAS>
379236-90-5

>  <MW>
461.60

>  <Description>
solid

>  <FSP3>
0.24

>  <clogP>
6.24

>  <TPSA>
115.31

>  <Acceptor>
3

>  <Donor>
1

>  <RotBonds>
5

>  <HAC>
32

>  <Collection>
General

>  <PPDS>
+

$$$$
F1145-0006
  Mrv2219 10102508112D          

 12 13  0  0  0  0            999 V2000
    2.0280   -0.2421    0.0000 O   0  0  0  0  0  0  0  0  0  0  0  0
    1.7693    0.5466    0.0000 C   0  0  0  0  0  0  0  0  0  0  0  0
    2.4411    1.0265    0.0000 N   0  0  0  0  0  0  0  0  0  0  0  0
    2.8542   -0.2421    0.0000 C   0  0  0  0  0  0  0  0  0  0  0  0
    3.1088    0.5466    0.0000 N   0  0  0  0  0  0  0  0  0  0  0  0
    0.9890    0.7970    0.0000 C   0  0  0  0  0  0  0  0  0  0  0  0
    3.3341   -0.9138    0.0000 S   0  0  0  0  0  0  0  0  0  0  0  0
   -0.4131    0.5090    0.0000 N   0  0  0  0  0  0  0  0  0  0  0  0
    0.3756    0.2462    0.0000 C   0  0  0  0  0  0  0  0  0  0  0  0
    0.8179    1.6107    0.0000 C   0  0  0  0  0  0  0  0  0  0  0  0
   -0.5842    1.3144    0.0000 C   0  0  0  0  0  0  0  0  0  0  0  0
    0.0292    1.8610    0.0000 C   0  0  0  0  0  0  0  0  0  0  0  0
  2  1  1  0  0  0  0
  3  2  2  0  0  0  0
  4  1  1  0  0  0  0
  5  4  1  0  0  0  0
  6  2  1  0  0  0  0
  7  4  2  0  0  0  0
  8  9  2  0  0  0  0
  9  6  1  0  0  0  0
 10  6  2  0  0  0  0
 11 12  2  0  0  0  0
 12 10  1  0  0  0  0
  5  3  1  0  0  0  0
  8 11  1  0  0  0  0
M  END
>  <IDNUMBER>
F1145-0006

>  <Chemical_Name>
5-(pyridin-3-yl)-2,3-dihydro-1,3,4-oxadiazole-2-thione

>  <PriceCoeff>
1.00

>  <CAS>
3690-46-8

>  <MW>
179.20

>  <Description>
solid

>  <FSP3>
0.00

>  <clogP>
0.65

>  <TPSA>
78.60

>  <Acceptor>
4

>  <Donor>
3

>  <RotBonds>
1

>  <HAC>
12

>  <Collection>
General

>  <PPDS>
+

$$$$
F1159-0060
  Mrv2219 10102508112D          

 24 24  0  0  0  0            999 V2000
    2.0605   -0.4902    0.0000 C   0  0  0  0  0  0  0  0  0  0  0  0
    2.0605   -1.3210    0.0000 C   0  0  0  0  0  0  0  0  0  0  0  0
    1.3584   -0.0748    0.0000 C   0  0  0  0  0  0  0  0  0  0  0  0
    1.3584   -1.7240    0.0000 N   0  0  0  0  0  0  0  0  0  0  0  0
    0.6480   -0.4902    0.0000 N   0  0  0  0  0  0  0  0  0  0  0  0
    0.6480   -1.3210    0.0000 C   0  0  0  0  0  0  0  0  0  0  0  0
    2.7916   -0.0790    0.0000 C   0  0  0  0  0  0  0  0  0  0  0  0
    4.9351    0.3323    0.0000 N   0  0  0  0  0  0  0  0  0  0  0  0
    3.5020   -2.1477    0.0000 N   0  0  0  0  0  0  0  0  0  0  0  0
    3.5020   -0.4985    0.0000 C   0  0  0  0  0  0  0  0  0  0  0  0
    3.5020   -1.3252    0.0000 C   0  0  0  0  0  0  0  0  0  0  0  0
    4.2248   -0.0790    0.0000 C   0  0  0  0  0  0  0  0  0  0  0  0
   -0.0748   -1.7323    0.0000 S   0  0  0  0  0  0  0  0  0  0  0  0
    1.3584    0.7560    0.0000 O   0  0  0  0  0  0  0  0  0  0  0  0
    2.7916   -1.7323    0.0000 O   0  0  0  0  0  0  0  0  0  0  0  0
    2.7916    0.7477    0.0000 C   0  0  0  0  0  0  0  0  0  0  0  0
    2.0812    1.1548    0.0000 C   0  0  0  0  0  0  0  0  0  0  0  0
    3.5020    1.1590    0.0000 C   0  0  0  0  0  0  0  0  0  0  0  0
    6.4182   -0.6398    0.0000 N   0  0  0  0  0  0  0  0  0  0  0  0
    8.0757   -0.6398    0.0000 O   0  0  0  0  0  0  0  0  0  0  0  0
    6.8336    0.0706    0.0000 C   0  0  0  0  0  0  0  0  0  0  0  0
    6.8336   -1.3626    0.0000 C   0  0  0  0  0  0  0  0  0  0  0  0
    7.6437   -1.3626    0.0000 C   0  0  0  0  0  0  0  0  0  0  0  0
    7.6562    0.0706    0.0000 C   0  0  0  0  0  0  0  0  0  0  0  0
  8 12  3  0  0  0  0
  9 11  3  0  0  0  0
 10  7  1  0  0  0  0
 11 10  1  0  0  0  0
 12 10  1  0  0  0  0
 13  6  2  0  0  0  0
 14  3  2  0  0  0  0
 15  2  1  0  0  0  0
 16  7  1  0  0  0  0
 17 16  1  0  0  0  0
 18 16  1  0  0  0  0
  4  6  1  0  0  0  0
  2  1  2  0  0  0  0
  3  1  1  0  0  0  0
  4  2  1  0  0  0  0
  5  3  1  0  0  0  0
  6  5  1  0  0  0  0
  7  1  1  0  0  0  0
 20 23  1  0  0  0  0
 21 19  1  0  0  0  0
 22 19  1  0  0  0  0
 23 22  1  0  0  0  0
 24 21  1  0  0  0  0
 24 20  1  0  0  0  0
M  END
>  <IDNUMBER>
F1159-0060

>  <Chemical_Name>
2-[1-(6-hydroxy-4-oxo-2-sulfanylidene-1,2,3,4-tetrahydropyrimidin-5-yl)-2-methylpropyl]propanedinitrile; morpholine

>  <PriceCoeff>
1.00

>  <CAS>
879371-34-3

>  <MW>
264.30

>  <Description>
solid

>  <FSP3>
0.45

>  <clogP>
-1.05

>  <TPSA>
141.03

>  <Acceptor>
5

>  <Donor>
3

>  <RotBonds>
3

>  <HAC>
18

>  <Collection>
General

$$$$
F1166-0172
  Mrv2219 10102508112D          

 31 35  0  0  0  0            999 V2000
    3.0241    0.5605    0.0000 N   0  0  0  0  0  0  0  0  0  0  0  0
   -0.4266    3.0952    0.0000 C   0  0  0  0  0  0  0  0  0  0  0  0
   -0.9871    2.4803    0.0000 N   0  0  0  0  0  0  0  0  0  0  0  0
    0.3932    3.0073    0.0000 N   0  0  0  0  0  0  0  0  0  0  0  0
   -1.7400    2.8233    0.0000 C   0  0  0  0  0  0  0  0  0  0  0  0
    2.6895    1.3133    0.0000 C   0  0  0  0  0  0  0  0  0  0  0  0
    0.7278    2.2545    0.0000 C   0  0  0  0  0  0  0  0  0  0  0  0
    2.5766   -0.1297    0.0000 C   0  0  0  0  0  0  0  0  0  0  0  0
    3.8146    0.3597    0.0000 C   0  0  0  0  0  0  0  0  0  0  0  0
   -0.8365    3.8146    0.0000 S   0  0  0  0  0  0  0  0  0  0  0  0
   -1.6521    3.6473    0.0000 C   0  0  0  0  0  0  0  0  0  0  0  0
   -2.4552    2.4176    0.0000 C   0  0  0  0  0  0  0  0  0  0  0  0
    1.8697    1.4054    0.0000 C   0  0  0  0  0  0  0  0  0  0  0  0
    1.5434    2.1583    0.0000 C   0  0  0  0  0  0  0  0  0  0  0  0
   -2.4594    1.5894    0.0000 C   0  0  0  0  0  0  0  0  0  0  0  0
   -3.1747    1.1795    0.0000 C   0  0  0  0  0  0  0  0  0  0  0  0
    0.2384    1.5894    0.0000 O   0  0  0  0  0  0  0  0  0  0  0  0
    3.1120   -0.7697    0.0000 C   0  0  0  0  0  0  0  0  0  0  0  0
    3.8691   -0.4685    0.0000 C   0  0  0  0  0  0  0  0  0  0  0  0
   -3.8899    1.6020    0.0000 C   0  0  0  0  0  0  0  0  0  0  0  0
    1.7484   -0.1757    0.0000 O   0  0  0  0  0  0  0  0  0  0  0  0
    4.4546    0.8616    0.0000 O   0  0  0  0  0  0  0  0  0  0  0  0
   -3.1705    2.8317    0.0000 C   0  0  0  0  0  0  0  0  0  0  0  0
   -3.8857    2.4218    0.0000 C   0  0  0  0  0  0  0  0  0  0  0  0
    3.1789    1.9784    0.0000 C   0  0  0  0  0  0  0  0  0  0  0  0
    2.0245    2.8233    0.0000 C   0  0  0  0  0  0  0  0  0  0  0  0
    2.8527    2.7313    0.0000 C   0  0  0  0  0  0  0  0  0  0  0  0
   -3.1747    0.3513    0.0000 C   0  0  0  0  0  0  0  0  0  0  0  0
   -4.6010    1.1795    0.0000 C   0  0  0  0  0  0  0  0  0  0  0  0
   -3.8899   -0.0544    0.0000 C   0  0  0  0  0  0  0  0  0  0  0  0
   -4.6010    0.3513    0.0000 C   0  0  0  0  0  0  0  0  0  0  0  0
  2  4  1  0  0  0  0
  3  2  2  0  0  0  0
  4  7  1  0  0  0  0
  5  3  1  0  0  0  0
  6  1  1  0  0  0  0
  7 14  1  0  0  0  0
  8  1  1  0  0  0  0
  9  1  1  0  0  0  0
 10  2  1  0  0  0  0
 11 10  1  0  0  0  0
 12  5  1  0  0  0  0
 13  6  1  0  0  0  0
 14 13  2  0  0  0  0
 15 12  2  0  0  0  0
 16 15  1  0  0  0  0
 17  7  2  0  0  0  0
 18  8  1  0  0  0  0
 19  9  1  0  0  0  0
 20 24  1  0  0  0  0
 21  8  2  0  0  0  0
 22  9  2  0  0  0  0
 23 12  1  0  0  0  0
 24 23  2  0  0  0  0
 25  6  2  0  0  0  0
 26 27  2  0  0  0  0
 27 25  1  0  0  0  0
 28 16  1  0  0  0  0
 29 20  1  0  0  0  0
 30 28  1  0  0  0  0
 31 29  1  0  0  0  0
 18 19  1  0  0  0  0
 26 14  1  0  0  0  0
  5 11  2  0  0  0  0
 16 20  2  0  0  0  0
 30 31  1  0  0  0  0
M  END
>  <IDNUMBER>
F1166-0172

>  <Chemical_Name>
3-(2,5-dioxopyrrolidin-1-yl)-N-[4-(5,6,7,8-tetrahydronaphthalen-2-yl)-1,3-thiazol-2-yl]benzamide

>  <PriceCoeff>
1.00

>  <CAS>
684233-11-2

>  <MW>
431.51

>  <Description>
solid

>  <FSP3>
0.25

>  <clogP>
3.70

>  <TPSA>
107.61

>  <Acceptor>
4

>  <Donor>
1

>  <RotBonds>
4

>  <HAC>
31

>  <Collection>
General

>  <PPDS>
+

$$$$
F1166-0209
  Mrv2219 10102508112D          

 26 29  0  0  0  0            999 V2000
    0.5672    0.8215    0.0000 N   0  0  0  0  0  0  0  0  0  0  0  0
   -0.4253    3.0858    0.0000 C   0  0  0  0  0  0  0  0  0  0  0  0
   -0.9841    2.4728    0.0000 N   0  0  0  0  0  0  0  0  0  0  0  0
   -1.7347    2.8148    0.0000 C   0  0  0  0  0  0  0  0  0  0  0  0
    0.3920    2.9983    0.0000 N   0  0  0  0  0  0  0  0  0  0  0  0
    0.1501    0.1209    0.0000 C   0  0  0  0  0  0  0  0  0  0  0  0
    1.3761    0.6588    0.0000 C   0  0  0  0  0  0  0  0  0  0  0  0
   -0.8340    3.8031    0.0000 S   0  0  0  0  0  0  0  0  0  0  0  0
    0.7256    2.2476    0.0000 C   0  0  0  0  0  0  0  0  0  0  0  0
   -1.6472    3.6363    0.0000 C   0  0  0  0  0  0  0  0  0  0  0  0
   -2.4478    2.4103    0.0000 C   0  0  0  0  0  0  0  0  0  0  0  0
    0.2294    1.5721    0.0000 C   0  0  0  0  0  0  0  0  0  0  0  0
   -2.4520    1.5846    0.0000 C   0  0  0  0  0  0  0  0  0  0  0  0
   -3.1651    1.1760    0.0000 C   0  0  0  0  0  0  0  0  0  0  0  0
    1.4554   -0.1668    0.0000 C   0  0  0  0  0  0  0  0  0  0  0  0
    0.7006   -0.5004    0.0000 C   0  0  0  0  0  0  0  0  0  0  0  0
   -3.8782    1.5971    0.0000 C   0  0  0  0  0  0  0  0  0  0  0  0
    1.9766    1.1968    0.0000 O   0  0  0  0  0  0  0  0  0  0  0  0
   -0.6588    0.0375    0.0000 O   0  0  0  0  0  0  0  0  0  0  0  0
    1.5430    2.1518    0.0000 O   0  0  0  0  0  0  0  0  0  0  0  0
   -3.1609    2.8231    0.0000 C   0  0  0  0  0  0  0  0  0  0  0  0
   -3.8740    2.4145    0.0000 C   0  0  0  0  0  0  0  0  0  0  0  0
   -3.1651    0.3503    0.0000 C   0  0  0  0  0  0  0  0  0  0  0  0
   -4.5871    1.1760    0.0000 C   0  0  0  0  0  0  0  0  0  0  0  0
   -3.8782   -0.0542    0.0000 C   0  0  0  0  0  0  0  0  0  0  0  0
   -4.5871    0.3503    0.0000 C   0  0  0  0  0  0  0  0  0  0  0  0
  2  5  1  0  0  0  0
  3  2  2  0  0  0  0
  4  3  1  0  0  0  0
  5  9  1  0  0  0  0
  6  1  1  0  0  0  0
  7  1  1  0  0  0  0
  8  2  1  0  0  0  0
  9 12  1  0  0  0  0
 10  8  1  0  0  0  0
 11  4  1  0  0  0  0
 12  1  1  0  0  0  0
 13 11  2  0  0  0  0
 14 13  1  0  0  0  0
 15  7  1  0  0  0  0
 16  6  1  0  0  0  0
 17 22  1  0  0  0  0
 18  7  2  0  0  0  0
 19  6  2  0  0  0  0
 20  9  2  0  0  0  0
 21 11  1  0  0  0  0
 22 21  2  0  0  0  0
 23 14  1  0  0  0  0
 24 17  1  0  0  0  0
 25 23  1  0  0  0  0
 26 24  1  0  0  0  0
 15 16  1  0  0  0  0
  4 10  2  0  0  0  0
 14 17  2  0  0  0  0
 25 26  1  0  0  0  0
M  END
>  <IDNUMBER>
F1166-0209

>  <Chemical_Name>
2-(2,5-dioxopyrrolidin-1-yl)-N-[4-(5,6,7,8-tetrahydronaphthalen-2-yl)-1,3-thiazol-2-yl]acetamide

>  <PriceCoeff>
1.00

>  <CAS>
683777-71-1

>  <MW>
369.44

>  <Description>
solid

>  <FSP3>
0.37

>  <clogP>
3.52

>  <TPSA>
107.61

>  <Acceptor>
4

>  <Donor>
1

>  <RotBonds>
4

>  <HAC>
26

>  <Collection>
General

>  <PPDS>
+

$$$$
F1167-0035
  Mrv2219 10102508112D          

 21 22  0  0  0  0            999 V2000
    0.6556   -1.3946    0.0000 C   0  0  0  0  0  0  0  0  0  0  0  0
    0.6556   -0.5679    0.0000 C   0  0  0  0  0  0  0  0  0  0  0  0
    1.4322   -1.6451    0.0000 N   0  0  0  0  0  0  0  0  0  0  0  0
   -0.0584   -1.7954    0.0000 N   0  0  0  0  0  0  0  0  0  0  0  0
   -0.7974   -0.5679    0.0000 N   0  0  0  0  0  0  0  0  0  0  0  0
   -0.7974   -1.3946    0.0000 C   0  0  0  0  0  0  0  0  0  0  0  0
   -0.0584   -0.1420    0.0000 C   0  0  0  0  0  0  0  0  0  0  0  0
    1.9081   -0.9687    0.0000 C   0  0  0  0  0  0  0  0  0  0  0  0
    1.4948   -0.2505    0.0000 N   0  0  0  0  0  0  0  0  0  0  0  0
   -1.5240   -1.7954    0.0000 O   0  0  0  0  0  0  0  0  0  0  0  0
   -0.0584    0.6847    0.0000 O   0  0  0  0  0  0  0  0  0  0  0  0
    2.6973   -1.1816    0.0000 N   0  0  0  0  0  0  0  0  0  0  0  0
   -0.0584   -2.6221    0.0000 C   0  0  0  0  0  0  0  0  0  0  0  0
   -1.5114   -0.1545    0.0000 C   0  0  0  0  0  0  0  0  0  0  0  0
    1.4906    0.5720    0.0000 C   0  0  0  0  0  0  0  0  0  0  0  0
    3.1106   -1.8956    0.0000 C   0  0  0  0  0  0  0  0  0  0  0  0
    2.1962    0.9853    0.0000 C   0  0  0  0  0  0  0  0  0  0  0  0
    3.6242    1.8120    0.0000 C   0  0  0  0  0  0  0  0  0  0  0  0
    3.6242    0.9895    0.0000 C   0  0  0  0  0  0  0  0  0  0  0  0
    2.9102    0.5762    0.0000 C   0  0  0  0  0  0  0  0  0  0  0  0
    4.3382    2.2254    0.0000 C   0  0  0  0  0  0  0  0  0  0  0  0
  2  1  2  0  0  0  0
  3  1  1  0  0  0  0
  4  1  1  0  0  0  0
  5  6  1  0  0  0  0
  6  4  1  0  0  0  0
  7  2  1  0  0  0  0
  8  3  2  0  0  0  0
  9  2  1  0  0  0  0
 10  6  2  0  0  0  0
 11  7  2  0  0  0  0
 12  8  1  0  0  0  0
 13  4  1  0  0  0  0
 14  5  1  0  0  0  0
 15  9  1  0  0  0  0
 16 12  1  0  0  0  0
 17 15  1  0  0  0  0
 18 19  1  0  0  0  0
 19 20  1  0  0  0  0
 20 17  1  0  0  0  0
 21 18  1  0  0  0  0
  8  9  1  0  0  0  0
  5  7  1  0  0  0  0
M  END
>  <IDNUMBER>
F1167-0035

>  <Chemical_Name>
7-hexyl-1,3-dimethyl-8-(methylamino)-2,3,6,7-tetrahydro-1H-purine-2,6-dione

>  <PriceCoeff>
1.00

>  <CAS>
377062-31-2

>  <MW>
293.36

>  <Description>
solid

>  <FSP3>
0.64

>  <clogP>
3.16

>  <TPSA>
70.47

>  <Acceptor>
3

>  <Donor>
2

>  <RotBonds>
6

>  <HAC>
21

>  <Collection>
General

>  <PPDS>
+

$$$$
F1168-0056
  Mrv2219 10102508112D          

 20 22  0  0  0  0            999 V2000
    1.0698   -1.9944    0.0000 C   0  0  0  0  0  0  0  0  0  0  0  0
    2.4920   -1.9944    0.0000 C   0  0  0  0  0  0  0  0  0  0  0  0
    1.7788   -2.4049    0.0000 N   0  0  0  0  0  0  0  0  0  0  0  0
    2.4920   -1.1693    0.0000 C   0  0  0  0  0  0  0  0  0  0  0  0
    1.0698   -1.1693    0.0000 N   0  0  0  0  0  0  0  0  0  0  0  0
    1.7788   -0.7505    0.0000 C   0  0  0  0  0  0  0  0  0  0  0  0
    0.3525   -2.4049    0.0000 S   0  0  0  0  0  0  0  0  0  0  0  0
    1.7788    0.0705    0.0000 C   0  0  0  0  0  0  0  0  0  0  0  0
    3.2010   -2.4049    0.0000 C   0  0  0  0  0  0  0  0  0  0  0  0
    2.4920    0.4851    0.0000 C   0  0  0  0  0  0  0  0  0  0  0  0
    1.0698    0.4851    0.0000 C   0  0  0  0  0  0  0  0  0  0  0  0
    1.7830    1.7249    0.0000 C   0  0  0  0  0  0  0  0  0  0  0  0
    1.0615    1.3061    0.0000 C   0  0  0  0  0  0  0  0  0  0  0  0
    2.4920    1.3144    0.0000 C   0  0  0  0  0  0  0  0  0  0  0  0
    1.7830    2.5459    0.0000 Cl  0  0  0  0  0  0  0  0  0  0  0  0
    3.2010   -3.2342    0.0000 C   0  0  0  0  0  0  0  0  0  0  0  0
    3.9183   -1.9944    0.0000 C   0  0  0  0  0  0  0  0  0  0  0  0
    4.6316   -2.4049    0.0000 C   0  0  0  0  0  0  0  0  0  0  0  0
    3.9183   -3.6447    0.0000 C   0  0  0  0  0  0  0  0  0  0  0  0
    4.6316   -3.2342    0.0000 C   0  0  0  0  0  0  0  0  0  0  0  0
  2  3  1  0  0  0  0
  3  1  1  0  0  0  0
  4  6  1  0  0  0  0
  5  1  1  0  0  0  0
  6  5  1  0  0  0  0
  7  1  2  0  0  0  0
  8  6  1  0  0  0  0
  9  2  1  0  0  0  0
 10  8  2  0  0  0  0
 11  8  1  0  0  0  0
 12 13  1  0  0  0  0
 13 11  2  0  0  0  0
 14 10  1  0  0  0  0
 15 12  1  0  0  0  0
 16  9  2  0  0  0  0
 17  9  1  0  0  0  0
 18 17  2  0  0  0  0
 19 16  1  0  0  0  0
 20 18  1  0  0  0  0
  2  4  2  0  0  0  0
 14 12  2  0  0  0  0
 19 20  2  0  0  0  0
M  END
>  <IDNUMBER>
F1168-0056

>  <Chemical_Name>
4-(4-chlorophenyl)-6-phenyl-1,2,3,4-tetrahydropyrimidine-2-thione

>  <PriceCoeff>
1.00

>  <CAS>
71834-45-2

>  <MW>
300.81

>  <Description>
solid

>  <FSP3>
0.06

>  <clogP>
3.70

>  <TPSA>
56.15

>  <Acceptor>
1

>  <Donor>
2

>  <RotBonds>
2

>  <HAC>
20

>  <Collection>
General

>  <PPDS>
+

$$$$
F1168-0081
  Mrv2219 10102508112D          

 25 28  0  0  0  0            999 V2000
    1.0696   -1.9940    0.0000 C   0  0  0  0  0  0  0  0  0  0  0  0
    1.7784   -0.7504    0.0000 C   0  0  0  0  0  0  0  0  0  0  0  0
    2.4915   -1.9940    0.0000 C   0  0  0  0  0  0  0  0  0  0  0  0
    2.4915   -1.1690    0.0000 C   0  0  0  0  0  0  0  0  0  0  0  0
    1.7784   -2.4045    0.0000 N   0  0  0  0  0  0  0  0  0  0  0  0
    1.0696   -1.1690    0.0000 N   0  0  0  0  0  0  0  0  0  0  0  0
    1.7784    0.0704    0.0000 C   0  0  0  0  0  0  0  0  0  0  0  0
    1.0696    0.4850    0.0000 C   0  0  0  0  0  0  0  0  0  0  0  0
    0.3524   -2.4045    0.0000 S   0  0  0  0  0  0  0  0  0  0  0  0
    2.4915    0.4850    0.0000 C   0  0  0  0  0  0  0  0  0  0  0  0
    3.2004   -2.4045    0.0000 C   0  0  0  0  0  0  0  0  0  0  0  0
    1.0696    1.3059    0.0000 C   0  0  0  0  0  0  0  0  0  0  0  0
    2.4915    1.3141    0.0000 C   0  0  0  0  0  0  0  0  0  0  0  0
    1.7826    1.7245    0.0000 C   0  0  0  0  0  0  0  0  0  0  0  0
    3.2087    0.0746    0.0000 O   0  0  0  0  0  0  0  0  0  0  0  0
    0.3607    0.0704    0.0000 C   0  0  0  0  0  0  0  0  0  0  0  0
    3.9176   -1.9940    0.0000 C   0  0  0  0  0  0  0  0  0  0  0  0
    3.2004   -3.2335    0.0000 C   0  0  0  0  0  0  0  0  0  0  0  0
    0.3524    1.7163    0.0000 C   0  0  0  0  0  0  0  0  0  0  0  0
    3.2087   -0.7462    0.0000 C   0  0  0  0  0  0  0  0  0  0  0  0
   -0.3565    0.4809    0.0000 C   0  0  0  0  0  0  0  0  0  0  0  0
    4.6306   -2.4045    0.0000 C   0  0  0  0  0  0  0  0  0  0  0  0
    3.9176   -3.6439    0.0000 C   0  0  0  0  0  0  0  0  0  0  0  0
   -0.3565    1.3059    0.0000 C   0  0  0  0  0  0  0  0  0  0  0  0
    4.6306   -3.2335    0.0000 C   0  0  0  0  0  0  0  0  0  0  0  0
  2  6  1  0  0  0  0
  3  5  1  0  0  0  0
  4  2  1  0  0  0  0
  5  1  1  0  0  0  0
  6  1  1  0  0  0  0
  7  2  1  0  0  0  0
  8  7  1  0  0  0  0
  9  1  2  0  0  0  0
 10  7  2  0  0  0  0
 11  3  1  0  0  0  0
 12  8  1  0  0  0  0
 13 10  1  0  0  0  0
 14 13  2  0  0  0  0
 15 10  1  0  0  0  0
 16  8  2  0  0  0  0
 17 11  1  0  0  0  0
 18 11  2  0  0  0  0
 19 12  2  0  0  0  0
 20 15  1  0  0  0  0
 21 16  1  0  0  0  0
 22 17  2  0  0  0  0
 23 18  1  0  0  0  0
 24 21  2  0  0  0  0
 25 23  2  0  0  0  0
  3  4  2  0  0  0  0
 12 14  1  0  0  0  0
 22 25  1  0  0  0  0
 19 24  1  0  0  0  0
M  END
>  <IDNUMBER>
F1168-0081

>  <Chemical_Name>
4-(2-methoxynaphthalen-1-yl)-6-phenyl-1,2,3,4-tetrahydropyrimidine-2-thione

>  <PriceCoeff>
1.00

>  <CAS>
683778-35-0

>  <MW>
346.45

>  <Description>
solid

>  <FSP3>
0.10

>  <clogP>
4.08

>  <TPSA>
65.38

>  <Acceptor>
2

>  <Donor>
2

>  <RotBonds>
3

>  <HAC>
25

>  <Collection>
General

>  <PPDS>
+

$$$$
F1168-0083
  Mrv2219 10102508112D          

 29 32  0  0  0  0            999 V2000
    1.0725   -1.9995    0.0000 C   0  0  0  0  0  0  0  0  0  0  0  0
    2.4984   -1.9995    0.0000 C   0  0  0  0  0  0  0  0  0  0  0  0
    1.7833   -2.4111    0.0000 N   0  0  0  0  0  0  0  0  0  0  0  0
    2.4984   -1.1723    0.0000 C   0  0  0  0  0  0  0  0  0  0  0  0
    1.0725   -1.1723    0.0000 N   0  0  0  0  0  0  0  0  0  0  0  0
    1.7833   -0.7524    0.0000 C   0  0  0  0  0  0  0  0  0  0  0  0
    1.7833    0.0706    0.0000 C   0  0  0  0  0  0  0  0  0  0  0  0
    2.4984    1.3177    0.0000 C   0  0  0  0  0  0  0  0  0  0  0  0
    2.4984    0.4864    0.0000 C   0  0  0  0  0  0  0  0  0  0  0  0
    0.3534   -2.4111    0.0000 S   0  0  0  0  0  0  0  0  0  0  0  0
    3.2175    1.7293    0.0000 O   0  0  0  0  0  0  0  0  0  0  0  0
    3.2092   -2.4111    0.0000 C   0  0  0  0  0  0  0  0  0  0  0  0
    1.7875    1.7293    0.0000 C   0  0  0  0  0  0  0  0  0  0  0  0
    1.0725    0.4864    0.0000 C   0  0  0  0  0  0  0  0  0  0  0  0
    1.0642    1.3094    0.0000 C   0  0  0  0  0  0  0  0  0  0  0  0
    3.9283    1.3177    0.0000 C   0  0  0  0  0  0  0  0  0  0  0  0
    1.7875    2.5523    0.0000 O   0  0  0  0  0  0  0  0  0  0  0  0
    4.6433    1.7293    0.0000 C   0  0  0  0  0  0  0  0  0  0  0  0
    3.9283   -1.9995    0.0000 C   0  0  0  0  0  0  0  0  0  0  0  0
    3.2092   -3.2424    0.0000 C   0  0  0  0  0  0  0  0  0  0  0  0
    2.4984    2.9639    0.0000 C   0  0  0  0  0  0  0  0  0  0  0  0
    5.3542    1.3177    0.0000 C   0  0  0  0  0  0  0  0  0  0  0  0
    4.6391    2.5440    0.0000 C   0  0  0  0  0  0  0  0  0  0  0  0
    4.6433   -2.4111    0.0000 C   0  0  0  0  0  0  0  0  0  0  0  0
    3.9283   -3.6539    0.0000 C   0  0  0  0  0  0  0  0  0  0  0  0
    5.3417    2.9639    0.0000 C   0  0  0  0  0  0  0  0  0  0  0  0
    6.0650    1.7293    0.0000 C   0  0  0  0  0  0  0  0  0  0  0  0
    4.6433   -3.2424    0.0000 C   0  0  0  0  0  0  0  0  0  0  0  0
    6.0650    2.5523    0.0000 C   0  0  0  0  0  0  0  0  0  0  0  0
  2  3  1  0  0  0  0
  3  1  1  0  0  0  0
  4  6  1  0  0  0  0
  5  1  1  0  0  0  0
  6  5  1  0  0  0  0
  7  6  1  0  0  0  0
  8  9  1  0  0  0  0
  9  7  2  0  0  0  0
 10  1  2  0  0  0  0
 11  8  1  0  0  0  0
 12  2  1  0  0  0  0
 13 15  1  0  0  0  0
 14  7  1  0  0  0  0
 15 14  2  0  0  0  0
 16 11  1  0  0  0  0
 17 13  1  0  0  0  0
 18 16  1  0  0  0  0
 19 12  1  0  0  0  0
 20 12  2  0  0  0  0
 21 17  1  0  0  0  0
 22 18  2  0  0  0  0
 23 18  1  0  0  0  0
 24 19  2  0  0  0  0
 25 20  1  0  0  0  0
 26 23  2  0  0  0  0
 27 22  1  0  0  0  0
 28 25  2  0  0  0  0
 29 26  1  0  0  0  0
  2  4  2  0  0  0  0
  8 13  2  0  0  0  0
 28 24  1  0  0  0  0
 27 29  2  0  0  0  0
M  END
>  <IDNUMBER>
F1168-0083

>  <Chemical_Name>
4-[3-(benzyloxy)-4-methoxyphenyl]-6-phenyl-1,2,3,4-tetrahydropyrimidine-2-thione

>  <PriceCoeff>
1.00

>  <CAS>
503433-25-8

>  <MW>
402.51

>  <Description>
solid

>  <FSP3>
0.12

>  <clogP>
4.41

>  <TPSA>
74.61

>  <Acceptor>
3

>  <Donor>
2

>  <RotBonds>
6

>  <HAC>
29

>  <Collection>
General

>  <PPDS>
+

$$$$
F1174-3093
  Mrv2219 10102508112D          

 31 35  0  0  0  0            999 V2000
   -5.5225    2.5328    0.0000 C   0  0  0  0  0  0  0  0  0  0  0  0
   -5.6000    1.7117    0.0000 C   0  0  0  0  0  0  0  0  0  0  0  0
   -4.1129    2.3855    0.0000 N   0  0  0  0  0  0  0  0  0  0  0  0
   -4.1826    1.5723    0.0000 C   0  0  0  0  0  0  0  0  0  0  0  0
   -4.9262    1.2315    0.0000 N   0  0  0  0  0  0  0  0  0  0  0  0
   -4.7790    2.8735    0.0000 C   0  0  0  0  0  0  0  0  0  0  0  0
   -6.4134    1.5723    0.0000 S   0  0  0  0  0  0  0  0  0  0  0  0
   -6.2661    2.8735    0.0000 C   0  0  0  0  0  0  0  0  0  0  0  0
   -6.8238    2.2308    0.0000 C   0  0  0  0  0  0  0  0  0  0  0  0
   -2.2230    0.1162    0.0000 N   0  0  0  0  0  0  0  0  0  0  0  0
   -2.1378    0.9294    0.0000 C   0  0  0  0  0  0  0  0  0  0  0  0
   -3.5242    1.0843    0.0000 S   0  0  0  0  0  0  0  0  0  0  0  0
   -3.3693    2.7187    0.0000 C   0  0  0  0  0  0  0  0  0  0  0  0
   -4.6706    3.6869    0.0000 O   0  0  0  0  0  0  0  0  0  0  0  0
   -2.7806    1.4174    0.0000 C   0  0  0  0  0  0  0  0  0  0  0  0
   -1.5491   -0.3718    0.0000 C   0  0  0  0  0  0  0  0  0  0  0  0
   -1.3631    1.2702    0.0000 O   0  0  0  0  0  0  0  0  0  0  0  0
   -6.5295    3.6482    0.0000 C   0  0  0  0  0  0  0  0  0  0  0  0
   -2.9665   -0.2170    0.0000 C   0  0  0  0  0  0  0  0  0  0  0  0
   -7.6449    2.3855    0.0000 C   0  0  0  0  0  0  0  0  0  0  0  0
   -2.6954    2.2308    0.0000 C   0  0  0  0  0  0  0  0  0  0  0  0
   -3.2918    3.5320    0.0000 C   0  0  0  0  0  0  0  0  0  0  0  0
   -0.7668    0.0000    0.0000 C   0  0  0  0  0  0  0  0  0  0  0  0
   -1.6188   -1.1850    0.0000 C   0  0  0  0  0  0  0  0  0  0  0  0
   -3.0672   -1.0302    0.0000 C   0  0  0  0  0  0  0  0  0  0  0  0
   -7.3582    3.8031    0.0000 C   0  0  0  0  0  0  0  0  0  0  0  0
   -7.9392    3.1602    0.0000 C   0  0  0  0  0  0  0  0  0  0  0  0
   -1.9519    2.5714    0.0000 C   0  0  0  0  0  0  0  0  0  0  0  0
   -2.5482    3.9037    0.0000 C   0  0  0  0  0  0  0  0  0  0  0  0
   -2.3623   -1.5569    0.0000 C   0  0  0  0  0  0  0  0  0  0  0  0
   -1.8822    3.3848    0.0000 C   0  0  0  0  0  0  0  0  0  0  0  0
  2  1  2  0  0  0  0
  3  6  1  0  0  0  0
  4  3  1  0  0  0  0
  5  2  1  0  0  0  0
  6  1  1  0  0  0  0
  7  2  1  0  0  0  0
  8  1  1  0  0  0  0
  9  8  2  0  0  0  0
 10 11  1  0  0  0  0
 11 15  1  0  0  0  0
 12  4  1  0  0  0  0
 13  3  1  0  0  0  0
 14  6  2  0  0  0  0
 15 12  1  0  0  0  0
 16 10  1  0  0  0  0
 17 11  2  0  0  0  0
 18  8  1  0  0  0  0
 19 10  1  0  0  0  0
 20  9  1  0  0  0  0
 21 13  1  0  0  0  0
 22 13  2  0  0  0  0
 23 16  1  0  0  0  0
 24 16  1  0  0  0  0
 25 19  1  0  0  0  0
 26 18  1  0  0  0  0
 27 26  1  0  0  0  0
 28 21  2  0  0  0  0
 29 22  1  0  0  0  0
 30 25  1  0  0  0  0
 31 29  2  0  0  0  0
  9  7  1  0  0  0  0
  5  4  2  0  0  0  0
 20 27  1  0  0  0  0
 28 31  1  0  0  0  0
 24 30  1  0  0  0  0
M  END
>  <IDNUMBER>
F1174-3093

>  <Chemical_Name>
5-{[2-(2-methylpiperidin-1-yl)-2-oxoethyl]sulfanyl}-4-phenyl-8-thia-4,6-diazatricyclo[7.4.0.0?,?]trideca-1(9),2(7),5-trien-3-one

>  <PriceCoeff>
1.00

>  <CAS>
379239-40-4

>  <MW>
453.62

>  <Description>
solid

>  <FSP3>
0.46

>  <clogP>
5.56

>  <TPSA>
106.52

>  <Acceptor>
3

>  <Donor>
0

>  <RotBonds>
5

>  <HAC>
31

>  <Collection>
General

>  <PPDS>
+

$$$$
F1174-3261
  Mrv2219 10102508112D          

 22 24  0  0  0  0            999 V2000
   -1.3239    0.6489    0.0000 C   0  0  0  0  0  0  0  0  0  0  0  0
   -1.3239    1.4744    0.0000 C   0  0  0  0  0  0  0  0  0  0  0  0
   -2.0196    1.8950    0.0000 C   0  0  0  0  0  0  0  0  0  0  0  0
   -2.0196    0.2492    0.0000 N   0  0  0  0  0  0  0  0  0  0  0  0
   -0.5763    0.2284    0.0000 C   0  0  0  0  0  0  0  0  0  0  0  0
   -2.7204    1.4744    0.0000 C   0  0  0  0  0  0  0  0  0  0  0  0
   -1.9936    2.7204    0.0000 C   0  0  0  0  0  0  0  0  0  0  0  0
   -2.7204    0.6489    0.0000 C   0  0  0  0  0  0  0  0  0  0  0  0
   -0.6022    1.8950    0.0000 C   0  0  0  0  0  0  0  0  0  0  0  0
    0.1454    0.6489    0.0000 O   0  0  0  0  0  0  0  0  0  0  0  0
   -2.6945    3.1410    0.0000 O   0  0  0  0  0  0  0  0  0  0  0  0
   -0.5763   -0.5971    0.0000 O   0  0  0  0  0  0  0  0  0  0  0  0
   -1.2719    3.1151    0.0000 O   0  0  0  0  0  0  0  0  0  0  0  0
   -3.4421    1.8950    0.0000 C   0  0  0  0  0  0  0  0  0  0  0  0
   -3.4421    0.2492    0.0000 C   0  0  0  0  0  0  0  0  0  0  0  0
    0.1246    1.4744    0.0000 C   0  0  0  0  0  0  0  0  0  0  0  0
   -0.6022    2.6945    0.0000 C   0  0  0  0  0  0  0  0  0  0  0  0
   -4.1378    1.4744    0.0000 C   0  0  0  0  0  0  0  0  0  0  0  0
   -4.1378    0.6489    0.0000 C   0  0  0  0  0  0  0  0  0  0  0  0
    0.1246    3.1151    0.0000 C   0  0  0  0  0  0  0  0  0  0  0  0
    0.8151    1.8950    0.0000 C   0  0  0  0  0  0  0  0  0  0  0  0
    0.8151    2.6945    0.0000 C   0  0  0  0  0  0  0  0  0  0  0  0
  2  1  2  0  0  0  0
  3  2  1  0  0  0  0
  4  1  1  0  0  0  0
  5  1  1  0  0  0  0
  6  8  1  0  0  0  0
  7  3  1  0  0  0  0
  8  4  2  0  0  0  0
  9  2  1  0  0  0  0
 10  5  2  0  0  0  0
 11  7  2  0  0  0  0
 12  5  1  0  0  0  0
 13  7  1  0  0  0  0
 14  6  1  0  0  0  0
 15  8  1  0  0  0  0
 16  9  2  0  0  0  0
 17  9  1  0  0  0  0
 18 19  1  0  0  0  0
 19 15  2  0  0  0  0
 20 17  2  0  0  0  0
 21 16  1  0  0  0  0
 22 20  1  0  0  0  0
  3  6  2  0  0  0  0
 14 18  2  0  0  0  0
 22 21  2  0  0  0  0
M  END
>  <IDNUMBER>
F1174-3261

>  <Chemical_Name>
3-phenylquinoline-2,4-dicarboxylic acid

>  <PriceCoeff>
1.00

>  <CAS>
19585-90-1

>  <MW>
293.28

>  <Description>
solid

>  <FSP3>
0.00

>  <clogP>
2.79

>  <TPSA>
87.49

>  <Acceptor>
5

>  <Donor>
1

>  <RotBonds>
3

>  <HAC>
22

>  <Collection>
General

>  <PPDS>
+

$$$$
F1175-0173
  Mrv2219 10102508112D          

 22 23  0  0  0  0            999 V2000
    0.4198    1.4266    0.0000 N   0  3  0  0  0  0  0  0  0  0  0  0
    2.8950    1.4266    0.0000 C   0  0  0  0  0  0  0  0  0  0  0  0
    3.7200    1.4340    0.0000 C   0  0  0  0  0  0  0  0  0  0  0  0
    2.4825    0.7121    0.0000 C   0  0  0  0  0  0  0  0  0  0  0  0
    1.2449    1.4266    0.0000 C   0  0  0  0  0  0  0  0  0  0  0  0
    1.6574    0.7121    0.0000 C   0  0  0  0  0  0  0  0  0  0  0  0
    4.1350    0.7195    0.0000 N   0  0  0  0  0  0  0  0  0  0  0  0
    7.4351    0.7268    0.0000 C   0  0  0  0  0  0  0  0  0  0  0  0
    2.4825    2.1412    0.0000 C   0  0  0  0  0  0  0  0  0  0  0  0
    0.0000    2.1412    0.0000 O   0  5  0  0  0  0  0  0  0  0  0  0
    0.0074    0.7121    0.0000 O   0  0  0  0  0  0  0  0  0  0  0  0
    6.6101    0.7268    0.0000 C   0  0  0  0  0  0  0  0  0  0  0  0
    4.1325    2.1485    0.0000 O   0  0  0  0  0  0  0  0  0  0  0  0
    1.6451    2.1412    0.0000 C   0  0  0  0  0  0  0  0  0  0  0  0
    7.8452    1.4413    0.0000 O   0  0  0  0  0  0  0  0  0  0  0  0
    4.9600    0.7268    0.0000 C   0  0  0  0  0  0  0  0  0  0  0  0
    6.1976    0.0123    0.0000 C   0  0  0  0  0  0  0  0  0  0  0  0
    6.1951    1.4413    0.0000 C   0  0  0  0  0  0  0  0  0  0  0  0
    2.8974    0.0000    0.0000 Cl  0  0  0  0  0  0  0  0  0  0  0  0
    7.8476    0.0147    0.0000 O   0  0  0  0  0  0  0  0  0  0  0  0
    5.3701    1.4413    0.0000 C   0  0  0  0  0  0  0  0  0  0  0  0
    5.3725    0.0123    0.0000 C   0  0  0  0  0  0  0  0  0  0  0  0
  2  9  2  0  0  0  0
  3  2  1  0  0  0  0
  4  6  2  0  0  0  0
  5  1  1  0  0  0  0
  6  5  1  0  0  0  0
  7  3  1  0  0  0  0
  8 12  1  0  0  0  0
  9 14  1  0  0  0  0
 10  1  1  0  0  0  0
 11  1  2  0  0  0  0
 12 17  1  0  0  0  0
 13  3  2  0  0  0  0
 14  5  2  0  0  0  0
 15  8  2  0  0  0  0
 16  7  1  0  0  0  0
 17 22  2  0  0  0  0
 18 21  1  0  0  0  0
 19  4  1  0  0  0  0
 20  8  1  0  0  0  0
 21 16  2  0  0  0  0
 22 16  1  0  0  0  0
  4  2  1  0  0  0  0
 12 18  2  0  0  0  0
M  CHG  2   1   1  10  -1
M  END
>  <IDNUMBER>
F1175-0173

>  <Chemical_Name>
4-(2-chloro-4-nitrobenzamido)benzoic acid

>  <PriceCoeff>
1.00

>  <CAS>
312944-39-1

>  <MW>
320.68

>  <Description>
solid

>  <FSP3>
0.00

>  <clogP>
2.58

>  <TPSA>
109.54

>  <Acceptor>
5

>  <Donor>
1

>  <RotBonds>
4

>  <HAC>
22

>  <Collection>
General

>  <PPDS>
+

$$$$
F1175-0181
  Mrv2219 10102508112D          

 19 20  0  0  0  0            999 V2000
    0.7023    0.8250    0.0000 N   0  3  0  0  0  0  0  0  0  0  0  0
    2.8580    2.0625    0.0000 C   0  0  0  0  0  0  0  0  0  0  0  0
    3.5725    2.4701    0.0000 C   0  0  0  0  0  0  0  0  0  0  0  0
    2.1313    2.4775    0.0000 C   0  0  0  0  0  0  0  0  0  0  0  0
    1.4290    1.2375    0.0000 C   0  0  0  0  0  0  0  0  0  0  0  0
    1.4290    2.0625    0.0000 C   0  0  0  0  0  0  0  0  0  0  0  0
    2.8580    1.2375    0.0000 C   0  0  0  0  0  0  0  0  0  0  0  0
    4.2895    2.0625    0.0000 N   0  0  0  0  0  0  0  0  0  0  0  0
    0.0000    1.2375    0.0000 O   0  5  0  0  0  0  0  0  0  0  0  0
    0.7023    0.0000    0.0000 O   0  0  0  0  0  0  0  0  0  0  0  0
    2.1313    0.8250    0.0000 C   0  0  0  0  0  0  0  0  0  0  0  0
    3.5725    3.2951    0.0000 O   0  0  0  0  0  0  0  0  0  0  0  0
    5.7996    1.2424    0.0000 O   0  0  0  0  0  0  0  0  0  0  0  0
    2.1313    3.3025    0.0000 Cl  0  0  0  0  0  0  0  0  0  0  0  0
    5.0040    2.4701    0.0000 C   0  0  0  0  0  0  0  0  0  0  0  0
    5.7185    2.0625    0.0000 C   0  0  0  0  0  0  0  0  0  0  0  0
    6.6025    1.0730    0.0000 C   0  0  0  0  0  0  0  0  0  0  0  0
    6.4625    2.3964    0.0000 C   0  0  0  0  0  0  0  0  0  0  0  0
    7.0223    1.7875    0.0000 C   0  0  0  0  0  0  0  0  0  0  0  0
  2  7  2  0  0  0  0
  3  2  1  0  0  0  0
  4  6  2  0  0  0  0
  5  1  1  0  0  0  0
  6  5  1  0  0  0  0
  7 11  1  0  0  0  0
  8  3  1  0  0  0  0
  9  1  1  0  0  0  0
 10  1  2  0  0  0  0
 11  5  2  0  0  0  0
 12  3  2  0  0  0  0
 13 16  1  0  0  0  0
 14  4  1  0  0  0  0
 15  8  1  0  0  0  0
 16 15  1  0  0  0  0
 17 13  1  0  0  0  0
 18 16  1  0  0  0  0
 19 18  1  0  0  0  0
  2  4  1  0  0  0  0
 17 19  1  0  0  0  0
M  CHG  2   1   1   9  -1
M  END
>  <IDNUMBER>
F1175-0181

>  <Chemical_Name>
2-chloro-4-nitro-N-[(oxolan-2-yl)methyl]benzamide

>  <PriceCoeff>
1.00

>  <CAS>
314028-93-8

>  <MW>
284.70

>  <Description>
solid

>  <FSP3>
0.42

>  <clogP>
1.63

>  <TPSA>
81.47

>  <Acceptor>
4

>  <Donor>
1

>  <RotBonds>
4

>  <HAC>
19

>  <Collection>
General

>  <PPDS>
+

$$$$
F1175-0183
  Mrv2219 10102508112D          

 27 29  0  0  0  0            999 V2000
    5.1943    1.4700    0.0000 C   0  0  0  0  0  0  0  0  0  0  0  0
    5.8380    1.9953    0.0000 C   0  0  0  0  0  0  0  0  0  0  0  0
    6.2894    0.7226    0.0000 N   0  0  0  0  0  0  0  0  0  0  0  0
    6.5188    1.5440    0.0000 N   0  0  0  0  0  0  0  0  0  0  0  0
    5.4928    0.7029    0.0000 C   0  0  0  0  0  0  0  0  0  0  0  0
    4.3434    1.6426    0.0000 N   0  0  0  0  0  0  0  0  0  0  0  0
    3.7983    1.0186    0.0000 C   0  0  0  0  0  0  0  0  0  0  0  0
    0.5426    1.7067    0.0000 N   0  3  0  0  0  0  0  0  0  0  0  0
    3.0041    1.1691    0.0000 C   0  0  0  0  0  0  0  0  0  0  0  0
    2.7229    1.9731    0.0000 C   0  0  0  0  0  0  0  0  0  0  0  0
    1.3541    1.5169    0.0000 C   0  0  0  0  0  0  0  0  0  0  0  0
    1.9090    2.1211    0.0000 C   0  0  0  0  0  0  0  0  0  0  0  0
    2.4517    0.5451    0.0000 C   0  0  0  0  0  0  0  0  0  0  0  0
    5.7887    2.8142    0.0000 O   0  0  0  0  0  0  0  0  0  0  0  0
    0.3355    2.5034    0.0000 O   0  5  0  0  0  0  0  0  0  0  0  0
    7.3130    1.7511    0.0000 C   0  0  0  0  0  0  0  0  0  0  0  0
    0.0000    1.1000    0.0000 O   0  0  0  0  0  0  0  0  0  0  0  0
    4.0474    0.2269    0.0000 O   0  0  0  0  0  0  0  0  0  0  0  0
    1.6303    0.7226    0.0000 C   0  0  0  0  0  0  0  0  0  0  0  0
    6.7876    0.0493    0.0000 C   0  0  0  0  0  0  0  0  0  0  0  0
    3.2508    2.5898    0.0000 Cl  0  0  0  0  0  0  0  0  0  0  0  0
    5.0241    0.0000    0.0000 C   0  0  0  0  0  0  0  0  0  0  0  0
    7.5350    2.5330    0.0000 C   0  0  0  0  0  0  0  0  0  0  0  0
    7.9098    1.1592    0.0000 C   0  0  0  0  0  0  0  0  0  0  0  0
    8.6819    1.3738    0.0000 C   0  0  0  0  0  0  0  0  0  0  0  0
    8.3267    2.7550    0.0000 C   0  0  0  0  0  0  0  0  0  0  0  0
    8.9038    2.1655    0.0000 C   0  0  0  0  0  0  0  0  0  0  0  0
  2  1  1  0  0  0  0
  3  5  1  0  0  0  0
  4  2  1  0  0  0  0
  5  1  2  0  0  0  0
  6  1  1  0  0  0  0
  7  6  1  0  0  0  0
  8 11  1  0  0  0  0
  9  7  1  0  0  0  0
 10  9  2  0  0  0  0
 11 19  1  0  0  0  0
 12 10  1  0  0  0  0
 13  9  1  0  0  0  0
 14  2  2  0  0  0  0
 15  8  1  0  0  0  0
 16  4  1  0  0  0  0
 17  8  2  0  0  0  0
 18  7  2  0  0  0  0
 19 13  2  0  0  0  0
 20  3  1  0  0  0  0
 21 10  1  0  0  0  0
 22  5  1  0  0  0  0
 23 16  1  0  0  0  0
 24 16  2  0  0  0  0
 25 24  1  0  0  0  0
 26 23  2  0  0  0  0
 27 25  2  0  0  0  0
  3  4  1  0  0  0  0
 11 12  2  0  0  0  0
 27 26  1  0  0  0  0
M  CHG  2   8   1  15  -1
M  END
>  <IDNUMBER>
F1175-0183

>  <Chemical_Name>
2-chloro-N-(1,5-dimethyl-3-oxo-2-phenyl-2,3-dihydro-1H-pyrazol-4-yl)-4-nitrobenzamide

>  <PriceCoeff>
1.00

>  <CAS>
176165-78-9

>  <MW>
386.79

>  <Description>
solid

>  <FSP3>
0.11

>  <clogP>
1.14

>  <TPSA>
95.79

>  <Acceptor>
4

>  <Donor>
2

>  <RotBonds>
4

>  <HAC>
27

>  <Collection>
General

>  <PPDS>
+

$$$$
F1175-0184
  Mrv2219 10102508112D          

 22 24  0  0  0  0            999 V2000
    4.9574    2.1362    0.0000 C   0  0  0  0  0  0  0  0  0  0  0  0
    5.4386    1.4732    0.0000 N   0  0  0  0  0  0  0  0  0  0  0  0
    4.1324    2.1484    0.0000 N   0  0  0  0  0  0  0  0  0  0  0  0
    3.7076    1.4339    0.0000 C   0  0  0  0  0  0  0  0  0  0  0  0
    0.4076    1.4192    0.0000 N   0  3  0  0  0  0  0  0  0  0  0  0
    2.8826    1.4217    0.0000 C   0  0  0  0  0  0  0  0  0  0  0  0
    5.4435    2.8016    0.0000 S   0  0  0  0  0  0  0  0  0  0  0  0
    2.4701    0.7071    0.0000 C   0  0  0  0  0  0  0  0  0  0  0  0
    1.2326    1.4192    0.0000 C   0  0  0  0  0  0  0  0  0  0  0  0
    1.6451    0.7071    0.0000 C   0  0  0  0  0  0  0  0  0  0  0  0
    6.2194    1.7237    0.0000 C   0  0  0  0  0  0  0  0  0  0  0  0
    6.2268    2.5438    0.0000 C   0  0  0  0  0  0  0  0  0  0  0  0
    2.4701    2.1362    0.0000 C   0  0  0  0  0  0  0  0  0  0  0  0
    0.0000    2.1337    0.0000 O   0  5  0  0  0  0  0  0  0  0  0  0
    0.0000    0.7047    0.0000 O   0  0  0  0  0  0  0  0  0  0  0  0
    4.1201    0.7194    0.0000 O   0  0  0  0  0  0  0  0  0  0  0  0
    1.6451    2.1362    0.0000 C   0  0  0  0  0  0  0  0  0  0  0  0
    2.8949    0.0000    0.0000 Cl  0  0  0  0  0  0  0  0  0  0  0  0
    6.9339    1.3087    0.0000 C   0  0  0  0  0  0  0  0  0  0  0  0
    6.9413    2.9538    0.0000 C   0  0  0  0  0  0  0  0  0  0  0  0
    7.6533    1.7212    0.0000 C   0  0  0  0  0  0  0  0  0  0  0  0
    7.6558    2.5413    0.0000 C   0  0  0  0  0  0  0  0  0  0  0  0
  2  1  2  0  0  0  0
  3  1  1  0  0  0  0
  4  3  1  0  0  0  0
  5  9  1  0  0  0  0
  6  4  1  0  0  0  0
  7  1  1  0  0  0  0
  8  6  1  0  0  0  0
  9 17  2  0  0  0  0
 10  8  2  0  0  0  0
 11  2  1  0  0  0  0
 12  7  1  0  0  0  0
 13  6  2  0  0  0  0
 14  5  1  0  0  0  0
 15  5  2  0  0  0  0
 16  4  2  0  0  0  0
 17 13  1  0  0  0  0
 18  8  1  0  0  0  0
 19 11  1  0  0  0  0
 20 12  1  0  0  0  0
 21 19  2  0  0  0  0
 22 20  2  0  0  0  0
 11 12  2  0  0  0  0
 21 22  1  0  0  0  0
 10  9  1  0  0  0  0
M  CHG  2   5   1  14  -1
M  END
>  <IDNUMBER>
F1175-0184

>  <Chemical_Name>
N-(1,3-benzothiazol-2-yl)-2-chloro-4-nitrobenzamide

>  <PriceCoeff>
1.00

>  <CAS>
313223-09-5

>  <MW>
333.75

>  <Description>
solid

>  <FSP3>
0.00

>  <clogP>
3.23

>  <TPSA>
113.37

>  <Acceptor>
4

>  <Donor>
1

>  <RotBonds>
3

>  <HAC>
22

>  <Collection>
General

>  <PPDS>
+

$$$$
F1175-0186
  Mrv2219 10102508112D          

 20 21  0  0  0  0            999 V2000
    0.4150    1.4265    0.0000 N   0  3  0  0  0  0  0  0  0  0  0  0
    2.8899    1.4265    0.0000 C   0  0  0  0  0  0  0  0  0  0  0  0
    3.7148    1.4339    0.0000 C   0  0  0  0  0  0  0  0  0  0  0  0
    2.4774    0.7120    0.0000 C   0  0  0  0  0  0  0  0  0  0  0  0
    1.2399    1.4265    0.0000 C   0  0  0  0  0  0  0  0  0  0  0  0
    1.6524    0.7120    0.0000 C   0  0  0  0  0  0  0  0  0  0  0  0
    4.1248    2.1483    0.0000 N   0  0  0  0  0  0  0  0  0  0  0  0
    2.4774    2.1410    0.0000 C   0  0  0  0  0  0  0  0  0  0  0  0
    0.0000    2.1410    0.0000 O   0  5  0  0  0  0  0  0  0  0  0  0
    0.0025    0.7120    0.0000 O   0  0  0  0  0  0  0  0  0  0  0  0
    4.1199    0.7194    0.0000 O   0  0  0  0  0  0  0  0  0  0  0  0
    4.9498    2.1410    0.0000 C   0  0  0  0  0  0  0  0  0  0  0  0
    1.6450    2.1410    0.0000 C   0  0  0  0  0  0  0  0  0  0  0  0
    5.3623    2.8530    0.0000 C   0  0  0  0  0  0  0  0  0  0  0  0
    2.8899    0.0000    0.0000 Cl  0  0  0  0  0  0  0  0  0  0  0  0
    6.1873    2.8530    0.0000 C   0  0  0  0  0  0  0  0  0  0  0  0
    6.5997    3.5675    0.0000 O   0  0  0  0  0  0  0  0  0  0  0  0
    6.1873    1.4265    0.0000 C   0  0  0  0  0  0  0  0  0  0  0  0
    5.3623    1.4265    0.0000 C   0  0  0  0  0  0  0  0  0  0  0  0
    6.5997    2.1410    0.0000 C   0  0  0  0  0  0  0  0  0  0  0  0
  2  8  2  0  0  0  0
  3  2  1  0  0  0  0
  4  6  2  0  0  0  0
  5  1  1  0  0  0  0
  6  5  1  0  0  0  0
  7  3  1  0  0  0  0
  8 13  1  0  0  0  0
  9  1  1  0  0  0  0
 10  1  2  0  0  0  0
 11  3  2  0  0  0  0
 12  7  1  0  0  0  0
 13  5  2  0  0  0  0
 14 12  2  0  0  0  0
 15  4  1  0  0  0  0
 16 14  1  0  0  0  0
 17 16  1  0  0  0  0
 18 19  2  0  0  0  0
 19 12  1  0  0  0  0
 20 18  1  0  0  0  0
  4  2  1  0  0  0  0
 20 16  2  0  0  0  0
M  CHG  2   1   1   9  -1
M  END
>  <IDNUMBER>
F1175-0186

>  <Chemical_Name>
2-chloro-N-(3-hydroxyphenyl)-4-nitrobenzamide

>  <PriceCoeff>
1.00

>  <CAS>
313960-74-6

>  <MW>
292.67

>  <Description>
solid

>  <FSP3>
0.00

>  <clogP>
2.11

>  <TPSA>
92.47

>  <Acceptor>
4

>  <Donor>
2

>  <RotBonds>
3

>  <HAC>
20

>  <Collection>
General

$$$$
F1175-0217
  Mrv2219 10102508112D          

 22 23  0  0  0  0            999 V2000
    1.3496    5.7051    0.0000 N   0  3  0  0  0  0  0  0  0  0  0  0
    1.3643    4.8831    0.0000 C   0  0  0  0  0  0  0  0  0  0  0  0
    2.8120    3.2194    0.0000 C   0  0  0  0  0  0  0  0  0  0  0  0
    2.0833    4.4782    0.0000 C   0  0  0  0  0  0  0  0  0  0  0  0
    2.0833    3.6537    0.0000 C   0  0  0  0  0  0  0  0  0  0  0  0
    2.8120    2.3998    0.0000 N   0  0  0  0  0  0  0  0  0  0  0  0
    5.7443    0.8146    0.0000 C   0  0  0  0  0  0  0  0  0  0  0  0
    0.6797    4.5052    0.0000 C   0  0  0  0  0  0  0  0  0  0  0  0
    2.0489    6.1198    0.0000 O   0  5  0  0  0  0  0  0  0  0  0  0
    0.6257    6.0830    0.0000 O   0  0  0  0  0  0  0  0  0  0  0  0
    5.0008    1.1753    0.0000 C   0  0  0  0  0  0  0  0  0  0  0  0
    3.5507    3.6537    0.0000 O   0  0  0  0  0  0  0  0  0  0  0  0
    6.4584    1.2931    0.0000 O   0  0  0  0  0  0  0  0  0  0  0  0
    1.3643    3.2415    0.0000 C   0  0  0  0  0  0  0  0  0  0  0  0
    0.6503    3.6537    0.0000 C   0  0  0  0  0  0  0  0  0  0  0  0
    3.5507    1.9998    0.0000 C   0  0  0  0  0  0  0  0  0  0  0  0
    4.2647    0.7189    0.0000 C   0  0  0  0  0  0  0  0  0  0  0  0
    4.9714    1.9998    0.0000 C   0  0  0  0  0  0  0  0  0  0  0  0
    5.7296    0.0000    0.0000 O   0  0  0  0  0  0  0  0  0  0  0  0
    0.0000    4.9640    0.0000 Cl  0  0  0  0  0  0  0  0  0  0  0  0
    4.2647    2.3998    0.0000 C   0  0  0  0  0  0  0  0  0  0  0  0
    3.5507    1.1312    0.0000 C   0  0  0  0  0  0  0  0  0  0  0  0
  2  1  1  0  0  0  0
  3  5  1  0  0  0  0
  4  2  1  0  0  0  0
  5  4  2  0  0  0  0
  6  3  1  0  0  0  0
  7 11  1  0  0  0  0
  8  2  2  0  0  0  0
  9  1  1  0  0  0  0
 10  1  2  0  0  0  0
 11 17  2  0  0  0  0
 12  3  2  0  0  0  0
 13  7  2  0  0  0  0
 14 15  2  0  0  0  0
 15  8  1  0  0  0  0
 16  6  1  0  0  0  0
 17 22  1  0  0  0  0
 18 21  2  0  0  0  0
 19  7  1  0  0  0  0
 20  8  1  0  0  0  0
 21 16  1  0  0  0  0
 22 16  2  0  0  0  0
  5 14  1  0  0  0  0
 11 18  1  0  0  0  0
M  CHG  2   1   1   9  -1
M  END
>  <IDNUMBER>
F1175-0217

>  <Chemical_Name>
4-(4-chloro-3-nitrobenzamido)benzoic acid

>  <PriceCoeff>
1.00

>  <CAS>
313960-76-8

>  <MW>
320.68

>  <Description>
solid

>  <FSP3>
0.00

>  <clogP>
3.26

>  <TPSA>
109.54

>  <Acceptor>
5

>  <Donor>
1

>  <RotBonds>
4

>  <HAC>
22

>  <Collection>
General

>  <PPDS>
+

$$$$
F1175-0222
  Mrv2219 10102508112D          

 22 24  0  0  0  0            999 V2000
    4.5326    2.8605    0.0000 C   0  0  0  0  0  0  0  0  0  0  0  0
    0.8275    0.7120    0.0000 N   0  3  0  0  0  0  0  0  0  0  0  0
    1.2326    1.4339    0.0000 C   0  0  0  0  0  0  0  0  0  0  0  0
    5.0114    3.5308    0.0000 N   0  0  0  0  0  0  0  0  0  0  0  0
    3.7076    2.8605    0.0000 N   0  0  0  0  0  0  0  0  0  0  0  0
    5.0188    2.2000    0.0000 S   0  0  0  0  0  0  0  0  0  0  0  0
    3.2951    2.1558    0.0000 C   0  0  0  0  0  0  0  0  0  0  0  0
    2.0576    1.4339    0.0000 C   0  0  0  0  0  0  0  0  0  0  0  0
    2.4701    2.1484    0.0000 C   0  0  0  0  0  0  0  0  0  0  0  0
    5.7996    3.2779    0.0000 C   0  0  0  0  0  0  0  0  0  0  0  0
    5.7996    2.4480    0.0000 C   0  0  0  0  0  0  0  0  0  0  0  0
    0.8201    2.1411    0.0000 C   0  0  0  0  0  0  0  0  0  0  0  0
    0.0025    0.7120    0.0000 O   0  5  0  0  0  0  0  0  0  0  0  0
    1.2400    0.0000    0.0000 O   0  0  0  0  0  0  0  0  0  0  0  0
    3.7150    1.4413    0.0000 O   0  0  0  0  0  0  0  0  0  0  0  0
    2.0576    2.8531    0.0000 C   0  0  0  0  0  0  0  0  0  0  0  0
    1.2252    2.8531    0.0000 C   0  0  0  0  0  0  0  0  0  0  0  0
    0.0000    2.1411    0.0000 Cl  0  0  0  0  0  0  0  0  0  0  0  0
    6.5116    3.6904    0.0000 C   0  0  0  0  0  0  0  0  0  0  0  0
    6.5141    2.0453    0.0000 C   0  0  0  0  0  0  0  0  0  0  0  0
    7.2286    2.4480    0.0000 C   0  0  0  0  0  0  0  0  0  0  0  0
    7.2286    3.2779    0.0000 C   0  0  0  0  0  0  0  0  0  0  0  0
  2  3  1  0  0  0  0
  3  8  2  0  0  0  0
  4  1  2  0  0  0  0
  5  1  1  0  0  0  0
  6  1  1  0  0  0  0
  7  5  1  0  0  0  0
  8  9  1  0  0  0  0
  9  7  1  0  0  0  0
 10  4  1  0  0  0  0
 11  6  1  0  0  0  0
 12 17  2  0  0  0  0
 13  2  1  0  0  0  0
 14  2  2  0  0  0  0
 15  7  2  0  0  0  0
 16  9  2  0  0  0  0
 17 16  1  0  0  0  0
 18 12  1  0  0  0  0
 19 10  1  0  0  0  0
 20 11  1  0  0  0  0
 21 20  2  0  0  0  0
 22 19  2  0  0  0  0
 11 10  2  0  0  0  0
 21 22  1  0  0  0  0
 12  3  1  0  0  0  0
M  CHG  2   2   1  13  -1
M  END
>  <IDNUMBER>
F1175-0222

>  <Chemical_Name>
N-(1,3-benzothiazol-2-yl)-4-chloro-3-nitrobenzamide

>  <PriceCoeff>
1.00

>  <CAS>
312631-96-2

>  <MW>
333.75

>  <Description>
solid

>  <FSP3>
0.00

>  <clogP>
3.91

>  <TPSA>
113.37

>  <Acceptor>
4

>  <Donor>
1

>  <RotBonds>
3

>  <HAC>
22

>  <Collection>
General

>  <PPDS>
+

$$$$
F1175-0231
  Mrv2219 10102508112D          

 19 20  0  0  0  0            999 V2000
    0.8274    0.7120    0.0000 N   0  3  0  0  0  0  0  0  0  0  0  0
    1.2326    1.4339    0.0000 C   0  0  0  0  0  0  0  0  0  0  0  0
    3.2950    2.1557    0.0000 C   0  0  0  0  0  0  0  0  0  0  0  0
    3.7075    2.8604    0.0000 N   0  0  0  0  0  0  0  0  0  0  0  0
    2.0575    1.4339    0.0000 C   0  0  0  0  0  0  0  0  0  0  0  0
    2.4700    2.1483    0.0000 C   0  0  0  0  0  0  0  0  0  0  0  0
    0.8201    2.1410    0.0000 C   0  0  0  0  0  0  0  0  0  0  0  0
    0.0025    0.7120    0.0000 O   0  5  0  0  0  0  0  0  0  0  0  0
    1.2399    0.0000    0.0000 O   0  0  0  0  0  0  0  0  0  0  0  0
    3.7148    1.4412    0.0000 O   0  0  0  0  0  0  0  0  0  0  0  0
    4.5373    2.8604    0.0000 C   0  0  0  0  0  0  0  0  0  0  0  0
    3.2876    3.5798    0.0000 C   0  0  0  0  0  0  0  0  0  0  0  0
    2.0575    2.8530    0.0000 C   0  0  0  0  0  0  0  0  0  0  0  0
    1.2252    2.8530    0.0000 C   0  0  0  0  0  0  0  0  0  0  0  0
    0.0000    2.1410    0.0000 Cl  0  0  0  0  0  0  0  0  0  0  0  0
    3.7001    4.3090    0.0000 C   0  0  0  0  0  0  0  0  0  0  0  0
    4.9498    3.5822    0.0000 C   0  0  0  0  0  0  0  0  0  0  0  0
    4.5324    4.3090    0.0000 C   0  0  0  0  0  0  0  0  0  0  0  0
    4.9449    5.0235    0.0000 C   0  0  0  0  0  0  0  0  0  0  0  0
  2  1  1  0  0  0  0
  3  6  1  0  0  0  0
  4  3  1  0  0  0  0
  5  2  2  0  0  0  0
  6  5  1  0  0  0  0
  7  2  1  0  0  0  0
  8  1  1  0  0  0  0
  9  1  2  0  0  0  0
 10  3  2  0  0  0  0
 11  4  1  0  0  0  0
 12  4  1  0  0  0  0
 13 14  1  0  0  0  0
 14  7  2  0  0  0  0
 15  7  1  0  0  0  0
 16 12  1  0  0  0  0
 17 11  1  0  0  0  0
 18 16  1  0  0  0  0
 19 18  1  0  0  0  0
 13  6  2  0  0  0  0
 18 17  1  0  0  0  0
M  CHG  2   1   1   8  -1
M  END
>  <IDNUMBER>
F1175-0231

>  <Chemical_Name>
1-(4-chloro-3-nitrobenzoyl)-4-methylpiperidine

>  <PriceCoeff>
1.00

>  <CAS>
321531-38-8

>  <MW>
282.72

>  <Description>
solid

>  <FSP3>
0.46

>  <clogP>
2.81

>  <TPSA>
63.45

>  <Acceptor>
3

>  <Donor>
0

>  <RotBonds>
3

>  <HAC>
19

>  <Collection>
General

>  <PPDS>
+

$$$$
F1190-0099
  Mrv2219 10102508112D          

 31 33  0  0  0  0            999 V2000
    2.9292   -1.2875    0.0000 C   0  0  0  0  0  0  0  0  0  0  0  0
    2.9292   -0.4625    0.0000 C   0  0  0  0  0  0  0  0  0  0  0  0
    2.2167   -0.0500    0.0000 C   0  0  0  0  0  0  0  0  0  0  0  0
    1.5042   -1.2875    0.0000 C   0  0  0  0  0  0  0  0  0  0  0  0
    2.2167   -1.7000    0.0000 C   0  0  0  0  0  0  0  0  0  0  0  0
    3.6417   -0.0500    0.0000 O   0  0  0  0  0  0  0  0  0  0  0  0
    3.6417   -1.7000    0.0000 C   0  0  0  0  0  0  0  0  0  0  0  0
    1.5042   -0.4625    0.0000 C   0  0  0  0  0  0  0  0  0  0  0  0
    4.3625   -0.4625    0.0000 C   0  0  0  0  0  0  0  0  0  0  0  0
    4.3625   -1.2875    0.0000 C   0  0  0  0  0  0  0  0  0  0  0  0
    2.2167    0.7750    0.0000 C   0  0  0  0  0  0  0  0  0  0  0  0
    0.7792   -1.7042    0.0000 C   0  0  0  0  0  0  0  0  0  0  0  0
    3.6417   -2.5250    0.0000 O   0  0  0  0  0  0  0  0  0  0  0  0
    5.0792   -0.0500    0.0000 C   0  0  0  0  0  0  0  0  0  0  0  0
    2.2167   -2.5250    0.0000 O   0  0  0  0  0  0  0  0  0  0  0  0
    2.9292    1.1875    0.0000 N   0  0  0  0  0  0  0  0  0  0  0  0
    0.0625   -1.2917    0.0000 N   0  0  0  0  0  0  0  0  0  0  0  0
    0.7792   -0.0500    0.0000 O   0  0  0  0  0  0  0  0  0  0  0  0
    5.0792    0.7833    0.0000 C   0  0  0  0  0  0  0  0  0  0  0  0
    5.7917   -0.4625    0.0000 C   0  0  0  0  0  0  0  0  0  0  0  0
    3.6417    0.7750    0.0000 C   0  0  0  0  0  0  0  0  0  0  0  0
    2.9292    2.0208    0.0000 C   0  0  0  0  0  0  0  0  0  0  0  0
    0.0542   -0.4667    0.0000 C   0  0  0  0  0  0  0  0  0  0  0  0
   -0.6500   -1.7125    0.0000 C   0  0  0  0  0  0  0  0  0  0  0  0
   -0.6583   -0.0542    0.0000 C   0  0  0  0  0  0  0  0  0  0  0  0
    4.3625    1.1875    0.0000 C   0  0  0  0  0  0  0  0  0  0  0  0
   -0.6458   -2.5375    0.0000 C   0  0  0  0  0  0  0  0  0  0  0  0
    2.2167    2.4333    0.0000 C   0  0  0  0  0  0  0  0  0  0  0  0
    6.5042   -0.0500    0.0000 C   0  0  0  0  0  0  0  0  0  0  0  0
    5.7917    1.1958    0.0000 C   0  0  0  0  0  0  0  0  0  0  0  0
    6.5042    0.7833    0.0000 C   0  0  0  0  0  0  0  0  0  0  0  0
  2  1  1  0  0  0  0
  3  2  2  0  0  0  0
  4  5  1  0  0  0  0
  5  1  2  0  0  0  0
  6  2  1  0  0  0  0
  7  1  1  0  0  0  0
  8  4  2  0  0  0  0
  9 10  2  0  0  0  0
 10  7  1  0  0  0  0
 11  3  1  0  0  0  0
 12  4  1  0  0  0  0
 13  7  2  0  0  0  0
 14  9  1  0  0  0  0
 15  5  1  0  0  0  0
 16 11  1  0  0  0  0
 17 12  1  0  0  0  0
 18  8  1  0  0  0  0
 19 14  1  0  0  0  0
 20 14  2  0  0  0  0
 21 16  1  0  0  0  0
 22 16  1  0  0  0  0
 23 17  1  0  0  0  0
 24 17  1  0  0  0  0
 25 23  1  0  0  0  0
 26 21  1  0  0  0  0
 27 24  1  0  0  0  0
 28 22  1  0  0  0  0
 29 20  1  0  0  0  0
 30 19  2  0  0  0  0
 31 29  2  0  0  0  0
  9  6  1  0  0  0  0
  8  3  1  0  0  0  0
 30 31  1  0  0  0  0
M  END
>  <IDNUMBER>
F1190-0099

>  <Chemical_Name>
6,8-bis[(diethylamino)methyl]-5,7-dihydroxy-2-phenyl-4H-chromen-4-one

>  <PriceCoeff>
1.00

>  <CAS>
384360-89-8

>  <MW>
424.53

>  <Description>
solid

>  <FSP3>
0.40

>  <clogP>
5.20

>  <TPSA>
73.24

>  <Acceptor>
4

>  <Donor>
4

>  <RotBonds>
9

>  <HAC>
31

>  <Collection>
General

>  <PPDS>
+

$$$$
F1190-0466
  Mrv2219 10102508112D          

 22 23  0  0  0  0            999 V2000
   -0.3833    0.8458    0.0000 C   0  0  0  0  0  0  0  0  0  0  0  0
    0.3292    1.2625    0.0000 C   0  0  0  0  0  0  0  0  0  0  0  0
   -1.1000    1.2583    0.0000 C   0  0  0  0  0  0  0  0  0  0  0  0
   -0.3833    0.0208    0.0000 C   0  0  0  0  0  0  0  0  0  0  0  0
   -1.8125    0.8458    0.0000 C   0  0  0  0  0  0  0  0  0  0  0  0
   -1.1000   -0.3917    0.0000 C   0  0  0  0  0  0  0  0  0  0  0  0
    3.1792    1.2708    0.0000 C   0  0  0  0  0  0  0  0  0  0  0  0
    1.0417    0.8583    0.0000 C   0  0  0  0  0  0  0  0  0  0  0  0
   -1.8125    0.0208    0.0000 C   0  0  0  0  0  0  0  0  0  0  0  0
    0.3250    2.0875    0.0000 O   0  0  0  0  0  0  0  0  0  0  0  0
    3.1792    2.0958    0.0000 C   0  0  0  0  0  0  0  0  0  0  0  0
    2.4667    0.8583    0.0000 C   0  0  0  0  0  0  0  0  0  0  0  0
    1.7542    1.2708    0.0000 C   0  0  0  0  0  0  0  0  0  0  0  0
    2.4625    2.5083    0.0000 C   0  0  0  0  0  0  0  0  0  0  0  0
   -1.1083    2.0833    0.0000 O   0  0  0  0  0  0  0  0  0  0  0  0
    0.3292   -0.3917    0.0000 O   0  0  0  0  0  0  0  0  0  0  0  0
    1.7500    2.0875    0.0000 C   0  0  0  0  0  0  0  0  0  0  0  0
    3.9000    0.8583    0.0000 O   0  0  0  0  0  0  0  0  0  0  0  0
   -2.5333   -0.3917    0.0000 O   0  0  0  0  0  0  0  0  0  0  0  0
    3.8917    2.5208    0.0000 O   0  0  0  0  0  0  0  0  0  0  0  0
    4.6125    1.2708    0.0000 C   0  0  0  0  0  0  0  0  0  0  0  0
    3.8917    3.3375    0.0000 C   0  0  0  0  0  0  0  0  0  0  0  0
  2  1  1  0  0  0  0
  3  1  2  0  0  0  0
  4  1  1  0  0  0  0
  5  3  1  0  0  0  0
  6  4  2  0  0  0  0
  7 12  1  0  0  0  0
  8  2  1  0  0  0  0
  9  6  1  0  0  0  0
 10  2  2  0  0  0  0
 11 14  1  0  0  0  0
 12 13  2  0  0  0  0
 13  8  1  0  0  0  0
 14 17  2  0  0  0  0
 15  3  1  0  0  0  0
 16  4  1  0  0  0  0
 17 13  1  0  0  0  0
 18  7  1  0  0  0  0
 19  9  1  0  0  0  0
 20 11  1  0  0  0  0
 21 18  1  0  0  0  0
 22 20  1  0  0  0  0
  9  5  2  0  0  0  0
 11  7  2  0  0  0  0
M  END
>  <IDNUMBER>
F1190-0466

>  <Chemical_Name>
2-(3,4-dimethoxyphenyl)-1-(2,4,6-trihydroxyphenyl)ethan-1-one

>  <PriceCoeff>
1.00

>  <CAS>
53084-06-3

>  <MW>
304.29

>  <Description>
solid

>  <FSP3>
0.19

>  <clogP>
2.22

>  <TPSA>
96.22

>  <Acceptor>
6

>  <Donor>
3

>  <RotBonds>
5

>  <HAC>
22

>  <Collection>
General

>  <PPDS>
+

$$$$
F1190-0476
  Mrv2219 10102508112D          

 23 25  0  0  0  0            999 V2000
    0.5167    1.6125    0.0000 C   0  0  0  0  0  0  0  0  0  0  0  0
   -0.2000    1.2083    0.0000 C   0  0  0  0  0  0  0  0  0  0  0  0
    0.5167    2.4458    0.0000 C   0  0  0  0  0  0  0  0  0  0  0  0
   -0.9125    1.6208    0.0000 C   0  0  0  0  0  0  0  0  0  0  0  0
   -0.9083    2.4458    0.0000 C   0  0  0  0  0  0  0  0  0  0  0  0
   -0.1958    2.8625    0.0000 O   0  0  0  0  0  0  0  0  0  0  0  0
    1.2292    1.2000    0.0000 C   0  0  0  0  0  0  0  0  0  0  0  0
    1.9417    1.6125    0.0000 C   0  0  0  0  0  0  0  0  0  0  0  0
   -1.6333    2.8625    0.0000 C   0  0  0  0  0  0  0  0  0  0  0  0
   -1.6333    1.2083    0.0000 C   0  0  0  0  0  0  0  0  0  0  0  0
    2.6542    1.1958    0.0000 C   0  0  0  0  0  0  0  0  0  0  0  0
   -0.2083    0.3833    0.0000 O   0  0  0  0  0  0  0  0  0  0  0  0
    1.2167    0.3833    0.0000 C   0  0  0  0  0  0  0  0  0  0  0  0
    2.6542    0.3708    0.0000 C   0  0  0  0  0  0  0  0  0  0  0  0
    1.9292   -0.0292    0.0000 C   0  0  0  0  0  0  0  0  0  0  0  0
   -2.3458    2.4583    0.0000 C   0  0  0  0  0  0  0  0  0  0  0  0
   -2.3458    1.6208    0.0000 C   0  0  0  0  0  0  0  0  0  0  0  0
    1.2375    2.8500    0.0000 C   0  0  0  0  0  0  0  0  0  0  0  0
    3.3667    1.6083    0.0000 O   0  0  0  0  0  0  0  0  0  0  0  0
    3.3625   -0.0417    0.0000 O   0  0  0  0  0  0  0  0  0  0  0  0
   -3.0583    2.8625    0.0000 O   0  0  0  0  0  0  0  0  0  0  0  0
    3.3750    2.4333    0.0000 C   0  0  0  0  0  0  0  0  0  0  0  0
    4.0792    0.3708    0.0000 C   0  0  0  0  0  0  0  0  0  0  0  0
  2  1  1  0  0  0  0
  3  1  2  0  0  0  0
  4  2  1  0  0  0  0
  5  6  1  0  0  0  0
  6  3  1  0  0  0  0
  7  1  1  0  0  0  0
  8  7  2  0  0  0  0
  9  5  2  0  0  0  0
 10  4  2  0  0  0  0
 11  8  1  0  0  0  0
 12  2  2  0  0  0  0
 13  7  1  0  0  0  0
 14 15  1  0  0  0  0
 15 13  2  0  0  0  0
 16  9  1  0  0  0  0
 17 10  1  0  0  0  0
 18  3  1  0  0  0  0
 19 11  1  0  0  0  0
 20 14  1  0  0  0  0
 21 16  1  0  0  0  0
 22 19  1  0  0  0  0
 23 20  1  0  0  0  0
  4  5  1  0  0  0  0
 14 11  2  0  0  0  0
 16 17  2  0  0  0  0
M  END
>  <IDNUMBER>
F1190-0476

>  <Chemical_Name>
3-(3,4-dimethoxyphenyl)-7-hydroxy-2-methyl-4H-chromen-4-one

>  <PriceCoeff>
1.00

>  <CAS>
54528-39-1

>  <MW>
312.32

>  <Description>
solid

>  <FSP3>
0.17

>  <clogP>
2.92

>  <TPSA>
64.99

>  <Acceptor>
5

>  <Donor>
1

>  <RotBonds>
3

>  <HAC>
23

>  <Collection>
General

>  <PPDS>
+

$$$$
F1190-0477
  Mrv2219 10102508112D          

 26 28  0  0  0  0            999 V2000
    0.5167    1.6125    0.0000 C   0  0  0  0  0  0  0  0  0  0  0  0
   -0.2000    1.2083    0.0000 C   0  0  0  0  0  0  0  0  0  0  0  0
    0.5167    2.4458    0.0000 C   0  0  0  0  0  0  0  0  0  0  0  0
   -0.9125    1.6208    0.0000 C   0  0  0  0  0  0  0  0  0  0  0  0
   -0.9083    2.4458    0.0000 C   0  0  0  0  0  0  0  0  0  0  0  0
   -0.1958    2.8625    0.0000 O   0  0  0  0  0  0  0  0  0  0  0  0
    1.2292    1.2000    0.0000 C   0  0  0  0  0  0  0  0  0  0  0  0
   -1.6333    2.8625    0.0000 C   0  0  0  0  0  0  0  0  0  0  0  0
    1.9417    1.6125    0.0000 C   0  0  0  0  0  0  0  0  0  0  0  0
   -1.6333    1.2083    0.0000 C   0  0  0  0  0  0  0  0  0  0  0  0
    2.6542    1.1958    0.0000 C   0  0  0  0  0  0  0  0  0  0  0  0
   -0.2083    0.3833    0.0000 O   0  0  0  0  0  0  0  0  0  0  0  0
   -3.7708    2.4583    0.0000 C   0  0  0  0  0  0  0  0  0  0  0  0
   -2.3458    2.4583    0.0000 C   0  0  0  0  0  0  0  0  0  0  0  0
    1.2167    0.3833    0.0000 C   0  0  0  0  0  0  0  0  0  0  0  0
    2.6542    0.3708    0.0000 C   0  0  0  0  0  0  0  0  0  0  0  0
   -3.0583    2.8625    0.0000 O   0  0  0  0  0  0  0  0  0  0  0  0
   -3.7708    1.6250    0.0000 O   0  0  0  0  0  0  0  0  0  0  0  0
    1.9292   -0.0292    0.0000 C   0  0  0  0  0  0  0  0  0  0  0  0
   -2.3458    1.6208    0.0000 C   0  0  0  0  0  0  0  0  0  0  0  0
    1.2375    2.8500    0.0000 C   0  0  0  0  0  0  0  0  0  0  0  0
    3.3667    1.6083    0.0000 O   0  0  0  0  0  0  0  0  0  0  0  0
    3.3625   -0.0417    0.0000 O   0  0  0  0  0  0  0  0  0  0  0  0
   -4.4875    2.8625    0.0000 C   0  0  0  0  0  0  0  0  0  0  0  0
    3.3750    2.4333    0.0000 C   0  0  0  0  0  0  0  0  0  0  0  0
    4.0792    0.3708    0.0000 C   0  0  0  0  0  0  0  0  0  0  0  0
  2  1  1  0  0  0  0
  3  1  2  0  0  0  0
  4  2  1  0  0  0  0
  5  6  1  0  0  0  0
  6  3  1  0  0  0  0
  7  1  1  0  0  0  0
  8  5  2  0  0  0  0
  9  7  2  0  0  0  0
 10  4  2  0  0  0  0
 11  9  1  0  0  0  0
 12  2  2  0  0  0  0
 13 17  1  0  0  0  0
 14  8  1  0  0  0  0
 15  7  1  0  0  0  0
 16 19  1  0  0  0  0
 17 14  1  0  0  0  0
 18 13  2  0  0  0  0
 19 15  2  0  0  0  0
 20 10  1  0  0  0  0
 21  3  1  0  0  0  0
 22 11  1  0  0  0  0
 23 16  1  0  0  0  0
 24 13  1  0  0  0  0
 25 22  1  0  0  0  0
 26 23  1  0  0  0  0
  4  5  1  0  0  0  0
 16 11  2  0  0  0  0
 14 20  2  0  0  0  0
M  END
>  <IDNUMBER>
F1190-0477

>  <Chemical_Name>
3-(3,4-dimethoxyphenyl)-2-methyl-4-oxo-4H-chromen-7-yl acetate

>  <PriceCoeff>
1.00

>  <CAS>
100064-10-6

>  <MW>
354.35

>  <Description>
solid

>  <FSP3>
0.20

>  <clogP>
2.38

>  <TPSA>
71.06

>  <Acceptor>
6

>  <Donor>
0

>  <RotBonds>
5

>  <HAC>
26

>  <Collection>
General

>  <PPDS>
+

$$$$
F1190-0490
  Mrv2219 10102508112D          

 22 24  0  0  0  0            999 V2000
    4.0162    0.9707    0.0000 C   0  0  0  0  0  0  0  0  0  0  0  0
    3.2996    1.3831    0.0000 C   0  0  0  0  0  0  0  0  0  0  0  0
    4.7412    1.3831    0.0000 C   0  0  0  0  0  0  0  0  0  0  0  0
    4.7412    2.2205    0.0000 C   0  0  0  0  0  0  0  0  0  0  0  0
    3.3038    2.2205    0.0000 C   0  0  0  0  0  0  0  0  0  0  0  0
    4.0162    2.6455    0.0000 O   0  0  0  0  0  0  0  0  0  0  0  0
    2.5872    0.9749    0.0000 C   0  0  0  0  0  0  0  0  0  0  0  0
    2.5872    2.6330    0.0000 C   0  0  0  0  0  0  0  0  0  0  0  0
    1.8748    1.3873    0.0000 C   0  0  0  0  0  0  0  0  0  0  0  0
    5.4536    0.9707    0.0000 C   0  0  0  0  0  0  0  0  0  0  0  0
    4.0162    0.1458    0.0000 O   0  0  0  0  0  0  0  0  0  0  0  0
    1.8748    2.2122    0.0000 C   0  0  0  0  0  0  0  0  0  0  0  0
    5.4411    0.1458    0.0000 C   0  0  0  0  0  0  0  0  0  0  0  0
    6.1618    1.3831    0.0000 C   0  0  0  0  0  0  0  0  0  0  0  0
    2.5872    0.1500    0.0000 O   0  0  0  0  0  0  0  0  0  0  0  0
    5.4536    2.6247    0.0000 C   0  0  0  0  0  0  0  0  0  0  0  0
    6.8742    0.1375    0.0000 C   0  0  0  0  0  0  0  0  0  0  0  0
    6.8742    0.9707    0.0000 C   0  0  0  0  0  0  0  0  0  0  0  0
    6.1535   -0.2667    0.0000 C   0  0  0  0  0  0  0  0  0  0  0  0
    1.1624    2.6247    0.0000 O   0  0  0  0  0  0  0  0  0  0  0  0
    7.5866   -0.2750    0.0000 O   0  0  0  0  0  0  0  0  0  0  0  0
    8.3032    0.1375    0.0000 C   0  0  0  0  0  0  0  0  0  0  0  0
  2  1  1  0  0  0  0
  3  1  1  0  0  0  0
  4  3  2  0  0  0  0
  5  2  1  0  0  0  0
  6  4  1  0  0  0  0
  7  2  2  0  0  0  0
  8  5  2  0  0  0  0
  9  7  1  0  0  0  0
 10  3  1  0  0  0  0
 11  1  2  0  0  0  0
 12  9  2  0  0  0  0
 13 10  2  0  0  0  0
 14 10  1  0  0  0  0
 15  7  1  0  0  0  0
 16  4  1  0  0  0  0
 17 18  1  0  0  0  0
 18 14  2  0  0  0  0
 19 13  1  0  0  0  0
 20 12  1  0  0  0  0
 21 17  1  0  0  0  0
 22 21  1  0  0  0  0
  6  5  1  0  0  0  0
 17 19  2  0  0  0  0
 12  8  1  0  0  0  0
M  END
>  <IDNUMBER>
F1190-0490

>  <Chemical_Name>
5,7-dihydroxy-3-(4-methoxyphenyl)-2-methyl-4H-chromen-4-one

>  <PriceCoeff>
1.00

>  <CAS>
62845-05-0

>  <MW>
298.29

>  <Description>
solid

>  <FSP3>
0.12

>  <clogP>
3.19

>  <TPSA>
75.99

>  <Acceptor>
5

>  <Donor>
2

>  <RotBonds>
2

>  <HAC>
22

>  <Collection>
General

>  <PPDS>
+

$$$$
F1190-0497
  Mrv2219 10102508112D          

 20 22  0  0  0  0            999 V2000
    2.6125    1.2458    0.0000 C   0  0  0  0  0  0  0  0  0  0  0  0
    1.1667    0.4083    0.0000 C   0  0  0  0  0  0  0  0  0  0  0  0
    1.8917    1.6625    0.0000 O   0  0  0  0  0  0  0  0  0  0  0  0
    1.8875   -0.0042    0.0000 C   0  0  0  0  0  0  0  0  0  0  0  0
    1.1750    1.2458    0.0000 C   0  0  0  0  0  0  0  0  0  0  0  0
    2.6125    0.4083    0.0000 C   0  0  0  0  0  0  0  0  0  0  0  0
    3.3250    1.6500    0.0000 C   0  0  0  0  0  0  0  0  0  0  0  0
    0.4542    0.0000    0.0000 C   0  0  0  0  0  0  0  0  0  0  0  0
    3.3292    2.4708    0.0000 C   0  0  0  0  0  0  0  0  0  0  0  0
    1.8875   -0.8292    0.0000 O   0  0  0  0  0  0  0  0  0  0  0  0
    0.4542    1.6583    0.0000 C   0  0  0  0  0  0  0  0  0  0  0  0
   -0.2583    0.4125    0.0000 C   0  0  0  0  0  0  0  0  0  0  0  0
    2.6042    2.8833    0.0000 F   0  0  0  0  0  0  0  0  0  0  0  0
   -0.2583    1.2375    0.0000 C   0  0  0  0  0  0  0  0  0  0  0  0
    4.0417    1.2333    0.0000 C   0  0  0  0  0  0  0  0  0  0  0  0
   -0.9708    0.0000    0.0000 O   0  0  0  0  0  0  0  0  0  0  0  0
    4.0417    2.8833    0.0000 C   0  0  0  0  0  0  0  0  0  0  0  0
   -0.9708   -0.8250    0.0000 C   0  0  0  0  0  0  0  0  0  0  0  0
    4.7542    1.6458    0.0000 C   0  0  0  0  0  0  0  0  0  0  0  0
    4.7542    2.4708    0.0000 C   0  0  0  0  0  0  0  0  0  0  0  0
  2  4  1  0  0  0  0
  3  1  1  0  0  0  0
  4  6  1  0  0  0  0
  5  3  1  0  0  0  0
  6  1  1  0  0  0  0
  7  1  1  0  0  0  0
  8  2  2  0  0  0  0
  9  7  1  0  0  0  0
 10  4  2  0  0  0  0
 11  5  2  0  0  0  0
 12  8  1  0  0  0  0
 13  9  1  0  0  0  0
 14 11  1  0  0  0  0
 15  7  2  0  0  0  0
 16 12  1  0  0  0  0
 17  9  2  0  0  0  0
 18 16  1  0  0  0  0
 19 15  1  0  0  0  0
 20 19  2  0  0  0  0
  2  5  1  0  0  0  0
 20 17  1  0  0  0  0
 12 14  2  0  0  0  0
M  END
>  <IDNUMBER>
F1190-0497

>  <Chemical_Name>
2-(2-fluorophenyl)-6-methoxy-3,4-dihydro-2H-1-benzopyran-4-one

>  <PriceCoeff>
1.00

>  <CAS>
510766-54-8

>  <MW>
272.27

>  <Description>
solid

>  <FSP3>
0.19

>  <clogP>
3.65

>  <TPSA>
35.53

>  <Acceptor>
3

>  <Donor>
0

>  <RotBonds>
2

>  <HAC>
20

>  <Collection>
General

>  <PPDS>
+

$$$$
F1190-0498
  Mrv2219 10102508112D          

 20 22  0  0  0  0            999 V2000
    2.6125    1.2458    0.0000 C   0  0  0  0  0  0  0  0  0  0  0  0
    1.1667    0.4083    0.0000 C   0  0  0  0  0  0  0  0  0  0  0  0
    1.8917    1.6625    0.0000 O   0  0  0  0  0  0  0  0  0  0  0  0
    1.8875   -0.0042    0.0000 C   0  0  0  0  0  0  0  0  0  0  0  0
    1.1750    1.2458    0.0000 C   0  0  0  0  0  0  0  0  0  0  0  0
    2.6125    0.4083    0.0000 C   0  0  0  0  0  0  0  0  0  0  0  0
    3.3250    1.6500    0.0000 C   0  0  0  0  0  0  0  0  0  0  0  0
    0.4542    0.0000    0.0000 C   0  0  0  0  0  0  0  0  0  0  0  0
    3.3292    2.4708    0.0000 C   0  0  0  0  0  0  0  0  0  0  0  0
    1.8875   -0.8292    0.0000 O   0  0  0  0  0  0  0  0  0  0  0  0
    0.4542    1.6583    0.0000 C   0  0  0  0  0  0  0  0  0  0  0  0
   -0.2583    0.4125    0.0000 C   0  0  0  0  0  0  0  0  0  0  0  0
    2.6042    2.8833    0.0000 Cl  0  0  0  0  0  0  0  0  0  0  0  0
   -0.2583    1.2375    0.0000 C   0  0  0  0  0  0  0  0  0  0  0  0
    4.0417    1.2333    0.0000 C   0  0  0  0  0  0  0  0  0  0  0  0
   -0.9708    0.0000    0.0000 O   0  0  0  0  0  0  0  0  0  0  0  0
    4.0417    2.8833    0.0000 C   0  0  0  0  0  0  0  0  0  0  0  0
   -0.9708   -0.8250    0.0000 C   0  0  0  0  0  0  0  0  0  0  0  0
    4.7542    1.6458    0.0000 C   0  0  0  0  0  0  0  0  0  0  0  0
    4.7542    2.4708    0.0000 C   0  0  0  0  0  0  0  0  0  0  0  0
  2  4  1  0  0  0  0
  3  1  1  0  0  0  0
  4  6  1  0  0  0  0
  5  3  1  0  0  0  0
  6  1  1  0  0  0  0
  7  1  1  0  0  0  0
  8  2  2  0  0  0  0
  9  7  1  0  0  0  0
 10  4  2  0  0  0  0
 11  5  2  0  0  0  0
 12  8  1  0  0  0  0
 13  9  1  0  0  0  0
 14 11  1  0  0  0  0
 15  7  2  0  0  0  0
 16 12  1  0  0  0  0
 17  9  2  0  0  0  0
 18 16  1  0  0  0  0
 19 15  1  0  0  0  0
 20 19  2  0  0  0  0
  2  5  1  0  0  0  0
 20 17  1  0  0  0  0
 12 14  2  0  0  0  0
M  END
>  <IDNUMBER>
F1190-0498

>  <Chemical_Name>
2-(2-chlorophenyl)-6-methoxy-3,4-dihydro-2H-1-benzopyran-4-one

>  <PriceCoeff>
1.00

>  <CAS>
101272-90-6

>  <MW>
288.73

>  <Description>
solid

>  <FSP3>
0.19

>  <clogP>
4.22

>  <TPSA>
35.53

>  <Acceptor>
3

>  <Donor>
0

>  <RotBonds>
2

>  <HAC>
20

>  <Collection>
General

>  <PPDS>
+

$$$$
F1190-0499
  Mrv2219 10102508112D          

 19 21  0  0  0  0            999 V2000
    2.6125    1.2458    0.0000 C   0  0  0  0  0  0  0  0  0  0  0  0
    1.1667    0.4083    0.0000 C   0  0  0  0  0  0  0  0  0  0  0  0
    1.8917    1.6625    0.0000 O   0  0  0  0  0  0  0  0  0  0  0  0
    1.8875   -0.0042    0.0000 C   0  0  0  0  0  0  0  0  0  0  0  0
    1.1750    1.2458    0.0000 C   0  0  0  0  0  0  0  0  0  0  0  0
    2.6125    0.4083    0.0000 C   0  0  0  0  0  0  0  0  0  0  0  0
    3.3250    1.6500    0.0000 C   0  0  0  0  0  0  0  0  0  0  0  0
    0.4542    0.0000    0.0000 C   0  0  0  0  0  0  0  0  0  0  0  0
    3.3292    2.4708    0.0000 C   0  0  0  0  0  0  0  0  0  0  0  0
    1.8875   -0.8292    0.0000 O   0  0  0  0  0  0  0  0  0  0  0  0
    0.4542    1.6583    0.0000 C   0  0  0  0  0  0  0  0  0  0  0  0
   -0.2583    0.4125    0.0000 C   0  0  0  0  0  0  0  0  0  0  0  0
    2.6042    2.8833    0.0000 Cl  0  0  0  0  0  0  0  0  0  0  0  0
   -0.2583    1.2375    0.0000 C   0  0  0  0  0  0  0  0  0  0  0  0
    4.0417    1.2333    0.0000 C   0  0  0  0  0  0  0  0  0  0  0  0
    4.0417    2.8833    0.0000 C   0  0  0  0  0  0  0  0  0  0  0  0
   -0.9708    0.0000    0.0000 C   0  0  0  0  0  0  0  0  0  0  0  0
    4.7542    1.6458    0.0000 C   0  0  0  0  0  0  0  0  0  0  0  0
    4.7542    2.4708    0.0000 C   0  0  0  0  0  0  0  0  0  0  0  0
  2  4  1  0  0  0  0
  3  1  1  0  0  0  0
  4  6  1  0  0  0  0
  5  3  1  0  0  0  0
  6  1  1  0  0  0  0
  7  1  1  0  0  0  0
  8  2  2  0  0  0  0
  9  7  1  0  0  0  0
 10  4  2  0  0  0  0
 11  5  2  0  0  0  0
 12  8  1  0  0  0  0
 13  9  1  0  0  0  0
 14 11  1  0  0  0  0
 15  7  2  0  0  0  0
 16  9  2  0  0  0  0
 17 12  1  0  0  0  0
 18 15  1  0  0  0  0
 19 18  2  0  0  0  0
  2  5  1  0  0  0  0
 19 16  1  0  0  0  0
 12 14  2  0  0  0  0
M  END
>  <IDNUMBER>
F1190-0499

>  <Chemical_Name>
2-(2-chlorophenyl)-6-methyl-3,4-dihydro-2H-1-benzopyran-4-one

>  <PriceCoeff>
1.00

>  <CAS>
610758-70-8

>  <MW>
272.73

>  <Description>
solid

>  <FSP3>
0.19

>  <clogP>
4.69

>  <TPSA>
26.30

>  <Acceptor>
2

>  <Donor>
0

>  <RotBonds>
1

>  <HAC>
19

>  <Collection>
General

>  <PPDS>
+

$$$$
F1190-0643
  Mrv2219 10102508112D          

 22 23  0  0  0  0            999 V2000
    2.8977   -4.2254    0.0000 C   0  0  0  0  0  0  0  0  0  0  0  0
    3.6117   -4.6388    0.0000 C   0  0  0  0  0  0  0  0  0  0  0  0
    4.3256   -4.2254    0.0000 C   0  0  0  0  0  0  0  0  0  0  0  0
    7.1941   -4.2338    0.0000 C   0  0  0  0  0  0  0  0  0  0  0  0
    5.0521   -4.6388    0.0000 C   0  0  0  0  0  0  0  0  0  0  0  0
    2.8977   -3.3945    0.0000 C   0  0  0  0  0  0  0  0  0  0  0  0
    2.1837   -4.6346    0.0000 C   0  0  0  0  0  0  0  0  0  0  0  0
    7.1941   -3.4070    0.0000 C   0  0  0  0  0  0  0  0  0  0  0  0
    6.4801   -4.6471    0.0000 C   0  0  0  0  0  0  0  0  0  0  0  0
    3.6117   -5.4655    0.0000 O   0  0  0  0  0  0  0  0  0  0  0  0
    5.7661   -4.2254    0.0000 C   0  0  0  0  0  0  0  0  0  0  0  0
    2.1837   -2.9812    0.0000 C   0  0  0  0  0  0  0  0  0  0  0  0
    6.4676   -2.9937    0.0000 C   0  0  0  0  0  0  0  0  0  0  0  0
    1.4697   -4.2212    0.0000 C   0  0  0  0  0  0  0  0  0  0  0  0
    5.7536   -3.4070    0.0000 C   0  0  0  0  0  0  0  0  0  0  0  0
    1.4697   -3.3945    0.0000 C   0  0  0  0  0  0  0  0  0  0  0  0
    7.9081   -4.6471    0.0000 O   0  0  0  0  0  0  0  0  0  0  0  0
    3.6117   -2.9728    0.0000 O   0  0  0  0  0  0  0  0  0  0  0  0
    0.7558   -4.6346    0.0000 Cl  0  0  0  0  0  0  0  0  0  0  0  0
    7.9081   -2.9937    0.0000 O   0  0  0  0  0  0  0  0  0  0  0  0
    8.6220   -4.2338    0.0000 C   0  0  0  0  0  0  0  0  0  0  0  0
    7.9081   -2.1670    0.0000 C   0  0  0  0  0  0  0  0  0  0  0  0
  2  1  1  0  0  0  0
  3  2  1  0  0  0  0
  4  9  1  0  0  0  0
  5  3  2  0  0  0  0
  6  1  1  0  0  0  0
  7  1  2  0  0  0  0
  8 13  1  0  0  0  0
  9 11  2  0  0  0  0
 10  2  2  0  0  0  0
 11  5  1  0  0  0  0
 12  6  2  0  0  0  0
 13 15  2  0  0  0  0
 14  7  1  0  0  0  0
 15 11  1  0  0  0  0
 16 14  2  0  0  0  0
 17  4  1  0  0  0  0
 18  6  1  0  0  0  0
 19 14  1  0  0  0  0
 20  8  1  0  0  0  0
 21 17  1  0  0  0  0
 22 20  1  0  0  0  0
 12 16  1  0  0  0  0
  4  8  2  0  0  0  0
M  END
>  <IDNUMBER>
F1190-0643

>  <Chemical_Name>
(2E)-1-(5-chloro-2-hydroxyphenyl)-3-(3,4-dimethoxyphenyl)prop-2-en-1-one

>  <PriceCoeff>
1.00

>  <CAS>
104236-76-2

>  <MW>
318.75

>  <Description>
solid

>  <FSP3>
0.12

>  <clogP>
4.46

>  <TPSA>
55.76

>  <Acceptor>
4

>  <Donor>
1

>  <RotBonds>
5

>  <HAC>
22

>  <Collection>
General

>  <PPDS>
+

$$$$
F1191-0074
  Mrv2219 10102508112D          

 16 17  0  0  0  0            999 V2000
   -0.7000    0.0625    0.0000 C   0  0  0  0  0  0  0  0  0  0  0  0
   -0.7000    0.8875    0.0000 C   0  0  0  0  0  0  0  0  0  0  0  0
   -1.4208   -0.3417    0.0000 N   0  0  0  0  0  0  0  0  0  0  0  0
    0.0750   -0.1917    0.0000 N   0  0  0  0  0  0  0  0  0  0  0  0
   -2.1500    0.0625    0.0000 C   0  0  0  0  0  0  0  0  0  0  0  0
   -2.1500    0.8875    0.0000 N   0  0  0  0  0  0  0  0  0  0  0  0
   -1.4208    1.3083    0.0000 C   0  0  0  0  0  0  0  0  0  0  0  0
    0.5500    0.4875    0.0000 C   0  0  0  0  0  0  0  0  0  0  0  0
    0.1292    1.2083    0.0000 N   0  0  0  0  0  0  0  0  0  0  0  0
   -2.8833   -0.3417    0.0000 O   0  0  0  0  0  0  0  0  0  0  0  0
   -1.4208    2.1333    0.0000 O   0  0  0  0  0  0  0  0  0  0  0  0
    1.3667    0.4875    0.0000 N   0  0  0  0  0  0  0  0  0  0  0  0
   -1.4208   -1.1667    0.0000 C   0  0  0  0  0  0  0  0  0  0  0  0
    3.0042    0.4833    0.0000 O   0  0  0  0  0  0  0  0  0  0  0  0
    1.7792   -0.2167    0.0000 C   0  0  0  0  0  0  0  0  0  0  0  0
    2.5917   -0.2167    0.0000 C   0  0  0  0  0  0  0  0  0  0  0  0
  2  1  2  0  0  0  0
  3  1  1  0  0  0  0
  4  1  1  0  0  0  0
  5  3  1  0  0  0  0
  6  5  1  0  0  0  0
  7  2  1  0  0  0  0
  8  4  2  0  0  0  0
  9  2  1  0  0  0  0
 10  5  2  0  0  0  0
 11  7  2  0  0  0  0
 12  8  1  0  0  0  0
 13  3  1  0  0  0  0
 14 16  1  0  0  0  0
 15 12  1  0  0  0  0
 16 15  1  0  0  0  0
  9  8  1  0  0  0  0
  7  6  1  0  0  0  0
M  END
>  <IDNUMBER>
F1191-0074

>  <Chemical_Name>
8-[(2-hydroxyethyl)amino]-3-methyl-2,3,6,7-tetrahydro-1H-purine-2,6-dione

>  <PriceCoeff>
1.00

>  <CAS>
625822-51-7

>  <MW>
225.21

>  <Description>
solid

>  <FSP3>
0.38

>  <clogP>
-0.86

>  <TPSA>
110.35

>  <Acceptor>
5

>  <Donor>
5

>  <RotBonds>
3

>  <HAC>
16

>  <Collection>
General

>  <PPDS>
+

$$$$
F1192-0005
  Mrv2219 10102508112D          

 24 27  0  0  0  0            999 V2000
    1.9917   -1.0375    0.0000 N   0  0  0  0  0  0  0  0  0  0  0  0
    2.4750   -1.7042    0.0000 C   0  0  0  0  0  0  0  0  0  0  0  0
    3.2625   -1.4542    0.0000 C   0  0  0  0  0  0  0  0  0  0  0  0
    2.4750   -0.3667    0.0000 C   0  0  0  0  0  0  0  0  0  0  0  0
    3.9667   -1.8625    0.0000 N   0  0  0  0  0  0  0  0  0  0  0  0
    3.2625   -0.6292    0.0000 C   0  0  0  0  0  0  0  0  0  0  0  0
    1.1667   -1.0375    0.0000 C   0  0  0  0  0  0  0  0  0  0  0  0
    4.6750   -1.4417    0.0000 C   0  0  0  0  0  0  0  0  0  0  0  0
    2.2167   -2.4917    0.0000 O   0  0  0  0  0  0  0  0  0  0  0  0
    2.2167    0.4125    0.0000 O   0  0  0  0  0  0  0  0  0  0  0  0
    0.7542   -1.7542    0.0000 C   0  0  0  0  0  0  0  0  0  0  0  0
    5.3875   -1.8625    0.0000 C   0  0  0  0  0  0  0  0  0  0  0  0
    3.9667   -2.6792    0.0000 C   0  0  0  0  0  0  0  0  0  0  0  0
    1.1667   -2.4667    0.0000 Cl  0  0  0  0  0  0  0  0  0  0  0  0
    4.6750   -0.6250    0.0000 C   0  0  0  0  0  0  0  0  0  0  0  0
    0.7542   -0.3167    0.0000 C   0  0  0  0  0  0  0  0  0  0  0  0
    4.6750   -3.0917    0.0000 C   0  0  0  0  0  0  0  0  0  0  0  0
    5.3875   -2.6792    0.0000 C   0  0  0  0  0  0  0  0  0  0  0  0
    6.1000   -1.4542    0.0000 C   0  0  0  0  0  0  0  0  0  0  0  0
   -0.0708   -1.7500    0.0000 C   0  0  0  0  0  0  0  0  0  0  0  0
    5.3917   -0.2167    0.0000 C   0  0  0  0  0  0  0  0  0  0  0  0
   -0.0708   -0.3167    0.0000 C   0  0  0  0  0  0  0  0  0  0  0  0
    6.1042   -0.6292    0.0000 C   0  0  0  0  0  0  0  0  0  0  0  0
   -0.4833   -1.0292    0.0000 C   0  0  0  0  0  0  0  0  0  0  0  0
  2  1  1  0  0  0  0
  3  2  1  0  0  0  0
  4  1  1  0  0  0  0
  5  3  1  0  0  0  0
  6  4  1  0  0  0  0
  7  1  1  0  0  0  0
  8  5  1  0  0  0  0
  9  2  2  0  0  0  0
 10  4  2  0  0  0  0
 11  7  1  0  0  0  0
 12  8  2  0  0  0  0
 13  5  1  0  0  0  0
 14 11  1  0  0  0  0
 15  8  1  0  0  0  0
 16  7  2  0  0  0  0
 17 13  1  0  0  0  0
 18 17  1  0  0  0  0
 19 12  1  0  0  0  0
 20 11  2  0  0  0  0
 21 15  2  0  0  0  0
 22 16  1  0  0  0  0
 23 21  1  0  0  0  0
 24 22  2  0  0  0  0
  3  6  1  0  0  0  0
 20 24  1  0  0  0  0
 12 18  1  0  0  0  0
 19 23  2  0  0  0  0
M  END
>  <IDNUMBER>
F1192-0005

>  <Chemical_Name>
1-(2-chlorophenyl)-3-(1,2,3,4-tetrahydroquinolin-1-yl)pyrrolidine-2,5-dione

>  <PriceCoeff>
1.00

>  <CAS>
290829-45-7

>  <MW>
340.80

>  <Description>
solid

>  <FSP3>
0.26

>  <clogP>
4.04

>  <TPSA>
40.62

>  <Acceptor>
3

>  <Donor>
1

>  <RotBonds>
2

>  <HAC>
24

>  <Collection>
General

>  <PPDS>
+

$$$$
F1198-0001
  Mrv2219 10102508112D          

 29 31  0  0  0  0            999 V2000
   -0.4996    1.0493    0.0000 C   0  0  0  0  0  0  0  0  0  0  0  0
   -0.2456    0.2706    0.0000 C   0  0  0  0  0  0  0  0  0  0  0  0
    0.8537    1.4948    0.0000 N   0  0  0  0  0  0  0  0  0  0  0  0
    1.1118    0.7078    0.0000 C   0  0  0  0  0  0  0  0  0  0  0  0
    0.5538    0.0957    0.0000 N   0  0  0  0  0  0  0  0  0  0  0  0
    0.0417    1.6614    0.0000 C   0  0  0  0  0  0  0  0  0  0  0  0
   -0.9119   -0.2165    0.0000 S   0  0  0  0  0  0  0  0  0  0  0  0
   -1.3241    1.0493    0.0000 C   0  0  0  0  0  0  0  0  0  0  0  0
   -1.5822    0.2623    0.0000 C   0  0  0  0  0  0  0  0  0  0  0  0
    1.9154    0.5454    0.0000 S   0  0  0  0  0  0  0  0  0  0  0  0
    2.9772   -0.4122    0.0000 C   0  0  0  0  0  0  0  0  0  0  0  0
    1.4033    2.1110    0.0000 C   0  0  0  0  0  0  0  0  0  0  0  0
   -0.2123    2.4567    0.0000 O   0  0  0  0  0  0  0  0  0  0  0  0
    3.5268    0.1999    0.0000 N   0  0  0  0  0  0  0  0  0  0  0  0
    2.1736   -0.2415    0.0000 C   0  0  0  0  0  0  0  0  0  0  0  0
    3.2395   -1.1909    0.0000 O   0  0  0  0  0  0  0  0  0  0  0  0
   -1.8112    1.7196    0.0000 C   0  0  0  0  0  0  0  0  0  0  0  0
   -2.3692    0.0083    0.0000 C   0  0  0  0  0  0  0  0  0  0  0  0
    3.5642    2.3817    0.0000 O   0  0  0  0  0  0  0  0  0  0  0  0
    5.6961    0.4746    0.0000 O   0  0  0  0  0  0  0  0  0  0  0  0
    4.3388    0.0333    0.0000 C   0  0  0  0  0  0  0  0  0  0  0  0
    3.2770    0.9827    0.0000 C   0  0  0  0  0  0  0  0  0  0  0  0
    2.2110    1.9444    0.0000 C   0  0  0  0  0  0  0  0  0  0  0  0
    1.1409    2.8938    0.0000 C   0  0  0  0  0  0  0  0  0  0  0  0
    4.8884    0.6453    0.0000 C   0  0  0  0  0  0  0  0  0  0  0  0
    3.8266    1.5989    0.0000 C   0  0  0  0  0  0  0  0  0  0  0  0
    1.6905    3.5059    0.0000 C   0  0  0  0  0  0  0  0  0  0  0  0
    2.7606    2.5566    0.0000 C   0  0  0  0  0  0  0  0  0  0  0  0
    2.5025    3.3435    0.0000 C   0  0  0  0  0  0  0  0  0  0  0  0
  2  1  2  0  0  0  0
  3  6  1  0  0  0  0
  4  3  1  0  0  0  0
  5  2  1  0  0  0  0
  6  1  1  0  0  0  0
  7  2  1  0  0  0  0
  8  1  1  0  0  0  0
  9  8  2  0  0  0  0
 10  4  1  0  0  0  0
 11 15  1  0  0  0  0
 12  3  1  0  0  0  0
 13  6  2  0  0  0  0
 14 11  1  0  0  0  0
 15 10  1  0  0  0  0
 16 11  2  0  0  0  0
 17  8  1  0  0  0  0
 18  9  1  0  0  0  0
 19 26  1  0  0  0  0
 20 25  1  0  0  0  0
 21 14  1  0  0  0  0
 22 14  1  0  0  0  0
 23 12  2  0  0  0  0
 24 12  1  0  0  0  0
 25 21  1  0  0  0  0
 26 22  1  0  0  0  0
 27 24  2  0  0  0  0
 28 23  1  0  0  0  0
 29 27  1  0  0  0  0
  9  7  1  0  0  0  0
  5  4  2  0  0  0  0
 28 29  2  0  0  0  0
M  END
>  <IDNUMBER>
F1198-0001

>  <Chemical_Name>
2-({5,6-dimethyl-4-oxo-3-phenyl-3H,4H-thieno[2,3-d]pyrimidin-2-yl}sulfanyl)-N,N-bis(2-hydroxyethyl)acetamide

>  <PriceCoeff>
1.00

>  <CAS>
457952-22-6

>  <MW>
433.54

>  <Description>
solid

>  <FSP3>
0.35

>  <clogP>
3.10

>  <TPSA>
146.98

>  <Acceptor>
5

>  <Donor>
2

>  <RotBonds>
9

>  <HAC>
29

>  <Collection>
General

>  <PPDS>
+

$$$$
F1199-0003
  Mrv2219 10102508112D          

 25 27  0  0  0  0            999 V2000
    1.6010   -0.6155    0.0000 N   0  0  0  0  0  0  0  0  0  0  0  0
    1.6883    0.2079    0.0000 C   0  0  0  0  0  0  0  0  0  0  0  0
    2.3578   -0.9481    0.0000 C   0  0  0  0  0  0  0  0  0  0  0  0
    2.9067   -0.3368    0.0000 C   0  0  0  0  0  0  0  0  0  0  0  0
    2.4950    0.3825    0.0000 C   0  0  0  0  0  0  0  0  0  0  0  0
    0.8982   -1.0271    0.0000 C   0  0  0  0  0  0  0  0  0  0  0  0
    4.8819   -1.2475    0.0000 C   0  0  0  0  0  0  0  0  0  0  0  0
    3.7218   -0.4159    0.0000 S   0  0  0  0  0  0  0  0  0  0  0  0
    4.0669   -1.1644    0.0000 C   0  0  0  0  0  0  0  0  0  0  0  0
    5.3560   -0.5780    0.0000 C   0  0  0  0  0  0  0  0  0  0  0  0
    0.1788   -0.6155    0.0000 C   0  0  0  0  0  0  0  0  0  0  0  0
    0.8982   -1.8588    0.0000 C   0  0  0  0  0  0  0  0  0  0  0  0
    1.0770    0.7568    0.0000 O   0  0  0  0  0  0  0  0  0  0  0  0
    2.5324   -1.7507    0.0000 O   0  0  0  0  0  0  0  0  0  0  0  0
   -0.5322   -1.0354    0.0000 C   0  0  0  0  0  0  0  0  0  0  0  0
    5.0192    0.1747    0.0000 O   0  0  0  0  0  0  0  0  0  0  0  0
    0.1788    0.2079    0.0000 Br  0  0  0  0  0  0  0  0  0  0  0  0
    6.1793   -0.6529    0.0000 O   0  0  0  0  0  0  0  0  0  0  0  0
    0.1788   -2.2705    0.0000 C   0  0  0  0  0  0  0  0  0  0  0  0
   -0.5322   -1.8588    0.0000 C   0  0  0  0  0  0  0  0  0  0  0  0
    5.2188   -1.9960    0.0000 C   0  0  0  0  0  0  0  0  0  0  0  0
    3.5803   -1.8338    0.0000 C   0  0  0  0  0  0  0  0  0  0  0  0
   -1.2433   -2.2705    0.0000 C   0  0  0  0  0  0  0  0  0  0  0  0
    4.7405   -2.6697    0.0000 C   0  0  0  0  0  0  0  0  0  0  0  0
    3.9172   -2.5823    0.0000 C   0  0  0  0  0  0  0  0  0  0  0  0
  2  1  1  0  0  0  0
  3  1  1  0  0  0  0
  4  3  1  0  0  0  0
  5  2  1  0  0  0  0
  6  1  1  0  0  0  0
  7  9  1  0  0  0  0
  8  4  1  0  0  0  0
  9  8  1  0  0  0  0
 10  7  1  0  0  0  0
 11  6  2  0  0  0  0
 12  6  1  0  0  0  0
 13  2  2  0  0  0  0
 14  3  2  0  0  0  0
 15 11  1  0  0  0  0
 16 10  2  0  0  0  0
 17 11  1  0  0  0  0
 18 10  1  0  0  0  0
 19 12  2  0  0  0  0
 20 19  1  0  0  0  0
 21  7  2  0  0  0  0
 22  9  2  0  0  0  0
 23 20  1  0  0  0  0
 24 25  2  0  0  0  0
 25 22  1  0  0  0  0
  5  4  1  0  0  0  0
 20 15  2  0  0  0  0
 24 21  1  0  0  0  0
M  END
>  <IDNUMBER>
F1199-0003

>  <Chemical_Name>
2-{[1-(2-bromo-4-methylphenyl)-2,5-dioxopyrrolidin-3-yl]sulfanyl}benzoic acid

>  <PriceCoeff>
1.00

>  <CAS>
433329-57-8

>  <MW>
420.28

>  <Description>
solid

>  <FSP3>
0.17

>  <clogP>
3.25

>  <TPSA>
99.98

>  <Acceptor>
4

>  <Donor>
0

>  <RotBonds>
4

>  <HAC>
25

>  <Collection>
General

>  <PPDS>
+

$$$$
F1199-0004
  Mrv2219 10102508112D          

 27 29  0  0  0  0            999 V2000
    1.6326   -0.9770    0.0000 N   0  0  0  0  0  0  0  0  0  0  0  0
    1.7160   -0.1545    0.0000 C   0  0  0  0  0  0  0  0  0  0  0  0
    2.3841   -1.3069    0.0000 C   0  0  0  0  0  0  0  0  0  0  0  0
    2.9353   -0.6931    0.0000 C   0  0  0  0  0  0  0  0  0  0  0  0
    2.5219    0.0208    0.0000 C   0  0  0  0  0  0  0  0  0  0  0  0
    0.9186   -1.3946    0.0000 C   0  0  0  0  0  0  0  0  0  0  0  0
    4.9227   -1.6075    0.0000 C   0  0  0  0  0  0  0  0  0  0  0  0
    3.7620   -0.7808    0.0000 S   0  0  0  0  0  0  0  0  0  0  0  0
    4.1002   -1.5324    0.0000 C   0  0  0  0  0  0  0  0  0  0  0  0
    5.4029   -0.9394    0.0000 C   0  0  0  0  0  0  0  0  0  0  0  0
    0.2046   -0.9812    0.0000 C   0  0  0  0  0  0  0  0  0  0  0  0
    0.2004   -0.1545    0.0000 O   0  0  0  0  0  0  0  0  0  0  0  0
   -0.5136    0.2588    0.0000 C   0  0  0  0  0  0  0  0  0  0  0  0
    1.1023    0.3966    0.0000 O   0  0  0  0  0  0  0  0  0  0  0  0
    2.5595   -2.1211    0.0000 O   0  0  0  0  0  0  0  0  0  0  0  0
    5.0605   -0.1796    0.0000 O   0  0  0  0  0  0  0  0  0  0  0  0
   -0.5219    1.0855    0.0000 F   0  0  0  0  0  0  0  0  0  0  0  0
   -1.2359   -0.1545    0.0000 F   0  0  0  0  0  0  0  0  0  0  0  0
    6.2254   -1.0188    0.0000 O   0  0  0  0  0  0  0  0  0  0  0  0
    5.2651   -2.3591    0.0000 C   0  0  0  0  0  0  0  0  0  0  0  0
    0.9186   -2.2213    0.0000 C   0  0  0  0  0  0  0  0  0  0  0  0
    3.6117   -2.1962    0.0000 C   0  0  0  0  0  0  0  0  0  0  0  0
   -0.5094   -1.3946    0.0000 C   0  0  0  0  0  0  0  0  0  0  0  0
    4.7766   -3.0355    0.0000 C   0  0  0  0  0  0  0  0  0  0  0  0
    0.2046   -2.6346    0.0000 C   0  0  0  0  0  0  0  0  0  0  0  0
    3.9499   -2.9478    0.0000 C   0  0  0  0  0  0  0  0  0  0  0  0
   -0.5094   -2.2213    0.0000 C   0  0  0  0  0  0  0  0  0  0  0  0
  2  1  1  0  0  0  0
  3  1  1  0  0  0  0
  4  3  1  0  0  0  0
  5  2  1  0  0  0  0
  6  1  1  0  0  0  0
  7  9  1  0  0  0  0
  8  4  1  0  0  0  0
  9  8  1  0  0  0  0
 10  7  1  0  0  0  0
 11  6  2  0  0  0  0
 12 11  1  0  0  0  0
 13 12  1  0  0  0  0
 14  2  2  0  0  0  0
 15  3  2  0  0  0  0
 16 10  2  0  0  0  0
 17 13  1  0  0  0  0
 18 13  1  0  0  0  0
 19 10  1  0  0  0  0
 20  7  2  0  0  0  0
 21  6  1  0  0  0  0
 22  9  2  0  0  0  0
 23 11  1  0  0  0  0
 24 26  2  0  0  0  0
 25 21  2  0  0  0  0
 26 22  1  0  0  0  0
 27 25  1  0  0  0  0
  5  4  1  0  0  0  0
 27 23  2  0  0  0  0
 24 20  1  0  0  0  0
M  END
>  <IDNUMBER>
F1199-0004

>  <Chemical_Name>
2-({1-[2-(difluoromethoxy)phenyl]-2,5-dioxopyrrolidin-3-yl}sulfanyl)benzoic acid

>  <PriceCoeff>
1.00

>  <CAS>
433700-13-1

>  <MW>
393.36

>  <Description>
solid

>  <FSP3>
0.17

>  <clogP>
2.61

>  <TPSA>
109.21

>  <Acceptor>
5

>  <Donor>
0

>  <RotBonds>
6

>  <HAC>
27

>  <Collection>
General

>  <PPDS>
+

$$$$
F1199-0005
  Mrv2219 10102508112D          

 27 29  0  0  0  0            999 V2000
   -0.2704   -0.0042    0.0000 N   0  0  0  0  0  0  0  0  0  0  0  0
   -0.1830    0.8114    0.0000 C   0  0  0  0  0  0  0  0  0  0  0  0
    0.4868   -0.3412    0.0000 C   0  0  0  0  0  0  0  0  0  0  0  0
   -0.9736   -0.4244    0.0000 C   0  0  0  0  0  0  0  0  0  0  0  0
   -1.6851   -2.4882    0.0000 N   0  3  0  0  0  0  0  0  0  0  0  0
    1.0360    0.2704    0.0000 C   0  0  0  0  0  0  0  0  0  0  0  0
    0.6241    0.9861    0.0000 C   0  0  0  0  0  0  0  0  0  0  0  0
   -0.9736   -1.2524    0.0000 C   0  0  0  0  0  0  0  0  0  0  0  0
    3.0125   -0.6408    0.0000 C   0  0  0  0  0  0  0  0  0  0  0  0
    1.8516    0.1872    0.0000 S   0  0  0  0  0  0  0  0  0  0  0  0
   -1.6934   -1.6644    0.0000 C   0  0  0  0  0  0  0  0  0  0  0  0
    2.1886   -0.5617    0.0000 C   0  0  0  0  0  0  0  0  0  0  0  0
    3.4868    0.0333    0.0000 C   0  0  0  0  0  0  0  0  0  0  0  0
   -2.4049   -2.9001    0.0000 O   0  5  0  0  0  0  0  0  0  0  0  0
   -1.6934   -0.0125    0.0000 C   0  0  0  0  0  0  0  0  0  0  0  0
   -0.7947    1.3606    0.0000 O   0  0  0  0  0  0  0  0  0  0  0  0
   -0.9736   -2.9001    0.0000 O   0  0  0  0  0  0  0  0  0  0  0  0
    0.6616   -1.1484    0.0000 O   0  0  0  0  0  0  0  0  0  0  0  0
    3.1498    0.7822    0.0000 O   0  0  0  0  0  0  0  0  0  0  0  0
   -2.4049   -1.2524    0.0000 C   0  0  0  0  0  0  0  0  0  0  0  0
   -2.4049   -0.4244    0.0000 C   0  0  0  0  0  0  0  0  0  0  0  0
    4.3107   -0.0499    0.0000 O   0  0  0  0  0  0  0  0  0  0  0  0
    3.3495   -1.3898    0.0000 C   0  0  0  0  0  0  0  0  0  0  0  0
    1.7101   -1.2275    0.0000 C   0  0  0  0  0  0  0  0  0  0  0  0
   -1.6934    0.8114    0.0000 C   0  0  0  0  0  0  0  0  0  0  0  0
    2.8710   -2.0638    0.0000 C   0  0  0  0  0  0  0  0  0  0  0  0
    2.0471   -1.9764    0.0000 C   0  0  0  0  0  0  0  0  0  0  0  0
  2  1  1  0  0  0  0
  3  1  1  0  0  0  0
  4  1  1  0  0  0  0
  5 11  1  0  0  0  0
  6  3  1  0  0  0  0
  7  2  1  0  0  0  0
  8  4  1  0  0  0  0
  9 12  1  0  0  0  0
 10  6  1  0  0  0  0
 11  8  2  0  0  0  0
 12 10  1  0  0  0  0
 13  9  1  0  0  0  0
 14  5  1  0  0  0  0
 15  4  2  0  0  0  0
 16  2  2  0  0  0  0
 17  5  2  0  0  0  0
 18  3  2  0  0  0  0
 19 13  2  0  0  0  0
 20 21  2  0  0  0  0
 21 15  1  0  0  0  0
 22 13  1  0  0  0  0
 23  9  2  0  0  0  0
 24 12  2  0  0  0  0
 25 15  1  0  0  0  0
 26 27  2  0  0  0  0
 27 24  1  0  0  0  0
  7  6  1  0  0  0  0
 11 20  1  0  0  0  0
 26 23  1  0  0  0  0
M  CHG  2   5   1  14  -1
M  END
>  <IDNUMBER>
F1199-0005

>  <Chemical_Name>
2-{[1-(2-methyl-5-nitrophenyl)-2,5-dioxopyrrolidin-3-yl]sulfanyl}benzoic acid

>  <PriceCoeff>
1.00

>  <CAS>
433701-85-0

>  <MW>
386.38

>  <Description>
solid

>  <FSP3>
0.17

>  <clogP>
2.51

>  <TPSA>
143.12

>  <Acceptor>
6

>  <Donor>
0

>  <RotBonds>
5

>  <HAC>
27

>  <Collection>
General

>  <PPDS>
+

$$$$
F1199-0027
  Mrv2219 10102508112D          

 27 30  0  0  0  0            999 V2000
    1.9039   -2.2839    0.0000 N   0  0  0  0  0  0  0  0  0  0  0  0
    2.6597   -1.9457    0.0000 C   0  0  0  0  0  0  0  0  0  0  0  0
    1.9833   -3.1106    0.0000 C   0  0  0  0  0  0  0  0  0  0  0  0
    2.7975   -3.2818    0.0000 C   0  0  0  0  0  0  0  0  0  0  0  0
    3.2108   -2.5595    0.0000 C   0  0  0  0  0  0  0  0  0  0  0  0
   -0.9603   -0.6305    0.0000 N   0  0  0  0  0  0  0  0  0  0  0  0
    3.1357   -4.0376    0.0000 N   0  0  0  0  0  0  0  0  0  0  0  0
    1.1816   -1.8706    0.0000 C   0  0  0  0  0  0  0  0  0  0  0  0
   -0.2463   -1.0439    0.0000 C   0  0  0  0  0  0  0  0  0  0  0  0
    2.8309   -1.1399    0.0000 O   0  0  0  0  0  0  0  0  0  0  0  0
    1.3695   -3.6618    0.0000 O   0  0  0  0  0  0  0  0  0  0  0  0
    0.4677   -2.2839    0.0000 C   0  0  0  0  0  0  0  0  0  0  0  0
    1.1816   -1.0439    0.0000 C   0  0  0  0  0  0  0  0  0  0  0  0
   -0.2463   -1.8706    0.0000 C   0  0  0  0  0  0  0  0  0  0  0  0
    0.4677   -0.6305    0.0000 C   0  0  0  0  0  0  0  0  0  0  0  0
    3.9582   -4.1210    0.0000 C   0  0  0  0  0  0  0  0  0  0  0  0
    5.5991   -4.2881    0.0000 C   0  0  0  0  0  0  0  0  0  0  0  0
    6.4175   -4.3758    0.0000 F   0  0  0  0  0  0  0  0  0  0  0  0
    4.4384   -3.4488    0.0000 C   0  0  0  0  0  0  0  0  0  0  0  0
    4.2881   -4.8768    0.0000 C   0  0  0  0  0  0  0  0  0  0  0  0
    5.1106   -4.9645    0.0000 C   0  0  0  0  0  0  0  0  0  0  0  0
    5.2526   -3.5365    0.0000 C   0  0  0  0  0  0  0  0  0  0  0  0
   -0.9603    0.1962    0.0000 C   0  0  0  0  0  0  0  0  0  0  0  0
   -1.6743   -1.0439    0.0000 C   0  0  0  0  0  0  0  0  0  0  0  0
   -1.6743    0.6096    0.0000 C   0  0  0  0  0  0  0  0  0  0  0  0
   -2.3882   -0.6305    0.0000 C   0  0  0  0  0  0  0  0  0  0  0  0
   -2.3882    0.1962    0.0000 C   0  0  0  0  0  0  0  0  0  0  0  0
  2  1  1  0  0  0  0
  3  1  1  0  0  0  0
  4  3  1  0  0  0  0
  5  2  1  0  0  0  0
  6  9  1  0  0  0  0
  7  4  1  0  0  0  0
  8  1  1  0  0  0  0
  9 15  1  0  0  0  0
 10  2  2  0  0  0  0
 11  3  2  0  0  0  0
 12  8  2  0  0  0  0
 13  8  1  0  0  0  0
 14 12  1  0  0  0  0
 15 13  2  0  0  0  0
 16  7  1  0  0  0  0
 17 21  2  0  0  0  0
 18 17  1  0  0  0  0
 19 16  1  0  0  0  0
 20 16  2  0  0  0  0
 21 20  1  0  0  0  0
 22 19  2  0  0  0  0
 23  6  1  0  0  0  0
 24  6  1  0  0  0  0
 25 23  1  0  0  0  0
 26 24  1  0  0  0  0
 27 26  1  0  0  0  0
  5  4  1  0  0  0  0
 14  9  2  0  0  0  0
 17 22  1  0  0  0  0
 27 25  1  0  0  0  0
M  END
>  <IDNUMBER>
F1199-0027

>  <Chemical_Name>
3-[(4-fluorophenyl)amino]-1-[4-(piperidin-1-yl)phenyl]pyrrolidine-2,5-dione

>  <PriceCoeff>
1.00

>  <CAS>
1009519-68-9

>  <MW>
367.42

>  <Description>
solid

>  <FSP3>
0.33

>  <clogP>
3.77

>  <TPSA>
52.65

>  <Acceptor>
4

>  <Donor>
2

>  <RotBonds>
4

>  <HAC>
27

>  <Collection>
General

>  <PPDS>
+

$$$$
F1199-0032
  Mrv2219 10102508112D          

 27 29  0  0  0  0            999 V2000
    2.3797   -1.0696    0.0000 N   0  0  0  0  0  0  0  0  0  0  0  0
    3.1384   -0.7338    0.0000 C   0  0  0  0  0  0  0  0  0  0  0  0
    2.4668   -1.8905    0.0000 C   0  0  0  0  0  0  0  0  0  0  0  0
    3.2752   -2.0563    0.0000 C   0  0  0  0  0  0  0  0  0  0  0  0
    3.6856   -1.3432    0.0000 C   0  0  0  0  0  0  0  0  0  0  0  0
    4.7635   -3.6483    0.0000 C   0  0  0  0  0  0  0  0  0  0  0  0
   -0.4809    0.5804    0.0000 C   0  0  0  0  0  0  0  0  0  0  0  0
    3.6110   -2.8150    0.0000 S   0  0  0  0  0  0  0  0  0  0  0  0
    4.4318   -2.8979    0.0000 C   0  0  0  0  0  0  0  0  0  0  0  0
    4.2826   -4.3199    0.0000 C   0  0  0  0  0  0  0  0  0  0  0  0
    1.6666   -0.6592    0.0000 C   0  0  0  0  0  0  0  0  0  0  0  0
    0.2363    0.1699    0.0000 C   0  0  0  0  0  0  0  0  0  0  0  0
    3.3083    0.0746    0.0000 O   0  0  0  0  0  0  0  0  0  0  0  0
    1.8532   -2.4419    0.0000 O   0  0  0  0  0  0  0  0  0  0  0  0
    4.6142   -5.0661    0.0000 O   0  0  0  0  0  0  0  0  0  0  0  0
    1.6583    0.1699    0.0000 C   0  0  0  0  0  0  0  0  0  0  0  0
    0.9494   -1.0696    0.0000 C   0  0  0  0  0  0  0  0  0  0  0  0
    0.9494    0.5804    0.0000 C   0  0  0  0  0  0  0  0  0  0  0  0
    0.2363   -0.6592    0.0000 C   0  0  0  0  0  0  0  0  0  0  0  0
   -1.1276    0.9577    0.0000 F   0  0  0  0  0  0  0  0  0  0  0  0
   -0.6094    1.4261    0.0000 F   0  0  0  0  0  0  0  0  0  0  0  0
   -1.2769    0.2819    0.0000 F   0  0  0  0  0  0  0  0  0  0  0  0
    3.4617   -4.2328    0.0000 O   0  0  0  0  0  0  0  0  0  0  0  0
    5.5843   -3.7354    0.0000 C   0  0  0  0  0  0  0  0  0  0  0  0
    4.9127   -2.2304    0.0000 C   0  0  0  0  0  0  0  0  0  0  0  0
    6.0694   -3.0720    0.0000 C   0  0  0  0  0  0  0  0  0  0  0  0
    5.7253   -2.3175    0.0000 C   0  0  0  0  0  0  0  0  0  0  0  0
  2  1  1  0  0  0  0
  3  1  1  0  0  0  0
  4  3  1  0  0  0  0
  5  2  1  0  0  0  0
  6  9  2  0  0  0  0
  7 12  1  0  0  0  0
  8  4  1  0  0  0  0
  9  8  1  0  0  0  0
 10  6  1  0  0  0  0
 11  1  1  0  0  0  0
 12 19  2  0  0  0  0
 13  2  2  0  0  0  0
 14  3  2  0  0  0  0
 15 10  2  0  0  0  0
 16 11  1  0  0  0  0
 17 11  2  0  0  0  0
 18 16  2  0  0  0  0
 19 17  1  0  0  0  0
 20  7  1  0  0  0  0
 21  7  1  0  0  0  0
 22  7  1  0  0  0  0
 23 10  1  0  0  0  0
 24  6  1  0  0  0  0
 25  9  1  0  0  0  0
 26 27  1  0  0  0  0
 27 25  2  0  0  0  0
  5  4  1  0  0  0  0
 12 18  1  0  0  0  0
 26 24  2  0  0  0  0
M  END
>  <IDNUMBER>
F1199-0032

>  <Chemical_Name>
2-({2,5-dioxo-1-[4-(trifluoromethyl)phenyl]pyrrolidin-3-yl}sulfanyl)benzoic acid

>  <PriceCoeff>
1.00

>  <CAS>
433329-42-1

>  <MW>
395.35

>  <Description>
solid

>  <FSP3>
0.17

>  <clogP>
3.44

>  <TPSA>
99.98

>  <Acceptor>
4

>  <Donor>
0

>  <RotBonds>
4

>  <HAC>
27

>  <Collection>
General

>  <PPDS>
+

$$$$
F1199-0041
  Mrv2219 10102508112D          

 19 20  0  0  0  0            999 V2000
   -1.3812    1.1940    0.0000 N   0  0  0  0  0  0  0  0  0  0  0  0
   -1.1316    0.4077    0.0000 C   0  0  0  0  0  0  0  0  0  0  0  0
   -0.7197    1.6808    0.0000 C   0  0  0  0  0  0  0  0  0  0  0  0
   -0.3078    0.4077    0.0000 C   0  0  0  0  0  0  0  0  0  0  0  0
   -0.0499    1.1940    0.0000 C   0  0  0  0  0  0  0  0  0  0  0  0
    1.4770   -0.8404    0.0000 C   0  0  0  0  0  0  0  0  0  0  0  0
    0.1789   -0.2538    0.0000 S   0  0  0  0  0  0  0  0  0  0  0  0
    0.9985   -0.1665    0.0000 C   0  0  0  0  0  0  0  0  0  0  0  0
    1.1400   -1.5893    0.0000 C   0  0  0  0  0  0  0  0  0  0  0  0
   -1.6184   -0.2538    0.0000 O   0  0  0  0  0  0  0  0  0  0  0  0
   -0.7197    2.5046    0.0000 O   0  0  0  0  0  0  0  0  0  0  0  0
    1.6143   -2.2633    0.0000 O   0  0  0  0  0  0  0  0  0  0  0  0
   -2.1676    1.4478    0.0000 C   0  0  0  0  0  0  0  0  0  0  0  0
    0.3162   -1.6767    0.0000 O   0  0  0  0  0  0  0  0  0  0  0  0
    2.2966   -0.7531    0.0000 C   0  0  0  0  0  0  0  0  0  0  0  0
    1.3272    0.5824    0.0000 C   0  0  0  0  0  0  0  0  0  0  0  0
   -2.3423    2.2549    0.0000 C   0  0  0  0  0  0  0  0  0  0  0  0
    2.6336    0.0000    0.0000 C   0  0  0  0  0  0  0  0  0  0  0  0
    2.1385    0.6698    0.0000 C   0  0  0  0  0  0  0  0  0  0  0  0
  2  1  1  0  0  0  0
  3  1  1  0  0  0  0
  4  2  1  0  0  0  0
  5  3  1  0  0  0  0
  6  8  2  0  0  0  0
  7  4  1  0  0  0  0
  8  7  1  0  0  0  0
  9  6  1  0  0  0  0
 10  2  2  0  0  0  0
 11  3  2  0  0  0  0
 12  9  2  0  0  0  0
 13  1  1  0  0  0  0
 14  9  1  0  0  0  0
 15  6  1  0  0  0  0
 16  8  1  0  0  0  0
 17 13  1  0  0  0  0
 18 19  1  0  0  0  0
 19 16  2  0  0  0  0
  5  4  1  0  0  0  0
 18 15  2  0  0  0  0
M  END
>  <IDNUMBER>
F1199-0041

>  <Chemical_Name>
2-[(1-ethyl-2,5-dioxopyrrolidin-3-yl)sulfanyl]benzoic acid

>  <PriceCoeff>
1.00

>  <CAS>
350030-47-6

>  <MW>
279.31

>  <Description>
solid

>  <FSP3>
0.31

>  <clogP>
1.77

>  <TPSA>
99.98

>  <Acceptor>
4

>  <Donor>
0

>  <RotBonds>
4

>  <HAC>
19

>  <Collection>
General

>  <PPDS>
+

$$$$
F1199-0046
  Mrv2219 10102508112D          

 21 22  0  0  0  0            999 V2000
    0.9769    0.1753    0.0000 N   0  0  0  0  0  0  0  0  0  0  0  0
    1.2274   -0.6137    0.0000 C   0  0  0  0  0  0  0  0  0  0  0  0
    1.6407    0.6595    0.0000 C   0  0  0  0  0  0  0  0  0  0  0  0
    2.0540   -0.6137    0.0000 C   0  0  0  0  0  0  0  0  0  0  0  0
    2.3086    0.1753    0.0000 C   0  0  0  0  0  0  0  0  0  0  0  0
    3.8449   -1.8661    0.0000 C   0  0  0  0  0  0  0  0  0  0  0  0
    2.5425   -1.2817    0.0000 S   0  0  0  0  0  0  0  0  0  0  0  0
    3.3607   -1.1940    0.0000 C   0  0  0  0  0  0  0  0  0  0  0  0
    3.5068   -2.6218    0.0000 C   0  0  0  0  0  0  0  0  0  0  0  0
    0.7431   -1.2817    0.0000 O   0  0  0  0  0  0  0  0  0  0  0  0
    1.6407    1.4862    0.0000 O   0  0  0  0  0  0  0  0  0  0  0  0
    3.9869   -3.2939    0.0000 O   0  0  0  0  0  0  0  0  0  0  0  0
    0.1921    0.4341    0.0000 C   0  0  0  0  0  0  0  0  0  0  0  0
    2.6844   -2.7053    0.0000 O   0  0  0  0  0  0  0  0  0  0  0  0
    4.6633   -1.7784    0.0000 C   0  0  0  0  0  0  0  0  0  0  0  0
    3.6946   -0.4425    0.0000 C   0  0  0  0  0  0  0  0  0  0  0  0
    0.0167    1.2357    0.0000 C   0  0  0  0  0  0  0  0  0  0  0  0
   -0.7723    1.4987    0.0000 C   0  0  0  0  0  0  0  0  0  0  0  0
    5.0014   -1.0187    0.0000 C   0  0  0  0  0  0  0  0  0  0  0  0
    4.5130   -0.3549    0.0000 C   0  0  0  0  0  0  0  0  0  0  0  0
   -0.9394    2.3002    0.0000 C   0  0  0  0  0  0  0  0  0  0  0  0
  2  1  1  0  0  0  0
  3  1  1  0  0  0  0
  4  2  1  0  0  0  0
  5  3  1  0  0  0  0
  6  8  2  0  0  0  0
  7  4  1  0  0  0  0
  8  7  1  0  0  0  0
  9  6  1  0  0  0  0
 10  2  2  0  0  0  0
 11  3  2  0  0  0  0
 12  9  2  0  0  0  0
 13  1  1  0  0  0  0
 14  9  1  0  0  0  0
 15  6  1  0  0  0  0
 16  8  1  0  0  0  0
 17 13  1  0  0  0  0
 18 17  1  0  0  0  0
 19 20  1  0  0  0  0
 20 16  2  0  0  0  0
 21 18  1  0  0  0  0
  5  4  1  0  0  0  0
 19 15  2  0  0  0  0
M  END
>  <IDNUMBER>
F1199-0046

>  <Chemical_Name>
2-[(1-butyl-2,5-dioxopyrrolidin-3-yl)sulfanyl]benzoic acid

>  <PriceCoeff>
1.00

>  <CAS>
459421-25-1

>  <MW>
307.36

>  <Description>
solid

>  <FSP3>
0.40

>  <clogP>
2.83

>  <TPSA>
99.98

>  <Acceptor>
4

>  <Donor>
0

>  <RotBonds>
6

>  <HAC>
21

>  <Collection>
General

>  <PPDS>
+

$$$$
F1199-0057
  Mrv2219 10102508112D          

 28 31  0  0  0  0            999 V2000
   -0.0457    0.3952    0.0000 N   0  0  0  0  0  0  0  0  0  0  0  0
   -0.8238    0.6490    0.0000 C   0  0  0  0  0  0  0  0  0  0  0  0
   -1.0817    1.4353    0.0000 C   0  0  0  0  0  0  0  0  0  0  0  0
    0.6241    0.8820    0.0000 C   0  0  0  0  0  0  0  0  0  0  0  0
   -1.4935    0.1705    0.0000 S   0  0  0  0  0  0  0  0  0  0  0  0
    0.2122   -0.3911    0.0000 C   0  0  0  0  0  0  0  0  0  0  0  0
   -1.9054    1.4436    0.0000 C   0  0  0  0  0  0  0  0  0  0  0  0
   -2.1592    0.6573    0.0000 C   0  0  0  0  0  0  0  0  0  0  0  0
    1.0359   -0.3911    0.0000 C   0  0  0  0  0  0  0  0  0  0  0  0
    1.2897    0.3952    0.0000 C   0  0  0  0  0  0  0  0  0  0  0  0
    2.8124   -1.6392    0.0000 C   0  0  0  0  0  0  0  0  0  0  0  0
    1.5144   -1.0526    0.0000 S   0  0  0  0  0  0  0  0  0  0  0  0
   -0.5949    2.1051    0.0000 C   0  0  0  0  0  0  0  0  0  0  0  0
    2.3382   -0.9652    0.0000 C   0  0  0  0  0  0  0  0  0  0  0  0
    2.4754   -2.3881    0.0000 C   0  0  0  0  0  0  0  0  0  0  0  0
   -0.1872    2.8165    0.0000 N   0  0  0  0  0  0  0  0  0  0  0  0
    0.6158    1.7057    0.0000 O   0  0  0  0  0  0  0  0  0  0  0  0
   -0.2746   -1.0526    0.0000 O   0  0  0  0  0  0  0  0  0  0  0  0
    2.9580   -3.0621    0.0000 O   0  0  0  0  0  0  0  0  0  0  0  0
    1.6600   -2.4754    0.0000 O   0  0  0  0  0  0  0  0  0  0  0  0
   -2.4546    2.0469    0.0000 C   0  0  0  0  0  0  0  0  0  0  0  0
   -2.9663    0.4743    0.0000 C   0  0  0  0  0  0  0  0  0  0  0  0
    3.6362   -1.5518    0.0000 C   0  0  0  0  0  0  0  0  0  0  0  0
    2.6627   -0.2164    0.0000 C   0  0  0  0  0  0  0  0  0  0  0  0
   -3.2658    1.8804    0.0000 C   0  0  0  0  0  0  0  0  0  0  0  0
   -3.5155    1.0941    0.0000 C   0  0  0  0  0  0  0  0  0  0  0  0
    3.9732   -0.7988    0.0000 C   0  0  0  0  0  0  0  0  0  0  0  0
    3.4822   -0.1290    0.0000 C   0  0  0  0  0  0  0  0  0  0  0  0
  2  1  1  0  0  0  0
  3  2  2  0  0  0  0
  4  1  1  0  0  0  0
  5  2  1  0  0  0  0
  6  1  1  0  0  0  0
  7  3  1  0  0  0  0
  8  5  1  0  0  0  0
  9  6  1  0  0  0  0
 10  4  1  0  0  0  0
 11 14  2  0  0  0  0
 12  9  1  0  0  0  0
 13  3  1  0  0  0  0
 14 12  1  0  0  0  0
 15 11  1  0  0  0  0
 16 13  3  0  0  0  0
 17  4  2  0  0  0  0
 18  6  2  0  0  0  0
 19 15  2  0  0  0  0
 20 15  1  0  0  0  0
 21  7  1  0  0  0  0
 22  8  1  0  0  0  0
 23 11  1  0  0  0  0
 24 14  1  0  0  0  0
 25 21  1  0  0  0  0
 26 22  1  0  0  0  0
 27 28  1  0  0  0  0
 28 24  2  0  0  0  0
 10  9  1  0  0  0  0
  7  8  2  0  0  0  0
 26 25  1  0  0  0  0
 27 23  2  0  0  0  0
M  END
>  <IDNUMBER>
F1199-0057

>  <Chemical_Name>
2-{[1-(3-cyano-4,5,6,7-tetrahydro-1-benzothiophen-2-yl)-2,5-dioxopyrrolidin-3-yl]sulfanyl}benzoic acid

>  <PriceCoeff>
1.00

>  <CAS>
459421-31-9

>  <MW>
412.48

>  <Description>
solid

>  <FSP3>
0.30

>  <clogP>
3.47

>  <TPSA>
152.01

>  <Acceptor>
5

>  <Donor>
0

>  <RotBonds>
4

>  <HAC>
28

>  <Collection>
General

>  <PPDS>
+

$$$$
F1199-0067
  Mrv2219 10102508112D          

 20 21  0  0  0  0            999 V2000
    1.3526    0.1706    0.0000 N   0  0  0  0  0  0  0  0  0  0  0  0
    2.0226    0.6576    0.0000 C   0  0  0  0  0  0  0  0  0  0  0  0
    1.6106   -0.6160    0.0000 C   0  0  0  0  0  0  0  0  0  0  0  0
    2.4346   -0.6160    0.0000 C   0  0  0  0  0  0  0  0  0  0  0  0
    2.6885    0.1706    0.0000 C   0  0  0  0  0  0  0  0  0  0  0  0
    4.2117   -1.8645    0.0000 C   0  0  0  0  0  0  0  0  0  0  0  0
    2.9132   -1.2777    0.0000 S   0  0  0  0  0  0  0  0  0  0  0  0
    3.7372   -1.1903    0.0000 C   0  0  0  0  0  0  0  0  0  0  0  0
    3.8746   -2.6136    0.0000 C   0  0  0  0  0  0  0  0  0  0  0  0
    2.0144    1.4815    0.0000 O   0  0  0  0  0  0  0  0  0  0  0  0
    1.1236   -1.2777    0.0000 O   0  0  0  0  0  0  0  0  0  0  0  0
    0.5744    0.4245    0.0000 C   0  0  0  0  0  0  0  0  0  0  0  0
    4.3573   -3.2878    0.0000 O   0  0  0  0  0  0  0  0  0  0  0  0
    3.0589   -2.7010    0.0000 O   0  0  0  0  0  0  0  0  0  0  0  0
    5.0357   -1.7771    0.0000 C   0  0  0  0  0  0  0  0  0  0  0  0
    4.0619   -0.4412    0.0000 C   0  0  0  0  0  0  0  0  0  0  0  0
    0.3996    1.2318    0.0000 C   0  0  0  0  0  0  0  0  0  0  0  0
   -0.0457   -0.1291    0.0000 C   0  0  0  0  0  0  0  0  0  0  0  0
    5.3728   -1.0238    0.0000 C   0  0  0  0  0  0  0  0  0  0  0  0
    4.8817   -0.3538    0.0000 C   0  0  0  0  0  0  0  0  0  0  0  0
  2  1  1  0  0  0  0
  3  1  1  0  0  0  0
  4  3  1  0  0  0  0
  5  2  1  0  0  0  0
  6  8  2  0  0  0  0
  7  4  1  0  0  0  0
  8  7  1  0  0  0  0
  9  6  1  0  0  0  0
 10  2  2  0  0  0  0
 11  3  2  0  0  0  0
 12  1  1  0  0  0  0
 13  9  2  0  0  0  0
 14  9  1  0  0  0  0
 15  6  1  0  0  0  0
 16  8  1  0  0  0  0
 17 12  1  0  0  0  0
 18 12  1  0  0  0  0
 19 20  1  0  0  0  0
 20 16  2  0  0  0  0
  5  4  1  0  0  0  0
 19 15  2  0  0  0  0
M  END
>  <IDNUMBER>
F1199-0067

>  <Chemical_Name>
2-{[2,5-dioxo-1-(propan-2-yl)pyrrolidin-3-yl]sulfanyl}benzoic acid

>  <PriceCoeff>
1.00

>  <CAS>
459421-23-9

>  <MW>
293.34

>  <Description>
solid

>  <FSP3>
0.36

>  <clogP>
2.08

>  <TPSA>
99.98

>  <Acceptor>
4

>  <Donor>
0

>  <RotBonds>
4

>  <HAC>
20

>  <Collection>
General

>  <PPDS>
+

$$$$
F1199-0083
  Mrv2219 10102508112D          

 29 32  0  0  0  0            999 V2000
    1.1911   -0.7622    0.0000 N   0  0  0  0  0  0  0  0  0  0  0  0
    1.8616   -0.2790    0.0000 C   0  0  0  0  0  0  0  0  0  0  0  0
    1.4493   -1.5493    0.0000 C   0  0  0  0  0  0  0  0  0  0  0  0
   -0.7121    1.3577    0.0000 N   0  3  0  0  0  0  0  0  0  0  0  0
    2.2740   -1.5493    0.0000 C   0  0  0  0  0  0  0  0  0  0  0  0
    2.5280   -0.7622    0.0000 C   0  0  0  0  0  0  0  0  0  0  0  0
    0.4123   -0.5039    0.0000 C   0  0  0  0  0  0  0  0  0  0  0  0
    0.2416    0.2956    0.0000 C   0  0  0  0  0  0  0  0  0  0  0  0
   -0.5455    0.5497    0.0000 C   0  0  0  0  0  0  0  0  0  0  0  0
    6.0263   -1.8741    0.0000 N   0  0  0  0  0  0  0  0  0  0  0  0
    2.7529   -2.2157    0.0000 N   0  0  0  0  0  0  0  0  0  0  0  0
   -0.0999    1.9074    0.0000 O   0  5  0  0  0  0  0  0  0  0  0  0
    1.8533    0.5455    0.0000 O   0  0  0  0  0  0  0  0  0  0  0  0
    5.2143   -1.9532    0.0000 C   0  0  0  0  0  0  0  0  0  0  0  0
   -1.4993    1.6117    0.0000 O   0  0  0  0  0  0  0  0  0  0  0  0
    0.9621   -2.2157    0.0000 O   0  0  0  0  0  0  0  0  0  0  0  0
    7.6630   -1.7034    0.0000 O   0  0  0  0  0  0  0  0  0  0  0  0
    4.7227   -1.2911    0.0000 C   0  0  0  0  0  0  0  0  0  0  0  0
    4.8768   -2.7112    0.0000 C   0  0  0  0  0  0  0  0  0  0  0  0
    3.5774   -2.1281    0.0000 C   0  0  0  0  0  0  0  0  0  0  0  0
    3.9024   -1.3785    0.0000 C   0  0  0  0  0  0  0  0  0  0  0  0
    4.0523   -2.7987    0.0000 C   0  0  0  0  0  0  0  0  0  0  0  0
   -0.1957   -1.0620    0.0000 C   0  0  0  0  0  0  0  0  0  0  0  0
    6.3594   -1.1162    0.0000 C   0  0  0  0  0  0  0  0  0  0  0  0
    6.5136   -2.5405    0.0000 C   0  0  0  0  0  0  0  0  0  0  0  0
   -1.1578    0.0000    0.0000 C   0  0  0  0  0  0  0  0  0  0  0  0
   -0.9829   -0.8122    0.0000 C   0  0  0  0  0  0  0  0  0  0  0  0
    7.3257   -2.4614    0.0000 C   0  0  0  0  0  0  0  0  0  0  0  0
    7.1841   -1.0370    0.0000 C   0  0  0  0  0  0  0  0  0  0  0  0
  2  1  1  0  0  0  0
  3  1  1  0  0  0  0
  4  9  1  0  0  0  0
  5  3  1  0  0  0  0
  6  2  1  0  0  0  0
  7  1  1  0  0  0  0
  8  7  2  0  0  0  0
  9  8  1  0  0  0  0
 10 14  1  0  0  0  0
 11  5  1  0  0  0  0
 12  4  1  0  0  0  0
 13  2  2  0  0  0  0
 14 19  2  0  0  0  0
 15  4  2  0  0  0  0
 16  3  2  0  0  0  0
 17 28  1  0  0  0  0
 18 21  2  0  0  0  0
 19 22  1  0  0  0  0
 20 11  1  0  0  0  0
 21 20  1  0  0  0  0
 22 20  2  0  0  0  0
 23  7  1  0  0  0  0
 24 10  1  0  0  0  0
 25 10  1  0  0  0  0
 26 27  1  0  0  0  0
 27 23  2  0  0  0  0
 28 25  1  0  0  0  0
 29 24  1  0  0  0  0
  6  5  1  0  0  0  0
 26  9  2  0  0  0  0
 18 14  1  0  0  0  0
 17 29  1  0  0  0  0
M  CHG  2   4   1  12  -1
M  END
>  <IDNUMBER>
F1199-0083

>  <Chemical_Name>
3-{[4-(morpholin-4-yl)phenyl]amino}-1-(3-nitrophenyl)pyrrolidine-2,5-dione

>  <PriceCoeff>
1.00

>  <CAS>
474005-04-4

>  <MW>
396.40

>  <Description>
solid

>  <FSP3>
0.30

>  <clogP>
2.29

>  <TPSA>
105.02

>  <Acceptor>
7

>  <Donor>
2

>  <RotBonds>
5

>  <HAC>
29

>  <Collection>
General

>  <PPDS>
+

$$$$
F1199-0084
  Mrv2219 10102508112D          

 28 31  0  0  0  0            999 V2000
   -0.4435   -1.9276    0.0000 N   0  0  0  0  0  0  0  0  0  0  0  0
    0.2239   -1.4426    0.0000 C   0  0  0  0  0  0  0  0  0  0  0  0
   -0.1865   -2.7153    0.0000 C   0  0  0  0  0  0  0  0  0  0  0  0
    0.6342   -2.7153    0.0000 C   0  0  0  0  0  0  0  0  0  0  0  0
    0.8871   -1.9276    0.0000 C   0  0  0  0  0  0  0  0  0  0  0  0
   -1.2270   -1.6706    0.0000 C   0  0  0  0  0  0  0  0  0  0  0  0
   -1.8364   -2.2261    0.0000 C   0  0  0  0  0  0  0  0  0  0  0  0
    4.3941   -3.0386    0.0000 N   0  0  0  0  0  0  0  0  0  0  0  0
    1.1234   -3.3744    0.0000 N   0  0  0  0  0  0  0  0  0  0  0  0
   -1.3929   -0.8623    0.0000 C   0  0  0  0  0  0  0  0  0  0  0  0
    0.2239   -0.6136    0.0000 O   0  0  0  0  0  0  0  0  0  0  0  0
    3.5816   -3.1215    0.0000 C   0  0  0  0  0  0  0  0  0  0  0  0
   -0.6798   -3.3744    0.0000 O   0  0  0  0  0  0  0  0  0  0  0  0
   -2.6199   -1.9774    0.0000 C   0  0  0  0  0  0  0  0  0  0  0  0
    6.0357   -2.8728    0.0000 O   0  0  0  0  0  0  0  0  0  0  0  0
    3.0884   -2.4541    0.0000 C   0  0  0  0  0  0  0  0  0  0  0  0
    3.2376   -3.8718    0.0000 C   0  0  0  0  0  0  0  0  0  0  0  0
    1.9442   -3.2873    0.0000 C   0  0  0  0  0  0  0  0  0  0  0  0
   -1.6623   -3.0262    0.0000 Br  0  0  0  0  0  0  0  0  0  0  0  0
   -2.1763   -0.6136    0.0000 C   0  0  0  0  0  0  0  0  0  0  0  0
   -2.7940   -1.1607    0.0000 C   0  0  0  0  0  0  0  0  0  0  0  0
    2.4168   -3.9589    0.0000 C   0  0  0  0  0  0  0  0  0  0  0  0
    2.2676   -2.5412    0.0000 C   0  0  0  0  0  0  0  0  0  0  0  0
    4.7257   -2.2800    0.0000 C   0  0  0  0  0  0  0  0  0  0  0  0
    4.8792   -3.7102    0.0000 C   0  0  0  0  0  0  0  0  0  0  0  0
    5.6958   -3.6231    0.0000 C   0  0  0  0  0  0  0  0  0  0  0  0
    5.5507   -2.2012    0.0000 C   0  0  0  0  0  0  0  0  0  0  0  0
   -3.5774   -0.9120    0.0000 C   0  0  0  0  0  0  0  0  0  0  0  0
  2  1  1  0  0  0  0
  3  1  1  0  0  0  0
  4  3  1  0  0  0  0
  5  2  1  0  0  0  0
  6  1  1  0  0  0  0
  7  6  1  0  0  0  0
  8 12  1  0  0  0  0
  9  4  1  0  0  0  0
 10  6  2  0  0  0  0
 11  2  2  0  0  0  0
 12 16  1  0  0  0  0
 13  3  2  0  0  0  0
 14  7  2  0  0  0  0
 15 26  1  0  0  0  0
 16 23  2  0  0  0  0
 17 22  1  0  0  0  0
 18  9  1  0  0  0  0
 19  7  1  0  0  0  0
 20 10  1  0  0  0  0
 21 20  2  0  0  0  0
 22 18  2  0  0  0  0
 23 18  1  0  0  0  0
 24  8  1  0  0  0  0
 25  8  1  0  0  0  0
 26 25  1  0  0  0  0
 27 24  1  0  0  0  0
 28 21  1  0  0  0  0
  5  4  1  0  0  0  0
 21 14  1  0  0  0  0
 12 17  2  0  0  0  0
 15 27  1  0  0  0  0
M  END
>  <IDNUMBER>
F1199-0084

>  <Chemical_Name>
1-(2-bromo-4-methylphenyl)-3-{[4-(morpholin-4-yl)phenyl]amino}pyrrolidine-2,5-dione

>  <PriceCoeff>
1.00

>  <CAS>
474006-08-1

>  <MW>
444.32

>  <Description>
solid

>  <FSP3>
0.33

>  <clogP>
3.12

>  <TPSA>
61.88

>  <Acceptor>
5

>  <Donor>
2

>  <RotBonds>
4

>  <HAC>
28

>  <Collection>
General

>  <PPDS>
+

$$$$
F1199-0085
  Mrv2219 10102508112D          

 28 31  0  0  0  0            999 V2000
    0.2160   -2.4835    0.0000 N   0  0  0  0  0  0  0  0  0  0  0  0
    0.8846   -1.9975    0.0000 C   0  0  0  0  0  0  0  0  0  0  0  0
    0.4651   -3.2766    0.0000 C   0  0  0  0  0  0  0  0  0  0  0  0
    1.2957   -3.2766    0.0000 C   0  0  0  0  0  0  0  0  0  0  0  0
    1.5490   -2.4835    0.0000 C   0  0  0  0  0  0  0  0  0  0  0  0
   -0.5689   -2.2301    0.0000 C   0  0  0  0  0  0  0  0  0  0  0  0
    5.0623   -3.6005    0.0000 N   0  0  0  0  0  0  0  0  0  0  0  0
   -1.1794   -2.7824    0.0000 C   0  0  0  0  0  0  0  0  0  0  0  0
    1.7815   -3.9411    0.0000 N   0  0  0  0  0  0  0  0  0  0  0  0
   -0.7434   -1.4245    0.0000 C   0  0  0  0  0  0  0  0  0  0  0  0
    0.8763   -1.1753    0.0000 O   0  0  0  0  0  0  0  0  0  0  0  0
    4.2401   -3.6795    0.0000 C   0  0  0  0  0  0  0  0  0  0  0  0
   -0.0207   -3.9411    0.0000 O   0  0  0  0  0  0  0  0  0  0  0  0
   -1.9642   -2.5333    0.0000 C   0  0  0  0  0  0  0  0  0  0  0  0
    6.7027   -3.4302    0.0000 O   0  0  0  0  0  0  0  0  0  0  0  0
    3.7501   -3.0150    0.0000 C   0  0  0  0  0  0  0  0  0  0  0  0
    3.9037   -4.4394    0.0000 C   0  0  0  0  0  0  0  0  0  0  0  0
    2.6039   -3.8539    0.0000 C   0  0  0  0  0  0  0  0  0  0  0  0
   -2.1386   -1.7234    0.0000 C   0  0  0  0  0  0  0  0  0  0  0  0
   -1.5282   -1.1711    0.0000 C   0  0  0  0  0  0  0  0  0  0  0  0
    2.9319   -3.1022    0.0000 C   0  0  0  0  0  0  0  0  0  0  0  0
    3.0814   -4.5266    0.0000 C   0  0  0  0  0  0  0  0  0  0  0  0
   -2.9236   -1.4701    0.0000 I   0  0  0  0  0  0  0  0  0  0  0  0
    5.3863   -2.8447    0.0000 C   0  0  0  0  0  0  0  0  0  0  0  0
    5.5441   -4.2733    0.0000 C   0  0  0  0  0  0  0  0  0  0  0  0
   -1.0050   -3.5922    0.0000 C   0  0  0  0  0  0  0  0  0  0  0  0
    6.2168   -2.7575    0.0000 C   0  0  0  0  0  0  0  0  0  0  0  0
    6.3580   -4.1903    0.0000 C   0  0  0  0  0  0  0  0  0  0  0  0
  2  1  1  0  0  0  0
  3  1  1  0  0  0  0
  4  3  1  0  0  0  0
  5  2  1  0  0  0  0
  6  1  1  0  0  0  0
  7 12  1  0  0  0  0
  8  6  1  0  0  0  0
  9  4  1  0  0  0  0
 10  6  2  0  0  0  0
 11  2  2  0  0  0  0
 12 17  2  0  0  0  0
 13  3  2  0  0  0  0
 14  8  2  0  0  0  0
 15 28  1  0  0  0  0
 16 21  2  0  0  0  0
 17 22  1  0  0  0  0
 18  9  1  0  0  0  0
 19 20  2  0  0  0  0
 20 10  1  0  0  0  0
 21 18  1  0  0  0  0
 22 18  2  0  0  0  0
 23 19  1  0  0  0  0
 24  7  1  0  0  0  0
 25  7  1  0  0  0  0
 26  8  1  0  0  0  0
 27 24  1  0  0  0  0
 28 25  1  0  0  0  0
  5  4  1  0  0  0  0
 19 14  1  0  0  0  0
 16 12  1  0  0  0  0
 15 27  1  0  0  0  0
M  END
>  <IDNUMBER>
F1199-0085

>  <Chemical_Name>
1-(4-iodo-2-methylphenyl)-3-{[4-(morpholin-4-yl)phenyl]amino}pyrrolidine-2,5-dione

>  <PriceCoeff>
1.00

>  <CAS>
474006-28-5

>  <MW>
491.32

>  <Description>
solid

>  <FSP3>
0.33

>  <clogP>
3.44

>  <TPSA>
61.88

>  <Acceptor>
5

>  <Donor>
2

>  <RotBonds>
4

>  <HAC>
28

>  <Collection>
General

>  <PPDS>
+

$$$$
F1199-0088
  Mrv2219 10102508112D          

 30 33  0  0  0  0            999 V2000
    1.3473   -0.0497    0.0000 N   0  0  0  0  0  0  0  0  0  0  0  0
    2.0147    0.4353    0.0000 C   0  0  0  0  0  0  0  0  0  0  0  0
    1.6043   -0.8374    0.0000 C   0  0  0  0  0  0  0  0  0  0  0  0
    2.4251   -0.8374    0.0000 C   0  0  0  0  0  0  0  0  0  0  0  0
    2.6780   -0.0497    0.0000 C   0  0  0  0  0  0  0  0  0  0  0  0
    6.1850   -1.1607    0.0000 N   0  0  0  0  0  0  0  0  0  0  0  0
    2.9142   -1.4965    0.0000 N   0  0  0  0  0  0  0  0  0  0  0  0
    0.5638    0.2072    0.0000 C   0  0  0  0  0  0  0  0  0  0  0  0
   -1.7866    0.9658    0.0000 C   0  0  0  0  0  0  0  0  0  0  0  0
    2.0147    1.2643    0.0000 O   0  0  0  0  0  0  0  0  0  0  0  0
    5.3724   -1.2436    0.0000 C   0  0  0  0  0  0  0  0  0  0  0  0
    1.1110   -1.4965    0.0000 O   0  0  0  0  0  0  0  0  0  0  0  0
   -1.0032    0.7171    0.0000 C   0  0  0  0  0  0  0  0  0  0  0  0
   -1.9607    1.7742    0.0000 O   0  0  0  0  0  0  0  0  0  0  0  0
   -0.0456   -0.3482    0.0000 C   0  0  0  0  0  0  0  0  0  0  0  0
    0.3980    1.0156    0.0000 C   0  0  0  0  0  0  0  0  0  0  0  0
   -0.3855    1.2643    0.0000 C   0  0  0  0  0  0  0  0  0  0  0  0
   -0.8290   -0.0912    0.0000 C   0  0  0  0  0  0  0  0  0  0  0  0
    7.8265   -0.9949    0.0000 O   0  0  0  0  0  0  0  0  0  0  0  0
    4.8792   -0.5762    0.0000 C   0  0  0  0  0  0  0  0  0  0  0  0
    5.0284   -1.9940    0.0000 C   0  0  0  0  0  0  0  0  0  0  0  0
    3.7350   -1.4095    0.0000 C   0  0  0  0  0  0  0  0  0  0  0  0
   -2.3877    0.4187    0.0000 O   0  0  0  0  0  0  0  0  0  0  0  0
    4.2076   -2.0810    0.0000 C   0  0  0  0  0  0  0  0  0  0  0  0
    4.0584   -0.6633    0.0000 C   0  0  0  0  0  0  0  0  0  0  0  0
    6.5166   -0.4021    0.0000 C   0  0  0  0  0  0  0  0  0  0  0  0
    6.6700   -1.8323    0.0000 C   0  0  0  0  0  0  0  0  0  0  0  0
    7.4866   -1.7452    0.0000 C   0  0  0  0  0  0  0  0  0  0  0  0
    7.3415   -0.3233    0.0000 C   0  0  0  0  0  0  0  0  0  0  0  0
   -2.2219   -0.3855    0.0000 C   0  0  0  0  0  0  0  0  0  0  0  0
  2  1  1  0  0  0  0
  3  1  1  0  0  0  0
  4  3  1  0  0  0  0
  5  2  1  0  0  0  0
  6 11  1  0  0  0  0
  7  4  1  0  0  0  0
  8  1  1  0  0  0  0
  9 13  1  0  0  0  0
 10  2  2  0  0  0  0
 11 20  1  0  0  0  0
 12  3  2  0  0  0  0
 13 17  2  0  0  0  0
 14  9  2  0  0  0  0
 15  8  1  0  0  0  0
 16  8  2  0  0  0  0
 17 16  1  0  0  0  0
 18 15  2  0  0  0  0
 19 28  1  0  0  0  0
 20 25  2  0  0  0  0
 21 24  1  0  0  0  0
 22  7  1  0  0  0  0
 23  9  1  0  0  0  0
 24 22  2  0  0  0  0
 25 22  1  0  0  0  0
 26  6  1  0  0  0  0
 27  6  1  0  0  0  0
 28 27  1  0  0  0  0
 29 26  1  0  0  0  0
 30 23  1  0  0  0  0
  5  4  1  0  0  0  0
 13 18  1  0  0  0  0
 11 21  2  0  0  0  0
 19 29  1  0  0  0  0
M  END
>  <IDNUMBER>
F1199-0088

>  <Chemical_Name>
methyl 4-(3-{[4-(morpholin-4-yl)phenyl]amino}-2,5-dioxopyrrolidin-1-yl)benzoate

>  <PriceCoeff>
1.00

>  <CAS>
474005-27-1

>  <MW>
409.44

>  <Description>
solid

>  <FSP3>
0.32

>  <clogP>
2.42

>  <TPSA>
88.18

>  <Acceptor>
7

>  <Donor>
2

>  <RotBonds>
6

>  <HAC>
30

>  <Collection>
General

>  <PPDS>
+

$$$$
F1199-0098
  Mrv2219 10102508112D          

 25 27  0  0  0  0            999 V2000
    0.4477   -0.0296    0.0000 N   0  0  0  0  0  0  0  0  0  0  0  0
    1.1148    0.4519    0.0000 C   0  0  0  0  0  0  0  0  0  0  0  0
    0.7011   -0.8150    0.0000 C   0  0  0  0  0  0  0  0  0  0  0  0
    1.5330   -0.8150    0.0000 C   0  0  0  0  0  0  0  0  0  0  0  0
    1.7863   -0.0296    0.0000 C   0  0  0  0  0  0  0  0  0  0  0  0
   -0.3378    0.2238    0.0000 C   0  0  0  0  0  0  0  0  0  0  0  0
    3.3193   -2.0651    0.0000 C   0  0  0  0  0  0  0  0  0  0  0  0
    2.0144   -1.4823    0.0000 S   0  0  0  0  0  0  0  0  0  0  0  0
    2.8378   -1.3978    0.0000 C   0  0  0  0  0  0  0  0  0  0  0  0
    2.9815   -2.8168    0.0000 C   0  0  0  0  0  0  0  0  0  0  0  0
   -0.5152    1.0262    0.0000 C   0  0  0  0  0  0  0  0  0  0  0  0
   -0.9459   -0.3337    0.0000 C   0  0  0  0  0  0  0  0  0  0  0  0
    1.1148    1.2753    0.0000 O   0  0  0  0  0  0  0  0  0  0  0  0
    0.2154   -1.4823    0.0000 O   0  0  0  0  0  0  0  0  0  0  0  0
   -1.3006    1.2796    0.0000 C   0  0  0  0  0  0  0  0  0  0  0  0
    3.4629   -3.4840    0.0000 O   0  0  0  0  0  0  0  0  0  0  0  0
   -1.9088    0.7306    0.0000 C   0  0  0  0  0  0  0  0  0  0  0  0
    2.1580   -2.9012    0.0000 O   0  0  0  0  0  0  0  0  0  0  0  0
   -1.7314   -0.0887    0.0000 C   0  0  0  0  0  0  0  0  0  0  0  0
   -2.7069    0.9839    0.0000 I   0  0  0  0  0  0  0  0  0  0  0  0
    4.1427   -1.9764    0.0000 C   0  0  0  0  0  0  0  0  0  0  0  0
    3.1715   -0.6504    0.0000 C   0  0  0  0  0  0  0  0  0  0  0  0
    0.1056    1.5836    0.0000 C   0  0  0  0  0  0  0  0  0  0  0  0
    4.4848   -1.2205    0.0000 C   0  0  0  0  0  0  0  0  0  0  0  0
    3.9907   -0.5617    0.0000 C   0  0  0  0  0  0  0  0  0  0  0  0
  2  1  1  0  0  0  0
  3  1  1  0  0  0  0
  4  3  1  0  0  0  0
  5  2  1  0  0  0  0
  6  1  1  0  0  0  0
  7  9  2  0  0  0  0
  8  4  1  0  0  0  0
  9  8  1  0  0  0  0
 10  7  1  0  0  0  0
 11  6  2  0  0  0  0
 12  6  1  0  0  0  0
 13  2  2  0  0  0  0
 14  3  2  0  0  0  0
 15 11  1  0  0  0  0
 16 10  2  0  0  0  0
 17 19  1  0  0  0  0
 18 10  1  0  0  0  0
 19 12  2  0  0  0  0
 20 17  1  0  0  0  0
 21  7  1  0  0  0  0
 22  9  1  0  0  0  0
 23 11  1  0  0  0  0
 24 25  1  0  0  0  0
 25 22  2  0  0  0  0
  5  4  1  0  0  0  0
 17 15  2  0  0  0  0
 24 21  2  0  0  0  0
M  END
>  <IDNUMBER>
F1199-0098

>  <Chemical_Name>
2-{[1-(4-iodo-2-methylphenyl)-2,5-dioxopyrrolidin-3-yl]sulfanyl}benzoic acid

>  <PriceCoeff>
1.00

>  <CAS>
431933-50-5

>  <MW>
467.28

>  <Description>
solid

>  <FSP3>
0.17

>  <clogP>
3.57

>  <TPSA>
99.98

>  <Acceptor>
4

>  <Donor>
0

>  <RotBonds>
4

>  <HAC>
25

>  <Collection>
General

>  <PPDS>
+

$$$$
F1199-0099
  Mrv2219 10102508112D          

 30 33  0  0  0  0            999 V2000
   -0.6311   -0.8014    0.0000 N   0  0  0  0  0  0  0  0  0  0  0  0
    0.0374   -0.3156    0.0000 C   0  0  0  0  0  0  0  0  0  0  0  0
   -0.3820   -1.5861    0.0000 C   0  0  0  0  0  0  0  0  0  0  0  0
   -1.4159   -0.5398    0.0000 C   0  0  0  0  0  0  0  0  0  0  0  0
   -3.4214   -1.3993    0.0000 N   0  3  0  0  0  0  0  0  0  0  0  0
    0.4485   -1.5861    0.0000 C   0  0  0  0  0  0  0  0  0  0  0  0
    0.7017   -0.8014    0.0000 C   0  0  0  0  0  0  0  0  0  0  0  0
   -2.0262   -1.1004    0.0000 C   0  0  0  0  0  0  0  0  0  0  0  0
   -2.8109   -0.8512    0.0000 C   0  0  0  0  0  0  0  0  0  0  0  0
    4.2145   -1.9100    0.0000 N   0  0  0  0  0  0  0  0  0  0  0  0
    0.9342   -2.2546    0.0000 N   0  0  0  0  0  0  0  0  0  0  0  0
   -4.2061   -1.1502    0.0000 O   0  5  0  0  0  0  0  0  0  0  0  0
   -1.5902    0.2616    0.0000 C   0  0  0  0  0  0  0  0  0  0  0  0
    0.0291    0.5107    0.0000 O   0  0  0  0  0  0  0  0  0  0  0  0
    3.3924   -1.9972    0.0000 C   0  0  0  0  0  0  0  0  0  0  0  0
   -3.2470   -2.2090    0.0000 O   0  0  0  0  0  0  0  0  0  0  0  0
   -0.8678   -2.2546    0.0000 O   0  0  0  0  0  0  0  0  0  0  0  0
   -2.9854   -0.0291    0.0000 C   0  0  0  0  0  0  0  0  0  0  0  0
   -2.3750    0.5189    0.0000 C   0  0  0  0  0  0  0  0  0  0  0  0
    5.8545   -1.7481    0.0000 O   0  0  0  0  0  0  0  0  0  0  0  0
    3.0560   -2.7528    0.0000 C   0  0  0  0  0  0  0  0  0  0  0  0
    2.9023   -1.3246    0.0000 C   0  0  0  0  0  0  0  0  0  0  0  0
    1.7563   -2.1674    0.0000 C   0  0  0  0  0  0  0  0  0  0  0  0
    2.2339   -2.8401    0.0000 C   0  0  0  0  0  0  0  0  0  0  0  0
    2.0844   -1.4118    0.0000 C   0  0  0  0  0  0  0  0  0  0  0  0
    4.5383   -1.1585    0.0000 C   0  0  0  0  0  0  0  0  0  0  0  0
    4.6960   -2.5826    0.0000 C   0  0  0  0  0  0  0  0  0  0  0  0
    5.5099   -2.5037    0.0000 C   0  0  0  0  0  0  0  0  0  0  0  0
    5.3688   -1.0754    0.0000 C   0  0  0  0  0  0  0  0  0  0  0  0
   -0.9799    0.8096    0.0000 C   0  0  0  0  0  0  0  0  0  0  0  0
  2  1  1  0  0  0  0
  3  1  1  0  0  0  0
  4  1  1  0  0  0  0
  5  9  1  0  0  0  0
  6  3  1  0  0  0  0
  7  2  1  0  0  0  0
  8  4  1  0  0  0  0
  9  8  2  0  0  0  0
 10 15  1  0  0  0  0
 11  6  1  0  0  0  0
 12  5  1  0  0  0  0
 13  4  2  0  0  0  0
 14  2  2  0  0  0  0
 15 22  1  0  0  0  0
 16  5  2  0  0  0  0
 17  3  2  0  0  0  0
 18 19  2  0  0  0  0
 19 13  1  0  0  0  0
 20 28  1  0  0  0  0
 21 24  1  0  0  0  0
 22 25  2  0  0  0  0
 23 11  1  0  0  0  0
 24 23  2  0  0  0  0
 25 23  1  0  0  0  0
 26 10  1  0  0  0  0
 27 10  1  0  0  0  0
 28 27  1  0  0  0  0
 29 26  1  0  0  0  0
 30 13  1  0  0  0  0
  7  6  1  0  0  0  0
 18  9  1  0  0  0  0
 15 21  2  0  0  0  0
 20 29  1  0  0  0  0
M  CHG  2   5   1  12  -1
M  END
>  <IDNUMBER>
F1199-0099

>  <Chemical_Name>
1-(2-methyl-5-nitrophenyl)-3-{[4-(morpholin-4-yl)phenyl]amino}pyrrolidine-2,5-dione

>  <PriceCoeff>
1.00

>  <CAS>
474006-25-2

>  <MW>
410.42

>  <Description>
solid

>  <FSP3>
0.33

>  <clogP>
2.38

>  <TPSA>
105.02

>  <Acceptor>
7

>  <Donor>
2

>  <RotBonds>
5

>  <HAC>
30

>  <Collection>
General

>  <PPDS>
+

$$$$
F1199-0101
  Mrv2219 10102508112D          

 28 30  0  0  0  0            999 V2000
    1.2351   -1.1107    0.0000 N   0  0  0  0  0  0  0  0  0  0  0  0
    1.9023   -0.6258    0.0000 C   0  0  0  0  0  0  0  0  0  0  0  0
    1.4920   -1.9023    0.0000 C   0  0  0  0  0  0  0  0  0  0  0  0
    2.3043   -1.9023    0.0000 C   0  0  0  0  0  0  0  0  0  0  0  0
    2.5654   -1.1107    0.0000 C   0  0  0  0  0  0  0  0  0  0  0  0
    4.0947   -3.1498    0.0000 C   0  0  0  0  0  0  0  0  0  0  0  0
    2.8017   -2.5654    0.0000 S   0  0  0  0  0  0  0  0  0  0  0  0
    3.6223   -2.4784    0.0000 C   0  0  0  0  0  0  0  0  0  0  0  0
    3.7590   -3.8958    0.0000 C   0  0  0  0  0  0  0  0  0  0  0  0
    0.4518   -0.8579    0.0000 C   0  0  0  0  0  0  0  0  0  0  0  0
   -1.8981   -0.0912    0.0000 C   0  0  0  0  0  0  0  0  0  0  0  0
    1.9023    0.1948    0.0000 O   0  0  0  0  0  0  0  0  0  0  0  0
    0.9988   -2.5654    0.0000 O   0  0  0  0  0  0  0  0  0  0  0  0
   -1.1148   -0.3523    0.0000 C   0  0  0  0  0  0  0  0  0  0  0  0
    4.2398   -4.5672    0.0000 O   0  0  0  0  0  0  0  0  0  0  0  0
   -2.5074   -0.6507    0.0000 O   0  0  0  0  0  0  0  0  0  0  0  0
    0.2860   -0.0539    0.0000 C   0  0  0  0  0  0  0  0  0  0  0  0
   -0.1575   -1.4091    0.0000 C   0  0  0  0  0  0  0  0  0  0  0  0
   -0.9408   -1.1605    0.0000 C   0  0  0  0  0  0  0  0  0  0  0  0
   -0.4973    0.1989    0.0000 C   0  0  0  0  0  0  0  0  0  0  0  0
    2.9384   -3.9828    0.0000 O   0  0  0  0  0  0  0  0  0  0  0  0
   -2.0722    0.7045    0.0000 O   0  0  0  0  0  0  0  0  0  0  0  0
    4.9153   -3.0628    0.0000 C   0  0  0  0  0  0  0  0  0  0  0  0
    3.9455   -1.7282    0.0000 C   0  0  0  0  0  0  0  0  0  0  0  0
   -1.4630    1.2516    0.0000 C   0  0  0  0  0  0  0  0  0  0  0  0
    5.2593   -2.3043    0.0000 C   0  0  0  0  0  0  0  0  0  0  0  0
    4.7661   -1.6412    0.0000 C   0  0  0  0  0  0  0  0  0  0  0  0
   -1.6288    2.0598    0.0000 C   0  0  0  0  0  0  0  0  0  0  0  0
  2  1  1  0  0  0  0
  3  1  1  0  0  0  0
  4  3  1  0  0  0  0
  5  2  1  0  0  0  0
  6  8  2  0  0  0  0
  7  4  1  0  0  0  0
  8  7  1  0  0  0  0
  9  6  1  0  0  0  0
 10  1  1  0  0  0  0
 11 14  1  0  0  0  0
 12  2  2  0  0  0  0
 13  3  2  0  0  0  0
 14 19  1  0  0  0  0
 15  9  2  0  0  0  0
 16 11  2  0  0  0  0
 17 10  2  0  0  0  0
 18 10  1  0  0  0  0
 19 18  2  0  0  0  0
 20 17  1  0  0  0  0
 21  9  1  0  0  0  0
 22 11  1  0  0  0  0
 23  6  1  0  0  0  0
 24  8  1  0  0  0  0
 25 22  1  0  0  0  0
 26 27  1  0  0  0  0
 27 24  2  0  0  0  0
 28 25  1  0  0  0  0
  5  4  1  0  0  0  0
 14 20  2  0  0  0  0
 26 23  2  0  0  0  0
M  END
>  <IDNUMBER>
F1199-0101

>  <Chemical_Name>
2-({1-[4-(ethoxycarbonyl)phenyl]-2,5-dioxopyrrolidin-3-yl}sulfanyl)benzoic acid

>  <PriceCoeff>
1.00

>  <CAS>
459421-29-5

>  <MW>
399.42

>  <Description>
solid

>  <FSP3>
0.20

>  <clogP>
3.08

>  <TPSA>
126.28

>  <Acceptor>
6

>  <Donor>
0

>  <RotBonds>
7

>  <HAC>
28

>  <Collection>
General

>  <PPDS>
+

$$$$
F1199-0108
  Mrv2219 10102508112D          

 25 27  0  0  0  0            999 V2000
    2.3671   -0.7462    0.0000 N   0  0  0  0  0  0  0  0  0  0  0  0
    3.0387   -0.2612    0.0000 C   0  0  0  0  0  0  0  0  0  0  0  0
    2.6241   -1.5339    0.0000 C   0  0  0  0  0  0  0  0  0  0  0  0
    3.4491   -1.5339    0.0000 C   0  0  0  0  0  0  0  0  0  0  0  0
    3.7061   -0.7462    0.0000 C   0  0  0  0  0  0  0  0  0  0  0  0
    1.5919   -0.4892    0.0000 C   0  0  0  0  0  0  0  0  0  0  0  0
    5.2358   -2.7776    0.0000 C   0  0  0  0  0  0  0  0  0  0  0  0
    3.9342   -2.1930    0.0000 S   0  0  0  0  0  0  0  0  0  0  0  0
    4.7550   -2.1060    0.0000 C   0  0  0  0  0  0  0  0  0  0  0  0
    4.8918   -3.5320    0.0000 C   0  0  0  0  0  0  0  0  0  0  0  0
    1.4220    0.3192    0.0000 C   0  0  0  0  0  0  0  0  0  0  0  0
    3.0387    0.5679    0.0000 O   0  0  0  0  0  0  0  0  0  0  0  0
    2.1391   -2.1930    0.0000 O   0  0  0  0  0  0  0  0  0  0  0  0
    5.3768   -4.1953    0.0000 O   0  0  0  0  0  0  0  0  0  0  0  0
    0.6384    0.5679    0.0000 C   0  0  0  0  0  0  0  0  0  0  0  0
    4.0792   -3.6108    0.0000 O   0  0  0  0  0  0  0  0  0  0  0  0
    0.9825   -1.0447    0.0000 C   0  0  0  0  0  0  0  0  0  0  0  0
    6.0567   -2.6905    0.0000 C   0  0  0  0  0  0  0  0  0  0  0  0
    0.4643    1.3763    0.0000 O   0  0  0  0  0  0  0  0  0  0  0  0
    5.0866   -1.3598    0.0000 C   0  0  0  0  0  0  0  0  0  0  0  0
    0.1990   -0.7959    0.0000 C   0  0  0  0  0  0  0  0  0  0  0  0
    0.0249    0.0207    0.0000 C   0  0  0  0  0  0  0  0  0  0  0  0
    1.0737    1.9235    0.0000 C   0  0  0  0  0  0  0  0  0  0  0  0
    6.3966   -1.9401    0.0000 C   0  0  0  0  0  0  0  0  0  0  0  0
    5.8992   -1.2727    0.0000 C   0  0  0  0  0  0  0  0  0  0  0  0
  2  1  1  0  0  0  0
  3  1  1  0  0  0  0
  4  3  1  0  0  0  0
  5  2  1  0  0  0  0
  6  1  1  0  0  0  0
  7  9  2  0  0  0  0
  8  4  1  0  0  0  0
  9  8  1  0  0  0  0
 10  7  1  0  0  0  0
 11  6  2  0  0  0  0
 12  2  2  0  0  0  0
 13  3  2  0  0  0  0
 14 10  2  0  0  0  0
 15 11  1  0  0  0  0
 16 10  1  0  0  0  0
 17  6  1  0  0  0  0
 18  7  1  0  0  0  0
 19 15  1  0  0  0  0
 20  9  1  0  0  0  0
 21 17  2  0  0  0  0
 22 21  1  0  0  0  0
 23 19  1  0  0  0  0
 24 25  1  0  0  0  0
 25 20  2  0  0  0  0
  5  4  1  0  0  0  0
 22 15  2  0  0  0  0
 24 18  2  0  0  0  0
M  END
>  <IDNUMBER>
F1199-0108

>  <Chemical_Name>
2-{[1-(3-methoxyphenyl)-2,5-dioxopyrrolidin-3-yl]sulfanyl}benzoic acid

>  <PriceCoeff>
1.00

>  <CAS>
459421-27-3

>  <MW>
357.38

>  <Description>
solid

>  <FSP3>
0.17

>  <clogP>
2.16

>  <TPSA>
109.21

>  <Acceptor>
5

>  <Donor>
0

>  <RotBonds>
5

>  <HAC>
25

>  <Collection>
General

>  <PPDS>
+

$$$$
F1199-0110
  Mrv2219 10102508112D          

 28 31  0  0  0  0            999 V2000
   -0.7173   -0.4645    0.0000 N   0  0  0  0  0  0  0  0  0  0  0  0
   -0.0498    0.0207    0.0000 C   0  0  0  0  0  0  0  0  0  0  0  0
   -0.4603   -1.2482    0.0000 C   0  0  0  0  0  0  0  0  0  0  0  0
    0.3608   -1.2482    0.0000 C   0  0  0  0  0  0  0  0  0  0  0  0
    0.6137   -0.4645    0.0000 C   0  0  0  0  0  0  0  0  0  0  0  0
   -1.5010   -0.2032    0.0000 C   0  0  0  0  0  0  0  0  0  0  0  0
    4.1218   -1.5716    0.0000 N   0  0  0  0  0  0  0  0  0  0  0  0
    0.8501   -1.9157    0.0000 N   0  0  0  0  0  0  0  0  0  0  0  0
   -1.6669    0.5971    0.0000 C   0  0  0  0  0  0  0  0  0  0  0  0
   -0.0498    0.8459    0.0000 O   0  0  0  0  0  0  0  0  0  0  0  0
    3.3090   -1.6587    0.0000 C   0  0  0  0  0  0  0  0  0  0  0  0
   -0.9537   -1.9157    0.0000 O   0  0  0  0  0  0  0  0  0  0  0  0
    5.7638   -1.4099    0.0000 O   0  0  0  0  0  0  0  0  0  0  0  0
    2.8156   -0.9869    0.0000 C   0  0  0  0  0  0  0  0  0  0  0  0
    2.9649   -2.4133    0.0000 C   0  0  0  0  0  0  0  0  0  0  0  0
    1.6711   -1.8287    0.0000 C   0  0  0  0  0  0  0  0  0  0  0  0
   -2.4506    0.8542    0.0000 C   0  0  0  0  0  0  0  0  0  0  0  0
    2.1438   -2.5004    0.0000 C   0  0  0  0  0  0  0  0  0  0  0  0
    1.9946   -1.0740    0.0000 C   0  0  0  0  0  0  0  0  0  0  0  0
   -2.1106   -0.7630    0.0000 C   0  0  0  0  0  0  0  0  0  0  0  0
    4.6069   -2.2434    0.0000 C   0  0  0  0  0  0  0  0  0  0  0  0
    4.4535   -0.8210    0.0000 C   0  0  0  0  0  0  0  0  0  0  0  0
   -2.6206    1.6545    0.0000 O   0  0  0  0  0  0  0  0  0  0  0  0
   -2.8943   -0.5142    0.0000 C   0  0  0  0  0  0  0  0  0  0  0  0
    5.4238   -2.1645    0.0000 C   0  0  0  0  0  0  0  0  0  0  0  0
    5.2787   -0.7381    0.0000 C   0  0  0  0  0  0  0  0  0  0  0  0
   -3.0685    0.2986    0.0000 C   0  0  0  0  0  0  0  0  0  0  0  0
   -2.0111    2.2101    0.0000 C   0  0  0  0  0  0  0  0  0  0  0  0
  2  1  1  0  0  0  0
  3  1  1  0  0  0  0
  4  3  1  0  0  0  0
  5  2  1  0  0  0  0
  6  1  1  0  0  0  0
  7 11  1  0  0  0  0
  8  4  1  0  0  0  0
  9  6  2  0  0  0  0
 10  2  2  0  0  0  0
 11 14  1  0  0  0  0
 12  3  2  0  0  0  0
 13 26  1  0  0  0  0
 14 19  2  0  0  0  0
 15 18  1  0  0  0  0
 16  8  1  0  0  0  0
 17  9  1  0  0  0  0
 18 16  2  0  0  0  0
 19 16  1  0  0  0  0
 20  6  1  0  0  0  0
 21  7  1  0  0  0  0
 22  7  1  0  0  0  0
 23 17  1  0  0  0  0
 24 20  2  0  0  0  0
 25 21  1  0  0  0  0
 26 22  1  0  0  0  0
 27 24  1  0  0  0  0
 28 23  1  0  0  0  0
  5  4  1  0  0  0  0
 27 17  2  0  0  0  0
 11 15  2  0  0  0  0
 13 25  1  0  0  0  0
M  END
>  <IDNUMBER>
F1199-0110

>  <Chemical_Name>
1-(3-methoxyphenyl)-3-{[4-(morpholin-4-yl)phenyl]amino}pyrrolidine-2,5-dione

>  <PriceCoeff>
1.00

>  <CAS>
474008-08-7

>  <MW>
381.43

>  <Description>
solid

>  <FSP3>
0.33

>  <clogP>
2.03

>  <TPSA>
71.11

>  <Acceptor>
6

>  <Donor>
2

>  <RotBonds>
5

>  <HAC>
28

>  <Collection>
General

>  <PPDS>
+

$$$$
F1199-0124
  Mrv2219 10102508112D          

 25 27  0  0  0  0            999 V2000
    2.0502    0.0373    0.0000 N   0  0  0  0  0  0  0  0  0  0  0  0
    2.7130    0.5219    0.0000 C   0  0  0  0  0  0  0  0  0  0  0  0
    2.3029   -0.7497    0.0000 C   0  0  0  0  0  0  0  0  0  0  0  0
    3.1313   -0.7497    0.0000 C   0  0  0  0  0  0  0  0  0  0  0  0
    3.3840    0.0373    0.0000 C   0  0  0  0  0  0  0  0  0  0  0  0
    4.4277   -1.3213    0.0000 C   0  0  0  0  0  0  0  0  0  0  0  0
    1.2716    0.2940    0.0000 C   0  0  0  0  0  0  0  0  0  0  0  0
    4.9123   -1.9923    0.0000 C   0  0  0  0  0  0  0  0  0  0  0  0
    3.6076   -1.4165    0.0000 S   0  0  0  0  0  0  0  0  0  0  0  0
    4.5768   -2.7503    0.0000 C   0  0  0  0  0  0  0  0  0  0  0  0
    1.0976    1.1017    0.0000 C   0  0  0  0  0  0  0  0  0  0  0  0
    4.7632   -0.5758    0.0000 N   0  0  0  0  0  0  0  0  0  0  0  0
    0.6627   -0.2609    0.0000 C   0  0  0  0  0  0  0  0  0  0  0  0
    2.7130    1.3502    0.0000 O   0  0  0  0  0  0  0  0  0  0  0  0
    1.8183   -1.4165    0.0000 O   0  0  0  0  0  0  0  0  0  0  0  0
    0.3148    1.3502    0.0000 C   0  0  0  0  0  0  0  0  0  0  0  0
    5.0490   -3.4213    0.0000 O   0  0  0  0  0  0  0  0  0  0  0  0
   -0.2940    0.8035    0.0000 C   0  0  0  0  0  0  0  0  0  0  0  0
    3.7567   -2.8331    0.0000 O   0  0  0  0  0  0  0  0  0  0  0  0
   -0.1201   -0.0124    0.0000 C   0  0  0  0  0  0  0  0  0  0  0  0
   -1.0810    1.0520    0.0000 I   0  0  0  0  0  0  0  0  0  0  0  0
    5.7324   -1.9053    0.0000 C   0  0  0  0  0  0  0  0  0  0  0  0
    1.7065    1.6484    0.0000 C   0  0  0  0  0  0  0  0  0  0  0  0
    5.5792   -0.4888    0.0000 C   0  0  0  0  0  0  0  0  0  0  0  0
    6.0679   -1.1556    0.0000 C   0  0  0  0  0  0  0  0  0  0  0  0
  2  1  1  0  0  0  0
  3  1  1  0  0  0  0
  4  3  1  0  0  0  0
  5  2  1  0  0  0  0
  6  9  1  0  0  0  0
  7  1  1  0  0  0  0
  8  6  2  0  0  0  0
  9  4  1  0  0  0  0
 10  8  1  0  0  0  0
 11  7  2  0  0  0  0
 12  6  1  0  0  0  0
 13  7  1  0  0  0  0
 14  2  2  0  0  0  0
 15  3  2  0  0  0  0
 16 11  1  0  0  0  0
 17 10  2  0  0  0  0
 18 20  1  0  0  0  0
 19 10  1  0  0  0  0
 20 13  2  0  0  0  0
 21 18  1  0  0  0  0
 22  8  1  0  0  0  0
 23 11  1  0  0  0  0
 24 12  2  0  0  0  0
 25 24  1  0  0  0  0
  5  4  1  0  0  0  0
 18 16  2  0  0  0  0
 25 22  2  0  0  0  0
M  END
>  <IDNUMBER>
F1199-0124

>  <Chemical_Name>
2-{[1-(4-iodo-2-methylphenyl)-2,5-dioxopyrrolidin-3-yl]sulfanyl}pyridine-3-carboxylic acid

>  <PriceCoeff>
1.00

>  <CAS>
459417-85-7

>  <MW>
468.27

>  <Description>
solid

>  <FSP3>
0.18

>  <clogP>
3.01

>  <TPSA>
112.87

>  <Acceptor>
5

>  <Donor>
1

>  <RotBonds>
4

>  <HAC>
25

>  <Collection>
General

>  <PPDS>
+

$$$$
F1199-0125
  Mrv2219 10102508112D          

 27 29  0  0  0  0            999 V2000
    0.0415    0.2321    0.0000 N   0  0  0  0  0  0  0  0  0  0  0  0
    0.7089    0.7171    0.0000 C   0  0  0  0  0  0  0  0  0  0  0  0
    0.2985   -0.5597    0.0000 C   0  0  0  0  0  0  0  0  0  0  0  0
    1.1235   -0.5597    0.0000 C   0  0  0  0  0  0  0  0  0  0  0  0
    1.3805    0.2321    0.0000 C   0  0  0  0  0  0  0  0  0  0  0  0
    2.4293   -1.1359    0.0000 C   0  0  0  0  0  0  0  0  0  0  0  0
    2.9102   -1.8075    0.0000 C   0  0  0  0  0  0  0  0  0  0  0  0
    1.6085   -1.2230    0.0000 S   0  0  0  0  0  0  0  0  0  0  0  0
    2.5744   -2.5620    0.0000 C   0  0  0  0  0  0  0  0  0  0  0  0
   -0.7338    0.4850    0.0000 C   0  0  0  0  0  0  0  0  0  0  0  0
   -3.0801    1.2437    0.0000 C   0  0  0  0  0  0  0  0  0  0  0  0
    2.7609   -0.3897    0.0000 N   0  0  0  0  0  0  0  0  0  0  0  0
    0.7089    1.5380    0.0000 O   0  0  0  0  0  0  0  0  0  0  0  0
   -0.1866   -1.2230    0.0000 O   0  0  0  0  0  0  0  0  0  0  0  0
   -2.3008    0.9908    0.0000 C   0  0  0  0  0  0  0  0  0  0  0  0
    3.0512   -3.2335    0.0000 O   0  0  0  0  0  0  0  0  0  0  0  0
   -3.2542    2.0479    0.0000 O   0  0  0  0  0  0  0  0  0  0  0  0
   -0.9079    1.2892    0.0000 C   0  0  0  0  0  0  0  0  0  0  0  0
   -1.3432   -0.0664    0.0000 C   0  0  0  0  0  0  0  0  0  0  0  0
   -2.1267    0.1824    0.0000 C   0  0  0  0  0  0  0  0  0  0  0  0
   -1.6914    1.5421    0.0000 C   0  0  0  0  0  0  0  0  0  0  0  0
    1.7536   -2.6408    0.0000 O   0  0  0  0  0  0  0  0  0  0  0  0
   -3.6895    0.6923    0.0000 O   0  0  0  0  0  0  0  0  0  0  0  0
    3.7310   -1.7204    0.0000 C   0  0  0  0  0  0  0  0  0  0  0  0
    3.5735   -0.2985    0.0000 C   0  0  0  0  0  0  0  0  0  0  0  0
   -3.5154   -0.1119    0.0000 C   0  0  0  0  0  0  0  0  0  0  0  0
    4.0668   -0.9618    0.0000 C   0  0  0  0  0  0  0  0  0  0  0  0
  2  1  1  0  0  0  0
  3  1  1  0  0  0  0
  4  3  1  0  0  0  0
  5  2  1  0  0  0  0
  6  8  1  0  0  0  0
  7  6  2  0  0  0  0
  8  4  1  0  0  0  0
  9  7  1  0  0  0  0
 10  1  1  0  0  0  0
 11 15  1  0  0  0  0
 12  6  1  0  0  0  0
 13  2  2  0  0  0  0
 14  3  2  0  0  0  0
 15 20  1  0  0  0  0
 16  9  2  0  0  0  0
 17 11  2  0  0  0  0
 18 10  2  0  0  0  0
 19 10  1  0  0  0  0
 20 19  2  0  0  0  0
 21 18  1  0  0  0  0
 22  9  1  0  0  0  0
 23 11  1  0  0  0  0
 24  7  1  0  0  0  0
 25 12  2  0  0  0  0
 26 23  1  0  0  0  0
 27 25  1  0  0  0  0
  5  4  1  0  0  0  0
 15 21  2  0  0  0  0
 27 24  2  0  0  0  0
M  END
>  <IDNUMBER>
F1199-0125

>  <Chemical_Name>
2-({1-[4-(methoxycarbonyl)phenyl]-2,5-dioxopyrrolidin-3-yl}sulfanyl)pyridine-3-carboxylic acid

>  <PriceCoeff>
1.00

>  <CAS>
432020-08-1

>  <MW>
386.38

>  <Description>
solid

>  <FSP3>
0.17

>  <clogP>
1.99

>  <TPSA>
139.17

>  <Acceptor>
7

>  <Donor>
1

>  <RotBonds>
6

>  <HAC>
27

>  <Collection>
General

>  <PPDS>
+

$$$$
F1199-0131
  Mrv2219 10102508112D          

 29 32  0  0  0  0            999 V2000
   -1.3542   -0.5899    0.0000 N   0  0  0  0  0  0  0  0  0  0  0  0
   -0.6854   -0.1039    0.0000 C   0  0  0  0  0  0  0  0  0  0  0  0
   -1.0967   -1.3833    0.0000 C   0  0  0  0  0  0  0  0  0  0  0  0
   -0.2742   -1.3833    0.0000 C   0  0  0  0  0  0  0  0  0  0  0  0
   -0.0207   -0.5899    0.0000 C   0  0  0  0  0  0  0  0  0  0  0  0
   -2.1393   -0.3365    0.0000 C   0  0  0  0  0  0  0  0  0  0  0  0
    3.4936   -1.7073    0.0000 N   0  0  0  0  0  0  0  0  0  0  0  0
    0.2160   -2.0480    0.0000 N   0  0  0  0  0  0  0  0  0  0  0  0
   -0.6854    0.7186    0.0000 O   0  0  0  0  0  0  0  0  0  0  0  0
    2.6793   -1.7863    0.0000 C   0  0  0  0  0  0  0  0  0  0  0  0
   -1.5910   -2.0480    0.0000 O   0  0  0  0  0  0  0  0  0  0  0  0
   -2.7499   -0.8890    0.0000 C   0  0  0  0  0  0  0  0  0  0  0  0
    5.1386   -1.5370    0.0000 O   0  0  0  0  0  0  0  0  0  0  0  0
    2.1851   -1.1216    0.0000 C   0  0  0  0  0  0  0  0  0  0  0  0
    2.3346   -2.5465    0.0000 C   0  0  0  0  0  0  0  0  0  0  0  0
    1.0385   -1.9607    0.0000 C   0  0  0  0  0  0  0  0  0  0  0  0
    1.3626   -1.2088    0.0000 C   0  0  0  0  0  0  0  0  0  0  0  0
    1.5121   -2.6337    0.0000 C   0  0  0  0  0  0  0  0  0  0  0  0
   -2.5755   -1.6990    0.0000 O   0  0  0  0  0  0  0  0  0  0  0  0
    3.8259   -0.9513    0.0000 C   0  0  0  0  0  0  0  0  0  0  0  0
    3.9796   -2.3803    0.0000 C   0  0  0  0  0  0  0  0  0  0  0  0
   -2.3055    0.4694    0.0000 C   0  0  0  0  0  0  0  0  0  0  0  0
    4.7979   -2.2972    0.0000 C   0  0  0  0  0  0  0  0  0  0  0  0
    4.6525   -0.8641    0.0000 C   0  0  0  0  0  0  0  0  0  0  0  0
   -3.5350   -0.6398    0.0000 C   0  0  0  0  0  0  0  0  0  0  0  0
   -3.1778   -2.2474    0.0000 C   0  0  0  0  0  0  0  0  0  0  0  0
   -3.0906    0.7228    0.0000 C   0  0  0  0  0  0  0  0  0  0  0  0
   -3.0034   -3.0532    0.0000 C   0  0  0  0  0  0  0  0  0  0  0  0
   -3.7095    0.1703    0.0000 C   0  0  0  0  0  0  0  0  0  0  0  0
  2  1  1  0  0  0  0
  3  1  1  0  0  0  0
  4  3  1  0  0  0  0
  5  2  1  0  0  0  0
  6  1  1  0  0  0  0
  7 10  1  0  0  0  0
  8  4  1  0  0  0  0
  9  2  2  0  0  0  0
 10 15  2  0  0  0  0
 11  3  2  0  0  0  0
 12  6  1  0  0  0  0
 13 23  1  0  0  0  0
 14 17  2  0  0  0  0
 15 18  1  0  0  0  0
 16  8  1  0  0  0  0
 17 16  1  0  0  0  0
 18 16  2  0  0  0  0
 19 12  1  0  0  0  0
 20  7  1  0  0  0  0
 21  7  1  0  0  0  0
 22  6  2  0  0  0  0
 23 21  1  0  0  0  0
 24 20  1  0  0  0  0
 25 12  2  0  0  0  0
 26 19  1  0  0  0  0
 27 22  1  0  0  0  0
 28 26  1  0  0  0  0
 29 27  2  0  0  0  0
  5  4  1  0  0  0  0
 29 25  1  0  0  0  0
 14 10  1  0  0  0  0
 13 24  1  0  0  0  0
M  END
>  <IDNUMBER>
F1199-0131

>  <Chemical_Name>
1-(2-ethoxyphenyl)-3-{[4-(morpholin-4-yl)phenyl]amino}pyrrolidine-2,5-dione

>  <PriceCoeff>
1.00

>  <CAS>
474009-71-7

>  <MW>
395.45

>  <Description>
solid

>  <FSP3>
0.36

>  <clogP>
2.56

>  <TPSA>
71.11

>  <Acceptor>
6

>  <Donor>
2

>  <RotBonds>
6

>  <HAC>
29

>  <Collection>
General

>  <PPDS>
+

$$$$
F1199-0132
  Mrv2219 10102508112D          

 29 33  0  0  0  0            999 V2000
    0.3358   -0.4850    0.0000 N   0  0  0  0  0  0  0  0  0  0  0  0
    0.9991    0.0000    0.0000 C   0  0  0  0  0  0  0  0  0  0  0  0
    0.5845   -1.2727    0.0000 C   0  0  0  0  0  0  0  0  0  0  0  0
   -0.4477   -0.2280    0.0000 C   0  0  0  0  0  0  0  0  0  0  0  0
    1.4095   -1.2727    0.0000 C   0  0  0  0  0  0  0  0  0  0  0  0
    1.6665   -0.4850    0.0000 C   0  0  0  0  0  0  0  0  0  0  0  0
   -0.6177    0.5803    0.0000 C   0  0  0  0  0  0  0  0  0  0  0  0
    5.1737   -1.5961    0.0000 N   0  0  0  0  0  0  0  0  0  0  0  0
   -1.4012    0.8291    0.0000 C   0  0  0  0  0  0  0  0  0  0  0  0
    1.8946   -1.9319    0.0000 N   0  0  0  0  0  0  0  0  0  0  0  0
    0.9991    0.8291    0.0000 O   0  0  0  0  0  0  0  0  0  0  0  0
    4.3570   -1.6790    0.0000 C   0  0  0  0  0  0  0  0  0  0  0  0
   -2.0147    0.2819    0.0000 C   0  0  0  0  0  0  0  0  0  0  0  0
   -1.7370    1.5877    0.0000 O   0  0  0  0  0  0  0  0  0  0  0  0
    0.0995   -1.9319    0.0000 O   0  0  0  0  0  0  0  0  0  0  0  0
   -2.7319    0.6923    0.0000 O   0  0  0  0  0  0  0  0  0  0  0  0
   -1.0571   -0.7835    0.0000 C   0  0  0  0  0  0  0  0  0  0  0  0
   -2.5578    1.5048    0.0000 C   0  0  0  0  0  0  0  0  0  0  0  0
   -1.8406   -0.5348    0.0000 C   0  0  0  0  0  0  0  0  0  0  0  0
    6.8070   -1.4302    0.0000 O   0  0  0  0  0  0  0  0  0  0  0  0
    4.0170   -2.4293    0.0000 C   0  0  0  0  0  0  0  0  0  0  0  0
    3.8596   -1.0116    0.0000 C   0  0  0  0  0  0  0  0  0  0  0  0
    2.7154   -1.8448    0.0000 C   0  0  0  0  0  0  0  0  0  0  0  0
    3.1962   -2.5164    0.0000 C   0  0  0  0  0  0  0  0  0  0  0  0
    3.0470   -1.0986    0.0000 C   0  0  0  0  0  0  0  0  0  0  0  0
    5.5012   -0.8374    0.0000 C   0  0  0  0  0  0  0  0  0  0  0  0
    5.6504   -2.2677    0.0000 C   0  0  0  0  0  0  0  0  0  0  0  0
    6.4713   -2.1806    0.0000 C   0  0  0  0  0  0  0  0  0  0  0  0
    6.3220   -0.7586    0.0000 C   0  0  0  0  0  0  0  0  0  0  0  0
  2  1  1  0  0  0  0
  3  1  1  0  0  0  0
  4  1  1  0  0  0  0
  5  3  1  0  0  0  0
  6  2  1  0  0  0  0
  7  4  2  0  0  0  0
  8 12  1  0  0  0  0
  9  7  1  0  0  0  0
 10  5  1  0  0  0  0
 11  2  2  0  0  0  0
 12 22  1  0  0  0  0
 13 19  1  0  0  0  0
 14  9  1  0  0  0  0
 15  3  2  0  0  0  0
 16 13  1  0  0  0  0
 17  4  1  0  0  0  0
 18 14  1  0  0  0  0
 19 17  2  0  0  0  0
 20 28  1  0  0  0  0
 21 24  1  0  0  0  0
 22 25  2  0  0  0  0
 23 10  1  0  0  0  0
 24 23  2  0  0  0  0
 25 23  1  0  0  0  0
 26  8  1  0  0  0  0
 27  8  1  0  0  0  0
 28 27  1  0  0  0  0
 29 26  1  0  0  0  0
  6  5  1  0  0  0  0
  9 13  2  0  0  0  0
 16 18  1  0  0  0  0
 12 21  2  0  0  0  0
 20 29  1  0  0  0  0
M  END
>  <IDNUMBER>
F1199-0132

>  <Chemical_Name>
1-(2H-1,3-benzodioxol-5-yl)-3-{[4-(morpholin-4-yl)phenyl]amino}pyrrolidine-2,5-dione

>  <PriceCoeff>
1.00

>  <CAS>
474008-04-3

>  <MW>
395.41

>  <Description>
solid

>  <FSP3>
0.33

>  <clogP>
2.02

>  <TPSA>
80.34

>  <Acceptor>
7

>  <Donor>
2

>  <RotBonds>
4

>  <HAC>
29

>  <Collection>
General

>  <PPDS>
+

$$$$
F1199-0152
  Mrv2219 10102508112D          

 18 19  0  0  0  0            999 V2000
    3.7110   -1.0858    0.0000 N   0  0  0  0  0  0  0  0  0  0  0  0
    3.9606   -1.8763    0.0000 C   0  0  0  0  0  0  0  0  0  0  0  0
    4.3808   -0.5991    0.0000 C   0  0  0  0  0  0  0  0  0  0  0  0
    4.7926   -1.8763    0.0000 C   0  0  0  0  0  0  0  0  0  0  0  0
    5.0464   -1.0858    0.0000 C   0  0  0  0  0  0  0  0  0  0  0  0
    6.5691   -3.1244    0.0000 C   0  0  0  0  0  0  0  0  0  0  0  0
    5.2711   -2.5378    0.0000 S   0  0  0  0  0  0  0  0  0  0  0  0
    6.0948   -2.4504    0.0000 C   0  0  0  0  0  0  0  0  0  0  0  0
    6.2321   -3.8732    0.0000 C   0  0  0  0  0  0  0  0  0  0  0  0
    3.4738   -2.5378    0.0000 O   0  0  0  0  0  0  0  0  0  0  0  0
    4.3725    0.2329    0.0000 O   0  0  0  0  0  0  0  0  0  0  0  0
    6.7188   -4.5430    0.0000 O   0  0  0  0  0  0  0  0  0  0  0  0
    2.9247   -0.8279    0.0000 C   0  0  0  0  0  0  0  0  0  0  0  0
    5.4167   -3.9606    0.0000 O   0  0  0  0  0  0  0  0  0  0  0  0
    7.3928   -3.0370    0.0000 C   0  0  0  0  0  0  0  0  0  0  0  0
    6.4193   -1.7016    0.0000 C   0  0  0  0  0  0  0  0  0  0  0  0
    7.7298   -2.2840    0.0000 C   0  0  0  0  0  0  0  0  0  0  0  0
    7.2388   -1.6142    0.0000 C   0  0  0  0  0  0  0  0  0  0  0  0
  2  1  1  0  0  0  0
  3  1  1  0  0  0  0
  4  2  1  0  0  0  0
  5  3  1  0  0  0  0
  6  8  2  0  0  0  0
  7  4  1  0  0  0  0
  8  7  1  0  0  0  0
  9  6  1  0  0  0  0
 10  2  2  0  0  0  0
 11  3  2  0  0  0  0
 12  9  2  0  0  0  0
 13  1  1  0  0  0  0
 14  9  1  0  0  0  0
 15  6  1  0  0  0  0
 16  8  1  0  0  0  0
 17 18  1  0  0  0  0
 18 16  2  0  0  0  0
  5  4  1  0  0  0  0
 17 15  2  0  0  0  0
M  END
>  <IDNUMBER>
F1199-0152

>  <Chemical_Name>
2-[(1-methyl-2,5-dioxopyrrolidin-3-yl)sulfanyl]benzoic acid

>  <PriceCoeff>
1.50

>  <CAS>
132228-17-2

>  <MW>
265.29

>  <Description>
solid

>  <FSP3>
0.25

>  <clogP>
1.24

>  <TPSA>
99.98

>  <Acceptor>
4

>  <Donor>
0

>  <RotBonds>
3

>  <HAC>
18

>  <Collection>
Advanced

>  <PPDS>
+

$$$$
F1210-0012
  Mrv2219 10102508112D          

 30 33  0  0  0  0            999 V2000
   -0.4593   -0.2631    0.0000 C   0  0  0  0  0  0  0  0  0  0  0  0
   -0.2004   -1.0440    0.0000 C   0  0  0  0  0  0  0  0  0  0  0  0
    0.9062    0.1962    0.0000 N   0  0  0  0  0  0  0  0  0  0  0  0
    1.1567   -0.5930    0.0000 C   0  0  0  0  0  0  0  0  0  0  0  0
    0.6055   -1.2152    0.0000 N   0  0  0  0  0  0  0  0  0  0  0  0
    0.0919    0.3633    0.0000 C   0  0  0  0  0  0  0  0  0  0  0  0
   -0.8727   -1.5200    0.0000 S   0  0  0  0  0  0  0  0  0  0  0  0
   -1.2861   -0.2548    0.0000 C   0  0  0  0  0  0  0  0  0  0  0  0
   -1.5492   -1.0440    0.0000 C   0  0  0  0  0  0  0  0  0  0  0  0
    1.9668   -0.7684    0.0000 S   0  0  0  0  0  0  0  0  0  0  0  0
    1.4449    0.8018    0.0000 C   0  0  0  0  0  0  0  0  0  0  0  0
   -0.1712    1.1483    0.0000 O   0  0  0  0  0  0  0  0  0  0  0  0
    3.0233   -1.7205    0.0000 C   0  0  0  0  0  0  0  0  0  0  0  0
    3.2822   -2.4972    0.0000 N   0  0  0  0  0  0  0  0  0  0  0  0
    3.5745   -1.1066    0.0000 O   0  0  0  0  0  0  0  0  0  0  0  0
    2.2216   -1.5451    0.0000 C   0  0  0  0  0  0  0  0  0  0  0  0
    4.0881   -2.6725    0.0000 C   0  0  0  0  0  0  0  0  0  0  0  0
   -1.8373    0.3591    0.0000 C   0  0  0  0  0  0  0  0  0  0  0  0
   -2.3509   -1.3071    0.0000 C   0  0  0  0  0  0  0  0  0  0  0  0
    4.3387   -3.4575    0.0000 C   0  0  0  0  0  0  0  0  0  0  0  0
    2.2591    0.5888    0.0000 C   0  0  0  0  0  0  0  0  0  0  0  0
    1.1901    1.5784    0.0000 C   0  0  0  0  0  0  0  0  0  0  0  0
    3.7875   -4.0714    0.0000 C   0  0  0  0  0  0  0  0  0  0  0  0
    5.1530   -3.6246    0.0000 C   0  0  0  0  0  0  0  0  0  0  0  0
    1.7413    2.1923    0.0000 C   0  0  0  0  0  0  0  0  0  0  0  0
    2.8229    1.2152    0.0000 C   0  0  0  0  0  0  0  0  0  0  0  0
    5.4035   -4.4096    0.0000 C   0  0  0  0  0  0  0  0  0  0  0  0
    4.0463   -4.8523    0.0000 C   0  0  0  0  0  0  0  0  0  0  0  0
    2.5598    2.0252    0.0000 C   0  0  0  0  0  0  0  0  0  0  0  0
    4.8523   -5.0277    0.0000 C   0  0  0  0  0  0  0  0  0  0  0  0
  2  1  2  0  0  0  0
  3  6  1  0  0  0  0
  4  3  1  0  0  0  0
  5  2  1  0  0  0  0
  6  1  1  0  0  0  0
  7  2  1  0  0  0  0
  8  1  1  0  0  0  0
  9  8  2  0  0  0  0
 10  4  1  0  0  0  0
 11  3  1  0  0  0  0
 12  6  2  0  0  0  0
 13 16  1  0  0  0  0
 14 13  1  0  0  0  0
 15 13  2  0  0  0  0
 16 10  1  0  0  0  0
 17 14  1  0  0  0  0
 18  8  1  0  0  0  0
 19  9  1  0  0  0  0
 20 17  1  0  0  0  0
 21 11  2  0  0  0  0
 22 11  1  0  0  0  0
 23 20  2  0  0  0  0
 24 20  1  0  0  0  0
 25 22  2  0  0  0  0
 26 21  1  0  0  0  0
 27 24  2  0  0  0  0
 28 23  1  0  0  0  0
 29 25  1  0  0  0  0
 30 27  1  0  0  0  0
  9  7  1  0  0  0  0
  5  4  2  0  0  0  0
 26 29  2  0  0  0  0
 28 30  2  0  0  0  0
M  END
>  <IDNUMBER>
F1210-0012

>  <Chemical_Name>
N-benzyl-2-({5,6-dimethyl-4-oxo-3-phenyl-3H,4H-thieno[2,3-d]pyrimidin-2-yl}sulfanyl)acetamide

>  <PriceCoeff>
1.00

>  <CAS>
332882-86-7

>  <MW>
435.56

>  <Description>
solid

>  <FSP3>
0.17

>  <clogP>
4.95

>  <TPSA>
115.31

>  <Acceptor>
3

>  <Donor>
1

>  <RotBonds>
6

>  <HAC>
30

>  <Collection>
General

>  <PPDS>
+

$$$$
F1211-0295
  Mrv2219 10102508112D          

 31 34  0  0  0  0            999 V2000
   -3.1731    5.0527    0.0000 C   0  0  0  0  0  0  0  0  0  0  0  0
   -3.8931    0.5106    0.0000 N   0  0  0  0  0  0  0  0  0  0  0  0
   -3.8428    5.5425    0.0000 N   0  0  0  0  0  0  0  0  0  0  0  0
   -3.5875    6.3294    0.0000 C   0  0  0  0  0  0  0  0  0  0  0  0
   -3.1731    4.2239    0.0000 N   0  0  0  0  0  0  0  0  0  0  0  0
   -2.5075    5.5425    0.0000 S   0  0  0  0  0  0  0  0  0  0  0  0
   -2.7587    6.3294    0.0000 C   0  0  0  0  0  0  0  0  0  0  0  0
   -3.8888    3.8177    0.0000 C   0  0  0  0  0  0  0  0  0  0  0  0
   -4.5294    0.0083    0.0000 C   0  0  0  0  0  0  0  0  0  0  0  0
   -3.2107    0.0586    0.0000 C   0  0  0  0  0  0  0  0  0  0  0  0
   -3.8931    1.3395    0.0000 C   0  0  0  0  0  0  0  0  0  0  0  0
   -3.8386    7.1123    0.0000 C   0  0  0  0  0  0  0  0  0  0  0  0
   -3.8888    2.9973    0.0000 C   0  0  0  0  0  0  0  0  0  0  0  0
   -4.6047    4.2239    0.0000 O   0  0  0  0  0  0  0  0  0  0  0  0
   -4.2448   -0.7660    0.0000 C   0  0  0  0  0  0  0  0  0  0  0  0
   -3.4368   -0.7409    0.0000 C   0  0  0  0  0  0  0  0  0  0  0  0
   -5.3331    0.2260    0.0000 O   0  0  0  0  0  0  0  0  0  0  0  0
   -2.4196    0.3474    0.0000 O   0  0  0  0  0  0  0  0  0  0  0  0
   -3.1731    1.7539    0.0000 C   0  0  0  0  0  0  0  0  0  0  0  0
   -4.5922    1.7582    0.0000 C   0  0  0  0  0  0  0  0  0  0  0  0
   -4.5922    2.5829    0.0000 C   0  0  0  0  0  0  0  0  0  0  0  0
   -3.1731    2.5829    0.0000 C   0  0  0  0  0  0  0  0  0  0  0  0
   -4.6466    7.2881    0.0000 C   0  0  0  0  0  0  0  0  0  0  0  0
   -3.2903    7.7277    0.0000 C   0  0  0  0  0  0  0  0  0  0  0  0
   -4.3536    8.6821    0.0000 C   0  0  0  0  0  0  0  0  0  0  0  0
   -3.5372    8.5062    0.0000 C   0  0  0  0  0  0  0  0  0  0  0  0
   -4.9061    8.0667    0.0000 C   0  0  0  0  0  0  0  0  0  0  0  0
   -2.2688    6.9950    0.0000 C   0  0  0  0  0  0  0  0  0  0  0  0
   -4.5922    9.4733    0.0000 O   0  0  0  0  0  0  0  0  0  0  0  0
   -4.0396   10.0844    0.0000 C   0  0  0  0  0  0  0  0  0  0  0  0
   -4.2908   10.8631    0.0000 C   0  0  0  0  0  0  0  0  0  0  0  0
  2 11  1  0  0  0  0
  3  1  2  0  0  0  0
  4  3  1  0  0  0  0
  5  1  1  0  0  0  0
  6  1  1  0  0  0  0
  7  6  1  0  0  0  0
  8  5  1  0  0  0  0
  9  2  1  0  0  0  0
 10  2  1  0  0  0  0
 11 19  1  0  0  0  0
 12  4  1  0  0  0  0
 13  8  1  0  0  0  0
 14  8  2  0  0  0  0
 15  9  1  0  0  0  0
 16 10  1  0  0  0  0
 17  9  2  0  0  0  0
 18 10  2  0  0  0  0
 19 22  2  0  0  0  0
 20 21  1  0  0  0  0
 21 13  2  0  0  0  0
 22 13  1  0  0  0  0
 23 12  1  0  0  0  0
 24 12  2  0  0  0  0
 25 26  2  0  0  0  0
 26 24  1  0  0  0  0
 27 23  2  0  0  0  0
 28  7  1  0  0  0  0
 29 25  1  0  0  0  0
 30 29  1  0  0  0  0
 31 30  1  0  0  0  0
  4  7  2  0  0  0  0
 11 20  2  0  0  0  0
 25 27  1  0  0  0  0
 15 16  1  0  0  0  0
M  END
>  <IDNUMBER>
F1211-0295

>  <Chemical_Name>
4-(2,5-dioxopyrrolidin-1-yl)-N-[4-(4-ethoxyphenyl)-5-methyl-1,3-thiazol-2-yl]benzamide

>  <PriceCoeff>
1.00

>  <CAS>
536732-72-6

>  <MW>
435.50

>  <Description>
solid

>  <FSP3>
0.22

>  <clogP>
2.87

>  <TPSA>
116.84

>  <Acceptor>
5

>  <Donor>
1

>  <RotBonds>
6

>  <HAC>
31

>  <Collection>
General

>  <PPDS>
+

$$$$
F1219-1516
  Mrv2219 10102508112D          

 13 14  0  0  0  0            999 V2000
    6.5966   -2.8939    0.0000 N   0  0  0  0  0  0  0  0  0  0  0  0
    5.9294   -2.4143    0.0000 C   0  0  0  0  0  0  0  0  0  0  0  0
    7.2679   -2.4143    0.0000 C   0  0  0  0  0  0  0  0  0  0  0  0
    6.1838   -1.6262    0.0000 N   0  0  0  0  0  0  0  0  0  0  0  0
    7.0095   -1.6262    0.0000 N   0  0  0  0  0  0  0  0  0  0  0  0
    5.1456   -2.6687    0.0000 C   0  0  0  0  0  0  0  0  0  0  0  0
    6.5966   -3.7195    0.0000 N   0  0  0  0  0  0  0  0  0  0  0  0
    8.0477   -2.6687    0.0000 S   0  0  0  0  0  0  0  0  0  0  0  0
    3.5777   -3.1816    0.0000 N   0  0  0  0  0  0  0  0  0  0  0  0
    3.7445   -2.3685    0.0000 C   0  0  0  0  0  0  0  0  0  0  0  0
    4.1948   -3.7320    0.0000 C   0  0  0  0  0  0  0  0  0  0  0  0
    4.5326   -2.1183    0.0000 C   0  0  0  0  0  0  0  0  0  0  0  0
    4.9787   -3.4693    0.0000 C   0  0  0  0  0  0  0  0  0  0  0  0
  2  1  1  0  0  0  0
  3  1  1  0  0  0  0
  4  2  2  0  0  0  0
  5  3  2  0  0  0  0
  6  2  1  0  0  0  0
  7  1  1  0  0  0  0
  8  3  1  0  0  0  0
  9 11  1  0  0  0  0
 10 12  1  0  0  0  0
 11 13  2  0  0  0  0
 12  6  2  0  0  0  0
 13  6  1  0  0  0  0
  4  5  1  0  0  0  0
  9 10  2  0  0  0  0
M  END
>  <IDNUMBER>
F1219-1516

>  <Chemical_Name>
4-amino-5-(pyridin-4-yl)-4H-1,2,4-triazole-3-thiol

>  <PriceCoeff>
1.00

>  <CAS>
36209-51-5

>  <MW>
193.23

>  <Description>
solid

>  <FSP3>
0.00

>  <clogP>
-0.49

>  <TPSA>
69.62

>  <Acceptor>
3

>  <Donor>
4

>  <RotBonds>
1

>  <HAC>
13

>  <Collection>
General

>  <PPDS>
+

$$$$
F1219-1682
  Mrv2219 10102508112D          

 16 17  0  0  0  0            999 V2000
    6.9694   -1.9027    0.0000 O   0  0  0  0  0  0  0  0  0  0  0  0
    6.2991   -2.3856    0.0000 C   0  0  0  0  0  0  0  0  0  0  0  0
    6.5572   -3.1724    0.0000 N   0  0  0  0  0  0  0  0  0  0  0  0
    7.6355   -2.3856    0.0000 C   0  0  0  0  0  0  0  0  0  0  0  0
    7.3815   -3.1724    0.0000 N   0  0  0  0  0  0  0  0  0  0  0  0
    5.5205   -2.1275    0.0000 C   0  0  0  0  0  0  0  0  0  0  0  0
    5.3499   -1.3281    0.0000 C   0  0  0  0  0  0  0  0  0  0  0  0
    4.5630   -1.0741    0.0000 C   0  0  0  0  0  0  0  0  0  0  0  0
    8.4224   -2.1275    0.0000 S   0  0  0  0  0  0  0  0  0  0  0  0
    3.9510   -1.6237    0.0000 C   0  0  0  0  0  0  0  0  0  0  0  0
    4.9127   -2.6853    0.0000 C   0  0  0  0  0  0  0  0  0  0  0  0
    4.1259   -2.4355    0.0000 C   0  0  0  0  0  0  0  0  0  0  0  0
    4.3964   -0.2665    0.0000 O   0  0  0  0  0  0  0  0  0  0  0  0
    3.1641   -1.3739    0.0000 O   0  0  0  0  0  0  0  0  0  0  0  0
    5.0084    0.2831    0.0000 C   0  0  0  0  0  0  0  0  0  0  0  0
    2.9976   -0.5662    0.0000 C   0  0  0  0  0  0  0  0  0  0  0  0
  2  1  1  0  0  0  0
  3  2  2  0  0  0  0
  4  1  1  0  0  0  0
  5  4  1  0  0  0  0
  6  2  1  0  0  0  0
  7  6  2  0  0  0  0
  8  7  1  0  0  0  0
  9  4  2  0  0  0  0
 10 12  1  0  0  0  0
 11  6  1  0  0  0  0
 12 11  2  0  0  0  0
 13  8  1  0  0  0  0
 14 10  1  0  0  0  0
 15 13  1  0  0  0  0
 16 14  1  0  0  0  0
  5  3  1  0  0  0  0
 10  8  2  0  0  0  0
M  END
>  <IDNUMBER>
F1219-1682

>  <Chemical_Name>
5-(3,4-dimethoxyphenyl)-2,3-dihydro-1,3,4-oxadiazole-2-thione

>  <PriceCoeff>
1.00

>  <CAS>
23269-91-2

>  <MW>
238.27

>  <Description>
solid

>  <FSP3>
0.20

>  <clogP>
2.24

>  <TPSA>
52.08

>  <Acceptor>
5

>  <Donor>
2

>  <RotBonds>
3

>  <HAC>
16

>  <Collection>
General

>  <PPDS>
+

$$$$
F1243-0007
  Mrv2219 10102508112D          

 19 20  0  0  0  0            999 V2000
    2.1500    0.4208    0.0000 C   0  0  0  0  0  0  0  0  0  0  0  0
    3.6125   -0.4292    0.0000 C   0  0  0  0  0  0  0  0  0  0  0  0
    2.1750   -0.4292    0.0000 O   0  0  0  0  0  0  0  0  0  0  0  0
    2.9042   -0.8417    0.0000 C   0  0  0  0  0  0  0  0  0  0  0  0
    4.3250   -0.8417    0.0000 C   0  0  0  0  0  0  0  0  0  0  0  0
    1.4375    0.8250    0.0000 N   0  0  0  0  0  0  0  0  0  0  0  0
    2.8792    0.8250    0.0000 O   0  0  0  0  0  0  0  0  0  0  0  0
    2.9042   -1.6625    0.0000 C   0  0  0  0  0  0  0  0  0  0  0  0
    4.3250   -1.6625    0.0000 C   0  0  0  0  0  0  0  0  0  0  0  0
    3.6125   -2.0792    0.0000 C   0  0  0  0  0  0  0  0  0  0  0  0
    3.6042    0.3958    0.0000 Cl  0  0  0  0  0  0  0  0  0  0  0  0
    5.0375   -0.4292    0.0000 C   0  0  0  0  0  0  0  0  0  0  0  0
    1.4375    1.6625    0.0000 C   0  0  0  0  0  0  0  0  0  0  0  0
    0.7167    0.4083    0.0000 C   0  0  0  0  0  0  0  0  0  0  0  0
    5.0375   -2.0792    0.0000 C   0  0  0  0  0  0  0  0  0  0  0  0
   -0.0125    0.8208    0.0000 C   0  0  0  0  0  0  0  0  0  0  0  0
    0.7042    2.0833    0.0000 C   0  0  0  0  0  0  0  0  0  0  0  0
    5.7667   -0.8417    0.0000 C   0  0  0  0  0  0  0  0  0  0  0  0
    5.7667   -1.6625    0.0000 C   0  0  0  0  0  0  0  0  0  0  0  0
  2  4  1  0  0  0  0
  3  1  1  0  0  0  0
  4  3  1  0  0  0  0
  5  2  2  0  0  0  0
  6  1  1  0  0  0  0
  7  1  2  0  0  0  0
  8  4  2  0  0  0  0
  9 10  2  0  0  0  0
 10  8  1  0  0  0  0
 11  2  1  0  0  0  0
 12  5  1  0  0  0  0
 13  6  1  0  0  0  0
 14  6  1  0  0  0  0
 15  9  1  0  0  0  0
 16 14  1  0  0  0  0
 17 13  1  0  0  0  0
 18 12  2  0  0  0  0
 19 15  2  0  0  0  0
  5  9  1  0  0  0  0
 18 19  1  0  0  0  0
M  END
>  <IDNUMBER>
F1243-0007

>  <Chemical_Name>
1-chloronaphthalen-2-yl N,N-diethylcarbamate

>  <PriceCoeff>
1.00

>  <CAS>
526190-31-8

>  <MW>
277.75

>  <Description>
solid

>  <FSP3>
0.27

>  <clogP>
4.09

>  <TPSA>
29.54

>  <Acceptor>
2

>  <Donor>
0

>  <RotBonds>
5

>  <HAC>
19

>  <Collection>
General

>  <PPDS>
+

$$$$
F1243-0037
  Mrv2219 10102508112D          

 25 27  0  0  0  0            999 V2000
    3.5733   -1.2777    0.0000 C   0  0  0  0  0  0  0  0  0  0  0  0
    2.3287   -3.3920    0.0000 N   0  3  0  0  0  0  0  0  0  0  0  0
    1.9288   -2.6872    0.0000 C   0  0  0  0  0  0  0  0  0  0  0  0
    4.3894   -1.2777    0.0000 N   0  0  0  0  0  0  0  0  0  0  0  0
    3.1530   -1.9701    0.0000 O   0  0  0  0  0  0  0  0  0  0  0  0
    2.3411   -1.9701    0.0000 C   0  0  0  0  0  0  0  0  0  0  0  0
    1.9206   -4.0968    0.0000 O   0  5  0  0  0  0  0  0  0  0  0  0
    3.1530   -0.5606    0.0000 O   0  0  0  0  0  0  0  0  0  0  0  0
    3.1448   -3.4003    0.0000 O   0  0  0  0  0  0  0  0  0  0  0  0
    4.7974   -0.5606    0.0000 C   0  0  0  0  0  0  0  0  0  0  0  0
    4.8097   -1.9825    0.0000 C   0  0  0  0  0  0  0  0  0  0  0  0
    1.1169   -2.6872    0.0000 C   0  0  0  0  0  0  0  0  0  0  0  0
    1.9288   -1.2529    0.0000 C   0  0  0  0  0  0  0  0  0  0  0  0
    5.6258   -1.9701    0.0000 C   0  0  0  0  0  0  0  0  0  0  0  0
    5.6176   -0.5564    0.0000 C   0  0  0  0  0  0  0  0  0  0  0  0
    4.3770    0.1484    0.0000 C   0  0  0  0  0  0  0  0  0  0  0  0
    4.4018   -2.6996    0.0000 C   0  0  0  0  0  0  0  0  0  0  0  0
    0.7090   -1.9701    0.0000 C   0  0  0  0  0  0  0  0  0  0  0  0
    1.1169   -1.2529    0.0000 C   0  0  0  0  0  0  0  0  0  0  0  0
    6.0257    0.1607    0.0000 C   0  0  0  0  0  0  0  0  0  0  0  0
    4.7850    0.8655    0.0000 C   0  0  0  0  0  0  0  0  0  0  0  0
    4.8221   -3.4126    0.0000 C   0  0  0  0  0  0  0  0  0  0  0  0
    6.0504   -2.6749    0.0000 C   0  0  0  0  0  0  0  0  0  0  0  0
    5.6423   -3.4003    0.0000 C   0  0  0  0  0  0  0  0  0  0  0  0
    5.6135    0.8737    0.0000 C   0  0  0  0  0  0  0  0  0  0  0  0
  2  3  1  0  0  0  0
  3  6  1  0  0  0  0
  4  1  1  0  0  0  0
  5  1  1  0  0  0  0
  6  5  1  0  0  0  0
  7  2  1  0  0  0  0
  8  1  2  0  0  0  0
  9  2  2  0  0  0  0
 10  4  1  0  0  0  0
 11  4  1  0  0  0  0
 12  3  2  0  0  0  0
 13  6  2  0  0  0  0
 14 11  1  0  0  0  0
 15 10  2  0  0  0  0
 16 10  1  0  0  0  0
 17 11  2  0  0  0  0
 18 19  2  0  0  0  0
 19 13  1  0  0  0  0
 20 15  1  0  0  0  0
 21 16  2  0  0  0  0
 22 17  1  0  0  0  0
 23 14  2  0  0  0  0
 24 22  2  0  0  0  0
 25 21  1  0  0  0  0
 12 18  1  0  0  0  0
 23 24  1  0  0  0  0
 20 25  2  0  0  0  0
M  CHG  2   2   1   7  -1
M  END
>  <IDNUMBER>
F1243-0037

>  <Chemical_Name>
2-nitrophenyl N,N-diphenylcarbamate

>  <PriceCoeff>
1.00

>  <CAS>
354552-03-7

>  <MW>
334.33

>  <Description>
solid

>  <FSP3>
0.00

>  <clogP>
4.85

>  <TPSA>
72.68

>  <Acceptor>
4

>  <Donor>
0

>  <RotBonds>
6

>  <HAC>
25

>  <Collection>
General

>  <PPDS>
+

$$$$
F1243-0042
  Mrv2219 10102508112D          

 22 23  0  0  0  0            999 V2000
    2.1875   -1.0542    0.0000 C   0  0  0  0  0  0  0  0  0  0  0  0
    6.4875   -2.6917    0.0000 C   0  0  0  0  0  0  0  0  0  0  0  0
    2.9042   -1.4667    0.0000 O   0  0  0  0  0  0  0  0  0  0  0  0
    2.9042   -2.2917    0.0000 C   0  0  0  0  0  0  0  0  0  0  0  0
    3.6167   -2.7042    0.0000 C   0  0  0  0  0  0  0  0  0  0  0  0
    5.7750   -2.2875    0.0000 O   0  0  0  0  0  0  0  0  0  0  0  0
    2.1792   -0.2167    0.0000 N   0  0  0  0  0  0  0  0  0  0  0  0
    7.2042   -2.2792    0.0000 N   0  0  0  0  0  0  0  0  0  0  0  0
    1.4667   -1.4625    0.0000 O   0  0  0  0  0  0  0  0  0  0  0  0
    6.4792   -3.5167    0.0000 O   0  0  0  0  0  0  0  0  0  0  0  0
    4.3292   -2.2917    0.0000 C   0  0  0  0  0  0  0  0  0  0  0  0
    5.0625   -2.7042    0.0000 C   0  0  0  0  0  0  0  0  0  0  0  0
    3.6167   -3.5167    0.0000 C   0  0  0  0  0  0  0  0  0  0  0  0
    4.3292   -3.9375    0.0000 C   0  0  0  0  0  0  0  0  0  0  0  0
    5.0625   -3.5167    0.0000 C   0  0  0  0  0  0  0  0  0  0  0  0
    2.1917   -2.7042    0.0000 C   0  0  0  0  0  0  0  0  0  0  0  0
    2.1917   -3.5167    0.0000 C   0  0  0  0  0  0  0  0  0  0  0  0
    2.8917    0.1958    0.0000 C   0  0  0  0  0  0  0  0  0  0  0  0
    1.4542    0.1875    0.0000 C   0  0  0  0  0  0  0  0  0  0  0  0
    7.9125   -2.7042    0.0000 C   0  0  0  0  0  0  0  0  0  0  0  0
    7.2000   -1.4625    0.0000 C   0  0  0  0  0  0  0  0  0  0  0  0
    2.9042   -3.9375    0.0000 C   0  0  0  0  0  0  0  0  0  0  0  0
  2  6  1  0  0  0  0
  3  1  1  0  0  0  0
  4  3  1  0  0  0  0
  5  4  2  0  0  0  0
  6 12  1  0  0  0  0
  7  1  1  0  0  0  0
  8  2  1  0  0  0  0
  9  1  2  0  0  0  0
 10  2  2  0  0  0  0
 11  5  1  0  0  0  0
 12 11  2  0  0  0  0
 13  5  1  0  0  0  0
 14 13  1  0  0  0  0
 15 14  2  0  0  0  0
 16  4  1  0  0  0  0
 17 16  2  0  0  0  0
 18  7  1  0  0  0  0
 19  7  1  0  0  0  0
 20  8  1  0  0  0  0
 21  8  1  0  0  0  0
 22 17  1  0  0  0  0
 13 22  2  0  0  0  0
 12 15  1  0  0  0  0
M  END
>  <IDNUMBER>
F1243-0042

>  <Chemical_Name>
7-[(dimethylcarbamoyl)oxy]naphthalen-1-yl N,N-dimethylcarbamate

>  <PriceCoeff>
1.00

>  <CAS>
526190-44-3

>  <MW>
302.33

>  <Description>
solid

>  <FSP3>
0.25

>  <clogP>
2.01

>  <TPSA>
59.08

>  <Acceptor>
4

>  <Donor>
0

>  <RotBonds>
6

>  <HAC>
22

>  <Collection>
General

>  <PPDS>
+

$$$$
F1243-0047
  Mrv2219 10102508112D          

 22 23  0  0  0  0            999 V2000
    6.5177    0.0752    0.0000 C   0  0  0  0  0  0  0  0  0  0  0  0
    0.7808    0.0709    0.0000 C   0  0  0  0  0  0  0  0  0  0  0  0
    1.5031    0.4843    0.0000 O   0  0  0  0  0  0  0  0  0  0  0  0
    5.8037    0.4843    0.0000 O   0  0  0  0  0  0  0  0  0  0  0  0
    3.6450    0.0709    0.0000 C   0  0  0  0  0  0  0  0  0  0  0  0
    7.2317    0.4885    0.0000 N   0  0  0  0  0  0  0  0  0  0  0  0
    0.0668    0.4968    0.0000 N   0  0  0  0  0  0  0  0  0  0  0  0
    0.7808   -0.7558    0.0000 O   0  0  0  0  0  0  0  0  0  0  0  0
    6.5135   -0.7516    0.0000 O   0  0  0  0  0  0  0  0  0  0  0  0
    2.2213    0.0709    0.0000 C   0  0  0  0  0  0  0  0  0  0  0  0
    5.0897    0.0709    0.0000 C   0  0  0  0  0  0  0  0  0  0  0  0
    4.3590    0.4843    0.0000 C   0  0  0  0  0  0  0  0  0  0  0  0
    2.9311    0.4843    0.0000 C   0  0  0  0  0  0  0  0  0  0  0  0
    3.6450   -0.7516    0.0000 C   0  0  0  0  0  0  0  0  0  0  0  0
    4.3590   -1.1691    0.0000 C   0  0  0  0  0  0  0  0  0  0  0  0
    2.9311   -1.1691    0.0000 C   0  0  0  0  0  0  0  0  0  0  0  0
    2.2213   -0.7516    0.0000 C   0  0  0  0  0  0  0  0  0  0  0  0
    5.0897   -0.7516    0.0000 C   0  0  0  0  0  0  0  0  0  0  0  0
    7.9456    0.0709    0.0000 C   0  0  0  0  0  0  0  0  0  0  0  0
    7.2317    1.3110    0.0000 C   0  0  0  0  0  0  0  0  0  0  0  0
    0.0752    1.3152    0.0000 C   0  0  0  0  0  0  0  0  0  0  0  0
   -0.6513    0.0835    0.0000 C   0  0  0  0  0  0  0  0  0  0  0  0
  2  3  1  0  0  0  0
  3 10  1  0  0  0  0
  4  1  1  0  0  0  0
  5 12  1  0  0  0  0
  6  1  1  0  0  0  0
  7  2  1  0  0  0  0
  8  2  2  0  0  0  0
  9  1  2  0  0  0  0
 10 13  1  0  0  0  0
 11  4  1  0  0  0  0
 12 11  2  0  0  0  0
 13  5  2  0  0  0  0
 14 15  1  0  0  0  0
 15 18  2  0  0  0  0
 16 14  2  0  0  0  0
 17 16  1  0  0  0  0
 18 11  1  0  0  0  0
 19  6  1  0  0  0  0
 20  6  1  0  0  0  0
 21  7  1  0  0  0  0
 22  7  1  0  0  0  0
  5 14  1  0  0  0  0
 17 10  2  0  0  0  0
M  END
>  <IDNUMBER>
F1243-0047

>  <Chemical_Name>
7-[(dimethylcarbamoyl)oxy]naphthalen-2-yl N,N-dimethylcarbamate

>  <PriceCoeff>
1.00

>  <CAS>
526190-48-7

>  <MW>
302.33

>  <Description>
solid

>  <FSP3>
0.25

>  <clogP>
2.01

>  <TPSA>
59.08

>  <Acceptor>
4

>  <Donor>
0

>  <RotBonds>
6

>  <HAC>
22

>  <Collection>
General

>  <PPDS>
+

$$$$
F1243-0065
  Mrv2219 10102508112D          

 18 19  0  0  0  0            999 V2000
    3.9181   -5.5046    0.0000 N   0  3  0  0  0  0  0  0  0  0  0  0
    7.6394   -4.8013    0.0000 C   0  0  0  0  0  0  0  0  0  0  0  0
    8.4682   -4.8013    0.0000 N   0  0  0  0  0  0  0  0  0  0  0  0
    7.2124   -5.5046    0.0000 O   0  0  0  0  0  0  0  0  0  0  0  0
    4.7511   -5.5046    0.0000 C   0  0  0  0  0  0  0  0  0  0  0  0
    3.5036   -4.7846    0.0000 O   0  5  0  0  0  0  0  0  0  0  0  0
    3.5036   -6.2204    0.0000 O   0  0  0  0  0  0  0  0  0  0  0  0
    7.2124   -4.0730    0.0000 O   0  0  0  0  0  0  0  0  0  0  0  0
    5.1655   -6.2162    0.0000 C   0  0  0  0  0  0  0  0  0  0  0  0
    5.1613   -4.7888    0.0000 C   0  0  0  0  0  0  0  0  0  0  0  0
    6.3920   -5.5046    0.0000 C   0  0  0  0  0  0  0  0  0  0  0  0
    5.9818   -6.2162    0.0000 C   0  0  0  0  0  0  0  0  0  0  0  0
    5.9818   -4.7888    0.0000 C   0  0  0  0  0  0  0  0  0  0  0  0
    8.8952   -5.5171    0.0000 C   0  0  0  0  0  0  0  0  0  0  0  0
    8.8826   -4.0730    0.0000 C   0  0  0  0  0  0  0  0  0  0  0  0
    9.7198   -5.5171    0.0000 C   0  0  0  0  0  0  0  0  0  0  0  0
    9.7198   -4.0730    0.0000 C   0  0  0  0  0  0  0  0  0  0  0  0
   10.1384   -4.8013    0.0000 C   0  0  0  0  0  0  0  0  0  0  0  0
  2  4  1  0  0  0  0
  3  2  1  0  0  0  0
  4 11  1  0  0  0  0
  5  1  1  0  0  0  0
  6  1  1  0  0  0  0
  7  1  2  0  0  0  0
  8  2  2  0  0  0  0
  9  5  1  0  0  0  0
 10  5  2  0  0  0  0
 11 13  2  0  0  0  0
 12  9  2  0  0  0  0
 13 10  1  0  0  0  0
 14  3  1  0  0  0  0
 15  3  1  0  0  0  0
 16 14  1  0  0  0  0
 17 15  1  0  0  0  0
 18 17  1  0  0  0  0
 12 11  1  0  0  0  0
 18 16  1  0  0  0  0
M  CHG  2   1   1   6  -1
M  END
>  <IDNUMBER>
F1243-0065

>  <Chemical_Name>
4-nitrophenyl piperidine-1-carboxylate

>  <PriceCoeff>
1.00

>  <CAS>
65815-76-1

>  <MW>
250.25

>  <Description>
solid

>  <FSP3>
0.42

>  <clogP>
2.66

>  <TPSA>
72.68

>  <Acceptor>
4

>  <Donor>
0

>  <RotBonds>
4

>  <HAC>
18

>  <Collection>
General

>  <PPDS>
+

$$$$
F1243-0099
  Mrv2219 10102508112D          

 14 14  0  0  0  0            999 V2000
    2.9126   -8.8296    0.0000 N   0  0  0  0  0  0  0  0  0  0  0  0
    3.1967   -9.5943    0.0000 S   0  0  0  0  0  0  0  0  0  0  0  0
    3.3764   -8.1401    0.0000 C   0  0  0  0  0  0  0  0  0  0  0  0
    2.1103   -8.5914    0.0000 N   0  0  0  0  0  0  0  0  0  0  0  0
    2.8708   -7.4882    0.0000 C   0  0  0  0  0  0  0  0  0  0  0  0
    2.0977   -7.7640    0.0000 C   0  0  0  0  0  0  0  0  0  0  0  0
    3.4098  -10.3966    0.0000 N   0  0  0  0  0  0  0  0  0  0  0  0
    4.0241   -9.5943    0.0000 O   0  0  0  0  0  0  0  0  0  0  0  0
    2.4738  -10.0080    0.0000 O   0  0  0  0  0  0  0  0  0  0  0  0
    3.0755   -6.6942    0.0000 Br  0  0  0  0  0  0  0  0  0  0  0  0
    4.1996   -8.1401    0.0000 C   0  0  0  0  0  0  0  0  0  0  0  0
    1.3706   -7.3378    0.0000 C   0  0  0  0  0  0  0  0  0  0  0  0
    2.8206  -10.9732    0.0000 C   0  0  0  0  0  0  0  0  0  0  0  0
    4.2038  -10.6097    0.0000 C   0  0  0  0  0  0  0  0  0  0  0  0
  2  1  1  0  0  0  0
  3  1  1  0  0  0  0
  4  1  1  0  0  0  0
  5  3  2  0  0  0  0
  6  4  2  0  0  0  0
  7  2  1  0  0  0  0
  8  2  2  0  0  0  0
  9  2  2  0  0  0  0
 10  5  1  0  0  0  0
 11  3  1  0  0  0  0
 12  6  1  0  0  0  0
 13  7  1  0  0  0  0
 14  7  1  0  0  0  0
  6  5  1  0  0  0  0
M  END
>  <IDNUMBER>
F1243-0099

>  <Chemical_Name>
4-bromo-N,N,3,5-tetramethyl-1H-pyrazole-1-sulfonamide

>  <PriceCoeff>
1.50

>  <MW>
282.16

>  <Description>
solid

>  <FSP3>
0.57

>  <clogP>
0.93

>  <TPSA>
63.58

>  <Acceptor>
3

>  <Donor>
0

>  <RotBonds>
2

>  <HAC>
14

>  <Collection>
Advanced

$$$$
F1268-0176
  Mrv2219 10102508112D          

 21 23  0  0  0  0            999 V2000
    2.7500   -1.7500    0.0000 N   0  0  0  0  0  0  0  0  0  0  0  0
    3.3292   -1.1625    0.0000 C   0  0  0  0  0  0  0  0  0  0  0  0
    3.3250   -2.4125    0.0000 C   0  0  0  0  0  0  0  0  0  0  0  0
    4.1250   -2.2000    0.0000 C   0  0  0  0  0  0  0  0  0  0  0  0
    4.1292   -1.3750    0.0000 C   0  0  0  0  0  0  0  0  0  0  0  0
    4.8375   -2.6125    0.0000 N   0  0  0  0  0  0  0  0  0  0  0  0
    1.9250   -1.7500    0.0000 C   0  0  0  0  0  0  0  0  0  0  0  0
    3.3292   -0.3375    0.0000 O   0  0  0  0  0  0  0  0  0  0  0  0
    3.3167   -3.2375    0.0000 O   0  0  0  0  0  0  0  0  0  0  0  0
    1.5125   -1.0375    0.0000 C   0  0  0  0  0  0  0  0  0  0  0  0
    1.5167   -2.4625    0.0000 C   0  0  0  0  0  0  0  0  0  0  0  0
    5.4167   -2.0250    0.0000 C   0  0  0  0  0  0  0  0  0  0  0  0
    0.6917   -2.4667    0.0000 C   0  0  0  0  0  0  0  0  0  0  0  0
    0.6917   -1.0375    0.0000 C   0  0  0  0  0  0  0  0  0  0  0  0
    0.2792   -1.7542    0.0000 C   0  0  0  0  0  0  0  0  0  0  0  0
    6.2167   -2.2375    0.0000 C   0  0  0  0  0  0  0  0  0  0  0  0
    5.2000   -1.2292    0.0000 C   0  0  0  0  0  0  0  0  0  0  0  0
   -0.5458   -1.7542    0.0000 C   0  0  0  0  0  0  0  0  0  0  0  0
    5.7792   -0.6417    0.0000 C   0  0  0  0  0  0  0  0  0  0  0  0
    6.8042   -1.6500    0.0000 C   0  0  0  0  0  0  0  0  0  0  0  0
    6.5875   -0.8500    0.0000 C   0  0  0  0  0  0  0  0  0  0  0  0
  2  1  1  0  0  0  0
  3  1  1  0  0  0  0
  4  3  1  0  0  0  0
  5  2  1  0  0  0  0
  6  4  1  0  0  0  0
  7  1  1  0  0  0  0
  8  2  2  0  0  0  0
  9  3  2  0  0  0  0
 10  7  2  0  0  0  0
 11  7  1  0  0  0  0
 12  6  1  0  0  0  0
 13 11  2  0  0  0  0
 14 10  1  0  0  0  0
 15 13  1  0  0  0  0
 16 12  2  0  0  0  0
 17 12  1  0  0  0  0
 18 15  1  0  0  0  0
 19 17  2  0  0  0  0
 20 16  1  0  0  0  0
 21 19  1  0  0  0  0
  4  5  1  0  0  0  0
 15 14  2  0  0  0  0
 21 20  2  0  0  0  0
M  END
>  <IDNUMBER>
F1268-0176

>  <Chemical_Name>
1-(4-methylphenyl)-3-(phenylamino)pyrrolidine-2,5-dione

>  <PriceCoeff>
1.00

>  <CAS>
37910-33-1

>  <MW>
280.32

>  <Description>
solid

>  <FSP3>
0.18

>  <clogP>
2.99

>  <TPSA>
49.41

>  <Acceptor>
3

>  <Donor>
1

>  <RotBonds>
3

>  <HAC>
21

>  <Collection>
General

>  <PPDS>
+

$$$$
F1277-0114
  Mrv2219 10102508112D          

 25 27  0  0  0  0            999 V2000
    4.6684   -5.2895    0.0000 N   0  0  0  0  0  0  0  0  0  0  0  0
    4.0057   -5.7689    0.0000 C   0  0  0  0  0  0  0  0  0  0  0  0
    5.3395   -5.7689    0.0000 C   0  0  0  0  0  0  0  0  0  0  0  0
    4.2558   -6.5567    0.0000 C   0  0  0  0  0  0  0  0  0  0  0  0
    5.0811   -6.5567    0.0000 C   0  0  0  0  0  0  0  0  0  0  0  0
    4.6684   -4.4642    0.0000 C   0  0  0  0  0  0  0  0  0  0  0  0
    5.5688   -7.2277    0.0000 S   0  0  0  0  0  0  0  0  0  0  0  0
    5.7146   -8.6449    0.0000 C   0  0  0  0  0  0  0  0  0  0  0  0
    3.2179   -5.5188    0.0000 O   0  0  0  0  0  0  0  0  0  0  0  0
    6.1273   -5.5188    0.0000 O   0  0  0  0  0  0  0  0  0  0  0  0
    6.5316   -8.5574    0.0000 N   0  0  0  0  0  0  0  0  0  0  0  0
    5.3770   -9.4035    0.0000 O   0  0  0  0  0  0  0  0  0  0  0  0
    5.3812   -4.0432    0.0000 C   0  0  0  0  0  0  0  0  0  0  0  0
    3.9557   -4.0515    0.0000 C   0  0  0  0  0  0  0  0  0  0  0  0
    5.2312   -7.9822    0.0000 C   0  0  0  0  0  0  0  0  0  0  0  0
    7.0193   -9.2327    0.0000 C   0  0  0  0  0  0  0  0  0  0  0  0
    3.9515   -3.2304    0.0000 C   0  0  0  0  0  0  0  0  0  0  0  0
    5.3812   -3.2262    0.0000 C   0  0  0  0  0  0  0  0  0  0  0  0
    4.6684   -2.8136    0.0000 C   0  0  0  0  0  0  0  0  0  0  0  0
    4.6642   -1.9882    0.0000 C   0  0  0  0  0  0  0  0  0  0  0  0
    7.8321   -9.1451    0.0000 C   0  0  0  0  0  0  0  0  0  0  0  0
    6.6817   -9.9829    0.0000 C   0  0  0  0  0  0  0  0  0  0  0  0
    7.1652  -10.6540    0.0000 C   0  0  0  0  0  0  0  0  0  0  0  0
    8.3198   -9.8079    0.0000 C   0  0  0  0  0  0  0  0  0  0  0  0
    7.9822  -10.5665    0.0000 C   0  0  0  0  0  0  0  0  0  0  0  0
  2  1  1  0  0  0  0
  3  1  1  0  0  0  0
  4  2  1  0  0  0  0
  5  3  1  0  0  0  0
  6  1  1  0  0  0  0
  7  5  1  0  0  0  0
  8 15  1  0  0  0  0
  9  2  2  0  0  0  0
 10  3  2  0  0  0  0
 11  8  1  0  0  0  0
 12  8  2  0  0  0  0
 13  6  2  0  0  0  0
 14  6  1  0  0  0  0
 15  7  1  0  0  0  0
 16 11  1  0  0  0  0
 17 14  2  0  0  0  0
 18 13  1  0  0  0  0
 19 17  1  0  0  0  0
 20 19  1  0  0  0  0
 21 16  1  0  0  0  0
 22 16  2  0  0  0  0
 23 22  1  0  0  0  0
 24 21  2  0  0  0  0
 25 23  2  0  0  0  0
  5  4  1  0  0  0  0
 19 18  2  0  0  0  0
 25 24  1  0  0  0  0
M  END
>  <IDNUMBER>
F1277-0114

>  <Chemical_Name>
2-{[1-(4-methylphenyl)-2,5-dioxopyrrolidin-3-yl]sulfanyl}-N-phenylacetamide

>  <PriceCoeff>
1.00

>  <MW>
354.42

>  <Description>
solid

>  <FSP3>
0.21

>  <clogP>
2.73

>  <TPSA>
91.78

>  <Acceptor>
3

>  <Donor>
1

>  <RotBonds>
5

>  <HAC>
25

>  <Collection>
General

$$$$
F1280-0014
  Mrv2219 10102508112D          

 25 27  0  0  0  0            999 V2000
    3.1468    0.8355    0.0000 C   0  0  0  0  0  0  0  0  0  0  0  0
    2.4360    0.4240    0.0000 N   0  0  0  0  0  0  0  0  0  0  0  0
    1.0143   -0.3991    0.0000 N   0  0  0  0  0  0  0  0  0  0  0  0
    3.8660    0.4240    0.0000 N   0  0  0  0  0  0  0  0  0  0  0  0
    3.1468    1.6586    0.0000 S   0  0  0  0  0  0  0  0  0  0  0  0
    0.3035   -0.8106    0.0000 C   0  0  0  0  0  0  0  0  0  0  0  0
    1.7252    0.8355    0.0000 C   0  0  0  0  0  0  0  0  0  0  0  0
    2.4360   -0.3991    0.0000 C   0  0  0  0  0  0  0  0  0  0  0  0
    1.0101    0.4240    0.0000 C   0  0  0  0  0  0  0  0  0  0  0  0
    1.7252   -0.8023    0.0000 C   0  0  0  0  0  0  0  0  0  0  0  0
   -0.4115   -0.3991    0.0000 C   0  0  0  0  0  0  0  0  0  0  0  0
    0.3035   -1.6379    0.0000 C   0  0  0  0  0  0  0  0  0  0  0  0
    4.5768    0.8355    0.0000 C   0  0  0  0  0  0  0  0  0  0  0  0
   -1.1224   -1.6379    0.0000 C   0  0  0  0  0  0  0  0  0  0  0  0
    6.0026    1.6586    0.0000 C   0  0  0  0  0  0  0  0  0  0  0  0
   -1.1224   -0.8106    0.0000 C   0  0  0  0  0  0  0  0  0  0  0  0
   -0.4115   -2.0494    0.0000 C   0  0  0  0  0  0  0  0  0  0  0  0
    5.2918    0.4240    0.0000 C   0  0  0  0  0  0  0  0  0  0  0  0
    4.5810    1.6544    0.0000 C   0  0  0  0  0  0  0  0  0  0  0  0
    5.2876    2.0784    0.0000 C   0  0  0  0  0  0  0  0  0  0  0  0
    6.0026    0.8314    0.0000 C   0  0  0  0  0  0  0  0  0  0  0  0
   -1.8415   -2.0494    0.0000 O   0  0  0  0  0  0  0  0  0  0  0  0
    6.7135    2.0784    0.0000 O   0  0  0  0  0  0  0  0  0  0  0  0
    7.4326    1.6586    0.0000 C   0  0  0  0  0  0  0  0  0  0  0  0
   -1.8415   -2.8725    0.0000 C   0  0  0  0  0  0  0  0  0  0  0  0
  2  1  1  0  0  0  0
  3 10  1  0  0  0  0
  4  1  1  0  0  0  0
  5  1  2  0  0  0  0
  6  3  1  0  0  0  0
  7  2  1  0  0  0  0
  8  2  1  0  0  0  0
  9  7  1  0  0  0  0
 10  8  1  0  0  0  0
 11  6  2  0  0  0  0
 12  6  1  0  0  0  0
 13  4  1  0  0  0  0
 14 17  1  0  0  0  0
 15 20  1  0  0  0  0
 16 11  1  0  0  0  0
 17 12  2  0  0  0  0
 18 13  2  0  0  0  0
 19 13  1  0  0  0  0
 20 19  2  0  0  0  0
 21 18  1  0  0  0  0
 22 14  1  0  0  0  0
 23 15  1  0  0  0  0
 24 23  1  0  0  0  0
 25 22  1  0  0  0  0
  9  3  1  0  0  0  0
 21 15  2  0  0  0  0
 16 14  2  0  0  0  0
M  END
>  <IDNUMBER>
F1280-0014

>  <Chemical_Name>
N,4-bis(4-methoxyphenyl)piperazine-1-carbothioamide

>  <PriceCoeff>
1.00

>  <CAS>
496775-76-9

>  <MW>
357.47

>  <Description>
solid

>  <FSP3>
0.32

>  <clogP>
3.54

>  <TPSA>
69.06

>  <Acceptor>
4

>  <Donor>
3

>  <RotBonds>
5

>  <HAC>
25

>  <Collection>
General

>  <PPDS>
+

$$$$
F1284-0695
  Mrv2219 10102508112D          

 21 24  0  0  0  0            999 V2000
    4.4995   -0.6027    0.0000 C   0  0  0  0  0  0  0  0  0  0  0  0
    4.4995   -1.4277    0.0000 C   0  0  0  0  0  0  0  0  0  0  0  0
    3.0602   -1.4102    0.0000 C   0  0  0  0  0  0  0  0  0  0  0  0
    3.7739   -1.8314    0.0000 C   0  0  0  0  0  0  0  0  0  0  0  0
    2.3580   -1.8314    0.0000 C   0  0  0  0  0  0  0  0  0  0  0  0
    5.2719   -0.3511    0.0000 C   0  0  0  0  0  0  0  0  0  0  0  0
    3.7915   -0.1755    0.0000 C   0  0  0  0  0  0  0  0  0  0  0  0
    3.0777   -0.5793    0.0000 C   0  0  0  0  0  0  0  0  0  0  0  0
    5.2719   -1.6851    0.0000 C   0  0  0  0  0  0  0  0  0  0  0  0
    3.7739   -2.6681    0.0000 C   0  0  0  0  0  0  0  0  0  0  0  0
    2.3580   -2.6389    0.0000 C   0  0  0  0  0  0  0  0  0  0  0  0
    5.7574   -1.0064    0.0000 C   0  0  0  0  0  0  0  0  0  0  0  0
    3.0602   -3.0718    0.0000 C   0  0  0  0  0  0  0  0  0  0  0  0
    5.6054    0.4329    0.0000 O   0  0  0  0  0  0  0  0  0  0  0  0
    4.5287    0.2282    0.0000 C   0  0  0  0  0  0  0  0  0  0  0  0
    2.3580   -1.0064    0.0000 C   0  0  0  0  0  0  0  0  0  0  0  0
    1.6208   -1.4102    0.0000 C   0  0  0  0  0  0  0  0  0  0  0  0
    6.0793   -0.0937    0.0000 C   0  0  0  0  0  0  0  0  0  0  0  0
    1.6208   -3.0718    0.0000 C   0  0  0  0  0  0  0  0  0  0  0  0
    0.9187   -1.8314    0.0000 C   0  0  0  0  0  0  0  0  0  0  0  0
    0.9187   -2.6389    0.0000 C   0  0  0  0  0  0  0  0  0  0  0  0
  2  1  1  0  0  0  0
  3  8  1  0  0  0  0
  4  2  1  0  0  0  0
  5  3  1  0  0  0  0
  6  1  1  0  0  0  0
  7  1  1  0  0  0  0
  8  7  1  0  0  0  0
  9  2  1  0  0  0  0
 10  4  1  0  0  0  0
 11  5  1  0  0  0  0
 12  6  1  0  0  0  0
 13 10  1  0  0  0  0
 14  6  1  0  0  0  0
 15  1  1  0  0  0  0
 16  5  1  0  0  0  0
 17  5  1  0  0  0  0
 18  6  1  0  0  0  0
 19 11  1  0  0  0  0
 20 17  1  0  0  0  0
 21 20  1  0  0  0  0
 12  9  1  0  0  0  0
  4  3  1  0  0  0  0
 13 11  1  0  0  0  0
 19 21  1  0  0  0  0
M  END
>  <IDNUMBER>
F1284-0695

>  <Chemical_Name>
1,9a,11a-trimethyl-hexadecahydro-1H-cyclopenta[a]phenanthren-1-ol

>  <PriceCoeff>
1.00

>  <MW>
290.48

>  <Description>
solid

>  <FSP3>
1.00

>  <clogP>
6.56

>  <TPSA>
20.23

>  <Acceptor>
1

>  <Donor>
1

>  <RotBonds>
0

>  <HAC>
21

>  <Collection>
General

$$$$
F1285-1324
  Mrv2219 10102508112D          

 12 13  0  0  0  0            999 V2000
   -0.5347   -1.7570    0.0000 C   0  0  0  0  0  0  0  0  0  0  0  0
   -1.2490   -2.1580    0.0000 N   0  0  0  0  0  0  0  0  0  0  0  0
   -0.5347   -0.9167    0.0000 C   0  0  0  0  0  0  0  0  0  0  0  0
   -1.9670   -1.7570    0.0000 C   0  0  0  0  0  0  0  0  0  0  0  0
   -1.9670   -0.9167    0.0000 N   0  0  0  0  0  0  0  0  0  0  0  0
   -1.2490   -0.5080    0.0000 C   0  0  0  0  0  0  0  0  0  0  0  0
    0.2559   -1.9976    0.0000 N   0  0  0  0  0  0  0  0  0  0  0  0
    0.2559   -0.6760    0.0000 N   0  0  0  0  0  0  0  0  0  0  0  0
    0.7143   -1.3559    0.0000 C   0  0  0  0  0  0  0  0  0  0  0  0
   -2.6774   -2.2000    0.0000 O   0  0  0  0  0  0  0  0  0  0  0  0
   -1.2490    0.3170    0.0000 O   0  0  0  0  0  0  0  0  0  0  0  0
   -1.2490   -2.9830    0.0000 C   0  0  0  0  0  0  0  0  0  0  0  0
  2  1  1  0  0  0  0
  3  1  2  0  0  0  0
  4  2  1  0  0  0  0
  5  6  1  0  0  0  0
  6  3  1  0  0  0  0
  7  1  1  0  0  0  0
  8  3  1  0  0  0  0
  9  7  2  0  0  0  0
 10  4  2  0  0  0  0
 11  6  2  0  0  0  0
 12  2  1  0  0  0  0
  8  9  1  0  0  0  0
  5  4  1  0  0  0  0
M  END
>  <IDNUMBER>
F1285-1324

>  <Chemical_Name>
3-methyl-2,3,6,7-tetrahydro-1H-purine-2,6-dione

>  <PriceCoeff>
1.00

>  <CAS>
1076-22-8

>  <MW>
166.14

>  <Description>
solid

>  <FSP3>
0.17

>  <clogP>
-0.66

>  <TPSA>
78.09

>  <Acceptor>
4

>  <Donor>
3

>  <RotBonds>
0

>  <HAC>
12

>  <Collection>
General

>  <PPDS>
+

$$$$
F1294-0164
  Mrv2219 10102508112D          

 12 12  0  0  0  0            999 V2000
   -2.2675    0.1109    0.0000 C   0  0  0  0  0  0  0  0  0  0  0  0
   -2.9767    1.3557    0.0000 N   0  0  0  0  0  0  0  0  0  0  0  0
   -2.9767   -0.2943    0.0000 S   0  0  0  0  0  0  0  0  0  0  0  0
   -2.2675    0.9408    0.0000 N   0  0  0  0  0  0  0  0  0  0  0  0
   -1.5487   -0.2943    0.0000 N   0  0  0  0  0  0  0  0  0  0  0  0
   -2.9767    2.1807    0.0000 C   0  0  0  0  0  0  0  0  0  0  0  0
   -3.6908    2.6004    0.0000 C   0  0  0  0  0  0  0  0  0  0  0  0
   -4.4096    2.1951    0.0000 C   0  0  0  0  0  0  0  0  0  0  0  0
   -3.6908    3.4254    0.0000 C   0  0  0  0  0  0  0  0  0  0  0  0
   -5.1188    2.6004    0.0000 C   0  0  0  0  0  0  0  0  0  0  0  0
   -4.4096    3.8355    0.0000 C   0  0  0  0  0  0  0  0  0  0  0  0
   -5.1188    3.4254    0.0000 C   0  0  0  0  0  0  0  0  0  0  0  0
  2  4  1  0  0  0  0
  3  1  2  0  0  0  0
  4  1  1  0  0  0  0
  5  1  1  0  0  0  0
  6  2  2  0  0  0  0
  7  6  1  0  0  0  0
  8  7  2  0  0  0  0
  9  7  1  0  0  0  0
 10  8  1  0  0  0  0
 11  9  2  0  0  0  0
 12 11  1  0  0  0  0
 12 10  2  0  0  0  0
M  END
>  <IDNUMBER>
F1294-0164

>  <Chemical_Name>
[(E)-(phenylmethylidene)amino]thiourea

>  <PriceCoeff>
1.00

>  <CAS>
1627-73-2

>  <MW>
179.25

>  <Description>
solid

>  <FSP3>
0.00

>  <clogP>
1.67

>  <TPSA>
50.41

>  <Acceptor>
2

>  <Donor>
3

>  <RotBonds>
2

>  <HAC>
12

>  <Collection>
General

>  <PPDS>
+

$$$$
F1297-0137
  Mrv2219 10102508112D          

 30 33  0  0  0  0            999 V2000
   -1.8914    3.0145    0.0000 C   0  0  0  0  0  0  0  0  0  0  0  0
   -1.0647    3.0145    0.0000 N   0  0  0  0  0  0  0  0  0  0  0  0
   -2.3757    2.3423    0.0000 N   0  0  0  0  0  0  0  0  0  0  0  0
    2.6430    2.2922    0.0000 N   0  0  0  0  0  0  0  0  0  0  0  0
   -2.3757    3.6826    0.0000 S   0  0  0  0  0  0  0  0  0  0  0  0
   -3.1648    2.6012    0.0000 C   0  0  0  0  0  0  0  0  0  0  0  0
   -3.1648    3.4279    0.0000 C   0  0  0  0  0  0  0  0  0  0  0  0
   -0.6513    2.3006    0.0000 C   0  0  0  0  0  0  0  0  0  0  0  0
    3.1482    1.6617    0.0000 C   0  0  0  0  0  0  0  0  0  0  0  0
    3.0981    2.9770    0.0000 C   0  0  0  0  0  0  0  0  0  0  0  0
    1.8205    2.2922    0.0000 C   0  0  0  0  0  0  0  0  0  0  0  0
    0.1670    2.3006    0.0000 C   0  0  0  0  0  0  0  0  0  0  0  0
   -3.8788    2.1878    0.0000 C   0  0  0  0  0  0  0  0  0  0  0  0
   -1.0605    1.5908    0.0000 O   0  0  0  0  0  0  0  0  0  0  0  0
    3.9206    1.9415    0.0000 C   0  0  0  0  0  0  0  0  0  0  0  0
    3.8872    2.7515    0.0000 C   0  0  0  0  0  0  0  0  0  0  0  0
    2.9311    0.8643    0.0000 O   0  0  0  0  0  0  0  0  0  0  0  0
    2.8100    3.7661    0.0000 O   0  0  0  0  0  0  0  0  0  0  0  0
    1.4071    3.0145    0.0000 C   0  0  0  0  0  0  0  0  0  0  0  0
    1.4029    1.5908    0.0000 C   0  0  0  0  0  0  0  0  0  0  0  0
    0.5762    1.5991    0.0000 C   0  0  0  0  0  0  0  0  0  0  0  0
    0.5804    3.0271    0.0000 C   0  0  0  0  0  0  0  0  0  0  0  0
   -2.1252    1.5615    0.0000 C   0  0  0  0  0  0  0  0  0  0  0  0
   -3.8788    3.8412    0.0000 C   0  0  0  0  0  0  0  0  0  0  0  0
   -3.8788    1.3611    0.0000 O   0  0  0  0  0  0  0  0  0  0  0  0
   -4.5928    3.4279    0.0000 C   0  0  0  0  0  0  0  0  0  0  0  0
   -4.5928    2.6012    0.0000 C   0  0  0  0  0  0  0  0  0  0  0  0
   -4.5928    0.9520    0.0000 C   0  0  0  0  0  0  0  0  0  0  0  0
   -2.6763    0.9478    0.0000 C   0  0  0  0  0  0  0  0  0  0  0  0
   -4.5928    0.1253    0.0000 C   0  0  0  0  0  0  0  0  0  0  0  0
  2  1  2  0  0  0  0
  3  1  1  0  0  0  0
  4 11  1  0  0  0  0
  5  1  1  0  0  0  0
  6  3  1  0  0  0  0
  7  5  1  0  0  0  0
  8  2  1  0  0  0  0
  9  4  1  0  0  0  0
 10  4  1  0  0  0  0
 11 19  1  0  0  0  0
 12  8  1  0  0  0  0
 13  6  1  0  0  0  0
 14  8  2  0  0  0  0
 15  9  1  0  0  0  0
 16 10  1  0  0  0  0
 17  9  2  0  0  0  0
 18 10  2  0  0  0  0
 19 22  2  0  0  0  0
 20 21  1  0  0  0  0
 21 12  2  0  0  0  0
 22 12  1  0  0  0  0
 23  3  1  0  0  0  0
 24  7  1  0  0  0  0
 25 13  1  0  0  0  0
 26 24  2  0  0  0  0
 27 13  2  0  0  0  0
 28 25  1  0  0  0  0
 29 23  1  0  0  0  0
 30 28  1  0  0  0  0
  6  7  2  0  0  0  0
 27 26  1  0  0  0  0
 11 20  2  0  0  0  0
 16 15  1  0  0  0  0
M  END
>  <IDNUMBER>
F1297-0137

>  <Chemical_Name>
4-(2,5-dioxopyrrolidin-1-yl)-N-[(2E)-4-ethoxy-3-ethyl-2,3-dihydro-1,3-benzothiazol-2-ylidene]benzamide

>  <PriceCoeff>
1.00

>  <CAS>
864925-49-5

>  <MW>
423.48

>  <Description>
solid

>  <FSP3>
0.27

>  <clogP>
3.93

>  <TPSA>
104.58

>  <Acceptor>
4

>  <Donor>
0

>  <RotBonds>
6

>  <HAC>
30

>  <Collection>
General

$$$$
F1297-0181
  Mrv2219 10102508112D          

 25 27  0  0  0  0            999 V2000
   -1.8914    3.0145    0.0000 C   0  0  0  0  0  0  0  0  0  0  0  0
   -0.6513    0.8643    0.0000 N   0  0  0  0  0  0  0  0  0  0  0  0
   -2.3757    2.3423    0.0000 N   0  0  0  0  0  0  0  0  0  0  0  0
   -1.0647    3.0145    0.0000 N   0  0  0  0  0  0  0  0  0  0  0  0
   -2.3757    3.6826    0.0000 S   0  0  0  0  0  0  0  0  0  0  0  0
   -3.1648    2.6012    0.0000 C   0  0  0  0  0  0  0  0  0  0  0  0
   -3.1648    3.4279    0.0000 C   0  0  0  0  0  0  0  0  0  0  0  0
   -0.9853    0.1211    0.0000 C   0  0  0  0  0  0  0  0  0  0  0  0
    0.1670    0.7891    0.0000 C   0  0  0  0  0  0  0  0  0  0  0  0
   -0.6513    2.3006    0.0000 C   0  0  0  0  0  0  0  0  0  0  0  0
   -1.0730    1.5741    0.0000 C   0  0  0  0  0  0  0  0  0  0  0  0
   -3.8788    2.1878    0.0000 C   0  0  0  0  0  0  0  0  0  0  0  0
    0.3424   -0.0125    0.0000 C   0  0  0  0  0  0  0  0  0  0  0  0
   -0.3716   -0.4301    0.0000 C   0  0  0  0  0  0  0  0  0  0  0  0
    0.7140    1.3987    0.0000 O   0  0  0  0  0  0  0  0  0  0  0  0
   -1.7870   -0.0543    0.0000 O   0  0  0  0  0  0  0  0  0  0  0  0
    0.1628    2.3006    0.0000 O   0  0  0  0  0  0  0  0  0  0  0  0
   -2.1252    1.5615    0.0000 C   0  0  0  0  0  0  0  0  0  0  0  0
   -3.8788    3.8412    0.0000 C   0  0  0  0  0  0  0  0  0  0  0  0
   -3.8788    1.3611    0.0000 O   0  0  0  0  0  0  0  0  0  0  0  0
   -4.5928    3.4279    0.0000 C   0  0  0  0  0  0  0  0  0  0  0  0
   -4.5928    2.6012    0.0000 C   0  0  0  0  0  0  0  0  0  0  0  0
   -4.5928    0.9520    0.0000 C   0  0  0  0  0  0  0  0  0  0  0  0
   -2.6763    0.9478    0.0000 C   0  0  0  0  0  0  0  0  0  0  0  0
   -4.5928    0.1253    0.0000 C   0  0  0  0  0  0  0  0  0  0  0  0
  2 11  1  0  0  0  0
  3  1  1  0  0  0  0
  4  1  2  0  0  0  0
  5  1  1  0  0  0  0
  6  3  1  0  0  0  0
  7  5  1  0  0  0  0
  8  2  1  0  0  0  0
  9  2  1  0  0  0  0
 10  4  1  0  0  0  0
 11 10  1  0  0  0  0
 12  6  1  0  0  0  0
 13  9  1  0  0  0  0
 14  8  1  0  0  0  0
 15  9  2  0  0  0  0
 16  8  2  0  0  0  0
 17 10  2  0  0  0  0
 18  3  1  0  0  0  0
 19  7  1  0  0  0  0
 20 12  1  0  0  0  0
 21 19  2  0  0  0  0
 22 12  2  0  0  0  0
 23 20  1  0  0  0  0
 24 18  1  0  0  0  0
 25 23  1  0  0  0  0
  6  7  2  0  0  0  0
 22 21  1  0  0  0  0
 14 13  1  0  0  0  0
M  END
>  <IDNUMBER>
F1297-0181

>  <Chemical_Name>
2-(2,5-dioxopyrrolidin-1-yl)-N-[(2E)-4-ethoxy-3-ethyl-2,3-dihydro-1,3-benzothiazol-2-ylidene]acetamide

>  <PriceCoeff>
1.00

>  <CAS>
864925-54-2

>  <MW>
361.42

>  <Description>
solid

>  <FSP3>
0.41

>  <clogP>
3.75

>  <TPSA>
104.58

>  <Acceptor>
4

>  <Donor>
0

>  <RotBonds>
6

>  <HAC>
25

>  <Collection>
General

>  <PPDS>
+

$$$$
F1298-0044
  Mrv2219 10102508112D          

 33 36  0  0  0  0            999 V2000
    2.3417   -0.2542    0.0000 C   0  0  0  0  0  0  0  0  0  0  0  0
    1.8542    0.4083    0.0000 C   0  0  0  0  0  0  0  0  0  0  0  0
    1.0750   -0.6750    0.0000 C   0  0  0  0  0  0  0  0  0  0  0  0
    6.0542   -2.4042    0.0000 N   0  0  0  0  0  0  0  0  0  0  0  0
    1.0667    0.1458    0.0000 C   0  0  0  0  0  0  0  0  0  0  0  0
    1.8542   -0.9292    0.0000 S   0  0  0  0  0  0  0  0  0  0  0  0
    3.1750   -0.2542    0.0000 N   0  0  0  0  0  0  0  0  0  0  0  0
   -0.3583   -0.6875    0.0000 N   0  0  0  0  0  0  0  0  0  0  0  0
    5.6417   -1.6875    0.0000 C   0  0  0  0  0  0  0  0  0  0  0  0
    3.5792   -0.9750    0.0000 C   0  0  0  0  0  0  0  0  0  0  0  0
   -1.0750   -1.0917    0.0000 C   0  0  0  0  0  0  0  0  0  0  0  0
    5.6792   -3.1375    0.0000 C   0  0  0  0  0  0  0  0  0  0  0  0
    6.8667   -2.5167    0.0000 C   0  0  0  0  0  0  0  0  0  0  0  0
    2.1042    1.1875    0.0000 C   0  0  0  0  0  0  0  0  0  0  0  0
    0.3500   -1.0917    0.0000 C   0  0  0  0  0  0  0  0  0  0  0  0
    0.3500    0.5625    0.0000 C   0  0  0  0  0  0  0  0  0  0  0  0
    4.8125   -1.6875    0.0000 C   0  0  0  0  0  0  0  0  0  0  0  0
    4.4042   -0.9750    0.0000 C   0  0  0  0  0  0  0  0  0  0  0  0
   -0.3583    0.1458    0.0000 C   0  0  0  0  0  0  0  0  0  0  0  0
   -1.0750   -1.9250    0.0000 O   0  0  0  0  0  0  0  0  0  0  0  0
    3.1750   -1.6917    0.0000 O   0  0  0  0  0  0  0  0  0  0  0  0
    6.2917   -3.7125    0.0000 C   0  0  0  0  0  0  0  0  0  0  0  0
    7.0167   -3.3292    0.0000 C   0  0  0  0  0  0  0  0  0  0  0  0
    4.8667   -3.2750    0.0000 O   0  0  0  0  0  0  0  0  0  0  0  0
    7.4500   -1.9417    0.0000 O   0  0  0  0  0  0  0  0  0  0  0  0
    1.5542    1.7958    0.0000 O   0  0  0  0  0  0  0  0  0  0  0  0
    2.9125    1.3625    0.0000 N   0  0  0  0  0  0  0  0  0  0  0  0
   -1.7875   -0.6875    0.0000 O   0  0  0  0  0  0  0  0  0  0  0  0
    6.0542   -0.9750    0.0000 C   0  0  0  0  0  0  0  0  0  0  0  0
    4.8125   -0.2542    0.0000 C   0  0  0  0  0  0  0  0  0  0  0  0
    5.6417   -0.2542    0.0000 C   0  0  0  0  0  0  0  0  0  0  0  0
   -1.7958    0.1458    0.0000 C   0  0  0  0  0  0  0  0  0  0  0  0
   -2.5083    0.5583    0.0000 C   0  0  0  0  0  0  0  0  0  0  0  0
  2  1  2  0  0  0  0
  3  6  1  0  0  0  0
  4  9  1  0  0  0  0
  5  2  1  0  0  0  0
  6  1  1  0  0  0  0
  7  1  1  0  0  0  0
  8 15  1  0  0  0  0
  9 17  1  0  0  0  0
 10  7  1  0  0  0  0
 11  8  1  0  0  0  0
 12  4  1  0  0  0  0
 13  4  1  0  0  0  0
 14  2  1  0  0  0  0
 15  3  1  0  0  0  0
 16  5  1  0  0  0  0
 17 18  2  0  0  0  0
 18 10  1  0  0  0  0
 19 16  1  0  0  0  0
 20 11  2  0  0  0  0
 21 10  2  0  0  0  0
 22 12  1  0  0  0  0
 23 13  1  0  0  0  0
 24 12  2  0  0  0  0
 25 13  2  0  0  0  0
 26 14  2  0  0  0  0
 27 14  1  0  0  0  0
 28 11  1  0  0  0  0
 29 31  1  0  0  0  0
 30 18  1  0  0  0  0
 31 30  2  0  0  0  0
 32 28  1  0  0  0  0
 33 32  1  0  0  0  0
  3  5  2  0  0  0  0
  8 19  1  0  0  0  0
  9 29  2  0  0  0  0
 23 22  1  0  0  0  0
M  END
>  <IDNUMBER>
F1298-0044

>  <Chemical_Name>
ethyl 3-carbamoyl-2-[3-(2,5-dioxopyrrolidin-1-yl)benzamido]-4H,5H,6H,7H-thieno[2,3-c]pyridine-6-carboxylate

>  <PriceCoeff>
1.00

>  <CAS>
921160-42-1

>  <MW>
470.50

>  <Description>
solid

>  <FSP3>
0.32

>  <clogP>
0.62

>  <TPSA>
167.35

>  <Acceptor>
6

>  <Donor>
2

>  <RotBonds>
7

>  <HAC>
33

>  <Collection>
General

>  <PPDS>
+

$$$$
F1298-0076
  Mrv2219 10102508112D          

 28 30  0  0  0  0            999 V2000
    3.5899   -0.2541    0.0000 C   0  0  0  0  0  0  0  0  0  0  0  0
    3.1027    0.4081    0.0000 C   0  0  0  0  0  0  0  0  0  0  0  0
    4.8393   -2.4155    0.0000 N   0  0  0  0  0  0  0  0  0  0  0  0
    2.3281   -0.6747    0.0000 C   0  0  0  0  0  0  0  0  0  0  0  0
    2.3156    0.1457    0.0000 C   0  0  0  0  0  0  0  0  0  0  0  0
    3.1110   -0.9287    0.0000 S   0  0  0  0  0  0  0  0  0  0  0  0
    0.8913   -0.6872    0.0000 N   0  0  0  0  0  0  0  0  0  0  0  0
    4.4228   -0.2541    0.0000 N   0  0  0  0  0  0  0  0  0  0  0  0
    0.1749   -1.0912    0.0000 C   0  0  0  0  0  0  0  0  0  0  0  0
    4.5020   -3.1609    0.0000 C   0  0  0  0  0  0  0  0  0  0  0  0
    5.6597   -2.4780    0.0000 C   0  0  0  0  0  0  0  0  0  0  0  0
    3.3608    1.1869    0.0000 C   0  0  0  0  0  0  0  0  0  0  0  0
    1.6034   -1.0912    0.0000 C   0  0  0  0  0  0  0  0  0  0  0  0
    4.8268   -0.9745    0.0000 C   0  0  0  0  0  0  0  0  0  0  0  0
    4.4145   -1.7034    0.0000 C   0  0  0  0  0  0  0  0  0  0  0  0
    1.6034    0.5622    0.0000 C   0  0  0  0  0  0  0  0  0  0  0  0
    0.8913    0.1457    0.0000 C   0  0  0  0  0  0  0  0  0  0  0  0
    0.1749   -1.9241    0.0000 O   0  0  0  0  0  0  0  0  0  0  0  0
    5.8346   -3.2901    0.0000 C   0  0  0  0  0  0  0  0  0  0  0  0
    5.1267   -3.7107    0.0000 C   0  0  0  0  0  0  0  0  0  0  0  0
    6.1970   -1.8783    0.0000 O   0  0  0  0  0  0  0  0  0  0  0  0
    3.7024   -3.3359    0.0000 O   0  0  0  0  0  0  0  0  0  0  0  0
    2.8028    1.7949    0.0000 O   0  0  0  0  0  0  0  0  0  0  0  0
    5.6514   -0.9745    0.0000 O   0  0  0  0  0  0  0  0  0  0  0  0
    4.1647    1.3618    0.0000 N   0  0  0  0  0  0  0  0  0  0  0  0
   -0.5372   -0.6872    0.0000 O   0  0  0  0  0  0  0  0  0  0  0  0
   -0.5455    0.1457    0.0000 C   0  0  0  0  0  0  0  0  0  0  0  0
   -1.2577    0.5580    0.0000 C   0  0  0  0  0  0  0  0  0  0  0  0
  2  1  2  0  0  0  0
  3 15  1  0  0  0  0
  4  6  1  0  0  0  0
  5  2  1  0  0  0  0
  6  1  1  0  0  0  0
  7 13  1  0  0  0  0
  8  1  1  0  0  0  0
  9  7  1  0  0  0  0
 10  3  1  0  0  0  0
 11  3  1  0  0  0  0
 12  2  1  0  0  0  0
 13  4  1  0  0  0  0
 14  8  1  0  0  0  0
 15 14  1  0  0  0  0
 16  5  1  0  0  0  0
 17 16  1  0  0  0  0
 18  9  2  0  0  0  0
 19 11  1  0  0  0  0
 20 10  1  0  0  0  0
 21 11  2  0  0  0  0
 22 10  2  0  0  0  0
 23 12  2  0  0  0  0
 24 14  2  0  0  0  0
 25 12  1  0  0  0  0
 26  9  1  0  0  0  0
 27 26  1  0  0  0  0
 28 27  1  0  0  0  0
  4  5  2  0  0  0  0
  7 17  1  0  0  0  0
 20 19  1  0  0  0  0
M  END
>  <IDNUMBER>
F1298-0076

>  <Chemical_Name>
ethyl 3-carbamoyl-2-[2-(2,5-dioxopyrrolidin-1-yl)acetamido]-4H,5H,6H,7H-thieno[2,3-c]pyridine-6-carboxylate

>  <PriceCoeff>
1.00

>  <CAS>
864925-96-2

>  <MW>
408.43

>  <Description>
solid

>  <FSP3>
0.47

>  <clogP>
0.44

>  <TPSA>
167.35

>  <Acceptor>
6

>  <Donor>
2

>  <RotBonds>
7

>  <HAC>
28

>  <Collection>
General

>  <PPDS>
+

$$$$
F1298-0137
  Mrv2219 10102508112D          

 34 37  0  0  0  0            999 V2000
    2.0042   -0.8417    0.0000 C   0  0  0  0  0  0  0  0  0  0  0  0
    1.5167   -0.1750    0.0000 C   0  0  0  0  0  0  0  0  0  0  0  0
    0.7375   -1.2542    0.0000 C   0  0  0  0  0  0  0  0  0  0  0  0
    0.7292   -0.4375    0.0000 C   0  0  0  0  0  0  0  0  0  0  0  0
    1.5167   -1.5167    0.0000 S   0  0  0  0  0  0  0  0  0  0  0  0
    6.5417   -1.5542    0.0000 N   0  0  0  0  0  0  0  0  0  0  0  0
    2.8292   -0.8417    0.0000 N   0  0  0  0  0  0  0  0  0  0  0  0
   -0.6958   -1.2667    0.0000 N   0  0  0  0  0  0  0  0  0  0  0  0
   -1.4208   -1.6792    0.0000 C   0  0  0  0  0  0  0  0  0  0  0  0
    3.2417   -1.5542    0.0000 C   0  0  0  0  0  0  0  0  0  0  0  0
    7.0625   -2.1917    0.0000 C   0  0  0  0  0  0  0  0  0  0  0  0
    7.0042   -0.8667    0.0000 C   0  0  0  0  0  0  0  0  0  0  0  0
    1.7667    0.6083    0.0000 C   0  0  0  0  0  0  0  0  0  0  0  0
    0.0125   -1.6792    0.0000 C   0  0  0  0  0  0  0  0  0  0  0  0
    0.0125   -0.0167    0.0000 C   0  0  0  0  0  0  0  0  0  0  0  0
    5.7250   -1.5542    0.0000 C   0  0  0  0  0  0  0  0  0  0  0  0
    4.0667   -1.5542    0.0000 C   0  0  0  0  0  0  0  0  0  0  0  0
   -0.6958   -0.4375    0.0000 C   0  0  0  0  0  0  0  0  0  0  0  0
   -1.4208   -2.5042    0.0000 O   0  0  0  0  0  0  0  0  0  0  0  0
    2.8375   -2.2667    0.0000 O   0  0  0  0  0  0  0  0  0  0  0  0
    7.8250   -1.9042    0.0000 C   0  0  0  0  0  0  0  0  0  0  0  0
    7.8000   -1.0917    0.0000 C   0  0  0  0  0  0  0  0  0  0  0  0
    6.8417   -2.9875    0.0000 O   0  0  0  0  0  0  0  0  0  0  0  0
    6.7167   -0.0792    0.0000 O   0  0  0  0  0  0  0  0  0  0  0  0
    1.2042    1.2208    0.0000 O   0  0  0  0  0  0  0  0  0  0  0  0
    5.3042   -0.8375    0.0000 C   0  0  0  0  0  0  0  0  0  0  0  0
    5.3042   -2.2625    0.0000 C   0  0  0  0  0  0  0  0  0  0  0  0
    4.4792   -2.2625    0.0000 C   0  0  0  0  0  0  0  0  0  0  0  0
    4.4792   -0.8375    0.0000 C   0  0  0  0  0  0  0  0  0  0  0  0
   -2.1333   -1.2667    0.0000 O   0  0  0  0  0  0  0  0  0  0  0  0
    2.5875    0.7833    0.0000 O   0  0  0  0  0  0  0  0  0  0  0  0
   -2.1375   -0.4375    0.0000 C   0  0  0  0  0  0  0  0  0  0  0  0
    3.1417    0.1708    0.0000 C   0  0  0  0  0  0  0  0  0  0  0  0
   -2.8458   -0.0250    0.0000 C   0  0  0  0  0  0  0  0  0  0  0  0
  2  1  2  0  0  0  0
  3  5  1  0  0  0  0
  4  2  1  0  0  0  0
  5  1  1  0  0  0  0
  6 16  1  0  0  0  0
  7  1  1  0  0  0  0
  8 14  1  0  0  0  0
  9  8  1  0  0  0  0
 10  7  1  0  0  0  0
 11  6  1  0  0  0  0
 12  6  1  0  0  0  0
 13  2  1  0  0  0  0
 14  3  1  0  0  0  0
 15  4  1  0  0  0  0
 16 26  1  0  0  0  0
 17 10  1  0  0  0  0
 18 15  1  0  0  0  0
 19  9  2  0  0  0  0
 20 10  2  0  0  0  0
 21 11  1  0  0  0  0
 22 12  1  0  0  0  0
 23 11  2  0  0  0  0
 24 12  2  0  0  0  0
 25 13  2  0  0  0  0
 26 29  2  0  0  0  0
 27 28  1  0  0  0  0
 28 17  2  0  0  0  0
 29 17  1  0  0  0  0
 30  9  1  0  0  0  0
 31 13  1  0  0  0  0
 32 30  1  0  0  0  0
 33 31  1  0  0  0  0
 34 32  1  0  0  0  0
  3  4  2  0  0  0  0
  8 18  1  0  0  0  0
 16 27  2  0  0  0  0
 22 21  1  0  0  0  0
M  END
>  <IDNUMBER>
F1298-0137

>  <Chemical_Name>
6-ethyl 3-methyl 2-[4-(2,5-dioxopyrrolidin-1-yl)benzamido]-4H,5H,6H,7H-thieno[2,3-c]pyridine-3,6-dicarboxylate

>  <PriceCoeff>
1.00

>  <CAS>
864926-20-5

>  <MW>
485.51

>  <Description>
solid

>  <FSP3>
0.35

>  <clogP>
1.84

>  <TPSA>
150.56

>  <Acceptor>
7

>  <Donor>
1

>  <RotBonds>
8

>  <HAC>
34

>  <Collection>
General

>  <PPDS>
+

$$$$
F1298-0148
  Mrv2219 10102508112D          

 34 37  0  0  0  0            999 V2000
    2.3417   -0.2542    0.0000 C   0  0  0  0  0  0  0  0  0  0  0  0
    1.8542    0.4083    0.0000 C   0  0  0  0  0  0  0  0  0  0  0  0
    1.0750   -0.6750    0.0000 C   0  0  0  0  0  0  0  0  0  0  0  0
    6.0542   -2.4042    0.0000 N   0  0  0  0  0  0  0  0  0  0  0  0
    1.0667    0.1458    0.0000 C   0  0  0  0  0  0  0  0  0  0  0  0
    1.8542   -0.9292    0.0000 S   0  0  0  0  0  0  0  0  0  0  0  0
    3.1750   -0.2542    0.0000 N   0  0  0  0  0  0  0  0  0  0  0  0
   -0.3583   -0.6875    0.0000 N   0  0  0  0  0  0  0  0  0  0  0  0
    5.6417   -1.6875    0.0000 C   0  0  0  0  0  0  0  0  0  0  0  0
    3.5792   -0.9750    0.0000 C   0  0  0  0  0  0  0  0  0  0  0  0
   -1.0750   -1.0917    0.0000 C   0  0  0  0  0  0  0  0  0  0  0  0
    5.6792   -3.1375    0.0000 C   0  0  0  0  0  0  0  0  0  0  0  0
    6.8667   -2.5167    0.0000 C   0  0  0  0  0  0  0  0  0  0  0  0
    2.1042    1.1875    0.0000 C   0  0  0  0  0  0  0  0  0  0  0  0
    0.3500   -1.0917    0.0000 C   0  0  0  0  0  0  0  0  0  0  0  0
    0.3500    0.5625    0.0000 C   0  0  0  0  0  0  0  0  0  0  0  0
    4.8125   -1.6875    0.0000 C   0  0  0  0  0  0  0  0  0  0  0  0
    4.4042   -0.9750    0.0000 C   0  0  0  0  0  0  0  0  0  0  0  0
   -0.3583    0.1458    0.0000 C   0  0  0  0  0  0  0  0  0  0  0  0
   -1.0750   -1.9250    0.0000 O   0  0  0  0  0  0  0  0  0  0  0  0
    3.1750   -1.6917    0.0000 O   0  0  0  0  0  0  0  0  0  0  0  0
    6.2917   -3.7125    0.0000 C   0  0  0  0  0  0  0  0  0  0  0  0
    7.0167   -3.3292    0.0000 C   0  0  0  0  0  0  0  0  0  0  0  0
    4.8667   -3.2750    0.0000 O   0  0  0  0  0  0  0  0  0  0  0  0
    7.4500   -1.9417    0.0000 O   0  0  0  0  0  0  0  0  0  0  0  0
    1.5500    1.7958    0.0000 O   0  0  0  0  0  0  0  0  0  0  0  0
   -1.7875   -0.6875    0.0000 O   0  0  0  0  0  0  0  0  0  0  0  0
    2.9250    1.3625    0.0000 O   0  0  0  0  0  0  0  0  0  0  0  0
    6.0542   -0.9750    0.0000 C   0  0  0  0  0  0  0  0  0  0  0  0
    4.8125   -0.2542    0.0000 C   0  0  0  0  0  0  0  0  0  0  0  0
    5.6417   -0.2542    0.0000 C   0  0  0  0  0  0  0  0  0  0  0  0
   -1.7958    0.1458    0.0000 C   0  0  0  0  0  0  0  0  0  0  0  0
    3.4792    0.7500    0.0000 C   0  0  0  0  0  0  0  0  0  0  0  0
   -2.5083    0.5583    0.0000 C   0  0  0  0  0  0  0  0  0  0  0  0
  2  1  2  0  0  0  0
  3  6  1  0  0  0  0
  4  9  1  0  0  0  0
  5  2  1  0  0  0  0
  6  1  1  0  0  0  0
  7  1  1  0  0  0  0
  8 15  1  0  0  0  0
  9 17  1  0  0  0  0
 10  7  1  0  0  0  0
 11  8  1  0  0  0  0
 12  4  1  0  0  0  0
 13  4  1  0  0  0  0
 14  2  1  0  0  0  0
 15  3  1  0  0  0  0
 16  5  1  0  0  0  0
 17 18  2  0  0  0  0
 18 10  1  0  0  0  0
 19 16  1  0  0  0  0
 20 11  2  0  0  0  0
 21 10  2  0  0  0  0
 22 12  1  0  0  0  0
 23 13  1  0  0  0  0
 24 12  2  0  0  0  0
 25 13  2  0  0  0  0
 26 14  2  0  0  0  0
 27 11  1  0  0  0  0
 28 14  1  0  0  0  0
 29 31  1  0  0  0  0
 30 18  1  0  0  0  0
 31 30  2  0  0  0  0
 32 27  1  0  0  0  0
 33 28  1  0  0  0  0
 34 32  1  0  0  0  0
  3  5  2  0  0  0  0
  8 19  1  0  0  0  0
  9 29  2  0  0  0  0
 23 22  1  0  0  0  0
M  END
>  <IDNUMBER>
F1298-0148

>  <Chemical_Name>
6-ethyl 3-methyl 2-[3-(2,5-dioxopyrrolidin-1-yl)benzamido]-4H,5H,6H,7H-thieno[2,3-c]pyridine-3,6-dicarboxylate

>  <PriceCoeff>
1.00

>  <CAS>
921166-06-5

>  <MW>
485.51

>  <Description>
solid

>  <FSP3>
0.35

>  <clogP>
1.84

>  <TPSA>
150.56

>  <Acceptor>
7

>  <Donor>
1

>  <RotBonds>
8

>  <HAC>
34

>  <Collection>
General

>  <PPDS>
+

$$$$
F1298-0241
  Mrv2219 10102508112D          

 35 38  0  0  0  0            999 V2000
    2.0042   -0.8417    0.0000 C   0  0  0  0  0  0  0  0  0  0  0  0
    1.5167   -0.1750    0.0000 C   0  0  0  0  0  0  0  0  0  0  0  0
    0.7375   -1.2542    0.0000 C   0  0  0  0  0  0  0  0  0  0  0  0
    0.7292   -0.4375    0.0000 C   0  0  0  0  0  0  0  0  0  0  0  0
    1.5167   -1.5167    0.0000 S   0  0  0  0  0  0  0  0  0  0  0  0
    6.5417   -1.5542    0.0000 N   0  0  0  0  0  0  0  0  0  0  0  0
    2.8292   -0.8417    0.0000 N   0  0  0  0  0  0  0  0  0  0  0  0
   -0.6958   -1.2667    0.0000 N   0  0  0  0  0  0  0  0  0  0  0  0
   -1.4208   -1.6792    0.0000 C   0  0  0  0  0  0  0  0  0  0  0  0
    3.2417   -1.5542    0.0000 C   0  0  0  0  0  0  0  0  0  0  0  0
    7.0625   -2.1917    0.0000 C   0  0  0  0  0  0  0  0  0  0  0  0
    7.0042   -0.8667    0.0000 C   0  0  0  0  0  0  0  0  0  0  0  0
    1.7667    0.6083    0.0000 C   0  0  0  0  0  0  0  0  0  0  0  0
    0.0125   -1.6792    0.0000 C   0  0  0  0  0  0  0  0  0  0  0  0
    0.0125   -0.0167    0.0000 C   0  0  0  0  0  0  0  0  0  0  0  0
    5.7250   -1.5542    0.0000 C   0  0  0  0  0  0  0  0  0  0  0  0
    4.0667   -1.5542    0.0000 C   0  0  0  0  0  0  0  0  0  0  0  0
   -0.6958   -0.4375    0.0000 C   0  0  0  0  0  0  0  0  0  0  0  0
   -1.4208   -2.5042    0.0000 O   0  0  0  0  0  0  0  0  0  0  0  0
    2.8375   -2.2667    0.0000 O   0  0  0  0  0  0  0  0  0  0  0  0
    7.8250   -1.9042    0.0000 C   0  0  0  0  0  0  0  0  0  0  0  0
    7.8000   -1.0917    0.0000 C   0  0  0  0  0  0  0  0  0  0  0  0
    6.8417   -2.9875    0.0000 O   0  0  0  0  0  0  0  0  0  0  0  0
    6.7167   -0.0792    0.0000 O   0  0  0  0  0  0  0  0  0  0  0  0
    1.2042    1.2125    0.0000 O   0  0  0  0  0  0  0  0  0  0  0  0
    5.3042   -0.8375    0.0000 C   0  0  0  0  0  0  0  0  0  0  0  0
    5.3042   -2.2625    0.0000 C   0  0  0  0  0  0  0  0  0  0  0  0
    4.4792   -2.2625    0.0000 C   0  0  0  0  0  0  0  0  0  0  0  0
    4.4792   -0.8375    0.0000 C   0  0  0  0  0  0  0  0  0  0  0  0
   -2.1333   -1.2667    0.0000 O   0  0  0  0  0  0  0  0  0  0  0  0
    2.5875    0.7833    0.0000 O   0  0  0  0  0  0  0  0  0  0  0  0
   -2.1375   -0.4375    0.0000 C   0  0  0  0  0  0  0  0  0  0  0  0
    3.1417    0.1708    0.0000 C   0  0  0  0  0  0  0  0  0  0  0  0
    3.9542    0.3458    0.0000 C   0  0  0  0  0  0  0  0  0  0  0  0
   -2.8458   -0.0250    0.0000 C   0  0  0  0  0  0  0  0  0  0  0  0
  2  1  2  0  0  0  0
  3  5  1  0  0  0  0
  4  2  1  0  0  0  0
  5  1  1  0  0  0  0
  6 16  1  0  0  0  0
  7  1  1  0  0  0  0
  8 14  1  0  0  0  0
  9  8  1  0  0  0  0
 10  7  1  0  0  0  0
 11  6  1  0  0  0  0
 12  6  1  0  0  0  0
 13  2  1  0  0  0  0
 14  3  1  0  0  0  0
 15  4  1  0  0  0  0
 16 26  1  0  0  0  0
 17 10  1  0  0  0  0
 18 15  1  0  0  0  0
 19  9  2  0  0  0  0
 20 10  2  0  0  0  0
 21 11  1  0  0  0  0
 22 12  1  0  0  0  0
 23 11  2  0  0  0  0
 24 12  2  0  0  0  0
 25 13  2  0  0  0  0
 26 29  2  0  0  0  0
 27 28  1  0  0  0  0
 28 17  2  0  0  0  0
 29 17  1  0  0  0  0
 30  9  1  0  0  0  0
 31 13  1  0  0  0  0
 32 30  1  0  0  0  0
 33 31  1  0  0  0  0
 34 33  1  0  0  0  0
 35 32  1  0  0  0  0
  3  4  2  0  0  0  0
  8 18  1  0  0  0  0
 16 27  2  0  0  0  0
 22 21  1  0  0  0  0
M  END
>  <IDNUMBER>
F1298-0241

>  <Chemical_Name>
3,6-diethyl 2-[4-(2,5-dioxopyrrolidin-1-yl)benzamido]-4H,5H,6H,7H-thieno[2,3-c]pyridine-3,6-dicarboxylate

>  <PriceCoeff>
1.00

>  <CAS>
864926-56-7

>  <MW>
499.54

>  <Description>
solid

>  <FSP3>
0.38

>  <clogP>
2.37

>  <TPSA>
150.56

>  <Acceptor>
7

>  <Donor>
1

>  <RotBonds>
9

>  <HAC>
35

>  <Collection>
General

>  <PPDS>
+

$$$$
F1298-0252
  Mrv2219 10102508112D          

 35 38  0  0  0  0            999 V2000
    2.3384   -0.2538    0.0000 C   0  0  0  0  0  0  0  0  0  0  0  0
    1.8516    0.4077    0.0000 C   0  0  0  0  0  0  0  0  0  0  0  0
    1.0735   -0.6741    0.0000 C   0  0  0  0  0  0  0  0  0  0  0  0
    6.0458   -2.4008    0.0000 N   0  0  0  0  0  0  0  0  0  0  0  0
    1.0652    0.1456    0.0000 C   0  0  0  0  0  0  0  0  0  0  0  0
    1.8516   -0.9279    0.0000 S   0  0  0  0  0  0  0  0  0  0  0  0
    3.1706   -0.2538    0.0000 N   0  0  0  0  0  0  0  0  0  0  0  0
   -0.3578   -0.6866    0.0000 N   0  0  0  0  0  0  0  0  0  0  0  0
    5.6339   -1.6852    0.0000 C   0  0  0  0  0  0  0  0  0  0  0  0
    3.5743   -0.9736    0.0000 C   0  0  0  0  0  0  0  0  0  0  0  0
   -1.0735   -1.0902    0.0000 C   0  0  0  0  0  0  0  0  0  0  0  0
    5.6713   -3.1331    0.0000 C   0  0  0  0  0  0  0  0  0  0  0  0
    6.8572   -2.5133    0.0000 C   0  0  0  0  0  0  0  0  0  0  0  0
    2.1013    1.1858    0.0000 C   0  0  0  0  0  0  0  0  0  0  0  0
    0.3495   -1.0902    0.0000 C   0  0  0  0  0  0  0  0  0  0  0  0
    0.3495    0.5618    0.0000 C   0  0  0  0  0  0  0  0  0  0  0  0
    4.8058   -1.6852    0.0000 C   0  0  0  0  0  0  0  0  0  0  0  0
    4.3981   -0.9736    0.0000 C   0  0  0  0  0  0  0  0  0  0  0  0
   -0.3578    0.1456    0.0000 C   0  0  0  0  0  0  0  0  0  0  0  0
   -1.0735   -1.9223    0.0000 O   0  0  0  0  0  0  0  0  0  0  0  0
    3.1706   -1.6894    0.0000 O   0  0  0  0  0  0  0  0  0  0  0  0
    6.2829   -3.7074    0.0000 C   0  0  0  0  0  0  0  0  0  0  0  0
    7.0070   -3.3245    0.0000 C   0  0  0  0  0  0  0  0  0  0  0  0
    4.8600   -3.2704    0.0000 O   0  0  0  0  0  0  0  0  0  0  0  0
    7.4397   -1.9390    0.0000 O   0  0  0  0  0  0  0  0  0  0  0  0
    1.5479    1.7933    0.0000 O   0  0  0  0  0  0  0  0  0  0  0  0
   -1.7850   -0.6866    0.0000 O   0  0  0  0  0  0  0  0  0  0  0  0
    2.9209    1.3606    0.0000 O   0  0  0  0  0  0  0  0  0  0  0  0
    6.0458   -0.9736    0.0000 C   0  0  0  0  0  0  0  0  0  0  0  0
    4.8058   -0.2538    0.0000 C   0  0  0  0  0  0  0  0  0  0  0  0
    5.6339   -0.2538    0.0000 C   0  0  0  0  0  0  0  0  0  0  0  0
   -1.7933    0.1456    0.0000 C   0  0  0  0  0  0  0  0  0  0  0  0
    3.4744    0.7490    0.0000 C   0  0  0  0  0  0  0  0  0  0  0  0
    4.2857    0.9195    0.0000 C   0  0  0  0  0  0  0  0  0  0  0  0
   -2.5049    0.5576    0.0000 C   0  0  0  0  0  0  0  0  0  0  0  0
  2  1  2  0  0  0  0
  3  6  1  0  0  0  0
  4  9  1  0  0  0  0
  5  2  1  0  0  0  0
  6  1  1  0  0  0  0
  7  1  1  0  0  0  0
  8 15  1  0  0  0  0
  9 17  1  0  0  0  0
 10  7  1  0  0  0  0
 11  8  1  0  0  0  0
 12  4  1  0  0  0  0
 13  4  1  0  0  0  0
 14  2  1  0  0  0  0
 15  3  1  0  0  0  0
 16  5  1  0  0  0  0
 17 18  2  0  0  0  0
 18 10  1  0  0  0  0
 19 16  1  0  0  0  0
 20 11  2  0  0  0  0
 21 10  2  0  0  0  0
 22 12  1  0  0  0  0
 23 13  1  0  0  0  0
 24 12  2  0  0  0  0
 25 13  2  0  0  0  0
 26 14  2  0  0  0  0
 27 11  1  0  0  0  0
 28 14  1  0  0  0  0
 29 31  1  0  0  0  0
 30 18  1  0  0  0  0
 31 30  2  0  0  0  0
 32 27  1  0  0  0  0
 33 28  1  0  0  0  0
 34 33  1  0  0  0  0
 35 32  1  0  0  0  0
  3  5  2  0  0  0  0
  8 19  1  0  0  0  0
  9 29  2  0  0  0  0
 23 22  1  0  0  0  0
M  END
>  <IDNUMBER>
F1298-0252

>  <Chemical_Name>
3,6-diethyl 2-[3-(2,5-dioxopyrrolidin-1-yl)benzamido]-4H,5H,6H,7H-thieno[2,3-c]pyridine-3,6-dicarboxylate

>  <PriceCoeff>
1.00

>  <CAS>
921092-89-9

>  <MW>
499.54

>  <Description>
solid

>  <FSP3>
0.38

>  <clogP>
2.37

>  <TPSA>
150.56

>  <Acceptor>
7

>  <Donor>
1

>  <RotBonds>
9

>  <HAC>
35

>  <Collection>
General

>  <PPDS>
+

$$$$
F1298-0284
  Mrv2219 10102508112D          

 30 32  0  0  0  0            999 V2000
    3.5899   -0.2541    0.0000 C   0  0  0  0  0  0  0  0  0  0  0  0
    3.1027    0.4081    0.0000 C   0  0  0  0  0  0  0  0  0  0  0  0
    4.8393   -2.4155    0.0000 N   0  0  0  0  0  0  0  0  0  0  0  0
    2.3281   -0.6747    0.0000 C   0  0  0  0  0  0  0  0  0  0  0  0
    2.3156    0.1457    0.0000 C   0  0  0  0  0  0  0  0  0  0  0  0
    3.1110   -0.9287    0.0000 S   0  0  0  0  0  0  0  0  0  0  0  0
    0.8913   -0.6872    0.0000 N   0  0  0  0  0  0  0  0  0  0  0  0
    4.4228   -0.2541    0.0000 N   0  0  0  0  0  0  0  0  0  0  0  0
    0.1749   -1.0912    0.0000 C   0  0  0  0  0  0  0  0  0  0  0  0
    4.5020   -3.1609    0.0000 C   0  0  0  0  0  0  0  0  0  0  0  0
    5.6597   -2.4780    0.0000 C   0  0  0  0  0  0  0  0  0  0  0  0
    3.3608    1.1869    0.0000 C   0  0  0  0  0  0  0  0  0  0  0  0
    1.6034   -1.0912    0.0000 C   0  0  0  0  0  0  0  0  0  0  0  0
    4.8268   -0.9745    0.0000 C   0  0  0  0  0  0  0  0  0  0  0  0
    4.4145   -1.7034    0.0000 C   0  0  0  0  0  0  0  0  0  0  0  0
    1.6034    0.5622    0.0000 C   0  0  0  0  0  0  0  0  0  0  0  0
    0.8913    0.1457    0.0000 C   0  0  0  0  0  0  0  0  0  0  0  0
    0.1749   -1.9241    0.0000 O   0  0  0  0  0  0  0  0  0  0  0  0
    5.8346   -3.2901    0.0000 C   0  0  0  0  0  0  0  0  0  0  0  0
    5.1267   -3.7107    0.0000 C   0  0  0  0  0  0  0  0  0  0  0  0
    6.1970   -1.8783    0.0000 O   0  0  0  0  0  0  0  0  0  0  0  0
    3.7024   -3.3359    0.0000 O   0  0  0  0  0  0  0  0  0  0  0  0
    2.7986    1.7949    0.0000 O   0  0  0  0  0  0  0  0  0  0  0  0
    5.6514   -0.9745    0.0000 O   0  0  0  0  0  0  0  0  0  0  0  0
   -0.5372   -0.6872    0.0000 O   0  0  0  0  0  0  0  0  0  0  0  0
    4.1771    1.3618    0.0000 O   0  0  0  0  0  0  0  0  0  0  0  0
   -0.5455    0.1457    0.0000 C   0  0  0  0  0  0  0  0  0  0  0  0
    4.7269    0.7496    0.0000 C   0  0  0  0  0  0  0  0  0  0  0  0
   -1.2577    0.5580    0.0000 C   0  0  0  0  0  0  0  0  0  0  0  0
    5.5390    0.9203    0.0000 C   0  0  0  0  0  0  0  0  0  0  0  0
  2  1  2  0  0  0  0
  3 15  1  0  0  0  0
  4  6  1  0  0  0  0
  5  2  1  0  0  0  0
  6  1  1  0  0  0  0
  7 13  1  0  0  0  0
  8  1  1  0  0  0  0
  9  7  1  0  0  0  0
 10  3  1  0  0  0  0
 11  3  1  0  0  0  0
 12  2  1  0  0  0  0
 13  4  1  0  0  0  0
 14  8  1  0  0  0  0
 15 14  1  0  0  0  0
 16  5  1  0  0  0  0
 17 16  1  0  0  0  0
 18  9  2  0  0  0  0
 19 11  1  0  0  0  0
 20 10  1  0  0  0  0
 21 11  2  0  0  0  0
 22 10  2  0  0  0  0
 23 12  2  0  0  0  0
 24 14  2  0  0  0  0
 25  9  1  0  0  0  0
 26 12  1  0  0  0  0
 27 25  1  0  0  0  0
 28 26  1  0  0  0  0
 29 27  1  0  0  0  0
 30 28  1  0  0  0  0
  4  5  2  0  0  0  0
  7 17  1  0  0  0  0
 20 19  1  0  0  0  0
M  END
>  <IDNUMBER>
F1298-0284

>  <Chemical_Name>
3,6-diethyl 2-[2-(2,5-dioxopyrrolidin-1-yl)acetamido]-4H,5H,6H,7H-thieno[2,3-c]pyridine-3,6-dicarboxylate

>  <PriceCoeff>
1.00

>  <CAS>
864926-76-1

>  <MW>
437.47

>  <Description>
solid

>  <FSP3>
0.53

>  <clogP>
2.19

>  <TPSA>
150.56

>  <Acceptor>
7

>  <Donor>
1

>  <RotBonds>
9

>  <HAC>
30

>  <Collection>
General

>  <PPDS>
+

$$$$
F1298-0356
  Mrv2219 10102508112D          

 32 35  0  0  0  0            999 V2000
    2.3417   -0.3375    0.0000 C   0  0  0  0  0  0  0  0  0  0  0  0
    1.8542    0.3250    0.0000 C   0  0  0  0  0  0  0  0  0  0  0  0
    1.0750   -0.7542    0.0000 C   0  0  0  0  0  0  0  0  0  0  0  0
    6.0542   -2.4792    0.0000 N   0  0  0  0  0  0  0  0  0  0  0  0
    1.0667    0.0625    0.0000 C   0  0  0  0  0  0  0  0  0  0  0  0
    1.8542   -1.0125    0.0000 S   0  0  0  0  0  0  0  0  0  0  0  0
    3.1750   -0.3375    0.0000 N   0  0  0  0  0  0  0  0  0  0  0  0
   -0.3583   -0.7667    0.0000 N   0  0  0  0  0  0  0  0  0  0  0  0
    5.6417   -1.7667    0.0000 C   0  0  0  0  0  0  0  0  0  0  0  0
    3.5792   -1.0542    0.0000 C   0  0  0  0  0  0  0  0  0  0  0  0
   -1.0750   -1.1750    0.0000 C   0  0  0  0  0  0  0  0  0  0  0  0
    5.6792   -3.2167    0.0000 C   0  0  0  0  0  0  0  0  0  0  0  0
    6.8667   -2.5917    0.0000 C   0  0  0  0  0  0  0  0  0  0  0  0
    0.3500   -1.1750    0.0000 C   0  0  0  0  0  0  0  0  0  0  0  0
    2.1042    1.1083    0.0000 C   0  0  0  0  0  0  0  0  0  0  0  0
    2.3625    1.8833    0.0000 N   0  0  0  0  0  0  0  0  0  0  0  0
    0.3500    0.4833    0.0000 C   0  0  0  0  0  0  0  0  0  0  0  0
    4.8125   -1.7667    0.0000 C   0  0  0  0  0  0  0  0  0  0  0  0
    4.4042   -1.0542    0.0000 C   0  0  0  0  0  0  0  0  0  0  0  0
   -0.3583    0.0625    0.0000 C   0  0  0  0  0  0  0  0  0  0  0  0
   -1.0750   -2.0042    0.0000 O   0  0  0  0  0  0  0  0  0  0  0  0
    3.1750   -1.7667    0.0000 O   0  0  0  0  0  0  0  0  0  0  0  0
    6.2917   -3.7917    0.0000 C   0  0  0  0  0  0  0  0  0  0  0  0
    7.0167   -3.4125    0.0000 C   0  0  0  0  0  0  0  0  0  0  0  0
    4.8667   -3.3542    0.0000 O   0  0  0  0  0  0  0  0  0  0  0  0
    7.4500   -2.0167    0.0000 O   0  0  0  0  0  0  0  0  0  0  0  0
   -1.7875   -0.7667    0.0000 O   0  0  0  0  0  0  0  0  0  0  0  0
    6.0542   -1.0542    0.0000 C   0  0  0  0  0  0  0  0  0  0  0  0
    4.8125   -0.3375    0.0000 C   0  0  0  0  0  0  0  0  0  0  0  0
    5.6417   -0.3375    0.0000 C   0  0  0  0  0  0  0  0  0  0  0  0
   -1.7958    0.0625    0.0000 C   0  0  0  0  0  0  0  0  0  0  0  0
   -2.5083    0.4833    0.0000 C   0  0  0  0  0  0  0  0  0  0  0  0
  2  1  2  0  0  0  0
  3  6  1  0  0  0  0
  4  9  1  0  0  0  0
  5  2  1  0  0  0  0
  6  1  1  0  0  0  0
  7  1  1  0  0  0  0
  8 14  1  0  0  0  0
  9 18  1  0  0  0  0
 10  7  1  0  0  0  0
 11  8  1  0  0  0  0
 12  4  1  0  0  0  0
 13  4  1  0  0  0  0
 14  3  1  0  0  0  0
 15  2  1  0  0  0  0
 16 15  3  0  0  0  0
 17  5  1  0  0  0  0
 18 19  2  0  0  0  0
 19 10  1  0  0  0  0
 20 17  1  0  0  0  0
 21 11  2  0  0  0  0
 22 10  2  0  0  0  0
 23 12  1  0  0  0  0
 24 13  1  0  0  0  0
 25 12  2  0  0  0  0
 26 13  2  0  0  0  0
 27 11  1  0  0  0  0
 28 30  1  0  0  0  0
 29 19  1  0  0  0  0
 30 29  2  0  0  0  0
 31 27  1  0  0  0  0
 32 31  1  0  0  0  0
  3  5  2  0  0  0  0
  8 20  1  0  0  0  0
  9 28  2  0  0  0  0
 24 23  1  0  0  0  0
M  END
>  <IDNUMBER>
F1298-0356

>  <Chemical_Name>
ethyl 3-cyano-2-[3-(2,5-dioxopyrrolidin-1-yl)benzamido]-4H,5H,6H,7H-thieno[2,3-c]pyridine-6-carboxylate

>  <PriceCoeff>
1.00

>  <CAS>
921052-17-7

>  <MW>
452.48

>  <Description>
solid

>  <FSP3>
0.32

>  <clogP>
0.74

>  <TPSA>
148.05

>  <Acceptor>
6

>  <Donor>
1

>  <RotBonds>
6

>  <HAC>
32

>  <Collection>
General

>  <PPDS>
+

$$$$
F1300-0044
  Mrv2219 10102508112D          

 29 32  0  0  0  0            999 V2000
   -1.1732    2.9895    0.0000 C   0  0  0  0  0  0  0  0  0  0  0  0
    2.5302    0.8476    0.0000 N   0  0  0  0  0  0  0  0  0  0  0  0
   -1.6617    2.3131    0.0000 N   0  0  0  0  0  0  0  0  0  0  0  0
   -0.3465    2.9895    0.0000 N   0  0  0  0  0  0  0  0  0  0  0  0
   -1.6617    3.6534    0.0000 S   0  0  0  0  0  0  0  0  0  0  0  0
    2.1211    1.5615    0.0000 C   0  0  0  0  0  0  0  0  0  0  0  0
    0.0668    2.2755    0.0000 C   0  0  0  0  0  0  0  0  0  0  0  0
    2.1545    0.1085    0.0000 C   0  0  0  0  0  0  0  0  0  0  0  0
    3.3361    0.7265    0.0000 C   0  0  0  0  0  0  0  0  0  0  0  0
   -2.4509    3.4028    0.0000 C   0  0  0  0  0  0  0  0  0  0  0  0
   -2.4509    2.5678    0.0000 C   0  0  0  0  0  0  0  0  0  0  0  0
   -4.5928    3.8037    0.0000 C   0  0  0  0  0  0  0  0  0  0  0  0
   -3.8705    3.4028    0.0000 C   0  0  0  0  0  0  0  0  0  0  0  0
    1.2944    1.5615    0.0000 C   0  0  0  0  0  0  0  0  0  0  0  0
    0.8810    2.2755    0.0000 C   0  0  0  0  0  0  0  0  0  0  0  0
   -3.1648    3.8162    0.0000 C   0  0  0  0  0  0  0  0  0  0  0  0
   -0.3465    1.5615    0.0000 O   0  0  0  0  0  0  0  0  0  0  0  0
    2.7599   -0.4677    0.0000 C   0  0  0  0  0  0  0  0  0  0  0  0
    3.4864   -0.0877    0.0000 C   0  0  0  0  0  0  0  0  0  0  0  0
    1.3445   -0.0251    0.0000 O   0  0  0  0  0  0  0  0  0  0  0  0
    3.9123    1.2985    0.0000 O   0  0  0  0  0  0  0  0  0  0  0  0
   -5.2985    3.3903    0.0000 O   0  0  0  0  0  0  0  0  0  0  0  0
   -3.1648    2.1628    0.0000 C   0  0  0  0  0  0  0  0  0  0  0  0
   -3.8705    2.5678    0.0000 C   0  0  0  0  0  0  0  0  0  0  0  0
   -4.5928    4.6346    0.0000 O   0  0  0  0  0  0  0  0  0  0  0  0
    2.5344    2.2755    0.0000 C   0  0  0  0  0  0  0  0  0  0  0  0
    1.2944    2.9895    0.0000 C   0  0  0  0  0  0  0  0  0  0  0  0
    2.1211    2.9895    0.0000 C   0  0  0  0  0  0  0  0  0  0  0  0
   -3.8788    5.0396    0.0000 C   0  0  0  0  0  0  0  0  0  0  0  0
  2  6  1  0  0  0  0
  3  1  2  0  0  0  0
  4  1  1  0  0  0  0
  5  1  1  0  0  0  0
  6 14  1  0  0  0  0
  7  4  1  0  0  0  0
  8  2  1  0  0  0  0
  9  2  1  0  0  0  0
 10  5  1  0  0  0  0
 11  3  1  0  0  0  0
 12 13  1  0  0  0  0
 13 16  2  0  0  0  0
 14 15  2  0  0  0  0
 15  7  1  0  0  0  0
 16 10  1  0  0  0  0
 17  7  2  0  0  0  0
 18  8  1  0  0  0  0
 19  9  1  0  0  0  0
 20  8  2  0  0  0  0
 21  9  2  0  0  0  0
 22 12  2  0  0  0  0
 23 11  1  0  0  0  0
 24 23  2  0  0  0  0
 25 12  1  0  0  0  0
 26 28  1  0  0  0  0
 27 15  1  0  0  0  0
 28 27  2  0  0  0  0
 29 25  1  0  0  0  0
 10 11  2  0  0  0  0
 13 24  1  0  0  0  0
 26  6  2  0  0  0  0
 18 19  1  0  0  0  0
M  END
>  <IDNUMBER>
F1300-0044

>  <Chemical_Name>
methyl 2-[3-(2,5-dioxopyrrolidin-1-yl)benzamido]-1,3-benzothiazole-6-carboxylate

>  <PriceCoeff>
1.00

>  <CAS>
864860-54-8

>  <MW>
409.42

>  <Description>
solid

>  <FSP3>
0.15

>  <clogP>
1.67

>  <TPSA>
133.91

>  <Acceptor>
6

>  <Donor>
1

>  <RotBonds>
5

>  <HAC>
29

>  <Collection>
General

>  <PPDS>
+

$$$$
F1300-0076
  Mrv2219 10102508112D          

 24 26  0  0  0  0            999 V2000
   -1.1732    2.9895    0.0000 C   0  0  0  0  0  0  0  0  0  0  0  0
    0.0668    0.8350    0.0000 N   0  0  0  0  0  0  0  0  0  0  0  0
   -1.6617    2.3131    0.0000 N   0  0  0  0  0  0  0  0  0  0  0  0
   -1.6617    3.6534    0.0000 S   0  0  0  0  0  0  0  0  0  0  0  0
   -0.3465    2.9895    0.0000 N   0  0  0  0  0  0  0  0  0  0  0  0
   -0.2714    0.0960    0.0000 C   0  0  0  0  0  0  0  0  0  0  0  0
    0.8893    0.7599    0.0000 C   0  0  0  0  0  0  0  0  0  0  0  0
   -2.4509    3.4028    0.0000 C   0  0  0  0  0  0  0  0  0  0  0  0
   -2.4509    2.5678    0.0000 C   0  0  0  0  0  0  0  0  0  0  0  0
    0.0668    2.2755    0.0000 C   0  0  0  0  0  0  0  0  0  0  0  0
   -0.3507    1.5490    0.0000 C   0  0  0  0  0  0  0  0  0  0  0  0
   -4.5928    3.8037    0.0000 C   0  0  0  0  0  0  0  0  0  0  0  0
   -3.8705    3.4028    0.0000 C   0  0  0  0  0  0  0  0  0  0  0  0
   -3.1648    3.8162    0.0000 C   0  0  0  0  0  0  0  0  0  0  0  0
    1.0564   -0.0418    0.0000 C   0  0  0  0  0  0  0  0  0  0  0  0
    0.3507   -0.4551    0.0000 C   0  0  0  0  0  0  0  0  0  0  0  0
    1.4322    1.3653    0.0000 O   0  0  0  0  0  0  0  0  0  0  0  0
   -1.0647   -0.0794    0.0000 O   0  0  0  0  0  0  0  0  0  0  0  0
    0.8810    2.2755    0.0000 O   0  0  0  0  0  0  0  0  0  0  0  0
   -5.2985    3.3903    0.0000 O   0  0  0  0  0  0  0  0  0  0  0  0
   -3.1648    2.1628    0.0000 C   0  0  0  0  0  0  0  0  0  0  0  0
   -3.8705    2.5678    0.0000 C   0  0  0  0  0  0  0  0  0  0  0  0
   -4.5928    4.6346    0.0000 O   0  0  0  0  0  0  0  0  0  0  0  0
   -3.8788    5.0396    0.0000 C   0  0  0  0  0  0  0  0  0  0  0  0
  2 11  1  0  0  0  0
  3  1  2  0  0  0  0
  4  1  1  0  0  0  0
  5  1  1  0  0  0  0
  6  2  1  0  0  0  0
  7  2  1  0  0  0  0
  8  4  1  0  0  0  0
  9  3  1  0  0  0  0
 10  5  1  0  0  0  0
 11 10  1  0  0  0  0
 12 13  1  0  0  0  0
 13 14  2  0  0  0  0
 14  8  1  0  0  0  0
 15  7  1  0  0  0  0
 16  6  1  0  0  0  0
 17  7  2  0  0  0  0
 18  6  2  0  0  0  0
 19 10  2  0  0  0  0
 20 12  2  0  0  0  0
 21  9  1  0  0  0  0
 22 21  2  0  0  0  0
 23 12  1  0  0  0  0
 24 23  1  0  0  0  0
  8  9  2  0  0  0  0
 13 22  1  0  0  0  0
 15 16  1  0  0  0  0
M  END
>  <IDNUMBER>
F1300-0076

>  <Chemical_Name>
methyl 2-[2-(2,5-dioxopyrrolidin-1-yl)acetamido]-1,3-benzothiazole-6-carboxylate

>  <PriceCoeff>
1.00

>  <CAS>
339584-42-8

>  <MW>
347.35

>  <Description>
solid

>  <FSP3>
0.27

>  <clogP>
1.49

>  <TPSA>
133.91

>  <Acceptor>
6

>  <Donor>
1

>  <RotBonds>
5

>  <HAC>
24

>  <Collection>
General

>  <PPDS>
+

$$$$
F1300-0148
  Mrv2219 10102508112D          

 30 33  0  0  0  0            999 V2000
   -1.1732    2.9895    0.0000 C   0  0  0  0  0  0  0  0  0  0  0  0
    2.5302    0.8476    0.0000 N   0  0  0  0  0  0  0  0  0  0  0  0
   -1.6617    2.3131    0.0000 N   0  0  0  0  0  0  0  0  0  0  0  0
   -0.3465    2.9895    0.0000 N   0  0  0  0  0  0  0  0  0  0  0  0
   -1.6617    3.6534    0.0000 S   0  0  0  0  0  0  0  0  0  0  0  0
    2.1211    1.5615    0.0000 C   0  0  0  0  0  0  0  0  0  0  0  0
    0.0668    2.2755    0.0000 C   0  0  0  0  0  0  0  0  0  0  0  0
    2.1545    0.1085    0.0000 C   0  0  0  0  0  0  0  0  0  0  0  0
    3.3361    0.7265    0.0000 C   0  0  0  0  0  0  0  0  0  0  0  0
   -2.4509    3.4028    0.0000 C   0  0  0  0  0  0  0  0  0  0  0  0
   -2.4509    2.5678    0.0000 C   0  0  0  0  0  0  0  0  0  0  0  0
   -4.5928    3.8037    0.0000 C   0  0  0  0  0  0  0  0  0  0  0  0
   -3.8705    3.4028    0.0000 C   0  0  0  0  0  0  0  0  0  0  0  0
    1.2944    1.5615    0.0000 C   0  0  0  0  0  0  0  0  0  0  0  0
    0.8810    2.2755    0.0000 C   0  0  0  0  0  0  0  0  0  0  0  0
   -3.1648    3.8162    0.0000 C   0  0  0  0  0  0  0  0  0  0  0  0
   -0.3465    1.5615    0.0000 O   0  0  0  0  0  0  0  0  0  0  0  0
    2.7599   -0.4677    0.0000 C   0  0  0  0  0  0  0  0  0  0  0  0
    3.4864   -0.0877    0.0000 C   0  0  0  0  0  0  0  0  0  0  0  0
    1.3445   -0.0251    0.0000 O   0  0  0  0  0  0  0  0  0  0  0  0
    3.9123    1.2985    0.0000 O   0  0  0  0  0  0  0  0  0  0  0  0
   -5.2942    3.3903    0.0000 O   0  0  0  0  0  0  0  0  0  0  0  0
   -3.1648    2.1628    0.0000 C   0  0  0  0  0  0  0  0  0  0  0  0
   -3.8705    2.5678    0.0000 C   0  0  0  0  0  0  0  0  0  0  0  0
   -4.5928    4.6346    0.0000 O   0  0  0  0  0  0  0  0  0  0  0  0
    2.5344    2.2755    0.0000 C   0  0  0  0  0  0  0  0  0  0  0  0
    1.2944    2.9895    0.0000 C   0  0  0  0  0  0  0  0  0  0  0  0
    2.1211    2.9895    0.0000 C   0  0  0  0  0  0  0  0  0  0  0  0
   -3.8788    5.0521    0.0000 C   0  0  0  0  0  0  0  0  0  0  0  0
   -3.8788    5.8663    0.0000 C   0  0  0  0  0  0  0  0  0  0  0  0
  2  6  1  0  0  0  0
  3  1  2  0  0  0  0
  4  1  1  0  0  0  0
  5  1  1  0  0  0  0
  6 14  1  0  0  0  0
  7  4  1  0  0  0  0
  8  2  1  0  0  0  0
  9  2  1  0  0  0  0
 10  5  1  0  0  0  0
 11  3  1  0  0  0  0
 12 13  1  0  0  0  0
 13 16  2  0  0  0  0
 14 15  2  0  0  0  0
 15  7  1  0  0  0  0
 16 10  1  0  0  0  0
 17  7  2  0  0  0  0
 18  8  1  0  0  0  0
 19  9  1  0  0  0  0
 20  8  2  0  0  0  0
 21  9  2  0  0  0  0
 22 12  2  0  0  0  0
 23 11  1  0  0  0  0
 24 23  2  0  0  0  0
 25 12  1  0  0  0  0
 26 28  1  0  0  0  0
 27 15  1  0  0  0  0
 28 27  2  0  0  0  0
 29 25  1  0  0  0  0
 30 29  1  0  0  0  0
 10 11  2  0  0  0  0
 13 24  1  0  0  0  0
 26  6  2  0  0  0  0
 18 19  1  0  0  0  0
M  END
>  <IDNUMBER>
F1300-0148

>  <Chemical_Name>
ethyl 2-[3-(2,5-dioxopyrrolidin-1-yl)benzamido]-1,3-benzothiazole-6-carboxylate

>  <PriceCoeff>
1.00

>  <CAS>
311327-58-9

>  <MW>
423.44

>  <Description>
solid

>  <FSP3>
0.19

>  <clogP>
2.20

>  <TPSA>
133.91

>  <Acceptor>
6

>  <Donor>
1

>  <RotBonds>
6

>  <HAC>
30

>  <Collection>
General

>  <PPDS>
+

$$$$
F1300-0180
  Mrv2219 10102508112D          

 25 27  0  0  0  0            999 V2000
   -1.1732    2.9895    0.0000 C   0  0  0  0  0  0  0  0  0  0  0  0
    0.0668    0.8350    0.0000 N   0  0  0  0  0  0  0  0  0  0  0  0
   -1.6617    2.3131    0.0000 N   0  0  0  0  0  0  0  0  0  0  0  0
   -1.6617    3.6534    0.0000 S   0  0  0  0  0  0  0  0  0  0  0  0
   -0.3465    2.9895    0.0000 N   0  0  0  0  0  0  0  0  0  0  0  0
   -0.2714    0.0960    0.0000 C   0  0  0  0  0  0  0  0  0  0  0  0
    0.8893    0.7599    0.0000 C   0  0  0  0  0  0  0  0  0  0  0  0
   -2.4509    3.4028    0.0000 C   0  0  0  0  0  0  0  0  0  0  0  0
   -2.4509    2.5678    0.0000 C   0  0  0  0  0  0  0  0  0  0  0  0
    0.0668    2.2755    0.0000 C   0  0  0  0  0  0  0  0  0  0  0  0
   -0.3507    1.5490    0.0000 C   0  0  0  0  0  0  0  0  0  0  0  0
   -4.5928    3.8037    0.0000 C   0  0  0  0  0  0  0  0  0  0  0  0
   -3.8705    3.4028    0.0000 C   0  0  0  0  0  0  0  0  0  0  0  0
   -3.1648    3.8162    0.0000 C   0  0  0  0  0  0  0  0  0  0  0  0
    1.0564   -0.0418    0.0000 C   0  0  0  0  0  0  0  0  0  0  0  0
    0.3507   -0.4551    0.0000 C   0  0  0  0  0  0  0  0  0  0  0  0
    1.4322    1.3653    0.0000 O   0  0  0  0  0  0  0  0  0  0  0  0
   -1.0647   -0.0794    0.0000 O   0  0  0  0  0  0  0  0  0  0  0  0
    0.8810    2.2755    0.0000 O   0  0  0  0  0  0  0  0  0  0  0  0
   -5.2942    3.3903    0.0000 O   0  0  0  0  0  0  0  0  0  0  0  0
   -3.1648    2.1628    0.0000 C   0  0  0  0  0  0  0  0  0  0  0  0
   -3.8705    2.5678    0.0000 C   0  0  0  0  0  0  0  0  0  0  0  0
   -4.5928    4.6346    0.0000 O   0  0  0  0  0  0  0  0  0  0  0  0
   -3.8788    5.0521    0.0000 C   0  0  0  0  0  0  0  0  0  0  0  0
   -3.8788    5.8663    0.0000 C   0  0  0  0  0  0  0  0  0  0  0  0
  2 11  1  0  0  0  0
  3  1  2  0  0  0  0
  4  1  1  0  0  0  0
  5  1  1  0  0  0  0
  6  2  1  0  0  0  0
  7  2  1  0  0  0  0
  8  4  1  0  0  0  0
  9  3  1  0  0  0  0
 10  5  1  0  0  0  0
 11 10  1  0  0  0  0
 12 13  1  0  0  0  0
 13 14  2  0  0  0  0
 14  8  1  0  0  0  0
 15  7  1  0  0  0  0
 16  6  1  0  0  0  0
 17  7  2  0  0  0  0
 18  6  2  0  0  0  0
 19 10  2  0  0  0  0
 20 12  2  0  0  0  0
 21  9  1  0  0  0  0
 22 21  2  0  0  0  0
 23 12  1  0  0  0  0
 24 23  1  0  0  0  0
 25 24  1  0  0  0  0
  8  9  2  0  0  0  0
 13 22  1  0  0  0  0
 15 16  1  0  0  0  0
M  END
>  <IDNUMBER>
F1300-0180

>  <Chemical_Name>
ethyl 2-[2-(2,5-dioxopyrrolidin-1-yl)acetamido]-1,3-benzothiazole-6-carboxylate

>  <PriceCoeff>
1.00

>  <MW>
361.37

>  <Description>
solid

>  <FSP3>
0.31

>  <clogP>
2.02

>  <TPSA>
133.91

>  <Acceptor>
6

>  <Donor>
1

>  <RotBonds>
6

>  <HAC>
25

>  <Collection>
General

$$$$
F1300-0241
  Mrv2219 10102508112D          

 27 30  0  0  0  0            999 V2000
   -1.4974    3.2785    0.0000 C   0  0  0  0  0  0  0  0  0  0  0  0
    3.0699    3.7247    0.0000 N   0  0  0  0  0  0  0  0  0  0  0  0
   -1.7977    2.5110    0.0000 N   0  0  0  0  0  0  0  0  0  0  0  0
   -0.6965    3.4870    0.0000 N   0  0  0  0  0  0  0  0  0  0  0  0
   -2.6236    2.5610    0.0000 C   0  0  0  0  0  0  0  0  0  0  0  0
   -2.1356    3.8040    0.0000 S   0  0  0  0  0  0  0  0  0  0  0  0
   -0.1209    2.9031    0.0000 C   0  0  0  0  0  0  0  0  0  0  0  0
   -2.8238    3.3619    0.0000 C   0  0  0  0  0  0  0  0  0  0  0  0
    3.7164    3.2492    0.0000 C   0  0  0  0  0  0  0  0  0  0  0  0
    3.3327    4.4964    0.0000 C   0  0  0  0  0  0  0  0  0  0  0  0
   -3.2034    1.9771    0.0000 C   0  0  0  0  0  0  0  0  0  0  0  0
    2.2691    3.5245    0.0000 C   0  0  0  0  0  0  0  0  0  0  0  0
    0.6757    3.1116    0.0000 C   0  0  0  0  0  0  0  0  0  0  0  0
   -4.0000    2.1981    0.0000 C   0  0  0  0  0  0  0  0  0  0  0  0
   -0.3337    2.1147    0.0000 O   0  0  0  0  0  0  0  0  0  0  0  0
    4.3921    3.7122    0.0000 C   0  0  0  0  0  0  0  0  0  0  0  0
    4.1586    4.4839    0.0000 C   0  0  0  0  0  0  0  0  0  0  0  0
    3.7081    2.4234    0.0000 O   0  0  0  0  0  0  0  0  0  0  0  0
    2.8572    5.1847    0.0000 O   0  0  0  0  0  0  0  0  0  0  0  0
   -3.6246    3.5746    0.0000 C   0  0  0  0  0  0  0  0  0  0  0  0
    1.6935    4.1085    0.0000 C   0  0  0  0  0  0  0  0  0  0  0  0
    2.0439    2.7404    0.0000 C   0  0  0  0  0  0  0  0  0  0  0  0
    1.2430    2.5360    0.0000 C   0  0  0  0  0  0  0  0  0  0  0  0
    0.8926    3.9124    0.0000 C   0  0  0  0  0  0  0  0  0  0  0  0
   -4.2127    2.9990    0.0000 C   0  0  0  0  0  0  0  0  0  0  0  0
   -2.9907    1.1762    0.0000 C   0  0  0  0  0  0  0  0  0  0  0  0
   -4.5881    1.6142    0.0000 C   0  0  0  0  0  0  0  0  0  0  0  0
  2 12  1  0  0  0  0
  3  1  2  0  0  0  0
  4  1  1  0  0  0  0
  5  3  1  0  0  0  0
  6  1  1  0  0  0  0
  7  4  1  0  0  0  0
  8  6  1  0  0  0  0
  9  2  1  0  0  0  0
 10  2  1  0  0  0  0
 11  5  1  0  0  0  0
 12 21  1  0  0  0  0
 13  7  1  0  0  0  0
 14 11  2  0  0  0  0
 15  7  2  0  0  0  0
 16  9  1  0  0  0  0
 17 10  1  0  0  0  0
 18  9  2  0  0  0  0
 19 10  2  0  0  0  0
 20  8  1  0  0  0  0
 21 24  2  0  0  0  0
 22 23  1  0  0  0  0
 23 13  2  0  0  0  0
 24 13  1  0  0  0  0
 25 20  2  0  0  0  0
 26 11  1  0  0  0  0
 27 14  1  0  0  0  0
  8  5  2  0  0  0  0
 25 14  1  0  0  0  0
 22 12  2  0  0  0  0
 16 17  1  0  0  0  0
M  END
>  <IDNUMBER>
F1300-0241

>  <Chemical_Name>
N-(4,5-dimethyl-1,3-benzothiazol-2-yl)-4-(2,5-dioxopyrrolidin-1-yl)benzamide

>  <PriceCoeff>
1.00

>  <CAS>
864860-78-6

>  <MW>
379.43

>  <Description>
solid

>  <FSP3>
0.20

>  <clogP>
2.57

>  <TPSA>
107.61

>  <Acceptor>
4

>  <Donor>
1

>  <RotBonds>
3

>  <HAC>
27

>  <Collection>
General

>  <PPDS>
+

$$$$
F1300-0252
  Mrv2219 10102508112D          

 27 30  0  0  0  0            999 V2000
   -1.4983    3.2804    0.0000 C   0  0  0  0  0  0  0  0  0  0  0  0
    2.6210    2.1494    0.0000 N   0  0  0  0  0  0  0  0  0  0  0  0
   -1.7988    2.5125    0.0000 N   0  0  0  0  0  0  0  0  0  0  0  0
   -0.6970    3.4891    0.0000 N   0  0  0  0  0  0  0  0  0  0  0  0
   -2.6251    2.5625    0.0000 C   0  0  0  0  0  0  0  0  0  0  0  0
   -2.1368    3.8063    0.0000 S   0  0  0  0  0  0  0  0  0  0  0  0
    2.0451    2.7378    0.0000 C   0  0  0  0  0  0  0  0  0  0  0  0
   -0.1210    2.9048    0.0000 C   0  0  0  0  0  0  0  0  0  0  0  0
   -2.8255    3.3639    0.0000 C   0  0  0  0  0  0  0  0  0  0  0  0
    2.4457    1.3397    0.0000 C   0  0  0  0  0  0  0  0  0  0  0  0
    3.4349    2.2412    0.0000 C   0  0  0  0  0  0  0  0  0  0  0  0
   -3.2053    1.9783    0.0000 C   0  0  0  0  0  0  0  0  0  0  0  0
    1.2438    2.5250    0.0000 C   0  0  0  0  0  0  0  0  0  0  0  0
    0.6678    3.1134    0.0000 C   0  0  0  0  0  0  0  0  0  0  0  0
   -4.0024    2.1994    0.0000 C   0  0  0  0  0  0  0  0  0  0  0  0
   -0.3339    2.1118    0.0000 O   0  0  0  0  0  0  0  0  0  0  0  0
    3.1803    0.9348    0.0000 C   0  0  0  0  0  0  0  0  0  0  0  0
    3.7855    1.4900    0.0000 C   0  0  0  0  0  0  0  0  0  0  0  0
    1.6945    1.0100    0.0000 O   0  0  0  0  0  0  0  0  0  0  0  0
    3.8481    2.9382    0.0000 O   0  0  0  0  0  0  0  0  0  0  0  0
   -3.6268    3.5767    0.0000 C   0  0  0  0  0  0  0  0  0  0  0  0
   -4.2153    3.0008    0.0000 C   0  0  0  0  0  0  0  0  0  0  0  0
    2.2705    3.5266    0.0000 C   0  0  0  0  0  0  0  0  0  0  0  0
   -2.9924    1.1769    0.0000 C   0  0  0  0  0  0  0  0  0  0  0  0
    0.8890    3.9023    0.0000 C   0  0  0  0  0  0  0  0  0  0  0  0
    1.6903    4.0985    0.0000 C   0  0  0  0  0  0  0  0  0  0  0  0
   -4.5909    1.6152    0.0000 C   0  0  0  0  0  0  0  0  0  0  0  0
  2  7  1  0  0  0  0
  3  1  2  0  0  0  0
  4  1  1  0  0  0  0
  5  3  1  0  0  0  0
  6  1  1  0  0  0  0
  7 13  1  0  0  0  0
  8  4  1  0  0  0  0
  9  6  1  0  0  0  0
 10  2  1  0  0  0  0
 11  2  1  0  0  0  0
 12  5  1  0  0  0  0
 13 14  2  0  0  0  0
 14  8  1  0  0  0  0
 15 12  2  0  0  0  0
 16  8  2  0  0  0  0
 17 10  1  0  0  0  0
 18 11  1  0  0  0  0
 19 10  2  0  0  0  0
 20 11  2  0  0  0  0
 21  9  1  0  0  0  0
 22 21  2  0  0  0  0
 23 26  1  0  0  0  0
 24 12  1  0  0  0  0
 25 14  1  0  0  0  0
 26 25  2  0  0  0  0
 27 15  1  0  0  0  0
  9  5  2  0  0  0  0
 22 15  1  0  0  0  0
 23  7  2  0  0  0  0
 17 18  1  0  0  0  0
M  END
>  <IDNUMBER>
F1300-0252

>  <Chemical_Name>
N-(4,5-dimethyl-1,3-benzothiazol-2-yl)-3-(2,5-dioxopyrrolidin-1-yl)benzamide

>  <PriceCoeff>
1.00

>  <CAS>
864860-79-7

>  <MW>
379.43

>  <Description>
solid

>  <FSP3>
0.20

>  <clogP>
2.57

>  <TPSA>
107.61

>  <Acceptor>
4

>  <Donor>
1

>  <RotBonds>
3

>  <HAC>
27

>  <Collection>
General

>  <PPDS>
+

$$$$
F1300-0285
  Mrv2219 10102508112D          

 22 24  0  0  0  0            999 V2000
   -1.4936    3.2703    0.0000 C   0  0  0  0  0  0  0  0  0  0  0  0
    0.2414    1.5186    0.0000 N   0  0  0  0  0  0  0  0  0  0  0  0
   -1.7932    2.5047    0.0000 N   0  0  0  0  0  0  0  0  0  0  0  0
   -2.6170    2.5546    0.0000 C   0  0  0  0  0  0  0  0  0  0  0  0
   -2.1302    3.7945    0.0000 S   0  0  0  0  0  0  0  0  0  0  0  0
   -0.6948    3.4783    0.0000 N   0  0  0  0  0  0  0  0  0  0  0  0
    0.1041    0.7115    0.0000 C   0  0  0  0  0  0  0  0  0  0  0  0
    1.0527    1.6476    0.0000 C   0  0  0  0  0  0  0  0  0  0  0  0
   -2.8167    3.3535    0.0000 C   0  0  0  0  0  0  0  0  0  0  0  0
   -0.1206    2.8958    0.0000 C   0  0  0  0  0  0  0  0  0  0  0  0
   -3.1954    1.9722    0.0000 C   0  0  0  0  0  0  0  0  0  0  0  0
   -0.3370    2.0928    0.0000 C   0  0  0  0  0  0  0  0  0  0  0  0
   -3.9901    2.1926    0.0000 C   0  0  0  0  0  0  0  0  0  0  0  0
    1.4229    0.9195    0.0000 C   0  0  0  0  0  0  0  0  0  0  0  0
    0.8405    0.3328    0.0000 C   0  0  0  0  0  0  0  0  0  0  0  0
    1.4229    2.3674    0.0000 O   0  0  0  0  0  0  0  0  0  0  0  0
   -0.6199    0.3453    0.0000 O   0  0  0  0  0  0  0  0  0  0  0  0
   -3.6156    3.5657    0.0000 C   0  0  0  0  0  0  0  0  0  0  0  0
    0.6657    3.1038    0.0000 O   0  0  0  0  0  0  0  0  0  0  0  0
   -4.2022    2.9915    0.0000 C   0  0  0  0  0  0  0  0  0  0  0  0
   -2.9832    1.1733    0.0000 C   0  0  0  0  0  0  0  0  0  0  0  0
   -4.5767    1.6102    0.0000 C   0  0  0  0  0  0  0  0  0  0  0  0
  2 12  1  0  0  0  0
  3  1  2  0  0  0  0
  4  3  1  0  0  0  0
  5  1  1  0  0  0  0
  6  1  1  0  0  0  0
  7  2  1  0  0  0  0
  8  2  1  0  0  0  0
  9  5  1  0  0  0  0
 10  6  1  0  0  0  0
 11  4  1  0  0  0  0
 12 10  1  0  0  0  0
 13 11  2  0  0  0  0
 14  8  1  0  0  0  0
 15  7  1  0  0  0  0
 16  8  2  0  0  0  0
 17  7  2  0  0  0  0
 18  9  1  0  0  0  0
 19 10  2  0  0  0  0
 20 18  2  0  0  0  0
 21 11  1  0  0  0  0
 22 13  1  0  0  0  0
  9  4  2  0  0  0  0
 20 13  1  0  0  0  0
 14 15  1  0  0  0  0
M  END
>  <IDNUMBER>
F1300-0285

>  <Chemical_Name>
N-(4,5-dimethyl-1,3-benzothiazol-2-yl)-2-(2,5-dioxopyrrolidin-1-yl)acetamide

>  <PriceCoeff>
1.00

>  <CAS>
888409-79-8

>  <MW>
317.36

>  <Description>
solid

>  <FSP3>
0.33

>  <clogP>
2.39

>  <TPSA>
107.61

>  <Acceptor>
4

>  <Donor>
1

>  <RotBonds>
3

>  <HAC>
22

>  <Collection>
General

>  <PPDS>
+

$$$$
F1315-0050
  Mrv2219 10102508112D          

 25 27  0  0  0  0            999 V2000
    2.4050   -0.4802    0.0000 C   0  0  0  0  0  0  0  0  0  0  0  0
    4.5469   -0.9061    0.0000 S   0  0  0  0  0  0  0  0  0  0  0  0
    1.6827   -0.8935    0.0000 C   0  0  0  0  0  0  0  0  0  0  0  0
    2.4050    0.3465    0.0000 C   0  0  0  0  0  0  0  0  0  0  0  0
    3.1106   -0.9019    0.0000 C   0  0  0  0  0  0  0  0  0  0  0  0
    3.8371   -0.4927    0.0000 N   0  0  0  0  0  0  0  0  0  0  0  0
    1.6910    0.7599    0.0000 O   0  0  0  0  0  0  0  0  0  0  0  0
    0.9687   -0.4802    0.0000 C   0  0  0  0  0  0  0  0  0  0  0  0
    0.9770    0.3465    0.0000 C   0  0  0  0  0  0  0  0  0  0  0  0
    5.2651   -1.3194    0.0000 C   0  0  0  0  0  0  0  0  0  0  0  0
    4.9519   -0.1921    0.0000 O   0  0  0  0  0  0  0  0  0  0  0  0
    4.1252   -1.6201    0.0000 O   0  0  0  0  0  0  0  0  0  0  0  0
    3.1232    0.7516    0.0000 O   0  0  0  0  0  0  0  0  0  0  0  0
    3.1106   -1.7286    0.0000 O   0  0  0  0  0  0  0  0  0  0  0  0
    1.6785   -1.7203    0.0000 O   0  0  0  0  0  0  0  0  0  0  0  0
    5.2526   -2.1461    0.0000 C   0  0  0  0  0  0  0  0  0  0  0  0
    5.9749   -0.9061    0.0000 C   0  0  0  0  0  0  0  0  0  0  0  0
    6.6888   -1.3194    0.0000 C   0  0  0  0  0  0  0  0  0  0  0  0
    5.9665   -2.5595    0.0000 C   0  0  0  0  0  0  0  0  0  0  0  0
    6.6888   -2.1545    0.0000 C   0  0  0  0  0  0  0  0  0  0  0  0
    0.2630   -0.8893    0.0000 C   0  0  0  0  0  0  0  0  0  0  0  0
    0.2630    0.7641    0.0000 C   0  0  0  0  0  0  0  0  0  0  0  0
    7.4028   -2.5678    0.0000 C   0  0  0  0  0  0  0  0  0  0  0  0
   -0.4467   -0.4802    0.0000 C   0  0  0  0  0  0  0  0  0  0  0  0
   -0.4467    0.3465    0.0000 C   0  0  0  0  0  0  0  0  0  0  0  0
  2  6  1  0  0  0  0
  3  1  2  0  0  0  0
  4  1  1  0  0  0  0
  5  1  1  0  0  0  0
  6  5  1  0  0  0  0
  7  4  1  0  0  0  0
  8  3  1  0  0  0  0
  9  7  1  0  0  0  0
 10  2  1  0  0  0  0
 11  2  2  0  0  0  0
 12  2  2  0  0  0  0
 13  4  2  0  0  0  0
 14  5  2  0  0  0  0
 15  3  1  0  0  0  0
 16 10  2  0  0  0  0
 17 10  1  0  0  0  0
 18 17  2  0  0  0  0
 19 16  1  0  0  0  0
 20 18  1  0  0  0  0
 21  8  1  0  0  0  0
 22  9  1  0  0  0  0
 23 20  1  0  0  0  0
 24 21  2  0  0  0  0
 25 22  2  0  0  0  0
  8  9  2  0  0  0  0
 24 25  1  0  0  0  0
 20 19  2  0  0  0  0
M  END
>  <IDNUMBER>
F1315-0050

>  <Chemical_Name>
4-hydroxy-N-(4-methylbenzenesulfonyl)-2-oxo-2H-chromene-3-carboxamide

>  <PriceCoeff>
1.00

>  <CAS>
325821-90-7

>  <MW>
359.35

>  <Description>
solid

>  <FSP3>
0.06

>  <clogP>
4.06

>  <TPSA>
118.15

>  <Acceptor>
6

>  <Donor>
2

>  <RotBonds>
3

>  <HAC>
25

>  <Collection>
General

>  <PPDS>
+

$$$$
F1318-0190
  Mrv2219 10102508112D          

 21 22  0  0  0  0            999 V2000
    6.9500   -5.2250    0.0000 C   0  0  0  0  0  0  0  0  0  0  0  0
    3.2292   -5.9292    0.0000 C   0  0  0  0  0  0  0  0  0  0  0  0
    6.5250   -5.9292    0.0000 O   0  0  0  0  0  0  0  0  0  0  0  0
    7.7750   -5.2250    0.0000 N   0  0  0  0  0  0  0  0  0  0  0  0
    4.0542   -5.9292    0.0000 C   0  0  0  0  0  0  0  0  0  0  0  0
    2.8167   -5.2167    0.0000 C   0  0  0  0  0  0  0  0  0  0  0  0
    6.5250   -4.5000    0.0000 O   0  0  0  0  0  0  0  0  0  0  0  0
    2.8417   -6.6375    0.0000 O   0  0  0  0  0  0  0  0  0  0  0  0
    4.4667   -6.6500    0.0000 C   0  0  0  0  0  0  0  0  0  0  0  0
    4.4667   -5.2042    0.0000 C   0  0  0  0  0  0  0  0  0  0  0  0
    3.2292   -4.5000    0.0000 C   0  0  0  0  0  0  0  0  0  0  0  0
    2.0000   -5.2167    0.0000 C   0  0  0  0  0  0  0  0  0  0  0  0
    5.7042   -5.9292    0.0000 C   0  0  0  0  0  0  0  0  0  0  0  0
    1.9917   -3.7917    0.0000 C   0  0  0  0  0  0  0  0  0  0  0  0
    5.2875   -5.2042    0.0000 C   0  0  0  0  0  0  0  0  0  0  0  0
    5.2875   -6.6500    0.0000 C   0  0  0  0  0  0  0  0  0  0  0  0
    1.5875   -4.5042    0.0000 C   0  0  0  0  0  0  0  0  0  0  0  0
    2.8167   -3.7875    0.0000 C   0  0  0  0  0  0  0  0  0  0  0  0
    1.5792   -3.0750    0.0000 Cl  0  0  0  0  0  0  0  0  0  0  0  0
    8.1875   -4.5000    0.0000 C   0  0  0  0  0  0  0  0  0  0  0  0
    8.2000   -5.9417    0.0000 C   0  0  0  0  0  0  0  0  0  0  0  0
  2  5  1  0  0  0  0
  3  1  1  0  0  0  0
  4  1  1  0  0  0  0
  5  9  1  0  0  0  0
  6  2  1  0  0  0  0
  7  1  2  0  0  0  0
  8  2  2  0  0  0  0
  9 16  2  0  0  0  0
 10 15  1  0  0  0  0
 11  6  2  0  0  0  0
 12  6  1  0  0  0  0
 13  3  1  0  0  0  0
 14 17  1  0  0  0  0
 15 13  2  0  0  0  0
 16 13  1  0  0  0  0
 17 12  2  0  0  0  0
 18 11  1  0  0  0  0
 19 14  1  0  0  0  0
 20  4  1  0  0  0  0
 21  4  1  0  0  0  0
 10  5  2  0  0  0  0
 14 18  2  0  0  0  0
M  END
>  <IDNUMBER>
F1318-0190

>  <Chemical_Name>
4-(4-chlorobenzoyl)phenyl N,N-dimethylcarbamate

>  <PriceCoeff>
1.00

>  <CAS>
103060-05-5

>  <MW>
303.74

>  <Description>
solid

>  <FSP3>
0.12

>  <clogP>
3.52

>  <TPSA>
46.61

>  <Acceptor>
3

>  <Donor>
0

>  <RotBonds>
5

>  <HAC>
21

>  <Collection>
General

>  <PPDS>
+

$$$$
F1318-0203
  Mrv2219 10102508112D          

 22 23  0  0  0  0            999 V2000
   -0.6723   -3.7874    0.0000 C   0  0  0  0  0  0  0  0  0  0  0  0
    3.4367   -0.9062    0.0000 C   0  0  0  0  0  0  0  0  0  0  0  0
    3.0233   -1.6203    0.0000 O   0  0  0  0  0  0  0  0  0  0  0  0
   -0.2630   -3.0608    0.0000 O   0  0  0  0  0  0  0  0  0  0  0  0
    0.5638   -3.0608    0.0000 C   0  0  0  0  0  0  0  0  0  0  0  0
    2.1964   -1.6203    0.0000 C   0  0  0  0  0  0  0  0  0  0  0  0
    1.7831   -2.3343    0.0000 C   0  0  0  0  0  0  0  0  0  0  0  0
    0.9688   -2.3426    0.0000 C   0  0  0  0  0  0  0  0  0  0  0  0
   -1.5116   -3.8000    0.0000 N   0  0  0  0  0  0  0  0  0  0  0  0
    4.2635   -0.9062    0.0000 N   0  0  0  0  0  0  0  0  0  0  0  0
   -0.2588   -4.5015    0.0000 O   0  0  0  0  0  0  0  0  0  0  0  0
    3.0233   -0.1879    0.0000 O   0  0  0  0  0  0  0  0  0  0  0  0
    1.7706   -0.8894    0.0000 C   0  0  0  0  0  0  0  0  0  0  0  0
    0.9813   -3.7624    0.0000 C   0  0  0  0  0  0  0  0  0  0  0  0
    0.5512   -1.6328    0.0000 C   0  0  0  0  0  0  0  0  0  0  0  0
    2.2091   -3.0483    0.0000 C   0  0  0  0  0  0  0  0  0  0  0  0
    1.7956   -3.7624    0.0000 C   0  0  0  0  0  0  0  0  0  0  0  0
    0.9563   -0.8936    0.0000 C   0  0  0  0  0  0  0  0  0  0  0  0
   -1.9292   -3.0818    0.0000 C   0  0  0  0  0  0  0  0  0  0  0  0
    4.6769   -1.6203    0.0000 C   0  0  0  0  0  0  0  0  0  0  0  0
    4.6769   -0.1921    0.0000 C   0  0  0  0  0  0  0  0  0  0  0  0
   -1.9125   -4.5140    0.0000 C   0  0  0  0  0  0  0  0  0  0  0  0
  2  3  1  0  0  0  0
  3  6  1  0  0  0  0
  4  1  1  0  0  0  0
  5  4  1  0  0  0  0
  6  7  1  0  0  0  0
  7  8  1  0  0  0  0
  8  5  2  0  0  0  0
  9  1  1  0  0  0  0
 10  2  1  0  0  0  0
 11  1  2  0  0  0  0
 12  2  2  0  0  0  0
 13 18  1  0  0  0  0
 14  5  1  0  0  0  0
 15  8  1  0  0  0  0
 16 17  1  0  0  0  0
 17 14  2  0  0  0  0
 18 15  2  0  0  0  0
 19  9  1  0  0  0  0
 20 10  1  0  0  0  0
 21 10  1  0  0  0  0
 22  9  1  0  0  0  0
 16  7  2  0  0  0  0
 13  6  2  0  0  0  0
M  END
>  <IDNUMBER>
F1318-0203

>  <Chemical_Name>
5-[(dimethylcarbamoyl)oxy]naphthalen-1-yl N,N-dimethylcarbamate

>  <PriceCoeff>
1.00

>  <CAS>
501104-83-2

>  <MW>
302.33

>  <Description>
solid

>  <FSP3>
0.25

>  <clogP>
2.01

>  <TPSA>
59.08

>  <Acceptor>
4

>  <Donor>
0

>  <RotBonds>
6

>  <HAC>
22

>  <Collection>
General

>  <PPDS>
+

$$$$
F1318-0211
  Mrv2219 10102508112D          

 18 19  0  0  0  0            999 V2000
   -2.1628   -1.4447    0.0000 N   0  3  0  0  0  0  0  0  0  0  0  0
    0.7390    0.6847    0.0000 C   0  0  0  0  0  0  0  0  0  0  0  0
    1.5699    0.6847    0.0000 N   0  0  0  0  0  0  0  0  0  0  0  0
   -1.7411   -0.7307    0.0000 C   0  0  0  0  0  0  0  0  0  0  0  0
    0.3048   -0.0167    0.0000 O   0  0  0  0  0  0  0  0  0  0  0  0
   -0.9227   -0.7307    0.0000 C   0  0  0  0  0  0  0  0  0  0  0  0
   -2.9895   -1.4447    0.0000 O   0  5  0  0  0  0  0  0  0  0  0  0
   -1.7494   -2.1587    0.0000 O   0  0  0  0  0  0  0  0  0  0  0  0
    0.3048    1.4112    0.0000 O   0  0  0  0  0  0  0  0  0  0  0  0
   -0.5136   -0.0167    0.0000 C   0  0  0  0  0  0  0  0  0  0  0  0
    3.2442    0.6847    0.0000 O   0  0  0  0  0  0  0  0  0  0  0  0
    1.9958   -0.0293    0.0000 C   0  0  0  0  0  0  0  0  0  0  0  0
    1.9833    1.4112    0.0000 C   0  0  0  0  0  0  0  0  0  0  0  0
   -2.1545   -0.0167    0.0000 C   0  0  0  0  0  0  0  0  0  0  0  0
   -1.7494    0.6889    0.0000 C   0  0  0  0  0  0  0  0  0  0  0  0
   -0.9227    0.6889    0.0000 C   0  0  0  0  0  0  0  0  0  0  0  0
    2.8225   -0.0293    0.0000 C   0  0  0  0  0  0  0  0  0  0  0  0
    2.8225    1.4112    0.0000 C   0  0  0  0  0  0  0  0  0  0  0  0
  2  5  1  0  0  0  0
  3  2  1  0  0  0  0
  4  1  1  0  0  0  0
  5 10  1  0  0  0  0
  6  4  2  0  0  0  0
  7  1  1  0  0  0  0
  8  1  2  0  0  0  0
  9  2  2  0  0  0  0
 10  6  1  0  0  0  0
 11 18  1  0  0  0  0
 12  3  1  0  0  0  0
 13  3  1  0  0  0  0
 14  4  1  0  0  0  0
 15 14  2  0  0  0  0
 16 15  1  0  0  0  0
 17 12  1  0  0  0  0
 18 13  1  0  0  0  0
 16 10  2  0  0  0  0
 11 17  1  0  0  0  0
M  CHG  2   1   1   7  -1
M  END
>  <IDNUMBER>
F1318-0211

>  <Chemical_Name>
3-nitrophenyl morpholine-4-carboxylate

>  <PriceCoeff>
1.00

>  <CAS>
501104-91-2

>  <MW>
252.22

>  <Description>
solid

>  <FSP3>
0.36

>  <clogP>
1.39

>  <TPSA>
81.91

>  <Acceptor>
5

>  <Donor>
0

>  <RotBonds>
4

>  <HAC>
18

>  <Collection>
General

>  <PPDS>
+

$$$$
F1318-0212
  Mrv2219 10102508112D          

 18 19  0  0  0  0            999 V2000
    7.3402   -7.2317    0.0000 N   0  3  0  0  0  0  0  0  0  0  0  0
   10.2379   -5.1023    0.0000 C   0  0  0  0  0  0  0  0  0  0  0  0
   11.0729   -5.1023    0.0000 N   0  0  0  0  0  0  0  0  0  0  0  0
    7.7577   -6.5177    0.0000 C   0  0  0  0  0  0  0  0  0  0  0  0
    9.8120   -5.8037    0.0000 O   0  0  0  0  0  0  0  0  0  0  0  0
    8.5802   -6.5177    0.0000 C   0  0  0  0  0  0  0  0  0  0  0  0
    6.5135   -7.2317    0.0000 O   0  5  0  0  0  0  0  0  0  0  0  0
    7.7577   -7.9456    0.0000 O   0  0  0  0  0  0  0  0  0  0  0  0
    9.8120   -4.3758    0.0000 O   0  0  0  0  0  0  0  0  0  0  0  0
    8.9853   -5.8037    0.0000 C   0  0  0  0  0  0  0  0  0  0  0  0
   11.4905   -4.3758    0.0000 C   0  0  0  0  0  0  0  0  0  0  0  0
   11.5030   -5.8162    0.0000 C   0  0  0  0  0  0  0  0  0  0  0  0
    7.3444   -5.8037    0.0000 C   0  0  0  0  0  0  0  0  0  0  0  0
    7.7577   -5.0980    0.0000 C   0  0  0  0  0  0  0  0  0  0  0  0
    8.5802   -5.0980    0.0000 C   0  0  0  0  0  0  0  0  0  0  0  0
   12.3297   -4.3758    0.0000 C   0  0  0  0  0  0  0  0  0  0  0  0
   12.3297   -5.8162    0.0000 C   0  0  0  0  0  0  0  0  0  0  0  0
   12.7431   -5.1023    0.0000 C   0  0  0  0  0  0  0  0  0  0  0  0
  2  5  1  0  0  0  0
  3  2  1  0  0  0  0
  4  1  1  0  0  0  0
  5 10  1  0  0  0  0
  6  4  2  0  0  0  0
  7  1  1  0  0  0  0
  8  1  2  0  0  0  0
  9  2  2  0  0  0  0
 10  6  1  0  0  0  0
 11  3  1  0  0  0  0
 12  3  1  0  0  0  0
 13  4  1  0  0  0  0
 14 13  2  0  0  0  0
 15 14  1  0  0  0  0
 16 11  1  0  0  0  0
 17 12  1  0  0  0  0
 18 17  1  0  0  0  0
 15 10  2  0  0  0  0
 18 16  1  0  0  0  0
M  CHG  2   1   1   7  -1
M  END
>  <IDNUMBER>
F1318-0212

>  <Chemical_Name>
3-nitrophenyl piperidine-1-carboxylate

>  <PriceCoeff>
1.00

>  <CAS>
501104-92-3

>  <MW>
250.25

>  <Description>
solid

>  <FSP3>
0.42

>  <clogP>
2.66

>  <TPSA>
72.68

>  <Acceptor>
4

>  <Donor>
0

>  <RotBonds>
4

>  <HAC>
18

>  <Collection>
General

>  <PPDS>
+

$$$$
F1318-0213
  Mrv2219 10102508112D          

 15 15  0  0  0  0            999 V2000
    7.3625   -7.2536    0.0000 N   0  3  0  0  0  0  0  0  0  0  0  0
   10.2690   -5.1178    0.0000 C   0  0  0  0  0  0  0  0  0  0  0  0
    7.7813   -6.5375    0.0000 C   0  0  0  0  0  0  0  0  0  0  0  0
    9.8418   -5.8213    0.0000 O   0  0  0  0  0  0  0  0  0  0  0  0
    8.6063   -6.5375    0.0000 C   0  0  0  0  0  0  0  0  0  0  0  0
   11.1065   -5.1178    0.0000 N   0  0  0  0  0  0  0  0  0  0  0  0
    6.5333   -7.2536    0.0000 O   0  5  0  0  0  0  0  0  0  0  0  0
    7.7813   -7.9698    0.0000 O   0  0  0  0  0  0  0  0  0  0  0  0
    9.8418   -4.3890    0.0000 O   0  0  0  0  0  0  0  0  0  0  0  0
    9.0126   -5.8213    0.0000 C   0  0  0  0  0  0  0  0  0  0  0  0
    7.3667   -5.8213    0.0000 C   0  0  0  0  0  0  0  0  0  0  0  0
    7.7813   -5.1135    0.0000 C   0  0  0  0  0  0  0  0  0  0  0  0
   11.5254   -4.3890    0.0000 C   0  0  0  0  0  0  0  0  0  0  0  0
   11.5379   -5.8339    0.0000 C   0  0  0  0  0  0  0  0  0  0  0  0
    8.6063   -5.1135    0.0000 C   0  0  0  0  0  0  0  0  0  0  0  0
  2  4  1  0  0  0  0
  3  1  1  0  0  0  0
  4 10  1  0  0  0  0
  5  3  2  0  0  0  0
  6  2  1  0  0  0  0
  7  1  1  0  0  0  0
  8  1  2  0  0  0  0
  9  2  2  0  0  0  0
 10  5  1  0  0  0  0
 11  3  1  0  0  0  0
 12 11  2  0  0  0  0
 13  6  1  0  0  0  0
 14  6  1  0  0  0  0
 15 12  1  0  0  0  0
 15 10  2  0  0  0  0
M  CHG  2   1   1   7  -1
M  END
>  <IDNUMBER>
F1318-0213

>  <Chemical_Name>
3-nitrophenyl N,N-dimethylcarbamate

>  <PriceCoeff>
1.00

>  <CAS>
7304-99-6

>  <MW>
210.19

>  <Description>
solid

>  <FSP3>
0.22

>  <clogP>
1.47

>  <TPSA>
72.68

>  <Acceptor>
4

>  <Donor>
0

>  <RotBonds>
4

>  <HAC>
15

>  <Collection>
General

>  <PPDS>
+

$$$$
F1328-0052
  Mrv2219 10102508112D          

 21 23  0  0  0  0            999 V2000
    0.3037   -1.5477    0.0000 N   0  0  0  0  0  0  0  0  0  0  0  0
    1.1233   -1.6351    0.0000 C   0  0  0  0  0  0  0  0  0  0  0  0
    1.4645   -0.8862    0.0000 C   0  0  0  0  0  0  0  0  0  0  0  0
    2.2716   -0.7156    0.0000 C   0  0  0  0  0  0  0  0  0  0  0  0
    0.1415   -0.7406    0.0000 C   0  0  0  0  0  0  0  0  0  0  0  0
    0.8529   -0.3370    0.0000 C   0  0  0  0  0  0  0  0  0  0  0  0
   -0.2454   -2.1593    0.0000 C   0  0  0  0  0  0  0  0  0  0  0  0
    2.8208   -1.3397    0.0000 C   0  0  0  0  0  0  0  0  0  0  0  0
    2.5254    0.0624    0.0000 C   0  0  0  0  0  0  0  0  0  0  0  0
    3.8942   -0.3869    0.0000 O   0  0  0  0  0  0  0  0  0  0  0  0
    3.3367    0.2330    0.0000 C   0  0  0  0  0  0  0  0  0  0  0  0
    3.6238   -1.1733    0.0000 C   0  0  0  0  0  0  0  0  0  0  0  0
    1.5394   -2.3507    0.0000 O   0  0  0  0  0  0  0  0  0  0  0  0
   -1.0567   -1.9845    0.0000 O   0  0  0  0  0  0  0  0  0  0  0  0
   -0.5741   -0.3370    0.0000 C   0  0  0  0  0  0  0  0  0  0  0  0
    0.8529    0.4951    0.0000 C   0  0  0  0  0  0  0  0  0  0  0  0
    0.0042   -2.9456    0.0000 C   0  0  0  0  0  0  0  0  0  0  0  0
    3.5988    1.0193    0.0000 C   0  0  0  0  0  0  0  0  0  0  0  0
    4.1813   -1.7890    0.0000 C   0  0  0  0  0  0  0  0  0  0  0  0
    0.1373    0.9069    0.0000 C   0  0  0  0  0  0  0  0  0  0  0  0
   -0.5741    0.4951    0.0000 C   0  0  0  0  0  0  0  0  0  0  0  0
  2  1  1  0  0  0  0
  3  2  1  0  0  0  0
  4  3  2  0  0  0  0
  5  1  1  0  0  0  0
  6  5  2  0  0  0  0
  7  1  1  0  0  0  0
  8  4  1  0  0  0  0
  9  4  1  0  0  0  0
 10 11  1  0  0  0  0
 11  9  2  0  0  0  0
 12  8  2  0  0  0  0
 13  2  2  0  0  0  0
 14  7  2  0  0  0  0
 15  5  1  0  0  0  0
 16  6  1  0  0  0  0
 17  7  1  0  0  0  0
 18 11  1  0  0  0  0
 19 12  1  0  0  0  0
 20 21  1  0  0  0  0
 21 15  2  0  0  0  0
  3  6  1  0  0  0  0
 16 20  2  0  0  0  0
 12 10  1  0  0  0  0
M  END
>  <IDNUMBER>
F1328-0052

>  <Chemical_Name>
1-acetyl-3-(2,6-dimethyl-4H-pyran-4-ylidene)-2,3-dihydro-1H-indol-2-one

>  <PriceCoeff>
1.00

>  <CAS>
531493-59-1

>  <MW>
281.31

>  <Description>
solid

>  <FSP3>
0.18

>  <clogP>
0.87

>  <TPSA>
46.61

>  <Acceptor>
3

>  <Donor>
0

>  <RotBonds>
1

>  <HAC>
21

>  <Collection>
General

>  <PPDS>
+

$$$$
F1335-0047
  Mrv2219 10102508112D          

 16 16  0  0  0  0            999 V2000
    3.5674   -0.2167    0.0000 C   0  0  0  0  0  0  0  0  0  0  0  0
    4.2883   -0.6293    0.0000 N   0  0  0  0  0  0  0  0  0  0  0  0
    2.8547   -0.6418    0.0000 C   0  0  0  0  0  0  0  0  0  0  0  0
    5.0051   -1.8629    0.0000 C   0  0  0  0  0  0  0  0  0  0  0  0
    3.5674    0.6001    0.0000 O   0  0  0  0  0  0  0  0  0  0  0  0
    5.0134   -2.6880    0.0000 O   0  0  0  0  0  0  0  0  0  0  0  0
    4.2883   -1.4545    0.0000 C   0  0  0  0  0  0  0  0  0  0  0  0
    2.8547   -1.4670    0.0000 C   0  0  0  0  0  0  0  0  0  0  0  0
    2.1421   -0.2292    0.0000 C   0  0  0  0  0  0  0  0  0  0  0  0
    1.4295   -1.4670    0.0000 C   0  0  0  0  0  0  0  0  0  0  0  0
    2.1421   -1.8796    0.0000 C   0  0  0  0  0  0  0  0  0  0  0  0
    1.4295   -0.6418    0.0000 C   0  0  0  0  0  0  0  0  0  0  0  0
    5.7178   -1.4420    0.0000 O   0  0  0  0  0  0  0  0  0  0  0  0
    0.7126   -1.8796    0.0000 O   0  0  0  0  0  0  0  0  0  0  0  0
    6.4304   -1.8503    0.0000 C   0  0  0  0  0  0  0  0  0  0  0  0
    0.0000   -1.4670    0.0000 C   0  0  0  0  0  0  0  0  0  0  0  0
  2  1  1  0  0  0  0
  3  1  1  0  0  0  0
  4  7  1  0  0  0  0
  5  1  2  0  0  0  0
  6  4  2  0  0  0  0
  7  2  1  0  0  0  0
  8  3  1  0  0  0  0
  9  3  2  0  0  0  0
 10 12  2  0  0  0  0
 11  8  2  0  0  0  0
 12  9  1  0  0  0  0
 13  4  1  0  0  0  0
 14 10  1  0  0  0  0
 15 13  1  0  0  0  0
 16 14  1  0  0  0  0
 11 10  1  0  0  0  0
M  END
>  <IDNUMBER>
F1335-0047

>  <Chemical_Name>
methyl 2-[(4-methoxyphenyl)formamido]acetate

>  <PriceCoeff>
1.00

>  <CAS>
62086-71-9

>  <MW>
223.23

>  <Description>
solid

>  <FSP3>
0.27

>  <clogP>
1.06

>  <TPSA>
64.63

>  <Acceptor>
4

>  <Donor>
1

>  <RotBonds>
5

>  <HAC>
16

>  <Collection>
General

>  <PPDS>
+

$$$$
F1342-0017
  Mrv2219 10102508112D          

 17 18  0  0  0  0            999 V2000
    4.0167   -4.9917    0.0000 C   0  0  0  0  0  0  0  0  0  0  0  0
    4.7917   -5.2417    0.0000 N   0  0  0  0  0  0  0  0  0  0  0  0
    4.0167   -4.1667    0.0000 C   0  0  0  0  0  0  0  0  0  0  0  0
    3.3042   -5.3917    0.0000 N   0  0  0  0  0  0  0  0  0  0  0  0
    5.2667   -4.5667    0.0000 C   0  0  0  0  0  0  0  0  0  0  0  0
    2.5667   -4.9917    0.0000 C   0  0  0  0  0  0  0  0  0  0  0  0
    2.5667   -4.1667    0.0000 N   0  0  0  0  0  0  0  0  0  0  0  0
    4.8542   -3.8417    0.0000 N   0  0  0  0  0  0  0  0  0  0  0  0
    3.3042   -3.7417    0.0000 C   0  0  0  0  0  0  0  0  0  0  0  0
    6.0917   -4.5667    0.0000 N   0  0  0  0  0  0  0  0  0  0  0  0
    1.8417   -5.3917    0.0000 O   0  0  0  0  0  0  0  0  0  0  0  0
    3.3042   -2.9167    0.0000 O   0  0  0  0  0  0  0  0  0  0  0  0
    3.3042   -6.2167    0.0000 C   0  0  0  0  0  0  0  0  0  0  0  0
    8.2292   -4.9667    0.0000 O   0  0  0  0  0  0  0  0  0  0  0  0
    6.8042   -4.9750    0.0000 C   0  0  0  0  0  0  0  0  0  0  0  0
    6.2917   -3.7667    0.0000 C   0  0  0  0  0  0  0  0  0  0  0  0
    7.5167   -4.5625    0.0000 C   0  0  0  0  0  0  0  0  0  0  0  0
  2  1  1  0  0  0  0
  3  1  2  0  0  0  0
  4  1  1  0  0  0  0
  5  2  2  0  0  0  0
  6  4  1  0  0  0  0
  7  6  1  0  0  0  0
  8  3  1  0  0  0  0
  9  3  1  0  0  0  0
 10  5  1  0  0  0  0
 11  6  2  0  0  0  0
 12  9  2  0  0  0  0
 13  4  1  0  0  0  0
 14 17  1  0  0  0  0
 15 10  1  0  0  0  0
 16 10  1  0  0  0  0
 17 15  1  0  0  0  0
  9  7  1  0  0  0  0
  8  5  1  0  0  0  0
M  END
>  <IDNUMBER>
F1342-0017

>  <Chemical_Name>
8-[(2-hydroxyethyl)(methyl)amino]-3-methyl-2,3,6,7-tetrahydro-1H-purine-2,6-dione

>  <PriceCoeff>
1.00

>  <CAS>
671763-45-4

>  <MW>
239.24

>  <Description>
solid

>  <FSP3>
0.44

>  <clogP>
-0.69

>  <TPSA>
101.56

>  <Acceptor>
5

>  <Donor>
5

>  <RotBonds>
3

>  <HAC>
17

>  <Collection>
General

>  <PPDS>
+

$$$$
F1342-0052
  Mrv2219 10102508112D          

 17 18  0  0  0  0            999 V2000
    1.2198   -2.7960    0.0000 C   0  0  0  0  0  0  0  0  0  0  0  0
    1.2198   -1.9786    0.0000 C   0  0  0  0  0  0  0  0  0  0  0  0
    0.4947   -3.1984    0.0000 N   0  0  0  0  0  0  0  0  0  0  0  0
    2.0163   -3.0475    0.0000 N   0  0  0  0  0  0  0  0  0  0  0  0
   -0.2641   -2.7960    0.0000 C   0  0  0  0  0  0  0  0  0  0  0  0
   -0.2641   -1.9786    0.0000 N   0  0  0  0  0  0  0  0  0  0  0  0
    0.4947   -1.5636    0.0000 C   0  0  0  0  0  0  0  0  0  0  0  0
    2.5025   -2.3810    0.0000 C   0  0  0  0  0  0  0  0  0  0  0  0
    2.0749   -1.6642    0.0000 N   0  0  0  0  0  0  0  0  0  0  0  0
   -1.0018   -3.1984    0.0000 O   0  0  0  0  0  0  0  0  0  0  0  0
    0.4947   -0.7462    0.0000 O   0  0  0  0  0  0  0  0  0  0  0  0
    3.3199   -2.3810    0.0000 N   0  0  0  0  0  0  0  0  0  0  0  0
    0.4947   -4.0158    0.0000 C   0  0  0  0  0  0  0  0  0  0  0  0
    5.3488   -3.2613    0.0000 O   0  0  0  0  0  0  0  0  0  0  0  0
    3.8984   -2.9552    0.0000 C   0  0  0  0  0  0  0  0  0  0  0  0
    4.6949   -2.7457    0.0000 C   0  0  0  0  0  0  0  0  0  0  0  0
    6.0404   -2.7960    0.0000 C   0  0  0  0  0  0  0  0  0  0  0  0
  2  1  2  0  0  0  0
  3  1  1  0  0  0  0
  4  1  1  0  0  0  0
  5  3  1  0  0  0  0
  6  5  1  0  0  0  0
  7  2  1  0  0  0  0
  8  4  2  0  0  0  0
  9  2  1  0  0  0  0
 10  5  2  0  0  0  0
 11  7  2  0  0  0  0
 12  8  1  0  0  0  0
 13  3  1  0  0  0  0
 14 16  1  0  0  0  0
 15 12  1  0  0  0  0
 16 15  1  0  0  0  0
 17 14  1  0  0  0  0
  9  8  1  0  0  0  0
  7  6  1  0  0  0  0
M  END
>  <IDNUMBER>
F1342-0052

>  <Chemical_Name>
8-[(2-methoxyethyl)amino]-3-methyl-2,3,6,7-tetrahydro-1H-purine-2,6-dione

>  <PriceCoeff>
1.00

>  <CAS>
476482-14-1

>  <MW>
239.23

>  <Description>
solid

>  <FSP3>
0.44

>  <clogP>
-0.09

>  <TPSA>
99.35

>  <Acceptor>
5

>  <Donor>
4

>  <RotBonds>
4

>  <HAC>
17

>  <Collection>
General

>  <PPDS>
+

$$$$
F1342-0085
  Mrv2219 10102508112D          

 20 21  0  0  0  0            999 V2000
    1.2699   -0.6391    0.0000 C   0  0  0  0  0  0  0  0  0  0  0  0
    1.6667    0.0835    0.0000 C   0  0  0  0  0  0  0  0  0  0  0  0
    0.4178   -0.6559    0.0000 N   0  0  0  0  0  0  0  0  0  0  0  0
    1.8464   -1.2281    0.0000 N   0  0  0  0  0  0  0  0  0  0  0  0
   -0.0251    0.0125    0.0000 C   0  0  0  0  0  0  0  0  0  0  0  0
    0.4052    0.7477    0.0000 N   0  0  0  0  0  0  0  0  0  0  0  0
    1.2198    0.7770    0.0000 C   0  0  0  0  0  0  0  0  0  0  0  0
    2.6233   -0.8564    0.0000 C   0  0  0  0  0  0  0  0  0  0  0  0
    2.4604   -0.0543    0.0000 N   0  0  0  0  0  0  0  0  0  0  0  0
   -0.8605   -0.0042    0.0000 O   0  0  0  0  0  0  0  0  0  0  0  0
    1.6083    1.4996    0.0000 O   0  0  0  0  0  0  0  0  0  0  0  0
    3.3878   -1.2073    0.0000 N   0  0  0  0  0  0  0  0  0  0  0  0
    0.0293   -1.3702    0.0000 C   0  0  0  0  0  0  0  0  0  0  0  0
    5.0545   -2.6484    0.0000 N   0  0  0  0  0  0  0  0  0  0  0  0
    3.8096   -1.9341    0.0000 C   0  0  0  0  0  0  0  0  0  0  0  0
    4.6367   -1.9341    0.0000 C   0  0  0  0  0  0  0  0  0  0  0  0
    5.8816   -2.6484    0.0000 C   0  0  0  0  0  0  0  0  0  0  0  0
    4.8372   -3.4337    0.0000 C   0  0  0  0  0  0  0  0  0  0  0  0
    5.2550   -4.1397    0.0000 C   0  0  0  0  0  0  0  0  0  0  0  0
    6.2951   -3.3627    0.0000 C   0  0  0  0  0  0  0  0  0  0  0  0
  2  1  2  0  0  0  0
  3  1  1  0  0  0  0
  4  1  1  0  0  0  0
  5  3  1  0  0  0  0
  6  5  1  0  0  0  0
  7  2  1  0  0  0  0
  8  4  2  0  0  0  0
  9  2  1  0  0  0  0
 10  5  2  0  0  0  0
 11  7  2  0  0  0  0
 12  8  1  0  0  0  0
 13  3  1  0  0  0  0
 14 16  1  0  0  0  0
 15 12  1  0  0  0  0
 16 15  1  0  0  0  0
 17 14  1  0  0  0  0
 18 14  1  0  0  0  0
 19 18  1  0  0  0  0
 20 17  1  0  0  0  0
  9  8  1  0  0  0  0
  7  6  1  0  0  0  0
M  END
>  <IDNUMBER>
F1342-0085

>  <Chemical_Name>
8-{[2-(diethylamino)ethyl]amino}-3-methyl-2,3,6,7-tetrahydro-1H-purine-2,6-dione

>  <PriceCoeff>
1.00

>  <CAS>
672270-14-3

>  <MW>
280.33

>  <Description>
solid

>  <FSP3>
0.58

>  <clogP>
1.17

>  <TPSA>
93.36

>  <Acceptor>
5

>  <Donor>
5

>  <RotBonds>
6

>  <HAC>
20

>  <Collection>
General

>  <PPDS>
+

$$$$
F1345-0286
  Mrv2219 10102508112D          

 34 37  0  0  0  0            999 V2000
    1.4679    0.2695    0.0000 N   0  0  0  0  0  0  0  0  0  0  0  0
    0.9869   -0.3898    0.0000 C   0  0  0  0  0  0  0  0  0  0  0  0
    0.9869    0.9454    0.0000 C   0  0  0  0  0  0  0  0  0  0  0  0
    0.2032   -0.1286    0.0000 C   0  0  0  0  0  0  0  0  0  0  0  0
    0.2115    0.6925    0.0000 C   0  0  0  0  0  0  0  0  0  0  0  0
    3.9352   -1.1694    0.0000 N   0  0  0  0  0  0  0  0  0  0  0  0
    2.2931    0.2695    0.0000 C   0  0  0  0  0  0  0  0  0  0  0  0
    4.7563   -2.5917    0.0000 O   0  0  0  0  0  0  0  0  0  0  0  0
    2.7037   -0.4520    0.0000 C   0  0  0  0  0  0  0  0  0  0  0  0
    3.5330   -0.4520    0.0000 C   0  0  0  0  0  0  0  0  0  0  0  0
    3.5330   -1.8826    0.0000 C   0  0  0  0  0  0  0  0  0  0  0  0
    4.7687   -1.1694    0.0000 C   0  0  0  0  0  0  0  0  0  0  0  0
    3.9310   -2.5917    0.0000 C   0  0  0  0  0  0  0  0  0  0  0  0
    5.1792   -1.8909    0.0000 C   0  0  0  0  0  0  0  0  0  0  0  0
    2.2890   -1.1611    0.0000 O   0  0  0  0  0  0  0  0  0  0  0  0
    1.1611    1.7416    0.0000 C   0  0  0  0  0  0  0  0  0  0  0  0
    1.1487   -1.1984    0.0000 C   0  0  0  0  0  0  0  0  0  0  0  0
   -0.4063   -0.6759    0.0000 C   0  0  0  0  0  0  0  0  0  0  0  0
   -0.4063    1.2398    0.0000 C   0  0  0  0  0  0  0  0  0  0  0  0
    6.0003   -1.8909    0.0000 C   0  0  0  0  0  0  0  0  0  0  0  0
    3.5205   -3.3132    0.0000 C   0  0  0  0  0  0  0  0  0  0  0  0
    0.5598    2.2972    0.0000 C   0  0  0  0  0  0  0  0  0  0  0  0
    0.5349   -1.7333    0.0000 C   0  0  0  0  0  0  0  0  0  0  0  0
   -0.2446   -1.4928    0.0000 C   0  0  0  0  0  0  0  0  0  0  0  0
   -0.2239    2.0484    0.0000 C   0  0  0  0  0  0  0  0  0  0  0  0
    9.1388    0.0797    0.0000 C   0  0  0  0  0  0  0  0  0  0  0  0
    8.8385    0.8483    0.0000 O   0  0  0  0  0  0  0  0  0  0  0  0
    8.6221   -0.5635    0.0000 C   0  0  0  0  0  0  0  0  0  0  0  0
    9.9489   -0.0395    0.0000 O   0  0  0  0  0  0  0  0  0  0  0  0
    7.8051   -0.4380    0.0000 C   0  0  0  0  0  0  0  0  0  0  0  0
    8.9185   -1.3336    0.0000 C   0  0  0  0  0  0  0  0  0  0  0  0
    7.2869   -1.0773    0.0000 C   0  0  0  0  0  0  0  0  0  0  0  0
    8.3980   -1.9783    0.0000 C   0  0  0  0  0  0  0  0  0  0  0  0
    7.5834   -1.8475    0.0000 C   0  0  0  0  0  0  0  0  0  0  0  0
 11  6  1  0  0  0  0
 12  6  1  0  0  0  0
 13 11  1  0  0  0  0
 14 12  1  0  0  0  0
 15  9  1  0  0  0  0
 16  3  1  0  0  0  0
 17  2  1  0  0  0  0
 18  4  1  0  0  0  0
 19  5  1  0  0  0  0
 20 14  1  0  0  0  0
 21 13  1  0  0  0  0
 22 16  2  0  0  0  0
 23 17  2  0  0  0  0
 24 23  1  0  0  0  0
 25 22  1  0  0  0  0
  4  5  1  0  0  0  0
 19 25  2  0  0  0  0
 18 24  2  0  0  0  0
 13  8  1  0  0  0  0
  2  1  1  0  0  0  0
  3  1  1  0  0  0  0
  4  2  2  0  0  0  0
  5  3  2  0  0  0  0
  6 10  1  0  0  0  0
  7  1  1  0  0  0  0
  8 14  1  0  0  0  0
  9  7  1  0  0  0  0
 10  9  1  0  0  0  0
 27 26  2  0  0  0  0
 28 26  1  0  0  0  0
 29 26  1  0  0  0  0
 30 28  2  0  0  0  0
 31 28  1  0  0  0  0
 32 30  1  0  0  0  0
 33 31  2  0  0  0  0
 34 33  1  0  0  0  0
 34 32  2  0  0  0  0
M  END
>  <IDNUMBER>
F1345-0286

>  <Chemical_Name>
1-(9H-carbazol-9-yl)-3-(2,6-dimethylmorpholin-4-yl)propan-2-ol; benzoic acid

>  <PriceCoeff>
1.00

>  <MW>
338.44

>  <Description>
solid

>  <FSP3>
0.43

>  <clogP>
4.25

>  <TPSA>
37.63

>  <Acceptor>
2

>  <Donor>
2

>  <RotBonds>
4

>  <HAC>
25

>  <Collection>
General

$$$$
F1345-0291
  Mrv2219 10102508112D          

 35 38  0  0  0  0            999 V2000
    1.6592   -1.1490    0.0000 N   0  0  0  0  0  0  0  0  0  0  0  0
    1.1739   -1.8167    0.0000 C   0  0  0  0  0  0  0  0  0  0  0  0
    1.1821   -0.4770    0.0000 C   0  0  0  0  0  0  0  0  0  0  0  0
    0.3982   -1.5554    0.0000 C   0  0  0  0  0  0  0  0  0  0  0  0
    0.3982   -0.7383    0.0000 C   0  0  0  0  0  0  0  0  0  0  0  0
    2.4929   -1.1490    0.0000 C   0  0  0  0  0  0  0  0  0  0  0  0
    4.1354   -2.5924    0.0000 N   0  0  0  0  0  0  0  0  0  0  0  0
    2.9035   -1.8707    0.0000 C   0  0  0  0  0  0  0  0  0  0  0  0
    4.9567   -2.5924    0.0000 C   0  0  0  0  0  0  0  0  0  0  0  0
    5.3756   -1.8831    0.0000 C   0  0  0  0  0  0  0  0  0  0  0  0
    3.7248   -1.8707    0.0000 C   0  0  0  0  0  0  0  0  0  0  0  0
    1.3605    0.3193    0.0000 C   0  0  0  0  0  0  0  0  0  0  0  0
    1.3481   -2.6173    0.0000 C   0  0  0  0  0  0  0  0  0  0  0  0
   -0.2198   -2.1029    0.0000 C   0  0  0  0  0  0  0  0  0  0  0  0
   -0.2074   -0.1784    0.0000 C   0  0  0  0  0  0  0  0  0  0  0  0
    2.4887   -2.5800    0.0000 O   0  0  0  0  0  0  0  0  0  0  0  0
    6.2093   -1.8831    0.0000 C   0  0  0  0  0  0  0  0  0  0  0  0
    4.9649   -1.1697    0.0000 C   0  0  0  0  0  0  0  0  0  0  0  0
    5.3756   -3.3141    0.0000 C   0  0  0  0  0  0  0  0  0  0  0  0
   -0.0456   -2.9118    0.0000 C   0  0  0  0  0  0  0  0  0  0  0  0
   -0.0331    0.6222    0.0000 C   0  0  0  0  0  0  0  0  0  0  0  0
    0.7259   -3.1648    0.0000 C   0  0  0  0  0  0  0  0  0  0  0  0
    0.7508    0.8669    0.0000 C   0  0  0  0  0  0  0  0  0  0  0  0
    6.6117   -1.1697    0.0000 C   0  0  0  0  0  0  0  0  0  0  0  0
    5.3798   -0.4521    0.0000 C   0  0  0  0  0  0  0  0  0  0  0  0
    6.2093   -0.4521    0.0000 C   0  0  0  0  0  0  0  0  0  0  0  0
    9.7511   -0.6378    0.0000 C   0  0  0  0  0  0  0  0  0  0  0  0
    9.4507    0.1310    0.0000 O   0  0  0  0  0  0  0  0  0  0  0  0
    9.2343   -1.2812    0.0000 C   0  0  0  0  0  0  0  0  0  0  0  0
   10.5614   -0.7571    0.0000 O   0  0  0  0  0  0  0  0  0  0  0  0
    8.4171   -1.1557    0.0000 C   0  0  0  0  0  0  0  0  0  0  0  0
    9.5307   -2.0515    0.0000 C   0  0  0  0  0  0  0  0  0  0  0  0
    7.8987   -1.7951    0.0000 C   0  0  0  0  0  0  0  0  0  0  0  0
    9.0101   -2.6964    0.0000 C   0  0  0  0  0  0  0  0  0  0  0  0
    8.1953   -2.5655    0.0000 C   0  0  0  0  0  0  0  0  0  0  0  0
 11  8  1  0  0  0  0
 12  3  1  0  0  0  0
 13  2  1  0  0  0  0
 14  4  1  0  0  0  0
 15  5  1  0  0  0  0
 16  8  1  0  0  0  0
 17 10  1  0  0  0  0
 18 10  2  0  0  0  0
 19  9  1  0  0  0  0
 20 22  1  0  0  0  0
 21 23  1  0  0  0  0
 22 13  2  0  0  0  0
 23 12  2  0  0  0  0
 24 17  2  0  0  0  0
 25 18  1  0  0  0  0
 26 25  2  0  0  0  0
  4  5  1  0  0  0  0
 15 21  2  0  0  0  0
 14 20  2  0  0  0  0
 24 26  1  0  0  0  0
  2  1  1  0  0  0  0
  3  1  1  0  0  0  0
  4  2  2  0  0  0  0
  5  3  2  0  0  0  0
  6  1  1  0  0  0  0
  7 11  1  0  0  0  0
  8  6  1  0  0  0  0
  9  7  1  0  0  0  0
 10  9  1  0  0  0  0
 28 27  2  0  0  0  0
 29 27  1  0  0  0  0
 30 27  1  0  0  0  0
 31 29  2  0  0  0  0
 32 29  1  0  0  0  0
 33 31  1  0  0  0  0
 34 32  2  0  0  0  0
 35 34  1  0  0  0  0
 35 33  2  0  0  0  0
M  END
>  <IDNUMBER>
F1345-0291

>  <Chemical_Name>
1-(9H-carbazol-9-yl)-3-[(1-phenylethyl)amino]propan-2-ol; benzoic acid

>  <PriceCoeff>
1.00

>  <CAS>
479542-50-2

>  <MW>
344.45

>  <Description>
solid

>  <FSP3>
0.22

>  <clogP>
4.92

>  <TPSA>
37.19

>  <Acceptor>
1

>  <Donor>
2

>  <RotBonds>
6

>  <HAC>
26

>  <Collection>
General

$$$$
F1345-0315
  Mrv2219 10102508112D          

 32 35  0  0  0  0            999 V2000
    1.5604   -0.1785    0.0000 N   0  0  0  0  0  0  0  0  0  0  0  0
    0.7761    0.0830    0.0000 C   0  0  0  0  0  0  0  0  0  0  0  0
    2.0335    0.4814    0.0000 C   0  0  0  0  0  0  0  0  0  0  0  0
    0.7761    0.9047    0.0000 C   0  0  0  0  0  0  0  0  0  0  0  0
    1.5604    1.1454    0.0000 C   0  0  0  0  0  0  0  0  0  0  0  0
    1.8219   -0.9711    0.0000 C   0  0  0  0  0  0  0  0  0  0  0  0
    3.6769   -2.0584    0.0000 N   0  0  0  0  0  0  0  0  0  0  0  0
    2.6187   -1.1454    0.0000 C   0  0  0  0  0  0  0  0  0  0  0  0
    2.8801   -1.9090    0.0000 C   0  0  0  0  0  0  0  0  0  0  0  0
    5.3037   -2.3779    0.0000 O   0  0  0  0  0  0  0  0  0  0  0  0
    3.1665   -0.5271    0.0000 O   0  0  0  0  0  0  0  0  0  0  0  0
    2.8386    0.5685    0.0000 C   0  0  0  0  0  0  0  0  0  0  0  0
    0.0540   -0.3403    0.0000 C   0  0  0  0  0  0  0  0  0  0  0  0
    0.0540    1.3031    0.0000 C   0  0  0  0  0  0  0  0  0  0  0  0
    1.8924    1.9007    0.0000 C   0  0  0  0  0  0  0  0  0  0  0  0
    3.9259   -2.8428    0.0000 C   0  0  0  0  0  0  0  0  0  0  0  0
    4.2123   -1.4359    0.0000 C   0  0  0  0  0  0  0  0  0  0  0  0
    4.7352   -3.0046    0.0000 C   0  0  0  0  0  0  0  0  0  0  0  0
    5.0340   -1.5936    0.0000 C   0  0  0  0  0  0  0  0  0  0  0  0
   -0.6557    0.9047    0.0000 C   0  0  0  0  0  0  0  0  0  0  0  0
    2.7058    1.9878    0.0000 C   0  0  0  0  0  0  0  0  0  0  0  0
   -0.6557    0.0830    0.0000 C   0  0  0  0  0  0  0  0  0  0  0  0
    3.1872    1.3031    0.0000 C   0  0  0  0  0  0  0  0  0  0  0  0
    8.5734    0.0798    0.0000 C   0  0  0  0  0  0  0  0  0  0  0  0
    8.2728    0.8490    0.0000 O   0  0  0  0  0  0  0  0  0  0  0  0
    8.0563   -0.5639    0.0000 C   0  0  0  0  0  0  0  0  0  0  0  0
    9.3842   -0.0395    0.0000 O   0  0  0  0  0  0  0  0  0  0  0  0
    7.2387   -0.4383    0.0000 C   0  0  0  0  0  0  0  0  0  0  0  0
    8.3529   -1.3346    0.0000 C   0  0  0  0  0  0  0  0  0  0  0  0
    6.7201   -1.0782    0.0000 C   0  0  0  0  0  0  0  0  0  0  0  0
    7.8320   -1.9798    0.0000 C   0  0  0  0  0  0  0  0  0  0  0  0
    7.0168   -1.8490    0.0000 C   0  0  0  0  0  0  0  0  0  0  0  0
 11  8  1  0  0  0  0
 12  3  1  0  0  0  0
 13  2  1  0  0  0  0
 14  4  1  0  0  0  0
 15  5  1  0  0  0  0
 16  7  1  0  0  0  0
 17  7  1  0  0  0  0
 18 16  1  0  0  0  0
 19 17  1  0  0  0  0
 20 22  1  0  0  0  0
 21 23  1  0  0  0  0
 22 13  2  0  0  0  0
 23 12  2  0  0  0  0
  4  5  1  0  0  0  0
 15 21  2  0  0  0  0
 14 20  2  0  0  0  0
 18 10  1  0  0  0  0
  2  1  1  0  0  0  0
  3  1  1  0  0  0  0
  4  2  2  0  0  0  0
  5  3  2  0  0  0  0
  6  1  1  0  0  0  0
  7  9  1  0  0  0  0
  8  6  1  0  0  0  0
  9  8  1  0  0  0  0
 10 19  1  0  0  0  0
 25 24  2  0  0  0  0
 26 24  1  0  0  0  0
 27 24  1  0  0  0  0
 28 26  2  0  0  0  0
 29 26  1  0  0  0  0
 30 28  1  0  0  0  0
 31 29  2  0  0  0  0
 32 31  1  0  0  0  0
 32 30  2  0  0  0  0
M  END
>  <IDNUMBER>
F1345-0315

>  <Chemical_Name>
1-(9H-carbazol-9-yl)-3-(morpholin-4-yl)propan-2-ol; benzoic acid

>  <PriceCoeff>
1.00

>  <CAS>
479542-48-8

>  <MW>
310.39

>  <Description>
solid

>  <FSP3>
0.37

>  <clogP>
3.29

>  <TPSA>
37.63

>  <Acceptor>
2

>  <Donor>
2

>  <RotBonds>
4

>  <HAC>
23

>  <Collection>
General

$$$$
F1345-0583
  Mrv2219 10102508112D          

 29 30  0  0  0  0            999 V2000
    2.5130   -0.0913    0.0000 N   0  0  0  0  0  0  0  0  0  0  0  0
    1.0948   -0.0913    0.0000 O   0  0  0  0  0  0  0  0  0  0  0  0
    0.3856   -0.5142    0.0000 C   0  0  0  0  0  0  0  0  0  0  0  0
    2.5130    0.7298    0.0000 C   0  0  0  0  0  0  0  0  0  0  0  0
    0.3856   -1.3602    0.0000 C   0  0  0  0  0  0  0  0  0  0  0  0
    1.1239   -2.6125    0.0000 C   0  0  0  0  0  0  0  0  0  0  0  0
    1.8329   -3.0230    0.0000 C   0  0  0  0  0  0  0  0  0  0  0  0
    1.8039    1.1279    0.0000 C   0  0  0  0  0  0  0  0  0  0  0  0
    1.0948    0.7298    0.0000 C   0  0  0  0  0  0  0  0  0  0  0  0
    1.8039    1.9738    0.0000 O   0  0  0  0  0  0  0  0  0  0  0  0
    1.1114   -1.7832    0.0000 C   0  0  0  0  0  0  0  0  0  0  0  0
    1.8039   -0.5018    0.0000 C   0  0  0  0  0  0  0  0  0  0  0  0
    3.2263   -0.5142    0.0000 C   0  0  0  0  0  0  0  0  0  0  0  0
   -0.3234   -0.1161    0.0000 C   0  0  0  0  0  0  0  0  0  0  0  0
   -0.3234   -1.7583    0.0000 C   0  0  0  0  0  0  0  0  0  0  0  0
    1.8039   -1.3353    0.0000 C   0  0  0  0  0  0  0  0  0  0  0  0
    3.2263   -1.3602    0.0000 C   0  0  0  0  0  0  0  0  0  0  0  0
   -1.0409   -0.5391    0.0000 C   0  0  0  0  0  0  0  0  0  0  0  0
   -1.0409   -1.3602    0.0000 C   0  0  0  0  0  0  0  0  0  0  0  0
    2.5130   -1.7458    0.0000 C   0  0  0  0  0  0  0  0  0  0  0  0
    6.3649    0.1170    0.0000 C   0  0  0  0  0  0  0  0  0  0  0  0
    6.0646    0.8857    0.0000 O   0  0  0  0  0  0  0  0  0  0  0  0
    5.8482   -0.5261    0.0000 C   0  0  0  0  0  0  0  0  0  0  0  0
    7.1751   -0.0022    0.0000 O   0  0  0  0  0  0  0  0  0  0  0  0
    5.0312   -0.4007    0.0000 C   0  0  0  0  0  0  0  0  0  0  0  0
    6.1446   -1.2963    0.0000 C   0  0  0  0  0  0  0  0  0  0  0  0
    4.5130   -1.0401    0.0000 C   0  0  0  0  0  0  0  0  0  0  0  0
    5.6241   -1.9410    0.0000 C   0  0  0  0  0  0  0  0  0  0  0  0
    4.8095   -1.8102    0.0000 C   0  0  0  0  0  0  0  0  0  0  0  0
 11  5  1  0  0  0  0
 12  1  1  0  0  0  0
 13  1  1  0  0  0  0
 14  3  1  0  0  0  0
 15  5  1  0  0  0  0
 16 12  1  0  0  0  0
 17 13  1  0  0  0  0
 18 14  2  0  0  0  0
 19 18  1  0  0  0  0
 20 17  1  0  0  0  0
 16 20  1  0  0  0  0
 15 19  2  0  0  0  0
  2  9  1  0  0  0  0
  3  2  1  0  0  0  0
  4  1  1  0  0  0  0
  5  3  2  0  0  0  0
  6 11  1  0  0  0  0
  7  6  2  0  0  0  0
  8  4  1  0  0  0  0
  9  8  1  0  0  0  0
 10  8  1  0  0  0  0
 22 21  2  0  0  0  0
 23 21  1  0  0  0  0
 24 21  1  0  0  0  0
 25 23  2  0  0  0  0
 26 23  1  0  0  0  0
 27 25  1  0  0  0  0
 28 26  2  0  0  0  0
 29 28  1  0  0  0  0
 29 27  2  0  0  0  0
M  END
>  <IDNUMBER>
F1345-0583

>  <Chemical_Name>
1-(piperidin-1-yl)-3-[2-(prop-2-en-1-yl)phenoxy]propan-2-ol; benzoic acid

>  <PriceCoeff>
1.50

>  <CAS>
483966-93-4

>  <MW>
275.39

>  <Description>
solid

>  <FSP3>
0.53

>  <clogP>
3.61

>  <TPSA>
32.70

>  <Acceptor>
2

>  <Donor>
2

>  <RotBonds>
7

>  <HAC>
20

>  <Collection>
Advanced

$$$$
F1358-0042
  Mrv2219 10102508112D          

 25 27  0  0  0  0            999 V2000
   -3.2406    1.5849    0.0000 C   0  0  0  0  0  0  0  0  0  0  0  0
   -3.4944    2.3712    0.0000 C   0  0  0  0  0  0  0  0  0  0  0  0
    0.8403   -0.5116    0.0000 N   0  0  0  0  0  0  0  0  0  0  0  0
   -2.4585    1.3312    0.0000 N   0  0  0  0  0  0  0  0  0  0  0  0
   -2.2921    0.5241    0.0000 C   0  0  0  0  0  0  0  0  0  0  0  0
    1.1274   -1.2730    0.0000 C   0  0  0  0  0  0  0  0  0  0  0  0
    1.4976    0.0000    0.0000 C   0  0  0  0  0  0  0  0  0  0  0  0
   -3.0160    3.0410    0.0000 C   0  0  0  0  0  0  0  0  0  0  0  0
   -3.9063    1.1065    0.0000 S   0  0  0  0  0  0  0  0  0  0  0  0
    0.0624   -0.2538    0.0000 C   0  0  0  0  0  0  0  0  0  0  0  0
   -4.3263    2.3712    0.0000 C   0  0  0  0  0  0  0  0  0  0  0  0
   -4.5760    1.5849    0.0000 C   0  0  0  0  0  0  0  0  0  0  0  0
   -1.5059    0.2704    0.0000 C   0  0  0  0  0  0  0  0  0  0  0  0
   -2.8954   -0.0250    0.0000 O   0  0  0  0  0  0  0  0  0  0  0  0
    1.9511   -1.2398    0.0000 C   0  0  0  0  0  0  0  0  0  0  0  0
    2.1758   -0.4617    0.0000 C   0  0  0  0  0  0  0  0  0  0  0  0
    0.6739   -1.9636    0.0000 O   0  0  0  0  0  0  0  0  0  0  0  0
    1.4643    0.8444    0.0000 O   0  0  0  0  0  0  0  0  0  0  0  0
   -2.1923    2.9536    0.0000 O   0  0  0  0  0  0  0  0  0  0  0  0
   -0.0999    0.5699    0.0000 C   0  0  0  0  0  0  0  0  0  0  0  0
   -0.5491   -0.7904    0.0000 C   0  0  0  0  0  0  0  0  0  0  0  0
   -1.3354   -0.5283    0.0000 C   0  0  0  0  0  0  0  0  0  0  0  0
   -0.8861    0.8237    0.0000 C   0  0  0  0  0  0  0  0  0  0  0  0
   -3.3529    3.7939    0.0000 O   0  0  0  0  0  0  0  0  0  0  0  0
   -4.1683    3.8771    0.0000 C   0  0  0  0  0  0  0  0  0  0  0  0
  2  1  2  0  0  0  0
  3 10  1  0  0  0  0
  4  1  1  0  0  0  0
  5  4  1  0  0  0  0
  6  3  1  0  0  0  0
  7  3  1  0  0  0  0
  8  2  1  0  0  0  0
  9  1  1  0  0  0  0
 10 20  1  0  0  0  0
 11  2  1  0  0  0  0
 12  9  1  0  0  0  0
 13  5  1  0  0  0  0
 14  5  2  0  0  0  0
 15  6  1  0  0  0  0
 16  7  1  0  0  0  0
 17  6  2  0  0  0  0
 18  7  2  0  0  0  0
 19  8  2  0  0  0  0
 20 23  2  0  0  0  0
 21 22  1  0  0  0  0
 22 13  2  0  0  0  0
 23 13  1  0  0  0  0
 24  8  1  0  0  0  0
 25 24  1  0  0  0  0
 12 11  2  0  0  0  0
 10 21  2  0  0  0  0
 16 15  1  0  0  0  0
M  END
>  <IDNUMBER>
F1358-0042

>  <Chemical_Name>
methyl 2-[4-(2,5-dioxopyrrolidin-1-yl)benzamido]thiophene-3-carboxylate

>  <PriceCoeff>
1.00

>  <CAS>
921054-23-1

>  <MW>
358.37

>  <Description>
solid

>  <FSP3>
0.18

>  <clogP>
0.96

>  <TPSA>
121.02

>  <Acceptor>
5

>  <Donor>
1

>  <RotBonds>
5

>  <HAC>
25

>  <Collection>
General

>  <PPDS>
+

$$$$
F1358-0095
  Mrv2219 10102508112D          

 20 21  0  0  0  0            999 V2000
   -2.7333   -0.8404    0.0000 N   0  0  0  0  0  0  0  0  0  0  0  0
   -3.2408    1.5851    0.0000 C   0  0  0  0  0  0  0  0  0  0  0  0
   -3.4946    2.3713    0.0000 C   0  0  0  0  0  0  0  0  0  0  0  0
   -2.4587    1.3312    0.0000 N   0  0  0  0  0  0  0  0  0  0  0  0
   -3.2907   -1.4478    0.0000 C   0  0  0  0  0  0  0  0  0  0  0  0
   -1.9802   -1.1649    0.0000 C   0  0  0  0  0  0  0  0  0  0  0  0
   -3.0162    3.0411    0.0000 C   0  0  0  0  0  0  0  0  0  0  0  0
   -2.2923    0.5242    0.0000 C   0  0  0  0  0  0  0  0  0  0  0  0
   -3.9065    1.1066    0.0000 S   0  0  0  0  0  0  0  0  0  0  0  0
   -2.9080   -0.0292    0.0000 C   0  0  0  0  0  0  0  0  0  0  0  0
   -4.3266    2.3713    0.0000 C   0  0  0  0  0  0  0  0  0  0  0  0
   -4.5762    1.5851    0.0000 C   0  0  0  0  0  0  0  0  0  0  0  0
   -2.0676   -1.9886    0.0000 C   0  0  0  0  0  0  0  0  0  0  0  0
   -2.8664   -2.1634    0.0000 C   0  0  0  0  0  0  0  0  0  0  0  0
   -1.2688   -0.7613    0.0000 O   0  0  0  0  0  0  0  0  0  0  0  0
   -4.1020   -1.3646    0.0000 O   0  0  0  0  0  0  0  0  0  0  0  0
   -2.1924    2.9537    0.0000 O   0  0  0  0  0  0  0  0  0  0  0  0
   -1.5102    0.2704    0.0000 O   0  0  0  0  0  0  0  0  0  0  0  0
   -3.3531    3.7942    0.0000 O   0  0  0  0  0  0  0  0  0  0  0  0
   -4.1686    3.8773    0.0000 C   0  0  0  0  0  0  0  0  0  0  0  0
  2  4  1  0  0  0  0
  3  2  2  0  0  0  0
  4  8  1  0  0  0  0
  5  1  1  0  0  0  0
  6  1  1  0  0  0  0
  7  3  1  0  0  0  0
  8 10  1  0  0  0  0
  9  2  1  0  0  0  0
 10  1  1  0  0  0  0
 11  3  1  0  0  0  0
 12  9  1  0  0  0  0
 13  6  1  0  0  0  0
 14  5  1  0  0  0  0
 15  6  2  0  0  0  0
 16  5  2  0  0  0  0
 17  7  2  0  0  0  0
 18  8  2  0  0  0  0
 19  7  1  0  0  0  0
 20 19  1  0  0  0  0
 14 13  1  0  0  0  0
 12 11  2  0  0  0  0
M  END
>  <IDNUMBER>
F1358-0095

>  <Chemical_Name>
methyl 2-[2-(2,5-dioxopyrrolidin-1-yl)acetamido]thiophene-3-carboxylate

>  <PriceCoeff>
1.00

>  <MW>
296.30

>  <Description>
solid

>  <FSP3>
0.33

>  <clogP>
0.78

>  <TPSA>
121.02

>  <Acceptor>
5

>  <Donor>
1

>  <RotBonds>
5

>  <HAC>
20

>  <Collection>
General

$$$$
F1358-0173
  Mrv2219 10102508112D          

 26 28  0  0  0  0            999 V2000
   -3.2406    1.5849    0.0000 C   0  0  0  0  0  0  0  0  0  0  0  0
   -3.4944    2.3712    0.0000 C   0  0  0  0  0  0  0  0  0  0  0  0
    0.8403   -0.5116    0.0000 N   0  0  0  0  0  0  0  0  0  0  0  0
   -2.4585    1.3312    0.0000 N   0  0  0  0  0  0  0  0  0  0  0  0
   -2.2921    0.5241    0.0000 C   0  0  0  0  0  0  0  0  0  0  0  0
    1.1274   -1.2730    0.0000 C   0  0  0  0  0  0  0  0  0  0  0  0
    1.4976    0.0000    0.0000 C   0  0  0  0  0  0  0  0  0  0  0  0
   -3.0160    3.0410    0.0000 C   0  0  0  0  0  0  0  0  0  0  0  0
   -3.9063    1.1065    0.0000 S   0  0  0  0  0  0  0  0  0  0  0  0
    0.0624   -0.2538    0.0000 C   0  0  0  0  0  0  0  0  0  0  0  0
   -4.3263    2.3712    0.0000 C   0  0  0  0  0  0  0  0  0  0  0  0
   -4.5760    1.5849    0.0000 C   0  0  0  0  0  0  0  0  0  0  0  0
   -1.5059    0.2704    0.0000 C   0  0  0  0  0  0  0  0  0  0  0  0
   -2.8954   -0.0250    0.0000 O   0  0  0  0  0  0  0  0  0  0  0  0
    1.9511   -1.2398    0.0000 C   0  0  0  0  0  0  0  0  0  0  0  0
    2.1758   -0.4617    0.0000 C   0  0  0  0  0  0  0  0  0  0  0  0
    0.6739   -1.9636    0.0000 O   0  0  0  0  0  0  0  0  0  0  0  0
    1.4643    0.8444    0.0000 O   0  0  0  0  0  0  0  0  0  0  0  0
   -2.1923    2.9536    0.0000 O   0  0  0  0  0  0  0  0  0  0  0  0
   -0.0999    0.5699    0.0000 C   0  0  0  0  0  0  0  0  0  0  0  0
   -0.5491   -0.7904    0.0000 C   0  0  0  0  0  0  0  0  0  0  0  0
   -1.3354   -0.5283    0.0000 C   0  0  0  0  0  0  0  0  0  0  0  0
   -0.8861    0.8237    0.0000 C   0  0  0  0  0  0  0  0  0  0  0  0
   -3.3529    3.7939    0.0000 O   0  0  0  0  0  0  0  0  0  0  0  0
   -4.1766    3.8771    0.0000 C   0  0  0  0  0  0  0  0  0  0  0  0
   -4.6551    3.2156    0.0000 C   0  0  0  0  0  0  0  0  0  0  0  0
  2  1  2  0  0  0  0
  3 10  1  0  0  0  0
  4  1  1  0  0  0  0
  5  4  1  0  0  0  0
  6  3  1  0  0  0  0
  7  3  1  0  0  0  0
  8  2  1  0  0  0  0
  9  1  1  0  0  0  0
 10 20  1  0  0  0  0
 11  2  1  0  0  0  0
 12  9  1  0  0  0  0
 13  5  1  0  0  0  0
 14  5  2  0  0  0  0
 15  6  1  0  0  0  0
 16  7  1  0  0  0  0
 17  6  2  0  0  0  0
 18  7  2  0  0  0  0
 19  8  2  0  0  0  0
 20 23  2  0  0  0  0
 21 22  1  0  0  0  0
 22 13  2  0  0  0  0
 23 13  1  0  0  0  0
 24  8  1  0  0  0  0
 25 24  1  0  0  0  0
 26 25  1  0  0  0  0
 12 11  2  0  0  0  0
 10 21  2  0  0  0  0
 16 15  1  0  0  0  0
M  END
>  <IDNUMBER>
F1358-0173

>  <Chemical_Name>
ethyl 2-[4-(2,5-dioxopyrrolidin-1-yl)benzamido]thiophene-3-carboxylate

>  <PriceCoeff>
1.00

>  <CAS>
921140-92-3

>  <MW>
372.40

>  <Description>
solid

>  <FSP3>
0.22

>  <clogP>
1.49

>  <TPSA>
121.02

>  <Acceptor>
5

>  <Donor>
1

>  <RotBonds>
6

>  <HAC>
26

>  <Collection>
General

>  <PPDS>
+

$$$$
F1359-0108
  Mrv2219 10102508112D          

 25 27  0  0  0  0            999 V2000
   -1.1648    2.3879    0.0000 C   0  0  0  0  0  0  0  0  0  0  0  0
    1.3193    3.8157    0.0000 N   0  0  0  0  0  0  0  0  0  0  0  0
   -1.6490    1.7241    0.0000 N   0  0  0  0  0  0  0  0  0  0  0  0
   -0.3381    2.3796    0.0000 N   0  0  0  0  0  0  0  0  0  0  0  0
   -1.6490    3.0559    0.0000 S   0  0  0  0  0  0  0  0  0  0  0  0
   -2.4381    2.8013    0.0000 C   0  0  0  0  0  0  0  0  0  0  0  0
   -2.4381    1.9746    0.0000 C   0  0  0  0  0  0  0  0  0  0  0  0
    2.1333    3.8908    0.0000 C   0  0  0  0  0  0  0  0  0  0  0  0
    0.9811    4.5506    0.0000 C   0  0  0  0  0  0  0  0  0  0  0  0
    0.0751    3.0935    0.0000 C   0  0  0  0  0  0  0  0  0  0  0  0
    0.9018    3.0935    0.0000 C   0  0  0  0  0  0  0  0  0  0  0  0
   -3.1519    1.5613    0.0000 C   0  0  0  0  0  0  0  0  0  0  0  0
   -3.1519    3.2145    0.0000 C   0  0  0  0  0  0  0  0  0  0  0  0
    1.5948    5.1016    0.0000 C   0  0  0  0  0  0  0  0  0  0  0  0
    2.3170    4.7008    0.0000 C   0  0  0  0  0  0  0  0  0  0  0  0
    0.1795    4.7384    0.0000 O   0  0  0  0  0  0  0  0  0  0  0  0
    2.6928    3.2772    0.0000 O   0  0  0  0  0  0  0  0  0  0  0  0
   -0.3381    3.8074    0.0000 O   0  0  0  0  0  0  0  0  0  0  0  0
   -1.3985    0.9352    0.0000 C   0  0  0  0  0  0  0  0  0  0  0  0
   -3.8658    1.9746    0.0000 C   0  0  0  0  0  0  0  0  0  0  0  0
   -3.8658    2.8013    0.0000 C   0  0  0  0  0  0  0  0  0  0  0  0
   -2.7554    0.4884    0.0000 O   0  0  0  0  0  0  0  0  0  0  0  0
   -1.9496    0.3214    0.0000 C   0  0  0  0  0  0  0  0  0  0  0  0
   -4.5922    3.2188    0.0000 C   0  0  0  0  0  0  0  0  0  0  0  0
   -3.3147   -0.1252    0.0000 C   0  0  0  0  0  0  0  0  0  0  0  0
  2 11  1  0  0  0  0
  3  1  1  0  0  0  0
  4  1  2  0  0  0  0
  5  1  1  0  0  0  0
  6  5  1  0  0  0  0
  7  3  1  0  0  0  0
  8  2  1  0  0  0  0
  9  2  1  0  0  0  0
 10  4  1  0  0  0  0
 11 10  1  0  0  0  0
 12  7  1  0  0  0  0
 13  6  1  0  0  0  0
 14  9  1  0  0  0  0
 15  8  1  0  0  0  0
 16  9  2  0  0  0  0
 17  8  2  0  0  0  0
 18 10  2  0  0  0  0
 19  3  1  0  0  0  0
 20 12  2  0  0  0  0
 21 13  2  0  0  0  0
 22 23  1  0  0  0  0
 23 19  1  0  0  0  0
 24 21  1  0  0  0  0
 25 22  1  0  0  0  0
  7  6  2  0  0  0  0
 20 21  1  0  0  0  0
 15 14  1  0  0  0  0
M  END
>  <IDNUMBER>
F1359-0108

>  <Chemical_Name>
2-(2,5-dioxopyrrolidin-1-yl)-N-[(2Z)-3-(2-methoxyethyl)-6-methyl-2,3-dihydro-1,3-benzothiazol-2-ylidene]acetamide

>  <PriceCoeff>
1.00

>  <CAS>
864975-05-3

>  <MW>
361.42

>  <Description>
solid

>  <FSP3>
0.41

>  <clogP>
3.04

>  <TPSA>
104.58

>  <Acceptor>
4

>  <Donor>
0

>  <RotBonds>
6

>  <HAC>
25

>  <Collection>
General

>  <PPDS>
+

$$$$
F1359-0180
  Mrv2219 10102508112D          

 34 37  0  0  0  0            999 V2000
   -1.1648    2.3880    0.0000 C   0  0  0  0  0  0  0  0  0  0  0  0
   -0.3382    2.3797    0.0000 N   0  0  0  0  0  0  0  0  0  0  0  0
   -1.6491    1.7242    0.0000 N   0  0  0  0  0  0  0  0  0  0  0  0
    3.3859    3.0769    0.0000 N   0  0  0  0  0  0  0  0  0  0  0  0
   -1.6491    3.0560    0.0000 S   0  0  0  0  0  0  0  0  0  0  0  0
   -2.4381    2.8013    0.0000 C   0  0  0  0  0  0  0  0  0  0  0  0
   -2.4381    1.9747    0.0000 C   0  0  0  0  0  0  0  0  0  0  0  0
    0.0751    3.0936    0.0000 C   0  0  0  0  0  0  0  0  0  0  0  0
    3.8576    3.7657    0.0000 C   0  0  0  0  0  0  0  0  0  0  0  0
    3.8994    2.4298    0.0000 C   0  0  0  0  0  0  0  0  0  0  0  0
   -4.5924    3.2189    0.0000 C   0  0  0  0  0  0  0  0  0  0  0  0
   -3.1520    3.2146    0.0000 C   0  0  0  0  0  0  0  0  0  0  0  0
   -3.8659    2.8013    0.0000 C   0  0  0  0  0  0  0  0  0  0  0  0
    2.5593    3.0894    0.0000 C   0  0  0  0  0  0  0  0  0  0  0  0
   -3.1520    1.5614    0.0000 C   0  0  0  0  0  0  0  0  0  0  0  0
    0.9018    3.0936    0.0000 C   0  0  0  0  0  0  0  0  0  0  0  0
   -0.3382    3.8075    0.0000 O   0  0  0  0  0  0  0  0  0  0  0  0
    4.6509    3.5320    0.0000 C   0  0  0  0  0  0  0  0  0  0  0  0
    4.6759    2.7137    0.0000 C   0  0  0  0  0  0  0  0  0  0  0  0
    3.5738    4.5507    0.0000 O   0  0  0  0  0  0  0  0  0  0  0  0
    3.6740    1.6365    0.0000 O   0  0  0  0  0  0  0  0  0  0  0  0
   -3.8659    1.9747    0.0000 C   0  0  0  0  0  0  0  0  0  0  0  0
   -5.3063    2.8055    0.0000 O   0  0  0  0  0  0  0  0  0  0  0  0
    2.1459    3.8075    0.0000 C   0  0  0  0  0  0  0  0  0  0  0  0
    2.1334    2.3755    0.0000 C   0  0  0  0  0  0  0  0  0  0  0  0
    1.3151    2.3880    0.0000 C   0  0  0  0  0  0  0  0  0  0  0  0
    1.3276    3.8158    0.0000 C   0  0  0  0  0  0  0  0  0  0  0  0
   -1.3986    0.9351    0.0000 C   0  0  0  0  0  0  0  0  0  0  0  0
   -4.5798    4.0372    0.0000 O   0  0  0  0  0  0  0  0  0  0  0  0
   -2.7554    0.4885    0.0000 O   0  0  0  0  0  0  0  0  0  0  0  0
   -1.9496    0.3214    0.0000 C   0  0  0  0  0  0  0  0  0  0  0  0
   -5.3063    4.4630    0.0000 C   0  0  0  0  0  0  0  0  0  0  0  0
   -3.3148   -0.1252    0.0000 C   0  0  0  0  0  0  0  0  0  0  0  0
   -5.2980    5.2854    0.0000 C   0  0  0  0  0  0  0  0  0  0  0  0
  2  1  2  0  0  0  0
  3  1  1  0  0  0  0
  4 14  1  0  0  0  0
  5  1  1  0  0  0  0
  6  5  1  0  0  0  0
  7  3  1  0  0  0  0
  8  2  1  0  0  0  0
  9  4  1  0  0  0  0
 10  4  1  0  0  0  0
 11 13  1  0  0  0  0
 12  6  1  0  0  0  0
 13 12  2  0  0  0  0
 14 24  1  0  0  0  0
 15  7  1  0  0  0  0
 16  8  1  0  0  0  0
 17  8  2  0  0  0  0
 18  9  1  0  0  0  0
 19 10  1  0  0  0  0
 20  9  2  0  0  0  0
 21 10  2  0  0  0  0
 22 15  2  0  0  0  0
 23 11  2  0  0  0  0
 24 27  2  0  0  0  0
 25 26  1  0  0  0  0
 26 16  2  0  0  0  0
 27 16  1  0  0  0  0
 28  3  1  0  0  0  0
 29 11  1  0  0  0  0
 30 31  1  0  0  0  0
 31 28  1  0  0  0  0
 32 29  1  0  0  0  0
 33 30  1  0  0  0  0
 34 32  1  0  0  0  0
  7  6  2  0  0  0  0
 22 13  1  0  0  0  0
 14 25  2  0  0  0  0
 18 19  1  0  0  0  0
M  END
>  <IDNUMBER>
F1359-0180

>  <Chemical_Name>
ethyl (2Z)-2-{[4-(2,5-dioxopyrrolidin-1-yl)benzoyl]imino}-3-(2-methoxyethyl)-2,3-dihydro-1,3-benzothiazole-6-carboxylate

>  <PriceCoeff>
1.00

>  <CAS>
864975-14-4

>  <MW>
481.52

>  <Description>
solid

>  <FSP3>
0.29

>  <clogP>
3.12

>  <TPSA>
130.88

>  <Acceptor>
6

>  <Donor>
0

>  <RotBonds>
9

>  <HAC>
34

>  <Collection>
General

>  <PPDS>
+

$$$$
F1359-0198
  Mrv2219 10102508112D          

 34 37  0  0  0  0            999 V2000
   -1.1625    2.3833    0.0000 C   0  0  0  0  0  0  0  0  0  0  0  0
   -0.3375    2.3750    0.0000 N   0  0  0  0  0  0  0  0  0  0  0  0
    2.5542    1.6500    0.0000 N   0  0  0  0  0  0  0  0  0  0  0  0
   -1.6458    1.7208    0.0000 N   0  0  0  0  0  0  0  0  0  0  0  0
   -1.6458    3.0500    0.0000 S   0  0  0  0  0  0  0  0  0  0  0  0
   -2.4333    2.7958    0.0000 C   0  0  0  0  0  0  0  0  0  0  0  0
   -2.4333    1.9708    0.0000 C   0  0  0  0  0  0  0  0  0  0  0  0
    0.0750    3.0875    0.0000 C   0  0  0  0  0  0  0  0  0  0  0  0
    2.1292    2.3708    0.0000 C   0  0  0  0  0  0  0  0  0  0  0  0
    3.3667    1.5333    0.0000 C   0  0  0  0  0  0  0  0  0  0  0  0
    2.1750    0.9125    0.0000 C   0  0  0  0  0  0  0  0  0  0  0  0
   -4.5833    3.2125    0.0000 C   0  0  0  0  0  0  0  0  0  0  0  0
   -3.1458    3.2083    0.0000 C   0  0  0  0  0  0  0  0  0  0  0  0
   -3.8583    2.7958    0.0000 C   0  0  0  0  0  0  0  0  0  0  0  0
    1.3125    2.3750    0.0000 C   0  0  0  0  0  0  0  0  0  0  0  0
    0.9000    3.0875    0.0000 C   0  0  0  0  0  0  0  0  0  0  0  0
   -3.1458    1.5583    0.0000 C   0  0  0  0  0  0  0  0  0  0  0  0
   -0.3375    3.8000    0.0000 O   0  0  0  0  0  0  0  0  0  0  0  0
    3.5042    0.7125    0.0000 C   0  0  0  0  0  0  0  0  0  0  0  0
    2.7792    0.3250    0.0000 C   0  0  0  0  0  0  0  0  0  0  0  0
    3.9500    2.1083    0.0000 O   0  0  0  0  0  0  0  0  0  0  0  0
    1.3667    0.7833    0.0000 O   0  0  0  0  0  0  0  0  0  0  0  0
   -3.8583    1.9708    0.0000 C   0  0  0  0  0  0  0  0  0  0  0  0
   -5.2958    2.8000    0.0000 O   0  0  0  0  0  0  0  0  0  0  0  0
   -1.3958    0.9333    0.0000 C   0  0  0  0  0  0  0  0  0  0  0  0
   -4.5708    4.0292    0.0000 O   0  0  0  0  0  0  0  0  0  0  0  0
    2.5542    3.0833    0.0000 C   0  0  0  0  0  0  0  0  0  0  0  0
    1.3167    3.8083    0.0000 C   0  0  0  0  0  0  0  0  0  0  0  0
    2.1417    3.8000    0.0000 C   0  0  0  0  0  0  0  0  0  0  0  0
   -2.7500    0.4875    0.0000 O   0  0  0  0  0  0  0  0  0  0  0  0
   -1.9458    0.3208    0.0000 C   0  0  0  0  0  0  0  0  0  0  0  0
   -5.2958    4.4542    0.0000 C   0  0  0  0  0  0  0  0  0  0  0  0
   -3.3083   -0.1250    0.0000 C   0  0  0  0  0  0  0  0  0  0  0  0
   -5.2875    5.2750    0.0000 C   0  0  0  0  0  0  0  0  0  0  0  0
  2  1  2  0  0  0  0
  3  9  1  0  0  0  0
  4  1  1  0  0  0  0
  5  1  1  0  0  0  0
  6  5  1  0  0  0  0
  7  4  1  0  0  0  0
  8  2  1  0  0  0  0
  9 15  1  0  0  0  0
 10  3  1  0  0  0  0
 11  3  1  0  0  0  0
 12 14  1  0  0  0  0
 13  6  1  0  0  0  0
 14 13  2  0  0  0  0
 15 16  2  0  0  0  0
 16  8  1  0  0  0  0
 17  7  1  0  0  0  0
 18  8  2  0  0  0  0
 19 10  1  0  0  0  0
 20 11  1  0  0  0  0
 21 10  2  0  0  0  0
 22 11  2  0  0  0  0
 23 17  2  0  0  0  0
 24 12  2  0  0  0  0
 25  4  1  0  0  0  0
 26 12  1  0  0  0  0
 27 29  1  0  0  0  0
 28 16  1  0  0  0  0
 29 28  2  0  0  0  0
 30 31  1  0  0  0  0
 31 25  1  0  0  0  0
 32 26  1  0  0  0  0
 33 30  1  0  0  0  0
 34 32  1  0  0  0  0
  7  6  2  0  0  0  0
 23 14  1  0  0  0  0
  9 27  2  0  0  0  0
 19 20  1  0  0  0  0
M  END
>  <IDNUMBER>
F1359-0198

>  <Chemical_Name>
ethyl (2Z)-2-{[3-(2,5-dioxopyrrolidin-1-yl)benzoyl]imino}-3-(2-methoxyethyl)-2,3-dihydro-1,3-benzothiazole-6-carboxylate

>  <PriceCoeff>
1.00

>  <CAS>
864975-16-6

>  <MW>
481.52

>  <Description>
solid

>  <FSP3>
0.29

>  <clogP>
3.12

>  <TPSA>
130.88

>  <Acceptor>
6

>  <Donor>
0

>  <RotBonds>
9

>  <HAC>
34

>  <Collection>
General

>  <PPDS>
+

$$$$
F1359-0312
  Mrv2219 10102508112D          

 33 36  0  0  0  0            999 V2000
   -1.1629    2.3841    0.0000 C   0  0  0  0  0  0  0  0  0  0  0  0
   -0.3376    2.3758    0.0000 N   0  0  0  0  0  0  0  0  0  0  0  0
   -1.6464    1.7214    0.0000 N   0  0  0  0  0  0  0  0  0  0  0  0
    3.3803    3.0718    0.0000 N   0  0  0  0  0  0  0  0  0  0  0  0
   -1.6464    3.0510    0.0000 S   0  0  0  0  0  0  0  0  0  0  0  0
   -2.4341    2.7967    0.0000 C   0  0  0  0  0  0  0  0  0  0  0  0
   -2.4341    1.9715    0.0000 C   0  0  0  0  0  0  0  0  0  0  0  0
    0.0750    3.0885    0.0000 C   0  0  0  0  0  0  0  0  0  0  0  0
    3.8513    3.7596    0.0000 C   0  0  0  0  0  0  0  0  0  0  0  0
    3.8930    2.4258    0.0000 C   0  0  0  0  0  0  0  0  0  0  0  0
   -4.5848    3.2136    0.0000 C   0  0  0  0  0  0  0  0  0  0  0  0
   -3.1469    3.2094    0.0000 C   0  0  0  0  0  0  0  0  0  0  0  0
   -3.8596    2.7967    0.0000 C   0  0  0  0  0  0  0  0  0  0  0  0
    2.5551    3.0843    0.0000 C   0  0  0  0  0  0  0  0  0  0  0  0
   -3.1469    1.5588    0.0000 C   0  0  0  0  0  0  0  0  0  0  0  0
    0.9003    3.0885    0.0000 C   0  0  0  0  0  0  0  0  0  0  0  0
   -0.3376    3.8013    0.0000 O   0  0  0  0  0  0  0  0  0  0  0  0
    4.6433    3.5262    0.0000 C   0  0  0  0  0  0  0  0  0  0  0  0
    4.6683    2.7092    0.0000 C   0  0  0  0  0  0  0  0  0  0  0  0
    3.5679    4.5432    0.0000 O   0  0  0  0  0  0  0  0  0  0  0  0
    3.6679    1.6338    0.0000 O   0  0  0  0  0  0  0  0  0  0  0  0
   -3.8596    1.9715    0.0000 C   0  0  0  0  0  0  0  0  0  0  0  0
   -5.2893    2.8009    0.0000 O   0  0  0  0  0  0  0  0  0  0  0  0
    2.1424    3.8013    0.0000 C   0  0  0  0  0  0  0  0  0  0  0  0
    2.1299    2.3716    0.0000 C   0  0  0  0  0  0  0  0  0  0  0  0
    1.3129    2.3841    0.0000 C   0  0  0  0  0  0  0  0  0  0  0  0
    1.3254    3.8096    0.0000 C   0  0  0  0  0  0  0  0  0  0  0  0
   -1.3963    0.9336    0.0000 C   0  0  0  0  0  0  0  0  0  0  0  0
   -4.5723    4.0305    0.0000 O   0  0  0  0  0  0  0  0  0  0  0  0
   -2.7509    0.4877    0.0000 O   0  0  0  0  0  0  0  0  0  0  0  0
   -1.9465    0.3209    0.0000 C   0  0  0  0  0  0  0  0  0  0  0  0
   -5.2893    4.4432    0.0000 C   0  0  0  0  0  0  0  0  0  0  0  0
   -3.3094   -0.1250    0.0000 C   0  0  0  0  0  0  0  0  0  0  0  0
  2  1  2  0  0  0  0
  3  1  1  0  0  0  0
  4 14  1  0  0  0  0
  5  1  1  0  0  0  0
  6  5  1  0  0  0  0
  7  3  1  0  0  0  0
  8  2  1  0  0  0  0
  9  4  1  0  0  0  0
 10  4  1  0  0  0  0
 11 13  1  0  0  0  0
 12  6  1  0  0  0  0
 13 12  2  0  0  0  0
 14 24  1  0  0  0  0
 15  7  1  0  0  0  0
 16  8  1  0  0  0  0
 17  8  2  0  0  0  0
 18  9  1  0  0  0  0
 19 10  1  0  0  0  0
 20  9  2  0  0  0  0
 21 10  2  0  0  0  0
 22 15  2  0  0  0  0
 23 11  2  0  0  0  0
 24 27  2  0  0  0  0
 25 26  1  0  0  0  0
 26 16  2  0  0  0  0
 27 16  1  0  0  0  0
 28  3  1  0  0  0  0
 29 11  1  0  0  0  0
 30 31  1  0  0  0  0
 31 28  1  0  0  0  0
 32 29  1  0  0  0  0
 33 30  1  0  0  0  0
  7  6  2  0  0  0  0
 22 13  1  0  0  0  0
 14 25  2  0  0  0  0
 18 19  1  0  0  0  0
M  END
>  <IDNUMBER>
F1359-0312

>  <Chemical_Name>
methyl (2Z)-2-{[4-(2,5-dioxopyrrolidin-1-yl)benzoyl]imino}-3-(2-methoxyethyl)-2,3-dihydro-1,3-benzothiazole-6-carboxylate

>  <PriceCoeff>
1.00

>  <CAS>
864975-31-5

>  <MW>
467.49

>  <Description>
solid

>  <FSP3>
0.26

>  <clogP>
2.59

>  <TPSA>
130.88

>  <Acceptor>
6

>  <Donor>
0

>  <RotBonds>
8

>  <HAC>
33

>  <Collection>
General

>  <PPDS>
+

$$$$
F1359-0372
  Mrv2219 10102508112D          

 28 30  0  0  0  0            999 V2000
   -1.1648    2.3880    0.0000 C   0  0  0  0  0  0  0  0  0  0  0  0
    1.3193    3.8158    0.0000 N   0  0  0  0  0  0  0  0  0  0  0  0
   -1.6491    1.7242    0.0000 N   0  0  0  0  0  0  0  0  0  0  0  0
   -0.3382    2.3797    0.0000 N   0  0  0  0  0  0  0  0  0  0  0  0
   -1.6491    3.0560    0.0000 S   0  0  0  0  0  0  0  0  0  0  0  0
   -2.4381    2.8013    0.0000 C   0  0  0  0  0  0  0  0  0  0  0  0
   -2.4381    1.9747    0.0000 C   0  0  0  0  0  0  0  0  0  0  0  0
    2.1334    3.8910    0.0000 C   0  0  0  0  0  0  0  0  0  0  0  0
    0.9811    4.5507    0.0000 C   0  0  0  0  0  0  0  0  0  0  0  0
    0.0751    3.0936    0.0000 C   0  0  0  0  0  0  0  0  0  0  0  0
    0.9018    3.0936    0.0000 C   0  0  0  0  0  0  0  0  0  0  0  0
   -4.5924    3.2189    0.0000 C   0  0  0  0  0  0  0  0  0  0  0  0
   -3.1520    3.2146    0.0000 C   0  0  0  0  0  0  0  0  0  0  0  0
   -3.8659    2.8013    0.0000 C   0  0  0  0  0  0  0  0  0  0  0  0
   -3.1520    1.5614    0.0000 C   0  0  0  0  0  0  0  0  0  0  0  0
    1.5948    5.1018    0.0000 C   0  0  0  0  0  0  0  0  0  0  0  0
    2.3171    4.7010    0.0000 C   0  0  0  0  0  0  0  0  0  0  0  0
    0.1796    4.7386    0.0000 O   0  0  0  0  0  0  0  0  0  0  0  0
    2.6928    3.2773    0.0000 O   0  0  0  0  0  0  0  0  0  0  0  0
   -3.8659    1.9747    0.0000 C   0  0  0  0  0  0  0  0  0  0  0  0
   -0.3382    3.8075    0.0000 O   0  0  0  0  0  0  0  0  0  0  0  0
   -5.2980    2.8055    0.0000 O   0  0  0  0  0  0  0  0  0  0  0  0
   -1.3986    0.9351    0.0000 C   0  0  0  0  0  0  0  0  0  0  0  0
   -4.5798    4.0372    0.0000 O   0  0  0  0  0  0  0  0  0  0  0  0
   -2.7554    0.4885    0.0000 O   0  0  0  0  0  0  0  0  0  0  0  0
   -1.9496    0.3214    0.0000 C   0  0  0  0  0  0  0  0  0  0  0  0
   -5.2980    4.4505    0.0000 C   0  0  0  0  0  0  0  0  0  0  0  0
   -3.3148   -0.1252    0.0000 C   0  0  0  0  0  0  0  0  0  0  0  0
  2 11  1  0  0  0  0
  3  1  1  0  0  0  0
  4  1  2  0  0  0  0
  5  1  1  0  0  0  0
  6  5  1  0  0  0  0
  7  3  1  0  0  0  0
  8  2  1  0  0  0  0
  9  2  1  0  0  0  0
 10  4  1  0  0  0  0
 11 10  1  0  0  0  0
 12 14  1  0  0  0  0
 13  6  1  0  0  0  0
 14 13  2  0  0  0  0
 15  7  1  0  0  0  0
 16  9  1  0  0  0  0
 17  8  1  0  0  0  0
 18  9  2  0  0  0  0
 19  8  2  0  0  0  0
 20 15  2  0  0  0  0
 21 10  2  0  0  0  0
 22 12  2  0  0  0  0
 23  3  1  0  0  0  0
 24 12  1  0  0  0  0
 25 26  1  0  0  0  0
 26 23  1  0  0  0  0
 27 24  1  0  0  0  0
 28 25  1  0  0  0  0
  7  6  2  0  0  0  0
 20 14  1  0  0  0  0
 17 16  1  0  0  0  0
M  END
>  <IDNUMBER>
F1359-0372

>  <Chemical_Name>
methyl (2Z)-2-{[2-(2,5-dioxopyrrolidin-1-yl)acetyl]imino}-3-(2-methoxyethyl)-2,3-dihydro-1,3-benzothiazole-6-carboxylate

>  <PriceCoeff>
1.00

>  <CAS>
864975-43-9

>  <MW>
405.42

>  <Description>
solid

>  <FSP3>
0.39

>  <clogP>
2.51

>  <TPSA>
130.88

>  <Acceptor>
6

>  <Donor>
0

>  <RotBonds>
8

>  <HAC>
28

>  <Collection>
General

>  <PPDS>
+

$$$$
F1359-0444
  Mrv2219 10102508112D          

 30 33  0  0  0  0            999 V2000
   -1.1640    2.3863    0.0000 C   0  0  0  0  0  0  0  0  0  0  0  0
   -0.3379    2.3780    0.0000 N   0  0  0  0  0  0  0  0  0  0  0  0
   -1.6479    1.7230    0.0000 N   0  0  0  0  0  0  0  0  0  0  0  0
    3.3835    3.0747    0.0000 N   0  0  0  0  0  0  0  0  0  0  0  0
   -1.6479    3.0539    0.0000 S   0  0  0  0  0  0  0  0  0  0  0  0
    0.0751    3.0914    0.0000 C   0  0  0  0  0  0  0  0  0  0  0  0
   -2.4364    1.9733    0.0000 C   0  0  0  0  0  0  0  0  0  0  0  0
    3.8549    3.7631    0.0000 C   0  0  0  0  0  0  0  0  0  0  0  0
    3.8967    2.4281    0.0000 C   0  0  0  0  0  0  0  0  0  0  0  0
   -2.4364    2.7994    0.0000 C   0  0  0  0  0  0  0  0  0  0  0  0
    2.5575    3.0872    0.0000 C   0  0  0  0  0  0  0  0  0  0  0  0
    0.9011    3.0914    0.0000 C   0  0  0  0  0  0  0  0  0  0  0  0
   -0.3379    3.8049    0.0000 O   0  0  0  0  0  0  0  0  0  0  0  0
    4.6476    3.5295    0.0000 C   0  0  0  0  0  0  0  0  0  0  0  0
    4.6727    2.7118    0.0000 C   0  0  0  0  0  0  0  0  0  0  0  0
    3.5713    4.5475    0.0000 O   0  0  0  0  0  0  0  0  0  0  0  0
    3.6714    1.6354    0.0000 O   0  0  0  0  0  0  0  0  0  0  0  0
    2.1444    3.8049    0.0000 C   0  0  0  0  0  0  0  0  0  0  0  0
    2.1319    2.3738    0.0000 C   0  0  0  0  0  0  0  0  0  0  0  0
    1.3142    2.3863    0.0000 C   0  0  0  0  0  0  0  0  0  0  0  0
    1.3267    3.8132    0.0000 C   0  0  0  0  0  0  0  0  0  0  0  0
   -1.3976    0.9345    0.0000 C   0  0  0  0  0  0  0  0  0  0  0  0
   -3.1498    1.5603    0.0000 C   0  0  0  0  0  0  0  0  0  0  0  0
   -3.1498    3.2124    0.0000 C   0  0  0  0  0  0  0  0  0  0  0  0
   -2.7535    0.4881    0.0000 O   0  0  0  0  0  0  0  0  0  0  0  0
   -1.9483    0.3212    0.0000 C   0  0  0  0  0  0  0  0  0  0  0  0
   -3.3125   -0.1252    0.0000 C   0  0  0  0  0  0  0  0  0  0  0  0
   -3.8632    1.9733    0.0000 C   0  0  0  0  0  0  0  0  0  0  0  0
   -3.8632    2.7994    0.0000 C   0  0  0  0  0  0  0  0  0  0  0  0
   -4.5892    3.2166    0.0000 H   0  0  0  0  0  0  0  0  0  0  0  0
  2  1  2  0  0  0  0
  3  1  1  0  0  0  0
  4 11  1  0  0  0  0
  5  1  1  0  0  0  0
  6  2  1  0  0  0  0
  7  3  1  0  0  0  0
  8  4  1  0  0  0  0
  9  4  1  0  0  0  0
 10  5  1  0  0  0  0
 11 18  1  0  0  0  0
 12  6  1  0  0  0  0
 13  6  2  0  0  0  0
 14  8  1  0  0  0  0
 15  9  1  0  0  0  0
 16  8  2  0  0  0  0
 17  9  2  0  0  0  0
 18 21  2  0  0  0  0
 19 20  1  0  0  0  0
 20 12  2  0  0  0  0
 21 12  1  0  0  0  0
 22  3  1  0  0  0  0
 23  7  1  0  0  0  0
 24 10  1  0  0  0  0
 25 26  1  0  0  0  0
 26 22  1  0  0  0  0
 27 25  1  0  0  0  0
 28 23  2  0  0  0  0
 29 24  2  0  0  0  0
 30 29  1  0  0  0  0
  7 10  2  0  0  0  0
 28 29  1  0  0  0  0
 11 19  2  0  0  0  0
 14 15  1  0  0  0  0
M  END
>  <IDNUMBER>
F1359-0444

>  <Chemical_Name>
4-(2,5-dioxopyrrolidin-1-yl)-N-[(2Z)-3-(2-methoxyethyl)-2,3-dihydro-1,3-benzothiazol-2-ylidene]benzamide

>  <PriceCoeff>
1.00

>  <CAS>
864975-56-4

>  <MW>
409.46

>  <Description>
solid

>  <FSP3>
0.24

>  <clogP>
2.62

>  <TPSA>
104.58

>  <Acceptor>
4

>  <Donor>
0

>  <RotBonds>
6

>  <HAC>
29

>  <Collection>
General

>  <PPDS>
+

$$$$
F1359-0708
  Mrv2219 10102508112D          

 30 33  0  0  0  0            999 V2000
   -1.1640    2.3863    0.0000 C   0  0  0  0  0  0  0  0  0  0  0  0
   -0.3379    2.3780    0.0000 N   0  0  0  0  0  0  0  0  0  0  0  0
   -1.6479    1.7230    0.0000 N   0  0  0  0  0  0  0  0  0  0  0  0
    3.3835    3.0747    0.0000 N   0  0  0  0  0  0  0  0  0  0  0  0
   -1.6479    3.0539    0.0000 S   0  0  0  0  0  0  0  0  0  0  0  0
   -2.4364    2.7994    0.0000 C   0  0  0  0  0  0  0  0  0  0  0  0
   -2.4364    1.9733    0.0000 C   0  0  0  0  0  0  0  0  0  0  0  0
    0.0751    3.0914    0.0000 C   0  0  0  0  0  0  0  0  0  0  0  0
    3.8549    3.7631    0.0000 C   0  0  0  0  0  0  0  0  0  0  0  0
    3.8967    2.4281    0.0000 C   0  0  0  0  0  0  0  0  0  0  0  0
   -3.1498    3.2124    0.0000 C   0  0  0  0  0  0  0  0  0  0  0  0
    2.5575    3.0872    0.0000 C   0  0  0  0  0  0  0  0  0  0  0  0
   -3.1498    1.5603    0.0000 C   0  0  0  0  0  0  0  0  0  0  0  0
    0.9011    3.0914    0.0000 C   0  0  0  0  0  0  0  0  0  0  0  0
   -0.3379    3.8049    0.0000 O   0  0  0  0  0  0  0  0  0  0  0  0
    4.6476    3.5295    0.0000 C   0  0  0  0  0  0  0  0  0  0  0  0
    4.6727    2.7118    0.0000 C   0  0  0  0  0  0  0  0  0  0  0  0
    3.5713    4.5475    0.0000 O   0  0  0  0  0  0  0  0  0  0  0  0
    3.6714    1.6354    0.0000 O   0  0  0  0  0  0  0  0  0  0  0  0
    2.1444    3.8049    0.0000 C   0  0  0  0  0  0  0  0  0  0  0  0
    2.1319    2.3738    0.0000 C   0  0  0  0  0  0  0  0  0  0  0  0
    1.3142    2.3863    0.0000 C   0  0  0  0  0  0  0  0  0  0  0  0
    1.3267    3.8132    0.0000 C   0  0  0  0  0  0  0  0  0  0  0  0
   -3.8632    2.7994    0.0000 C   0  0  0  0  0  0  0  0  0  0  0  0
   -1.3976    0.9345    0.0000 C   0  0  0  0  0  0  0  0  0  0  0  0
   -3.8632    1.9733    0.0000 C   0  0  0  0  0  0  0  0  0  0  0  0
   -4.5892    3.2166    0.0000 Br  0  0  0  0  0  0  0  0  0  0  0  0
   -2.7535    0.4881    0.0000 O   0  0  0  0  0  0  0  0  0  0  0  0
   -1.9483    0.3212    0.0000 C   0  0  0  0  0  0  0  0  0  0  0  0
   -3.3125   -0.1252    0.0000 C   0  0  0  0  0  0  0  0  0  0  0  0
  2  1  2  0  0  0  0
  3  1  1  0  0  0  0
  4 12  1  0  0  0  0
  5  1  1  0  0  0  0
  6  5  1  0  0  0  0
  7  3  1  0  0  0  0
  8  2  1  0  0  0  0
  9  4  1  0  0  0  0
 10  4  1  0  0  0  0
 11  6  1  0  0  0  0
 12 20  1  0  0  0  0
 13  7  1  0  0  0  0
 14  8  1  0  0  0  0
 15  8  2  0  0  0  0
 16  9  1  0  0  0  0
 17 10  1  0  0  0  0
 18  9  2  0  0  0  0
 19 10  2  0  0  0  0
 20 23  2  0  0  0  0
 21 22  1  0  0  0  0
 22 14  2  0  0  0  0
 23 14  1  0  0  0  0
 24 11  2  0  0  0  0
 25  3  1  0  0  0  0
 26 13  2  0  0  0  0
 27 24  1  0  0  0  0
 28 29  1  0  0  0  0
 29 25  1  0  0  0  0
 30 28  1  0  0  0  0
  7  6  2  0  0  0  0
 26 24  1  0  0  0  0
 12 21  2  0  0  0  0
 16 17  1  0  0  0  0
M  END
>  <IDNUMBER>
F1359-0708

>  <Chemical_Name>
N-[(2Z)-6-bromo-3-(2-methoxyethyl)-2,3-dihydro-1,3-benzothiazol-2-ylidene]-4-(2,5-dioxopyrrolidin-1-yl)benzamide

>  <PriceCoeff>
1.00

>  <CAS>
864976-05-6

>  <MW>
488.35

>  <Description>
solid

>  <FSP3>
0.24

>  <clogP>
3.48

>  <TPSA>
104.58

>  <Acceptor>
4

>  <Donor>
0

>  <RotBonds>
6

>  <HAC>
30

>  <Collection>
General

>  <PPDS>
+

$$$$
F1359-0768
  Mrv2219 10102508112D          

 25 27  0  0  0  0            999 V2000
   -1.1649    2.3882    0.0000 C   0  0  0  0  0  0  0  0  0  0  0  0
    1.3194    3.8162    0.0000 N   0  0  0  0  0  0  0  0  0  0  0  0
   -1.6492    1.7244    0.0000 N   0  0  0  0  0  0  0  0  0  0  0  0
   -0.3382    2.3799    0.0000 N   0  0  0  0  0  0  0  0  0  0  0  0
   -1.6492    3.0563    0.0000 S   0  0  0  0  0  0  0  0  0  0  0  0
   -2.4383    2.8016    0.0000 C   0  0  0  0  0  0  0  0  0  0  0  0
   -2.4383    1.9749    0.0000 C   0  0  0  0  0  0  0  0  0  0  0  0
    2.1336    3.8913    0.0000 C   0  0  0  0  0  0  0  0  0  0  0  0
    0.9812    4.5511    0.0000 C   0  0  0  0  0  0  0  0  0  0  0  0
    0.0752    3.0939    0.0000 C   0  0  0  0  0  0  0  0  0  0  0  0
    0.9019    3.0939    0.0000 C   0  0  0  0  0  0  0  0  0  0  0  0
   -3.1523    3.2149    0.0000 C   0  0  0  0  0  0  0  0  0  0  0  0
   -3.1523    1.5615    0.0000 C   0  0  0  0  0  0  0  0  0  0  0  0
    1.5950    5.1023    0.0000 C   0  0  0  0  0  0  0  0  0  0  0  0
    2.3173    4.7014    0.0000 C   0  0  0  0  0  0  0  0  0  0  0  0
    0.1796    4.7390    0.0000 O   0  0  0  0  0  0  0  0  0  0  0  0
    2.6931    3.2776    0.0000 O   0  0  0  0  0  0  0  0  0  0  0  0
   -0.3382    3.8079    0.0000 O   0  0  0  0  0  0  0  0  0  0  0  0
   -3.8663    2.8016    0.0000 C   0  0  0  0  0  0  0  0  0  0  0  0
   -1.3987    0.9352    0.0000 C   0  0  0  0  0  0  0  0  0  0  0  0
   -3.8663    1.9749    0.0000 C   0  0  0  0  0  0  0  0  0  0  0  0
   -4.5928    3.2192    0.0000 Br  0  0  0  0  0  0  0  0  0  0  0  0
   -2.7557    0.4885    0.0000 O   0  0  0  0  0  0  0  0  0  0  0  0
   -1.9498    0.3215    0.0000 C   0  0  0  0  0  0  0  0  0  0  0  0
   -3.3152   -0.1253    0.0000 C   0  0  0  0  0  0  0  0  0  0  0  0
  2 11  1  0  0  0  0
  3  1  1  0  0  0  0
  4  1  2  0  0  0  0
  5  1  1  0  0  0  0
  6  5  1  0  0  0  0
  7  3  1  0  0  0  0
  8  2  1  0  0  0  0
  9  2  1  0  0  0  0
 10  4  1  0  0  0  0
 11 10  1  0  0  0  0
 12  6  1  0  0  0  0
 13  7  1  0  0  0  0
 14  9  1  0  0  0  0
 15  8  1  0  0  0  0
 16  9  2  0  0  0  0
 17  8  2  0  0  0  0
 18 10  2  0  0  0  0
 19 12  2  0  0  0  0
 20  3  1  0  0  0  0
 21 13  2  0  0  0  0
 22 19  1  0  0  0  0
 23 24  1  0  0  0  0
 24 20  1  0  0  0  0
 25 23  1  0  0  0  0
  7  6  2  0  0  0  0
 21 19  1  0  0  0  0
 15 14  1  0  0  0  0
M  END
>  <IDNUMBER>
F1359-0768

>  <Chemical_Name>
N-[(2Z)-6-bromo-3-(2-methoxyethyl)-2,3-dihydro-1,3-benzothiazol-2-ylidene]-2-(2,5-dioxopyrrolidin-1-yl)acetamide

>  <PriceCoeff>
1.00

>  <CAS>
864976-23-8

>  <MW>
426.28

>  <Description>
solid

>  <FSP3>
0.38

>  <clogP>
3.40

>  <TPSA>
104.58

>  <Acceptor>
4

>  <Donor>
0

>  <RotBonds>
6

>  <HAC>
25

>  <Collection>
General

>  <PPDS>
+

$$$$
F1359-1104
  Mrv2219 10102508112D          

 33 36  0  0  0  0            999 V2000
   -1.1648    2.3879    0.0000 C   0  0  0  0  0  0  0  0  0  0  0  0
   -0.3381    2.3796    0.0000 N   0  0  0  0  0  0  0  0  0  0  0  0
   -1.6490    1.7241    0.0000 N   0  0  0  0  0  0  0  0  0  0  0  0
    3.3858    3.0768    0.0000 N   0  0  0  0  0  0  0  0  0  0  0  0
   -1.6490    3.0559    0.0000 S   0  0  0  0  0  0  0  0  0  0  0  0
   -4.5922    3.2188    0.0000 S   0  0  0  0  0  0  0  0  0  0  0  0
   -2.4381    2.8013    0.0000 C   0  0  0  0  0  0  0  0  0  0  0  0
   -2.4381    1.9746    0.0000 C   0  0  0  0  0  0  0  0  0  0  0  0
    0.0751    3.0935    0.0000 C   0  0  0  0  0  0  0  0  0  0  0  0
    3.8575    3.7656    0.0000 C   0  0  0  0  0  0  0  0  0  0  0  0
    3.8992    2.4298    0.0000 C   0  0  0  0  0  0  0  0  0  0  0  0
   -3.8658    2.8013    0.0000 C   0  0  0  0  0  0  0  0  0  0  0  0
   -3.1519    3.2145    0.0000 C   0  0  0  0  0  0  0  0  0  0  0  0
    2.5592    3.0893    0.0000 C   0  0  0  0  0  0  0  0  0  0  0  0
   -3.1519    1.5613    0.0000 C   0  0  0  0  0  0  0  0  0  0  0  0
    0.9018    3.0935    0.0000 C   0  0  0  0  0  0  0  0  0  0  0  0
   -5.0306    2.5132    0.0000 O   0  0  0  0  0  0  0  0  0  0  0  0
   -4.1539    3.9159    0.0000 O   0  0  0  0  0  0  0  0  0  0  0  0
   -0.3381    3.8074    0.0000 O   0  0  0  0  0  0  0  0  0  0  0  0
    4.6507    3.5318    0.0000 C   0  0  0  0  0  0  0  0  0  0  0  0
    4.6758    2.7136    0.0000 C   0  0  0  0  0  0  0  0  0  0  0  0
   -3.8658    1.9746    0.0000 C   0  0  0  0  0  0  0  0  0  0  0  0
    3.5736    4.5506    0.0000 O   0  0  0  0  0  0  0  0  0  0  0  0
    3.6738    1.6365    0.0000 O   0  0  0  0  0  0  0  0  0  0  0  0
    2.1458    3.8074    0.0000 C   0  0  0  0  0  0  0  0  0  0  0  0
    2.1333    2.3754    0.0000 C   0  0  0  0  0  0  0  0  0  0  0  0
    1.3151    2.3879    0.0000 C   0  0  0  0  0  0  0  0  0  0  0  0
    1.3276    3.8157    0.0000 C   0  0  0  0  0  0  0  0  0  0  0  0
   -1.3985    0.9352    0.0000 C   0  0  0  0  0  0  0  0  0  0  0  0
   -5.2936    3.6529    0.0000 C   0  0  0  0  0  0  0  0  0  0  0  0
   -2.7554    0.4884    0.0000 O   0  0  0  0  0  0  0  0  0  0  0  0
   -1.9496    0.3214    0.0000 C   0  0  0  0  0  0  0  0  0  0  0  0
   -3.3147   -0.1252    0.0000 C   0  0  0  0  0  0  0  0  0  0  0  0
  2  1  2  0  0  0  0
  3  1  1  0  0  0  0
  4 14  1  0  0  0  0
  5  1  1  0  0  0  0
  6 12  1  0  0  0  0
  7  5  1  0  0  0  0
  8  3  1  0  0  0  0
  9  2  1  0  0  0  0
 10  4  1  0  0  0  0
 11  4  1  0  0  0  0
 12 13  2  0  0  0  0
 13  7  1  0  0  0  0
 14 25  1  0  0  0  0
 15  8  1  0  0  0  0
 16  9  1  0  0  0  0
 17  6  2  0  0  0  0
 18  6  2  0  0  0  0
 19  9  2  0  0  0  0
 20 10  1  0  0  0  0
 21 11  1  0  0  0  0
 22 15  2  0  0  0  0
 23 10  2  0  0  0  0
 24 11  2  0  0  0  0
 25 28  2  0  0  0  0
 26 27  1  0  0  0  0
 27 16  2  0  0  0  0
 28 16  1  0  0  0  0
 29  3  1  0  0  0  0
 30  6  1  0  0  0  0
 31 32  1  0  0  0  0
 32 29  1  0  0  0  0
 33 31  1  0  0  0  0
  8  7  2  0  0  0  0
 22 12  1  0  0  0  0
 14 26  2  0  0  0  0
 20 21  1  0  0  0  0
M  END
>  <IDNUMBER>
F1359-1104

>  <Chemical_Name>
4-(2,5-dioxopyrrolidin-1-yl)-N-[(2Z)-6-methanesulfonyl-3-(2-methoxyethyl)-2,3-dihydro-1,3-benzothiazol-2-ylidene]benzamide

>  <PriceCoeff>
1.00

>  <CAS>
864977-14-0

>  <MW>
487.55

>  <Description>
solid

>  <FSP3>
0.27

>  <clogP>
0.98

>  <TPSA>
147.10

>  <Acceptor>
6

>  <Donor>
0

>  <RotBonds>
7

>  <HAC>
33

>  <Collection>
General

>  <PPDS>
+

$$$$
F1359-1236
  Mrv2219 10102508112D          

 33 36  0  0  0  0            999 V2000
   -1.1648    2.3879    0.0000 C   0  0  0  0  0  0  0  0  0  0  0  0
   -0.3381    2.3796    0.0000 N   0  0  0  0  0  0  0  0  0  0  0  0
   -4.5922    3.2188    0.0000 S   0  0  0  0  0  0  0  0  0  0  0  0
   -1.6490    1.7241    0.0000 N   0  0  0  0  0  0  0  0  0  0  0  0
    3.3858    3.0768    0.0000 N   0  0  0  0  0  0  0  0  0  0  0  0
   -1.6490    3.0559    0.0000 S   0  0  0  0  0  0  0  0  0  0  0  0
   -2.4381    2.8013    0.0000 C   0  0  0  0  0  0  0  0  0  0  0  0
   -2.4381    1.9746    0.0000 C   0  0  0  0  0  0  0  0  0  0  0  0
    0.0751    3.0935    0.0000 C   0  0  0  0  0  0  0  0  0  0  0  0
    3.8575    3.7656    0.0000 C   0  0  0  0  0  0  0  0  0  0  0  0
    3.8992    2.4298    0.0000 C   0  0  0  0  0  0  0  0  0  0  0  0
   -3.8658    2.8013    0.0000 C   0  0  0  0  0  0  0  0  0  0  0  0
   -3.1519    3.2145    0.0000 C   0  0  0  0  0  0  0  0  0  0  0  0
    2.5592    3.0893    0.0000 C   0  0  0  0  0  0  0  0  0  0  0  0
   -3.1519    1.5613    0.0000 C   0  0  0  0  0  0  0  0  0  0  0  0
   -4.1539    3.9159    0.0000 O   0  0  0  0  0  0  0  0  0  0  0  0
   -5.0306    2.5132    0.0000 O   0  0  0  0  0  0  0  0  0  0  0  0
    0.9018    3.0935    0.0000 C   0  0  0  0  0  0  0  0  0  0  0  0
   -5.2936    3.6529    0.0000 N   0  0  0  0  0  0  0  0  0  0  0  0
   -0.3381    3.8074    0.0000 O   0  0  0  0  0  0  0  0  0  0  0  0
   -3.8658    1.9746    0.0000 C   0  0  0  0  0  0  0  0  0  0  0  0
    4.6507    3.5318    0.0000 C   0  0  0  0  0  0  0  0  0  0  0  0
    4.6758    2.7136    0.0000 C   0  0  0  0  0  0  0  0  0  0  0  0
    3.5736    4.5506    0.0000 O   0  0  0  0  0  0  0  0  0  0  0  0
    3.6738    1.6365    0.0000 O   0  0  0  0  0  0  0  0  0  0  0  0
    2.1458    3.8074    0.0000 C   0  0  0  0  0  0  0  0  0  0  0  0
    2.1333    2.3754    0.0000 C   0  0  0  0  0  0  0  0  0  0  0  0
    1.3151    2.3879    0.0000 C   0  0  0  0  0  0  0  0  0  0  0  0
    1.3276    3.8157    0.0000 C   0  0  0  0  0  0  0  0  0  0  0  0
   -1.3985    0.9352    0.0000 C   0  0  0  0  0  0  0  0  0  0  0  0
   -2.7554    0.4884    0.0000 O   0  0  0  0  0  0  0  0  0  0  0  0
   -1.9496    0.3214    0.0000 C   0  0  0  0  0  0  0  0  0  0  0  0
   -3.3147   -0.1252    0.0000 C   0  0  0  0  0  0  0  0  0  0  0  0
  2  1  2  0  0  0  0
  3 12  1  0  0  0  0
  4  1  1  0  0  0  0
  5 14  1  0  0  0  0
  6  1  1  0  0  0  0
  7  6  1  0  0  0  0
  8  4  1  0  0  0  0
  9  2  1  0  0  0  0
 10  5  1  0  0  0  0
 11  5  1  0  0  0  0
 12 13  2  0  0  0  0
 13  7  1  0  0  0  0
 14 26  1  0  0  0  0
 15  8  1  0  0  0  0
 16  3  2  0  0  0  0
 17  3  2  0  0  0  0
 18  9  1  0  0  0  0
 19  3  1  0  0  0  0
 20  9  2  0  0  0  0
 21 15  2  0  0  0  0
 22 10  1  0  0  0  0
 23 11  1  0  0  0  0
 24 10  2  0  0  0  0
 25 11  2  0  0  0  0
 26 29  2  0  0  0  0
 27 28  1  0  0  0  0
 28 18  2  0  0  0  0
 29 18  1  0  0  0  0
 30  4  1  0  0  0  0
 31 32  1  0  0  0  0
 32 30  1  0  0  0  0
 33 31  1  0  0  0  0
  8  7  2  0  0  0  0
 21 12  1  0  0  0  0
 14 27  2  0  0  0  0
 22 23  1  0  0  0  0
M  END
>  <IDNUMBER>
F1359-1236

>  <Chemical_Name>
4-(2,5-dioxopyrrolidin-1-yl)-N-[(2Z)-3-(2-methoxyethyl)-6-sulfamoyl-2,3-dihydro-1,3-benzothiazol-2-ylidene]benzamide

>  <PriceCoeff>
1.00

>  <CAS>
865159-95-1

>  <MW>
488.54

>  <Description>
solid

>  <FSP3>
0.24

>  <clogP>
0.78

>  <TPSA>
173.12

>  <Acceptor>
6

>  <Donor>
1

>  <RotBonds>
7

>  <HAC>
33

>  <Collection>
General

>  <PPDS>
+

$$$$
F1359-1254
  Mrv2219 10102508112D          

 33 36  0  0  0  0            999 V2000
   -1.1625    2.3833    0.0000 C   0  0  0  0  0  0  0  0  0  0  0  0
   -0.3375    2.3750    0.0000 N   0  0  0  0  0  0  0  0  0  0  0  0
   -4.5833    3.2125    0.0000 S   0  0  0  0  0  0  0  0  0  0  0  0
    2.5542    1.6500    0.0000 N   0  0  0  0  0  0  0  0  0  0  0  0
   -1.6458    1.7208    0.0000 N   0  0  0  0  0  0  0  0  0  0  0  0
   -1.6458    3.0500    0.0000 S   0  0  0  0  0  0  0  0  0  0  0  0
   -2.4333    2.7958    0.0000 C   0  0  0  0  0  0  0  0  0  0  0  0
   -2.4333    1.9708    0.0000 C   0  0  0  0  0  0  0  0  0  0  0  0
    0.0750    3.0875    0.0000 C   0  0  0  0  0  0  0  0  0  0  0  0
    2.1292    2.3708    0.0000 C   0  0  0  0  0  0  0  0  0  0  0  0
    3.3667    1.5333    0.0000 C   0  0  0  0  0  0  0  0  0  0  0  0
    2.1750    0.9125    0.0000 C   0  0  0  0  0  0  0  0  0  0  0  0
   -3.8583    2.7958    0.0000 C   0  0  0  0  0  0  0  0  0  0  0  0
   -3.1458    3.2083    0.0000 C   0  0  0  0  0  0  0  0  0  0  0  0
    1.3125    2.3750    0.0000 C   0  0  0  0  0  0  0  0  0  0  0  0
    0.9000    3.0875    0.0000 C   0  0  0  0  0  0  0  0  0  0  0  0
   -3.1458    1.5583    0.0000 C   0  0  0  0  0  0  0  0  0  0  0  0
   -4.1458    3.9083    0.0000 O   0  0  0  0  0  0  0  0  0  0  0  0
   -5.0208    2.5083    0.0000 O   0  0  0  0  0  0  0  0  0  0  0  0
   -5.2833    3.6458    0.0000 N   0  0  0  0  0  0  0  0  0  0  0  0
   -0.3375    3.8000    0.0000 O   0  0  0  0  0  0  0  0  0  0  0  0
   -3.8583    1.9708    0.0000 C   0  0  0  0  0  0  0  0  0  0  0  0
    3.5042    0.7125    0.0000 C   0  0  0  0  0  0  0  0  0  0  0  0
    2.7792    0.3250    0.0000 C   0  0  0  0  0  0  0  0  0  0  0  0
    3.9500    2.1083    0.0000 O   0  0  0  0  0  0  0  0  0  0  0  0
    1.3667    0.7833    0.0000 O   0  0  0  0  0  0  0  0  0  0  0  0
   -1.3958    0.9333    0.0000 C   0  0  0  0  0  0  0  0  0  0  0  0
    2.5542    3.0833    0.0000 C   0  0  0  0  0  0  0  0  0  0  0  0
    1.3167    3.8083    0.0000 C   0  0  0  0  0  0  0  0  0  0  0  0
    2.1417    3.8000    0.0000 C   0  0  0  0  0  0  0  0  0  0  0  0
   -2.7500    0.4875    0.0000 O   0  0  0  0  0  0  0  0  0  0  0  0
   -1.9458    0.3208    0.0000 C   0  0  0  0  0  0  0  0  0  0  0  0
   -3.3083   -0.1250    0.0000 C   0  0  0  0  0  0  0  0  0  0  0  0
  2  1  2  0  0  0  0
  3 13  1  0  0  0  0
  4 10  1  0  0  0  0
  5  1  1  0  0  0  0
  6  1  1  0  0  0  0
  7  6  1  0  0  0  0
  8  5  1  0  0  0  0
  9  2  1  0  0  0  0
 10 15  1  0  0  0  0
 11  4  1  0  0  0  0
 12  4  1  0  0  0  0
 13 14  2  0  0  0  0
 14  7  1  0  0  0  0
 15 16  2  0  0  0  0
 16  9  1  0  0  0  0
 17  8  1  0  0  0  0
 18  3  2  0  0  0  0
 19  3  2  0  0  0  0
 20  3  1  0  0  0  0
 21  9  2  0  0  0  0
 22 17  2  0  0  0  0
 23 11  1  0  0  0  0
 24 12  1  0  0  0  0
 25 11  2  0  0  0  0
 26 12  2  0  0  0  0
 27  5  1  0  0  0  0
 28 30  1  0  0  0  0
 29 16  1  0  0  0  0
 30 29  2  0  0  0  0
 31 32  1  0  0  0  0
 32 27  1  0  0  0  0
 33 31  1  0  0  0  0
  8  7  2  0  0  0  0
 22 13  1  0  0  0  0
 10 28  2  0  0  0  0
 23 24  1  0  0  0  0
M  END
>  <IDNUMBER>
F1359-1254

>  <Chemical_Name>
3-(2,5-dioxopyrrolidin-1-yl)-N-[(2Z)-3-(2-methoxyethyl)-6-sulfamoyl-2,3-dihydro-1,3-benzothiazol-2-ylidene]benzamide

>  <PriceCoeff>
1.00

>  <CAS>
865160-22-1

>  <MW>
488.54

>  <Description>
solid

>  <FSP3>
0.24

>  <clogP>
0.78

>  <TPSA>
173.12

>  <Acceptor>
6

>  <Donor>
1

>  <RotBonds>
7

>  <HAC>
33

>  <Collection>
General

>  <PPDS>
+

$$$$
F1359-1296
  Mrv2219 10102508112D          

 28 30  0  0  0  0            999 V2000
   -1.1649    2.3882    0.0000 C   0  0  0  0  0  0  0  0  0  0  0  0
    1.3194    3.8162    0.0000 N   0  0  0  0  0  0  0  0  0  0  0  0
   -4.5928    3.2192    0.0000 S   0  0  0  0  0  0  0  0  0  0  0  0
   -1.6492    1.7244    0.0000 N   0  0  0  0  0  0  0  0  0  0  0  0
   -0.3382    2.3799    0.0000 N   0  0  0  0  0  0  0  0  0  0  0  0
   -1.6492    3.0563    0.0000 S   0  0  0  0  0  0  0  0  0  0  0  0
   -2.4383    2.8016    0.0000 C   0  0  0  0  0  0  0  0  0  0  0  0
   -2.4383    1.9749    0.0000 C   0  0  0  0  0  0  0  0  0  0  0  0
    2.1336    3.8913    0.0000 C   0  0  0  0  0  0  0  0  0  0  0  0
    0.9812    4.5511    0.0000 C   0  0  0  0  0  0  0  0  0  0  0  0
    0.0752    3.0939    0.0000 C   0  0  0  0  0  0  0  0  0  0  0  0
   -3.8663    2.8016    0.0000 C   0  0  0  0  0  0  0  0  0  0  0  0
   -3.1523    3.2149    0.0000 C   0  0  0  0  0  0  0  0  0  0  0  0
    0.9019    3.0939    0.0000 C   0  0  0  0  0  0  0  0  0  0  0  0
   -3.1523    1.5615    0.0000 C   0  0  0  0  0  0  0  0  0  0  0  0
   -4.1544    3.9164    0.0000 O   0  0  0  0  0  0  0  0  0  0  0  0
   -5.0312    2.5135    0.0000 O   0  0  0  0  0  0  0  0  0  0  0  0
   -5.2942    3.6534    0.0000 N   0  0  0  0  0  0  0  0  0  0  0  0
   -3.8663    1.9749    0.0000 C   0  0  0  0  0  0  0  0  0  0  0  0
    1.5950    5.1023    0.0000 C   0  0  0  0  0  0  0  0  0  0  0  0
    2.3173    4.7014    0.0000 C   0  0  0  0  0  0  0  0  0  0  0  0
    0.1796    4.7390    0.0000 O   0  0  0  0  0  0  0  0  0  0  0  0
    2.6931    3.2776    0.0000 O   0  0  0  0  0  0  0  0  0  0  0  0
   -0.3382    3.8079    0.0000 O   0  0  0  0  0  0  0  0  0  0  0  0
   -1.3987    0.9352    0.0000 C   0  0  0  0  0  0  0  0  0  0  0  0
   -2.7557    0.4885    0.0000 O   0  0  0  0  0  0  0  0  0  0  0  0
   -1.9498    0.3215    0.0000 C   0  0  0  0  0  0  0  0  0  0  0  0
   -3.3152   -0.1253    0.0000 C   0  0  0  0  0  0  0  0  0  0  0  0
  2 14  1  0  0  0  0
  3 12  1  0  0  0  0
  4  1  1  0  0  0  0
  5  1  2  0  0  0  0
  6  1  1  0  0  0  0
  7  6  1  0  0  0  0
  8  4  1  0  0  0  0
  9  2  1  0  0  0  0
 10  2  1  0  0  0  0
 11  5  1  0  0  0  0
 12 13  2  0  0  0  0
 13  7  1  0  0  0  0
 14 11  1  0  0  0  0
 15  8  1  0  0  0  0
 16  3  2  0  0  0  0
 17  3  2  0  0  0  0
 18  3  1  0  0  0  0
 19 15  2  0  0  0  0
 20 10  1  0  0  0  0
 21  9  1  0  0  0  0
 22 10  2  0  0  0  0
 23  9  2  0  0  0  0
 24 11  2  0  0  0  0
 25  4  1  0  0  0  0
 26 27  1  0  0  0  0
 27 25  1  0  0  0  0
 28 26  1  0  0  0  0
  8  7  2  0  0  0  0
 19 12  1  0  0  0  0
 21 20  1  0  0  0  0
M  END
>  <IDNUMBER>
F1359-1296

>  <Chemical_Name>
2-(2,5-dioxopyrrolidin-1-yl)-N-[(2Z)-3-(2-methoxyethyl)-6-sulfamoyl-2,3-dihydro-1,3-benzothiazol-2-ylidene]acetamide

>  <PriceCoeff>
1.00

>  <CAS>
1164566-21-5

>  <MW>
426.47

>  <Description>
solid

>  <FSP3>
0.38

>  <clogP>
0.70

>  <TPSA>
173.12

>  <Acceptor>
6

>  <Donor>
1

>  <RotBonds>
7

>  <HAC>
28

>  <Collection>
General

>  <PPDS>
+

$$$$
F1359-1518
  Mrv2219 10102508112D          

 31 34  0  0  0  0            999 V2000
   -1.1625    2.3833    0.0000 C   0  0  0  0  0  0  0  0  0  0  0  0
   -0.3375    2.3750    0.0000 N   0  0  0  0  0  0  0  0  0  0  0  0
    2.5542    1.6500    0.0000 N   0  0  0  0  0  0  0  0  0  0  0  0
   -1.6458    1.7208    0.0000 N   0  0  0  0  0  0  0  0  0  0  0  0
   -1.6458    3.0500    0.0000 S   0  0  0  0  0  0  0  0  0  0  0  0
   -2.4333    2.7958    0.0000 C   0  0  0  0  0  0  0  0  0  0  0  0
   -2.4333    1.9708    0.0000 C   0  0  0  0  0  0  0  0  0  0  0  0
    0.0750    3.0875    0.0000 C   0  0  0  0  0  0  0  0  0  0  0  0
    2.1292    2.3708    0.0000 C   0  0  0  0  0  0  0  0  0  0  0  0
    3.3667    1.5333    0.0000 C   0  0  0  0  0  0  0  0  0  0  0  0
    2.1750    0.9125    0.0000 C   0  0  0  0  0  0  0  0  0  0  0  0
    1.3125    2.3750    0.0000 C   0  0  0  0  0  0  0  0  0  0  0  0
    0.9000    3.0875    0.0000 C   0  0  0  0  0  0  0  0  0  0  0  0
   -3.1458    3.2083    0.0000 C   0  0  0  0  0  0  0  0  0  0  0  0
   -3.1458    1.5583    0.0000 C   0  0  0  0  0  0  0  0  0  0  0  0
   -0.3375    3.8000    0.0000 O   0  0  0  0  0  0  0  0  0  0  0  0
    3.5042    0.7125    0.0000 C   0  0  0  0  0  0  0  0  0  0  0  0
    2.7792    0.3250    0.0000 C   0  0  0  0  0  0  0  0  0  0  0  0
    3.9500    2.1083    0.0000 O   0  0  0  0  0  0  0  0  0  0  0  0
    1.3667    0.7833    0.0000 O   0  0  0  0  0  0  0  0  0  0  0  0
   -3.8583    2.7958    0.0000 C   0  0  0  0  0  0  0  0  0  0  0  0
   -1.3958    0.9333    0.0000 C   0  0  0  0  0  0  0  0  0  0  0  0
   -3.8583    1.9708    0.0000 C   0  0  0  0  0  0  0  0  0  0  0  0
    2.5542    3.0833    0.0000 C   0  0  0  0  0  0  0  0  0  0  0  0
   -4.5833    3.2125    0.0000 O   0  0  0  0  0  0  0  0  0  0  0  0
    1.3167    3.8083    0.0000 C   0  0  0  0  0  0  0  0  0  0  0  0
    2.1417    3.8000    0.0000 C   0  0  0  0  0  0  0  0  0  0  0  0
   -2.7500    0.4875    0.0000 O   0  0  0  0  0  0  0  0  0  0  0  0
   -1.9458    0.3208    0.0000 C   0  0  0  0  0  0  0  0  0  0  0  0
   -5.2875    2.8000    0.0000 C   0  0  0  0  0  0  0  0  0  0  0  0
   -3.3083   -0.1250    0.0000 C   0  0  0  0  0  0  0  0  0  0  0  0
  2  1  2  0  0  0  0
  3  9  1  0  0  0  0
  4  1  1  0  0  0  0
  5  1  1  0  0  0  0
  6  5  1  0  0  0  0
  7  4  1  0  0  0  0
  8  2  1  0  0  0  0
  9 12  1  0  0  0  0
 10  3  1  0  0  0  0
 11  3  1  0  0  0  0
 12 13  2  0  0  0  0
 13  8  1  0  0  0  0
 14  6  1  0  0  0  0
 15  7  1  0  0  0  0
 16  8  2  0  0  0  0
 17 10  1  0  0  0  0
 18 11  1  0  0  0  0
 19 10  2  0  0  0  0
 20 11  2  0  0  0  0
 21 14  2  0  0  0  0
 22  4  1  0  0  0  0
 23 15  2  0  0  0  0
 24 27  1  0  0  0  0
 25 21  1  0  0  0  0
 26 13  1  0  0  0  0
 27 26  2  0  0  0  0
 28 29  1  0  0  0  0
 29 22  1  0  0  0  0
 30 25  1  0  0  0  0
 31 28  1  0  0  0  0
  7  6  2  0  0  0  0
 23 21  1  0  0  0  0
  9 24  2  0  0  0  0
 17 18  1  0  0  0  0
M  END
>  <IDNUMBER>
F1359-1518

>  <Chemical_Name>
3-(2,5-dioxopyrrolidin-1-yl)-N-[(2Z)-6-methoxy-3-(2-methoxyethyl)-2,3-dihydro-1,3-benzothiazol-2-ylidene]benzamide

>  <PriceCoeff>
1.00

>  <CAS>
865161-48-4

>  <MW>
439.48

>  <Description>
solid

>  <FSP3>
0.27

>  <clogP>
2.54

>  <TPSA>
113.81

>  <Acceptor>
5

>  <Donor>
0

>  <RotBonds>
7

>  <HAC>
31

>  <Collection>
General

>  <PPDS>
+

$$$$
F1359-1560
  Mrv2219 10102508112D          

 26 28  0  0  0  0            999 V2000
   -1.1649    2.3882    0.0000 C   0  0  0  0  0  0  0  0  0  0  0  0
    1.3194    3.8162    0.0000 N   0  0  0  0  0  0  0  0  0  0  0  0
   -1.6492    1.7244    0.0000 N   0  0  0  0  0  0  0  0  0  0  0  0
   -0.3382    2.3799    0.0000 N   0  0  0  0  0  0  0  0  0  0  0  0
   -1.6492    3.0563    0.0000 S   0  0  0  0  0  0  0  0  0  0  0  0
   -2.4383    2.8016    0.0000 C   0  0  0  0  0  0  0  0  0  0  0  0
   -2.4383    1.9749    0.0000 C   0  0  0  0  0  0  0  0  0  0  0  0
    2.1336    3.8913    0.0000 C   0  0  0  0  0  0  0  0  0  0  0  0
    0.9812    4.5511    0.0000 C   0  0  0  0  0  0  0  0  0  0  0  0
    0.0752    3.0939    0.0000 C   0  0  0  0  0  0  0  0  0  0  0  0
    0.9019    3.0939    0.0000 C   0  0  0  0  0  0  0  0  0  0  0  0
   -3.1523    3.2149    0.0000 C   0  0  0  0  0  0  0  0  0  0  0  0
   -3.1523    1.5615    0.0000 C   0  0  0  0  0  0  0  0  0  0  0  0
    1.5950    5.1023    0.0000 C   0  0  0  0  0  0  0  0  0  0  0  0
    2.3173    4.7014    0.0000 C   0  0  0  0  0  0  0  0  0  0  0  0
    0.1796    4.7390    0.0000 O   0  0  0  0  0  0  0  0  0  0  0  0
    2.6931    3.2776    0.0000 O   0  0  0  0  0  0  0  0  0  0  0  0
   -0.3382    3.8079    0.0000 O   0  0  0  0  0  0  0  0  0  0  0  0
   -3.8663    2.8016    0.0000 C   0  0  0  0  0  0  0  0  0  0  0  0
   -1.3987    0.9352    0.0000 C   0  0  0  0  0  0  0  0  0  0  0  0
   -3.8663    1.9749    0.0000 C   0  0  0  0  0  0  0  0  0  0  0  0
   -4.5928    3.2192    0.0000 O   0  0  0  0  0  0  0  0  0  0  0  0
   -2.7557    0.4885    0.0000 O   0  0  0  0  0  0  0  0  0  0  0  0
   -1.9498    0.3215    0.0000 C   0  0  0  0  0  0  0  0  0  0  0  0
   -5.2985    2.8058    0.0000 C   0  0  0  0  0  0  0  0  0  0  0  0
   -3.3152   -0.1253    0.0000 C   0  0  0  0  0  0  0  0  0  0  0  0
  2 11  1  0  0  0  0
  3  1  1  0  0  0  0
  4  1  2  0  0  0  0
  5  1  1  0  0  0  0
  6  5  1  0  0  0  0
  7  3  1  0  0  0  0
  8  2  1  0  0  0  0
  9  2  1  0  0  0  0
 10  4  1  0  0  0  0
 11 10  1  0  0  0  0
 12  6  1  0  0  0  0
 13  7  1  0  0  0  0
 14  9  1  0  0  0  0
 15  8  1  0  0  0  0
 16  9  2  0  0  0  0
 17  8  2  0  0  0  0
 18 10  2  0  0  0  0
 19 12  2  0  0  0  0
 20  3  1  0  0  0  0
 21 13  2  0  0  0  0
 22 19  1  0  0  0  0
 23 24  1  0  0  0  0
 24 20  1  0  0  0  0
 25 22  1  0  0  0  0
 26 23  1  0  0  0  0
  7  6  2  0  0  0  0
 21 19  1  0  0  0  0
 15 14  1  0  0  0  0
M  END
>  <IDNUMBER>
F1359-1560

>  <Chemical_Name>
2-(2,5-dioxopyrrolidin-1-yl)-N-[(2Z)-6-methoxy-3-(2-methoxyethyl)-2,3-dihydro-1,3-benzothiazol-2-ylidene]acetamide

>  <PriceCoeff>
1.00

>  <CAS>
865161-66-6

>  <MW>
377.41

>  <Description>
solid

>  <FSP3>
0.41

>  <clogP>
2.46

>  <TPSA>
113.81

>  <Acceptor>
5

>  <Donor>
0

>  <RotBonds>
7

>  <HAC>
26

>  <Collection>
General

>  <PPDS>
+

$$$$
F1359-1692
  Mrv2219 10102508112D          

 27 29  0  0  0  0            999 V2000
   -1.1648    2.3879    0.0000 C   0  0  0  0  0  0  0  0  0  0  0  0
    1.3193    3.8157    0.0000 N   0  0  0  0  0  0  0  0  0  0  0  0
   -1.6490    1.7241    0.0000 N   0  0  0  0  0  0  0  0  0  0  0  0
   -0.3381    2.3796    0.0000 N   0  0  0  0  0  0  0  0  0  0  0  0
   -1.6490    3.0559    0.0000 S   0  0  0  0  0  0  0  0  0  0  0  0
   -2.4381    2.8013    0.0000 C   0  0  0  0  0  0  0  0  0  0  0  0
   -2.4381    1.9746    0.0000 C   0  0  0  0  0  0  0  0  0  0  0  0
    2.1333    3.8908    0.0000 C   0  0  0  0  0  0  0  0  0  0  0  0
    0.9811    4.5506    0.0000 C   0  0  0  0  0  0  0  0  0  0  0  0
    0.0751    3.0935    0.0000 C   0  0  0  0  0  0  0  0  0  0  0  0
    0.9018    3.0935    0.0000 C   0  0  0  0  0  0  0  0  0  0  0  0
   -3.1519    3.2145    0.0000 C   0  0  0  0  0  0  0  0  0  0  0  0
   -3.1519    1.5613    0.0000 C   0  0  0  0  0  0  0  0  0  0  0  0
    1.5948    5.1016    0.0000 C   0  0  0  0  0  0  0  0  0  0  0  0
    2.3170    4.7008    0.0000 C   0  0  0  0  0  0  0  0  0  0  0  0
    0.1795    4.7384    0.0000 O   0  0  0  0  0  0  0  0  0  0  0  0
    2.6928    3.2772    0.0000 O   0  0  0  0  0  0  0  0  0  0  0  0
   -0.3381    3.8074    0.0000 O   0  0  0  0  0  0  0  0  0  0  0  0
   -3.8658    2.8013    0.0000 C   0  0  0  0  0  0  0  0  0  0  0  0
   -1.3985    0.9352    0.0000 C   0  0  0  0  0  0  0  0  0  0  0  0
   -3.8658    1.9746    0.0000 C   0  0  0  0  0  0  0  0  0  0  0  0
   -4.5922    3.2188    0.0000 O   0  0  0  0  0  0  0  0  0  0  0  0
   -2.7554    0.4884    0.0000 O   0  0  0  0  0  0  0  0  0  0  0  0
   -1.9496    0.3214    0.0000 C   0  0  0  0  0  0  0  0  0  0  0  0
   -5.3061    2.8055    0.0000 C   0  0  0  0  0  0  0  0  0  0  0  0
   -3.3147   -0.1252    0.0000 C   0  0  0  0  0  0  0  0  0  0  0  0
   -5.3061    1.9788    0.0000 C   0  0  0  0  0  0  0  0  0  0  0  0
  2 11  1  0  0  0  0
  3  1  1  0  0  0  0
  4  1  2  0  0  0  0
  5  1  1  0  0  0  0
  6  5  1  0  0  0  0
  7  3  1  0  0  0  0
  8  2  1  0  0  0  0
  9  2  1  0  0  0  0
 10  4  1  0  0  0  0
 11 10  1  0  0  0  0
 12  6  1  0  0  0  0
 13  7  1  0  0  0  0
 14  9  1  0  0  0  0
 15  8  1  0  0  0  0
 16  9  2  0  0  0  0
 17  8  2  0  0  0  0
 18 10  2  0  0  0  0
 19 12  2  0  0  0  0
 20  3  1  0  0  0  0
 21 13  2  0  0  0  0
 22 19  1  0  0  0  0
 23 24  1  0  0  0  0
 24 20  1  0  0  0  0
 25 22  1  0  0  0  0
 26 23  1  0  0  0  0
 27 25  1  0  0  0  0
  7  6  2  0  0  0  0
 21 19  1  0  0  0  0
 15 14  1  0  0  0  0
M  END
>  <IDNUMBER>
F1359-1692

>  <Chemical_Name>
2-(2,5-dioxopyrrolidin-1-yl)-N-[(2Z)-6-ethoxy-3-(2-methoxyethyl)-2,3-dihydro-1,3-benzothiazol-2-ylidene]acetamide

>  <PriceCoeff>
1.00

>  <CAS>
865161-96-2

>  <MW>
391.44

>  <Description>
solid

>  <FSP3>
0.44

>  <clogP>
2.99

>  <TPSA>
113.81

>  <Acceptor>
5

>  <Donor>
0

>  <RotBonds>
8

>  <HAC>
27

>  <Collection>
General

>  <PPDS>
+

$$$$
F1359-1782
  Mrv2219 10102508112D          

 31 34  0  0  0  0            999 V2000
   -1.1625    2.3833    0.0000 C   0  0  0  0  0  0  0  0  0  0  0  0
   -0.3375    2.3750    0.0000 N   0  0  0  0  0  0  0  0  0  0  0  0
    2.5542    1.6500    0.0000 N   0  0  0  0  0  0  0  0  0  0  0  0
   -1.6458    1.7208    0.0000 N   0  0  0  0  0  0  0  0  0  0  0  0
   -1.6458    3.0500    0.0000 S   0  0  0  0  0  0  0  0  0  0  0  0
   -2.4333    2.7958    0.0000 C   0  0  0  0  0  0  0  0  0  0  0  0
   -2.4333    1.9708    0.0000 C   0  0  0  0  0  0  0  0  0  0  0  0
    0.0750    3.0875    0.0000 C   0  0  0  0  0  0  0  0  0  0  0  0
    2.1292    2.3708    0.0000 C   0  0  0  0  0  0  0  0  0  0  0  0
    3.3667    1.5333    0.0000 C   0  0  0  0  0  0  0  0  0  0  0  0
    2.1750    0.9125    0.0000 C   0  0  0  0  0  0  0  0  0  0  0  0
    1.3125    2.3750    0.0000 C   0  0  0  0  0  0  0  0  0  0  0  0
    0.9000    3.0875    0.0000 C   0  0  0  0  0  0  0  0  0  0  0  0
   -3.1458    1.5583    0.0000 C   0  0  0  0  0  0  0  0  0  0  0  0
   -3.1458    3.2083    0.0000 C   0  0  0  0  0  0  0  0  0  0  0  0
   -0.3375    3.8000    0.0000 O   0  0  0  0  0  0  0  0  0  0  0  0
    3.5042    0.7125    0.0000 C   0  0  0  0  0  0  0  0  0  0  0  0
    2.7792    0.3250    0.0000 C   0  0  0  0  0  0  0  0  0  0  0  0
    3.9500    2.1083    0.0000 O   0  0  0  0  0  0  0  0  0  0  0  0
    1.3667    0.7833    0.0000 O   0  0  0  0  0  0  0  0  0  0  0  0
   -1.3958    0.9333    0.0000 C   0  0  0  0  0  0  0  0  0  0  0  0
   -3.8583    1.9708    0.0000 C   0  0  0  0  0  0  0  0  0  0  0  0
   -3.8583    2.7958    0.0000 C   0  0  0  0  0  0  0  0  0  0  0  0
    2.5542    3.0833    0.0000 C   0  0  0  0  0  0  0  0  0  0  0  0
    1.3167    3.8083    0.0000 C   0  0  0  0  0  0  0  0  0  0  0  0
    2.1417    3.8000    0.0000 C   0  0  0  0  0  0  0  0  0  0  0  0
   -2.7458    0.4875    0.0000 O   0  0  0  0  0  0  0  0  0  0  0  0
   -1.9458    0.3208    0.0000 C   0  0  0  0  0  0  0  0  0  0  0  0
   -4.5833    3.2125    0.0000 C   0  0  0  0  0  0  0  0  0  0  0  0
   -3.3125   -0.1167    0.0000 C   0  0  0  0  0  0  0  0  0  0  0  0
   -4.1208    0.0583    0.0000 C   0  0  0  0  0  0  0  0  0  0  0  0
  2  1  2  0  0  0  0
  3  9  1  0  0  0  0
  4  1  1  0  0  0  0
  5  1  1  0  0  0  0
  6  5  1  0  0  0  0
  7  4  1  0  0  0  0
  8  2  1  0  0  0  0
  9 12  1  0  0  0  0
 10  3  1  0  0  0  0
 11  3  1  0  0  0  0
 12 13  2  0  0  0  0
 13  8  1  0  0  0  0
 14  7  1  0  0  0  0
 15  6  1  0  0  0  0
 16  8  2  0  0  0  0
 17 10  1  0  0  0  0
 18 11  1  0  0  0  0
 19 10  2  0  0  0  0
 20 11  2  0  0  0  0
 21  4  1  0  0  0  0
 22 14  2  0  0  0  0
 23 15  2  0  0  0  0
 24 26  1  0  0  0  0
 25 13  1  0  0  0  0
 26 25  2  0  0  0  0
 27 28  1  0  0  0  0
 28 21  1  0  0  0  0
 29 23  1  0  0  0  0
 30 27  1  0  0  0  0
 31 30  1  0  0  0  0
  7  6  2  0  0  0  0
 22 23  1  0  0  0  0
  9 24  2  0  0  0  0
 17 18  1  0  0  0  0
M  END
>  <IDNUMBER>
F1359-1782

>  <Chemical_Name>
3-(2,5-dioxopyrrolidin-1-yl)-N-[(2Z)-3-(2-ethoxyethyl)-6-methyl-2,3-dihydro-1,3-benzothiazol-2-ylidene]benzamide

>  <PriceCoeff>
1.00

>  <CAS>
897616-28-3

>  <MW>
437.51

>  <Description>
solid

>  <FSP3>
0.30

>  <clogP>
3.51

>  <TPSA>
104.58

>  <Acceptor>
4

>  <Donor>
0

>  <RotBonds>
7

>  <HAC>
31

>  <Collection>
General

>  <PPDS>
+

$$$$
F1359-1824
  Mrv2219 10102508112D          

 26 28  0  0  0  0            999 V2000
   -1.1635    2.3854    0.0000 C   0  0  0  0  0  0  0  0  0  0  0  0
    1.3178    3.8116    0.0000 N   0  0  0  0  0  0  0  0  0  0  0  0
   -1.6472    1.7223    0.0000 N   0  0  0  0  0  0  0  0  0  0  0  0
   -0.3378    2.3771    0.0000 N   0  0  0  0  0  0  0  0  0  0  0  0
   -1.6472    3.0526    0.0000 S   0  0  0  0  0  0  0  0  0  0  0  0
   -2.4354    2.7982    0.0000 C   0  0  0  0  0  0  0  0  0  0  0  0
   -2.4354    1.9726    0.0000 C   0  0  0  0  0  0  0  0  0  0  0  0
    2.1311    3.8867    0.0000 C   0  0  0  0  0  0  0  0  0  0  0  0
    0.9801    4.5457    0.0000 C   0  0  0  0  0  0  0  0  0  0  0  0
    0.0751    3.0902    0.0000 C   0  0  0  0  0  0  0  0  0  0  0  0
    0.9008    3.0902    0.0000 C   0  0  0  0  0  0  0  0  0  0  0  0
   -3.1486    1.5596    0.0000 C   0  0  0  0  0  0  0  0  0  0  0  0
   -3.1486    3.2111    0.0000 C   0  0  0  0  0  0  0  0  0  0  0  0
    1.5931    5.0961    0.0000 C   0  0  0  0  0  0  0  0  0  0  0  0
    2.3145    4.6958    0.0000 C   0  0  0  0  0  0  0  0  0  0  0  0
    0.1793    4.7333    0.0000 O   0  0  0  0  0  0  0  0  0  0  0  0
    2.6898    3.2737    0.0000 O   0  0  0  0  0  0  0  0  0  0  0  0
   -0.3378    3.8033    0.0000 O   0  0  0  0  0  0  0  0  0  0  0  0
   -1.3970    0.9341    0.0000 C   0  0  0  0  0  0  0  0  0  0  0  0
   -3.8616    1.9726    0.0000 C   0  0  0  0  0  0  0  0  0  0  0  0
   -3.8616    2.7982    0.0000 C   0  0  0  0  0  0  0  0  0  0  0  0
   -2.7482    0.4879    0.0000 O   0  0  0  0  0  0  0  0  0  0  0  0
   -1.9475    0.3211    0.0000 C   0  0  0  0  0  0  0  0  0  0  0  0
   -4.5873    3.2153    0.0000 C   0  0  0  0  0  0  0  0  0  0  0  0
   -3.3154   -0.1168    0.0000 C   0  0  0  0  0  0  0  0  0  0  0  0
   -4.1244    0.0583    0.0000 C   0  0  0  0  0  0  0  0  0  0  0  0
  2 11  1  0  0  0  0
  3  1  1  0  0  0  0
  4  1  2  0  0  0  0
  5  1  1  0  0  0  0
  6  5  1  0  0  0  0
  7  3  1  0  0  0  0
  8  2  1  0  0  0  0
  9  2  1  0  0  0  0
 10  4  1  0  0  0  0
 11 10  1  0  0  0  0
 12  7  1  0  0  0  0
 13  6  1  0  0  0  0
 14  9  1  0  0  0  0
 15  8  1  0  0  0  0
 16  9  2  0  0  0  0
 17  8  2  0  0  0  0
 18 10  2  0  0  0  0
 19  3  1  0  0  0  0
 20 12  2  0  0  0  0
 21 13  2  0  0  0  0
 22 23  1  0  0  0  0
 23 19  1  0  0  0  0
 24 21  1  0  0  0  0
 25 22  1  0  0  0  0
 26 25  1  0  0  0  0
  7  6  2  0  0  0  0
 20 21  1  0  0  0  0
 15 14  1  0  0  0  0
M  END
>  <IDNUMBER>
F1359-1824

>  <Chemical_Name>
2-(2,5-dioxopyrrolidin-1-yl)-N-[(2Z)-3-(2-ethoxyethyl)-6-methyl-2,3-dihydro-1,3-benzothiazol-2-ylidene]acetamide

>  <PriceCoeff>
1.00

>  <CAS>
865162-18-1

>  <MW>
375.44

>  <Description>
solid

>  <FSP3>
0.44

>  <clogP>
3.43

>  <TPSA>
104.58

>  <Acceptor>
4

>  <Donor>
0

>  <RotBonds>
7

>  <HAC>
26

>  <Collection>
General

>  <PPDS>
+

$$$$
F1359-2178
  Mrv2219 10102508112D          

 31 34  0  0  0  0            999 V2000
   -1.1625    2.3833    0.0000 C   0  0  0  0  0  0  0  0  0  0  0  0
   -0.3375    2.3750    0.0000 N   0  0  0  0  0  0  0  0  0  0  0  0
    2.5542    1.6500    0.0000 N   0  0  0  0  0  0  0  0  0  0  0  0
   -1.6458    1.7208    0.0000 N   0  0  0  0  0  0  0  0  0  0  0  0
   -1.6458    3.0500    0.0000 S   0  0  0  0  0  0  0  0  0  0  0  0
    0.0750    3.0875    0.0000 C   0  0  0  0  0  0  0  0  0  0  0  0
    2.1292    2.3708    0.0000 C   0  0  0  0  0  0  0  0  0  0  0  0
   -2.4333    1.9708    0.0000 C   0  0  0  0  0  0  0  0  0  0  0  0
    3.3667    1.5333    0.0000 C   0  0  0  0  0  0  0  0  0  0  0  0
    2.1750    0.9125    0.0000 C   0  0  0  0  0  0  0  0  0  0  0  0
   -2.4333    2.7958    0.0000 C   0  0  0  0  0  0  0  0  0  0  0  0
    1.3125    2.3750    0.0000 C   0  0  0  0  0  0  0  0  0  0  0  0
    0.9000    3.0875    0.0000 C   0  0  0  0  0  0  0  0  0  0  0  0
   -0.3375    3.8000    0.0000 O   0  0  0  0  0  0  0  0  0  0  0  0
    3.5042    0.7125    0.0000 C   0  0  0  0  0  0  0  0  0  0  0  0
    2.7792    0.3250    0.0000 C   0  0  0  0  0  0  0  0  0  0  0  0
    3.9500    2.1083    0.0000 O   0  0  0  0  0  0  0  0  0  0  0  0
    1.3667    0.7833    0.0000 O   0  0  0  0  0  0  0  0  0  0  0  0
   -1.3958    0.9333    0.0000 C   0  0  0  0  0  0  0  0  0  0  0  0
    2.5542    3.0833    0.0000 C   0  0  0  0  0  0  0  0  0  0  0  0
   -3.1458    1.5583    0.0000 C   0  0  0  0  0  0  0  0  0  0  0  0
   -3.1458    3.2083    0.0000 C   0  0  0  0  0  0  0  0  0  0  0  0
    1.3167    3.8083    0.0000 C   0  0  0  0  0  0  0  0  0  0  0  0
    2.1417    3.8000    0.0000 C   0  0  0  0  0  0  0  0  0  0  0  0
   -2.7458    0.4875    0.0000 O   0  0  0  0  0  0  0  0  0  0  0  0
   -1.9458    0.3208    0.0000 C   0  0  0  0  0  0  0  0  0  0  0  0
   -3.3125   -0.1167    0.0000 C   0  0  0  0  0  0  0  0  0  0  0  0
   -3.8583    1.9708    0.0000 C   0  0  0  0  0  0  0  0  0  0  0  0
   -3.8583    2.7958    0.0000 C   0  0  0  0  0  0  0  0  0  0  0  0
   -4.1208    0.0583    0.0000 C   0  0  0  0  0  0  0  0  0  0  0  0
   -4.5833    3.2125    0.0000 H   0  0  0  0  0  0  0  0  0  0  0  0
  2  1  2  0  0  0  0
  3  7  1  0  0  0  0
  4  1  1  0  0  0  0
  5  1  1  0  0  0  0
  6  2  1  0  0  0  0
  7 12  1  0  0  0  0
  8  4  1  0  0  0  0
  9  3  1  0  0  0  0
 10  3  1  0  0  0  0
 11  5  1  0  0  0  0
 12 13  2  0  0  0  0
 13  6  1  0  0  0  0
 14  6  2  0  0  0  0
 15  9  1  0  0  0  0
 16 10  1  0  0  0  0
 17  9  2  0  0  0  0
 18 10  2  0  0  0  0
 19  4  1  0  0  0  0
 20 24  1  0  0  0  0
 21  8  1  0  0  0  0
 22 11  1  0  0  0  0
 23 13  1  0  0  0  0
 24 23  2  0  0  0  0
 25 26  1  0  0  0  0
 26 19  1  0  0  0  0
 27 25  1  0  0  0  0
 28 21  2  0  0  0  0
 29 22  2  0  0  0  0
 30 27  1  0  0  0  0
 31 29  1  0  0  0  0
  8 11  2  0  0  0  0
 28 29  1  0  0  0  0
  7 20  2  0  0  0  0
 15 16  1  0  0  0  0
M  END
>  <IDNUMBER>
F1359-2178

>  <Chemical_Name>
3-(2,5-dioxopyrrolidin-1-yl)-N-[(2Z)-3-(2-ethoxyethyl)-2,3-dihydro-1,3-benzothiazol-2-ylidene]benzamide

>  <PriceCoeff>
1.00

>  <CAS>
897616-31-8

>  <MW>
423.48

>  <Description>
solid

>  <FSP3>
0.27

>  <clogP>
3.01

>  <TPSA>
104.58

>  <Acceptor>
4

>  <Donor>
0

>  <RotBonds>
7

>  <HAC>
30

>  <Collection>
General

>  <PPDS>
+

$$$$
F1359-2484
  Mrv2219 10102508112D          

 26 28  0  0  0  0            999 V2000
   -1.1641    2.3865    0.0000 C   0  0  0  0  0  0  0  0  0  0  0  0
    1.3185    3.8134    0.0000 N   0  0  0  0  0  0  0  0  0  0  0  0
   -1.6480    1.7231    0.0000 N   0  0  0  0  0  0  0  0  0  0  0  0
   -0.3380    2.3782    0.0000 N   0  0  0  0  0  0  0  0  0  0  0  0
   -1.6480    3.0541    0.0000 S   0  0  0  0  0  0  0  0  0  0  0  0
   -2.4366    2.7995    0.0000 C   0  0  0  0  0  0  0  0  0  0  0  0
   -2.4366    1.9734    0.0000 C   0  0  0  0  0  0  0  0  0  0  0  0
    2.1320    3.8885    0.0000 C   0  0  0  0  0  0  0  0  0  0  0  0
    0.9805    4.5478    0.0000 C   0  0  0  0  0  0  0  0  0  0  0  0
    0.0751    3.0916    0.0000 C   0  0  0  0  0  0  0  0  0  0  0  0
    0.9012    3.0916    0.0000 C   0  0  0  0  0  0  0  0  0  0  0  0
   -3.1500    3.2126    0.0000 C   0  0  0  0  0  0  0  0  0  0  0  0
   -3.1500    1.5604    0.0000 C   0  0  0  0  0  0  0  0  0  0  0  0
    1.5938    5.0985    0.0000 C   0  0  0  0  0  0  0  0  0  0  0  0
    2.3156    4.6980    0.0000 C   0  0  0  0  0  0  0  0  0  0  0  0
    0.1794    4.7355    0.0000 O   0  0  0  0  0  0  0  0  0  0  0  0
    2.6911    3.2752    0.0000 O   0  0  0  0  0  0  0  0  0  0  0  0
   -0.3380    3.8051    0.0000 O   0  0  0  0  0  0  0  0  0  0  0  0
   -3.8635    2.7995    0.0000 C   0  0  0  0  0  0  0  0  0  0  0  0
   -1.3977    0.9345    0.0000 C   0  0  0  0  0  0  0  0  0  0  0  0
   -3.8635    1.9734    0.0000 C   0  0  0  0  0  0  0  0  0  0  0  0
   -4.5894    3.2168    0.0000 Br  0  0  0  0  0  0  0  0  0  0  0  0
   -2.7495    0.4882    0.0000 O   0  0  0  0  0  0  0  0  0  0  0  0
   -1.9484    0.3212    0.0000 C   0  0  0  0  0  0  0  0  0  0  0  0
   -3.3169   -0.1169    0.0000 C   0  0  0  0  0  0  0  0  0  0  0  0
   -4.1263    0.0584    0.0000 C   0  0  0  0  0  0  0  0  0  0  0  0
  2 11  1  0  0  0  0
  3  1  1  0  0  0  0
  4  1  2  0  0  0  0
  5  1  1  0  0  0  0
  6  5  1  0  0  0  0
  7  3  1  0  0  0  0
  8  2  1  0  0  0  0
  9  2  1  0  0  0  0
 10  4  1  0  0  0  0
 11 10  1  0  0  0  0
 12  6  1  0  0  0  0
 13  7  1  0  0  0  0
 14  9  1  0  0  0  0
 15  8  1  0  0  0  0
 16  9  2  0  0  0  0
 17  8  2  0  0  0  0
 18 10  2  0  0  0  0
 19 12  2  0  0  0  0
 20  3  1  0  0  0  0
 21 13  2  0  0  0  0
 22 19  1  0  0  0  0
 23 24  1  0  0  0  0
 24 20  1  0  0  0  0
 25 23  1  0  0  0  0
 26 25  1  0  0  0  0
  7  6  2  0  0  0  0
 21 19  1  0  0  0  0
 15 14  1  0  0  0  0
M  END
>  <IDNUMBER>
F1359-2484

>  <Chemical_Name>
N-[(2Z)-6-bromo-3-(2-ethoxyethyl)-2,3-dihydro-1,3-benzothiazol-2-ylidene]-2-(2,5-dioxopyrrolidin-1-yl)acetamide

>  <PriceCoeff>
1.00

>  <CAS>
865162-90-9

>  <MW>
440.31

>  <Description>
solid

>  <FSP3>
0.41

>  <clogP>
3.79

>  <TPSA>
104.58

>  <Acceptor>
4

>  <Donor>
0

>  <RotBonds>
7

>  <HAC>
26

>  <Collection>
General

>  <PPDS>
+

$$$$
F1359-2574
  Mrv2219 10102508112D          

 31 34  0  0  0  0            999 V2000
   -1.1625    2.3833    0.0000 C   0  0  0  0  0  0  0  0  0  0  0  0
   -0.3375    2.3750    0.0000 N   0  0  0  0  0  0  0  0  0  0  0  0
    2.5542    1.6500    0.0000 N   0  0  0  0  0  0  0  0  0  0  0  0
   -1.6458    1.7208    0.0000 N   0  0  0  0  0  0  0  0  0  0  0  0
   -1.6458    3.0500    0.0000 S   0  0  0  0  0  0  0  0  0  0  0  0
   -2.4333    2.7958    0.0000 C   0  0  0  0  0  0  0  0  0  0  0  0
   -2.4333    1.9708    0.0000 C   0  0  0  0  0  0  0  0  0  0  0  0
    0.0750    3.0875    0.0000 C   0  0  0  0  0  0  0  0  0  0  0  0
    2.1292    2.3708    0.0000 C   0  0  0  0  0  0  0  0  0  0  0  0
    3.3667    1.5333    0.0000 C   0  0  0  0  0  0  0  0  0  0  0  0
    2.1750    0.9125    0.0000 C   0  0  0  0  0  0  0  0  0  0  0  0
    1.3125    2.3750    0.0000 C   0  0  0  0  0  0  0  0  0  0  0  0
    0.9000    3.0875    0.0000 C   0  0  0  0  0  0  0  0  0  0  0  0
   -3.1458    3.2083    0.0000 C   0  0  0  0  0  0  0  0  0  0  0  0
   -3.1458    1.5583    0.0000 C   0  0  0  0  0  0  0  0  0  0  0  0
   -0.3375    3.8000    0.0000 O   0  0  0  0  0  0  0  0  0  0  0  0
    3.5042    0.7125    0.0000 C   0  0  0  0  0  0  0  0  0  0  0  0
    2.7792    0.3250    0.0000 C   0  0  0  0  0  0  0  0  0  0  0  0
    3.9500    2.1083    0.0000 O   0  0  0  0  0  0  0  0  0  0  0  0
    1.3667    0.7833    0.0000 O   0  0  0  0  0  0  0  0  0  0  0  0
   -3.8583    2.7958    0.0000 C   0  0  0  0  0  0  0  0  0  0  0  0
   -1.3958    0.9333    0.0000 C   0  0  0  0  0  0  0  0  0  0  0  0
   -3.8583    1.9708    0.0000 C   0  0  0  0  0  0  0  0  0  0  0  0
   -4.5833    3.2125    0.0000 F   0  0  0  0  0  0  0  0  0  0  0  0
    2.5542    3.0833    0.0000 C   0  0  0  0  0  0  0  0  0  0  0  0
    1.3167    3.8083    0.0000 C   0  0  0  0  0  0  0  0  0  0  0  0
    2.1417    3.8000    0.0000 C   0  0  0  0  0  0  0  0  0  0  0  0
   -2.7458    0.4875    0.0000 O   0  0  0  0  0  0  0  0  0  0  0  0
   -1.9458    0.3208    0.0000 C   0  0  0  0  0  0  0  0  0  0  0  0
   -3.3125   -0.1167    0.0000 C   0  0  0  0  0  0  0  0  0  0  0  0
   -4.1208    0.0583    0.0000 C   0  0  0  0  0  0  0  0  0  0  0  0
  2  1  2  0  0  0  0
  3  9  1  0  0  0  0
  4  1  1  0  0  0  0
  5  1  1  0  0  0  0
  6  5  1  0  0  0  0
  7  4  1  0  0  0  0
  8  2  1  0  0  0  0
  9 12  1  0  0  0  0
 10  3  1  0  0  0  0
 11  3  1  0  0  0  0
 12 13  2  0  0  0  0
 13  8  1  0  0  0  0
 14  6  1  0  0  0  0
 15  7  1  0  0  0  0
 16  8  2  0  0  0  0
 17 10  1  0  0  0  0
 18 11  1  0  0  0  0
 19 10  2  0  0  0  0
 20 11  2  0  0  0  0
 21 14  2  0  0  0  0
 22  4  1  0  0  0  0
 23 15  2  0  0  0  0
 24 21  1  0  0  0  0
 25 27  1  0  0  0  0
 26 13  1  0  0  0  0
 27 26  2  0  0  0  0
 28 29  1  0  0  0  0
 29 22  1  0  0  0  0
 30 28  1  0  0  0  0
 31 30  1  0  0  0  0
  7  6  2  0  0  0  0
 23 21  1  0  0  0  0
  9 25  2  0  0  0  0
 17 18  1  0  0  0  0
M  END
>  <IDNUMBER>
F1359-2574

>  <Chemical_Name>
3-(2,5-dioxopyrrolidin-1-yl)-N-[(2Z)-3-(2-ethoxyethyl)-6-fluoro-2,3-dihydro-1,3-benzothiazol-2-ylidene]benzamide

>  <PriceCoeff>
1.00

>  <CAS>
897616-35-2

>  <MW>
441.48

>  <Description>
solid

>  <FSP3>
0.27

>  <clogP>
3.15

>  <TPSA>
104.58

>  <Acceptor>
4

>  <Donor>
0

>  <RotBonds>
7

>  <HAC>
31

>  <Collection>
General

>  <PPDS>
+

$$$$
F1359-2616
  Mrv2219 10102508112D          

 26 28  0  0  0  0            999 V2000
   -1.1641    2.3865    0.0000 C   0  0  0  0  0  0  0  0  0  0  0  0
    1.3185    3.8134    0.0000 N   0  0  0  0  0  0  0  0  0  0  0  0
   -1.6480    1.7231    0.0000 N   0  0  0  0  0  0  0  0  0  0  0  0
   -0.3380    2.3782    0.0000 N   0  0  0  0  0  0  0  0  0  0  0  0
   -1.6480    3.0541    0.0000 S   0  0  0  0  0  0  0  0  0  0  0  0
   -2.4366    2.7995    0.0000 C   0  0  0  0  0  0  0  0  0  0  0  0
   -2.4366    1.9734    0.0000 C   0  0  0  0  0  0  0  0  0  0  0  0
    2.1320    3.8885    0.0000 C   0  0  0  0  0  0  0  0  0  0  0  0
    0.9805    4.5478    0.0000 C   0  0  0  0  0  0  0  0  0  0  0  0
    0.0751    3.0916    0.0000 C   0  0  0  0  0  0  0  0  0  0  0  0
    0.9012    3.0916    0.0000 C   0  0  0  0  0  0  0  0  0  0  0  0
   -3.1500    3.2126    0.0000 C   0  0  0  0  0  0  0  0  0  0  0  0
   -3.1500    1.5604    0.0000 C   0  0  0  0  0  0  0  0  0  0  0  0
    1.5938    5.0985    0.0000 C   0  0  0  0  0  0  0  0  0  0  0  0
    2.3156    4.6980    0.0000 C   0  0  0  0  0  0  0  0  0  0  0  0
    0.1794    4.7355    0.0000 O   0  0  0  0  0  0  0  0  0  0  0  0
    2.6911    3.2752    0.0000 O   0  0  0  0  0  0  0  0  0  0  0  0
   -0.3380    3.8051    0.0000 O   0  0  0  0  0  0  0  0  0  0  0  0
   -3.8635    2.7995    0.0000 C   0  0  0  0  0  0  0  0  0  0  0  0
   -1.3977    0.9345    0.0000 C   0  0  0  0  0  0  0  0  0  0  0  0
   -3.8635    1.9734    0.0000 C   0  0  0  0  0  0  0  0  0  0  0  0
   -4.5894    3.2168    0.0000 F   0  0  0  0  0  0  0  0  0  0  0  0
   -2.7495    0.4882    0.0000 O   0  0  0  0  0  0  0  0  0  0  0  0
   -1.9484    0.3212    0.0000 C   0  0  0  0  0  0  0  0  0  0  0  0
   -3.3169   -0.1169    0.0000 C   0  0  0  0  0  0  0  0  0  0  0  0
   -4.1263    0.0584    0.0000 C   0  0  0  0  0  0  0  0  0  0  0  0
  2 11  1  0  0  0  0
  3  1  1  0  0  0  0
  4  1  2  0  0  0  0
  5  1  1  0  0  0  0
  6  5  1  0  0  0  0
  7  3  1  0  0  0  0
  8  2  1  0  0  0  0
  9  2  1  0  0  0  0
 10  4  1  0  0  0  0
 11 10  1  0  0  0  0
 12  6  1  0  0  0  0
 13  7  1  0  0  0  0
 14  9  1  0  0  0  0
 15  8  1  0  0  0  0
 16  9  2  0  0  0  0
 17  8  2  0  0  0  0
 18 10  2  0  0  0  0
 19 12  2  0  0  0  0
 20  3  1  0  0  0  0
 21 13  2  0  0  0  0
 22 19  1  0  0  0  0
 23 24  1  0  0  0  0
 24 20  1  0  0  0  0
 25 23  1  0  0  0  0
 26 25  1  0  0  0  0
  7  6  2  0  0  0  0
 21 19  1  0  0  0  0
 15 14  1  0  0  0  0
M  END
>  <IDNUMBER>
F1359-2616

>  <Chemical_Name>
2-(2,5-dioxopyrrolidin-1-yl)-N-[(2Z)-3-(2-ethoxyethyl)-6-fluoro-2,3-dihydro-1,3-benzothiazol-2-ylidene]acetamide

>  <PriceCoeff>
1.00

>  <CAS>
865173-55-3

>  <MW>
379.41

>  <Description>
solid

>  <FSP3>
0.41

>  <clogP>
3.07

>  <TPSA>
104.58

>  <Acceptor>
4

>  <Donor>
0

>  <RotBonds>
7

>  <HAC>
26

>  <Collection>
General

>  <PPDS>
+

$$$$
F1360-0674
  Mrv2219 10102508112D          

 31 35  0  0  0  0            999 V2000
   -2.7753    2.0582    0.0000 C   0  0  0  0  0  0  0  0  0  0  0  0
   -2.5648    1.3019    0.0000 C   0  0  0  0  0  0  0  0  0  0  0  0
   -1.3720    2.4245    0.0000 N   0  0  0  0  0  0  0  0  0  0  0  0
   -1.1615    1.6527    0.0000 C   0  0  0  0  0  0  0  0  0  0  0  0
   -1.7696    1.0680    0.0000 N   0  0  0  0  0  0  0  0  0  0  0  0
   -2.1751    2.6429    0.0000 C   0  0  0  0  0  0  0  0  0  0  0  0
   -3.2431    0.8654    0.0000 S   0  0  0  0  0  0  0  0  0  0  0  0
   -3.5939    2.0582    0.0000 C   0  0  0  0  0  0  0  0  0  0  0  0
   -3.8590    1.3097    0.0000 C   0  0  0  0  0  0  0  0  0  0  0  0
   -0.3664    1.4422    0.0000 S   0  0  0  0  0  0  0  0  0  0  0  0
   -0.8107    2.9937    0.0000 C   0  0  0  0  0  0  0  0  0  0  0  0
   -2.4245    3.4536    0.0000 O   0  0  0  0  0  0  0  0  0  0  0  0
    1.0291    1.8632    0.0000 C   0  0  0  0  0  0  0  0  0  0  0  0
    1.6216    2.4324    0.0000 C   0  0  0  0  0  0  0  0  0  0  0  0
    0.1950    2.0503    0.0000 C   0  0  0  0  0  0  0  0  0  0  0  0
    1.2240    1.0291    0.0000 O   0  0  0  0  0  0  0  0  0  0  0  0
    1.4111    3.2197    0.0000 C   0  0  0  0  0  0  0  0  0  0  0  0
    2.4324    2.1906    0.0000 C   0  0  0  0  0  0  0  0  0  0  0  0
    2.8144    3.5784    0.0000 C   0  0  0  0  0  0  0  0  0  0  0  0
   -4.1397    2.7052    0.0000 C   0  0  0  0  0  0  0  0  0  0  0  0
    3.0249    2.7519    0.0000 C   0  0  0  0  0  0  0  0  0  0  0  0
    2.0192    3.8044    0.0000 C   0  0  0  0  0  0  0  0  0  0  0  0
   -4.6698    1.1460    0.0000 C   0  0  0  0  0  0  0  0  0  0  0  0
    3.4614    4.1397    0.0000 Cl  0  0  0  0  0  0  0  0  0  0  0  0
   -0.1169    2.5648    0.0000 C   0  0  0  0  0  0  0  0  0  0  0  0
   -0.8107    3.8278    0.0000 C   0  0  0  0  0  0  0  0  0  0  0  0
   -4.9504    2.4947    0.0000 C   0  0  0  0  0  0  0  0  0  0  0  0
   -5.2389    1.7463    0.0000 C   0  0  0  0  0  0  0  0  0  0  0  0
    0.5926    2.9858    0.0000 C   0  0  0  0  0  0  0  0  0  0  0  0
   -0.1169    4.2099    0.0000 C   0  0  0  0  0  0  0  0  0  0  0  0
    0.5926    3.8044    0.0000 C   0  0  0  0  0  0  0  0  0  0  0  0
  2  1  2  0  0  0  0
  3  6  1  0  0  0  0
  4  3  1  0  0  0  0
  5  2  1  0  0  0  0
  6  1  1  0  0  0  0
  7  2  1  0  0  0  0
  8  1  1  0  0  0  0
  9  8  2  0  0  0  0
 10  4  1  0  0  0  0
 11  3  1  0  0  0  0
 12  6  2  0  0  0  0
 13 15  1  0  0  0  0
 14 13  1  0  0  0  0
 15 10  1  0  0  0  0
 16 13  2  0  0  0  0
 17 14  2  0  0  0  0
 18 14  1  0  0  0  0
 19 21  1  0  0  0  0
 20  8  1  0  0  0  0
 21 18  2  0  0  0  0
 22 17  1  0  0  0  0
 23  9  1  0  0  0  0
 24 19  1  0  0  0  0
 25 11  1  0  0  0  0
 26 11  2  0  0  0  0
 27 20  1  0  0  0  0
 28 27  1  0  0  0  0
 29 25  2  0  0  0  0
 30 26  1  0  0  0  0
 31 30  2  0  0  0  0
  7  9  1  0  0  0  0
  4  5  2  0  0  0  0
 28 23  1  0  0  0  0
 29 31  1  0  0  0  0
 22 19  2  0  0  0  0
M  END
>  <IDNUMBER>
F1360-0674

>  <Chemical_Name>
5-{[2-(4-chlorophenyl)-2-oxoethyl]sulfanyl}-4-phenyl-8-thia-4,6-diazatricyclo[7.4.0.0?,?]trideca-1(9),2(7),5-trien-3-one

>  <PriceCoeff>
1.00

>  <CAS>
330449-42-8

>  <MW>
467.00

>  <Description>
solid

>  <FSP3>
0.21

>  <clogP>
6.88

>  <TPSA>
103.28

>  <Acceptor>
3

>  <Donor>
0

>  <RotBonds>
5

>  <HAC>
31

>  <Collection>
General

>  <PPDS>
+

$$$$
F1360-0679
  Mrv2219 10102508112D          

 30 33  0  0  0  0            999 V2000
   -3.6085    2.6405    0.0000 C   0  0  0  0  0  0  0  0  0  0  0  0
   -3.3623    1.8595    0.0000 C   0  0  0  0  0  0  0  0  0  0  0  0
   -2.2670    3.0481    0.0000 N   0  0  0  0  0  0  0  0  0  0  0  0
   -2.0292    2.3094    0.0000 C   0  0  0  0  0  0  0  0  0  0  0  0
   -2.5472    1.6557    0.0000 N   0  0  0  0  0  0  0  0  0  0  0  0
   -3.0481    3.2009    0.0000 C   0  0  0  0  0  0  0  0  0  0  0  0
   -4.0670    1.3669    0.0000 S   0  0  0  0  0  0  0  0  0  0  0  0
   -4.4236    2.6405    0.0000 C   0  0  0  0  0  0  0  0  0  0  0  0
   -4.6783    1.8595    0.0000 C   0  0  0  0  0  0  0  0  0  0  0  0
   -1.1632    2.1820    0.0000 S   0  0  0  0  0  0  0  0  0  0  0  0
   -1.6981    3.6594    0.0000 C   0  0  0  0  0  0  0  0  0  0  0  0
   -3.2859    4.0670    0.0000 O   0  0  0  0  0  0  0  0  0  0  0  0
    0.1359    2.7170    0.0000 C   0  0  0  0  0  0  0  0  0  0  0  0
    0.6199    3.4047    0.0000 N   0  0  0  0  0  0  0  0  0  0  0  0
    0.4671    1.9783    0.0000 O   0  0  0  0  0  0  0  0  0  0  0  0
   -0.6792    2.8443    0.0000 C   0  0  0  0  0  0  0  0  0  0  0  0
    1.4350    3.3283    0.0000 C   0  0  0  0  0  0  0  0  0  0  0  0
   -4.9161    3.3283    0.0000 C   0  0  0  0  0  0  0  0  0  0  0  0
    3.0652    3.1586    0.0000 C   0  0  0  0  0  0  0  0  0  0  0  0
   -5.4425    1.6217    0.0000 C   0  0  0  0  0  0  0  0  0  0  0  0
    1.8085    2.5472    0.0000 C   0  0  0  0  0  0  0  0  0  0  0  0
    1.9359    3.9906    0.0000 C   0  0  0  0  0  0  0  0  0  0  0  0
    2.6236    2.4708    0.0000 C   0  0  0  0  0  0  0  0  0  0  0  0
    2.7510    3.8632    0.0000 C   0  0  0  0  0  0  0  0  0  0  0  0
   -1.8595    4.4236    0.0000 C   0  0  0  0  0  0  0  0  0  0  0  0
   -0.9170    3.3623    0.0000 C   0  0  0  0  0  0  0  0  0  0  0  0
    3.9313    3.1245    0.0000 C   0  0  0  0  0  0  0  0  0  0  0  0
   -0.3057    3.8632    0.0000 C   0  0  0  0  0  0  0  0  0  0  0  0
   -1.2141    4.9585    0.0000 C   0  0  0  0  0  0  0  0  0  0  0  0
   -0.4330    4.6783    0.0000 C   0  0  0  0  0  0  0  0  0  0  0  0
  2  1  2  0  0  0  0
  3  6  1  0  0  0  0
  4  3  1  0  0  0  0
  5  2  1  0  0  0  0
  6  1  1  0  0  0  0
  7  2  1  0  0  0  0
  8  1  1  0  0  0  0
  9  8  2  0  0  0  0
 10  4  1  0  0  0  0
 11  3  1  0  0  0  0
 12  6  2  0  0  0  0
 13 16  1  0  0  0  0
 14 13  1  0  0  0  0
 15 13  2  0  0  0  0
 16 10  1  0  0  0  0
 17 14  1  0  0  0  0
 18  8  1  0  0  0  0
 19 24  2  0  0  0  0
 20  9  1  0  0  0  0
 21 17  1  0  0  0  0
 22 17  2  0  0  0  0
 23 21  2  0  0  0  0
 24 22  1  0  0  0  0
 25 11  2  0  0  0  0
 26 11  1  0  0  0  0
 27 19  1  0  0  0  0
 28 26  2  0  0  0  0
 29 25  1  0  0  0  0
 30 28  1  0  0  0  0
  7  9  1  0  0  0  0
  4  5  2  0  0  0  0
 30 29  2  0  0  0  0
 19 23  1  0  0  0  0
M  END
>  <IDNUMBER>
F1360-0679

>  <Chemical_Name>
2-({5,6-dimethyl-4-oxo-3-phenyl-3H,4H-thieno[2,3-d]pyrimidin-2-yl}sulfanyl)-N-(4-methylphenyl)acetamide

>  <PriceCoeff>
1.00

>  <CAS>
496967-51-2

>  <MW>
435.56

>  <Description>
solid

>  <FSP3>
0.17

>  <clogP>
5.55

>  <TPSA>
115.31

>  <Acceptor>
3

>  <Donor>
1

>  <RotBonds>
5

>  <HAC>
30

>  <Collection>
General

>  <PPDS>
+

$$$$
F1360-0685
  Mrv2219 10102508112D          

 30 33  0  0  0  0            999 V2000
   -3.6648    2.6559    0.0000 C   0  0  0  0  0  0  0  0  0  0  0  0
   -3.4148    1.8626    0.0000 C   0  0  0  0  0  0  0  0  0  0  0  0
   -2.3455    3.0698    0.0000 N   0  0  0  0  0  0  0  0  0  0  0  0
   -2.0609    2.2765    0.0000 C   0  0  0  0  0  0  0  0  0  0  0  0
   -2.6300    1.6557    0.0000 N   0  0  0  0  0  0  0  0  0  0  0  0
   -3.1302    3.2337    0.0000 C   0  0  0  0  0  0  0  0  0  0  0  0
   -4.0787    1.4141    0.0000 S   0  0  0  0  0  0  0  0  0  0  0  0
   -4.4496    2.6559    0.0000 C   0  0  0  0  0  0  0  0  0  0  0  0
   -4.6996    1.8626    0.0000 C   0  0  0  0  0  0  0  0  0  0  0  0
   -1.2331    2.1126    0.0000 S   0  0  0  0  0  0  0  0  0  0  0  0
    0.6296    3.2337    0.0000 N   0  0  0  0  0  0  0  0  0  0  0  0
   -1.8022    3.6907    0.0000 C   0  0  0  0  0  0  0  0  0  0  0  0
    0.1035    2.6129    0.0000 C   0  0  0  0  0  0  0  0  0  0  0  0
   -3.3803    4.0616    0.0000 O   0  0  0  0  0  0  0  0  0  0  0  0
    1.4574    3.1044    0.0000 C   0  0  0  0  0  0  0  0  0  0  0  0
    0.3880    1.8281    0.0000 O   0  0  0  0  0  0  0  0  0  0  0  0
    1.7591    2.3196    0.0000 C   0  0  0  0  0  0  0  0  0  0  0  0
   -0.6898    2.7335    0.0000 C   0  0  0  0  0  0  0  0  0  0  0  0
   -4.9583    3.3113    0.0000 C   0  0  0  0  0  0  0  0  0  0  0  0
   -5.4844    1.5781    0.0000 C   0  0  0  0  0  0  0  0  0  0  0  0
    1.9661    3.7253    0.0000 C   0  0  0  0  0  0  0  0  0  0  0  0
   -1.9315    4.5185    0.0000 C   0  0  0  0  0  0  0  0  0  0  0  0
   -1.0607    3.4061    0.0000 C   0  0  0  0  0  0  0  0  0  0  0  0
    1.2159    1.6987    0.0000 C   0  0  0  0  0  0  0  0  0  0  0  0
    2.5439    2.1989    0.0000 C   0  0  0  0  0  0  0  0  0  0  0  0
    2.7939    3.5613    0.0000 C   0  0  0  0  0  0  0  0  0  0  0  0
   -0.4398    3.8977    0.0000 C   0  0  0  0  0  0  0  0  0  0  0  0
   -1.2676    5.0101    0.0000 C   0  0  0  0  0  0  0  0  0  0  0  0
    3.0785    2.8629    0.0000 C   0  0  0  0  0  0  0  0  0  0  0  0
   -0.5604    4.7255    0.0000 C   0  0  0  0  0  0  0  0  0  0  0  0
  2  1  2  0  0  0  0
  3  6  1  0  0  0  0
  4  3  1  0  0  0  0
  5  2  1  0  0  0  0
  6  1  1  0  0  0  0
  7  2  1  0  0  0  0
  8  1  1  0  0  0  0
  9  8  2  0  0  0  0
 10  4  1  0  0  0  0
 11 13  1  0  0  0  0
 12  3  1  0  0  0  0
 13 18  1  0  0  0  0
 14  6  2  0  0  0  0
 15 11  1  0  0  0  0
 16 13  2  0  0  0  0
 17 15  1  0  0  0  0
 18 10  1  0  0  0  0
 19  8  1  0  0  0  0
 20  9  1  0  0  0  0
 21 15  2  0  0  0  0
 22 12  2  0  0  0  0
 23 12  1  0  0  0  0
 24 17  1  0  0  0  0
 25 17  2  0  0  0  0
 26 21  1  0  0  0  0
 27 23  2  0  0  0  0
 28 22  1  0  0  0  0
 29 26  2  0  0  0  0
 30 27  1  0  0  0  0
  9  7  1  0  0  0  0
  5  4  2  0  0  0  0
 28 30  2  0  0  0  0
 25 29  1  0  0  0  0
M  END
>  <IDNUMBER>
F1360-0685

>  <Chemical_Name>
2-({5,6-dimethyl-4-oxo-3-phenyl-3H,4H-thieno[2,3-d]pyrimidin-2-yl}sulfanyl)-N-(2-methylphenyl)acetamide

>  <PriceCoeff>
1.00

>  <CAS>
354795-47-4

>  <MW>
435.56

>  <Description>
solid

>  <FSP3>
0.17

>  <clogP>
4.90

>  <TPSA>
115.31

>  <Acceptor>
3

>  <Donor>
1

>  <RotBonds>
5

>  <HAC>
30

>  <Collection>
General

>  <PPDS>
+

$$$$
F1365-0048
  Mrv2219 10102508112D          

 29 32  0  0  0  0            999 V2000
   -1.1648    2.3879    0.0000 C   0  0  0  0  0  0  0  0  0  0  0  0
   -0.3381    2.3796    0.0000 N   0  0  0  0  0  0  0  0  0  0  0  0
   -1.6490    1.7241    0.0000 N   0  0  0  0  0  0  0  0  0  0  0  0
    3.3858    3.0768    0.0000 N   0  0  0  0  0  0  0  0  0  0  0  0
   -1.6490    3.0559    0.0000 S   0  0  0  0  0  0  0  0  0  0  0  0
   -2.4381    2.8013    0.0000 C   0  0  0  0  0  0  0  0  0  0  0  0
   -2.4381    1.9746    0.0000 C   0  0  0  0  0  0  0  0  0  0  0  0
    0.0751    3.0935    0.0000 C   0  0  0  0  0  0  0  0  0  0  0  0
    3.8575    3.7656    0.0000 C   0  0  0  0  0  0  0  0  0  0  0  0
    3.8992    2.4298    0.0000 C   0  0  0  0  0  0  0  0  0  0  0  0
    2.5592    3.0893    0.0000 C   0  0  0  0  0  0  0  0  0  0  0  0
   -3.1519    1.5613    0.0000 C   0  0  0  0  0  0  0  0  0  0  0  0
    0.9018    3.0935    0.0000 C   0  0  0  0  0  0  0  0  0  0  0  0
   -3.1519    3.2145    0.0000 C   0  0  0  0  0  0  0  0  0  0  0  0
   -0.3381    3.8074    0.0000 O   0  0  0  0  0  0  0  0  0  0  0  0
    4.6507    3.5318    0.0000 C   0  0  0  0  0  0  0  0  0  0  0  0
    4.6758    2.7136    0.0000 C   0  0  0  0  0  0  0  0  0  0  0  0
    3.5736    4.5506    0.0000 O   0  0  0  0  0  0  0  0  0  0  0  0
    3.6738    1.6365    0.0000 O   0  0  0  0  0  0  0  0  0  0  0  0
    2.1458    3.8074    0.0000 C   0  0  0  0  0  0  0  0  0  0  0  0
    2.1333    2.3754    0.0000 C   0  0  0  0  0  0  0  0  0  0  0  0
    1.3151    2.3879    0.0000 C   0  0  0  0  0  0  0  0  0  0  0  0
    1.3276    3.8157    0.0000 C   0  0  0  0  0  0  0  0  0  0  0  0
   -1.9496    0.3214    0.0000 C   0  0  0  0  0  0  0  0  0  0  0  0
   -1.3985    0.9352    0.0000 C   0  0  0  0  0  0  0  0  0  0  0  0
   -2.7554    0.4884    0.0000 C   0  0  0  0  0  0  0  0  0  0  0  0
   -3.8658    1.9746    0.0000 C   0  0  0  0  0  0  0  0  0  0  0  0
   -3.8658    2.8013    0.0000 C   0  0  0  0  0  0  0  0  0  0  0  0
   -4.5922    3.2188    0.0000 C   0  0  0  0  0  0  0  0  0  0  0  0
  2  1  2  0  0  0  0
  3  1  1  0  0  0  0
  4 11  1  0  0  0  0
  5  1  1  0  0  0  0
  6  5  1  0  0  0  0
  7  3  1  0  0  0  0
  8  2  1  0  0  0  0
  9  4  1  0  0  0  0
 10  4  1  0  0  0  0
 11 20  1  0  0  0  0
 12  7  1  0  0  0  0
 13  8  1  0  0  0  0
 14  6  1  0  0  0  0
 15  8  2  0  0  0  0
 16  9  1  0  0  0  0
 17 10  1  0  0  0  0
 18  9  2  0  0  0  0
 19 10  2  0  0  0  0
 20 23  2  0  0  0  0
 21 22  1  0  0  0  0
 22 13  2  0  0  0  0
 23 13  1  0  0  0  0
 24 25  1  0  0  0  0
 25  3  1  0  0  0  0
 26 24  2  0  0  0  0
 27 12  2  0  0  0  0
 28 14  2  0  0  0  0
 29 28  1  0  0  0  0
  7  6  2  0  0  0  0
 27 28  1  0  0  0  0
 11 21  2  0  0  0  0
 16 17  1  0  0  0  0
M  END
>  <IDNUMBER>
F1365-0048

>  <Chemical_Name>
4-(2,5-dioxopyrrolidin-1-yl)-N-[(2Z)-6-methyl-3-(prop-2-en-1-yl)-2,3-dihydro-1,3-benzothiazol-2-ylidene]benzamide

>  <PriceCoeff>
1.00

>  <CAS>
865174-51-2

>  <MW>
405.47

>  <Description>
solid

>  <FSP3>
0.18

>  <clogP>
4.22

>  <TPSA>
95.35

>  <Acceptor>
3

>  <Donor>
0

>  <RotBonds>
5

>  <HAC>
29

>  <Collection>
General

>  <PPDS>
+

$$$$
F1365-0108
  Mrv2219 10102508112D          

 24 26  0  0  0  0            999 V2000
   -1.1649    2.3882    0.0000 C   0  0  0  0  0  0  0  0  0  0  0  0
    1.3194    3.8162    0.0000 N   0  0  0  0  0  0  0  0  0  0  0  0
   -1.6492    1.7244    0.0000 N   0  0  0  0  0  0  0  0  0  0  0  0
   -0.3382    2.3799    0.0000 N   0  0  0  0  0  0  0  0  0  0  0  0
   -1.6492    3.0563    0.0000 S   0  0  0  0  0  0  0  0  0  0  0  0
   -2.4383    2.8016    0.0000 C   0  0  0  0  0  0  0  0  0  0  0  0
   -2.4383    1.9749    0.0000 C   0  0  0  0  0  0  0  0  0  0  0  0
    2.1336    3.8913    0.0000 C   0  0  0  0  0  0  0  0  0  0  0  0
    0.9812    4.5511    0.0000 C   0  0  0  0  0  0  0  0  0  0  0  0
    0.0752    3.0939    0.0000 C   0  0  0  0  0  0  0  0  0  0  0  0
    0.9019    3.0939    0.0000 C   0  0  0  0  0  0  0  0  0  0  0  0
   -3.1523    1.5615    0.0000 C   0  0  0  0  0  0  0  0  0  0  0  0
   -3.1523    3.2149    0.0000 C   0  0  0  0  0  0  0  0  0  0  0  0
    1.5950    5.1023    0.0000 C   0  0  0  0  0  0  0  0  0  0  0  0
    2.3173    4.7014    0.0000 C   0  0  0  0  0  0  0  0  0  0  0  0
    0.1796    4.7390    0.0000 O   0  0  0  0  0  0  0  0  0  0  0  0
    2.6931    3.2776    0.0000 O   0  0  0  0  0  0  0  0  0  0  0  0
   -0.3382    3.8079    0.0000 O   0  0  0  0  0  0  0  0  0  0  0  0
   -1.9498    0.3215    0.0000 C   0  0  0  0  0  0  0  0  0  0  0  0
   -1.3987    0.9352    0.0000 C   0  0  0  0  0  0  0  0  0  0  0  0
   -2.7557    0.4885    0.0000 C   0  0  0  0  0  0  0  0  0  0  0  0
   -3.8663    1.9749    0.0000 C   0  0  0  0  0  0  0  0  0  0  0  0
   -3.8663    2.8016    0.0000 C   0  0  0  0  0  0  0  0  0  0  0  0
   -4.5928    3.2192    0.0000 C   0  0  0  0  0  0  0  0  0  0  0  0
  2 11  1  0  0  0  0
  3  1  1  0  0  0  0
  4  1  2  0  0  0  0
  5  1  1  0  0  0  0
  6  5  1  0  0  0  0
  7  3  1  0  0  0  0
  8  2  1  0  0  0  0
  9  2  1  0  0  0  0
 10  4  1  0  0  0  0
 11 10  1  0  0  0  0
 12  7  1  0  0  0  0
 13  6  1  0  0  0  0
 14  9  1  0  0  0  0
 15  8  1  0  0  0  0
 16  9  2  0  0  0  0
 17  8  2  0  0  0  0
 18 10  2  0  0  0  0
 19 20  1  0  0  0  0
 20  3  1  0  0  0  0
 21 19  2  0  0  0  0
 22 12  2  0  0  0  0
 23 13  2  0  0  0  0
 24 23  1  0  0  0  0
  7  6  2  0  0  0  0
 22 23  1  0  0  0  0
 15 14  1  0  0  0  0
M  END
>  <IDNUMBER>
F1365-0108

>  <Chemical_Name>
2-(2,5-dioxopyrrolidin-1-yl)-N-[(2Z)-6-methyl-3-(prop-2-en-1-yl)-2,3-dihydro-1,3-benzothiazol-2-ylidene]acetamide

>  <PriceCoeff>
1.00

>  <CAS>
865174-55-6

>  <MW>
343.40

>  <Description>
solid

>  <FSP3>
0.29

>  <clogP>
4.05

>  <TPSA>
95.35

>  <Acceptor>
3

>  <Donor>
0

>  <RotBonds>
5

>  <HAC>
24

>  <Collection>
General

>  <PPDS>
+

$$$$
F1365-0180
  Mrv2219 10102508112D          

 33 36  0  0  0  0            999 V2000
   -1.1649    2.3882    0.0000 C   0  0  0  0  0  0  0  0  0  0  0  0
   -0.3382    2.3799    0.0000 N   0  0  0  0  0  0  0  0  0  0  0  0
   -1.6492    1.7244    0.0000 N   0  0  0  0  0  0  0  0  0  0  0  0
    3.3862    3.0772    0.0000 N   0  0  0  0  0  0  0  0  0  0  0  0
   -1.6492    3.0563    0.0000 S   0  0  0  0  0  0  0  0  0  0  0  0
   -2.4383    2.8016    0.0000 C   0  0  0  0  0  0  0  0  0  0  0  0
   -2.4383    1.9749    0.0000 C   0  0  0  0  0  0  0  0  0  0  0  0
    0.0752    3.0939    0.0000 C   0  0  0  0  0  0  0  0  0  0  0  0
    3.8580    3.7661    0.0000 C   0  0  0  0  0  0  0  0  0  0  0  0
    3.8998    2.4300    0.0000 C   0  0  0  0  0  0  0  0  0  0  0  0
   -4.5928    3.2192    0.0000 C   0  0  0  0  0  0  0  0  0  0  0  0
   -3.1523    3.2149    0.0000 C   0  0  0  0  0  0  0  0  0  0  0  0
   -3.8663    2.8016    0.0000 C   0  0  0  0  0  0  0  0  0  0  0  0
    2.5595    3.0897    0.0000 C   0  0  0  0  0  0  0  0  0  0  0  0
   -3.1523    1.5615    0.0000 C   0  0  0  0  0  0  0  0  0  0  0  0
    0.9019    3.0939    0.0000 C   0  0  0  0  0  0  0  0  0  0  0  0
   -0.3382    3.8079    0.0000 O   0  0  0  0  0  0  0  0  0  0  0  0
    4.6513    3.5323    0.0000 C   0  0  0  0  0  0  0  0  0  0  0  0
    4.6764    2.7139    0.0000 C   0  0  0  0  0  0  0  0  0  0  0  0
    3.5741    4.5511    0.0000 O   0  0  0  0  0  0  0  0  0  0  0  0
    3.6743    1.6367    0.0000 O   0  0  0  0  0  0  0  0  0  0  0  0
   -3.8663    1.9749    0.0000 C   0  0  0  0  0  0  0  0  0  0  0  0
   -5.3068    2.8058    0.0000 O   0  0  0  0  0  0  0  0  0  0  0  0
    2.1461    3.8079    0.0000 C   0  0  0  0  0  0  0  0  0  0  0  0
    2.1336    2.3757    0.0000 C   0  0  0  0  0  0  0  0  0  0  0  0
    1.3152    2.3882    0.0000 C   0  0  0  0  0  0  0  0  0  0  0  0
    1.3277    3.8162    0.0000 C   0  0  0  0  0  0  0  0  0  0  0  0
   -1.9498    0.3215    0.0000 C   0  0  0  0  0  0  0  0  0  0  0  0
   -1.3987    0.9352    0.0000 C   0  0  0  0  0  0  0  0  0  0  0  0
   -2.7557    0.4885    0.0000 C   0  0  0  0  0  0  0  0  0  0  0  0
   -4.5803    4.0376    0.0000 O   0  0  0  0  0  0  0  0  0  0  0  0
   -5.3068    4.4634    0.0000 C   0  0  0  0  0  0  0  0  0  0  0  0
   -5.2985    5.2859    0.0000 C   0  0  0  0  0  0  0  0  0  0  0  0
  2  1  2  0  0  0  0
  3  1  1  0  0  0  0
  4 14  1  0  0  0  0
  5  1  1  0  0  0  0
  6  5  1  0  0  0  0
  7  3  1  0  0  0  0
  8  2  1  0  0  0  0
  9  4  1  0  0  0  0
 10  4  1  0  0  0  0
 11 13  1  0  0  0  0
 12  6  1  0  0  0  0
 13 12  2  0  0  0  0
 14 24  1  0  0  0  0
 15  7  1  0  0  0  0
 16  8  1  0  0  0  0
 17  8  2  0  0  0  0
 18  9  1  0  0  0  0
 19 10  1  0  0  0  0
 20  9  2  0  0  0  0
 21 10  2  0  0  0  0
 22 15  2  0  0  0  0
 23 11  2  0  0  0  0
 24 27  2  0  0  0  0
 25 26  1  0  0  0  0
 26 16  2  0  0  0  0
 27 16  1  0  0  0  0
 28 29  1  0  0  0  0
 29  3  1  0  0  0  0
 30 28  2  0  0  0  0
 31 11  1  0  0  0  0
 32 31  1  0  0  0  0
 33 32  1  0  0  0  0
  7  6  2  0  0  0  0
 22 13  1  0  0  0  0
 14 25  2  0  0  0  0
 18 19  1  0  0  0  0
M  END
>  <IDNUMBER>
F1365-0180

>  <Chemical_Name>
ethyl (2Z)-2-{[4-(2,5-dioxopyrrolidin-1-yl)benzoyl]imino}-3-(prop-2-en-1-yl)-2,3-dihydro-1,3-benzothiazole-6-carboxylate

>  <PriceCoeff>
1.00

>  <CAS>
865174-65-8

>  <MW>
463.51

>  <Description>
solid

>  <FSP3>
0.21

>  <clogP>
4.22

>  <TPSA>
121.65

>  <Acceptor>
5

>  <Donor>
0

>  <RotBonds>
8

>  <HAC>
33

>  <Collection>
General

>  <PPDS>
+

$$$$
F1365-0240
  Mrv2219 10102508112D          

 28 30  0  0  0  0            999 V2000
   -1.1649    2.3882    0.0000 C   0  0  0  0  0  0  0  0  0  0  0  0
    1.3194    3.8162    0.0000 N   0  0  0  0  0  0  0  0  0  0  0  0
   -1.6492    1.7244    0.0000 N   0  0  0  0  0  0  0  0  0  0  0  0
   -0.3382    2.3799    0.0000 N   0  0  0  0  0  0  0  0  0  0  0  0
   -1.6492    3.0563    0.0000 S   0  0  0  0  0  0  0  0  0  0  0  0
   -2.4383    2.8016    0.0000 C   0  0  0  0  0  0  0  0  0  0  0  0
   -2.4383    1.9749    0.0000 C   0  0  0  0  0  0  0  0  0  0  0  0
    2.1336    3.8913    0.0000 C   0  0  0  0  0  0  0  0  0  0  0  0
    0.9812    4.5511    0.0000 C   0  0  0  0  0  0  0  0  0  0  0  0
    0.0752    3.0939    0.0000 C   0  0  0  0  0  0  0  0  0  0  0  0
    0.9019    3.0939    0.0000 C   0  0  0  0  0  0  0  0  0  0  0  0
   -4.5928    3.2192    0.0000 C   0  0  0  0  0  0  0  0  0  0  0  0
   -3.1523    3.2149    0.0000 C   0  0  0  0  0  0  0  0  0  0  0  0
   -3.8663    2.8016    0.0000 C   0  0  0  0  0  0  0  0  0  0  0  0
   -3.1523    1.5615    0.0000 C   0  0  0  0  0  0  0  0  0  0  0  0
    1.5950    5.1023    0.0000 C   0  0  0  0  0  0  0  0  0  0  0  0
    2.3173    4.7014    0.0000 C   0  0  0  0  0  0  0  0  0  0  0  0
    0.1796    4.7390    0.0000 O   0  0  0  0  0  0  0  0  0  0  0  0
    2.6931    3.2776    0.0000 O   0  0  0  0  0  0  0  0  0  0  0  0
   -3.8663    1.9749    0.0000 C   0  0  0  0  0  0  0  0  0  0  0  0
   -0.3382    3.8079    0.0000 O   0  0  0  0  0  0  0  0  0  0  0  0
   -5.3068    2.8058    0.0000 O   0  0  0  0  0  0  0  0  0  0  0  0
   -1.9498    0.3215    0.0000 C   0  0  0  0  0  0  0  0  0  0  0  0
   -1.3987    0.9352    0.0000 C   0  0  0  0  0  0  0  0  0  0  0  0
   -2.7557    0.4885    0.0000 C   0  0  0  0  0  0  0  0  0  0  0  0
   -4.5803    4.0376    0.0000 O   0  0  0  0  0  0  0  0  0  0  0  0
   -5.3068    4.4634    0.0000 C   0  0  0  0  0  0  0  0  0  0  0  0
   -5.2985    5.2859    0.0000 C   0  0  0  0  0  0  0  0  0  0  0  0
  2 11  1  0  0  0  0
  3  1  1  0  0  0  0
  4  1  2  0  0  0  0
  5  1  1  0  0  0  0
  6  5  1  0  0  0  0
  7  3  1  0  0  0  0
  8  2  1  0  0  0  0
  9  2  1  0  0  0  0
 10  4  1  0  0  0  0
 11 10  1  0  0  0  0
 12 14  1  0  0  0  0
 13  6  1  0  0  0  0
 14 13  2  0  0  0  0
 15  7  1  0  0  0  0
 16  9  1  0  0  0  0
 17  8  1  0  0  0  0
 18  9  2  0  0  0  0
 19  8  2  0  0  0  0
 20 15  2  0  0  0  0
 21 10  2  0  0  0  0
 22 12  2  0  0  0  0
 23 24  1  0  0  0  0
 24  3  1  0  0  0  0
 25 23  2  0  0  0  0
 26 12  1  0  0  0  0
 27 26  1  0  0  0  0
 28 27  1  0  0  0  0
  7  6  2  0  0  0  0
 20 14  1  0  0  0  0
 17 16  1  0  0  0  0
M  END
>  <IDNUMBER>
F1365-0240

>  <Chemical_Name>
ethyl (2Z)-2-{[2-(2,5-dioxopyrrolidin-1-yl)acetyl]imino}-3-(prop-2-en-1-yl)-2,3-dihydro-1,3-benzothiazole-6-carboxylate

>  <PriceCoeff>
1.00

>  <CAS>
865174-79-4

>  <MW>
401.44

>  <Description>
solid

>  <FSP3>
0.32

>  <clogP>
4.05

>  <TPSA>
121.65

>  <Acceptor>
5

>  <Donor>
0

>  <RotBonds>
8

>  <HAC>
28

>  <Collection>
General

>  <PPDS>
+

$$$$
F1365-0330
  Mrv2219 10102508112D          

 32 35  0  0  0  0            999 V2000
   -1.1625    2.3833    0.0000 C   0  0  0  0  0  0  0  0  0  0  0  0
   -0.3375    2.3750    0.0000 N   0  0  0  0  0  0  0  0  0  0  0  0
    2.5542    1.6500    0.0000 N   0  0  0  0  0  0  0  0  0  0  0  0
   -1.6458    1.7208    0.0000 N   0  0  0  0  0  0  0  0  0  0  0  0
   -1.6458    3.0500    0.0000 S   0  0  0  0  0  0  0  0  0  0  0  0
   -2.4333    2.7958    0.0000 C   0  0  0  0  0  0  0  0  0  0  0  0
   -2.4333    1.9708    0.0000 C   0  0  0  0  0  0  0  0  0  0  0  0
    0.0750    3.0875    0.0000 C   0  0  0  0  0  0  0  0  0  0  0  0
    2.1292    2.3708    0.0000 C   0  0  0  0  0  0  0  0  0  0  0  0
    3.3667    1.5333    0.0000 C   0  0  0  0  0  0  0  0  0  0  0  0
    2.1750    0.9125    0.0000 C   0  0  0  0  0  0  0  0  0  0  0  0
   -4.5833    3.2125    0.0000 C   0  0  0  0  0  0  0  0  0  0  0  0
   -3.1458    3.2083    0.0000 C   0  0  0  0  0  0  0  0  0  0  0  0
   -3.8583    2.7958    0.0000 C   0  0  0  0  0  0  0  0  0  0  0  0
    1.3125    2.3750    0.0000 C   0  0  0  0  0  0  0  0  0  0  0  0
    0.9000    3.0875    0.0000 C   0  0  0  0  0  0  0  0  0  0  0  0
   -3.1458    1.5583    0.0000 C   0  0  0  0  0  0  0  0  0  0  0  0
   -0.3375    3.8000    0.0000 O   0  0  0  0  0  0  0  0  0  0  0  0
    3.5042    0.7125    0.0000 C   0  0  0  0  0  0  0  0  0  0  0  0
    2.7792    0.3250    0.0000 C   0  0  0  0  0  0  0  0  0  0  0  0
    3.9500    2.1083    0.0000 O   0  0  0  0  0  0  0  0  0  0  0  0
    1.3667    0.7833    0.0000 O   0  0  0  0  0  0  0  0  0  0  0  0
   -3.8583    1.9708    0.0000 C   0  0  0  0  0  0  0  0  0  0  0  0
   -5.2875    2.8000    0.0000 O   0  0  0  0  0  0  0  0  0  0  0  0
   -1.9458    0.3208    0.0000 C   0  0  0  0  0  0  0  0  0  0  0  0
   -1.3958    0.9333    0.0000 C   0  0  0  0  0  0  0  0  0  0  0  0
   -2.7500    0.4875    0.0000 C   0  0  0  0  0  0  0  0  0  0  0  0
   -4.5708    4.0292    0.0000 O   0  0  0  0  0  0  0  0  0  0  0  0
    2.5542    3.0833    0.0000 C   0  0  0  0  0  0  0  0  0  0  0  0
    1.3167    3.8083    0.0000 C   0  0  0  0  0  0  0  0  0  0  0  0
    2.1417    3.8000    0.0000 C   0  0  0  0  0  0  0  0  0  0  0  0
   -5.2875    4.4417    0.0000 C   0  0  0  0  0  0  0  0  0  0  0  0
  2  1  2  0  0  0  0
  3  9  1  0  0  0  0
  4  1  1  0  0  0  0
  5  1  1  0  0  0  0
  6  5  1  0  0  0  0
  7  4  1  0  0  0  0
  8  2  1  0  0  0  0
  9 15  1  0  0  0  0
 10  3  1  0  0  0  0
 11  3  1  0  0  0  0
 12 14  1  0  0  0  0
 13  6  1  0  0  0  0
 14 13  2  0  0  0  0
 15 16  2  0  0  0  0
 16  8  1  0  0  0  0
 17  7  1  0  0  0  0
 18  8  2  0  0  0  0
 19 10  1  0  0  0  0
 20 11  1  0  0  0  0
 21 10  2  0  0  0  0
 22 11  2  0  0  0  0
 23 17  2  0  0  0  0
 24 12  2  0  0  0  0
 25 26  1  0  0  0  0
 26  4  1  0  0  0  0
 27 25  2  0  0  0  0
 28 12  1  0  0  0  0
 29 31  1  0  0  0  0
 30 16  1  0  0  0  0
 31 30  2  0  0  0  0
 32 28  1  0  0  0  0
  7  6  2  0  0  0  0
 23 14  1  0  0  0  0
  9 29  2  0  0  0  0
 19 20  1  0  0  0  0
M  END
>  <IDNUMBER>
F1365-0330

>  <Chemical_Name>
methyl (2Z)-2-{[3-(2,5-dioxopyrrolidin-1-yl)benzoyl]imino}-3-(prop-2-en-1-yl)-2,3-dihydro-1,3-benzothiazole-6-carboxylate

>  <PriceCoeff>
1.00

>  <CAS>
941976-63-2

>  <MW>
449.48

>  <Description>
solid

>  <FSP3>
0.17

>  <clogP>
3.69

>  <TPSA>
121.65

>  <Acceptor>
5

>  <Donor>
0

>  <RotBonds>
7

>  <HAC>
32

>  <Collection>
General

>  <PPDS>
+

$$$$
F1365-0372
  Mrv2219 10102508112D          

 27 29  0  0  0  0            999 V2000
   -1.1649    2.3882    0.0000 C   0  0  0  0  0  0  0  0  0  0  0  0
    1.3194    3.8162    0.0000 N   0  0  0  0  0  0  0  0  0  0  0  0
   -1.6492    1.7244    0.0000 N   0  0  0  0  0  0  0  0  0  0  0  0
   -0.3382    2.3799    0.0000 N   0  0  0  0  0  0  0  0  0  0  0  0
   -1.6492    3.0563    0.0000 S   0  0  0  0  0  0  0  0  0  0  0  0
   -2.4383    2.8016    0.0000 C   0  0  0  0  0  0  0  0  0  0  0  0
   -2.4383    1.9749    0.0000 C   0  0  0  0  0  0  0  0  0  0  0  0
    2.1336    3.8913    0.0000 C   0  0  0  0  0  0  0  0  0  0  0  0
    0.9812    4.5511    0.0000 C   0  0  0  0  0  0  0  0  0  0  0  0
    0.0752    3.0939    0.0000 C   0  0  0  0  0  0  0  0  0  0  0  0
    0.9019    3.0939    0.0000 C   0  0  0  0  0  0  0  0  0  0  0  0
   -4.5928    3.2192    0.0000 C   0  0  0  0  0  0  0  0  0  0  0  0
   -3.1523    3.2149    0.0000 C   0  0  0  0  0  0  0  0  0  0  0  0
   -3.8663    2.8016    0.0000 C   0  0  0  0  0  0  0  0  0  0  0  0
   -3.1523    1.5615    0.0000 C   0  0  0  0  0  0  0  0  0  0  0  0
    1.5950    5.1023    0.0000 C   0  0  0  0  0  0  0  0  0  0  0  0
    2.3173    4.7014    0.0000 C   0  0  0  0  0  0  0  0  0  0  0  0
    0.1796    4.7390    0.0000 O   0  0  0  0  0  0  0  0  0  0  0  0
    2.6931    3.2776    0.0000 O   0  0  0  0  0  0  0  0  0  0  0  0
   -3.8663    1.9749    0.0000 C   0  0  0  0  0  0  0  0  0  0  0  0
   -0.3382    3.8079    0.0000 O   0  0  0  0  0  0  0  0  0  0  0  0
   -5.2985    2.8058    0.0000 O   0  0  0  0  0  0  0  0  0  0  0  0
   -1.9498    0.3215    0.0000 C   0  0  0  0  0  0  0  0  0  0  0  0
   -1.3987    0.9352    0.0000 C   0  0  0  0  0  0  0  0  0  0  0  0
   -2.7557    0.4885    0.0000 C   0  0  0  0  0  0  0  0  0  0  0  0
   -4.5803    4.0376    0.0000 O   0  0  0  0  0  0  0  0  0  0  0  0
   -5.2985    4.4509    0.0000 C   0  0  0  0  0  0  0  0  0  0  0  0
  2 11  1  0  0  0  0
  3  1  1  0  0  0  0
  4  1  2  0  0  0  0
  5  1  1  0  0  0  0
  6  5  1  0  0  0  0
  7  3  1  0  0  0  0
  8  2  1  0  0  0  0
  9  2  1  0  0  0  0
 10  4  1  0  0  0  0
 11 10  1  0  0  0  0
 12 14  1  0  0  0  0
 13  6  1  0  0  0  0
 14 13  2  0  0  0  0
 15  7  1  0  0  0  0
 16  9  1  0  0  0  0
 17  8  1  0  0  0  0
 18  9  2  0  0  0  0
 19  8  2  0  0  0  0
 20 15  2  0  0  0  0
 21 10  2  0  0  0  0
 22 12  2  0  0  0  0
 23 24  1  0  0  0  0
 24  3  1  0  0  0  0
 25 23  2  0  0  0  0
 26 12  1  0  0  0  0
 27 26  1  0  0  0  0
  7  6  2  0  0  0  0
 20 14  1  0  0  0  0
 17 16  1  0  0  0  0
M  END
>  <IDNUMBER>
F1365-0372

>  <Chemical_Name>
methyl (2Z)-2-{[2-(2,5-dioxopyrrolidin-1-yl)acetyl]imino}-3-(prop-2-en-1-yl)-2,3-dihydro-1,3-benzothiazole-6-carboxylate

>  <PriceCoeff>
1.00

>  <CAS>
865174-97-6

>  <MW>
387.41

>  <Description>
solid

>  <FSP3>
0.28

>  <clogP>
3.52

>  <TPSA>
121.65

>  <Acceptor>
5

>  <Donor>
0

>  <RotBonds>
7

>  <HAC>
27

>  <Collection>
General

>  <PPDS>
+

$$$$
F1365-0594
  Mrv2219 10102508112D          

 29 32  0  0  0  0            999 V2000
   -1.1636    2.3855    0.0000 C   0  0  0  0  0  0  0  0  0  0  0  0
   -0.3378    2.3772    0.0000 N   0  0  0  0  0  0  0  0  0  0  0  0
    2.5566    1.6516    0.0000 N   0  0  0  0  0  0  0  0  0  0  0  0
   -1.6473    1.7224    0.0000 N   0  0  0  0  0  0  0  0  0  0  0  0
   -1.6473    3.0529    0.0000 S   0  0  0  0  0  0  0  0  0  0  0  0
   -2.4356    2.7984    0.0000 C   0  0  0  0  0  0  0  0  0  0  0  0
   -2.4356    1.9727    0.0000 C   0  0  0  0  0  0  0  0  0  0  0  0
    0.0751    3.0904    0.0000 C   0  0  0  0  0  0  0  0  0  0  0  0
    2.1312    2.3730    0.0000 C   0  0  0  0  0  0  0  0  0  0  0  0
    3.3699    1.5347    0.0000 C   0  0  0  0  0  0  0  0  0  0  0  0
    2.1770    0.9134    0.0000 C   0  0  0  0  0  0  0  0  0  0  0  0
    1.3137    2.3772    0.0000 C   0  0  0  0  0  0  0  0  0  0  0  0
    0.9008    3.0904    0.0000 C   0  0  0  0  0  0  0  0  0  0  0  0
   -3.1488    3.2113    0.0000 C   0  0  0  0  0  0  0  0  0  0  0  0
   -3.1488    1.5598    0.0000 C   0  0  0  0  0  0  0  0  0  0  0  0
   -0.3378    3.8036    0.0000 O   0  0  0  0  0  0  0  0  0  0  0  0
    3.5075    0.7132    0.0000 C   0  0  0  0  0  0  0  0  0  0  0  0
    2.7818    0.3253    0.0000 C   0  0  0  0  0  0  0  0  0  0  0  0
    3.9537    2.1103    0.0000 O   0  0  0  0  0  0  0  0  0  0  0  0
    1.3680    0.7840    0.0000 O   0  0  0  0  0  0  0  0  0  0  0  0
   -1.9476    0.3211    0.0000 C   0  0  0  0  0  0  0  0  0  0  0  0
   -1.3971    0.9342    0.0000 C   0  0  0  0  0  0  0  0  0  0  0  0
   -3.8619    2.7984    0.0000 C   0  0  0  0  0  0  0  0  0  0  0  0
   -2.7526    0.4880    0.0000 C   0  0  0  0  0  0  0  0  0  0  0  0
   -3.8619    1.9727    0.0000 C   0  0  0  0  0  0  0  0  0  0  0  0
   -4.5876    3.2155    0.0000 Cl  0  0  0  0  0  0  0  0  0  0  0  0
    2.5566    3.0862    0.0000 C   0  0  0  0  0  0  0  0  0  0  0  0
    1.3179    3.8119    0.0000 C   0  0  0  0  0  0  0  0  0  0  0  0
    2.1437    3.8036    0.0000 C   0  0  0  0  0  0  0  0  0  0  0  0
  2  1  2  0  0  0  0
  3  9  1  0  0  0  0
  4  1  1  0  0  0  0
  5  1  1  0  0  0  0
  6  5  1  0  0  0  0
  7  4  1  0  0  0  0
  8  2  1  0  0  0  0
  9 12  1  0  0  0  0
 10  3  1  0  0  0  0
 11  3  1  0  0  0  0
 12 13  2  0  0  0  0
 13  8  1  0  0  0  0
 14  6  1  0  0  0  0
 15  7  1  0  0  0  0
 16  8  2  0  0  0  0
 17 10  1  0  0  0  0
 18 11  1  0  0  0  0
 19 10  2  0  0  0  0
 20 11  2  0  0  0  0
 21 22  1  0  0  0  0
 22  4  1  0  0  0  0
 23 14  2  0  0  0  0
 24 21  2  0  0  0  0
 25 15  2  0  0  0  0
 26 23  1  0  0  0  0
 27 29  1  0  0  0  0
 28 13  1  0  0  0  0
 29 28  2  0  0  0  0
  7  6  2  0  0  0  0
 25 23  1  0  0  0  0
  9 27  2  0  0  0  0
 17 18  1  0  0  0  0
M  END
>  <IDNUMBER>
F1365-0594

>  <Chemical_Name>
N-[(2Z)-6-chloro-3-(prop-2-en-1-yl)-2,3-dihydro-1,3-benzothiazol-2-ylidene]-3-(2,5-dioxopyrrolidin-1-yl)benzamide

>  <PriceCoeff>
1.00

>  <CAS>
941871-49-4

>  <MW>
425.89

>  <Description>
solid

>  <FSP3>
0.14

>  <clogP>
4.44

>  <TPSA>
95.35

>  <Acceptor>
3

>  <Donor>
0

>  <RotBonds>
5

>  <HAC>
29

>  <Collection>
General

>  <PPDS>
+

$$$$
F1365-0768
  Mrv2219 10102508112D          

 24 26  0  0  0  0            999 V2000
   -1.1649    2.3882    0.0000 C   0  0  0  0  0  0  0  0  0  0  0  0
    1.3194    3.8162    0.0000 N   0  0  0  0  0  0  0  0  0  0  0  0
   -1.6492    1.7244    0.0000 N   0  0  0  0  0  0  0  0  0  0  0  0
   -0.3382    2.3799    0.0000 N   0  0  0  0  0  0  0  0  0  0  0  0
   -1.6492    3.0563    0.0000 S   0  0  0  0  0  0  0  0  0  0  0  0
   -2.4383    2.8016    0.0000 C   0  0  0  0  0  0  0  0  0  0  0  0
   -2.4383    1.9749    0.0000 C   0  0  0  0  0  0  0  0  0  0  0  0
    2.1336    3.8913    0.0000 C   0  0  0  0  0  0  0  0  0  0  0  0
    0.9812    4.5511    0.0000 C   0  0  0  0  0  0  0  0  0  0  0  0
    0.0752    3.0939    0.0000 C   0  0  0  0  0  0  0  0  0  0  0  0
    0.9019    3.0939    0.0000 C   0  0  0  0  0  0  0  0  0  0  0  0
   -3.1523    3.2149    0.0000 C   0  0  0  0  0  0  0  0  0  0  0  0
   -3.1523    1.5615    0.0000 C   0  0  0  0  0  0  0  0  0  0  0  0
    1.5950    5.1023    0.0000 C   0  0  0  0  0  0  0  0  0  0  0  0
    2.3173    4.7014    0.0000 C   0  0  0  0  0  0  0  0  0  0  0  0
    0.1796    4.7390    0.0000 O   0  0  0  0  0  0  0  0  0  0  0  0
    2.6931    3.2776    0.0000 O   0  0  0  0  0  0  0  0  0  0  0  0
   -0.3382    3.8079    0.0000 O   0  0  0  0  0  0  0  0  0  0  0  0
   -1.9498    0.3215    0.0000 C   0  0  0  0  0  0  0  0  0  0  0  0
   -1.3987    0.9352    0.0000 C   0  0  0  0  0  0  0  0  0  0  0  0
   -3.8663    2.8016    0.0000 C   0  0  0  0  0  0  0  0  0  0  0  0
   -2.7557    0.4885    0.0000 C   0  0  0  0  0  0  0  0  0  0  0  0
   -3.8663    1.9749    0.0000 C   0  0  0  0  0  0  0  0  0  0  0  0
   -4.5928    3.2192    0.0000 Br  0  0  0  0  0  0  0  0  0  0  0  0
  2 11  1  0  0  0  0
  3  1  1  0  0  0  0
  4  1  2  0  0  0  0
  5  1  1  0  0  0  0
  6  5  1  0  0  0  0
  7  3  1  0  0  0  0
  8  2  1  0  0  0  0
  9  2  1  0  0  0  0
 10  4  1  0  0  0  0
 11 10  1  0  0  0  0
 12  6  1  0  0  0  0
 13  7  1  0  0  0  0
 14  9  1  0  0  0  0
 15  8  1  0  0  0  0
 16  9  2  0  0  0  0
 17  8  2  0  0  0  0
 18 10  2  0  0  0  0
 19 20  1  0  0  0  0
 20  3  1  0  0  0  0
 21 12  2  0  0  0  0
 22 19  2  0  0  0  0
 23 13  2  0  0  0  0
 24 21  1  0  0  0  0
  7  6  2  0  0  0  0
 23 21  1  0  0  0  0
 15 14  1  0  0  0  0
M  END
>  <IDNUMBER>
F1365-0768

>  <Chemical_Name>
N-[(2Z)-6-bromo-3-(prop-2-en-1-yl)-2,3-dihydro-1,3-benzothiazol-2-ylidene]-2-(2,5-dioxopyrrolidin-1-yl)acetamide

>  <PriceCoeff>
1.00

>  <CAS>
865175-26-4

>  <MW>
408.27

>  <Description>
solid

>  <FSP3>
0.25

>  <clogP>
4.41

>  <TPSA>
95.35

>  <Acceptor>
3

>  <Donor>
0

>  <RotBonds>
5

>  <HAC>
24

>  <Collection>
General

>  <PPDS>
+

$$$$
F1365-0858
  Mrv2219 10102508112D          

 29 32  0  0  0  0            999 V2000
   -1.1636    2.3855    0.0000 C   0  0  0  0  0  0  0  0  0  0  0  0
   -0.3378    2.3772    0.0000 N   0  0  0  0  0  0  0  0  0  0  0  0
    2.5566    1.6516    0.0000 N   0  0  0  0  0  0  0  0  0  0  0  0
   -1.6473    1.7224    0.0000 N   0  0  0  0  0  0  0  0  0  0  0  0
   -1.6473    3.0529    0.0000 S   0  0  0  0  0  0  0  0  0  0  0  0
   -2.4356    2.7984    0.0000 C   0  0  0  0  0  0  0  0  0  0  0  0
   -2.4356    1.9727    0.0000 C   0  0  0  0  0  0  0  0  0  0  0  0
    0.0751    3.0904    0.0000 C   0  0  0  0  0  0  0  0  0  0  0  0
    2.1312    2.3730    0.0000 C   0  0  0  0  0  0  0  0  0  0  0  0
    3.3699    1.5347    0.0000 C   0  0  0  0  0  0  0  0  0  0  0  0
    2.1770    0.9134    0.0000 C   0  0  0  0  0  0  0  0  0  0  0  0
    1.3137    2.3772    0.0000 C   0  0  0  0  0  0  0  0  0  0  0  0
    0.9008    3.0904    0.0000 C   0  0  0  0  0  0  0  0  0  0  0  0
   -3.1488    3.2113    0.0000 C   0  0  0  0  0  0  0  0  0  0  0  0
   -3.1488    1.5598    0.0000 C   0  0  0  0  0  0  0  0  0  0  0  0
   -0.3378    3.8036    0.0000 O   0  0  0  0  0  0  0  0  0  0  0  0
    3.5075    0.7132    0.0000 C   0  0  0  0  0  0  0  0  0  0  0  0
    2.7818    0.3253    0.0000 C   0  0  0  0  0  0  0  0  0  0  0  0
    3.9537    2.1103    0.0000 O   0  0  0  0  0  0  0  0  0  0  0  0
    1.3680    0.7840    0.0000 O   0  0  0  0  0  0  0  0  0  0  0  0
   -1.9476    0.3211    0.0000 C   0  0  0  0  0  0  0  0  0  0  0  0
   -1.3971    0.9342    0.0000 C   0  0  0  0  0  0  0  0  0  0  0  0
   -3.8619    2.7984    0.0000 C   0  0  0  0  0  0  0  0  0  0  0  0
   -2.7526    0.4880    0.0000 C   0  0  0  0  0  0  0  0  0  0  0  0
   -3.8619    1.9727    0.0000 C   0  0  0  0  0  0  0  0  0  0  0  0
   -4.5876    3.2155    0.0000 F   0  0  0  0  0  0  0  0  0  0  0  0
    2.5566    3.0862    0.0000 C   0  0  0  0  0  0  0  0  0  0  0  0
    1.3179    3.8119    0.0000 C   0  0  0  0  0  0  0  0  0  0  0  0
    2.1437    3.8036    0.0000 C   0  0  0  0  0  0  0  0  0  0  0  0
  2  1  2  0  0  0  0
  3  9  1  0  0  0  0
  4  1  1  0  0  0  0
  5  1  1  0  0  0  0
  6  5  1  0  0  0  0
  7  4  1  0  0  0  0
  8  2  1  0  0  0  0
  9 12  1  0  0  0  0
 10  3  1  0  0  0  0
 11  3  1  0  0  0  0
 12 13  2  0  0  0  0
 13  8  1  0  0  0  0
 14  6  1  0  0  0  0
 15  7  1  0  0  0  0
 16  8  2  0  0  0  0
 17 10  1  0  0  0  0
 18 11  1  0  0  0  0
 19 10  2  0  0  0  0
 20 11  2  0  0  0  0
 21 22  1  0  0  0  0
 22  4  1  0  0  0  0
 23 14  2  0  0  0  0
 24 21  2  0  0  0  0
 25 15  2  0  0  0  0
 26 23  1  0  0  0  0
 27 29  1  0  0  0  0
 28 13  1  0  0  0  0
 29 28  2  0  0  0  0
  7  6  2  0  0  0  0
 25 23  1  0  0  0  0
  9 27  2  0  0  0  0
 17 18  1  0  0  0  0
M  END
>  <IDNUMBER>
F1365-0858

>  <Chemical_Name>
3-(2,5-dioxopyrrolidin-1-yl)-N-[(2Z)-6-fluoro-3-(prop-2-en-1-yl)-2,3-dihydro-1,3-benzothiazol-2-ylidene]benzamide

>  <PriceCoeff>
1.00

>  <CAS>
941976-78-9

>  <MW>
409.43

>  <Description>
solid

>  <FSP3>
0.14

>  <clogP>
3.87

>  <TPSA>
95.35

>  <Acceptor>
3

>  <Donor>
0

>  <RotBonds>
5

>  <HAC>
29

>  <Collection>
General

>  <PPDS>
+

$$$$
F1365-1104
  Mrv2219 10102508112D          

 32 35  0  0  0  0            999 V2000
   -1.1649    2.3882    0.0000 C   0  0  0  0  0  0  0  0  0  0  0  0
   -0.3382    2.3799    0.0000 N   0  0  0  0  0  0  0  0  0  0  0  0
   -1.6492    1.7244    0.0000 N   0  0  0  0  0  0  0  0  0  0  0  0
    3.3862    3.0772    0.0000 N   0  0  0  0  0  0  0  0  0  0  0  0
   -1.6492    3.0563    0.0000 S   0  0  0  0  0  0  0  0  0  0  0  0
   -4.5928    3.2192    0.0000 S   0  0  0  0  0  0  0  0  0  0  0  0
   -2.4383    2.8016    0.0000 C   0  0  0  0  0  0  0  0  0  0  0  0
   -2.4383    1.9749    0.0000 C   0  0  0  0  0  0  0  0  0  0  0  0
    0.0752    3.0939    0.0000 C   0  0  0  0  0  0  0  0  0  0  0  0
    3.8580    3.7661    0.0000 C   0  0  0  0  0  0  0  0  0  0  0  0
    3.8998    2.4300    0.0000 C   0  0  0  0  0  0  0  0  0  0  0  0
   -3.8663    2.8016    0.0000 C   0  0  0  0  0  0  0  0  0  0  0  0
   -3.1523    3.2149    0.0000 C   0  0  0  0  0  0  0  0  0  0  0  0
    2.5595    3.0897    0.0000 C   0  0  0  0  0  0  0  0  0  0  0  0
   -3.1523    1.5615    0.0000 C   0  0  0  0  0  0  0  0  0  0  0  0
    0.9019    3.0939    0.0000 C   0  0  0  0  0  0  0  0  0  0  0  0
   -5.0312    2.5135    0.0000 O   0  0  0  0  0  0  0  0  0  0  0  0
   -4.1544    3.9164    0.0000 O   0  0  0  0  0  0  0  0  0  0  0  0
   -0.3382    3.8079    0.0000 O   0  0  0  0  0  0  0  0  0  0  0  0
    4.6513    3.5323    0.0000 C   0  0  0  0  0  0  0  0  0  0  0  0
    4.6764    2.7139    0.0000 C   0  0  0  0  0  0  0  0  0  0  0  0
   -3.8663    1.9749    0.0000 C   0  0  0  0  0  0  0  0  0  0  0  0
    3.5741    4.5511    0.0000 O   0  0  0  0  0  0  0  0  0  0  0  0
    3.6743    1.6367    0.0000 O   0  0  0  0  0  0  0  0  0  0  0  0
    2.1461    3.8079    0.0000 C   0  0  0  0  0  0  0  0  0  0  0  0
    2.1336    2.3757    0.0000 C   0  0  0  0  0  0  0  0  0  0  0  0
    1.3152    2.3882    0.0000 C   0  0  0  0  0  0  0  0  0  0  0  0
    1.3277    3.8162    0.0000 C   0  0  0  0  0  0  0  0  0  0  0  0
   -1.9498    0.3215    0.0000 C   0  0  0  0  0  0  0  0  0  0  0  0
   -1.3987    0.9352    0.0000 C   0  0  0  0  0  0  0  0  0  0  0  0
   -2.7557    0.4885    0.0000 C   0  0  0  0  0  0  0  0  0  0  0  0
   -5.2942    3.6534    0.0000 C   0  0  0  0  0  0  0  0  0  0  0  0
  2  1  2  0  0  0  0
  3  1  1  0  0  0  0
  4 14  1  0  0  0  0
  5  1  1  0  0  0  0
  6 12  1  0  0  0  0
  7  5  1  0  0  0  0
  8  3  1  0  0  0  0
  9  2  1  0  0  0  0
 10  4  1  0  0  0  0
 11  4  1  0  0  0  0
 12 13  2  0  0  0  0
 13  7  1  0  0  0  0
 14 25  1  0  0  0  0
 15  8  1  0  0  0  0
 16  9  1  0  0  0  0
 17  6  2  0  0  0  0
 18  6  2  0  0  0  0
 19  9  2  0  0  0  0
 20 10  1  0  0  0  0
 21 11  1  0  0  0  0
 22 15  2  0  0  0  0
 23 10  2  0  0  0  0
 24 11  2  0  0  0  0
 25 28  2  0  0  0  0
 26 27  1  0  0  0  0
 27 16  2  0  0  0  0
 28 16  1  0  0  0  0
 29 30  1  0  0  0  0
 30  3  1  0  0  0  0
 31 29  2  0  0  0  0
 32  6  1  0  0  0  0
  8  7  2  0  0  0  0
 22 12  1  0  0  0  0
 14 26  2  0  0  0  0
 20 21  1  0  0  0  0
M  END
>  <IDNUMBER>
F1365-1104

>  <Chemical_Name>
4-(2,5-dioxopyrrolidin-1-yl)-N-[(2Z)-6-methanesulfonyl-3-(prop-2-en-1-yl)-2,3-dihydro-1,3-benzothiazol-2-ylidene]benzamide

>  <PriceCoeff>
1.00

>  <CAS>
865175-58-2

>  <MW>
469.53

>  <Description>
solid

>  <FSP3>
0.18

>  <clogP>
2.08

>  <TPSA>
137.87

>  <Acceptor>
5

>  <Donor>
0

>  <RotBonds>
6

>  <HAC>
32

>  <Collection>
General

>  <PPDS>
+

$$$$
F1365-1164
  Mrv2219 10102508112D          

 27 29  0  0  0  0            999 V2000
   -1.1649    2.3882    0.0000 C   0  0  0  0  0  0  0  0  0  0  0  0
    1.3194    3.8162    0.0000 N   0  0  0  0  0  0  0  0  0  0  0  0
   -1.6492    1.7244    0.0000 N   0  0  0  0  0  0  0  0  0  0  0  0
   -0.3382    2.3799    0.0000 N   0  0  0  0  0  0  0  0  0  0  0  0
   -1.6492    3.0563    0.0000 S   0  0  0  0  0  0  0  0  0  0  0  0
   -4.5928    3.2192    0.0000 S   0  0  0  0  0  0  0  0  0  0  0  0
   -2.4383    2.8016    0.0000 C   0  0  0  0  0  0  0  0  0  0  0  0
   -2.4383    1.9749    0.0000 C   0  0  0  0  0  0  0  0  0  0  0  0
    2.1336    3.8913    0.0000 C   0  0  0  0  0  0  0  0  0  0  0  0
    0.9812    4.5511    0.0000 C   0  0  0  0  0  0  0  0  0  0  0  0
    0.0752    3.0939    0.0000 C   0  0  0  0  0  0  0  0  0  0  0  0
   -3.8663    2.8016    0.0000 C   0  0  0  0  0  0  0  0  0  0  0  0
   -3.1523    3.2149    0.0000 C   0  0  0  0  0  0  0  0  0  0  0  0
    0.9019    3.0939    0.0000 C   0  0  0  0  0  0  0  0  0  0  0  0
   -3.1523    1.5615    0.0000 C   0  0  0  0  0  0  0  0  0  0  0  0
   -4.1544    3.9164    0.0000 O   0  0  0  0  0  0  0  0  0  0  0  0
   -5.0312    2.5135    0.0000 O   0  0  0  0  0  0  0  0  0  0  0  0
    1.5950    5.1023    0.0000 C   0  0  0  0  0  0  0  0  0  0  0  0
    2.3173    4.7014    0.0000 C   0  0  0  0  0  0  0  0  0  0  0  0
   -3.8663    1.9749    0.0000 C   0  0  0  0  0  0  0  0  0  0  0  0
    0.1796    4.7390    0.0000 O   0  0  0  0  0  0  0  0  0  0  0  0
    2.6931    3.2776    0.0000 O   0  0  0  0  0  0  0  0  0  0  0  0
   -0.3382    3.8079    0.0000 O   0  0  0  0  0  0  0  0  0  0  0  0
   -1.9498    0.3215    0.0000 C   0  0  0  0  0  0  0  0  0  0  0  0
   -1.3987    0.9352    0.0000 C   0  0  0  0  0  0  0  0  0  0  0  0
   -2.7557    0.4885    0.0000 C   0  0  0  0  0  0  0  0  0  0  0  0
   -5.2942    3.6534    0.0000 C   0  0  0  0  0  0  0  0  0  0  0  0
  2 14  1  0  0  0  0
  3  1  1  0  0  0  0
  4  1  2  0  0  0  0
  5  1  1  0  0  0  0
  6 12  1  0  0  0  0
  7  5  1  0  0  0  0
  8  3  1  0  0  0  0
  9  2  1  0  0  0  0
 10  2  1  0  0  0  0
 11  4  1  0  0  0  0
 12 13  2  0  0  0  0
 13  7  1  0  0  0  0
 14 11  1  0  0  0  0
 15  8  1  0  0  0  0
 16  6  2  0  0  0  0
 17  6  2  0  0  0  0
 18 10  1  0  0  0  0
 19  9  1  0  0  0  0
 20 15  2  0  0  0  0
 21 10  2  0  0  0  0
 22  9  2  0  0  0  0
 23 11  2  0  0  0  0
 24 25  1  0  0  0  0
 25  3  1  0  0  0  0
 26 24  2  0  0  0  0
 27  6  1  0  0  0  0
  8  7  2  0  0  0  0
 20 12  1  0  0  0  0
 19 18  1  0  0  0  0
M  END
>  <IDNUMBER>
F1365-1164

>  <Chemical_Name>
2-(2,5-dioxopyrrolidin-1-yl)-N-[(2Z)-6-methanesulfonyl-3-(prop-2-en-1-yl)-2,3-dihydro-1,3-benzothiazol-2-ylidene]acetamide

>  <PriceCoeff>
1.00

>  <CAS>
865175-74-2

>  <MW>
407.46

>  <Description>
solid

>  <FSP3>
0.29

>  <clogP>
1.91

>  <TPSA>
137.87

>  <Acceptor>
5

>  <Donor>
0

>  <RotBonds>
6

>  <HAC>
27

>  <Collection>
General

>  <PPDS>
+

$$$$
F1365-1236
  Mrv2219 10102508112D          

 32 35  0  0  0  0            999 V2000
   -1.1649    2.3882    0.0000 C   0  0  0  0  0  0  0  0  0  0  0  0
   -0.3382    2.3799    0.0000 N   0  0  0  0  0  0  0  0  0  0  0  0
   -4.5928    3.2192    0.0000 S   0  0  0  0  0  0  0  0  0  0  0  0
   -1.6492    1.7244    0.0000 N   0  0  0  0  0  0  0  0  0  0  0  0
    3.3862    3.0772    0.0000 N   0  0  0  0  0  0  0  0  0  0  0  0
   -1.6492    3.0563    0.0000 S   0  0  0  0  0  0  0  0  0  0  0  0
   -2.4383    2.8016    0.0000 C   0  0  0  0  0  0  0  0  0  0  0  0
   -2.4383    1.9749    0.0000 C   0  0  0  0  0  0  0  0  0  0  0  0
    0.0752    3.0939    0.0000 C   0  0  0  0  0  0  0  0  0  0  0  0
    3.8580    3.7661    0.0000 C   0  0  0  0  0  0  0  0  0  0  0  0
    3.8998    2.4300    0.0000 C   0  0  0  0  0  0  0  0  0  0  0  0
   -3.8663    2.8016    0.0000 C   0  0  0  0  0  0  0  0  0  0  0  0
   -3.1523    3.2149    0.0000 C   0  0  0  0  0  0  0  0  0  0  0  0
    2.5595    3.0897    0.0000 C   0  0  0  0  0  0  0  0  0  0  0  0
   -3.1523    1.5615    0.0000 C   0  0  0  0  0  0  0  0  0  0  0  0
   -4.1544    3.9164    0.0000 O   0  0  0  0  0  0  0  0  0  0  0  0
   -5.0312    2.5135    0.0000 O   0  0  0  0  0  0  0  0  0  0  0  0
    0.9019    3.0939    0.0000 C   0  0  0  0  0  0  0  0  0  0  0  0
   -5.2942    3.6534    0.0000 N   0  0  0  0  0  0  0  0  0  0  0  0
   -0.3382    3.8079    0.0000 O   0  0  0  0  0  0  0  0  0  0  0  0
   -3.8663    1.9749    0.0000 C   0  0  0  0  0  0  0  0  0  0  0  0
    4.6513    3.5323    0.0000 C   0  0  0  0  0  0  0  0  0  0  0  0
    4.6764    2.7139    0.0000 C   0  0  0  0  0  0  0  0  0  0  0  0
    3.5741    4.5511    0.0000 O   0  0  0  0  0  0  0  0  0  0  0  0
    3.6743    1.6367    0.0000 O   0  0  0  0  0  0  0  0  0  0  0  0
    2.1461    3.8079    0.0000 C   0  0  0  0  0  0  0  0  0  0  0  0
    2.1336    2.3757    0.0000 C   0  0  0  0  0  0  0  0  0  0  0  0
    1.3152    2.3882    0.0000 C   0  0  0  0  0  0  0  0  0  0  0  0
    1.3277    3.8162    0.0000 C   0  0  0  0  0  0  0  0  0  0  0  0
   -1.9498    0.3215    0.0000 C   0  0  0  0  0  0  0  0  0  0  0  0
   -1.3987    0.9352    0.0000 C   0  0  0  0  0  0  0  0  0  0  0  0
   -2.7557    0.4885    0.0000 C   0  0  0  0  0  0  0  0  0  0  0  0
  2  1  2  0  0  0  0
  3 12  1  0  0  0  0
  4  1  1  0  0  0  0
  5 14  1  0  0  0  0
  6  1  1  0  0  0  0
  7  6  1  0  0  0  0
  8  4  1  0  0  0  0
  9  2  1  0  0  0  0
 10  5  1  0  0  0  0
 11  5  1  0  0  0  0
 12 13  2  0  0  0  0
 13  7  1  0  0  0  0
 14 26  1  0  0  0  0
 15  8  1  0  0  0  0
 16  3  2  0  0  0  0
 17  3  2  0  0  0  0
 18  9  1  0  0  0  0
 19  3  1  0  0  0  0
 20  9  2  0  0  0  0
 21 15  2  0  0  0  0
 22 10  1  0  0  0  0
 23 11  1  0  0  0  0
 24 10  2  0  0  0  0
 25 11  2  0  0  0  0
 26 29  2  0  0  0  0
 27 28  1  0  0  0  0
 28 18  2  0  0  0  0
 29 18  1  0  0  0  0
 30 31  1  0  0  0  0
 31  4  1  0  0  0  0
 32 30  2  0  0  0  0
  8  7  2  0  0  0  0
 21 12  1  0  0  0  0
 14 27  2  0  0  0  0
 22 23  1  0  0  0  0
M  END
>  <IDNUMBER>
F1365-1236

>  <Chemical_Name>
4-(2,5-dioxopyrrolidin-1-yl)-N-[(2Z)-3-(prop-2-en-1-yl)-6-sulfamoyl-2,3-dihydro-1,3-benzothiazol-2-ylidene]benzamide

>  <PriceCoeff>
1.00

>  <CAS>
865176-24-5

>  <MW>
470.52

>  <Description>
solid

>  <FSP3>
0.14

>  <clogP>
1.89

>  <TPSA>
163.89

>  <Acceptor>
5

>  <Donor>
1

>  <RotBonds>
6

>  <HAC>
32

>  <Collection>
General

>  <PPDS>
+

$$$$
F1365-1254
  Mrv2219 10102508112D          

 32 35  0  0  0  0            999 V2000
   -1.1648    2.3879    0.0000 C   0  0  0  0  0  0  0  0  0  0  0  0
   -0.3381    2.3796    0.0000 N   0  0  0  0  0  0  0  0  0  0  0  0
   -4.5922    3.2188    0.0000 S   0  0  0  0  0  0  0  0  0  0  0  0
    2.5592    1.6532    0.0000 N   0  0  0  0  0  0  0  0  0  0  0  0
   -1.6490    1.7241    0.0000 N   0  0  0  0  0  0  0  0  0  0  0  0
   -1.6490    3.0559    0.0000 S   0  0  0  0  0  0  0  0  0  0  0  0
   -2.4381    2.8013    0.0000 C   0  0  0  0  0  0  0  0  0  0  0  0
   -2.4381    1.9746    0.0000 C   0  0  0  0  0  0  0  0  0  0  0  0
    0.0751    3.0935    0.0000 C   0  0  0  0  0  0  0  0  0  0  0  0
    2.1333    2.3754    0.0000 C   0  0  0  0  0  0  0  0  0  0  0  0
    3.3732    1.5363    0.0000 C   0  0  0  0  0  0  0  0  0  0  0  0
    2.1792    0.9143    0.0000 C   0  0  0  0  0  0  0  0  0  0  0  0
   -3.8658    2.8013    0.0000 C   0  0  0  0  0  0  0  0  0  0  0  0
   -3.1519    3.2145    0.0000 C   0  0  0  0  0  0  0  0  0  0  0  0
    1.3151    2.3796    0.0000 C   0  0  0  0  0  0  0  0  0  0  0  0
    0.9018    3.0935    0.0000 C   0  0  0  0  0  0  0  0  0  0  0  0
   -3.1519    1.5613    0.0000 C   0  0  0  0  0  0  0  0  0  0  0  0
   -4.1539    3.9159    0.0000 O   0  0  0  0  0  0  0  0  0  0  0  0
   -5.0306    2.5132    0.0000 O   0  0  0  0  0  0  0  0  0  0  0  0
   -5.2936    3.6529    0.0000 N   0  0  0  0  0  0  0  0  0  0  0  0
   -0.3381    3.8074    0.0000 O   0  0  0  0  0  0  0  0  0  0  0  0
   -3.8658    1.9746    0.0000 C   0  0  0  0  0  0  0  0  0  0  0  0
    3.5110    0.7138    0.0000 C   0  0  0  0  0  0  0  0  0  0  0  0
    2.7846    0.3256    0.0000 C   0  0  0  0  0  0  0  0  0  0  0  0
    3.9576    2.1124    0.0000 O   0  0  0  0  0  0  0  0  0  0  0  0
    1.3694    0.7848    0.0000 O   0  0  0  0  0  0  0  0  0  0  0  0
   -1.9496    0.3214    0.0000 C   0  0  0  0  0  0  0  0  0  0  0  0
   -1.3985    0.9352    0.0000 C   0  0  0  0  0  0  0  0  0  0  0  0
   -2.7554    0.4884    0.0000 C   0  0  0  0  0  0  0  0  0  0  0  0
    2.5592    3.0893    0.0000 C   0  0  0  0  0  0  0  0  0  0  0  0
    1.3193    3.8157    0.0000 C   0  0  0  0  0  0  0  0  0  0  0  0
    2.1458    3.8074    0.0000 C   0  0  0  0  0  0  0  0  0  0  0  0
  2  1  2  0  0  0  0
  3 13  1  0  0  0  0
  4 10  1  0  0  0  0
  5  1  1  0  0  0  0
  6  1  1  0  0  0  0
  7  6  1  0  0  0  0
  8  5  1  0  0  0  0
  9  2  1  0  0  0  0
 10 15  1  0  0  0  0
 11  4  1  0  0  0  0
 12  4  1  0  0  0  0
 13 14  2  0  0  0  0
 14  7  1  0  0  0  0
 15 16  2  0  0  0  0
 16  9  1  0  0  0  0
 17  8  1  0  0  0  0
 18  3  2  0  0  0  0
 19  3  2  0  0  0  0
 20  3  1  0  0  0  0
 21  9  2  0  0  0  0
 22 17  2  0  0  0  0
 23 11  1  0  0  0  0
 24 12  1  0  0  0  0
 25 11  2  0  0  0  0
 26 12  2  0  0  0  0
 27 28  1  0  0  0  0
 28  5  1  0  0  0  0
 29 27  2  0  0  0  0
 30 32  1  0  0  0  0
 31 16  1  0  0  0  0
 32 31  2  0  0  0  0
  8  7  2  0  0  0  0
 22 13  1  0  0  0  0
 10 30  2  0  0  0  0
 23 24  1  0  0  0  0
M  END
>  <IDNUMBER>
F1365-1254

>  <Chemical_Name>
3-(2,5-dioxopyrrolidin-1-yl)-N-[(2Z)-3-(prop-2-en-1-yl)-6-sulfamoyl-2,3-dihydro-1,3-benzothiazol-2-ylidene]benzamide

>  <PriceCoeff>
1.00

>  <CAS>
865176-40-5

>  <MW>
470.52

>  <Description>
solid

>  <FSP3>
0.14

>  <clogP>
1.89

>  <TPSA>
163.89

>  <Acceptor>
5

>  <Donor>
1

>  <RotBonds>
6

>  <HAC>
32

>  <Collection>
General

>  <PPDS>
+

$$$$
F1365-1296
  Mrv2219 10102508112D          

 27 29  0  0  0  0            999 V2000
   -1.1649    2.3882    0.0000 C   0  0  0  0  0  0  0  0  0  0  0  0
    1.3194    3.8162    0.0000 N   0  0  0  0  0  0  0  0  0  0  0  0
   -4.5928    3.2192    0.0000 S   0  0  0  0  0  0  0  0  0  0  0  0
   -1.6492    1.7244    0.0000 N   0  0  0  0  0  0  0  0  0  0  0  0
   -0.3382    2.3799    0.0000 N   0  0  0  0  0  0  0  0  0  0  0  0
   -1.6492    3.0563    0.0000 S   0  0  0  0  0  0  0  0  0  0  0  0
   -2.4383    2.8016    0.0000 C   0  0  0  0  0  0  0  0  0  0  0  0
   -2.4383    1.9749    0.0000 C   0  0  0  0  0  0  0  0  0  0  0  0
    2.1336    3.8913    0.0000 C   0  0  0  0  0  0  0  0  0  0  0  0
    0.9812    4.5511    0.0000 C   0  0  0  0  0  0  0  0  0  0  0  0
    0.0752    3.0939    0.0000 C   0  0  0  0  0  0  0  0  0  0  0  0
   -3.8663    2.8016    0.0000 C   0  0  0  0  0  0  0  0  0  0  0  0
   -3.1523    3.2149    0.0000 C   0  0  0  0  0  0  0  0  0  0  0  0
    0.9019    3.0939    0.0000 C   0  0  0  0  0  0  0  0  0  0  0  0
   -3.1523    1.5615    0.0000 C   0  0  0  0  0  0  0  0  0  0  0  0
   -4.1544    3.9164    0.0000 O   0  0  0  0  0  0  0  0  0  0  0  0
   -5.0312    2.5135    0.0000 O   0  0  0  0  0  0  0  0  0  0  0  0
   -5.2942    3.6534    0.0000 N   0  0  0  0  0  0  0  0  0  0  0  0
   -3.8663    1.9749    0.0000 C   0  0  0  0  0  0  0  0  0  0  0  0
    1.5950    5.1023    0.0000 C   0  0  0  0  0  0  0  0  0  0  0  0
    2.3173    4.7014    0.0000 C   0  0  0  0  0  0  0  0  0  0  0  0
    0.1796    4.7390    0.0000 O   0  0  0  0  0  0  0  0  0  0  0  0
    2.6931    3.2776    0.0000 O   0  0  0  0  0  0  0  0  0  0  0  0
   -0.3382    3.8079    0.0000 O   0  0  0  0  0  0  0  0  0  0  0  0
   -1.9498    0.3215    0.0000 C   0  0  0  0  0  0  0  0  0  0  0  0
   -1.3987    0.9352    0.0000 C   0  0  0  0  0  0  0  0  0  0  0  0
   -2.7557    0.4885    0.0000 C   0  0  0  0  0  0  0  0  0  0  0  0
  2 14  1  0  0  0  0
  3 12  1  0  0  0  0
  4  1  1  0  0  0  0
  5  1  2  0  0  0  0
  6  1  1  0  0  0  0
  7  6  1  0  0  0  0
  8  4  1  0  0  0  0
  9  2  1  0  0  0  0
 10  2  1  0  0  0  0
 11  5  1  0  0  0  0
 12 13  2  0  0  0  0
 13  7  1  0  0  0  0
 14 11  1  0  0  0  0
 15  8  1  0  0  0  0
 16  3  2  0  0  0  0
 17  3  2  0  0  0  0
 18  3  1  0  0  0  0
 19 15  2  0  0  0  0
 20 10  1  0  0  0  0
 21  9  1  0  0  0  0
 22 10  2  0  0  0  0
 23  9  2  0  0  0  0
 24 11  2  0  0  0  0
 25 26  1  0  0  0  0
 26  4  1  0  0  0  0
 27 25  2  0  0  0  0
  8  7  2  0  0  0  0
 19 12  1  0  0  0  0
 21 20  1  0  0  0  0
M  END
>  <IDNUMBER>
F1365-1296

>  <Chemical_Name>
2-(2,5-dioxopyrrolidin-1-yl)-N-[(2Z)-3-(prop-2-en-1-yl)-6-sulfamoyl-2,3-dihydro-1,3-benzothiazol-2-ylidene]acetamide

>  <PriceCoeff>
1.00

>  <CAS>
1164457-94-6

>  <MW>
408.45

>  <Description>
solid

>  <FSP3>
0.25

>  <clogP>
1.71

>  <TPSA>
163.89

>  <Acceptor>
5

>  <Donor>
1

>  <RotBonds>
6

>  <HAC>
27

>  <Collection>
General

>  <PPDS>
+

$$$$
F1365-1692
  Mrv2219 10102508112D          

 26 28  0  0  0  0            999 V2000
   -1.1649    2.3882    0.0000 C   0  0  0  0  0  0  0  0  0  0  0  0
    1.3194    3.8162    0.0000 N   0  0  0  0  0  0  0  0  0  0  0  0
   -1.6492    1.7244    0.0000 N   0  0  0  0  0  0  0  0  0  0  0  0
   -0.3382    2.3799    0.0000 N   0  0  0  0  0  0  0  0  0  0  0  0
   -1.6492    3.0563    0.0000 S   0  0  0  0  0  0  0  0  0  0  0  0
   -2.4383    2.8016    0.0000 C   0  0  0  0  0  0  0  0  0  0  0  0
   -2.4383    1.9749    0.0000 C   0  0  0  0  0  0  0  0  0  0  0  0
    2.1336    3.8913    0.0000 C   0  0  0  0  0  0  0  0  0  0  0  0
    0.9812    4.5511    0.0000 C   0  0  0  0  0  0  0  0  0  0  0  0
    0.0752    3.0939    0.0000 C   0  0  0  0  0  0  0  0  0  0  0  0
    0.9019    3.0939    0.0000 C   0  0  0  0  0  0  0  0  0  0  0  0
   -3.1523    3.2149    0.0000 C   0  0  0  0  0  0  0  0  0  0  0  0
   -3.1523    1.5615    0.0000 C   0  0  0  0  0  0  0  0  0  0  0  0
    1.5950    5.1023    0.0000 C   0  0  0  0  0  0  0  0  0  0  0  0
    2.3173    4.7014    0.0000 C   0  0  0  0  0  0  0  0  0  0  0  0
    0.1796    4.7390    0.0000 O   0  0  0  0  0  0  0  0  0  0  0  0
    2.6931    3.2776    0.0000 O   0  0  0  0  0  0  0  0  0  0  0  0
   -0.3382    3.8079    0.0000 O   0  0  0  0  0  0  0  0  0  0  0  0
   -1.9498    0.3215    0.0000 C   0  0  0  0  0  0  0  0  0  0  0  0
   -1.3987    0.9352    0.0000 C   0  0  0  0  0  0  0  0  0  0  0  0
   -3.8663    2.8016    0.0000 C   0  0  0  0  0  0  0  0  0  0  0  0
   -2.7557    0.4885    0.0000 C   0  0  0  0  0  0  0  0  0  0  0  0
   -3.8663    1.9749    0.0000 C   0  0  0  0  0  0  0  0  0  0  0  0
   -4.5928    3.2192    0.0000 O   0  0  0  0  0  0  0  0  0  0  0  0
   -5.3068    2.8058    0.0000 C   0  0  0  0  0  0  0  0  0  0  0  0
   -5.3068    1.9791    0.0000 C   0  0  0  0  0  0  0  0  0  0  0  0
  2 11  1  0  0  0  0
  3  1  1  0  0  0  0
  4  1  2  0  0  0  0
  5  1  1  0  0  0  0
  6  5  1  0  0  0  0
  7  3  1  0  0  0  0
  8  2  1  0  0  0  0
  9  2  1  0  0  0  0
 10  4  1  0  0  0  0
 11 10  1  0  0  0  0
 12  6  1  0  0  0  0
 13  7  1  0  0  0  0
 14  9  1  0  0  0  0
 15  8  1  0  0  0  0
 16  9  2  0  0  0  0
 17  8  2  0  0  0  0
 18 10  2  0  0  0  0
 19 20  1  0  0  0  0
 20  3  1  0  0  0  0
 21 12  2  0  0  0  0
 22 19  2  0  0  0  0
 23 13  2  0  0  0  0
 24 21  1  0  0  0  0
 25 24  1  0  0  0  0
 26 25  1  0  0  0  0
  7  6  2  0  0  0  0
 23 21  1  0  0  0  0
 15 14  1  0  0  0  0
M  END
>  <IDNUMBER>
F1365-1692

>  <Chemical_Name>
2-(2,5-dioxopyrrolidin-1-yl)-N-[(2Z)-6-ethoxy-3-(prop-2-en-1-yl)-2,3-dihydro-1,3-benzothiazol-2-ylidene]acetamide

>  <PriceCoeff>
1.00

>  <CAS>
865180-79-6

>  <MW>
373.43

>  <Description>
solid

>  <FSP3>
0.33

>  <clogP>
4.00

>  <TPSA>
104.58

>  <Acceptor>
4

>  <Donor>
0

>  <RotBonds>
7

>  <HAC>
26

>  <Collection>
General

>  <PPDS>
+

$$$$
F1365-1782
  Mrv2219 10102508112D          

 29 32  0  0  0  0            999 V2000
   -1.1625    2.3833    0.0000 C   0  0  0  0  0  0  0  0  0  0  0  0
   -0.3375    2.3750    0.0000 N   0  0  0  0  0  0  0  0  0  0  0  0
    2.5542    1.6500    0.0000 N   0  0  0  0  0  0  0  0  0  0  0  0
   -1.6458    1.7208    0.0000 N   0  0  0  0  0  0  0  0  0  0  0  0
   -1.6458    3.0500    0.0000 S   0  0  0  0  0  0  0  0  0  0  0  0
   -2.4333    2.7958    0.0000 C   0  0  0  0  0  0  0  0  0  0  0  0
   -2.4333    1.9708    0.0000 C   0  0  0  0  0  0  0  0  0  0  0  0
    0.0750    3.0875    0.0000 C   0  0  0  0  0  0  0  0  0  0  0  0
    2.1292    2.3708    0.0000 C   0  0  0  0  0  0  0  0  0  0  0  0
    3.3667    1.5333    0.0000 C   0  0  0  0  0  0  0  0  0  0  0  0
    2.1750    0.9125    0.0000 C   0  0  0  0  0  0  0  0  0  0  0  0
    1.3125    2.3750    0.0000 C   0  0  0  0  0  0  0  0  0  0  0  0
    0.9000    3.0875    0.0000 C   0  0  0  0  0  0  0  0  0  0  0  0
   -1.9458    0.3208    0.0000 C   0  0  0  0  0  0  0  0  0  0  0  0
   -2.4958   -0.2917    0.0000 C   0  0  0  0  0  0  0  0  0  0  0  0
   -3.1458    1.5583    0.0000 C   0  0  0  0  0  0  0  0  0  0  0  0
   -3.1458    3.2083    0.0000 C   0  0  0  0  0  0  0  0  0  0  0  0
   -0.3375    3.8000    0.0000 O   0  0  0  0  0  0  0  0  0  0  0  0
    3.5042    0.7125    0.0000 C   0  0  0  0  0  0  0  0  0  0  0  0
    2.7792    0.3250    0.0000 C   0  0  0  0  0  0  0  0  0  0  0  0
    3.9500    2.1083    0.0000 O   0  0  0  0  0  0  0  0  0  0  0  0
    1.3667    0.7833    0.0000 O   0  0  0  0  0  0  0  0  0  0  0  0
   -1.3958    0.9333    0.0000 C   0  0  0  0  0  0  0  0  0  0  0  0
   -3.8583    1.9708    0.0000 C   0  0  0  0  0  0  0  0  0  0  0  0
   -3.8583    2.7958    0.0000 C   0  0  0  0  0  0  0  0  0  0  0  0
    2.5542    3.0833    0.0000 C   0  0  0  0  0  0  0  0  0  0  0  0
    1.3167    3.8083    0.0000 C   0  0  0  0  0  0  0  0  0  0  0  0
    2.1417    3.8000    0.0000 C   0  0  0  0  0  0  0  0  0  0  0  0
   -4.5833    3.2125    0.0000 C   0  0  0  0  0  0  0  0  0  0  0  0
  2  1  2  0  0  0  0
  3  9  1  0  0  0  0
  4  1  1  0  0  0  0
  5  1  1  0  0  0  0
  6  5  1  0  0  0  0
  7  4  1  0  0  0  0
  8  2  1  0  0  0  0
  9 12  1  0  0  0  0
 10  3  1  0  0  0  0
 11  3  1  0  0  0  0
 12 13  2  0  0  0  0
 13  8  1  0  0  0  0
 14 23  1  0  0  0  0
 15 14  3  0  0  0  0
 16  7  1  0  0  0  0
 17  6  1  0  0  0  0
 18  8  2  0  0  0  0
 19 10  1  0  0  0  0
 20 11  1  0  0  0  0
 21 10  2  0  0  0  0
 22 11  2  0  0  0  0
 23  4  1  0  0  0  0
 24 16  2  0  0  0  0
 25 17  2  0  0  0  0
 26 28  1  0  0  0  0
 27 13  1  0  0  0  0
 28 27  2  0  0  0  0
 29 25  1  0  0  0  0
  7  6  2  0  0  0  0
 24 25  1  0  0  0  0
  9 26  2  0  0  0  0
 19 20  1  0  0  0  0
M  END
>  <IDNUMBER>
F1365-1782

>  <Chemical_Name>
3-(2,5-dioxopyrrolidin-1-yl)-N-[(2Z)-6-methyl-3-(prop-2-yn-1-yl)-2,3-dihydro-1,3-benzothiazol-2-ylidene]benzamide

>  <PriceCoeff>
1.00

>  <CAS>
865180-85-4

>  <MW>
403.45

>  <Description>
solid

>  <FSP3>
0.18

>  <clogP>
3.55

>  <TPSA>
95.35

>  <Acceptor>
3

>  <Donor>
0

>  <RotBonds>
5

>  <HAC>
29

>  <Collection>
General

>  <PPDS>
+

$$$$
F1365-1896
  Mrv2219 10102508112D          

 33 36  0  0  0  0            999 V2000
   -1.1649    2.3882    0.0000 C   0  0  0  0  0  0  0  0  0  0  0  0
   -0.3382    2.3799    0.0000 N   0  0  0  0  0  0  0  0  0  0  0  0
   -1.6492    1.7244    0.0000 N   0  0  0  0  0  0  0  0  0  0  0  0
    3.3862    3.0772    0.0000 N   0  0  0  0  0  0  0  0  0  0  0  0
   -1.6492    3.0563    0.0000 S   0  0  0  0  0  0  0  0  0  0  0  0
   -2.4383    2.8016    0.0000 C   0  0  0  0  0  0  0  0  0  0  0  0
   -2.4383    1.9749    0.0000 C   0  0  0  0  0  0  0  0  0  0  0  0
    0.0752    3.0939    0.0000 C   0  0  0  0  0  0  0  0  0  0  0  0
    3.8580    3.7661    0.0000 C   0  0  0  0  0  0  0  0  0  0  0  0
    3.8998    2.4300    0.0000 C   0  0  0  0  0  0  0  0  0  0  0  0
   -4.5928    3.2192    0.0000 C   0  0  0  0  0  0  0  0  0  0  0  0
   -3.1523    3.2149    0.0000 C   0  0  0  0  0  0  0  0  0  0  0  0
   -3.8663    2.8016    0.0000 C   0  0  0  0  0  0  0  0  0  0  0  0
    2.5595    3.0897    0.0000 C   0  0  0  0  0  0  0  0  0  0  0  0
   -1.9498    0.3215    0.0000 C   0  0  0  0  0  0  0  0  0  0  0  0
   -3.1523    1.5615    0.0000 C   0  0  0  0  0  0  0  0  0  0  0  0
   -2.5010   -0.2923    0.0000 C   0  0  0  0  0  0  0  0  0  0  0  0
    0.9019    3.0939    0.0000 C   0  0  0  0  0  0  0  0  0  0  0  0
   -0.3382    3.8079    0.0000 O   0  0  0  0  0  0  0  0  0  0  0  0
    4.6513    3.5323    0.0000 C   0  0  0  0  0  0  0  0  0  0  0  0
    4.6764    2.7139    0.0000 C   0  0  0  0  0  0  0  0  0  0  0  0
    3.5741    4.5511    0.0000 O   0  0  0  0  0  0  0  0  0  0  0  0
    3.6743    1.6367    0.0000 O   0  0  0  0  0  0  0  0  0  0  0  0
   -3.8663    1.9749    0.0000 C   0  0  0  0  0  0  0  0  0  0  0  0
   -5.3068    2.8058    0.0000 O   0  0  0  0  0  0  0  0  0  0  0  0
   -1.3987    0.9352    0.0000 C   0  0  0  0  0  0  0  0  0  0  0  0
    2.1461    3.8079    0.0000 C   0  0  0  0  0  0  0  0  0  0  0  0
    2.1336    2.3757    0.0000 C   0  0  0  0  0  0  0  0  0  0  0  0
    1.3152    2.3882    0.0000 C   0  0  0  0  0  0  0  0  0  0  0  0
    1.3277    3.8162    0.0000 C   0  0  0  0  0  0  0  0  0  0  0  0
   -4.5803    4.0376    0.0000 O   0  0  0  0  0  0  0  0  0  0  0  0
   -5.3068    4.4634    0.0000 C   0  0  0  0  0  0  0  0  0  0  0  0
   -5.2985    5.2859    0.0000 C   0  0  0  0  0  0  0  0  0  0  0  0
  2  1  2  0  0  0  0
  3  1  1  0  0  0  0
  4 14  1  0  0  0  0
  5  1  1  0  0  0  0
  6  5  1  0  0  0  0
  7  3  1  0  0  0  0
  8  2  1  0  0  0  0
  9  4  1  0  0  0  0
 10  4  1  0  0  0  0
 11 13  1  0  0  0  0
 12  6  1  0  0  0  0
 13 12  2  0  0  0  0
 14 27  1  0  0  0  0
 15 26  1  0  0  0  0
 16  7  1  0  0  0  0
 17 15  3  0  0  0  0
 18  8  1  0  0  0  0
 19  8  2  0  0  0  0
 20  9  1  0  0  0  0
 21 10  1  0  0  0  0
 22  9  2  0  0  0  0
 23 10  2  0  0  0  0
 24 16  2  0  0  0  0
 25 11  2  0  0  0  0
 26  3  1  0  0  0  0
 27 30  2  0  0  0  0
 28 29  1  0  0  0  0
 29 18  2  0  0  0  0
 30 18  1  0  0  0  0
 31 11  1  0  0  0  0
 32 31  1  0  0  0  0
 33 32  1  0  0  0  0
  7  6  2  0  0  0  0
 24 13  1  0  0  0  0
 14 28  2  0  0  0  0
 20 21  1  0  0  0  0
M  END
>  <IDNUMBER>
F1365-1896

>  <Chemical_Name>
ethyl (2Z)-2-{[4-(2,5-dioxopyrrolidin-1-yl)benzoyl]imino}-3-(prop-2-yn-1-yl)-2,3-dihydro-1,3-benzothiazole-6-carboxylate

>  <PriceCoeff>
1.00

>  <CAS>
865180-91-2

>  <MW>
461.49

>  <Description>
solid

>  <FSP3>
0.21

>  <clogP>
3.55

>  <TPSA>
121.65

>  <Acceptor>
5

>  <Donor>
0

>  <RotBonds>
8

>  <HAC>
33

>  <Collection>
General

>  <PPDS>
+

$$$$
F1365-2046
  Mrv2219 10102508112D          

 32 35  0  0  0  0            999 V2000
   -1.1625    2.3833    0.0000 C   0  0  0  0  0  0  0  0  0  0  0  0
   -0.3375    2.3750    0.0000 N   0  0  0  0  0  0  0  0  0  0  0  0
    2.5542    1.6500    0.0000 N   0  0  0  0  0  0  0  0  0  0  0  0
   -1.6458    1.7208    0.0000 N   0  0  0  0  0  0  0  0  0  0  0  0
   -1.6458    3.0500    0.0000 S   0  0  0  0  0  0  0  0  0  0  0  0
   -2.4333    2.7958    0.0000 C   0  0  0  0  0  0  0  0  0  0  0  0
   -2.4333    1.9708    0.0000 C   0  0  0  0  0  0  0  0  0  0  0  0
    0.0750    3.0875    0.0000 C   0  0  0  0  0  0  0  0  0  0  0  0
    2.1292    2.3708    0.0000 C   0  0  0  0  0  0  0  0  0  0  0  0
    3.3667    1.5333    0.0000 C   0  0  0  0  0  0  0  0  0  0  0  0
    2.1750    0.9125    0.0000 C   0  0  0  0  0  0  0  0  0  0  0  0
   -4.5833    3.2125    0.0000 C   0  0  0  0  0  0  0  0  0  0  0  0
   -3.1458    3.2083    0.0000 C   0  0  0  0  0  0  0  0  0  0  0  0
   -3.8583    2.7958    0.0000 C   0  0  0  0  0  0  0  0  0  0  0  0
    1.3125    2.3750    0.0000 C   0  0  0  0  0  0  0  0  0  0  0  0
    0.9000    3.0875    0.0000 C   0  0  0  0  0  0  0  0  0  0  0  0
   -1.9458    0.3208    0.0000 C   0  0  0  0  0  0  0  0  0  0  0  0
   -3.1458    1.5583    0.0000 C   0  0  0  0  0  0  0  0  0  0  0  0
   -2.4958   -0.2917    0.0000 C   0  0  0  0  0  0  0  0  0  0  0  0
   -0.3375    3.8000    0.0000 O   0  0  0  0  0  0  0  0  0  0  0  0
    3.5042    0.7125    0.0000 C   0  0  0  0  0  0  0  0  0  0  0  0
    2.7792    0.3250    0.0000 C   0  0  0  0  0  0  0  0  0  0  0  0
    3.9500    2.1083    0.0000 O   0  0  0  0  0  0  0  0  0  0  0  0
    1.3667    0.7833    0.0000 O   0  0  0  0  0  0  0  0  0  0  0  0
   -3.8583    1.9708    0.0000 C   0  0  0  0  0  0  0  0  0  0  0  0
   -5.2875    2.8000    0.0000 O   0  0  0  0  0  0  0  0  0  0  0  0
   -1.3958    0.9333    0.0000 C   0  0  0  0  0  0  0  0  0  0  0  0
   -4.5708    4.0292    0.0000 O   0  0  0  0  0  0  0  0  0  0  0  0
    2.5542    3.0833    0.0000 C   0  0  0  0  0  0  0  0  0  0  0  0
    1.3167    3.8083    0.0000 C   0  0  0  0  0  0  0  0  0  0  0  0
    2.1417    3.8000    0.0000 C   0  0  0  0  0  0  0  0  0  0  0  0
   -5.2875    4.4417    0.0000 C   0  0  0  0  0  0  0  0  0  0  0  0
  2  1  2  0  0  0  0
  3  9  1  0  0  0  0
  4  1  1  0  0  0  0
  5  1  1  0  0  0  0
  6  5  1  0  0  0  0
  7  4  1  0  0  0  0
  8  2  1  0  0  0  0
  9 15  1  0  0  0  0
 10  3  1  0  0  0  0
 11  3  1  0  0  0  0
 12 14  1  0  0  0  0
 13  6  1  0  0  0  0
 14 13  2  0  0  0  0
 15 16  2  0  0  0  0
 16  8  1  0  0  0  0
 17 27  1  0  0  0  0
 18  7  1  0  0  0  0
 19 17  3  0  0  0  0
 20  8  2  0  0  0  0
 21 10  1  0  0  0  0
 22 11  1  0  0  0  0
 23 10  2  0  0  0  0
 24 11  2  0  0  0  0
 25 18  2  0  0  0  0
 26 12  2  0  0  0  0
 27  4  1  0  0  0  0
 28 12  1  0  0  0  0
 29 31  1  0  0  0  0
 30 16  1  0  0  0  0
 31 30  2  0  0  0  0
 32 28  1  0  0  0  0
  7  6  2  0  0  0  0
 25 14  1  0  0  0  0
  9 29  2  0  0  0  0
 21 22  1  0  0  0  0
M  END
>  <IDNUMBER>
F1365-2046

>  <Chemical_Name>
methyl (2Z)-2-{[3-(2,5-dioxopyrrolidin-1-yl)benzoyl]imino}-3-(prop-2-yn-1-yl)-2,3-dihydro-1,3-benzothiazole-6-carboxylate

>  <PriceCoeff>
1.00

>  <CAS>
941976-94-9

>  <MW>
447.46

>  <Description>
solid

>  <FSP3>
0.17

>  <clogP>
3.02

>  <TPSA>
121.65

>  <Acceptor>
5

>  <Donor>
0

>  <RotBonds>
7

>  <HAC>
32

>  <Collection>
General

>  <PPDS>
+

$$$$
F1365-2310
  Mrv2219 10102508112D          

 29 32  0  0  0  0            999 V2000
   -1.1636    2.3855    0.0000 C   0  0  0  0  0  0  0  0  0  0  0  0
   -0.3378    2.3772    0.0000 N   0  0  0  0  0  0  0  0  0  0  0  0
    2.5566    1.6516    0.0000 N   0  0  0  0  0  0  0  0  0  0  0  0
   -1.6473    1.7224    0.0000 N   0  0  0  0  0  0  0  0  0  0  0  0
   -1.6473    3.0529    0.0000 S   0  0  0  0  0  0  0  0  0  0  0  0
   -2.4356    2.7984    0.0000 C   0  0  0  0  0  0  0  0  0  0  0  0
   -2.4356    1.9727    0.0000 C   0  0  0  0  0  0  0  0  0  0  0  0
    0.0751    3.0904    0.0000 C   0  0  0  0  0  0  0  0  0  0  0  0
    2.1312    2.3730    0.0000 C   0  0  0  0  0  0  0  0  0  0  0  0
    3.3699    1.5347    0.0000 C   0  0  0  0  0  0  0  0  0  0  0  0
    2.1770    0.9134    0.0000 C   0  0  0  0  0  0  0  0  0  0  0  0
    1.3137    2.3772    0.0000 C   0  0  0  0  0  0  0  0  0  0  0  0
    0.9008    3.0904    0.0000 C   0  0  0  0  0  0  0  0  0  0  0  0
   -3.1488    3.2113    0.0000 C   0  0  0  0  0  0  0  0  0  0  0  0
   -1.9476    0.3211    0.0000 C   0  0  0  0  0  0  0  0  0  0  0  0
   -2.4981   -0.2920    0.0000 C   0  0  0  0  0  0  0  0  0  0  0  0
   -3.1488    1.5598    0.0000 C   0  0  0  0  0  0  0  0  0  0  0  0
   -0.3378    3.8036    0.0000 O   0  0  0  0  0  0  0  0  0  0  0  0
    3.5075    0.7132    0.0000 C   0  0  0  0  0  0  0  0  0  0  0  0
    2.7818    0.3253    0.0000 C   0  0  0  0  0  0  0  0  0  0  0  0
    3.9537    2.1103    0.0000 O   0  0  0  0  0  0  0  0  0  0  0  0
    1.3680    0.7840    0.0000 O   0  0  0  0  0  0  0  0  0  0  0  0
   -1.3971    0.9342    0.0000 C   0  0  0  0  0  0  0  0  0  0  0  0
   -3.8619    2.7984    0.0000 C   0  0  0  0  0  0  0  0  0  0  0  0
   -3.8619    1.9727    0.0000 C   0  0  0  0  0  0  0  0  0  0  0  0
   -4.5876    3.2155    0.0000 Cl  0  0  0  0  0  0  0  0  0  0  0  0
    2.5566    3.0862    0.0000 C   0  0  0  0  0  0  0  0  0  0  0  0
    1.3179    3.8119    0.0000 C   0  0  0  0  0  0  0  0  0  0  0  0
    2.1437    3.8036    0.0000 C   0  0  0  0  0  0  0  0  0  0  0  0
  2  1  2  0  0  0  0
  3  9  1  0  0  0  0
  4  1  1  0  0  0  0
  5  1  1  0  0  0  0
  6  5  1  0  0  0  0
  7  4  1  0  0  0  0
  8  2  1  0  0  0  0
  9 12  1  0  0  0  0
 10  3  1  0  0  0  0
 11  3  1  0  0  0  0
 12 13  2  0  0  0  0
 13  8  1  0  0  0  0
 14  6  1  0  0  0  0
 15 23  1  0  0  0  0
 16 15  3  0  0  0  0
 17  7  1  0  0  0  0
 18  8  2  0  0  0  0
 19 10  1  0  0  0  0
 20 11  1  0  0  0  0
 21 10  2  0  0  0  0
 22 11  2  0  0  0  0
 23  4  1  0  0  0  0
 24 14  2  0  0  0  0
 25 17  2  0  0  0  0
 26 24  1  0  0  0  0
 27 29  1  0  0  0  0
 28 13  1  0  0  0  0
 29 28  2  0  0  0  0
  7  6  2  0  0  0  0
 25 24  1  0  0  0  0
  9 27  2  0  0  0  0
 19 20  1  0  0  0  0
M  END
>  <IDNUMBER>
F1365-2310

>  <Chemical_Name>
N-[(2Z)-6-chloro-3-(prop-2-yn-1-yl)-2,3-dihydro-1,3-benzothiazol-2-ylidene]-3-(2,5-dioxopyrrolidin-1-yl)benzamide

>  <PriceCoeff>
1.00

>  <CAS>
941917-06-2

>  <MW>
423.87

>  <Description>
solid

>  <FSP3>
0.14

>  <clogP>
3.76

>  <TPSA>
95.35

>  <Acceptor>
3

>  <Donor>
0

>  <RotBonds>
5

>  <HAC>
29

>  <Collection>
General

>  <PPDS>
+

$$$$
F1365-2352
  Mrv2219 10102508112D          

 24 26  0  0  0  0            999 V2000
   -1.1649    2.3882    0.0000 C   0  0  0  0  0  0  0  0  0  0  0  0
    1.3194    3.8162    0.0000 N   0  0  0  0  0  0  0  0  0  0  0  0
   -1.6492    1.7244    0.0000 N   0  0  0  0  0  0  0  0  0  0  0  0
   -0.3382    2.3799    0.0000 N   0  0  0  0  0  0  0  0  0  0  0  0
   -1.6492    3.0563    0.0000 S   0  0  0  0  0  0  0  0  0  0  0  0
   -2.4383    2.8016    0.0000 C   0  0  0  0  0  0  0  0  0  0  0  0
   -2.4383    1.9749    0.0000 C   0  0  0  0  0  0  0  0  0  0  0  0
    2.1336    3.8913    0.0000 C   0  0  0  0  0  0  0  0  0  0  0  0
    0.9812    4.5511    0.0000 C   0  0  0  0  0  0  0  0  0  0  0  0
    0.0752    3.0939    0.0000 C   0  0  0  0  0  0  0  0  0  0  0  0
    0.9019    3.0939    0.0000 C   0  0  0  0  0  0  0  0  0  0  0  0
   -3.1523    3.2149    0.0000 C   0  0  0  0  0  0  0  0  0  0  0  0
   -1.9498    0.3215    0.0000 C   0  0  0  0  0  0  0  0  0  0  0  0
   -2.5010   -0.2923    0.0000 C   0  0  0  0  0  0  0  0  0  0  0  0
   -3.1523    1.5615    0.0000 C   0  0  0  0  0  0  0  0  0  0  0  0
    1.5950    5.1023    0.0000 C   0  0  0  0  0  0  0  0  0  0  0  0
    2.3173    4.7014    0.0000 C   0  0  0  0  0  0  0  0  0  0  0  0
    0.1796    4.7390    0.0000 O   0  0  0  0  0  0  0  0  0  0  0  0
    2.6931    3.2776    0.0000 O   0  0  0  0  0  0  0  0  0  0  0  0
   -0.3382    3.8079    0.0000 O   0  0  0  0  0  0  0  0  0  0  0  0
   -1.3987    0.9352    0.0000 C   0  0  0  0  0  0  0  0  0  0  0  0
   -3.8663    2.8016    0.0000 C   0  0  0  0  0  0  0  0  0  0  0  0
   -3.8663    1.9749    0.0000 C   0  0  0  0  0  0  0  0  0  0  0  0
   -4.5928    3.2192    0.0000 Cl  0  0  0  0  0  0  0  0  0  0  0  0
  2 11  1  0  0  0  0
  3  1  1  0  0  0  0
  4  1  2  0  0  0  0
  5  1  1  0  0  0  0
  6  5  1  0  0  0  0
  7  3  1  0  0  0  0
  8  2  1  0  0  0  0
  9  2  1  0  0  0  0
 10  4  1  0  0  0  0
 11 10  1  0  0  0  0
 12  6  1  0  0  0  0
 13 21  1  0  0  0  0
 14 13  3  0  0  0  0
 15  7  1  0  0  0  0
 16  9  1  0  0  0  0
 17  8  1  0  0  0  0
 18  9  2  0  0  0  0
 19  8  2  0  0  0  0
 20 10  2  0  0  0  0
 21  3  1  0  0  0  0
 22 12  2  0  0  0  0
 23 15  2  0  0  0  0
 24 22  1  0  0  0  0
  7  6  2  0  0  0  0
 23 22  1  0  0  0  0
 17 16  1  0  0  0  0
M  END
>  <IDNUMBER>
F1365-2352

>  <Chemical_Name>
N-[(2Z)-6-chloro-3-(prop-2-yn-1-yl)-2,3-dihydro-1,3-benzothiazol-2-ylidene]-2-(2,5-dioxopyrrolidin-1-yl)acetamide

>  <PriceCoeff>
1.00

>  <CAS>
865181-22-2

>  <MW>
361.80

>  <Description>
solid

>  <FSP3>
0.25

>  <clogP>
3.59

>  <TPSA>
95.35

>  <Acceptor>
3

>  <Donor>
0

>  <RotBonds>
5

>  <HAC>
24

>  <Collection>
General

>  <PPDS>
+

$$$$
F1365-2424
  Mrv2219 10102508112D          

 29 32  0  0  0  0            999 V2000
   -1.1649    2.3882    0.0000 C   0  0  0  0  0  0  0  0  0  0  0  0
   -0.3382    2.3799    0.0000 N   0  0  0  0  0  0  0  0  0  0  0  0
   -1.6492    1.7244    0.0000 N   0  0  0  0  0  0  0  0  0  0  0  0
    3.3862    3.0772    0.0000 N   0  0  0  0  0  0  0  0  0  0  0  0
   -1.6492    3.0563    0.0000 S   0  0  0  0  0  0  0  0  0  0  0  0
   -2.4383    2.8016    0.0000 C   0  0  0  0  0  0  0  0  0  0  0  0
   -2.4383    1.9749    0.0000 C   0  0  0  0  0  0  0  0  0  0  0  0
    0.0752    3.0939    0.0000 C   0  0  0  0  0  0  0  0  0  0  0  0
    3.8580    3.7661    0.0000 C   0  0  0  0  0  0  0  0  0  0  0  0
    3.8998    2.4300    0.0000 C   0  0  0  0  0  0  0  0  0  0  0  0
   -3.1523    3.2149    0.0000 C   0  0  0  0  0  0  0  0  0  0  0  0
    2.5595    3.0897    0.0000 C   0  0  0  0  0  0  0  0  0  0  0  0
   -1.9498    0.3215    0.0000 C   0  0  0  0  0  0  0  0  0  0  0  0
   -2.5010   -0.2923    0.0000 C   0  0  0  0  0  0  0  0  0  0  0  0
   -3.1523    1.5615    0.0000 C   0  0  0  0  0  0  0  0  0  0  0  0
    0.9019    3.0939    0.0000 C   0  0  0  0  0  0  0  0  0  0  0  0
   -0.3382    3.8079    0.0000 O   0  0  0  0  0  0  0  0  0  0  0  0
    4.6513    3.5323    0.0000 C   0  0  0  0  0  0  0  0  0  0  0  0
    4.6764    2.7139    0.0000 C   0  0  0  0  0  0  0  0  0  0  0  0
    3.5741    4.5511    0.0000 O   0  0  0  0  0  0  0  0  0  0  0  0
    3.6743    1.6367    0.0000 O   0  0  0  0  0  0  0  0  0  0  0  0
   -1.3987    0.9352    0.0000 C   0  0  0  0  0  0  0  0  0  0  0  0
    2.1461    3.8079    0.0000 C   0  0  0  0  0  0  0  0  0  0  0  0
    2.1336    2.3757    0.0000 C   0  0  0  0  0  0  0  0  0  0  0  0
    1.3152    2.3882    0.0000 C   0  0  0  0  0  0  0  0  0  0  0  0
    1.3277    3.8162    0.0000 C   0  0  0  0  0  0  0  0  0  0  0  0
   -3.8663    2.8016    0.0000 C   0  0  0  0  0  0  0  0  0  0  0  0
   -3.8663    1.9749    0.0000 C   0  0  0  0  0  0  0  0  0  0  0  0
   -4.5928    3.2192    0.0000 Br  0  0  0  0  0  0  0  0  0  0  0  0
  2  1  2  0  0  0  0
  3  1  1  0  0  0  0
  4 12  1  0  0  0  0
  5  1  1  0  0  0  0
  6  5  1  0  0  0  0
  7  3  1  0  0  0  0
  8  2  1  0  0  0  0
  9  4  1  0  0  0  0
 10  4  1  0  0  0  0
 11  6  1  0  0  0  0
 12 23  1  0  0  0  0
 13 22  1  0  0  0  0
 14 13  3  0  0  0  0
 15  7  1  0  0  0  0
 16  8  1  0  0  0  0
 17  8  2  0  0  0  0
 18  9  1  0  0  0  0
 19 10  1  0  0  0  0
 20  9  2  0  0  0  0
 21 10  2  0  0  0  0
 22  3  1  0  0  0  0
 23 26  2  0  0  0  0
 24 25  1  0  0  0  0
 25 16  2  0  0  0  0
 26 16  1  0  0  0  0
 27 11  2  0  0  0  0
 28 15  2  0  0  0  0
 29 27  1  0  0  0  0
  7  6  2  0  0  0  0
 28 27  1  0  0  0  0
 12 24  2  0  0  0  0
 18 19  1  0  0  0  0
M  END
>  <IDNUMBER>
F1365-2424

>  <Chemical_Name>
N-[(2Z)-6-bromo-3-(prop-2-yn-1-yl)-2,3-dihydro-1,3-benzothiazol-2-ylidene]-4-(2,5-dioxopyrrolidin-1-yl)benzamide

>  <PriceCoeff>
1.00

>  <CAS>
865181-31-3

>  <MW>
468.32

>  <Description>
solid

>  <FSP3>
0.14

>  <clogP>
3.91

>  <TPSA>
95.35

>  <Acceptor>
3

>  <Donor>
0

>  <RotBonds>
5

>  <HAC>
29

>  <Collection>
General

>  <PPDS>
+

$$$$
F1365-2442
  Mrv2219 10102508112D          

 29 32  0  0  0  0            999 V2000
   -1.1636    2.3855    0.0000 C   0  0  0  0  0  0  0  0  0  0  0  0
   -0.3378    2.3772    0.0000 N   0  0  0  0  0  0  0  0  0  0  0  0
    2.5566    1.6516    0.0000 N   0  0  0  0  0  0  0  0  0  0  0  0
   -1.6473    1.7224    0.0000 N   0  0  0  0  0  0  0  0  0  0  0  0
   -1.6473    3.0529    0.0000 S   0  0  0  0  0  0  0  0  0  0  0  0
   -2.4356    2.7984    0.0000 C   0  0  0  0  0  0  0  0  0  0  0  0
   -2.4356    1.9727    0.0000 C   0  0  0  0  0  0  0  0  0  0  0  0
    0.0751    3.0904    0.0000 C   0  0  0  0  0  0  0  0  0  0  0  0
    2.1312    2.3730    0.0000 C   0  0  0  0  0  0  0  0  0  0  0  0
    3.3699    1.5347    0.0000 C   0  0  0  0  0  0  0  0  0  0  0  0
    2.1770    0.9134    0.0000 C   0  0  0  0  0  0  0  0  0  0  0  0
    1.3137    2.3772    0.0000 C   0  0  0  0  0  0  0  0  0  0  0  0
    0.9008    3.0904    0.0000 C   0  0  0  0  0  0  0  0  0  0  0  0
   -3.1488    3.2113    0.0000 C   0  0  0  0  0  0  0  0  0  0  0  0
   -1.9476    0.3211    0.0000 C   0  0  0  0  0  0  0  0  0  0  0  0
   -2.4981   -0.2920    0.0000 C   0  0  0  0  0  0  0  0  0  0  0  0
   -3.1488    1.5598    0.0000 C   0  0  0  0  0  0  0  0  0  0  0  0
   -0.3378    3.8036    0.0000 O   0  0  0  0  0  0  0  0  0  0  0  0
    3.5075    0.7132    0.0000 C   0  0  0  0  0  0  0  0  0  0  0  0
    2.7818    0.3253    0.0000 C   0  0  0  0  0  0  0  0  0  0  0  0
    3.9537    2.1103    0.0000 O   0  0  0  0  0  0  0  0  0  0  0  0
    1.3680    0.7840    0.0000 O   0  0  0  0  0  0  0  0  0  0  0  0
   -1.3971    0.9342    0.0000 C   0  0  0  0  0  0  0  0  0  0  0  0
   -3.8619    2.7984    0.0000 C   0  0  0  0  0  0  0  0  0  0  0  0
   -3.8619    1.9727    0.0000 C   0  0  0  0  0  0  0  0  0  0  0  0
   -4.5876    3.2155    0.0000 Br  0  0  0  0  0  0  0  0  0  0  0  0
    2.5566    3.0862    0.0000 C   0  0  0  0  0  0  0  0  0  0  0  0
    1.3179    3.8119    0.0000 C   0  0  0  0  0  0  0  0  0  0  0  0
    2.1437    3.8036    0.0000 C   0  0  0  0  0  0  0  0  0  0  0  0
  2  1  2  0  0  0  0
  3  9  1  0  0  0  0
  4  1  1  0  0  0  0
  5  1  1  0  0  0  0
  6  5  1  0  0  0  0
  7  4  1  0  0  0  0
  8  2  1  0  0  0  0
  9 12  1  0  0  0  0
 10  3  1  0  0  0  0
 11  3  1  0  0  0  0
 12 13  2  0  0  0  0
 13  8  1  0  0  0  0
 14  6  1  0  0  0  0
 15 23  1  0  0  0  0
 16 15  3  0  0  0  0
 17  7  1  0  0  0  0
 18  8  2  0  0  0  0
 19 10  1  0  0  0  0
 20 11  1  0  0  0  0
 21 10  2  0  0  0  0
 22 11  2  0  0  0  0
 23  4  1  0  0  0  0
 24 14  2  0  0  0  0
 25 17  2  0  0  0  0
 26 24  1  0  0  0  0
 27 29  1  0  0  0  0
 28 13  1  0  0  0  0
 29 28  2  0  0  0  0
  7  6  2  0  0  0  0
 25 24  1  0  0  0  0
  9 27  2  0  0  0  0
 19 20  1  0  0  0  0
M  END
>  <IDNUMBER>
F1365-2442

>  <Chemical_Name>
N-[(2Z)-6-bromo-3-(prop-2-yn-1-yl)-2,3-dihydro-1,3-benzothiazol-2-ylidene]-3-(2,5-dioxopyrrolidin-1-yl)benzamide

>  <PriceCoeff>
1.00

>  <CAS>
865181-36-8

>  <MW>
468.32

>  <Description>
solid

>  <FSP3>
0.14

>  <clogP>
3.91

>  <TPSA>
95.35

>  <Acceptor>
3

>  <Donor>
0

>  <RotBonds>
5

>  <HAC>
29

>  <Collection>
General

>  <PPDS>
+

$$$$
F1365-2616
  Mrv2219 10102508112D          

 24 26  0  0  0  0            999 V2000
   -1.1649    2.3882    0.0000 C   0  0  0  0  0  0  0  0  0  0  0  0
    1.3194    3.8162    0.0000 N   0  0  0  0  0  0  0  0  0  0  0  0
   -1.6492    1.7244    0.0000 N   0  0  0  0  0  0  0  0  0  0  0  0
   -0.3382    2.3799    0.0000 N   0  0  0  0  0  0  0  0  0  0  0  0
   -1.6492    3.0563    0.0000 S   0  0  0  0  0  0  0  0  0  0  0  0
   -2.4383    2.8016    0.0000 C   0  0  0  0  0  0  0  0  0  0  0  0
   -2.4383    1.9749    0.0000 C   0  0  0  0  0  0  0  0  0  0  0  0
    2.1336    3.8913    0.0000 C   0  0  0  0  0  0  0  0  0  0  0  0
    0.9812    4.5511    0.0000 C   0  0  0  0  0  0  0  0  0  0  0  0
    0.0752    3.0939    0.0000 C   0  0  0  0  0  0  0  0  0  0  0  0
    0.9019    3.0939    0.0000 C   0  0  0  0  0  0  0  0  0  0  0  0
   -3.1523    3.2149    0.0000 C   0  0  0  0  0  0  0  0  0  0  0  0
   -1.9498    0.3215    0.0000 C   0  0  0  0  0  0  0  0  0  0  0  0
   -2.5010   -0.2923    0.0000 C   0  0  0  0  0  0  0  0  0  0  0  0
   -3.1523    1.5615    0.0000 C   0  0  0  0  0  0  0  0  0  0  0  0
    1.5950    5.1023    0.0000 C   0  0  0  0  0  0  0  0  0  0  0  0
    2.3173    4.7014    0.0000 C   0  0  0  0  0  0  0  0  0  0  0  0
    0.1796    4.7390    0.0000 O   0  0  0  0  0  0  0  0  0  0  0  0
    2.6931    3.2776    0.0000 O   0  0  0  0  0  0  0  0  0  0  0  0
   -0.3382    3.8079    0.0000 O   0  0  0  0  0  0  0  0  0  0  0  0
   -1.3987    0.9352    0.0000 C   0  0  0  0  0  0  0  0  0  0  0  0
   -3.8663    2.8016    0.0000 C   0  0  0  0  0  0  0  0  0  0  0  0
   -3.8663    1.9749    0.0000 C   0  0  0  0  0  0  0  0  0  0  0  0
   -4.5928    3.2192    0.0000 F   0  0  0  0  0  0  0  0  0  0  0  0
  2 11  1  0  0  0  0
  3  1  1  0  0  0  0
  4  1  2  0  0  0  0
  5  1  1  0  0  0  0
  6  5  1  0  0  0  0
  7  3  1  0  0  0  0
  8  2  1  0  0  0  0
  9  2  1  0  0  0  0
 10  4  1  0  0  0  0
 11 10  1  0  0  0  0
 12  6  1  0  0  0  0
 13 21  1  0  0  0  0
 14 13  3  0  0  0  0
 15  7  1  0  0  0  0
 16  9  1  0  0  0  0
 17  8  1  0  0  0  0
 18  9  2  0  0  0  0
 19  8  2  0  0  0  0
 20 10  2  0  0  0  0
 21  3  1  0  0  0  0
 22 12  2  0  0  0  0
 23 15  2  0  0  0  0
 24 22  1  0  0  0  0
  7  6  2  0  0  0  0
 23 22  1  0  0  0  0
 17 16  1  0  0  0  0
M  END
>  <IDNUMBER>
F1365-2616

>  <Chemical_Name>
2-(2,5-dioxopyrrolidin-1-yl)-N-[(2Z)-6-fluoro-3-(prop-2-yn-1-yl)-2,3-dihydro-1,3-benzothiazol-2-ylidene]acetamide

>  <PriceCoeff>
1.00

>  <CAS>
865181-62-0

>  <MW>
345.35

>  <Description>
solid

>  <FSP3>
0.25

>  <clogP>
3.02

>  <TPSA>
95.35

>  <Acceptor>
3

>  <Donor>
0

>  <RotBonds>
5

>  <HAC>
24

>  <Collection>
General

>  <PPDS>
+

$$$$
F1365-2748
  Mrv2219 10102508112D          

 26 28  0  0  0  0            999 V2000
   -1.1649    2.3882    0.0000 C   0  0  0  0  0  0  0  0  0  0  0  0
    1.3194    3.8162    0.0000 N   0  0  0  0  0  0  0  0  0  0  0  0
   -1.6492    1.7244    0.0000 N   0  0  0  0  0  0  0  0  0  0  0  0
   -0.3382    2.3799    0.0000 N   0  0  0  0  0  0  0  0  0  0  0  0
   -1.6492    3.0563    0.0000 S   0  0  0  0  0  0  0  0  0  0  0  0
   -4.5928    3.2192    0.0000 N   0  3  0  0  0  0  0  0  0  0  0  0
   -2.4383    2.8016    0.0000 C   0  0  0  0  0  0  0  0  0  0  0  0
   -2.4383    1.9749    0.0000 C   0  0  0  0  0  0  0  0  0  0  0  0
    2.1336    3.8913    0.0000 C   0  0  0  0  0  0  0  0  0  0  0  0
    0.9812    4.5511    0.0000 C   0  0  0  0  0  0  0  0  0  0  0  0
    0.0752    3.0939    0.0000 C   0  0  0  0  0  0  0  0  0  0  0  0
   -3.1523    3.2149    0.0000 C   0  0  0  0  0  0  0  0  0  0  0  0
   -3.8663    2.8016    0.0000 C   0  0  0  0  0  0  0  0  0  0  0  0
    0.9019    3.0939    0.0000 C   0  0  0  0  0  0  0  0  0  0  0  0
   -1.9498    0.3215    0.0000 C   0  0  0  0  0  0  0  0  0  0  0  0
   -3.1523    1.5615    0.0000 C   0  0  0  0  0  0  0  0  0  0  0  0
   -2.5010   -0.2923    0.0000 C   0  0  0  0  0  0  0  0  0  0  0  0
   -4.5928    4.0376    0.0000 O   0  5  0  0  0  0  0  0  0  0  0  0
   -5.3068    2.8058    0.0000 O   0  0  0  0  0  0  0  0  0  0  0  0
    1.5950    5.1023    0.0000 C   0  0  0  0  0  0  0  0  0  0  0  0
    2.3173    4.7014    0.0000 C   0  0  0  0  0  0  0  0  0  0  0  0
   -3.8663    1.9749    0.0000 C   0  0  0  0  0  0  0  0  0  0  0  0
    0.1796    4.7390    0.0000 O   0  0  0  0  0  0  0  0  0  0  0  0
    2.6931    3.2776    0.0000 O   0  0  0  0  0  0  0  0  0  0  0  0
   -0.3382    3.8079    0.0000 O   0  0  0  0  0  0  0  0  0  0  0  0
   -1.3987    0.9352    0.0000 C   0  0  0  0  0  0  0  0  0  0  0  0
  2 14  1  0  0  0  0
  3  1  1  0  0  0  0
  4  1  2  0  0  0  0
  5  1  1  0  0  0  0
  6 13  1  0  0  0  0
  7  5  1  0  0  0  0
  8  3  1  0  0  0  0
  9  2  1  0  0  0  0
 10  2  1  0  0  0  0
 11  4  1  0  0  0  0
 12  7  1  0  0  0  0
 13 12  2  0  0  0  0
 14 11  1  0  0  0  0
 15 26  1  0  0  0  0
 16  8  1  0  0  0  0
 17 15  3  0  0  0  0
 18  6  1  0  0  0  0
 19  6  2  0  0  0  0
 20 10  1  0  0  0  0
 21  9  1  0  0  0  0
 22 16  2  0  0  0  0
 23 10  2  0  0  0  0
 24  9  2  0  0  0  0
 25 11  2  0  0  0  0
 26  3  1  0  0  0  0
  8  7  2  0  0  0  0
 22 13  1  0  0  0  0
 21 20  1  0  0  0  0
M  CHG  2   6   1  18  -1
M  END
>  <IDNUMBER>
F1365-2748

>  <Chemical_Name>
2-(2,5-dioxopyrrolidin-1-yl)-N-[(2Z)-6-nitro-3-(prop-2-yn-1-yl)-2,3-dihydro-1,3-benzothiazol-2-ylidene]acetamide

>  <PriceCoeff>
1.00

>  <CAS>
865181-70-0

>  <MW>
372.36

>  <Description>
solid

>  <FSP3>
0.25

>  <clogP>
2.62

>  <TPSA>
138.49

>  <Acceptor>
5

>  <Donor>
0

>  <RotBonds>
6

>  <HAC>
26

>  <Collection>
General

>  <PPDS>
+

$$$$
F1365-2970
  Mrv2219 10102508112D          

 32 35  0  0  0  0            999 V2000
   -1.1648    2.3879    0.0000 C   0  0  0  0  0  0  0  0  0  0  0  0
   -0.3381    2.3796    0.0000 N   0  0  0  0  0  0  0  0  0  0  0  0
   -4.5922    3.2188    0.0000 S   0  0  0  0  0  0  0  0  0  0  0  0
    2.5592    1.6532    0.0000 N   0  0  0  0  0  0  0  0  0  0  0  0
   -1.6490    1.7241    0.0000 N   0  0  0  0  0  0  0  0  0  0  0  0
   -1.6490    3.0559    0.0000 S   0  0  0  0  0  0  0  0  0  0  0  0
   -2.4381    2.8013    0.0000 C   0  0  0  0  0  0  0  0  0  0  0  0
   -2.4381    1.9746    0.0000 C   0  0  0  0  0  0  0  0  0  0  0  0
    0.0751    3.0935    0.0000 C   0  0  0  0  0  0  0  0  0  0  0  0
    2.1333    2.3754    0.0000 C   0  0  0  0  0  0  0  0  0  0  0  0
    3.3732    1.5363    0.0000 C   0  0  0  0  0  0  0  0  0  0  0  0
    2.1792    0.9143    0.0000 C   0  0  0  0  0  0  0  0  0  0  0  0
   -3.8658    2.8013    0.0000 C   0  0  0  0  0  0  0  0  0  0  0  0
   -3.1519    3.2145    0.0000 C   0  0  0  0  0  0  0  0  0  0  0  0
    1.3151    2.3796    0.0000 C   0  0  0  0  0  0  0  0  0  0  0  0
    0.9018    3.0935    0.0000 C   0  0  0  0  0  0  0  0  0  0  0  0
   -1.9496    0.3214    0.0000 C   0  0  0  0  0  0  0  0  0  0  0  0
   -3.1519    1.5613    0.0000 C   0  0  0  0  0  0  0  0  0  0  0  0
   -2.5007   -0.2922    0.0000 C   0  0  0  0  0  0  0  0  0  0  0  0
   -4.1539    3.9159    0.0000 O   0  0  0  0  0  0  0  0  0  0  0  0
   -5.0306    2.5132    0.0000 O   0  0  0  0  0  0  0  0  0  0  0  0
   -5.2936    3.6529    0.0000 N   0  0  0  0  0  0  0  0  0  0  0  0
   -0.3381    3.8074    0.0000 O   0  0  0  0  0  0  0  0  0  0  0  0
   -3.8658    1.9746    0.0000 C   0  0  0  0  0  0  0  0  0  0  0  0
    3.5110    0.7138    0.0000 C   0  0  0  0  0  0  0  0  0  0  0  0
    2.7846    0.3256    0.0000 C   0  0  0  0  0  0  0  0  0  0  0  0
    3.9576    2.1124    0.0000 O   0  0  0  0  0  0  0  0  0  0  0  0
    1.3694    0.7848    0.0000 O   0  0  0  0  0  0  0  0  0  0  0  0
   -1.3985    0.9352    0.0000 C   0  0  0  0  0  0  0  0  0  0  0  0
    2.5592    3.0893    0.0000 C   0  0  0  0  0  0  0  0  0  0  0  0
    1.3193    3.8157    0.0000 C   0  0  0  0  0  0  0  0  0  0  0  0
    2.1458    3.8074    0.0000 C   0  0  0  0  0  0  0  0  0  0  0  0
  2  1  2  0  0  0  0
  3 13  1  0  0  0  0
  4 10  1  0  0  0  0
  5  1  1  0  0  0  0
  6  1  1  0  0  0  0
  7  6  1  0  0  0  0
  8  5  1  0  0  0  0
  9  2  1  0  0  0  0
 10 15  1  0  0  0  0
 11  4  1  0  0  0  0
 12  4  1  0  0  0  0
 13 14  2  0  0  0  0
 14  7  1  0  0  0  0
 15 16  2  0  0  0  0
 16  9  1  0  0  0  0
 17 29  1  0  0  0  0
 18  8  1  0  0  0  0
 19 17  3  0  0  0  0
 20  3  2  0  0  0  0
 21  3  2  0  0  0  0
 22  3  1  0  0  0  0
 23  9  2  0  0  0  0
 24 18  2  0  0  0  0
 25 11  1  0  0  0  0
 26 12  1  0  0  0  0
 27 11  2  0  0  0  0
 28 12  2  0  0  0  0
 29  5  1  0  0  0  0
 30 32  1  0  0  0  0
 31 16  1  0  0  0  0
 32 31  2  0  0  0  0
  8  7  2  0  0  0  0
 24 13  1  0  0  0  0
 10 30  2  0  0  0  0
 25 26  1  0  0  0  0
M  END
>  <IDNUMBER>
F1365-2970

>  <Chemical_Name>
3-(2,5-dioxopyrrolidin-1-yl)-N-[(2Z)-3-(prop-2-yn-1-yl)-6-sulfamoyl-2,3-dihydro-1,3-benzothiazol-2-ylidene]benzamide

>  <PriceCoeff>
1.00

>  <CAS>
865182-26-9

>  <MW>
468.51

>  <Description>
solid

>  <FSP3>
0.14

>  <clogP>
1.21

>  <TPSA>
163.89

>  <Acceptor>
5

>  <Donor>
1

>  <RotBonds>
6

>  <HAC>
32

>  <Collection>
General

>  <PPDS>
+

$$$$
F1365-3012
  Mrv2219 10102508112D          

 27 29  0  0  0  0            999 V2000
   -1.1649    2.3882    0.0000 C   0  0  0  0  0  0  0  0  0  0  0  0
    1.3194    3.8162    0.0000 N   0  0  0  0  0  0  0  0  0  0  0  0
   -4.5928    3.2192    0.0000 S   0  0  0  0  0  0  0  0  0  0  0  0
   -1.6492    1.7244    0.0000 N   0  0  0  0  0  0  0  0  0  0  0  0
   -0.3382    2.3799    0.0000 N   0  0  0  0  0  0  0  0  0  0  0  0
   -1.6492    3.0563    0.0000 S   0  0  0  0  0  0  0  0  0  0  0  0
   -2.4383    2.8016    0.0000 C   0  0  0  0  0  0  0  0  0  0  0  0
   -2.4383    1.9749    0.0000 C   0  0  0  0  0  0  0  0  0  0  0  0
    2.1336    3.8913    0.0000 C   0  0  0  0  0  0  0  0  0  0  0  0
    0.9812    4.5511    0.0000 C   0  0  0  0  0  0  0  0  0  0  0  0
    0.0752    3.0939    0.0000 C   0  0  0  0  0  0  0  0  0  0  0  0
   -3.8663    2.8016    0.0000 C   0  0  0  0  0  0  0  0  0  0  0  0
   -3.1523    3.2149    0.0000 C   0  0  0  0  0  0  0  0  0  0  0  0
    0.9019    3.0939    0.0000 C   0  0  0  0  0  0  0  0  0  0  0  0
   -1.9498    0.3215    0.0000 C   0  0  0  0  0  0  0  0  0  0  0  0
   -3.1523    1.5615    0.0000 C   0  0  0  0  0  0  0  0  0  0  0  0
   -2.5010   -0.2923    0.0000 C   0  0  0  0  0  0  0  0  0  0  0  0
   -4.1544    3.9164    0.0000 O   0  0  0  0  0  0  0  0  0  0  0  0
   -5.0312    2.5135    0.0000 O   0  0  0  0  0  0  0  0  0  0  0  0
   -5.2942    3.6534    0.0000 N   0  0  0  0  0  0  0  0  0  0  0  0
   -3.8663    1.9749    0.0000 C   0  0  0  0  0  0  0  0  0  0  0  0
    1.5950    5.1023    0.0000 C   0  0  0  0  0  0  0  0  0  0  0  0
    2.3173    4.7014    0.0000 C   0  0  0  0  0  0  0  0  0  0  0  0
    0.1796    4.7390    0.0000 O   0  0  0  0  0  0  0  0  0  0  0  0
    2.6931    3.2776    0.0000 O   0  0  0  0  0  0  0  0  0  0  0  0
   -0.3382    3.8079    0.0000 O   0  0  0  0  0  0  0  0  0  0  0  0
   -1.3987    0.9352    0.0000 C   0  0  0  0  0  0  0  0  0  0  0  0
  2 14  1  0  0  0  0
  3 12  1  0  0  0  0
  4  1  1  0  0  0  0
  5  1  2  0  0  0  0
  6  1  1  0  0  0  0
  7  6  1  0  0  0  0
  8  4  1  0  0  0  0
  9  2  1  0  0  0  0
 10  2  1  0  0  0  0
 11  5  1  0  0  0  0
 12 13  2  0  0  0  0
 13  7  1  0  0  0  0
 14 11  1  0  0  0  0
 15 27  1  0  0  0  0
 16  8  1  0  0  0  0
 17 15  3  0  0  0  0
 18  3  2  0  0  0  0
 19  3  2  0  0  0  0
 20  3  1  0  0  0  0
 21 16  2  0  0  0  0
 22 10  1  0  0  0  0
 23  9  1  0  0  0  0
 24 10  2  0  0  0  0
 25  9  2  0  0  0  0
 26 11  2  0  0  0  0
 27  4  1  0  0  0  0
  8  7  2  0  0  0  0
 21 12  1  0  0  0  0
 23 22  1  0  0  0  0
M  END
>  <IDNUMBER>
F1365-3012

>  <Chemical_Name>
2-(2,5-dioxopyrrolidin-1-yl)-N-[(2Z)-3-(prop-2-yn-1-yl)-6-sulfamoyl-2,3-dihydro-1,3-benzothiazol-2-ylidene]acetamide

>  <PriceCoeff>
1.00

>  <CAS>
1164484-77-8

>  <MW>
406.44

>  <Description>
solid

>  <FSP3>
0.25

>  <clogP>
1.04

>  <TPSA>
163.89

>  <Acceptor>
5

>  <Donor>
1

>  <RotBonds>
6

>  <HAC>
27

>  <Collection>
General

>  <PPDS>
+

$$$$
F1365-3366
  Mrv2219 10102508112D          

 31 34  0  0  0  0            999 V2000
   -1.1625    2.3833    0.0000 C   0  0  0  0  0  0  0  0  0  0  0  0
   -0.3375    2.3750    0.0000 N   0  0  0  0  0  0  0  0  0  0  0  0
    2.5542    1.6500    0.0000 N   0  0  0  0  0  0  0  0  0  0  0  0
   -1.6458    1.7208    0.0000 N   0  0  0  0  0  0  0  0  0  0  0  0
   -1.6458    3.0500    0.0000 S   0  0  0  0  0  0  0  0  0  0  0  0
   -2.4333    2.7958    0.0000 C   0  0  0  0  0  0  0  0  0  0  0  0
   -2.4333    1.9708    0.0000 C   0  0  0  0  0  0  0  0  0  0  0  0
    0.0750    3.0875    0.0000 C   0  0  0  0  0  0  0  0  0  0  0  0
    2.1292    2.3708    0.0000 C   0  0  0  0  0  0  0  0  0  0  0  0
    3.3667    1.5333    0.0000 C   0  0  0  0  0  0  0  0  0  0  0  0
    2.1750    0.9125    0.0000 C   0  0  0  0  0  0  0  0  0  0  0  0
    1.3125    2.3750    0.0000 C   0  0  0  0  0  0  0  0  0  0  0  0
    0.9000    3.0875    0.0000 C   0  0  0  0  0  0  0  0  0  0  0  0
   -3.1458    3.2083    0.0000 C   0  0  0  0  0  0  0  0  0  0  0  0
   -1.9458    0.3208    0.0000 C   0  0  0  0  0  0  0  0  0  0  0  0
   -2.4958   -0.2917    0.0000 C   0  0  0  0  0  0  0  0  0  0  0  0
   -3.1458    1.5583    0.0000 C   0  0  0  0  0  0  0  0  0  0  0  0
   -0.3375    3.8000    0.0000 O   0  0  0  0  0  0  0  0  0  0  0  0
    3.5042    0.7125    0.0000 C   0  0  0  0  0  0  0  0  0  0  0  0
    2.7792    0.3250    0.0000 C   0  0  0  0  0  0  0  0  0  0  0  0
    3.9500    2.1083    0.0000 O   0  0  0  0  0  0  0  0  0  0  0  0
    1.3667    0.7833    0.0000 O   0  0  0  0  0  0  0  0  0  0  0  0
   -1.3958    0.9333    0.0000 C   0  0  0  0  0  0  0  0  0  0  0  0
   -3.8583    2.7958    0.0000 C   0  0  0  0  0  0  0  0  0  0  0  0
   -3.8583    1.9708    0.0000 C   0  0  0  0  0  0  0  0  0  0  0  0
    2.5542    3.0833    0.0000 C   0  0  0  0  0  0  0  0  0  0  0  0
   -4.5833    3.2125    0.0000 O   0  0  0  0  0  0  0  0  0  0  0  0
    1.3167    3.8083    0.0000 C   0  0  0  0  0  0  0  0  0  0  0  0
    2.1417    3.8000    0.0000 C   0  0  0  0  0  0  0  0  0  0  0  0
   -5.2958    2.8000    0.0000 C   0  0  0  0  0  0  0  0  0  0  0  0
   -5.2958    1.9750    0.0000 C   0  0  0  0  0  0  0  0  0  0  0  0
  2  1  2  0  0  0  0
  3  9  1  0  0  0  0
  4  1  1  0  0  0  0
  5  1  1  0  0  0  0
  6  5  1  0  0  0  0
  7  4  1  0  0  0  0
  8  2  1  0  0  0  0
  9 12  1  0  0  0  0
 10  3  1  0  0  0  0
 11  3  1  0  0  0  0
 12 13  2  0  0  0  0
 13  8  1  0  0  0  0
 14  6  1  0  0  0  0
 15 23  1  0  0  0  0
 16 15  3  0  0  0  0
 17  7  1  0  0  0  0
 18  8  2  0  0  0  0
 19 10  1  0  0  0  0
 20 11  1  0  0  0  0
 21 10  2  0  0  0  0
 22 11  2  0  0  0  0
 23  4  1  0  0  0  0
 24 14  2  0  0  0  0
 25 17  2  0  0  0  0
 26 29  1  0  0  0  0
 27 24  1  0  0  0  0
 28 13  1  0  0  0  0
 29 28  2  0  0  0  0
 30 27  1  0  0  0  0
 31 30  1  0  0  0  0
  7  6  2  0  0  0  0
 25 24  1  0  0  0  0
  9 26  2  0  0  0  0
 19 20  1  0  0  0  0
M  END
>  <IDNUMBER>
F1365-3366

>  <Chemical_Name>
3-(2,5-dioxopyrrolidin-1-yl)-N-[(2Z)-6-ethoxy-3-(prop-2-yn-1-yl)-2,3-dihydro-1,3-benzothiazol-2-ylidene]benzamide

>  <PriceCoeff>
1.00

>  <CAS>
941977-06-6

>  <MW>
433.48

>  <Description>
solid

>  <FSP3>
0.22

>  <clogP>
3.50

>  <TPSA>
104.58

>  <Acceptor>
4

>  <Donor>
0

>  <RotBonds>
7

>  <HAC>
31

>  <Collection>
General

>  <PPDS>
+

$$$$
F1366-0066
  Mrv2219 10102508112D          

 31 34  0  0  0  0            999 V2000
   -1.1709    2.4005    0.0000 C   0  0  0  0  0  0  0  0  0  0  0  0
   -1.6576    1.7332    0.0000 N   0  0  0  0  0  0  0  0  0  0  0  0
   -0.3399    2.3921    0.0000 N   0  0  0  0  0  0  0  0  0  0  0  0
    2.5222    1.6828    0.0000 N   0  0  0  0  0  0  0  0  0  0  0  0
   -1.6576    3.0719    0.0000 S   0  0  0  0  0  0  0  0  0  0  0  0
   -2.4508    1.9849    0.0000 C   0  0  0  0  0  0  0  0  0  0  0  0
   -2.4508    2.8159    0.0000 C   0  0  0  0  0  0  0  0  0  0  0  0
    0.0755    3.1097    0.0000 C   0  0  0  0  0  0  0  0  0  0  0  0
    2.1193    2.4005    0.0000 C   0  0  0  0  0  0  0  0  0  0  0  0
    3.3405    1.5611    0.0000 C   0  0  0  0  0  0  0  0  0  0  0  0
    2.1571    0.9526    0.0000 C   0  0  0  0  0  0  0  0  0  0  0  0
   -1.7752    0.9149    0.0000 C   0  0  0  0  0  0  0  0  0  0  0  0
    1.3010    2.4005    0.0000 C   0  0  0  0  0  0  0  0  0  0  0  0
    0.8939    3.1097    0.0000 C   0  0  0  0  0  0  0  0  0  0  0  0
   -3.1684    1.5695    0.0000 C   0  0  0  0  0  0  0  0  0  0  0  0
   -2.5390    0.6126    0.0000 C   0  0  0  0  0  0  0  0  0  0  0  0
   -3.1684    3.2313    0.0000 C   0  0  0  0  0  0  0  0  0  0  0  0
   -0.3399    3.8273    0.0000 O   0  0  0  0  0  0  0  0  0  0  0  0
    3.4790    0.7511    0.0000 C   0  0  0  0  0  0  0  0  0  0  0  0
    2.7614    0.3734    0.0000 C   0  0  0  0  0  0  0  0  0  0  0  0
    3.9197    2.1360    0.0000 O   0  0  0  0  0  0  0  0  0  0  0  0
    1.3514    0.8184    0.0000 O   0  0  0  0  0  0  0  0  0  0  0  0
   -2.6523   -0.2014    0.0000 O   0  0  0  0  0  0  0  0  0  0  0  0
   -3.8861    1.9849    0.0000 C   0  0  0  0  0  0  0  0  0  0  0  0
   -3.8861    2.8159    0.0000 C   0  0  0  0  0  0  0  0  0  0  0  0
   -3.1810    1.1163    0.0000 O   0  0  0  0  0  0  0  0  0  0  0  0
    2.5348    3.1055    0.0000 C   0  0  0  0  0  0  0  0  0  0  0  0
    1.3094    3.8230    0.0000 C   0  0  0  0  0  0  0  0  0  0  0  0
    2.1276    3.8230    0.0000 C   0  0  0  0  0  0  0  0  0  0  0  0
   -4.5953    3.2313    0.0000 C   0  0  0  0  0  0  0  0  0  0  0  0
   -3.9407    0.8142    0.0000 C   0  0  0  0  0  0  0  0  0  0  0  0
  2  1  1  0  0  0  0
  3  1  2  0  0  0  0
  4  9  1  0  0  0  0
  5  1  1  0  0  0  0
  6  2  1  0  0  0  0
  7  5  1  0  0  0  0
  8  3  1  0  0  0  0
  9 13  1  0  0  0  0
 10  4  1  0  0  0  0
 11  4  1  0  0  0  0
 12  2  1  0  0  0  0
 13 14  2  0  0  0  0
 14  8  1  0  0  0  0
 15  6  1  0  0  0  0
 16 12  1  0  0  0  0
 17  7  1  0  0  0  0
 18  8  2  0  0  0  0
 19 10  1  0  0  0  0
 20 11  1  0  0  0  0
 21 10  2  0  0  0  0
 22 11  2  0  0  0  0
 23 16  2  0  0  0  0
 24 15  2  0  0  0  0
 25 17  2  0  0  0  0
 26 16  1  0  0  0  0
 27 29  1  0  0  0  0
 28 14  1  0  0  0  0
 29 28  2  0  0  0  0
 30 25  1  0  0  0  0
 31 26  1  0  0  0  0
  7  6  2  0  0  0  0
 25 24  1  0  0  0  0
 27  9  2  0  0  0  0
 20 19  1  0  0  0  0
M  END
>  <IDNUMBER>
F1366-0066

>  <Chemical_Name>
methyl 2-[(2Z)-2-{[3-(2,5-dioxopyrrolidin-1-yl)benzoyl]imino}-6-methyl-2,3-dihydro-1,3-benzothiazol-3-yl]acetate

>  <PriceCoeff>
1.00

>  <CAS>
865197-38-2

>  <MW>
437.47

>  <Description>
solid

>  <FSP3>
0.23

>  <clogP>
3.01

>  <TPSA>
121.65

>  <Acceptor>
5

>  <Donor>
0

>  <RotBonds>
6

>  <HAC>
31

>  <Collection>
General

>  <PPDS>
+

$$$$
F1366-0108
  Mrv2219 10102508112D          

 26 28  0  0  0  0            999 V2000
   -1.1679    2.3943    0.0000 C   0  0  0  0  0  0  0  0  0  0  0  0
   -1.6534    1.7288    0.0000 N   0  0  0  0  0  0  0  0  0  0  0  0
    1.3060    3.8134    0.0000 N   0  0  0  0  0  0  0  0  0  0  0  0
   -0.3391    2.3860    0.0000 N   0  0  0  0  0  0  0  0  0  0  0  0
   -1.6534    3.0641    0.0000 S   0  0  0  0  0  0  0  0  0  0  0  0
   -2.4446    1.9799    0.0000 C   0  0  0  0  0  0  0  0  0  0  0  0
   -2.4446    2.8087    0.0000 C   0  0  0  0  0  0  0  0  0  0  0  0
    2.1139    3.8887    0.0000 C   0  0  0  0  0  0  0  0  0  0  0  0
    0.9670    4.5502    0.0000 C   0  0  0  0  0  0  0  0  0  0  0  0
    0.0753    3.1018    0.0000 C   0  0  0  0  0  0  0  0  0  0  0  0
    0.8916    3.1018    0.0000 C   0  0  0  0  0  0  0  0  0  0  0  0
   -1.7707    0.9125    0.0000 C   0  0  0  0  0  0  0  0  0  0  0  0
   -3.1604    1.5655    0.0000 C   0  0  0  0  0  0  0  0  0  0  0  0
   -2.5325    0.6111    0.0000 C   0  0  0  0  0  0  0  0  0  0  0  0
   -3.1604    3.2232    0.0000 C   0  0  0  0  0  0  0  0  0  0  0  0
    1.5697    5.0985    0.0000 C   0  0  0  0  0  0  0  0  0  0  0  0
    2.2855    4.6883    0.0000 C   0  0  0  0  0  0  0  0  0  0  0  0
    0.1675    4.7260    0.0000 O   0  0  0  0  0  0  0  0  0  0  0  0
    2.6539    3.2859    0.0000 O   0  0  0  0  0  0  0  0  0  0  0  0
   -0.3391    3.8176    0.0000 O   0  0  0  0  0  0  0  0  0  0  0  0
   -2.6455   -0.2009    0.0000 O   0  0  0  0  0  0  0  0  0  0  0  0
   -3.8762    1.9799    0.0000 C   0  0  0  0  0  0  0  0  0  0  0  0
   -3.8762    2.8087    0.0000 C   0  0  0  0  0  0  0  0  0  0  0  0
   -3.1729    1.1134    0.0000 O   0  0  0  0  0  0  0  0  0  0  0  0
   -4.5836    3.2232    0.0000 C   0  0  0  0  0  0  0  0  0  0  0  0
   -3.9306    0.8120    0.0000 C   0  0  0  0  0  0  0  0  0  0  0  0
  2  1  1  0  0  0  0
  3 11  1  0  0  0  0
  4  1  2  0  0  0  0
  5  1  1  0  0  0  0
  6  2  1  0  0  0  0
  7  5  1  0  0  0  0
  8  3  1  0  0  0  0
  9  3  1  0  0  0  0
 10  4  1  0  0  0  0
 11 10  1  0  0  0  0
 12  2  1  0  0  0  0
 13  6  1  0  0  0  0
 14 12  1  0  0  0  0
 15  7  1  0  0  0  0
 16  9  1  0  0  0  0
 17  8  1  0  0  0  0
 18  9  2  0  0  0  0
 19  8  2  0  0  0  0
 20 10  2  0  0  0  0
 21 14  2  0  0  0  0
 22 13  2  0  0  0  0
 23 15  2  0  0  0  0
 24 14  1  0  0  0  0
 25 23  1  0  0  0  0
 26 24  1  0  0  0  0
  7  6  2  0  0  0  0
 23 22  1  0  0  0  0
 16 17  1  0  0  0  0
M  END
>  <IDNUMBER>
F1366-0108

>  <Chemical_Name>
methyl 2-[(2Z)-2-{[2-(2,5-dioxopyrrolidin-1-yl)acetyl]imino}-6-methyl-2,3-dihydro-1,3-benzothiazol-3-yl]acetate

>  <PriceCoeff>
1.00

>  <CAS>
941917-23-3

>  <MW>
375.40

>  <Description>
solid

>  <FSP3>
0.35

>  <clogP>
2.84

>  <TPSA>
121.65

>  <Acceptor>
5

>  <Donor>
0

>  <RotBonds>
6

>  <HAC>
26

>  <Collection>
General

>  <PPDS>
+

$$$$
F1366-0372
  Mrv2219 10102508112D          

 29 31  0  0  0  0            999 V2000
   -1.1679    2.3943    0.0000 C   0  0  0  0  0  0  0  0  0  0  0  0
   -1.6534    1.7288    0.0000 N   0  0  0  0  0  0  0  0  0  0  0  0
    1.3060    3.8134    0.0000 N   0  0  0  0  0  0  0  0  0  0  0  0
   -0.3391    2.3860    0.0000 N   0  0  0  0  0  0  0  0  0  0  0  0
   -1.6534    3.0641    0.0000 S   0  0  0  0  0  0  0  0  0  0  0  0
   -2.4446    2.8087    0.0000 C   0  0  0  0  0  0  0  0  0  0  0  0
   -2.4446    1.9799    0.0000 C   0  0  0  0  0  0  0  0  0  0  0  0
    2.1139    3.8887    0.0000 C   0  0  0  0  0  0  0  0  0  0  0  0
    0.9670    4.5502    0.0000 C   0  0  0  0  0  0  0  0  0  0  0  0
    0.0753    3.1018    0.0000 C   0  0  0  0  0  0  0  0  0  0  0  0
    0.8916    3.1018    0.0000 C   0  0  0  0  0  0  0  0  0  0  0  0
   -4.5836    3.2232    0.0000 C   0  0  0  0  0  0  0  0  0  0  0  0
   -3.1604    3.2232    0.0000 C   0  0  0  0  0  0  0  0  0  0  0  0
   -3.8762    2.8087    0.0000 C   0  0  0  0  0  0  0  0  0  0  0  0
   -1.7707    0.9125    0.0000 C   0  0  0  0  0  0  0  0  0  0  0  0
   -3.1604    1.5655    0.0000 C   0  0  0  0  0  0  0  0  0  0  0  0
   -2.5325    0.6111    0.0000 C   0  0  0  0  0  0  0  0  0  0  0  0
    1.5697    5.0985    0.0000 C   0  0  0  0  0  0  0  0  0  0  0  0
    2.2855    4.6883    0.0000 C   0  0  0  0  0  0  0  0  0  0  0  0
    0.1675    4.7260    0.0000 O   0  0  0  0  0  0  0  0  0  0  0  0
    2.6539    3.2859    0.0000 O   0  0  0  0  0  0  0  0  0  0  0  0
   -3.8762    1.9799    0.0000 C   0  0  0  0  0  0  0  0  0  0  0  0
   -0.3391    3.8176    0.0000 O   0  0  0  0  0  0  0  0  0  0  0  0
   -5.2952    2.8130    0.0000 O   0  0  0  0  0  0  0  0  0  0  0  0
   -2.6455   -0.2009    0.0000 O   0  0  0  0  0  0  0  0  0  0  0  0
   -4.5836    4.0311    0.0000 O   0  0  0  0  0  0  0  0  0  0  0  0
   -3.1729    1.1134    0.0000 O   0  0  0  0  0  0  0  0  0  0  0  0
   -5.2952    4.4372    0.0000 C   0  0  0  0  0  0  0  0  0  0  0  0
   -3.9306    0.8120    0.0000 C   0  0  0  0  0  0  0  0  0  0  0  0
  2  1  1  0  0  0  0
  3 11  1  0  0  0  0
  4  1  2  0  0  0  0
  5  1  1  0  0  0  0
  6  5  1  0  0  0  0
  7  2  1  0  0  0  0
  8  3  1  0  0  0  0
  9  3  1  0  0  0  0
 10  4  1  0  0  0  0
 11 10  1  0  0  0  0
 12 14  1  0  0  0  0
 13  6  1  0  0  0  0
 14 13  2  0  0  0  0
 15  2  1  0  0  0  0
 16  7  1  0  0  0  0
 17 15  1  0  0  0  0
 18  9  1  0  0  0  0
 19  8  1  0  0  0  0
 20  9  2  0  0  0  0
 21  8  2  0  0  0  0
 22 16  2  0  0  0  0
 23 10  2  0  0  0  0
 24 12  2  0  0  0  0
 25 17  2  0  0  0  0
 26 12  1  0  0  0  0
 27 17  1  0  0  0  0
 28 26  1  0  0  0  0
 29 27  1  0  0  0  0
  6  7  2  0  0  0  0
 14 22  1  0  0  0  0
 18 19  1  0  0  0  0
M  END
>  <IDNUMBER>
F1366-0372

>  <Chemical_Name>
methyl (2Z)-2-{[2-(2,5-dioxopyrrolidin-1-yl)acetyl]imino}-3-(2-methoxy-2-oxoethyl)-2,3-dihydro-1,3-benzothiazole-6-carboxylate

>  <PriceCoeff>
1.00

>  <CAS>
865197-54-2

>  <MW>
419.41

>  <Description>
solid

>  <FSP3>
0.33

>  <clogP>
2.31

>  <TPSA>
147.95

>  <Acceptor>
7

>  <Donor>
0

>  <RotBonds>
8

>  <HAC>
29

>  <Collection>
General

>  <PPDS>
+

$$$$
F1366-0504
  Mrv2219 10102508112D          

 26 28  0  0  0  0            999 V2000
   -1.1679    2.3943    0.0000 C   0  0  0  0  0  0  0  0  0  0  0  0
   -1.6534    1.7288    0.0000 N   0  0  0  0  0  0  0  0  0  0  0  0
    1.3060    3.8134    0.0000 N   0  0  0  0  0  0  0  0  0  0  0  0
   -0.3391    2.3860    0.0000 N   0  0  0  0  0  0  0  0  0  0  0  0
   -1.6534    3.0641    0.0000 S   0  0  0  0  0  0  0  0  0  0  0  0
   -2.4446    1.9799    0.0000 C   0  0  0  0  0  0  0  0  0  0  0  0
    2.1139    3.8887    0.0000 C   0  0  0  0  0  0  0  0  0  0  0  0
    0.9670    4.5502    0.0000 C   0  0  0  0  0  0  0  0  0  0  0  0
    0.0753    3.1018    0.0000 C   0  0  0  0  0  0  0  0  0  0  0  0
   -2.4446    2.8087    0.0000 C   0  0  0  0  0  0  0  0  0  0  0  0
    0.8916    3.1018    0.0000 C   0  0  0  0  0  0  0  0  0  0  0  0
   -1.7707    0.9125    0.0000 C   0  0  0  0  0  0  0  0  0  0  0  0
   -2.5325    0.6111    0.0000 C   0  0  0  0  0  0  0  0  0  0  0  0
    1.5697    5.0985    0.0000 C   0  0  0  0  0  0  0  0  0  0  0  0
    2.2855    4.6883    0.0000 C   0  0  0  0  0  0  0  0  0  0  0  0
    0.1675    4.7260    0.0000 O   0  0  0  0  0  0  0  0  0  0  0  0
    2.6539    3.2859    0.0000 O   0  0  0  0  0  0  0  0  0  0  0  0
   -0.3391    3.8176    0.0000 O   0  0  0  0  0  0  0  0  0  0  0  0
   -2.6455   -0.2009    0.0000 O   0  0  0  0  0  0  0  0  0  0  0  0
   -3.1729    1.1134    0.0000 O   0  0  0  0  0  0  0  0  0  0  0  0
   -3.1604    1.5655    0.0000 C   0  0  0  0  0  0  0  0  0  0  0  0
   -3.1604    3.2232    0.0000 C   0  0  0  0  0  0  0  0  0  0  0  0
   -3.9306    0.8120    0.0000 C   0  0  0  0  0  0  0  0  0  0  0  0
   -3.8762    1.9799    0.0000 C   0  0  0  0  0  0  0  0  0  0  0  0
   -3.8762    2.8087    0.0000 C   0  0  0  0  0  0  0  0  0  0  0  0
   -4.5836    3.2232    0.0000 H   0  0  0  0  0  0  0  0  0  0  0  0
  2  1  1  0  0  0  0
  3 11  1  0  0  0  0
  4  1  2  0  0  0  0
  5  1  1  0  0  0  0
  6  2  1  0  0  0  0
  7  3  1  0  0  0  0
  8  3  1  0  0  0  0
  9  4  1  0  0  0  0
 10  5  1  0  0  0  0
 11  9  1  0  0  0  0
 12  2  1  0  0  0  0
 13 12  1  0  0  0  0
 14  8  1  0  0  0  0
 15  7  1  0  0  0  0
 16  8  2  0  0  0  0
 17  7  2  0  0  0  0
 18  9  2  0  0  0  0
 19 13  2  0  0  0  0
 20 13  1  0  0  0  0
 21  6  1  0  0  0  0
 22 10  1  0  0  0  0
 23 20  1  0  0  0  0
 24 21  2  0  0  0  0
 25 22  2  0  0  0  0
 26 25  1  0  0  0  0
 10  6  2  0  0  0  0
 25 24  1  0  0  0  0
 14 15  1  0  0  0  0
M  END
>  <IDNUMBER>
F1366-0504

>  <Chemical_Name>
methyl 2-[(2Z)-2-{[2-(2,5-dioxopyrrolidin-1-yl)acetyl]imino}-2,3-dihydro-1,3-benzothiazol-3-yl]acetate

>  <PriceCoeff>
1.00

>  <CAS>
941977-14-6

>  <MW>
361.37

>  <Description>
solid

>  <FSP3>
0.31

>  <clogP>
2.34

>  <TPSA>
121.65

>  <Acceptor>
5

>  <Donor>
0

>  <RotBonds>
6

>  <HAC>
25

>  <Collection>
General

>  <PPDS>
+

$$$$
F1366-0636
  Mrv2219 10102508112D          

 26 28  0  0  0  0            999 V2000
   -1.1679    2.3943    0.0000 C   0  0  0  0  0  0  0  0  0  0  0  0
   -1.6534    1.7288    0.0000 N   0  0  0  0  0  0  0  0  0  0  0  0
    1.3060    3.8134    0.0000 N   0  0  0  0  0  0  0  0  0  0  0  0
   -0.3391    2.3860    0.0000 N   0  0  0  0  0  0  0  0  0  0  0  0
   -1.6534    3.0641    0.0000 S   0  0  0  0  0  0  0  0  0  0  0  0
   -2.4446    2.8087    0.0000 C   0  0  0  0  0  0  0  0  0  0  0  0
   -2.4446    1.9799    0.0000 C   0  0  0  0  0  0  0  0  0  0  0  0
    2.1139    3.8887    0.0000 C   0  0  0  0  0  0  0  0  0  0  0  0
    0.9670    4.5502    0.0000 C   0  0  0  0  0  0  0  0  0  0  0  0
    0.0753    3.1018    0.0000 C   0  0  0  0  0  0  0  0  0  0  0  0
    0.8916    3.1018    0.0000 C   0  0  0  0  0  0  0  0  0  0  0  0
   -1.7707    0.9125    0.0000 C   0  0  0  0  0  0  0  0  0  0  0  0
   -3.1604    3.2232    0.0000 C   0  0  0  0  0  0  0  0  0  0  0  0
   -3.1604    1.5655    0.0000 C   0  0  0  0  0  0  0  0  0  0  0  0
   -2.5325    0.6111    0.0000 C   0  0  0  0  0  0  0  0  0  0  0  0
    1.5697    5.0985    0.0000 C   0  0  0  0  0  0  0  0  0  0  0  0
    2.2855    4.6883    0.0000 C   0  0  0  0  0  0  0  0  0  0  0  0
    0.1675    4.7260    0.0000 O   0  0  0  0  0  0  0  0  0  0  0  0
    2.6539    3.2859    0.0000 O   0  0  0  0  0  0  0  0  0  0  0  0
   -0.3391    3.8176    0.0000 O   0  0  0  0  0  0  0  0  0  0  0  0
   -2.6455   -0.2009    0.0000 O   0  0  0  0  0  0  0  0  0  0  0  0
   -3.8762    2.8087    0.0000 C   0  0  0  0  0  0  0  0  0  0  0  0
   -3.8762    1.9799    0.0000 C   0  0  0  0  0  0  0  0  0  0  0  0
   -3.1729    1.1134    0.0000 O   0  0  0  0  0  0  0  0  0  0  0  0
   -4.5836    3.2232    0.0000 Cl  0  0  0  0  0  0  0  0  0  0  0  0
   -3.9306    0.8120    0.0000 C   0  0  0  0  0  0  0  0  0  0  0  0
  2  1  1  0  0  0  0
  3 11  1  0  0  0  0
  4  1  2  0  0  0  0
  5  1  1  0  0  0  0
  6  5  1  0  0  0  0
  7  2  1  0  0  0  0
  8  3  1  0  0  0  0
  9  3  1  0  0  0  0
 10  4  1  0  0  0  0
 11 10  1  0  0  0  0
 12  2  1  0  0  0  0
 13  6  1  0  0  0  0
 14  7  1  0  0  0  0
 15 12  1  0  0  0  0
 16  9  1  0  0  0  0
 17  8  1  0  0  0  0
 18  9  2  0  0  0  0
 19  8  2  0  0  0  0
 20 10  2  0  0  0  0
 21 15  2  0  0  0  0
 22 13  2  0  0  0  0
 23 14  2  0  0  0  0
 24 15  1  0  0  0  0
 25 22  1  0  0  0  0
 26 24  1  0  0  0  0
  6  7  2  0  0  0  0
 22 23  1  0  0  0  0
 16 17  1  0  0  0  0
M  END
>  <IDNUMBER>
F1366-0636

>  <Chemical_Name>
methyl 2-[(2Z)-6-chloro-2-{[2-(2,5-dioxopyrrolidin-1-yl)acetyl]imino}-2,3-dihydro-1,3-benzothiazol-3-yl]acetate

>  <PriceCoeff>
1.00

>  <CAS>
941917-29-9

>  <MW>
395.82

>  <Description>
solid

>  <FSP3>
0.31

>  <clogP>
3.05

>  <TPSA>
121.65

>  <Acceptor>
5

>  <Donor>
0

>  <RotBonds>
6

>  <HAC>
26

>  <Collection>
General

>  <PPDS>
+

$$$$
F1366-0858
  Mrv2219 10102508112D          

 31 34  0  0  0  0            999 V2000
   -1.1709    2.4005    0.0000 C   0  0  0  0  0  0  0  0  0  0  0  0
   -1.6576    1.7332    0.0000 N   0  0  0  0  0  0  0  0  0  0  0  0
   -0.3399    2.3921    0.0000 N   0  0  0  0  0  0  0  0  0  0  0  0
    2.5222    1.6828    0.0000 N   0  0  0  0  0  0  0  0  0  0  0  0
   -1.6576    3.0719    0.0000 S   0  0  0  0  0  0  0  0  0  0  0  0
   -2.4508    2.8159    0.0000 C   0  0  0  0  0  0  0  0  0  0  0  0
   -2.4508    1.9849    0.0000 C   0  0  0  0  0  0  0  0  0  0  0  0
    0.0755    3.1097    0.0000 C   0  0  0  0  0  0  0  0  0  0  0  0
    2.1193    2.4005    0.0000 C   0  0  0  0  0  0  0  0  0  0  0  0
    3.3405    1.5611    0.0000 C   0  0  0  0  0  0  0  0  0  0  0  0
    2.1571    0.9526    0.0000 C   0  0  0  0  0  0  0  0  0  0  0  0
   -1.7752    0.9149    0.0000 C   0  0  0  0  0  0  0  0  0  0  0  0
    1.3010    2.4005    0.0000 C   0  0  0  0  0  0  0  0  0  0  0  0
    0.8939    3.1097    0.0000 C   0  0  0  0  0  0  0  0  0  0  0  0
   -3.1684    3.2313    0.0000 C   0  0  0  0  0  0  0  0  0  0  0  0
   -3.1684    1.5695    0.0000 C   0  0  0  0  0  0  0  0  0  0  0  0
   -2.5390    0.6126    0.0000 C   0  0  0  0  0  0  0  0  0  0  0  0
   -0.3399    3.8273    0.0000 O   0  0  0  0  0  0  0  0  0  0  0  0
    3.4790    0.7511    0.0000 C   0  0  0  0  0  0  0  0  0  0  0  0
    2.7614    0.3734    0.0000 C   0  0  0  0  0  0  0  0  0  0  0  0
    3.9197    2.1360    0.0000 O   0  0  0  0  0  0  0  0  0  0  0  0
    1.3514    0.8184    0.0000 O   0  0  0  0  0  0  0  0  0  0  0  0
   -2.6523   -0.2014    0.0000 O   0  0  0  0  0  0  0  0  0  0  0  0
   -3.8861    2.8159    0.0000 C   0  0  0  0  0  0  0  0  0  0  0  0
   -3.8861    1.9849    0.0000 C   0  0  0  0  0  0  0  0  0  0  0  0
   -3.1810    1.1163    0.0000 O   0  0  0  0  0  0  0  0  0  0  0  0
   -4.5953    3.2313    0.0000 F   0  0  0  0  0  0  0  0  0  0  0  0
    2.5348    3.1055    0.0000 C   0  0  0  0  0  0  0  0  0  0  0  0
    1.3094    3.8230    0.0000 C   0  0  0  0  0  0  0  0  0  0  0  0
    2.1276    3.8230    0.0000 C   0  0  0  0  0  0  0  0  0  0  0  0
   -3.9407    0.8142    0.0000 C   0  0  0  0  0  0  0  0  0  0  0  0
  2  1  1  0  0  0  0
  3  1  2  0  0  0  0
  4  9  1  0  0  0  0
  5  1  1  0  0  0  0
  6  5  1  0  0  0  0
  7  2  1  0  0  0  0
  8  3  1  0  0  0  0
  9 13  1  0  0  0  0
 10  4  1  0  0  0  0
 11  4  1  0  0  0  0
 12  2  1  0  0  0  0
 13 14  2  0  0  0  0
 14  8  1  0  0  0  0
 15  6  1  0  0  0  0
 16  7  1  0  0  0  0
 17 12  1  0  0  0  0
 18  8  2  0  0  0  0
 19 10  1  0  0  0  0
 20 11  1  0  0  0  0
 21 10  2  0  0  0  0
 22 11  2  0  0  0  0
 23 17  2  0  0  0  0
 24 15  2  0  0  0  0
 25 16  2  0  0  0  0
 26 17  1  0  0  0  0
 27 24  1  0  0  0  0
 28 30  1  0  0  0  0
 29 14  1  0  0  0  0
 30 29  2  0  0  0  0
 31 26  1  0  0  0  0
  6  7  2  0  0  0  0
 24 25  1  0  0  0  0
 28  9  2  0  0  0  0
 20 19  1  0  0  0  0
M  END
>  <IDNUMBER>
F1366-0858

>  <Chemical_Name>
methyl 2-[(2Z)-2-{[3-(2,5-dioxopyrrolidin-1-yl)benzoyl]imino}-6-fluoro-2,3-dihydro-1,3-benzothiazol-3-yl]acetate

>  <PriceCoeff>
1.00

>  <CAS>
865198-19-2

>  <MW>
441.43

>  <Description>
solid

>  <FSP3>
0.19

>  <clogP>
2.65

>  <TPSA>
121.65

>  <Acceptor>
5

>  <Donor>
0

>  <RotBonds>
6

>  <HAC>
31

>  <Collection>
General

>  <PPDS>
+

$$$$
F1366-1164
  Mrv2219 10102508112D          

 29 31  0  0  0  0            999 V2000
   -1.1679    2.3943    0.0000 C   0  0  0  0  0  0  0  0  0  0  0  0
   -1.6534    1.7288    0.0000 N   0  0  0  0  0  0  0  0  0  0  0  0
    1.3060    3.8134    0.0000 N   0  0  0  0  0  0  0  0  0  0  0  0
   -0.3391    2.3860    0.0000 N   0  0  0  0  0  0  0  0  0  0  0  0
   -1.6534    3.0641    0.0000 S   0  0  0  0  0  0  0  0  0  0  0  0
   -4.5836    3.2232    0.0000 S   0  0  0  0  0  0  0  0  0  0  0  0
   -2.4446    2.8087    0.0000 C   0  0  0  0  0  0  0  0  0  0  0  0
   -2.4446    1.9799    0.0000 C   0  0  0  0  0  0  0  0  0  0  0  0
    2.1139    3.8887    0.0000 C   0  0  0  0  0  0  0  0  0  0  0  0
    0.9670    4.5502    0.0000 C   0  0  0  0  0  0  0  0  0  0  0  0
    0.0753    3.1018    0.0000 C   0  0  0  0  0  0  0  0  0  0  0  0
   -3.8762    2.8087    0.0000 C   0  0  0  0  0  0  0  0  0  0  0  0
   -3.1604    3.2232    0.0000 C   0  0  0  0  0  0  0  0  0  0  0  0
    0.8916    3.1018    0.0000 C   0  0  0  0  0  0  0  0  0  0  0  0
   -1.7707    0.9125    0.0000 C   0  0  0  0  0  0  0  0  0  0  0  0
   -3.1604    1.5655    0.0000 C   0  0  0  0  0  0  0  0  0  0  0  0
   -2.5325    0.6111    0.0000 C   0  0  0  0  0  0  0  0  0  0  0  0
   -4.1524    3.9013    0.0000 O   0  0  0  0  0  0  0  0  0  0  0  0
   -5.0315    2.5199    0.0000 O   0  0  0  0  0  0  0  0  0  0  0  0
    1.5697    5.0985    0.0000 C   0  0  0  0  0  0  0  0  0  0  0  0
    2.2855    4.6883    0.0000 C   0  0  0  0  0  0  0  0  0  0  0  0
   -3.8762    1.9799    0.0000 C   0  0  0  0  0  0  0  0  0  0  0  0
    0.1675    4.7260    0.0000 O   0  0  0  0  0  0  0  0  0  0  0  0
    2.6539    3.2859    0.0000 O   0  0  0  0  0  0  0  0  0  0  0  0
   -0.3391    3.8176    0.0000 O   0  0  0  0  0  0  0  0  0  0  0  0
   -2.6455   -0.2009    0.0000 O   0  0  0  0  0  0  0  0  0  0  0  0
   -5.2826    3.6501    0.0000 C   0  0  0  0  0  0  0  0  0  0  0  0
   -3.1729    1.1134    0.0000 O   0  0  0  0  0  0  0  0  0  0  0  0
   -3.9306    0.8120    0.0000 C   0  0  0  0  0  0  0  0  0  0  0  0
  2  1  1  0  0  0  0
  3 14  1  0  0  0  0
  4  1  2  0  0  0  0
  5  1  1  0  0  0  0
  6 12  1  0  0  0  0
  7  5  1  0  0  0  0
  8  2  1  0  0  0  0
  9  3  1  0  0  0  0
 10  3  1  0  0  0  0
 11  4  1  0  0  0  0
 12 13  2  0  0  0  0
 13  7  1  0  0  0  0
 14 11  1  0  0  0  0
 15  2  1  0  0  0  0
 16  8  1  0  0  0  0
 17 15  1  0  0  0  0
 18  6  2  0  0  0  0
 19  6  2  0  0  0  0
 20 10  1  0  0  0  0
 21  9  1  0  0  0  0
 22 16  2  0  0  0  0
 23 10  2  0  0  0  0
 24  9  2  0  0  0  0
 25 11  2  0  0  0  0
 26 17  2  0  0  0  0
 27  6  1  0  0  0  0
 28 17  1  0  0  0  0
 29 28  1  0  0  0  0
  7  8  2  0  0  0  0
 12 22  1  0  0  0  0
 20 21  1  0  0  0  0
M  END
>  <IDNUMBER>
F1366-1164

>  <Chemical_Name>
methyl 2-[(2Z)-2-{[2-(2,5-dioxopyrrolidin-1-yl)acetyl]imino}-6-methanesulfonyl-2,3-dihydro-1,3-benzothiazol-3-yl]acetate

>  <PriceCoeff>
1.00

>  <CAS>
865198-51-2

>  <MW>
439.46

>  <Description>
solid

>  <FSP3>
0.35

>  <clogP>
0.70

>  <TPSA>
164.17

>  <Acceptor>
7

>  <Donor>
0

>  <RotBonds>
7

>  <HAC>
29

>  <Collection>
General

>  <PPDS>
+

$$$$
F1366-1296
  Mrv2219 10102508112D          

 29 31  0  0  0  0            999 V2000
   -1.1679    2.3943    0.0000 C   0  0  0  0  0  0  0  0  0  0  0  0
   -1.6534    1.7288    0.0000 N   0  0  0  0  0  0  0  0  0  0  0  0
    1.3060    3.8134    0.0000 N   0  0  0  0  0  0  0  0  0  0  0  0
   -4.5836    3.2232    0.0000 S   0  0  0  0  0  0  0  0  0  0  0  0
   -0.3391    2.3860    0.0000 N   0  0  0  0  0  0  0  0  0  0  0  0
   -1.6534    3.0641    0.0000 S   0  0  0  0  0  0  0  0  0  0  0  0
   -2.4446    2.8087    0.0000 C   0  0  0  0  0  0  0  0  0  0  0  0
   -2.4446    1.9799    0.0000 C   0  0  0  0  0  0  0  0  0  0  0  0
    2.1139    3.8887    0.0000 C   0  0  0  0  0  0  0  0  0  0  0  0
    0.9670    4.5502    0.0000 C   0  0  0  0  0  0  0  0  0  0  0  0
    0.0753    3.1018    0.0000 C   0  0  0  0  0  0  0  0  0  0  0  0
   -3.8762    2.8087    0.0000 C   0  0  0  0  0  0  0  0  0  0  0  0
   -3.1604    3.2232    0.0000 C   0  0  0  0  0  0  0  0  0  0  0  0
    0.8916    3.1018    0.0000 C   0  0  0  0  0  0  0  0  0  0  0  0
   -1.7707    0.9125    0.0000 C   0  0  0  0  0  0  0  0  0  0  0  0
   -3.1604    1.5655    0.0000 C   0  0  0  0  0  0  0  0  0  0  0  0
   -4.1524    3.9013    0.0000 O   0  0  0  0  0  0  0  0  0  0  0  0
   -5.0315    2.5199    0.0000 O   0  0  0  0  0  0  0  0  0  0  0  0
   -2.5325    0.6111    0.0000 C   0  0  0  0  0  0  0  0  0  0  0  0
   -5.2826    3.6501    0.0000 N   0  0  0  0  0  0  0  0  0  0  0  0
   -3.8762    1.9799    0.0000 C   0  0  0  0  0  0  0  0  0  0  0  0
    1.5697    5.0985    0.0000 C   0  0  0  0  0  0  0  0  0  0  0  0
    2.2855    4.6883    0.0000 C   0  0  0  0  0  0  0  0  0  0  0  0
    0.1675    4.7260    0.0000 O   0  0  0  0  0  0  0  0  0  0  0  0
    2.6539    3.2859    0.0000 O   0  0  0  0  0  0  0  0  0  0  0  0
   -0.3391    3.8176    0.0000 O   0  0  0  0  0  0  0  0  0  0  0  0
   -2.6455   -0.2009    0.0000 O   0  0  0  0  0  0  0  0  0  0  0  0
   -3.1729    1.1134    0.0000 O   0  0  0  0  0  0  0  0  0  0  0  0
   -3.9306    0.8120    0.0000 C   0  0  0  0  0  0  0  0  0  0  0  0
  2  1  1  0  0  0  0
  3 14  1  0  0  0  0
  4 12  1  0  0  0  0
  5  1  2  0  0  0  0
  6  1  1  0  0  0  0
  7  6  1  0  0  0  0
  8  2  1  0  0  0  0
  9  3  1  0  0  0  0
 10  3  1  0  0  0  0
 11  5  1  0  0  0  0
 12 13  2  0  0  0  0
 13  7  1  0  0  0  0
 14 11  1  0  0  0  0
 15  2  1  0  0  0  0
 16  8  1  0  0  0  0
 17  4  2  0  0  0  0
 18  4  2  0  0  0  0
 19 15  1  0  0  0  0
 20  4  1  0  0  0  0
 21 16  2  0  0  0  0
 22 10  1  0  0  0  0
 23  9  1  0  0  0  0
 24 10  2  0  0  0  0
 25  9  2  0  0  0  0
 26 11  2  0  0  0  0
 27 19  2  0  0  0  0
 28 19  1  0  0  0  0
 29 28  1  0  0  0  0
  7  8  2  0  0  0  0
 12 21  1  0  0  0  0
 22 23  1  0  0  0  0
M  END
>  <IDNUMBER>
F1366-1296

>  <Chemical_Name>
methyl 2-[(2Z)-2-{[2-(2,5-dioxopyrrolidin-1-yl)acetyl]imino}-6-sulfamoyl-2,3-dihydro-1,3-benzothiazol-3-yl]acetate

>  <PriceCoeff>
1.00

>  <CAS>
1164507-30-5

>  <MW>
440.45

>  <Description>
solid

>  <FSP3>
0.31

>  <clogP>
0.50

>  <TPSA>
190.19

>  <Acceptor>
7

>  <Donor>
1

>  <RotBonds>
7

>  <HAC>
29

>  <Collection>
General

>  <PPDS>
+

$$$$
F1366-1386
  Mrv2219 10102508112D          

 34 37  0  0  0  0            999 V2000
   -1.1731    2.4050    0.0000 C   0  0  0  0  0  0  0  0  0  0  0  0
   -1.6608    1.7365    0.0000 N   0  0  0  0  0  0  0  0  0  0  0  0
   -0.3406    2.3966    0.0000 N   0  0  0  0  0  0  0  0  0  0  0  0
    2.5270    1.6860    0.0000 N   0  0  0  0  0  0  0  0  0  0  0  0
   -1.6608    3.0778    0.0000 S   0  0  0  0  0  0  0  0  0  0  0  0
   -2.4555    2.8213    0.0000 C   0  0  0  0  0  0  0  0  0  0  0  0
   -2.4555    1.9887    0.0000 C   0  0  0  0  0  0  0  0  0  0  0  0
    0.0757    3.1156    0.0000 C   0  0  0  0  0  0  0  0  0  0  0  0
    2.1234    2.4050    0.0000 C   0  0  0  0  0  0  0  0  0  0  0  0
    3.3469    1.5641    0.0000 C   0  0  0  0  0  0  0  0  0  0  0  0
    2.1612    0.9544    0.0000 C   0  0  0  0  0  0  0  0  0  0  0  0
   -3.1744    3.2375    0.0000 C   0  0  0  0  0  0  0  0  0  0  0  0
   -1.7785    0.9166    0.0000 C   0  0  0  0  0  0  0  0  0  0  0  0
    1.3035    2.4050    0.0000 C   0  0  0  0  0  0  0  0  0  0  0  0
    0.8956    3.1156    0.0000 C   0  0  0  0  0  0  0  0  0  0  0  0
   -3.1744    1.5725    0.0000 C   0  0  0  0  0  0  0  0  0  0  0  0
   -2.5438    0.6138    0.0000 C   0  0  0  0  0  0  0  0  0  0  0  0
   -5.3188    2.8255    0.0000 C   0  0  0  0  0  0  0  0  0  0  0  0
   -4.6040    3.2375    0.0000 N   0  0  0  0  0  0  0  0  0  0  0  0
   -3.8934    2.8213    0.0000 C   0  0  0  0  0  0  0  0  0  0  0  0
   -0.3406    3.8346    0.0000 O   0  0  0  0  0  0  0  0  0  0  0  0
    3.4857    0.7526    0.0000 C   0  0  0  0  0  0  0  0  0  0  0  0
    2.7667    0.3742    0.0000 C   0  0  0  0  0  0  0  0  0  0  0  0
    3.9271    2.1401    0.0000 O   0  0  0  0  0  0  0  0  0  0  0  0
    1.3539    0.8199    0.0000 O   0  0  0  0  0  0  0  0  0  0  0  0
   -2.6573   -0.2018    0.0000 O   0  0  0  0  0  0  0  0  0  0  0  0
   -6.0252    3.2375    0.0000 O   0  0  0  0  0  0  0  0  0  0  0  0
   -3.8934    1.9887    0.0000 C   0  0  0  0  0  0  0  0  0  0  0  0
   -3.1871    1.1184    0.0000 O   0  0  0  0  0  0  0  0  0  0  0  0
    2.5396    3.1114    0.0000 C   0  0  0  0  0  0  0  0  0  0  0  0
    1.3118    3.8304    0.0000 C   0  0  0  0  0  0  0  0  0  0  0  0
    2.1317    3.8304    0.0000 C   0  0  0  0  0  0  0  0  0  0  0  0
   -5.3188    2.0140    0.0000 C   0  0  0  0  0  0  0  0  0  0  0  0
   -3.9481    0.8157    0.0000 C   0  0  0  0  0  0  0  0  0  0  0  0
  2  1  1  0  0  0  0
  3  1  2  0  0  0  0
  4  9  1  0  0  0  0
  5  1  1  0  0  0  0
  6  5  1  0  0  0  0
  7  2  1  0  0  0  0
  8  3  1  0  0  0  0
  9 14  1  0  0  0  0
 10  4  1  0  0  0  0
 11  4  1  0  0  0  0
 12  6  1  0  0  0  0
 13  2  1  0  0  0  0
 14 15  2  0  0  0  0
 15  8  1  0  0  0  0
 16  7  1  0  0  0  0
 17 13  1  0  0  0  0
 18 19  1  0  0  0  0
 19 20  1  0  0  0  0
 20 12  2  0  0  0  0
 21  8  2  0  0  0  0
 22 10  1  0  0  0  0
 23 11  1  0  0  0  0
 24 10  2  0  0  0  0
 25 11  2  0  0  0  0
 26 17  2  0  0  0  0
 27 18  2  0  0  0  0
 28 16  2  0  0  0  0
 29 17  1  0  0  0  0
 30 32  1  0  0  0  0
 31 15  1  0  0  0  0
 32 31  2  0  0  0  0
 33 18  1  0  0  0  0
 34 29  1  0  0  0  0
  6  7  2  0  0  0  0
 20 28  1  0  0  0  0
 30  9  2  0  0  0  0
 23 22  1  0  0  0  0
M  END
>  <IDNUMBER>
F1366-1386

>  <Chemical_Name>
methyl 2-[(2Z)-2-{[3-(2,5-dioxopyrrolidin-1-yl)benzoyl]imino}-6-acetamido-2,3-dihydro-1,3-benzothiazol-3-yl]acetate

>  <PriceCoeff>
1.00

>  <CAS>
941917-37-9

>  <MW>
480.49

>  <Description>
solid

>  <FSP3>
0.22

>  <clogP>
1.53

>  <TPSA>
150.75

>  <Acceptor>
6

>  <Donor>
1

>  <RotBonds>
7

>  <HAC>
34

>  <Collection>
General

>  <PPDS>
+

$$$$
F1366-1518
  Mrv2219 10102508112D          

 32 35  0  0  0  0            999 V2000
   -1.1709    2.4005    0.0000 C   0  0  0  0  0  0  0  0  0  0  0  0
   -1.6576    1.7332    0.0000 N   0  0  0  0  0  0  0  0  0  0  0  0
   -0.3399    2.3921    0.0000 N   0  0  0  0  0  0  0  0  0  0  0  0
    2.5222    1.6828    0.0000 N   0  0  0  0  0  0  0  0  0  0  0  0
   -1.6576    3.0719    0.0000 S   0  0  0  0  0  0  0  0  0  0  0  0
   -2.4508    2.8159    0.0000 C   0  0  0  0  0  0  0  0  0  0  0  0
   -2.4508    1.9849    0.0000 C   0  0  0  0  0  0  0  0  0  0  0  0
    0.0755    3.1097    0.0000 C   0  0  0  0  0  0  0  0  0  0  0  0
    2.1193    2.4005    0.0000 C   0  0  0  0  0  0  0  0  0  0  0  0
    3.3405    1.5611    0.0000 C   0  0  0  0  0  0  0  0  0  0  0  0
    2.1571    0.9526    0.0000 C   0  0  0  0  0  0  0  0  0  0  0  0
   -1.7752    0.9149    0.0000 C   0  0  0  0  0  0  0  0  0  0  0  0
    1.3010    2.4005    0.0000 C   0  0  0  0  0  0  0  0  0  0  0  0
    0.8939    3.1097    0.0000 C   0  0  0  0  0  0  0  0  0  0  0  0
   -3.1684    3.2313    0.0000 C   0  0  0  0  0  0  0  0  0  0  0  0
   -3.1684    1.5695    0.0000 C   0  0  0  0  0  0  0  0  0  0  0  0
   -2.5390    0.6126    0.0000 C   0  0  0  0  0  0  0  0  0  0  0  0
   -0.3399    3.8273    0.0000 O   0  0  0  0  0  0  0  0  0  0  0  0
    3.4790    0.7511    0.0000 C   0  0  0  0  0  0  0  0  0  0  0  0
    2.7614    0.3734    0.0000 C   0  0  0  0  0  0  0  0  0  0  0  0
    3.9197    2.1360    0.0000 O   0  0  0  0  0  0  0  0  0  0  0  0
    1.3514    0.8184    0.0000 O   0  0  0  0  0  0  0  0  0  0  0  0
   -2.6523   -0.2014    0.0000 O   0  0  0  0  0  0  0  0  0  0  0  0
   -3.8861    2.8159    0.0000 C   0  0  0  0  0  0  0  0  0  0  0  0
   -3.8861    1.9849    0.0000 C   0  0  0  0  0  0  0  0  0  0  0  0
   -3.1810    1.1163    0.0000 O   0  0  0  0  0  0  0  0  0  0  0  0
    2.5348    3.1055    0.0000 C   0  0  0  0  0  0  0  0  0  0  0  0
   -4.5953    3.2313    0.0000 O   0  0  0  0  0  0  0  0  0  0  0  0
    1.3094    3.8230    0.0000 C   0  0  0  0  0  0  0  0  0  0  0  0
    2.1276    3.8230    0.0000 C   0  0  0  0  0  0  0  0  0  0  0  0
   -3.9407    0.8142    0.0000 C   0  0  0  0  0  0  0  0  0  0  0  0
   -5.3086    2.8201    0.0000 C   0  0  0  0  0  0  0  0  0  0  0  0
  2  1  1  0  0  0  0
  3  1  2  0  0  0  0
  4  9  1  0  0  0  0
  5  1  1  0  0  0  0
  6  5  1  0  0  0  0
  7  2  1  0  0  0  0
  8  3  1  0  0  0  0
  9 13  1  0  0  0  0
 10  4  1  0  0  0  0
 11  4  1  0  0  0  0
 12  2  1  0  0  0  0
 13 14  2  0  0  0  0
 14  8  1  0  0  0  0
 15  6  1  0  0  0  0
 16  7  1  0  0  0  0
 17 12  1  0  0  0  0
 18  8  2  0  0  0  0
 19 10  1  0  0  0  0
 20 11  1  0  0  0  0
 21 10  2  0  0  0  0
 22 11  2  0  0  0  0
 23 17  2  0  0  0  0
 24 15  2  0  0  0  0
 25 16  2  0  0  0  0
 26 17  1  0  0  0  0
 27 30  1  0  0  0  0
 28 24  1  0  0  0  0
 29 14  1  0  0  0  0
 30 29  2  0  0  0  0
 31 26  1  0  0  0  0
 32 28  1  0  0  0  0
  6  7  2  0  0  0  0
 24 25  1  0  0  0  0
 27  9  2  0  0  0  0
 20 19  1  0  0  0  0
M  END
>  <IDNUMBER>
F1366-1518

>  <Chemical_Name>
methyl 2-[(2Z)-2-{[3-(2,5-dioxopyrrolidin-1-yl)benzoyl]imino}-6-methoxy-2,3-dihydro-1,3-benzothiazol-3-yl]acetate

>  <PriceCoeff>
1.00

>  <CAS>
865199-98-0

>  <MW>
453.47

>  <Description>
solid

>  <FSP3>
0.23

>  <clogP>
2.43

>  <TPSA>
130.88

>  <Acceptor>
6

>  <Donor>
0

>  <RotBonds>
7

>  <HAC>
32

>  <Collection>
General

>  <PPDS>
+

$$$$
F1366-1560
  Mrv2219 10102508112D          

 27 29  0  0  0  0            999 V2000
   -1.1679    2.3943    0.0000 C   0  0  0  0  0  0  0  0  0  0  0  0
   -1.6534    1.7288    0.0000 N   0  0  0  0  0  0  0  0  0  0  0  0
    1.3060    3.8134    0.0000 N   0  0  0  0  0  0  0  0  0  0  0  0
   -0.3391    2.3860    0.0000 N   0  0  0  0  0  0  0  0  0  0  0  0
   -1.6534    3.0641    0.0000 S   0  0  0  0  0  0  0  0  0  0  0  0
   -2.4446    2.8087    0.0000 C   0  0  0  0  0  0  0  0  0  0  0  0
   -2.4446    1.9799    0.0000 C   0  0  0  0  0  0  0  0  0  0  0  0
    2.1139    3.8887    0.0000 C   0  0  0  0  0  0  0  0  0  0  0  0
    0.9670    4.5502    0.0000 C   0  0  0  0  0  0  0  0  0  0  0  0
    0.0753    3.1018    0.0000 C   0  0  0  0  0  0  0  0  0  0  0  0
    0.8916    3.1018    0.0000 C   0  0  0  0  0  0  0  0  0  0  0  0
   -1.7707    0.9125    0.0000 C   0  0  0  0  0  0  0  0  0  0  0  0
   -3.1604    3.2232    0.0000 C   0  0  0  0  0  0  0  0  0  0  0  0
   -3.1604    1.5655    0.0000 C   0  0  0  0  0  0  0  0  0  0  0  0
   -2.5325    0.6111    0.0000 C   0  0  0  0  0  0  0  0  0  0  0  0
    1.5697    5.0985    0.0000 C   0  0  0  0  0  0  0  0  0  0  0  0
    2.2855    4.6883    0.0000 C   0  0  0  0  0  0  0  0  0  0  0  0
    0.1675    4.7260    0.0000 O   0  0  0  0  0  0  0  0  0  0  0  0
    2.6539    3.2859    0.0000 O   0  0  0  0  0  0  0  0  0  0  0  0
   -0.3391    3.8176    0.0000 O   0  0  0  0  0  0  0  0  0  0  0  0
   -2.6455   -0.2009    0.0000 O   0  0  0  0  0  0  0  0  0  0  0  0
   -3.8762    2.8087    0.0000 C   0  0  0  0  0  0  0  0  0  0  0  0
   -3.8762    1.9799    0.0000 C   0  0  0  0  0  0  0  0  0  0  0  0
   -3.1729    1.1134    0.0000 O   0  0  0  0  0  0  0  0  0  0  0  0
   -4.5836    3.2232    0.0000 O   0  0  0  0  0  0  0  0  0  0  0  0
   -3.9306    0.8120    0.0000 C   0  0  0  0  0  0  0  0  0  0  0  0
   -5.2952    2.8130    0.0000 C   0  0  0  0  0  0  0  0  0  0  0  0
  2  1  1  0  0  0  0
  3 11  1  0  0  0  0
  4  1  2  0  0  0  0
  5  1  1  0  0  0  0
  6  5  1  0  0  0  0
  7  2  1  0  0  0  0
  8  3  1  0  0  0  0
  9  3  1  0  0  0  0
 10  4  1  0  0  0  0
 11 10  1  0  0  0  0
 12  2  1  0  0  0  0
 13  6  1  0  0  0  0
 14  7  1  0  0  0  0
 15 12  1  0  0  0  0
 16  9  1  0  0  0  0
 17  8  1  0  0  0  0
 18  9  2  0  0  0  0
 19  8  2  0  0  0  0
 20 10  2  0  0  0  0
 21 15  2  0  0  0  0
 22 13  2  0  0  0  0
 23 14  2  0  0  0  0
 24 15  1  0  0  0  0
 25 22  1  0  0  0  0
 26 24  1  0  0  0  0
 27 25  1  0  0  0  0
  6  7  2  0  0  0  0
 22 23  1  0  0  0  0
 16 17  1  0  0  0  0
M  END
>  <IDNUMBER>
F1366-1560

>  <Chemical_Name>
methyl 2-[(2Z)-2-{[2-(2,5-dioxopyrrolidin-1-yl)acetyl]imino}-6-methoxy-2,3-dihydro-1,3-benzothiazol-3-yl]acetate

>  <PriceCoeff>
1.00

>  <CAS>
897734-54-2

>  <MW>
391.40

>  <Description>
solid

>  <FSP3>
0.35

>  <clogP>
2.26

>  <TPSA>
130.88

>  <Acceptor>
6

>  <Donor>
0

>  <RotBonds>
7

>  <HAC>
27

>  <Collection>
General

>  <PPDS>
+

$$$$
F1366-1782
  Mrv2219 10102508112D          

 32 35  0  0  0  0            999 V2000
   -1.1744    2.4078    0.0000 C   0  0  0  0  0  0  0  0  0  0  0  0
   -1.6627    1.7385    0.0000 N   0  0  0  0  0  0  0  0  0  0  0  0
   -0.3410    2.3994    0.0000 N   0  0  0  0  0  0  0  0  0  0  0  0
    2.5299    1.6880    0.0000 N   0  0  0  0  0  0  0  0  0  0  0  0
   -1.6627    3.0813    0.0000 S   0  0  0  0  0  0  0  0  0  0  0  0
   -2.4583    1.9910    0.0000 C   0  0  0  0  0  0  0  0  0  0  0  0
   -2.4583    2.8245    0.0000 C   0  0  0  0  0  0  0  0  0  0  0  0
    0.0758    3.1192    0.0000 C   0  0  0  0  0  0  0  0  0  0  0  0
    2.1258    2.4078    0.0000 C   0  0  0  0  0  0  0  0  0  0  0  0
    3.3508    1.5659    0.0000 C   0  0  0  0  0  0  0  0  0  0  0  0
    2.1637    0.9555    0.0000 C   0  0  0  0  0  0  0  0  0  0  0  0
   -1.7806    0.9176    0.0000 C   0  0  0  0  0  0  0  0  0  0  0  0
    1.3050    2.4078    0.0000 C   0  0  0  0  0  0  0  0  0  0  0  0
    0.8966    3.1192    0.0000 C   0  0  0  0  0  0  0  0  0  0  0  0
   -3.1781    1.5743    0.0000 C   0  0  0  0  0  0  0  0  0  0  0  0
   -2.5467    0.6145    0.0000 C   0  0  0  0  0  0  0  0  0  0  0  0
   -3.1781    3.2413    0.0000 C   0  0  0  0  0  0  0  0  0  0  0  0
   -0.3410    3.8390    0.0000 O   0  0  0  0  0  0  0  0  0  0  0  0
    3.4897    0.7535    0.0000 C   0  0  0  0  0  0  0  0  0  0  0  0
    2.7699    0.3746    0.0000 C   0  0  0  0  0  0  0  0  0  0  0  0
    3.9317    2.1426    0.0000 O   0  0  0  0  0  0  0  0  0  0  0  0
    1.3555    0.8208    0.0000 O   0  0  0  0  0  0  0  0  0  0  0  0
   -2.6603   -0.2021    0.0000 O   0  0  0  0  0  0  0  0  0  0  0  0
   -3.8979    1.9910    0.0000 C   0  0  0  0  0  0  0  0  0  0  0  0
   -3.8979    2.8245    0.0000 C   0  0  0  0  0  0  0  0  0  0  0  0
   -3.1907    1.1197    0.0000 O   0  0  0  0  0  0  0  0  0  0  0  0
    2.5426    3.1150    0.0000 C   0  0  0  0  0  0  0  0  0  0  0  0
    1.3134    3.8348    0.0000 C   0  0  0  0  0  0  0  0  0  0  0  0
    2.1342    3.8348    0.0000 C   0  0  0  0  0  0  0  0  0  0  0  0
   -3.9527    0.8082    0.0000 C   0  0  0  0  0  0  0  0  0  0  0  0
   -4.6094    3.2413    0.0000 C   0  0  0  0  0  0  0  0  0  0  0  0
   -4.5925    1.3217    0.0000 C   0  0  0  0  0  0  0  0  0  0  0  0
  2  1  1  0  0  0  0
  3  1  2  0  0  0  0
  4  9  1  0  0  0  0
  5  1  1  0  0  0  0
  6  2  1  0  0  0  0
  7  5  1  0  0  0  0
  8  3  1  0  0  0  0
  9 13  1  0  0  0  0
 10  4  1  0  0  0  0
 11  4  1  0  0  0  0
 12  2  1  0  0  0  0
 13 14  2  0  0  0  0
 14  8  1  0  0  0  0
 15  6  1  0  0  0  0
 16 12  1  0  0  0  0
 17  7  1  0  0  0  0
 18  8  2  0  0  0  0
 19 10  1  0  0  0  0
 20 11  1  0  0  0  0
 21 10  2  0  0  0  0
 22 11  2  0  0  0  0
 23 16  2  0  0  0  0
 24 15  2  0  0  0  0
 25 17  2  0  0  0  0
 26 16  1  0  0  0  0
 27 29  1  0  0  0  0
 28 14  1  0  0  0  0
 29 28  2  0  0  0  0
 30 26  1  0  0  0  0
 31 25  1  0  0  0  0
 32 30  1  0  0  0  0
  7  6  2  0  0  0  0
 25 24  1  0  0  0  0
 27  9  2  0  0  0  0
 20 19  1  0  0  0  0
M  END
>  <IDNUMBER>
F1366-1782

>  <Chemical_Name>
ethyl 2-[(2Z)-2-{[3-(2,5-dioxopyrrolidin-1-yl)benzoyl]imino}-6-methyl-2,3-dihydro-1,3-benzothiazol-3-yl]acetate

>  <PriceCoeff>
1.00

>  <CAS>
897734-58-6

>  <MW>
451.49

>  <Description>
solid

>  <FSP3>
0.26

>  <clogP>
3.54

>  <TPSA>
121.65

>  <Acceptor>
5

>  <Donor>
0

>  <RotBonds>
7

>  <HAC>
32

>  <Collection>
General

>  <PPDS>
+

$$$$
F1366-2178
  Mrv2219 10102508112D          

 32 35  0  0  0  0            999 V2000
   -1.1709    2.4005    0.0000 C   0  0  0  0  0  0  0  0  0  0  0  0
   -1.6576    1.7332    0.0000 N   0  0  0  0  0  0  0  0  0  0  0  0
   -0.3399    2.3921    0.0000 N   0  0  0  0  0  0  0  0  0  0  0  0
    2.5222    1.6828    0.0000 N   0  0  0  0  0  0  0  0  0  0  0  0
   -1.6576    3.0719    0.0000 S   0  0  0  0  0  0  0  0  0  0  0  0
    0.0755    3.1097    0.0000 C   0  0  0  0  0  0  0  0  0  0  0  0
    2.1193    2.4005    0.0000 C   0  0  0  0  0  0  0  0  0  0  0  0
   -2.4508    1.9849    0.0000 C   0  0  0  0  0  0  0  0  0  0  0  0
    3.3405    1.5611    0.0000 C   0  0  0  0  0  0  0  0  0  0  0  0
    2.1571    0.9526    0.0000 C   0  0  0  0  0  0  0  0  0  0  0  0
   -2.4508    2.8159    0.0000 C   0  0  0  0  0  0  0  0  0  0  0  0
   -1.7752    0.9149    0.0000 C   0  0  0  0  0  0  0  0  0  0  0  0
    1.3010    2.4005    0.0000 C   0  0  0  0  0  0  0  0  0  0  0  0
    0.8939    3.1097    0.0000 C   0  0  0  0  0  0  0  0  0  0  0  0
   -2.5390    0.6126    0.0000 C   0  0  0  0  0  0  0  0  0  0  0  0
   -0.3399    3.8273    0.0000 O   0  0  0  0  0  0  0  0  0  0  0  0
    3.4790    0.7511    0.0000 C   0  0  0  0  0  0  0  0  0  0  0  0
    2.7614    0.3734    0.0000 C   0  0  0  0  0  0  0  0  0  0  0  0
    3.9197    2.1360    0.0000 O   0  0  0  0  0  0  0  0  0  0  0  0
    1.3514    0.8184    0.0000 O   0  0  0  0  0  0  0  0  0  0  0  0
   -2.6523   -0.2014    0.0000 O   0  0  0  0  0  0  0  0  0  0  0  0
   -3.1810    1.1163    0.0000 O   0  0  0  0  0  0  0  0  0  0  0  0
    2.5348    3.1055    0.0000 C   0  0  0  0  0  0  0  0  0  0  0  0
   -3.1684    1.5695    0.0000 C   0  0  0  0  0  0  0  0  0  0  0  0
   -3.1684    3.2313    0.0000 C   0  0  0  0  0  0  0  0  0  0  0  0
    1.3094    3.8230    0.0000 C   0  0  0  0  0  0  0  0  0  0  0  0
    2.1276    3.8230    0.0000 C   0  0  0  0  0  0  0  0  0  0  0  0
   -3.9407    0.8058    0.0000 C   0  0  0  0  0  0  0  0  0  0  0  0
   -3.8861    1.9849    0.0000 C   0  0  0  0  0  0  0  0  0  0  0  0
   -3.8861    2.8159    0.0000 C   0  0  0  0  0  0  0  0  0  0  0  0
   -4.5785    1.3177    0.0000 C   0  0  0  0  0  0  0  0  0  0  0  0
   -4.5953    3.2313    0.0000 H   0  0  0  0  0  0  0  0  0  0  0  0
  2  1  1  0  0  0  0
  3  1  2  0  0  0  0
  4  7  1  0  0  0  0
  5  1  1  0  0  0  0
  6  3  1  0  0  0  0
  7 13  1  0  0  0  0
  8  2  1  0  0  0  0
  9  4  1  0  0  0  0
 10  4  1  0  0  0  0
 11  5  1  0  0  0  0
 12  2  1  0  0  0  0
 13 14  2  0  0  0  0
 14  6  1  0  0  0  0
 15 12  1  0  0  0  0
 16  6  2  0  0  0  0
 17  9  1  0  0  0  0
 18 10  1  0  0  0  0
 19  9  2  0  0  0  0
 20 10  2  0  0  0  0
 21 15  2  0  0  0  0
 22 15  1  0  0  0  0
 23 27  1  0  0  0  0
 24  8  1  0  0  0  0
 25 11  1  0  0  0  0
 26 14  1  0  0  0  0
 27 26  2  0  0  0  0
 28 22  1  0  0  0  0
 29 24  2  0  0  0  0
 30 25  2  0  0  0  0
 31 28  1  0  0  0  0
 32 30  1  0  0  0  0
 11  8  2  0  0  0  0
 30 29  1  0  0  0  0
 23  7  2  0  0  0  0
 18 17  1  0  0  0  0
M  END
>  <IDNUMBER>
F1366-2178

>  <Chemical_Name>
ethyl 2-[(2Z)-2-{[3-(2,5-dioxopyrrolidin-1-yl)benzoyl]imino}-2,3-dihydro-1,3-benzothiazol-3-yl]acetate

>  <PriceCoeff>
1.00

>  <CAS>
865247-00-3

>  <MW>
437.47

>  <Description>
solid

>  <FSP3>
0.23

>  <clogP>
3.04

>  <TPSA>
121.65

>  <Acceptor>
5

>  <Donor>
0

>  <RotBonds>
7

>  <HAC>
31

>  <Collection>
General

>  <PPDS>
+

$$$$
F1366-3012
  Mrv2219 10102508112D          

 30 32  0  0  0  0            999 V2000
   -1.1679    2.3943    0.0000 C   0  0  0  0  0  0  0  0  0  0  0  0
   -1.6534    1.7288    0.0000 N   0  0  0  0  0  0  0  0  0  0  0  0
    1.3060    3.8134    0.0000 N   0  0  0  0  0  0  0  0  0  0  0  0
   -4.5836    3.2232    0.0000 S   0  0  0  0  0  0  0  0  0  0  0  0
   -0.3391    2.3860    0.0000 N   0  0  0  0  0  0  0  0  0  0  0  0
   -1.6534    3.0641    0.0000 S   0  0  0  0  0  0  0  0  0  0  0  0
   -2.4446    2.8087    0.0000 C   0  0  0  0  0  0  0  0  0  0  0  0
   -2.4446    1.9799    0.0000 C   0  0  0  0  0  0  0  0  0  0  0  0
    2.1139    3.8887    0.0000 C   0  0  0  0  0  0  0  0  0  0  0  0
    0.9670    4.5502    0.0000 C   0  0  0  0  0  0  0  0  0  0  0  0
    0.0753    3.1018    0.0000 C   0  0  0  0  0  0  0  0  0  0  0  0
   -3.8762    2.8087    0.0000 C   0  0  0  0  0  0  0  0  0  0  0  0
   -3.1604    3.2232    0.0000 C   0  0  0  0  0  0  0  0  0  0  0  0
    0.8916    3.1018    0.0000 C   0  0  0  0  0  0  0  0  0  0  0  0
   -1.7707    0.9125    0.0000 C   0  0  0  0  0  0  0  0  0  0  0  0
   -3.1604    1.5655    0.0000 C   0  0  0  0  0  0  0  0  0  0  0  0
   -4.1524    3.9013    0.0000 O   0  0  0  0  0  0  0  0  0  0  0  0
   -5.0315    2.5199    0.0000 O   0  0  0  0  0  0  0  0  0  0  0  0
   -2.5325    0.6111    0.0000 C   0  0  0  0  0  0  0  0  0  0  0  0
   -5.2826    3.6501    0.0000 N   0  0  0  0  0  0  0  0  0  0  0  0
   -3.8762    1.9799    0.0000 C   0  0  0  0  0  0  0  0  0  0  0  0
    1.5697    5.0985    0.0000 C   0  0  0  0  0  0  0  0  0  0  0  0
    2.2855    4.6883    0.0000 C   0  0  0  0  0  0  0  0  0  0  0  0
    0.1675    4.7260    0.0000 O   0  0  0  0  0  0  0  0  0  0  0  0
    2.6539    3.2859    0.0000 O   0  0  0  0  0  0  0  0  0  0  0  0
   -0.3391    3.8176    0.0000 O   0  0  0  0  0  0  0  0  0  0  0  0
   -2.6455   -0.2009    0.0000 O   0  0  0  0  0  0  0  0  0  0  0  0
   -3.1729    1.1134    0.0000 O   0  0  0  0  0  0  0  0  0  0  0  0
   -3.9306    0.8037    0.0000 C   0  0  0  0  0  0  0  0  0  0  0  0
   -4.5668    1.3144    0.0000 C   0  0  0  0  0  0  0  0  0  0  0  0
  2  1  1  0  0  0  0
  3 14  1  0  0  0  0
  4 12  1  0  0  0  0
  5  1  2  0  0  0  0
  6  1  1  0  0  0  0
  7  6  1  0  0  0  0
  8  2  1  0  0  0  0
  9  3  1  0  0  0  0
 10  3  1  0  0  0  0
 11  5  1  0  0  0  0
 12 13  2  0  0  0  0
 13  7  1  0  0  0  0
 14 11  1  0  0  0  0
 15  2  1  0  0  0  0
 16  8  1  0  0  0  0
 17  4  2  0  0  0  0
 18  4  2  0  0  0  0
 19 15  1  0  0  0  0
 20  4  1  0  0  0  0
 21 16  2  0  0  0  0
 22 10  1  0  0  0  0
 23  9  1  0  0  0  0
 24 10  2  0  0  0  0
 25  9  2  0  0  0  0
 26 11  2  0  0  0  0
 27 19  2  0  0  0  0
 28 19  1  0  0  0  0
 29 28  1  0  0  0  0
 30 29  1  0  0  0  0
  7  8  2  0  0  0  0
 12 21  1  0  0  0  0
 22 23  1  0  0  0  0
M  END
>  <IDNUMBER>
F1366-3012

>  <Chemical_Name>
ethyl 2-[(2Z)-2-{[2-(2,5-dioxopyrrolidin-1-yl)acetyl]imino}-6-sulfamoyl-2,3-dihydro-1,3-benzothiazol-3-yl]acetate

>  <PriceCoeff>
1.00

>  <CAS>
1164532-56-2

>  <MW>
454.48

>  <Description>
solid

>  <FSP3>
0.35

>  <clogP>
1.03

>  <TPSA>
190.19

>  <Acceptor>
7

>  <Donor>
1

>  <RotBonds>
8

>  <HAC>
30

>  <Collection>
General

>  <PPDS>
+

$$$$
F1366-3540
  Mrv2219 10102508112D          

 26 28  0  0  0  0            999 V2000
   -1.4246    2.6385    0.0000 C   0  0  0  0  0  0  0  0  0  0  0  0
    1.0628    4.0356    0.0000 N   0  0  0  0  0  0  0  0  0  0  0  0
   -1.9056    1.9880    0.0000 N   0  0  0  0  0  0  0  0  0  0  0  0
   -0.6000    2.6339    0.0000 N   0  0  0  0  0  0  0  0  0  0  0  0
   -1.9056    3.3210    0.0000 S   0  0  0  0  0  0  0  0  0  0  0  0
   -2.6889    2.2354    0.0000 C   0  0  0  0  0  0  0  0  0  0  0  0
   -2.6889    3.0599    0.0000 C   0  0  0  0  0  0  0  0  0  0  0  0
   -3.4035    1.8231    0.0000 C   0  0  0  0  0  0  0  0  0  0  0  0
    1.8736    4.2143    0.0000 C   0  0  0  0  0  0  0  0  0  0  0  0
    0.6505    4.7457    0.0000 C   0  0  0  0  0  0  0  0  0  0  0  0
   -0.1787    3.3348    0.0000 C   0  0  0  0  0  0  0  0  0  0  0  0
    0.6505    3.3210    0.0000 C   0  0  0  0  0  0  0  0  0  0  0  0
   -3.4035    3.4722    0.0000 C   0  0  0  0  0  0  0  0  0  0  0  0
   -4.1181    2.2354    0.0000 C   0  0  0  0  0  0  0  0  0  0  0  0
   -4.1181    3.0599    0.0000 C   0  0  0  0  0  0  0  0  0  0  0  0
    1.2002    5.3595    0.0000 C   0  0  0  0  0  0  0  0  0  0  0  0
    1.9560    5.0206    0.0000 C   0  0  0  0  0  0  0  0  0  0  0  0
   -0.1740    4.8282    0.0000 O   0  0  0  0  0  0  0  0  0  0  0  0
    2.4920    3.6646    0.0000 O   0  0  0  0  0  0  0  0  0  0  0  0
   -0.5909    4.0403    0.0000 O   0  0  0  0  0  0  0  0  0  0  0  0
   -3.4035    0.9986    0.0000 F   0  0  0  0  0  0  0  0  0  0  0  0
   -1.6445    1.1910    0.0000 C   0  0  0  0  0  0  0  0  0  0  0  0
   -4.8327    3.4859    0.0000 F   0  0  0  0  0  0  0  0  0  0  0  0
   -0.5863    0.2336    0.0000 O   0  0  0  0  0  0  0  0  0  0  0  0
   -0.8383    1.0169    0.0000 C   0  0  0  0  0  0  0  0  0  0  0  0
    0.2245    0.0641    0.0000 C   0  0  0  0  0  0  0  0  0  0  0  0
  2 12  1  0  0  0  0
  3  1  1  0  0  0  0
  4  1  2  0  0  0  0
  5  1  1  0  0  0  0
  6  3  1  0  0  0  0
  7  5  1  0  0  0  0
  8  6  1  0  0  0  0
  9  2  1  0  0  0  0
 10  2  1  0  0  0  0
 11  4  1  0  0  0  0
 12 11  1  0  0  0  0
 13  7  1  0  0  0  0
 14  8  2  0  0  0  0
 15 13  2  0  0  0  0
 16 10  1  0  0  0  0
 17  9  1  0  0  0  0
 18 10  2  0  0  0  0
 19  9  2  0  0  0  0
 20 11  2  0  0  0  0
 21  8  1  0  0  0  0
 22  3  1  0  0  0  0
 23 15  1  0  0  0  0
 24 25  1  0  0  0  0
 25 22  1  0  0  0  0
 26 24  1  0  0  0  0
  7  6  2  0  0  0  0
 15 14  1  0  0  0  0
 16 17  1  0  0  0  0
M  END
>  <IDNUMBER>
F1366-3540

>  <Chemical_Name>
N-[(2Z)-4,6-difluoro-3-(2-methoxyethyl)-2,3-dihydro-1,3-benzothiazol-2-ylidene]-2-(2,5-dioxopyrrolidin-1-yl)acetamide

>  <PriceCoeff>
1.00

>  <CAS>
941872-10-2

>  <MW>
383.37

>  <Description>
solid

>  <FSP3>
0.38

>  <clogP>
2.82

>  <TPSA>
104.58

>  <Acceptor>
4

>  <Donor>
0

>  <RotBonds>
6

>  <HAC>
26

>  <Collection>
General

>  <PPDS>
+

$$$$
F1366-4728
  Mrv2219 10102508112D          

 24 26  0  0  0  0            999 V2000
   -1.8964    2.1589    0.0000 C   0  0  0  0  0  0  0  0  0  0  0  0
    0.5793    2.1714    0.0000 N   0  0  0  0  0  0  0  0  0  0  0  0
   -2.3756    2.8215    0.0000 N   0  0  0  0  0  0  0  0  0  0  0  0
   -1.0711    2.1589    0.0000 N   0  0  0  0  0  0  0  0  0  0  0  0
   -2.3756    1.4837    0.0000 S   0  0  0  0  0  0  0  0  0  0  0  0
   -3.1634    2.5590    0.0000 C   0  0  0  0  0  0  0  0  0  0  0  0
   -3.1592    1.7337    0.0000 C   0  0  0  0  0  0  0  0  0  0  0  0
    1.3921    2.2464    0.0000 C   0  0  0  0  0  0  0  0  0  0  0  0
    0.2417    2.9090    0.0000 C   0  0  0  0  0  0  0  0  0  0  0  0
   -0.6585    1.4462    0.0000 C   0  0  0  0  0  0  0  0  0  0  0  0
    0.1667    1.4462    0.0000 C   0  0  0  0  0  0  0  0  0  0  0  0
   -1.3211    3.7718    0.0000 C   0  0  0  0  0  0  0  0  0  0  0  0
   -0.5209    3.9468    0.0000 C   0  0  0  0  0  0  0  0  0  0  0  0
   -3.8760    2.9841    0.0000 C   0  0  0  0  0  0  0  0  0  0  0  0
    0.8503    3.4593    0.0000 C   0  0  0  0  0  0  0  0  0  0  0  0
    1.5671    3.0592    0.0000 C   0  0  0  0  0  0  0  0  0  0  0  0
   -0.5584    3.0842    0.0000 O   0  0  0  0  0  0  0  0  0  0  0  0
    1.9423    1.6337    0.0000 O   0  0  0  0  0  0  0  0  0  0  0  0
   -1.0628    0.7252    0.0000 O   0  0  0  0  0  0  0  0  0  0  0  0
   -2.1256    3.6093    0.0000 C   0  0  0  0  0  0  0  0  0  0  0  0
   -3.8760    3.8010    0.0000 F   0  0  0  0  0  0  0  0  0  0  0  0
   -3.8760    1.3254    0.0000 C   0  0  0  0  0  0  0  0  0  0  0  0
   -4.5846    1.7337    0.0000 C   0  0  0  0  0  0  0  0  0  0  0  0
   -4.5846    2.5590    0.0000 C   0  0  0  0  0  0  0  0  0  0  0  0
  2 11  1  0  0  0  0
  3  1  1  0  0  0  0
  4  1  2  0  0  0  0
  5  1  1  0  0  0  0
  6  3  1  0  0  0  0
  7  5  1  0  0  0  0
  8  2  1  0  0  0  0
  9  2  1  0  0  0  0
 10  4  1  0  0  0  0
 11 10  1  0  0  0  0
 12 20  1  0  0  0  0
 13 12  3  0  0  0  0
 14  6  1  0  0  0  0
 15  9  1  0  0  0  0
 16  8  1  0  0  0  0
 17  9  2  0  0  0  0
 18  8  2  0  0  0  0
 19 10  2  0  0  0  0
 20  3  1  0  0  0  0
 21 14  1  0  0  0  0
 22  7  1  0  0  0  0
 23 22  2  0  0  0  0
 24 14  2  0  0  0  0
  6  7  2  0  0  0  0
 24 23  1  0  0  0  0
 15 16  1  0  0  0  0
M  END
>  <IDNUMBER>
F1366-4728

>  <Chemical_Name>
2-(2,5-dioxopyrrolidin-1-yl)-N-[(2Z)-4-fluoro-3-(prop-2-yn-1-yl)-2,3-dihydro-1,3-benzothiazol-2-ylidene]acetamide

>  <PriceCoeff>
1.00

>  <CAS>
865249-02-1

>  <MW>
345.35

>  <Description>
solid

>  <FSP3>
0.25

>  <clogP>
3.02

>  <TPSA>
95.35

>  <Acceptor>
3

>  <Donor>
0

>  <RotBonds>
5

>  <HAC>
24

>  <Collection>
General

>  <PPDS>
+

$$$$
F1366-4950
  Mrv2219 10102508112D          

 32 35  0  0  0  0            999 V2000
   -1.8958    2.1583    0.0000 C   0  0  0  0  0  0  0  0  0  0  0  0
   -2.3750    2.8208    0.0000 N   0  0  0  0  0  0  0  0  0  0  0  0
   -1.0708    2.1583    0.0000 N   0  0  0  0  0  0  0  0  0  0  0  0
    1.8167    0.0208    0.0000 N   0  0  0  0  0  0  0  0  0  0  0  0
   -2.3750    1.4833    0.0000 S   0  0  0  0  0  0  0  0  0  0  0  0
   -3.1625    2.5583    0.0000 C   0  0  0  0  0  0  0  0  0  0  0  0
   -3.1583    1.7333    0.0000 C   0  0  0  0  0  0  0  0  0  0  0  0
   -0.6583    1.4458    0.0000 C   0  0  0  0  0  0  0  0  0  0  0  0
    1.4042    0.7375    0.0000 C   0  0  0  0  0  0  0  0  0  0  0  0
    2.6292   -0.0917    0.0000 C   0  0  0  0  0  0  0  0  0  0  0  0
    1.4500   -0.7125    0.0000 C   0  0  0  0  0  0  0  0  0  0  0  0
   -2.1250    3.6083    0.0000 C   0  0  0  0  0  0  0  0  0  0  0  0
    0.5792    0.7375    0.0000 C   0  0  0  0  0  0  0  0  0  0  0  0
    0.1667    1.4458    0.0000 C   0  0  0  0  0  0  0  0  0  0  0  0
   -1.3208    3.7708    0.0000 C   0  0  0  0  0  0  0  0  0  0  0  0
   -3.8750    2.9833    0.0000 C   0  0  0  0  0  0  0  0  0  0  0  0
   -1.0625    0.7250    0.0000 O   0  0  0  0  0  0  0  0  0  0  0  0
    2.7792   -0.9000    0.0000 C   0  0  0  0  0  0  0  0  0  0  0  0
    2.0542   -1.2917    0.0000 C   0  0  0  0  0  0  0  0  0  0  0  0
    3.2125    0.4875    0.0000 O   0  0  0  0  0  0  0  0  0  0  0  0
    0.6417   -0.8500    0.0000 O   0  0  0  0  0  0  0  0  0  0  0  0
   -1.0708    4.5417    0.0000 O   0  0  0  0  0  0  0  0  0  0  0  0
   -3.8750    3.8000    0.0000 F   0  0  0  0  0  0  0  0  0  0  0  0
   -3.8750    1.3250    0.0000 C   0  0  0  0  0  0  0  0  0  0  0  0
   -0.7750    3.1708    0.0000 O   0  0  0  0  0  0  0  0  0  0  0  0
    1.8167    1.4458    0.0000 C   0  0  0  0  0  0  0  0  0  0  0  0
    0.5792    2.1625    0.0000 C   0  0  0  0  0  0  0  0  0  0  0  0
    1.4042    2.1625    0.0000 C   0  0  0  0  0  0  0  0  0  0  0  0
   -4.5833    1.7333    0.0000 C   0  0  0  0  0  0  0  0  0  0  0  0
   -4.5833    2.5583    0.0000 C   0  0  0  0  0  0  0  0  0  0  0  0
    0.0292    3.3375    0.0000 C   0  0  0  0  0  0  0  0  0  0  0  0
    0.5792    2.7333    0.0000 C   0  0  0  0  0  0  0  0  0  0  0  0
  2  1  1  0  0  0  0
  3  1  2  0  0  0  0
  4  9  1  0  0  0  0
  5  1  1  0  0  0  0
  6  2  1  0  0  0  0
  7  5  1  0  0  0  0
  8  3  1  0  0  0  0
  9 13  1  0  0  0  0
 10  4  1  0  0  0  0
 11  4  1  0  0  0  0
 12  2  1  0  0  0  0
 13 14  2  0  0  0  0
 14  8  1  0  0  0  0
 15 12  1  0  0  0  0
 16  6  1  0  0  0  0
 17  8  2  0  0  0  0
 18 10  1  0  0  0  0
 19 11  1  0  0  0  0
 20 10  2  0  0  0  0
 21 11  2  0  0  0  0
 22 15  2  0  0  0  0
 23 16  1  0  0  0  0
 24  7  1  0  0  0  0
 25 15  1  0  0  0  0
 26 28  1  0  0  0  0
 27 14  1  0  0  0  0
 28 27  2  0  0  0  0
 29 24  2  0  0  0  0
 30 16  2  0  0  0  0
 31 25  1  0  0  0  0
 32 31  1  0  0  0  0
  6  7  2  0  0  0  0
 30 29  1  0  0  0  0
 26  9  2  0  0  0  0
 19 18  1  0  0  0  0
M  END
>  <IDNUMBER>
F1366-4950

>  <Chemical_Name>
ethyl 2-[(2Z)-2-{[3-(2,5-dioxopyrrolidin-1-yl)benzoyl]imino}-4-fluoro-2,3-dihydro-1,3-benzothiazol-3-yl]acetate

>  <PriceCoeff>
1.00

>  <CAS>
865249-16-7

>  <MW>
455.46

>  <Description>
solid

>  <FSP3>
0.23

>  <clogP>
3.18

>  <TPSA>
121.65

>  <Acceptor>
5

>  <Donor>
0

>  <RotBonds>
7

>  <HAC>
32

>  <Collection>
General

>  <PPDS>
+

$$$$
F1371-0197
  Mrv2219 10102508112D          

 18 20  0  0  0  0            999 V2000
    3.6542   -2.7917    0.0000 C   0  0  0  0  0  0  0  0  0  0  0  0
    3.1667   -2.1167    0.0000 C   0  0  0  0  0  0  0  0  0  0  0  0
    3.1792   -3.4542    0.0000 N   0  0  0  0  0  0  0  0  0  0  0  0
    4.4875   -2.7000    0.0000 C   0  0  0  0  0  0  0  0  0  0  0  0
    4.8250   -1.9375    0.0000 N   0  0  0  0  0  0  0  0  0  0  0  0
    2.3917   -2.3750    0.0000 C   0  0  0  0  0  0  0  0  0  0  0  0
    3.5000   -1.3542    0.0000 C   0  0  0  0  0  0  0  0  0  0  0  0
    4.3292   -1.2667    0.0000 C   0  0  0  0  0  0  0  0  0  0  0  0
    2.3917   -3.2000    0.0000 C   0  0  0  0  0  0  0  0  0  0  0  0
    4.6625   -0.5125    0.0000 C   0  0  0  0  0  0  0  0  0  0  0  0
    5.4792   -0.4167    0.0000 O   0  0  0  0  0  0  0  0  0  0  0  0
    4.1750    0.1583    0.0000 O   0  0  0  0  0  0  0  0  0  0  0  0
    4.9750   -3.3667    0.0000 C   0  0  0  0  0  0  0  0  0  0  0  0
    5.2542   -2.4042    0.0000 C   0  0  0  0  0  0  0  0  0  0  0  0
    1.6792   -1.9667    0.0000 C   0  0  0  0  0  0  0  0  0  0  0  0
    1.6875   -3.6125    0.0000 C   0  0  0  0  0  0  0  0  0  0  0  0
    0.9667   -2.3792    0.0000 C   0  0  0  0  0  0  0  0  0  0  0  0
    0.9667   -3.2000    0.0000 C   0  0  0  0  0  0  0  0  0  0  0  0
  2  1  2  0  0  0  0
  3  1  1  0  0  0  0
  4  1  1  0  0  0  0
  5  4  1  0  0  0  0
  6  2  1  0  0  0  0
  7  2  1  0  0  0  0
  8  5  1  0  0  0  0
  9  3  1  0  0  0  0
 10  8  1  0  0  0  0
 11 10  2  0  0  0  0
 12 10  1  0  0  0  0
 13  4  1  0  0  0  0
 14  4  1  0  0  0  0
 15  6  1  0  0  0  0
 16  9  1  0  0  0  0
 17 15  2  0  0  0  0
 18 16  2  0  0  0  0
  6  9  2  0  0  0  0
  8  7  1  0  0  0  0
 17 18  1  0  0  0  0
M  END
>  <IDNUMBER>
F1371-0197

>  <Chemical_Name>
1,1-dimethyl-1H,2H,3H,4H,9H-pyrido[3,4-b]indole-3-carboxylic acid

>  <PriceCoeff>
1.50

>  <CAS>
73198-03-5

>  <MW>
244.29

>  <Description>
solid

>  <FSP3>
0.36

>  <clogP>
-0.17

>  <TPSA>
65.12

>  <Acceptor>
2

>  <Donor>
2

>  <RotBonds>
1

>  <HAC>
18

>  <Collection>
Advanced

>  <PPDS>
+

$$$$
F1374-0054
  Mrv2219 10102508112D          

 28 31  0  0  0  0            999 V2000
   -3.7985    3.0230    0.0000 C   0  0  0  0  0  0  0  0  0  0  0  0
    0.4045   -0.1793    0.0000 N   0  0  0  0  0  0  0  0  0  0  0  0
   -2.4601    3.0230    0.0000 C   0  0  0  0  0  0  0  0  0  0  0  0
   -3.1272    2.5351    0.0000 O   0  0  0  0  0  0  0  0  0  0  0  0
   -3.5400    3.8027    0.0000 N   0  0  0  0  0  0  0  0  0  0  0  0
   -1.6762    2.7603    0.0000 N   0  0  0  0  0  0  0  0  0  0  0  0
   -2.7144    3.8027    0.0000 N   0  0  0  0  0  0  0  0  0  0  0  0
   -4.5866    2.7603    0.0000 C   0  0  0  0  0  0  0  0  0  0  0  0
    0.2294    0.6338    0.0000 C   0  0  0  0  0  0  0  0  0  0  0  0
   -1.5094    1.9597    0.0000 C   0  0  0  0  0  0  0  0  0  0  0  0
    1.1425   -0.5379    0.0000 C   0  0  0  0  0  0  0  0  0  0  0  0
   -0.1834   -0.7547    0.0000 C   0  0  0  0  0  0  0  0  0  0  0  0
   -0.5462    0.8881    0.0000 C   0  0  0  0  0  0  0  0  0  0  0  0
   -0.7213    1.6970    0.0000 C   0  0  0  0  0  0  0  0  0  0  0  0
   -4.7617    1.9472    0.0000 C   0  0  0  0  0  0  0  0  0  0  0  0
   -2.1223    1.4010    0.0000 O   0  0  0  0  0  0  0  0  0  0  0  0
    1.0299   -1.3552    0.0000 C   0  0  0  0  0  0  0  0  0  0  0  0
    0.2169   -1.4928    0.0000 C   0  0  0  0  0  0  0  0  0  0  0  0
    1.8763   -0.1668    0.0000 O   0  0  0  0  0  0  0  0  0  0  0  0
   -0.9882   -0.6380    0.0000 O   0  0  0  0  0  0  0  0  0  0  0  0
   -4.1488    1.3968    0.0000 Cl  0  0  0  0  0  0  0  0  0  0  0  0
    0.8548    1.1841    0.0000 C   0  0  0  0  0  0  0  0  0  0  0  0
   -5.1995    3.3107    0.0000 C   0  0  0  0  0  0  0  0  0  0  0  0
   -0.1001    2.2474    0.0000 C   0  0  0  0  0  0  0  0  0  0  0  0
    0.6797    1.9972    0.0000 C   0  0  0  0  0  0  0  0  0  0  0  0
   -5.5414    1.6970    0.0000 C   0  0  0  0  0  0  0  0  0  0  0  0
   -5.9751    3.0522    0.0000 C   0  0  0  0  0  0  0  0  0  0  0  0
   -6.1336    2.2474    0.0000 C   0  0  0  0  0  0  0  0  0  0  0  0
  2  9  1  0  0  0  0
  3  4  1  0  0  0  0
  4  1  1  0  0  0  0
  5  1  2  0  0  0  0
  6  3  1  0  0  0  0
  7  5  1  0  0  0  0
  8  1  1  0  0  0  0
  9 13  1  0  0  0  0
 10  6  1  0  0  0  0
 11  2  1  0  0  0  0
 12  2  1  0  0  0  0
 13 14  2  0  0  0  0
 14 10  1  0  0  0  0
 15  8  1  0  0  0  0
 16 10  2  0  0  0  0
 17 11  1  0  0  0  0
 18 12  1  0  0  0  0
 19 11  2  0  0  0  0
 20 12  2  0  0  0  0
 21 15  1  0  0  0  0
 22 25  1  0  0  0  0
 23  8  2  0  0  0  0
 24 14  1  0  0  0  0
 25 24  2  0  0  0  0
 26 15  2  0  0  0  0
 27 23  1  0  0  0  0
 28 27  2  0  0  0  0
  7  3  2  0  0  0  0
 26 28  1  0  0  0  0
  9 22  2  0  0  0  0
 17 18  1  0  0  0  0
M  END
>  <IDNUMBER>
F1374-0054

>  <Chemical_Name>
N-[5-(2-chlorophenyl)-1,3,4-oxadiazol-2-yl]-3-(2,5-dioxopyrrolidin-1-yl)benzamide

>  <PriceCoeff>
1.00

>  <MW>
396.78

>  <Description>
solid

>  <FSP3>
0.11

>  <clogP>
1.06

>  <TPSA>
105.40

>  <Acceptor>
6

>  <Donor>
1

>  <RotBonds>
4

>  <HAC>
28

>  <Collection>
General

$$$$
F1374-0774
  Mrv2219 10102508112D          

 28 31  0  0  0  0            999 V2000
   -2.4548    3.0165    0.0000 C   0  0  0  0  0  0  0  0  0  0  0  0
    1.6269    0.9070    0.0000 N   0  0  0  0  0  0  0  0  0  0  0  0
   -3.1206    2.5297    0.0000 O   0  0  0  0  0  0  0  0  0  0  0  0
   -3.7904    3.0165    0.0000 C   0  0  0  0  0  0  0  0  0  0  0  0
   -3.5324    3.7946    0.0000 N   0  0  0  0  0  0  0  0  0  0  0  0
   -1.6726    2.7544    0.0000 N   0  0  0  0  0  0  0  0  0  0  0  0
   -2.7086    3.7946    0.0000 N   0  0  0  0  0  0  0  0  0  0  0  0
   -1.5062    1.9556    0.0000 C   0  0  0  0  0  0  0  0  0  0  0  0
    2.2759    1.4188    0.0000 C   0  0  0  0  0  0  0  0  0  0  0  0
    1.9098    0.1456    0.0000 C   0  0  0  0  0  0  0  0  0  0  0  0
    0.8405    1.1691    0.0000 C   0  0  0  0  0  0  0  0  0  0  0  0
   -4.5768    2.7544    0.0000 C   0  0  0  0  0  0  0  0  0  0  0  0
   -0.7197    1.6934    0.0000 C   0  0  0  0  0  0  0  0  0  0  0  0
   -2.1177    1.3980    0.0000 O   0  0  0  0  0  0  0  0  0  0  0  0
    2.9625    0.9486    0.0000 C   0  0  0  0  0  0  0  0  0  0  0  0
    2.7253    0.1706    0.0000 C   0  0  0  0  0  0  0  0  0  0  0  0
    2.2510    2.2675    0.0000 O   0  0  0  0  0  0  0  0  0  0  0  0
    1.4521   -0.5410    0.0000 O   0  0  0  0  0  0  0  0  0  0  0  0
    0.6865    1.9930    0.0000 C   0  0  0  0  0  0  0  0  0  0  0  0
    0.2289    0.6324    0.0000 C   0  0  0  0  0  0  0  0  0  0  0  0
   -0.5451    0.8945    0.0000 C   0  0  0  0  0  0  0  0  0  0  0  0
   -0.0957    2.2551    0.0000 C   0  0  0  0  0  0  0  0  0  0  0  0
   -5.1884    3.3036    0.0000 C   0  0  0  0  0  0  0  0  0  0  0  0
   -4.7516    1.9431    0.0000 C   0  0  0  0  0  0  0  0  0  0  0  0
   -6.1329    2.2426    0.0000 C   0  0  0  0  0  0  0  0  0  0  0  0
   -5.9748    3.0540    0.0000 C   0  0  0  0  0  0  0  0  0  0  0  0
   -5.5296    1.6934    0.0000 C   0  0  0  0  0  0  0  0  0  0  0  0
   -6.9194    1.9847    0.0000 Cl  0  0  0  0  0  0  0  0  0  0  0  0
  2 11  1  0  0  0  0
  3  1  1  0  0  0  0
  4  3  1  0  0  0  0
  5  7  1  0  0  0  0
  6  1  1  0  0  0  0
  7  1  2  0  0  0  0
  8  6  1  0  0  0  0
  9  2  1  0  0  0  0
 10  2  1  0  0  0  0
 11 19  1  0  0  0  0
 12  4  1  0  0  0  0
 13  8  1  0  0  0  0
 14  8  2  0  0  0  0
 15  9  1  0  0  0  0
 16 10  1  0  0  0  0
 17  9  2  0  0  0  0
 18 10  2  0  0  0  0
 19 22  2  0  0  0  0
 20 21  1  0  0  0  0
 21 13  2  0  0  0  0
 22 13  1  0  0  0  0
 23 12  2  0  0  0  0
 24 12  1  0  0  0  0
 25 27  1  0  0  0  0
 26 23  1  0  0  0  0
 27 24  2  0  0  0  0
 28 25  1  0  0  0  0
  4  5  2  0  0  0  0
 11 20  2  0  0  0  0
 25 26  2  0  0  0  0
 15 16  1  0  0  0  0
M  END
>  <IDNUMBER>
F1374-0774

>  <Chemical_Name>
N-[5-(4-chlorophenyl)-1,3,4-oxadiazol-2-yl]-4-(2,5-dioxopyrrolidin-1-yl)benzamide

>  <PriceCoeff>
1.00

>  <CAS>
865287-13-4

>  <MW>
396.78

>  <Description>
solid

>  <FSP3>
0.11

>  <clogP>
1.31

>  <TPSA>
105.40

>  <Acceptor>
6

>  <Donor>
1

>  <RotBonds>
4

>  <HAC>
28

>  <Collection>
General

>  <PPDS>
+

$$$$
F1374-0789
  Mrv2219 10102508112D          

 28 31  0  0  0  0            999 V2000
    0.4036   -0.1789    0.0000 N   0  0  0  0  0  0  0  0  0  0  0  0
   -2.4546    3.0163    0.0000 C   0  0  0  0  0  0  0  0  0  0  0  0
   -3.1203    2.5295    0.0000 O   0  0  0  0  0  0  0  0  0  0  0  0
   -3.7901    3.0163    0.0000 C   0  0  0  0  0  0  0  0  0  0  0  0
   -3.5322    3.7943    0.0000 N   0  0  0  0  0  0  0  0  0  0  0  0
   -1.6725    2.7542    0.0000 N   0  0  0  0  0  0  0  0  0  0  0  0
   -2.7085    3.7943    0.0000 N   0  0  0  0  0  0  0  0  0  0  0  0
    0.2289    0.6324    0.0000 C   0  0  0  0  0  0  0  0  0  0  0  0
   -1.5061    1.9554    0.0000 C   0  0  0  0  0  0  0  0  0  0  0  0
    1.1400   -0.5367    0.0000 C   0  0  0  0  0  0  0  0  0  0  0  0
   -0.1830   -0.7531    0.0000 C   0  0  0  0  0  0  0  0  0  0  0  0
   -0.5450    0.8862    0.0000 C   0  0  0  0  0  0  0  0  0  0  0  0
   -0.7197    1.6933    0.0000 C   0  0  0  0  0  0  0  0  0  0  0  0
   -4.5765    2.7542    0.0000 C   0  0  0  0  0  0  0  0  0  0  0  0
   -2.1176    1.3979    0.0000 O   0  0  0  0  0  0  0  0  0  0  0  0
    1.0277   -1.3522    0.0000 C   0  0  0  0  0  0  0  0  0  0  0  0
    0.2164   -1.4895    0.0000 C   0  0  0  0  0  0  0  0  0  0  0  0
    1.8722   -0.1665    0.0000 O   0  0  0  0  0  0  0  0  0  0  0  0
   -0.9860   -0.6366    0.0000 O   0  0  0  0  0  0  0  0  0  0  0  0
   -4.7512    1.9429    0.0000 C   0  0  0  0  0  0  0  0  0  0  0  0
   -5.1881    3.3034    0.0000 C   0  0  0  0  0  0  0  0  0  0  0  0
   -6.1326    2.2425    0.0000 C   0  0  0  0  0  0  0  0  0  0  0  0
   -5.5293    1.6933    0.0000 C   0  0  0  0  0  0  0  0  0  0  0  0
   -5.9744    3.0537    0.0000 C   0  0  0  0  0  0  0  0  0  0  0  0
    0.8529    1.1815    0.0000 C   0  0  0  0  0  0  0  0  0  0  0  0
   -6.9189    1.9845    0.0000 Cl  0  0  0  0  0  0  0  0  0  0  0  0
   -0.0999    2.2425    0.0000 C   0  0  0  0  0  0  0  0  0  0  0  0
    0.6782    1.9928    0.0000 C   0  0  0  0  0  0  0  0  0  0  0  0
  2  6  1  0  0  0  0
  3  2  1  0  0  0  0
  4  3  1  0  0  0  0
  5  7  1  0  0  0  0
  6  9  1  0  0  0  0
  7  2  2  0  0  0  0
  8  1  1  0  0  0  0
  9 13  1  0  0  0  0
 10  1  1  0  0  0  0
 11  1  1  0  0  0  0
 12  8  1  0  0  0  0
 13 12  2  0  0  0  0
 14  4  1  0  0  0  0
 15  9  2  0  0  0  0
 16 10  1  0  0  0  0
 17 11  1  0  0  0  0
 18 10  2  0  0  0  0
 19 11  2  0  0  0  0
 20 14  1  0  0  0  0
 21 14  2  0  0  0  0
 22 24  2  0  0  0  0
 23 20  2  0  0  0  0
 24 21  1  0  0  0  0
 25  8  2  0  0  0  0
 26 22  1  0  0  0  0
 27 28  2  0  0  0  0
 28 25  1  0  0  0  0
 16 17  1  0  0  0  0
 13 27  1  0  0  0  0
  4  5  2  0  0  0  0
 23 22  1  0  0  0  0
M  END
>  <IDNUMBER>
F1374-0789

>  <Chemical_Name>
N-[5-(4-chlorophenyl)-1,3,4-oxadiazol-2-yl]-3-(2,5-dioxopyrrolidin-1-yl)benzamide

>  <PriceCoeff>
1.00

>  <CAS>
865287-16-7

>  <MW>
396.78

>  <Description>
solid

>  <FSP3>
0.11

>  <clogP>
1.31

>  <TPSA>
105.40

>  <Acceptor>
6

>  <Donor>
1

>  <RotBonds>
4

>  <HAC>
28

>  <Collection>
General

>  <PPDS>
+

$$$$
F1374-0894
  Mrv2219 10102508112D          

 27 30  0  0  0  0            999 V2000
    0.4037   -0.1790    0.0000 N   0  0  0  0  0  0  0  0  0  0  0  0
   -2.4558    3.0177    0.0000 C   0  0  0  0  0  0  0  0  0  0  0  0
   -3.1218    2.5307    0.0000 O   0  0  0  0  0  0  0  0  0  0  0  0
   -3.5339    3.7962    0.0000 N   0  0  0  0  0  0  0  0  0  0  0  0
   -3.7920    3.0177    0.0000 C   0  0  0  0  0  0  0  0  0  0  0  0
   -1.6733    2.7555    0.0000 N   0  0  0  0  0  0  0  0  0  0  0  0
   -2.7098    3.7962    0.0000 N   0  0  0  0  0  0  0  0  0  0  0  0
    0.2289    0.6327    0.0000 C   0  0  0  0  0  0  0  0  0  0  0  0
   -1.5067    1.9563    0.0000 C   0  0  0  0  0  0  0  0  0  0  0  0
    1.1405   -0.5370    0.0000 C   0  0  0  0  0  0  0  0  0  0  0  0
   -0.1831   -0.7535    0.0000 C   0  0  0  0  0  0  0  0  0  0  0  0
   -0.5453    0.8866    0.0000 C   0  0  0  0  0  0  0  0  0  0  0  0
   -0.7201    1.6941    0.0000 C   0  0  0  0  0  0  0  0  0  0  0  0
   -4.5786    2.7555    0.0000 C   0  0  0  0  0  0  0  0  0  0  0  0
   -2.1186    1.3985    0.0000 O   0  0  0  0  0  0  0  0  0  0  0  0
    1.0282   -1.3528    0.0000 C   0  0  0  0  0  0  0  0  0  0  0  0
    0.2165   -1.4901    0.0000 C   0  0  0  0  0  0  0  0  0  0  0  0
    1.8731   -0.1665    0.0000 O   0  0  0  0  0  0  0  0  0  0  0  0
   -0.9865   -0.6369    0.0000 O   0  0  0  0  0  0  0  0  0  0  0  0
    0.8533    1.1821    0.0000 C   0  0  0  0  0  0  0  0  0  0  0  0
   -0.0999    2.2435    0.0000 C   0  0  0  0  0  0  0  0  0  0  0  0
    0.6785    1.9938    0.0000 C   0  0  0  0  0  0  0  0  0  0  0  0
   -5.2030    3.3091    0.0000 C   0  0  0  0  0  0  0  0  0  0  0  0
   -4.7535    1.9563    0.0000 C   0  0  0  0  0  0  0  0  0  0  0  0
   -5.9772    3.0469    0.0000 C   0  0  0  0  0  0  0  0  0  0  0  0
   -5.5401    1.6941    0.0000 C   0  0  0  0  0  0  0  0  0  0  0  0
   -6.1355    2.2477    0.0000 C   0  0  0  0  0  0  0  0  0  0  0  0
  2  6  1  0  0  0  0
  3  2  1  0  0  0  0
  4  7  1  0  0  0  0
  5  3  1  0  0  0  0
  6  9  1  0  0  0  0
  7  2  2  0  0  0  0
  8  1  1  0  0  0  0
  9 13  1  0  0  0  0
 10  1  1  0  0  0  0
 11  1  1  0  0  0  0
 12  8  1  0  0  0  0
 13 12  2  0  0  0  0
 14  5  1  0  0  0  0
 15  9  2  0  0  0  0
 16 10  1  0  0  0  0
 17 11  1  0  0  0  0
 18 10  2  0  0  0  0
 19 11  2  0  0  0  0
 20  8  2  0  0  0  0
 21 22  2  0  0  0  0
 22 20  1  0  0  0  0
 23 14  2  0  0  0  0
 24 14  1  0  0  0  0
 25 23  1  0  0  0  0
 26 24  2  0  0  0  0
 27 26  1  0  0  0  0
 16 17  1  0  0  0  0
 13 21  1  0  0  0  0
  5  4  2  0  0  0  0
 27 25  2  0  0  0  0
M  END
>  <IDNUMBER>
F1374-0894

>  <Chemical_Name>
3-(2,5-dioxopyrrolidin-1-yl)-N-(5-phenyl-1,3,4-oxadiazol-2-yl)benzamide

>  <PriceCoeff>
1.00

>  <CAS>
865287-49-6

>  <MW>
362.34

>  <Description>
solid

>  <FSP3>
0.11

>  <clogP>
0.58

>  <TPSA>
105.40

>  <Acceptor>
6

>  <Donor>
1

>  <RotBonds>
4

>  <HAC>
27

>  <Collection>
General

>  <PPDS>
+

$$$$
F1374-0999
  Mrv2219 10102508112D          

 26 29  0  0  0  0            999 V2000
    0.4032   -0.1788    0.0000 N   0  0  0  0  0  0  0  0  0  0  0  0
   -3.7865    3.0134    0.0000 C   0  0  0  0  0  0  0  0  0  0  0  0
   -2.4523    3.0134    0.0000 C   0  0  0  0  0  0  0  0  0  0  0  0
   -3.1173    2.5271    0.0000 O   0  0  0  0  0  0  0  0  0  0  0  0
   -3.5288    3.7907    0.0000 N   0  0  0  0  0  0  0  0  0  0  0  0
   -1.6709    2.7515    0.0000 N   0  0  0  0  0  0  0  0  0  0  0  0
   -2.7059    3.7907    0.0000 N   0  0  0  0  0  0  0  0  0  0  0  0
    0.2286    0.6317    0.0000 C   0  0  0  0  0  0  0  0  0  0  0  0
   -1.5046    1.9535    0.0000 C   0  0  0  0  0  0  0  0  0  0  0  0
    1.1389   -0.5362    0.0000 C   0  0  0  0  0  0  0  0  0  0  0  0
   -0.1829   -0.7524    0.0000 C   0  0  0  0  0  0  0  0  0  0  0  0
   -4.5721    2.7515    0.0000 C   0  0  0  0  0  0  0  0  0  0  0  0
   -0.5445    0.8853    0.0000 C   0  0  0  0  0  0  0  0  0  0  0  0
   -0.7190    1.6916    0.0000 C   0  0  0  0  0  0  0  0  0  0  0  0
   -4.8215    1.9702    0.0000 S   0  0  0  0  0  0  0  0  0  0  0  0
   -5.2371    3.2378    0.0000 C   0  0  0  0  0  0  0  0  0  0  0  0
   -2.1156    1.3966    0.0000 O   0  0  0  0  0  0  0  0  0  0  0  0
    1.0267   -1.3509    0.0000 C   0  0  0  0  0  0  0  0  0  0  0  0
    0.2162   -1.4880    0.0000 C   0  0  0  0  0  0  0  0  0  0  0  0
    1.8704   -0.1663    0.0000 O   0  0  0  0  0  0  0  0  0  0  0  0
   -0.9851   -0.6359    0.0000 O   0  0  0  0  0  0  0  0  0  0  0  0
   -5.6444    1.9660    0.0000 C   0  0  0  0  0  0  0  0  0  0  0  0
   -5.9063    2.7515    0.0000 C   0  0  0  0  0  0  0  0  0  0  0  0
    0.8521    1.1804    0.0000 C   0  0  0  0  0  0  0  0  0  0  0  0
   -0.0998    2.2403    0.0000 C   0  0  0  0  0  0  0  0  0  0  0  0
    0.6775    1.9909    0.0000 C   0  0  0  0  0  0  0  0  0  0  0  0
  2  4  1  0  0  0  0
  3  6  1  0  0  0  0
  4  3  1  0  0  0  0
  5  7  1  0  0  0  0
  6  9  1  0  0  0  0
  7  3  2  0  0  0  0
  8  1  1  0  0  0  0
  9 14  1  0  0  0  0
 10  1  1  0  0  0  0
 11  1  1  0  0  0  0
 12  2  1  0  0  0  0
 13  8  1  0  0  0  0
 14 13  2  0  0  0  0
 15 12  1  0  0  0  0
 16 12  2  0  0  0  0
 17  9  2  0  0  0  0
 18 10  1  0  0  0  0
 19 11  1  0  0  0  0
 20 10  2  0  0  0  0
 21 11  2  0  0  0  0
 22 15  1  0  0  0  0
 23 16  1  0  0  0  0
 24  8  2  0  0  0  0
 25 26  2  0  0  0  0
 26 24  1  0  0  0  0
 18 19  1  0  0  0  0
 14 25  1  0  0  0  0
  2  5  2  0  0  0  0
 22 23  2  0  0  0  0
M  END
>  <IDNUMBER>
F1374-0999

>  <Chemical_Name>
3-(2,5-dioxopyrrolidin-1-yl)-N-[5-(thiophen-2-yl)-1,3,4-oxadiazol-2-yl]benzamide

>  <PriceCoeff>
1.00

>  <CAS>
865287-90-7

>  <MW>
368.37

>  <Description>
solid

>  <FSP3>
0.12

>  <clogP>
0.51

>  <TPSA>
133.64

>  <Acceptor>
6

>  <Donor>
1

>  <RotBonds>
4

>  <HAC>
26

>  <Collection>
General

>  <PPDS>
+

$$$$
F1374-1104
  Mrv2219 10102508112D          

 27 30  0  0  0  0            999 V2000
   -3.7886    3.0151    0.0000 C   0  0  0  0  0  0  0  0  0  0  0  0
    0.4034   -0.1789    0.0000 N   0  0  0  0  0  0  0  0  0  0  0  0
   -2.4536    3.0151    0.0000 C   0  0  0  0  0  0  0  0  0  0  0  0
   -3.1191    2.5285    0.0000 O   0  0  0  0  0  0  0  0  0  0  0  0
   -3.5308    3.7928    0.0000 N   0  0  0  0  0  0  0  0  0  0  0  0
   -1.6718    2.7531    0.0000 N   0  0  0  0  0  0  0  0  0  0  0  0
   -4.5746    2.7531    0.0000 C   0  0  0  0  0  0  0  0  0  0  0  0
   -2.7073    3.7928    0.0000 N   0  0  0  0  0  0  0  0  0  0  0  0
   -4.8241    1.9712    0.0000 S   0  0  0  0  0  0  0  0  0  0  0  0
    0.2288    0.6321    0.0000 C   0  0  0  0  0  0  0  0  0  0  0  0
   -1.5054    1.9546    0.0000 C   0  0  0  0  0  0  0  0  0  0  0  0
    1.1395   -0.5365    0.0000 C   0  0  0  0  0  0  0  0  0  0  0  0
   -0.1830   -0.7528    0.0000 C   0  0  0  0  0  0  0  0  0  0  0  0
   -5.6475    1.9671    0.0000 C   0  0  0  0  0  0  0  0  0  0  0  0
   -5.2400    3.2396    0.0000 C   0  0  0  0  0  0  0  0  0  0  0  0
   -0.5448    0.8858    0.0000 C   0  0  0  0  0  0  0  0  0  0  0  0
   -0.7194    1.6926    0.0000 C   0  0  0  0  0  0  0  0  0  0  0  0
   -5.9013    2.7531    0.0000 C   0  0  0  0  0  0  0  0  0  0  0  0
   -2.1168    1.3973    0.0000 O   0  0  0  0  0  0  0  0  0  0  0  0
    1.0272   -1.3516    0.0000 C   0  0  0  0  0  0  0  0  0  0  0  0
    0.2163   -1.4889    0.0000 C   0  0  0  0  0  0  0  0  0  0  0  0
    1.8714   -0.1664    0.0000 O   0  0  0  0  0  0  0  0  0  0  0  0
   -0.9856   -0.6363    0.0000 O   0  0  0  0  0  0  0  0  0  0  0  0
   -6.1258    1.2933    0.0000 Cl  0  0  0  0  0  0  0  0  0  0  0  0
    0.8526    1.1811    0.0000 C   0  0  0  0  0  0  0  0  0  0  0  0
   -0.0998    2.2415    0.0000 C   0  0  0  0  0  0  0  0  0  0  0  0
    0.6779    1.9920    0.0000 C   0  0  0  0  0  0  0  0  0  0  0  0
  2 10  1  0  0  0  0
  3  4  1  0  0  0  0
  4  1  1  0  0  0  0
  5  1  2  0  0  0  0
  6  3  1  0  0  0  0
  7  1  1  0  0  0  0
  8  5  1  0  0  0  0
  9  7  1  0  0  0  0
 10 16  1  0  0  0  0
 11  6  1  0  0  0  0
 12  2  1  0  0  0  0
 13  2  1  0  0  0  0
 14  9  1  0  0  0  0
 15  7  2  0  0  0  0
 16 17  2  0  0  0  0
 17 11  1  0  0  0  0
 18 15  1  0  0  0  0
 19 11  2  0  0  0  0
 20 12  1  0  0  0  0
 21 13  1  0  0  0  0
 22 12  2  0  0  0  0
 23 13  2  0  0  0  0
 24 14  1  0  0  0  0
 25 27  1  0  0  0  0
 26 17  1  0  0  0  0
 27 26  2  0  0  0  0
  8  3  2  0  0  0  0
 14 18  2  0  0  0  0
 10 25  2  0  0  0  0
 20 21  1  0  0  0  0
M  END
>  <IDNUMBER>
F1374-1104

>  <Chemical_Name>
N-[5-(5-chlorothiophen-2-yl)-1,3,4-oxadiazol-2-yl]-3-(2,5-dioxopyrrolidin-1-yl)benzamide

>  <PriceCoeff>
1.00

>  <CAS>
865543-59-5

>  <MW>
402.81

>  <Description>
solid

>  <FSP3>
0.12

>  <clogP>
1.19

>  <TPSA>
133.64

>  <Acceptor>
6

>  <Donor>
1

>  <RotBonds>
4

>  <HAC>
27

>  <Collection>
General

>  <PPDS>
+

$$$$
F1374-1139
  Mrv2219 10102508112D          

 22 24  0  0  0  0            999 V2000
   -0.0956    2.2533    0.0000 N   0  0  0  0  0  0  0  0  0  0  0  0
   -3.7875    3.0142    0.0000 C   0  0  0  0  0  0  0  0  0  0  0  0
   -3.1181    2.5277    0.0000 O   0  0  0  0  0  0  0  0  0  0  0  0
   -2.4529    3.0142    0.0000 C   0  0  0  0  0  0  0  0  0  0  0  0
   -3.5297    3.7917    0.0000 N   0  0  0  0  0  0  0  0  0  0  0  0
   -4.5733    2.7523    0.0000 C   0  0  0  0  0  0  0  0  0  0  0  0
   -2.7066    3.7917    0.0000 N   0  0  0  0  0  0  0  0  0  0  0  0
   -4.8227    1.9707    0.0000 S   0  0  0  0  0  0  0  0  0  0  0  0
   -1.6713    2.7523    0.0000 N   0  0  0  0  0  0  0  0  0  0  0  0
    0.7027    2.0663    0.0000 C   0  0  0  0  0  0  0  0  0  0  0  0
   -0.1954    3.0641    0.0000 C   0  0  0  0  0  0  0  0  0  0  0  0
   -5.6459    1.9665    0.0000 C   0  0  0  0  0  0  0  0  0  0  0  0
   -1.5050    1.9540    0.0000 C   0  0  0  0  0  0  0  0  0  0  0  0
   -5.2385    3.2387    0.0000 C   0  0  0  0  0  0  0  0  0  0  0  0
   -0.7192    1.6921    0.0000 C   0  0  0  0  0  0  0  0  0  0  0  0
   -5.8995    2.7523    0.0000 C   0  0  0  0  0  0  0  0  0  0  0  0
    0.5613    3.4008    0.0000 C   0  0  0  0  0  0  0  0  0  0  0  0
    1.1143    2.7897    0.0000 C   0  0  0  0  0  0  0  0  0  0  0  0
   -0.8980    3.4757    0.0000 O   0  0  0  0  0  0  0  0  0  0  0  0
    1.0394    1.3179    0.0000 O   0  0  0  0  0  0  0  0  0  0  0  0
   -2.1162    1.3969    0.0000 O   0  0  0  0  0  0  0  0  0  0  0  0
   -6.1240    1.2930    0.0000 Cl  0  0  0  0  0  0  0  0  0  0  0  0
  2  3  1  0  0  0  0
  3  4  1  0  0  0  0
  4  9  1  0  0  0  0
  5  7  1  0  0  0  0
  6  2  1  0  0  0  0
  7  4  2  0  0  0  0
  8  6  1  0  0  0  0
  9 13  1  0  0  0  0
 10  1  1  0  0  0  0
 11  1  1  0  0  0  0
 12  8  1  0  0  0  0
 13 15  1  0  0  0  0
 14  6  2  0  0  0  0
 15  1  1  0  0  0  0
 16 14  1  0  0  0  0
 17 11  1  0  0  0  0
 18 10  1  0  0  0  0
 19 11  2  0  0  0  0
 20 10  2  0  0  0  0
 21 13  2  0  0  0  0
 22 12  1  0  0  0  0
 18 17  1  0  0  0  0
  2  5  2  0  0  0  0
 12 16  2  0  0  0  0
M  END
>  <IDNUMBER>
F1374-1139

>  <Chemical_Name>
N-[5-(5-chlorothiophen-2-yl)-1,3,4-oxadiazol-2-yl]-2-(2,5-dioxopyrrolidin-1-yl)acetamide

>  <PriceCoeff>
1.00

>  <CAS>
865543-74-4

>  <MW>
340.74

>  <Description>
solid

>  <FSP3>
0.25

>  <clogP>
1.01

>  <TPSA>
133.64

>  <Acceptor>
6

>  <Donor>
1

>  <RotBonds>
4

>  <HAC>
22

>  <Collection>
General

>  <PPDS>
+

$$$$
F1374-1927
  Mrv2219 10102508112D          

 29 32  0  0  0  0            999 V2000
   -3.8011    3.0251    0.0000 C   0  0  0  0  0  0  0  0  0  0  0  0
   -2.4617    3.0251    0.0000 C   0  0  0  0  0  0  0  0  0  0  0  0
   -3.1252    2.5368    0.0000 O   0  0  0  0  0  0  0  0  0  0  0  0
    1.4687    5.4702    0.0000 N   0  0  0  0  0  0  0  0  0  0  0  0
   -3.5382    3.8054    0.0000 N   0  0  0  0  0  0  0  0  0  0  0  0
   -4.5897    2.7622    0.0000 C   0  0  0  0  0  0  0  0  0  0  0  0
   -1.6731    2.7622    0.0000 N   0  0  0  0  0  0  0  0  0  0  0  0
   -2.7121    3.8054    0.0000 N   0  0  0  0  0  0  0  0  0  0  0  0
   -1.0598    3.3130    0.0000 C   0  0  0  0  0  0  0  0  0  0  0  0
    2.2699    5.3116    0.0000 C   0  0  0  0  0  0  0  0  0  0  0  0
    1.3687    6.2880    0.0000 C   0  0  0  0  0  0  0  0  0  0  0  0
   -4.9152    1.9986    0.0000 C   0  0  0  0  0  0  0  0  0  0  0  0
    0.8387    4.9236    0.0000 C   0  0  0  0  0  0  0  0  0  0  0  0
   -5.0905    3.4256    0.0000 C   0  0  0  0  0  0  0  0  0  0  0  0
   -5.7289    1.9027    0.0000 C   0  0  0  0  0  0  0  0  0  0  0  0
   -0.4256    3.8637    0.0000 C   0  0  0  0  0  0  0  0  0  0  0  0
   -1.8359    3.5925    0.0000 O   0  0  0  0  0  0  0  0  0  0  0  0
    2.6704    6.0377    0.0000 C   0  0  0  0  0  0  0  0  0  0  0  0
    2.1197    6.6385    0.0000 C   0  0  0  0  0  0  0  0  0  0  0  0
    2.6287    4.5606    0.0000 O   0  0  0  0  0  0  0  0  0  0  0  0
    0.6301    6.7094    0.0000 O   0  0  0  0  0  0  0  0  0  0  0  0
    0.9764    4.1100    0.0000 C   0  0  0  0  0  0  0  0  0  0  0  0
    0.0418    5.2074    0.0000 C   0  0  0  0  0  0  0  0  0  0  0  0
   -0.5841    4.6733    0.0000 C   0  0  0  0  0  0  0  0  0  0  0  0
    0.3505    3.5883    0.0000 C   0  0  0  0  0  0  0  0  0  0  0  0
   -6.2087    2.5536    0.0000 C   0  0  0  0  0  0  0  0  0  0  0  0
   -4.4145    1.3477    0.0000 F   0  0  0  0  0  0  0  0  0  0  0  0
   -5.8916    3.3130    0.0000 C   0  0  0  0  0  0  0  0  0  0  0  0
   -7.0266    2.4617    0.0000 F   0  0  0  0  0  0  0  0  0  0  0  0
  2  3  1  0  0  0  0
  3  1  1  0  0  0  0
  4 13  1  0  0  0  0
  5  1  2  0  0  0  0
  6  1  1  0  0  0  0
  7  2  1  0  0  0  0
  8  5  1  0  0  0  0
  9  7  1  0  0  0  0
 10  4  1  0  0  0  0
 11  4  1  0  0  0  0
 12  6  1  0  0  0  0
 13 22  2  0  0  0  0
 14  6  2  0  0  0  0
 15 12  2  0  0  0  0
 16  9  1  0  0  0  0
 17  9  2  0  0  0  0
 18 10  1  0  0  0  0
 19 11  1  0  0  0  0
 20 10  2  0  0  0  0
 21 11  2  0  0  0  0
 22 25  1  0  0  0  0
 23 24  2  0  0  0  0
 24 16  1  0  0  0  0
 25 16  2  0  0  0  0
 26 28  2  0  0  0  0
 27 12  1  0  0  0  0
 28 14  1  0  0  0  0
 29 26  1  0  0  0  0
  8  2  2  0  0  0  0
 15 26  1  0  0  0  0
 13 23  1  0  0  0  0
 19 18  1  0  0  0  0
M  END
>  <IDNUMBER>
F1374-1927

>  <Chemical_Name>
N-[5-(2,4-difluorophenyl)-1,3,4-oxadiazol-2-yl]-4-(2,5-dioxopyrrolidin-1-yl)benzamide

>  <PriceCoeff>
1.00

>  <CAS>
1170020-32-2

>  <MW>
398.32

>  <Description>
solid

>  <FSP3>
0.11

>  <clogP>
0.89

>  <TPSA>
105.40

>  <Acceptor>
6

>  <Donor>
1

>  <RotBonds>
4

>  <HAC>
29

>  <Collection>
General

>  <PPDS>
+

$$$$
F1374-2249
  Mrv2219 10102508112D          

 26 28  0  0  0  0            999 V2000
    8.3058   -2.0838    0.0000 N   0  0  0  0  0  0  0  0  0  0  0  0
    5.7655   -3.2418    0.0000 C   0  0  0  0  0  0  0  0  0  0  0  0
    5.0973   -3.7150    0.0000 O   0  0  0  0  0  0  0  0  0  0  0  0
    4.4331   -3.2418    0.0000 C   0  0  0  0  0  0  0  0  0  0  0  0
    4.6863   -2.4573    0.0000 N   0  0  0  0  0  0  0  0  0  0  0  0
    5.5082   -2.4573    0.0000 N   0  0  0  0  0  0  0  0  0  0  0  0
    6.5418   -3.4909    0.0000 N   0  0  0  0  0  0  0  0  0  0  0  0
    9.1070   -1.9094    0.0000 C   0  0  0  0  0  0  0  0  0  0  0  0
    7.8742   -1.3864    0.0000 C   0  0  0  0  0  0  0  0  0  0  0  0
    1.2992   -4.2588    0.0000 C   0  0  0  0  0  0  0  0  0  0  0  0
    7.1602   -2.9430    0.0000 C   0  0  0  0  0  0  0  0  0  0  0  0
    7.9863   -2.8434    0.0000 C   0  0  0  0  0  0  0  0  0  0  0  0
    3.6528   -3.4909    0.0000 C   0  0  0  0  0  0  0  0  0  0  0  0
    2.0962   -4.0014    0.0000 C   0  0  0  0  0  0  0  0  0  0  0  0
    8.4096   -0.7638    0.0000 C   0  0  0  0  0  0  0  0  0  0  0  0
    9.1775   -1.0834    0.0000 C   0  0  0  0  0  0  0  0  0  0  0  0
    7.0648   -1.3117    0.0000 O   0  0  0  0  0  0  0  0  0  0  0  0
    9.7254   -2.4449    0.0000 O   0  0  0  0  0  0  0  0  0  0  0  0
    6.9112   -2.3079    0.0000 O   0  0  0  0  0  0  0  0  0  0  0  0
    2.2664   -3.1920    0.0000 C   0  0  0  0  0  0  0  0  0  0  0  0
    2.6897   -4.5494    0.0000 C   0  0  0  0  0  0  0  0  0  0  0  0
    3.0384   -2.9430    0.0000 C   0  0  0  0  0  0  0  0  0  0  0  0
    3.4784   -4.3003    0.0000 C   0  0  0  0  0  0  0  0  0  0  0  0
    0.5770   -3.7898    0.0000 F   0  0  0  0  0  0  0  0  0  0  0  0
    0.9879   -5.0599    0.0000 F   0  0  0  0  0  0  0  0  0  0  0  0
    0.5895   -4.4829    0.0000 F   0  0  0  0  0  0  0  0  0  0  0  0
  2  7  1  0  0  0  0
  3  2  1  0  0  0  0
  4  3  1  0  0  0  0
  5  6  1  0  0  0  0
  6  2  2  0  0  0  0
  7 11  1  0  0  0  0
  8  1  1  0  0  0  0
  9  1  1  0  0  0  0
 10 14  1  0  0  0  0
 11 12  1  0  0  0  0
 12  1  1  0  0  0  0
 13  4  1  0  0  0  0
 14 21  1  0  0  0  0
 15  9  1  0  0  0  0
 16  8  1  0  0  0  0
 17  9  2  0  0  0  0
 18  8  2  0  0  0  0
 19 11  2  0  0  0  0
 20 22  1  0  0  0  0
 21 23  2  0  0  0  0
 22 13  2  0  0  0  0
 23 13  1  0  0  0  0
 24 10  1  0  0  0  0
 25 10  1  0  0  0  0
 26 10  1  0  0  0  0
 16 15  1  0  0  0  0
  4  5  2  0  0  0  0
 14 20  2  0  0  0  0
M  END
>  <IDNUMBER>
F1374-2249

>  <Chemical_Name>
2-(2,5-dioxopyrrolidin-1-yl)-N-{5-[4-(trifluoromethyl)phenyl]-1,3,4-oxadiazol-2-yl}acetamide

>  <PriceCoeff>
1.00

>  <CAS>
1172450-99-5

>  <MW>
368.27

>  <Description>
solid

>  <FSP3>
0.27

>  <clogP>
1.31

>  <TPSA>
105.40

>  <Acceptor>
6

>  <Donor>
1

>  <RotBonds>
4

>  <HAC>
26

>  <Collection>
General

>  <PPDS>
+

$$$$
F1374-2755
  Mrv2219 10102508112D          

 28 31  0  0  0  0            999 V2000
    2.7541   -4.0544    0.0000 C   0  0  0  0  0  0  0  0  0  0  0  0
    3.5392   -3.8009    0.0000 C   0  0  0  0  0  0  0  0  0  0  0  0
    2.4218   -4.8021    0.0000 C   0  0  0  0  0  0  0  0  0  0  0  0
    8.5906   -1.8195    0.0000 N   0  0  0  0  0  0  0  0  0  0  0  0
    4.8769   -3.8009    0.0000 C   0  0  0  0  0  0  0  0  0  0  0  0
    4.2122   -4.2787    0.0000 O   0  0  0  0  0  0  0  0  0  0  0  0
    1.6076   -4.7273    0.0000 S   0  0  0  0  0  0  0  0  0  0  0  0
    3.7927   -3.0075    0.0000 N   0  0  0  0  0  0  0  0  0  0  0  0
    5.6620   -4.0544    0.0000 N   0  0  0  0  0  0  0  0  0  0  0  0
    4.6234   -3.0075    0.0000 N   0  0  0  0  0  0  0  0  0  0  0  0
    1.4331   -3.9297    0.0000 C   0  0  0  0  0  0  0  0  0  0  0  0
    7.7639   -1.9067    0.0000 C   0  0  0  0  0  0  0  0  0  0  0  0
    2.1352   -3.5143    0.0000 C   0  0  0  0  0  0  0  0  0  0  0  0
    6.2809   -3.5060    0.0000 C   0  0  0  0  0  0  0  0  0  0  0  0
    9.1222   -2.4592    0.0000 C   0  0  0  0  0  0  0  0  0  0  0  0
    9.0350   -1.1216    0.0000 C   0  0  0  0  0  0  0  0  0  0  0  0
    7.4316   -2.6669    0.0000 C   0  0  0  0  0  0  0  0  0  0  0  0
    6.6091   -2.7583    0.0000 C   0  0  0  0  0  0  0  0  0  0  0  0
    6.9912   -3.9547    0.0000 O   0  0  0  0  0  0  0  0  0  0  0  0
    9.8991   -2.1352    0.0000 C   0  0  0  0  0  0  0  0  0  0  0  0
    9.8368   -1.3127    0.0000 C   0  0  0  0  0  0  0  0  0  0  0  0
    8.9146   -3.2526    0.0000 O   0  0  0  0  0  0  0  0  0  0  0  0
    8.7359   -0.3489    0.0000 O   0  0  0  0  0  0  0  0  0  0  0  0
    2.8414   -5.5124    0.0000 Cl  0  0  0  0  0  0  0  0  0  0  0  0
    0.6854   -3.6015    0.0000 Cl  0  0  0  0  0  0  0  0  0  0  0  0
    7.2903   -1.2379    0.0000 C   0  0  0  0  0  0  0  0  0  0  0  0
    6.1189   -2.0854    0.0000 C   0  0  0  0  0  0  0  0  0  0  0  0
    6.4595   -1.3252    0.0000 C   0  0  0  0  0  0  0  0  0  0  0  0
  2  1  1  0  0  0  0
  3  1  2  0  0  0  0
  4 12  1  0  0  0  0
  5  6  1  0  0  0  0
  6  2  1  0  0  0  0
  7  3  1  0  0  0  0
  8  2  2  0  0  0  0
  9  5  1  0  0  0  0
 10  8  1  0  0  0  0
 11 13  2  0  0  0  0
 12 17  1  0  0  0  0
 13  1  1  0  0  0  0
 14  9  1  0  0  0  0
 15  4  1  0  0  0  0
 16  4  1  0  0  0  0
 17 18  2  0  0  0  0
 18 14  1  0  0  0  0
 19 14  2  0  0  0  0
 20 15  1  0  0  0  0
 21 16  1  0  0  0  0
 22 15  2  0  0  0  0
 23 16  2  0  0  0  0
 24  3  1  0  0  0  0
 25 11  1  0  0  0  0
 26 28  1  0  0  0  0
 27 18  1  0  0  0  0
 28 27  2  0  0  0  0
  7 11  1  0  0  0  0
 10  5  2  0  0  0  0
 12 26  2  0  0  0  0
 21 20  1  0  0  0  0
M  END
>  <IDNUMBER>
F1374-2755

>  <Chemical_Name>
N-[5-(2,5-dichlorothiophen-3-yl)-1,3,4-oxadiazol-2-yl]-3-(2,5-dioxopyrrolidin-1-yl)benzamide

>  <PriceCoeff>
1.00

>  <CAS>
1170140-24-5

>  <MW>
437.26

>  <Description>
solid

>  <FSP3>
0.12

>  <clogP>
1.44

>  <TPSA>
133.64

>  <Acceptor>
6

>  <Donor>
1

>  <RotBonds>
4

>  <HAC>
28

>  <Collection>
General

>  <PPDS>
+

$$$$
F1374-2793
  Mrv2219 10102508112D          

 23 25  0  0  0  0            999 V2000
    3.2568   -3.5559    0.0000 C   0  0  0  0  0  0  0  0  0  0  0  0
    4.0419   -3.3024    0.0000 C   0  0  0  0  0  0  0  0  0  0  0  0
    7.9383   -2.1435    0.0000 N   0  0  0  0  0  0  0  0  0  0  0  0
    2.9286   -4.3036    0.0000 C   0  0  0  0  0  0  0  0  0  0  0  0
    4.7149   -3.7802    0.0000 O   0  0  0  0  0  0  0  0  0  0  0  0
    5.3836   -3.3024    0.0000 C   0  0  0  0  0  0  0  0  0  0  0  0
    2.1103   -4.2288    0.0000 S   0  0  0  0  0  0  0  0  0  0  0  0
    4.3036   -2.5091    0.0000 N   0  0  0  0  0  0  0  0  0  0  0  0
    5.1261   -2.5091    0.0000 N   0  0  0  0  0  0  0  0  0  0  0  0
    1.9358   -3.4313    0.0000 C   0  0  0  0  0  0  0  0  0  0  0  0
    2.6420   -3.0158    0.0000 C   0  0  0  0  0  0  0  0  0  0  0  0
    6.1687   -3.5559    0.0000 N   0  0  0  0  0  0  0  0  0  0  0  0
    8.7401   -1.9607    0.0000 C   0  0  0  0  0  0  0  0  0  0  0  0
    7.5064   -1.4373    0.0000 C   0  0  0  0  0  0  0  0  0  0  0  0
    6.7836   -3.0075    0.0000 C   0  0  0  0  0  0  0  0  0  0  0  0
    7.6185   -2.9079    0.0000 C   0  0  0  0  0  0  0  0  0  0  0  0
    8.0505   -0.8142    0.0000 C   0  0  0  0  0  0  0  0  0  0  0  0
    8.8149   -1.1340    0.0000 C   0  0  0  0  0  0  0  0  0  0  0  0
    6.6921   -1.3626    0.0000 O   0  0  0  0  0  0  0  0  0  0  0  0
    9.3632   -2.4966    0.0000 O   0  0  0  0  0  0  0  0  0  0  0  0
    6.1687   -2.4343    0.0000 O   0  0  0  0  0  0  0  0  0  0  0  0
    3.3440   -5.0139    0.0000 Cl  0  0  0  0  0  0  0  0  0  0  0  0
    1.1881   -3.1031    0.0000 Cl  0  0  0  0  0  0  0  0  0  0  0  0
  2  1  1  0  0  0  0
  3 16  1  0  0  0  0
  4  1  2  0  0  0  0
  5  2  1  0  0  0  0
  6  5  1  0  0  0  0
  7  4  1  0  0  0  0
  8  2  2  0  0  0  0
  9  8  1  0  0  0  0
 10 11  2  0  0  0  0
 11  1  1  0  0  0  0
 12  6  1  0  0  0  0
 13  3  1  0  0  0  0
 14  3  1  0  0  0  0
 15 12  1  0  0  0  0
 16 15  1  0  0  0  0
 17 14  1  0  0  0  0
 18 13  1  0  0  0  0
 19 14  2  0  0  0  0
 20 13  2  0  0  0  0
 21 15  2  0  0  0  0
 22  4  1  0  0  0  0
 23 10  1  0  0  0  0
  7 10  1  0  0  0  0
  9  6  2  0  0  0  0
 18 17  1  0  0  0  0
M  END
>  <IDNUMBER>
F1374-2793

>  <Chemical_Name>
N-[5-(2,5-dichlorothiophen-3-yl)-1,3,4-oxadiazol-2-yl]-2-(2,5-dioxopyrrolidin-1-yl)acetamide

>  <PriceCoeff>
1.00

>  <CAS>
1171413-46-9

>  <MW>
375.19

>  <Description>
solid

>  <FSP3>
0.25

>  <clogP>
1.26

>  <TPSA>
133.64

>  <Acceptor>
6

>  <Donor>
1

>  <RotBonds>
4

>  <HAC>
23

>  <Collection>
General

>  <PPDS>
+

$$$$
F1381-0066
  Mrv2219 10102508112D          

 27 30  0  0  0  0            999 V2000
   -3.1605    5.0328    0.0000 C   0  0  0  0  0  0  0  0  0  0  0  0
   -3.1605    4.2072    0.0000 N   0  0  0  0  0  0  0  0  0  0  0  0
   -3.8277    5.5206    0.0000 N   0  0  0  0  0  0  0  0  0  0  0  0
   -5.2996    1.3385    0.0000 N   0  0  0  0  0  0  0  0  0  0  0  0
   -2.4976    5.5163    0.0000 S   0  0  0  0  0  0  0  0  0  0  0  0
   -3.5733    6.2962    0.0000 C   0  0  0  0  0  0  0  0  0  0  0  0
   -2.7478    6.2962    0.0000 C   0  0  0  0  0  0  0  0  0  0  0  0
   -3.8736    3.8027    0.0000 C   0  0  0  0  0  0  0  0  0  0  0  0
   -4.5865    1.7513    0.0000 C   0  0  0  0  0  0  0  0  0  0  0  0
   -6.0293    1.7095    0.0000 C   0  0  0  0  0  0  0  0  0  0  0  0
   -5.4163    0.5212    0.0000 C   0  0  0  0  0  0  0  0  0  0  0  0
   -4.5865    2.5851    0.0000 C   0  0  0  0  0  0  0  0  0  0  0  0
   -3.8736    2.9855    0.0000 C   0  0  0  0  0  0  0  0  0  0  0  0
   -3.9861    7.0216    0.0000 C   0  0  0  0  0  0  0  0  0  0  0  0
   -4.5865    4.2154    0.0000 O   0  0  0  0  0  0  0  0  0  0  0  0
   -6.6089    1.1091    0.0000 C   0  0  0  0  0  0  0  0  0  0  0  0
   -6.2211    0.3753    0.0000 C   0  0  0  0  0  0  0  0  0  0  0  0
   -6.1586    2.5268    0.0000 O   0  0  0  0  0  0  0  0  0  0  0  0
   -4.8492   -0.0542    0.0000 O   0  0  0  0  0  0  0  0  0  0  0  0
   -4.6115    5.2663    0.0000 C   0  0  0  0  0  0  0  0  0  0  0  0
   -4.8117    7.0216    0.0000 Cl  0  0  0  0  0  0  0  0  0  0  0  0
   -2.3349    7.0091    0.0000 C   0  0  0  0  0  0  0  0  0  0  0  0
   -3.8736    1.3343    0.0000 C   0  0  0  0  0  0  0  0  0  0  0  0
   -3.1522    2.5851    0.0000 C   0  0  0  0  0  0  0  0  0  0  0  0
   -3.1522    1.7471    0.0000 C   0  0  0  0  0  0  0  0  0  0  0  0
   -2.7478    7.7222    0.0000 C   0  0  0  0  0  0  0  0  0  0  0  0
   -3.5650    7.7222    0.0000 C   0  0  0  0  0  0  0  0  0  0  0  0
  2  1  2  0  0  0  0
  3  1  1  0  0  0  0
  4  9  1  0  0  0  0
  5  1  1  0  0  0  0
  6  3  1  0  0  0  0
  7  5  1  0  0  0  0
  8  2  1  0  0  0  0
  9 12  1  0  0  0  0
 10  4  1  0  0  0  0
 11  4  1  0  0  0  0
 12 13  2  0  0  0  0
 13  8  1  0  0  0  0
 14  6  1  0  0  0  0
 15  8  2  0  0  0  0
 16 10  1  0  0  0  0
 17 11  1  0  0  0  0
 18 10  2  0  0  0  0
 19 11  2  0  0  0  0
 20  3  1  0  0  0  0
 21 14  1  0  0  0  0
 22  7  1  0  0  0  0
 23 25  1  0  0  0  0
 24 13  1  0  0  0  0
 25 24  2  0  0  0  0
 26 22  2  0  0  0  0
 27 14  2  0  0  0  0
  6  7  2  0  0  0  0
 27 26  1  0  0  0  0
  9 23  2  0  0  0  0
 16 17  1  0  0  0  0
M  END
>  <IDNUMBER>
F1381-0066

>  <Chemical_Name>
N-[(2E)-4-chloro-3-methyl-2,3-dihydro-1,3-benzothiazol-2-ylidene]-3-(2,5-dioxopyrrolidin-1-yl)benzamide

>  <PriceCoeff>
1.00

>  <CAS>
865543-89-1

>  <MW>
399.85

>  <Description>
solid

>  <FSP3>
0.16

>  <clogP>
3.66

>  <TPSA>
95.35

>  <Acceptor>
3

>  <Donor>
0

>  <RotBonds>
3

>  <HAC>
27

>  <Collection>
General

>  <PPDS>
+

$$$$
F1381-1021
  Mrv2219 10102508112D          

 28 31  0  0  0  0            999 V2000
   -3.1866    5.0700    0.0000 C   0  0  0  0  0  0  0  0  0  0  0  0
   -3.1866    4.2419    0.0000 N   0  0  0  0  0  0  0  0  0  0  0  0
   -3.8550    5.5535    0.0000 N   0  0  0  0  0  0  0  0  0  0  0  0
   -3.9307    0.5255    0.0000 N   0  0  0  0  0  0  0  0  0  0  0  0
   -2.5182    5.5535    0.0000 S   0  0  0  0  0  0  0  0  0  0  0  0
   -2.7830    6.3354    0.0000 C   0  0  0  0  0  0  0  0  0  0  0  0
   -3.6070    6.3481    0.0000 C   0  0  0  0  0  0  0  0  0  0  0  0
   -3.9055    3.8340    0.0000 C   0  0  0  0  0  0  0  0  0  0  0  0
   -4.5739    0.0084    0.0000 C   0  0  0  0  0  0  0  0  0  0  0  0
   -3.2370    0.0588    0.0000 C   0  0  0  0  0  0  0  0  0  0  0  0
   -2.3668    7.0669    0.0000 C   0  0  0  0  0  0  0  0  0  0  0  0
   -3.9181    1.3495    0.0000 C   0  0  0  0  0  0  0  0  0  0  0  0
   -4.0190    7.0669    0.0000 C   0  0  0  0  0  0  0  0  0  0  0  0
   -3.9055    3.0100    0.0000 C   0  0  0  0  0  0  0  0  0  0  0  0
   -4.6243    4.2419    0.0000 O   0  0  0  0  0  0  0  0  0  0  0  0
   -4.2838   -0.7610    0.0000 C   0  0  0  0  0  0  0  0  0  0  0  0
   -3.4640   -0.7357    0.0000 C   0  0  0  0  0  0  0  0  0  0  0  0
   -5.3685    0.2396    0.0000 O   0  0  0  0  0  0  0  0  0  0  0  0
   -2.4425    0.3489    0.0000 O   0  0  0  0  0  0  0  0  0  0  0  0
   -3.1866    1.7614    0.0000 C   0  0  0  0  0  0  0  0  0  0  0  0
   -4.6243    1.7740    0.0000 C   0  0  0  0  0  0  0  0  0  0  0  0
   -4.6243    2.6064    0.0000 C   0  0  0  0  0  0  0  0  0  0  0  0
   -3.1866    2.5855    0.0000 C   0  0  0  0  0  0  0  0  0  0  0  0
   -2.7830    7.7816    0.0000 C   0  0  0  0  0  0  0  0  0  0  0  0
   -4.6496    5.2970    0.0000 C   0  0  0  0  0  0  0  0  0  0  0  0
   -3.6070    7.7816    0.0000 C   0  0  0  0  0  0  0  0  0  0  0  0
   -2.3668    8.5005    0.0000 F   0  0  0  0  0  0  0  0  0  0  0  0
   -5.2676    5.8436    0.0000 C   0  0  0  0  0  0  0  0  0  0  0  0
  2  1  2  0  0  0  0
  3  1  1  0  0  0  0
  4 12  1  0  0  0  0
  5  1  1  0  0  0  0
  6  5  1  0  0  0  0
  7  3  1  0  0  0  0
  8  2  1  0  0  0  0
  9  4  1  0  0  0  0
 10  4  1  0  0  0  0
 11  6  1  0  0  0  0
 12 20  1  0  0  0  0
 13  7  1  0  0  0  0
 14  8  1  0  0  0  0
 15  8  2  0  0  0  0
 16  9  1  0  0  0  0
 17 10  1  0  0  0  0
 18  9  2  0  0  0  0
 19 10  2  0  0  0  0
 20 23  2  0  0  0  0
 21 22  1  0  0  0  0
 22 14  2  0  0  0  0
 23 14  1  0  0  0  0
 24 11  2  0  0  0  0
 25  3  1  0  0  0  0
 26 13  2  0  0  0  0
 27 24  1  0  0  0  0
 28 25  1  0  0  0  0
  7  6  2  0  0  0  0
 26 24  1  0  0  0  0
 12 21  2  0  0  0  0
 16 17  1  0  0  0  0
M  END
>  <IDNUMBER>
F1381-1021

>  <Chemical_Name>
4-(2,5-dioxopyrrolidin-1-yl)-N-[(2E)-3-ethyl-6-fluoro-2,3-dihydro-1,3-benzothiazol-2-ylidene]benzamide

>  <PriceCoeff>
1.00

>  <CAS>
865544-97-4

>  <MW>
397.42

>  <Description>
solid

>  <FSP3>
0.20

>  <clogP>
3.62

>  <TPSA>
95.35

>  <Acceptor>
3

>  <Donor>
0

>  <RotBonds>
4

>  <HAC>
28

>  <Collection>
General

>  <PPDS>
+

$$$$
F1381-1222
  Mrv2219 10102508112D          

 26 28  0  0  0  0            999 V2000
   -3.1741    5.0501    0.0000 C   0  0  0  0  0  0  0  0  0  0  0  0
   -5.3348    3.8148    0.0000 N   0  0  0  0  0  0  0  0  0  0  0  0
   -3.8399    5.5401    0.0000 N   0  0  0  0  0  0  0  0  0  0  0  0
   -3.1741    4.2252    0.0000 N   0  0  0  0  0  0  0  0  0  0  0  0
   -2.5083    5.5317    0.0000 S   0  0  0  0  0  0  0  0  0  0  0  0
   -2.7638    6.3106    0.0000 C   0  0  0  0  0  0  0  0  0  0  0  0
   -3.5887    6.3232    0.0000 C   0  0  0  0  0  0  0  0  0  0  0  0
   -6.0719    4.1498    0.0000 C   0  0  0  0  0  0  0  0  0  0  0  0
   -5.4102    2.9982    0.0000 C   0  0  0  0  0  0  0  0  0  0  0  0
   -3.8902    3.8190    0.0000 C   0  0  0  0  0  0  0  0  0  0  0  0
   -4.6188    4.2336    0.0000 C   0  0  0  0  0  0  0  0  0  0  0  0
   -2.3575    8.4671    0.0000 C   0  0  0  0  0  0  0  0  0  0  0  0
   -2.3575    7.0392    0.0000 C   0  0  0  0  0  0  0  0  0  0  0  0
   -2.7721    7.7553    0.0000 C   0  0  0  0  0  0  0  0  0  0  0  0
   -4.0032    7.0392    0.0000 C   0  0  0  0  0  0  0  0  0  0  0  0
   -6.2101    2.8223    0.0000 C   0  0  0  0  0  0  0  0  0  0  0  0
   -6.6247    3.5384    0.0000 C   0  0  0  0  0  0  0  0  0  0  0  0
   -4.7947    2.4455    0.0000 O   0  0  0  0  0  0  0  0  0  0  0  0
   -6.2603    4.9538    0.0000 O   0  0  0  0  0  0  0  0  0  0  0  0
   -3.5887    7.7553    0.0000 C   0  0  0  0  0  0  0  0  0  0  0  0
   -3.8902    2.9982    0.0000 O   0  0  0  0  0  0  0  0  0  0  0  0
   -1.5284    8.4713    0.0000 O   0  0  0  0  0  0  0  0  0  0  0  0
   -4.6230    5.2763    0.0000 C   0  0  0  0  0  0  0  0  0  0  0  0
   -2.7638    9.1748    0.0000 O   0  0  0  0  0  0  0  0  0  0  0  0
   -3.5887    9.1874    0.0000 C   0  0  0  0  0  0  0  0  0  0  0  0
   -4.0032    9.8993    0.0000 C   0  0  0  0  0  0  0  0  0  0  0  0
  2 11  1  0  0  0  0
  3  1  1  0  0  0  0
  4  1  2  0  0  0  0
  5  1  1  0  0  0  0
  6  5  1  0  0  0  0
  7  3  1  0  0  0  0
  8  2  1  0  0  0  0
  9  2  1  0  0  0  0
 10  4  1  0  0  0  0
 11 10  1  0  0  0  0
 12 14  1  0  0  0  0
 13  6  1  0  0  0  0
 14 13  2  0  0  0  0
 15  7  1  0  0  0  0
 16  9  1  0  0  0  0
 17  8  1  0  0  0  0
 18  9  2  0  0  0  0
 19  8  2  0  0  0  0
 20 15  2  0  0  0  0
 21 10  2  0  0  0  0
 22 12  2  0  0  0  0
 23  3  1  0  0  0  0
 24 12  1  0  0  0  0
 25 24  1  0  0  0  0
 26 25  1  0  0  0  0
  7  6  2  0  0  0  0
 20 14  1  0  0  0  0
 16 17  1  0  0  0  0
M  END
>  <IDNUMBER>
F1381-1222

>  <Chemical_Name>
ethyl (2E)-2-{[2-(2,5-dioxopyrrolidin-1-yl)acetyl]imino}-3-methyl-2,3-dihydro-1,3-benzothiazole-6-carboxylate

>  <PriceCoeff>
1.00

>  <CAS>
865545-14-8

>  <MW>
375.40

>  <Description>
solid

>  <FSP3>
0.35

>  <clogP>
3.28

>  <TPSA>
121.65

>  <Acceptor>
5

>  <Donor>
0

>  <RotBonds>
6

>  <HAC>
26

>  <Collection>
General

>  <PPDS>
+

$$$$
F1382-0013
  Mrv2219 10102508112D          

 31 34  0  0  0  0            999 V2000
    1.2542   -0.5542    0.0000 S   0  0  0  0  0  0  0  0  0  0  0  0
    6.2542   -4.2667    0.0000 N   0  0  0  0  0  0  0  0  0  0  0  0
    6.2542   -3.4417    0.0000 C   0  0  0  0  0  0  0  0  0  0  0  0
    1.6667    0.1583    0.0000 N   0  0  0  0  0  0  0  0  0  0  0  0
    5.5917   -4.7542    0.0000 C   0  0  0  0  0  0  0  0  0  0  0  0
    6.9250   -4.7542    0.0000 C   0  0  0  0  0  0  0  0  0  0  0  0
    4.8250   -1.8000    0.0000 C   0  0  0  0  0  0  0  0  0  0  0  0
    1.9625   -0.9750    0.0000 C   0  0  0  0  0  0  0  0  0  0  0  0
    4.1125   -2.2125    0.0000 N   0  0  0  0  0  0  0  0  0  0  0  0
    5.5375   -3.0292    0.0000 C   0  0  0  0  0  0  0  0  0  0  0  0
    5.5375   -2.2042    0.0000 C   0  0  0  0  0  0  0  0  0  0  0  0
    0.5375   -0.1500    0.0000 O   0  0  0  0  0  0  0  0  0  0  0  0
    0.8375   -1.2667    0.0000 O   0  0  0  0  0  0  0  0  0  0  0  0
    4.8250   -0.9750    0.0000 O   0  0  0  0  0  0  0  0  0  0  0  0
    6.6667   -5.5417    0.0000 C   0  0  0  0  0  0  0  0  0  0  0  0
    5.8417   -5.5417    0.0000 C   0  0  0  0  0  0  0  0  0  0  0  0
    4.8042   -4.5042    0.0000 O   0  0  0  0  0  0  0  0  0  0  0  0
    7.7042   -4.5000    0.0000 O   0  0  0  0  0  0  0  0  0  0  0  0
    2.6750   -0.5542    0.0000 C   0  0  0  0  0  0  0  0  0  0  0  0
    1.9625   -1.8000    0.0000 C   0  0  0  0  0  0  0  0  0  0  0  0
    3.3917   -1.8000    0.0000 C   0  0  0  0  0  0  0  0  0  0  0  0
    2.6750   -2.2125    0.0000 C   0  0  0  0  0  0  0  0  0  0  0  0
    3.3917   -0.9667    0.0000 C   0  0  0  0  0  0  0  0  0  0  0  0
    6.9667   -3.0292    0.0000 C   0  0  0  0  0  0  0  0  0  0  0  0
    2.4917    0.1583    0.0000 C   0  0  0  0  0  0  0  0  0  0  0  0
    1.2500    0.8708    0.0000 C   0  0  0  0  0  0  0  0  0  0  0  0
    6.2500   -1.7917    0.0000 C   0  0  0  0  0  0  0  0  0  0  0  0
    6.9625   -2.2000    0.0000 C   0  0  0  0  0  0  0  0  0  0  0  0
    1.6667    1.5875    0.0000 C   0  0  0  0  0  0  0  0  0  0  0  0
    2.9042    0.8708    0.0000 C   0  0  0  0  0  0  0  0  0  0  0  0
    2.4917    1.5833    0.0000 C   0  0  0  0  0  0  0  0  0  0  0  0
  2  3  1  0  0  0  0
  3 10  1  0  0  0  0
  4  1  1  0  0  0  0
  5  2  1  0  0  0  0
  6  2  1  0  0  0  0
  7  9  1  0  0  0  0
  8  1  1  0  0  0  0
  9 21  1  0  0  0  0
 10 11  2  0  0  0  0
 11  7  1  0  0  0  0
 12  1  2  0  0  0  0
 13  1  2  0  0  0  0
 14  7  2  0  0  0  0
 15  6  1  0  0  0  0
 16  5  1  0  0  0  0
 17  5  2  0  0  0  0
 18  6  2  0  0  0  0
 19  8  1  0  0  0  0
 20  8  2  0  0  0  0
 21 22  2  0  0  0  0
 22 20  1  0  0  0  0
 23 19  2  0  0  0  0
 24 28  1  0  0  0  0
 25  4  1  0  0  0  0
 26  4  1  0  0  0  0
 27 11  1  0  0  0  0
 28 27  2  0  0  0  0
 29 26  1  0  0  0  0
 30 25  1  0  0  0  0
 31 29  1  0  0  0  0
 21 23  1  0  0  0  0
 30 31  1  0  0  0  0
  3 24  2  0  0  0  0
 16 15  1  0  0  0  0
M  END
>  <IDNUMBER>
F1382-0013

>  <Chemical_Name>
3-(2,5-dioxopyrrolidin-1-yl)-N-[4-(piperidine-1-sulfonyl)phenyl]benzamide

>  <PriceCoeff>
1.00

>  <CAS>
380321-96-0

>  <MW>
441.50

>  <Description>
solid

>  <FSP3>
0.32

>  <clogP>
1.64

>  <TPSA>
112.24

>  <Acceptor>
5

>  <Donor>
1

>  <RotBonds>
5

>  <HAC>
31

>  <Collection>
General

>  <PPDS>
+

$$$$
F1383-0007
  Mrv2219 10102508112D          

 29 31  0  0  0  0            999 V2000
    5.2218   -2.1976    0.0000 N   0  0  0  0  0  0  0  0  0  0  0  0
    5.9737   -2.5341    0.0000 C   0  0  0  0  0  0  0  0  0  0  0  0
    5.3007   -1.3751    0.0000 C   0  0  0  0  0  0  0  0  0  0  0  0
    6.5303   -1.9192    0.0000 C   0  0  0  0  0  0  0  0  0  0  0  0
    6.1108   -1.2006    0.0000 C   0  0  0  0  0  0  0  0  0  0  0  0
    8.5036   -2.8207    0.0000 C   0  0  0  0  0  0  0  0  0  0  0  0
    7.3446   -1.9982    0.0000 S   0  0  0  0  0  0  0  0  0  0  0  0
    7.6894   -2.7459    0.0000 C   0  0  0  0  0  0  0  0  0  0  0  0
    8.9772   -2.1477    0.0000 C   0  0  0  0  0  0  0  0  0  0  0  0
    4.5114   -2.6171    0.0000 C   0  0  0  0  0  0  0  0  0  0  0  0
    1.6492   -2.6213    0.0000 C   0  0  0  0  0  0  0  0  0  0  0  0
    6.1482   -3.3441    0.0000 O   0  0  0  0  0  0  0  0  0  0  0  0
    4.6901   -0.8267    0.0000 O   0  0  0  0  0  0  0  0  0  0  0  0
    1.6492   -3.4438    0.0000 C   0  0  0  0  0  0  0  0  0  0  0  0
    8.6365   -1.4000    0.0000 O   0  0  0  0  0  0  0  0  0  0  0  0
    2.3596   -2.2100    0.0000 C   0  0  0  0  0  0  0  0  0  0  0  0
    2.3721   -3.8634    0.0000 C   0  0  0  0  0  0  0  0  0  0  0  0
    3.0824   -2.6213    0.0000 C   0  0  0  0  0  0  0  0  0  0  0  0
    3.7928   -2.2059    0.0000 C   0  0  0  0  0  0  0  0  0  0  0  0
    9.7997   -2.2308    0.0000 O   0  0  0  0  0  0  0  0  0  0  0  0
    3.0824   -3.4438    0.0000 C   0  0  0  0  0  0  0  0  0  0  0  0
    0.9347   -2.2100    0.0000 O   0  0  0  0  0  0  0  0  0  0  0  0
    8.8401   -3.5685    0.0000 C   0  0  0  0  0  0  0  0  0  0  0  0
    0.9389   -3.8676    0.0000 O   0  0  0  0  0  0  0  0  0  0  0  0
    7.2033   -3.4147    0.0000 C   0  0  0  0  0  0  0  0  0  0  0  0
    0.9264   -1.3833    0.0000 C   0  0  0  0  0  0  0  0  0  0  0  0
    0.2160   -3.4563    0.0000 C   0  0  0  0  0  0  0  0  0  0  0  0
    8.3623   -4.2414    0.0000 C   0  0  0  0  0  0  0  0  0  0  0  0
    7.5440   -4.1625    0.0000 C   0  0  0  0  0  0  0  0  0  0  0  0
  2  1  1  0  0  0  0
  3  1  1  0  0  0  0
  4  2  1  0  0  0  0
  5  3  1  0  0  0  0
  6  8  1  0  0  0  0
  7  4  1  0  0  0  0
  8  7  1  0  0  0  0
  9  6  1  0  0  0  0
 10  1  1  0  0  0  0
 11 16  1  0  0  0  0
 12  2  2  0  0  0  0
 13  3  2  0  0  0  0
 14 17  1  0  0  0  0
 15  9  2  0  0  0  0
 16 18  2  0  0  0  0
 17 21  2  0  0  0  0
 18 19  1  0  0  0  0
 19 10  1  0  0  0  0
 20  9  1  0  0  0  0
 21 18  1  0  0  0  0
 22 11  1  0  0  0  0
 23  6  2  0  0  0  0
 24 14  1  0  0  0  0
 25  8  2  0  0  0  0
 26 22  1  0  0  0  0
 27 24  1  0  0  0  0
 28 29  2  0  0  0  0
 29 25  1  0  0  0  0
  5  4  1  0  0  0  0
 14 11  2  0  0  0  0
 28 23  1  0  0  0  0
M  END
>  <IDNUMBER>
F1383-0007

>  <Chemical_Name>
2-({1-[2-(3,4-dimethoxyphenyl)ethyl]-2,5-dioxopyrrolidin-3-yl}sulfanyl)benzoic acid

>  <PriceCoeff>
1.00

>  <CAS>
526190-70-5

>  <MW>
415.46

>  <Description>
solid

>  <FSP3>
0.29

>  <clogP>
2.99

>  <TPSA>
118.44

>  <Acceptor>
6

>  <Donor>
0

>  <RotBonds>
8

>  <HAC>
29

>  <Collection>
General

>  <PPDS>
+

$$$$
F1383-0013
  Mrv2219 10102508112D          

 26 28  0  0  0  0            999 V2000
    2.6128    1.0068    0.0000 N   0  0  0  0  0  0  0  0  0  0  0  0
    3.2826    1.4853    0.0000 C   0  0  0  0  0  0  0  0  0  0  0  0
    2.8707    0.2205    0.0000 C   0  0  0  0  0  0  0  0  0  0  0  0
    3.6945    0.2205    0.0000 C   0  0  0  0  0  0  0  0  0  0  0  0
    3.9483    1.0068    0.0000 C   0  0  0  0  0  0  0  0  0  0  0  0
    4.9967   -0.3620    0.0000 C   0  0  0  0  0  0  0  0  0  0  0  0
    5.4710   -1.0277    0.0000 C   0  0  0  0  0  0  0  0  0  0  0  0
    4.1730   -0.4493    0.0000 S   0  0  0  0  0  0  0  0  0  0  0  0
    5.1340   -1.7848    0.0000 C   0  0  0  0  0  0  0  0  0  0  0  0
    1.8348    1.2564    0.0000 C   0  0  0  0  0  0  0  0  0  0  0  0
    5.3213    0.3869    0.0000 N   0  0  0  0  0  0  0  0  0  0  0  0
    3.2743    2.3091    0.0000 O   0  0  0  0  0  0  0  0  0  0  0  0
    2.3757   -0.4493    0.0000 O   0  0  0  0  0  0  0  0  0  0  0  0
    5.6166   -2.4505    0.0000 O   0  0  0  0  0  0  0  0  0  0  0  0
    1.6642    2.0594    0.0000 C   0  0  0  0  0  0  0  0  0  0  0  0
    1.2274    0.7072    0.0000 C   0  0  0  0  0  0  0  0  0  0  0  0
    4.3186   -1.8639    0.0000 O   0  0  0  0  0  0  0  0  0  0  0  0
    0.2663    1.7682    0.0000 C   0  0  0  0  0  0  0  0  0  0  0  0
    0.8779    2.3173    0.0000 C   0  0  0  0  0  0  0  0  0  0  0  0
    0.4410    0.9569    0.0000 C   0  0  0  0  0  0  0  0  0  0  0  0
    6.2948   -0.9403    0.0000 C   0  0  0  0  0  0  0  0  0  0  0  0
   -0.5200    2.0178    0.0000 O   0  0  0  0  0  0  0  0  0  0  0  0
    6.1408    0.4743    0.0000 C   0  0  0  0  0  0  0  0  0  0  0  0
   -0.6865    2.8291    0.0000 C   0  0  0  0  0  0  0  0  0  0  0  0
    6.6318   -0.1914    0.0000 C   0  0  0  0  0  0  0  0  0  0  0  0
   -1.4728    3.0787    0.0000 C   0  0  0  0  0  0  0  0  0  0  0  0
  2  1  1  0  0  0  0
  3  1  1  0  0  0  0
  4  3  1  0  0  0  0
  5  2  1  0  0  0  0
  6  8  1  0  0  0  0
  7  6  2  0  0  0  0
  8  4  1  0  0  0  0
  9  7  1  0  0  0  0
 10  1  1  0  0  0  0
 11  6  1  0  0  0  0
 12  2  2  0  0  0  0
 13  3  2  0  0  0  0
 14  9  2  0  0  0  0
 15 10  2  0  0  0  0
 16 10  1  0  0  0  0
 17  9  1  0  0  0  0
 18 20  1  0  0  0  0
 19 15  1  0  0  0  0
 20 16  2  0  0  0  0
 21  7  1  0  0  0  0
 22 18  1  0  0  0  0
 23 11  2  0  0  0  0
 24 22  1  0  0  0  0
 25 23  1  0  0  0  0
 26 24  1  0  0  0  0
  5  4  1  0  0  0  0
 18 19  2  0  0  0  0
 25 21  2  0  0  0  0
M  END
>  <IDNUMBER>
F1383-0013

>  <Chemical_Name>
2-{[1-(4-ethoxyphenyl)-2,5-dioxopyrrolidin-3-yl]sulfanyl}pyridine-3-carboxylic acid

>  <PriceCoeff>
1.00

>  <CAS>
448198-55-8

>  <MW>
372.40

>  <Description>
solid

>  <FSP3>
0.22

>  <clogP>
2.13

>  <TPSA>
122.10

>  <Acceptor>
6

>  <Donor>
1

>  <RotBonds>
6

>  <HAC>
26

>  <Collection>
General

>  <PPDS>
+

$$$$
F1383-0014
  Mrv2219 10102508112D          

 27 29  0  0  0  0            999 V2000
    2.7207   -1.1844    0.0000 N   0  0  0  0  0  0  0  0  0  0  0  0
    3.3833   -0.6999    0.0000 C   0  0  0  0  0  0  0  0  0  0  0  0
    2.9692   -1.9670    0.0000 C   0  0  0  0  0  0  0  0  0  0  0  0
    3.7933   -1.9670    0.0000 C   0  0  0  0  0  0  0  0  0  0  0  0
    4.0541   -1.1844    0.0000 C   0  0  0  0  0  0  0  0  0  0  0  0
    5.0977   -2.5509    0.0000 C   0  0  0  0  0  0  0  0  0  0  0  0
    5.5822   -3.2218    0.0000 C   0  0  0  0  0  0  0  0  0  0  0  0
    4.2778   -2.6379    0.0000 S   0  0  0  0  0  0  0  0  0  0  0  0
    5.2426   -3.9672    0.0000 C   0  0  0  0  0  0  0  0  0  0  0  0
    1.9380   -0.9359    0.0000 C   0  0  0  0  0  0  0  0  0  0  0  0
    5.4290   -1.8014    0.0000 N   0  0  0  0  0  0  0  0  0  0  0  0
    3.3833    0.1242    0.0000 O   0  0  0  0  0  0  0  0  0  0  0  0
    2.4888   -2.6379    0.0000 O   0  0  0  0  0  0  0  0  0  0  0  0
   -0.5839    0.6336    0.0000 C   0  0  0  0  0  0  0  0  0  0  0  0
    5.7189   -4.6380    0.0000 O   0  0  0  0  0  0  0  0  0  0  0  0
   -0.4182   -0.1739    0.0000 O   0  0  0  0  0  0  0  0  0  0  0  0
    0.0248    1.1885    0.0000 O   0  0  0  0  0  0  0  0  0  0  0  0
    1.3293   -1.4825    0.0000 C   0  0  0  0  0  0  0  0  0  0  0  0
    1.7683   -0.1284    0.0000 C   0  0  0  0  0  0  0  0  0  0  0  0
    0.3727   -0.4224    0.0000 C   0  0  0  0  0  0  0  0  0  0  0  0
    4.4227   -4.0541    0.0000 O   0  0  0  0  0  0  0  0  0  0  0  0
    0.5466   -1.2341    0.0000 C   0  0  0  0  0  0  0  0  0  0  0  0
    0.9856    0.1325    0.0000 C   0  0  0  0  0  0  0  0  0  0  0  0
    6.4021   -3.1307    0.0000 C   0  0  0  0  0  0  0  0  0  0  0  0
    6.2406   -1.7144    0.0000 C   0  0  0  0  0  0  0  0  0  0  0  0
   -1.3748    0.8903    0.0000 C   0  0  0  0  0  0  0  0  0  0  0  0
    6.7376   -2.3770    0.0000 C   0  0  0  0  0  0  0  0  0  0  0  0
  2  1  1  0  0  0  0
  3  1  1  0  0  0  0
  4  3  1  0  0  0  0
  5  2  1  0  0  0  0
  6  8  1  0  0  0  0
  7  6  2  0  0  0  0
  8  4  1  0  0  0  0
  9  7  1  0  0  0  0
 10  1  1  0  0  0  0
 11  6  1  0  0  0  0
 12  2  2  0  0  0  0
 13  3  2  0  0  0  0
 14 16  1  0  0  0  0
 15  9  2  0  0  0  0
 16 20  1  0  0  0  0
 17 14  2  0  0  0  0
 18 10  1  0  0  0  0
 19 10  2  0  0  0  0
 20 23  2  0  0  0  0
 21  9  1  0  0  0  0
 22 18  2  0  0  0  0
 23 19  1  0  0  0  0
 24  7  1  0  0  0  0
 25 11  2  0  0  0  0
 26 14  1  0  0  0  0
 27 25  1  0  0  0  0
  5  4  1  0  0  0  0
 20 22  1  0  0  0  0
 27 24  2  0  0  0  0
M  END
>  <IDNUMBER>
F1383-0014

>  <Chemical_Name>
2-({1-[4-(acetyloxy)phenyl]-2,5-dioxopyrrolidin-3-yl}sulfanyl)pyridine-3-carboxylic acid

>  <PriceCoeff>
1.00

>  <CAS>
448198-57-0

>  <MW>
386.38

>  <Description>
solid

>  <FSP3>
0.17

>  <clogP>
1.03

>  <TPSA>
139.17

>  <Acceptor>
7

>  <Donor>
1

>  <RotBonds>
6

>  <HAC>
27

>  <Collection>
General

>  <PPDS>
+

$$$$
F1383-0018
  Mrv2219 10102508112D          

 19 20  0  0  0  0            999 V2000
   -0.5554   -1.7287    0.0000 N   0  0  0  0  0  0  0  0  0  0  0  0
   -0.3067   -2.5165    0.0000 C   0  0  0  0  0  0  0  0  0  0  0  0
    0.1119   -1.2437    0.0000 C   0  0  0  0  0  0  0  0  0  0  0  0
    0.5223   -2.5165    0.0000 C   0  0  0  0  0  0  0  0  0  0  0  0
    1.8282   -3.0969    0.0000 C   0  0  0  0  0  0  0  0  0  0  0  0
    0.7753   -1.7287    0.0000 C   0  0  0  0  0  0  0  0  0  0  0  0
    2.3051   -3.7685    0.0000 C   0  0  0  0  0  0  0  0  0  0  0  0
    1.0074   -3.1840    0.0000 S   0  0  0  0  0  0  0  0  0  0  0  0
    1.9693   -4.5189    0.0000 C   0  0  0  0  0  0  0  0  0  0  0  0
    2.1558   -2.3424    0.0000 N   0  0  0  0  0  0  0  0  0  0  0  0
   -0.7918   -3.1840    0.0000 O   0  0  0  0  0  0  0  0  0  0  0  0
    0.1037   -0.4146    0.0000 O   0  0  0  0  0  0  0  0  0  0  0  0
    2.4501   -5.1905    0.0000 O   0  0  0  0  0  0  0  0  0  0  0  0
   -1.3390   -1.4800    0.0000 C   0  0  0  0  0  0  0  0  0  0  0  0
    1.1484   -4.6060    0.0000 O   0  0  0  0  0  0  0  0  0  0  0  0
    3.1260   -3.6732    0.0000 C   0  0  0  0  0  0  0  0  0  0  0  0
    2.9724   -2.2553    0.0000 C   0  0  0  0  0  0  0  0  0  0  0  0
   -1.9485   -2.0273    0.0000 C   0  0  0  0  0  0  0  0  0  0  0  0
    3.4617   -2.9269    0.0000 C   0  0  0  0  0  0  0  0  0  0  0  0
  2  1  1  0  0  0  0
  3  1  1  0  0  0  0
  4  2  1  0  0  0  0
  5  8  1  0  0  0  0
  6  3  1  0  0  0  0
  7  5  2  0  0  0  0
  8  4  1  0  0  0  0
  9  7  1  0  0  0  0
 10  5  1  0  0  0  0
 11  2  2  0  0  0  0
 12  3  2  0  0  0  0
 13  9  2  0  0  0  0
 14  1  1  0  0  0  0
 15  9  1  0  0  0  0
 16  7  1  0  0  0  0
 17 10  2  0  0  0  0
 18 14  1  0  0  0  0
 19 17  1  0  0  0  0
  6  4  1  0  0  0  0
 19 16  2  0  0  0  0
M  END
>  <IDNUMBER>
F1383-0018

>  <Chemical_Name>
2-[(1-ethyl-2,5-dioxopyrrolidin-3-yl)sulfanyl]pyridine-3-carboxylic acid

>  <PriceCoeff>
1.00

>  <CAS>
514183-34-7

>  <MW>
280.30

>  <Description>
solid

>  <FSP3>
0.33

>  <clogP>
1.20

>  <TPSA>
112.87

>  <Acceptor>
5

>  <Donor>
1

>  <RotBonds>
4

>  <HAC>
19

>  <Collection>
General

>  <PPDS>
+

$$$$
F1383-0022
  Mrv2219 10102508112D          

 26 29  0  0  0  0            999 V2000
    3.7205   -1.3978    0.0000 N   0  0  0  0  0  0  0  0  0  0  0  0
    4.3841   -0.9125    0.0000 C   0  0  0  0  0  0  0  0  0  0  0  0
    3.9693   -2.1900    0.0000 C   0  0  0  0  0  0  0  0  0  0  0  0
    4.7947   -2.1900    0.0000 C   0  0  0  0  0  0  0  0  0  0  0  0
    2.9365   -1.1489    0.0000 C   0  0  0  0  0  0  0  0  0  0  0  0
    5.0560   -1.3978    0.0000 C   0  0  0  0  0  0  0  0  0  0  0  0
    6.1013   -2.7665    0.0000 C   0  0  0  0  0  0  0  0  0  0  0  0
    6.5865   -3.4384    0.0000 C   0  0  0  0  0  0  0  0  0  0  0  0
    5.2800   -2.8536    0.0000 S   0  0  0  0  0  0  0  0  0  0  0  0
    2.3310   -1.7047    0.0000 C   0  0  0  0  0  0  0  0  0  0  0  0
    6.2464   -4.1933    0.0000 C   0  0  0  0  0  0  0  0  0  0  0  0
    1.5554   -1.4558    0.0000 C   0  0  0  0  0  0  0  0  0  0  0  0
    6.4330   -2.0199    0.0000 N   0  0  0  0  0  0  0  0  0  0  0  0
    4.3841   -0.0913    0.0000 O   0  0  0  0  0  0  0  0  0  0  0  0
    1.3812   -0.6512    0.0000 C   0  0  0  0  0  0  0  0  0  0  0  0
    0.8379   -1.8706    0.0000 O   0  0  0  0  0  0  0  0  0  0  0  0
    3.4882   -2.8536    0.0000 O   0  0  0  0  0  0  0  0  0  0  0  0
    0.5599   -0.5641    0.0000 O   0  0  0  0  0  0  0  0  0  0  0  0
    2.7665   -0.3484    0.0000 C   0  0  0  0  0  0  0  0  0  0  0  0
    0.2240   -1.3231    0.0000 C   0  0  0  0  0  0  0  0  0  0  0  0
    6.7234   -4.8652    0.0000 O   0  0  0  0  0  0  0  0  0  0  0  0
    1.9826   -0.0913    0.0000 C   0  0  0  0  0  0  0  0  0  0  0  0
    5.4251   -4.2804    0.0000 O   0  0  0  0  0  0  0  0  0  0  0  0
    7.4078   -3.3513    0.0000 C   0  0  0  0  0  0  0  0  0  0  0  0
    7.2460   -1.9328    0.0000 C   0  0  0  0  0  0  0  0  0  0  0  0
    7.7437   -2.6006    0.0000 C   0  0  0  0  0  0  0  0  0  0  0  0
  2  1  1  0  0  0  0
  3  1  1  0  0  0  0
  4  3  1  0  0  0  0
  5  1  1  0  0  0  0
  6  2  1  0  0  0  0
  7  9  1  0  0  0  0
  8  7  2  0  0  0  0
  9  4  1  0  0  0  0
 10  5  1  0  0  0  0
 11  8  1  0  0  0  0
 12 10  2  0  0  0  0
 13  7  1  0  0  0  0
 14  2  2  0  0  0  0
 15 22  2  0  0  0  0
 16 12  1  0  0  0  0
 17  3  2  0  0  0  0
 18 15  1  0  0  0  0
 19  5  2  0  0  0  0
 20 16  1  0  0  0  0
 21 11  2  0  0  0  0
 22 19  1  0  0  0  0
 23 11  1  0  0  0  0
 24  8  1  0  0  0  0
 25 13  2  0  0  0  0
 26 25  1  0  0  0  0
  6  4  1  0  0  0  0
 15 12  1  0  0  0  0
 20 18  1  0  0  0  0
 26 24  2  0  0  0  0
M  END
>  <IDNUMBER>
F1383-0022

>  <Chemical_Name>
2-{[1-(2H-1,3-benzodioxol-5-yl)-2,5-dioxopyrrolidin-3-yl]sulfanyl}pyridine-3-carboxylic acid

>  <PriceCoeff>
1.00

>  <CAS>
685130-32-9

>  <MW>
372.35

>  <Description>
solid

>  <FSP3>
0.18

>  <clogP>
1.58

>  <TPSA>
131.33

>  <Acceptor>
7

>  <Donor>
1

>  <RotBonds>
4

>  <HAC>
26

>  <Collection>
General

>  <PPDS>
+

$$$$
F1383-0023
  Mrv2219 10102508112D          

 29 31  0  0  0  0            999 V2000
    2.5411   -0.6394    0.0000 N   0  0  0  0  0  0  0  0  0  0  0  0
    2.7902   -1.4243    0.0000 C   0  0  0  0  0  0  0  0  0  0  0  0
    3.2055   -0.1537    0.0000 C   0  0  0  0  0  0  0  0  0  0  0  0
    3.6165   -1.4243    0.0000 C   0  0  0  0  0  0  0  0  0  0  0  0
    4.9245   -2.0097    0.0000 C   0  0  0  0  0  0  0  0  0  0  0  0
    3.8781   -0.6394    0.0000 C   0  0  0  0  0  0  0  0  0  0  0  0
    5.4103   -2.6823    0.0000 C   0  0  0  0  0  0  0  0  0  0  0  0
    4.1024   -2.0969    0.0000 S   0  0  0  0  0  0  0  0  0  0  0  0
    5.0698   -3.4297    0.0000 C   0  0  0  0  0  0  0  0  0  0  0  0
    1.7563   -0.3904    0.0000 C   0  0  0  0  0  0  0  0  0  0  0  0
    5.2566   -1.2581    0.0000 N   0  0  0  0  0  0  0  0  0  0  0  0
   -1.0214   -0.9758    0.0000 C   0  0  0  0  0  0  0  0  0  0  0  0
    2.3087   -2.0969    0.0000 O   0  0  0  0  0  0  0  0  0  0  0  0
    3.2055    0.6726    0.0000 O   0  0  0  0  0  0  0  0  0  0  0  0
   -1.1958   -0.1744    0.0000 C   0  0  0  0  0  0  0  0  0  0  0  0
    5.5473   -4.1024    0.0000 O   0  0  0  0  0  0  0  0  0  0  0  0
   -0.2450   -1.2332    0.0000 C   0  0  0  0  0  0  0  0  0  0  0  0
   -0.5854    0.3820    0.0000 C   0  0  0  0  0  0  0  0  0  0  0  0
    0.3655   -0.6851    0.0000 C   0  0  0  0  0  0  0  0  0  0  0  0
    1.1460   -0.9384    0.0000 C   0  0  0  0  0  0  0  0  0  0  0  0
    4.2477   -3.5169    0.0000 O   0  0  0  0  0  0  0  0  0  0  0  0
    0.1911    0.1204    0.0000 C   0  0  0  0  0  0  0  0  0  0  0  0
   -1.6318   -1.5321    0.0000 O   0  0  0  0  0  0  0  0  0  0  0  0
    6.2324   -2.5909    0.0000 C   0  0  0  0  0  0  0  0  0  0  0  0
   -1.9764    0.0830    0.0000 O   0  0  0  0  0  0  0  0  0  0  0  0
    6.0705   -1.1709    0.0000 C   0  0  0  0  0  0  0  0  0  0  0  0
   -2.4166   -1.2748    0.0000 C   0  0  0  0  0  0  0  0  0  0  0  0
   -2.1508    0.8844    0.0000 C   0  0  0  0  0  0  0  0  0  0  0  0
    6.5687   -1.8353    0.0000 C   0  0  0  0  0  0  0  0  0  0  0  0
  2  1  1  0  0  0  0
  3  1  1  0  0  0  0
  4  2  1  0  0  0  0
  5  8  1  0  0  0  0
  6  3  1  0  0  0  0
  7  5  2  0  0  0  0
  8  4  1  0  0  0  0
  9  7  1  0  0  0  0
 10  1  1  0  0  0  0
 11  5  1  0  0  0  0
 12 17  2  0  0  0  0
 13  2  2  0  0  0  0
 14  3  2  0  0  0  0
 15 18  2  0  0  0  0
 16  9  2  0  0  0  0
 17 19  1  0  0  0  0
 18 22  1  0  0  0  0
 19 20  1  0  0  0  0
 20 10  1  0  0  0  0
 21  9  1  0  0  0  0
 22 19  2  0  0  0  0
 23 12  1  0  0  0  0
 24  7  1  0  0  0  0
 25 15  1  0  0  0  0
 26 11  2  0  0  0  0
 27 23  1  0  0  0  0
 28 25  1  0  0  0  0
 29 26  1  0  0  0  0
  6  4  1  0  0  0  0
 15 12  1  0  0  0  0
 29 24  2  0  0  0  0
M  END
>  <IDNUMBER>
F1383-0023

>  <Chemical_Name>
2-({1-[2-(3,4-dimethoxyphenyl)ethyl]-2,5-dioxopyrrolidin-3-yl}sulfanyl)pyridine-3-carboxylic acid

>  <PriceCoeff>
1.00

>  <CAS>
685130-30-7

>  <MW>
416.45

>  <Description>
solid

>  <FSP3>
0.30

>  <clogP>
2.43

>  <TPSA>
131.33

>  <Acceptor>
7

>  <Donor>
1

>  <RotBonds>
8

>  <HAC>
29

>  <Collection>
General

>  <PPDS>
+

$$$$
F1383-0025
  Mrv2219 10102508112D          

 30 33  0  0  0  0            999 V2000
    4.7821   -2.3682    0.0000 N   0  0  0  0  0  0  0  0  0  0  0  0
    3.9982   -2.1194    0.0000 C   0  0  0  0  0  0  0  0  0  0  0  0
    3.7493   -1.3438    0.0000 C   0  0  0  0  0  0  0  0  0  0  0  0
    5.4498   -1.8830    0.0000 C   0  0  0  0  0  0  0  0  0  0  0  0
    3.3387   -2.6046    0.0000 S   0  0  0  0  0  0  0  0  0  0  0  0
    5.0392   -3.1604    0.0000 C   0  0  0  0  0  0  0  0  0  0  0  0
    2.9281   -1.3480    0.0000 C   0  0  0  0  0  0  0  0  0  0  0  0
    2.6751   -2.1318    0.0000 C   0  0  0  0  0  0  0  0  0  0  0  0
    5.8604   -3.1604    0.0000 C   0  0  0  0  0  0  0  0  0  0  0  0
    6.1217   -2.3682    0.0000 C   0  0  0  0  0  0  0  0  0  0  0  0
    7.1710   -3.7369    0.0000 C   0  0  0  0  0  0  0  0  0  0  0  0
    7.6521   -4.4088    0.0000 C   0  0  0  0  0  0  0  0  0  0  0  0
    6.3498   -3.8240    0.0000 S   0  0  0  0  0  0  0  0  0  0  0  0
    4.2304   -0.6761    0.0000 C   0  0  0  0  0  0  0  0  0  0  0  0
    7.3079   -5.1636    0.0000 C   0  0  0  0  0  0  0  0  0  0  0  0
    7.4945   -2.9904    0.0000 N   0  0  0  0  0  0  0  0  0  0  0  0
    5.4498   -1.0618    0.0000 O   0  0  0  0  0  0  0  0  0  0  0  0
    4.5539   -3.8240    0.0000 O   0  0  0  0  0  0  0  0  0  0  0  0
    4.7903   -0.7507    0.0000 O   0  0  0  0  0  0  0  0  0  0  0  0
    7.7931   -5.8355    0.0000 O   0  0  0  0  0  0  0  0  0  0  0  0
    6.4867   -5.2507    0.0000 O   0  0  0  0  0  0  0  0  0  0  0  0
    3.8945    0.0705    0.0000 O   0  0  0  0  0  0  0  0  0  0  0  0
    2.4429   -0.6885    0.0000 C   0  0  0  0  0  0  0  0  0  0  0  0
    1.8954   -2.3889    0.0000 C   0  0  0  0  0  0  0  0  0  0  0  0
    8.4733   -4.3217    0.0000 C   0  0  0  0  0  0  0  0  0  0  0  0
    8.3157   -2.9033    0.0000 C   0  0  0  0  0  0  0  0  0  0  0  0
    3.0774    0.1576    0.0000 C   0  0  0  0  0  0  0  0  0  0  0  0
    8.8092   -3.5710    0.0000 C   0  0  0  0  0  0  0  0  0  0  0  0
    1.5595   -0.8710    0.0000 C   0  0  0  0  0  0  0  0  0  0  0  0
    1.2567   -1.8290    0.0000 C   0  0  0  0  0  0  0  0  0  0  0  0
  2  1  1  0  0  0  0
  3  2  2  0  0  0  0
  4  1  1  0  0  0  0
  5  2  1  0  0  0  0
  6  1  1  0  0  0  0
  7  3  1  0  0  0  0
  8  5  1  0  0  0  0
  9  6  1  0  0  0  0
 10  4  1  0  0  0  0
 11 13  1  0  0  0  0
 12 11  2  0  0  0  0
 13  9  1  0  0  0  0
 14  3  1  0  0  0  0
 15 12  1  0  0  0  0
 16 11  1  0  0  0  0
 17  4  2  0  0  0  0
 18  6  2  0  0  0  0
 19 14  2  0  0  0  0
 20 15  2  0  0  0  0
 21 15  1  0  0  0  0
 22 14  1  0  0  0  0
 23  7  1  0  0  0  0
 24  8  1  0  0  0  0
 25 12  1  0  0  0  0
 26 16  2  0  0  0  0
 27 22  1  0  0  0  0
 28 26  1  0  0  0  0
 29 23  1  0  0  0  0
 30 24  1  0  0  0  0
 10  9  1  0  0  0  0
  8  7  2  0  0  0  0
 30 29  1  0  0  0  0
 28 25  2  0  0  0  0
M  END
>  <IDNUMBER>
F1383-0025

>  <Chemical_Name>
2-({1-[3-(methoxycarbonyl)-4,5,6,7-tetrahydro-1-benzothiophen-2-yl]-2,5-dioxopyrrolidin-3-yl}sulfanyl)pyridine-3-carboxylic acid

>  <PriceCoeff>
1.00

>  <CAS>
685130-33-0

>  <MW>
446.50

>  <Description>
solid

>  <FSP3>
0.35

>  <clogP>
3.30

>  <TPSA>
167.41

>  <Acceptor>
7

>  <Donor>
1

>  <RotBonds>
6

>  <HAC>
30

>  <Collection>
General

>  <PPDS>
+

$$$$
F1383-0046
  Mrv2219 10102508112D          

 18 19  0  0  0  0            999 V2000
    0.8992   -1.2430    0.0000 N   0  0  0  0  0  0  0  0  0  0  0  0
    1.1560   -2.0303    0.0000 C   0  0  0  0  0  0  0  0  0  0  0  0
    1.5662   -0.7500    0.0000 C   0  0  0  0  0  0  0  0  0  0  0  0
    1.9764   -2.0303    0.0000 C   0  0  0  0  0  0  0  0  0  0  0  0
    3.2858   -2.6104    0.0000 C   0  0  0  0  0  0  0  0  0  0  0  0
    2.2375   -1.2430    0.0000 C   0  0  0  0  0  0  0  0  0  0  0  0
    3.7581   -3.2816    0.0000 C   0  0  0  0  0  0  0  0  0  0  0  0
    2.4654   -2.6974    0.0000 S   0  0  0  0  0  0  0  0  0  0  0  0
    3.4225   -4.0274    0.0000 C   0  0  0  0  0  0  0  0  0  0  0  0
    3.6090   -1.8563    0.0000 N   0  0  0  0  0  0  0  0  0  0  0  0
    0.6712   -2.6974    0.0000 O   0  0  0  0  0  0  0  0  0  0  0  0
    1.5662    0.0704    0.0000 O   0  0  0  0  0  0  0  0  0  0  0  0
    3.9073   -4.7028    0.0000 O   0  0  0  0  0  0  0  0  0  0  0  0
    0.1160   -0.9944    0.0000 C   0  0  0  0  0  0  0  0  0  0  0  0
    2.6021   -4.1186    0.0000 O   0  0  0  0  0  0  0  0  0  0  0  0
    4.5785   -3.1863    0.0000 C   0  0  0  0  0  0  0  0  0  0  0  0
    4.4294   -1.7693    0.0000 C   0  0  0  0  0  0  0  0  0  0  0  0
    4.9224   -2.4405    0.0000 C   0  0  0  0  0  0  0  0  0  0  0  0
  2  1  1  0  0  0  0
  3  1  1  0  0  0  0
  4  2  1  0  0  0  0
  5  8  1  0  0  0  0
  6  3  1  0  0  0  0
  7  5  2  0  0  0  0
  8  4  1  0  0  0  0
  9  7  1  0  0  0  0
 10  5  1  0  0  0  0
 11  2  2  0  0  0  0
 12  3  2  0  0  0  0
 13  9  2  0  0  0  0
 14  1  1  0  0  0  0
 15  9  1  0  0  0  0
 16  7  1  0  0  0  0
 17 10  2  0  0  0  0
 18 17  1  0  0  0  0
  6  4  1  0  0  0  0
 18 16  2  0  0  0  0
M  END
>  <IDNUMBER>
F1383-0046

>  <Chemical_Name>
2-[(1-methyl-2,5-dioxopyrrolidin-3-yl)sulfanyl]pyridine-3-carboxylic acid

>  <PriceCoeff>
1.00

>  <CAS>
526190-72-7

>  <MW>
266.27

>  <Description>
solid

>  <FSP3>
0.27

>  <clogP>
0.68

>  <TPSA>
112.87

>  <Acceptor>
5

>  <Donor>
1

>  <RotBonds>
3

>  <HAC>
18

>  <Collection>
General

>  <PPDS>
+

$$$$
F1383-0047
  Mrv2219 10102508112D          

 20 21  0  0  0  0            999 V2000
    4.8780   -1.6329    0.0000 N   0  0  0  0  0  0  0  0  0  0  0  0
    5.5453   -1.1439    0.0000 C   0  0  0  0  0  0  0  0  0  0  0  0
    5.1350   -2.4162    0.0000 C   0  0  0  0  0  0  0  0  0  0  0  0
    5.9556   -2.4162    0.0000 C   0  0  0  0  0  0  0  0  0  0  0  0
    6.2167   -1.6329    0.0000 C   0  0  0  0  0  0  0  0  0  0  0  0
    7.2652   -3.0006    0.0000 C   0  0  0  0  0  0  0  0  0  0  0  0
    7.7377   -3.6720    0.0000 C   0  0  0  0  0  0  0  0  0  0  0  0
    6.4446   -3.0876    0.0000 S   0  0  0  0  0  0  0  0  0  0  0  0
    7.4020   -4.4180    0.0000 C   0  0  0  0  0  0  0  0  0  0  0  0
    7.5885   -2.2504    0.0000 N   0  0  0  0  0  0  0  0  0  0  0  0
    5.5453   -0.3150    0.0000 O   0  0  0  0  0  0  0  0  0  0  0  0
    4.6501   -3.0876    0.0000 O   0  0  0  0  0  0  0  0  0  0  0  0
    4.0947   -1.3843    0.0000 C   0  0  0  0  0  0  0  0  0  0  0  0
    7.8869   -5.0894    0.0000 O   0  0  0  0  0  0  0  0  0  0  0  0
    6.5814   -4.5050    0.0000 O   0  0  0  0  0  0  0  0  0  0  0  0
    8.5583   -3.5725    0.0000 C   0  0  0  0  0  0  0  0  0  0  0  0
    8.4091   -2.1634    0.0000 C   0  0  0  0  0  0  0  0  0  0  0  0
    3.9289   -0.5761    0.0000 C   0  0  0  0  0  0  0  0  0  0  0  0
    3.4938   -1.9313    0.0000 C   0  0  0  0  0  0  0  0  0  0  0  0
    8.9023   -2.8265    0.0000 C   0  0  0  0  0  0  0  0  0  0  0  0
  2  1  1  0  0  0  0
  3  1  1  0  0  0  0
  4  3  1  0  0  0  0
  5  2  1  0  0  0  0
  6  8  1  0  0  0  0
  7  6  2  0  0  0  0
  8  4  1  0  0  0  0
  9  7  1  0  0  0  0
 10  6  1  0  0  0  0
 11  2  2  0  0  0  0
 12  3  2  0  0  0  0
 13  1  1  0  0  0  0
 14  9  2  0  0  0  0
 15  9  1  0  0  0  0
 16  7  1  0  0  0  0
 17 10  2  0  0  0  0
 18 13  1  0  0  0  0
 19 13  1  0  0  0  0
 20 17  1  0  0  0  0
  5  4  1  0  0  0  0
 20 16  2  0  0  0  0
M  END
>  <IDNUMBER>
F1383-0047

>  <Chemical_Name>
2-{[2,5-dioxo-1-(propan-2-yl)pyrrolidin-3-yl]sulfanyl}pyridine-3-carboxylic acid

>  <PriceCoeff>
1.00

>  <CAS>
526190-73-8

>  <MW>
294.33

>  <Description>
solid

>  <FSP3>
0.38

>  <clogP>
1.51

>  <TPSA>
112.87

>  <Acceptor>
5

>  <Donor>
1

>  <RotBonds>
4

>  <HAC>
20

>  <Collection>
General

>  <PPDS>
+

$$$$
F1408-0414
  Mrv2219 10102508112D          

 30 34  0  0  0  0            999 V2000
   -3.4121    2.4291    0.0000 C   0  0  0  0  0  0  0  0  0  0  0  0
   -2.9896    1.7223    0.0000 C   0  0  0  0  0  0  0  0  0  0  0  0
   -2.1691    3.1197    0.0000 N   0  0  0  0  0  0  0  0  0  0  0  0
   -1.7466    2.4616    0.0000 C   0  0  0  0  0  0  0  0  0  0  0  0
   -2.1366    1.7548    0.0000 N   0  0  0  0  0  0  0  0  0  0  0  0
   -2.9896    3.1197    0.0000 C   0  0  0  0  0  0  0  0  0  0  0  0
   -4.1921    2.1853    0.0000 C   0  0  0  0  0  0  0  0  0  0  0  0
   -4.2326    1.4054    0.0000 C   0  0  0  0  0  0  0  0  0  0  0  0
   -3.5340    1.0968    0.0000 S   0  0  0  0  0  0  0  0  0  0  0  0
   -0.8774    2.5347    0.0000 S   0  0  0  0  0  0  0  0  0  0  0  0
    0.2925    3.3147    0.0000 C   0  0  0  0  0  0  0  0  0  0  0  0
    0.7555    2.6566    0.0000 N   0  0  0  0  0  0  0  0  0  0  0  0
   -4.8989    2.6240    0.0000 C   0  0  0  0  0  0  0  0  0  0  0  0
   -1.8197    3.8670    0.0000 C   0  0  0  0  0  0  0  0  0  0  0  0
   -3.3796    3.8670    0.0000 O   0  0  0  0  0  0  0  0  0  0  0  0
   -4.9720    1.0155    0.0000 C   0  0  0  0  0  0  0  0  0  0  0  0
   -0.5280    3.2821    0.0000 C   0  0  0  0  0  0  0  0  0  0  0  0
    0.6824    4.0620    0.0000 O   0  0  0  0  0  0  0  0  0  0  0  0
   -5.6462    2.2341    0.0000 C   0  0  0  0  0  0  0  0  0  0  0  0
   -5.6788    1.4542    0.0000 C   0  0  0  0  0  0  0  0  0  0  0  0
    1.5355    2.5022    0.0000 C   0  0  0  0  0  0  0  0  0  0  0  0
    0.3656    1.9172    0.0000 C   0  0  0  0  0  0  0  0  0  0  0  0
   -0.9667    3.8996    0.0000 C   0  0  0  0  0  0  0  0  0  0  0  0
   -2.2423    4.5738    0.0000 C   0  0  0  0  0  0  0  0  0  0  0  0
   -6.4587    1.0968    0.0000 C   0  0  0  0  0  0  0  0  0  0  0  0
    0.9831    1.3323    0.0000 C   0  0  0  0  0  0  0  0  0  0  0  0
    1.6899    1.6817    0.0000 C   0  0  0  0  0  0  0  0  0  0  0  0
   -1.8929    5.3050    0.0000 C   0  0  0  0  0  0  0  0  0  0  0  0
   -0.5767    4.6469    0.0000 C   0  0  0  0  0  0  0  0  0  0  0  0
   -1.0724    5.3538    0.0000 C   0  0  0  0  0  0  0  0  0  0  0  0
  2  1  2  0  0  0  0
  3  6  1  0  0  0  0
  4  3  1  0  0  0  0
  5  2  1  0  0  0  0
  6  1  1  0  0  0  0
  7  1  1  0  0  0  0
  8  7  2  0  0  0  0
  9  2  1  0  0  0  0
 10  4  1  0  0  0  0
 11 17  1  0  0  0  0
 12 11  1  0  0  0  0
 13  7  1  0  0  0  0
 14  3  1  0  0  0  0
 15  6  2  0  0  0  0
 16  8  1  0  0  0  0
 17 10  1  0  0  0  0
 18 11  2  0  0  0  0
 19 13  1  0  0  0  0
 20 19  1  0  0  0  0
 21 12  1  0  0  0  0
 22 12  1  0  0  0  0
 23 14  1  0  0  0  0
 24 14  2  0  0  0  0
 25 20  1  0  0  0  0
 26 22  1  0  0  0  0
 27 21  1  0  0  0  0
 28 24  1  0  0  0  0
 29 23  2  0  0  0  0
 30 28  2  0  0  0  0
  8  9  1  0  0  0  0
  5  4  2  0  0  0  0
 16 20  1  0  0  0  0
 29 30  1  0  0  0  0
 26 27  1  0  0  0  0
M  END
>  <IDNUMBER>
F1408-0414

>  <Chemical_Name>
11-methyl-5-{[2-oxo-2-(pyrrolidin-1-yl)ethyl]sulfanyl}-4-phenyl-8-thia-4,6-diazatricyclo[7.4.0.0?,?]trideca-1(9),2(7),5-trien-3-one

>  <PriceCoeff>
1.00

>  <CAS>
500113-36-0

>  <MW>
439.59

>  <Description>
solid

>  <FSP3>
0.43

>  <clogP>
5.00

>  <TPSA>
106.52

>  <Acceptor>
3

>  <Donor>
0

>  <RotBonds>
5

>  <HAC>
30

>  <Collection>
General

>  <PPDS>
+

$$$$
F1412-0027
  Mrv2219 10102508112D          

 23 25  0  0  0  0            999 V2000
   -1.3704   -1.3458    0.0000 N   0  0  0  0  0  0  0  0  0  0  0  0
   -1.2818   -0.5244    0.0000 C   0  0  0  0  0  0  0  0  0  0  0  0
   -0.6167   -1.6829    0.0000 C   0  0  0  0  0  0  0  0  0  0  0  0
   -0.0630   -1.0744    0.0000 C   0  0  0  0  0  0  0  0  0  0  0  0
   -0.4760   -0.3572    0.0000 C   0  0  0  0  0  0  0  0  0  0  0  0
    1.3412   -0.5738    0.0000 C   0  0  0  0  0  0  0  0  0  0  0  0
    2.1415   -0.7866    0.0000 C   0  0  0  0  0  0  0  0  0  0  0  0
    0.7574   -1.1621    0.0000 S   0  0  0  0  0  0  0  0  0  0  0  0
    2.3581   -1.5824    0.0000 C   0  0  0  0  0  0  0  0  0  0  0  0
    1.1192    0.2211    0.0000 N   0  0  0  0  0  0  0  0  0  0  0  0
   -1.8912    0.0265    0.0000 O   0  0  0  0  0  0  0  0  0  0  0  0
   -0.4458   -2.4914    0.0000 O   0  0  0  0  0  0  0  0  0  0  0  0
   -2.0831   -1.7542    0.0000 C   0  0  0  0  0  0  0  0  0  0  0  0
    3.1529   -1.7907    0.0000 O   0  0  0  0  0  0  0  0  0  0  0  0
    1.7743   -2.1662    0.0000 O   0  0  0  0  0  0  0  0  0  0  0  0
    2.7244   -0.1955    0.0000 C   0  0  0  0  0  0  0  0  0  0  0  0
    1.6993    0.8131    0.0000 C   0  0  0  0  0  0  0  0  0  0  0  0
   -2.0831   -2.5792    0.0000 C   0  0  0  0  0  0  0  0  0  0  0  0
   -2.7957   -1.3412    0.0000 C   0  0  0  0  0  0  0  0  0  0  0  0
    2.5033    0.6002    0.0000 C   0  0  0  0  0  0  0  0  0  0  0  0
   -3.5083   -1.7542    0.0000 C   0  0  0  0  0  0  0  0  0  0  0  0
   -2.7957   -2.9912    0.0000 C   0  0  0  0  0  0  0  0  0  0  0  0
   -3.5083   -2.5792    0.0000 C   0  0  0  0  0  0  0  0  0  0  0  0
  2  1  1  0  0  0  0
  3  1  1  0  0  0  0
  4  3  1  0  0  0  0
  5  2  1  0  0  0  0
  6  8  1  0  0  0  0
  7  6  2  0  0  0  0
  8  4  1  0  0  0  0
  9  7  1  0  0  0  0
 10  6  1  0  0  0  0
 11  2  2  0  0  0  0
 12  3  2  0  0  0  0
 13  1  1  0  0  0  0
 14  9  2  0  0  0  0
 15  9  1  0  0  0  0
 16  7  1  0  0  0  0
 17 10  2  0  0  0  0
 18 13  1  0  0  0  0
 19 13  1  0  0  0  0
 20 17  1  0  0  0  0
 21 19  1  0  0  0  0
 22 18  1  0  0  0  0
 23 21  1  0  0  0  0
  5  4  1  0  0  0  0
 22 23  1  0  0  0  0
 20 16  2  0  0  0  0
M  END
>  <IDNUMBER>
F1412-0027

>  <Chemical_Name>
2-[(1-cyclohexyl-2,5-dioxopyrrolidin-3-yl)sulfanyl]pyridine-3-carboxylic acid

>  <PriceCoeff>
1.00

>  <CAS>
514183-40-5

>  <MW>
334.39

>  <Description>
solid

>  <FSP3>
0.50

>  <clogP>
2.62

>  <TPSA>
112.87

>  <Acceptor>
5

>  <Donor>
1

>  <RotBonds>
4

>  <HAC>
23

>  <Collection>
General

>  <PPDS>
+

$$$$
F1412-0032
  Mrv2219 10102508112D          

 27 30  0  0  0  0            999 V2000
    1.6058   -0.0637    0.0000 N   0  0  0  0  0  0  0  0  0  0  0  0
    2.1613    0.5407    0.0000 C   0  0  0  0  0  0  0  0  0  0  0  0
    2.0087   -0.7866    0.0000 C   0  0  0  0  0  0  0  0  0  0  0  0
    0.7910    0.0341    0.0000 C   0  0  0  0  0  0  0  0  0  0  0  0
    2.8145   -0.6237    0.0000 C   0  0  0  0  0  0  0  0  0  0  0  0
    2.9123    0.1955    0.0000 C   0  0  0  0  0  0  0  0  0  0  0  0
    4.8365   -1.3525    0.0000 C   0  0  0  0  0  0  0  0  0  0  0  0
    3.4263   -1.1836    0.0000 S   0  0  0  0  0  0  0  0  0  0  0  0
    4.1788   -0.8577    0.0000 C   0  0  0  0  0  0  0  0  0  0  0  0
    4.7388   -2.1702    0.0000 C   0  0  0  0  0  0  0  0  0  0  0  0
    0.4592    0.7940    0.0000 C   0  0  0  0  0  0  0  0  0  0  0  0
    1.9998    1.3510    0.0000 O   0  0  0  0  0  0  0  0  0  0  0  0
    1.6635   -1.5347    0.0000 O   0  0  0  0  0  0  0  0  0  0  0  0
    5.4009   -2.6634    0.0000 O   0  0  0  0  0  0  0  0  0  0  0  0
   -0.3629    0.8873    0.0000 C   0  0  0  0  0  0  0  0  0  0  0  0
    3.9789   -2.4931    0.0000 O   0  0  0  0  0  0  0  0  0  0  0  0
    0.2933   -0.6281    0.0000 C   0  0  0  0  0  0  0  0  0  0  0  0
    5.5920   -1.0221    0.0000 C   0  0  0  0  0  0  0  0  0  0  0  0
    4.2796   -0.0326    0.0000 C   0  0  0  0  0  0  0  0  0  0  0  0
    0.9525    1.4487    0.0000 C   0  0  0  0  0  0  0  0  0  0  0  0
   -0.5273   -0.5333    0.0000 C   0  0  0  0  0  0  0  0  0  0  0  0
   -0.8518    0.2296    0.0000 C   0  0  0  0  0  0  0  0  0  0  0  0
   -0.6888    1.6369    0.0000 C   0  0  0  0  0  0  0  0  0  0  0  0
    5.6883   -0.2059    0.0000 C   0  0  0  0  0  0  0  0  0  0  0  0
    5.0276    0.2829    0.0000 C   0  0  0  0  0  0  0  0  0  0  0  0
    0.6237    2.2057    0.0000 C   0  0  0  0  0  0  0  0  0  0  0  0
   -0.2000    2.3035    0.0000 C   0  0  0  0  0  0  0  0  0  0  0  0
  2  1  1  0  0  0  0
  3  1  1  0  0  0  0
  4  1  1  0  0  0  0
  5  3  1  0  0  0  0
  6  2  1  0  0  0  0
  7  9  2  0  0  0  0
  8  5  1  0  0  0  0
  9  8  1  0  0  0  0
 10  7  1  0  0  0  0
 11  4  1  0  0  0  0
 12  2  2  0  0  0  0
 13  3  2  0  0  0  0
 14 10  2  0  0  0  0
 15 11  1  0  0  0  0
 16 10  1  0  0  0  0
 17  4  2  0  0  0  0
 18  7  1  0  0  0  0
 19  9  1  0  0  0  0
 20 11  2  0  0  0  0
 21 17  1  0  0  0  0
 22 21  2  0  0  0  0
 23 15  2  0  0  0  0
 24 25  1  0  0  0  0
 25 19  2  0  0  0  0
 26 20  1  0  0  0  0
 27 26  2  0  0  0  0
  6  5  1  0  0  0  0
 22 15  1  0  0  0  0
 23 27  1  0  0  0  0
 24 18  2  0  0  0  0
M  END
>  <IDNUMBER>
F1412-0032

>  <Chemical_Name>
2-{[1-(naphthalen-1-yl)-2,5-dioxopyrrolidin-3-yl]sulfanyl}benzoic acid

>  <PriceCoeff>
1.00

>  <CAS>
691368-25-9

>  <MW>
377.41

>  <Description>
solid

>  <FSP3>
0.10

>  <clogP>
3.24

>  <TPSA>
99.98

>  <Acceptor>
4

>  <Donor>
0

>  <RotBonds>
4

>  <HAC>
27

>  <Collection>
General

$$$$
F1412-0047
  Mrv2219 10102508112D          

 26 28  0  0  0  0            999 V2000
    0.7901   -1.3878    0.0000 N   0  0  0  0  0  0  0  0  0  0  0  0
    0.6646   -0.5854    0.0000 C   0  0  0  0  0  0  0  0  0  0  0  0
    1.5966   -1.5243    0.0000 C   0  0  0  0  0  0  0  0  0  0  0  0
    1.9706   -0.7942    0.0000 C   0  0  0  0  0  0  0  0  0  0  0  0
    1.4015   -0.2184    0.0000 C   0  0  0  0  0  0  0  0  0  0  0  0
    4.1199   -1.1641    0.0000 C   0  0  0  0  0  0  0  0  0  0  0  0
    2.7852   -0.6605    0.0000 S   0  0  0  0  0  0  0  0  0  0  0  0
    3.3052   -1.2951    0.0000 C   0  0  0  0  0  0  0  0  0  0  0  0
    4.4187   -0.3862    0.0000 C   0  0  0  0  0  0  0  0  0  0  0  0
    0.1733   -1.9501    0.0000 C   0  0  0  0  0  0  0  0  0  0  0  0
   -0.0764   -0.2020    0.0000 O   0  0  0  0  0  0  0  0  0  0  0  0
    1.9665   -2.2694    0.0000 O   0  0  0  0  0  0  0  0  0  0  0  0
   -1.2527   -2.7771    0.0000 C   0  0  0  0  0  0  0  0  0  0  0  0
   -1.9706   -3.1974    0.0000 C   0  0  0  0  0  0  0  0  0  0  0  0
    3.9070    0.2538    0.0000 O   0  0  0  0  0  0  0  0  0  0  0  0
    0.1733   -2.7771    0.0000 C   0  0  0  0  0  0  0  0  0  0  0  0
   -0.5390   -1.5366    0.0000 C   0  0  0  0  0  0  0  0  0  0  0  0
   -1.9665   -4.0216    0.0000 O   0  0  0  0  0  0  0  0  0  0  0  0
   -0.5390   -3.1892    0.0000 C   0  0  0  0  0  0  0  0  0  0  0  0
   -1.2527   -1.9501    0.0000 C   0  0  0  0  0  0  0  0  0  0  0  0
    5.2402   -0.2552    0.0000 O   0  0  0  0  0  0  0  0  0  0  0  0
    4.6398   -1.7986    0.0000 C   0  0  0  0  0  0  0  0  0  0  0  0
    3.0104   -2.0647    0.0000 C   0  0  0  0  0  0  0  0  0  0  0  0
   -2.6897   -2.7852    0.0000 C   0  0  0  0  0  0  0  0  0  0  0  0
    4.3491   -2.5724    0.0000 C   0  0  0  0  0  0  0  0  0  0  0  0
    3.5344   -2.7061    0.0000 C   0  0  0  0  0  0  0  0  0  0  0  0
  2  1  1  0  0  0  0
  3  1  1  0  0  0  0
  4  3  1  0  0  0  0
  5  2  1  0  0  0  0
  6  8  1  0  0  0  0
  7  4  1  0  0  0  0
  8  7  1  0  0  0  0
  9  6  1  0  0  0  0
 10  1  1  0  0  0  0
 11  2  2  0  0  0  0
 12  3  2  0  0  0  0
 13 20  2  0  0  0  0
 14 13  1  0  0  0  0
 15  9  2  0  0  0  0
 16 10  1  0  0  0  0
 17 10  2  0  0  0  0
 18 14  2  0  0  0  0
 19 16  2  0  0  0  0
 20 17  1  0  0  0  0
 21  9  1  0  0  0  0
 22  6  2  0  0  0  0
 23  8  2  0  0  0  0
 24 14  1  0  0  0  0
 25 26  2  0  0  0  0
 26 23  1  0  0  0  0
  5  4  1  0  0  0  0
 13 19  1  0  0  0  0
 25 22  1  0  0  0  0
M  END
>  <IDNUMBER>
F1412-0047

>  <Chemical_Name>
2-{[1-(4-acetylphenyl)-2,5-dioxopyrrolidin-3-yl]sulfanyl}benzoic acid

>  <PriceCoeff>
1.00

>  <CAS>
496779-16-9

>  <MW>
369.39

>  <Description>
solid

>  <FSP3>
0.16

>  <clogP>
2.02

>  <TPSA>
117.05

>  <Acceptor>
5

>  <Donor>
0

>  <RotBonds>
5

>  <HAC>
26

>  <Collection>
General

>  <PPDS>
+

$$$$
F1420-0613
  Mrv2219 10102508112D          

 31 34  0  0  0  0            999 V2000
   -1.0445   -6.5212    0.0000 S   0  0  0  0  0  0  0  0  0  0  0  0
    2.3721   -5.6972    0.0000 C   0  0  0  0  0  0  0  0  0  0  0  0
    6.9040   -6.4088    0.0000 N   0  0  0  0  0  0  0  0  0  0  0  0
    1.8852   -5.0313    0.0000 N   0  0  0  0  0  0  0  0  0  0  0  0
    3.1961   -5.6972    0.0000 N   0  0  0  0  0  0  0  0  0  0  0  0
    1.8852   -6.3713    0.0000 S   0  0  0  0  0  0  0  0  0  0  0  0
   -0.3329   -6.1092    0.0000 C   0  0  0  0  0  0  0  0  0  0  0  0
    3.6122   -6.4088    0.0000 C   0  0  0  0  0  0  0  0  0  0  0  0
    1.0986   -6.1175    0.0000 C   0  0  0  0  0  0  0  0  0  0  0  0
    7.3826   -7.0788    0.0000 C   0  0  0  0  0  0  0  0  0  0  0  0
    7.3826   -5.7429    0.0000 C   0  0  0  0  0  0  0  0  0  0  0  0
    1.0986   -5.2852    0.0000 C   0  0  0  0  0  0  0  0  0  0  0  0
    0.3787   -6.5212    0.0000 C   0  0  0  0  0  0  0  0  0  0  0  0
   -1.8435   -6.7334    0.0000 N   0  0  0  0  0  0  0  0  0  0  0  0
    6.0800   -6.4088    0.0000 C   0  0  0  0  0  0  0  0  0  0  0  0
   -1.4440   -5.5848    0.0000 O   0  0  0  0  0  0  0  0  0  0  0  0
   -0.7324   -7.4575    0.0000 O   0  0  0  0  0  0  0  0  0  0  0  0
    4.4362   -6.4088    0.0000 C   0  0  0  0  0  0  0  0  0  0  0  0
    3.1961   -7.1287    0.0000 O   0  0  0  0  0  0  0  0  0  0  0  0
    8.1691   -6.8208    0.0000 C   0  0  0  0  0  0  0  0  0  0  0  0
    8.1691   -5.9968    0.0000 C   0  0  0  0  0  0  0  0  0  0  0  0
    7.1204   -4.9606    0.0000 O   0  0  0  0  0  0  0  0  0  0  0  0
    7.1287   -7.8570    0.0000 O   0  0  0  0  0  0  0  0  0  0  0  0
   -0.3329   -5.2852    0.0000 C   0  0  0  0  0  0  0  0  0  0  0  0
    0.3787   -4.8732    0.0000 C   0  0  0  0  0  0  0  0  0  0  0  0
    5.6597   -5.6972    0.0000 C   0  0  0  0  0  0  0  0  0  0  0  0
    5.6680   -7.1287    0.0000 C   0  0  0  0  0  0  0  0  0  0  0  0
    4.8440   -5.6972    0.0000 C   0  0  0  0  0  0  0  0  0  0  0  0
    4.8440   -7.1287    0.0000 C   0  0  0  0  0  0  0  0  0  0  0  0
   -2.0600   -7.5282    0.0000 C   0  0  0  0  0  0  0  0  0  0  0  0
   -2.4303   -6.1466    0.0000 C   0  0  0  0  0  0  0  0  0  0  0  0
  2  6  1  0  0  0  0
  3 15  1  0  0  0  0
  4 12  1  0  0  0  0
  5  2  1  0  0  0  0
  6  9  1  0  0  0  0
  7  1  1  0  0  0  0
  8  5  1  0  0  0  0
  9 13  2  0  0  0  0
 10  3  1  0  0  0  0
 11  3  1  0  0  0  0
 12 25  2  0  0  0  0
 13  7  1  0  0  0  0
 14  1  1  0  0  0  0
 15 27  2  0  0  0  0
 16  1  2  0  0  0  0
 17  1  2  0  0  0  0
 18  8  1  0  0  0  0
 19  8  2  0  0  0  0
 20 10  1  0  0  0  0
 21 11  1  0  0  0  0
 22 11  2  0  0  0  0
 23 10  2  0  0  0  0
 24  7  2  0  0  0  0
 25 24  1  0  0  0  0
 26 28  2  0  0  0  0
 27 29  1  0  0  0  0
 28 18  1  0  0  0  0
 29 18  2  0  0  0  0
 30 14  1  0  0  0  0
 31 14  1  0  0  0  0
 12  9  1  0  0  0  0
  2  4  2  0  0  0  0
 26 15  1  0  0  0  0
 21 20  1  0  0  0  0
M  END
>  <IDNUMBER>
F1420-0613

>  <Chemical_Name>
N-[6-(dimethylsulfamoyl)-1,3-benzothiazol-2-yl]-4-(2,5-dioxopyrrolidin-1-yl)benzamide

>  <PriceCoeff>
1.00

>  <CAS>
923194-91-6

>  <MW>
458.51

>  <Description>
solid

>  <FSP3>
0.20

>  <clogP>
0.89

>  <TPSA>
153.37

>  <Acceptor>
6

>  <Donor>
1

>  <RotBonds>
5

>  <HAC>
31

>  <Collection>
General

>  <PPDS>
+

$$$$
F1420-1251
  Mrv2219 10102508112D          

 33 36  0  0  0  0            999 V2000
   -1.0493   -6.5000    0.0000 S   0  0  0  0  0  0  0  0  0  0  0  0
    2.3735   -5.7006    0.0000 C   0  0  0  0  0  0  0  0  0  0  0  0
    6.9081   -6.4126    0.0000 N   0  0  0  0  0  0  0  0  0  0  0  0
    1.8905   -5.0260    0.0000 N   0  0  0  0  0  0  0  0  0  0  0  0
    3.1980   -5.7006    0.0000 N   0  0  0  0  0  0  0  0  0  0  0  0
    1.8780   -6.3709    0.0000 S   0  0  0  0  0  0  0  0  0  0  0  0
   -0.3331   -6.1003    0.0000 C   0  0  0  0  0  0  0  0  0  0  0  0
    3.6144   -6.4126    0.0000 C   0  0  0  0  0  0  0  0  0  0  0  0
    1.0910   -6.1086    0.0000 C   0  0  0  0  0  0  0  0  0  0  0  0
    7.3870   -7.0830    0.0000 C   0  0  0  0  0  0  0  0  0  0  0  0
    7.3870   -5.7463    0.0000 C   0  0  0  0  0  0  0  0  0  0  0  0
    1.0993   -5.2758    0.0000 C   0  0  0  0  0  0  0  0  0  0  0  0
    0.3790   -6.5125    0.0000 C   0  0  0  0  0  0  0  0  0  0  0  0
   -1.8571   -6.7082    0.0000 N   0  0  0  0  0  0  0  0  0  0  0  0
    6.0836   -6.4126    0.0000 C   0  0  0  0  0  0  0  0  0  0  0  0
   -1.4449   -5.5631    0.0000 O   0  0  0  0  0  0  0  0  0  0  0  0
   -0.7453   -7.4369    0.0000 O   0  0  0  0  0  0  0  0  0  0  0  0
    4.4389   -6.4126    0.0000 C   0  0  0  0  0  0  0  0  0  0  0  0
    3.1980   -7.1329    0.0000 O   0  0  0  0  0  0  0  0  0  0  0  0
    8.1740   -6.8248    0.0000 C   0  0  0  0  0  0  0  0  0  0  0  0
    8.1740   -6.0004    0.0000 C   0  0  0  0  0  0  0  0  0  0  0  0
    7.1246   -4.9635    0.0000 O   0  0  0  0  0  0  0  0  0  0  0  0
    7.1329   -7.8617    0.0000 O   0  0  0  0  0  0  0  0  0  0  0  0
   -0.3248   -5.2716    0.0000 C   0  0  0  0  0  0  0  0  0  0  0  0
    0.3873   -4.8636    0.0000 C   0  0  0  0  0  0  0  0  0  0  0  0
    5.6631   -5.7006    0.0000 C   0  0  0  0  0  0  0  0  0  0  0  0
    5.6714   -7.1329    0.0000 C   0  0  0  0  0  0  0  0  0  0  0  0
    4.8469   -5.7006    0.0000 C   0  0  0  0  0  0  0  0  0  0  0  0
    4.8469   -7.1329    0.0000 C   0  0  0  0  0  0  0  0  0  0  0  0
   -2.0695   -7.4994    0.0000 C   0  0  0  0  0  0  0  0  0  0  0  0
   -2.4317   -6.1211    0.0000 C   0  0  0  0  0  0  0  0  0  0  0  0
   -2.8690   -7.7118    0.0000 C   0  0  0  0  0  0  0  0  0  0  0  0
   -3.2312   -6.3252    0.0000 C   0  0  0  0  0  0  0  0  0  0  0  0
  2  6  1  0  0  0  0
  3 15  1  0  0  0  0
  4 12  1  0  0  0  0
  5  2  1  0  0  0  0
  6  9  1  0  0  0  0
  7  1  1  0  0  0  0
  8  5  1  0  0  0  0
  9 13  2  0  0  0  0
 10  3  1  0  0  0  0
 11  3  1  0  0  0  0
 12 25  2  0  0  0  0
 13  7  1  0  0  0  0
 14  1  1  0  0  0  0
 15 27  2  0  0  0  0
 16  1  2  0  0  0  0
 17  1  2  0  0  0  0
 18  8  1  0  0  0  0
 19  8  2  0  0  0  0
 20 10  1  0  0  0  0
 21 11  1  0  0  0  0
 22 11  2  0  0  0  0
 23 10  2  0  0  0  0
 24  7  2  0  0  0  0
 25 24  1  0  0  0  0
 26 28  2  0  0  0  0
 27 29  1  0  0  0  0
 28 18  1  0  0  0  0
 29 18  2  0  0  0  0
 30 14  1  0  0  0  0
 31 14  1  0  0  0  0
 32 30  1  0  0  0  0
 33 31  1  0  0  0  0
  9 12  1  0  0  0  0
  2  4  2  0  0  0  0
 26 15  1  0  0  0  0
 21 20  1  0  0  0  0
M  END
>  <IDNUMBER>
F1420-1251

>  <Chemical_Name>
N-[6-(diethylsulfamoyl)-1,3-benzothiazol-2-yl]-4-(2,5-dioxopyrrolidin-1-yl)benzamide

>  <PriceCoeff>
1.00

>  <CAS>
865592-59-2

>  <MW>
486.56

>  <Description>
solid

>  <FSP3>
0.27

>  <clogP>
1.95

>  <TPSA>
153.37

>  <Acceptor>
6

>  <Donor>
1

>  <RotBonds>
7

>  <HAC>
33

>  <Collection>
General

>  <PPDS>
+

$$$$
F1424-0124
  Mrv2219 10102508112D          

 27 29  0  0  0  0            999 V2000
    4.1831   -1.9807    0.0000 C   0  0  0  0  0  0  0  0  0  0  0  0
    4.5974   -2.7039    0.0000 N   0  0  0  0  0  0  0  0  0  0  0  0
    3.3708   -2.1552    0.0000 O   0  0  0  0  0  0  0  0  0  0  0  0
    4.0468   -3.3218    0.0000 N   0  0  0  0  0  0  0  0  0  0  0  0
    3.2836   -2.9838    0.0000 C   0  0  0  0  0  0  0  0  0  0  0  0
    4.5192   -1.2266    0.0000 C   0  0  0  0  0  0  0  0  0  0  0  0
    5.1862    0.2871    0.0000 C   0  0  0  0  0  0  0  0  0  0  0  0
    4.3684    0.1963    0.0000 C   0  0  0  0  0  0  0  0  0  0  0  0
    5.6750   -0.3889    0.0000 C   0  0  0  0  0  0  0  0  0  0  0  0
    5.3370   -1.1412    0.0000 C   0  0  0  0  0  0  0  0  0  0  0  0
    4.0305   -0.5670    0.0000 C   0  0  0  0  0  0  0  0  0  0  0  0
    1.1412   -4.2103    0.0000 C   0  0  0  0  0  0  0  0  0  0  0  0
    0.4252   -4.6083    0.0000 C   0  0  0  0  0  0  0  0  0  0  0  0
    1.8444   -4.6301    0.0000 C   0  0  0  0  0  0  0  0  0  0  0  0
    2.5695   -4.2213    0.0000 O   0  0  0  0  0  0  0  0  0  0  0  0
    2.5695   -3.3963    0.0000 C   0  0  0  0  0  0  0  0  0  0  0  0
    1.8444   -5.4478    0.0000 C   0  0  0  0  0  0  0  0  0  0  0  0
    0.4107   -5.4369    0.0000 C   0  0  0  0  0  0  0  0  0  0  0  0
    1.1503   -3.3817    0.0000 Cl  0  0  0  0  0  0  0  0  0  0  0  0
    5.5241    1.0358    0.0000 O   0  0  0  0  0  0  0  0  0  0  0  0
    6.4945   -0.3017    0.0000 O   0  0  0  0  0  0  0  0  0  0  0  0
    3.8833    0.8613    0.0000 O   0  0  0  0  0  0  0  0  0  0  0  0
    1.1248   -5.8621    0.0000 C   0  0  0  0  0  0  0  0  0  0  0  0
   -0.3089   -5.8458    0.0000 Cl  0  0  0  0  0  0  0  0  0  0  0  0
    6.3509    1.1266    0.0000 C   0  0  0  0  0  0  0  0  0  0  0  0
    4.2158    1.6172    0.0000 C   0  0  0  0  0  0  0  0  0  0  0  0
    6.9779   -0.9758    0.0000 C   0  0  0  0  0  0  0  0  0  0  0  0
  2  1  2  0  0  0  0
  3  1  1  0  0  0  0
  4  2  1  0  0  0  0
  5  3  1  0  0  0  0
  6  1  1  0  0  0  0
  7  8  1  0  0  0  0
  8 11  2  0  0  0  0
  9 10  1  0  0  0  0
 10  6  2  0  0  0  0
 11  6  1  0  0  0  0
 12 14  2  0  0  0  0
 13 12  1  0  0  0  0
 14 15  1  0  0  0  0
 15 16  1  0  0  0  0
 16  5  1  0  0  0  0
 17 14  1  0  0  0  0
 18 23  1  0  0  0  0
 19 12  1  0  0  0  0
 20  7  1  0  0  0  0
 21  9  1  0  0  0  0
 22  8  1  0  0  0  0
 23 17  2  0  0  0  0
 24 18  1  0  0  0  0
 25 20  1  0  0  0  0
 26 22  1  0  0  0  0
 27 21  1  0  0  0  0
  5  4  2  0  0  0  0
  9  7  2  0  0  0  0
 13 18  2  0  0  0  0
M  END
>  <IDNUMBER>
F1424-0124

>  <Chemical_Name>
2-[(2,4-dichlorophenoxy)methyl]-5-(3,4,5-trimethoxyphenyl)-1,3,4-oxadiazole

>  <PriceCoeff>
1.00

>  <CAS>
433705-59-0

>  <MW>
411.24

>  <Description>
solid

>  <FSP3>
0.22

>  <clogP>
3.26

>  <TPSA>
75.84

>  <Acceptor>
7

>  <Donor>
0

>  <RotBonds>
7

>  <HAC>
27

>  <Collection>
General

>  <PPDS>
+

$$$$
F1441-0664
  Mrv2219 10102508112D          

 30 34  0  0  0  0            999 V2000
    3.3064   -5.5704    0.0000 C   0  0  0  0  0  0  0  0  0  0  0  0
    3.3815   -4.7449    0.0000 C   0  0  0  0  0  0  0  0  0  0  0  0
    1.8805   -5.4453    0.0000 N   0  0  0  0  0  0  0  0  0  0  0  0
    1.9555   -4.6198    0.0000 C   0  0  0  0  0  0  0  0  0  0  0  0
    2.7060   -4.2696    0.0000 N   0  0  0  0  0  0  0  0  0  0  0  0
    2.5559   -5.9207    0.0000 C   0  0  0  0  0  0  0  0  0  0  0  0
    4.1903   -4.5698    0.0000 S   0  0  0  0  0  0  0  0  0  0  0  0
    4.0569   -5.8956    0.0000 C   0  0  0  0  0  0  0  0  0  0  0  0
    4.6073   -5.2785    0.0000 C   0  0  0  0  0  0  0  0  0  0  0  0
    1.2425   -4.2070    0.0000 S   0  0  0  0  0  0  0  0  0  0  0  0
    1.9555   -2.9687    0.0000 C   0  0  0  0  0  0  0  0  0  0  0  0
    1.9555   -2.1431    0.0000 N   0  0  0  0  0  0  0  0  0  0  0  0
    1.1300   -5.7831    0.0000 C   0  0  0  0  0  0  0  0  0  0  0  0
    2.4809   -6.7462    0.0000 O   0  0  0  0  0  0  0  0  0  0  0  0
    1.2425   -3.3815    0.0000 C   0  0  0  0  0  0  0  0  0  0  0  0
    2.6685   -3.3815    0.0000 O   0  0  0  0  0  0  0  0  0  0  0  0
    4.4822   -6.6086    0.0000 C   0  0  0  0  0  0  0  0  0  0  0  0
    5.3703   -5.6080    0.0000 C   0  0  0  0  0  0  0  0  0  0  0  0
    1.2133   -1.7804    0.0000 C   0  0  0  0  0  0  0  0  0  0  0  0
    2.7060   -1.7804    0.0000 C   0  0  0  0  0  0  0  0  0  0  0  0
    5.2827   -6.4335    0.0000 C   0  0  0  0  0  0  0  0  0  0  0  0
    0.4628   -5.3078    0.0000 C   0  0  0  0  0  0  0  0  0  0  0  0
    1.0549   -6.6044    0.0000 C   0  0  0  0  0  0  0  0  0  0  0  0
    1.0382   -0.9799    0.0000 C   0  0  0  0  0  0  0  0  0  0  0  0
    2.8811   -0.9757    0.0000 C   0  0  0  0  0  0  0  0  0  0  0  0
    0.3127   -6.9464    0.0000 C   0  0  0  0  0  0  0  0  0  0  0  0
   -0.2877   -5.6455    0.0000 C   0  0  0  0  0  0  0  0  0  0  0  0
    2.3683   -0.3294    0.0000 C   0  0  0  0  0  0  0  0  0  0  0  0
   -0.3627   -6.4710    0.0000 C   0  0  0  0  0  0  0  0  0  0  0  0
    1.5552   -0.3294    0.0000 C   0  0  0  0  0  0  0  0  0  0  0  0
  2  1  2  0  0  0  0
  3  6  1  0  0  0  0
  4  3  1  0  0  0  0
  5  2  1  0  0  0  0
  6  1  1  0  0  0  0
  7  2  1  0  0  0  0
  8  1  1  0  0  0  0
  9  8  2  0  0  0  0
 10  4  1  0  0  0  0
 11 15  1  0  0  0  0
 12 11  1  0  0  0  0
 13  3  1  0  0  0  0
 14  6  2  0  0  0  0
 15 10  1  0  0  0  0
 16 11  2  0  0  0  0
 17  8  1  0  0  0  0
 18  9  1  0  0  0  0
 19 12  1  0  0  0  0
 20 12  1  0  0  0  0
 21 17  1  0  0  0  0
 22 13  2  0  0  0  0
 23 13  1  0  0  0  0
 24 19  1  0  0  0  0
 25 20  1  0  0  0  0
 26 23  2  0  0  0  0
 27 22  1  0  0  0  0
 28 25  1  0  0  0  0
 29 26  1  0  0  0  0
 30 24  1  0  0  0  0
  7  9  1  0  0  0  0
  4  5  2  0  0  0  0
 18 21  1  0  0  0  0
 29 27  2  0  0  0  0
 28 30  1  0  0  0  0
M  END
>  <IDNUMBER>
F1441-0664

>  <Chemical_Name>
10-{[2-(azepan-1-yl)-2-oxoethyl]sulfanyl}-11-phenyl-7-thia-9,11-diazatricyclo[6.4.0.0?,?]dodeca-1(8),2(6),9-trien-12-one

>  <PriceCoeff>
1.00

>  <CAS>
571934-69-5

>  <MW>
439.59

>  <Description>
solid

>  <FSP3>
0.43

>  <clogP>
5.04

>  <TPSA>
106.52

>  <Acceptor>
3

>  <Donor>
0

>  <RotBonds>
5

>  <HAC>
30

>  <Collection>
General

>  <PPDS>
+

$$$$
F1441-0672
  Mrv2219 10102508112D          

 35 39  0  0  0  0            999 V2000
    3.8542    3.4333    0.0000 C   0  0  0  0  0  0  0  0  0  0  0  0
    3.1000    3.0958    0.0000 C   0  0  0  0  0  0  0  0  0  0  0  0
    4.4417    2.1208    0.0000 N   0  0  0  0  0  0  0  0  0  0  0  0
    3.6875    1.7833    0.0000 C   0  0  0  0  0  0  0  0  0  0  0  0
    3.0167    2.2708    0.0000 N   0  0  0  0  0  0  0  0  0  0  0  0
    4.5292    2.9458    0.0000 C   0  0  0  0  0  0  0  0  0  0  0  0
    3.7667    4.2417    0.0000 C   0  0  0  0  0  0  0  0  0  0  0  0
    2.9625    4.4167    0.0000 C   0  0  0  0  0  0  0  0  0  0  0  0
    2.5500    3.7083    0.0000 S   0  0  0  0  0  0  0  0  0  0  0  0
    3.6792    0.9583    0.0000 S   0  0  0  0  0  0  0  0  0  0  0  0
    4.3167    4.8542    0.0000 C   0  0  0  0  0  0  0  0  0  0  0  0
    5.1042    1.6375    0.0000 C   0  0  0  0  0  0  0  0  0  0  0  0
    5.2875    3.2833    0.0000 O   0  0  0  0  0  0  0  0  0  0  0  0
    2.2500    0.9750    0.0000 C   0  0  0  0  0  0  0  0  0  0  0  0
    2.7042    5.1917    0.0000 C   0  0  0  0  0  0  0  0  0  0  0  0
    0.0917    2.2333    0.0000 C   0  0  0  0  0  0  0  0  0  0  0  0
    1.5250    0.5708    0.0000 N   0  0  0  0  0  0  0  0  0  0  0  0
    0.0917    3.0583    0.0000 C   0  0  0  0  0  0  0  0  0  0  0  0
    0.8042    1.8208    0.0000 C   0  0  0  0  0  0  0  0  0  0  0  0
    0.8042    0.9958    0.0000 C   0  0  0  0  0  0  0  0  0  0  0  0
    2.2542    1.8083    0.0000 O   0  0  0  0  0  0  0  0  0  0  0  0
   -0.6250    3.4708    0.0000 O   0  0  0  0  0  0  0  0  0  0  0  0
    2.9625    0.5583    0.0000 C   0  0  0  0  0  0  0  0  0  0  0  0
    4.0667    5.6375    0.0000 C   0  0  0  0  0  0  0  0  0  0  0  0
    3.2542    5.8125    0.0000 C   0  0  0  0  0  0  0  0  0  0  0  0
   -0.6250    1.8208    0.0000 C   0  0  0  0  0  0  0  0  0  0  0  0
   -0.6250    0.9958    0.0000 C   0  0  0  0  0  0  0  0  0  0  0  0
    0.0917    0.5833    0.0000 C   0  0  0  0  0  0  0  0  0  0  0  0
    0.8042    3.4708    0.0000 C   0  0  0  0  0  0  0  0  0  0  0  0
    5.8625    1.9750    0.0000 C   0  0  0  0  0  0  0  0  0  0  0  0
    5.0167    0.8208    0.0000 C   0  0  0  0  0  0  0  0  0  0  0  0
    3.0042    6.5917    0.0000 C   0  0  0  0  0  0  0  0  0  0  0  0
    6.5292    1.4958    0.0000 C   0  0  0  0  0  0  0  0  0  0  0  0
    5.6917    0.3333    0.0000 C   0  0  0  0  0  0  0  0  0  0  0  0
    6.4417    0.6708    0.0000 C   0  0  0  0  0  0  0  0  0  0  0  0
  2  1  2  0  0  0  0
  3  6  1  0  0  0  0
  4  3  1  0  0  0  0
  5  2  1  0  0  0  0
  6  1  1  0  0  0  0
  7  1  1  0  0  0  0
  8  7  2  0  0  0  0
  9  2  1  0  0  0  0
 10  4  1  0  0  0  0
 11  7  1  0  0  0  0
 12  3  1  0  0  0  0
 13  6  2  0  0  0  0
 14 23  1  0  0  0  0
 15  8  1  0  0  0  0
 16 19  1  0  0  0  0
 17 14  1  0  0  0  0
 18 16  1  0  0  0  0
 19 20  2  0  0  0  0
 20 17  1  0  0  0  0
 21 14  2  0  0  0  0
 22 18  2  0  0  0  0
 23 10  1  0  0  0  0
 24 11  1  0  0  0  0
 25 24  1  0  0  0  0
 26 27  1  0  0  0  0
 27 28  2  0  0  0  0
 28 20  1  0  0  0  0
 29 18  1  0  0  0  0
 30 12  1  0  0  0  0
 31 12  2  0  0  0  0
 32 25  1  0  0  0  0
 33 30  2  0  0  0  0
 34 31  1  0  0  0  0
 35 34  2  0  0  0  0
  9  8  1  0  0  0  0
  4  5  2  0  0  0  0
 15 25  1  0  0  0  0
 33 35  1  0  0  0  0
 26 16  2  0  0  0  0
M  END
>  <IDNUMBER>
F1441-0672

>  <Chemical_Name>
N-(3-acetylphenyl)-2-({11-methyl-3-oxo-4-phenyl-8-thia-4,6-diazatricyclo[7.4.0.0?,?]trideca-1(9),2(7),5-trien-5-yl}sulfanyl)acetamide

>  <PriceCoeff>
1.00

>  <CAS>
667913-08-8

>  <MW>
503.64

>  <Description>
solid

>  <FSP3>
0.26

>  <clogP>
6.10

>  <TPSA>
132.38

>  <Acceptor>
4

>  <Donor>
1

>  <RotBonds>
6

>  <HAC>
35

>  <Collection>
General

>  <PPDS>
+

$$$$
F1443-0922
  Mrv2219 10102508112D          

 28 31  0  0  0  0            999 V2000
    2.9775   -0.2704    0.0000 C   0  0  0  0  0  0  0  0  0  0  0  0
    0.8294   -1.4903    0.0000 C   0  0  0  0  0  0  0  0  0  0  0  0
    0.8219   -2.3167    0.0000 C   0  0  0  0  0  0  0  0  0  0  0  0
    2.9638   -1.0953    0.0000 C   0  0  0  0  0  0  0  0  0  0  0  0
    1.5419   -1.0801    0.0000 C   0  0  0  0  0  0  0  0  0  0  0  0
    2.2483   -1.4994    0.0000 C   0  0  0  0  0  0  0  0  0  0  0  0
    4.4131   -0.2962    0.0000 C   0  0  0  0  0  0  0  0  0  0  0  0
    1.5374   -2.7223    0.0000 C   0  0  0  0  0  0  0  0  0  0  0  0
    2.2650    0.1489    0.0000 C   0  0  0  0  0  0  0  0  0  0  0  0
    2.2483   -2.3167    0.0000 C   0  0  0  0  0  0  0  0  0  0  0  0
    1.5495   -0.2522    0.0000 C   0  0  0  0  0  0  0  0  0  0  0  0
    3.6748   -1.5237    0.0000 C   0  0  0  0  0  0  0  0  0  0  0  0
    0.1185   -1.0710    0.0000 C   0  0  0  0  0  0  0  0  0  0  0  0
    4.3994   -1.1226    0.0000 C   0  0  0  0  0  0  0  0  0  0  0  0
    0.1185   -2.7223    0.0000 C   0  0  0  0  0  0  0  0  0  0  0  0
    5.1240    0.1230    0.0000 C   0  0  0  0  0  0  0  0  0  0  0  0
    2.9775    0.5560    0.0000 C   0  0  0  0  0  0  0  0  0  0  0  0
   -0.5864   -1.4903    0.0000 C   0  0  0  0  0  0  0  0  0  0  0  0
   -0.5864   -2.3167    0.0000 C   0  0  0  0  0  0  0  0  0  0  0  0
    0.8219   -0.6624    0.0000 C   0  0  0  0  0  0  0  0  0  0  0  0
   -1.3064   -2.7223    0.0000 O   0  0  0  0  0  0  0  0  0  0  0  0
    5.8243   -1.1090    0.0000 C   0  0  0  0  0  0  0  0  0  0  0  0
    5.8335   -0.2917    0.0000 C   0  0  0  0  0  0  0  0  0  0  0  0
    5.1195    0.9418    0.0000 C   0  0  0  0  0  0  0  0  0  0  0  0
    5.1134   -1.5146    0.0000 C   0  0  0  0  0  0  0  0  0  0  0  0
    5.1134   -2.3425    0.0000 C   0  0  0  0  0  0  0  0  0  0  0  0
    4.3949   -2.7481    0.0000 C   0  0  0  0  0  0  0  0  0  0  0  0
    5.8198   -2.7481    0.0000 C   0  0  0  0  0  0  0  0  0  0  0  0
  2  5  1  0  0  0  0
  3  2  1  0  0  0  0
  4  1  1  0  0  0  0
  5 11  1  0  0  0  0
  6  4  1  0  0  0  0
  7  1  1  0  0  0  0
  8 10  1  0  0  0  0
  9  1  1  0  0  0  0
 10  6  1  0  0  0  0
 11  9  1  0  0  0  0
 12  4  1  0  0  0  0
 13  2  1  0  0  0  0
 14  7  1  0  0  0  0
 15  3  1  0  0  0  0
 16  7  1  0  0  0  0
 17  1  1  0  0  0  0
 18 13  1  0  0  0  0
 19 18  1  0  0  0  0
 20  2  1  0  0  0  0
 21 19  1  0  0  0  0
 22 23  1  0  0  0  0
 23 16  1  0  0  0  0
 24 16  1  0  0  0  0
 25 22  1  0  0  0  0
 26 25  1  0  0  0  0
 27 26  1  0  0  0  0
 28 26  1  0  0  0  0
 12 14  1  0  0  0  0
  5  6  1  0  0  0  0
  3  8  2  0  0  0  0
 15 19  1  0  0  0  0
M  END
>  <IDNUMBER>
F1443-0922

>  <Chemical_Name>
9a,11a-dimethyl-1-(6-methylheptan-2-yl)-1H,2H,3H,3aH,3bH,4H,6H,7H,8H,9H,9aH,9bH,10H,11H,11aH-cyclopenta[a]phenanthren-7-ol

>  <PriceCoeff>
1.00

>  <CAS>
2226426-17-9

>  <MW>
386.65

>  <Description>
solid

>  <FSP3>
0.93

>  <clogP>
9.52

>  <TPSA>
20.23

>  <Acceptor>
1

>  <Donor>
1

>  <RotBonds>
5

>  <HAC>
28

>  <Collection>
General

>  <PPDS>
+

$$$$
F1443-0926
  Mrv2219 10102508112D          

 27 30  0  0  0  0            999 V2000
    3.3868   -0.5156    0.0000 C   0  0  0  0  0  0  0  0  0  0  0  0
    1.2266   -1.7387    0.0000 C   0  0  0  0  0  0  0  0  0  0  0  0
    1.2266   -2.5637    0.0000 C   0  0  0  0  0  0  0  0  0  0  0  0
    3.3706   -1.3515    0.0000 C   0  0  0  0  0  0  0  0  0  0  0  0
    1.9395   -1.3262    0.0000 C   0  0  0  0  0  0  0  0  0  0  0  0
    2.6505   -1.7495    0.0000 C   0  0  0  0  0  0  0  0  0  0  0  0
    4.8216   -0.5392    0.0000 C   0  0  0  0  0  0  0  0  0  0  0  0
    1.9395   -2.9762    0.0000 C   0  0  0  0  0  0  0  0  0  0  0  0
    2.6758   -0.0887    0.0000 C   0  0  0  0  0  0  0  0  0  0  0  0
    2.6505   -2.5691    0.0000 C   0  0  0  0  0  0  0  0  0  0  0  0
    1.9503   -0.5012    0.0000 C   0  0  0  0  0  0  0  0  0  0  0  0
    4.0834   -1.7767    0.0000 C   0  0  0  0  0  0  0  0  0  0  0  0
    0.5156   -1.3262    0.0000 C   0  0  0  0  0  0  0  0  0  0  0  0
    4.8107   -1.3732    0.0000 C   0  0  0  0  0  0  0  0  0  0  0  0
    4.8197    0.2858    0.0000 C   0  0  0  0  0  0  0  0  0  0  0  0
    0.5156   -2.9762    0.0000 C   0  0  0  0  0  0  0  0  0  0  0  0
    6.2327    1.9341    0.0000 C   0  0  0  0  0  0  0  0  0  0  0  0
    4.8107    1.1072    0.0000 C   0  0  0  0  0  0  0  0  0  0  0  0
    5.5217    1.5197    0.0000 O   0  0  0  0  0  0  0  0  0  0  0  0
    6.2327    2.7681    0.0000 O   0  0  0  0  0  0  0  0  0  0  0  0
    5.6411    0.2858    0.0000 O   0  0  0  0  0  0  0  0  0  0  0  0
    3.3832    0.3094    0.0000 C   0  0  0  0  0  0  0  0  0  0  0  0
   -0.1881   -1.7387    0.0000 C   0  0  0  0  0  0  0  0  0  0  0  0
   -0.1881   -2.5637    0.0000 C   0  0  0  0  0  0  0  0  0  0  0  0
    1.2266   -0.9137    0.0000 C   0  0  0  0  0  0  0  0  0  0  0  0
   -0.9100   -2.9762    0.0000 O   0  0  0  0  0  0  0  0  0  0  0  0
    6.9474    1.5288    0.0000 C   0  0  0  0  0  0  0  0  0  0  0  0
  2  5  1  0  0  0  0
  3  2  1  0  0  0  0
  4  1  1  0  0  0  0
  5 11  1  0  0  0  0
  6  4  1  0  0  0  0
  7  1  1  0  0  0  0
  8 10  1  0  0  0  0
  9  1  1  0  0  0  0
 10  6  1  0  0  0  0
 11  9  1  0  0  0  0
 12  4  1  0  0  0  0
 13  2  1  0  0  0  0
 14  7  1  0  0  0  0
 15  7  1  0  0  0  0
 16  3  1  0  0  0  0
 17 19  1  0  0  0  0
 18 15  1  0  0  0  0
 19 18  1  0  0  0  0
 20 17  2  0  0  0  0
 21 15  2  0  0  0  0
 22  1  1  0  0  0  0
 23 13  1  0  0  0  0
 24 23  1  0  0  0  0
 25  2  1  0  0  0  0
 26 24  1  0  0  0  0
 27 17  1  0  0  0  0
 12 14  1  0  0  0  0
  5  6  1  0  0  0  0
  3  8  2  0  0  0  0
 16 24  1  0  0  0  0
M  END
>  <IDNUMBER>
F1443-0926

>  <Chemical_Name>
2-{7-hydroxy-9a,11a-dimethyl-1H,2H,3H,3aH,3bH,4H,6H,7H,8H,9H,9aH,9bH,10H,11H,11aH-cyclopenta[a]phenanthren-1-yl}-2-oxoethyl acetate

>  <PriceCoeff>
1.00

>  <MW>
374.51

>  <Description>
solid

>  <FSP3>
0.83

>  <clogP>
4.04

>  <TPSA>
63.60

>  <Acceptor>
4

>  <Donor>
1

>  <RotBonds>
4

>  <HAC>
27

>  <Collection>
General

$$$$
F1443-5254
  Mrv2219 10102508112D          

 26 28  0  0  0  0            999 V2000
    2.6688    0.5069    0.0000 S   0  0  0  0  0  0  0  0  0  0  0  0
   -1.0969    1.0913    0.0000 S   0  0  0  0  0  0  0  0  0  0  0  0
    3.4693    0.2354    0.0000 N   0  0  0  0  0  0  0  0  0  0  0  0
    4.0717    0.7811    0.0000 C   0  0  0  0  0  0  0  0  0  0  0  0
   -0.4944    1.6384    0.0000 N   0  0  0  0  0  0  0  0  0  0  0  0
    4.0939    1.5678    0.0000 N   0  0  0  0  0  0  0  0  0  0  0  0
    1.8614    0.7811    0.0000 C   0  0  0  0  0  0  0  0  0  0  0  0
   -1.7353    0.5443    0.0000 C   0  0  0  0  0  0  0  0  0  0  0  0
    4.8612    0.5069    0.0000 S   0  0  0  0  0  0  0  0  0  0  0  0
    2.3987   -0.2784    0.0000 O   0  0  0  0  0  0  0  0  0  0  0  0
    2.9555    1.2991    0.0000 O   0  0  0  0  0  0  0  0  0  0  0  0
   -0.5637    0.4764    0.0000 O   0  0  0  0  0  0  0  0  0  0  0  0
   -1.6578    1.7173    0.0000 O   0  0  0  0  0  0  0  0  0  0  0  0
    4.9069    1.8295    0.0000 C   0  0  0  0  0  0  0  0  0  0  0  0
    5.3182    1.1744    0.0000 C   0  0  0  0  0  0  0  0  0  0  0  0
    1.7298    1.5885    0.0000 C   0  0  0  0  0  0  0  0  0  0  0  0
   -2.5151    0.8171    0.0000 C   0  0  0  0  0  0  0  0  0  0  0  0
   -1.5484   -0.2368    0.0000 C   0  0  0  0  0  0  0  0  0  0  0  0
    1.2354    0.2701    0.0000 C   0  0  0  0  0  0  0  0  0  0  0  0
    0.3324    1.3503    0.0000 C   0  0  0  0  0  0  0  0  0  0  0  0
    0.4917    0.5443    0.0000 C   0  0  0  0  0  0  0  0  0  0  0  0
    0.9487    1.8988    0.0000 C   0  0  0  0  0  0  0  0  0  0  0  0
   -3.1341    0.2701    0.0000 C   0  0  0  0  0  0  0  0  0  0  0  0
   -2.1702   -0.7853    0.0000 C   0  0  0  0  0  0  0  0  0  0  0  0
   -2.9555   -0.5457    0.0000 C   0  0  0  0  0  0  0  0  0  0  0  0
   -3.5732   -1.1274    0.0000 C   0  0  0  0  0  0  0  0  0  0  0  0
  2  5  1  0  0  0  0
  3  1  1  0  0  0  0
  4  3  1  0  0  0  0
  5 20  1  0  0  0  0
  6  4  2  0  0  0  0
  7  1  1  0  0  0  0
  8  2  1  0  0  0  0
  9  4  1  0  0  0  0
 10  1  2  0  0  0  0
 11  1  2  0  0  0  0
 12  2  2  0  0  0  0
 13  2  2  0  0  0  0
 14  6  1  0  0  0  0
 15  9  1  0  0  0  0
 16  7  1  0  0  0  0
 17  8  2  0  0  0  0
 18  8  1  0  0  0  0
 19  7  2  0  0  0  0
 20 21  2  0  0  0  0
 21 19  1  0  0  0  0
 22 16  2  0  0  0  0
 23 17  1  0  0  0  0
 24 18  2  0  0  0  0
 25 24  1  0  0  0  0
 26 25  1  0  0  0  0
 22 20  1  0  0  0  0
 14 15  2  0  0  0  0
 23 25  2  0  0  0  0
M  END
>  <IDNUMBER>
F1443-5254

>  <Chemical_Name>
4-(4-methylbenzenesulfonamido)-N-(1,3-thiazol-2-yl)benzene-1-sulfonamide

>  <PriceCoeff>
1.00

>  <CAS>
314282-75-2

>  <MW>
409.50

>  <Description>
solid

>  <FSP3>
0.06

>  <clogP>
2.79

>  <TPSA>
150.23

>  <Acceptor>
6

>  <Donor>
2

>  <RotBonds>
6

>  <HAC>
26

>  <Collection>
General

>  <PPDS>
+

$$$$
F1443-5720
  Mrv2219 10102508112D          

 24 27  0  0  0  0            999 V2000
    1.7808    0.6789    0.0000 C   0  0  0  0  0  0  0  0  0  0  0  0
    1.0683   -0.5589    0.0000 N   0  0  0  0  0  0  0  0  0  0  0  0
    0.3508    0.6789    0.0000 C   0  0  0  0  0  0  0  0  0  0  0  0
    0.3508   -0.1393    0.0000 C   0  0  0  0  0  0  0  0  0  0  0  0
    1.0683    1.0960    0.0000 C   0  0  0  0  0  0  0  0  0  0  0  0
    1.7808   -0.1393    0.0000 C   0  0  0  0  0  0  0  0  0  0  0  0
   -0.3726   -0.5589    0.0000 C   0  0  0  0  0  0  0  0  0  0  0  0
   -1.0842   -0.1393    0.0000 C   0  0  0  0  0  0  0  0  0  0  0  0
    1.0683   -1.3973    0.0000 C   0  0  0  0  0  0  0  0  0  0  0  0
   -0.3726    1.0960    0.0000 C   0  0  0  0  0  0  0  0  0  0  0  0
    2.4908    1.0960    0.0000 C   0  0  0  0  0  0  0  0  0  0  0  0
   -1.0842    0.6789    0.0000 C   0  0  0  0  0  0  0  0  0  0  0  0
   -1.7959   -0.5589    0.0000 N   0  0  0  0  0  0  0  0  0  0  0  0
    1.4686   -2.1072    0.0000 C   0  0  0  0  0  0  0  0  0  0  0  0
    0.6479   -2.1072    0.0000 C   0  0  0  0  0  0  0  0  0  0  0  0
    1.0683    1.9167    0.0000 O   0  0  0  0  0  0  0  0  0  0  0  0
   -3.2225   -1.3973    0.0000 N   0  0  0  0  0  0  0  0  0  0  0  0
    2.4908    1.9167    0.0000 O   0  0  0  0  0  0  0  0  0  0  0  0
   -1.7959    1.0960    0.0000 F   0  0  0  0  0  0  0  0  0  0  0  0
    3.2049    0.6789    0.0000 O   0  0  0  0  0  0  0  0  0  0  0  0
   -2.5109   -0.1393    0.0000 C   0  0  0  0  0  0  0  0  0  0  0  0
   -1.7959   -1.3973    0.0000 C   0  0  0  0  0  0  0  0  0  0  0  0
   -2.5109   -1.7925    0.0000 C   0  0  0  0  0  0  0  0  0  0  0  0
   -3.2225   -0.5589    0.0000 C   0  0  0  0  0  0  0  0  0  0  0  0
  2  6  1  0  0  0  0
  3  5  1  0  0  0  0
  4  2  1  0  0  0  0
  5  1  1  0  0  0  0
  6  1  2  0  0  0  0
  7  4  1  0  0  0  0
  8  7  2  0  0  0  0
  9  2  1  0  0  0  0
 10  3  1  0  0  0  0
 11  1  1  0  0  0  0
 12 10  2  0  0  0  0
 13  8  1  0  0  0  0
 14  9  1  0  0  0  0
 15  9  1  0  0  0  0
 16  5  2  0  0  0  0
 17 23  1  0  0  0  0
 18 11  2  0  0  0  0
 19 12  1  0  0  0  0
 20 11  1  0  0  0  0
 21 13  1  0  0  0  0
 22 13  1  0  0  0  0
 23 22  1  0  0  0  0
 24 21  1  0  0  0  0
  3  4  2  0  0  0  0
 14 15  1  0  0  0  0
 12  8  1  0  0  0  0
 24 17  1  0  0  0  0
M  END
>  <IDNUMBER>
F1443-5720

>  <Chemical_Name>
1-cyclopropyl-6-fluoro-4-oxo-7-(piperazin-1-yl)-1,4-dihydroquinoline-3-carboxylic acid

>  <PriceCoeff>
1.00

>  <CAS>
85721-33-1

>  <MW>
331.34

>  <Description>
solid

>  <FSP3>
0.41

>  <clogP>
-0.73

>  <TPSA>
72.88

>  <Acceptor>
5

>  <Donor>
3

>  <RotBonds>
3

>  <HAC>
24

>  <Collection>
General

$$$$
F1457-0009
  Mrv2219 10102508112D          

 26 29  0  0  0  0            999 V2000
    1.7263    0.4172    0.0000 N   0  0  0  0  0  0  0  0  0  0  0  0
    1.8100    1.2401    0.0000 C   0  0  0  0  0  0  0  0  0  0  0  0
    2.4802    0.0838    0.0000 C   0  0  0  0  0  0  0  0  0  0  0  0
    3.0304    0.6980    0.0000 C   0  0  0  0  0  0  0  0  0  0  0  0
    1.0200    0.0000    0.0000 C   0  0  0  0  0  0  0  0  0  0  0  0
    2.6181    1.4125    0.0000 C   0  0  0  0  0  0  0  0  0  0  0  0
    5.0079   -0.2135    0.0000 C   0  0  0  0  0  0  0  0  0  0  0  0
    3.8500    0.6143    0.0000 S   0  0  0  0  0  0  0  0  0  0  0  0
    4.1900   -0.1347    0.0000 C   0  0  0  0  0  0  0  0  0  0  0  0
    1.0200   -0.8278    0.0000 C   0  0  0  0  0  0  0  0  0  0  0  0
    5.4859    0.4566    0.0000 C   0  0  0  0  0  0  0  0  0  0  0  0
    0.3022   -1.2384    0.0000 C   0  0  0  0  0  0  0  0  0  0  0  0
    1.1974    1.7854    0.0000 O   0  0  0  0  0  0  0  0  0  0  0  0
   -0.4090   -0.8229    0.0000 C   0  0  0  0  0  0  0  0  0  0  0  0
    0.1330   -2.0465    0.0000 O   0  0  0  0  0  0  0  0  0  0  0  0
    2.6559   -0.7243    0.0000 O   0  0  0  0  0  0  0  0  0  0  0  0
   -1.0298   -1.3764    0.0000 O   0  0  0  0  0  0  0  0  0  0  0  0
    0.3022    0.4122    0.0000 C   0  0  0  0  0  0  0  0  0  0  0  0
   -0.6931   -2.1352    0.0000 C   0  0  0  0  0  0  0  0  0  0  0  0
    5.1442    1.2056    0.0000 O   0  0  0  0  0  0  0  0  0  0  0  0
   -0.4090    0.0000    0.0000 C   0  0  0  0  0  0  0  0  0  0  0  0
    6.3071    0.3778    0.0000 O   0  0  0  0  0  0  0  0  0  0  0  0
    5.3479   -0.9658    0.0000 C   0  0  0  0  0  0  0  0  0  0  0  0
    3.7022   -0.8032    0.0000 C   0  0  0  0  0  0  0  0  0  0  0  0
    4.8650   -1.6376    0.0000 C   0  0  0  0  0  0  0  0  0  0  0  0
    4.0421   -1.5521    0.0000 C   0  0  0  0  0  0  0  0  0  0  0  0
  2  1  1  0  0  0  0
  3  1  1  0  0  0  0
  4  3  1  0  0  0  0
  5  1  1  0  0  0  0
  6  2  1  0  0  0  0
  7  9  1  0  0  0  0
  8  4  1  0  0  0  0
  9  8  1  0  0  0  0
 10  5  1  0  0  0  0
 11  7  1  0  0  0  0
 12 10  2  0  0  0  0
 13  2  2  0  0  0  0
 14 21  2  0  0  0  0
 15 12  1  0  0  0  0
 16  3  2  0  0  0  0
 17 14  1  0  0  0  0
 18  5  2  0  0  0  0
 19 15  1  0  0  0  0
 20 11  2  0  0  0  0
 21 18  1  0  0  0  0
 22 11  1  0  0  0  0
 23  7  2  0  0  0  0
 24  9  2  0  0  0  0
 25 26  2  0  0  0  0
 26 24  1  0  0  0  0
  4  6  1  0  0  0  0
 12 14  1  0  0  0  0
 17 19  1  0  0  0  0
 23 25  1  0  0  0  0
M  END
>  <IDNUMBER>
F1457-0009

>  <Chemical_Name>
2-{[1-(2H-1,3-benzodioxol-5-yl)-2,5-dioxopyrrolidin-3-yl]sulfanyl}benzoic acid

>  <PriceCoeff>
1.00

>  <CAS>
514182-16-2

>  <MW>
371.36

>  <Description>
solid

>  <FSP3>
0.17

>  <clogP>
2.15

>  <TPSA>
118.44

>  <Acceptor>
6

>  <Donor>
0

>  <RotBonds>
4

>  <HAC>
26

>  <Collection>
General

>  <PPDS>
+

$$$$
F1457-0027
  Mrv2219 10102508112D          

 28 30  0  0  0  0            999 V2000
    1.6314   -0.6827    0.0000 N   0  0  0  0  0  0  0  0  0  0  0  0
    0.8750   -0.9856    0.0000 C   0  0  0  0  0  0  0  0  0  0  0  0
    0.1795   -0.5449    0.0000 C   0  0  0  0  0  0  0  0  0  0  0  0
    1.8365    0.1186    0.0000 C   0  0  0  0  0  0  0  0  0  0  0  0
    0.6699   -1.7805    0.0000 S   0  0  0  0  0  0  0  0  0  0  0  0
    2.3285   -1.1266    0.0000 C   0  0  0  0  0  0  0  0  0  0  0  0
   -0.4551   -1.0737    0.0000 C   0  0  0  0  0  0  0  0  0  0  0  0
   -0.1522   -1.8365    0.0000 C   0  0  0  0  0  0  0  0  0  0  0  0
    2.9680   -0.6010    0.0000 C   0  0  0  0  0  0  0  0  0  0  0  0
    2.6651    0.1667    0.0000 C   0  0  0  0  0  0  0  0  0  0  0  0
    4.7757   -1.8077    0.0000 C   0  0  0  0  0  0  0  0  0  0  0  0
    0.1266    0.2724    0.0000 C   0  0  0  0  0  0  0  0  0  0  0  0
    3.7596   -0.8077    0.0000 S   0  0  0  0  0  0  0  0  0  0  0  0
    3.9824   -1.6026    0.0000 C   0  0  0  0  0  0  0  0  0  0  0  0
    5.3526   -1.2180    0.0000 C   0  0  0  0  0  0  0  0  0  0  0  0
    1.3093    0.7532    0.0000 O   0  0  0  0  0  0  0  0  0  0  0  0
    2.3750   -1.9487    0.0000 O   0  0  0  0  0  0  0  0  0  0  0  0
   -0.6106    0.6346    0.0000 O   0  0  0  0  0  0  0  0  0  0  0  0
    5.1266   -0.4199    0.0000 O   0  0  0  0  0  0  0  0  0  0  0  0
    6.1539   -1.4199    0.0000 O   0  0  0  0  0  0  0  0  0  0  0  0
    0.8125    0.7292    0.0000 O   0  0  0  0  0  0  0  0  0  0  0  0
   -1.2484   -0.8702    0.0000 C   0  0  0  0  0  0  0  0  0  0  0  0
   -0.5897   -2.5289    0.0000 C   0  0  0  0  0  0  0  0  0  0  0  0
    5.0000   -2.5978    0.0000 C   0  0  0  0  0  0  0  0  0  0  0  0
    3.3990   -2.1891    0.0000 C   0  0  0  0  0  0  0  0  0  0  0  0
    0.7564    1.5449    0.0000 C   0  0  0  0  0  0  0  0  0  0  0  0
    4.4199   -3.1923    0.0000 C   0  0  0  0  0  0  0  0  0  0  0  0
    3.6202   -2.9856    0.0000 C   0  0  0  0  0  0  0  0  0  0  0  0
  2  1  1  0  0  0  0
  3  2  2  0  0  0  0
  4  1  1  0  0  0  0
  5  2  1  0  0  0  0
  6  1  1  0  0  0  0
  7  3  1  0  0  0  0
  8  5  1  0  0  0  0
  9  6  1  0  0  0  0
 10  4  1  0  0  0  0
 11 14  1  0  0  0  0
 12  3  1  0  0  0  0
 13  9  1  0  0  0  0
 14 13  1  0  0  0  0
 15 11  1  0  0  0  0
 16  4  2  0  0  0  0
 17  6  2  0  0  0  0
 18 12  2  0  0  0  0
 19 15  2  0  0  0  0
 20 15  1  0  0  0  0
 21 12  1  0  0  0  0
 22  7  1  0  0  0  0
 23  8  1  0  0  0  0
 24 11  2  0  0  0  0
 25 14  2  0  0  0  0
 26 21  1  0  0  0  0
 27 28  2  0  0  0  0
 28 25  1  0  0  0  0
  9 10  1  0  0  0  0
  7  8  2  0  0  0  0
 24 27  1  0  0  0  0
M  END
>  <IDNUMBER>
F1457-0027

>  <Chemical_Name>
2-({1-[3-(methoxycarbonyl)-4,5-dimethylthiophen-2-yl]-2,5-dioxopyrrolidin-3-yl}sulfanyl)benzoic acid

>  <PriceCoeff>
1.00

>  <MW>
419.47

>  <Description>
solid

>  <FSP3>
0.26

>  <clogP>
3.24

>  <TPSA>
154.52

>  <Acceptor>
6

>  <Donor>
0

>  <RotBonds>
6

>  <HAC>
28

>  <Collection>
General

$$$$
F1457-0030
  Mrv2219 10102508112D          

 28 30  0  0  0  0            999 V2000
    1.3408   -0.6666    0.0000 N   0  0  0  0  0  0  0  0  0  0  0  0
    1.5456    0.1330    0.0000 C   0  0  0  0  0  0  0  0  0  0  0  0
    2.0379   -1.1114    0.0000 C   0  0  0  0  0  0  0  0  0  0  0  0
    2.6784   -0.5840    0.0000 C   0  0  0  0  0  0  0  0  0  0  0  0
    2.3757    0.1835    0.0000 C   0  0  0  0  0  0  0  0  0  0  0  0
    3.6966   -1.5884    0.0000 C   0  0  0  0  0  0  0  0  0  0  0  0
    4.4900   -1.7933    0.0000 C   0  0  0  0  0  0  0  0  0  0  0  0
    3.4719   -0.7934    0.0000 S   0  0  0  0  0  0  0  0  0  0  0  0
    0.5794   -0.9693    0.0000 C   0  0  0  0  0  0  0  0  0  0  0  0
    5.0679   -1.2032    0.0000 C   0  0  0  0  0  0  0  0  0  0  0  0
    3.1111   -2.1755    0.0000 N   0  0  0  0  0  0  0  0  0  0  0  0
    1.0151    0.7690    0.0000 O   0  0  0  0  0  0  0  0  0  0  0  0
    2.0837   -1.9354    0.0000 O   0  0  0  0  0  0  0  0  0  0  0  0
   -0.0596   -0.4648    0.0000 C   0  0  0  0  0  0  0  0  0  0  0  0
    4.8432   -0.4051    0.0000 O   0  0  0  0  0  0  0  0  0  0  0  0
    5.8705   -1.4080    0.0000 O   0  0  0  0  0  0  0  0  0  0  0  0
    4.7148   -2.5882    0.0000 C   0  0  0  0  0  0  0  0  0  0  0  0
    0.0612    0.3516    0.0000 O   0  0  0  0  0  0  0  0  0  0  0  0
    0.4693   -1.7810    0.0000 C   0  0  0  0  0  0  0  0  0  0  0  0
    3.3312   -2.9735    0.0000 C   0  0  0  0  0  0  0  0  0  0  0  0
   -0.8194   -0.7675    0.0000 C   0  0  0  0  0  0  0  0  0  0  0  0
   -0.6589    0.7644    0.0000 C   0  0  0  0  0  0  0  0  0  0  0  0
    4.1323   -3.1799    0.0000 C   0  0  0  0  0  0  0  0  0  0  0  0
   -0.6589    1.5823    0.0000 C   0  0  0  0  0  0  0  0  0  0  0  0
   -1.3698    1.9920    0.0000 C   0  0  0  0  0  0  0  0  0  0  0  0
   -0.2874   -2.0883    0.0000 C   0  0  0  0  0  0  0  0  0  0  0  0
   -1.3698    2.8160    0.0000 C   0  0  0  0  0  0  0  0  0  0  0  0
   -0.9402   -1.5777    0.0000 C   0  0  0  0  0  0  0  0  0  0  0  0
  2  1  1  0  0  0  0
  3  1  1  0  0  0  0
  4  3  1  0  0  0  0
  5  2  1  0  0  0  0
  6  8  1  0  0  0  0
  7  6  1  0  0  0  0
  8  4  1  0  0  0  0
  9  1  1  0  0  0  0
 10  7  1  0  0  0  0
 11  6  2  0  0  0  0
 12  2  2  0  0  0  0
 13  3  2  0  0  0  0
 14  9  2  0  0  0  0
 15 10  2  0  0  0  0
 16 10  1  0  0  0  0
 17  7  2  0  0  0  0
 18 14  1  0  0  0  0
 19  9  1  0  0  0  0
 20 11  1  0  0  0  0
 21 14  1  0  0  0  0
 22 18  1  0  0  0  0
 23 20  2  0  0  0  0
 24 22  1  0  0  0  0
 25 24  1  0  0  0  0
 26 19  2  0  0  0  0
 27 25  1  0  0  0  0
 28 26  1  0  0  0  0
  4  5  1  0  0  0  0
 21 28  2  0  0  0  0
 17 23  1  0  0  0  0
M  END
>  <IDNUMBER>
F1457-0030

>  <Chemical_Name>
2-{[1-(2-butoxyphenyl)-2,5-dioxopyrrolidin-3-yl]sulfanyl}pyridine-3-carboxylic acid

>  <PriceCoeff>
1.00

>  <CAS>
643746-43-4

>  <MW>
400.45

>  <Description>
solid

>  <FSP3>
0.30

>  <clogP>
3.18

>  <TPSA>
122.10

>  <Acceptor>
6

>  <Donor>
1

>  <RotBonds>
8

>  <HAC>
28

>  <Collection>
General

>  <PPDS>
+

$$$$
F1457-0041
  Mrv2219 10102508112D          

 27 29  0  0  0  0            999 V2000
    2.0737   -0.5927    0.0000 N   0  0  0  0  0  0  0  0  0  0  0  0
    2.2747    0.2096    0.0000 C   0  0  0  0  0  0  0  0  0  0  0  0
    1.2026   -1.7026    0.0000 C   0  0  0  0  0  0  0  0  0  0  0  0
    1.3143   -0.8934    0.0000 C   0  0  0  0  0  0  0  0  0  0  0  0
    2.7695   -1.0360    0.0000 C   0  0  0  0  0  0  0  0  0  0  0  0
    1.1975   -2.5255    0.0000 N   0  3  0  0  0  0  0  0  0  0  0  0
    3.4086   -0.5103    0.0000 C   0  0  0  0  0  0  0  0  0  0  0  0
    3.1045    0.2577    0.0000 C   0  0  0  0  0  0  0  0  0  0  0  0
    4.4239   -1.5119    0.0000 C   0  0  0  0  0  0  0  0  0  0  0  0
    5.2176   -1.7163    0.0000 C   0  0  0  0  0  0  0  0  0  0  0  0
    4.2023   -0.7164    0.0000 S   0  0  0  0  0  0  0  0  0  0  0  0
    5.7949   -1.1253    0.0000 C   0  0  0  0  0  0  0  0  0  0  0  0
    0.6752   -0.3883    0.0000 C   0  0  0  0  0  0  0  0  0  0  0  0
    3.8415   -2.0977    0.0000 N   0  0  0  0  0  0  0  0  0  0  0  0
    0.4450   -2.0118    0.0000 C   0  0  0  0  0  0  0  0  0  0  0  0
    0.4811   -2.9292    0.0000 O   0  5  0  0  0  0  0  0  0  0  0  0
    1.7490    0.8435    0.0000 O   0  0  0  0  0  0  0  0  0  0  0  0
    1.9036   -2.9395    0.0000 O   0  0  0  0  0  0  0  0  0  0  0  0
    2.8158   -1.8572    0.0000 O   0  0  0  0  0  0  0  0  0  0  0  0
    5.5715   -0.3316    0.0000 O   0  0  0  0  0  0  0  0  0  0  0  0
    6.5972   -1.3315    0.0000 O   0  0  0  0  0  0  0  0  0  0  0  0
   -0.0859   -0.6924    0.0000 C   0  0  0  0  0  0  0  0  0  0  0  0
   -0.2044   -1.5016    0.0000 C   0  0  0  0  0  0  0  0  0  0  0  0
    5.4427   -2.5100    0.0000 C   0  0  0  0  0  0  0  0  0  0  0  0
    4.0614   -2.8932    0.0000 C   0  0  0  0  0  0  0  0  0  0  0  0
   -0.9638   -1.8057    0.0000 C   0  0  0  0  0  0  0  0  0  0  0  0
    4.8620   -3.1027    0.0000 C   0  0  0  0  0  0  0  0  0  0  0  0
  2  1  1  0  0  0  0
  3  4  1  0  0  0  0
  4  1  1  0  0  0  0
  5  1  1  0  0  0  0
  6  3  1  0  0  0  0
  7  5  1  0  0  0  0
  8  2  1  0  0  0  0
  9 11  1  0  0  0  0
 10  9  1  0  0  0  0
 11  7  1  0  0  0  0
 12 10  1  0  0  0  0
 13  4  2  0  0  0  0
 14  9  2  0  0  0  0
 15  3  2  0  0  0  0
 16  6  1  0  0  0  0
 17  2  2  0  0  0  0
 18  6  2  0  0  0  0
 19  5  2  0  0  0  0
 20 12  2  0  0  0  0
 21 12  1  0  0  0  0
 22 13  1  0  0  0  0
 23 22  2  0  0  0  0
 24 10  2  0  0  0  0
 25 14  1  0  0  0  0
 26 23  1  0  0  0  0
 27 25  2  0  0  0  0
  7  8  1  0  0  0  0
 15 23  1  0  0  0  0
 24 27  1  0  0  0  0
M  CHG  2   6   1  16  -1
M  END
>  <IDNUMBER>
F1457-0041

>  <Chemical_Name>
2-{[1-(4-methyl-2-nitrophenyl)-2,5-dioxopyrrolidin-3-yl]sulfanyl}pyridine-3-carboxylic acid

>  <PriceCoeff>
1.00

>  <CAS>
643746-45-6

>  <MW>
387.37

>  <Description>
solid

>  <FSP3>
0.18

>  <clogP>
2.35

>  <TPSA>
156.01

>  <Acceptor>
7

>  <Donor>
1

>  <RotBonds>
5

>  <HAC>
27

>  <Collection>
General

>  <PPDS>
+

$$$$
F1468-0011
  Mrv2219 10102508112D          

 17 18  0  0  0  0            999 V2000
   -0.4641    0.3352    0.0000 C   0  0  0  0  0  0  0  0  0  0  0  0
   -0.4641    1.1602    0.0000 C   0  0  0  0  0  0  0  0  0  0  0  0
   -1.1945   -0.0817    0.0000 N   0  0  0  0  0  0  0  0  0  0  0  0
   -1.9035    1.1602    0.0000 N   0  0  0  0  0  0  0  0  0  0  0  0
   -1.9035    0.3223    0.0000 C   0  0  0  0  0  0  0  0  0  0  0  0
   -1.1945    1.5812    0.0000 C   0  0  0  0  0  0  0  0  0  0  0  0
    0.2364   -0.0902    0.0000 N   0  0  0  0  0  0  0  0  0  0  0  0
    0.9668    1.1558    0.0000 N   0  0  0  0  0  0  0  0  0  0  0  0
    0.9539    0.3179    0.0000 C   0  0  0  0  0  0  0  0  0  0  0  0
   -2.6254   -0.0902    0.0000 O   0  0  0  0  0  0  0  0  0  0  0  0
   -1.1945    2.4105    0.0000 O   0  0  0  0  0  0  0  0  0  0  0  0
    1.5254   -0.2621    0.0000 C   0  0  0  0  0  0  0  0  0  0  0  0
   -1.1945   -0.9152    0.0000 C   0  0  0  0  0  0  0  0  0  0  0  0
   -2.6640    1.5941    0.0000 C   0  0  0  0  0  0  0  0  0  0  0  0
    2.3246   -0.2621    0.0000 N   0  0  0  0  0  0  0  0  0  0  0  0
    2.7328   -0.9582    0.0000 C   0  0  0  0  0  0  0  0  0  0  0  0
    2.7243    0.4383    0.0000 C   0  0  0  0  0  0  0  0  0  0  0  0
  2  1  2  0  0  0  0
  3  1  1  0  0  0  0
  4  5  1  0  0  0  0
  5  3  1  0  0  0  0
  6  2  1  0  0  0  0
  7  1  1  0  0  0  0
  8  2  1  0  0  0  0
  9  7  2  0  0  0  0
 10  5  2  0  0  0  0
 11  6  2  0  0  0  0
 12  9  1  0  0  0  0
 13  3  1  0  0  0  0
 14  4  1  0  0  0  0
 15 12  1  0  0  0  0
 16 15  1  0  0  0  0
 17 15  1  0  0  0  0
  9  8  1  0  0  0  0
  6  4  1  0  0  0  0
M  END
>  <IDNUMBER>
F1468-0011

>  <Chemical_Name>
8-[(dimethylamino)methyl]-1,3-dimethyl-2,3,6,7-tetrahydro-1H-purine-2,6-dione

>  <PriceCoeff>
1.50

>  <CAS>
117099-45-3

>  <MW>
237.26

>  <Description>
solid

>  <FSP3>
0.50

>  <clogP>
-0.20

>  <TPSA>
72.54

>  <Acceptor>
4

>  <Donor>
3

>  <RotBonds>
2

>  <HAC>
17

>  <Collection>
Advanced

>  <PPDS>
+

$$$$
F1468-0013
  Mrv2219 10102508112D          

 21 23  0  0  0  0            999 V2000
   -1.0344    1.1626    0.0000 C   0  0  0  0  0  0  0  0  0  0  0  0
   -1.0344    1.9877    0.0000 C   0  0  0  0  0  0  0  0  0  0  0  0
   -1.7697    0.7395    0.0000 N   0  0  0  0  0  0  0  0  0  0  0  0
   -2.4835    1.9877    0.0000 N   0  0  0  0  0  0  0  0  0  0  0  0
   -2.4835    1.1498    0.0000 C   0  0  0  0  0  0  0  0  0  0  0  0
   -1.7697    2.4065    0.0000 C   0  0  0  0  0  0  0  0  0  0  0  0
   -0.3291    0.7310    0.0000 N   0  0  0  0  0  0  0  0  0  0  0  0
    0.4018    1.9834    0.0000 N   0  0  0  0  0  0  0  0  0  0  0  0
    0.3890    1.1370    0.0000 C   0  0  0  0  0  0  0  0  0  0  0  0
    1.7740    0.5599    0.0000 N   0  0  0  0  0  0  0  0  0  0  0  0
   -3.2016    0.7310    0.0000 O   0  0  0  0  0  0  0  0  0  0  0  0
    3.3983    0.5514    0.0000 N   0  0  0  0  0  0  0  0  0  0  0  0
   -1.7697    3.2529    0.0000 O   0  0  0  0  0  0  0  0  0  0  0  0
    0.9661    0.5599    0.0000 C   0  0  0  0  0  0  0  0  0  0  0  0
   -1.7697   -0.0941    0.0000 C   0  0  0  0  0  0  0  0  0  0  0  0
   -3.2529    2.4237    0.0000 C   0  0  0  0  0  0  0  0  0  0  0  0
    2.1800   -0.1454    0.0000 C   0  0  0  0  0  0  0  0  0  0  0  0
    2.1800    1.2652    0.0000 C   0  0  0  0  0  0  0  0  0  0  0  0
    2.9922    1.2567    0.0000 C   0  0  0  0  0  0  0  0  0  0  0  0
    2.9879   -0.1454    0.0000 C   0  0  0  0  0  0  0  0  0  0  0  0
    4.2446    0.5514    0.0000 C   0  0  0  0  0  0  0  0  0  0  0  0
  2  1  2  0  0  0  0
  3  1  1  0  0  0  0
  4  5  1  0  0  0  0
  5  3  1  0  0  0  0
  6  2  1  0  0  0  0
  7  1  1  0  0  0  0
  8  2  1  0  0  0  0
  9  7  2  0  0  0  0
 10 14  1  0  0  0  0
 11  5  2  0  0  0  0
 12 19  1  0  0  0  0
 13  6  2  0  0  0  0
 14  9  1  0  0  0  0
 15  3  1  0  0  0  0
 16  4  1  0  0  0  0
 17 10  1  0  0  0  0
 18 10  1  0  0  0  0
 19 18  1  0  0  0  0
 20 17  1  0  0  0  0
 21 12  1  0  0  0  0
  9  8  1  0  0  0  0
  6  4  1  0  0  0  0
 12 20  1  0  0  0  0
M  END
>  <IDNUMBER>
F1468-0013

>  <Chemical_Name>
1,3-dimethyl-8-[(4-methylpiperazin-1-yl)methyl]-2,3,6,7-tetrahydro-1H-purine-2,6-dione

>  <PriceCoeff>
1.00

>  <CAS>
71527-03-2

>  <MW>
292.34

>  <Description>
solid

>  <FSP3>
0.62

>  <clogP>
0.27

>  <TPSA>
75.78

>  <Acceptor>
6

>  <Donor>
4

>  <RotBonds>
2

>  <HAC>
21

>  <Collection>
General

>  <PPDS>
+

$$$$
F1468-0015
  Mrv2219 10102508112D          

 21 23  0  0  0  0            999 V2000
    1.0200   -1.3516    0.0000 C   0  0  0  0  0  0  0  0  0  0  0  0
    1.0200   -0.5457    0.0000 C   0  0  0  0  0  0  0  0  0  0  0  0
    0.3022   -1.7629    0.0000 N   0  0  0  0  0  0  0  0  0  0  0  0
   -0.3861   -0.5457    0.0000 N   0  0  0  0  0  0  0  0  0  0  0  0
   -0.3861   -1.3642    0.0000 C   0  0  0  0  0  0  0  0  0  0  0  0
    0.3022   -0.1385    0.0000 C   0  0  0  0  0  0  0  0  0  0  0  0
    2.4177   -0.5540    0.0000 N   0  0  0  0  0  0  0  0  0  0  0  0
    1.7042   -1.7671    0.0000 N   0  0  0  0  0  0  0  0  0  0  0  0
    2.3968   -1.3726    0.0000 C   0  0  0  0  0  0  0  0  0  0  0  0
    3.0095    0.0252    0.0000 C   0  0  0  0  0  0  0  0  0  0  0  0
    3.8071   -0.1931    0.0000 N   0  0  0  0  0  0  0  0  0  0  0  0
   -1.0913   -1.7671    0.0000 O   0  0  0  0  0  0  0  0  0  0  0  0
    5.3937   -0.6339    0.0000 N   0  0  0  0  0  0  0  0  0  0  0  0
    0.3022    0.6758    0.0000 O   0  0  0  0  0  0  0  0  0  0  0  0
    0.3022   -2.5731    0.0000 C   0  0  0  0  0  0  0  0  0  0  0  0
   -1.1333   -0.1176    0.0000 C   0  0  0  0  0  0  0  0  0  0  0  0
    4.0086   -0.9865    0.0000 C   0  0  0  0  0  0  0  0  0  0  0  0
    4.3864    0.3903    0.0000 C   0  0  0  0  0  0  0  0  0  0  0  0
    5.1881    0.1720    0.0000 C   0  0  0  0  0  0  0  0  0  0  0  0
    4.8019   -1.2131    0.0000 C   0  0  0  0  0  0  0  0  0  0  0  0
    6.1116   -1.0494    0.0000 C   0  0  0  0  0  0  0  0  0  0  0  0
  2  1  2  0  0  0  0
  3  1  1  0  0  0  0
  4  5  1  0  0  0  0
  5  3  1  0  0  0  0
  6  2  1  0  0  0  0
  7  2  1  0  0  0  0
  8  1  1  0  0  0  0
  9  8  2  0  0  0  0
 10  7  1  0  0  0  0
 11 10  1  0  0  0  0
 12  5  2  0  0  0  0
 13 19  1  0  0  0  0
 14  6  2  0  0  0  0
 15  3  1  0  0  0  0
 16  4  1  0  0  0  0
 17 11  1  0  0  0  0
 18 11  1  0  0  0  0
 19 18  1  0  0  0  0
 20 17  1  0  0  0  0
 21 13  1  0  0  0  0
  9  7  1  0  0  0  0
  6  4  1  0  0  0  0
 13 20  1  0  0  0  0
M  END
>  <IDNUMBER>
F1468-0015

>  <Chemical_Name>
1,3-dimethyl-7-[(4-methylpiperazin-1-yl)methyl]-2,3,6,7-tetrahydro-1H-purine-2,6-dione

>  <PriceCoeff>
1.00

>  <CAS>
71527-01-0

>  <MW>
292.34

>  <Description>
solid

>  <FSP3>
0.62

>  <clogP>
-0.92

>  <TPSA>
64.92

>  <Acceptor>
5

>  <Donor>
3

>  <RotBonds>
2

>  <HAC>
21

>  <Collection>
General

>  <PPDS>
+

$$$$
F1468-0018
  Mrv2219 10102508112D          

 22 24  0  0  0  0            999 V2000
    0.8330   -1.5363    0.0000 C   0  0  0  0  0  0  0  0  0  0  0  0
    0.8330   -0.7284    0.0000 C   0  0  0  0  0  0  0  0  0  0  0  0
    0.1172   -1.9507    0.0000 N   0  0  0  0  0  0  0  0  0  0  0  0
   -0.5777   -0.7284    0.0000 N   0  0  0  0  0  0  0  0  0  0  0  0
   -0.5777   -1.5488    0.0000 C   0  0  0  0  0  0  0  0  0  0  0  0
    0.1172   -0.3182    0.0000 C   0  0  0  0  0  0  0  0  0  0  0  0
    2.2479   -0.7326    0.0000 N   0  0  0  0  0  0  0  0  0  0  0  0
    1.5321   -1.9590    0.0000 N   0  0  0  0  0  0  0  0  0  0  0  0
    2.2353   -1.5614    0.0000 C   0  0  0  0  0  0  0  0  0  0  0  0
    2.8381   -0.1549    0.0000 C   0  0  0  0  0  0  0  0  0  0  0  0
    3.6334   -0.3810    0.0000 N   0  0  0  0  0  0  0  0  0  0  0  0
   -1.2892   -1.9590    0.0000 O   0  0  0  0  0  0  0  0  0  0  0  0
    5.2157   -0.8288    0.0000 N   0  0  0  0  0  0  0  0  0  0  0  0
    0.1172    0.5023    0.0000 O   0  0  0  0  0  0  0  0  0  0  0  0
    0.1172   -2.7670    0.0000 C   0  0  0  0  0  0  0  0  0  0  0  0
   -1.3311   -0.3014    0.0000 C   0  0  0  0  0  0  0  0  0  0  0  0
    3.8344   -1.1804    0.0000 C   0  0  0  0  0  0  0  0  0  0  0  0
    4.2194    0.2009    0.0000 C   0  0  0  0  0  0  0  0  0  0  0  0
    5.0148   -0.0251    0.0000 C   0  0  0  0  0  0  0  0  0  0  0  0
    4.6255   -1.3981    0.0000 C   0  0  0  0  0  0  0  0  0  0  0  0
    5.8060   -1.4107    0.0000 C   0  0  0  0  0  0  0  0  0  0  0  0
    6.6054   -1.1972    0.0000 C   0  0  0  0  0  0  0  0  0  0  0  0
  2  1  2  0  0  0  0
  3  1  1  0  0  0  0
  4  5  1  0  0  0  0
  5  3  1  0  0  0  0
  6  2  1  0  0  0  0
  7  2  1  0  0  0  0
  8  1  1  0  0  0  0
  9  8  2  0  0  0  0
 10  7  1  0  0  0  0
 11 10  1  0  0  0  0
 12  5  2  0  0  0  0
 13 19  1  0  0  0  0
 14  6  2  0  0  0  0
 15  3  1  0  0  0  0
 16  4  1  0  0  0  0
 17 11  1  0  0  0  0
 18 11  1  0  0  0  0
 19 18  1  0  0  0  0
 20 17  1  0  0  0  0
 21 13  1  0  0  0  0
 22 21  1  0  0  0  0
  9  7  1  0  0  0  0
  6  4  1  0  0  0  0
 13 20  1  0  0  0  0
M  END
>  <IDNUMBER>
F1468-0018

>  <Chemical_Name>
7-[(4-ethylpiperazin-1-yl)methyl]-1,3-dimethyl-2,3,6,7-tetrahydro-1H-purine-2,6-dione

>  <PriceCoeff>
1.00

>  <CAS>
573973-24-7

>  <MW>
306.36

>  <Description>
solid

>  <FSP3>
0.64

>  <clogP>
-0.39

>  <TPSA>
64.92

>  <Acceptor>
5

>  <Donor>
3

>  <RotBonds>
3

>  <HAC>
22

>  <Collection>
General

>  <PPDS>
+

$$$$
F1468-0042
  Mrv2219 10102508112D          

 20 22  0  0  0  0            999 V2000
    0.9946   -2.1276    0.0000 C   0  0  0  0  0  0  0  0  0  0  0  0
    0.9946   -1.3262    0.0000 C   0  0  0  0  0  0  0  0  0  0  0  0
    0.2770   -2.5096    0.0000 N   0  0  0  0  0  0  0  0  0  0  0  0
   -0.4616   -1.3262    0.0000 N   0  0  0  0  0  0  0  0  0  0  0  0
   -0.4616   -2.1276    0.0000 C   0  0  0  0  0  0  0  0  0  0  0  0
    0.2770   -0.9191    0.0000 C   0  0  0  0  0  0  0  0  0  0  0  0
    1.7794   -2.3669    0.0000 N   0  0  0  0  0  0  0  0  0  0  0  0
    1.8381   -1.0115    0.0000 N   0  0  0  0  0  0  0  0  0  0  0  0
    2.2578   -1.7164    0.0000 C   0  0  0  0  0  0  0  0  0  0  0  0
   -1.1918   -2.5096    0.0000 O   0  0  0  0  0  0  0  0  0  0  0  0
    3.4999   -2.4341    0.0000 N   0  0  0  0  0  0  0  0  0  0  0  0
    0.2770   -0.1175    0.0000 O   0  0  0  0  0  0  0  0  0  0  0  0
    3.0887   -1.7164    0.0000 C   0  0  0  0  0  0  0  0  0  0  0  0
    0.2770   -3.3153    0.0000 C   0  0  0  0  0  0  0  0  0  0  0  0
   -1.1792   -0.9065    0.0000 C   0  0  0  0  0  0  0  0  0  0  0  0
    3.0761   -3.1475    0.0000 C   0  0  0  0  0  0  0  0  0  0  0  0
    4.3226   -2.4341    0.0000 C   0  0  0  0  0  0  0  0  0  0  0  0
    4.7338   -3.1517    0.0000 C   0  0  0  0  0  0  0  0  0  0  0  0
    3.4874   -3.8568    0.0000 C   0  0  0  0  0  0  0  0  0  0  0  0
    4.3100   -3.8694    0.0000 C   0  0  0  0  0  0  0  0  0  0  0  0
  2  1  2  0  0  0  0
  3  1  1  0  0  0  0
  4  5  1  0  0  0  0
  5  3  1  0  0  0  0
  6  2  1  0  0  0  0
  7  1  1  0  0  0  0
  8  2  1  0  0  0  0
  9  7  2  0  0  0  0
 10  5  2  0  0  0  0
 11 13  1  0  0  0  0
 12  6  2  0  0  0  0
 13  9  1  0  0  0  0
 14  3  1  0  0  0  0
 15  4  1  0  0  0  0
 16 11  1  0  0  0  0
 17 11  1  0  0  0  0
 18 17  1  0  0  0  0
 19 16  1  0  0  0  0
 20 18  1  0  0  0  0
  8  9  1  0  0  0  0
  6  4  1  0  0  0  0
 20 19  1  0  0  0  0
M  END
>  <IDNUMBER>
F1468-0042

>  <Chemical_Name>
1,3-dimethyl-8-[(piperidin-1-yl)methyl]-2,3,6,7-tetrahydro-1H-purine-2,6-dione

>  <PriceCoeff>
1.50

>  <CAS>
5436-40-8

>  <MW>
277.32

>  <Description>
solid

>  <FSP3>
0.62

>  <clogP>
0.99

>  <TPSA>
72.54

>  <Acceptor>
4

>  <Donor>
3

>  <RotBonds>
2

>  <HAC>
20

>  <Collection>
Advanced

>  <PPDS>
+

$$$$
F1468-0043
  Mrv2219 10102508112D          

 20 22  0  0  0  0            999 V2000
    1.7221   -1.0981    0.0000 C   0  0  0  0  0  0  0  0  0  0  0  0
    1.7221   -0.2912    0.0000 C   0  0  0  0  0  0  0  0  0  0  0  0
    1.0025   -1.4850    0.0000 N   0  0  0  0  0  0  0  0  0  0  0  0
    0.2662   -0.2912    0.0000 N   0  0  0  0  0  0  0  0  0  0  0  0
    0.2662   -1.0981    0.0000 C   0  0  0  0  0  0  0  0  0  0  0  0
    1.0025    0.1123    0.0000 C   0  0  0  0  0  0  0  0  0  0  0  0
    2.5000   -1.3394    0.0000 N   0  0  0  0  0  0  0  0  0  0  0  0
    2.5624    0.0208    0.0000 N   0  0  0  0  0  0  0  0  0  0  0  0
    2.9866   -0.6863    0.0000 C   0  0  0  0  0  0  0  0  0  0  0  0
   -0.4700   -1.4850    0.0000 O   0  0  0  0  0  0  0  0  0  0  0  0
    4.2303   -1.4018    0.0000 N   0  0  0  0  0  0  0  0  0  0  0  0
    1.0025    0.9192    0.0000 O   0  0  0  0  0  0  0  0  0  0  0  0
    3.8185   -0.6863    0.0000 C   0  0  0  0  0  0  0  0  0  0  0  0
    1.0025   -2.2878    0.0000 C   0  0  0  0  0  0  0  0  0  0  0  0
   -0.4492    0.1248    0.0000 C   0  0  0  0  0  0  0  0  0  0  0  0
    5.0457   -2.8452    0.0000 O   0  0  0  0  0  0  0  0  0  0  0  0
    3.8103   -2.1214    0.0000 C   0  0  0  0  0  0  0  0  0  0  0  0
    5.0539   -1.4018    0.0000 C   0  0  0  0  0  0  0  0  0  0  0  0
    5.4658   -2.1256    0.0000 C   0  0  0  0  0  0  0  0  0  0  0  0
    4.2179   -2.8369    0.0000 C   0  0  0  0  0  0  0  0  0  0  0  0
  2  1  2  0  0  0  0
  3  1  1  0  0  0  0
  4  5  1  0  0  0  0
  5  3  1  0  0  0  0
  6  2  1  0  0  0  0
  7  1  1  0  0  0  0
  8  2  1  0  0  0  0
  9  7  2  0  0  0  0
 10  5  2  0  0  0  0
 11 13  1  0  0  0  0
 12  6  2  0  0  0  0
 13  9  1  0  0  0  0
 14  3  1  0  0  0  0
 15  4  1  0  0  0  0
 16 19  1  0  0  0  0
 17 11  1  0  0  0  0
 18 11  1  0  0  0  0
 19 18  1  0  0  0  0
 20 17  1  0  0  0  0
  8  9  1  0  0  0  0
  6  4  1  0  0  0  0
 16 20  1  0  0  0  0
M  END
>  <IDNUMBER>
F1468-0043

>  <Chemical_Name>
1,3-dimethyl-8-[(morpholin-4-yl)methyl]-2,3,6,7-tetrahydro-1H-purine-2,6-dione

>  <PriceCoeff>
1.50

>  <CAS>
108871-83-6

>  <MW>
279.30

>  <Description>
solid

>  <FSP3>
0.58

>  <clogP>
-0.29

>  <TPSA>
71.33

>  <Acceptor>
5

>  <Donor>
3

>  <RotBonds>
2

>  <HAC>
20

>  <Collection>
Advanced

>  <PPDS>
+

$$$$
F1468-0044
  Mrv2219 10102508112D          

 22 24  0  0  0  0            999 V2000
    1.7225   -1.0984    0.0000 C   0  0  0  0  0  0  0  0  0  0  0  0
    1.7225   -0.2913    0.0000 C   0  0  0  0  0  0  0  0  0  0  0  0
    1.0027   -1.4853    0.0000 N   0  0  0  0  0  0  0  0  0  0  0  0
    0.2663   -0.2913    0.0000 N   0  0  0  0  0  0  0  0  0  0  0  0
    0.2663   -1.0984    0.0000 C   0  0  0  0  0  0  0  0  0  0  0  0
    1.0027    0.1123    0.0000 C   0  0  0  0  0  0  0  0  0  0  0  0
    2.5005   -1.3397    0.0000 N   0  0  0  0  0  0  0  0  0  0  0  0
    2.5629    0.0208    0.0000 N   0  0  0  0  0  0  0  0  0  0  0  0
    2.9873   -0.6865    0.0000 C   0  0  0  0  0  0  0  0  0  0  0  0
    4.2313   -1.4021    0.0000 N   0  0  0  0  0  0  0  0  0  0  0  0
   -0.4701   -1.4853    0.0000 O   0  0  0  0  0  0  0  0  0  0  0  0
    5.0468   -2.8458    0.0000 N   0  0  0  0  0  0  0  0  0  0  0  0
    1.0027    0.9195    0.0000 O   0  0  0  0  0  0  0  0  0  0  0  0
    3.8194   -0.6865    0.0000 C   0  0  0  0  0  0  0  0  0  0  0  0
    1.0027   -2.2883    0.0000 C   0  0  0  0  0  0  0  0  0  0  0  0
   -0.4493    0.1248    0.0000 C   0  0  0  0  0  0  0  0  0  0  0  0
    3.8111   -2.1219    0.0000 C   0  0  0  0  0  0  0  0  0  0  0  0
    5.0551   -1.4021    0.0000 C   0  0  0  0  0  0  0  0  0  0  0  0
    5.4670   -2.1261    0.0000 C   0  0  0  0  0  0  0  0  0  0  0  0
    4.2188   -2.8375    0.0000 C   0  0  0  0  0  0  0  0  0  0  0  0
    5.4545   -3.5615    0.0000 C   0  0  0  0  0  0  0  0  0  0  0  0
    6.2783   -3.5615    0.0000 C   0  0  0  0  0  0  0  0  0  0  0  0
  2  1  2  0  0  0  0
  3  1  1  0  0  0  0
  4  5  1  0  0  0  0
  5  3  1  0  0  0  0
  6  2  1  0  0  0  0
  7  1  1  0  0  0  0
  8  2  1  0  0  0  0
  9  7  2  0  0  0  0
 10 14  1  0  0  0  0
 11  5  2  0  0  0  0
 12 19  1  0  0  0  0
 13  6  2  0  0  0  0
 14  9  1  0  0  0  0
 15  3  1  0  0  0  0
 16  4  1  0  0  0  0
 17 10  1  0  0  0  0
 18 10  1  0  0  0  0
 19 18  1  0  0  0  0
 20 17  1  0  0  0  0
 21 12  1  0  0  0  0
 22 21  1  0  0  0  0
  8  9  1  0  0  0  0
  6  4  1  0  0  0  0
 12 20  1  0  0  0  0
M  END
>  <IDNUMBER>
F1468-0044

>  <Chemical_Name>
8-[(4-ethylpiperazin-1-yl)methyl]-1,3-dimethyl-2,3,6,7-tetrahydro-1H-purine-2,6-dione

>  <PriceCoeff>
1.50

>  <CAS>
585562-22-7

>  <MW>
306.36

>  <Description>
solid

>  <FSP3>
0.64

>  <clogP>
0.80

>  <TPSA>
75.78

>  <Acceptor>
6

>  <Donor>
4

>  <RotBonds>
3

>  <HAC>
22

>  <Collection>
Advanced

>  <PPDS>
+

$$$$
F1468-0051
  Mrv2219 10102508112D          

 21 23  0  0  0  0            999 V2000
    1.1917   -1.8802    0.0000 C   0  0  0  0  0  0  0  0  0  0  0  0
    1.1917   -1.0803    0.0000 C   0  0  0  0  0  0  0  0  0  0  0  0
    0.4824   -2.2678    0.0000 N   0  0  0  0  0  0  0  0  0  0  0  0
   -0.2556   -1.0803    0.0000 N   0  0  0  0  0  0  0  0  0  0  0  0
   -0.2556   -1.8802    0.0000 C   0  0  0  0  0  0  0  0  0  0  0  0
    0.4824   -0.6721    0.0000 C   0  0  0  0  0  0  0  0  0  0  0  0
    2.0328   -0.7711    0.0000 N   0  0  0  0  0  0  0  0  0  0  0  0
    1.9792   -2.1194    0.0000 N   0  0  0  0  0  0  0  0  0  0  0  0
    2.4534   -1.4720    0.0000 C   0  0  0  0  0  0  0  0  0  0  0  0
    2.3049    0.0082    0.0000 C   0  0  0  0  0  0  0  0  0  0  0  0
    3.1090    0.1608    0.0000 N   0  0  0  0  0  0  0  0  0  0  0  0
   -0.9854   -2.2678    0.0000 O   0  0  0  0  0  0  0  0  0  0  0  0
    0.4824    0.1237    0.0000 O   0  0  0  0  0  0  0  0  0  0  0  0
    0.4824   -3.0677    0.0000 C   0  0  0  0  0  0  0  0  0  0  0  0
   -0.9648   -0.6598    0.0000 C   0  0  0  0  0  0  0  0  0  0  0  0
    3.5790   -0.5443    0.0000 C   0  0  0  0  0  0  0  0  0  0  0  0
    3.2574    0.8865    0.0000 C   0  0  0  0  0  0  0  0  0  0  0  0
    4.0243    1.2205    0.0000 C   0  0  0  0  0  0  0  0  0  0  0  0
    4.2841   -0.6721    0.0000 C   0  0  0  0  0  0  0  0  0  0  0  0
    4.8902   -0.1031    0.0000 C   0  0  0  0  0  0  0  0  0  0  0  0
    4.7871    0.7628    0.0000 C   0  0  0  0  0  0  0  0  0  0  0  0
  2  1  2  0  0  0  0
  3  1  1  0  0  0  0
  4  5  1  0  0  0  0
  5  3  1  0  0  0  0
  6  2  1  0  0  0  0
  7  2  1  0  0  0  0
  8  1  1  0  0  0  0
  9  8  2  0  0  0  0
 10  7  1  0  0  0  0
 11 10  1  0  0  0  0
 12  5  2  0  0  0  0
 13  6  2  0  0  0  0
 14  3  1  0  0  0  0
 15  4  1  0  0  0  0
 16 11  1  0  0  0  0
 17 11  1  0  0  0  0
 18 17  1  0  0  0  0
 19 16  1  0  0  0  0
 20 19  1  0  0  0  0
 21 18  1  0  0  0  0
  7  9  1  0  0  0  0
  6  4  1  0  0  0  0
 21 20  1  0  0  0  0
M  END
>  <IDNUMBER>
F1468-0051

>  <Chemical_Name>
7-[(azepan-1-yl)methyl]-1,3-dimethyl-2,3,6,7-tetrahydro-1H-purine-2,6-dione

>  <PriceCoeff>
1.50

>  <CAS>
578744-11-3

>  <MW>
291.35

>  <Description>
solid

>  <FSP3>
0.64

>  <clogP>
1.73

>  <TPSA>
61.68

>  <Acceptor>
3

>  <Donor>
2

>  <RotBonds>
2

>  <HAC>
21

>  <Collection>
Advanced

>  <PPDS>
+

$$$$
F1468-0053
  Mrv2219 10102508112D          

 21 23  0  0  0  0            999 V2000
    1.2014   -1.8956    0.0000 C   0  0  0  0  0  0  0  0  0  0  0  0
    1.2014   -1.0892    0.0000 C   0  0  0  0  0  0  0  0  0  0  0  0
    0.4864   -2.2863    0.0000 N   0  0  0  0  0  0  0  0  0  0  0  0
   -0.2577   -1.0892    0.0000 N   0  0  0  0  0  0  0  0  0  0  0  0
   -0.2577   -1.8956    0.0000 C   0  0  0  0  0  0  0  0  0  0  0  0
    0.4864   -0.6776    0.0000 C   0  0  0  0  0  0  0  0  0  0  0  0
    2.0494   -0.7774    0.0000 N   0  0  0  0  0  0  0  0  0  0  0  0
    1.9953   -2.1367    0.0000 N   0  0  0  0  0  0  0  0  0  0  0  0
    2.4734   -1.4840    0.0000 C   0  0  0  0  0  0  0  0  0  0  0  0
    2.3238    0.0083    0.0000 C   0  0  0  0  0  0  0  0  0  0  0  0
    3.1344    0.1621    0.0000 N   0  0  0  0  0  0  0  0  0  0  0  0
   -0.9935   -2.2863    0.0000 O   0  0  0  0  0  0  0  0  0  0  0  0
    0.4864    0.1247    0.0000 O   0  0  0  0  0  0  0  0  0  0  0  0
    3.3963    0.9436    0.0000 C   0  0  0  0  0  0  0  0  0  0  0  0
    0.4864   -3.0928    0.0000 C   0  0  0  0  0  0  0  0  0  0  0  0
   -0.9727   -0.6651    0.0000 C   0  0  0  0  0  0  0  0  0  0  0  0
    3.6706   -0.4531    0.0000 C   0  0  0  0  0  0  0  0  0  0  0  0
    2.9847    1.6544    0.0000 C   0  0  0  0  0  0  0  0  0  0  0  0
    4.2069    1.1057    0.0000 C   0  0  0  0  0  0  0  0  0  0  0  0
    4.4770   -0.3035    0.0000 C   0  0  0  0  0  0  0  0  0  0  0  0
    4.7556    0.4822    0.0000 C   0  0  0  0  0  0  0  0  0  0  0  0
  2  1  2  0  0  0  0
  3  1  1  0  0  0  0
  4  5  1  0  0  0  0
  5  3  1  0  0  0  0
  6  2  1  0  0  0  0
  7  2  1  0  0  0  0
  8  1  1  0  0  0  0
  9  8  2  0  0  0  0
 10  7  1  0  0  0  0
 11 10  1  0  0  0  0
 12  5  2  0  0  0  0
 13  6  2  0  0  0  0
 14 11  1  0  0  0  0
 15  3  1  0  0  0  0
 16  4  1  0  0  0  0
 17 11  1  0  0  0  0
 18 14  1  0  0  0  0
 19 14  1  0  0  0  0
 20 17  1  0  0  0  0
 21 20  1  0  0  0  0
  7  9  1  0  0  0  0
  6  4  1  0  0  0  0
 21 19  1  0  0  0  0
M  END
>  <IDNUMBER>
F1468-0053

>  <Chemical_Name>
1,3-dimethyl-7-[(2-methylpiperidin-1-yl)methyl]-2,3,6,7-tetrahydro-1H-purine-2,6-dione

>  <PriceCoeff>
1.50

>  <CAS>
577700-15-3

>  <MW>
291.35

>  <Description>
solid

>  <FSP3>
0.64

>  <clogP>
1.57

>  <TPSA>
61.68

>  <Acceptor>
3

>  <Donor>
2

>  <RotBonds>
2

>  <HAC>
21

>  <Collection>
Advanced

>  <PPDS>
+

$$$$
F1468-0067
  Mrv2219 10102508112D          

 20 22  0  0  0  0            999 V2000
    5.6031   -4.4018    0.0000 C   0  0  0  0  0  0  0  0  0  0  0  0
    5.6031   -3.5913    0.0000 C   0  0  0  0  0  0  0  0  0  0  0  0
    4.8799   -4.7884    0.0000 N   0  0  0  0  0  0  0  0  0  0  0  0
    4.1441   -3.5913    0.0000 N   0  0  0  0  0  0  0  0  0  0  0  0
    4.1441   -4.4018    0.0000 C   0  0  0  0  0  0  0  0  0  0  0  0
    4.8799   -3.1840    0.0000 C   0  0  0  0  0  0  0  0  0  0  0  0
    6.4468   -3.2795    0.0000 N   0  0  0  0  0  0  0  0  0  0  0  0
    6.3887   -4.6387    0.0000 N   0  0  0  0  0  0  0  0  0  0  0  0
    6.8750   -3.9903    0.0000 C   0  0  0  0  0  0  0  0  0  0  0  0
    6.7129   -2.4981    0.0000 C   0  0  0  0  0  0  0  0  0  0  0  0
    7.5234   -2.3443    0.0000 N   0  0  0  0  0  0  0  0  0  0  0  0
    3.4084   -4.7884    0.0000 O   0  0  0  0  0  0  0  0  0  0  0  0
    4.8799   -2.3817    0.0000 O   0  0  0  0  0  0  0  0  0  0  0  0
    4.8799   -5.5989    0.0000 C   0  0  0  0  0  0  0  0  0  0  0  0
    3.4209   -3.1715    0.0000 C   0  0  0  0  0  0  0  0  0  0  0  0
    8.0679   -2.9678    0.0000 C   0  0  0  0  0  0  0  0  0  0  0  0
    7.7936   -1.5629    0.0000 C   0  0  0  0  0  0  0  0  0  0  0  0
    8.6041   -1.4091    0.0000 C   0  0  0  0  0  0  0  0  0  0  0  0
    8.8702   -2.8099    0.0000 C   0  0  0  0  0  0  0  0  0  0  0  0
    9.1445   -2.0326    0.0000 C   0  0  0  0  0  0  0  0  0  0  0  0
  2  1  2  0  0  0  0
  3  1  1  0  0  0  0
  4  5  1  0  0  0  0
  5  3  1  0  0  0  0
  6  2  1  0  0  0  0
  7  2  1  0  0  0  0
  8  1  1  0  0  0  0
  9  8  2  0  0  0  0
 10  7  1  0  0  0  0
 11 10  1  0  0  0  0
 12  5  2  0  0  0  0
 13  6  2  0  0  0  0
 14  3  1  0  0  0  0
 15  4  1  0  0  0  0
 16 11  1  0  0  0  0
 17 11  1  0  0  0  0
 18 17  1  0  0  0  0
 19 16  1  0  0  0  0
 20 18  1  0  0  0  0
  9  7  1  0  0  0  0
  4  6  1  0  0  0  0
 20 19  1  0  0  0  0
M  END
>  <IDNUMBER>
F1468-0067

>  <Chemical_Name>
1,3-dimethyl-7-[(piperidin-1-yl)methyl]-2,3,6,7-tetrahydro-1H-purine-2,6-dione

>  <PriceCoeff>
1.50

>  <CAS>
4873-93-2

>  <MW>
277.32

>  <Description>
solid

>  <FSP3>
0.62

>  <clogP>
1.17

>  <TPSA>
61.68

>  <Acceptor>
3

>  <Donor>
2

>  <RotBonds>
2

>  <HAC>
20

>  <Collection>
Advanced

>  <PPDS>
+

$$$$
F1468-0150
  Mrv2219 10102508112D          

 21 23  0  0  0  0            999 V2000
    1.0716   -1.7246    0.0000 C   0  0  0  0  0  0  0  0  0  0  0  0
    1.0716   -0.9084    0.0000 C   0  0  0  0  0  0  0  0  0  0  0  0
    0.3433   -2.1139    0.0000 N   0  0  0  0  0  0  0  0  0  0  0  0
   -0.3976   -0.9084    0.0000 N   0  0  0  0  0  0  0  0  0  0  0  0
   -0.3976   -1.7246    0.0000 C   0  0  0  0  0  0  0  0  0  0  0  0
    0.3433   -0.5065    0.0000 C   0  0  0  0  0  0  0  0  0  0  0  0
    1.9256   -0.5944    0.0000 N   0  0  0  0  0  0  0  0  0  0  0  0
    1.8753   -1.9590    0.0000 N   0  0  0  0  0  0  0  0  0  0  0  0
    2.3525   -1.2977    0.0000 C   0  0  0  0  0  0  0  0  0  0  0  0
    1.9256    0.2344    0.0000 C   0  0  0  0  0  0  0  0  0  0  0  0
    2.6372    0.6488    0.0000 N   0  0  0  0  0  0  0  0  0  0  0  0
   -1.1428   -2.1139    0.0000 O   0  0  0  0  0  0  0  0  0  0  0  0
    0.3433    0.3139    0.0000 O   0  0  0  0  0  0  0  0  0  0  0  0
    0.3433   -2.9260    0.0000 C   0  0  0  0  0  0  0  0  0  0  0  0
   -1.1134   -0.4814    0.0000 C   0  0  0  0  0  0  0  0  0  0  0  0
    3.3446    0.2344    0.0000 C   0  0  0  0  0  0  0  0  0  0  0  0
    2.6288    1.4693    0.0000 C   0  0  0  0  0  0  0  0  0  0  0  0
    4.0604    0.6488    0.0000 C   0  0  0  0  0  0  0  0  0  0  0  0
    3.3446    1.8795    0.0000 C   0  0  0  0  0  0  0  0  0  0  0  0
    4.0604    1.4693    0.0000 C   0  0  0  0  0  0  0  0  0  0  0  0
    4.7762    0.2344    0.0000 C   0  0  0  0  0  0  0  0  0  0  0  0
  2  1  2  0  0  0  0
  3  1  1  0  0  0  0
  4  5  1  0  0  0  0
  5  3  1  0  0  0  0
  6  2  1  0  0  0  0
  7  2  1  0  0  0  0
  8  1  1  0  0  0  0
  9  8  2  0  0  0  0
 10  7  1  0  0  0  0
 11 10  1  0  0  0  0
 12  5  2  0  0  0  0
 13  6  2  0  0  0  0
 14  3  1  0  0  0  0
 15  4  1  0  0  0  0
 16 11  1  0  0  0  0
 17 11  1  0  0  0  0
 18 16  1  0  0  0  0
 19 17  1  0  0  0  0
 20 19  1  0  0  0  0
 21 18  1  0  0  0  0
  9  7  1  0  0  0  0
  6  4  1  0  0  0  0
 18 20  1  0  0  0  0
M  END
>  <IDNUMBER>
F1468-0150

>  <Chemical_Name>
1,3-dimethyl-7-[(3-methylpiperidin-1-yl)methyl]-2,3,6,7-tetrahydro-1H-purine-2,6-dione

>  <PriceCoeff>
1.50

>  <CAS>
586997-00-4

>  <MW>
291.35

>  <Description>
solid

>  <FSP3>
0.64

>  <clogP>
1.57

>  <TPSA>
61.68

>  <Acceptor>
3

>  <Donor>
2

>  <RotBonds>
2

>  <HAC>
21

>  <Collection>
Advanced

>  <PPDS>
+

$$$$
F1481-0015
  Mrv2219 10102508112D          

 32 34  0  0  0  0            999 V2000
    0.9481   -0.7901    0.0000 N   0  0  0  0  0  0  0  0  0  0  0  0
    0.4658   -1.4513    0.0000 C   0  0  0  0  0  0  0  0  0  0  0  0
    0.4658   -0.1165    0.0000 C   0  0  0  0  0  0  0  0  0  0  0  0
   -0.3119   -1.1893    0.0000 C   0  0  0  0  0  0  0  0  0  0  0  0
   -0.3077   -0.3618    0.0000 C   0  0  0  0  0  0  0  0  0  0  0  0
    1.7839   -0.7901    0.0000 C   0  0  0  0  0  0  0  0  0  0  0  0
    2.1873   -1.5095    0.0000 C   0  0  0  0  0  0  0  0  0  0  0  0
    3.4223   -2.2205    0.0000 N   0  0  0  0  0  0  0  0  0  0  0  0
    0.6487    0.6861    0.0000 C   0  0  0  0  0  0  0  0  0  0  0  0
    0.6362   -2.2497    0.0000 C   0  0  0  0  0  0  0  0  0  0  0  0
   -0.9189   -1.7465    0.0000 C   0  0  0  0  0  0  0  0  0  0  0  0
   -0.9189    0.1871    0.0000 C   0  0  0  0  0  0  0  0  0  0  0  0
    1.7714   -2.2205    0.0000 O   0  0  0  0  0  0  0  0  0  0  0  0
    3.0106   -1.5095    0.0000 C   0  0  0  0  0  0  0  0  0  0  0  0
    4.2539   -2.2205    0.0000 C   0  0  0  0  0  0  0  0  0  0  0  0
    5.4931   -2.9483    0.0000 C   0  0  0  0  0  0  0  0  0  0  0  0
    4.6656   -2.9483    0.0000 C   0  0  0  0  0  0  0  0  0  0  0  0
   -0.7443    0.9980    0.0000 C   0  0  0  0  0  0  0  0  0  0  0  0
    0.0167   -2.7986    0.0000 C   0  0  0  0  0  0  0  0  0  0  0  0
    0.0416    1.2350    0.0000 C   0  0  0  0  0  0  0  0  0  0  0  0
   -0.7568   -2.5366    0.0000 C   0  0  0  0  0  0  0  0  0  0  0  0
    5.9006   -2.2372    0.0000 C   0  0  0  0  0  0  0  0  0  0  0  0
    5.8923   -3.6718    0.0000 C   0  0  0  0  0  0  0  0  0  0  0  0
    9.0480   -0.6311    0.0000 C   0  0  0  0  0  0  0  0  0  0  0  0
    8.7468    0.1396    0.0000 O   0  0  0  0  0  0  0  0  0  0  0  0
    8.5298   -1.2761    0.0000 C   0  0  0  0  0  0  0  0  0  0  0  0
    9.8603   -0.7507    0.0000 O   0  0  0  0  0  0  0  0  0  0  0  0
    7.7106   -1.1503    0.0000 C   0  0  0  0  0  0  0  0  0  0  0  0
    8.8270   -2.0484    0.0000 C   0  0  0  0  0  0  0  0  0  0  0  0
    7.1909   -1.7914    0.0000 C   0  0  0  0  0  0  0  0  0  0  0  0
    8.3051   -2.6949    0.0000 C   0  0  0  0  0  0  0  0  0  0  0  0
    7.4882   -2.5637    0.0000 C   0  0  0  0  0  0  0  0  0  0  0  0
 11  4  1  0  0  0  0
 12  5  1  0  0  0  0
 13  7  1  0  0  0  0
 14  7  1  0  0  0  0
 15  8  1  0  0  0  0
 16 17  1  0  0  0  0
 17 15  1  0  0  0  0
 18 20  1  0  0  0  0
 19 10  2  0  0  0  0
 20  9  2  0  0  0  0
 21 19  1  0  0  0  0
 22 16  1  0  0  0  0
 23 16  1  0  0  0  0
  5  4  1  0  0  0  0
 18 12  2  0  0  0  0
 21 11  2  0  0  0  0
  2  1  1  0  0  0  0
  3  1  1  0  0  0  0
  4  2  2  0  0  0  0
  5  3  2  0  0  0  0
  6  1  1  0  0  0  0
  7  6  1  0  0  0  0
  8 14  1  0  0  0  0
  9  3  1  0  0  0  0
 10  2  1  0  0  0  0
 25 24  2  0  0  0  0
 26 24  1  0  0  0  0
 27 24  1  0  0  0  0
 28 26  2  0  0  0  0
 29 26  1  0  0  0  0
 30 28  1  0  0  0  0
 31 29  2  0  0  0  0
 32 31  1  0  0  0  0
 32 30  2  0  0  0  0
M  END
>  <IDNUMBER>
F1481-0015

>  <Chemical_Name>
1-(9H-carbazol-9-yl)-3-[(3-methylbutyl)amino]propan-2-ol; benzoic acid

>  <PriceCoeff>
1.00

>  <CAS>
479542-47-7

>  <MW>
310.43

>  <Description>
solid

>  <FSP3>
0.40

>  <clogP>
4.69

>  <TPSA>
37.19

>  <Acceptor>
1

>  <Donor>
2

>  <RotBonds>
7

>  <HAC>
23

>  <Collection>
General

$$$$
F1529-0100
  Mrv2219 10102508112D          

 30 33  0  0  0  0            999 V2000
    4.2250   -3.3792    0.0000 C   0  0  0  0  0  0  0  0  0  0  0  0
    4.2250   -2.5500    0.0000 N   0  0  0  0  0  0  0  0  0  0  0  0
    3.5042   -3.7917    0.0000 N   0  0  0  0  0  0  0  0  0  0  0  0
    4.9375   -3.7917    0.0000 C   0  0  0  0  0  0  0  0  0  0  0  0
    3.5042   -2.1292    0.0000 C   0  0  0  0  0  0  0  0  0  0  0  0
   10.9500   -3.7250    0.0000 N   0  3  0  0  0  0  0  0  0  0  0  0
    7.6667   -4.0667    0.0000 C   0  0  0  0  0  0  0  0  0  0  0  0
    2.7917   -2.5500    0.0000 C   0  0  0  0  0  0  0  0  0  0  0  0
    8.4917   -3.9875    0.0000 C   0  0  0  0  0  0  0  0  0  0  0  0
    2.7875   -3.3750    0.0000 C   0  0  0  0  0  0  0  0  0  0  0  0
    7.1167   -3.4542    0.0000 O   0  0  0  0  0  0  0  0  0  0  0  0
    5.6500   -3.3792    0.0000 C   0  0  0  0  0  0  0  0  0  0  0  0
    6.3625   -3.7917    0.0000 C   0  0  0  0  0  0  0  0  0  0  0  0
    8.8250   -3.2292    0.0000 C   0  0  0  0  0  0  0  0  0  0  0  0
   10.1292   -3.8167    0.0000 C   0  0  0  0  0  0  0  0  0  0  0  0
    9.6417   -3.1417    0.0000 C   0  0  0  0  0  0  0  0  0  0  0  0
    7.2542   -4.7792    0.0000 C   0  0  0  0  0  0  0  0  0  0  0  0
    4.9375   -4.6167    0.0000 C   0  0  0  0  0  0  0  0  0  0  0  0
    4.9250   -5.4417    0.0000 N   0  0  0  0  0  0  0  0  0  0  0  0
    6.4542   -4.6125    0.0000 C   0  0  0  0  0  0  0  0  0  0  0  0
    8.9750   -4.6542    0.0000 C   0  0  0  0  0  0  0  0  0  0  0  0
   11.4375   -4.3917    0.0000 O   0  5  0  0  0  0  0  0  0  0  0  0
   11.2875   -2.9667    0.0000 O   0  0  0  0  0  0  0  0  0  0  0  0
    3.5042   -1.3042    0.0000 O   0  0  0  0  0  0  0  0  0  0  0  0
    9.7917   -4.5667    0.0000 C   0  0  0  0  0  0  0  0  0  0  0  0
    8.2375   -2.6417    0.0000 Cl  0  0  0  0  0  0  0  0  0  0  0  0
    2.0667   -2.1375    0.0000 C   0  0  0  0  0  0  0  0  0  0  0  0
    2.0667   -3.7917    0.0000 C   0  0  0  0  0  0  0  0  0  0  0  0
    1.3625   -2.5542    0.0000 C   0  0  0  0  0  0  0  0  0  0  0  0
    1.3625   -3.3792    0.0000 C   0  0  0  0  0  0  0  0  0  0  0  0
  2  1  1  0  0  0  0
  3  1  2  0  0  0  0
  4  1  1  0  0  0  0
  5  2  1  0  0  0  0
  6 15  1  0  0  0  0
  7 11  1  0  0  0  0
  8 10  1  0  0  0  0
  9  7  1  0  0  0  0
 10  3  1  0  0  0  0
 11 13  1  0  0  0  0
 12  4  2  0  0  0  0
 13 12  1  0  0  0  0
 14  9  1  0  0  0  0
 15 25  2  0  0  0  0
 16 14  2  0  0  0  0
 17 20  1  0  0  0  0
 18  4  1  0  0  0  0
 19 18  3  0  0  0  0
 20 13  2  0  0  0  0
 21  9  2  0  0  0  0
 22  6  1  0  0  0  0
 23  6  2  0  0  0  0
 24  5  2  0  0  0  0
 25 21  1  0  0  0  0
 26 14  1  0  0  0  0
 27  8  2  0  0  0  0
 28 10  2  0  0  0  0
 29 30  2  0  0  0  0
 30 28  1  0  0  0  0
  8  5  1  0  0  0  0
 17  7  2  0  0  0  0
 27 29  1  0  0  0  0
 15 16  1  0  0  0  0
M  CHG  2   6   1  22  -1
M  END
>  <IDNUMBER>
F1529-0100

>  <Chemical_Name>
(2E)-3-[5-(2-chloro-4-nitrophenyl)furan-2-yl]-2-(4-oxo-3,4-dihydroquinazolin-2-yl)prop-2-enenitrile

>  <PriceCoeff>
1.00

>  <CAS>
627890-83-9

>  <MW>
418.79

>  <Description>
solid

>  <FSP3>
0.00

>  <clogP>
3.10

>  <TPSA>
121.53

>  <Acceptor>
7

>  <Donor>
2

>  <RotBonds>
4

>  <HAC>
30

>  <Collection>
General

>  <PPDS>
+

$$$$
F1529-0125
  Mrv2219 10102508112D          

 28 30  0  0  0  0            999 V2000
    5.4105   -4.3835    0.0000 C   0  0  0  0  0  0  0  0  0  0  0  0
   10.2449   -0.7932    0.0000 N   0  3  0  0  0  0  0  0  0  0  0  0
    7.7818   -2.9975    0.0000 C   0  0  0  0  0  0  0  0  0  0  0  0
    8.3955   -2.4465    0.0000 C   0  0  0  0  0  0  0  0  0  0  0  0
    6.9802   -2.8222    0.0000 O   0  0  0  0  0  0  0  0  0  0  0  0
    4.5881   -4.4712    0.0000 C   0  0  0  0  0  0  0  0  0  0  0  0
    5.7487   -3.6237    0.0000 C   0  0  0  0  0  0  0  0  0  0  0  0
    6.5669   -3.5444    0.0000 C   0  0  0  0  0  0  0  0  0  0  0  0
    9.1846   -2.7095    0.0000 C   0  0  0  0  0  0  0  0  0  0  0  0
    9.6312   -1.3443    0.0000 C   0  0  0  0  0  0  0  0  0  0  0  0
    9.7982   -2.1584    0.0000 C   0  0  0  0  0  0  0  0  0  0  0  0
    7.8695   -3.8199    0.0000 C   0  0  0  0  0  0  0  0  0  0  0  0
    5.8907   -5.0515    0.0000 C   0  0  0  0  0  0  0  0  0  0  0  0
    6.4793   -5.6402    0.0000 N   0  0  0  0  0  0  0  0  0  0  0  0
    7.1180   -4.1498    0.0000 C   0  0  0  0  0  0  0  0  0  0  0  0
    4.0997   -3.7990    0.0000 N   0  0  0  0  0  0  0  0  0  0  0  0
    8.2285   -1.6449    0.0000 C   0  0  0  0  0  0  0  0  0  0  0  0
   11.0256   -1.0438    0.0000 O   0  5  0  0  0  0  0  0  0  0  0  0
    2.7930   -3.2188    0.0000 C   0  0  0  0  0  0  0  0  0  0  0  0
   10.0737    0.0208    0.0000 O   0  0  0  0  0  0  0  0  0  0  0  0
    1.9663   -3.2188    0.0000 O   0  0  0  0  0  0  0  0  0  0  0  0
    8.8422   -1.0939    0.0000 C   0  0  0  0  0  0  0  0  0  0  0  0
    4.2500   -5.2226    0.0000 O   0  0  0  0  0  0  0  0  0  0  0  0
    3.0476   -2.4298    0.0000 C   0  0  0  0  0  0  0  0  0  0  0  0
    1.7158   -2.4298    0.0000 C   0  0  0  0  0  0  0  0  0  0  0  0
    2.3796   -1.9455    0.0000 C   0  0  0  0  0  0  0  0  0  0  0  0
    3.2814   -3.8867    0.0000 C   0  0  0  0  0  0  0  0  0  0  0  0
    9.3975   -3.5068    0.0000 Cl  0  0  0  0  0  0  0  0  0  0  0  0
  2 10  1  0  0  0  0
  3  5  1  0  0  0  0
  4  3  1  0  0  0  0
  5  8  1  0  0  0  0
  6  1  1  0  0  0  0
  7  1  2  0  0  0  0
  8  7  1  0  0  0  0
  9  4  2  0  0  0  0
 10 22  1  0  0  0  0
 11  9  1  0  0  0  0
 12 15  1  0  0  0  0
 13  1  1  0  0  0  0
 14 13  3  0  0  0  0
 15  8  2  0  0  0  0
 16  6  1  0  0  0  0
 17  4  1  0  0  0  0
 18  2  1  0  0  0  0
 19 27  1  0  0  0  0
 20  2  2  0  0  0  0
 21 19  1  0  0  0  0
 22 17  2  0  0  0  0
 23  6  2  0  0  0  0
 24 19  2  0  0  0  0
 25 21  1  0  0  0  0
 26 24  1  0  0  0  0
 27 16  1  0  0  0  0
 28  9  1  0  0  0  0
 12  3  2  0  0  0  0
 25 26  2  0  0  0  0
 11 10  2  0  0  0  0
M  CHG  2   2   1  18  -1
M  END
>  <IDNUMBER>
F1529-0125

>  <Chemical_Name>
(2E)-3-[5-(2-chloro-4-nitrophenyl)furan-2-yl]-2-cyano-N-[(furan-2-yl)methyl]prop-2-enamide

>  <PriceCoeff>
1.00

>  <CAS>
340271-99-0

>  <MW>
397.77

>  <Description>
solid

>  <FSP3>
0.05

>  <clogP>
3.59

>  <TPSA>
122.31

>  <Acceptor>
6

>  <Donor>
1

>  <RotBonds>
6

>  <HAC>
28

>  <Collection>
General

>  <PPDS>
+

$$$$
F1533-0348
  Mrv2219 10102508112D          

 18 19  0  0  0  0            999 V2000
   10.0500  -17.1412    0.0000 C   0  0  0  0  0  0  0  0  0  0  0  0
    9.3384  -17.5574    0.0000 N   0  0  0  0  0  0  0  0  0  0  0  0
   10.7659  -17.5449    0.0000 N   0  0  0  0  0  0  0  0  0  0  0  0
   10.0417  -16.3173    0.0000 S   0  0  0  0  0  0  0  0  0  0  0  0
   11.4775  -17.1288    0.0000 C   0  0  0  0  0  0  0  0  0  0  0  0
   12.1891  -17.5408    0.0000 C   0  0  0  0  0  0  0  0  0  0  0  0
   12.9007  -17.1205    0.0000 C   0  0  0  0  0  0  0  0  0  0  0  0
    8.6185  -17.1454    0.0000 C   0  0  0  0  0  0  0  0  0  0  0  0
    9.3426  -18.3814    0.0000 C   0  0  0  0  0  0  0  0  0  0  0  0
   13.6123  -17.5283    0.0000 O   0  0  0  0  0  0  0  0  0  0  0  0
   12.1724  -15.8845    0.0000 C   0  0  0  0  0  0  0  0  0  0  0  0
   11.4650  -16.3090    0.0000 C   0  0  0  0  0  0  0  0  0  0  0  0
   12.8965  -16.2923    0.0000 C   0  0  0  0  0  0  0  0  0  0  0  0
   14.3239  -17.1080    0.0000 C   0  0  0  0  0  0  0  0  0  0  0  0
    7.9069  -17.5657    0.0000 C   0  0  0  0  0  0  0  0  0  0  0  0
    8.6310  -18.7934    0.0000 C   0  0  0  0  0  0  0  0  0  0  0  0
    7.9152  -18.3814    0.0000 C   0  0  0  0  0  0  0  0  0  0  0  0
   10.7659  -18.3689    0.0000 H   0  0  0  0  0  0  0  0  0  0  0  0
  2  1  1  0  0  0  0
  3  1  1  0  0  0  0
  4  1  2  0  0  0  0
  5  3  1  0  0  0  0
  6  5  2  0  0  0  0
  7  6  1  0  0  0  0
  8  2  1  0  0  0  0
  9  2  1  0  0  0  0
 10  7  1  0  0  0  0
 11 12  2  0  0  0  0
 12  5  1  0  0  0  0
 13 11  1  0  0  0  0
 14 10  1  0  0  0  0
 15  8  1  0  0  0  0
 16  9  1  0  0  0  0
 17 16  1  0  0  0  0
 18  3  1  0  0  0  0
 15 17  1  0  0  0  0
  7 13  2  0  0  0  0
M  END
>  <IDNUMBER>
F1533-0348

>  <Chemical_Name>
N-(3-methoxyphenyl)piperidine-1-carbothioamide

>  <PriceCoeff>
1.00

>  <CAS>
501077-56-1

>  <MW>
250.36

>  <Description>
solid

>  <FSP3>
0.46

>  <clogP>
2.91

>  <TPSA>
56.59

>  <Acceptor>
2

>  <Donor>
2

>  <RotBonds>
3

>  <HAC>
17

>  <Collection>
General

>  <PPDS>
+

$$$$
F1533-0356
  Mrv2219 10102508112D          

 19 19  0  0  0  0            999 V2000
    9.1804    1.9226    0.0000 C   0  0  0  0  0  0  0  0  0  0  0  0
    9.5757    1.1985    0.0000 N   0  0  0  0  0  0  0  0  0  0  0  0
    9.6049    2.6301    0.0000 S   0  0  0  0  0  0  0  0  0  0  0  0
   10.3997    1.1860    0.0000 C   0  0  0  0  0  0  0  0  0  0  0  0
   10.8159    1.8935    0.0000 C   0  0  0  0  0  0  0  0  0  0  0  0
    8.3564    1.9434    0.0000 N   0  0  0  0  0  0  0  0  0  0  0  0
   11.6482    1.8810    0.0000 C   0  0  0  0  0  0  0  0  0  0  0  0
    6.7043    1.9851    0.0000 N   0  0  0  0  0  0  0  0  0  0  0  0
    7.9569    2.6717    0.0000 C   0  0  0  0  0  0  0  0  0  0  0  0
   12.0727    2.5843    0.0000 O   0  0  0  0  0  0  0  0  0  0  0  0
   11.6232    0.4453    0.0000 C   0  0  0  0  0  0  0  0  0  0  0  0
   10.7992    0.4577    0.0000 C   0  0  0  0  0  0  0  0  0  0  0  0
    7.1329    2.6925    0.0000 C   0  0  0  0  0  0  0  0  0  0  0  0
   12.0519    1.1569    0.0000 C   0  0  0  0  0  0  0  0  0  0  0  0
    7.1038    1.2610    0.0000 C   0  0  0  0  0  0  0  0  0  0  0  0
    5.8845    2.0058    0.0000 C   0  0  0  0  0  0  0  0  0  0  0  0
   11.6732    3.3042    0.0000 C   0  0  0  0  0  0  0  0  0  0  0  0
    7.9278    1.2443    0.0000 H   0  0  0  0  0  0  0  0  0  0  0  0
    9.1513    0.4994    0.0000 H   0  0  0  0  0  0  0  0  0  0  0  0
  2  1  1  0  0  0  0
  3  1  2  0  0  0  0
  4  2  1  0  0  0  0
  5  4  1  0  0  0  0
  6  1  1  0  0  0  0
  7  5  2  0  0  0  0
  8 13  1  0  0  0  0
  9  6  1  0  0  0  0
 10  7  1  0  0  0  0
 11 12  1  0  0  0  0
 12  4  2  0  0  0  0
 13  9  1  0  0  0  0
 14 11  2  0  0  0  0
 15  8  1  0  0  0  0
 16  8  1  0  0  0  0
 17 10  1  0  0  0  0
 18  6  1  0  0  0  0
 19  2  1  0  0  0  0
  7 14  1  0  0  0  0
M  END
>  <IDNUMBER>
F1533-0356

>  <Chemical_Name>
3-[2-(dimethylamino)ethyl]-1-(3-methoxyphenyl)thiourea

>  <PriceCoeff>
1.00

>  <CAS>
502888-30-4

>  <MW>
253.36

>  <Description>
solid

>  <FSP3>
0.42

>  <clogP>
1.39

>  <TPSA>
68.62

>  <Acceptor>
2

>  <Donor>
3

>  <RotBonds>
5

>  <HAC>
17

>  <Collection>
General

>  <PPDS>
+

$$$$
F1533-0357
  Mrv2219 10102508112D          

 22 23  0  0  0  0            999 V2000
    0.5249   -2.3622    0.0000 C   0  0  0  0  0  0  0  0  0  0  0  0
    0.9166   -3.0871    0.0000 N   0  0  0  0  0  0  0  0  0  0  0  0
   -1.9581   -2.2997    0.0000 N   0  0  0  0  0  0  0  0  0  0  0  0
    0.9541   -1.6540    0.0000 S   0  0  0  0  0  0  0  0  0  0  0  0
    1.7498   -3.0996    0.0000 C   0  0  0  0  0  0  0  0  0  0  0  0
    2.1665   -2.3914    0.0000 C   0  0  0  0  0  0  0  0  0  0  0  0
   -0.3000   -2.3414    0.0000 N   0  0  0  0  0  0  0  0  0  0  0  0
   -2.7955   -3.7288    0.0000 O   0  0  0  0  0  0  0  0  0  0  0  0
    2.9914   -2.4039    0.0000 C   0  0  0  0  0  0  0  0  0  0  0  0
   -0.6999   -1.6123    0.0000 C   0  0  0  0  0  0  0  0  0  0  0  0
   -1.5206   -1.5915    0.0000 C   0  0  0  0  0  0  0  0  0  0  0  0
    3.4163   -1.6998    0.0000 O   0  0  0  0  0  0  0  0  0  0  0  0
   -1.5581   -3.0247    0.0000 C   0  0  0  0  0  0  0  0  0  0  0  0
   -2.7747   -2.2789    0.0000 C   0  0  0  0  0  0  0  0  0  0  0  0
    2.9664   -3.8413    0.0000 C   0  0  0  0  0  0  0  0  0  0  0  0
    2.1415   -3.8288    0.0000 C   0  0  0  0  0  0  0  0  0  0  0  0
   -1.9706   -3.7371    0.0000 C   0  0  0  0  0  0  0  0  0  0  0  0
   -3.1954   -2.9914    0.0000 C   0  0  0  0  0  0  0  0  0  0  0  0
    3.3996   -3.1288    0.0000 C   0  0  0  0  0  0  0  0  0  0  0  0
    3.0164   -0.9791    0.0000 C   0  0  0  0  0  0  0  0  0  0  0  0
   -0.7332   -3.0414    0.0000 H   0  0  0  0  0  0  0  0  0  0  0  0
    0.4916   -3.7871    0.0000 H   0  0  0  0  0  0  0  0  0  0  0  0
  2  1  1  0  0  0  0
  3 11  1  0  0  0  0
  4  1  2  0  0  0  0
  5  2  1  0  0  0  0
  6  5  1  0  0  0  0
  7  1  1  0  0  0  0
  8 18  1  0  0  0  0
  9  6  2  0  0  0  0
 10  7  1  0  0  0  0
 11 10  1  0  0  0  0
 12  9  1  0  0  0  0
 13  3  1  0  0  0  0
 14  3  1  0  0  0  0
 15 16  1  0  0  0  0
 16  5  2  0  0  0  0
 17 13  1  0  0  0  0
 18 14  1  0  0  0  0
 19 15  2  0  0  0  0
 20 12  1  0  0  0  0
 21  7  1  0  0  0  0
 22  2  1  0  0  0  0
  9 19  1  0  0  0  0
 17  8  1  0  0  0  0
M  END
>  <IDNUMBER>
F1533-0357

>  <Chemical_Name>
1-(3-methoxyphenyl)-3-[2-(morpholin-4-yl)ethyl]thiourea

>  <PriceCoeff>
1.00

>  <CAS>
431881-90-2

>  <MW>
295.40

>  <Description>
solid

>  <FSP3>
0.50

>  <clogP>
1.37

>  <TPSA>
77.85

>  <Acceptor>
3

>  <Donor>
3

>  <RotBonds>
5

>  <HAC>
20

>  <Collection>
General

>  <PPDS>
+

$$$$
F1536-0042
  Mrv2219 10102508112D          

 27 29  0  0  0  0            999 V2000
    6.1166   -4.5927    0.0000 C   0  0  0  0  0  0  0  0  0  0  0  0
    0.6669   -4.5529    0.0000 N   0  3  0  0  0  0  0  0  0  0  0  0
    3.8150   -3.5328    0.0000 C   0  0  0  0  0  0  0  0  0  0  0  0
    6.9005   -4.8498    0.0000 C   0  0  0  0  0  0  0  0  0  0  0  0
    3.0311   -3.7878    0.0000 C   0  0  0  0  0  0  0  0  0  0  0  0
    4.4902   -4.0220    0.0000 O   0  0  0  0  0  0  0  0  0  0  0  0
    5.9452   -3.7878    0.0000 C   0  0  0  0  0  0  0  0  0  0  0  0
    5.1571   -3.5328    0.0000 C   0  0  0  0  0  0  0  0  0  0  0  0
    7.0740   -5.6588    0.0000 N   0  0  0  0  0  0  0  0  0  0  0  0
    2.8618   -4.5927    0.0000 C   0  0  0  0  0  0  0  0  0  0  0  0
    1.4612   -4.2958    0.0000 C   0  0  0  0  0  0  0  0  0  0  0  0
    5.4957   -5.1487    0.0000 C   0  0  0  0  0  0  0  0  0  0  0  0
    2.0779   -4.8498    0.0000 C   0  0  0  0  0  0  0  0  0  0  0  0
    4.0722   -2.7489    0.0000 C   0  0  0  0  0  0  0  0  0  0  0  0
    4.8916   -5.7069    0.0000 N   0  0  0  0  0  0  0  0  0  0  0  0
    4.9041   -2.7489    0.0000 C   0  0  0  0  0  0  0  0  0  0  0  0
    2.4207   -3.2318    0.0000 C   0  0  0  0  0  0  0  0  0  0  0  0
    0.0564   -3.9969    0.0000 O   0  5  0  0  0  0  0  0  0  0  0  0
    0.5017   -5.3578    0.0000 O   0  0  0  0  0  0  0  0  0  0  0  0
    7.5088   -4.2958    0.0000 O   0  0  0  0  0  0  0  0  0  0  0  0
    1.6368   -3.4889    0.0000 C   0  0  0  0  0  0  0  0  0  0  0  0
    3.4764   -5.1445    0.0000 Cl  0  0  0  0  0  0  0  0  0  0  0  0
    7.8600   -5.9096    0.0000 C   0  0  0  0  0  0  0  0  0  0  0  0
    6.4594   -6.2086    0.0000 C   0  0  0  0  0  0  0  0  0  0  0  0
    6.6308   -7.0176    0.0000 C   0  0  0  0  0  0  0  0  0  0  0  0
    8.0272   -6.7165    0.0000 C   0  0  0  0  0  0  0  0  0  0  0  0
    7.4147   -7.2747    0.0000 C   0  0  0  0  0  0  0  0  0  0  0  0
  2 11  1  0  0  0  0
  3  6  1  0  0  0  0
  4  1  1  0  0  0  0
  5  3  1  0  0  0  0
  6  8  1  0  0  0  0
  7  1  2  0  0  0  0
  8  7  1  0  0  0  0
  9  4  1  0  0  0  0
 10  5  1  0  0  0  0
 11 21  2  0  0  0  0
 12  1  1  0  0  0  0
 13 10  2  0  0  0  0
 14 16  1  0  0  0  0
 15 12  3  0  0  0  0
 16  8  2  0  0  0  0
 17  5  2  0  0  0  0
 18  2  1  0  0  0  0
 19  2  2  0  0  0  0
 20  4  2  0  0  0  0
 21 17  1  0  0  0  0
 22 10  1  0  0  0  0
 23  9  1  0  0  0  0
 24  9  1  0  0  0  0
 25 24  1  0  0  0  0
 26 23  1  0  0  0  0
 27 25  1  0  0  0  0
  3 14  2  0  0  0  0
 27 26  1  0  0  0  0
 13 11  1  0  0  0  0
M  CHG  2   2   1  18  -1
M  END
>  <IDNUMBER>
F1536-0042

>  <Chemical_Name>
(2E)-3-[5-(2-chloro-4-nitrophenyl)furan-2-yl]-2-[(E)-piperidine-1-carbonyl]prop-2-enenitrile

>  <PriceCoeff>
1.00

>  <CAS>
630090-35-6

>  <MW>
385.80

>  <Description>
solid

>  <FSP3>
0.26

>  <clogP>
4.07

>  <TPSA>
100.38

>  <Acceptor>
5

>  <Donor>
0

>  <RotBonds>
5

>  <HAC>
27

>  <Collection>
General

>  <PPDS>
+

$$$$
F1537-0036
  Mrv2219 10102508112D          

 29 31  0  0  0  0            999 V2000
    5.1907   -1.2579    0.0000 C   0  0  0  0  0  0  0  0  0  0  0  0
    5.1907   -2.0869    0.0000 N   0  3  0  0  0  0  0  0  0  0  0  0
    0.9158    0.4434    0.0000 N   0  0  0  0  0  0  0  0  0  0  0  0
    1.6628    0.0096    0.0000 C   0  0  0  0  0  0  0  0  0  0  0  0
    0.9158   -1.2724    0.0000 S   0  0  0  0  0  0  0  0  0  0  0  0
    1.6628   -0.8435    0.0000 C   0  0  0  0  0  0  0  0  0  0  0  0
   -2.0098    0.4289    0.0000 C   0  0  0  0  0  0  0  0  0  0  0  0
    0.1880    0.0096    0.0000 C   0  0  0  0  0  0  0  0  0  0  0  0
    4.4871   -0.8435    0.0000 C   0  0  0  0  0  0  0  0  0  0  0  0
    2.3713   -1.2483    0.0000 C   0  0  0  0  0  0  0  0  0  0  0  0
    3.0701   -0.8435    0.0000 C   0  0  0  0  0  0  0  0  0  0  0  0
    0.1880   -0.8435    0.0000 C   0  0  0  0  0  0  0  0  0  0  0  0
    3.7786   -1.2483    0.0000 N   0  0  0  0  0  0  0  0  0  0  0  0
   -1.2964    0.0145    0.0000 C   0  0  0  0  0  0  0  0  0  0  0  0
    5.8896   -0.8579    0.0000 C   0  0  0  0  0  0  0  0  0  0  0  0
   -0.5590    0.4434    0.0000 C   0  0  0  0  0  0  0  0  0  0  0  0
    4.4726   -2.5062    0.0000 O   0  5  0  0  0  0  0  0  0  0  0  0
    5.9041   -2.5062    0.0000 O   0  0  0  0  0  0  0  0  0  0  0  0
    2.3713    0.4193    0.0000 O   0  0  0  0  0  0  0  0  0  0  0  0
    3.0701   -0.0338    0.0000 O   0  0  0  0  0  0  0  0  0  0  0  0
   -0.5590   -1.2628    0.0000 C   0  0  0  0  0  0  0  0  0  0  0  0
   -1.2964   -0.8435    0.0000 C   0  0  0  0  0  0  0  0  0  0  0  0
    4.4822   -0.0338    0.0000 C   0  0  0  0  0  0  0  0  0  0  0  0
   -2.6700    0.8048    0.0000 F   0  0  0  0  0  0  0  0  0  0  0  0
   -2.1495    1.2868    0.0000 F   0  0  0  0  0  0  0  0  0  0  0  0
   -2.8195    0.1253    0.0000 F   0  0  0  0  0  0  0  0  0  0  0  0
    5.8896   -0.0338    0.0000 C   0  0  0  0  0  0  0  0  0  0  0  0
    5.1811    0.3711    0.0000 C   0  0  0  0  0  0  0  0  0  0  0  0
    6.6126    0.3711    0.0000 Cl  0  0  0  0  0  0  0  0  0  0  0  0
  2  1  1  0  0  0  0
  3  4  1  0  0  0  0
  4  6  1  0  0  0  0
  5  6  1  0  0  0  0
  6 10  1  0  0  0  0
  7 14  1  0  0  0  0
  8 12  2  0  0  0  0
  9  1  2  0  0  0  0
 10 11  1  0  0  0  0
 11 13  1  0  0  0  0
 12  5  1  0  0  0  0
 13  9  1  0  0  0  0
 14 22  1  0  0  0  0
 15  1  1  0  0  0  0
 16  8  1  0  0  0  0
 17  2  1  0  0  0  0
 18  2  2  0  0  0  0
 19  4  2  0  0  0  0
 20 11  2  0  0  0  0
 21 12  1  0  0  0  0
 22 21  2  0  0  0  0
 23  9  1  0  0  0  0
 24  7  1  0  0  0  0
 25  7  1  0  0  0  0
 26  7  1  0  0  0  0
 27 15  2  0  0  0  0
 28 27  1  0  0  0  0
 29 27  1  0  0  0  0
 28 23  2  0  0  0  0
  3  8  1  0  0  0  0
 14 16  2  0  0  0  0
M  CHG  2   2   1  17  -1
M  END
>  <IDNUMBER>
F1537-0036

>  <Chemical_Name>
N-(4-chloro-2-nitrophenyl)-2-[3-oxo-6-(trifluoromethyl)-3,4-dihydro-2H-1,4-benzothiazin-2-yl]acetamide

>  <PriceCoeff>
1.00

>  <CAS>
670255-11-5

>  <MW>
445.80

>  <Description>
solid

>  <FSP3>
0.18

>  <clogP>
4.25

>  <TPSA>
126.64

>  <Acceptor>
4

>  <Donor>
2

>  <RotBonds>
4

>  <HAC>
29

>  <Collection>
General

>  <PPDS>
+

$$$$
F1537-0041
  Mrv2219 10102508112D          

 30 33  0  0  0  0            999 V2000
    1.4922   -0.9579    0.0000 N   0  0  0  0  0  0  0  0  0  0  0  0
    2.1949   -0.4621    0.0000 C   0  0  0  0  0  0  0  0  0  0  0  0
    1.7617   -1.7810    0.0000 C   0  0  0  0  0  0  0  0  0  0  0  0
    2.6186   -1.7810    0.0000 C   0  0  0  0  0  0  0  0  0  0  0  0
    2.8881   -0.9579    0.0000 C   0  0  0  0  0  0  0  0  0  0  0  0
    0.7124   -0.7124    0.0000 C   0  0  0  0  0  0  0  0  0  0  0  0
    0.5391    0.0962    0.0000 C   0  0  0  0  0  0  0  0  0  0  0  0
    6.3731   -2.1132    0.0000 N   0  0  0  0  0  0  0  0  0  0  0  0
    3.1095   -2.4453    0.0000 N   0  0  0  0  0  0  0  0  0  0  0  0
   -0.2406    0.3466    0.0000 C   0  0  0  0  0  0  0  0  0  0  0  0
    0.1011   -1.2612    0.0000 C   0  0  0  0  0  0  0  0  0  0  0  0
    2.1854    0.3610    0.0000 O   0  0  0  0  0  0  0  0  0  0  0  0
    5.5596   -2.1949    0.0000 C   0  0  0  0  0  0  0  0  0  0  0  0
    1.2756   -2.4453    0.0000 O   0  0  0  0  0  0  0  0  0  0  0  0
    8.0144   -1.9399    0.0000 O   0  0  0  0  0  0  0  0  0  0  0  0
    5.2178   -2.9458    0.0000 C   0  0  0  0  0  0  0  0  0  0  0  0
    5.0686   -1.5211    0.0000 C   0  0  0  0  0  0  0  0  0  0  0  0
    3.9278   -2.3586    0.0000 C   0  0  0  0  0  0  0  0  0  0  0  0
   -0.8471   -0.2022    0.0000 C   0  0  0  0  0  0  0  0  0  0  0  0
   -0.6787   -1.0108    0.0000 C   0  0  0  0  0  0  0  0  0  0  0  0
    1.1601    0.6498    0.0000 O   0  0  0  0  0  0  0  0  0  0  0  0
    4.2503   -1.6077    0.0000 C   0  0  0  0  0  0  0  0  0  0  0  0
    4.4043   -3.0325    0.0000 C   0  0  0  0  0  0  0  0  0  0  0  0
    6.7052   -1.3623    0.0000 C   0  0  0  0  0  0  0  0  0  0  0  0
    6.8592   -2.7774    0.0000 C   0  0  0  0  0  0  0  0  0  0  0  0
   -1.6414    0.0529    0.0000 O   0  0  0  0  0  0  0  0  0  0  0  0
    7.5283   -1.2756    0.0000 C   0  0  0  0  0  0  0  0  0  0  0  0
    7.6727   -2.6908    0.0000 C   0  0  0  0  0  0  0  0  0  0  0  0
    0.9868    1.4585    0.0000 C   0  0  0  0  0  0  0  0  0  0  0  0
   -2.2479   -0.5054    0.0000 C   0  0  0  0  0  0  0  0  0  0  0  0
  2  1  1  0  0  0  0
  3  1  1  0  0  0  0
  4  3  1  0  0  0  0
  5  2  1  0  0  0  0
  6  1  1  0  0  0  0
  7  6  2  0  0  0  0
  8 13  1  0  0  0  0
  9  4  1  0  0  0  0
 10  7  1  0  0  0  0
 11  6  1  0  0  0  0
 12  2  2  0  0  0  0
 13 16  2  0  0  0  0
 14  3  2  0  0  0  0
 15 28  1  0  0  0  0
 16 23  1  0  0  0  0
 17 22  2  0  0  0  0
 18  9  1  0  0  0  0
 19 20  1  0  0  0  0
 20 11  2  0  0  0  0
 21  7  1  0  0  0  0
 22 18  1  0  0  0  0
 23 18  2  0  0  0  0
 24  8  1  0  0  0  0
 25  8  1  0  0  0  0
 26 19  1  0  0  0  0
 27 24  1  0  0  0  0
 28 25  1  0  0  0  0
 29 21  1  0  0  0  0
 30 26  1  0  0  0  0
  5  4  1  0  0  0  0
 19 10  2  0  0  0  0
 13 17  1  0  0  0  0
 15 27  1  0  0  0  0
M  END
>  <IDNUMBER>
F1537-0041

>  <Chemical_Name>
1-(2,4-dimethoxyphenyl)-3-{[4-(morpholin-4-yl)phenyl]amino}pyrrolidine-2,5-dione

>  <PriceCoeff>
1.00

>  <CAS>
1008935-48-5

>  <MW>
411.45

>  <Description>
solid

>  <FSP3>
0.36

>  <clogP>
2.06

>  <TPSA>
80.34

>  <Acceptor>
7

>  <Donor>
2

>  <RotBonds>
6

>  <HAC>
30

>  <Collection>
General

>  <PPDS>
+

$$$$
F1552-0073
  Mrv2219 10102508112D          

 29 32  0  0  0  0            999 V2000
    1.7667   -4.7792    0.0000 N   0  0  0  0  0  0  0  0  0  0  0  0
    1.1042   -5.2625    0.0000 C   0  0  0  0  0  0  0  0  0  0  0  0
    2.4375   -5.2625    0.0000 C   0  0  0  0  0  0  0  0  0  0  0  0
    3.6292   -8.0417    0.0000 C   0  0  0  0  0  0  0  0  0  0  0  0
    2.8125   -8.1292    0.0000 C   0  0  0  0  0  0  0  0  0  0  0  0
    2.1792   -6.0500    0.0000 C   0  0  0  0  0  0  0  0  0  0  0  0
    1.3542   -6.0500    0.0000 C   0  0  0  0  0  0  0  0  0  0  0  0
    2.6667   -6.7167    0.0000 S   0  0  0  0  0  0  0  0  0  0  0  0
    4.1167   -8.7042    0.0000 N   0  0  0  0  0  0  0  0  0  0  0  0
    2.3292   -7.4667    0.0000 C   0  0  0  0  0  0  0  0  0  0  0  0
    1.7667   -3.9542    0.0000 C   0  0  0  0  0  0  0  0  0  0  0  0
    0.3167   -5.0042    0.0000 O   0  0  0  0  0  0  0  0  0  0  0  0
    3.2250   -5.0042    0.0000 O   0  0  0  0  0  0  0  0  0  0  0  0
    3.9667   -7.2875    0.0000 O   0  0  0  0  0  0  0  0  0  0  0  0
    5.0875  -10.0417    0.0000 O   0  0  0  0  0  0  0  0  0  0  0  0
    1.0542   -3.5417    0.0000 C   0  0  0  0  0  0  0  0  0  0  0  0
    2.4792   -3.5375    0.0000 C   0  0  0  0  0  0  0  0  0  0  0  0
    2.4792   -8.8792    0.0000 C   0  0  0  0  0  0  0  0  0  0  0  0
    1.0500   -2.7167    0.0000 C   0  0  0  0  0  0  0  0  0  0  0  0
    2.4792   -2.7167    0.0000 C   0  0  0  0  0  0  0  0  0  0  0  0
    1.7667   -2.3042    0.0000 C   0  0  0  0  0  0  0  0  0  0  0  0
    3.7792   -9.4625    0.0000 C   0  0  0  0  0  0  0  0  0  0  0  0
    4.9375   -8.6167    0.0000 C   0  0  0  0  0  0  0  0  0  0  0  0
    1.5042   -7.5500    0.0000 C   0  0  0  0  0  0  0  0  0  0  0  0
    5.4250   -9.2875    0.0000 C   0  0  0  0  0  0  0  0  0  0  0  0
    4.2667  -10.1250    0.0000 C   0  0  0  0  0  0  0  0  0  0  0  0
    1.7625   -1.4792    0.0000 C   0  0  0  0  0  0  0  0  0  0  0  0
    1.6542   -8.9667    0.0000 C   0  0  0  0  0  0  0  0  0  0  0  0
    1.1667   -8.3042    0.0000 C   0  0  0  0  0  0  0  0  0  0  0  0
  2  1  1  0  0  0  0
  3  1  1  0  0  0  0
  4  5  1  0  0  0  0
  5 10  1  0  0  0  0
  6  3  1  0  0  0  0
  7  2  1  0  0  0  0
  8  6  1  0  0  0  0
  9  4  1  0  0  0  0
 10  8  1  0  0  0  0
 11  1  1  0  0  0  0
 12  2  2  0  0  0  0
 13  3  2  0  0  0  0
 14  4  2  0  0  0  0
 15 25  1  0  0  0  0
 16 11  1  0  0  0  0
 17 11  2  0  0  0  0
 18  5  2  0  0  0  0
 19 16  2  0  0  0  0
 20 17  1  0  0  0  0
 21 20  2  0  0  0  0
 22  9  1  0  0  0  0
 23  9  1  0  0  0  0
 24 10  2  0  0  0  0
 25 23  1  0  0  0  0
 26 22  1  0  0  0  0
 27 21  1  0  0  0  0
 28 29  2  0  0  0  0
 29 24  1  0  0  0  0
  7  6  1  0  0  0  0
 19 21  1  0  0  0  0
 18 28  1  0  0  0  0
 26 15  1  0  0  0  0
M  END
>  <IDNUMBER>
F1552-0073

>  <Chemical_Name>
1-(4-methylphenyl)-3-{[2-(morpholine-4-carbonyl)phenyl]sulfanyl}pyrrolidine-2,5-dione

>  <PriceCoeff>
1.00

>  <CAS>
627482-51-3

>  <MW>
410.49

>  <Description>
solid

>  <FSP3>
0.32

>  <clogP>
2.19

>  <TPSA>
92.22

>  <Acceptor>
4

>  <Donor>
0

>  <RotBonds>
5

>  <HAC>
29

>  <Collection>
General

>  <PPDS>
+

$$$$
F1555-0079
  Mrv2219 10102508112D          

 24 25  0  0  0  0            999 V2000
    1.6640    0.2964    0.0000 C   0  0  0  0  0  0  0  0  0  0  0  0
    1.6640   -0.5308    0.0000 C   0  0  0  0  0  0  0  0  0  0  0  0
    0.9516    0.7124    0.0000 N   0  0  0  0  0  0  0  0  0  0  0  0
    0.2343   -0.5308    0.0000 N   0  0  0  0  0  0  0  0  0  0  0  0
    0.2343    0.2964    0.0000 C   0  0  0  0  0  0  0  0  0  0  0  0
    0.9516   -0.9468    0.0000 C   0  0  0  0  0  0  0  0  0  0  0  0
    2.4435    0.5546    0.0000 N   0  0  0  0  0  0  0  0  0  0  0  0
    2.4435   -0.7890    0.0000 N   0  0  0  0  0  0  0  0  0  0  0  0
    2.9312   -0.1052    0.0000 C   0  0  0  0  0  0  0  0  0  0  0  0
    2.7160   -1.5684    0.0000 C   0  0  0  0  0  0  0  0  0  0  0  0
   -0.4734    0.7029    0.0000 O   0  0  0  0  0  0  0  0  0  0  0  0
    0.9516   -1.7644    0.0000 O   0  0  0  0  0  0  0  0  0  0  0  0
    4.5904   -2.6969    0.0000 N   0  0  0  0  0  0  0  0  0  0  0  0
    3.5194   -1.7406    0.0000 C   0  0  0  0  0  0  0  0  0  0  0  0
    3.7776   -2.5247    0.0000 C   0  0  0  0  0  0  0  0  0  0  0  0
    0.9516    1.5349    0.0000 C   0  0  0  0  0  0  0  0  0  0  0  0
   -0.4734   -0.9468    0.0000 C   0  0  0  0  0  0  0  0  0  0  0  0
    6.2019   -3.0412    0.0000 O   0  0  0  0  0  0  0  0  0  0  0  0
    4.0645   -1.1237    0.0000 O   0  0  0  0  0  0  0  0  0  0  0  0
    4.8391   -3.4763    0.0000 C   0  0  0  0  0  0  0  0  0  0  0  0
    5.1355   -2.0800    0.0000 C   0  0  0  0  0  0  0  0  0  0  0  0
    5.9437   -2.2522    0.0000 C   0  0  0  0  0  0  0  0  0  0  0  0
    5.6424   -3.6485    0.0000 C   0  0  0  0  0  0  0  0  0  0  0  0
    7.9425   -0.9468    0.0000 Cl  0  0  0  0  0  0  0  0  0  0  0  0
  3  1  1  0  0  0  0
  4  5  1  0  0  0  0
  5  3  1  0  0  0  0
  6  2  1  0  0  0  0
  7  1  1  0  0  0  0
  8  2  1  0  0  0  0
  9  7  2  0  0  0  0
 10  8  1  0  0  0  0
 11  5  2  0  0  0  0
 12  6  2  0  0  0  0
 13 15  1  0  0  0  0
 14 10  1  0  0  0  0
 15 14  1  0  0  0  0
 16  3  1  0  0  0  0
 17  4  1  0  0  0  0
 18 22  1  0  0  0  0
 19 14  1  0  0  0  0
 20 13  1  0  0  0  0
 21 13  1  0  0  0  0
 22 21  1  0  0  0  0
 23 20  1  0  0  0  0
  8  9  1  0  0  0  0
  6  4  1  0  0  0  0
 23 18  1  0  0  0  0
  2  1  2  0  0  0  0
M  END
>  <IDNUMBER>
F1555-0079

>  <Chemical_Name>
7-[2-hydroxy-3-(morpholin-4-yl)propyl]-1,3-dimethyl-2,3,6,7-tetrahydro-1H-purine-2,6-dione hydrochloride

>  <PriceCoeff>
1.50

>  <CAS>
1216407-33-8

>  <MW>
323.35

>  <Description>
solid

>  <FSP3>
0.64

>  <clogP>
-0.73

>  <TPSA>
91.14

>  <Acceptor>
5

>  <Donor>
3

>  <RotBonds>
4

>  <HAC>
23

>  <Collection>
Advanced

>  <PPDS>
+

$$$$
F1558-0154
  Mrv2219 10102508112D          

 16 18  0  0  0  0            999 V2000
    0.9484   -0.7779    0.0000 C   0  0  0  0  0  0  0  0  0  0  0  0
    0.4618   -0.1119    0.0000 N   0  0  0  0  0  0  0  0  0  0  0  0
    0.4618   -1.4529    0.0000 N   0  0  0  0  0  0  0  0  0  0  0  0
   -0.3250   -0.3659    0.0000 C   0  0  0  0  0  0  0  0  0  0  0  0
   -0.3250   -1.1989    0.0000 C   0  0  0  0  0  0  0  0  0  0  0  0
    1.7726   -0.7779    0.0000 C   0  0  0  0  0  0  0  0  0  0  0  0
    2.1775   -0.0666    0.0000 C   0  0  0  0  0  0  0  0  0  0  0  0
    2.9892   -0.0666    0.0000 C   0  0  0  0  0  0  0  0  0  0  0  0
    2.1775   -1.4902    0.0000 C   0  0  0  0  0  0  0  0  0  0  0  0
   -1.0461    0.0471    0.0000 C   0  0  0  0  0  0  0  0  0  0  0  0
    3.0008   -1.4902    0.0000 C   0  0  0  0  0  0  0  0  0  0  0  0
   -1.0461   -1.6101    0.0000 C   0  0  0  0  0  0  0  0  0  0  0  0
    3.4101   -0.7779    0.0000 C   0  0  0  0  0  0  0  0  0  0  0  0
    3.4004    0.6501    0.0000 C   0  0  0  0  0  0  0  0  0  0  0  0
   -1.7566   -0.3739    0.0000 C   0  0  0  0  0  0  0  0  0  0  0  0
   -1.7566   -1.1989    0.0000 C   0  0  0  0  0  0  0  0  0  0  0  0
  2  1  2  0  0  0  0
  3  1  1  0  0  0  0
  4  2  1  0  0  0  0
  5  3  1  0  0  0  0
  6  1  1  0  0  0  0
  7  6  1  0  0  0  0
  8  7  2  0  0  0  0
  9  6  2  0  0  0  0
 10  4  2  0  0  0  0
 11  9  1  0  0  0  0
 12  5  2  0  0  0  0
 13 11  2  0  0  0  0
 14  8  1  0  0  0  0
 15 10  1  0  0  0  0
 16 12  1  0  0  0  0
  4  5  1  0  0  0  0
  8 13  1  0  0  0  0
 15 16  2  0  0  0  0
M  END
>  <IDNUMBER>
F1558-0154

>  <Chemical_Name>
2-(3-methylphenyl)-1H-1,3-benzodiazole

>  <PriceCoeff>
1.00

>  <CAS>
6528-83-2

>  <MW>
208.26

>  <Description>
solid

>  <FSP3>
0.07

>  <clogP>
4.16

>  <TPSA>
28.68

>  <Acceptor>
2

>  <Donor>
2

>  <RotBonds>
1

>  <HAC>
16

>  <Collection>
General

>  <PPDS>
+

$$$$
F1558-0186
  Mrv2219 10102508112D          

 16 18  0  0  0  0            999 V2000
   -1.0741    0.5837    0.0000 C   0  0  0  0  0  0  0  0  0  0  0  0
   -1.5605    1.2570    0.0000 N   0  0  0  0  0  0  0  0  0  0  0  0
   -1.5605   -0.0856    0.0000 N   0  0  0  0  0  0  0  0  0  0  0  0
   -2.3544    1.0001    0.0000 C   0  0  0  0  0  0  0  0  0  0  0  0
   -2.3544    0.1595    0.0000 C   0  0  0  0  0  0  0  0  0  0  0  0
   -0.2529    0.5837    0.0000 C   0  0  0  0  0  0  0  0  0  0  0  0
    0.1557    1.3037    0.0000 C   0  0  0  0  0  0  0  0  0  0  0  0
    0.1557   -0.1323    0.0000 C   0  0  0  0  0  0  0  0  0  0  0  0
    0.9690    1.3037    0.0000 C   0  0  0  0  0  0  0  0  0  0  0  0
    0.9807   -0.1323    0.0000 C   0  0  0  0  0  0  0  0  0  0  0  0
    1.3893    0.5837    0.0000 C   0  0  0  0  0  0  0  0  0  0  0  0
   -3.0705    1.4127    0.0000 C   0  0  0  0  0  0  0  0  0  0  0  0
   -3.0705   -0.2491    0.0000 C   0  0  0  0  0  0  0  0  0  0  0  0
    2.2105    0.5915    0.0000 C   0  0  0  0  0  0  0  0  0  0  0  0
   -3.7827    0.1595    0.0000 C   0  0  0  0  0  0  0  0  0  0  0  0
   -3.7827    0.9924    0.0000 C   0  0  0  0  0  0  0  0  0  0  0  0
  2  1  2  0  0  0  0
  3  1  1  0  0  0  0
  4  2  1  0  0  0  0
  5  3  1  0  0  0  0
  6  1  1  0  0  0  0
  7  6  1  0  0  0  0
  8  6  2  0  0  0  0
  9  7  2  0  0  0  0
 10  8  1  0  0  0  0
 11 10  2  0  0  0  0
 12  4  2  0  0  0  0
 13  5  2  0  0  0  0
 14 11  1  0  0  0  0
 15 13  1  0  0  0  0
 16 12  1  0  0  0  0
  4  5  1  0  0  0  0
  9 11  1  0  0  0  0
 16 15  2  0  0  0  0
M  END
>  <IDNUMBER>
F1558-0186

>  <Chemical_Name>
2-(4-methylphenyl)-1H-1,3-benzodiazole

>  <PriceCoeff>
1.00

>  <CAS>
120-03-6

>  <MW>
208.26

>  <Description>
solid

>  <FSP3>
0.07

>  <clogP>
4.16

>  <TPSA>
28.68

>  <Acceptor>
2

>  <Donor>
2

>  <RotBonds>
1

>  <HAC>
16

>  <Collection>
General

>  <PPDS>
+

$$$$
F1567-0169
  Mrv2219 10102508112D          

 18 19  0  0  0  0            999 V2000
    1.1225   -2.5467    0.0000 N   0  0  0  0  0  0  0  0  0  0  0  0
    0.8607   -3.3735    0.0000 C   0  0  0  0  0  0  0  0  0  0  0  0
    1.9082   -2.2966    0.0000 N   0  0  0  0  0  0  0  0  0  0  0  0
    2.5173   -2.8483    0.0000 C   0  0  0  0  0  0  0  0  0  0  0  0
    0.4296   -2.0435    0.0000 C   0  0  0  0  0  0  0  0  0  0  0  0
    3.3029   -2.5879    0.0000 C   0  0  0  0  0  0  0  0  0  0  0  0
    0.0000   -3.3735    0.0000 S   0  0  0  0  0  0  0  0  0  0  0  0
    3.9105   -3.1484    0.0000 C   0  0  0  0  0  0  0  0  0  0  0  0
    3.4662   -1.7934    0.0000 C   0  0  0  0  0  0  0  0  0  0  0  0
   -0.2692   -2.5467    0.0000 C   0  0  0  0  0  0  0  0  0  0  0  0
    4.6843   -2.8909    0.0000 C   0  0  0  0  0  0  0  0  0  0  0  0
    1.3388   -4.0400    0.0000 S   0  0  0  0  0  0  0  0  0  0  0  0
    2.3451   -3.6516    0.0000 O   0  0  0  0  0  0  0  0  0  0  0  0
    0.4208   -1.2241    0.0000 O   0  0  0  0  0  0  0  0  0  0  0  0
    4.8594   -2.0847    0.0000 C   0  0  0  0  0  0  0  0  0  0  0  0
    3.7354   -3.9546    0.0000 Cl  0  0  0  0  0  0  0  0  0  0  0  0
    4.2415   -1.5359    0.0000 C   0  0  0  0  0  0  0  0  0  0  0  0
    5.6495   -1.8287    0.0000 Cl  0  0  0  0  0  0  0  0  0  0  0  0
  2  1  1  0  0  0  0
  3  1  1  0  0  0  0
  4  3  1  0  0  0  0
  5  1  1  0  0  0  0
  6  4  1  0  0  0  0
  7  2  1  0  0  0  0
  8  6  2  0  0  0  0
  9  6  1  0  0  0  0
 10  5  1  0  0  0  0
 11  8  1  0  0  0  0
 12  2  2  0  0  0  0
 13  4  2  0  0  0  0
 14  5  2  0  0  0  0
 15 17  1  0  0  0  0
 16  8  1  0  0  0  0
 17  9  2  0  0  0  0
 18 15  1  0  0  0  0
 10  7  1  0  0  0  0
 11 15  2  0  0  0  0
M  END
>  <IDNUMBER>
F1567-0169

>  <Chemical_Name>
2,4-dichloro-N-(4-oxo-2-sulfanylidene-1,3-thiazolidin-3-yl)benzamide

>  <PriceCoeff>
1.00

>  <CAS>
638138-43-9

>  <MW>
321.20

>  <Description>
solid

>  <FSP3>
0.10

>  <clogP>
2.23

>  <TPSA>
106.80

>  <Acceptor>
3

>  <Donor>
1

>  <RotBonds>
2

>  <HAC>
18

>  <Collection>
General

>  <PPDS>
+

$$$$
F1575-0001
  Mrv2219 10102508112D          

 23 24  0  0  0  0            999 V2000
   -1.3728   -1.8551    0.0000 N   0  3  0  0  0  0  0  0  0  0  0  0
   -0.6541   -1.4422    0.0000 C   0  0  0  0  0  0  0  0  0  0  0  0
    1.4935   -1.8551    0.0000 C   0  0  0  0  0  0  0  0  0  0  0  0
    0.0603   -1.8551    0.0000 C   0  0  0  0  0  0  0  0  0  0  0  0
    0.7746   -1.4422    0.0000 C   0  0  0  0  0  0  0  0  0  0  0  0
    2.2032   -1.4376    0.0000 N   0  0  0  0  0  0  0  0  0  0  0  0
   -0.6541   -0.6164    0.0000 C   0  0  0  0  0  0  0  0  0  0  0  0
   -2.0872   -1.4422    0.0000 O   0  5  0  0  0  0  0  0  0  0  0  0
    5.0650   -3.9016    0.0000 C   0  0  0  0  0  0  0  0  0  0  0  0
   -1.3728   -2.6780    0.0000 O   0  0  0  0  0  0  0  0  0  0  0  0
    5.0650   -3.0758    0.0000 S   0  0  0  0  0  0  0  0  0  0  0  0
    1.4935   -2.6780    0.0000 O   0  0  0  0  0  0  0  0  0  0  0  0
    0.7746   -0.6119    0.0000 C   0  0  0  0  0  0  0  0  0  0  0  0
    0.0603   -0.2004    0.0000 C   0  0  0  0  0  0  0  0  0  0  0  0
    2.9176   -1.8491    0.0000 C   0  0  0  0  0  0  0  0  0  0  0  0
    4.3462   -2.6689    0.0000 C   0  0  0  0  0  0  0  0  0  0  0  0
    5.7869   -4.3145    0.0000 F   0  0  0  0  0  0  0  0  0  0  0  0
    4.3552   -4.3190    0.0000 F   0  0  0  0  0  0  0  0  0  0  0  0
   -1.3683   -0.2004    0.0000 Cl  0  0  0  0  0  0  0  0  0  0  0  0
    2.9176   -2.6735    0.0000 C   0  0  0  0  0  0  0  0  0  0  0  0
    3.6274   -1.4331    0.0000 C   0  0  0  0  0  0  0  0  0  0  0  0
    4.3416   -1.8401    0.0000 C   0  0  0  0  0  0  0  0  0  0  0  0
    3.6319   -3.0803    0.0000 C   0  0  0  0  0  0  0  0  0  0  0  0
  2  1  1  0  0  0  0
  3  5  1  0  0  0  0
  4  2  1  0  0  0  0
  5  4  2  0  0  0  0
  6  3  1  0  0  0  0
  7  2  2  0  0  0  0
  8  1  1  0  0  0  0
  9 11  1  0  0  0  0
 10  1  2  0  0  0  0
 11 16  1  0  0  0  0
 12  3  2  0  0  0  0
 13 14  2  0  0  0  0
 14  7  1  0  0  0  0
 15  6  1  0  0  0  0
 16 22  1  0  0  0  0
 17  9  1  0  0  0  0
 18  9  1  0  0  0  0
 19  7  1  0  0  0  0
 20 15  2  0  0  0  0
 21 15  1  0  0  0  0
 22 21  2  0  0  0  0
 23 20  1  0  0  0  0
 13  5  1  0  0  0  0
 16 23  2  0  0  0  0
M  CHG  2   1   1   8  -1
M  END
>  <IDNUMBER>
F1575-0001

>  <Chemical_Name>
4-chloro-N-{4-[(difluoromethyl)sulfanyl]phenyl}-3-nitrobenzamide

>  <PriceCoeff>
1.00

>  <CAS>
301235-01-8

>  <MW>
358.75

>  <Description>
solid

>  <FSP3>
0.07

>  <clogP>
4.46

>  <TPSA>
97.54

>  <Acceptor>
3

>  <Donor>
1

>  <RotBonds>
5

>  <HAC>
23

>  <Collection>
General

>  <PPDS>
+

$$$$
F1575-0079
  Mrv2219 10102508112D          

 19 20  0  0  0  0            999 V2000
    1.5054   -0.4348    0.0000 C   0  0  0  0  0  0  0  0  0  0  0  0
    0.7862   -0.8473    0.0000 N   0  3  0  0  0  0  0  0  0  0  0  0
    1.5054    0.3901    0.0000 C   0  0  0  0  0  0  0  0  0  0  0  0
    2.2187   -0.8473    0.0000 C   0  0  0  0  0  0  0  0  0  0  0  0
    2.9344   -0.4348    0.0000 C   0  0  0  0  0  0  0  0  0  0  0  0
    2.2187    0.8061    0.0000 C   0  0  0  0  0  0  0  0  0  0  0  0
    2.9344    0.3937    0.0000 C   0  0  0  0  0  0  0  0  0  0  0  0
    0.0717   -0.4348    0.0000 O   0  5  0  0  0  0  0  0  0  0  0  0
    0.7862   -1.6723    0.0000 O   0  0  0  0  0  0  0  0  0  0  0  0
    2.2187    1.6299    0.0000 O   0  0  0  0  0  0  0  0  0  0  0  0
    2.2246   -1.6723    0.0000 Cl  0  0  0  0  0  0  0  0  0  0  0  0
    3.6430    0.8109    0.0000 N   0  0  0  0  0  0  0  0  0  0  0  0
    2.9297    2.0424    0.0000 C   0  0  0  0  0  0  0  0  0  0  0  0
    2.9297    2.8674    0.0000 C   0  0  0  0  0  0  0  0  0  0  0  0
    3.6488    3.2752    0.0000 C   0  0  0  0  0  0  0  0  0  0  0  0
    2.2187    3.2693    0.0000 C   0  0  0  0  0  0  0  0  0  0  0  0
    2.2152    4.0942    0.0000 C   0  0  0  0  0  0  0  0  0  0  0  0
    3.6488    4.1001    0.0000 C   0  0  0  0  0  0  0  0  0  0  0  0
    2.9297    4.5126    0.0000 C   0  0  0  0  0  0  0  0  0  0  0  0
  2  1  1  0  0  0  0
  3  1  2  0  0  0  0
  4  1  1  0  0  0  0
  5  4  2  0  0  0  0
  6  3  1  0  0  0  0
  7  5  1  0  0  0  0
  8  2  1  0  0  0  0
  9  2  2  0  0  0  0
 10  6  1  0  0  0  0
 11  4  1  0  0  0  0
 12  7  1  0  0  0  0
 13 10  1  0  0  0  0
 14 13  1  0  0  0  0
 15 14  2  0  0  0  0
 16 14  1  0  0  0  0
 17 16  2  0  0  0  0
 18 15  1  0  0  0  0
 19 17  1  0  0  0  0
  7  6  2  0  0  0  0
 19 18  2  0  0  0  0
M  CHG  2   2   1   8  -1
M  END
>  <IDNUMBER>
F1575-0079

>  <Chemical_Name>
2-(benzyloxy)-5-chloro-4-nitroaniline

>  <PriceCoeff>
1.00

>  <CAS>
118534-36-4

>  <MW>
278.69

>  <Description>
solid

>  <FSP3>
0.08

>  <clogP>
3.91

>  <TPSA>
78.39

>  <Acceptor>
4

>  <Donor>
1

>  <RotBonds>
4

>  <HAC>
19

>  <Collection>
General

>  <PPDS>
+

$$$$
F1576-0009
  Mrv2219 10102508112D          

 29 32  0  0  0  0            999 V2000
    6.4909   -2.0122    0.0000 C   0  0  0  0  0  0  0  0  0  0  0  0
    6.1580   -2.7660    0.0000 C   0  0  0  0  0  0  0  0  0  0  0  0
    7.2949   -1.8405    0.0000 N   0  0  0  0  0  0  0  0  0  0  0  0
    5.0022   -3.6077    0.0000 C   0  0  0  0  0  0  0  0  0  0  0  0
    5.3393   -2.8539    0.0000 C   0  0  0  0  0  0  0  0  0  0  0  0
    1.2584   -6.2689    0.0000 N   0  3  0  0  0  0  0  0  0  0  0  0
    6.0763   -1.3024    0.0000 S   0  0  0  0  0  0  0  0  0  0  0  0
    4.1165   -4.6065    0.0000 C   0  0  0  0  0  0  0  0  0  0  0  0
    4.1982   -3.7836    0.0000 O   0  0  0  0  0  0  0  0  0  0  0  0
    3.4046   -5.0252    0.0000 C   0  0  0  0  0  0  0  0  0  0  0  0
    2.6885   -4.6127    0.0000 C   0  0  0  0  0  0  0  0  0  0  0  0
    1.9745   -5.8544    0.0000 C   0  0  0  0  0  0  0  0  0  0  0  0
    6.7422   -3.3502    0.0000 C   0  0  0  0  0  0  0  0  0  0  0  0
    5.4209   -4.3238    0.0000 C   0  0  0  0  0  0  0  0  0  0  0  0
    4.8703   -4.9373    0.0000 C   0  0  0  0  0  0  0  0  0  0  0  0
    1.9745   -5.0252    0.0000 C   0  0  0  0  0  0  0  0  0  0  0  0
    7.3766   -1.0197    0.0000 C   0  0  0  0  0  0  0  0  0  0  0  0
    6.6270   -0.6868    0.0000 C   0  0  0  0  0  0  0  0  0  0  0  0
    7.3263   -3.9281    0.0000 N   0  0  0  0  0  0  0  0  0  0  0  0
    3.4046   -5.8544    0.0000 C   0  0  0  0  0  0  0  0  0  0  0  0
    0.5402   -5.8544    0.0000 O   0  5  0  0  0  0  0  0  0  0  0  0
    1.2584   -7.0939    0.0000 O   0  0  0  0  0  0  0  0  0  0  0  0
    2.6885   -6.2689    0.0000 C   0  0  0  0  0  0  0  0  0  0  0  0
    4.7509   -2.2635    0.0000 O   0  0  0  0  0  0  0  0  0  0  0  0
    2.6822   -3.7877    0.0000 Cl  0  0  0  0  0  0  0  0  0  0  0  0
    8.0403   -0.5298    0.0000 C   0  0  0  0  0  0  0  0  0  0  0  0
    6.5349    0.1256    0.0000 C   0  0  0  0  0  0  0  0  0  0  0  0
    7.9524    0.2868    0.0000 C   0  0  0  0  0  0  0  0  0  0  0  0
    7.1923    0.6135    0.0000 C   0  0  0  0  0  0  0  0  0  0  0  0
  2  1  1  0  0  0  0
  3  1  2  0  0  0  0
  4  5  1  0  0  0  0
  5  2  2  0  0  0  0
  6 12  1  0  0  0  0
  7  1  1  0  0  0  0
  8  9  1  0  0  0  0
  9  4  1  0  0  0  0
 10  8  1  0  0  0  0
 11 10  2  0  0  0  0
 12 23  1  0  0  0  0
 13  2  1  0  0  0  0
 14  4  2  0  0  0  0
 15 14  1  0  0  0  0
 16 11  1  0  0  0  0
 17  3  1  0  0  0  0
 18  7  1  0  0  0  0
 19 13  3  0  0  0  0
 20 10  1  0  0  0  0
 21  6  1  0  0  0  0
 22  6  2  0  0  0  0
 23 20  2  0  0  0  0
 24  5  1  0  0  0  0
 25 11  1  0  0  0  0
 26 17  1  0  0  0  0
 27 18  1  0  0  0  0
 28 26  2  0  0  0  0
 29 27  2  0  0  0  0
 17 18  2  0  0  0  0
 29 28  1  0  0  0  0
 15  8  2  0  0  0  0
 12 16  2  0  0  0  0
M  CHG  2   6   1  21  -1
M  END
>  <IDNUMBER>
F1576-0009

>  <Chemical_Name>
(2Z)-2-(1,3-benzothiazol-2-yl)-3-[5-(2-chloro-4-nitrophenyl)furan-2-yl]-3-hydroxyprop-2-enenitrile

>  <PriceCoeff>
1.00

>  <CAS>
627041-40-1

>  <MW>
423.83

>  <Description>
solid

>  <FSP3>
0.00

>  <clogP>
4.22

>  <TPSA>
141.43

>  <Acceptor>
6

>  <Donor>
1

>  <RotBonds>
4

>  <HAC>
29

>  <Collection>
General

>  <PPDS>
+

$$$$
F1577-0004
  Mrv2219 10102508112D          

 24 26  0  0  0  0            999 V2000
   -1.4684   -1.4254    0.0000 N   0  0  0  0  0  0  0  0  0  0  0  0
   -1.4684   -0.0862    0.0000 C   0  0  0  0  0  0  0  0  0  0  0  0
   -0.9985   -0.7440    0.0000 C   0  0  0  0  0  0  0  0  0  0  0  0
   -2.2633   -0.3329    0.0000 C   0  0  0  0  0  0  0  0  0  0  0  0
   -2.2633   -1.1630    0.0000 C   0  0  0  0  0  0  0  0  0  0  0  0
   -1.2060    0.7166    0.0000 N   0  0  0  0  0  0  0  0  0  0  0  0
   -1.2100   -2.2007    0.0000 C   0  0  0  0  0  0  0  0  0  0  0  0
   -0.3994    0.8693    0.0000 N   0  0  0  0  0  0  0  0  0  0  0  0
   -0.1175    1.6407    0.0000 C   0  0  0  0  0  0  0  0  0  0  0  0
   -2.9721   -1.5742    0.0000 C   0  0  0  0  0  0  0  0  0  0  0  0
   -0.1723   -0.7440    0.0000 O   0  0  0  0  0  0  0  0  0  0  0  0
   -2.9721    0.0783    0.0000 C   0  0  0  0  0  0  0  0  0  0  0  0
   -0.4072   -2.3652    0.0000 O   0  0  0  0  0  0  0  0  0  0  0  0
    0.6735    1.7934    0.0000 O   0  0  0  0  0  0  0  0  0  0  0  0
   -0.6657    2.2633    0.0000 C   0  0  0  0  0  0  0  0  0  0  0  0
   -3.6887   -0.3329    0.0000 C   0  0  0  0  0  0  0  0  0  0  0  0
   -3.6887   -1.1630    0.0000 C   0  0  0  0  0  0  0  0  0  0  0  0
   -4.4131    0.0783    0.0000 Br  0  0  0  0  0  0  0  0  0  0  0  0
   -1.7582   -2.8233    0.0000 C   0  0  0  0  0  0  0  0  0  0  0  0
   -0.3837    3.0386    0.0000 C   0  0  0  0  0  0  0  0  0  0  0  0
   -1.4527    2.1106    0.0000 C   0  0  0  0  0  0  0  0  0  0  0  0
   -1.9814    2.7332    0.0000 C   0  0  0  0  0  0  0  0  0  0  0  0
   -0.9046    3.6495    0.0000 C   0  0  0  0  0  0  0  0  0  0  0  0
   -1.6994    3.5085    0.0000 C   0  0  0  0  0  0  0  0  0  0  0  0
  2  3  1  0  0  0  0
  3  1  1  0  0  0  0
  4  5  2  0  0  0  0
  5  1  1  0  0  0  0
  6  2  2  0  0  0  0
  7  1  1  0  0  0  0
  8  6  1  0  0  0  0
  9  8  1  0  0  0  0
 10  5  1  0  0  0  0
 11  3  2  0  0  0  0
 12  4  1  0  0  0  0
 13  7  2  0  0  0  0
 14  9  2  0  0  0  0
 15  9  1  0  0  0  0
 16 17  1  0  0  0  0
 17 10  2  0  0  0  0
 18 16  1  0  0  0  0
 19  7  1  0  0  0  0
 20 15  2  0  0  0  0
 21 15  1  0  0  0  0
 22 21  2  0  0  0  0
 23 20  1  0  0  0  0
 24 22  1  0  0  0  0
  4  2  1  0  0  0  0
 16 12  2  0  0  0  0
 24 23  2  0  0  0  0
M  END
>  <IDNUMBER>
F1577-0004

>  <Chemical_Name>
N'-[(3Z)-1-acetyl-5-bromo-2-oxo-2,3-dihydro-1H-indol-3-ylidene]benzohydrazide

>  <PriceCoeff>
1.00

>  <CAS>
401797-24-8

>  <MW>
386.20

>  <Description>
solid

>  <FSP3>
0.06

>  <clogP>
3.53

>  <TPSA>
78.84

>  <Acceptor>
4

>  <Donor>
2

>  <RotBonds>
3

>  <HAC>
24

>  <Collection>
General

>  <PPDS>
+

$$$$
F1577-0067
  Mrv2219 10102508112D          

 18 20  0  0  0  0            999 V2000
    3.9196   -1.9034    0.0000 C   0  0  0  0  0  0  0  0  0  0  0  0
    3.2475   -2.3835    0.0000 O   0  0  0  0  0  0  0  0  0  0  0  0
    3.6608   -1.1145    0.0000 N   0  0  0  0  0  0  0  0  0  0  0  0
    2.8343   -1.1145    0.0000 N   0  0  0  0  0  0  0  0  0  0  0  0
    2.5796   -1.9034    0.0000 C   0  0  0  0  0  0  0  0  0  0  0  0
    4.7002   -2.1581    0.0000 C   0  0  0  0  0  0  0  0  0  0  0  0
    4.8713   -2.9721    0.0000 C   0  0  0  0  0  0  0  0  0  0  0  0
    1.7949   -2.1581    0.0000 C   0  0  0  0  0  0  0  0  0  0  0  0
    0.2171   -2.6590    0.0000 N   0  0  0  0  0  0  0  0  0  0  0  0
    4.2494   -3.5188    0.0000 Cl  0  0  0  0  0  0  0  0  0  0  0  0
    5.3138   -1.6071    0.0000 C   0  0  0  0  0  0  0  0  0  0  0  0
    0.3924   -1.8575    0.0000 C   0  0  0  0  0  0  0  0  0  0  0  0
    0.8307   -3.2183    0.0000 C   0  0  0  0  0  0  0  0  0  0  0  0
    1.6196   -2.9595    0.0000 C   0  0  0  0  0  0  0  0  0  0  0  0
    1.1771   -1.6029    0.0000 C   0  0  0  0  0  0  0  0  0  0  0  0
    5.6519   -3.2225    0.0000 C   0  0  0  0  0  0  0  0  0  0  0  0
    6.1027   -1.8701    0.0000 C   0  0  0  0  0  0  0  0  0  0  0  0
    6.2655   -2.6798    0.0000 C   0  0  0  0  0  0  0  0  0  0  0  0
  2  1  1  0  0  0  0
  3  1  2  0  0  0  0
  4  3  1  0  0  0  0
  5  2  1  0  0  0  0
  6  1  1  0  0  0  0
  7  6  2  0  0  0  0
  8  5  1  0  0  0  0
  9 12  2  0  0  0  0
 10  7  1  0  0  0  0
 11  6  1  0  0  0  0
 12 15  1  0  0  0  0
 13 14  2  0  0  0  0
 14  8  1  0  0  0  0
 15  8  2  0  0  0  0
 16  7  1  0  0  0  0
 17 11  2  0  0  0  0
 18 17  1  0  0  0  0
  5  4  2  0  0  0  0
 18 16  2  0  0  0  0
  9 13  1  0  0  0  0
M  END
>  <IDNUMBER>
F1577-0067

>  <Chemical_Name>
4-[5-(2-chlorophenyl)-1,3,4-oxadiazol-2-yl]pyridine

>  <PriceCoeff>
1.00

>  <CAS>
124259-35-4

>  <MW>
257.68

>  <Description>
solid

>  <FSP3>
0.00

>  <clogP>
1.96

>  <TPSA>
46.04

>  <Acceptor>
4

>  <Donor>
1

>  <RotBonds>
2

>  <HAC>
18

>  <Collection>
General

>  <PPDS>
+

$$$$
F1589-0503
  Mrv2219 10102508112D          

 28 30  0  0  0  0            999 V2000
    8.4868   -0.4730    0.0000 S   0  0  0  0  0  0  0  0  0  0  0  0
   -0.2329   -2.6583    0.0000 N   0  3  0  0  0  0  0  0  0  0  0  0
    2.6122   -0.9993    0.0000 C   0  0  0  0  0  0  0  0  0  0  0  0
    3.3690   -1.3389    0.0000 O   0  0  0  0  0  0  0  0  0  0  0  0
    3.9172   -0.7277    0.0000 C   0  0  0  0  0  0  0  0  0  0  0  0
    1.9089   -1.4214    0.0000 C   0  0  0  0  0  0  0  0  0  0  0  0
    4.7322   -0.8101    0.0000 C   0  0  0  0  0  0  0  0  0  0  0  0
    1.1885   -1.0066    0.0000 C   0  0  0  0  0  0  0  0  0  0  0  0
    0.4754   -2.2485    0.0000 C   0  0  0  0  0  0  0  0  0  0  0  0
    2.6996   -0.1844    0.0000 C   0  0  0  0  0  0  0  0  0  0  0  0
    3.5025   -0.0097    0.0000 C   0  0  0  0  0  0  0  0  0  0  0  0
    0.4754   -1.4214    0.0000 C   0  0  0  0  0  0  0  0  0  0  0  0
    5.2197   -0.1407    0.0000 N   0  0  0  0  0  0  0  0  0  0  0  0
    7.6719   -0.3881    0.0000 C   0  0  0  0  0  0  0  0  0  0  0  0
    1.9089   -2.2485    0.0000 C   0  0  0  0  0  0  0  0  0  0  0  0
    8.4868    0.3541    0.0000 O   0  0  0  0  0  0  0  0  0  0  0  0
    8.4868   -1.2976    0.0000 O   0  0  0  0  0  0  0  0  0  0  0  0
   -0.9507   -2.2485    0.0000 O   0  5  0  0  0  0  0  0  0  0  0  0
   -0.2329   -3.4855    0.0000 O   0  0  0  0  0  0  0  0  0  0  0  0
    9.3139   -0.5531    0.0000 N   0  0  0  0  0  0  0  0  0  0  0  0
    5.0790   -1.5596    0.0000 O   0  0  0  0  0  0  0  0  0  0  0  0
    1.1885   -2.6583    0.0000 C   0  0  0  0  0  0  0  0  0  0  0  0
    7.3274    0.3638    0.0000 C   0  0  0  0  0  0  0  0  0  0  0  0
    7.1916   -1.0575    0.0000 C   0  0  0  0  0  0  0  0  0  0  0  0
    6.0395   -0.2135    0.0000 C   0  0  0  0  0  0  0  0  0  0  0  0
    1.1885   -0.1844    0.0000 Cl  0  0  0  0  0  0  0  0  0  0  0  0
    6.3670   -0.9775    0.0000 C   0  0  0  0  0  0  0  0  0  0  0  0
    6.5125    0.4487    0.0000 C   0  0  0  0  0  0  0  0  0  0  0  0
  2  9  1  0  0  0  0
  3  4  1  0  0  0  0
  4  5  1  0  0  0  0
  5  7  1  0  0  0  0
  6  3  1  0  0  0  0
  7 13  1  0  0  0  0
  8  6  2  0  0  0  0
  9 22  1  0  0  0  0
 10 11  1  0  0  0  0
 11  5  2  0  0  0  0
 12  8  1  0  0  0  0
 13 25  1  0  0  0  0
 14  1  1  0  0  0  0
 15  6  1  0  0  0  0
 16  1  2  0  0  0  0
 17  1  2  0  0  0  0
 18  2  1  0  0  0  0
 19  2  2  0  0  0  0
 20  1  1  0  0  0  0
 21  7  2  0  0  0  0
 22 15  2  0  0  0  0
 23 14  1  0  0  0  0
 24 14  2  0  0  0  0
 25 27  2  0  0  0  0
 26  8  1  0  0  0  0
 27 24  1  0  0  0  0
 28 23  2  0  0  0  0
 28 25  1  0  0  0  0
 10  3  2  0  0  0  0
 12  9  2  0  0  0  0
M  CHG  2   2   1  18  -1
M  END
>  <IDNUMBER>
F1589-0503

>  <Chemical_Name>
5-(2-chloro-4-nitrophenyl)-N-(4-sulfamoylphenyl)furan-2-carboxamide

>  <PriceCoeff>
1.00

>  <CAS>
618395-85-0

>  <MW>
421.81

>  <Description>
solid

>  <FSP3>
0.00

>  <clogP>
2.65

>  <TPSA>
153.92

>  <Acceptor>
6

>  <Donor>
2

>  <RotBonds>
5

>  <HAC>
28

>  <Collection>
General

>  <PPDS>
+

$$$$
F1589-0509
  Mrv2219 10102508112D          

 21 22  0  0  0  0            999 V2000
   -0.2230   -2.6766    0.0000 N   0  3  0  0  0  0  0  0  0  0  0  0
    2.6273   -1.0131    0.0000 C   0  0  0  0  0  0  0  0  0  0  0  0
    3.3833   -1.3502    0.0000 O   0  0  0  0  0  0  0  0  0  0  0  0
    3.9349   -0.7407    0.0000 C   0  0  0  0  0  0  0  0  0  0  0  0
    1.9224   -1.4354    0.0000 C   0  0  0  0  0  0  0  0  0  0  0  0
    4.7505   -0.8241    0.0000 C   0  0  0  0  0  0  0  0  0  0  0  0
    1.2021   -1.0233    0.0000 C   0  0  0  0  0  0  0  0  0  0  0  0
    0.4904   -2.2646    0.0000 C   0  0  0  0  0  0  0  0  0  0  0  0
    2.7141   -0.1992    0.0000 C   0  0  0  0  0  0  0  0  0  0  0  0
    3.5212   -0.0221    0.0000 C   0  0  0  0  0  0  0  0  0  0  0  0
    0.4904   -1.4354    0.0000 C   0  0  0  0  0  0  0  0  0  0  0  0
    5.2375   -0.1532    0.0000 N   0  0  0  0  0  0  0  0  0  0  0  0
    1.9224   -2.2646    0.0000 C   0  0  0  0  0  0  0  0  0  0  0  0
   -0.9382   -2.2646    0.0000 O   0  5  0  0  0  0  0  0  0  0  0  0
   -0.2230   -3.5007    0.0000 O   0  0  0  0  0  0  0  0  0  0  0  0
    5.0945   -1.5733    0.0000 O   0  0  0  0  0  0  0  0  0  0  0  0
    1.2021   -2.6766    0.0000 C   0  0  0  0  0  0  0  0  0  0  0  0
    1.2021   -0.1992    0.0000 Cl  0  0  0  0  0  0  0  0  0  0  0  0
    6.0582   -0.2367    0.0000 C   0  0  0  0  0  0  0  0  0  0  0  0
    6.3953   -0.9859    0.0000 C   0  0  0  0  0  0  0  0  0  0  0  0
    6.5383    0.4342    0.0000 C   0  0  0  0  0  0  0  0  0  0  0  0
  2  5  1  0  0  0  0
  3  2  1  0  0  0  0
  4  3  1  0  0  0  0
  5 13  1  0  0  0  0
  6  4  1  0  0  0  0
  7 11  1  0  0  0  0
  8  1  1  0  0  0  0
  9  2  2  0  0  0  0
 10  9  1  0  0  0  0
 11  8  2  0  0  0  0
 12  6  1  0  0  0  0
 13 17  2  0  0  0  0
 14  1  1  0  0  0  0
 15  1  2  0  0  0  0
 16  6  2  0  0  0  0
 17  8  1  0  0  0  0
 18  7  1  0  0  0  0
 19 12  1  0  0  0  0
 20 19  1  0  0  0  0
 21 19  1  0  0  0  0
  7  5  2  0  0  0  0
  4 10  2  0  0  0  0
M  CHG  2   1   1  14  -1
M  END
>  <IDNUMBER>
F1589-0509

>  <Chemical_Name>
5-(2-chloro-4-nitrophenyl)-N-(propan-2-yl)furan-2-carboxamide

>  <PriceCoeff>
1.00

>  <CAS>
618397-15-2

>  <MW>
308.72

>  <Description>
solid

>  <FSP3>
0.21

>  <clogP>
3.28

>  <TPSA>
85.38

>  <Acceptor>
4

>  <Donor>
1

>  <RotBonds>
4

>  <HAC>
21

>  <Collection>
General

>  <PPDS>
+

$$$$
F1589-0512
  Mrv2219 10102508112D          

 28 30  0  0  0  0            999 V2000
   -0.2243   -2.6768    0.0000 N   0  3  0  0  0  0  0  0  0  0  0  0
    2.6264   -1.0158    0.0000 C   0  0  0  0  0  0  0  0  0  0  0  0
    3.3826   -1.3535    0.0000 O   0  0  0  0  0  0  0  0  0  0  0  0
    3.9345   -0.7411    0.0000 C   0  0  0  0  0  0  0  0  0  0  0  0
    1.9232   -1.4367    0.0000 C   0  0  0  0  0  0  0  0  0  0  0  0
    4.7512   -0.8242    0.0000 C   0  0  0  0  0  0  0  0  0  0  0  0
    1.2023   -1.0233    0.0000 C   0  0  0  0  0  0  0  0  0  0  0  0
    0.4915   -2.2634    0.0000 C   0  0  0  0  0  0  0  0  0  0  0  0
    2.7146   -0.1992    0.0000 C   0  0  0  0  0  0  0  0  0  0  0  0
    3.5237   -0.0177    0.0000 C   0  0  0  0  0  0  0  0  0  0  0  0
    0.4915   -1.4367    0.0000 C   0  0  0  0  0  0  0  0  0  0  0  0
    5.2401   -0.1538    0.0000 N   0  0  0  0  0  0  0  0  0  0  0  0
    1.9232   -2.2634    0.0000 C   0  0  0  0  0  0  0  0  0  0  0  0
   -0.9376   -2.2634    0.0000 O   0  5  0  0  0  0  0  0  0  0  0  0
    8.8496   -1.2351    0.0000 C   0  0  0  0  0  0  0  0  0  0  0  0
   -0.2243   -3.5036    0.0000 O   0  0  0  0  0  0  0  0  0  0  0  0
    8.5143   -0.4865    0.0000 N   0  0  0  0  0  0  0  0  0  0  0  0
    5.0991   -1.5728    0.0000 O   0  0  0  0  0  0  0  0  0  0  0  0
    1.2023   -2.6768    0.0000 C   0  0  0  0  0  0  0  0  0  0  0  0
    9.6788   -1.3157    0.0000 O   0  0  0  0  0  0  0  0  0  0  0  0
    6.0594   -0.2370    0.0000 C   0  0  0  0  0  0  0  0  0  0  0  0
    1.2023   -0.1992    0.0000 Cl  0  0  0  0  0  0  0  0  0  0  0  0
    7.6977   -0.4033    0.0000 C   0  0  0  0  0  0  0  0  0  0  0  0
    6.5358    0.4361    0.0000 C   0  0  0  0  0  0  0  0  0  0  0  0
    6.3895   -0.9905    0.0000 C   0  0  0  0  0  0  0  0  0  0  0  0
    7.2162   -1.0737    0.0000 C   0  0  0  0  0  0  0  0  0  0  0  0
    7.3524    0.3529    0.0000 C   0  0  0  0  0  0  0  0  0  0  0  0
    8.3782   -1.9005    0.0000 C   0  0  0  0  0  0  0  0  0  0  0  0
  2  5  1  0  0  0  0
  3  2  1  0  0  0  0
  4  3  1  0  0  0  0
  5 13  1  0  0  0  0
  6  4  1  0  0  0  0
  7 11  1  0  0  0  0
  8  1  1  0  0  0  0
  9  2  2  0  0  0  0
 10  9  1  0  0  0  0
 11  8  2  0  0  0  0
 12  6  1  0  0  0  0
 13 19  2  0  0  0  0
 14  1  1  0  0  0  0
 15 17  1  0  0  0  0
 16  1  2  0  0  0  0
 17 23  1  0  0  0  0
 18  6  2  0  0  0  0
 19  8  1  0  0  0  0
 20 15  2  0  0  0  0
 21 12  1  0  0  0  0
 22  7  1  0  0  0  0
 23 26  2  0  0  0  0
 24 21  1  0  0  0  0
 25 21  2  0  0  0  0
 26 25  1  0  0  0  0
 27 24  2  0  0  0  0
 28 15  1  0  0  0  0
  5  7  2  0  0  0  0
  4 10  2  0  0  0  0
 27 23  1  0  0  0  0
M  CHG  2   1   1  14  -1
M  END
>  <IDNUMBER>
F1589-0512

>  <Chemical_Name>
5-(2-chloro-4-nitrophenyl)-N-(4-acetamidophenyl)furan-2-carboxamide

>  <PriceCoeff>
1.00

>  <CAS>
618397-19-6

>  <MW>
399.78

>  <Description>
solid

>  <FSP3>
0.05

>  <clogP>
3.25

>  <TPSA>
114.48

>  <Acceptor>
5

>  <Donor>
2

>  <RotBonds>
5

>  <HAC>
28

>  <Collection>
General

>  <PPDS>
+

$$$$
F1589-0514
  Mrv2219 10102508112D          

 23 25  0  0  0  0            999 V2000
    3.9337   -0.7380    0.0000 C   0  0  0  0  0  0  0  0  0  0  0  0
   -0.2233   -2.6758    0.0000 N   0  3  0  0  0  0  0  0  0  0  0  0
    2.6247   -1.0141    0.0000 C   0  0  0  0  0  0  0  0  0  0  0  0
    3.3848   -1.3516    0.0000 O   0  0  0  0  0  0  0  0  0  0  0  0
    4.7500   -0.8232    0.0000 C   0  0  0  0  0  0  0  0  0  0  0  0
    1.9225   -1.4334    0.0000 C   0  0  0  0  0  0  0  0  0  0  0  0
    5.2358   -0.1534    0.0000 N   0  0  0  0  0  0  0  0  0  0  0  0
    1.2016   -1.0226    0.0000 C   0  0  0  0  0  0  0  0  0  0  0  0
    0.4909   -2.2617    0.0000 C   0  0  0  0  0  0  0  0  0  0  0  0
    3.5195   -0.0222    0.0000 C   0  0  0  0  0  0  0  0  0  0  0  0
    2.7116   -0.1994    0.0000 C   0  0  0  0  0  0  0  0  0  0  0  0
    0.4909   -1.4334    0.0000 C   0  0  0  0  0  0  0  0  0  0  0  0
    1.9225   -2.2617    0.0000 C   0  0  0  0  0  0  0  0  0  0  0  0
   -0.9391   -2.2617    0.0000 O   0  5  0  0  0  0  0  0  0  0  0  0
   -0.2233   -3.4990    0.0000 O   0  0  0  0  0  0  0  0  0  0  0  0
    5.0943   -1.5714    0.0000 O   0  0  0  0  0  0  0  0  0  0  0  0
    1.2016   -2.6758    0.0000 C   0  0  0  0  0  0  0  0  0  0  0  0
    6.2072    1.1845    0.0000 O   0  0  0  0  0  0  0  0  0  0  0  0
    1.2016   -0.1994    0.0000 Cl  0  0  0  0  0  0  0  0  0  0  0  0
    6.0607   -0.2403    0.0000 C   0  0  0  0  0  0  0  0  0  0  0  0
    4.9000    0.5965    0.0000 C   0  0  0  0  0  0  0  0  0  0  0  0
    5.3858    1.2629    0.0000 C   0  0  0  0  0  0  0  0  0  0  0  0
    6.5447    0.4278    0.0000 C   0  0  0  0  0  0  0  0  0  0  0  0
  2  9  1  0  0  0  0
  3  4  1  0  0  0  0
  4  1  1  0  0  0  0
  5  1  1  0  0  0  0
  6  3  1  0  0  0  0
  7  5  1  0  0  0  0
  8  6  2  0  0  0  0
  9 17  1  0  0  0  0
 10  1  2  0  0  0  0
 11 10  1  0  0  0  0
 12  8  1  0  0  0  0
 13  6  1  0  0  0  0
 14  2  1  0  0  0  0
 15  2  2  0  0  0  0
 16  5  2  0  0  0  0
 17 13  2  0  0  0  0
 18 22  1  0  0  0  0
 19  8  1  0  0  0  0
 20  7  1  0  0  0  0
 21  7  1  0  0  0  0
 22 21  1  0  0  0  0
 23 20  1  0  0  0  0
 11  3  2  0  0  0  0
 23 18  1  0  0  0  0
 12  9  2  0  0  0  0
M  CHG  2   2   1  14  -1
M  END
>  <IDNUMBER>
F1589-0514

>  <Chemical_Name>
4-[5-(2-chloro-4-nitrophenyl)furan-2-carbonyl]morpholine

>  <PriceCoeff>
1.00

>  <CAS>
618397-30-1

>  <MW>
336.73

>  <Description>
solid

>  <FSP3>
0.27

>  <clogP>
2.29

>  <TPSA>
85.82

>  <Acceptor>
5

>  <Donor>
0

>  <RotBonds>
4

>  <HAC>
23

>  <Collection>
General

>  <PPDS>
+

$$$$
F1589-0518
  Mrv2219 10102508112D          

 30 32  0  0  0  0            999 V2000
   -1.6069   -3.8468    0.0000 N   0  3  0  0  0  0  0  0  0  0  0  0
    1.2475   -2.1866    0.0000 C   0  0  0  0  0  0  0  0  0  0  0  0
    1.9988   -2.5251    0.0000 O   0  0  0  0  0  0  0  0  0  0  0  0
    2.5483   -1.9129    0.0000 C   0  0  0  0  0  0  0  0  0  0  0  0
    0.5379   -2.6086    0.0000 C   0  0  0  0  0  0  0  0  0  0  0  0
   -0.1785   -2.1936    0.0000 C   0  0  0  0  0  0  0  0  0  0  0  0
   -0.8881   -3.4364    0.0000 C   0  0  0  0  0  0  0  0  0  0  0  0
    1.3240   -1.3727    0.0000 C   0  0  0  0  0  0  0  0  0  0  0  0
    3.3692   -1.9965    0.0000 C   0  0  0  0  0  0  0  0  0  0  0  0
   -0.8881   -2.6086    0.0000 C   0  0  0  0  0  0  0  0  0  0  0  0
    2.1379   -1.1965    0.0000 C   0  0  0  0  0  0  0  0  0  0  0  0
    0.5379   -3.4364    0.0000 C   0  0  0  0  0  0  0  0  0  0  0  0
   -2.3211   -3.4364    0.0000 O   0  5  0  0  0  0  0  0  0  0  0  0
    7.2646   -0.2365    0.0000 C   0  0  0  0  0  0  0  0  0  0  0  0
   -1.6069   -4.6700    0.0000 O   0  0  0  0  0  0  0  0  0  0  0  0
    7.6055   -0.9901    0.0000 C   0  0  0  0  0  0  0  0  0  0  0  0
   -0.1785   -3.8468    0.0000 C   0  0  0  0  0  0  0  0  0  0  0  0
    3.7100   -2.7431    0.0000 O   0  0  0  0  0  0  0  0  0  0  0  0
    6.4438   -0.1530    0.0000 C   0  0  0  0  0  0  0  0  0  0  0  0
    3.8468   -1.3240    0.0000 N   0  0  0  0  0  0  0  0  0  0  0  0
    7.1254   -1.6579    0.0000 C   0  0  0  0  0  0  0  0  0  0  0  0
   -0.1855   -1.3727    0.0000 Cl  0  0  0  0  0  0  0  0  0  0  0  0
    5.9684   -0.8232    0.0000 C   0  0  0  0  0  0  0  0  0  0  0  0
    6.3047   -1.5744    0.0000 C   0  0  0  0  0  0  0  0  0  0  0  0
    7.7492    0.4359    0.0000 O   0  0  0  0  0  0  0  0  0  0  0  0
    8.4239   -1.0713    0.0000 O   0  0  0  0  0  0  0  0  0  0  0  0
    4.6700   -1.4075    0.0000 C   0  0  0  0  0  0  0  0  0  0  0  0
    5.1545   -0.7397    0.0000 C   0  0  0  0  0  0  0  0  0  0  0  0
    7.4037    1.1872    0.0000 C   0  0  0  0  0  0  0  0  0  0  0  0
    8.9039   -0.4034    0.0000 C   0  0  0  0  0  0  0  0  0  0  0  0
  2  5  1  0  0  0  0
  3  2  1  0  0  0  0
  4  3  1  0  0  0  0
  5 12  1  0  0  0  0
  6 10  1  0  0  0  0
  7  1  1  0  0  0  0
  8  2  2  0  0  0  0
  9  4  1  0  0  0  0
 10  7  2  0  0  0  0
 11  8  1  0  0  0  0
 12 17  2  0  0  0  0
 13  1  1  0  0  0  0
 14 19  2  0  0  0  0
 15  1  2  0  0  0  0
 16 21  2  0  0  0  0
 17  7  1  0  0  0  0
 18  9  2  0  0  0  0
 19 23  1  0  0  0  0
 20  9  1  0  0  0  0
 21 24  1  0  0  0  0
 22  6  1  0  0  0  0
 23 28  1  0  0  0  0
 24 23  2  0  0  0  0
 25 14  1  0  0  0  0
 26 16  1  0  0  0  0
 27 20  1  0  0  0  0
 28 27  1  0  0  0  0
 29 25  1  0  0  0  0
 30 26  1  0  0  0  0
  5  6  2  0  0  0  0
  4 11  2  0  0  0  0
 14 16  1  0  0  0  0
M  CHG  2   1   1  13  -1
M  END
>  <IDNUMBER>
F1589-0518

>  <Chemical_Name>
5-(2-chloro-4-nitrophenyl)-N-[2-(3,4-dimethoxyphenyl)ethyl]furan-2-carboxamide

>  <PriceCoeff>
1.00

>  <CAS>
618397-09-4

>  <MW>
430.84

>  <Description>
solid

>  <FSP3>
0.19

>  <clogP>
4.20

>  <TPSA>
103.84

>  <Acceptor>
6

>  <Donor>
1

>  <RotBonds>
8

>  <HAC>
30

>  <Collection>
General

>  <PPDS>
+

$$$$
F1591-0157
  Mrv2219 10102508112D          

 12 12  0  0  0  0            999 V2000
    3.2751   -0.7417    0.0000 S   0  0  0  0  0  0  0  0  0  0  0  0
    4.1007   -0.7520    0.0000 C   0  0  0  0  0  0  0  0  0  0  0  0
    3.3881    0.2655    0.0000 O   0  0  0  0  0  0  0  0  0  0  0  0
    3.0747   -1.7181    0.0000 O   0  0  0  0  0  0  0  0  0  0  0  0
    2.4735   -0.5310    0.0000 N   0  0  0  0  0  0  0  0  0  0  0  0
    4.5135   -0.0274    0.0000 C   0  0  0  0  0  0  0  0  0  0  0  0
    4.5135   -1.4663    0.0000 C   0  0  0  0  0  0  0  0  0  0  0  0
    5.7468   -0.7417    0.0000 C   0  0  0  0  0  0  0  0  0  0  0  0
    6.5776   -0.7417    0.0000 N   0  0  0  0  0  0  0  0  0  0  0  0
    5.3340   -0.0274    0.0000 C   0  0  0  0  0  0  0  0  0  0  0  0
    5.3340   -1.4663    0.0000 C   0  0  0  0  0  0  0  0  0  0  0  0
    2.2610    0.2724    0.0000 C   0  0  0  0  0  0  0  0  0  0  0  0
  2  1  1  0  0  0  0
  3  1  2  0  0  0  0
  4  1  2  0  0  0  0
  5  1  1  0  0  0  0
  6  2  2  0  0  0  0
  7  2  1  0  0  0  0
  8 11  1  0  0  0  0
  9  8  1  0  0  0  0
 10  6  1  0  0  0  0
 11  7  2  0  0  0  0
 12  5  1  0  0  0  0
 10  8  2  0  0  0  0
M  END
>  <IDNUMBER>
F1591-0157

>  <Chemical_Name>
4-amino-N-methylbenzene-1-sulfonamide

>  <PriceCoeff>
1.00

>  <CAS>
1709-52-0

>  <MW>
186.23

>  <Description>
solid

>  <FSP3>
0.14

>  <clogP>
-0.03

>  <TPSA>
72.19

>  <Acceptor>
3

>  <Donor>
2

>  <RotBonds>
1

>  <HAC>
12

>  <Collection>
General

>  <PPDS>
+

$$$$
F1591-0629
  Mrv2219 10102508112D          

 30 32  0  0  0  0            999 V2000
   -0.0959   -1.8291    0.0000 S   0  0  0  0  0  0  0  0  0  0  0  0
    6.9155   -2.5645    0.0000 N   0  0  0  0  0  0  0  0  0  0  0  0
    7.3952   -3.2318    0.0000 C   0  0  0  0  0  0  0  0  0  0  0  0
    7.3952   -1.8930    0.0000 C   0  0  0  0  0  0  0  0  0  0  0  0
    3.6198   -2.5645    0.0000 C   0  0  0  0  0  0  0  0  0  0  0  0
    0.7291   -1.8419    0.0000 C   0  0  0  0  0  0  0  0  0  0  0  0
   -0.8890   -1.6138    0.0000 N   0  0  0  0  0  0  0  0  0  0  0  0
    3.1998   -1.8504    0.0000 N   0  0  0  0  0  0  0  0  0  0  0  0
    6.0905   -2.5645    0.0000 C   0  0  0  0  0  0  0  0  0  0  0  0
   -0.2984   -2.8012    0.0000 O   0  0  0  0  0  0  0  0  0  0  0  0
    0.0277   -0.8250    0.0000 O   0  0  0  0  0  0  0  0  0  0  0  0
    4.4448   -2.5645    0.0000 C   0  0  0  0  0  0  0  0  0  0  0  0
    8.1860   -2.1424    0.0000 C   0  0  0  0  0  0  0  0  0  0  0  0
    8.1860   -2.9674    0.0000 C   0  0  0  0  0  0  0  0  0  0  0  0
    3.1998   -3.2808    0.0000 O   0  0  0  0  0  0  0  0  0  0  0  0
    7.1330   -1.1021    0.0000 O   0  0  0  0  0  0  0  0  0  0  0  0
    7.1394   -4.0056    0.0000 O   0  0  0  0  0  0  0  0  0  0  0  0
    5.6684   -1.8419    0.0000 C   0  0  0  0  0  0  0  0  0  0  0  0
    5.6791   -3.2808    0.0000 C   0  0  0  0  0  0  0  0  0  0  0  0
    4.8541   -1.8504    0.0000 C   0  0  0  0  0  0  0  0  0  0  0  0
    4.8541   -3.2808    0.0000 C   0  0  0  0  0  0  0  0  0  0  0  0
    1.1405   -1.1277    0.0000 C   0  0  0  0  0  0  0  0  0  0  0  0
    1.1384   -2.5539    0.0000 C   0  0  0  0  0  0  0  0  0  0  0  0
    2.3748   -1.8419    0.0000 C   0  0  0  0  0  0  0  0  0  0  0  0
    1.9527   -2.5645    0.0000 C   0  0  0  0  0  0  0  0  0  0  0  0
    1.9655   -1.1277    0.0000 C   0  0  0  0  0  0  0  0  0  0  0  0
   -1.0979   -0.8144    0.0000 C   0  0  0  0  0  0  0  0  0  0  0  0
   -1.4773   -2.1936    0.0000 C   0  0  0  0  0  0  0  0  0  0  0  0
   -1.8994   -0.5969    0.0000 C   0  0  0  0  0  0  0  0  0  0  0  0
   -2.2746   -1.9762    0.0000 C   0  0  0  0  0  0  0  0  0  0  0  0
  2  9  1  0  0  0  0
  3  2  1  0  0  0  0
  4  2  1  0  0  0  0
  5  8  1  0  0  0  0
  6  1  1  0  0  0  0
  7  1  1  0  0  0  0
  8 24  1  0  0  0  0
  9 19  2  0  0  0  0
 10  1  2  0  0  0  0
 11  1  2  0  0  0  0
 12  5  1  0  0  0  0
 13  4  1  0  0  0  0
 14  3  1  0  0  0  0
 15  5  2  0  0  0  0
 16  4  2  0  0  0  0
 17  3  2  0  0  0  0
 18 20  2  0  0  0  0
 19 21  1  0  0  0  0
 20 12  1  0  0  0  0
 21 12  2  0  0  0  0
 22  6  2  0  0  0  0
 23  6  1  0  0  0  0
 24 25  1  0  0  0  0
 25 23  2  0  0  0  0
 26 22  1  0  0  0  0
 27  7  1  0  0  0  0
 28  7  1  0  0  0  0
 29 27  1  0  0  0  0
 30 28  1  0  0  0  0
 24 26  2  0  0  0  0
  9 18  1  0  0  0  0
 14 13  1  0  0  0  0
M  END
>  <IDNUMBER>
F1591-0629

>  <Chemical_Name>
N-[4-(diethylsulfamoyl)phenyl]-4-(2,5-dioxopyrrolidin-1-yl)benzamide

>  <PriceCoeff>
1.00

>  <CAS>
692762-43-9

>  <MW>
429.49

>  <Description>
solid

>  <FSP3>
0.29

>  <clogP>
1.50

>  <TPSA>
112.24

>  <Acceptor>
5

>  <Donor>
1

>  <RotBonds>
7

>  <HAC>
30

>  <Collection>
General

>  <PPDS>
+

$$$$
F1591-0812
  Mrv2219 10102508112D          

 31 34  0  0  0  0            999 V2000
   -0.0959   -1.8291    0.0000 S   0  0  0  0  0  0  0  0  0  0  0  0
    6.9155   -2.5645    0.0000 N   0  0  0  0  0  0  0  0  0  0  0  0
   -0.8890   -1.6138    0.0000 N   0  0  0  0  0  0  0  0  0  0  0  0
    7.3952   -3.2318    0.0000 C   0  0  0  0  0  0  0  0  0  0  0  0
    7.3952   -1.8930    0.0000 C   0  0  0  0  0  0  0  0  0  0  0  0
    3.6198   -2.5645    0.0000 C   0  0  0  0  0  0  0  0  0  0  0  0
    0.7291   -1.8419    0.0000 C   0  0  0  0  0  0  0  0  0  0  0  0
    3.1998   -1.8504    0.0000 N   0  0  0  0  0  0  0  0  0  0  0  0
    6.0905   -2.5645    0.0000 C   0  0  0  0  0  0  0  0  0  0  0  0
   -0.2984   -2.8012    0.0000 O   0  0  0  0  0  0  0  0  0  0  0  0
    0.0277   -0.8250    0.0000 O   0  0  0  0  0  0  0  0  0  0  0  0
    4.4448   -2.5645    0.0000 C   0  0  0  0  0  0  0  0  0  0  0  0
    8.1860   -2.1424    0.0000 C   0  0  0  0  0  0  0  0  0  0  0  0
    8.1860   -2.9674    0.0000 C   0  0  0  0  0  0  0  0  0  0  0  0
    3.1998   -3.2808    0.0000 O   0  0  0  0  0  0  0  0  0  0  0  0
    7.1330   -1.1021    0.0000 O   0  0  0  0  0  0  0  0  0  0  0  0
    7.1394   -4.0056    0.0000 O   0  0  0  0  0  0  0  0  0  0  0  0
    5.6684   -1.8419    0.0000 C   0  0  0  0  0  0  0  0  0  0  0  0
    5.6791   -3.2808    0.0000 C   0  0  0  0  0  0  0  0  0  0  0  0
    4.8541   -1.8504    0.0000 C   0  0  0  0  0  0  0  0  0  0  0  0
    4.8541   -3.2808    0.0000 C   0  0  0  0  0  0  0  0  0  0  0  0
   -2.4856   -1.1661    0.0000 O   0  0  0  0  0  0  0  0  0  0  0  0
    1.1384   -2.5539    0.0000 C   0  0  0  0  0  0  0  0  0  0  0  0
    1.1405   -1.1277    0.0000 C   0  0  0  0  0  0  0  0  0  0  0  0
    2.3748   -1.8419    0.0000 C   0  0  0  0  0  0  0  0  0  0  0  0
   -1.0979   -0.8122    0.0000 C   0  0  0  0  0  0  0  0  0  0  0  0
   -1.4773   -2.1936    0.0000 C   0  0  0  0  0  0  0  0  0  0  0  0
    1.9655   -1.1277    0.0000 C   0  0  0  0  0  0  0  0  0  0  0  0
    1.9527   -2.5645    0.0000 C   0  0  0  0  0  0  0  0  0  0  0  0
   -2.2746   -1.9655    0.0000 C   0  0  0  0  0  0  0  0  0  0  0  0
   -1.8909   -0.5905    0.0000 C   0  0  0  0  0  0  0  0  0  0  0  0
  2  9  1  0  0  0  0
  3  1  1  0  0  0  0
  4  2  1  0  0  0  0
  5  2  1  0  0  0  0
  6  8  1  0  0  0  0
  7  1  1  0  0  0  0
  8 25  1  0  0  0  0
  9 19  2  0  0  0  0
 10  1  2  0  0  0  0
 11  1  2  0  0  0  0
 12  6  1  0  0  0  0
 13  5  1  0  0  0  0
 14  4  1  0  0  0  0
 15  6  2  0  0  0  0
 16  5  2  0  0  0  0
 17  4  2  0  0  0  0
 18 20  2  0  0  0  0
 19 21  1  0  0  0  0
 20 12  1  0  0  0  0
 21 12  2  0  0  0  0
 22 30  1  0  0  0  0
 23  7  1  0  0  0  0
 24  7  2  0  0  0  0
 25 28  2  0  0  0  0
 26  3  1  0  0  0  0
 27  3  1  0  0  0  0
 28 24  1  0  0  0  0
 29 23  2  0  0  0  0
 30 27  1  0  0  0  0
 31 26  1  0  0  0  0
 29 25  1  0  0  0  0
 22 31  1  0  0  0  0
  9 18  1  0  0  0  0
 14 13  1  0  0  0  0
M  END
>  <IDNUMBER>
F1591-0812

>  <Chemical_Name>
4-(2,5-dioxopyrrolidin-1-yl)-N-[4-(morpholine-4-sulfonyl)phenyl]benzamide

>  <PriceCoeff>
1.00

>  <MW>
443.47

>  <Description>
solid

>  <FSP3>
0.29

>  <clogP>
0.39

>  <TPSA>
121.47

>  <Acceptor>
6

>  <Donor>
1

>  <RotBonds>
5

>  <HAC>
31

>  <Collection>
General

$$$$
F1593-0022
  Mrv2219 10102508112D          

 26 29  0  0  0  0            999 V2000
   -0.7347   -1.1547    0.0000 N   0  0  0  0  0  0  0  0  0  0  0  0
   -0.6471   -0.3336    0.0000 C   0  0  0  0  0  0  0  0  0  0  0  0
    0.0177   -1.4926    0.0000 C   0  0  0  0  0  0  0  0  0  0  0  0
    0.5718   -0.8810    0.0000 C   0  0  0  0  0  0  0  0  0  0  0  0
    0.1607   -0.1640    0.0000 C   0  0  0  0  0  0  0  0  0  0  0  0
    3.0230    1.9027    0.0000 N   0  0  0  0  0  0  0  0  0  0  0  0
    1.3907   -0.9685    0.0000 N   0  0  0  0  0  0  0  0  0  0  0  0
   -1.2588    0.2194    0.0000 O   0  0  0  0  0  0  0  0  0  0  0  0
    2.6163    1.1868    0.0000 C   0  0  0  0  0  0  0  0  0  0  0  0
    0.1873   -2.3005    0.0000 O   0  0  0  0  0  0  0  0  0  0  0  0
   -1.4516   -1.5624    0.0000 C   0  0  0  0  0  0  0  0  0  0  0  0
    3.8374    3.3377    0.0000 O   0  0  0  0  0  0  0  0  0  0  0  0
    3.0351    0.4743    0.0000 C   0  0  0  0  0  0  0  0  0  0  0  0
    1.7830    1.1746    0.0000 C   0  0  0  0  0  0  0  0  0  0  0  0
    1.7996   -0.2493    0.0000 C   0  0  0  0  0  0  0  0  0  0  0  0
    2.6274   -0.2438    0.0000 C   0  0  0  0  0  0  0  0  0  0  0  0
    1.3807    0.4588    0.0000 C   0  0  0  0  0  0  0  0  0  0  0  0
    3.8496    1.9093    0.0000 C   0  0  0  0  0  0  0  0  0  0  0  0
    2.6030    2.6107    0.0000 C   0  0  0  0  0  0  0  0  0  0  0  0
    3.0130    3.3321    0.0000 C   0  0  0  0  0  0  0  0  0  0  0  0
    4.2552    2.6240    0.0000 C   0  0  0  0  0  0  0  0  0  0  0  0
   -1.4516   -2.3869    0.0000 C   0  0  0  0  0  0  0  0  0  0  0  0
   -2.1620   -1.1447    0.0000 C   0  0  0  0  0  0  0  0  0  0  0  0
   -2.1620   -2.7958    0.0000 C   0  0  0  0  0  0  0  0  0  0  0  0
   -2.8734   -1.5624    0.0000 C   0  0  0  0  0  0  0  0  0  0  0  0
   -2.8734   -2.3869    0.0000 C   0  0  0  0  0  0  0  0  0  0  0  0
  2  1  1  0  0  0  0
  3  1  1  0  0  0  0
  4  3  1  0  0  0  0
  5  2  1  0  0  0  0
  6  9  1  0  0  0  0
  7  4  1  0  0  0  0
  8  2  2  0  0  0  0
  9 14  1  0  0  0  0
 10  3  2  0  0  0  0
 11  1  1  0  0  0  0
 12 20  1  0  0  0  0
 13 16  1  0  0  0  0
 14 17  2  0  0  0  0
 15  7  1  0  0  0  0
 16 15  2  0  0  0  0
 17 15  1  0  0  0  0
 18  6  1  0  0  0  0
 19  6  1  0  0  0  0
 20 19  1  0  0  0  0
 21 18  1  0  0  0  0
 22 11  1  0  0  0  0
 23 11  1  0  0  0  0
 24 22  1  0  0  0  0
 25 23  1  0  0  0  0
 26 25  1  0  0  0  0
  5  4  1  0  0  0  0
 26 24  1  0  0  0  0
  9 13  2  0  0  0  0
 12 21  1  0  0  0  0
M  END
>  <IDNUMBER>
F1593-0022

>  <Chemical_Name>
1-cyclohexyl-3-{[4-(morpholin-4-yl)phenyl]amino}pyrrolidine-2,5-dione

>  <PriceCoeff>
1.00

>  <CAS>
1009782-44-8

>  <MW>
357.45

>  <Description>
solid

>  <FSP3>
0.60

>  <clogP>
3.05

>  <TPSA>
61.88

>  <Acceptor>
5

>  <Donor>
2

>  <RotBonds>
4

>  <HAC>
26

>  <Collection>
General

>  <PPDS>
+

$$$$
F1593-0029
  Mrv2219 10102508112D          

 30 34  0  0  0  0            999 V2000
    0.8302   -0.3132    0.0000 N   0  0  0  0  0  0  0  0  0  0  0  0
    1.5839    0.0255    0.0000 C   0  0  0  0  0  0  0  0  0  0  0  0
    0.9194   -1.1361    0.0000 C   0  0  0  0  0  0  0  0  0  0  0  0
    0.1111    0.0965    0.0000 C   0  0  0  0  0  0  0  0  0  0  0  0
    1.7278   -1.3018    0.0000 C   0  0  0  0  0  0  0  0  0  0  0  0
    2.1410   -0.5899    0.0000 C   0  0  0  0  0  0  0  0  0  0  0  0
   -0.5990   -0.3186    0.0000 C   0  0  0  0  0  0  0  0  0  0  0  0
    5.3435   -2.3814    0.0000 N   0  0  0  0  0  0  0  0  0  0  0  0
    2.0664   -2.0555    0.0000 N   0  0  0  0  0  0  0  0  0  0  0  0
    1.7496    0.8338    0.0000 O   0  0  0  0  0  0  0  0  0  0  0  0
    4.5279   -2.3013    0.0000 C   0  0  0  0  0  0  0  0  0  0  0  0
    0.3059   -1.6932    0.0000 O   0  0  0  0  0  0  0  0  0  0  0  0
    6.9912   -2.5471    0.0000 O   0  0  0  0  0  0  0  0  0  0  0  0
    4.1856   -1.5475    0.0000 C   0  0  0  0  0  0  0  0  0  0  0  0
    4.0491   -2.9713    0.0000 C   0  0  0  0  0  0  0  0  0  0  0  0
    2.8857   -2.1356    0.0000 C   0  0  0  0  0  0  0  0  0  0  0  0
   -1.3108    0.0856    0.0000 C   0  0  0  0  0  0  0  0  0  0  0  0
    0.1111    0.9212    0.0000 C   0  0  0  0  0  0  0  0  0  0  0  0
    3.3645   -1.4692    0.0000 C   0  0  0  0  0  0  0  0  0  0  0  0
    3.2280   -2.8893    0.0000 C   0  0  0  0  0  0  0  0  0  0  0  0
    5.8242   -1.7059    0.0000 C   0  0  0  0  0  0  0  0  0  0  0  0
    5.6876   -3.1369    0.0000 C   0  0  0  0  0  0  0  0  0  0  0  0
   -0.5880   -1.1379    0.0000 C   0  0  0  0  0  0  0  0  0  0  0  0
   -0.6044    1.3327    0.0000 C   0  0  0  0  0  0  0  0  0  0  0  0
    6.5069   -3.2189    0.0000 C   0  0  0  0  0  0  0  0  0  0  0  0
    6.6489   -1.7915    0.0000 C   0  0  0  0  0  0  0  0  0  0  0  0
   -1.3199    0.9158    0.0000 C   0  0  0  0  0  0  0  0  0  0  0  0
   -2.0191   -0.3295    0.0000 C   0  0  0  0  0  0  0  0  0  0  0  0
   -1.2926   -1.5566    0.0000 C   0  0  0  0  0  0  0  0  0  0  0  0
   -2.0136   -1.1543    0.0000 C   0  0  0  0  0  0  0  0  0  0  0  0
  2  1  1  0  0  0  0
  3  1  1  0  0  0  0
  4  1  1  0  0  0  0
  5  3  1  0  0  0  0
  6  2  1  0  0  0  0
  7  4  1  0  0  0  0
  8 11  1  0  0  0  0
  9  5  1  0  0  0  0
 10  2  2  0  0  0  0
 11 15  2  0  0  0  0
 12  3  2  0  0  0  0
 13 25  1  0  0  0  0
 14 19  2  0  0  0  0
 15 20  1  0  0  0  0
 16  9  1  0  0  0  0
 17  7  1  0  0  0  0
 18  4  2  0  0  0  0
 19 16  1  0  0  0  0
 20 16  2  0  0  0  0
 21  8  1  0  0  0  0
 22  8  1  0  0  0  0
 23  7  2  0  0  0  0
 24 18  1  0  0  0  0
 25 22  1  0  0  0  0
 26 21  1  0  0  0  0
 27 24  2  0  0  0  0
 28 17  2  0  0  0  0
 29 23  1  0  0  0  0
 30 29  2  0  0  0  0
  6  5  1  0  0  0  0
 27 17  1  0  0  0  0
 30 28  1  0  0  0  0
 14 11  1  0  0  0  0
 13 26  1  0  0  0  0
M  END
>  <IDNUMBER>
F1593-0029

>  <Chemical_Name>
3-{[4-(morpholin-4-yl)phenyl]amino}-1-(naphthalen-1-yl)pyrrolidine-2,5-dione

>  <PriceCoeff>
1.00

>  <CAS>
1007919-98-3

>  <MW>
401.46

>  <Description>
solid

>  <FSP3>
0.25

>  <clogP>
3.12

>  <TPSA>
61.88

>  <Acceptor>
5

>  <Donor>
2

>  <RotBonds>
4

>  <HAC>
30

>  <Collection>
General

>  <PPDS>
+

$$$$
F1593-0033
  Mrv2219 10102508112D          

 25 27  0  0  0  0            999 V2000
    3.7110   -1.9336    0.0000 C   0  0  0  0  0  0  0  0  0  0  0  0
    3.7164   -2.7556    0.0000 N   0  3  0  0  0  0  0  0  0  0  0  0
   -0.5751   -0.2976    0.0000 N   0  0  0  0  0  0  0  0  0  0  0  0
    0.1401   -0.7126    0.0000 C   0  0  0  0  0  0  0  0  0  0  0  0
   -0.5751   -1.9469    0.0000 S   0  0  0  0  0  0  0  0  0  0  0  0
    0.1401   -1.5386    0.0000 C   0  0  0  0  0  0  0  0  0  0  0  0
    2.9945   -1.5226    0.0000 C   0  0  0  0  0  0  0  0  0  0  0  0
    0.8500   -1.9536    0.0000 C   0  0  0  0  0  0  0  0  0  0  0  0
    1.5626   -1.5346    0.0000 C   0  0  0  0  0  0  0  0  0  0  0  0
    2.2819   -1.9429    0.0000 N   0  0  0  0  0  0  0  0  0  0  0  0
   -1.2837   -0.7139    0.0000 C   0  0  0  0  0  0  0  0  0  0  0  0
   -1.2877   -1.5386    0.0000 C   0  0  0  0  0  0  0  0  0  0  0  0
    4.4236   -1.5132    0.0000 C   0  0  0  0  0  0  0  0  0  0  0  0
    3.0078   -3.1706    0.0000 O   0  5  0  0  0  0  0  0  0  0  0  0
    4.4316   -3.1599    0.0000 O   0  0  0  0  0  0  0  0  0  0  0  0
    0.8500   -0.3042    0.0000 O   0  0  0  0  0  0  0  0  0  0  0  0
    1.5573   -0.7086    0.0000 O   0  0  0  0  0  0  0  0  0  0  0  0
    2.9824   -0.7006    0.0000 C   0  0  0  0  0  0  0  0  0  0  0  0
    4.4170   -0.6859    0.0000 C   0  0  0  0  0  0  0  0  0  0  0  0
    3.6910   -0.2776    0.0000 C   0  0  0  0  0  0  0  0  0  0  0  0
    5.1242   -0.2682    0.0000 Cl  0  0  0  0  0  0  0  0  0  0  0  0
   -1.9910   -0.3042    0.0000 C   0  0  0  0  0  0  0  0  0  0  0  0
   -1.9950   -1.9496    0.0000 C   0  0  0  0  0  0  0  0  0  0  0  0
   -2.7076   -0.7126    0.0000 C   0  0  0  0  0  0  0  0  0  0  0  0
   -2.7076   -1.5386    0.0000 C   0  0  0  0  0  0  0  0  0  0  0  0
  2  1  1  0  0  0  0
  3  4  1  0  0  0  0
  4  6  1  0  0  0  0
  5  6  1  0  0  0  0
  6  8  1  0  0  0  0
  7  1  2  0  0  0  0
  8  9  1  0  0  0  0
  9 10  1  0  0  0  0
 10  7  1  0  0  0  0
 11 12  2  0  0  0  0
 12  5  1  0  0  0  0
 13  1  1  0  0  0  0
 14  2  1  0  0  0  0
 15  2  2  0  0  0  0
 16  4  2  0  0  0  0
 17  9  2  0  0  0  0
 18  7  1  0  0  0  0
 19 13  2  0  0  0  0
 20 19  1  0  0  0  0
 21 19  1  0  0  0  0
 22 11  1  0  0  0  0
 23 12  1  0  0  0  0
 24 25  1  0  0  0  0
 25 23  2  0  0  0  0
 18 20  2  0  0  0  0
 11  3  1  0  0  0  0
 22 24  2  0  0  0  0
M  CHG  2   2   1  14  -1
M  END
>  <IDNUMBER>
F1593-0033

>  <Chemical_Name>
N-(4-chloro-2-nitrophenyl)-2-(3-oxo-3,4-dihydro-2H-1,4-benzothiazin-2-yl)acetamide

>  <PriceCoeff>
1.00

>  <CAS>
713099-77-5

>  <MW>
377.80

>  <Description>
solid

>  <FSP3>
0.12

>  <clogP>
2.89

>  <TPSA>
126.64

>  <Acceptor>
4

>  <Donor>
2

>  <RotBonds>
4

>  <HAC>
25

>  <Collection>
General

>  <PPDS>
+

$$$$
F1593-0038
  Mrv2219 10102508112D          

 30 33  0  0  0  0            999 V2000
   -0.1304   -0.4384    0.0000 N   0  0  0  0  0  0  0  0  0  0  0  0
    0.6238   -0.1006    0.0000 C   0  0  0  0  0  0  0  0  0  0  0  0
   -0.0408   -1.2602    0.0000 C   0  0  0  0  0  0  0  0  0  0  0  0
    0.7684   -1.4283    0.0000 C   0  0  0  0  0  0  0  0  0  0  0  0
    1.1801   -0.7134    0.0000 C   0  0  0  0  0  0  0  0  0  0  0  0
   -0.8469   -0.0299    0.0000 C   0  0  0  0  0  0  0  0  0  0  0  0
    4.3887   -2.5078    0.0000 N   0  0  0  0  0  0  0  0  0  0  0  0
    1.1046   -2.1794    0.0000 N   0  0  0  0  0  0  0  0  0  0  0  0
   -0.8469    0.7967    0.0000 C   0  0  0  0  0  0  0  0  0  0  0  0
    0.7919    0.7102    0.0000 O   0  0  0  0  0  0  0  0  0  0  0  0
    3.5700   -2.4293    0.0000 C   0  0  0  0  0  0  0  0  0  0  0  0
   -0.6552   -1.8164    0.0000 O   0  0  0  0  0  0  0  0  0  0  0  0
   -0.8564    2.4434    0.0000 C   0  0  0  0  0  0  0  0  0  0  0  0
   -1.5682    1.2099    0.0000 C   0  0  0  0  0  0  0  0  0  0  0  0
   -1.5682    2.0286    0.0000 O   0  0  0  0  0  0  0  0  0  0  0  0
   -0.8611    3.2683    0.0000 O   0  0  0  0  0  0  0  0  0  0  0  0
    6.0338   -2.6728    0.0000 O   0  0  0  0  0  0  0  0  0  0  0  0
    3.2259   -1.6734    0.0000 C   0  0  0  0  0  0  0  0  0  0  0  0
    3.0892   -3.0971    0.0000 C   0  0  0  0  0  0  0  0  0  0  0  0
    1.9280   -2.2596    0.0000 C   0  0  0  0  0  0  0  0  0  0  0  0
    2.4057   -1.5949    0.0000 C   0  0  0  0  0  0  0  0  0  0  0  0
    2.2690   -3.0138    0.0000 C   0  0  0  0  0  0  0  0  0  0  0  0
   -1.5587   -0.4447    0.0000 C   0  0  0  0  0  0  0  0  0  0  0  0
    4.7297   -3.2636    0.0000 C   0  0  0  0  0  0  0  0  0  0  0  0
    4.8664   -1.8337    0.0000 C   0  0  0  0  0  0  0  0  0  0  0  0
   -2.2737   -0.0393    0.0000 C   0  0  0  0  0  0  0  0  0  0  0  0
   -0.1414    2.0364    0.0000 C   0  0  0  0  0  0  0  0  0  0  0  0
   -2.2784    0.7904    0.0000 C   0  0  0  0  0  0  0  0  0  0  0  0
    5.5499   -3.3438    0.0000 C   0  0  0  0  0  0  0  0  0  0  0  0
    5.6944   -1.9186    0.0000 C   0  0  0  0  0  0  0  0  0  0  0  0
  2  1  1  0  0  0  0
  3  1  1  0  0  0  0
  4  3  1  0  0  0  0
  5  2  1  0  0  0  0
  6  1  1  0  0  0  0
  7 11  1  0  0  0  0
  8  4  1  0  0  0  0
  9  6  2  0  0  0  0
 10  2  2  0  0  0  0
 11 19  2  0  0  0  0
 12  3  2  0  0  0  0
 13 15  1  0  0  0  0
 14  9  1  0  0  0  0
 15 14  1  0  0  0  0
 16 13  2  0  0  0  0
 17 30  1  0  0  0  0
 18 21  2  0  0  0  0
 19 22  1  0  0  0  0
 20  8  1  0  0  0  0
 21 20  1  0  0  0  0
 22 20  2  0  0  0  0
 23  6  1  0  0  0  0
 24  7  1  0  0  0  0
 25  7  1  0  0  0  0
 26 23  2  0  0  0  0
 27 13  1  0  0  0  0
 28 26  1  0  0  0  0
 29 24  1  0  0  0  0
 30 25  1  0  0  0  0
  5  4  1  0  0  0  0
 28 14  2  0  0  0  0
 18 11  1  0  0  0  0
 17 29  1  0  0  0  0
M  END
>  <IDNUMBER>
F1593-0038

>  <Chemical_Name>
3-(3-{[4-(morpholin-4-yl)phenyl]amino}-2,5-dioxopyrrolidin-1-yl)phenyl acetate

>  <PriceCoeff>
1.00

>  <CAS>
1008185-55-4

>  <MW>
409.44

>  <Description>
solid

>  <FSP3>
0.32

>  <clogP>
1.46

>  <TPSA>
88.18

>  <Acceptor>
7

>  <Donor>
2

>  <RotBonds>
6

>  <HAC>
30

>  <Collection>
General

>  <PPDS>
+

$$$$
F1593-0042
  Mrv2219 10102508112D          

 32 35  0  0  0  0            999 V2000
    1.1852   -0.6604    0.0000 N   0  0  0  0  0  0  0  0  0  0  0  0
    1.2731   -1.4792    0.0000 C   0  0  0  0  0  0  0  0  0  0  0  0
    1.9373   -0.3226    0.0000 C   0  0  0  0  0  0  0  0  0  0  0  0
    2.0804   -1.6490    0.0000 C   0  0  0  0  0  0  0  0  0  0  0  0
    2.4927   -0.9352    0.0000 C   0  0  0  0  0  0  0  0  0  0  0  0
    5.6877   -2.7217    0.0000 N   0  0  0  0  0  0  0  0  0  0  0  0
    0.4695   -0.2539    0.0000 C   0  0  0  0  0  0  0  0  0  0  0  0
    2.4163   -2.3953    0.0000 N   0  0  0  0  0  0  0  0  0  0  0  0
   -1.6929    1.0173    0.0000 C   0  0  0  0  0  0  0  0  0  0  0  0
    4.8727   -2.6453    0.0000 C   0  0  0  0  0  0  0  0  0  0  0  0
    0.6604   -2.0346    0.0000 O   0  0  0  0  0  0  0  0  0  0  0  0
    2.1033    0.4848    0.0000 O   0  0  0  0  0  0  0  0  0  0  0  0
   -2.4201    0.5936    0.0000 C   0  0  0  0  0  0  0  0  0  0  0  0
   -0.9657    0.5936    0.0000 C   0  0  0  0  0  0  0  0  0  0  0  0
    7.3291   -2.8877    0.0000 O   0  0  0  0  0  0  0  0  0  0  0  0
    4.5310   -1.8914    0.0000 C   0  0  0  0  0  0  0  0  0  0  0  0
    4.3936   -3.3114    0.0000 C   0  0  0  0  0  0  0  0  0  0  0  0
    3.2370   -2.4793    0.0000 C   0  0  0  0  0  0  0  0  0  0  0  0
   -2.4201   -0.2519    0.0000 C   0  0  0  0  0  0  0  0  0  0  0  0
   -0.9657   -0.2481    0.0000 C   0  0  0  0  0  0  0  0  0  0  0  0
   -0.2386   -0.6661    0.0000 C   0  0  0  0  0  0  0  0  0  0  0  0
    3.5748   -3.2294    0.0000 C   0  0  0  0  0  0  0  0  0  0  0  0
    3.7123   -1.8151    0.0000 C   0  0  0  0  0  0  0  0  0  0  0  0
   -1.6891   -0.6661    0.0000 C   0  0  0  0  0  0  0  0  0  0  0  0
   -1.6929    1.8380    0.0000 O   0  0  0  0  0  0  0  0  0  0  0  0
   -3.1320    1.0058    0.0000 O   0  0  0  0  0  0  0  0  0  0  0  0
    6.1667   -2.0518    0.0000 C   0  0  0  0  0  0  0  0  0  0  0  0
    6.0293   -3.4775    0.0000 C   0  0  0  0  0  0  0  0  0  0  0  0
    6.8481   -3.5577    0.0000 C   0  0  0  0  0  0  0  0  0  0  0  0
    6.9874   -2.1357    0.0000 C   0  0  0  0  0  0  0  0  0  0  0  0
   -2.4029    2.2464    0.0000 C   0  0  0  0  0  0  0  0  0  0  0  0
   -3.8382    0.5955    0.0000 C   0  0  0  0  0  0  0  0  0  0  0  0
  2  1  1  0  0  0  0
  3  1  1  0  0  0  0
  4  2  1  0  0  0  0
  5  3  1  0  0  0  0
  6 10  1  0  0  0  0
  7  1  1  0  0  0  0
  8  4  1  0  0  0  0
  9 14  1  0  0  0  0
 10 16  1  0  0  0  0
 11  2  2  0  0  0  0
 12  3  2  0  0  0  0
 13 19  1  0  0  0  0
 14 20  2  0  0  0  0
 15 29  1  0  0  0  0
 16 23  2  0  0  0  0
 17 22  1  0  0  0  0
 18  8  1  0  0  0  0
 19 24  2  0  0  0  0
 20 21  1  0  0  0  0
 21  7  1  0  0  0  0
 22 18  2  0  0  0  0
 23 18  1  0  0  0  0
 24 20  1  0  0  0  0
 25  9  1  0  0  0  0
 26 13  1  0  0  0  0
 27  6  1  0  0  0  0
 28  6  1  0  0  0  0
 29 28  1  0  0  0  0
 30 27  1  0  0  0  0
 31 25  1  0  0  0  0
 32 26  1  0  0  0  0
  5  4  1  0  0  0  0
 13  9  2  0  0  0  0
 10 17  2  0  0  0  0
 15 30  1  0  0  0  0
M  END
>  <IDNUMBER>
F1593-0042

>  <Chemical_Name>
1-[2-(3,4-dimethoxyphenyl)ethyl]-3-{[4-(morpholin-4-yl)phenyl]amino}pyrrolidine-2,5-dione

>  <PriceCoeff>
1.00

>  <MW>
439.50

>  <Description>
solid

>  <FSP3>
0.42

>  <clogP>
2.87

>  <TPSA>
80.34

>  <Acceptor>
7

>  <Donor>
2

>  <RotBonds>
8

>  <HAC>
32

>  <Collection>
General

$$$$
F1593-0044
  Mrv2219 10102508112D          

 30 33  0  0  0  0            999 V2000
    1.6517   -1.1601    0.0000 N   0  0  0  0  0  0  0  0  0  0  0  0
    2.4034   -0.8228    0.0000 C   0  0  0  0  0  0  0  0  0  0  0  0
    1.7391   -1.9829    0.0000 C   0  0  0  0  0  0  0  0  0  0  0  0
    2.5476   -2.1515    0.0000 C   0  0  0  0  0  0  0  0  0  0  0  0
    2.9580   -1.4384    0.0000 C   0  0  0  0  0  0  0  0  0  0  0  0
    6.1578   -3.2241    0.0000 N   0  0  0  0  0  0  0  0  0  0  0  0
    2.8828   -2.9011    0.0000 N   0  0  0  0  0  0  0  0  0  0  0  0
    0.9345   -0.7517    0.0000 C   0  0  0  0  0  0  0  0  0  0  0  0
    2.5720   -0.0142    0.0000 O   0  0  0  0  0  0  0  0  0  0  0  0
    5.3411   -3.1470    0.0000 C   0  0  0  0  0  0  0  0  0  0  0  0
   -1.2169    1.3022    0.0000 C   0  0  0  0  0  0  0  0  0  0  0  0
    1.1235   -2.5375    0.0000 O   0  0  0  0  0  0  0  0  0  0  0  0
   -1.2129    0.4794    0.0000 O   0  0  0  0  0  0  0  0  0  0  0  0
    7.8013   -3.3907    0.0000 O   0  0  0  0  0  0  0  0  0  0  0  0
    0.9345    0.0731    0.0000 C   0  0  0  0  0  0  0  0  0  0  0  0
    0.2276   -1.1662    0.0000 C   0  0  0  0  0  0  0  0  0  0  0  0
    4.8636   -3.8153    0.0000 C   0  0  0  0  0  0  0  0  0  0  0  0
    4.9998   -2.3952    0.0000 C   0  0  0  0  0  0  0  0  0  0  0  0
    3.7016   -2.9824    0.0000 C   0  0  0  0  0  0  0  0  0  0  0  0
   -0.4977    0.0670    0.0000 C   0  0  0  0  0  0  0  0  0  0  0  0
   -1.9361    1.7167    0.0000 F   0  0  0  0  0  0  0  0  0  0  0  0
   -0.5038    1.7187    0.0000 F   0  0  0  0  0  0  0  0  0  0  0  0
    4.1831   -2.3181    0.0000 C   0  0  0  0  0  0  0  0  0  0  0  0
    4.0429   -3.7321    0.0000 C   0  0  0  0  0  0  0  0  0  0  0  0
   -0.4916   -0.7618    0.0000 C   0  0  0  0  0  0  0  0  0  0  0  0
    0.2194    0.4855    0.0000 C   0  0  0  0  0  0  0  0  0  0  0  0
    6.6393   -2.5537    0.0000 C   0  0  0  0  0  0  0  0  0  0  0  0
    6.5031   -3.9819    0.0000 C   0  0  0  0  0  0  0  0  0  0  0  0
    7.3198   -4.0591    0.0000 C   0  0  0  0  0  0  0  0  0  0  0  0
    7.4621   -2.6350    0.0000 C   0  0  0  0  0  0  0  0  0  0  0  0
  2  1  1  0  0  0  0
  3  1  1  0  0  0  0
  4  3  1  0  0  0  0
  5  2  1  0  0  0  0
  6 10  1  0  0  0  0
  7  4  1  0  0  0  0
  8  1  1  0  0  0  0
  9  2  2  0  0  0  0
 10 17  2  0  0  0  0
 11 13  1  0  0  0  0
 12  3  2  0  0  0  0
 13 20  1  0  0  0  0
 14 29  1  0  0  0  0
 15  8  2  0  0  0  0
 16  8  1  0  0  0  0
 17 24  1  0  0  0  0
 18 23  2  0  0  0  0
 19  7  1  0  0  0  0
 20 25  1  0  0  0  0
 21 11  1  0  0  0  0
 22 11  1  0  0  0  0
 23 19  1  0  0  0  0
 24 19  2  0  0  0  0
 25 16  2  0  0  0  0
 26 15  1  0  0  0  0
 27  6  1  0  0  0  0
 28  6  1  0  0  0  0
 29 28  1  0  0  0  0
 30 27  1  0  0  0  0
  5  4  1  0  0  0  0
 20 26  2  0  0  0  0
 18 10  1  0  0  0  0
 14 30  1  0  0  0  0
M  END
>  <IDNUMBER>
F1593-0044

>  <Chemical_Name>
1-[4-(difluoromethoxy)phenyl]-3-{[4-(morpholin-4-yl)phenyl]amino}pyrrolidine-2,5-dione

>  <PriceCoeff>
1.00

>  <CAS>
1008678-07-6

>  <MW>
417.41

>  <Description>
solid

>  <FSP3>
0.33

>  <clogP>
2.48

>  <TPSA>
71.11

>  <Acceptor>
6

>  <Donor>
2

>  <RotBonds>
6

>  <HAC>
30

>  <Collection>
General

>  <PPDS>
+

$$$$
F1593-0047
  Mrv2219 10102508112D          

 23 25  0  0  0  0            999 V2000
    0.1581   -1.4744    0.0000 N   0  0  0  0  0  0  0  0  0  0  0  0
    0.9110   -1.1367    0.0000 C   0  0  0  0  0  0  0  0  0  0  0  0
    0.2471   -2.2980    0.0000 C   0  0  0  0  0  0  0  0  0  0  0  0
    1.0576   -2.4660    0.0000 C   0  0  0  0  0  0  0  0  0  0  0  0
    1.4694   -1.7511    0.0000 C   0  0  0  0  0  0  0  0  0  0  0  0
    4.6768   -3.5451    0.0000 N   0  0  0  0  0  0  0  0  0  0  0  0
    1.3953   -3.2189    0.0000 N   0  0  0  0  0  0  0  0  0  0  0  0
    1.0790   -0.3261    0.0000 O   0  0  0  0  0  0  0  0  0  0  0  0
    3.8597   -3.4660    0.0000 C   0  0  0  0  0  0  0  0  0  0  0  0
   -0.3690   -2.8531    0.0000 O   0  0  0  0  0  0  0  0  0  0  0  0
   -0.5567   -1.0642    0.0000 C   0  0  0  0  0  0  0  0  0  0  0  0
    6.3257   -3.7114    0.0000 O   0  0  0  0  0  0  0  0  0  0  0  0
    3.5154   -2.7098    0.0000 C   0  0  0  0  0  0  0  0  0  0  0  0
    3.3771   -4.1331    0.0000 C   0  0  0  0  0  0  0  0  0  0  0  0
    2.2157   -3.2980    0.0000 C   0  0  0  0  0  0  0  0  0  0  0  0
    2.6950   -2.6308    0.0000 C   0  0  0  0  0  0  0  0  0  0  0  0
    2.5567   -4.0541    0.0000 C   0  0  0  0  0  0  0  0  0  0  0  0
    5.1594   -2.8713    0.0000 C   0  0  0  0  0  0  0  0  0  0  0  0
    5.0210   -4.3011    0.0000 C   0  0  0  0  0  0  0  0  0  0  0  0
    5.8414   -4.3835    0.0000 C   0  0  0  0  0  0  0  0  0  0  0  0
    5.9864   -2.9553    0.0000 C   0  0  0  0  0  0  0  0  0  0  0  0
   -0.5584   -0.2421    0.0000 C   0  0  0  0  0  0  0  0  0  0  0  0
   -1.2684   -1.4793    0.0000 C   0  0  0  0  0  0  0  0  0  0  0  0
  2  1  1  0  0  0  0
  3  1  1  0  0  0  0
  4  3  1  0  0  0  0
  5  2  1  0  0  0  0
  6  9  1  0  0  0  0
  7  4  1  0  0  0  0
  8  2  2  0  0  0  0
  9 14  2  0  0  0  0
 10  3  2  0  0  0  0
 11  1  1  0  0  0  0
 12 20  1  0  0  0  0
 13 16  2  0  0  0  0
 14 17  1  0  0  0  0
 15  7  1  0  0  0  0
 16 15  1  0  0  0  0
 17 15  2  0  0  0  0
 18  6  1  0  0  0  0
 19  6  1  0  0  0  0
 20 19  1  0  0  0  0
 21 18  1  0  0  0  0
 22 11  1  0  0  0  0
 23 11  1  0  0  0  0
  5  4  1  0  0  0  0
 13  9  1  0  0  0  0
 12 21  1  0  0  0  0
M  END
>  <IDNUMBER>
F1593-0047

>  <Chemical_Name>
3-{[4-(morpholin-4-yl)phenyl]amino}-1-(propan-2-yl)pyrrolidine-2,5-dione

>  <PriceCoeff>
1.00

>  <CAS>
1008201-66-8

>  <MW>
317.38

>  <Description>
solid

>  <FSP3>
0.53

>  <clogP>
1.95

>  <TPSA>
61.88

>  <Acceptor>
5

>  <Donor>
2

>  <RotBonds>
4

>  <HAC>
23

>  <Collection>
General

>  <PPDS>
+

$$$$
F1595-0020
  Mrv2219 10102508112D          

 23 25  0  0  0  0            999 V2000
    1.2579   -0.4857    0.0000 C   0  0  0  0  0  0  0  0  0  0  0  0
    0.5397   -0.9009    0.0000 N   0  0  0  0  0  0  0  0  0  0  0  0
    1.9720   -0.9009    0.0000 N   0  0  0  0  0  0  0  0  0  0  0  0
   -0.8843   -1.7229    0.0000 N   0  0  0  0  0  0  0  0  0  0  0  0
    2.6819   -0.4774    0.0000 C   0  0  0  0  0  0  0  0  0  0  0  0
    1.2579    0.3445    0.0000 S   0  0  0  0  0  0  0  0  0  0  0  0
    0.5397   -1.7229    0.0000 C   0  0  0  0  0  0  0  0  0  0  0  0
   -0.1702   -0.4857    0.0000 C   0  0  0  0  0  0  0  0  0  0  0  0
   -0.1702   -2.1339    0.0000 C   0  0  0  0  0  0  0  0  0  0  0  0
   -0.8925   -0.9009    0.0000 C   0  0  0  0  0  0  0  0  0  0  0  0
   -1.6024   -2.1421    0.0000 C   0  0  0  0  0  0  0  0  0  0  0  0
    3.4000   -0.8884    0.0000 C   0  0  0  0  0  0  0  0  0  0  0  0
    3.4042   -1.7104    0.0000 O   0  0  0  0  0  0  0  0  0  0  0  0
    2.6694    0.3445    0.0000 C   0  0  0  0  0  0  0  0  0  0  0  0
   -2.3248   -1.7312    0.0000 C   0  0  0  0  0  0  0  0  0  0  0  0
   -1.6024   -2.9683    0.0000 C   0  0  0  0  0  0  0  0  0  0  0  0
    4.1099   -0.4733    0.0000 C   0  0  0  0  0  0  0  0  0  0  0  0
    4.1141   -2.1172    0.0000 C   0  0  0  0  0  0  0  0  0  0  0  0
    3.3793    0.7555    0.0000 C   0  0  0  0  0  0  0  0  0  0  0  0
   -3.0347   -2.1421    0.0000 C   0  0  0  0  0  0  0  0  0  0  0  0
    4.1017    0.3570    0.0000 C   0  0  0  0  0  0  0  0  0  0  0  0
   -2.3248   -3.3876    0.0000 C   0  0  0  0  0  0  0  0  0  0  0  0
   -3.0347   -2.9683    0.0000 C   0  0  0  0  0  0  0  0  0  0  0  0
  2  1  1  0  0  0  0
  3  1  1  0  0  0  0
  4 10  1  0  0  0  0
  5  3  1  0  0  0  0
  6  1  2  0  0  0  0
  7  2  1  0  0  0  0
  8  2  1  0  0  0  0
  9  7  1  0  0  0  0
 10  8  1  0  0  0  0
 11  4  1  0  0  0  0
 12  5  2  0  0  0  0
 13 12  1  0  0  0  0
 14  5  1  0  0  0  0
 15 11  2  0  0  0  0
 16 11  1  0  0  0  0
 17 12  1  0  0  0  0
 18 13  1  0  0  0  0
 19 14  2  0  0  0  0
 20 15  1  0  0  0  0
 21 19  1  0  0  0  0
 22 16  2  0  0  0  0
 23 22  1  0  0  0  0
  4  9  1  0  0  0  0
 21 17  2  0  0  0  0
 23 20  2  0  0  0  0
M  END
>  <IDNUMBER>
F1595-0020

>  <Chemical_Name>
N-(2-methoxyphenyl)-4-phenylpiperazine-1-carbothioamide

>  <PriceCoeff>
1.00

>  <CAS>
431057-08-8

>  <MW>
327.44

>  <Description>
solid

>  <FSP3>
0.28

>  <clogP>
3.52

>  <TPSA>
59.83

>  <Acceptor>
3

>  <Donor>
3

>  <RotBonds>
4

>  <HAC>
23

>  <Collection>
General

>  <PPDS>
+

$$$$
F1601-0132
  Mrv2219 10102508112D          

 19 21  0  0  0  0            999 V2000
    3.9375   -2.0250    0.0000 C   0  0  0  0  0  0  0  0  0  0  0  0
    3.1125   -2.0250    0.0000 N   0  0  0  0  0  0  0  0  0  0  0  0
    4.1917   -1.2375    0.0000 C   0  0  0  0  0  0  0  0  0  0  0  0
    2.8625   -1.2375    0.0000 N   0  0  0  0  0  0  0  0  0  0  0  0
    3.5250   -0.7542    0.0000 N   0  0  0  0  0  0  0  0  0  0  0  0
    4.9792   -0.9792    0.0000 C   0  0  0  0  0  0  0  0  0  0  0  0
    2.6292   -2.6875    0.0000 C   0  0  0  0  0  0  0  0  0  0  0  0
    4.4250   -2.6917    0.0000 N   0  0  0  0  0  0  0  0  0  0  0  0
    5.5917   -1.5375    0.0000 C   0  0  0  0  0  0  0  0  0  0  0  0
    5.1500   -0.1792    0.0000 C   0  0  0  0  0  0  0  0  0  0  0  0
    6.5417   -0.4792    0.0000 C   0  0  0  0  0  0  0  0  0  0  0  0
    5.9292    0.0750    0.0000 C   0  0  0  0  0  0  0  0  0  0  0  0
    6.3750   -1.2792    0.0000 C   0  0  0  0  0  0  0  0  0  0  0  0
    7.3292   -0.2167    0.0000 Cl  0  0  0  0  0  0  0  0  0  0  0  0
    1.8042   -2.6000    0.0000 C   0  0  0  0  0  0  0  0  0  0  0  0
    2.9625   -3.4375    0.0000 C   0  0  0  0  0  0  0  0  0  0  0  0
    2.4792   -4.1042    0.0000 C   0  0  0  0  0  0  0  0  0  0  0  0
    1.3167   -3.2625    0.0000 C   0  0  0  0  0  0  0  0  0  0  0  0
    1.6542   -4.0167    0.0000 C   0  0  0  0  0  0  0  0  0  0  0  0
  2  1  1  0  0  0  0
  3  1  2  0  0  0  0
  4  2  1  0  0  0  0
  5  3  1  0  0  0  0
  6  3  1  0  0  0  0
  7  2  1  0  0  0  0
  8  1  1  0  0  0  0
  9  6  2  0  0  0  0
 10  6  1  0  0  0  0
 11 12  1  0  0  0  0
 12 10  2  0  0  0  0
 13  9  1  0  0  0  0
 14 11  1  0  0  0  0
 15  7  2  0  0  0  0
 16  7  1  0  0  0  0
 17 16  2  0  0  0  0
 18 15  1  0  0  0  0
 19 17  1  0  0  0  0
  5  4  2  0  0  0  0
 13 11  2  0  0  0  0
 18 19  2  0  0  0  0
M  END
>  <IDNUMBER>
F1601-0132

>  <Chemical_Name>
4-(4-chlorophenyl)-1-phenyl-1H-1,2,3-triazol-5-amine

>  <PriceCoeff>
1.00

>  <CAS>
118946-58-0

>  <MW>
270.72

>  <Description>
solid

>  <FSP3>
0.00

>  <clogP>
3.73

>  <TPSA>
56.73

>  <Acceptor>
2

>  <Donor>
1

>  <RotBonds>
2

>  <HAC>
19

>  <Collection>
General

>  <PPDS>
+

$$$$
F1608-0694
  Mrv2219 10102508112D          

 32 36  0  0  0  0            999 V2000
    3.6875   -2.3542    0.0000 C   0  0  0  0  0  0  0  0  0  0  0  0
    3.6875   -3.1917    0.0000 C   0  0  0  0  0  0  0  0  0  0  0  0
    5.1250   -2.3542    0.0000 N   0  0  0  0  0  0  0  0  0  0  0  0
    5.1250   -3.1917    0.0000 C   0  0  0  0  0  0  0  0  0  0  0  0
    4.4000   -3.6042    0.0000 N   0  0  0  0  0  0  0  0  0  0  0  0
    4.4000   -1.9375    0.0000 C   0  0  0  0  0  0  0  0  0  0  0  0
    2.8875   -2.1042    0.0000 C   0  0  0  0  0  0  0  0  0  0  0  0
    2.4042   -2.7750    0.0000 C   0  0  0  0  0  0  0  0  0  0  0  0
    2.8875   -3.4375    0.0000 S   0  0  0  0  0  0  0  0  0  0  0  0
    1.2500   -1.9417    0.0000 N   0  0  0  0  0  0  0  0  0  0  0  0
    1.5875   -2.6917    0.0000 C   0  0  0  0  0  0  0  0  0  0  0  0
    5.8375   -3.6042    0.0000 S   0  0  0  0  0  0  0  0  0  0  0  0
    0.4250   -1.8542    0.0000 C   0  0  0  0  0  0  0  0  0  0  0  0
    2.5417   -1.3542    0.0000 C   0  0  0  0  0  0  0  0  0  0  0  0
    5.8375   -1.9417    0.0000 C   0  0  0  0  0  0  0  0  0  0  0  0
    4.4125   -1.1042    0.0000 O   0  0  0  0  0  0  0  0  0  0  0  0
    1.7292   -1.2750    0.0000 C   0  0  0  0  0  0  0  0  0  0  0  0
   -0.0583   -2.5250    0.0000 O   0  0  0  0  0  0  0  0  0  0  0  0
    5.8375   -4.4167    0.0000 C   0  0  0  0  0  0  0  0  0  0  0  0
    4.4042   -4.4167    0.0000 C   0  0  0  0  0  0  0  0  0  0  0  0
    3.6917   -4.8375    0.0000 C   0  0  0  0  0  0  0  0  0  0  0  0
    5.1250   -4.8292    0.0000 C   0  0  0  0  0  0  0  0  0  0  0  0
    2.9792   -4.4250    0.0000 Cl  0  0  0  0  0  0  0  0  0  0  0  0
    0.0750   -1.1000    0.0000 C   0  0  0  0  0  0  0  0  0  0  0  0
    4.4167   -6.0667    0.0000 C   0  0  0  0  0  0  0  0  0  0  0  0
    6.5542   -2.3500    0.0000 C   0  0  0  0  0  0  0  0  0  0  0  0
    5.8375   -1.1167    0.0000 C   0  0  0  0  0  0  0  0  0  0  0  0
    3.7000   -5.6625    0.0000 C   0  0  0  0  0  0  0  0  0  0  0  0
    5.1292   -5.6542    0.0000 C   0  0  0  0  0  0  0  0  0  0  0  0
    6.5417   -0.7042    0.0000 C   0  0  0  0  0  0  0  0  0  0  0  0
    7.2667   -1.9375    0.0000 C   0  0  0  0  0  0  0  0  0  0  0  0
    7.2542   -1.1042    0.0000 C   0  0  0  0  0  0  0  0  0  0  0  0
  2  1  2  0  0  0  0
  3  6  1  0  0  0  0
  4  3  1  0  0  0  0
  5  2  1  0  0  0  0
  6  1  1  0  0  0  0
  7  1  1  0  0  0  0
  8  7  2  0  0  0  0
  9  2  1  0  0  0  0
 10 17  1  0  0  0  0
 11  8  1  0  0  0  0
 12  4  1  0  0  0  0
 13 10  1  0  0  0  0
 14  7  1  0  0  0  0
 15  3  1  0  0  0  0
 16  6  2  0  0  0  0
 17 14  1  0  0  0  0
 18 13  2  0  0  0  0
 19 12  1  0  0  0  0
 20 22  2  0  0  0  0
 21 20  1  0  0  0  0
 22 19  1  0  0  0  0
 23 21  1  0  0  0  0
 24 13  1  0  0  0  0
 25 29  2  0  0  0  0
 26 15  1  0  0  0  0
 27 15  2  0  0  0  0
 28 25  1  0  0  0  0
 29 22  1  0  0  0  0
 30 27  1  0  0  0  0
 31 26  2  0  0  0  0
 32 30  2  0  0  0  0
  8  9  1  0  0  0  0
  4  5  2  0  0  0  0
 11 10  1  0  0  0  0
 32 31  1  0  0  0  0
 28 21  2  0  0  0  0
M  END
>  <IDNUMBER>
F1608-0694

>  <Chemical_Name>
11-acetyl-5-{[(3-chlorophenyl)methyl]sulfanyl}-4-phenyl-8-thia-4,6,11-triazatricyclo[7.4.0.0?,?]trideca-1(9),2(7),5-trien-3-one

>  <PriceCoeff>
1.00

>  <MW>
482.02

>  <Description>
solid

>  <FSP3>
0.21

>  <clogP>
4.35

>  <TPSA>
106.52

>  <Acceptor>
3

>  <Donor>
0

>  <RotBonds>
5

>  <HAC>
32

>  <Collection>
General

$$$$
F1614-0007
  Mrv2219 10102508112D          

 19 20  0  0  0  0            999 V2000
    4.0627   -4.6206    0.0000 C   0  0  0  0  0  0  0  0  0  0  0  0
    4.0627   -3.7938    0.0000 C   0  0  0  0  0  0  0  0  0  0  0  0
    4.8365   -4.8749    0.0000 N   0  0  0  0  0  0  0  0  0  0  0  0
    3.3493   -5.0231    0.0000 N   0  0  0  0  0  0  0  0  0  0  0  0
    2.6140   -3.7938    0.0000 N   0  0  0  0  0  0  0  0  0  0  0  0
    2.6140   -4.6206    0.0000 C   0  0  0  0  0  0  0  0  0  0  0  0
    3.3493   -3.3768    0.0000 C   0  0  0  0  0  0  0  0  0  0  0  0
    5.3121   -4.1871    0.0000 C   0  0  0  0  0  0  0  0  0  0  0  0
    4.9005   -3.4756    0.0000 N   0  0  0  0  0  0  0  0  0  0  0  0
    1.8896   -5.0231    0.0000 O   0  0  0  0  0  0  0  0  0  0  0  0
    3.3493   -2.5518    0.0000 O   0  0  0  0  0  0  0  0  0  0  0  0
    6.1371   -4.1871    0.0000 Br  0  0  0  0  0  0  0  0  0  0  0  0
    3.3493   -5.8499    0.0000 C   0  0  0  0  0  0  0  0  0  0  0  0
    1.9006   -3.3823    0.0000 C   0  0  0  0  0  0  0  0  0  0  0  0
    4.8950   -2.6579    0.0000 C   0  0  0  0  0  0  0  0  0  0  0  0
    6.3109   -2.6506    0.0000 O   0  0  0  0  0  0  0  0  0  0  0  0
    5.5993   -2.2463    0.0000 C   0  0  0  0  0  0  0  0  0  0  0  0
    7.0243   -2.2390    0.0000 C   0  0  0  0  0  0  0  0  0  0  0  0
    7.0243   -1.4232    0.0000 C   0  0  0  0  0  0  0  0  0  0  0  0
  2  1  2  0  0  0  0
  3  1  1  0  0  0  0
  4  1  1  0  0  0  0
  5  6  1  0  0  0  0
  6  4  1  0  0  0  0
  7  2  1  0  0  0  0
  8  3  2  0  0  0  0
  9  2  1  0  0  0  0
 10  6  2  0  0  0  0
 11  7  2  0  0  0  0
 12  8  1  0  0  0  0
 13  4  1  0  0  0  0
 14  5  1  0  0  0  0
 15  9  1  0  0  0  0
 16 17  1  0  0  0  0
 17 15  1  0  0  0  0
 18 16  1  0  0  0  0
 19 18  1  0  0  0  0
  8  9  1  0  0  0  0
  5  7  1  0  0  0  0
M  END
>  <IDNUMBER>
F1614-0007

>  <Chemical_Name>
8-bromo-7-(2-ethoxyethyl)-1,3-dimethyl-2,3,6,7-tetrahydro-1H-purine-2,6-dione

>  <PriceCoeff>
1.00

>  <CAS>
115308-41-3

>  <MW>
331.17

>  <Description>
solid

>  <FSP3>
0.55

>  <clogP>
1.17

>  <TPSA>
67.67

>  <Acceptor>
4

>  <Donor>
1

>  <RotBonds>
4

>  <HAC>
19

>  <Collection>
General

>  <PPDS>
+

$$$$
F1620-0030
  Mrv2219 10102508112D          

 28 31  0  0  0  0            999 V2000
    0.5765   -0.4386    0.0000 C   0  0  0  0  0  0  0  0  0  0  0  0
    0.8313    0.3509    0.0000 C   0  0  0  0  0  0  0  0  0  0  0  0
   -0.2506   -0.4386    0.0000 O   0  0  0  0  0  0  0  0  0  0  0  0
    5.2550    1.3868    0.0000 N   0  0  0  0  0  0  0  0  0  0  0  0
    1.6166    0.6098    0.0000 N   0  0  0  0  0  0  0  0  0  0  0  0
    0.1629    0.8354    0.0000 C   0  0  0  0  0  0  0  0  0  0  0  0
    2.2348    0.0501    0.0000 C   0  0  0  0  0  0  0  0  0  0  0  0
    5.9693    0.9733    0.0000 C   0  0  0  0  0  0  0  0  0  0  0  0
    5.4304    2.1930    0.0000 C   0  0  0  0  0  0  0  0  0  0  0  0
   -0.5096    0.3509    0.0000 C   0  0  0  0  0  0  0  0  0  0  0  0
    1.0569   -1.1070    0.0000 C   0  0  0  0  0  0  0  0  0  0  0  0
    4.5031    1.0527    0.0000 C   0  0  0  0  0  0  0  0  0  0  0  0
    2.9867    0.3843    0.0000 C   0  0  0  0  0  0  0  0  0  0  0  0
    2.2306   -0.7770    0.0000 O   0  0  0  0  0  0  0  0  0  0  0  0
    6.2533    2.2808    0.0000 C   0  0  0  0  0  0  0  0  0  0  0  0
    6.5833    1.5247    0.0000 C   0  0  0  0  0  0  0  0  0  0  0  0
    6.0570    0.1462    0.0000 O   0  0  0  0  0  0  0  0  0  0  0  0
    4.8748    2.8071    0.0000 O   0  0  0  0  0  0  0  0  0  0  0  0
    0.7185   -1.8589    0.0000 O   0  0  0  0  0  0  0  0  0  0  0  0
    3.8264    1.5414    0.0000 C   0  0  0  0  0  0  0  0  0  0  0  0
    4.4111    0.2339    0.0000 C   0  0  0  0  0  0  0  0  0  0  0  0
    3.0745    1.2030    0.0000 C   0  0  0  0  0  0  0  0  0  0  0  0
    3.6509   -0.1045    0.0000 C   0  0  0  0  0  0  0  0  0  0  0  0
    1.8714   -1.2198    0.0000 N   0  0  0  0  0  0  0  0  0  0  0  0
    0.0752    1.6542    0.0000 C   0  0  0  0  0  0  0  0  0  0  0  0
   -1.2615    0.6850    0.0000 C   0  0  0  0  0  0  0  0  0  0  0  0
   -0.6850    1.9883    0.0000 C   0  0  0  0  0  0  0  0  0  0  0  0
   -1.3492    1.4996    0.0000 C   0  0  0  0  0  0  0  0  0  0  0  0
  2  1  2  0  0  0  0
  3  1  1  0  0  0  0
  4 12  1  0  0  0  0
  5  2  1  0  0  0  0
  6  2  1  0  0  0  0
  7  5  1  0  0  0  0
  8  4  1  0  0  0  0
  9  4  1  0  0  0  0
 10  3  1  0  0  0  0
 11  1  1  0  0  0  0
 12 21  2  0  0  0  0
 13  7  1  0  0  0  0
 14  7  2  0  0  0  0
 15  9  1  0  0  0  0
 16  8  1  0  0  0  0
 17  8  2  0  0  0  0
 18  9  2  0  0  0  0
 19 11  2  0  0  0  0
 20 22  2  0  0  0  0
 21 23  1  0  0  0  0
 22 13  1  0  0  0  0
 23 13  2  0  0  0  0
 24 11  1  0  0  0  0
 25  6  1  0  0  0  0
 26 10  1  0  0  0  0
 27 25  2  0  0  0  0
 28 26  2  0  0  0  0
  6 10  2  0  0  0  0
 28 27  1  0  0  0  0
 12 20  1  0  0  0  0
 15 16  1  0  0  0  0
M  END
>  <IDNUMBER>
F1620-0030

>  <Chemical_Name>
3-[4-(2,5-dioxopyrrolidin-1-yl)benzamido]-1-benzofuran-2-carboxamide

>  <PriceCoeff>
1.00

>  <CAS>
867041-56-3

>  <MW>
377.35

>  <Description>
solid

>  <FSP3>
0.10

>  <clogP>
0.46

>  <TPSA>
122.71

>  <Acceptor>
5

>  <Donor>
2

>  <RotBonds>
4

>  <HAC>
28

>  <Collection>
General

>  <PPDS>
+

$$$$
F1620-0061
  Mrv2219 10102508112D          

 26 29  0  0  0  0            999 V2000
    0.7185   -0.0627    0.0000 C   0  0  0  0  0  0  0  0  0  0  0  0
    1.5414    0.0334    0.0000 N   0  0  0  0  0  0  0  0  0  0  0  0
    0.3050   -0.7812    0.0000 N   0  0  0  0  0  0  0  0  0  0  0  0
    5.3051   -0.2674    0.0000 N   0  0  0  0  0  0  0  0  0  0  0  0
    0.1629    0.5514    0.0000 S   0  0  0  0  0  0  0  0  0  0  0  0
    2.0301   -0.6308    0.0000 C   0  0  0  0  0  0  0  0  0  0  0  0
   -0.5013   -0.6141    0.0000 C   0  0  0  0  0  0  0  0  0  0  0  0
    5.8690   -0.8814    0.0000 C   0  0  0  0  0  0  0  0  0  0  0  0
    5.7186    0.4469    0.0000 C   0  0  0  0  0  0  0  0  0  0  0  0
   -0.5890    0.2088    0.0000 C   0  0  0  0  0  0  0  0  0  0  0  0
    4.4905   -0.3634    0.0000 C   0  0  0  0  0  0  0  0  0  0  0  0
    2.8489   -0.5431    0.0000 C   0  0  0  0  0  0  0  0  0  0  0  0
    1.6960   -1.3952    0.0000 O   0  0  0  0  0  0  0  0  0  0  0  0
    6.5290    0.2840    0.0000 C   0  0  0  0  0  0  0  0  0  0  0  0
    6.6209   -0.5389    0.0000 C   0  0  0  0  0  0  0  0  0  0  0  0
    5.7019   -1.6918    0.0000 O   0  0  0  0  0  0  0  0  0  0  0  0
    5.3761    1.2030    0.0000 O   0  0  0  0  0  0  0  0  0  0  0  0
    3.9976    0.3091    0.0000 C   0  0  0  0  0  0  0  0  0  0  0  0
    4.1605   -1.1195    0.0000 C   0  0  0  0  0  0  0  0  0  0  0  0
    3.1747    0.2130    0.0000 C   0  0  0  0  0  0  0  0  0  0  0  0
    3.3376   -1.2072    0.0000 C   0  0  0  0  0  0  0  0  0  0  0  0
    0.6516   -1.5331    0.0000 C   0  0  0  0  0  0  0  0  0  0  0  0
   -1.1612   -1.0945    0.0000 C   0  0  0  0  0  0  0  0  0  0  0  0
   -1.3409    0.5389    0.0000 C   0  0  0  0  0  0  0  0  0  0  0  0
   -1.9131   -0.7686    0.0000 C   0  0  0  0  0  0  0  0  0  0  0  0
   -2.0051    0.0501    0.0000 C   0  0  0  0  0  0  0  0  0  0  0  0
  2  1  2  0  0  0  0
  3  1  1  0  0  0  0
  4 11  1  0  0  0  0
  5  1  1  0  0  0  0
  6  2  1  0  0  0  0
  7  3  1  0  0  0  0
  8  4  1  0  0  0  0
  9  4  1  0  0  0  0
 10  5  1  0  0  0  0
 11 19  2  0  0  0  0
 12  6  1  0  0  0  0
 13  6  2  0  0  0  0
 14  9  1  0  0  0  0
 15  8  1  0  0  0  0
 16  8  2  0  0  0  0
 17  9  2  0  0  0  0
 18 20  2  0  0  0  0
 19 21  1  0  0  0  0
 20 12  1  0  0  0  0
 21 12  2  0  0  0  0
 22  3  1  0  0  0  0
 23  7  1  0  0  0  0
 24 10  1  0  0  0  0
 25 23  2  0  0  0  0
 26 24  2  0  0  0  0
 10  7  2  0  0  0  0
 25 26  1  0  0  0  0
 11 18  1  0  0  0  0
 14 15  1  0  0  0  0
M  END
>  <IDNUMBER>
F1620-0061

>  <Chemical_Name>
4-(2,5-dioxopyrrolidin-1-yl)-N-[(2E)-3-methyl-2,3-dihydro-1,3-benzothiazol-2-ylidene]benzamide

>  <PriceCoeff>
1.00

>  <CAS>
307327-07-7

>  <MW>
365.41

>  <Description>
solid

>  <FSP3>
0.16

>  <clogP>
2.95

>  <TPSA>
95.35

>  <Acceptor>
3

>  <Donor>
0

>  <RotBonds>
3

>  <HAC>
26

>  <Collection>
General

>  <PPDS>
+

$$$$
F1620-0109
  Mrv2219 10102508112D          

 26 28  0  0  0  0            999 V2000
    0.1455   -1.1083    0.0000 C   0  0  0  0  0  0  0  0  0  0  0  0
   -2.6943    0.5541    0.0000 C   0  0  0  0  0  0  0  0  0  0  0  0
   -0.5748    0.1177    0.0000 C   0  0  0  0  0  0  0  0  0  0  0  0
    0.1662   -1.9740    0.0000 N   0  3  0  0  0  0  0  0  0  0  0  0
   -1.2468    0.5541    0.0000 C   0  0  0  0  0  0  0  0  0  0  0  0
    1.6070    0.5195    0.0000 N   0  3  0  0  0  0  0  0  0  0  0  0
   -3.4840    0.2494    0.0000 N   0  0  0  0  0  0  0  0  0  0  0  0
   -1.9878    0.1593    0.0000 N   0  0  0  0  0  0  0  0  0  0  0  0
   -0.5748   -0.7135    0.0000 C   0  0  0  0  0  0  0  0  0  0  0  0
    0.8797   -0.7135    0.0000 C   0  0  0  0  0  0  0  0  0  0  0  0
   -2.7982    1.3507    0.0000 S   0  0  0  0  0  0  0  0  0  0  0  0
    0.8797    0.1177    0.0000 C   0  0  0  0  0  0  0  0  0  0  0  0
    0.1662    0.5195    0.0000 C   0  0  0  0  0  0  0  0  0  0  0  0
   -3.5741    1.5307    0.0000 C   0  0  0  0  0  0  0  0  0  0  0  0
   -3.9896    0.8520    0.0000 C   0  0  0  0  0  0  0  0  0  0  0  0
    0.8797   -2.3896    0.0000 O   0  5  0  0  0  0  0  0  0  0  0  0
    1.6416    1.3229    0.0000 O   0  5  0  0  0  0  0  0  0  0  0  0
   -0.5748   -2.3758    0.0000 O   0  0  0  0  0  0  0  0  0  0  0  0
    2.3273    0.1039    0.0000 O   0  0  0  0  0  0  0  0  0  0  0  0
   -1.2468    1.3645    0.0000 O   0  0  0  0  0  0  0  0  0  0  0  0
   -3.9827    2.2650    0.0000 C   0  0  0  0  0  0  0  0  0  0  0  0
   -4.8138    0.8658    0.0000 C   0  0  0  0  0  0  0  0  0  0  0  0
   -1.2813   -1.1083    0.0000 Cl  0  0  0  0  0  0  0  0  0  0  0  0
   -4.7931    2.2787    0.0000 C   0  0  0  0  0  0  0  0  0  0  0  0
   -5.2086    1.6000    0.0000 C   0  0  0  0  0  0  0  0  0  0  0  0
   -5.2086    2.9922    0.0000 C   0  0  0  0  0  0  0  0  0  0  0  0
  2  8  1  0  0  0  0
  3  9  1  0  0  0  0
  4  1  1  0  0  0  0
  5  3  1  0  0  0  0
  6 12  1  0  0  0  0
  7  2  2  0  0  0  0
  8  5  1  0  0  0  0
  9  1  2  0  0  0  0
 10  1  1  0  0  0  0
 11  2  1  0  0  0  0
 12 10  2  0  0  0  0
 13 12  1  0  0  0  0
 14 11  1  0  0  0  0
 15  7  1  0  0  0  0
 16  4  1  0  0  0  0
 17  6  1  0  0  0  0
 18  4  2  0  0  0  0
 19  6  2  0  0  0  0
 20  5  2  0  0  0  0
 21 14  1  0  0  0  0
 22 15  1  0  0  0  0
 23  9  1  0  0  0  0
 24 21  2  0  0  0  0
 25 22  2  0  0  0  0
 26 24  1  0  0  0  0
  3 13  2  0  0  0  0
 15 14  2  0  0  0  0
 25 24  1  0  0  0  0
M  CHG  4   4   1   6   1  16  -1  17  -1
M  END
>  <IDNUMBER>
F1620-0109

>  <Chemical_Name>
2-chloro-N-(6-methyl-1,3-benzothiazol-2-yl)-3,5-dinitrobenzamide

>  <PriceCoeff>
1.00

>  <CAS>
349539-29-3

>  <MW>
392.77

>  <Description>
solid

>  <FSP3>
0.07

>  <clogP>
3.35

>  <TPSA>
156.51

>  <Acceptor>
6

>  <Donor>
1

>  <RotBonds>
4

>  <HAC>
26

>  <Collection>
General

>  <PPDS>
+

$$$$
F1625-0030
  Mrv2219 10102508112D          

 25 27  0  0  0  0            999 V2000
    5.4467   -2.3377    0.0000 N   0  3  0  0  0  0  0  0  0  0  0  0
    5.4567   -3.1627    0.0000 C   0  0  0  0  0  0  0  0  0  0  0  0
    1.8915   -3.5753    0.0000 N   0  0  0  0  0  0  0  0  0  0  0  0
    1.8915   -1.9251    0.0000 N   0  0  0  0  0  0  0  0  0  0  0  0
    2.6060   -3.1627    0.0000 C   0  0  0  0  0  0  0  0  0  0  0  0
    4.7424   -3.5753    0.0000 C   0  0  0  0  0  0  0  0  0  0  0  0
    2.6060   -2.3377    0.0000 C   0  0  0  0  0  0  0  0  0  0  0  0
    4.7525   -4.3969    0.0000 C   0  0  0  0  0  0  0  0  0  0  0  0
    3.3237   -3.5753    0.0000 S   0  0  0  0  0  0  0  0  0  0  0  0
    1.1772   -3.1627    0.0000 C   0  0  0  0  0  0  0  0  0  0  0  0
    1.1806   -2.3377    0.0000 C   0  0  0  0  0  0  0  0  0  0  0  0
    6.1778   -3.5719    0.0000 C   0  0  0  0  0  0  0  0  0  0  0  0
    6.1576   -1.9217    0.0000 O   0  5  0  0  0  0  0  0  0  0  0  0
    4.0380   -4.8128    0.0000 C   0  0  0  0  0  0  0  0  0  0  0  0
    4.7323   -1.9318    0.0000 O   0  0  0  0  0  0  0  0  0  0  0  0
    3.3237   -4.4003    0.0000 C   0  0  0  0  0  0  0  0  0  0  0  0
    5.4668   -4.8128    0.0000 C   0  0  0  0  0  0  0  0  0  0  0  0
    4.0380   -5.6379    0.0000 O   0  0  0  0  0  0  0  0  0  0  0  0
    6.1811   -4.3969    0.0000 C   0  0  0  0  0  0  0  0  0  0  0  0
    6.8855   -3.1593    0.0000 Cl  0  0  0  0  0  0  0  0  0  0  0  0
    3.3136   -1.9251    0.0000 C   0  0  0  0  0  0  0  0  0  0  0  0
    0.4663   -3.5753    0.0000 C   0  0  0  0  0  0  0  0  0  0  0  0
    0.4663   -1.9251    0.0000 C   0  0  0  0  0  0  0  0  0  0  0  0
   -0.2482   -2.3377    0.0000 C   0  0  0  0  0  0  0  0  0  0  0  0
   -0.2482   -3.1694    0.0000 C   0  0  0  0  0  0  0  0  0  0  0  0
  2  1  1  0  0  0  0
  3  5  2  0  0  0  0
  4  7  2  0  0  0  0
  5  9  1  0  0  0  0
  6  2  2  0  0  0  0
  7  5  1  0  0  0  0
  8  6  1  0  0  0  0
  9 16  1  0  0  0  0
 10  3  1  0  0  0  0
 11  4  1  0  0  0  0
 12  2  1  0  0  0  0
 13  1  1  0  0  0  0
 14  8  1  0  0  0  0
 15  1  2  0  0  0  0
 16 14  1  0  0  0  0
 17 19  1  0  0  0  0
 18 14  2  0  0  0  0
 19 12  2  0  0  0  0
 20 12  1  0  0  0  0
 21  7  1  0  0  0  0
 22 10  2  0  0  0  0
 23 11  2  0  0  0  0
 24 23  1  0  0  0  0
 25 22  1  0  0  0  0
 17  8  2  0  0  0  0
 11 10  1  0  0  0  0
 24 25  2  0  0  0  0
M  CHG  2   1   1  13  -1
M  END
>  <IDNUMBER>
F1625-0030

>  <Chemical_Name>
1-(4-chloro-3-nitrophenyl)-2-[(3-methylquinoxalin-2-yl)sulfanyl]ethan-1-one

>  <PriceCoeff>
1.00

>  <CAS>
710287-33-5

>  <MW>
373.81

>  <Description>
solid

>  <FSP3>
0.12

>  <clogP>
4.44

>  <TPSA>
111.29

>  <Acceptor>
5

>  <Donor>
0

>  <RotBonds>
5

>  <HAC>
25

>  <Collection>
General

>  <PPDS>
+

$$$$
F1638-0034
  Mrv2219 10102508112D          

 18 19  0  0  0  0            999 V2000
   -0.4739   -2.0369    0.0000 N   0  3  0  0  0  0  0  0  0  0  0  0
   -0.4822   -1.2097    0.0000 C   0  0  0  0  0  0  0  0  0  0  0  0
    1.6628    0.0332    0.0000 N   0  0  0  0  0  0  0  0  0  0  0  0
    0.9478    0.4448    0.0000 C   0  0  0  0  0  0  0  0  0  0  0  0
    2.3736    0.4448    0.0000 N   0  0  0  0  0  0  0  0  0  0  0  0
    0.2369   -0.7981    0.0000 C   0  0  0  0  0  0  0  0  0  0  0  0
    0.2369    0.0332    0.0000 C   0  0  0  0  0  0  0  0  0  0  0  0
    2.3736    1.2678    0.0000 C   0  0  0  0  0  0  0  0  0  0  0  0
    0.9395    1.2678    0.0000 C   0  0  0  0  0  0  0  0  0  0  0  0
   -1.1930   -0.7981    0.0000 C   0  0  0  0  0  0  0  0  0  0  0  0
   -1.1930   -2.4485    0.0000 O   0  5  0  0  0  0  0  0  0  0  0  0
    0.2369   -2.4485    0.0000 O   0  0  0  0  0  0  0  0  0  0  0  0
    1.6586    1.6794    0.0000 C   0  0  0  0  0  0  0  0  0  0  0  0
   -0.4822    0.4448    0.0000 C   0  0  0  0  0  0  0  0  0  0  0  0
    3.0845    1.6794    0.0000 O   0  0  0  0  0  0  0  0  0  0  0  0
   -1.1930    0.0249    0.0000 C   0  0  0  0  0  0  0  0  0  0  0  0
   -1.9038   -1.2097    0.0000 Cl  0  0  0  0  0  0  0  0  0  0  0  0
    0.2287    1.6794    0.0000 C   0  0  0  0  0  0  0  0  0  0  0  0
  2  1  1  0  0  0  0
  3  4  2  0  0  0  0
  4  7  1  0  0  0  0
  5  3  1  0  0  0  0
  6  2  2  0  0  0  0
  7  6  1  0  0  0  0
  8 13  1  0  0  0  0
  9  4  1  0  0  0  0
 10  2  1  0  0  0  0
 11  1  1  0  0  0  0
 12  1  2  0  0  0  0
 13  9  1  0  0  0  0
 14 16  1  0  0  0  0
 15  8  2  0  0  0  0
 16 10  2  0  0  0  0
 17 10  1  0  0  0  0
 18  9  1  0  0  0  0
 14  7  2  0  0  0  0
  8  5  1  0  0  0  0
M  CHG  2   1   1  11  -1
M  END
>  <IDNUMBER>
F1638-0034

>  <Chemical_Name>
6-(4-chloro-3-nitrophenyl)-5-methyl-2,3,4,5-tetrahydropyridazin-3-one

>  <PriceCoeff>
1.00

>  <CAS>
117397-88-3

>  <MW>
267.67

>  <Description>
solid

>  <FSP3>
0.27

>  <clogP>
1.67

>  <TPSA>
84.60

>  <Acceptor>
4

>  <Donor>
2

>  <RotBonds>
2

>  <HAC>
18

>  <Collection>
General

>  <PPDS>
+

$$$$
F1638-0067
  Mrv2219 10102508112D          

 13 13  0  0  0  0            999 V2000
    2.6845    0.4197    0.0000 C   0  0  0  0  0  0  0  0  0  0  0  0
    1.9739    0.0083    0.0000 C   0  0  0  0  0  0  0  0  0  0  0  0
    1.2591    0.4197    0.0000 C   0  0  0  0  0  0  0  0  0  0  0  0
    2.6803    1.2425    0.0000 O   0  0  0  0  0  0  0  0  0  0  0  0
    0.5485    0.0000    0.0000 C   0  0  0  0  0  0  0  0  0  0  0  0
    3.3951    0.0125    0.0000 O   0  0  0  0  0  0  0  0  0  0  0  0
   -0.8809   -0.8270    0.0000 C   0  0  0  0  0  0  0  0  0  0  0  0
   -0.1703    0.4114    0.0000 C   0  0  0  0  0  0  0  0  0  0  0  0
    0.5485   -0.8270    0.0000 C   0  0  0  0  0  0  0  0  0  0  0  0
   -0.8809    0.0000    0.0000 C   0  0  0  0  0  0  0  0  0  0  0  0
   -0.1703   -1.2384    0.0000 C   0  0  0  0  0  0  0  0  0  0  0  0
   -1.5915   -1.2384    0.0000 O   0  0  0  0  0  0  0  0  0  0  0  0
   -1.5915   -2.0612    0.0000 C   0  0  0  0  0  0  0  0  0  0  0  0
  2  1  1  0  0  0  0
  3  2  2  0  0  0  0
  4  1  2  0  0  0  0
  5  3  1  0  0  0  0
  6  1  1  0  0  0  0
  7 11  1  0  0  0  0
  8  5  2  0  0  0  0
  9  5  1  0  0  0  0
 10  8  1  0  0  0  0
 11  9  2  0  0  0  0
 12  7  1  0  0  0  0
 13 12  1  0  0  0  0
  7 10  2  0  0  0  0
M  END
>  <IDNUMBER>
F1638-0067

>  <Chemical_Name>
(2E)-3-(4-methoxyphenyl)prop-2-enoic acid

>  <PriceCoeff>
1.50

>  <CAS>
943-89-5

>  <MW>
178.19

>  <Description>
solid

>  <FSP3>
0.10

>  <clogP>
1.79

>  <TPSA>
46.53

>  <Acceptor>
3

>  <Donor>
0

>  <RotBonds>
3

>  <HAC>
13

>  <Collection>
Advanced

>  <PPDS>
+

$$$$
F1649-0519
  Mrv2219 10102508112D          

 31 34  0  0  0  0            999 V2000
    7.2548   -3.2632    0.0000 N   0  0  0  0  0  0  0  0  0  0  0  0
    6.7095   -2.6514    0.0000 C   0  0  0  0  0  0  0  0  0  0  0  0
    3.3132   -4.0873    0.0000 C   0  0  0  0  0  0  0  0  0  0  0  0
    6.8427   -3.9750    0.0000 C   0  0  0  0  0  0  0  0  0  0  0  0
    3.9750   -4.5743    0.0000 O   0  0  0  0  0  0  0  0  0  0  0  0
    4.6450   -4.0873    0.0000 C   0  0  0  0  0  0  0  0  0  0  0  0
    3.5712   -3.3007    0.0000 N   0  0  0  0  0  0  0  0  0  0  0  0
    6.0353   -3.8001    0.0000 C   0  0  0  0  0  0  0  0  0  0  0  0
    4.3953   -3.3007    0.0000 N   0  0  0  0  0  0  0  0  0  0  0  0
    5.9479   -2.9760    0.0000 C   0  0  0  0  0  0  0  0  0  0  0  0
    2.5265   -4.3371    0.0000 C   0  0  0  0  0  0  0  0  0  0  0  0
    5.4234   -4.3496    0.0000 S   0  0  0  0  0  0  0  0  0  0  0  0
    8.0706   -3.1758    0.0000 C   0  0  0  0  0  0  0  0  0  0  0  0
   10.5305   -2.9261    0.0000 C   0  0  0  0  0  0  0  0  0  0  0  0
    6.8802   -1.8397    0.0000 O   0  0  0  0  0  0  0  0  0  0  0  0
    7.1716   -4.7325    0.0000 O   0  0  0  0  0  0  0  0  0  0  0  0
    9.7146   -3.0135    0.0000 C   0  0  0  0  0  0  0  0  0  0  0  0
    1.9229   -3.7752    0.0000 C   0  0  0  0  0  0  0  0  0  0  0  0
   10.8676   -2.1769    0.0000 O   0  0  0  0  0  0  0  0  0  0  0  0
    8.5534   -3.8501    0.0000 C   0  0  0  0  0  0  0  0  0  0  0  0
    8.4077   -2.4266    0.0000 C   0  0  0  0  0  0  0  0  0  0  0  0
    9.2277   -2.3392    0.0000 C   0  0  0  0  0  0  0  0  0  0  0  0
    9.3692   -3.7627    0.0000 C   0  0  0  0  0  0  0  0  0  0  0  0
   11.0050   -3.6004    0.0000 O   0  0  0  0  0  0  0  0  0  0  0  0
    2.0978   -2.9760    0.0000 O   0  0  0  0  0  0  0  0  0  0  0  0
    2.3600   -5.1362    0.0000 C   0  0  0  0  0  0  0  0  0  0  0  0
    1.1363   -4.0332    0.0000 C   0  0  0  0  0  0  0  0  0  0  0  0
   11.8291   -3.5130    0.0000 C   0  0  0  0  0  0  0  0  0  0  0  0
    1.5775   -5.3942    0.0000 C   0  0  0  0  0  0  0  0  0  0  0  0
   12.3161   -4.1830    0.0000 C   0  0  0  0  0  0  0  0  0  0  0  0
    0.9615   -4.8365    0.0000 C   0  0  0  0  0  0  0  0  0  0  0  0
  2  1  1  0  0  0  0
  3  5  1  0  0  0  0
  4  1  1  0  0  0  0
  5  6  1  0  0  0  0
  6 12  1  0  0  0  0
  7  9  1  0  0  0  0
  8  4  1  0  0  0  0
  9  6  2  0  0  0  0
 10  2  1  0  0  0  0
 11  3  1  0  0  0  0
 12  8  1  0  0  0  0
 13  1  1  0  0  0  0
 14 17  1  0  0  0  0
 15  2  2  0  0  0  0
 16  4  2  0  0  0  0
 17 22  1  0  0  0  0
 18 11  2  0  0  0  0
 19 14  2  0  0  0  0
 20 13  2  0  0  0  0
 21 13  1  0  0  0  0
 22 21  2  0  0  0  0
 23 20  1  0  0  0  0
 24 14  1  0  0  0  0
 25 18  1  0  0  0  0
 26 11  1  0  0  0  0
 27 18  1  0  0  0  0
 28 24  1  0  0  0  0
 29 26  2  0  0  0  0
 30 28  1  0  0  0  0
 31 29  1  0  0  0  0
  8 10  1  0  0  0  0
 17 23  2  0  0  0  0
  3  7  2  0  0  0  0
 31 27  2  0  0  0  0
M  END
>  <IDNUMBER>
F1649-0519

>  <Chemical_Name>
ethyl 4-(3-{[5-(2-hydroxyphenyl)-1,3,4-oxadiazol-2-yl]sulfanyl}-2,5-dioxopyrrolidin-1-yl)benzoate

>  <PriceCoeff>
1.00

>  <MW>
439.44

>  <Description>
solid

>  <FSP3>
0.19

>  <clogP>
2.11

>  <TPSA>
148.13

>  <Acceptor>
8

>  <Donor>
1

>  <RotBonds>
7

>  <HAC>
31

>  <Collection>
General

$$$$
F1673-3710
  Mrv2219 10102508112D          

 28 30  0  0  0  0            999 V2000
    1.4478   -3.1531    0.0000 S   0  0  0  0  0  0  0  0  0  0  0  0
    2.0308    0.8550    0.0000 N   0  3  0  0  0  0  0  0  0  0  0  0
    2.0308    0.0243    0.0000 C   0  0  0  0  0  0  0  0  0  0  0  0
    3.4689   -1.6324    0.0000 C   0  0  0  0  0  0  0  0  0  0  0  0
    3.4689   -2.4535    0.0000 N   0  0  0  0  0  0  0  0  0  0  0  0
    2.0017   -2.5410    0.0000 C   0  0  0  0  0  0  0  0  0  0  0  0
    2.7450   -0.3839    0.0000 C   0  0  0  0  0  0  0  0  0  0  0  0
    2.7450   -1.2146    0.0000 C   0  0  0  0  0  0  0  0  0  0  0  0
    2.7547   -2.8713    0.0000 C   0  0  0  0  0  0  0  0  0  0  0  0
    1.3167   -0.3935    0.0000 C   0  0  0  0  0  0  0  0  0  0  0  0
    0.7628   -3.6195    0.0000 O   0  0  0  0  0  0  0  0  0  0  0  0
    0.9814   -2.4778    0.0000 O   0  0  0  0  0  0  0  0  0  0  0  0
    2.7450    1.2680    0.0000 O   0  5  0  0  0  0  0  0  0  0  0  0
    2.6721   -3.6924    0.0000 C   0  0  0  0  0  0  0  0  0  0  0  0
    1.3167    1.2631    0.0000 O   0  0  0  0  0  0  0  0  0  0  0  0
    4.1880   -2.8616    0.0000 C   0  0  0  0  0  0  0  0  0  0  0  0
    1.8705   -3.8673    0.0000 C   0  0  0  0  0  0  0  0  0  0  0  0
    4.1831   -1.2146    0.0000 O   0  0  0  0  0  0  0  0  0  0  0  0
    2.0308   -1.6324    0.0000 C   0  0  0  0  0  0  0  0  0  0  0  0
    1.3167   -1.2146    0.0000 C   0  0  0  0  0  0  0  0  0  0  0  0
    4.9021   -2.4535    0.0000 C   0  0  0  0  0  0  0  0  0  0  0  0
    0.6122    0.0243    0.0000 Cl  0  0  0  0  0  0  0  0  0  0  0  0
    6.3256   -1.6227    0.0000 C   0  0  0  0  0  0  0  0  0  0  0  0
    7.0447   -1.2097    0.0000 Cl  0  0  0  0  0  0  0  0  0  0  0  0
    5.6163   -2.8616    0.0000 C   0  0  0  0  0  0  0  0  0  0  0  0
    4.8972   -1.6324    0.0000 C   0  0  0  0  0  0  0  0  0  0  0  0
    5.6017   -1.2146    0.0000 C   0  0  0  0  0  0  0  0  0  0  0  0
    6.3305   -2.4535    0.0000 C   0  0  0  0  0  0  0  0  0  0  0  0
  2  3  1  0  0  0  0
  3  7  2  0  0  0  0
  4  5  1  0  0  0  0
  5  9  1  0  0  0  0
  6  1  1  0  0  0  0
  7  8  1  0  0  0  0
  8  4  1  0  0  0  0
  9  6  1  0  0  0  0
 10 20  2  0  0  0  0
 11  1  2  0  0  0  0
 12  1  2  0  0  0  0
 13  2  1  0  0  0  0
 14 17  1  0  0  0  0
 15  2  2  0  0  0  0
 16  5  1  0  0  0  0
 17  1  1  0  0  0  0
 18  4  2  0  0  0  0
 19  8  2  0  0  0  0
 20 19  1  0  0  0  0
 21 16  1  0  0  0  0
 22 10  1  0  0  0  0
 23 27  1  0  0  0  0
 24 23  1  0  0  0  0
 25 21  2  0  0  0  0
 26 21  1  0  0  0  0
 27 26  2  0  0  0  0
 28 25  1  0  0  0  0
  9 14  1  0  0  0  0
 23 28  2  0  0  0  0
 10  3  1  0  0  0  0
M  CHG  2   2   1  13  -1
M  END
>  <IDNUMBER>
F1673-3710

>  <Chemical_Name>
4-chloro-N-[(4-chlorophenyl)methyl]-N-(1,1-dioxo-1??-thiolan-3-yl)-3-nitrobenzamide

>  <PriceCoeff>
1.00

>  <CAS>
575460-04-7

>  <MW>
443.30

>  <Description>
solid

>  <FSP3>
0.28

>  <clogP>
2.92

>  <TPSA>
105.97

>  <Acceptor>
5

>  <Donor>
0

>  <RotBonds>
6

>  <HAC>
28

>  <Collection>
General

>  <PPDS>
+

$$$$
F1673-4093
  Mrv2219 10102508112D          

 30 32  0  0  0  0            999 V2000
    0.3474   -2.7693    0.0000 S   0  0  0  0  0  0  0  0  0  0  0  0
    0.9312    1.2158    0.0000 N   0  3  0  0  0  0  0  0  0  0  0  0
    0.9312    0.4004    0.0000 C   0  0  0  0  0  0  0  0  0  0  0  0
    2.3592   -1.2496    0.0000 C   0  0  0  0  0  0  0  0  0  0  0  0
    2.3592   -2.0746    0.0000 N   0  0  0  0  0  0  0  0  0  0  0  0
    0.8974   -2.1614    0.0000 C   0  0  0  0  0  0  0  0  0  0  0  0
    1.6404   -0.0145    0.0000 C   0  0  0  0  0  0  0  0  0  0  0  0
    1.6404   -0.8395    0.0000 C   0  0  0  0  0  0  0  0  0  0  0  0
    1.6500   -2.4895    0.0000 C   0  0  0  0  0  0  0  0  0  0  0  0
    0.2171   -0.0145    0.0000 C   0  0  0  0  0  0  0  0  0  0  0  0
   -0.3425   -3.2325    0.0000 O   0  0  0  0  0  0  0  0  0  0  0  0
   -0.1254   -2.0987    0.0000 O   0  0  0  0  0  0  0  0  0  0  0  0
    1.6404    1.6307    0.0000 O   0  5  0  0  0  0  0  0  0  0  0  0
    1.5680   -3.3145    0.0000 C   0  0  0  0  0  0  0  0  0  0  0  0
    0.2171    1.6307    0.0000 O   0  0  0  0  0  0  0  0  0  0  0  0
    3.0733   -2.4799    0.0000 C   0  0  0  0  0  0  0  0  0  0  0  0
    0.7575   -3.4882    0.0000 C   0  0  0  0  0  0  0  0  0  0  0  0
    3.0733   -0.8299    0.0000 O   0  0  0  0  0  0  0  0  0  0  0  0
    5.2154   -1.2447    0.0000 C   0  0  0  0  0  0  0  0  0  0  0  0
    5.9197   -0.8299    0.0000 N   0  0  0  0  0  0  0  0  0  0  0  0
    0.9312   -1.2496    0.0000 C   0  0  0  0  0  0  0  0  0  0  0  0
    0.2220   -0.8443    0.0000 C   0  0  0  0  0  0  0  0  0  0  0  0
    4.4917   -0.8299    0.0000 C   0  0  0  0  0  0  0  0  0  0  0  0
    5.2154   -2.0697    0.0000 C   0  0  0  0  0  0  0  0  0  0  0  0
    3.7921   -2.0697    0.0000 C   0  0  0  0  0  0  0  0  0  0  0  0
   -0.4921    0.3908    0.0000 Cl  0  0  0  0  0  0  0  0  0  0  0  0
    3.7825   -1.2496    0.0000 C   0  0  0  0  0  0  0  0  0  0  0  0
    4.5062   -2.4799    0.0000 C   0  0  0  0  0  0  0  0  0  0  0  0
    6.6338   -1.2351    0.0000 C   0  0  0  0  0  0  0  0  0  0  0  0
    5.9101   -0.0049    0.0000 C   0  0  0  0  0  0  0  0  0  0  0  0
  2  3  1  0  0  0  0
  3  7  1  0  0  0  0
  4  5  1  0  0  0  0
  5  9  1  0  0  0  0
  6  1  1  0  0  0  0
  7  8  2  0  0  0  0
  8  4  1  0  0  0  0
  9  6  1  0  0  0  0
 10 22  1  0  0  0  0
 11  1  2  0  0  0  0
 12  1  2  0  0  0  0
 13  2  1  0  0  0  0
 14 17  1  0  0  0  0
 15  2  2  0  0  0  0
 16  5  1  0  0  0  0
 17  1  1  0  0  0  0
 18  4  2  0  0  0  0
 19 24  2  0  0  0  0
 20 19  1  0  0  0  0
 21  8  1  0  0  0  0
 22 21  2  0  0  0  0
 23 27  2  0  0  0  0
 24 28  1  0  0  0  0
 25 16  1  0  0  0  0
 26 10  1  0  0  0  0
 27 25  1  0  0  0  0
 28 25  2  0  0  0  0
 29 20  1  0  0  0  0
 30 20  1  0  0  0  0
 14  9  1  0  0  0  0
 19 23  1  0  0  0  0
 10  3  2  0  0  0  0
M  CHG  2   2   1  13  -1
M  END
>  <IDNUMBER>
F1673-4093

>  <Chemical_Name>
4-chloro-N-{[4-(dimethylamino)phenyl]methyl}-N-(1,1-dioxo-1??-thiolan-3-yl)-3-nitrobenzamide

>  <PriceCoeff>
1.00

>  <CAS>
577964-42-2

>  <MW>
451.92

>  <Description>
solid

>  <FSP3>
0.35

>  <clogP>
2.37

>  <TPSA>
109.21

>  <Acceptor>
6

>  <Donor>
1

>  <RotBonds>
7

>  <HAC>
30

>  <Collection>
General

>  <PPDS>
+

$$$$
F1673-4175
  Mrv2219 10102508112D          

 29 31  0  0  0  0            999 V2000
   -2.7454   -2.3502    0.0000 S   0  0  0  0  0  0  0  0  0  0  0  0
   -2.1713    1.6472    0.0000 N   0  3  0  0  0  0  0  0  0  0  0  0
   -2.1671    0.8194    0.0000 C   0  0  0  0  0  0  0  0  0  0  0  0
   -0.7363   -0.8236    0.0000 C   0  0  0  0  0  0  0  0  0  0  0  0
   -0.7363   -1.6514    0.0000 N   0  0  0  0  0  0  0  0  0  0  0  0
   -2.2046   -1.7388    0.0000 C   0  0  0  0  0  0  0  0  0  0  0  0
   -1.4476    0.4118    0.0000 C   0  0  0  0  0  0  0  0  0  0  0  0
   -1.4476   -0.4160    0.0000 C   0  0  0  0  0  0  0  0  0  0  0  0
   -1.4434   -2.0632    0.0000 C   0  0  0  0  0  0  0  0  0  0  0  0
   -2.8784    0.4118    0.0000 C   0  0  0  0  0  0  0  0  0  0  0  0
   -3.4400   -2.8119    0.0000 O   0  0  0  0  0  0  0  0  0  0  0  0
   -3.2196   -1.6722    0.0000 O   0  0  0  0  0  0  0  0  0  0  0  0
   -1.4600    2.0590    0.0000 O   0  5  0  0  0  0  0  0  0  0  0  0
   -1.5307   -2.8868    0.0000 C   0  0  0  0  0  0  0  0  0  0  0  0
   -2.8909    2.0548    0.0000 O   0  0  0  0  0  0  0  0  0  0  0  0
   -0.0208   -2.0590    0.0000 C   0  0  0  0  0  0  0  0  0  0  0  0
   -2.3336   -3.0615    0.0000 C   0  0  0  0  0  0  0  0  0  0  0  0
   -0.0250   -0.4118    0.0000 O   0  0  0  0  0  0  0  0  0  0  0  0
   -2.1671   -0.8236    0.0000 C   0  0  0  0  0  0  0  0  0  0  0  0
   -2.8784   -0.4160    0.0000 C   0  0  0  0  0  0  0  0  0  0  0  0
    0.6905   -1.6389    0.0000 C   0  0  0  0  0  0  0  0  0  0  0  0
   -3.5897    0.8194    0.0000 Cl  0  0  0  0  0  0  0  0  0  0  0  0
    2.1214   -0.8153    0.0000 C   0  0  0  0  0  0  0  0  0  0  0  0
    1.4101   -2.0590    0.0000 C   0  0  0  0  0  0  0  0  0  0  0  0
    0.6905   -0.8236    0.0000 C   0  0  0  0  0  0  0  0  0  0  0  0
    2.1256   -1.6389    0.0000 C   0  0  0  0  0  0  0  0  0  0  0  0
    1.4018   -0.4118    0.0000 C   0  0  0  0  0  0  0  0  0  0  0  0
    2.8244   -0.4035    0.0000 C   0  0  0  0  0  0  0  0  0  0  0  0
    3.5357   -0.8111    0.0000 C   0  0  0  0  0  0  0  0  0  0  0  0
  2  3  1  0  0  0  0
  3  7  1  0  0  0  0
  4  5  1  0  0  0  0
  5  9  1  0  0  0  0
  6  1  1  0  0  0  0
  7  8  2  0  0  0  0
  8  4  1  0  0  0  0
  9  6  1  0  0  0  0
 10 20  1  0  0  0  0
 11  1  2  0  0  0  0
 12  1  2  0  0  0  0
 13  2  1  0  0  0  0
 14 17  1  0  0  0  0
 15  2  2  0  0  0  0
 16  5  1  0  0  0  0
 17  1  1  0  0  0  0
 18  4  2  0  0  0  0
 19  8  1  0  0  0  0
 20 19  2  0  0  0  0
 21 16  1  0  0  0  0
 22 10  1  0  0  0  0
 23 27  1  0  0  0  0
 24 21  2  0  0  0  0
 25 21  1  0  0  0  0
 26 24  1  0  0  0  0
 27 25  2  0  0  0  0
 28 23  1  0  0  0  0
 29 28  1  0  0  0  0
 14  9  1  0  0  0  0
 23 26  2  0  0  0  0
 10  3  2  0  0  0  0
M  CHG  2   2   1  13  -1
M  END
>  <IDNUMBER>
F1673-4175

>  <Chemical_Name>
4-chloro-N-(1,1-dioxo-1??-thiolan-3-yl)-N-[(4-ethylphenyl)methyl]-3-nitrobenzamide

>  <PriceCoeff>
1.00

>  <CAS>
573936-87-5

>  <MW>
436.91

>  <Description>
solid

>  <FSP3>
0.35

>  <clogP>
3.24

>  <TPSA>
105.97

>  <Acceptor>
5

>  <Donor>
0

>  <RotBonds>
7

>  <HAC>
29

>  <Collection>
General

>  <PPDS>
+

$$$$
F1673-4952
  Mrv2219 10102508112D          

 29 31  0  0  0  0            999 V2000
   -0.5455    0.5372    0.0000 S   0  0  0  0  0  0  0  0  0  0  0  0
   -3.7107   -1.9740    0.0000 N   0  3  0  0  0  0  0  0  0  0  0  0
   -2.9943   -1.5617    0.0000 C   0  0  0  0  0  0  0  0  0  0  0  0
   -0.8579   -1.9782    0.0000 C   0  0  0  0  0  0  0  0  0  0  0  0
   -0.1374   -1.5659    0.0000 N   0  0  0  0  0  0  0  0  0  0  0  0
   -0.8079   -0.2499    0.0000 C   0  0  0  0  0  0  0  0  0  0  0  0
   -2.2822   -1.9657    0.0000 C   0  0  0  0  0  0  0  0  0  0  0  0
   -1.5700   -1.5617    0.0000 C   0  0  0  0  0  0  0  0  0  0  0  0
   -0.1374   -0.7371    0.0000 C   0  0  0  0  0  0  0  0  0  0  0  0
   -2.9943   -0.7288    0.0000 C   0  0  0  0  0  0  0  0  0  0  0  0
   -1.3701    0.6705    0.0000 O   0  0  0  0  0  0  0  0  0  0  0  0
   -0.4331    1.3576    0.0000 O   0  0  0  0  0  0  0  0  0  0  0  0
   -4.4228   -1.5617    0.0000 O   0  5  0  0  0  0  0  0  0  0  0  0
    0.5289   -0.2541    0.0000 C   0  0  0  0  0  0  0  0  0  0  0  0
   -3.7107   -2.7986    0.0000 O   0  0  0  0  0  0  0  0  0  0  0  0
    0.5747   -1.9782    0.0000 C   0  0  0  0  0  0  0  0  0  0  0  0
    0.2791    0.5372    0.0000 C   0  0  0  0  0  0  0  0  0  0  0  0
   -0.8621   -2.8028    0.0000 O   0  0  0  0  0  0  0  0  0  0  0  0
   -1.5617   -0.7371    0.0000 C   0  0  0  0  0  0  0  0  0  0  0  0
   -2.2739   -0.3165    0.0000 C   0  0  0  0  0  0  0  0  0  0  0  0
    1.2911   -1.5742    0.0000 C   0  0  0  0  0  0  0  0  0  0  0  0
   -3.6982   -0.3165    0.0000 Cl  0  0  0  0  0  0  0  0  0  0  0  0
    2.7279   -0.7538    0.0000 C   0  0  0  0  0  0  0  0  0  0  0  0
    2.0032   -1.9907    0.0000 C   0  0  0  0  0  0  0  0  0  0  0  0
    1.2911   -0.7496    0.0000 C   0  0  0  0  0  0  0  0  0  0  0  0
    2.0032   -0.3373    0.0000 C   0  0  0  0  0  0  0  0  0  0  0  0
    2.7279   -1.5784    0.0000 C   0  0  0  0  0  0  0  0  0  0  0  0
    3.4483   -0.3415    0.0000 O   0  0  0  0  0  0  0  0  0  0  0  0
    4.1605   -0.7538    0.0000 C   0  0  0  0  0  0  0  0  0  0  0  0
  2  3  1  0  0  0  0
  3  7  2  0  0  0  0
  4  5  1  0  0  0  0
  5  9  1  0  0  0  0
  6  1  1  0  0  0  0
  7  8  1  0  0  0  0
  8  4  1  0  0  0  0
  9  6  1  0  0  0  0
 10 20  2  0  0  0  0
 11  1  2  0  0  0  0
 12  1  2  0  0  0  0
 13  2  1  0  0  0  0
 14 17  1  0  0  0  0
 15  2  2  0  0  0  0
 16  5  1  0  0  0  0
 17  1  1  0  0  0  0
 18  4  2  0  0  0  0
 19  8  2  0  0  0  0
 20 19  1  0  0  0  0
 21 16  1  0  0  0  0
 22 10  1  0  0  0  0
 23 26  1  0  0  0  0
 24 21  2  0  0  0  0
 25 21  1  0  0  0  0
 26 25  2  0  0  0  0
 27 24  1  0  0  0  0
 28 23  1  0  0  0  0
 29 28  1  0  0  0  0
 14  9  1  0  0  0  0
 23 27  2  0  0  0  0
 10  3  1  0  0  0  0
M  CHG  2   2   1  13  -1
M  END
>  <IDNUMBER>
F1673-4952

>  <Chemical_Name>
4-chloro-N-(1,1-dioxo-1??-thiolan-3-yl)-N-[(4-methoxyphenyl)methyl]-3-nitrobenzamide

>  <PriceCoeff>
1.00

>  <CAS>
579442-88-9

>  <MW>
438.88

>  <Description>
solid

>  <FSP3>
0.32

>  <clogP>
2.13

>  <TPSA>
115.20

>  <Acceptor>
6

>  <Donor>
0

>  <RotBonds>
7

>  <HAC>
29

>  <Collection>
General

>  <PPDS>
+

$$$$
F1675-0067
  Mrv2219 10102508112D          

 21 22  0  0  0  0            999 V2000
    5.2542   -2.9625    0.0000 S   0  0  0  0  0  0  0  0  0  0  0  0
    4.4292   -2.9792    0.0000 C   0  0  0  0  0  0  0  0  0  0  0  0
    6.0792   -2.9625    0.0000 N   0  0  0  0  0  0  0  0  0  0  0  0
    3.9917   -2.2750    0.0000 C   0  0  0  0  0  0  0  0  0  0  0  0
    7.3125   -2.2500    0.0000 C   0  0  0  0  0  0  0  0  0  0  0  0
    3.1667   -2.3000    0.0000 C   0  0  0  0  0  0  0  0  0  0  0  0
    4.0292   -3.7042    0.0000 C   0  0  0  0  0  0  0  0  0  0  0  0
    6.4875   -2.2417    0.0000 C   0  0  0  0  0  0  0  0  0  0  0  0
    7.7250   -1.5375    0.0000 C   0  0  0  0  0  0  0  0  0  0  0  0
    5.2667   -3.7875    0.0000 O   0  0  0  0  0  0  0  0  0  0  0  0
    5.2417   -2.1375    0.0000 O   0  0  0  0  0  0  0  0  0  0  0  0
    2.7792   -3.0167    0.0000 C   0  0  0  0  0  0  0  0  0  0  0  0
    3.2042   -3.7292    0.0000 C   0  0  0  0  0  0  0  0  0  0  0  0
    7.3167   -0.8167    0.0000 O   0  0  0  0  0  0  0  0  0  0  0  0
    4.3875   -1.5500    0.0000 O   0  0  0  0  0  0  0  0  0  0  0  0
    2.7375   -1.5917    0.0000 Cl  0  0  0  0  0  0  0  0  0  0  0  0
    6.4875   -3.6750    0.0000 C   0  0  0  0  0  0  0  0  0  0  0  0
    8.5500   -1.5417    0.0000 O   0  0  0  0  0  0  0  0  0  0  0  0
    2.8125   -4.4542    0.0000 Cl  0  0  0  0  0  0  0  0  0  0  0  0
    7.7167   -2.9667    0.0000 C   0  0  0  0  0  0  0  0  0  0  0  0
    7.3042   -3.6750    0.0000 C   0  0  0  0  0  0  0  0  0  0  0  0
  2  1  1  0  0  0  0
  3  1  1  0  0  0  0
  4  2  1  0  0  0  0
  5  8  1  0  0  0  0
  6  4  2  0  0  0  0
  7  2  2  0  0  0  0
  8  3  1  0  0  0  0
  9  5  1  0  0  0  0
 10  1  2  0  0  0  0
 11  1  2  0  0  0  0
 12 13  2  0  0  0  0
 13  7  1  0  0  0  0
 14  9  2  0  0  0  0
 15  4  1  0  0  0  0
 16  6  1  0  0  0  0
 17  3  1  0  0  0  0
 18  9  1  0  0  0  0
 19 13  1  0  0  0  0
 20 21  1  0  0  0  0
 21 17  1  0  0  0  0
  5 20  1  0  0  0  0
  6 12  1  0  0  0  0
M  END
>  <IDNUMBER>
F1675-0067

>  <Chemical_Name>
1-(3,5-dichloro-2-hydroxybenzenesulfonyl)piperidine-3-carboxylic acid

>  <PriceCoeff>
1.00

>  <MW>
354.20

>  <Description>
solid

>  <FSP3>
0.42

>  <clogP>
3.09

>  <TPSA>
107.31

>  <Acceptor>
5

>  <Donor>
1

>  <RotBonds>
3

>  <HAC>
21

>  <Collection>
General

$$$$
F1678-0159
  Mrv2219 10102508112D          

 31 34  0  0  0  0            999 V2000
   -1.5615    5.1516    0.0000 C   0  0  0  0  0  0  0  0  0  0  0  0
   -1.3595    4.3231    0.0000 C   0  0  0  0  0  0  0  0  0  0  0  0
   -0.2442    5.5340    0.0000 N   0  0  0  0  0  0  0  0  0  0  0  0
    0.0107    4.7481    0.0000 C   0  0  0  0  0  0  0  0  0  0  0  0
   -0.5417    4.1319    0.0000 N   0  0  0  0  0  0  0  0  0  0  0  0
   -1.0090    5.7360    0.0000 C   0  0  0  0  0  0  0  0  0  0  0  0
   -2.0394    3.8558    0.0000 S   0  0  0  0  0  0  0  0  0  0  0  0
   -2.4218    5.1516    0.0000 C   0  0  0  0  0  0  0  0  0  0  0  0
   -2.6661    4.3338    0.0000 C   0  0  0  0  0  0  0  0  0  0  0  0
    0.8392    4.5143    0.0000 S   0  0  0  0  0  0  0  0  0  0  0  0
    0.3294    6.2032    0.0000 C   0  0  0  0  0  0  0  0  0  0  0  0
   -1.2002    6.5326    0.0000 O   0  0  0  0  0  0  0  0  0  0  0  0
    2.1776    4.8756    0.0000 C   0  0  0  0  0  0  0  0  0  0  0  0
    2.8150    5.4384    0.0000 O   0  0  0  0  0  0  0  0  0  0  0  0
    1.4021    5.1516    0.0000 C   0  0  0  0  0  0  0  0  0  0  0  0
    2.3900    4.1108    0.0000 N   0  0  0  0  0  0  0  0  0  0  0  0
   -2.9210    5.8208    0.0000 C   0  0  0  0  0  0  0  0  0  0  0  0
   -3.4734    4.0363    0.0000 C   0  0  0  0  0  0  0  0  0  0  0  0
    1.7527    3.5583    0.0000 C   0  0  0  0  0  0  0  0  0  0  0  0
    1.3172    2.1669    0.0000 C   0  0  0  0  0  0  0  0  0  0  0  0
    0.1275    6.9362    0.0000 C   0  0  0  0  0  0  0  0  0  0  0  0
    1.1472    6.0227    0.0000 C   0  0  0  0  0  0  0  0  0  0  0  0
    1.9546    2.7617    0.0000 C   0  0  0  0  0  0  0  0  0  0  0  0
    1.4447    1.3914    0.0000 C   0  0  0  0  0  0  0  0  0  0  0  0
    0.5206    2.4218    0.0000 C   0  0  0  0  0  0  0  0  0  0  0  0
    0.6373    7.5735    0.0000 C   0  0  0  0  0  0  0  0  0  0  0  0
    1.6996    6.6601    0.0000 C   0  0  0  0  0  0  0  0  0  0  0  0
    0.8604    0.8178    0.0000 C   0  0  0  0  0  0  0  0  0  0  0  0
   -0.0319    1.8694    0.0000 C   0  0  0  0  0  0  0  0  0  0  0  0
    1.4766    7.3930    0.0000 C   0  0  0  0  0  0  0  0  0  0  0  0
    0.0956    1.0728    0.0000 C   0  0  0  0  0  0  0  0  0  0  0  0
  2  1  2  0  0  0  0
  3  6  1  0  0  0  0
  4  3  1  0  0  0  0
  5  2  1  0  0  0  0
  6  1  1  0  0  0  0
  7  2  1  0  0  0  0
  8  1  1  0  0  0  0
  9  8  2  0  0  0  0
 10  4  1  0  0  0  0
 11  3  1  0  0  0  0
 12  6  2  0  0  0  0
 13 15  1  0  0  0  0
 14 13  2  0  0  0  0
 15 10  1  0  0  0  0
 16 13  1  0  0  0  0
 17  8  1  0  0  0  0
 18  9  1  0  0  0  0
 19 16  1  0  0  0  0
 20 23  1  0  0  0  0
 21 11  2  0  0  0  0
 22 11  1  0  0  0  0
 23 19  1  0  0  0  0
 24 20  1  0  0  0  0
 25 20  2  0  0  0  0
 26 21  1  0  0  0  0
 27 22  2  0  0  0  0
 28 24  2  0  0  0  0
 29 25  1  0  0  0  0
 30 27  1  0  0  0  0
 31 29  2  0  0  0  0
  9  7  1  0  0  0  0
  5  4  2  0  0  0  0
 30 26  2  0  0  0  0
 28 31  1  0  0  0  0
M  END
>  <IDNUMBER>
F1678-0159

>  <Chemical_Name>
2-({5,6-dimethyl-4-oxo-3-phenyl-3H,4H-thieno[2,3-d]pyrimidin-2-yl}sulfanyl)-N-(2-phenylethyl)acetamide

>  <PriceCoeff>
1.00

>  <CAS>
618395-70-3

>  <MW>
449.59

>  <Description>
solid

>  <FSP3>
0.21

>  <clogP>
5.17

>  <TPSA>
115.31

>  <Acceptor>
3

>  <Donor>
1

>  <RotBonds>
7

>  <HAC>
31

>  <Collection>
General

>  <PPDS>
+

$$$$
F1691-2965
  Mrv2219 10102508112D          

 24 26  0  0  0  0            999 V2000
   -4.0296    0.6598    0.0000 C   0  0  0  0  0  0  0  0  0  0  0  0
   -3.5327    1.3279    0.0000 C   0  0  0  0  0  0  0  0  0  0  0  0
   -3.7665   -0.1169    0.0000 C   0  0  0  0  0  0  0  0  0  0  0  0
   -4.4347   -0.6056    0.0000 N   0  0  0  0  0  0  0  0  0  0  0  0
   -3.1194    2.6015    0.0000 N   0  0  0  0  0  0  0  0  0  0  0  0
   -2.4512    2.1171    0.0000 C   0  0  0  0  0  0  0  0  0  0  0  0
   -3.7915    2.1171    0.0000 C   0  0  0  0  0  0  0  0  0  0  0  0
   -2.7059    1.3279    0.0000 S   0  0  0  0  0  0  0  0  0  0  0  0
   -4.8564    0.6640    0.0000 C   0  0  0  0  0  0  0  0  0  0  0  0
   -5.1070   -0.1169    0.0000 C   0  0  0  0  0  0  0  0  0  0  0  0
   -4.4305   -1.4324    0.0000 C   0  0  0  0  0  0  0  0  0  0  0  0
   -1.6619    2.3760    0.0000 N   0  0  0  0  0  0  0  0  0  0  0  0
   -2.9522   -0.3883    0.0000 O   0  0  0  0  0  0  0  0  0  0  0  0
   -4.5725    2.3760    0.0000 O   0  0  0  0  0  0  0  0  0  0  0  0
   -3.7164   -1.8540    0.0000 O   0  0  0  0  0  0  0  0  0  0  0  0
   -3.1277    3.4283    0.0000 C   0  0  0  0  0  0  0  0  0  0  0  0
   -5.3951    1.2735    0.0000 C   0  0  0  0  0  0  0  0  0  0  0  0
   -5.9087   -0.3006    0.0000 C   0  0  0  0  0  0  0  0  0  0  0  0
   -5.1571   -1.8457    0.0000 C   0  0  0  0  0  0  0  0  0  0  0  0
   -1.0523    1.8165    0.0000 C   0  0  0  0  0  0  0  0  0  0  0  0
   -3.8416    3.8416    0.0000 C   0  0  0  0  0  0  0  0  0  0  0  0
   -6.4515    0.3131    0.0000 C   0  0  0  0  0  0  0  0  0  0  0  0
   -6.2010    1.0982    0.0000 C   0  0  0  0  0  0  0  0  0  0  0  0
   -0.2630    2.0753    0.0000 C   0  0  0  0  0  0  0  0  0  0  0  0
  2  1  2  0  0  0  0
  3  1  1  0  0  0  0
  4  3  1  0  0  0  0
  5  7  1  0  0  0  0
  6  8  1  0  0  0  0
  7  2  1  0  0  0  0
  8  2  1  0  0  0  0
  9  1  1  0  0  0  0
 10  9  2  0  0  0  0
 11  4  1  0  0  0  0
 12  6  2  0  0  0  0
 13  3  2  0  0  0  0
 14  7  2  0  0  0  0
 15 11  2  0  0  0  0
 16  5  1  0  0  0  0
 17  9  1  0  0  0  0
 18 10  1  0  0  0  0
 19 11  1  0  0  0  0
 20 12  1  0  0  0  0
 21 16  1  0  0  0  0
 22 23  1  0  0  0  0
 23 17  2  0  0  0  0
 24 20  1  0  0  0  0
 10  4  1  0  0  0  0
  6  5  1  0  0  0  0
 22 18  2  0  0  0  0
M  END
>  <IDNUMBER>
F1691-2965

>  <Chemical_Name>
1-acetyl-3-[(2Z,5Z)-3-ethyl-2-(ethylimino)-4-oxo-1,3-thiazolidin-5-ylidene]-2,3-dihydro-1H-indol-2-one

>  <PriceCoeff>
1.00

>  <CAS>
868142-86-3

>  <MW>
343.40

>  <Description>
solid

>  <FSP3>
0.29

>  <clogP>
1.97

>  <TPSA>
95.35

>  <Acceptor>
4

>  <Donor>
0

>  <RotBonds>
3

>  <HAC>
24

>  <Collection>
General

>  <PPDS>
+

$$$$
F1699-0022
  Mrv2219 10102508112D          

 20 22  0  0  0  0            999 V2000
    5.0383   -3.1306    0.0000 C   0  0  0  0  0  0  0  0  0  0  0  0
    5.0383   -2.3041    0.0000 C   0  0  0  0  0  0  0  0  0  0  0  0
    4.3203   -3.5356    0.0000 N   0  0  0  0  0  0  0  0  0  0  0  0
    3.5731   -3.1306    0.0000 C   0  0  0  0  0  0  0  0  0  0  0  0
    3.5731   -2.3041    0.0000 N   0  0  0  0  0  0  0  0  0  0  0  0
    5.8230   -3.3853    0.0000 N   0  0  0  0  0  0  0  0  0  0  0  0
    4.3203   -1.8909    0.0000 C   0  0  0  0  0  0  0  0  0  0  0  0
    5.8856   -1.9828    0.0000 N   0  0  0  0  0  0  0  0  0  0  0  0
    6.3030   -2.7049    0.0000 C   0  0  0  0  0  0  0  0  0  0  0  0
    7.5386   -3.4103    0.0000 N   0  0  0  0  0  0  0  0  0  0  0  0
    8.3567   -4.8254    0.0000 N   0  0  0  0  0  0  0  0  0  0  0  0
    2.8468   -3.5356    0.0000 O   0  0  0  0  0  0  0  0  0  0  0  0
    4.3203   -1.0644    0.0000 O   0  0  0  0  0  0  0  0  0  0  0  0
    7.1253   -2.6966    0.0000 C   0  0  0  0  0  0  0  0  0  0  0  0
    4.3203   -4.3621    0.0000 C   0  0  0  0  0  0  0  0  0  0  0  0
    7.1253   -4.1199    0.0000 C   0  0  0  0  0  0  0  0  0  0  0  0
    8.3567   -3.3978    0.0000 C   0  0  0  0  0  0  0  0  0  0  0  0
    8.7658   -4.1116    0.0000 C   0  0  0  0  0  0  0  0  0  0  0  0
    7.5303   -4.8254    0.0000 C   0  0  0  0  0  0  0  0  0  0  0  0
    8.7700   -5.5392    0.0000 C   0  0  0  0  0  0  0  0  0  0  0  0
  2  1  2  0  0  0  0
  3  1  1  0  0  0  0
  4  3  1  0  0  0  0
  5  4  1  0  0  0  0
  6  1  1  0  0  0  0
  7  2  1  0  0  0  0
  8  2  1  0  0  0  0
  9  6  2  0  0  0  0
 10 14  1  0  0  0  0
 11 18  1  0  0  0  0
 12  4  2  0  0  0  0
 13  7  2  0  0  0  0
 14  9  1  0  0  0  0
 15  3  1  0  0  0  0
 16 10  1  0  0  0  0
 17 10  1  0  0  0  0
 18 17  1  0  0  0  0
 19 16  1  0  0  0  0
 20 11  1  0  0  0  0
  8  9  1  0  0  0  0
  5  7  1  0  0  0  0
 19 11  1  0  0  0  0
M  END
>  <IDNUMBER>
F1699-0022

>  <Chemical_Name>
3-methyl-8-[(4-methylpiperazin-1-yl)methyl]-2,3,6,7-tetrahydro-1H-purine-2,6-dione

>  <PriceCoeff>
1.00

>  <CAS>
847239-76-3

>  <MW>
278.31

>  <Description>
solid

>  <FSP3>
0.58

>  <clogP>
-0.35

>  <TPSA>
120.08

>  <Acceptor>
6

>  <Donor>
5

>  <RotBonds>
2

>  <HAC>
20

>  <Collection>
General

>  <PPDS>
+

$$$$
F1699-0026
  Mrv2219 10102508112D          

 16 17  0  0  0  0            999 V2000
    5.0292   -3.1292    0.0000 C   0  0  0  0  0  0  0  0  0  0  0  0
    5.0292   -2.3042    0.0000 C   0  0  0  0  0  0  0  0  0  0  0  0
    4.3167   -3.5417    0.0000 N   0  0  0  0  0  0  0  0  0  0  0  0
    3.5750   -3.1292    0.0000 C   0  0  0  0  0  0  0  0  0  0  0  0
    3.5750   -2.3042    0.0000 N   0  0  0  0  0  0  0  0  0  0  0  0
    5.8167   -3.3917    0.0000 N   0  0  0  0  0  0  0  0  0  0  0  0
    4.3167   -1.8917    0.0000 C   0  0  0  0  0  0  0  0  0  0  0  0
    5.8792   -1.9917    0.0000 N   0  0  0  0  0  0  0  0  0  0  0  0
    6.2917   -2.7042    0.0000 C   0  0  0  0  0  0  0  0  0  0  0  0
    2.8417   -3.5417    0.0000 O   0  0  0  0  0  0  0  0  0  0  0  0
    4.3167   -1.0667    0.0000 O   0  0  0  0  0  0  0  0  0  0  0  0
    7.1167   -2.7042    0.0000 C   0  0  0  0  0  0  0  0  0  0  0  0
    4.3167   -4.3667    0.0000 C   0  0  0  0  0  0  0  0  0  0  0  0
    7.5292   -3.4125    0.0000 N   0  0  0  0  0  0  0  0  0  0  0  0
    7.1167   -4.1167    0.0000 C   0  0  0  0  0  0  0  0  0  0  0  0
    8.3417   -3.4042    0.0000 C   0  0  0  0  0  0  0  0  0  0  0  0
  2  1  2  0  0  0  0
  3  1  1  0  0  0  0
  4  3  1  0  0  0  0
  5  4  1  0  0  0  0
  6  1  1  0  0  0  0
  7  2  1  0  0  0  0
  8  2  1  0  0  0  0
  9  6  2  0  0  0  0
 10  4  2  0  0  0  0
 11  7  2  0  0  0  0
 12  9  1  0  0  0  0
 13  3  1  0  0  0  0
 14 12  1  0  0  0  0
 15 14  1  0  0  0  0
 16 14  1  0  0  0  0
  8  9  1  0  0  0  0
  5  7  1  0  0  0  0
M  END
>  <IDNUMBER>
F1699-0026

>  <Chemical_Name>
8-[(dimethylamino)methyl]-3-methyl-2,3,6,7-tetrahydro-1H-purine-2,6-dione

>  <PriceCoeff>
1.00

>  <CAS>
868143-58-2

>  <MW>
223.23

>  <Description>
solid

>  <FSP3>
0.44

>  <clogP>
-0.83

>  <TPSA>
117.33

>  <Acceptor>
4

>  <Donor>
4

>  <RotBonds>
2

>  <HAC>
16

>  <Collection>
General

>  <PPDS>
+

$$$$
F1699-0030
  Mrv2219 10102508112D          

 19 20  0  0  0  0            999 V2000
    5.0600   -3.7897    0.0000 C   0  0  0  0  0  0  0  0  0  0  0  0
    5.0600   -2.9597    0.0000 C   0  0  0  0  0  0  0  0  0  0  0  0
    4.3431   -4.2005    0.0000 N   0  0  0  0  0  0  0  0  0  0  0  0
    3.6011   -2.9597    0.0000 N   0  0  0  0  0  0  0  0  0  0  0  0
    3.6011   -3.7897    0.0000 C   0  0  0  0  0  0  0  0  0  0  0  0
    4.3431   -2.5530    0.0000 C   0  0  0  0  0  0  0  0  0  0  0  0
    5.8481   -4.0496    0.0000 N   0  0  0  0  0  0  0  0  0  0  0  0
    5.9109   -2.6453    0.0000 N   0  0  0  0  0  0  0  0  0  0  0  0
    6.3302   -3.3621    0.0000 C   0  0  0  0  0  0  0  0  0  0  0  0
    2.8717   -4.2005    0.0000 O   0  0  0  0  0  0  0  0  0  0  0  0
    4.3431   -1.7272    0.0000 O   0  0  0  0  0  0  0  0  0  0  0  0
    4.3431   -5.0222    0.0000 C   0  0  0  0  0  0  0  0  0  0  0  0
    2.8926   -2.5404    0.0000 C   0  0  0  0  0  0  0  0  0  0  0  0
    7.1477   -3.3621    0.0000 C   0  0  0  0  0  0  0  0  0  0  0  0
    7.5627   -4.0664    0.0000 N   0  0  0  0  0  0  0  0  0  0  0  0
    8.3802   -5.4876    0.0000 O   0  0  0  0  0  0  0  0  0  0  0  0
    8.3802   -4.0622    0.0000 C   0  0  0  0  0  0  0  0  0  0  0  0
    8.7910   -4.7707    0.0000 C   0  0  0  0  0  0  0  0  0  0  0  0
    8.7952   -6.2044    0.0000 C   0  0  0  0  0  0  0  0  0  0  0  0
  2  1  2  0  0  0  0
  3  1  1  0  0  0  0
  4  5  1  0  0  0  0
  5  3  1  0  0  0  0
  6  2  1  0  0  0  0
  7  1  1  0  0  0  0
  8  2  1  0  0  0  0
  9  7  2  0  0  0  0
 10  5  2  0  0  0  0
 11  6  2  0  0  0  0
 12  3  1  0  0  0  0
 13  4  1  0  0  0  0
 14  9  1  0  0  0  0
 15 14  1  0  0  0  0
 16 18  1  0  0  0  0
 17 15  1  0  0  0  0
 18 17  1  0  0  0  0
 19 16  1  0  0  0  0
  8  9  1  0  0  0  0
  4  6  1  0  0  0  0
M  END
>  <IDNUMBER>
F1699-0030

>  <Chemical_Name>
8-{[(2-methoxyethyl)amino]methyl}-1,3-dimethyl-2,3,6,7-tetrahydro-1H-purine-2,6-dione

>  <PriceCoeff>
1.50

>  <CAS>
838884-59-6

>  <MW>
267.28

>  <Description>
solid

>  <FSP3>
0.55

>  <clogP>
-0.49

>  <TPSA>
90.56

>  <Acceptor>
5

>  <Donor>
3

>  <RotBonds>
5

>  <HAC>
19

>  <Collection>
Advanced

>  <PPDS>
+

$$$$
F1716-0347
  Mrv2219 10102508112D          

 10 10  0  0  0  0            999 V2000
    2.9542   -2.7917    0.0000 C   0  0  0  0  0  0  0  0  0  0  0  0
    3.6667   -3.2042    0.0000 C   0  0  0  0  0  0  0  0  0  0  0  0
    2.9542   -1.9667    0.0000 C   0  0  0  0  0  0  0  0  0  0  0  0
    2.2375   -1.5542    0.0000 N   0  0  0  0  0  0  0  0  0  0  0  0
    4.3875   -2.7917    0.0000 O   0  0  0  0  0  0  0  0  0  0  0  0
    3.6667   -1.5500    0.0000 S   0  0  0  0  0  0  0  0  0  0  0  0
    3.6750   -4.0292    0.0000 O   0  0  0  0  0  0  0  0  0  0  0  0
    2.2375   -3.2042    0.0000 C   0  0  0  0  0  0  0  0  0  0  0  0
    1.5250   -1.9667    0.0000 C   0  0  0  0  0  0  0  0  0  0  0  0
    1.5250   -2.7917    0.0000 C   0  0  0  0  0  0  0  0  0  0  0  0
  2  1  1  0  0  0  0
  3  1  1  0  0  0  0
  4  3  2  0  0  0  0
  5  2  2  0  0  0  0
  6  3  1  0  0  0  0
  7  2  1  0  0  0  0
  8  1  2  0  0  0  0
  9 10  2  0  0  0  0
 10  8  1  0  0  0  0
  4  9  1  0  0  0  0
M  END
>  <IDNUMBER>
F1716-0347

>  <Chemical_Name>
2-sulfanylpyridine-3-carboxylic acid

>  <PriceCoeff>
1.00

>  <CAS>
38521-46-9

>  <MW>
155.18

>  <Description>
solid

>  <FSP3>
0.00

>  <clogP>
0.61

>  <TPSA>
50.19

>  <Acceptor>
3

>  <Donor>
2

>  <RotBonds>
1

>  <HAC>
10

>  <Collection>
General

>  <PPDS>
+

$$$$
F1721-0034
  Mrv2219 10102508112D          

 20 22  0  0  0  0            999 V2000
    4.9879   -1.6027    0.0000 N   0  0  0  0  0  0  0  0  0  0  0  0
    4.7548   -2.3943    0.0000 C   0  0  0  0  0  0  0  0  0  0  0  0
    5.4395   -2.8606    0.0000 O   0  0  0  0  0  0  0  0  0  0  0  0
    5.8183   -1.5785    0.0000 N   0  0  0  0  0  0  0  0  0  0  0  0
    6.0952   -2.3603    0.0000 C   0  0  0  0  0  0  0  0  0  0  0  0
    3.9825   -2.6712    0.0000 C   0  0  0  0  0  0  0  0  0  0  0  0
    6.8820   -2.5934    0.0000 C   0  0  0  0  0  0  0  0  0  0  0  0
    7.0714   -3.3997    0.0000 O   0  0  0  0  0  0  0  0  0  0  0  0
    7.8679   -3.6329    0.0000 C   0  0  0  0  0  0  0  0  0  0  0  0
    9.4463   -4.0991    0.0000 C   0  0  0  0  0  0  0  0  0  0  0  0
    8.0476   -4.4342    0.0000 C   0  0  0  0  0  0  0  0  0  0  0  0
    8.4556   -3.0646    0.0000 C   0  0  0  0  0  0  0  0  0  0  0  0
    9.2520   -3.2978    0.0000 C   0  0  0  0  0  0  0  0  0  0  0  0
    8.8440   -4.6673    0.0000 C   0  0  0  0  0  0  0  0  0  0  0  0
    3.8369   -3.4726    0.0000 C   0  0  0  0  0  0  0  0  0  0  0  0
    3.3560   -2.1273    0.0000 C   0  0  0  0  0  0  0  0  0  0  0  0
   10.2331   -4.3419    0.0000 C   0  0  0  0  0  0  0  0  0  0  0  0
    3.0597   -3.7495    0.0000 C   0  0  0  0  0  0  0  0  0  0  0  0
    2.5789   -2.4040    0.0000 C   0  0  0  0  0  0  0  0  0  0  0  0
    2.4235   -3.2200    0.0000 C   0  0  0  0  0  0  0  0  0  0  0  0
  2  1  2  0  0  0  0
  3  2  1  0  0  0  0
  4  1  1  0  0  0  0
  5  4  2  0  0  0  0
  6  2  1  0  0  0  0
  7  5  1  0  0  0  0
  8  7  1  0  0  0  0
  9  8  1  0  0  0  0
 10 13  1  0  0  0  0
 11  9  2  0  0  0  0
 12  9  1  0  0  0  0
 13 12  2  0  0  0  0
 14 11  1  0  0  0  0
 15  6  1  0  0  0  0
 16  6  2  0  0  0  0
 17 10  1  0  0  0  0
 18 15  2  0  0  0  0
 19 16  1  0  0  0  0
 20 19  2  0  0  0  0
  5  3  1  0  0  0  0
 18 20  1  0  0  0  0
 10 14  2  0  0  0  0
M  END
>  <IDNUMBER>
F1721-0034

>  <Chemical_Name>
2-[(4-methylphenoxy)methyl]-5-phenyl-1,3,4-oxadiazole

>  <PriceCoeff>
1.00

>  <CAS>
723325-25-5

>  <MW>
266.29

>  <Description>
solid

>  <FSP3>
0.12

>  <clogP>
2.88

>  <TPSA>
48.15

>  <Acceptor>
4

>  <Donor>
0

>  <RotBonds>
4

>  <HAC>
20

>  <Collection>
General

>  <PPDS>
+

$$$$
F1721-0084
  Mrv2219 10102508112D          

 22 24  0  0  0  0            999 V2000
    2.6146    0.8699    0.0000 C   0  0  0  0  0  0  0  0  0  0  0  0
    2.8479    1.6572    0.0000 N   0  0  0  0  0  0  0  0  0  0  0  0
    3.2999    0.4033    0.0000 O   0  0  0  0  0  0  0  0  0  0  0  0
    3.6789    1.6863    0.0000 N   0  0  0  0  0  0  0  0  0  0  0  0
    1.8419    0.5929    0.0000 C   0  0  0  0  0  0  0  0  0  0  0  0
    3.9559    0.8990    0.0000 C   0  0  0  0  0  0  0  0  0  0  0  0
    1.6961   -0.2187    0.0000 C   0  0  0  0  0  0  0  0  0  0  0  0
    4.9328   -0.1361    0.0000 O   0  0  0  0  0  0  0  0  0  0  0  0
    5.7201   -0.3694    0.0000 C   0  0  0  0  0  0  0  0  0  0  0  0
    4.7432    0.6658    0.0000 C   0  0  0  0  0  0  0  0  0  0  0  0
    6.3178    0.1992    0.0000 C   0  0  0  0  0  0  0  0  0  0  0  0
    2.3230   -0.7485    0.0000 Cl  0  0  0  0  0  0  0  0  0  0  0  0
    1.2150    1.1323    0.0000 C   0  0  0  0  0  0  0  0  0  0  0  0
    6.1234    1.0011    0.0000 O   0  0  0  0  0  0  0  0  0  0  0  0
    0.9185   -0.4957    0.0000 C   0  0  0  0  0  0  0  0  0  0  0  0
    5.9096   -1.1713    0.0000 C   0  0  0  0  0  0  0  0  0  0  0  0
    7.1051   -0.0341    0.0000 C   0  0  0  0  0  0  0  0  0  0  0  0
    6.7212    1.5697    0.0000 C   0  0  0  0  0  0  0  0  0  0  0  0
    0.4374    0.8553    0.0000 C   0  0  0  0  0  0  0  0  0  0  0  0
    6.6969   -1.4142    0.0000 C   0  0  0  0  0  0  0  0  0  0  0  0
    7.2947   -0.8456    0.0000 C   0  0  0  0  0  0  0  0  0  0  0  0
    0.2819    0.0388    0.0000 C   0  0  0  0  0  0  0  0  0  0  0  0
  2  1  2  0  0  0  0
  3  1  1  0  0  0  0
  4  2  1  0  0  0  0
  5  1  1  0  0  0  0
  6  3  1  0  0  0  0
  7  5  1  0  0  0  0
  8 10  1  0  0  0  0
  9  8  1  0  0  0  0
 10  6  1  0  0  0  0
 11  9  1  0  0  0  0
 12  7  1  0  0  0  0
 13  5  2  0  0  0  0
 14 11  1  0  0  0  0
 15  7  2  0  0  0  0
 16  9  2  0  0  0  0
 17 11  2  0  0  0  0
 18 14  1  0  0  0  0
 19 13  1  0  0  0  0
 20 16  1  0  0  0  0
 21 20  2  0  0  0  0
 22 19  2  0  0  0  0
  4  6  2  0  0  0  0
 15 22  1  0  0  0  0
 21 17  1  0  0  0  0
M  END
>  <IDNUMBER>
F1721-0084

>  <Chemical_Name>
2-(2-chlorophenyl)-5-[(2-methoxyphenoxy)methyl]-1,3,4-oxadiazole

>  <PriceCoeff>
1.00

>  <CAS>
853752-00-8

>  <MW>
316.74

>  <Description>
solid

>  <FSP3>
0.12

>  <clogP>
2.61

>  <TPSA>
57.38

>  <Acceptor>
5

>  <Donor>
0

>  <RotBonds>
5

>  <HAC>
22

>  <Collection>
General

$$$$
F1736-0003
  Mrv2219 10102508112D          

 23 25  0  0  0  0            999 V2000
    4.1042   -3.5042    0.0000 N   0  3  0  0  0  0  0  0  0  0  0  0
    2.6875   -0.1917    0.0000 C   0  0  0  0  0  0  0  0  0  0  0  0
    3.4042    0.2125    0.0000 C   0  0  0  0  0  0  0  0  0  0  0  0
    1.9667    0.2250    0.0000 O   0  0  0  0  0  0  0  0  0  0  0  0
    4.1167   -0.2000    0.0000 N   0  0  0  0  0  0  0  0  0  0  0  0
    4.1042   -2.6750    0.0000 C   0  0  0  0  0  0  0  0  0  0  0  0
    4.8250   -2.2542    0.0000 C   0  0  0  0  0  0  0  0  0  0  0  0
    1.9625   -1.4417    0.0000 O   0  0  0  0  0  0  0  0  0  0  0  0
    4.1125   -1.0292    0.0000 C   0  0  0  0  0  0  0  0  0  0  0  0
    4.8250   -1.4375    0.0000 C   0  0  0  0  0  0  0  0  0  0  0  0
    1.2500   -0.1917    0.0000 C   0  0  0  0  0  0  0  0  0  0  0  0
    3.3917   -3.9167    0.0000 O   0  5  0  0  0  0  0  0  0  0  0  0
    2.6875   -1.0292    0.0000 C   0  0  0  0  0  0  0  0  0  0  0  0
    1.2417   -1.0292    0.0000 C   0  0  0  0  0  0  0  0  0  0  0  0
    4.8167   -3.9167    0.0000 O   0  0  0  0  0  0  0  0  0  0  0  0
    3.4042    1.0375    0.0000 O   0  0  0  0  0  0  0  0  0  0  0  0
    3.3917   -2.2625    0.0000 C   0  0  0  0  0  0  0  0  0  0  0  0
    3.3917   -1.4292    0.0000 C   0  0  0  0  0  0  0  0  0  0  0  0
    5.5375   -1.0167    0.0000 Cl  0  0  0  0  0  0  0  0  0  0  0  0
    0.5292    0.2208    0.0000 C   0  0  0  0  0  0  0  0  0  0  0  0
    0.5292   -1.4375    0.0000 C   0  0  0  0  0  0  0  0  0  0  0  0
   -0.1833   -0.2000    0.0000 C   0  0  0  0  0  0  0  0  0  0  0  0
   -0.1833   -1.0250    0.0000 C   0  0  0  0  0  0  0  0  0  0  0  0
  2  3  1  0  0  0  0
  3  5  1  0  0  0  0
  4  2  1  0  0  0  0
  5  9  1  0  0  0  0
  6  1  1  0  0  0  0
  7  6  1  0  0  0  0
  8 13  1  0  0  0  0
  9 18  2  0  0  0  0
 10  7  2  0  0  0  0
 11  4  1  0  0  0  0
 12  1  1  0  0  0  0
 13  2  1  0  0  0  0
 14  8  1  0  0  0  0
 15  1  2  0  0  0  0
 16  3  2  0  0  0  0
 17  6  2  0  0  0  0
 18 17  1  0  0  0  0
 19 10  1  0  0  0  0
 20 11  2  0  0  0  0
 21 14  2  0  0  0  0
 22 20  1  0  0  0  0
 23 21  1  0  0  0  0
 10  9  1  0  0  0  0
 11 14  1  0  0  0  0
 22 23  2  0  0  0  0
M  CHG  2   1   1  12  -1
M  END
>  <IDNUMBER>
F1736-0003

>  <Chemical_Name>
N-(2-chloro-4-nitrophenyl)-2,3-dihydro-1,4-benzodioxine-2-carboxamide

>  <PriceCoeff>
1.00

>  <CAS>
879577-18-1

>  <MW>
334.71

>  <Description>
solid

>  <FSP3>
0.13

>  <clogP>
2.83

>  <TPSA>
90.70

>  <Acceptor>
5

>  <Donor>
1

>  <RotBonds>
3

>  <HAC>
23

>  <Collection>
General

>  <PPDS>
+

$$$$
F1740-0134
  Mrv2219 10102508112D          

 29 31  0  0  0  0            999 V2000
    6.7847    0.1374    0.0000 N   0  0  0  0  0  0  0  0  0  0  0  0
    7.0427   -0.6493    0.0000 C   0  0  0  0  0  0  0  0  0  0  0  0
   11.0178   -3.4631    0.0000 S   0  0  0  0  0  0  0  0  0  0  0  0
    7.4548    0.6202    0.0000 C   0  0  0  0  0  0  0  0  0  0  0  0
    7.8669   -0.6493    0.0000 C   0  0  0  0  0  0  0  0  0  0  0  0
    8.1208    0.1374    0.0000 C   0  0  0  0  0  0  0  0  0  0  0  0
    6.1978    0.1332    0.0000 C   0  0  0  0  0  0  0  0  0  0  0  0
   10.9762   -2.6390    0.0000 C   0  0  0  0  0  0  0  0  0  0  0  0
    8.9075    0.3954    0.0000 S   0  0  0  0  0  0  0  0  0  0  0  0
   11.0553   -4.2873    0.0000 O   0  0  0  0  0  0  0  0  0  0  0  0
   11.8420   -3.4257    0.0000 O   0  0  0  0  0  0  0  0  0  0  0  0
   10.3019    0.0957    0.0000 C   0  0  0  0  0  0  0  0  0  0  0  0
    6.5557   -1.3153    0.0000 O   0  0  0  0  0  0  0  0  0  0  0  0
    7.4465    1.4443    0.0000 O   0  0  0  0  0  0  0  0  0  0  0  0
   10.9137   -0.4620    0.0000 N   0  0  0  0  0  0  0  0  0  0  0  0
   10.1937   -3.4964    0.0000 N   0  0  0  0  0  0  0  0  0  0  0  0
   10.4684    0.8949    0.0000 O   0  0  0  0  0  0  0  0  0  0  0  0
   10.2436   -2.2602    0.0000 C   0  0  0  0  0  0  0  0  0  0  0  0
   11.6754   -2.1894    0.0000 C   0  0  0  0  0  0  0  0  0  0  0  0
    5.7982   -0.5911    0.0000 C   0  0  0  0  0  0  0  0  0  0  0  0
    5.7690    0.8366    0.0000 C   0  0  0  0  0  0  0  0  0  0  0  0
    9.5152   -0.1540    0.0000 C   0  0  0  0  0  0  0  0  0  0  0  0
   10.9054   -0.9907    0.0000 C   0  0  0  0  0  0  0  0  0  0  0  0
   10.2062   -1.4360    0.0000 C   0  0  0  0  0  0  0  0  0  0  0  0
   11.6297   -1.3653    0.0000 C   0  0  0  0  0  0  0  0  0  0  0  0
    4.9824   -0.6161    0.0000 C   0  0  0  0  0  0  0  0  0  0  0  0
    4.9449    0.8200    0.0000 C   0  0  0  0  0  0  0  0  0  0  0  0
    4.5495    0.0957    0.0000 C   0  0  0  0  0  0  0  0  0  0  0  0
    3.7254    0.0707    0.0000 C   0  0  0  0  0  0  0  0  0  0  0  0
  2  1  1  0  0  0  0
  3  8  1  0  0  0  0
  4  1  1  0  0  0  0
  5  2  1  0  0  0  0
  6  4  1  0  0  0  0
  7  1  1  0  0  0  0
  8 19  1  0  0  0  0
  9  6  1  0  0  0  0
 10  3  2  0  0  0  0
 11  3  2  0  0  0  0
 12 22  1  0  0  0  0
 13  2  2  0  0  0  0
 14  4  2  0  0  0  0
 15 12  1  0  0  0  0
 16  3  1  0  0  0  0
 17 12  2  0  0  0  0
 18 24  1  0  0  0  0
 19 25  2  0  0  0  0
 20  7  1  0  0  0  0
 21  7  2  0  0  0  0
 22  9  1  0  0  0  0
 23 15  1  0  0  0  0
 24 23  2  0  0  0  0
 25 23  1  0  0  0  0
 26 20  2  0  0  0  0
 27 21  1  0  0  0  0
 28 27  2  0  0  0  0
 29 28  1  0  0  0  0
  5  6  1  0  0  0  0
 28 26  1  0  0  0  0
 18  8  2  0  0  0  0
M  END
>  <IDNUMBER>
F1740-0134

>  <Chemical_Name>
2-{[1-(4-methylphenyl)-2,5-dioxopyrrolidin-3-yl]sulfanyl}-N-(4-sulfamoylphenyl)acetamide

>  <PriceCoeff>
1.00

>  <CAS>
831177-22-1

>  <MW>
433.50

>  <Description>
solid

>  <FSP3>
0.21

>  <clogP>
1.21

>  <TPSA>
160.32

>  <Acceptor>
5

>  <Donor>
2

>  <RotBonds>
6

>  <HAC>
29

>  <Collection>
General

>  <PPDS>
+

$$$$
F1740-0135
  Mrv2219 10102508112D          

 29 31  0  0  0  0            999 V2000
    6.7847    0.1374    0.0000 N   0  0  0  0  0  0  0  0  0  0  0  0
    7.0427   -0.6493    0.0000 C   0  0  0  0  0  0  0  0  0  0  0  0
   11.0178   -3.4631    0.0000 S   0  0  0  0  0  0  0  0  0  0  0  0
    7.4548    0.6202    0.0000 C   0  0  0  0  0  0  0  0  0  0  0  0
    7.8669   -0.6493    0.0000 C   0  0  0  0  0  0  0  0  0  0  0  0
    8.1208    0.1374    0.0000 C   0  0  0  0  0  0  0  0  0  0  0  0
    6.1978    0.1332    0.0000 C   0  0  0  0  0  0  0  0  0  0  0  0
   10.9762   -2.6390    0.0000 C   0  0  0  0  0  0  0  0  0  0  0  0
    8.9075    0.3954    0.0000 S   0  0  0  0  0  0  0  0  0  0  0  0
   11.0553   -4.2873    0.0000 O   0  0  0  0  0  0  0  0  0  0  0  0
   11.8420   -3.4257    0.0000 O   0  0  0  0  0  0  0  0  0  0  0  0
   10.3019    0.0957    0.0000 C   0  0  0  0  0  0  0  0  0  0  0  0
    6.5557   -1.3153    0.0000 O   0  0  0  0  0  0  0  0  0  0  0  0
    7.4465    1.4443    0.0000 O   0  0  0  0  0  0  0  0  0  0  0  0
   10.9137   -0.4620    0.0000 N   0  0  0  0  0  0  0  0  0  0  0  0
   10.1937   -3.4964    0.0000 N   0  0  0  0  0  0  0  0  0  0  0  0
   10.4684    0.8949    0.0000 O   0  0  0  0  0  0  0  0  0  0  0  0
   10.2436   -2.2602    0.0000 C   0  0  0  0  0  0  0  0  0  0  0  0
   11.6754   -2.1894    0.0000 C   0  0  0  0  0  0  0  0  0  0  0  0
    5.7982   -0.5911    0.0000 C   0  0  0  0  0  0  0  0  0  0  0  0
    5.7690    0.8366    0.0000 C   0  0  0  0  0  0  0  0  0  0  0  0
    9.5152   -0.1540    0.0000 C   0  0  0  0  0  0  0  0  0  0  0  0
   10.9054   -0.9907    0.0000 C   0  0  0  0  0  0  0  0  0  0  0  0
    4.5495    0.0957    0.0000 C   0  0  0  0  0  0  0  0  0  0  0  0
   10.2062   -1.4360    0.0000 C   0  0  0  0  0  0  0  0  0  0  0  0
   11.6297   -1.3653    0.0000 C   0  0  0  0  0  0  0  0  0  0  0  0
    4.9824   -0.6161    0.0000 C   0  0  0  0  0  0  0  0  0  0  0  0
    4.9449    0.8200    0.0000 C   0  0  0  0  0  0  0  0  0  0  0  0
    3.7254    0.0707    0.0000 Br  0  0  0  0  0  0  0  0  0  0  0  0
  2  1  1  0  0  0  0
  3  8  1  0  0  0  0
  4  1  1  0  0  0  0
  5  2  1  0  0  0  0
  6  4  1  0  0  0  0
  7  1  1  0  0  0  0
  8 19  1  0  0  0  0
  9  6  1  0  0  0  0
 10  3  2  0  0  0  0
 11  3  2  0  0  0  0
 12 22  1  0  0  0  0
 13  2  2  0  0  0  0
 14  4  2  0  0  0  0
 15 12  1  0  0  0  0
 16  3  1  0  0  0  0
 17 12  2  0  0  0  0
 18 25  1  0  0  0  0
 19 26  2  0  0  0  0
 20  7  1  0  0  0  0
 21  7  2  0  0  0  0
 22  9  1  0  0  0  0
 23 15  1  0  0  0  0
 24 28  2  0  0  0  0
 25 23  2  0  0  0  0
 26 23  1  0  0  0  0
 27 20  2  0  0  0  0
 28 21  1  0  0  0  0
 29 24  1  0  0  0  0
  5  6  1  0  0  0  0
 24 27  1  0  0  0  0
 18  8  2  0  0  0  0
M  END
>  <IDNUMBER>
F1740-0135

>  <Chemical_Name>
2-{[1-(4-bromophenyl)-2,5-dioxopyrrolidin-3-yl]sulfanyl}-N-(4-sulfamoylphenyl)acetamide

>  <PriceCoeff>
1.00

>  <CAS>
831208-69-6

>  <MW>
498.37

>  <Description>
solid

>  <FSP3>
0.17

>  <clogP>
1.86

>  <TPSA>
160.32

>  <Acceptor>
5

>  <Donor>
2

>  <RotBonds>
6

>  <HAC>
29

>  <Collection>
General

>  <PPDS>
+

$$$$
F1740-0137
  Mrv2219 10102508112D          

 33 35  0  0  0  0            999 V2000
    6.7847    0.1374    0.0000 N   0  0  0  0  0  0  0  0  0  0  0  0
    7.0427   -0.6493    0.0000 C   0  0  0  0  0  0  0  0  0  0  0  0
   11.0178   -3.4631    0.0000 S   0  0  0  0  0  0  0  0  0  0  0  0
    7.4548    0.6202    0.0000 C   0  0  0  0  0  0  0  0  0  0  0  0
    7.8669   -0.6493    0.0000 C   0  0  0  0  0  0  0  0  0  0  0  0
    8.1208    0.1374    0.0000 C   0  0  0  0  0  0  0  0  0  0  0  0
    6.1978    0.1332    0.0000 C   0  0  0  0  0  0  0  0  0  0  0  0
   10.9762   -2.6390    0.0000 C   0  0  0  0  0  0  0  0  0  0  0  0
    3.7254    0.0707    0.0000 C   0  0  0  0  0  0  0  0  0  0  0  0
    8.9075    0.3954    0.0000 S   0  0  0  0  0  0  0  0  0  0  0  0
   11.0553   -4.2873    0.0000 O   0  0  0  0  0  0  0  0  0  0  0  0
   11.8420   -3.4257    0.0000 O   0  0  0  0  0  0  0  0  0  0  0  0
   10.3019    0.0957    0.0000 C   0  0  0  0  0  0  0  0  0  0  0  0
    6.5557   -1.3153    0.0000 O   0  0  0  0  0  0  0  0  0  0  0  0
    7.4465    1.4443    0.0000 O   0  0  0  0  0  0  0  0  0  0  0  0
    4.5495    0.0957    0.0000 C   0  0  0  0  0  0  0  0  0  0  0  0
   10.9137   -0.4620    0.0000 N   0  0  0  0  0  0  0  0  0  0  0  0
   10.1937   -3.4964    0.0000 N   0  0  0  0  0  0  0  0  0  0  0  0
    3.2883    0.7742    0.0000 O   0  0  0  0  0  0  0  0  0  0  0  0
   10.4684    0.8949    0.0000 O   0  0  0  0  0  0  0  0  0  0  0  0
    5.7982   -0.5911    0.0000 C   0  0  0  0  0  0  0  0  0  0  0  0
    5.7690    0.8366    0.0000 C   0  0  0  0  0  0  0  0  0  0  0  0
    4.9449    0.8200    0.0000 C   0  0  0  0  0  0  0  0  0  0  0  0
    4.9824   -0.6161    0.0000 C   0  0  0  0  0  0  0  0  0  0  0  0
   10.2436   -2.2602    0.0000 C   0  0  0  0  0  0  0  0  0  0  0  0
   11.6754   -2.1894    0.0000 C   0  0  0  0  0  0  0  0  0  0  0  0
    9.5152   -0.1540    0.0000 C   0  0  0  0  0  0  0  0  0  0  0  0
   10.9054   -0.9907    0.0000 C   0  0  0  0  0  0  0  0  0  0  0  0
    3.3258   -0.6535    0.0000 O   0  0  0  0  0  0  0  0  0  0  0  0
   10.2062   -1.4360    0.0000 C   0  0  0  0  0  0  0  0  0  0  0  0
   11.6297   -1.3653    0.0000 C   0  0  0  0  0  0  0  0  0  0  0  0
    2.5016   -0.6743    0.0000 C   0  0  0  0  0  0  0  0  0  0  0  0
    2.1103   -1.3986    0.0000 C   0  0  0  0  0  0  0  0  0  0  0  0
  2  1  1  0  0  0  0
  3  8  1  0  0  0  0
  4  1  1  0  0  0  0
  5  2  1  0  0  0  0
  6  4  1  0  0  0  0
  7  1  1  0  0  0  0
  8 26  1  0  0  0  0
  9 16  1  0  0  0  0
 10  6  1  0  0  0  0
 11  3  2  0  0  0  0
 12  3  2  0  0  0  0
 13 27  1  0  0  0  0
 14  2  2  0  0  0  0
 15  4  2  0  0  0  0
 16 23  2  0  0  0  0
 17 13  1  0  0  0  0
 18  3  1  0  0  0  0
 19  9  2  0  0  0  0
 20 13  2  0  0  0  0
 21  7  1  0  0  0  0
 22  7  2  0  0  0  0
 23 22  1  0  0  0  0
 24 21  2  0  0  0  0
 25 30  1  0  0  0  0
 26 31  2  0  0  0  0
 27 10  1  0  0  0  0
 28 17  1  0  0  0  0
 29  9  1  0  0  0  0
 30 28  2  0  0  0  0
 31 28  1  0  0  0  0
 32 29  1  0  0  0  0
 33 32  1  0  0  0  0
  5  6  1  0  0  0  0
 16 24  1  0  0  0  0
 25  8  2  0  0  0  0
M  END
>  <IDNUMBER>
F1740-0137

>  <Chemical_Name>
ethyl 4-[2,5-dioxo-3-({[(4-sulfamoylphenyl)carbamoyl]methyl}sulfanyl)pyrrolidin-1-yl]benzoate

>  <PriceCoeff>
1.00

>  <CAS>
868154-99-8

>  <MW>
491.54

>  <Description>
solid

>  <FSP3>
0.24

>  <clogP>
1.72

>  <TPSA>
186.62

>  <Acceptor>
7

>  <Donor>
2

>  <RotBonds>
9

>  <HAC>
33

>  <Collection>
General

>  <PPDS>
+

$$$$
F1750-0030
  Mrv2219 10102508112D          

 33 36  0  0  0  0            999 V2000
   -1.7286    3.0897    0.0000 S   0  0  0  0  0  0  0  0  0  0  0  0
    3.9874   -1.0689    0.0000 N   0  0  0  0  0  0  0  0  0  0  0  0
   -2.4509    3.5030    0.0000 N   0  0  0  0  0  0  0  0  0  0  0  0
   -3.1648    3.0897    0.0000 C   0  0  0  0  0  0  0  0  0  0  0  0
    4.7348   -0.7057    0.0000 C   0  0  0  0  0  0  0  0  0  0  0  0
    4.1085   -1.8831    0.0000 C   0  0  0  0  0  0  0  0  0  0  0  0
    1.1273    0.6012    0.0000 C   0  0  0  0  0  0  0  0  0  0  0  0
   -3.1648    2.2505    0.0000 N   0  0  0  0  0  0  0  0  0  0  0  0
   -1.0146    2.6763    0.0000 C   0  0  0  0  0  0  0  0  0  0  0  0
    1.1273    1.4280    0.0000 N   0  0  0  0  0  0  0  0  0  0  0  0
    3.2693   -0.6513    0.0000 C   0  0  0  0  0  0  0  0  0  0  0  0
   -1.3235    3.8079    0.0000 O   0  0  0  0  0  0  0  0  0  0  0  0
   -2.1502    2.3757    0.0000 O   0  0  0  0  0  0  0  0  0  0  0  0
   -3.8788    3.4947    0.0000 N   0  0  0  0  0  0  0  0  0  0  0  0
    1.8413    0.1879    0.0000 C   0  0  0  0  0  0  0  0  0  0  0  0
    5.3110   -1.3069    0.0000 C   0  0  0  0  0  0  0  0  0  0  0  0
    4.9144   -2.0209    0.0000 C   0  0  0  0  0  0  0  0  0  0  0  0
    0.4050    0.1962    0.0000 O   0  0  0  0  0  0  0  0  0  0  0  0
    4.8893    0.1253    0.0000 O   0  0  0  0  0  0  0  0  0  0  0  0
    3.5115   -2.4593    0.0000 O   0  0  0  0  0  0  0  0  0  0  0  0
    3.2735    0.1879    0.0000 C   0  0  0  0  0  0  0  0  0  0  0  0
    2.5553   -1.0439    0.0000 C   0  0  0  0  0  0  0  0  0  0  0  0
    1.8455   -0.6305    0.0000 C   0  0  0  0  0  0  0  0  0  0  0  0
    2.5678    0.6096    0.0000 C   0  0  0  0  0  0  0  0  0  0  0  0
   -1.0229    1.8496    0.0000 C   0  0  0  0  0  0  0  0  0  0  0  0
   -0.3089    3.0897    0.0000 C   0  0  0  0  0  0  0  0  0  0  0  0
    0.4050    1.8496    0.0000 C   0  0  0  0  0  0  0  0  0  0  0  0
   -3.8788    1.8371    0.0000 C   0  0  0  0  0  0  0  0  0  0  0  0
   -4.5928    3.0897    0.0000 C   0  0  0  0  0  0  0  0  0  0  0  0
    0.4050    2.6763    0.0000 C   0  0  0  0  0  0  0  0  0  0  0  0
   -0.3089    1.4363    0.0000 C   0  0  0  0  0  0  0  0  0  0  0  0
   -4.5928    2.2505    0.0000 C   0  0  0  0  0  0  0  0  0  0  0  0
   -3.8788    1.0104    0.0000 C   0  0  0  0  0  0  0  0  0  0  0  0
  2 11  1  0  0  0  0
  3  1  1  0  0  0  0
  4  3  1  0  0  0  0
  5  2  1  0  0  0  0
  6  2  1  0  0  0  0
  7 10  1  0  0  0  0
  8  4  1  0  0  0  0
  9  1  1  0  0  0  0
 10 27  1  0  0  0  0
 11 21  1  0  0  0  0
 12  1  2  0  0  0  0
 13  1  2  0  0  0  0
 14  4  2  0  0  0  0
 15  7  1  0  0  0  0
 16  5  1  0  0  0  0
 17  6  1  0  0  0  0
 18  7  2  0  0  0  0
 19  5  2  0  0  0  0
 20  6  2  0  0  0  0
 21 24  2  0  0  0  0
 22 23  1  0  0  0  0
 23 15  2  0  0  0  0
 24 15  1  0  0  0  0
 25  9  2  0  0  0  0
 26  9  1  0  0  0  0
 27 30  1  0  0  0  0
 28  8  2  0  0  0  0
 29 14  1  0  0  0  0
 30 26  2  0  0  0  0
 31 25  1  0  0  0  0
 32 29  2  0  0  0  0
 33 28  1  0  0  0  0
 27 31  2  0  0  0  0
 28 32  1  0  0  0  0
 11 22  2  0  0  0  0
 17 16  1  0  0  0  0
M  END
>  <IDNUMBER>
F1750-0030

>  <Chemical_Name>
4-(2,5-dioxopyrrolidin-1-yl)-N-{4-[(4-methylpyrimidin-2-yl)sulfamoyl]phenyl}benzamide

>  <PriceCoeff>
1.00

>  <CAS>
448240-56-0

>  <MW>
465.48

>  <Description>
solid

>  <FSP3>
0.14

>  <clogP>
0.45

>  <TPSA>
146.81

>  <Acceptor>
7

>  <Donor>
2

>  <RotBonds>
6

>  <HAC>
33

>  <Collection>
General

>  <PPDS>
+

$$$$
F1750-0116
  Mrv2219 10102508112D          

 34 37  0  0  0  0            999 V2000
   -1.0104    3.0897    0.0000 S   0  0  0  0  0  0  0  0  0  0  0  0
    4.7014   -1.0772    0.0000 N   0  0  0  0  0  0  0  0  0  0  0  0
   -1.7286    3.5030    0.0000 N   0  0  0  0  0  0  0  0  0  0  0  0
   -2.4426    3.0897    0.0000 C   0  0  0  0  0  0  0  0  0  0  0  0
    5.4488   -0.7140    0.0000 C   0  0  0  0  0  0  0  0  0  0  0  0
    4.8142   -1.8831    0.0000 C   0  0  0  0  0  0  0  0  0  0  0  0
    1.8455    0.6012    0.0000 C   0  0  0  0  0  0  0  0  0  0  0  0
   -3.1648    3.4947    0.0000 N   0  0  0  0  0  0  0  0  0  0  0  0
   -2.4426    2.2505    0.0000 N   0  0  0  0  0  0  0  0  0  0  0  0
   -0.2964    2.6763    0.0000 C   0  0  0  0  0  0  0  0  0  0  0  0
    1.8455    1.4280    0.0000 N   0  0  0  0  0  0  0  0  0  0  0  0
    3.9874   -0.6556    0.0000 C   0  0  0  0  0  0  0  0  0  0  0  0
   -0.6096    3.8079    0.0000 O   0  0  0  0  0  0  0  0  0  0  0  0
   -1.4363    2.3757    0.0000 O   0  0  0  0  0  0  0  0  0  0  0  0
    2.5595    0.1879    0.0000 C   0  0  0  0  0  0  0  0  0  0  0  0
   -3.8788    3.0897    0.0000 C   0  0  0  0  0  0  0  0  0  0  0  0
   -3.1648    1.8371    0.0000 C   0  0  0  0  0  0  0  0  0  0  0  0
    6.0250   -1.3152    0.0000 C   0  0  0  0  0  0  0  0  0  0  0  0
    5.6283   -2.0334    0.0000 C   0  0  0  0  0  0  0  0  0  0  0  0
    1.1273    0.1962    0.0000 O   0  0  0  0  0  0  0  0  0  0  0  0
   -3.8788    2.2505    0.0000 C   0  0  0  0  0  0  0  0  0  0  0  0
    5.6033    0.1211    0.0000 O   0  0  0  0  0  0  0  0  0  0  0  0
    4.2212   -2.4593    0.0000 O   0  0  0  0  0  0  0  0  0  0  0  0
    3.9958    0.1837    0.0000 C   0  0  0  0  0  0  0  0  0  0  0  0
    3.2693   -1.0439    0.0000 C   0  0  0  0  0  0  0  0  0  0  0  0
    2.5595   -0.6305    0.0000 C   0  0  0  0  0  0  0  0  0  0  0  0
    3.2860    0.6012    0.0000 C   0  0  0  0  0  0  0  0  0  0  0  0
    0.4134    3.0897    0.0000 C   0  0  0  0  0  0  0  0  0  0  0  0
   -0.3089    1.8496    0.0000 C   0  0  0  0  0  0  0  0  0  0  0  0
    1.1273    1.8496    0.0000 C   0  0  0  0  0  0  0  0  0  0  0  0
    0.4050    1.4363    0.0000 C   0  0  0  0  0  0  0  0  0  0  0  0
    1.1273    2.6763    0.0000 C   0  0  0  0  0  0  0  0  0  0  0  0
   -4.5928    3.4947    0.0000 C   0  0  0  0  0  0  0  0  0  0  0  0
   -3.1648    1.0104    0.0000 C   0  0  0  0  0  0  0  0  0  0  0  0
  2 12  1  0  0  0  0
  3  1  1  0  0  0  0
  4  3  1  0  0  0  0
  5  2  1  0  0  0  0
  6  2  1  0  0  0  0
  7 11  1  0  0  0  0
  8  4  2  0  0  0  0
  9  4  1  0  0  0  0
 10  1  1  0  0  0  0
 11 30  1  0  0  0  0
 12 24  1  0  0  0  0
 13  1  2  0  0  0  0
 14  1  2  0  0  0  0
 15  7  1  0  0  0  0
 16  8  1  0  0  0  0
 17  9  2  0  0  0  0
 18  5  1  0  0  0  0
 19  6  1  0  0  0  0
 20  7  2  0  0  0  0
 21 17  1  0  0  0  0
 22  5  2  0  0  0  0
 23  6  2  0  0  0  0
 24 27  2  0  0  0  0
 25 26  1  0  0  0  0
 26 15  2  0  0  0  0
 27 15  1  0  0  0  0
 28 10  1  0  0  0  0
 29 10  2  0  0  0  0
 30 31  2  0  0  0  0
 31 29  1  0  0  0  0
 32 28  2  0  0  0  0
 33 16  1  0  0  0  0
 34 17  1  0  0  0  0
 30 32  1  0  0  0  0
 21 16  2  0  0  0  0
 12 25  2  0  0  0  0
 19 18  1  0  0  0  0
M  END
>  <IDNUMBER>
F1750-0116

>  <Chemical_Name>
N-{4-[(4,6-dimethylpyrimidin-2-yl)sulfamoyl]phenyl}-4-(2,5-dioxopyrrolidin-1-yl)benzamide

>  <PriceCoeff>
1.00

>  <CAS>
314246-38-3

>  <MW>
479.51

>  <Description>
solid

>  <FSP3>
0.17

>  <clogP>
0.95

>  <TPSA>
146.81

>  <Acceptor>
7

>  <Donor>
2

>  <RotBonds>
6

>  <HAC>
34

>  <Collection>
General

>  <PPDS>
+

$$$$
F1750-0122
  Mrv2219 10102508112D          

 34 37  0  0  0  0            999 V2000
   -1.0083    3.0833    0.0000 S   0  0  0  0  0  0  0  0  0  0  0  0
    3.2625   -1.8792    0.0000 N   0  0  0  0  0  0  0  0  0  0  0  0
   -1.7250    3.4958    0.0000 N   0  0  0  0  0  0  0  0  0  0  0  0
   -2.4375    3.0833    0.0000 C   0  0  0  0  0  0  0  0  0  0  0  0
    3.2667   -1.0500    0.0000 C   0  0  0  0  0  0  0  0  0  0  0  0
    3.9042   -2.3917    0.0000 C   0  0  0  0  0  0  0  0  0  0  0  0
    2.5625   -2.3292    0.0000 C   0  0  0  0  0  0  0  0  0  0  0  0
    1.8417    0.6000    0.0000 C   0  0  0  0  0  0  0  0  0  0  0  0
   -2.4375    2.2458    0.0000 N   0  0  0  0  0  0  0  0  0  0  0  0
   -3.1583    3.4875    0.0000 N   0  0  0  0  0  0  0  0  0  0  0  0
   -0.2958    2.6708    0.0000 C   0  0  0  0  0  0  0  0  0  0  0  0
    1.8417    1.4250    0.0000 N   0  0  0  0  0  0  0  0  0  0  0  0
    2.5542   -0.6292    0.0000 C   0  0  0  0  0  0  0  0  0  0  0  0
    2.5542    0.1875    0.0000 C   0  0  0  0  0  0  0  0  0  0  0  0
   -0.6083    3.8000    0.0000 O   0  0  0  0  0  0  0  0  0  0  0  0
   -1.4333    2.3708    0.0000 O   0  0  0  0  0  0  0  0  0  0  0  0
   -3.1583    1.8333    0.0000 C   0  0  0  0  0  0  0  0  0  0  0  0
   -3.8708    3.0833    0.0000 C   0  0  0  0  0  0  0  0  0  0  0  0
    1.1250    0.1958    0.0000 O   0  0  0  0  0  0  0  0  0  0  0  0
    3.6167   -3.1667    0.0000 C   0  0  0  0  0  0  0  0  0  0  0  0
    2.7917   -3.1417    0.0000 C   0  0  0  0  0  0  0  0  0  0  0  0
   -3.8708    2.2458    0.0000 C   0  0  0  0  0  0  0  0  0  0  0  0
    4.7000   -2.1917    0.0000 O   0  0  0  0  0  0  0  0  0  0  0  0
    1.7917   -2.0417    0.0000 O   0  0  0  0  0  0  0  0  0  0  0  0
   -0.3083    1.8458    0.0000 C   0  0  0  0  0  0  0  0  0  0  0  0
    0.4125    3.0833    0.0000 C   0  0  0  0  0  0  0  0  0  0  0  0
    1.1250    1.8458    0.0000 C   0  0  0  0  0  0  0  0  0  0  0  0
    1.1250    2.6708    0.0000 C   0  0  0  0  0  0  0  0  0  0  0  0
    0.4042    1.4333    0.0000 C   0  0  0  0  0  0  0  0  0  0  0  0
    3.9792   -0.6500    0.0000 C   0  0  0  0  0  0  0  0  0  0  0  0
    3.2750    0.6000    0.0000 C   0  0  0  0  0  0  0  0  0  0  0  0
    3.9875    0.1833    0.0000 C   0  0  0  0  0  0  0  0  0  0  0  0
   -4.5833    3.4875    0.0000 C   0  0  0  0  0  0  0  0  0  0  0  0
   -3.1583    1.0083    0.0000 C   0  0  0  0  0  0  0  0  0  0  0  0
  2  5  1  0  0  0  0
  3  1  1  0  0  0  0
  4  3  1  0  0  0  0
  5 13  1  0  0  0  0
  6  2  1  0  0  0  0
  7  2  1  0  0  0  0
  8 12  1  0  0  0  0
  9  4  1  0  0  0  0
 10  4  2  0  0  0  0
 11  1  1  0  0  0  0
 12 27  1  0  0  0  0
 13 14  2  0  0  0  0
 14  8  1  0  0  0  0
 15  1  2  0  0  0  0
 16  1  2  0  0  0  0
 17  9  2  0  0  0  0
 18 10  1  0  0  0  0
 19  8  2  0  0  0  0
 20  6  1  0  0  0  0
 21  7  1  0  0  0  0
 22 18  2  0  0  0  0
 23  6  2  0  0  0  0
 24  7  2  0  0  0  0
 25 11  2  0  0  0  0
 26 11  1  0  0  0  0
 27 28  1  0  0  0  0
 28 26  2  0  0  0  0
 29 25  1  0  0  0  0
 30 32  1  0  0  0  0
 31 14  1  0  0  0  0
 32 31  2  0  0  0  0
 33 18  1  0  0  0  0
 34 17  1  0  0  0  0
 27 29  2  0  0  0  0
 22 17  1  0  0  0  0
  5 30  2  0  0  0  0
 21 20  1  0  0  0  0
M  END
>  <IDNUMBER>
F1750-0122

>  <Chemical_Name>
N-{4-[(4,6-dimethylpyrimidin-2-yl)sulfamoyl]phenyl}-3-(2,5-dioxopyrrolidin-1-yl)benzamide

>  <PriceCoeff>
1.00

>  <CAS>
457651-00-2

>  <MW>
479.51

>  <Description>
solid

>  <FSP3>
0.17

>  <clogP>
0.95

>  <TPSA>
146.81

>  <Acceptor>
7

>  <Donor>
2

>  <RotBonds>
6

>  <HAC>
34

>  <Collection>
General

>  <PPDS>
+

$$$$
F1751-0007
  Mrv2219 10102508112D          

 26 30  0  0  0  0            999 V2000
    2.4713   -0.2164    0.0000 N   0  0  0  0  0  0  0  0  0  0  0  0
    3.1370    0.2704    0.0000 C   0  0  0  0  0  0  0  0  0  0  0  0
    2.7209   -1.0027    0.0000 C   0  0  0  0  0  0  0  0  0  0  0  0
    3.5489   -1.0027    0.0000 C   0  0  0  0  0  0  0  0  0  0  0  0
    3.8110   -0.2164    0.0000 C   0  0  0  0  0  0  0  0  0  0  0  0
    4.8719   -1.6393    0.0000 C   0  0  0  0  0  0  0  0  0  0  0  0
    4.0357   -1.6725    0.0000 N   0  0  0  0  0  0  0  0  0  0  0  0
    1.6850    0.0374    0.0000 C   0  0  0  0  0  0  0  0  0  0  0  0
    3.1370    1.0984    0.0000 O   0  0  0  0  0  0  0  0  0  0  0  0
    6.2407   -1.6393    0.0000 C   0  0  0  0  0  0  0  0  0  0  0  0
    5.5542   -0.4535    0.0000 C   0  0  0  0  0  0  0  0  0  0  0  0
    5.1590   -2.1760    0.0000 C   0  0  0  0  0  0  0  0  0  0  0  0
    2.2342   -1.6725    0.0000 O   0  0  0  0  0  0  0  0  0  0  0  0
    5.5542   -2.0345    0.0000 C   0  0  0  0  0  0  0  0  0  0  0  0
    4.8719   -0.8487    0.0000 C   0  0  0  0  0  0  0  0  0  0  0  0
    4.4184   -2.3507    0.0000 C   0  0  0  0  0  0  0  0  0  0  0  0
    5.1590   -1.1275    0.0000 C   0  0  0  0  0  0  0  0  0  0  0  0
    6.2407   -0.8487    0.0000 C   0  0  0  0  0  0  0  0  0  0  0  0
    5.7207   -2.5254    0.0000 C   0  0  0  0  0  0  0  0  0  0  0  0
    1.0734   -0.5159    0.0000 C   0  0  0  0  0  0  0  0  0  0  0  0
    1.5144    0.8445    0.0000 C   0  0  0  0  0  0  0  0  0  0  0  0
    0.1123    0.5492    0.0000 C   0  0  0  0  0  0  0  0  0  0  0  0
    0.7281    1.0984    0.0000 C   0  0  0  0  0  0  0  0  0  0  0  0
    0.2871   -0.2663    0.0000 C   0  0  0  0  0  0  0  0  0  0  0  0
   -0.6823    0.7988    0.0000 O   0  0  0  0  0  0  0  0  0  0  0  0
   -1.2939    0.2454    0.0000 C   0  0  0  0  0  0  0  0  0  0  0  0
  2  1  1  0  0  0  0
  3  1  1  0  0  0  0
  4  3  1  0  0  0  0
  5  2  1  0  0  0  0
  6  7  1  0  0  0  0
  7  4  1  0  0  0  0
  8  1  1  0  0  0  0
  9  2  2  0  0  0  0
 10 14  1  0  0  0  0
 11 15  1  0  0  0  0
 12 16  1  0  0  0  0
 13  3  2  0  0  0  0
 14  6  1  0  0  0  0
 15  6  1  0  0  0  0
 16  6  1  0  0  0  0
 17 12  1  0  0  0  0
 18 11  1  0  0  0  0
 19 12  1  0  0  0  0
 20  8  1  0  0  0  0
 21  8  2  0  0  0  0
 22 23  2  0  0  0  0
 23 21  1  0  0  0  0
 24 20  2  0  0  0  0
 25 22  1  0  0  0  0
 26 25  1  0  0  0  0
  4  5  1  0  0  0  0
 24 22  1  0  0  0  0
 10 19  1  0  0  0  0
 11 17  1  0  0  0  0
 10 18  1  0  0  0  0
M  END
>  <IDNUMBER>
F1751-0007

>  <Chemical_Name>
3-[(adamantan-1-yl)amino]-1-(4-methoxyphenyl)pyrrolidine-2,5-dione

>  <PriceCoeff>
1.50

>  <CAS>
1008985-19-0

>  <MW>
354.44

>  <Description>
solid

>  <FSP3>
0.62

>  <clogP>
3.69

>  <TPSA>
58.64

>  <Acceptor>
3

>  <Donor>
1

>  <RotBonds>
4

>  <HAC>
26

>  <Collection>
Advanced

>  <PPDS>
+

$$$$
F1751-0008
  Mrv2219 10102508112D          

 27 30  0  0  0  0            999 V2000
    1.5318    0.0384    0.0000 N   0  0  0  0  0  0  0  0  0  0  0  0
    2.2328    0.5426    0.0000 C   0  0  0  0  0  0  0  0  0  0  0  0
    1.8006   -0.7923    0.0000 C   0  0  0  0  0  0  0  0  0  0  0  0
    0.7491    0.2833    0.0000 C   0  0  0  0  0  0  0  0  0  0  0  0
    2.6649   -0.7923    0.0000 C   0  0  0  0  0  0  0  0  0  0  0  0
    2.9291    0.0384    0.0000 C   0  0  0  0  0  0  0  0  0  0  0  0
    3.9470   -1.2437    0.0000 C   0  0  0  0  0  0  0  0  0  0  0  0
    4.5280   -1.8199    0.0000 C   0  0  0  0  0  0  0  0  0  0  0  0
    3.1452   -1.4598    0.0000 S   0  0  0  0  0  0  0  0  0  0  0  0
    4.3120   -2.6266    0.0000 C   0  0  0  0  0  0  0  0  0  0  0  0
    0.5762    1.0948    0.0000 C   0  0  0  0  0  0  0  0  0  0  0  0
    4.1535   -0.4466    0.0000 N   0  0  0  0  0  0  0  0  0  0  0  0
    2.2232    1.3636    0.0000 O   0  0  0  0  0  0  0  0  0  0  0  0
    1.3109   -1.4598    0.0000 O   0  0  0  0  0  0  0  0  0  0  0  0
    4.9026   -3.2028    0.0000 O   0  0  0  0  0  0  0  0  0  0  0  0
   -0.2112    1.3492    0.0000 C   0  0  0  0  0  0  0  0  0  0  0  0
    3.5197   -2.8426    0.0000 O   0  0  0  0  0  0  0  0  0  0  0  0
    0.1345   -0.2641    0.0000 C   0  0  0  0  0  0  0  0  0  0  0  0
    5.3203   -1.6038    0.0000 C   0  0  0  0  0  0  0  0  0  0  0  0
    1.1861    1.6422    0.0000 C   0  0  0  0  0  0  0  0  0  0  0  0
   -0.6482   -0.0144    0.0000 C   0  0  0  0  0  0  0  0  0  0  0  0
    4.9458   -0.2209    0.0000 C   0  0  0  0  0  0  0  0  0  0  0  0
   -0.8211    0.8018    0.0000 C   0  0  0  0  0  0  0  0  0  0  0  0
   -0.3841    2.1559    0.0000 C   0  0  0  0  0  0  0  0  0  0  0  0
    5.5364   -0.8115    0.0000 C   0  0  0  0  0  0  0  0  0  0  0  0
    1.0132    2.4489    0.0000 C   0  0  0  0  0  0  0  0  0  0  0  0
    0.2209    2.7033    0.0000 C   0  0  0  0  0  0  0  0  0  0  0  0
  2  1  1  0  0  0  0
  3  1  1  0  0  0  0
  4  1  1  0  0  0  0
  5  3  1  0  0  0  0
  6  2  1  0  0  0  0
  7  9  1  0  0  0  0
  8  7  2  0  0  0  0
  9  5  1  0  0  0  0
 10  8  1  0  0  0  0
 11  4  2  0  0  0  0
 12  7  1  0  0  0  0
 13  2  2  0  0  0  0
 14  3  2  0  0  0  0
 15 10  2  0  0  0  0
 16 11  1  0  0  0  0
 17 10  1  0  0  0  0
 18  4  1  0  0  0  0
 19  8  1  0  0  0  0
 20 11  1  0  0  0  0
 21 18  2  0  0  0  0
 22 12  2  0  0  0  0
 23 21  1  0  0  0  0
 24 16  1  0  0  0  0
 25 22  1  0  0  0  0
 26 20  2  0  0  0  0
 27 26  1  0  0  0  0
  5  6  1  0  0  0  0
 16 23  2  0  0  0  0
 27 24  2  0  0  0  0
 19 25  2  0  0  0  0
M  END
>  <IDNUMBER>
F1751-0008

>  <Chemical_Name>
2-{[1-(naphthalen-1-yl)-2,5-dioxopyrrolidin-3-yl]sulfanyl}pyridine-3-carboxylic acid

>  <PriceCoeff>
1.00

>  <CAS>
745027-88-7

>  <MW>
378.40

>  <Description>
solid

>  <FSP3>
0.10

>  <clogP>
2.68

>  <TPSA>
112.87

>  <Acceptor>
5

>  <Donor>
1

>  <RotBonds>
4

>  <HAC>
27

>  <Collection>
General

>  <PPDS>
+

$$$$
F1751-0009
  Mrv2219 10102508112D          

 23 25  0  0  0  0            999 V2000
    2.2970    0.3946    0.0000 N   0  0  0  0  0  0  0  0  0  0  0  0
    2.9657    0.8805    0.0000 C   0  0  0  0  0  0  0  0  0  0  0  0
    2.5463   -0.3905    0.0000 C   0  0  0  0  0  0  0  0  0  0  0  0
    3.3769   -0.3905    0.0000 C   0  0  0  0  0  0  0  0  0  0  0  0
    3.6386    0.3946    0.0000 C   0  0  0  0  0  0  0  0  0  0  0  0
    3.8670   -1.0592    0.0000 N   0  0  0  0  0  0  0  0  0  0  0  0
    1.5120    0.6479    0.0000 C   0  0  0  0  0  0  0  0  0  0  0  0
    2.9657    1.7154    0.0000 O   0  0  0  0  0  0  0  0  0  0  0  0
    2.0602   -1.0592    0.0000 O   0  0  0  0  0  0  0  0  0  0  0  0
    4.6978   -1.0260    0.0000 N   0  0  0  0  0  0  0  0  0  0  0  0
    1.3375    1.4580    0.0000 C   0  0  0  0  0  0  0  0  0  0  0  0
    0.9014    0.0955    0.0000 C   0  0  0  0  0  0  0  0  0  0  0  0
   -0.0581    1.1589    0.0000 C   0  0  0  0  0  0  0  0  0  0  0  0
    5.1381   -1.7196    0.0000 C   0  0  0  0  0  0  0  0  0  0  0  0
    0.5607    1.7154    0.0000 C   0  0  0  0  0  0  0  0  0  0  0  0
    0.1163    0.3489    0.0000 C   0  0  0  0  0  0  0  0  0  0  0  0
   -0.8473    1.4081    0.0000 O   0  0  0  0  0  0  0  0  0  0  0  0
    4.7518   -2.4466    0.0000 C   0  0  0  0  0  0  0  0  0  0  0  0
    5.9564   -1.6822    0.0000 C   0  0  0  0  0  0  0  0  0  0  0  0
   -1.4580    0.8598    0.0000 C   0  0  0  0  0  0  0  0  0  0  0  0
    6.3966   -2.3676    0.0000 C   0  0  0  0  0  0  0  0  0  0  0  0
    5.1879   -3.1401    0.0000 C   0  0  0  0  0  0  0  0  0  0  0  0
    6.0103   -3.1069    0.0000 C   0  0  0  0  0  0  0  0  0  0  0  0
  2  1  1  0  0  0  0
  3  1  1  0  0  0  0
  4  3  1  0  0  0  0
  5  2  1  0  0  0  0
  6  4  1  0  0  0  0
  7  1  1  0  0  0  0
  8  2  2  0  0  0  0
  9  3  2  0  0  0  0
 10  6  1  0  0  0  0
 11  7  2  0  0  0  0
 12  7  1  0  0  0  0
 13 16  1  0  0  0  0
 14 10  1  0  0  0  0
 15 11  1  0  0  0  0
 16 12  2  0  0  0  0
 17 13  1  0  0  0  0
 18 14  2  0  0  0  0
 19 14  1  0  0  0  0
 20 17  1  0  0  0  0
 21 19  2  0  0  0  0
 22 18  1  0  0  0  0
 23 21  1  0  0  0  0
  4  5  1  0  0  0  0
 15 13  2  0  0  0  0
 22 23  2  0  0  0  0
M  END
>  <IDNUMBER>
F1751-0009

>  <Chemical_Name>
1-(4-methoxyphenyl)-3-(2-phenylhydrazin-1-yl)pyrrolidine-2,5-dione

>  <PriceCoeff>
1.00

>  <MW>
311.34

>  <Description>
solid

>  <FSP3>
0.18

>  <clogP>
2.14

>  <TPSA>
70.67

>  <Acceptor>
4

>  <Donor>
2

>  <RotBonds>
5

>  <HAC>
23

>  <Collection>
General

$$$$
F1751-0027
  Mrv2219 10102508112D          

 28 31  0  0  0  0            999 V2000
    2.0607    0.2738    0.0000 N   0  0  0  0  0  0  0  0  0  0  0  0
    2.8149    0.6148    0.0000 C   0  0  0  0  0  0  0  0  0  0  0  0
    2.1472   -0.5476    0.0000 C   0  0  0  0  0  0  0  0  0  0  0  0
    2.9542   -0.7110    0.0000 C   0  0  0  0  0  0  0  0  0  0  0  0
    1.3450    0.6869    0.0000 C   0  0  0  0  0  0  0  0  0  0  0  0
    5.4665   -4.5682    0.0000 N   0  3  0  0  0  0  0  0  0  0  0  0
    3.3625    0.0000    0.0000 C   0  0  0  0  0  0  0  0  0  0  0  0
    0.6245    0.2738    0.0000 C   0  0  0  0  0  0  0  0  0  0  0  0
    3.2905   -1.4699    0.0000 N   0  0  0  0  0  0  0  0  0  0  0  0
    5.1302   -3.8093    0.0000 C   0  0  0  0  0  0  0  0  0  0  0  0
    4.9861   -5.2359    0.0000 O   0  5  0  0  0  0  0  0  0  0  0  0
    2.9830    1.4218    0.0000 O   0  0  0  0  0  0  0  0  0  0  0  0
    6.2879   -4.6451    0.0000 O   0  0  0  0  0  0  0  0  0  0  0  0
    1.5324   -1.1001    0.0000 O   0  0  0  0  0  0  0  0  0  0  0  0
    4.1119   -1.5468    0.0000 N   0  0  0  0  0  0  0  0  0  0  0  0
    4.3088   -3.7228    0.0000 C   0  0  0  0  0  0  0  0  0  0  0  0
    5.6106   -3.1320    0.0000 C   0  0  0  0  0  0  0  0  0  0  0  0
   -0.0865    0.6917    0.0000 C   0  0  0  0  0  0  0  0  0  0  0  0
    4.4529   -2.3057    0.0000 C   0  0  0  0  0  0  0  0  0  0  0  0
    1.3450    1.5227    0.0000 C   0  0  0  0  0  0  0  0  0  0  0  0
    5.2743   -2.3826    0.0000 C   0  0  0  0  0  0  0  0  0  0  0  0
    3.9678   -2.9734    0.0000 C   0  0  0  0  0  0  0  0  0  0  0  0
    0.6245   -0.5524    0.0000 C   0  0  0  0  0  0  0  0  0  0  0  0
    0.6245    1.9310    0.0000 C   0  0  0  0  0  0  0  0  0  0  0  0
   -0.0865    1.5131    0.0000 C   0  0  0  0  0  0  0  0  0  0  0  0
   -0.8022    0.2834    0.0000 C   0  0  0  0  0  0  0  0  0  0  0  0
   -0.0816   -0.9655    0.0000 C   0  0  0  0  0  0  0  0  0  0  0  0
   -0.8022   -0.5524    0.0000 C   0  0  0  0  0  0  0  0  0  0  0  0
  2  1  1  0  0  0  0
  3  1  1  0  0  0  0
  4  3  1  0  0  0  0
  5  1  1  0  0  0  0
  6 10  1  0  0  0  0
  7  2  1  0  0  0  0
  8  5  2  0  0  0  0
  9  4  1  0  0  0  0
 10 16  2  0  0  0  0
 11  6  1  0  0  0  0
 12  2  2  0  0  0  0
 13  6  2  0  0  0  0
 14  3  2  0  0  0  0
 15  9  1  0  0  0  0
 16 22  1  0  0  0  0
 17 21  2  0  0  0  0
 18  8  1  0  0  0  0
 19 15  1  0  0  0  0
 20  5  1  0  0  0  0
 21 19  1  0  0  0  0
 22 19  2  0  0  0  0
 23  8  1  0  0  0  0
 24 20  2  0  0  0  0
 25 24  1  0  0  0  0
 26 18  1  0  0  0  0
 27 23  2  0  0  0  0
 28 27  1  0  0  0  0
  4  7  1  0  0  0  0
 18 25  2  0  0  0  0
 26 28  2  0  0  0  0
 17 10  1  0  0  0  0
M  CHG  2   6   1  11  -1
M  END
>  <IDNUMBER>
F1751-0027

>  <Chemical_Name>
1-(naphthalen-1-yl)-3-[2-(4-nitrophenyl)hydrazin-1-yl]pyrrolidine-2,5-dione

>  <PriceCoeff>
1.00

>  <CAS>
956607-02-6

>  <MW>
376.37

>  <Description>
solid

>  <FSP3>
0.10

>  <clogP>
3.62

>  <TPSA>
104.58

>  <Acceptor>
5

>  <Donor>
2

>  <RotBonds>
5

>  <HAC>
28

>  <Collection>
General

>  <PPDS>
+

$$$$
F1751-0035
  Mrv2219 10102508112D          

 29 32  0  0  0  0            999 V2000
    2.7257    0.8589    0.0000 C   0  0  0  0  0  0  0  0  0  0  0  0
    0.1920   -0.0576    0.0000 N   0  0  0  0  0  0  0  0  0  0  0  0
    3.5415    0.9597    0.0000 N   0  0  0  0  0  0  0  0  0  0  0  0
    0.2784    0.7726    0.0000 C   0  0  0  0  0  0  0  0  0  0  0  0
    0.9502   -0.3887    0.0000 C   0  0  0  0  0  0  0  0  0  0  0  0
    2.3802    1.6076    0.0000 C   0  0  0  0  0  0  0  0  0  0  0  0
    2.3083    0.1440    0.0000 C   0  0  0  0  0  0  0  0  0  0  0  0
    1.4972    0.2255    0.0000 C   0  0  0  0  0  0  0  0  0  0  0  0
    3.7047    1.7659    0.0000 C   0  0  0  0  0  0  0  0  0  0  0  0
    2.9849    2.1690    0.0000 C   0  0  0  0  0  0  0  0  0  0  0  0
    1.0846    0.9453    0.0000 C   0  0  0  0  0  0  0  0  0  0  0  0
   -0.5183   -0.4655    0.0000 C   0  0  0  0  0  0  0  0  0  0  0  0
   -0.3407    1.3196    0.0000 O   0  0  0  0  0  0  0  0  0  0  0  0
    1.1229   -1.1949    0.0000 O   0  0  0  0  0  0  0  0  0  0  0  0
   -1.2332   -0.0576    0.0000 C   0  0  0  0  0  0  0  0  0  0  0  0
   -0.5183   -1.3005    0.0000 C   0  0  0  0  0  0  0  0  0  0  0  0
    4.0934    0.3551    0.0000 C   0  0  0  0  0  0  0  0  0  0  0  0
    2.1643    2.4137    0.0000 C   0  0  0  0  0  0  0  0  0  0  0  0
    1.5740    1.8235    0.0000 C   0  0  0  0  0  0  0  0  0  0  0  0
   -1.9531   -1.3005    0.0000 C   0  0  0  0  0  0  0  0  0  0  0  0
   -1.2332   -1.7132    0.0000 C   0  0  0  0  0  0  0  0  0  0  0  0
   -1.9531   -0.4751    0.0000 C   0  0  0  0  0  0  0  0  0  0  0  0
    4.4101    2.1834    0.0000 C   0  0  0  0  0  0  0  0  0  0  0  0
    2.9705    2.9896    0.0000 C   0  0  0  0  0  0  0  0  0  0  0  0
   -2.6633   -1.7180    0.0000 O   0  0  0  0  0  0  0  0  0  0  0  0
   -2.6633   -2.5386    0.0000 C   0  0  0  0  0  0  0  0  0  0  0  0
    4.4053    3.0040    0.0000 C   0  0  0  0  0  0  0  0  0  0  0  0
    3.6759    3.4071    0.0000 C   0  0  0  0  0  0  0  0  0  0  0  0
   -1.9531   -2.9561    0.0000 C   0  0  0  0  0  0  0  0  0  0  0  0
  2  5  1  0  0  0  0
  3  1  1  0  0  0  0
  4 11  1  0  0  0  0
  5  8  1  0  0  0  0
  6  1  1  0  0  0  0
  7  1  2  0  0  0  0
  8  7  1  0  0  0  0
  9  3  1  0  0  0  0
 10  6  1  0  0  0  0
 11  8  1  0  0  0  0
 12  2  1  0  0  0  0
 13  4  2  0  0  0  0
 14  5  2  0  0  0  0
 15 12  2  0  0  0  0
 16 12  1  0  0  0  0
 17  3  1  0  0  0  0
 18  6  1  0  0  0  0
 19  6  1  0  0  0  0
 20 21  1  0  0  0  0
 21 16  2  0  0  0  0
 22 15  1  0  0  0  0
 23  9  1  0  0  0  0
 24 10  1  0  0  0  0
 25 20  1  0  0  0  0
 26 25  1  0  0  0  0
 27 23  2  0  0  0  0
 28 24  2  0  0  0  0
 29 26  1  0  0  0  0
 10  9  2  0  0  0  0
  4  2  1  0  0  0  0
 27 28  1  0  0  0  0
 22 20  2  0  0  0  0
M  END
>  <IDNUMBER>
F1751-0035

>  <Chemical_Name>
1-(4-ethoxyphenyl)-3-{[(2E)-1,3,3-trimethyl-2,3-dihydro-1H-indol-2-ylidene]methyl}pyrrolidine-2,5-dione

>  <PriceCoeff>
1.00

>  <MW>
390.48

>  <Description>
solid

>  <FSP3>
0.33

>  <clogP>
4.34

>  <TPSA>
43.07

>  <Acceptor>
4

>  <Donor>
1

>  <RotBonds>
4

>  <HAC>
29

>  <Collection>
General

$$$$
F1751-0037
  Mrv2219 10102508112D          

 29 32  0  0  0  0            999 V2000
    4.6884   -0.1904    0.0000 C   0  0  0  0  0  0  0  0  0  0  0  0
    2.1610   -1.1043    0.0000 N   0  0  0  0  0  0  0  0  0  0  0  0
    5.5024   -0.0905    0.0000 N   0  0  0  0  0  0  0  0  0  0  0  0
    2.2467   -0.2761    0.0000 C   0  0  0  0  0  0  0  0  0  0  0  0
    2.9178   -1.4327    0.0000 C   0  0  0  0  0  0  0  0  0  0  0  0
    4.3457    0.5569    0.0000 C   0  0  0  0  0  0  0  0  0  0  0  0
    4.2886   -0.9044    0.0000 C   0  0  0  0  0  0  0  0  0  0  0  0
    3.4699   -0.8187    0.0000 C   0  0  0  0  0  0  0  0  0  0  0  0
   -0.6806   -2.7559    0.0000 N   0  3  0  0  0  0  0  0  0  0  0  0
    5.6689    0.7092    0.0000 C   0  0  0  0  0  0  0  0  0  0  0  0
    4.9550    1.1138    0.0000 C   0  0  0  0  0  0  0  0  0  0  0  0
    3.0558   -0.1048    0.0000 C   0  0  0  0  0  0  0  0  0  0  0  0
    1.4565   -1.5184    0.0000 C   0  0  0  0  0  0  0  0  0  0  0  0
    0.0334   -2.3466    0.0000 C   0  0  0  0  0  0  0  0  0  0  0  0
   -1.3946   -2.3466    0.0000 O   0  5  0  0  0  0  0  0  0  0  0  0
    1.6327    0.2665    0.0000 O   0  0  0  0  0  0  0  0  0  0  0  0
   -0.6806   -3.5747    0.0000 O   0  0  0  0  0  0  0  0  0  0  0  0
    3.0892   -2.2419    0.0000 O   0  0  0  0  0  0  0  0  0  0  0  0
    1.4565   -2.3466    0.0000 C   0  0  0  0  0  0  0  0  0  0  0  0
    0.7425   -1.1043    0.0000 C   0  0  0  0  0  0  0  0  0  0  0  0
    0.7425   -2.7559    0.0000 C   0  0  0  0  0  0  0  0  0  0  0  0
    0.0334   -1.5184    0.0000 C   0  0  0  0  0  0  0  0  0  0  0  0
    6.0593   -0.6997    0.0000 C   0  0  0  0  0  0  0  0  0  0  0  0
    3.5461    0.7711    0.0000 C   0  0  0  0  0  0  0  0  0  0  0  0
    4.1316    1.3565    0.0000 C   0  0  0  0  0  0  0  0  0  0  0  0
    6.3734    1.1233    0.0000 C   0  0  0  0  0  0  0  0  0  0  0  0
    4.9455    1.9372    0.0000 C   0  0  0  0  0  0  0  0  0  0  0  0
    5.6452    2.3513    0.0000 C   0  0  0  0  0  0  0  0  0  0  0  0
    6.3686    1.9515    0.0000 C   0  0  0  0  0  0  0  0  0  0  0  0
  2  5  1  0  0  0  0
  3  1  1  0  0  0  0
  4 12  1  0  0  0  0
  5  8  1  0  0  0  0
  6  1  1  0  0  0  0
  7  1  2  0  0  0  0
  8  7  1  0  0  0  0
  9 14  1  0  0  0  0
 10  3  1  0  0  0  0
 11  6  1  0  0  0  0
 12  8  1  0  0  0  0
 13  2  1  0  0  0  0
 14 22  2  0  0  0  0
 15  9  1  0  0  0  0
 16  4  2  0  0  0  0
 17  9  2  0  0  0  0
 18  5  2  0  0  0  0
 19 13  1  0  0  0  0
 20 13  2  0  0  0  0
 21 19  2  0  0  0  0
 22 20  1  0  0  0  0
 23  3  1  0  0  0  0
 24  6  1  0  0  0  0
 25  6  1  0  0  0  0
 26 10  1  0  0  0  0
 27 11  1  0  0  0  0
 28 27  2  0  0  0  0
 29 26  2  0  0  0  0
 11 10  2  0  0  0  0
  4  2  1  0  0  0  0
 29 28  1  0  0  0  0
 14 21  1  0  0  0  0
M  CHG  2   9   1  15  -1
M  END
>  <IDNUMBER>
F1751-0037

>  <Chemical_Name>
1-(4-nitrophenyl)-3-{[(2E)-1,3,3-trimethyl-2,3-dihydro-1H-indol-2-ylidene]methyl}pyrrolidine-2,5-dione

>  <PriceCoeff>
1.00

>  <CAS>
1164562-93-9

>  <MW>
391.42

>  <Description>
solid

>  <FSP3>
0.27

>  <clogP>
4.07

>  <TPSA>
83.76

>  <Acceptor>
5

>  <Donor>
1

>  <RotBonds>
3

>  <HAC>
29

>  <Collection>
General

>  <PPDS>
+

$$$$
F1757-0012
  Mrv2219 10102508112D          

 24 25  0  0  0  0            999 V2000
    1.0132   -5.9960    0.0000 N   0  0  0  0  0  0  0  0  0  0  0  0
    0.2669   -6.3545    0.0000 N   0  0  0  0  0  0  0  0  0  0  0  0
    0.9006   -5.1787    0.0000 C   0  0  0  0  0  0  0  0  0  0  0  0
    0.0876   -5.0328    0.0000 C   0  0  0  0  0  0  0  0  0  0  0  0
   -0.3085   -5.7583    0.0000 C   0  0  0  0  0  0  0  0  0  0  0  0
    1.7429   -6.3921    0.0000 C   0  0  0  0  0  0  0  0  0  0  0  0
    5.3580   -8.4227    0.0000 C   0  0  0  0  0  0  0  0  0  0  0  0
    5.3580   -7.6096    0.0000 C   0  0  0  0  0  0  0  0  0  0  0  0
    4.6408   -7.1926    0.0000 C   0  0  0  0  0  0  0  0  0  0  0  0
    3.9320   -7.6096    0.0000 C   0  0  0  0  0  0  0  0  0  0  0  0
    6.0710   -8.8355    0.0000 C   0  0  0  0  0  0  0  0  0  0  0  0
    3.2065   -7.1926    0.0000 O   0  0  0  0  0  0  0  0  0  0  0  0
   -0.2710   -4.2823    0.0000 Br  0  0  0  0  0  0  0  0  0  0  0  0
    4.6408   -8.8355    0.0000 C   0  0  0  0  0  0  0  0  0  0  0  0
    6.7840   -8.4227    0.0000 O   0  0  0  0  0  0  0  0  0  0  0  0
    3.9320   -8.4227    0.0000 C   0  0  0  0  0  0  0  0  0  0  0  0
    2.4434   -5.9584    0.0000 C   0  0  0  0  0  0  0  0  0  0  0  0
    3.1815   -6.3462    0.0000 C   0  0  0  0  0  0  0  0  0  0  0  0
    1.4928   -4.6075    0.0000 C   0  0  0  0  0  0  0  0  0  0  0  0
   -1.1216   -5.8667    0.0000 C   0  0  0  0  0  0  0  0  0  0  0  0
    4.6325   -6.3670    0.0000 O   0  0  0  0  0  0  0  0  0  0  0  0
    2.4184   -5.1287    0.0000 O   0  0  0  0  0  0  0  0  0  0  0  0
    6.0668   -9.6611    0.0000 C   0  0  0  0  0  0  0  0  0  0  0  0
    5.3455   -5.9459    0.0000 C   0  0  0  0  0  0  0  0  0  0  0  0
  2  1  1  0  0  0  0
  3  1  1  0  0  0  0
  4  3  2  0  0  0  0
  5  2  2  0  0  0  0
  6  1  1  0  0  0  0
  7 14  2  0  0  0  0
  8  9  2  0  0  0  0
  9 10  1  0  0  0  0
 10 12  1  0  0  0  0
 11  7  1  0  0  0  0
 12 18  1  0  0  0  0
 13  4  1  0  0  0  0
 14 16  1  0  0  0  0
 15 11  2  0  0  0  0
 16 10  2  0  0  0  0
 17  6  1  0  0  0  0
 18 17  1  0  0  0  0
 19  3  1  0  0  0  0
 20  5  1  0  0  0  0
 21  9  1  0  0  0  0
 22 17  1  0  0  0  0
 23 11  1  0  0  0  0
 24 21  1  0  0  0  0
  4  5  1  0  0  0  0
  7  8  1  0  0  0  0
M  END
>  <IDNUMBER>
F1757-0012

>  <Chemical_Name>
1-{4-[3-(4-bromo-3,5-dimethyl-1H-pyrazol-1-yl)-2-hydroxypropoxy]-3-methoxyphenyl}ethan-1-one

>  <PriceCoeff>
1.00

>  <CAS>
890643-81-9

>  <MW>
397.26

>  <Description>
solid

>  <FSP3>
0.41

>  <clogP>
2.21

>  <TPSA>
73.58

>  <Acceptor>
5

>  <Donor>
1

>  <RotBonds>
7

>  <HAC>
24

>  <Collection>
General

>  <PPDS>
+

$$$$
F1757-0030
  Mrv2219 10102508112D          

 23 25  0  0  0  0            999 V2000
    4.7173   -9.2429    0.0000 N   0  0  0  0  0  0  0  0  0  0  0  0
    3.9755   -9.6054    0.0000 N   0  0  0  0  0  0  0  0  0  0  0  0
    4.6048   -8.4303    0.0000 C   0  0  0  0  0  0  0  0  0  0  0  0
    3.7922   -8.2803    0.0000 C   0  0  0  0  0  0  0  0  0  0  0  0
    3.4046   -9.0053    0.0000 C   0  0  0  0  0  0  0  0  0  0  0  0
    5.4507   -9.6429    0.0000 C   0  0  0  0  0  0  0  0  0  0  0  0
    9.0636  -10.8556    0.0000 C   0  0  0  0  0  0  0  0  0  0  0  0
    3.4421   -7.5385    0.0000 Br  0  0  0  0  0  0  0  0  0  0  0  0
    8.3428  -10.4430    0.0000 C   0  0  0  0  0  0  0  0  0  0  0  0
    6.1550   -9.2054    0.0000 C   0  0  0  0  0  0  0  0  0  0  0  0
    9.0636  -11.6765    0.0000 C   0  0  0  0  0  0  0  0  0  0  0  0
    8.3428  -12.0807    0.0000 C   0  0  0  0  0  0  0  0  0  0  0  0
    7.6427  -10.8556    0.0000 C   0  0  0  0  0  0  0  0  0  0  0  0
    6.9134  -10.4430    0.0000 O   0  0  0  0  0  0  0  0  0  0  0  0
    5.2049   -7.8552    0.0000 C   0  0  0  0  0  0  0  0  0  0  0  0
    6.8884   -9.6012    0.0000 C   0  0  0  0  0  0  0  0  0  0  0  0
    2.5878   -9.1179    0.0000 C   0  0  0  0  0  0  0  0  0  0  0  0
    7.6427  -11.6765    0.0000 C   0  0  0  0  0  0  0  0  0  0  0  0
    6.1300   -8.3803    0.0000 O   0  0  0  0  0  0  0  0  0  0  0  0
    9.7762  -10.4430    0.0000 C   0  0  0  0  0  0  0  0  0  0  0  0
    9.7762  -12.0807    0.0000 C   0  0  0  0  0  0  0  0  0  0  0  0
   10.5055  -10.8556    0.0000 C   0  0  0  0  0  0  0  0  0  0  0  0
   10.5055  -11.6765    0.0000 C   0  0  0  0  0  0  0  0  0  0  0  0
  2  1  1  0  0  0  0
  3  1  1  0  0  0  0
  4  3  2  0  0  0  0
  5  2  2  0  0  0  0
  6  1  1  0  0  0  0
  7  9  2  0  0  0  0
  8  4  1  0  0  0  0
  9 13  1  0  0  0  0
 10  6  1  0  0  0  0
 11 12  2  0  0  0  0
 12 18  1  0  0  0  0
 13 14  1  0  0  0  0
 14 16  1  0  0  0  0
 15  3  1  0  0  0  0
 16 10  1  0  0  0  0
 17  5  1  0  0  0  0
 18 13  2  0  0  0  0
 19 10  1  0  0  0  0
 20  7  1  0  0  0  0
 21 11  1  0  0  0  0
 22 20  2  0  0  0  0
 23 21  2  0  0  0  0
  4  5  1  0  0  0  0
 11  7  1  0  0  0  0
 23 22  1  0  0  0  0
M  END
>  <IDNUMBER>
F1757-0030

>  <Chemical_Name>
1-(4-bromo-3,5-dimethyl-1H-pyrazol-1-yl)-3-(naphthalen-2-yloxy)propan-2-ol

>  <PriceCoeff>
1.00

>  <CAS>
890643-96-6

>  <MW>
375.26

>  <Description>
solid

>  <FSP3>
0.28

>  <clogP>
3.96

>  <TPSA>
47.28

>  <Acceptor>
3

>  <Donor>
1

>  <RotBonds>
5

>  <HAC>
23

>  <Collection>
General

>  <PPDS>
+

$$$$
F1757-0096
  Mrv2219 10102508112D          

 17 18  0  0  0  0            999 V2000
    5.8413   -9.0855    0.0000 C   0  0  0  0  0  0  0  0  0  0  0  0
    6.6680   -9.0855    0.0000 N   0  0  0  0  0  0  0  0  0  0  0  0
    1.2944   -9.7869    0.0000 N   0  0  0  0  0  0  0  0  0  0  0  0
    5.4154   -9.7869    0.0000 O   0  0  0  0  0  0  0  0  0  0  0  0
    2.1211   -9.7869    0.0000 C   0  0  0  0  0  0  0  0  0  0  0  0
    5.4154   -8.3548    0.0000 O   0  0  0  0  0  0  0  0  0  0  0  0
    8.3172   -9.1105    0.0000 O   0  0  0  0  0  0  0  0  0  0  0  0
    4.5887   -9.7869    0.0000 C   0  0  0  0  0  0  0  0  0  0  0  0
    2.9478   -9.7869    0.0000 C   0  0  0  0  0  0  0  0  0  0  0  0
    4.1837   -9.0730    0.0000 C   0  0  0  0  0  0  0  0  0  0  0  0
    4.1837  -10.5009    0.0000 C   0  0  0  0  0  0  0  0  0  0  0  0
    3.3612  -10.5009    0.0000 C   0  0  0  0  0  0  0  0  0  0  0  0
    3.3612   -9.0730    0.0000 C   0  0  0  0  0  0  0  0  0  0  0  0
    7.0688   -9.8120    0.0000 C   0  0  0  0  0  0  0  0  0  0  0  0
    7.0813   -8.3798    0.0000 C   0  0  0  0  0  0  0  0  0  0  0  0
    7.9081   -8.3840    0.0000 C   0  0  0  0  0  0  0  0  0  0  0  0
    7.8913   -9.8203    0.0000 C   0  0  0  0  0  0  0  0  0  0  0  0
  2  1  1  0  0  0  0
  3  5  3  0  0  0  0
  4  1  1  0  0  0  0
  5  9  1  0  0  0  0
  6  1  2  0  0  0  0
  7 16  1  0  0  0  0
  8  4  1  0  0  0  0
  9 12  1  0  0  0  0
 10  8  2  0  0  0  0
 11  8  1  0  0  0  0
 12 11  2  0  0  0  0
 13 10  1  0  0  0  0
 14  2  1  0  0  0  0
 15  2  1  0  0  0  0
 16 15  1  0  0  0  0
 17 14  1  0  0  0  0
 17  7  1  0  0  0  0
  9 13  2  0  0  0  0
M  END
>  <IDNUMBER>
F1757-0096

>  <Chemical_Name>
4-cyanophenyl morpholine-4-carboxylate

>  <PriceCoeff>
1.00

>  <MW>
232.24

>  <Description>
solid

>  <FSP3>
0.33

>  <clogP>
1.10

>  <TPSA>
62.56

>  <Acceptor>
4

>  <Donor>
0

>  <RotBonds>
3

>  <HAC>
17

>  <Collection>
General

$$$$
F1757-0120
  Mrv2219 10102508112D          

 23 24  0  0  0  0            999 V2000
    8.9026   -2.6883    0.0000 N   0  0  0  0  0  0  0  0  0  0  0  0
    8.1565   -3.0426    0.0000 N   0  0  0  0  0  0  0  0  0  0  0  0
    8.7900   -1.8672    0.0000 C   0  0  0  0  0  0  0  0  0  0  0  0
    7.9773   -1.7255    0.0000 C   0  0  0  0  0  0  0  0  0  0  0  0
    7.5814   -2.4507    0.0000 C   0  0  0  0  0  0  0  0  0  0  0  0
    9.6320   -3.0801    0.0000 C   0  0  0  0  0  0  0  0  0  0  0  0
   13.9582   -5.5266    0.0000 C   0  0  0  0  0  0  0  0  0  0  0  0
   13.2455   -5.1140    0.0000 C   0  0  0  0  0  0  0  0  0  0  0  0
    7.6189   -0.9795    0.0000 Br  0  0  0  0  0  0  0  0  0  0  0  0
   14.6709   -5.1182    0.0000 O   0  0  0  0  0  0  0  0  0  0  0  0
   10.3322   -2.6508    0.0000 C   0  0  0  0  0  0  0  0  0  0  0  0
   13.2455   -4.3012    0.0000 C   0  0  0  0  0  0  0  0  0  0  0  0
   12.5286   -5.5266    0.0000 C   0  0  0  0  0  0  0  0  0  0  0  0
   11.0949   -3.8803    0.0000 O   0  0  0  0  0  0  0  0  0  0  0  0
   11.8201   -4.3012    0.0000 C   0  0  0  0  0  0  0  0  0  0  0  0
    9.3819   -1.3004    0.0000 C   0  0  0  0  0  0  0  0  0  0  0  0
   11.0699   -3.0384    0.0000 C   0  0  0  0  0  0  0  0  0  0  0  0
    6.7686   -2.5549    0.0000 C   0  0  0  0  0  0  0  0  0  0  0  0
   12.5286   -3.8803    0.0000 C   0  0  0  0  0  0  0  0  0  0  0  0
   11.8201   -5.1140    0.0000 C   0  0  0  0  0  0  0  0  0  0  0  0
   10.3072   -1.8172    0.0000 O   0  0  0  0  0  0  0  0  0  0  0  0
   13.9540   -6.3518    0.0000 C   0  0  0  0  0  0  0  0  0  0  0  0
   13.2330   -6.7561    0.0000 C   0  0  0  0  0  0  0  0  0  0  0  0
  2  1  1  0  0  0  0
  3  1  1  0  0  0  0
  4  3  2  0  0  0  0
  5  2  2  0  0  0  0
  6  1  1  0  0  0  0
  7  8  1  0  0  0  0
  8 13  2  0  0  0  0
  9  4  1  0  0  0  0
 10  7  2  0  0  0  0
 11  6  1  0  0  0  0
 12 19  2  0  0  0  0
 13 20  1  0  0  0  0
 14 17  1  0  0  0  0
 15 14  1  0  0  0  0
 16  3  1  0  0  0  0
 17 11  1  0  0  0  0
 18  5  1  0  0  0  0
 19 15  1  0  0  0  0
 20 15  2  0  0  0  0
 21 11  1  0  0  0  0
 22  7  1  0  0  0  0
 23 22  1  0  0  0  0
  4  5  1  0  0  0  0
  8 12  1  0  0  0  0
M  END
>  <IDNUMBER>
F1757-0120

>  <Chemical_Name>
1-{4-[3-(4-bromo-3,5-dimethyl-1H-pyrazol-1-yl)-2-hydroxypropoxy]phenyl}propan-1-one

>  <PriceCoeff>
1.00

>  <CAS>
890602-15-0

>  <MW>
381.26

>  <Description>
solid

>  <FSP3>
0.41

>  <clogP>
3.06

>  <TPSA>
64.35

>  <Acceptor>
4

>  <Donor>
1

>  <RotBonds>
7

>  <HAC>
23

>  <Collection>
General

>  <PPDS>
+

$$$$
F1757-0140
  Mrv2219 10102508112D          

 27 29  0  0  0  0            999 V2000
    2.0041   -7.9832    0.0000 N   0  0  0  0  0  0  0  0  0  0  0  0
    1.2568   -8.3423    0.0000 N   0  0  0  0  0  0  0  0  0  0  0  0
    1.8914   -7.1648    0.0000 C   0  0  0  0  0  0  0  0  0  0  0  0
    1.0772   -7.0187    0.0000 C   0  0  0  0  0  0  0  0  0  0  0  0
    0.6806   -7.7452    0.0000 C   0  0  0  0  0  0  0  0  0  0  0  0
    2.7349   -8.3798    0.0000 C   0  0  0  0  0  0  0  0  0  0  0  0
    7.0688  -10.8266    0.0000 C   0  0  0  0  0  0  0  0  0  0  0  0
    6.3548  -10.4132    0.0000 C   0  0  0  0  0  0  0  0  0  0  0  0
    0.7182   -6.2672    0.0000 Br  0  0  0  0  0  0  0  0  0  0  0  0
    7.7828  -10.4132    0.0000 O   0  0  0  0  0  0  0  0  0  0  0  0
    7.0646  -11.6533    0.0000 C   0  0  0  0  0  0  0  0  0  0  0  0
    3.4363   -7.9456    0.0000 C   0  0  0  0  0  0  0  0  0  0  0  0
    6.3548   -9.5991    0.0000 C   0  0  0  0  0  0  0  0  0  0  0  0
    5.6283  -10.8266    0.0000 C   0  0  0  0  0  0  0  0  0  0  0  0
    4.2004   -9.1815    0.0000 O   0  0  0  0  0  0  0  0  0  0  0  0
    4.9269   -9.5991    0.0000 C   0  0  0  0  0  0  0  0  0  0  0  0
    2.4843   -6.5928    0.0000 C   0  0  0  0  0  0  0  0  0  0  0  0
    4.1753   -8.3339    0.0000 C   0  0  0  0  0  0  0  0  0  0  0  0
   -0.1336   -7.8537    0.0000 C   0  0  0  0  0  0  0  0  0  0  0  0
    5.6283   -9.1815    0.0000 C   0  0  0  0  0  0  0  0  0  0  0  0
    4.9269  -10.4132    0.0000 C   0  0  0  0  0  0  0  0  0  0  0  0
    3.4113   -7.1147    0.0000 O   0  0  0  0  0  0  0  0  0  0  0  0
    7.7786  -12.0667    0.0000 C   0  0  0  0  0  0  0  0  0  0  0  0
    6.3423  -12.0667    0.0000 C   0  0  0  0  0  0  0  0  0  0  0  0
    7.7828  -12.8892    0.0000 C   0  0  0  0  0  0  0  0  0  0  0  0
    6.3423  -12.8934    0.0000 C   0  0  0  0  0  0  0  0  0  0  0  0
    7.0563  -13.3067    0.0000 C   0  0  0  0  0  0  0  0  0  0  0  0
  2  1  1  0  0  0  0
  3  1  1  0  0  0  0
  4  3  2  0  0  0  0
  5  2  2  0  0  0  0
  6  1  1  0  0  0  0
  7  8  1  0  0  0  0
  8 14  2  0  0  0  0
  9  4  1  0  0  0  0
 10  7  2  0  0  0  0
 11  7  1  0  0  0  0
 12  6  1  0  0  0  0
 13 20  2  0  0  0  0
 14 21  1  0  0  0  0
 15 18  1  0  0  0  0
 16 15  1  0  0  0  0
 17  3  1  0  0  0  0
 18 12  1  0  0  0  0
 19  5  1  0  0  0  0
 20 16  1  0  0  0  0
 21 16  2  0  0  0  0
 22 12  1  0  0  0  0
 23 11  1  0  0  0  0
 24 11  2  0  0  0  0
 25 23  2  0  0  0  0
 26 24  1  0  0  0  0
 27 26  2  0  0  0  0
  4  5  1  0  0  0  0
  8 13  1  0  0  0  0
 27 25  1  0  0  0  0
M  END
>  <IDNUMBER>
F1757-0140

>  <Chemical_Name>
1-(4-benzoylphenoxy)-3-(4-bromo-3,5-dimethyl-1H-pyrazol-1-yl)propan-2-ol

>  <PriceCoeff>
1.00

>  <CAS>
890602-30-9

>  <MW>
429.31

>  <Description>
solid

>  <FSP3>
0.24

>  <clogP>
4.13

>  <TPSA>
64.35

>  <Acceptor>
4

>  <Donor>
1

>  <RotBonds>
7

>  <HAC>
27

>  <Collection>
General

>  <PPDS>
+

$$$$
F1757-0285
  Mrv2219 10102508112D          

 23 25  0  0  0  0            999 V2000
    0.2291   -5.8637    0.0000 N   0  0  0  0  0  0  0  0  0  0  0  0
   -0.5205   -6.2218    0.0000 N   0  0  0  0  0  0  0  0  0  0  0  0
    0.1166   -5.0474    0.0000 C   0  0  0  0  0  0  0  0  0  0  0  0
   -0.6954   -4.9017    0.0000 C   0  0  0  0  0  0  0  0  0  0  0  0
   -1.0952   -5.6263    0.0000 C   0  0  0  0  0  0  0  0  0  0  0  0
    0.9537   -6.2593    0.0000 C   0  0  0  0  0  0  0  0  0  0  0  0
    4.5643   -7.4711    0.0000 C   0  0  0  0  0  0  0  0  0  0  0  0
   -1.0578   -4.1521    0.0000 Cl  0  0  0  0  0  0  0  0  0  0  0  0
    3.8397   -7.0589    0.0000 C   0  0  0  0  0  0  0  0  0  0  0  0
    1.6533   -5.8220    0.0000 C   0  0  0  0  0  0  0  0  0  0  0  0
    4.5643   -8.2874    0.0000 C   0  0  0  0  0  0  0  0  0  0  0  0
    3.8397   -8.6997    0.0000 C   0  0  0  0  0  0  0  0  0  0  0  0
    3.1401   -7.4711    0.0000 C   0  0  0  0  0  0  0  0  0  0  0  0
    2.4155   -7.0589    0.0000 O   0  0  0  0  0  0  0  0  0  0  0  0
    0.7038   -4.4769    0.0000 C   0  0  0  0  0  0  0  0  0  0  0  0
    2.3905   -6.2135    0.0000 C   0  0  0  0  0  0  0  0  0  0  0  0
   -1.9073   -5.7345    0.0000 C   0  0  0  0  0  0  0  0  0  0  0  0
    3.1401   -8.2874    0.0000 C   0  0  0  0  0  0  0  0  0  0  0  0
    1.6284   -4.9974    0.0000 O   0  0  0  0  0  0  0  0  0  0  0  0
    5.2765   -7.0589    0.0000 C   0  0  0  0  0  0  0  0  0  0  0  0
    5.2765   -8.6997    0.0000 C   0  0  0  0  0  0  0  0  0  0  0  0
    6.0011   -7.4711    0.0000 C   0  0  0  0  0  0  0  0  0  0  0  0
    6.0011   -8.2874    0.0000 C   0  0  0  0  0  0  0  0  0  0  0  0
  2  1  1  0  0  0  0
  3  1  1  0  0  0  0
  4  3  2  0  0  0  0
  5  2  2  0  0  0  0
  6  1  1  0  0  0  0
  7  9  2  0  0  0  0
  8  4  1  0  0  0  0
  9 13  1  0  0  0  0
 10  6  1  0  0  0  0
 11 12  2  0  0  0  0
 12 18  1  0  0  0  0
 13 14  1  0  0  0  0
 14 16  1  0  0  0  0
 15  3  1  0  0  0  0
 16 10  1  0  0  0  0
 17  5  1  0  0  0  0
 18 13  2  0  0  0  0
 19 10  1  0  0  0  0
 20  7  1  0  0  0  0
 21 11  1  0  0  0  0
 22 20  2  0  0  0  0
 23 21  2  0  0  0  0
  4  5  1  0  0  0  0
 11  7  1  0  0  0  0
 23 22  1  0  0  0  0
M  END
>  <IDNUMBER>
F1757-0285

>  <Chemical_Name>
1-(4-chloro-3,5-dimethyl-1H-pyrazol-1-yl)-3-(naphthalen-2-yloxy)propan-2-ol

>  <PriceCoeff>
1.00

>  <CAS>
890603-23-3

>  <MW>
330.81

>  <Description>
solid

>  <FSP3>
0.28

>  <clogP>
3.81

>  <TPSA>
47.28

>  <Acceptor>
3

>  <Donor>
1

>  <RotBonds>
5

>  <HAC>
23

>  <Collection>
General

>  <PPDS>
+

$$$$
F1757-0335
  Mrv2219 10102508112D          

 27 29  0  0  0  0            999 V2000
    0.6299  -12.4894    0.0000 N   0  0  0  0  0  0  0  0  0  0  0  0
   -0.1126  -12.8440    0.0000 N   0  0  0  0  0  0  0  0  0  0  0  0
    0.5173  -11.6677    0.0000 C   0  0  0  0  0  0  0  0  0  0  0  0
   -0.2961  -11.5258    0.0000 C   0  0  0  0  0  0  0  0  0  0  0  0
   -0.6883  -12.2516    0.0000 C   0  0  0  0  0  0  0  0  0  0  0  0
    1.3641  -12.8816    0.0000 C   0  0  0  0  0  0  0  0  0  0  0  0
    5.6941  -15.3302    0.0000 C   0  0  0  0  0  0  0  0  0  0  0  0
    4.9808  -14.9172    0.0000 C   0  0  0  0  0  0  0  0  0  0  0  0
   -0.6508  -10.7791    0.0000 Cl  0  0  0  0  0  0  0  0  0  0  0  0
    6.4074  -14.9214    0.0000 O   0  0  0  0  0  0  0  0  0  0  0  0
    5.6858  -16.1562    0.0000 C   0  0  0  0  0  0  0  0  0  0  0  0
    2.0649  -12.4436    0.0000 C   0  0  0  0  0  0  0  0  0  0  0  0
    4.9808  -14.0955    0.0000 C   0  0  0  0  0  0  0  0  0  0  0  0
    4.2549  -15.3302    0.0000 C   0  0  0  0  0  0  0  0  0  0  0  0
    2.8283  -13.6825    0.0000 O   0  0  0  0  0  0  0  0  0  0  0  0
    3.5541  -14.0955    0.0000 C   0  0  0  0  0  0  0  0  0  0  0  0
    1.1138  -11.1003    0.0000 C   0  0  0  0  0  0  0  0  0  0  0  0
    2.8032  -12.8398    0.0000 C   0  0  0  0  0  0  0  0  0  0  0  0
   -1.5017  -12.3560    0.0000 C   0  0  0  0  0  0  0  0  0  0  0  0
    4.2549  -13.6825    0.0000 C   0  0  0  0  0  0  0  0  0  0  0  0
    3.5541  -14.9172    0.0000 C   0  0  0  0  0  0  0  0  0  0  0  0
    2.0399  -11.6176    0.0000 O   0  0  0  0  0  0  0  0  0  0  0  0
    6.3991  -16.5608    0.0000 C   0  0  0  0  0  0  0  0  0  0  0  0
    4.9724  -16.5608    0.0000 C   0  0  0  0  0  0  0  0  0  0  0  0
    4.9682  -17.3868    0.0000 C   0  0  0  0  0  0  0  0  0  0  0  0
    6.3991  -17.3868    0.0000 C   0  0  0  0  0  0  0  0  0  0  0  0
    5.6816  -17.7998    0.0000 C   0  0  0  0  0  0  0  0  0  0  0  0
  2  1  1  0  0  0  0
  3  1  1  0  0  0  0
  4  3  2  0  0  0  0
  5  2  2  0  0  0  0
  6  1  1  0  0  0  0
  7  8  1  0  0  0  0
  8 14  2  0  0  0  0
  9  4  1  0  0  0  0
 10  7  2  0  0  0  0
 11  7  1  0  0  0  0
 12  6  1  0  0  0  0
 13 20  2  0  0  0  0
 14 21  1  0  0  0  0
 15 18  1  0  0  0  0
 16 15  1  0  0  0  0
 17  3  1  0  0  0  0
 18 12  1  0  0  0  0
 19  5  1  0  0  0  0
 20 16  1  0  0  0  0
 21 16  2  0  0  0  0
 22 12  1  0  0  0  0
 23 11  1  0  0  0  0
 24 11  2  0  0  0  0
 25 24  1  0  0  0  0
 26 23  2  0  0  0  0
 27 25  2  0  0  0  0
  4  5  1  0  0  0  0
 13  8  1  0  0  0  0
 26 27  1  0  0  0  0
M  END
>  <IDNUMBER>
F1757-0335

>  <Chemical_Name>
1-(4-benzoylphenoxy)-3-(4-chloro-3,5-dimethyl-1H-pyrazol-1-yl)propan-2-ol

>  <PriceCoeff>
1.00

>  <CAS>
890603-38-0

>  <MW>
384.86

>  <Description>
solid

>  <FSP3>
0.24

>  <clogP>
3.98

>  <TPSA>
64.35

>  <Acceptor>
4

>  <Donor>
1

>  <RotBonds>
7

>  <HAC>
27

>  <Collection>
General

>  <PPDS>
+

$$$$
F1757-0424
  Mrv2219 10102508112D          

 16 17  0  0  0  0            999 V2000
    5.3600   -1.3724    0.0000 N   0  0  0  0  0  0  0  0  0  0  0  0
    4.5509   -1.1403    0.0000 N   0  0  0  0  0  0  0  0  0  0  0  0
    5.8209   -0.6862    0.0000 C   0  0  0  0  0  0  0  0  0  0  0  0
    5.6365   -2.1440    0.0000 C   0  0  0  0  0  0  0  0  0  0  0  0
    5.3088   -0.0342    0.0000 C   0  0  0  0  0  0  0  0  0  0  0  0
    4.5406   -0.3073    0.0000 C   0  0  0  0  0  0  0  0  0  0  0  0
    5.2268   -2.8507    0.0000 N   0  0  0  0  0  0  0  0  0  0  0  0
    6.4559   -2.2874    0.0000 O   0  0  0  0  0  0  0  0  0  0  0  0
    5.5238    0.7647    0.0000 Br  0  0  0  0  0  0  0  0  0  0  0  0
    4.3972   -4.2709    0.0000 O   0  0  0  0  0  0  0  0  0  0  0  0
    6.6470   -0.6862    0.0000 C   0  0  0  0  0  0  0  0  0  0  0  0
    3.8134    0.1195    0.0000 C   0  0  0  0  0  0  0  0  0  0  0  0
    4.4040   -2.8507    0.0000 C   0  0  0  0  0  0  0  0  0  0  0  0
    5.6365   -3.5642    0.0000 C   0  0  0  0  0  0  0  0  0  0  0  0
    5.2166   -4.2743    0.0000 C   0  0  0  0  0  0  0  0  0  0  0  0
    3.9876   -3.5574    0.0000 C   0  0  0  0  0  0  0  0  0  0  0  0
  2  1  1  0  0  0  0
  3  1  1  0  0  0  0
  4  1  1  0  0  0  0
  5  3  2  0  0  0  0
  6  2  2  0  0  0  0
  7  4  1  0  0  0  0
  8  4  2  0  0  0  0
  9  5  1  0  0  0  0
 10 15  1  0  0  0  0
 11  3  1  0  0  0  0
 12  6  1  0  0  0  0
 13  7  1  0  0  0  0
 14  7  1  0  0  0  0
 15 14  1  0  0  0  0
 16 13  1  0  0  0  0
  6  5  1  0  0  0  0
 16 10  1  0  0  0  0
M  END
>  <IDNUMBER>
F1757-0424

>  <Chemical_Name>
4-(4-bromo-3,5-dimethyl-1H-pyrazole-1-carbonyl)morpholine

>  <PriceCoeff>
1.00

>  <CAS>
431978-09-5

>  <MW>
288.14

>  <Description>
solid

>  <FSP3>
0.60

>  <clogP>
2.46

>  <TPSA>
47.36

>  <Acceptor>
3

>  <Donor>
0

>  <RotBonds>
2

>  <HAC>
16

>  <Collection>
General

>  <PPDS>
+

$$$$
F1786-0002
  Mrv2219 10102508112D          

 18 19  0  0  0  0            999 V2000
    6.0167   -2.2292    0.0000 S   0  0  0  0  0  0  0  0  0  0  0  0
    5.1917   -2.2667    0.0000 C   0  0  0  0  0  0  0  0  0  0  0  0
    4.7542   -1.5667    0.0000 C   0  0  0  0  0  0  0  0  0  0  0  0
    6.8417   -2.2292    0.0000 N   0  0  0  0  0  0  0  0  0  0  0  0
    3.9292   -1.6042    0.0000 C   0  0  0  0  0  0  0  0  0  0  0  0
    4.8167   -3.0000    0.0000 C   0  0  0  0  0  0  0  0  0  0  0  0
    6.0042   -1.4042    0.0000 O   0  0  0  0  0  0  0  0  0  0  0  0
    6.0417   -3.0542    0.0000 O   0  0  0  0  0  0  0  0  0  0  0  0
    3.5417   -2.3292    0.0000 C   0  0  0  0  0  0  0  0  0  0  0  0
    3.9875   -3.0292    0.0000 C   0  0  0  0  0  0  0  0  0  0  0  0
    5.1417   -0.8417    0.0000 O   0  0  0  0  0  0  0  0  0  0  0  0
    3.4917   -0.9042    0.0000 Cl  0  0  0  0  0  0  0  0  0  0  0  0
    3.6042   -3.7625    0.0000 Cl  0  0  0  0  0  0  0  0  0  0  0  0
    7.2542   -2.9417    0.0000 C   0  0  0  0  0  0  0  0  0  0  0  0
    7.2500   -1.5167    0.0000 C   0  0  0  0  0  0  0  0  0  0  0  0
    8.0750   -1.5167    0.0000 C   0  0  0  0  0  0  0  0  0  0  0  0
    8.0750   -2.9417    0.0000 C   0  0  0  0  0  0  0  0  0  0  0  0
    8.4875   -2.2292    0.0000 C   0  0  0  0  0  0  0  0  0  0  0  0
  2  1  1  0  0  0  0
  3  2  1  0  0  0  0
  4  1  1  0  0  0  0
  5  3  2  0  0  0  0
  6  2  2  0  0  0  0
  7  1  2  0  0  0  0
  8  1  2  0  0  0  0
  9 10  2  0  0  0  0
 10  6  1  0  0  0  0
 11  3  1  0  0  0  0
 12  5  1  0  0  0  0
 13 10  1  0  0  0  0
 14  4  1  0  0  0  0
 15  4  1  0  0  0  0
 16 15  1  0  0  0  0
 17 14  1  0  0  0  0
 18 16  1  0  0  0  0
 17 18  1  0  0  0  0
  5  9  1  0  0  0  0
M  END
>  <IDNUMBER>
F1786-0002

>  <Chemical_Name>
2,4-dichloro-6-(piperidine-1-sulfonyl)phenol

>  <PriceCoeff>
1.00

>  <MW>
310.19

>  <Description>
solid

>  <FSP3>
0.45

>  <clogP>
3.88

>  <TPSA>
38.47

>  <Acceptor>
3

>  <Donor>
1

>  <RotBonds>
2

>  <HAC>
18

>  <Collection>
General

$$$$
F1786-0014
  Mrv2219 10102508112D          

 23 24  0  0  0  0            999 V2000
    5.8466   -2.2487    0.0000 S   0  0  0  0  0  0  0  0  0  0  0  0
    5.0221   -2.2779    0.0000 C   0  0  0  0  0  0  0  0  0  0  0  0
    6.6712   -2.2487    0.0000 N   0  0  0  0  0  0  0  0  0  0  0  0
    4.5849   -1.5866    0.0000 C   0  0  0  0  0  0  0  0  0  0  0  0
    8.3119   -2.2487    0.0000 N   0  0  0  0  0  0  0  0  0  0  0  0
    9.1365   -2.2487    0.0000 C   0  0  0  0  0  0  0  0  0  0  0  0
    3.7520   -1.6158    0.0000 C   0  0  0  0  0  0  0  0  0  0  0  0
    4.6390   -3.0150    0.0000 C   0  0  0  0  0  0  0  0  0  0  0  0
    5.8259   -1.4242    0.0000 O   0  0  0  0  0  0  0  0  0  0  0  0
    5.8633   -3.0732    0.0000 O   0  0  0  0  0  0  0  0  0  0  0  0
    7.0751   -1.5283    0.0000 C   0  0  0  0  0  0  0  0  0  0  0  0
    7.0751   -2.9608    0.0000 C   0  0  0  0  0  0  0  0  0  0  0  0
    3.3731   -2.3487    0.0000 C   0  0  0  0  0  0  0  0  0  0  0  0
    3.8145   -3.0483    0.0000 C   0  0  0  0  0  0  0  0  0  0  0  0
    7.8997   -2.9608    0.0000 C   0  0  0  0  0  0  0  0  0  0  0  0
    7.8997   -1.5366    0.0000 C   0  0  0  0  0  0  0  0  0  0  0  0
    9.5487   -2.9650    0.0000 O   0  0  0  0  0  0  0  0  0  0  0  0
    4.9639   -0.8537    0.0000 O   0  0  0  0  0  0  0  0  0  0  0  0
    3.3148   -0.9162    0.0000 Cl  0  0  0  0  0  0  0  0  0  0  0  0
    9.5487   -1.5366    0.0000 O   0  0  0  0  0  0  0  0  0  0  0  0
    3.4272   -3.7770    0.0000 Cl  0  0  0  0  0  0  0  0  0  0  0  0
   10.3732   -1.5366    0.0000 C   0  0  0  0  0  0  0  0  0  0  0  0
   10.7855   -0.8245    0.0000 C   0  0  0  0  0  0  0  0  0  0  0  0
  2  1  1  0  0  0  0
  3  1  1  0  0  0  0
  4  2  1  0  0  0  0
  5 15  1  0  0  0  0
  6  5  1  0  0  0  0
  7  4  2  0  0  0  0
  8  2  2  0  0  0  0
  9  1  2  0  0  0  0
 10  1  2  0  0  0  0
 11  3  1  0  0  0  0
 12  3  1  0  0  0  0
 13 14  2  0  0  0  0
 14  8  1  0  0  0  0
 15 12  1  0  0  0  0
 16 11  1  0  0  0  0
 17  6  2  0  0  0  0
 18  4  1  0  0  0  0
 19  7  1  0  0  0  0
 20  6  1  0  0  0  0
 21 14  1  0  0  0  0
 22 20  1  0  0  0  0
 23 22  1  0  0  0  0
 16  5  1  0  0  0  0
  7 13  1  0  0  0  0
M  END
>  <IDNUMBER>
F1786-0014

>  <Chemical_Name>
ethyl 4-(3,5-dichloro-2-hydroxybenzenesulfonyl)piperazine-1-carboxylate

>  <PriceCoeff>
1.00

>  <MW>
383.25

>  <Description>
solid

>  <FSP3>
0.46

>  <clogP>
3.90

>  <TPSA>
95.53

>  <Acceptor>
5

>  <Donor>
1

>  <RotBonds>
5

>  <HAC>
23

>  <Collection>
General

$$$$
F1791-1068
  Mrv2219 10102508112D          

 24 26  0  0  0  0            999 V2000
    4.3440    0.3884    0.0000 N   0  0  0  0  0  0  0  0  0  0  0  0
    4.8315    1.0582    0.0000 C   0  0  0  0  0  0  0  0  0  0  0  0
    4.8315   -0.2775    0.0000 C   0  0  0  0  0  0  0  0  0  0  0  0
    5.6163   -0.0238    0.0000 C   0  0  0  0  0  0  0  0  0  0  0  0
    5.6163    0.8046    0.0000 C   0  0  0  0  0  0  0  0  0  0  0  0
    7.6733   -0.8720    0.0000 C   0  0  0  0  0  0  0  0  0  0  0  0
    6.2900   -0.5113    0.0000 S   0  0  0  0  0  0  0  0  0  0  0  0
    7.0867   -0.2894    0.0000 C   0  0  0  0  0  0  0  0  0  0  0  0
    7.4593   -1.6765    0.0000 C   0  0  0  0  0  0  0  0  0  0  0  0
    3.5196    0.3884    0.0000 C   0  0  0  0  0  0  0  0  0  0  0  0
    4.5699    1.8509    0.0000 O   0  0  0  0  0  0  0  0  0  0  0  0
    4.5699   -1.0622    0.0000 O   0  0  0  0  0  0  0  0  0  0  0  0
    8.0538   -2.2592    0.0000 O   0  0  0  0  0  0  0  0  0  0  0  0
    3.1074   -0.3250    0.0000 C   0  0  0  0  0  0  0  0  0  0  0  0
    3.1074    1.1058    0.0000 C   0  0  0  0  0  0  0  0  0  0  0  0
    6.6626   -1.8946    0.0000 O   0  0  0  0  0  0  0  0  0  0  0  0
    1.8708    0.3884    0.0000 C   0  0  0  0  0  0  0  0  0  0  0  0
    2.2830   -0.3250    0.0000 C   0  0  0  0  0  0  0  0  0  0  0  0
    2.2751    1.1018    0.0000 C   0  0  0  0  0  0  0  0  0  0  0  0
    8.4660   -0.6540    0.0000 C   0  0  0  0  0  0  0  0  0  0  0  0
    1.0385    0.3884    0.0000 O   0  0  0  0  0  0  0  0  0  0  0  0
    7.2888    0.5073    0.0000 C   0  0  0  0  0  0  0  0  0  0  0  0
    8.6721    0.1506    0.0000 C   0  0  0  0  0  0  0  0  0  0  0  0
    8.0776    0.7253    0.0000 C   0  0  0  0  0  0  0  0  0  0  0  0
  2  1  1  0  0  0  0
  3  1  1  0  0  0  0
  4  3  1  0  0  0  0
  5  2  1  0  0  0  0
  6  8  2  0  0  0  0
  7  4  1  0  0  0  0
  8  7  1  0  0  0  0
  9  6  1  0  0  0  0
 10  1  1  0  0  0  0
 11  2  2  0  0  0  0
 12  3  2  0  0  0  0
 13  9  2  0  0  0  0
 14 10  1  0  0  0  0
 15 10  2  0  0  0  0
 16  9  1  0  0  0  0
 17 19  2  0  0  0  0
 18 14  2  0  0  0  0
 19 15  1  0  0  0  0
 20  6  1  0  0  0  0
 21 17  1  0  0  0  0
 22  8  1  0  0  0  0
 23 24  1  0  0  0  0
 24 22  2  0  0  0  0
  5  4  1  0  0  0  0
 17 18  1  0  0  0  0
 23 20  2  0  0  0  0
M  END
>  <IDNUMBER>
F1791-1068

>  <Chemical_Name>
2-{[1-(4-hydroxyphenyl)-2,5-dioxopyrrolidin-3-yl]sulfanyl}benzoic acid

>  <PriceCoeff>
1.00

>  <CAS>
670255-06-8

>  <MW>
343.35

>  <Description>
solid

>  <FSP3>
0.12

>  <clogP>
1.40

>  <TPSA>
120.21

>  <Acceptor>
5

>  <Donor>
1

>  <RotBonds>
4

>  <HAC>
24

>  <Collection>
General

>  <PPDS>
+

$$$$
F1799-0234
  Mrv2219 10102508112D          

 20 22  0  0  0  0            999 V2000
    0.9890   -0.6407    0.0000 N   0  0  0  0  0  0  0  0  0  0  0  0
    0.4324   -0.0281    0.0000 C   0  0  0  0  0  0  0  0  0  0  0  0
    0.5806   -1.3494    0.0000 C   0  0  0  0  0  0  0  0  0  0  0  0
   -0.3363   -0.3724    0.0000 C   0  0  0  0  0  0  0  0  0  0  0  0
   -0.2402   -1.2012    0.0000 C   0  0  0  0  0  0  0  0  0  0  0  0
   -1.0530    0.0120    0.0000 N   0  0  0  0  0  0  0  0  0  0  0  0
    1.7938   -0.4124    0.0000 C   0  0  0  0  0  0  0  0  0  0  0  0
    0.6046    0.8008    0.0000 O   0  0  0  0  0  0  0  0  0  0  0  0
    0.9290   -2.1182    0.0000 O   0  0  0  0  0  0  0  0  0  0  0  0
    1.9860    0.3804    0.0000 C   0  0  0  0  0  0  0  0  0  0  0  0
    2.3704   -0.9890    0.0000 C   0  0  0  0  0  0  0  0  0  0  0  0
    3.3674   -0.0040    0.0000 C   0  0  0  0  0  0  0  0  0  0  0  0
    3.1392   -0.7968    0.0000 C   0  0  0  0  0  0  0  0  0  0  0  0
    2.7748    0.5886    0.0000 C   0  0  0  0  0  0  0  0  0  0  0  0
    4.1963    0.1641    0.0000 Br  0  0  0  0  0  0  0  0  0  0  0  0
   -1.8578    0.2042    0.0000 C   0  0  0  0  0  0  0  0  0  0  0  0
   -0.8008   -0.7728    0.0000 C   0  0  0  0  0  0  0  0  0  0  0  0
   -2.4144   -0.4124    0.0000 C   0  0  0  0  0  0  0  0  0  0  0  0
   -1.3574   -1.3734    0.0000 C   0  0  0  0  0  0  0  0  0  0  0  0
   -2.1622   -1.2012    0.0000 C   0  0  0  0  0  0  0  0  0  0  0  0
  2  1  1  0  0  0  0
  3  1  1  0  0  0  0
  4  2  1  0  0  0  0
  5  3  1  0  0  0  0
  6  4  1  0  0  0  0
  7  1  1  0  0  0  0
  8  2  2  0  0  0  0
  9  3  2  0  0  0  0
 10  7  1  0  0  0  0
 11  7  2  0  0  0  0
 12 13  2  0  0  0  0
 13 11  1  0  0  0  0
 14 10  2  0  0  0  0
 15 12  1  0  0  0  0
 16  6  1  0  0  0  0
 17  6  1  0  0  0  0
 18 16  1  0  0  0  0
 19 17  1  0  0  0  0
 20 19  1  0  0  0  0
  4  5  1  0  0  0  0
 12 14  1  0  0  0  0
 18 20  1  0  0  0  0
M  END
>  <IDNUMBER>
F1799-0234

>  <Chemical_Name>
1-(4-bromophenyl)-3-(piperidin-1-yl)pyrrolidine-2,5-dione

>  <PriceCoeff>
1.50

>  <CAS>
195452-35-8

>  <MW>
337.21

>  <Description>
solid

>  <FSP3>
0.47

>  <clogP>
3.51

>  <TPSA>
40.62

>  <Acceptor>
2

>  <Donor>
1

>  <RotBonds>
2

>  <HAC>
20

>  <Collection>
Advanced

>  <PPDS>
+

$$$$
F1799-0236
  Mrv2219 10102508112D          

 21 23  0  0  0  0            999 V2000
    1.0220   -0.6535    0.0000 N   0  0  0  0  0  0  0  0  0  0  0  0
    0.4189   -0.0880    0.0000 C   0  0  0  0  0  0  0  0  0  0  0  0
    0.6577   -1.3949    0.0000 C   0  0  0  0  0  0  0  0  0  0  0  0
   -0.3015   -0.4901    0.0000 C   0  0  0  0  0  0  0  0  0  0  0  0
   -0.1633   -1.2943    0.0000 C   0  0  0  0  0  0  0  0  0  0  0  0
   -1.0891   -0.2053    0.0000 N   0  0  0  0  0  0  0  0  0  0  0  0
    1.8096   -0.3687    0.0000 C   0  0  0  0  0  0  0  0  0  0  0  0
    0.5195    0.7540    0.0000 O   0  0  0  0  0  0  0  0  0  0  0  0
    1.0597   -2.1405    0.0000 O   0  0  0  0  0  0  0  0  0  0  0  0
    2.4295   -0.8922    0.0000 C   0  0  0  0  0  0  0  0  0  0  0  0
    1.9478    0.4524    0.0000 C   0  0  0  0  0  0  0  0  0  0  0  0
    3.3552    0.1968    0.0000 C   0  0  0  0  0  0  0  0  0  0  0  0
    2.7143    0.7372    0.0000 C   0  0  0  0  0  0  0  0  0  0  0  0
    3.2169   -0.6074    0.0000 C   0  0  0  0  0  0  0  0  0  0  0  0
    4.1594    0.4524    0.0000 Br  0  0  0  0  0  0  0  0  0  0  0  0
   -0.7246   -0.9550    0.0000 C   0  0  0  0  0  0  0  0  0  0  0  0
   -1.8933   -0.0294    0.0000 C   0  0  0  0  0  0  0  0  0  0  0  0
   -1.0891   -1.6964    0.0000 C   0  0  0  0  0  0  0  0  0  0  0  0
   -2.5342   -0.5529    0.0000 C   0  0  0  0  0  0  0  0  0  0  0  0
   -2.5132   -1.3739    0.0000 C   0  0  0  0  0  0  0  0  0  0  0  0
   -1.8933   -1.8766    0.0000 C   0  0  0  0  0  0  0  0  0  0  0  0
  2  1  1  0  0  0  0
  3  1  1  0  0  0  0
  4  2  1  0  0  0  0
  5  3  1  0  0  0  0
  6  4  1  0  0  0  0
  7  1  1  0  0  0  0
  8  2  2  0  0  0  0
  9  3  2  0  0  0  0
 10  7  2  0  0  0  0
 11  7  1  0  0  0  0
 12 13  1  0  0  0  0
 13 11  2  0  0  0  0
 14 10  1  0  0  0  0
 15 12  1  0  0  0  0
 16  6  1  0  0  0  0
 17  6  1  0  0  0  0
 18 16  1  0  0  0  0
 19 17  1  0  0  0  0
 20 19  1  0  0  0  0
 21 18  1  0  0  0  0
  4  5  1  0  0  0  0
 14 12  2  0  0  0  0
 21 20  1  0  0  0  0
M  END
>  <IDNUMBER>
F1799-0236

>  <Chemical_Name>
3-(azepan-1-yl)-1-(4-bromophenyl)pyrrolidine-2,5-dione

>  <PriceCoeff>
1.00

>  <CAS>
331422-89-0

>  <MW>
351.24

>  <Description>
solid

>  <FSP3>
0.50

>  <clogP>
4.07

>  <TPSA>
40.62

>  <Acceptor>
2

>  <Donor>
1

>  <RotBonds>
2

>  <HAC>
21

>  <Collection>
General

>  <PPDS>
+

$$$$
F1799-0241
  Mrv2219 10102508112D          

 22 24  0  0  0  0            999 V2000
    2.0755   -0.1725    0.0000 N   0  0  0  0  0  0  0  0  0  0  0  0
    1.5213   -0.7637    0.0000 C   0  0  0  0  0  0  0  0  0  0  0  0
    1.6691    0.5358    0.0000 C   0  0  0  0  0  0  0  0  0  0  0  0
    0.8684    0.3633    0.0000 C   0  0  0  0  0  0  0  0  0  0  0  0
    0.8130   -0.4127    0.0000 C   0  0  0  0  0  0  0  0  0  0  0  0
    0.2464    0.8869    0.0000 N   0  0  0  0  0  0  0  0  0  0  0  0
    2.8823   -0.1725    0.0000 C   0  0  0  0  0  0  0  0  0  0  0  0
    1.6691   -1.5952    0.0000 O   0  0  0  0  0  0  0  0  0  0  0  0
    1.9647    1.3056    0.0000 O   0  0  0  0  0  0  0  0  0  0  0  0
   -0.5481    0.6220    0.0000 C   0  0  0  0  0  0  0  0  0  0  0  0
    3.2950    0.5358    0.0000 C   0  0  0  0  0  0  0  0  0  0  0  0
    3.2950   -0.8869    0.0000 C   0  0  0  0  0  0  0  0  0  0  0  0
   -0.6959   -0.2032    0.0000 C   0  0  0  0  0  0  0  0  0  0  0  0
    4.5329   -0.1725    0.0000 C   0  0  0  0  0  0  0  0  0  0  0  0
    4.1202    0.5358    0.0000 C   0  0  0  0  0  0  0  0  0  0  0  0
    4.1202   -0.8869    0.0000 C   0  0  0  0  0  0  0  0  0  0  0  0
    5.3643   -0.1725    0.0000 Br  0  0  0  0  0  0  0  0  0  0  0  0
   -1.4719   -0.4989    0.0000 C   0  0  0  0  0  0  0  0  0  0  0  0
   -1.9400    0.8869    0.0000 C   0  0  0  0  0  0  0  0  0  0  0  0
   -1.1763    1.1578    0.0000 C   0  0  0  0  0  0  0  0  0  0  0  0
   -2.0878    0.0924    0.0000 C   0  0  0  0  0  0  0  0  0  0  0  0
   -1.6444   -1.3303    0.0000 C   0  0  0  0  0  0  0  0  0  0  0  0
  2  1  1  0  0  0  0
  3  1  1  0  0  0  0
  4  3  1  0  0  0  0
  5  2  1  0  0  0  0
  6  4  1  0  0  0  0
  7  1  1  0  0  0  0
  8  2  2  0  0  0  0
  9  3  2  0  0  0  0
 10  6  1  0  0  0  0
 11  7  1  0  0  0  0
 12  7  2  0  0  0  0
 13 10  2  0  0  0  0
 14 16  2  0  0  0  0
 15 11  2  0  0  0  0
 16 12  1  0  0  0  0
 17 14  1  0  0  0  0
 18 13  1  0  0  0  0
 19 20  2  0  0  0  0
 20 10  1  0  0  0  0
 21 19  1  0  0  0  0
 22 18  1  0  0  0  0
  5  4  1  0  0  0  0
 14 15  1  0  0  0  0
 18 21  2  0  0  0  0
M  END
>  <IDNUMBER>
F1799-0241

>  <Chemical_Name>
1-(4-bromophenyl)-3-[(3-methylphenyl)amino]pyrrolidine-2,5-dione

>  <PriceCoeff>
1.00

>  <CAS>
466684-65-1

>  <MW>
359.22

>  <Description>
solid

>  <FSP3>
0.18

>  <clogP>
4.13

>  <TPSA>
49.41

>  <Acceptor>
3

>  <Donor>
1

>  <RotBonds>
3

>  <HAC>
22

>  <Collection>
General

>  <PPDS>
+

$$$$
F1799-0246
  Mrv2219 10102508112D          

 24 27  0  0  0  0            999 V2000
    1.6322    0.1449    0.0000 N   0  0  0  0  0  0  0  0  0  0  0  0
    1.2856    0.8822    0.0000 C   0  0  0  0  0  0  0  0  0  0  0  0
   -0.0693    1.4305    0.0000 N   0  0  0  0  0  0  0  0  0  0  0  0
    0.4790    0.7751    0.0000 C   0  0  0  0  0  0  0  0  0  0  0  0
    1.0272   -0.4348    0.0000 C   0  0  0  0  0  0  0  0  0  0  0  0
   -0.7121    1.9598    0.0000 C   0  0  0  0  0  0  0  0  0  0  0  0
   -1.3801    1.5439    0.0000 N   0  0  0  0  0  0  0  0  0  0  0  0
    0.3088   -0.0064    0.0000 C   0  0  0  0  0  0  0  0  0  0  0  0
   -0.3718    0.6742    0.0000 C   0  0  0  0  0  0  0  0  0  0  0  0
   -1.2099    0.7499    0.0000 C   0  0  0  0  0  0  0  0  0  0  0  0
    2.4199    0.1449    0.0000 C   0  0  0  0  0  0  0  0  0  0  0  0
    1.6700    1.6384    0.0000 O   0  0  0  0  0  0  0  0  0  0  0  0
    1.1343   -1.2541    0.0000 O   0  0  0  0  0  0  0  0  0  0  0  0
    2.8422   -0.5735    0.0000 C   0  0  0  0  0  0  0  0  0  0  0  0
    2.8422    0.8507    0.0000 C   0  0  0  0  0  0  0  0  0  0  0  0
   -0.6995    2.8169    0.0000 C   0  0  0  0  0  0  0  0  0  0  0  0
    4.0899    0.1071    0.0000 C   0  0  0  0  0  0  0  0  0  0  0  0
    3.6551   -0.5546    0.0000 C   0  0  0  0  0  0  0  0  0  0  0  0
    3.6740    0.8507    0.0000 C   0  0  0  0  0  0  0  0  0  0  0  0
    4.9217    0.1071    0.0000 Br  0  0  0  0  0  0  0  0  0  0  0  0
   -0.0189   -0.0442    0.0000 C   0  0  0  0  0  0  0  0  0  0  0  0
   -1.6826    0.0756    0.0000 C   0  0  0  0  0  0  0  0  0  0  0  0
   -0.4852   -0.7248    0.0000 C   0  0  0  0  0  0  0  0  0  0  0  0
   -1.3359   -0.6491    0.0000 C   0  0  0  0  0  0  0  0  0  0  0  0
  2  1  1  0  0  0  0
  3  4  1  0  0  0  0
  4  2  1  0  0  0  0
  5  1  1  0  0  0  0
  6  3  1  0  0  0  0
  7  6  2  0  0  0  0
  8  5  1  0  0  0  0
  9  3  1  0  0  0  0
 10  9  2  0  0  0  0
 11  1  1  0  0  0  0
 12  2  2  0  0  0  0
 13  5  2  0  0  0  0
 14 11  2  0  0  0  0
 15 11  1  0  0  0  0
 16  6  1  0  0  0  0
 17 19  1  0  0  0  0
 18 14  1  0  0  0  0
 19 15  2  0  0  0  0
 20 17  1  0  0  0  0
 21  9  1  0  0  0  0
 22 10  1  0  0  0  0
 23 21  2  0  0  0  0
 24 23  1  0  0  0  0
  4  8  1  0  0  0  0
 17 18  2  0  0  0  0
 10  7  1  0  0  0  0
 24 22  2  0  0  0  0
M  END
>  <IDNUMBER>
F1799-0246

>  <Chemical_Name>
1-(4-bromophenyl)-3-(2-methyl-1H-1,3-benzodiazol-1-yl)pyrrolidine-2,5-dione

>  <PriceCoeff>
1.00

>  <CAS>
62955-53-7

>  <MW>
384.23

>  <Description>
solid

>  <FSP3>
0.17

>  <clogP>
3.55

>  <TPSA>
55.20

>  <Acceptor>
3

>  <Donor>
0

>  <RotBonds>
2

>  <HAC>
24

>  <Collection>
General

>  <PPDS>
+

$$$$
F1799-0249
  Mrv2219 10102508112D          

 23 25  0  0  0  0            999 V2000
    2.2558   -3.4616    0.0000 N   0  0  0  0  0  0  0  0  0  0  0  0
    1.6618   -4.0854    0.0000 C   0  0  0  0  0  0  0  0  0  0  0  0
    1.8419   -2.7896    0.0000 C   0  0  0  0  0  0  0  0  0  0  0  0
    1.0319   -2.9516    0.0000 C   0  0  0  0  0  0  0  0  0  0  0  0
    0.9419   -3.7435    0.0000 C   0  0  0  0  0  0  0  0  0  0  0  0
    0.4020   -2.4177    0.0000 N   0  0  0  0  0  0  0  0  0  0  0  0
    3.0657   -3.4616    0.0000 C   0  0  0  0  0  0  0  0  0  0  0  0
    1.8239   -4.8954    0.0000 O   0  0  0  0  0  0  0  0  0  0  0  0
    2.1417   -1.9978    0.0000 O   0  0  0  0  0  0  0  0  0  0  0  0
    3.5095   -4.1755    0.0000 C   0  0  0  0  0  0  0  0  0  0  0  0
    3.4976   -2.7777    0.0000 C   0  0  0  0  0  0  0  0  0  0  0  0
   -0.4079   -2.7057    0.0000 C   0  0  0  0  0  0  0  0  0  0  0  0
    4.7334   -3.4556    0.0000 C   0  0  0  0  0  0  0  0  0  0  0  0
   -1.9197   -3.2457    0.0000 C   0  0  0  0  0  0  0  0  0  0  0  0
    4.3195   -2.7417    0.0000 C   0  0  0  0  0  0  0  0  0  0  0  0
    4.3255   -4.1755    0.0000 C   0  0  0  0  0  0  0  0  0  0  0  0
    5.5854   -3.4376    0.0000 Br  0  0  0  0  0  0  0  0  0  0  0  0
   -0.5219   -3.4796    0.0000 C   0  0  0  0  0  0  0  0  0  0  0  0
   -1.0378   -2.1658    0.0000 C   0  0  0  0  0  0  0  0  0  0  0  0
   -1.2958   -3.7855    0.0000 C   0  0  0  0  0  0  0  0  0  0  0  0
   -1.7998   -2.4477    0.0000 C   0  0  0  0  0  0  0  0  0  0  0  0
   -2.7116   -3.4976    0.0000 O   0  0  0  0  0  0  0  0  0  0  0  0
   -3.3415   -2.9516    0.0000 C   0  0  0  0  0  0  0  0  0  0  0  0
  2  1  1  0  0  0  0
  3  1  1  0  0  0  0
  4  3  1  0  0  0  0
  5  2  1  0  0  0  0
  6  4  1  0  0  0  0
  7  1  1  0  0  0  0
  8  2  2  0  0  0  0
  9  3  2  0  0  0  0
 10  7  2  0  0  0  0
 11  7  1  0  0  0  0
 12  6  1  0  0  0  0
 13 15  1  0  0  0  0
 14 21  1  0  0  0  0
 15 11  2  0  0  0  0
 16 10  1  0  0  0  0
 17 13  1  0  0  0  0
 18 12  2  0  0  0  0
 19 12  1  0  0  0  0
 20 18  1  0  0  0  0
 21 19  2  0  0  0  0
 22 14  1  0  0  0  0
 23 22  1  0  0  0  0
  5  4  1  0  0  0  0
 13 16  2  0  0  0  0
 20 14  2  0  0  0  0
M  END
>  <IDNUMBER>
F1799-0249

>  <Chemical_Name>
1-(4-bromophenyl)-3-[(4-methoxyphenyl)amino]pyrrolidine-2,5-dione

>  <PriceCoeff>
1.00

>  <CAS>
466684-73-1

>  <MW>
375.22

>  <Description>
solid

>  <FSP3>
0.18

>  <clogP>
3.73

>  <TPSA>
58.64

>  <Acceptor>
4

>  <Donor>
1

>  <RotBonds>
4

>  <HAC>
23

>  <Collection>
General

>  <PPDS>
+

$$$$
F1799-0313
  Mrv2219 10102508112D          

 26 29  0  0  0  0            999 V2000
    0.0868    0.6456    0.0000 N   0  0  0  0  0  0  0  0  0  0  0  0
   -0.5859    1.0849    0.0000 C   0  0  0  0  0  0  0  0  0  0  0  0
   -0.1465   -0.1682    0.0000 C   0  0  0  0  0  0  0  0  0  0  0  0
   -1.2369    0.5859    0.0000 C   0  0  0  0  0  0  0  0  0  0  0  0
   -0.9547   -0.1953    0.0000 C   0  0  0  0  0  0  0  0  0  0  0  0
    0.8463    0.9547    0.0000 C   0  0  0  0  0  0  0  0  0  0  0  0
   -2.0180    0.7974    0.0000 N   0  0  0  0  0  0  0  0  0  0  0  0
   -3.6401    1.2151    0.0000 N   0  0  0  0  0  0  0  0  0  0  0  0
    1.5190    0.4557    0.0000 C   0  0  0  0  0  0  0  0  0  0  0  0
   -0.6130    1.9150    0.0000 O   0  0  0  0  0  0  0  0  0  0  0  0
    0.3744   -0.8463    0.0000 O   0  0  0  0  0  0  0  0  0  0  0  0
   -2.6203    0.1953    0.0000 C   0  0  0  0  0  0  0  0  0  0  0  0
   -2.2296    1.5787    0.0000 C   0  0  0  0  0  0  0  0  0  0  0  0
   -3.4014    0.4069    0.0000 C   0  0  0  0  0  0  0  0  0  0  0  0
   -3.0380    1.8174    0.0000 C   0  0  0  0  0  0  0  0  0  0  0  0
   -4.4213    1.3942    0.0000 C   0  0  0  0  0  0  0  0  0  0  0  0
    2.2785    0.7974    0.0000 C   0  0  0  0  0  0  0  0  0  0  0  0
    0.9168    1.7848    0.0000 C   0  0  0  0  0  0  0  0  0  0  0  0
    2.9512    0.3038    0.0000 Cl  0  0  0  0  0  0  0  0  0  0  0  0
    1.6763    2.1265    0.0000 C   0  0  0  0  0  0  0  0  0  0  0  0
   -4.6817    2.1753    0.0000 C   0  0  0  0  0  0  0  0  0  0  0  0
   -4.9909    0.7974    0.0000 C   0  0  0  0  0  0  0  0  0  0  0  0
    2.3490    1.6546    0.0000 C   0  0  0  0  0  0  0  0  0  0  0  0
   -5.4629    2.3598    0.0000 C   0  0  0  0  0  0  0  0  0  0  0  0
   -5.7722    0.9765    0.0000 C   0  0  0  0  0  0  0  0  0  0  0  0
   -6.0325    1.7577    0.0000 C   0  0  0  0  0  0  0  0  0  0  0  0
  2  1  1  0  0  0  0
  3  1  1  0  0  0  0
  4  2  1  0  0  0  0
  5  3  1  0  0  0  0
  6  1  1  0  0  0  0
  7  4  1  0  0  0  0
  8 15  1  0  0  0  0
  9  6  1  0  0  0  0
 10  2  2  0  0  0  0
 11  3  2  0  0  0  0
 12  7  1  0  0  0  0
 13  7  1  0  0  0  0
 14 12  1  0  0  0  0
 15 13  1  0  0  0  0
 16  8  1  0  0  0  0
 17  9  2  0  0  0  0
 18  6  2  0  0  0  0
 19 17  1  0  0  0  0
 20 18  1  0  0  0  0
 21 16  1  0  0  0  0
 22 16  2  0  0  0  0
 23 20  2  0  0  0  0
 24 21  2  0  0  0  0
 25 22  1  0  0  0  0
 26 25  2  0  0  0  0
  5  4  1  0  0  0  0
 23 17  1  0  0  0  0
 14  8  1  0  0  0  0
 24 26  1  0  0  0  0
M  END
>  <IDNUMBER>
F1799-0313

>  <Chemical_Name>
1-(3-chlorophenyl)-3-(4-phenylpiperazin-1-yl)pyrrolidine-2,5-dione

>  <PriceCoeff>
1.00

>  <CAS>
299408-68-7

>  <MW>
369.84

>  <Description>
solid

>  <FSP3>
0.30

>  <clogP>
4.14

>  <TPSA>
43.86

>  <Acceptor>
3

>  <Donor>
2

>  <RotBonds>
3

>  <HAC>
26

>  <Collection>
General

>  <PPDS>
+

$$$$
F1799-0316
  Mrv2219 10102508112D          

 26 29  0  0  0  0            999 V2000
    0.3730    0.4841    0.0000 N   0  0  0  0  0  0  0  0  0  0  0  0
   -0.4285    0.7791    0.0000 C   0  0  0  0  0  0  0  0  0  0  0  0
    0.3173   -0.3396    0.0000 C   0  0  0  0  0  0  0  0  0  0  0  0
   -0.9350    0.1336    0.0000 C   0  0  0  0  0  0  0  0  0  0  0  0
   -0.4841   -0.5566    0.0000 C   0  0  0  0  0  0  0  0  0  0  0  0
   -1.7642    0.1336    0.0000 N   0  0  0  0  0  0  0  0  0  0  0  0
   -3.4227    0.1336    0.0000 N   0  0  0  0  0  0  0  0  0  0  0  0
    1.0074    0.9628    0.0000 C   0  0  0  0  0  0  0  0  0  0  0  0
   -0.6455    1.5805    0.0000 O   0  0  0  0  0  0  0  0  0  0  0  0
    0.9573   -0.8738    0.0000 O   0  0  0  0  0  0  0  0  0  0  0  0
   -2.1650   -0.5843    0.0000 C   0  0  0  0  0  0  0  0  0  0  0  0
   -2.1650    0.8626    0.0000 C   0  0  0  0  0  0  0  0  0  0  0  0
   -2.9664   -0.6066    0.0000 C   0  0  0  0  0  0  0  0  0  0  0  0
   -2.9998    0.8626    0.0000 C   0  0  0  0  0  0  0  0  0  0  0  0
   -4.2241    0.1614    0.0000 C   0  0  0  0  0  0  0  0  0  0  0  0
    1.7587    0.6455    0.0000 C   0  0  0  0  0  0  0  0  0  0  0  0
    0.9350    1.7976    0.0000 C   0  0  0  0  0  0  0  0  0  0  0  0
    2.3431    1.9535    0.0000 C   0  0  0  0  0  0  0  0  0  0  0  0
    1.6028    2.2708    0.0000 C   0  0  0  0  0  0  0  0  0  0  0  0
    2.4266    1.1298    0.0000 C   0  0  0  0  0  0  0  0  0  0  0  0
    3.0444    2.4320    0.0000 Cl  0  0  0  0  0  0  0  0  0  0  0  0
   -4.6527    0.8626    0.0000 C   0  0  0  0  0  0  0  0  0  0  0  0
   -4.6249   -0.5843    0.0000 C   0  0  0  0  0  0  0  0  0  0  0  0
   -5.4541   -0.6066    0.0000 C   0  0  0  0  0  0  0  0  0  0  0  0
   -5.4764    0.8626    0.0000 C   0  0  0  0  0  0  0  0  0  0  0  0
   -5.8883    0.1614    0.0000 C   0  0  0  0  0  0  0  0  0  0  0  0
  2  1  1  0  0  0  0
  3  1  1  0  0  0  0
  4  2  1  0  0  0  0
  5  3  1  0  0  0  0
  6  4  1  0  0  0  0
  7 14  1  0  0  0  0
  8  1  1  0  0  0  0
  9  2  2  0  0  0  0
 10  3  2  0  0  0  0
 11  6  1  0  0  0  0
 12  6  1  0  0  0  0
 13 11  1  0  0  0  0
 14 12  1  0  0  0  0
 15  7  1  0  0  0  0
 16  8  1  0  0  0  0
 17  8  2  0  0  0  0
 18 19  2  0  0  0  0
 19 17  1  0  0  0  0
 20 16  2  0  0  0  0
 21 18  1  0  0  0  0
 22 15  1  0  0  0  0
 23 15  2  0  0  0  0
 24 23  1  0  0  0  0
 25 22  2  0  0  0  0
 26 24  2  0  0  0  0
  4  5  1  0  0  0  0
 20 18  1  0  0  0  0
  7 13  1  0  0  0  0
 25 26  1  0  0  0  0
M  END
>  <IDNUMBER>
F1799-0316

>  <Chemical_Name>
1-(4-chlorophenyl)-3-(4-phenylpiperazin-1-yl)pyrrolidine-2,5-dione

>  <PriceCoeff>
1.00

>  <CAS>
299408-64-3

>  <MW>
369.84

>  <Description>
solid

>  <FSP3>
0.30

>  <clogP>
4.14

>  <TPSA>
43.86

>  <Acceptor>
3

>  <Donor>
2

>  <RotBonds>
3

>  <HAC>
26

>  <Collection>
General

>  <PPDS>
+

$$$$
F1799-0413
  Mrv2219 10102508112D          

 25 27  0  0  0  0            999 V2000
    2.4668   -2.3842    0.0000 N   0  0  0  0  0  0  0  0  0  0  0  0
    2.2054   -3.1683    0.0000 C   0  0  0  0  0  0  0  0  0  0  0  0
    1.8019   -1.9028    0.0000 C   0  0  0  0  0  0  0  0  0  0  0  0
    1.1325   -2.3842    0.0000 C   0  0  0  0  0  0  0  0  0  0  0  0
    1.3893   -3.1683    0.0000 C   0  0  0  0  0  0  0  0  0  0  0  0
   -0.6144   -1.0638    0.0000 C   0  0  0  0  0  0  0  0  0  0  0  0
    0.3485   -2.1320    0.0000 N   0  0  0  0  0  0  0  0  0  0  0  0
    0.1697   -1.3251    0.0000 N   0  0  0  0  0  0  0  0  0  0  0  0
    3.2508   -2.1320    0.0000 C   0  0  0  0  0  0  0  0  0  0  0  0
   -0.7794   -0.2613    0.0000 C   0  0  0  0  0  0  0  0  0  0  0  0
    2.6869   -3.8377    0.0000 O   0  0  0  0  0  0  0  0  0  0  0  0
    1.7928   -1.0775    0.0000 O   0  0  0  0  0  0  0  0  0  0  0  0
   -1.2242   -1.6140    0.0000 O   0  0  0  0  0  0  0  0  0  0  0  0
   -1.5681   -0.0046    0.0000 C   0  0  0  0  0  0  0  0  0  0  0  0
    3.8652   -2.6822    0.0000 C   0  0  0  0  0  0  0  0  0  0  0  0
    3.4250   -1.3251    0.0000 C   0  0  0  0  0  0  0  0  0  0  0  0
    4.8189   -1.6140    0.0000 C   0  0  0  0  0  0  0  0  0  0  0  0
    4.2091   -1.0638    0.0000 C   0  0  0  0  0  0  0  0  0  0  0  0
    4.6492   -2.4255    0.0000 C   0  0  0  0  0  0  0  0  0  0  0  0
    5.6029   -1.3664    0.0000 Cl  0  0  0  0  0  0  0  0  0  0  0  0
   -0.1742    0.2889    0.0000 C   0  0  0  0  0  0  0  0  0  0  0  0
   -2.1824   -0.5548    0.0000 C   0  0  0  0  0  0  0  0  0  0  0  0
   -1.7423    0.8069    0.0000 C   0  0  0  0  0  0  0  0  0  0  0  0
   -0.3393    1.1004    0.0000 C   0  0  0  0  0  0  0  0  0  0  0  0
   -1.1233    1.3571    0.0000 C   0  0  0  0  0  0  0  0  0  0  0  0
  2  1  1  0  0  0  0
  3  1  1  0  0  0  0
  4  3  1  0  0  0  0
  5  2  1  0  0  0  0
  6  8  1  0  0  0  0
  7  4  1  0  0  0  0
  8  7  1  0  0  0  0
  9  1  1  0  0  0  0
 10  6  1  0  0  0  0
 11  2  2  0  0  0  0
 12  3  2  0  0  0  0
 13  6  2  0  0  0  0
 14 10  2  0  0  0  0
 15  9  1  0  0  0  0
 16  9  2  0  0  0  0
 17 18  2  0  0  0  0
 18 16  1  0  0  0  0
 19 15  2  0  0  0  0
 20 17  1  0  0  0  0
 21 10  1  0  0  0  0
 22 14  1  0  0  0  0
 23 14  1  0  0  0  0
 24 21  2  0  0  0  0
 25 24  1  0  0  0  0
  5  4  1  0  0  0  0
 17 19  1  0  0  0  0
 23 25  2  0  0  0  0
M  END
>  <IDNUMBER>
F1799-0413

>  <Chemical_Name>
N'-[1-(4-chlorophenyl)-2,5-dioxopyrrolidin-3-yl]-2-methylbenzohydrazide

>  <PriceCoeff>
1.00

>  <CAS>
485394-86-3

>  <MW>
357.79

>  <Description>
solid

>  <FSP3>
0.17

>  <clogP>
2.98

>  <TPSA>
78.51

>  <Acceptor>
3

>  <Donor>
2

>  <RotBonds>
4

>  <HAC>
25

>  <Collection>
General

>  <PPDS>
+

$$$$
F1799-0414
  Mrv2219 10102508112D          

 25 27  0  0  0  0            999 V2000
    2.4668   -2.3842    0.0000 N   0  0  0  0  0  0  0  0  0  0  0  0
    2.2054   -3.1683    0.0000 C   0  0  0  0  0  0  0  0  0  0  0  0
    1.8019   -1.9028    0.0000 C   0  0  0  0  0  0  0  0  0  0  0  0
    1.1325   -2.3842    0.0000 C   0  0  0  0  0  0  0  0  0  0  0  0
    1.3893   -3.1683    0.0000 C   0  0  0  0  0  0  0  0  0  0  0  0
   -0.6144   -1.0638    0.0000 C   0  0  0  0  0  0  0  0  0  0  0  0
    0.3485   -2.1320    0.0000 N   0  0  0  0  0  0  0  0  0  0  0  0
    0.1697   -1.3251    0.0000 N   0  0  0  0  0  0  0  0  0  0  0  0
    3.2508   -2.1320    0.0000 C   0  0  0  0  0  0  0  0  0  0  0  0
   -0.7794   -0.2613    0.0000 C   0  0  0  0  0  0  0  0  0  0  0  0
    2.6869   -3.8377    0.0000 O   0  0  0  0  0  0  0  0  0  0  0  0
    1.7928   -1.0775    0.0000 O   0  0  0  0  0  0  0  0  0  0  0  0
   -1.2242   -1.6140    0.0000 O   0  0  0  0  0  0  0  0  0  0  0  0
   -1.5681   -0.0046    0.0000 C   0  0  0  0  0  0  0  0  0  0  0  0
    3.8652   -2.6822    0.0000 C   0  0  0  0  0  0  0  0  0  0  0  0
    3.4250   -1.3251    0.0000 C   0  0  0  0  0  0  0  0  0  0  0  0
    4.8189   -1.6140    0.0000 C   0  0  0  0  0  0  0  0  0  0  0  0
   -1.7423    0.8069    0.0000 C   0  0  0  0  0  0  0  0  0  0  0  0
    4.6492   -2.4255    0.0000 C   0  0  0  0  0  0  0  0  0  0  0  0
    4.2091   -1.0638    0.0000 C   0  0  0  0  0  0  0  0  0  0  0  0
    5.6029   -1.3664    0.0000 Cl  0  0  0  0  0  0  0  0  0  0  0  0
   -0.1742    0.2889    0.0000 C   0  0  0  0  0  0  0  0  0  0  0  0
   -0.3393    1.1004    0.0000 C   0  0  0  0  0  0  0  0  0  0  0  0
   -1.1233    1.3571    0.0000 C   0  0  0  0  0  0  0  0  0  0  0  0
   -2.5263    1.0545    0.0000 C   0  0  0  0  0  0  0  0  0  0  0  0
  2  1  1  0  0  0  0
  3  1  1  0  0  0  0
  4  3  1  0  0  0  0
  5  2  1  0  0  0  0
  6  8  1  0  0  0  0
  7  4  1  0  0  0  0
  8  7  1  0  0  0  0
  9  1  1  0  0  0  0
 10  6  1  0  0  0  0
 11  2  2  0  0  0  0
 12  3  2  0  0  0  0
 13  6  2  0  0  0  0
 14 10  2  0  0  0  0
 15  9  1  0  0  0  0
 16  9  2  0  0  0  0
 17 20  2  0  0  0  0
 18 14  1  0  0  0  0
 19 15  2  0  0  0  0
 20 16  1  0  0  0  0
 21 17  1  0  0  0  0
 22 10  1  0  0  0  0
 23 22  2  0  0  0  0
 24 23  1  0  0  0  0
 25 18  1  0  0  0  0
  5  4  1  0  0  0  0
 17 19  1  0  0  0  0
 18 24  2  0  0  0  0
M  END
>  <IDNUMBER>
F1799-0414

>  <Chemical_Name>
N'-[1-(4-chlorophenyl)-2,5-dioxopyrrolidin-3-yl]-3-methylbenzohydrazide

>  <PriceCoeff>
1.00

>  <CAS>
485394-87-4

>  <MW>
357.79

>  <Description>
solid

>  <FSP3>
0.17

>  <clogP>
3.32

>  <TPSA>
78.51

>  <Acceptor>
3

>  <Donor>
2

>  <RotBonds>
4

>  <HAC>
25

>  <Collection>
General

>  <PPDS>
+

$$$$
F1799-0447
  Mrv2219 10102508112D          

 25 27  0  0  0  0            999 V2000
    2.3438   -1.1329    0.0000 N   0  0  0  0  0  0  0  0  0  0  0  0
    2.0915   -1.9264    0.0000 C   0  0  0  0  0  0  0  0  0  0  0  0
    1.6787   -0.6513    0.0000 C   0  0  0  0  0  0  0  0  0  0  0  0
    1.0091   -1.1329    0.0000 C   0  0  0  0  0  0  0  0  0  0  0  0
    1.2659   -1.9264    0.0000 C   0  0  0  0  0  0  0  0  0  0  0  0
   -0.7384    0.1789    0.0000 C   0  0  0  0  0  0  0  0  0  0  0  0
    0.2248   -0.8853    0.0000 N   0  0  0  0  0  0  0  0  0  0  0  0
    0.0459   -0.0734    0.0000 N   0  0  0  0  0  0  0  0  0  0  0  0
    3.1281   -0.8853    0.0000 C   0  0  0  0  0  0  0  0  0  0  0  0
   -0.9035    0.9861    0.0000 C   0  0  0  0  0  0  0  0  0  0  0  0
    2.5731   -2.5915    0.0000 O   0  0  0  0  0  0  0  0  0  0  0  0
    1.6696    0.1743    0.0000 O   0  0  0  0  0  0  0  0  0  0  0  0
   -1.3485   -0.3715    0.0000 O   0  0  0  0  0  0  0  0  0  0  0  0
   -1.6925    1.2475    0.0000 C   0  0  0  0  0  0  0  0  0  0  0  0
    3.7427   -1.4356    0.0000 C   0  0  0  0  0  0  0  0  0  0  0  0
    3.3024   -0.0734    0.0000 C   0  0  0  0  0  0  0  0  0  0  0  0
    4.6967   -0.3715    0.0000 C   0  0  0  0  0  0  0  0  0  0  0  0
    4.0867    0.1789    0.0000 C   0  0  0  0  0  0  0  0  0  0  0  0
    4.5270   -1.1833    0.0000 C   0  0  0  0  0  0  0  0  0  0  0  0
    5.4810   -0.1147    0.0000 Br  0  0  0  0  0  0  0  0  0  0  0  0
   -0.2981    1.5365    0.0000 C   0  0  0  0  0  0  0  0  0  0  0  0
   -2.3070    0.6880    0.0000 C   0  0  0  0  0  0  0  0  0  0  0  0
   -1.8667    2.0502    0.0000 C   0  0  0  0  0  0  0  0  0  0  0  0
   -0.4632    2.3483    0.0000 C   0  0  0  0  0  0  0  0  0  0  0  0
   -1.2475    2.6006    0.0000 C   0  0  0  0  0  0  0  0  0  0  0  0
  2  1  1  0  0  0  0
  3  1  1  0  0  0  0
  4  3  1  0  0  0  0
  5  2  1  0  0  0  0
  6  8  1  0  0  0  0
  7  4  1  0  0  0  0
  8  7  1  0  0  0  0
  9  1  1  0  0  0  0
 10  6  1  0  0  0  0
 11  2  2  0  0  0  0
 12  3  2  0  0  0  0
 13  6  2  0  0  0  0
 14 10  2  0  0  0  0
 15  9  1  0  0  0  0
 16  9  2  0  0  0  0
 17 18  2  0  0  0  0
 18 16  1  0  0  0  0
 19 15  2  0  0  0  0
 20 17  1  0  0  0  0
 21 10  1  0  0  0  0
 22 14  1  0  0  0  0
 23 14  1  0  0  0  0
 24 21  2  0  0  0  0
 25 24  1  0  0  0  0
  5  4  1  0  0  0  0
 17 19  1  0  0  0  0
 23 25  2  0  0  0  0
M  END
>  <IDNUMBER>
F1799-0447

>  <Chemical_Name>
N'-[1-(4-bromophenyl)-2,5-dioxopyrrolidin-3-yl]-2-methylbenzohydrazide

>  <PriceCoeff>
1.00

>  <CAS>
485394-63-6

>  <MW>
402.24

>  <Description>
solid

>  <FSP3>
0.17

>  <clogP>
3.13

>  <TPSA>
78.51

>  <Acceptor>
3

>  <Donor>
2

>  <RotBonds>
4

>  <HAC>
25

>  <Collection>
General

>  <PPDS>
+

$$$$
F1799-0448
  Mrv2219 10102508112D          

 25 27  0  0  0  0            999 V2000
    2.3438   -1.1329    0.0000 N   0  0  0  0  0  0  0  0  0  0  0  0
    2.0915   -1.9264    0.0000 C   0  0  0  0  0  0  0  0  0  0  0  0
    1.6787   -0.6513    0.0000 C   0  0  0  0  0  0  0  0  0  0  0  0
    1.0091   -1.1329    0.0000 C   0  0  0  0  0  0  0  0  0  0  0  0
    1.2659   -1.9264    0.0000 C   0  0  0  0  0  0  0  0  0  0  0  0
   -0.7384    0.1789    0.0000 C   0  0  0  0  0  0  0  0  0  0  0  0
    0.2248   -0.8853    0.0000 N   0  0  0  0  0  0  0  0  0  0  0  0
    0.0459   -0.0734    0.0000 N   0  0  0  0  0  0  0  0  0  0  0  0
    3.1281   -0.8853    0.0000 C   0  0  0  0  0  0  0  0  0  0  0  0
   -0.9035    0.9861    0.0000 C   0  0  0  0  0  0  0  0  0  0  0  0
    2.5731   -2.5915    0.0000 O   0  0  0  0  0  0  0  0  0  0  0  0
    1.6696    0.1743    0.0000 O   0  0  0  0  0  0  0  0  0  0  0  0
   -1.3485   -0.3715    0.0000 O   0  0  0  0  0  0  0  0  0  0  0  0
   -1.6925    1.2475    0.0000 C   0  0  0  0  0  0  0  0  0  0  0  0
    3.7427   -1.4356    0.0000 C   0  0  0  0  0  0  0  0  0  0  0  0
    3.3024   -0.0734    0.0000 C   0  0  0  0  0  0  0  0  0  0  0  0
    4.6967   -0.3715    0.0000 C   0  0  0  0  0  0  0  0  0  0  0  0
   -1.8667    2.0502    0.0000 C   0  0  0  0  0  0  0  0  0  0  0  0
    4.5270   -1.1833    0.0000 C   0  0  0  0  0  0  0  0  0  0  0  0
    4.0867    0.1789    0.0000 C   0  0  0  0  0  0  0  0  0  0  0  0
    5.4810   -0.1147    0.0000 Br  0  0  0  0  0  0  0  0  0  0  0  0
   -0.2981    1.5365    0.0000 C   0  0  0  0  0  0  0  0  0  0  0  0
   -0.4632    2.3483    0.0000 C   0  0  0  0  0  0  0  0  0  0  0  0
   -1.2475    2.6006    0.0000 C   0  0  0  0  0  0  0  0  0  0  0  0
   -2.6510    2.3070    0.0000 C   0  0  0  0  0  0  0  0  0  0  0  0
  2  1  1  0  0  0  0
  3  1  1  0  0  0  0
  4  3  1  0  0  0  0
  5  2  1  0  0  0  0
  6  8  1  0  0  0  0
  7  4  1  0  0  0  0
  8  7  1  0  0  0  0
  9  1  1  0  0  0  0
 10  6  1  0  0  0  0
 11  2  2  0  0  0  0
 12  3  2  0  0  0  0
 13  6  2  0  0  0  0
 14 10  2  0  0  0  0
 15  9  1  0  0  0  0
 16  9  2  0  0  0  0
 17 20  2  0  0  0  0
 18 14  1  0  0  0  0
 19 15  2  0  0  0  0
 20 16  1  0  0  0  0
 21 17  1  0  0  0  0
 22 10  1  0  0  0  0
 23 22  2  0  0  0  0
 24 23  1  0  0  0  0
 25 18  1  0  0  0  0
  5  4  1  0  0  0  0
 17 19  1  0  0  0  0
 18 24  2  0  0  0  0
M  END
>  <IDNUMBER>
F1799-0448

>  <Chemical_Name>
N'-[1-(4-bromophenyl)-2,5-dioxopyrrolidin-3-yl]-3-methylbenzohydrazide

>  <PriceCoeff>
1.00

>  <CAS>
485394-64-7

>  <MW>
402.24

>  <Description>
solid

>  <FSP3>
0.17

>  <clogP>
3.47

>  <TPSA>
78.51

>  <Acceptor>
3

>  <Donor>
2

>  <RotBonds>
4

>  <HAC>
25

>  <Collection>
General

>  <PPDS>
+

$$$$
F1799-0449
  Mrv2219 10102508112D          

 25 27  0  0  0  0            999 V2000
    2.3438   -1.1329    0.0000 N   0  0  0  0  0  0  0  0  0  0  0  0
    2.0915   -1.9264    0.0000 C   0  0  0  0  0  0  0  0  0  0  0  0
    1.6787   -0.6513    0.0000 C   0  0  0  0  0  0  0  0  0  0  0  0
    1.0091   -1.1329    0.0000 C   0  0  0  0  0  0  0  0  0  0  0  0
    1.2659   -1.9264    0.0000 C   0  0  0  0  0  0  0  0  0  0  0  0
    0.2248   -0.8853    0.0000 N   0  0  0  0  0  0  0  0  0  0  0  0
   -0.7384    0.1789    0.0000 C   0  0  0  0  0  0  0  0  0  0  0  0
    0.0459   -0.0734    0.0000 N   0  0  0  0  0  0  0  0  0  0  0  0
    3.1281   -0.8853    0.0000 C   0  0  0  0  0  0  0  0  0  0  0  0
    2.5731   -2.5915    0.0000 O   0  0  0  0  0  0  0  0  0  0  0  0
    1.6696    0.1743    0.0000 O   0  0  0  0  0  0  0  0  0  0  0  0
   -0.9035    0.9861    0.0000 C   0  0  0  0  0  0  0  0  0  0  0  0
   -1.3485   -0.3715    0.0000 O   0  0  0  0  0  0  0  0  0  0  0  0
    3.3024   -0.0734    0.0000 C   0  0  0  0  0  0  0  0  0  0  0  0
    3.7427   -1.4356    0.0000 C   0  0  0  0  0  0  0  0  0  0  0  0
   -1.6925    1.2475    0.0000 C   0  0  0  0  0  0  0  0  0  0  0  0
   -0.2981    1.5365    0.0000 C   0  0  0  0  0  0  0  0  0  0  0  0
    4.6967   -0.3715    0.0000 C   0  0  0  0  0  0  0  0  0  0  0  0
    4.5270   -1.1833    0.0000 C   0  0  0  0  0  0  0  0  0  0  0  0
    4.0867    0.1789    0.0000 C   0  0  0  0  0  0  0  0  0  0  0  0
   -0.4632    2.3483    0.0000 C   0  0  0  0  0  0  0  0  0  0  0  0
   -1.8667    2.0502    0.0000 C   0  0  0  0  0  0  0  0  0  0  0  0
   -1.2475    2.6006    0.0000 C   0  0  0  0  0  0  0  0  0  0  0  0
    5.4810   -0.1147    0.0000 Br  0  0  0  0  0  0  0  0  0  0  0  0
   -1.4264    3.4078    0.0000 C   0  0  0  0  0  0  0  0  0  0  0  0
  2  1  1  0  0  0  0
  3  1  1  0  0  0  0
  4  3  1  0  0  0  0
  5  2  1  0  0  0  0
  6  4  1  0  0  0  0
  7  8  1  0  0  0  0
  8  6  1  0  0  0  0
  9  1  1  0  0  0  0
 10  2  2  0  0  0  0
 11  3  2  0  0  0  0
 12  7  1  0  0  0  0
 13  7  2  0  0  0  0
 14  9  2  0  0  0  0
 15  9  1  0  0  0  0
 16 12  2  0  0  0  0
 17 12  1  0  0  0  0
 18 19  1  0  0  0  0
 19 15  2  0  0  0  0
 20 14  1  0  0  0  0
 21 17  2  0  0  0  0
 22 16  1  0  0  0  0
 23 21  1  0  0  0  0
 24 18  1  0  0  0  0
 25 23  1  0  0  0  0
  5  4  1  0  0  0  0
 20 18  2  0  0  0  0
 22 23  2  0  0  0  0
M  END
>  <IDNUMBER>
F1799-0449

>  <Chemical_Name>
N'-[1-(4-bromophenyl)-2,5-dioxopyrrolidin-3-yl]-4-methylbenzohydrazide

>  <PriceCoeff>
1.00

>  <CAS>
485394-65-8

>  <MW>
402.24

>  <Description>
solid

>  <FSP3>
0.17

>  <clogP>
3.47

>  <TPSA>
78.51

>  <Acceptor>
3

>  <Donor>
2

>  <RotBonds>
4

>  <HAC>
25

>  <Collection>
General

>  <PPDS>
+

$$$$
F1799-0488
  Mrv2219 10102508112D          

 27 30  0  0  0  0            999 V2000
    3.8406    0.5707    0.0000 N   0  0  0  0  0  0  0  0  0  0  0  0
    3.3975   -0.1233    0.0000 C   0  0  0  0  0  0  0  0  0  0  0  0
    3.3427    1.2010    0.0000 C   0  0  0  0  0  0  0  0  0  0  0  0
    2.6076    0.0959    0.0000 C   0  0  0  0  0  0  0  0  0  0  0  0
    2.5665    0.9133    0.0000 C   0  0  0  0  0  0  0  0  0  0  0  0
    1.9362   -0.3882    0.0000 N   0  0  0  0  0  0  0  0  0  0  0  0
    0.5937   -1.3609    0.0000 N   0  0  0  0  0  0  0  0  0  0  0  0
    4.6625    0.6255    0.0000 C   0  0  0  0  0  0  0  0  0  0  0  0
    3.6899   -0.8951    0.0000 O   0  0  0  0  0  0  0  0  0  0  0  0
    3.5803    1.9955    0.0000 O   0  0  0  0  0  0  0  0  0  0  0  0
    2.0184   -1.2102    0.0000 C   0  0  0  0  0  0  0  0  0  0  0  0
    1.1828   -0.0548    0.0000 C   0  0  0  0  0  0  0  0  0  0  0  0
   -0.0776   -1.8540    0.0000 C   0  0  0  0  0  0  0  0  0  0  0  0
    1.3563   -1.6897    0.0000 C   0  0  0  0  0  0  0  0  0  0  0  0
    0.5115   -0.5389    0.0000 C   0  0  0  0  0  0  0  0  0  0  0  0
    5.1237   -0.0594    0.0000 C   0  0  0  0  0  0  0  0  0  0  0  0
   -0.8311   -1.5116    0.0000 C   0  0  0  0  0  0  0  0  0  0  0  0
    5.9503   -0.0046    0.0000 C   0  0  0  0  0  0  0  0  0  0  0  0
    4.7584   -0.7992    0.0000 C   0  0  0  0  0  0  0  0  0  0  0  0
   -1.5024   -1.9910    0.0000 C   0  0  0  0  0  0  0  0  0  0  0  0
   -0.9133   -0.6987    0.0000 C   0  0  0  0  0  0  0  0  0  0  0  0
   -1.6667   -0.3562    0.0000 C   0  0  0  0  0  0  0  0  0  0  0  0
   -2.2468   -1.6577    0.0000 C   0  0  0  0  0  0  0  0  0  0  0  0
    5.2196   -1.4842    0.0000 C   0  0  0  0  0  0  0  0  0  0  0  0
    6.4024   -0.6895    0.0000 C   0  0  0  0  0  0  0  0  0  0  0  0
   -2.3290   -0.8357    0.0000 C   0  0  0  0  0  0  0  0  0  0  0  0
    6.0325   -1.4294    0.0000 C   0  0  0  0  0  0  0  0  0  0  0  0
  2  1  1  0  0  0  0
  3  1  1  0  0  0  0
  4  2  1  0  0  0  0
  5  3  1  0  0  0  0
  6  4  1  0  0  0  0
  7 15  1  0  0  0  0
  8  1  1  0  0  0  0
  9  2  2  0  0  0  0
 10  3  2  0  0  0  0
 11  6  1  0  0  0  0
 12  6  1  0  0  0  0
 13  7  1  0  0  0  0
 14 11  1  0  0  0  0
 15 12  1  0  0  0  0
 16  8  1  0  0  0  0
 17 13  1  0  0  0  0
 18 16  2  0  0  0  0
 19 16  1  0  0  0  0
 20 17  2  0  0  0  0
 21 17  1  0  0  0  0
 22 21  2  0  0  0  0
 23 20  1  0  0  0  0
 24 19  2  0  0  0  0
 25 18  1  0  0  0  0
 26 22  1  0  0  0  0
 27 24  1  0  0  0  0
  4  5  1  0  0  0  0
 25 27  2  0  0  0  0
 14  7  1  0  0  0  0
 23 26  2  0  0  0  0
M  END
>  <IDNUMBER>
F1799-0488

>  <Chemical_Name>
1-benzyl-3-(4-benzylpiperazin-1-yl)pyrrolidine-2,5-dione

>  <PriceCoeff>
1.00

>  <CAS>
491615-86-2

>  <MW>
363.45

>  <Description>
solid

>  <FSP3>
0.36

>  <clogP>
4.22

>  <TPSA>
43.86

>  <Acceptor>
4

>  <Donor>
2

>  <RotBonds>
5

>  <HAC>
27

>  <Collection>
General

>  <PPDS>
+

$$$$
F1799-0504
  Mrv2219 10102508112D          

 25 29  0  0  0  0            999 V2000
    1.9515   -2.3690    0.0000 N   0  0  0  0  0  0  0  0  0  0  0  0
    1.4568   -1.7427    0.0000 C   0  0  0  0  0  0  0  0  0  0  0  0
    1.5112   -3.0543    0.0000 C   0  0  0  0  0  0  0  0  0  0  0  0
    0.6853   -2.0196    0.0000 C   0  0  0  0  0  0  0  0  0  0  0  0
    0.7262   -2.8364    0.0000 C   0  0  0  0  0  0  0  0  0  0  0  0
   -0.8033   -1.8516    0.0000 C   0  0  0  0  0  0  0  0  0  0  0  0
    0.0046   -1.5703    0.0000 N   0  0  0  0  0  0  0  0  0  0  0  0
    2.9454   -2.8909    0.0000 C   0  0  0  0  0  0  0  0  0  0  0  0
    1.6928   -0.9530    0.0000 O   0  0  0  0  0  0  0  0  0  0  0  0
   -2.0649   -2.4688    0.0000 C   0  0  0  0  0  0  0  0  0  0  0  0
   -2.3962   -1.8516    0.0000 C   0  0  0  0  0  0  0  0  0  0  0  0
   -1.6065   -0.3812    0.0000 C   0  0  0  0  0  0  0  0  0  0  0  0
    1.8017   -3.8167    0.0000 O   0  0  0  0  0  0  0  0  0  0  0  0
   -1.6065   -2.3327    0.0000 C   0  0  0  0  0  0  0  0  0  0  0  0
   -0.8033   -0.8713    0.0000 C   0  0  0  0  0  0  0  0  0  0  0  0
   -1.4114   -2.7820    0.0000 C   0  0  0  0  0  0  0  0  0  0  0  0
   -2.3962   -0.8713    0.0000 C   0  0  0  0  0  0  0  0  0  0  0  0
   -2.9136   -2.6186    0.0000 C   0  0  0  0  0  0  0  0  0  0  0  0
   -2.0921   -1.0892    0.0000 C   0  0  0  0  0  0  0  0  0  0  0  0
    3.5126   -2.2918    0.0000 C   0  0  0  0  0  0  0  0  0  0  0  0
    3.9528   -2.9862    0.0000 C   0  0  0  0  0  0  0  0  0  0  0  0
    3.8848   -1.5703    0.0000 C   0  0  0  0  0  0  0  0  0  0  0  0
    4.7017   -1.5294    0.0000 C   0  0  0  0  0  0  0  0  0  0  0  0
    4.7697   -2.9454    0.0000 C   0  0  0  0  0  0  0  0  0  0  0  0
    5.1464   -2.2192    0.0000 C   0  0  0  0  0  0  0  0  0  0  0  0
  2  1  1  0  0  0  0
  3  1  1  0  0  0  0
  4  2  1  0  0  0  0
  5  3  1  0  0  0  0
  6  7  1  0  0  0  0
  7  4  1  0  0  0  0
  8  1  1  0  0  0  0
  9  2  2  0  0  0  0
 10 16  1  0  0  0  0
 11 14  1  0  0  0  0
 12 15  1  0  0  0  0
 13  3  2  0  0  0  0
 14  6  1  0  0  0  0
 15  6  1  0  0  0  0
 16  6  1  0  0  0  0
 17 12  1  0  0  0  0
 18 10  1  0  0  0  0
 19 10  1  0  0  0  0
 20  8  1  0  0  0  0
 21 20  1  0  0  0  0
 22 20  2  0  0  0  0
 23 22  1  0  0  0  0
 24 21  2  0  0  0  0
 25 23  2  0  0  0  0
  5  4  1  0  0  0  0
 25 24  1  0  0  0  0
 19 12  1  0  0  0  0
 11 18  1  0  0  0  0
 11 17  1  0  0  0  0
M  END
>  <IDNUMBER>
F1799-0504

>  <Chemical_Name>
3-[(adamantan-1-yl)amino]-1-benzylpyrrolidine-2,5-dione

>  <PriceCoeff>
1.00

>  <CAS>
1007974-49-3

>  <MW>
338.44

>  <Description>
solid

>  <FSP3>
0.62

>  <clogP>
4.35

>  <TPSA>
49.41

>  <Acceptor>
2

>  <Donor>
1

>  <RotBonds>
4

>  <HAC>
25

>  <Collection>
General

>  <PPDS>
+

$$$$
F1799-0540
  Mrv2219 10102508112D          

 18 19  0  0  0  0            999 V2000
   -0.2853   -0.9229    0.0000 N   0  0  0  0  0  0  0  0  0  0  0  0
   -0.7383   -1.5941    0.0000 C   0  0  0  0  0  0  0  0  0  0  0  0
   -0.7998   -0.2741    0.0000 C   0  0  0  0  0  0  0  0  0  0  0  0
   -1.5213   -1.3816    0.0000 C   0  0  0  0  0  0  0  0  0  0  0  0
   -1.5717   -0.5761    0.0000 C   0  0  0  0  0  0  0  0  0  0  0  0
   -2.2988   -0.1231    0.0000 S   0  0  0  0  0  0  0  0  0  0  0  0
    0.5594   -0.9229    0.0000 C   0  0  0  0  0  0  0  0  0  0  0  0
   -0.4698   -2.3884    0.0000 O   0  0  0  0  0  0  0  0  0  0  0  0
   -0.5817    0.5370    0.0000 O   0  0  0  0  0  0  0  0  0  0  0  0
   -3.0147    1.1018    0.0000 C   0  0  0  0  0  0  0  0  0  0  0  0
   -2.9979    1.9408    0.0000 O   0  0  0  0  0  0  0  0  0  0  0  0
   -2.2988    0.6991    0.0000 C   0  0  0  0  0  0  0  0  0  0  0  0
   -3.7083    0.6991    0.0000 O   0  0  0  0  0  0  0  0  0  0  0  0
    0.9621   -0.1734    0.0000 C   0  0  0  0  0  0  0  0  0  0  0  0
    0.9900   -1.6109    0.0000 C   0  0  0  0  0  0  0  0  0  0  0  0
    1.8346   -1.5829    0.0000 C   0  0  0  0  0  0  0  0  0  0  0  0
    1.7843   -0.1567    0.0000 C   0  0  0  0  0  0  0  0  0  0  0  0
    2.2541   -0.8725    0.0000 C   0  0  0  0  0  0  0  0  0  0  0  0
  2  1  1  0  0  0  0
  3  1  1  0  0  0  0
  4  2  1  0  0  0  0
  5  3  1  0  0  0  0
  6  5  1  0  0  0  0
  7  1  1  0  0  0  0
  8  2  2  0  0  0  0
  9  3  2  0  0  0  0
 10 12  1  0  0  0  0
 11 10  2  0  0  0  0
 12  6  1  0  0  0  0
 13 10  1  0  0  0  0
 14  7  2  0  0  0  0
 15  7  1  0  0  0  0
 16 15  2  0  0  0  0
 17 14  1  0  0  0  0
 18 16  1  0  0  0  0
  5  4  1  0  0  0  0
 18 17  2  0  0  0  0
M  END
>  <IDNUMBER>
F1799-0540

>  <Chemical_Name>
2-[(2,5-dioxo-1-phenylpyrrolidin-3-yl)sulfanyl]acetic acid

>  <PriceCoeff>
1.50

>  <MW>
265.29

>  <Description>
solid

>  <FSP3>
0.25

>  <clogP>
0.92

>  <TPSA>
99.98

>  <Acceptor>
4

>  <Donor>
0

>  <RotBonds>
4

>  <HAC>
18

>  <Collection>
Advanced

$$$$
F1800-0006
  Mrv2219 10102508112D          

 18 19  0  0  0  0            999 V2000
   -3.7672    2.3764    0.0000 N   0  0  0  0  0  0  0  0  0  0  0  0
   -3.3579    1.6539    0.0000 C   0  0  0  0  0  0  0  0  0  0  0  0
   -3.3412    3.0906    0.0000 C   0  0  0  0  0  0  0  0  0  0  0  0
   -5.0076    1.6664    0.0000 C   0  0  0  0  0  0  0  0  0  0  0  0
   -4.5941    2.3806    0.0000 C   0  0  0  0  0  0  0  0  0  0  0  0
   -2.1133    2.3513    0.0000 S   0  0  0  0  0  0  0  0  0  0  0  0
   -4.5941    0.9522    0.0000 N   0  0  0  0  0  0  0  0  0  0  0  0
   -3.7797    0.9397    0.0000 O   0  0  0  0  0  0  0  0  0  0  0  0
   -3.7463    3.8090    0.0000 O   0  0  0  0  0  0  0  0  0  0  0  0
   -5.8345    1.6747    0.0000 O   0  0  0  0  0  0  0  0  0  0  0  0
   -2.5142    3.0697    0.0000 C   0  0  0  0  0  0  0  0  0  0  0  0
   -2.5393    1.6497    0.0000 C   0  0  0  0  0  0  0  0  0  0  0  0
   -5.0076    0.2381    0.0000 C   0  0  0  0  0  0  0  0  0  0  0  0
   -5.8262    0.2381    0.0000 C   0  0  0  0  0  0  0  0  0  0  0  0
   -4.5941   -0.4761    0.0000 C   0  0  0  0  0  0  0  0  0  0  0  0
   -4.9951   -1.1903    0.0000 C   0  0  0  0  0  0  0  0  0  0  0  0
   -6.2314   -0.4761    0.0000 C   0  0  0  0  0  0  0  0  0  0  0  0
   -5.8262   -1.1945    0.0000 C   0  0  0  0  0  0  0  0  0  0  0  0
  2  1  1  0  0  0  0
  3  1  1  0  0  0  0
  4  5  1  0  0  0  0
  5  1  1  0  0  0  0
  6 11  1  0  0  0  0
  7  4  1  0  0  0  0
  8  2  2  0  0  0  0
  9  3  2  0  0  0  0
 10  4  2  0  0  0  0
 11  3  1  0  0  0  0
 12  2  1  0  0  0  0
 13  7  1  0  0  0  0
 14 13  2  0  0  0  0
 15 13  1  0  0  0  0
 16 15  2  0  0  0  0
 17 14  1  0  0  0  0
 18 16  1  0  0  0  0
 12  6  1  0  0  0  0
 17 18  2  0  0  0  0
M  END
>  <IDNUMBER>
F1800-0006

>  <Chemical_Name>
2-(3,5-dioxothiomorpholin-4-yl)-N-phenylacetamide

>  <PriceCoeff>
1.50

>  <MW>
264.30

>  <Description>
solid

>  <FSP3>
0.25

>  <clogP>
1.45

>  <TPSA>
65.38

>  <Acceptor>
3

>  <Donor>
1

>  <RotBonds>
3

>  <HAC>
18

>  <Collection>
Advanced

$$$$
F1800-0007
  Mrv2219 10102508112D          

 23 24  0  0  0  0            999 V2000
   -3.7583    2.3708    0.0000 N   0  0  0  0  0  0  0  0  0  0  0  0
   -3.3500    1.6500    0.0000 C   0  0  0  0  0  0  0  0  0  0  0  0
   -3.3333    3.0833    0.0000 C   0  0  0  0  0  0  0  0  0  0  0  0
   -4.9958    1.6708    0.0000 C   0  0  0  0  0  0  0  0  0  0  0  0
   -4.5833    2.3750    0.0000 C   0  0  0  0  0  0  0  0  0  0  0  0
   -6.2792   -1.8917    0.0000 C   0  0  0  0  0  0  0  0  0  0  0  0
   -2.1083    2.3458    0.0000 S   0  0  0  0  0  0  0  0  0  0  0  0
   -4.5958    0.9458    0.0000 N   0  0  0  0  0  0  0  0  0  0  0  0
   -5.8583   -1.1792    0.0000 C   0  0  0  0  0  0  0  0  0  0  0  0
   -3.7708    0.9375    0.0000 O   0  0  0  0  0  0  0  0  0  0  0  0
   -3.7375    3.8000    0.0000 O   0  0  0  0  0  0  0  0  0  0  0  0
   -5.8208    1.6833    0.0000 O   0  0  0  0  0  0  0  0  0  0  0  0
   -7.1042   -1.8792    0.0000 O   0  0  0  0  0  0  0  0  0  0  0  0
   -5.0333   -1.1875    0.0000 C   0  0  0  0  0  0  0  0  0  0  0  0
   -6.2542   -0.4625    0.0000 C   0  0  0  0  0  0  0  0  0  0  0  0
   -5.0208    0.2375    0.0000 C   0  0  0  0  0  0  0  0  0  0  0  0
   -2.5083    3.0625    0.0000 C   0  0  0  0  0  0  0  0  0  0  0  0
   -2.5333    1.6458    0.0000 C   0  0  0  0  0  0  0  0  0  0  0  0
   -5.8833   -2.6042    0.0000 O   0  0  0  0  0  0  0  0  0  0  0  0
   -5.8458    0.2500    0.0000 C   0  0  0  0  0  0  0  0  0  0  0  0
   -4.6083   -0.4792    0.0000 C   0  0  0  0  0  0  0  0  0  0  0  0
   -6.2917   -3.3167    0.0000 C   0  0  0  0  0  0  0  0  0  0  0  0
   -5.8958   -4.0292    0.0000 C   0  0  0  0  0  0  0  0  0  0  0  0
  2  1  1  0  0  0  0
  3  1  1  0  0  0  0
  4  5  1  0  0  0  0
  5  1  1  0  0  0  0
  6  9  1  0  0  0  0
  7 17  1  0  0  0  0
  8  4  1  0  0  0  0
  9 14  1  0  0  0  0
 10  2  2  0  0  0  0
 11  3  2  0  0  0  0
 12  4  2  0  0  0  0
 13  6  2  0  0  0  0
 14 21  2  0  0  0  0
 15 20  1  0  0  0  0
 16  8  1  0  0  0  0
 17  3  1  0  0  0  0
 18  2  1  0  0  0  0
 19  6  1  0  0  0  0
 20 16  2  0  0  0  0
 21 16  1  0  0  0  0
 22 19  1  0  0  0  0
 23 22  1  0  0  0  0
 18  7  1  0  0  0  0
 15  9  2  0  0  0  0
M  END
>  <IDNUMBER>
F1800-0007

>  <Chemical_Name>
ethyl 4-[2-(3,5-dioxothiomorpholin-4-yl)acetamido]benzoate

>  <PriceCoeff>
1.00

>  <CAS>
868215-01-4

>  <MW>
336.36

>  <Description>
solid

>  <FSP3>
0.33

>  <clogP>
2.42

>  <TPSA>
118.08

>  <Acceptor>
5

>  <Donor>
1

>  <RotBonds>
6

>  <HAC>
23

>  <Collection>
General

>  <PPDS>
+

$$$$
F1800-0008
  Mrv2219 10102508112D          

 20 21  0  0  0  0            999 V2000
   -3.7700    2.3782    0.0000 N   0  0  0  0  0  0  0  0  0  0  0  0
   -3.3604    1.6551    0.0000 C   0  0  0  0  0  0  0  0  0  0  0  0
   -3.3437    3.0929    0.0000 C   0  0  0  0  0  0  0  0  0  0  0  0
   -5.0114    1.6677    0.0000 C   0  0  0  0  0  0  0  0  0  0  0  0
   -4.5976    2.3824    0.0000 C   0  0  0  0  0  0  0  0  0  0  0  0
   -2.1149    2.3531    0.0000 S   0  0  0  0  0  0  0  0  0  0  0  0
   -4.5976    0.9404    0.0000 N   0  0  0  0  0  0  0  0  0  0  0  0
   -3.7825    0.9404    0.0000 O   0  0  0  0  0  0  0  0  0  0  0  0
   -3.7491    3.8118    0.0000 O   0  0  0  0  0  0  0  0  0  0  0  0
   -5.8389    1.6760    0.0000 O   0  0  0  0  0  0  0  0  0  0  0  0
   -5.0239    0.2340    0.0000 C   0  0  0  0  0  0  0  0  0  0  0  0
   -2.5412    1.6509    0.0000 C   0  0  0  0  0  0  0  0  0  0  0  0
   -2.5161    3.0720    0.0000 C   0  0  0  0  0  0  0  0  0  0  0  0
   -5.8515   -1.1912    0.0000 C   0  0  0  0  0  0  0  0  0  0  0  0
   -4.6101   -0.4807    0.0000 C   0  0  0  0  0  0  0  0  0  0  0  0
   -5.8389    0.2340    0.0000 C   0  0  0  0  0  0  0  0  0  0  0  0
   -6.2486   -0.4682    0.0000 C   0  0  0  0  0  0  0  0  0  0  0  0
   -5.0156   -1.1954    0.0000 C   0  0  0  0  0  0  0  0  0  0  0  0
   -6.2611   -1.9059    0.0000 O   0  0  0  0  0  0  0  0  0  0  0  0
   -7.0845   -1.8976    0.0000 C   0  0  0  0  0  0  0  0  0  0  0  0
  2  1  1  0  0  0  0
  3  1  1  0  0  0  0
  4  5  1  0  0  0  0
  5  1  1  0  0  0  0
  6 13  1  0  0  0  0
  7  4  1  0  0  0  0
  8  2  2  0  0  0  0
  9  3  2  0  0  0  0
 10  4  2  0  0  0  0
 11  7  1  0  0  0  0
 12  2  1  0  0  0  0
 13  3  1  0  0  0  0
 14 17  2  0  0  0  0
 15 11  1  0  0  0  0
 16 11  2  0  0  0  0
 17 16  1  0  0  0  0
 18 15  2  0  0  0  0
 19 14  1  0  0  0  0
 20 19  1  0  0  0  0
 12  6  1  0  0  0  0
 18 14  1  0  0  0  0
M  END
>  <IDNUMBER>
F1800-0008

>  <Chemical_Name>
2-(3,5-dioxothiomorpholin-4-yl)-N-(4-methoxyphenyl)acetamide

>  <PriceCoeff>
1.00

>  <CAS>
868215-02-5

>  <MW>
294.33

>  <Description>
solid

>  <FSP3>
0.31

>  <clogP>
1.53

>  <TPSA>
101.01

>  <Acceptor>
4

>  <Donor>
1

>  <RotBonds>
4

>  <HAC>
20

>  <Collection>
General

>  <PPDS>
+

$$$$
F1800-0014
  Mrv2219 10102508112D          

 21 22  0  0  0  0            999 V2000
   -3.7661    2.3757    0.0000 N   0  0  0  0  0  0  0  0  0  0  0  0
   -3.3569    1.6534    0.0000 C   0  0  0  0  0  0  0  0  0  0  0  0
   -3.3402    3.0897    0.0000 C   0  0  0  0  0  0  0  0  0  0  0  0
   -5.0062    1.6659    0.0000 C   0  0  0  0  0  0  0  0  0  0  0  0
   -4.5928    2.3799    0.0000 C   0  0  0  0  0  0  0  0  0  0  0  0
   -2.1127    2.3507    0.0000 S   0  0  0  0  0  0  0  0  0  0  0  0
   -4.6053    0.9478    0.0000 N   0  0  0  0  0  0  0  0  0  0  0  0
   -3.7786    0.9394    0.0000 O   0  0  0  0  0  0  0  0  0  0  0  0
   -3.7452    3.8079    0.0000 O   0  0  0  0  0  0  0  0  0  0  0  0
   -5.8329    1.6785    0.0000 O   0  0  0  0  0  0  0  0  0  0  0  0
   -5.0312    0.2338    0.0000 C   0  0  0  0  0  0  0  0  0  0  0  0
   -2.5386    1.6492    0.0000 C   0  0  0  0  0  0  0  0  0  0  0  0
   -2.5135    3.0688    0.0000 C   0  0  0  0  0  0  0  0  0  0  0  0
   -5.8579   -1.1900    0.0000 C   0  0  0  0  0  0  0  0  0  0  0  0
   -4.6179   -0.4802    0.0000 C   0  0  0  0  0  0  0  0  0  0  0  0
   -5.8454    0.2380    0.0000 C   0  0  0  0  0  0  0  0  0  0  0  0
   -6.2546   -0.4677    0.0000 C   0  0  0  0  0  0  0  0  0  0  0  0
   -5.0312   -1.2067    0.0000 C   0  0  0  0  0  0  0  0  0  0  0  0
   -6.2672   -1.9039    0.0000 O   0  0  0  0  0  0  0  0  0  0  0  0
   -7.0939   -1.8956    0.0000 C   0  0  0  0  0  0  0  0  0  0  0  0
   -7.5072   -2.5971    0.0000 C   0  0  0  0  0  0  0  0  0  0  0  0
  2  1  1  0  0  0  0
  3  1  1  0  0  0  0
  4  5  1  0  0  0  0
  5  1  1  0  0  0  0
  6 13  1  0  0  0  0
  7  4  1  0  0  0  0
  8  2  2  0  0  0  0
  9  3  2  0  0  0  0
 10  4  2  0  0  0  0
 11  7  1  0  0  0  0
 12  2  1  0  0  0  0
 13  3  1  0  0  0  0
 14 17  2  0  0  0  0
 15 11  1  0  0  0  0
 16 11  2  0  0  0  0
 17 16  1  0  0  0  0
 18 15  2  0  0  0  0
 19 14  1  0  0  0  0
 20 19  1  0  0  0  0
 21 20  1  0  0  0  0
 12  6  1  0  0  0  0
 18 14  1  0  0  0  0
M  END
>  <IDNUMBER>
F1800-0014

>  <Chemical_Name>
2-(3,5-dioxothiomorpholin-4-yl)-N-(4-ethoxyphenyl)acetamide

>  <PriceCoeff>
1.00

>  <CAS>
868215-05-8

>  <MW>
308.35

>  <Description>
solid

>  <FSP3>
0.36

>  <clogP>
2.06

>  <TPSA>
101.01

>  <Acceptor>
4

>  <Donor>
1

>  <RotBonds>
5

>  <HAC>
21

>  <Collection>
General

>  <PPDS>
+

$$$$
F1800-0015
  Mrv2219 10102508112D          

 20 21  0  0  0  0            999 V2000
   -3.7664    2.3759    0.0000 N   0  0  0  0  0  0  0  0  0  0  0  0
   -3.3572    1.6535    0.0000 C   0  0  0  0  0  0  0  0  0  0  0  0
   -3.3405    3.0900    0.0000 C   0  0  0  0  0  0  0  0  0  0  0  0
   -5.0066    1.6660    0.0000 C   0  0  0  0  0  0  0  0  0  0  0  0
   -4.5932    0.9521    0.0000 N   0  0  0  0  0  0  0  0  0  0  0  0
   -5.0066    0.2380    0.0000 C   0  0  0  0  0  0  0  0  0  0  0  0
   -4.5932    2.3801    0.0000 C   0  0  0  0  0  0  0  0  0  0  0  0
   -4.5932   -0.4760    0.0000 C   0  0  0  0  0  0  0  0  0  0  0  0
   -2.1129    2.3509    0.0000 S   0  0  0  0  0  0  0  0  0  0  0  0
   -3.7789    0.9395    0.0000 O   0  0  0  0  0  0  0  0  0  0  0  0
   -3.7455    3.8082    0.0000 O   0  0  0  0  0  0  0  0  0  0  0  0
   -5.8334    1.6744    0.0000 O   0  0  0  0  0  0  0  0  0  0  0  0
   -4.9940   -1.1901    0.0000 C   0  0  0  0  0  0  0  0  0  0  0  0
   -2.5388    1.6493    0.0000 C   0  0  0  0  0  0  0  0  0  0  0  0
   -2.5137    3.0691    0.0000 C   0  0  0  0  0  0  0  0  0  0  0  0
   -5.8250    0.2380    0.0000 C   0  0  0  0  0  0  0  0  0  0  0  0
   -6.2301   -0.4760    0.0000 C   0  0  0  0  0  0  0  0  0  0  0  0
   -3.7581   -0.4677    0.0000 C   0  0  0  0  0  0  0  0  0  0  0  0
   -5.8250   -1.1943    0.0000 C   0  0  0  0  0  0  0  0  0  0  0  0
   -4.5807   -1.9041    0.0000 C   0  0  0  0  0  0  0  0  0  0  0  0
  2  1  1  0  0  0  0
  3  1  1  0  0  0  0
  4  7  1  0  0  0  0
  5  4  1  0  0  0  0
  6  5  1  0  0  0  0
  7  1  1  0  0  0  0
  8  6  1  0  0  0  0
  9 15  1  0  0  0  0
 10  2  2  0  0  0  0
 11  3  2  0  0  0  0
 12  4  2  0  0  0  0
 13  8  2  0  0  0  0
 14  2  1  0  0  0  0
 15  3  1  0  0  0  0
 16  6  2  0  0  0  0
 17 16  1  0  0  0  0
 18  8  1  0  0  0  0
 19 17  2  0  0  0  0
 20 13  1  0  0  0  0
 14  9  1  0  0  0  0
 13 19  1  0  0  0  0
M  END
>  <IDNUMBER>
F1800-0015

>  <Chemical_Name>
N-(2,3-dimethylphenyl)-2-(3,5-dioxothiomorpholin-4-yl)acetamide

>  <PriceCoeff>
1.50

>  <CAS>
868215-06-9

>  <MW>
292.35

>  <Description>
solid

>  <FSP3>
0.36

>  <clogP>
1.75

>  <TPSA>
91.78

>  <Acceptor>
3

>  <Donor>
1

>  <RotBonds>
3

>  <HAC>
20

>  <Collection>
Advanced

>  <PPDS>
+

$$$$
F1800-0016
  Mrv2219 10102508112D          

 20 21  0  0  0  0            999 V2000
   -3.7661    2.3757    0.0000 N   0  0  0  0  0  0  0  0  0  0  0  0
   -3.3569    1.6534    0.0000 C   0  0  0  0  0  0  0  0  0  0  0  0
   -3.3402    3.0897    0.0000 C   0  0  0  0  0  0  0  0  0  0  0  0
   -5.0062    1.6659    0.0000 C   0  0  0  0  0  0  0  0  0  0  0  0
   -5.0062    0.2463    0.0000 C   0  0  0  0  0  0  0  0  0  0  0  0
   -4.5928    0.9520    0.0000 N   0  0  0  0  0  0  0  0  0  0  0  0
   -4.5928    2.3799    0.0000 C   0  0  0  0  0  0  0  0  0  0  0  0
   -2.1127    2.3507    0.0000 S   0  0  0  0  0  0  0  0  0  0  0  0
   -4.5928   -0.4677    0.0000 C   0  0  0  0  0  0  0  0  0  0  0  0
   -5.8203    0.2463    0.0000 C   0  0  0  0  0  0  0  0  0  0  0  0
   -3.7452    3.8079    0.0000 O   0  0  0  0  0  0  0  0  0  0  0  0
   -3.7786    0.9394    0.0000 O   0  0  0  0  0  0  0  0  0  0  0  0
   -5.8329    1.6743    0.0000 O   0  0  0  0  0  0  0  0  0  0  0  0
   -4.9936   -1.1816    0.0000 C   0  0  0  0  0  0  0  0  0  0  0  0
   -2.5135    3.0688    0.0000 C   0  0  0  0  0  0  0  0  0  0  0  0
   -2.5386    1.6492    0.0000 C   0  0  0  0  0  0  0  0  0  0  0  0
   -6.2296   -0.4677    0.0000 C   0  0  0  0  0  0  0  0  0  0  0  0
   -5.8203   -1.1900    0.0000 C   0  0  0  0  0  0  0  0  0  0  0  0
   -3.7661   -0.4677    0.0000 C   0  0  0  0  0  0  0  0  0  0  0  0
   -7.0563   -0.4677    0.0000 C   0  0  0  0  0  0  0  0  0  0  0  0
  2  1  1  0  0  0  0
  3  1  1  0  0  0  0
  4  7  1  0  0  0  0
  5  6  1  0  0  0  0
  6  4  1  0  0  0  0
  7  1  1  0  0  0  0
  8 15  1  0  0  0  0
  9  5  1  0  0  0  0
 10  5  2  0  0  0  0
 11  3  2  0  0  0  0
 12  2  2  0  0  0  0
 13  4  2  0  0  0  0
 14  9  2  0  0  0  0
 15  3  1  0  0  0  0
 16  2  1  0  0  0  0
 17 10  1  0  0  0  0
 18 17  2  0  0  0  0
 19  9  1  0  0  0  0
 20 17  1  0  0  0  0
 16  8  1  0  0  0  0
 14 18  1  0  0  0  0
M  END
>  <IDNUMBER>
F1800-0016

>  <Chemical_Name>
N-(2,5-dimethylphenyl)-2-(3,5-dioxothiomorpholin-4-yl)acetamide

>  <PriceCoeff>
1.50

>  <CAS>
868215-07-0

>  <MW>
292.35

>  <Description>
solid

>  <FSP3>
0.36

>  <clogP>
1.80

>  <TPSA>
91.78

>  <Acceptor>
3

>  <Donor>
1

>  <RotBonds>
3

>  <HAC>
20

>  <Collection>
Advanced

>  <PPDS>
+

$$$$
F1800-0017
  Mrv2219 10102508112D          

 20 21  0  0  0  0            999 V2000
   -3.7755    2.3816    0.0000 N   0  0  0  0  0  0  0  0  0  0  0  0
   -3.3653    1.6575    0.0000 C   0  0  0  0  0  0  0  0  0  0  0  0
   -3.3485    3.0974    0.0000 C   0  0  0  0  0  0  0  0  0  0  0  0
   -5.0186    1.6784    0.0000 C   0  0  0  0  0  0  0  0  0  0  0  0
   -4.6042    0.9627    0.0000 N   0  0  0  0  0  0  0  0  0  0  0  0
   -4.6042    2.3859    0.0000 C   0  0  0  0  0  0  0  0  0  0  0  0
   -5.0061    0.2469    0.0000 C   0  0  0  0  0  0  0  0  0  0  0  0
   -4.5833   -0.4688    0.0000 C   0  0  0  0  0  0  0  0  0  0  0  0
   -2.1179    2.3565    0.0000 S   0  0  0  0  0  0  0  0  0  0  0  0
   -3.7880    0.9418    0.0000 O   0  0  0  0  0  0  0  0  0  0  0  0
   -3.7546    3.8174    0.0000 O   0  0  0  0  0  0  0  0  0  0  0  0
   -4.9935   -1.1846    0.0000 C   0  0  0  0  0  0  0  0  0  0  0  0
   -5.8391    1.6701    0.0000 O   0  0  0  0  0  0  0  0  0  0  0  0
   -5.8265    0.2386    0.0000 C   0  0  0  0  0  0  0  0  0  0  0  0
   -2.5198    3.0765    0.0000 C   0  0  0  0  0  0  0  0  0  0  0  0
   -2.5449    1.6533    0.0000 C   0  0  0  0  0  0  0  0  0  0  0  0
   -5.8223   -1.1971    0.0000 C   0  0  0  0  0  0  0  0  0  0  0  0
   -6.2326   -0.4814    0.0000 C   0  0  0  0  0  0  0  0  0  0  0  0
   -3.7629   -0.4646    0.0000 C   0  0  0  0  0  0  0  0  0  0  0  0
   -6.2283   -1.9212    0.0000 C   0  0  0  0  0  0  0  0  0  0  0  0
  2  1  1  0  0  0  0
  3  1  1  0  0  0  0
  4  6  1  0  0  0  0
  5  4  1  0  0  0  0
  6  1  1  0  0  0  0
  7  5  1  0  0  0  0
  8  7  1  0  0  0  0
  9 15  1  0  0  0  0
 10  2  2  0  0  0  0
 11  3  2  0  0  0  0
 12  8  2  0  0  0  0
 13  4  2  0  0  0  0
 14  7  2  0  0  0  0
 15  3  1  0  0  0  0
 16  2  1  0  0  0  0
 17 18  2  0  0  0  0
 18 14  1  0  0  0  0
 19  8  1  0  0  0  0
 20 17  1  0  0  0  0
 16  9  1  0  0  0  0
 12 17  1  0  0  0  0
M  END
>  <IDNUMBER>
F1800-0017

>  <Chemical_Name>
N-(2,4-dimethylphenyl)-2-(3,5-dioxothiomorpholin-4-yl)acetamide

>  <PriceCoeff>
1.50

>  <CAS>
868215-08-1

>  <MW>
292.35

>  <Description>
solid

>  <FSP3>
0.36

>  <clogP>
1.80

>  <TPSA>
91.78

>  <Acceptor>
3

>  <Donor>
1

>  <RotBonds>
3

>  <HAC>
20

>  <Collection>
Advanced

>  <PPDS>
+

$$$$
F1800-0018
  Mrv2219 10102508112D          

 20 21  0  0  0  0            999 V2000
   -3.7672    2.3764    0.0000 N   0  0  0  0  0  0  0  0  0  0  0  0
   -3.3579    1.6539    0.0000 C   0  0  0  0  0  0  0  0  0  0  0  0
   -3.3412    3.0906    0.0000 C   0  0  0  0  0  0  0  0  0  0  0  0
   -5.0076    1.6664    0.0000 C   0  0  0  0  0  0  0  0  0  0  0  0
   -4.5941    2.3806    0.0000 C   0  0  0  0  0  0  0  0  0  0  0  0
   -4.5941    0.9522    0.0000 N   0  0  0  0  0  0  0  0  0  0  0  0
   -5.0076    0.2381    0.0000 C   0  0  0  0  0  0  0  0  0  0  0  0
   -2.1133    2.3513    0.0000 S   0  0  0  0  0  0  0  0  0  0  0  0
   -3.7463    3.8090    0.0000 O   0  0  0  0  0  0  0  0  0  0  0  0
   -3.7797    0.9397    0.0000 O   0  0  0  0  0  0  0  0  0  0  0  0
   -5.8345    1.6747    0.0000 O   0  0  0  0  0  0  0  0  0  0  0  0
   -4.9951   -1.1903    0.0000 C   0  0  0  0  0  0  0  0  0  0  0  0
   -6.2314   -0.4761    0.0000 C   0  0  0  0  0  0  0  0  0  0  0  0
   -4.5941   -0.4761    0.0000 C   0  0  0  0  0  0  0  0  0  0  0  0
   -5.8262    0.2381    0.0000 C   0  0  0  0  0  0  0  0  0  0  0  0
   -2.5393    1.6497    0.0000 C   0  0  0  0  0  0  0  0  0  0  0  0
   -2.5142    3.0697    0.0000 C   0  0  0  0  0  0  0  0  0  0  0  0
   -5.8262   -1.1945    0.0000 C   0  0  0  0  0  0  0  0  0  0  0  0
   -4.5816   -1.8962    0.0000 C   0  0  0  0  0  0  0  0  0  0  0  0
   -7.0583   -0.4678    0.0000 C   0  0  0  0  0  0  0  0  0  0  0  0
  2  1  1  0  0  0  0
  3  1  1  0  0  0  0
  4  5  1  0  0  0  0
  5  1  1  0  0  0  0
  6  4  1  0  0  0  0
  7  6  1  0  0  0  0
  8 17  1  0  0  0  0
  9  3  2  0  0  0  0
 10  2  2  0  0  0  0
 11  4  2  0  0  0  0
 12 14  2  0  0  0  0
 13 15  1  0  0  0  0
 14  7  1  0  0  0  0
 15  7  2  0  0  0  0
 16  2  1  0  0  0  0
 17  3  1  0  0  0  0
 18 13  2  0  0  0  0
 19 12  1  0  0  0  0
 20 13  1  0  0  0  0
 16  8  1  0  0  0  0
 12 18  1  0  0  0  0
M  END
>  <IDNUMBER>
F1800-0018

>  <Chemical_Name>
N-(3,5-dimethylphenyl)-2-(3,5-dioxothiomorpholin-4-yl)acetamide

>  <PriceCoeff>
1.50

>  <CAS>
868215-09-2

>  <MW>
292.35

>  <Description>
solid

>  <FSP3>
0.36

>  <clogP>
2.45

>  <TPSA>
91.78

>  <Acceptor>
3

>  <Donor>
1

>  <RotBonds>
3

>  <HAC>
20

>  <Collection>
Advanced

>  <PPDS>
+

$$$$
F1800-0019
  Mrv2219 10102508112D          

 22 23  0  0  0  0            999 V2000
   -3.7661    2.3757    0.0000 N   0  0  0  0  0  0  0  0  0  0  0  0
   -3.3569    1.6534    0.0000 C   0  0  0  0  0  0  0  0  0  0  0  0
   -3.3402    3.0897    0.0000 C   0  0  0  0  0  0  0  0  0  0  0  0
   -5.0062    1.6659    0.0000 C   0  0  0  0  0  0  0  0  0  0  0  0
   -4.5928    0.9394    0.0000 N   0  0  0  0  0  0  0  0  0  0  0  0
   -4.5928    2.3799    0.0000 C   0  0  0  0  0  0  0  0  0  0  0  0
   -5.0187    0.2338    0.0000 C   0  0  0  0  0  0  0  0  0  0  0  0
   -4.6053   -0.4885    0.0000 C   0  0  0  0  0  0  0  0  0  0  0  0
   -5.0104   -1.1942    0.0000 C   0  0  0  0  0  0  0  0  0  0  0  0
   -2.1127    2.3507    0.0000 S   0  0  0  0  0  0  0  0  0  0  0  0
   -3.7452    3.8079    0.0000 O   0  0  0  0  0  0  0  0  0  0  0  0
   -3.7786    0.9394    0.0000 O   0  0  0  0  0  0  0  0  0  0  0  0
   -5.8329    1.6743    0.0000 O   0  0  0  0  0  0  0  0  0  0  0  0
   -5.8329    0.2338    0.0000 C   0  0  0  0  0  0  0  0  0  0  0  0
   -5.8454   -1.1942    0.0000 C   0  0  0  0  0  0  0  0  0  0  0  0
   -2.5386    1.6492    0.0000 C   0  0  0  0  0  0  0  0  0  0  0  0
   -2.5135    3.0688    0.0000 C   0  0  0  0  0  0  0  0  0  0  0  0
   -6.2421   -0.4677    0.0000 C   0  0  0  0  0  0  0  0  0  0  0  0
   -3.7786   -0.4802    0.0000 O   0  0  0  0  0  0  0  0  0  0  0  0
   -6.2546   -1.9039    0.0000 O   0  0  0  0  0  0  0  0  0  0  0  0
   -3.3653   -1.1900    0.0000 C   0  0  0  0  0  0  0  0  0  0  0  0
   -7.0771   -1.9039    0.0000 C   0  0  0  0  0  0  0  0  0  0  0  0
  2  1  1  0  0  0  0
  3  1  1  0  0  0  0
  4  6  1  0  0  0  0
  5  4  1  0  0  0  0
  6  1  1  0  0  0  0
  7  5  1  0  0  0  0
  8  7  1  0  0  0  0
  9  8  2  0  0  0  0
 10 17  1  0  0  0  0
 11  3  2  0  0  0  0
 12  2  2  0  0  0  0
 13  4  2  0  0  0  0
 14  7  2  0  0  0  0
 15 18  2  0  0  0  0
 16  2  1  0  0  0  0
 17  3  1  0  0  0  0
 18 14  1  0  0  0  0
 19  8  1  0  0  0  0
 20 15  1  0  0  0  0
 21 19  1  0  0  0  0
 22 20  1  0  0  0  0
 16 10  1  0  0  0  0
  9 15  1  0  0  0  0
M  END
>  <IDNUMBER>
F1800-0019

>  <Chemical_Name>
N-(2,4-dimethoxyphenyl)-2-(3,5-dioxothiomorpholin-4-yl)acetamide

>  <PriceCoeff>
1.00

>  <CAS>
868215-10-5

>  <MW>
324.35

>  <Description>
solid

>  <FSP3>
0.36

>  <clogP>
0.96

>  <TPSA>
110.24

>  <Acceptor>
5

>  <Donor>
1

>  <RotBonds>
5

>  <HAC>
22

>  <Collection>
General

>  <PPDS>
+

$$$$
F1800-0022
  Mrv2219 10102508112D          

 21 23  0  0  0  0            999 V2000
   -3.7661    2.3757    0.0000 N   0  0  0  0  0  0  0  0  0  0  0  0
   -3.3569    1.6534    0.0000 C   0  0  0  0  0  0  0  0  0  0  0  0
   -3.3402    3.0897    0.0000 C   0  0  0  0  0  0  0  0  0  0  0  0
   -5.0062    1.6659    0.0000 C   0  0  0  0  0  0  0  0  0  0  0  0
   -4.5928    2.3799    0.0000 C   0  0  0  0  0  0  0  0  0  0  0  0
   -4.9936   -1.1816    0.0000 C   0  0  0  0  0  0  0  0  0  0  0  0
   -4.5928   -0.4677    0.0000 C   0  0  0  0  0  0  0  0  0  0  0  0
   -4.5928    0.9603    0.0000 N   0  0  0  0  0  0  0  0  0  0  0  0
   -2.1127    2.3507    0.0000 S   0  0  0  0  0  0  0  0  0  0  0  0
   -5.8203   -1.1900    0.0000 C   0  0  0  0  0  0  0  0  0  0  0  0
   -4.7348   -1.9708    0.0000 O   0  0  0  0  0  0  0  0  0  0  0  0
   -6.0667   -1.9708    0.0000 O   0  0  0  0  0  0  0  0  0  0  0  0
   -5.0062    0.2463    0.0000 C   0  0  0  0  0  0  0  0  0  0  0  0
   -5.4070   -2.4593    0.0000 C   0  0  0  0  0  0  0  0  0  0  0  0
   -3.7452    3.8079    0.0000 O   0  0  0  0  0  0  0  0  0  0  0  0
   -3.7786    0.9394    0.0000 O   0  0  0  0  0  0  0  0  0  0  0  0
   -5.8329    1.6743    0.0000 O   0  0  0  0  0  0  0  0  0  0  0  0
   -6.2296   -0.4677    0.0000 C   0  0  0  0  0  0  0  0  0  0  0  0
   -2.5135    3.0688    0.0000 C   0  0  0  0  0  0  0  0  0  0  0  0
   -2.5386    1.6492    0.0000 C   0  0  0  0  0  0  0  0  0  0  0  0
   -5.8245    0.2463    0.0000 C   0  0  0  0  0  0  0  0  0  0  0  0
  2  1  1  0  0  0  0
  3  1  1  0  0  0  0
  4  5  1  0  0  0  0
  5  1  1  0  0  0  0
  6  7  2  0  0  0  0
  7 13  1  0  0  0  0
  8  4  1  0  0  0  0
  9 19  1  0  0  0  0
 10 18  2  0  0  0  0
 11  6  1  0  0  0  0
 12 10  1  0  0  0  0
 13  8  1  0  0  0  0
 14 11  1  0  0  0  0
 15  3  2  0  0  0  0
 16  2  2  0  0  0  0
 17  4  2  0  0  0  0
 18 21  1  0  0  0  0
 19  3  1  0  0  0  0
 20  2  1  0  0  0  0
 21 13  2  0  0  0  0
 20  9  1  0  0  0  0
 10  6  1  0  0  0  0
 12 14  1  0  0  0  0
M  END
>  <IDNUMBER>
F1800-0022

>  <Chemical_Name>
N-(2H-1,3-benzodioxol-5-yl)-2-(3,5-dioxothiomorpholin-4-yl)acetamide

>  <PriceCoeff>
1.00

>  <CAS>
868215-11-6

>  <MW>
308.31

>  <Description>
solid

>  <FSP3>
0.31

>  <clogP>
1.51

>  <TPSA>
110.24

>  <Acceptor>
5

>  <Donor>
1

>  <RotBonds>
3

>  <HAC>
21

>  <Collection>
General

>  <PPDS>
+

$$$$
F1800-0035
  Mrv2219 10102508112D          

 21 22  0  0  0  0            999 V2000
   -3.7663    2.3758    0.0000 N   0  0  0  0  0  0  0  0  0  0  0  0
   -6.2925   -1.8915    0.0000 N   0  3  0  0  0  0  0  0  0  0  0  0
   -3.3404    3.0898    0.0000 C   0  0  0  0  0  0  0  0  0  0  0  0
   -3.3571    1.6535    0.0000 C   0  0  0  0  0  0  0  0  0  0  0  0
   -5.0064    1.6743    0.0000 C   0  0  0  0  0  0  0  0  0  0  0  0
   -4.5930    2.3800    0.0000 C   0  0  0  0  0  0  0  0  0  0  0  0
   -5.8749   -1.1817    0.0000 C   0  0  0  0  0  0  0  0  0  0  0  0
   -5.8958   -2.6097    0.0000 O   0  5  0  0  0  0  0  0  0  0  0  0
   -2.1128    2.3508    0.0000 S   0  0  0  0  0  0  0  0  0  0  0  0
   -4.6055    0.9478    0.0000 N   0  0  0  0  0  0  0  0  0  0  0  0
   -7.1193   -1.8790    0.0000 O   0  0  0  0  0  0  0  0  0  0  0  0
   -3.7788    0.9395    0.0000 O   0  0  0  0  0  0  0  0  0  0  0  0
   -3.7454    3.8081    0.0000 O   0  0  0  0  0  0  0  0  0  0  0  0
   -5.8248    1.6869    0.0000 O   0  0  0  0  0  0  0  0  0  0  0  0
   -6.2675   -0.4677    0.0000 C   0  0  0  0  0  0  0  0  0  0  0  0
   -5.0565   -1.1900    0.0000 C   0  0  0  0  0  0  0  0  0  0  0  0
   -5.0314    0.2463    0.0000 C   0  0  0  0  0  0  0  0  0  0  0  0
   -2.5387    1.6493    0.0000 C   0  0  0  0  0  0  0  0  0  0  0  0
   -2.5136    3.0690    0.0000 C   0  0  0  0  0  0  0  0  0  0  0  0
   -4.6223   -0.4885    0.0000 C   0  0  0  0  0  0  0  0  0  0  0  0
   -5.8582    0.2505    0.0000 C   0  0  0  0  0  0  0  0  0  0  0  0
  2  7  1  0  0  0  0
  3  1  1  0  0  0  0
  4  1  1  0  0  0  0
  5  6  1  0  0  0  0
  6  1  1  0  0  0  0
  7 15  1  0  0  0  0
  8  2  1  0  0  0  0
  9 18  1  0  0  0  0
 10  5  1  0  0  0  0
 11  2  2  0  0  0  0
 12  4  2  0  0  0  0
 13  3  2  0  0  0  0
 14  5  2  0  0  0  0
 15 21  2  0  0  0  0
 16 20  1  0  0  0  0
 17 10  1  0  0  0  0
 18  4  1  0  0  0  0
 19  3  1  0  0  0  0
 20 17  2  0  0  0  0
 21 17  1  0  0  0  0
 19  9  1  0  0  0  0
 16  7  2  0  0  0  0
M  CHG  2   2   1   8  -1
M  END
>  <IDNUMBER>
F1800-0035

>  <Chemical_Name>
2-(3,5-dioxothiomorpholin-4-yl)-N-(4-nitrophenyl)acetamide

>  <PriceCoeff>
1.00

>  <CAS>
868215-12-7

>  <MW>
309.30

>  <Description>
solid

>  <FSP3>
0.25

>  <clogP>
1.75

>  <TPSA>
134.92

>  <Acceptor>
5

>  <Donor>
1

>  <RotBonds>
4

>  <HAC>
21

>  <Collection>
General

>  <PPDS>
+

$$$$
F1800-0036
  Mrv2219 10102508112D          

 22 23  0  0  0  0            999 V2000
   -3.7583    2.3708    0.0000 N   0  0  0  0  0  0  0  0  0  0  0  0
   -3.3500    1.6500    0.0000 C   0  0  0  0  0  0  0  0  0  0  0  0
   -3.3333    3.0833    0.0000 C   0  0  0  0  0  0  0  0  0  0  0  0
   -4.9958    1.6708    0.0000 C   0  0  0  0  0  0  0  0  0  0  0  0
   -4.5833    2.3750    0.0000 C   0  0  0  0  0  0  0  0  0  0  0  0
   -2.1083    2.3458    0.0000 S   0  0  0  0  0  0  0  0  0  0  0  0
   -5.8125    1.6625    0.0000 N   0  0  0  0  0  0  0  0  0  0  0  0
   -3.7708    0.9375    0.0000 O   0  0  0  0  0  0  0  0  0  0  0  0
   -3.7375    3.8000    0.0000 O   0  0  0  0  0  0  0  0  0  0  0  0
   -4.5833    0.9500    0.0000 O   0  0  0  0  0  0  0  0  0  0  0  0
   -6.2167    0.9500    0.0000 C   0  0  0  0  0  0  0  0  0  0  0  0
   -2.5333    1.6458    0.0000 C   0  0  0  0  0  0  0  0  0  0  0  0
   -2.5083    3.0625    0.0000 C   0  0  0  0  0  0  0  0  0  0  0  0
   -7.0542   -0.4667    0.0000 C   0  0  0  0  0  0  0  0  0  0  0  0
   -5.8208    0.2333    0.0000 C   0  0  0  0  0  0  0  0  0  0  0  0
   -7.0417    0.9583    0.0000 C   0  0  0  0  0  0  0  0  0  0  0  0
   -6.2292   -0.4750    0.0000 C   0  0  0  0  0  0  0  0  0  0  0  0
   -7.4625    0.2458    0.0000 C   0  0  0  0  0  0  0  0  0  0  0  0
   -7.4667   -1.1792    0.0000 C   0  0  0  0  0  0  0  0  0  0  0  0
   -8.2917   -1.1750    0.0000 C   0  0  0  0  0  0  0  0  0  0  0  0
   -8.7167   -1.8917    0.0000 C   0  0  0  0  0  0  0  0  0  0  0  0
   -9.5417   -1.8875    0.0000 C   0  0  0  0  0  0  0  0  0  0  0  0
  2  1  1  0  0  0  0
  3  1  1  0  0  0  0
  4  5  1  0  0  0  0
  5  1  1  0  0  0  0
  6 13  1  0  0  0  0
  7  4  1  0  0  0  0
  8  2  2  0  0  0  0
  9  3  2  0  0  0  0
 10  4  2  0  0  0  0
 11  7  1  0  0  0  0
 12  2  1  0  0  0  0
 13  3  1  0  0  0  0
 14 18  2  0  0  0  0
 15 11  1  0  0  0  0
 16 11  2  0  0  0  0
 17 15  2  0  0  0  0
 18 16  1  0  0  0  0
 19 14  1  0  0  0  0
 20 19  1  0  0  0  0
 21 20  1  0  0  0  0
 22 21  1  0  0  0  0
 12  6  1  0  0  0  0
 17 14  1  0  0  0  0
M  END
>  <IDNUMBER>
F1800-0036

>  <Chemical_Name>
N-(4-butylphenyl)-2-(3,5-dioxothiomorpholin-4-yl)acetamide

>  <PriceCoeff>
1.00

>  <CAS>
868215-13-8

>  <MW>
320.41

>  <Description>
solid

>  <FSP3>
0.44

>  <clogP>
3.54

>  <TPSA>
91.78

>  <Acceptor>
3

>  <Donor>
1

>  <RotBonds>
6

>  <HAC>
22

>  <Collection>
General

>  <PPDS>
+

$$$$
F1800-0041
  Mrv2219 10102508112D          

 21 22  0  0  0  0            999 V2000
   -3.7583    2.3708    0.0000 N   0  0  0  0  0  0  0  0  0  0  0  0
   -3.3500    1.6500    0.0000 C   0  0  0  0  0  0  0  0  0  0  0  0
   -3.3333    3.0833    0.0000 C   0  0  0  0  0  0  0  0  0  0  0  0
   -6.2167    0.9625    0.0000 C   0  0  0  0  0  0  0  0  0  0  0  0
   -4.9958    1.6708    0.0000 C   0  0  0  0  0  0  0  0  0  0  0  0
   -5.8083    1.6708    0.0000 N   0  0  0  0  0  0  0  0  0  0  0  0
   -4.5833    2.3750    0.0000 C   0  0  0  0  0  0  0  0  0  0  0  0
   -5.8125    0.2375    0.0000 C   0  0  0  0  0  0  0  0  0  0  0  0
   -2.1083    2.3458    0.0000 S   0  0  0  0  0  0  0  0  0  0  0  0
   -7.0417    0.9625    0.0000 C   0  0  0  0  0  0  0  0  0  0  0  0
   -3.7375    3.8000    0.0000 O   0  0  0  0  0  0  0  0  0  0  0  0
   -3.7708    0.9375    0.0000 O   0  0  0  0  0  0  0  0  0  0  0  0
   -4.5833    0.9500    0.0000 O   0  0  0  0  0  0  0  0  0  0  0  0
   -7.4625    0.2583    0.0000 C   0  0  0  0  0  0  0  0  0  0  0  0
   -6.2167   -0.4750    0.0000 C   0  0  0  0  0  0  0  0  0  0  0  0
   -2.5333    1.6458    0.0000 C   0  0  0  0  0  0  0  0  0  0  0  0
   -2.5083    3.0625    0.0000 C   0  0  0  0  0  0  0  0  0  0  0  0
   -7.0417   -0.4667    0.0000 C   0  0  0  0  0  0  0  0  0  0  0  0
   -5.8208   -1.1917    0.0000 Cl  0  0  0  0  0  0  0  0  0  0  0  0
   -7.4542    1.6750    0.0000 O   0  0  0  0  0  0  0  0  0  0  0  0
   -8.2792    1.6833    0.0000 C   0  0  0  0  0  0  0  0  0  0  0  0
  2  1  1  0  0  0  0
  3  1  1  0  0  0  0
  4  6  1  0  0  0  0
  5  7  1  0  0  0  0
  6  5  1  0  0  0  0
  7  1  1  0  0  0  0
  8  4  1  0  0  0  0
  9 17  1  0  0  0  0
 10  4  2  0  0  0  0
 11  3  2  0  0  0  0
 12  2  2  0  0  0  0
 13  5  2  0  0  0  0
 14 10  1  0  0  0  0
 15  8  2  0  0  0  0
 16  2  1  0  0  0  0
 17  3  1  0  0  0  0
 18 14  2  0  0  0  0
 19 15  1  0  0  0  0
 20 10  1  0  0  0  0
 21 20  1  0  0  0  0
 16  9  1  0  0  0  0
 15 18  1  0  0  0  0
M  END
>  <IDNUMBER>
F1800-0041

>  <Chemical_Name>
N-(5-chloro-2-methoxyphenyl)-2-(3,5-dioxothiomorpholin-4-yl)acetamide

>  <PriceCoeff>
1.00

>  <CAS>
868215-15-0

>  <MW>
328.77

>  <Description>
solid

>  <FSP3>
0.31

>  <clogP>
1.85

>  <TPSA>
101.01

>  <Acceptor>
4

>  <Donor>
1

>  <RotBonds>
4

>  <HAC>
21

>  <Collection>
General

>  <PPDS>
+

$$$$
F1800-0045
  Mrv2219 10102508112D          

 20 21  0  0  0  0            999 V2000
   -3.7583    2.3708    0.0000 N   0  0  0  0  0  0  0  0  0  0  0  0
   -3.3500    1.6500    0.0000 C   0  0  0  0  0  0  0  0  0  0  0  0
   -3.3333    3.0833    0.0000 C   0  0  0  0  0  0  0  0  0  0  0  0
   -4.5833    2.3750    0.0000 C   0  0  0  0  0  0  0  0  0  0  0  0
   -4.9958    1.6625    0.0000 C   0  0  0  0  0  0  0  0  0  0  0  0
   -2.1083    2.3458    0.0000 S   0  0  0  0  0  0  0  0  0  0  0  0
   -4.5958    0.9458    0.0000 N   0  0  0  0  0  0  0  0  0  0  0  0
   -3.7708    0.9375    0.0000 O   0  0  0  0  0  0  0  0  0  0  0  0
   -3.7375    3.8000    0.0000 O   0  0  0  0  0  0  0  0  0  0  0  0
   -5.8208    1.6708    0.0000 O   0  0  0  0  0  0  0  0  0  0  0  0
   -2.5083    3.0625    0.0000 C   0  0  0  0  0  0  0  0  0  0  0  0
   -2.5333    1.6458    0.0000 C   0  0  0  0  0  0  0  0  0  0  0  0
   -5.0000    0.2333    0.0000 C   0  0  0  0  0  0  0  0  0  0  0  0
   -3.7833   -1.9167    0.0000 C   0  0  0  0  0  0  0  0  0  0  0  0
   -4.5958   -0.4875    0.0000 C   0  0  0  0  0  0  0  0  0  0  0  0
   -3.3833   -2.6417    0.0000 F   0  0  0  0  0  0  0  0  0  0  0  0
   -3.3625   -1.2125    0.0000 C   0  0  0  0  0  0  0  0  0  0  0  0
   -4.6083   -1.9125    0.0000 C   0  0  0  0  0  0  0  0  0  0  0  0
   -3.7708   -0.4917    0.0000 C   0  0  0  0  0  0  0  0  0  0  0  0
   -5.0208   -1.1917    0.0000 C   0  0  0  0  0  0  0  0  0  0  0  0
  2  1  1  0  0  0  0
  3  1  1  0  0  0  0
  4  1  1  0  0  0  0
  5  4  1  0  0  0  0
  6 11  1  0  0  0  0
  7  5  1  0  0  0  0
  8  2  2  0  0  0  0
  9  3  2  0  0  0  0
 10  5  2  0  0  0  0
 11  3  1  0  0  0  0
 12  2  1  0  0  0  0
 13  7  1  0  0  0  0
 14 18  2  0  0  0  0
 15 13  1  0  0  0  0
 16 14  1  0  0  0  0
 17 19  2  0  0  0  0
 18 20  1  0  0  0  0
 19 15  1  0  0  0  0
 20 15  2  0  0  0  0
 12  6  1  0  0  0  0
 17 14  1  0  0  0  0
M  END
>  <IDNUMBER>
F1800-0045

>  <Chemical_Name>
2-(3,5-dioxothiomorpholin-4-yl)-N-[(4-fluorophenyl)methyl]acetamide

>  <PriceCoeff>
1.00

>  <MW>
296.32

>  <Description>
solid

>  <FSP3>
0.31

>  <clogP>
1.62

>  <TPSA>
76.36

>  <Acceptor>
3

>  <Donor>
1

>  <RotBonds>
4

>  <HAC>
20

>  <Collection>
General

$$$$
F1800-0049
  Mrv2219 10102508112D          

 20 21  0  0  0  0            999 V2000
   -3.7703    2.3784    0.0000 N   0  0  0  0  0  0  0  0  0  0  0  0
   -3.3607    1.6553    0.0000 C   0  0  0  0  0  0  0  0  0  0  0  0
   -3.3440    3.0932    0.0000 C   0  0  0  0  0  0  0  0  0  0  0  0
   -5.0118    1.6761    0.0000 C   0  0  0  0  0  0  0  0  0  0  0  0
   -4.5980    2.3826    0.0000 C   0  0  0  0  0  0  0  0  0  0  0  0
   -5.8311    1.6761    0.0000 N   0  0  0  0  0  0  0  0  0  0  0  0
   -2.1150    2.3533    0.0000 S   0  0  0  0  0  0  0  0  0  0  0  0
   -3.7829    0.9405    0.0000 O   0  0  0  0  0  0  0  0  0  0  0  0
   -3.7495    3.8122    0.0000 O   0  0  0  0  0  0  0  0  0  0  0  0
   -6.2366    0.9614    0.0000 C   0  0  0  0  0  0  0  0  0  0  0  0
   -4.6105    0.9530    0.0000 O   0  0  0  0  0  0  0  0  0  0  0  0
   -7.0642    0.9739    0.0000 C   0  0  0  0  0  0  0  0  0  0  0  0
   -2.5163    3.0723    0.0000 C   0  0  0  0  0  0  0  0  0  0  0  0
   -2.5414    1.6511    0.0000 C   0  0  0  0  0  0  0  0  0  0  0  0
   -7.4906    0.2591    0.0000 C   0  0  0  0  0  0  0  0  0  0  0  0
   -8.3182    0.2717    0.0000 O   0  0  0  0  0  0  0  0  0  0  0  0
   -6.2617   -0.4682    0.0000 C   0  0  0  0  0  0  0  0  0  0  0  0
   -5.8394    0.2383    0.0000 C   0  0  0  0  0  0  0  0  0  0  0  0
   -7.0851   -0.4640    0.0000 C   0  0  0  0  0  0  0  0  0  0  0  0
   -8.7195    0.9864    0.0000 C   0  0  0  0  0  0  0  0  0  0  0  0
  2  1  1  0  0  0  0
  3  1  1  0  0  0  0
  4  5  1  0  0  0  0
  5  1  1  0  0  0  0
  6  4  1  0  0  0  0
  7 13  1  0  0  0  0
  8  2  2  0  0  0  0
  9  3  2  0  0  0  0
 10  6  1  0  0  0  0
 11  4  2  0  0  0  0
 12 10  2  0  0  0  0
 13  3  1  0  0  0  0
 14  2  1  0  0  0  0
 15 12  1  0  0  0  0
 16 15  1  0  0  0  0
 17 18  2  0  0  0  0
 18 10  1  0  0  0  0
 19 17  1  0  0  0  0
 20 16  1  0  0  0  0
 14  7  1  0  0  0  0
 19 15  2  0  0  0  0
M  END
>  <IDNUMBER>
F1800-0049

>  <Chemical_Name>
2-(3,5-dioxothiomorpholin-4-yl)-N-(3-methoxyphenyl)acetamide

>  <PriceCoeff>
1.00

>  <CAS>
868215-18-3

>  <MW>
294.33

>  <Description>
solid

>  <FSP3>
0.31

>  <clogP>
1.53

>  <TPSA>
101.01

>  <Acceptor>
4

>  <Donor>
1

>  <RotBonds>
4

>  <HAC>
20

>  <Collection>
General

>  <PPDS>
+

$$$$
F1800-0052
  Mrv2219 10102508112D          

 20 21  0  0  0  0            999 V2000
   -3.7640    2.3744    0.0000 N   0  0  0  0  0  0  0  0  0  0  0  0
   -3.3550    1.6525    0.0000 C   0  0  0  0  0  0  0  0  0  0  0  0
   -3.3383    3.0879    0.0000 C   0  0  0  0  0  0  0  0  0  0  0  0
   -5.0033    1.6733    0.0000 C   0  0  0  0  0  0  0  0  0  0  0  0
   -4.5902    2.3786    0.0000 C   0  0  0  0  0  0  0  0  0  0  0  0
   -7.4736    0.2629    0.0000 C   0  0  0  0  0  0  0  0  0  0  0  0
   -7.0523    0.9722    0.0000 C   0  0  0  0  0  0  0  0  0  0  0  0
   -5.8212    1.6858    0.0000 N   0  0  0  0  0  0  0  0  0  0  0  0
   -2.1115    2.3493    0.0000 S   0  0  0  0  0  0  0  0  0  0  0  0
   -6.2260    0.9639    0.0000 C   0  0  0  0  0  0  0  0  0  0  0  0
   -7.0648   -0.4549    0.0000 C   0  0  0  0  0  0  0  0  0  0  0  0
   -3.7765    0.9389    0.0000 O   0  0  0  0  0  0  0  0  0  0  0  0
   -3.7431    3.8057    0.0000 O   0  0  0  0  0  0  0  0  0  0  0  0
   -4.6027    0.9514    0.0000 O   0  0  0  0  0  0  0  0  0  0  0  0
   -6.2385   -0.4674    0.0000 C   0  0  0  0  0  0  0  0  0  0  0  0
   -2.5371    1.6483    0.0000 C   0  0  0  0  0  0  0  0  0  0  0  0
   -2.5120    3.0671    0.0000 C   0  0  0  0  0  0  0  0  0  0  0  0
   -8.2916    0.2712    0.0000 Cl  0  0  0  0  0  0  0  0  0  0  0  0
   -5.8295    0.2461    0.0000 C   0  0  0  0  0  0  0  0  0  0  0  0
   -7.4904   -1.1684    0.0000 Cl  0  0  0  0  0  0  0  0  0  0  0  0
  2  1  1  0  0  0  0
  3  1  1  0  0  0  0
  4  5  1  0  0  0  0
  5  1  1  0  0  0  0
  6  7  1  0  0  0  0
  7 10  2  0  0  0  0
  8  4  1  0  0  0  0
  9 17  1  0  0  0  0
 10  8  1  0  0  0  0
 11 15  1  0  0  0  0
 12  2  2  0  0  0  0
 13  3  2  0  0  0  0
 14  4  2  0  0  0  0
 15 19  2  0  0  0  0
 16  2  1  0  0  0  0
 17  3  1  0  0  0  0
 18  6  1  0  0  0  0
 19 10  1  0  0  0  0
 20 11  1  0  0  0  0
 16  9  1  0  0  0  0
 11  6  2  0  0  0  0
M  END
>  <IDNUMBER>
F1800-0052

>  <Chemical_Name>
N-(3,4-dichlorophenyl)-2-(3,5-dioxothiomorpholin-4-yl)acetamide

>  <PriceCoeff>
1.00

>  <CAS>
868215-20-7

>  <MW>
333.19

>  <Description>
solid

>  <FSP3>
0.25

>  <clogP>
3.11

>  <TPSA>
91.78

>  <Acceptor>
3

>  <Donor>
1

>  <RotBonds>
3

>  <HAC>
20

>  <Collection>
General

>  <PPDS>
+

$$$$
F1800-0053
  Mrv2219 10102508112D          

 21 22  0  0  0  0            999 V2000
   -3.7586    2.3710    0.0000 N   0  0  0  0  0  0  0  0  0  0  0  0
   -6.2172    0.9626    0.0000 C   0  0  0  0  0  0  0  0  0  0  0  0
   -3.3336    3.0836    0.0000 C   0  0  0  0  0  0  0  0  0  0  0  0
   -3.3503    1.6501    0.0000 C   0  0  0  0  0  0  0  0  0  0  0  0
   -4.9962    1.6709    0.0000 C   0  0  0  0  0  0  0  0  0  0  0  0
   -5.8130    1.6834    0.0000 N   0  0  0  0  0  0  0  0  0  0  0  0
   -5.8213    0.2458    0.0000 C   0  0  0  0  0  0  0  0  0  0  0  0
   -7.0423    0.9709    0.0000 C   0  0  0  0  0  0  0  0  0  0  0  0
   -4.5837    2.3752    0.0000 C   0  0  0  0  0  0  0  0  0  0  0  0
   -2.1085    2.3460    0.0000 S   0  0  0  0  0  0  0  0  0  0  0  0
   -7.4632    0.2625    0.0000 C   0  0  0  0  0  0  0  0  0  0  0  0
   -6.2297   -0.4667    0.0000 C   0  0  0  0  0  0  0  0  0  0  0  0
   -3.7378    3.8003    0.0000 O   0  0  0  0  0  0  0  0  0  0  0  0
   -3.7711    0.9376    0.0000 O   0  0  0  0  0  0  0  0  0  0  0  0
   -4.5962    0.9501    0.0000 O   0  0  0  0  0  0  0  0  0  0  0  0
   -7.0548   -0.4542    0.0000 C   0  0  0  0  0  0  0  0  0  0  0  0
   -2.5085    3.0628    0.0000 C   0  0  0  0  0  0  0  0  0  0  0  0
   -2.5335    1.6459    0.0000 C   0  0  0  0  0  0  0  0  0  0  0  0
   -7.4632    1.6834    0.0000 C   0  0  0  0  0  0  0  0  0  0  0  0
   -4.9962    0.2333    0.0000 C   0  0  0  0  0  0  0  0  0  0  0  0
   -7.4799   -1.1668    0.0000 C   0  0  0  0  0  0  0  0  0  0  0  0
  2  6  1  0  0  0  0
  3  1  1  0  0  0  0
  4  1  1  0  0  0  0
  5  9  1  0  0  0  0
  6  5  1  0  0  0  0
  7  2  1  0  0  0  0
  8  2  2  0  0  0  0
  9  1  1  0  0  0  0
 10 18  1  0  0  0  0
 11  8  1  0  0  0  0
 12  7  2  0  0  0  0
 13  3  2  0  0  0  0
 14  4  2  0  0  0  0
 15  5  2  0  0  0  0
 16 11  2  0  0  0  0
 17  3  1  0  0  0  0
 18  4  1  0  0  0  0
 19  8  1  0  0  0  0
 20  7  1  0  0  0  0
 21 16  1  0  0  0  0
 17 10  1  0  0  0  0
 12 16  1  0  0  0  0
M  END
>  <IDNUMBER>
F1800-0053

>  <Chemical_Name>
2-(3,5-dioxothiomorpholin-4-yl)-N-(2,4,6-trimethylphenyl)acetamide

>  <PriceCoeff>
1.00

>  <CAS>
868215-21-8

>  <MW>
306.38

>  <Description>
solid

>  <FSP3>
0.40

>  <clogP>
1.65

>  <TPSA>
91.78

>  <Acceptor>
3

>  <Donor>
1

>  <RotBonds>
3

>  <HAC>
21

>  <Collection>
General

>  <PPDS>
+

$$$$
F1800-0163
  Mrv2219 10102508112D          

 20 21  0  0  0  0            999 V2000
   -4.0975    2.5300    0.0000 N   0  0  0  0  0  0  0  0  0  0  0  0
   -3.6850    3.2541    0.0000 C   0  0  0  0  0  0  0  0  0  0  0  0
   -3.6850    1.8241    0.0000 C   0  0  0  0  0  0  0  0  0  0  0  0
   -2.4475    2.5300    0.0000 S   0  0  0  0  0  0  0  0  0  0  0  0
   -4.9225    2.5300    0.0000 C   0  0  0  0  0  0  0  0  0  0  0  0
   -5.3350    3.2404    0.0000 C   0  0  0  0  0  0  0  0  0  0  0  0
   -2.8600    3.2541    0.0000 C   0  0  0  0  0  0  0  0  0  0  0  0
   -2.8600    1.8241    0.0000 C   0  0  0  0  0  0  0  0  0  0  0  0
   -6.1600    3.2404    0.0000 N   0  0  0  0  0  0  0  0  0  0  0  0
   -4.1066    3.9691    0.0000 O   0  0  0  0  0  0  0  0  0  0  0  0
   -4.1066    1.1000    0.0000 O   0  0  0  0  0  0  0  0  0  0  0  0
   -4.9225    3.9554    0.0000 O   0  0  0  0  0  0  0  0  0  0  0  0
   -6.5725    3.9462    0.0000 C   0  0  0  0  0  0  0  0  0  0  0  0
   -7.3884    5.3762    0.0000 C   0  0  0  0  0  0  0  0  0  0  0  0
   -7.3884    3.9554    0.0000 C   0  0  0  0  0  0  0  0  0  0  0  0
   -6.1600    4.6521    0.0000 C   0  0  0  0  0  0  0  0  0  0  0  0
   -6.5725    5.3762    0.0000 C   0  0  0  0  0  0  0  0  0  0  0  0
   -7.8009    4.6521    0.0000 C   0  0  0  0  0  0  0  0  0  0  0  0
   -2.4429    3.9691    0.0000 C   0  0  0  0  0  0  0  0  0  0  0  0
   -7.8146    6.0959    0.0000 C   0  0  0  0  0  0  0  0  0  0  0  0
  2  1  1  0  0  0  0
  3  1  1  0  0  0  0
  4  8  1  0  0  0  0
  5  1  1  0  0  0  0
  6  5  1  0  0  0  0
  7  2  1  0  0  0  0
  8  3  1  0  0  0  0
  9  6  1  0  0  0  0
 10  2  2  0  0  0  0
 11  3  2  0  0  0  0
 12  6  2  0  0  0  0
 13  9  1  0  0  0  0
 14 17  2  0  0  0  0
 15 13  1  0  0  0  0
 16 13  2  0  0  0  0
 17 16  1  0  0  0  0
 18 15  2  0  0  0  0
 19  7  1  0  0  0  0
 20 14  1  0  0  0  0
  4  7  1  0  0  0  0
 18 14  1  0  0  0  0
M  END
>  <IDNUMBER>
F1800-0163

>  <Chemical_Name>
2-(2-methyl-3,5-dioxothiomorpholin-4-yl)-N-(4-methylphenyl)acetamide

>  <PriceCoeff>
1.50

>  <MW>
292.35

>  <Description>
solid

>  <FSP3>
0.36

>  <clogP>
2.47

>  <TPSA>
58.28

>  <Acceptor>
3

>  <Donor>
1

>  <RotBonds>
3

>  <HAC>
20

>  <Collection>
Advanced

$$$$
F1800-0165
  Mrv2219 10102508112D          

 21 22  0  0  0  0            999 V2000
   -4.0975    2.5300    0.0000 N   0  0  0  0  0  0  0  0  0  0  0  0
   -3.6850    3.2541    0.0000 C   0  0  0  0  0  0  0  0  0  0  0  0
   -3.6850    1.8241    0.0000 C   0  0  0  0  0  0  0  0  0  0  0  0
   -2.4475    2.5300    0.0000 S   0  0  0  0  0  0  0  0  0  0  0  0
   -5.3350    3.2404    0.0000 C   0  0  0  0  0  0  0  0  0  0  0  0
   -6.5725    3.9554    0.0000 C   0  0  0  0  0  0  0  0  0  0  0  0
   -6.1600    3.2404    0.0000 N   0  0  0  0  0  0  0  0  0  0  0  0
   -4.9225    2.5300    0.0000 C   0  0  0  0  0  0  0  0  0  0  0  0
   -2.8600    3.2541    0.0000 C   0  0  0  0  0  0  0  0  0  0  0  0
   -2.8600    1.8241    0.0000 C   0  0  0  0  0  0  0  0  0  0  0  0
   -4.1066    3.9691    0.0000 O   0  0  0  0  0  0  0  0  0  0  0  0
   -7.3884    3.9554    0.0000 C   0  0  0  0  0  0  0  0  0  0  0  0
   -6.1600    4.6521    0.0000 C   0  0  0  0  0  0  0  0  0  0  0  0
   -4.1066    1.1000    0.0000 O   0  0  0  0  0  0  0  0  0  0  0  0
   -4.9225    3.9554    0.0000 O   0  0  0  0  0  0  0  0  0  0  0  0
   -7.8146    4.6521    0.0000 C   0  0  0  0  0  0  0  0  0  0  0  0
   -6.5725    5.3762    0.0000 C   0  0  0  0  0  0  0  0  0  0  0  0
   -7.3884    5.3762    0.0000 C   0  0  0  0  0  0  0  0  0  0  0  0
   -2.4429    3.9691    0.0000 C   0  0  0  0  0  0  0  0  0  0  0  0
   -7.8146    3.2312    0.0000 C   0  0  0  0  0  0  0  0  0  0  0  0
   -6.1554    6.0959    0.0000 C   0  0  0  0  0  0  0  0  0  0  0  0
  2  1  1  0  0  0  0
  3  1  1  0  0  0  0
  4 10  1  0  0  0  0
  5  8  1  0  0  0  0
  6  7  1  0  0  0  0
  7  5  1  0  0  0  0
  8  1  1  0  0  0  0
  9  2  1  0  0  0  0
 10  3  1  0  0  0  0
 11  2  2  0  0  0  0
 12  6  1  0  0  0  0
 13  6  2  0  0  0  0
 14  3  2  0  0  0  0
 15  5  2  0  0  0  0
 16 12  2  0  0  0  0
 17 13  1  0  0  0  0
 18 17  2  0  0  0  0
 19  9  1  0  0  0  0
 20 12  1  0  0  0  0
 21 17  1  0  0  0  0
  9  4  1  0  0  0  0
 16 18  1  0  0  0  0
M  END
>  <IDNUMBER>
F1800-0165

>  <Chemical_Name>
N-(2,5-dimethylphenyl)-2-(2-methyl-3,5-dioxothiomorpholin-4-yl)acetamide

>  <PriceCoeff>
1.00

>  <CAS>
868215-87-6

>  <MW>
306.38

>  <Description>
solid

>  <FSP3>
0.40

>  <clogP>
2.32

>  <TPSA>
91.78

>  <Acceptor>
3

>  <Donor>
1

>  <RotBonds>
3

>  <HAC>
21

>  <Collection>
General

>  <PPDS>
+

$$$$
F1800-0167
  Mrv2219 10102508112D          

 21 22  0  0  0  0            999 V2000
   -4.0975    2.5300    0.0000 N   0  0  0  0  0  0  0  0  0  0  0  0
   -3.6850    3.2541    0.0000 C   0  0  0  0  0  0  0  0  0  0  0  0
   -3.6850    1.8241    0.0000 C   0  0  0  0  0  0  0  0  0  0  0  0
   -2.4475    2.5300    0.0000 S   0  0  0  0  0  0  0  0  0  0  0  0
   -5.3350    3.2404    0.0000 C   0  0  0  0  0  0  0  0  0  0  0  0
   -4.9225    2.5300    0.0000 C   0  0  0  0  0  0  0  0  0  0  0  0
   -2.8600    3.2541    0.0000 C   0  0  0  0  0  0  0  0  0  0  0  0
   -6.1600    3.2404    0.0000 N   0  0  0  0  0  0  0  0  0  0  0  0
   -6.5725    3.9462    0.0000 C   0  0  0  0  0  0  0  0  0  0  0  0
   -2.8600    1.8241    0.0000 C   0  0  0  0  0  0  0  0  0  0  0  0
   -4.1066    3.9691    0.0000 O   0  0  0  0  0  0  0  0  0  0  0  0
   -4.1066    1.1000    0.0000 O   0  0  0  0  0  0  0  0  0  0  0  0
   -4.9225    3.9554    0.0000 O   0  0  0  0  0  0  0  0  0  0  0  0
   -7.8009    4.6521    0.0000 C   0  0  0  0  0  0  0  0  0  0  0  0
   -6.5725    5.3762    0.0000 C   0  0  0  0  0  0  0  0  0  0  0  0
   -7.3884    3.9554    0.0000 C   0  0  0  0  0  0  0  0  0  0  0  0
   -6.1600    4.6521    0.0000 C   0  0  0  0  0  0  0  0  0  0  0  0
   -7.3884    5.3762    0.0000 C   0  0  0  0  0  0  0  0  0  0  0  0
   -2.4429    3.9691    0.0000 C   0  0  0  0  0  0  0  0  0  0  0  0
   -8.6259    4.6521    0.0000 C   0  0  0  0  0  0  0  0  0  0  0  0
   -6.1554    6.0959    0.0000 C   0  0  0  0  0  0  0  0  0  0  0  0
  2  1  1  0  0  0  0
  3  1  1  0  0  0  0
  4 10  1  0  0  0  0
  5  6  1  0  0  0  0
  6  1  1  0  0  0  0
  7  2  1  0  0  0  0
  8  5  1  0  0  0  0
  9  8  1  0  0  0  0
 10  3  1  0  0  0  0
 11  2  2  0  0  0  0
 12  3  2  0  0  0  0
 13  5  2  0  0  0  0
 14 16  2  0  0  0  0
 15 17  1  0  0  0  0
 16  9  1  0  0  0  0
 17  9  2  0  0  0  0
 18 15  2  0  0  0  0
 19  7  1  0  0  0  0
 20 14  1  0  0  0  0
 21 15  1  0  0  0  0
  7  4  1  0  0  0  0
 14 18  1  0  0  0  0
M  END
>  <IDNUMBER>
F1800-0167

>  <Chemical_Name>
N-(3,5-dimethylphenyl)-2-(2-methyl-3,5-dioxothiomorpholin-4-yl)acetamide

>  <PriceCoeff>
1.00

>  <CAS>
868215-88-7

>  <MW>
306.38

>  <Description>
solid

>  <FSP3>
0.40

>  <clogP>
2.97

>  <TPSA>
91.78

>  <Acceptor>
3

>  <Donor>
1

>  <RotBonds>
3

>  <HAC>
21

>  <Collection>
General

>  <PPDS>
+

$$$$
F1800-0168
  Mrv2219 10102508112D          

 22 23  0  0  0  0            999 V2000
   -4.0975    2.5300    0.0000 N   0  0  0  0  0  0  0  0  0  0  0  0
   -3.6850    3.2541    0.0000 C   0  0  0  0  0  0  0  0  0  0  0  0
   -3.6850    1.8241    0.0000 C   0  0  0  0  0  0  0  0  0  0  0  0
   -6.5725    3.9554    0.0000 C   0  0  0  0  0  0  0  0  0  0  0  0
   -2.4475    2.5300    0.0000 S   0  0  0  0  0  0  0  0  0  0  0  0
   -5.3350    3.2404    0.0000 C   0  0  0  0  0  0  0  0  0  0  0  0
   -6.1600    3.2404    0.0000 N   0  0  0  0  0  0  0  0  0  0  0  0
   -4.9225    2.5300    0.0000 C   0  0  0  0  0  0  0  0  0  0  0  0
   -7.3884    3.9554    0.0000 C   0  0  0  0  0  0  0  0  0  0  0  0
   -6.1600    4.6659    0.0000 C   0  0  0  0  0  0  0  0  0  0  0  0
   -2.8600    3.2541    0.0000 C   0  0  0  0  0  0  0  0  0  0  0  0
   -2.8600    1.8241    0.0000 C   0  0  0  0  0  0  0  0  0  0  0  0
   -4.1066    3.9691    0.0000 O   0  0  0  0  0  0  0  0  0  0  0  0
   -7.8009    4.6521    0.0000 C   0  0  0  0  0  0  0  0  0  0  0  0
   -6.5725    5.3809    0.0000 C   0  0  0  0  0  0  0  0  0  0  0  0
   -4.1066    1.1000    0.0000 O   0  0  0  0  0  0  0  0  0  0  0  0
   -4.9225    3.9554    0.0000 O   0  0  0  0  0  0  0  0  0  0  0  0
   -7.3884    5.3809    0.0000 C   0  0  0  0  0  0  0  0  0  0  0  0
   -7.8146    3.2312    0.0000 C   0  0  0  0  0  0  0  0  0  0  0  0
   -5.3350    4.6659    0.0000 C   0  0  0  0  0  0  0  0  0  0  0  0
   -2.4429    3.9691    0.0000 C   0  0  0  0  0  0  0  0  0  0  0  0
   -7.8009    6.0959    0.0000 C   0  0  0  0  0  0  0  0  0  0  0  0
  2  1  1  0  0  0  0
  3  1  1  0  0  0  0
  4  7  1  0  0  0  0
  5 12  1  0  0  0  0
  6  8  1  0  0  0  0
  7  6  1  0  0  0  0
  8  1  1  0  0  0  0
  9  4  2  0  0  0  0
 10  4  1  0  0  0  0
 11  2  1  0  0  0  0
 12  3  1  0  0  0  0
 13  2  2  0  0  0  0
 14  9  1  0  0  0  0
 15 10  2  0  0  0  0
 16  3  2  0  0  0  0
 17  6  2  0  0  0  0
 18 15  1  0  0  0  0
 19  9  1  0  0  0  0
 20 10  1  0  0  0  0
 21 11  1  0  0  0  0
 22 18  1  0  0  0  0
 11  5  1  0  0  0  0
 18 14  2  0  0  0  0
M  END
>  <IDNUMBER>
F1800-0168

>  <Chemical_Name>
2-(2-methyl-3,5-dioxothiomorpholin-4-yl)-N-(2,4,6-trimethylphenyl)acetamide

>  <PriceCoeff>
1.00

>  <CAS>
868215-89-8

>  <MW>
320.41

>  <Description>
solid

>  <FSP3>
0.44

>  <clogP>
2.17

>  <TPSA>
91.78

>  <Acceptor>
3

>  <Donor>
1

>  <RotBonds>
3

>  <HAC>
22

>  <Collection>
General

>  <PPDS>
+

$$$$
F1800-0169
  Mrv2219 10102508112D          

 21 22  0  0  0  0            999 V2000
   -4.0975    2.5300    0.0000 N   0  0  0  0  0  0  0  0  0  0  0  0
   -3.6850    3.2541    0.0000 C   0  0  0  0  0  0  0  0  0  0  0  0
   -3.6850    1.8241    0.0000 C   0  0  0  0  0  0  0  0  0  0  0  0
   -2.4475    2.5300    0.0000 S   0  0  0  0  0  0  0  0  0  0  0  0
   -4.9225    2.5300    0.0000 C   0  0  0  0  0  0  0  0  0  0  0  0
   -5.3350    3.2404    0.0000 C   0  0  0  0  0  0  0  0  0  0  0  0
   -2.8600    3.2541    0.0000 C   0  0  0  0  0  0  0  0  0  0  0  0
   -2.8600    1.8241    0.0000 C   0  0  0  0  0  0  0  0  0  0  0  0
   -6.1600    3.2404    0.0000 N   0  0  0  0  0  0  0  0  0  0  0  0
   -4.1066    3.9691    0.0000 O   0  0  0  0  0  0  0  0  0  0  0  0
   -4.1066    1.1000    0.0000 O   0  0  0  0  0  0  0  0  0  0  0  0
   -4.9225    3.9554    0.0000 O   0  0  0  0  0  0  0  0  0  0  0  0
   -6.5725    3.9554    0.0000 C   0  0  0  0  0  0  0  0  0  0  0  0
   -7.3884    5.3809    0.0000 C   0  0  0  0  0  0  0  0  0  0  0  0
   -6.1600    4.6659    0.0000 C   0  0  0  0  0  0  0  0  0  0  0  0
   -7.3884    3.9554    0.0000 C   0  0  0  0  0  0  0  0  0  0  0  0
   -6.5725    5.3809    0.0000 C   0  0  0  0  0  0  0  0  0  0  0  0
   -7.8009    4.6521    0.0000 C   0  0  0  0  0  0  0  0  0  0  0  0
   -2.4429    3.9691    0.0000 C   0  0  0  0  0  0  0  0  0  0  0  0
   -7.8009    6.0959    0.0000 C   0  0  0  0  0  0  0  0  0  0  0  0
   -8.6396    6.1096    0.0000 C   0  0  0  0  0  0  0  0  0  0  0  0
  2  1  1  0  0  0  0
  3  1  1  0  0  0  0
  4  8  1  0  0  0  0
  5  1  1  0  0  0  0
  6  5  1  0  0  0  0
  7  2  1  0  0  0  0
  8  3  1  0  0  0  0
  9  6  1  0  0  0  0
 10  2  2  0  0  0  0
 11  3  2  0  0  0  0
 12  6  2  0  0  0  0
 13  9  1  0  0  0  0
 14 18  2  0  0  0  0
 15 13  1  0  0  0  0
 16 13  2  0  0  0  0
 17 15  2  0  0  0  0
 18 16  1  0  0  0  0
 19  7  1  0  0  0  0
 20 14  1  0  0  0  0
 21 20  1  0  0  0  0
  7  4  1  0  0  0  0
 17 14  1  0  0  0  0
M  END
>  <IDNUMBER>
F1800-0169

>  <Chemical_Name>
N-(4-ethylphenyl)-2-(2-methyl-3,5-dioxothiomorpholin-4-yl)acetamide

>  <PriceCoeff>
1.00

>  <CAS>
868215-90-1

>  <MW>
306.38

>  <Description>
solid

>  <FSP3>
0.40

>  <clogP>
3.00

>  <TPSA>
91.78

>  <Acceptor>
3

>  <Donor>
1

>  <RotBonds>
4

>  <HAC>
21

>  <Collection>
General

>  <PPDS>
+

$$$$
F1800-0170
  Mrv2219 10102508112D          

 23 24  0  0  0  0            999 V2000
   -4.0975    2.5300    0.0000 N   0  0  0  0  0  0  0  0  0  0  0  0
   -3.6850    3.2541    0.0000 C   0  0  0  0  0  0  0  0  0  0  0  0
   -3.6850    1.8241    0.0000 C   0  0  0  0  0  0  0  0  0  0  0  0
   -2.4475    2.5300    0.0000 S   0  0  0  0  0  0  0  0  0  0  0  0
   -4.9225    2.5300    0.0000 C   0  0  0  0  0  0  0  0  0  0  0  0
   -5.3350    3.2404    0.0000 C   0  0  0  0  0  0  0  0  0  0  0  0
   -2.8600    3.2541    0.0000 C   0  0  0  0  0  0  0  0  0  0  0  0
   -2.8600    1.8241    0.0000 C   0  0  0  0  0  0  0  0  0  0  0  0
   -6.1600    3.2404    0.0000 N   0  0  0  0  0  0  0  0  0  0  0  0
   -4.1066    3.9691    0.0000 O   0  0  0  0  0  0  0  0  0  0  0  0
   -4.1066    1.1000    0.0000 O   0  0  0  0  0  0  0  0  0  0  0  0
   -4.9225    3.9554    0.0000 O   0  0  0  0  0  0  0  0  0  0  0  0
   -6.5725    3.9554    0.0000 C   0  0  0  0  0  0  0  0  0  0  0  0
   -7.3884    5.3809    0.0000 C   0  0  0  0  0  0  0  0  0  0  0  0
   -6.1600    4.6659    0.0000 C   0  0  0  0  0  0  0  0  0  0  0  0
   -7.3884    3.9554    0.0000 C   0  0  0  0  0  0  0  0  0  0  0  0
   -6.5725    5.3809    0.0000 C   0  0  0  0  0  0  0  0  0  0  0  0
   -7.8009    4.6521    0.0000 C   0  0  0  0  0  0  0  0  0  0  0  0
   -2.4429    3.9691    0.0000 C   0  0  0  0  0  0  0  0  0  0  0  0
   -7.8009    6.0959    0.0000 C   0  0  0  0  0  0  0  0  0  0  0  0
   -8.6396    6.1096    0.0000 C   0  0  0  0  0  0  0  0  0  0  0  0
   -9.0521    6.8246    0.0000 C   0  0  0  0  0  0  0  0  0  0  0  0
   -9.8771    6.8246    0.0000 C   0  0  0  0  0  0  0  0  0  0  0  0
  2  1  1  0  0  0  0
  3  1  1  0  0  0  0
  4  8  1  0  0  0  0
  5  1  1  0  0  0  0
  6  5  1  0  0  0  0
  7  2  1  0  0  0  0
  8  3  1  0  0  0  0
  9  6  1  0  0  0  0
 10  2  2  0  0  0  0
 11  3  2  0  0  0  0
 12  6  2  0  0  0  0
 13  9  1  0  0  0  0
 14 18  2  0  0  0  0
 15 13  1  0  0  0  0
 16 13  2  0  0  0  0
 17 15  2  0  0  0  0
 18 16  1  0  0  0  0
 19  7  1  0  0  0  0
 20 14  1  0  0  0  0
 21 20  1  0  0  0  0
 22 21  1  0  0  0  0
 23 22  1  0  0  0  0
  7  4  1  0  0  0  0
 17 14  1  0  0  0  0
M  END
>  <IDNUMBER>
F1800-0170

>  <Chemical_Name>
N-(4-butylphenyl)-2-(2-methyl-3,5-dioxothiomorpholin-4-yl)acetamide

>  <PriceCoeff>
1.00

>  <CAS>
868215-91-2

>  <MW>
334.43

>  <Description>
solid

>  <FSP3>
0.47

>  <clogP>
4.06

>  <TPSA>
91.78

>  <Acceptor>
3

>  <Donor>
1

>  <RotBonds>
6

>  <HAC>
23

>  <Collection>
General

>  <PPDS>
+

$$$$
F1800-0171
  Mrv2219 10102508112D          

 20 21  0  0  0  0            999 V2000
   -4.0975    2.5300    0.0000 N   0  0  0  0  0  0  0  0  0  0  0  0
   -3.6850    3.2541    0.0000 C   0  0  0  0  0  0  0  0  0  0  0  0
   -3.6850    1.8241    0.0000 C   0  0  0  0  0  0  0  0  0  0  0  0
   -2.4475    2.5300    0.0000 S   0  0  0  0  0  0  0  0  0  0  0  0
   -5.3350    3.2404    0.0000 C   0  0  0  0  0  0  0  0  0  0  0  0
   -4.9225    2.5300    0.0000 C   0  0  0  0  0  0  0  0  0  0  0  0
   -6.1600    3.2404    0.0000 N   0  0  0  0  0  0  0  0  0  0  0  0
   -2.8600    3.2541    0.0000 C   0  0  0  0  0  0  0  0  0  0  0  0
   -6.5725    3.9462    0.0000 C   0  0  0  0  0  0  0  0  0  0  0  0
   -2.8600    1.8241    0.0000 C   0  0  0  0  0  0  0  0  0  0  0  0
   -4.1066    3.9691    0.0000 O   0  0  0  0  0  0  0  0  0  0  0  0
   -4.1066    1.1000    0.0000 O   0  0  0  0  0  0  0  0  0  0  0  0
   -4.9225    3.9554    0.0000 O   0  0  0  0  0  0  0  0  0  0  0  0
   -7.3884    3.9554    0.0000 C   0  0  0  0  0  0  0  0  0  0  0  0
   -7.8146    3.2312    0.0000 F   0  0  0  0  0  0  0  0  0  0  0  0
   -6.1600    4.6521    0.0000 C   0  0  0  0  0  0  0  0  0  0  0  0
   -2.4429    3.9691    0.0000 C   0  0  0  0  0  0  0  0  0  0  0  0
   -7.8009    4.6521    0.0000 C   0  0  0  0  0  0  0  0  0  0  0  0
   -6.5725    5.3762    0.0000 C   0  0  0  0  0  0  0  0  0  0  0  0
   -7.3884    5.3762    0.0000 C   0  0  0  0  0  0  0  0  0  0  0  0
  2  1  1  0  0  0  0
  3  1  1  0  0  0  0
  4 10  1  0  0  0  0
  5  6  1  0  0  0  0
  6  1  1  0  0  0  0
  7  5  1  0  0  0  0
  8  2  1  0  0  0  0
  9  7  1  0  0  0  0
 10  3  1  0  0  0  0
 11  2  2  0  0  0  0
 12  3  2  0  0  0  0
 13  5  2  0  0  0  0
 14  9  1  0  0  0  0
 15 14  1  0  0  0  0
 16  9  2  0  0  0  0
 17  8  1  0  0  0  0
 18 14  2  0  0  0  0
 19 16  1  0  0  0  0
 20 19  2  0  0  0  0
  4  8  1  0  0  0  0
 18 20  1  0  0  0  0
M  END
>  <IDNUMBER>
F1800-0171

>  <Chemical_Name>
N-(2-fluorophenyl)-2-(2-methyl-3,5-dioxothiomorpholin-4-yl)acetamide

>  <PriceCoeff>
1.50

>  <MW>
296.32

>  <Description>
solid

>  <FSP3>
0.31

>  <clogP>
1.77

>  <TPSA>
91.78

>  <Acceptor>
3

>  <Donor>
1

>  <RotBonds>
3

>  <HAC>
20

>  <Collection>
Advanced

$$$$
F1800-0173
  Mrv2219 10102508112D          

 20 21  0  0  0  0            999 V2000
   -4.0975    2.5300    0.0000 N   0  0  0  0  0  0  0  0  0  0  0  0
   -3.6850    3.2541    0.0000 C   0  0  0  0  0  0  0  0  0  0  0  0
   -3.6850    1.8241    0.0000 C   0  0  0  0  0  0  0  0  0  0  0  0
   -2.4475    2.5300    0.0000 S   0  0  0  0  0  0  0  0  0  0  0  0
   -4.9225    2.5300    0.0000 C   0  0  0  0  0  0  0  0  0  0  0  0
   -5.3350    3.2404    0.0000 C   0  0  0  0  0  0  0  0  0  0  0  0
   -2.8600    3.2541    0.0000 C   0  0  0  0  0  0  0  0  0  0  0  0
   -2.8600    1.8241    0.0000 C   0  0  0  0  0  0  0  0  0  0  0  0
   -6.1600    3.2404    0.0000 N   0  0  0  0  0  0  0  0  0  0  0  0
   -4.1066    3.9691    0.0000 O   0  0  0  0  0  0  0  0  0  0  0  0
   -4.1066    1.1000    0.0000 O   0  0  0  0  0  0  0  0  0  0  0  0
   -4.9225    3.9554    0.0000 O   0  0  0  0  0  0  0  0  0  0  0  0
   -6.5725    3.9462    0.0000 C   0  0  0  0  0  0  0  0  0  0  0  0
   -7.3884    5.3809    0.0000 C   0  0  0  0  0  0  0  0  0  0  0  0
   -7.8009    6.0959    0.0000 F   0  0  0  0  0  0  0  0  0  0  0  0
   -6.1600    4.6659    0.0000 C   0  0  0  0  0  0  0  0  0  0  0  0
   -7.3884    3.9554    0.0000 C   0  0  0  0  0  0  0  0  0  0  0  0
   -7.8009    4.6521    0.0000 C   0  0  0  0  0  0  0  0  0  0  0  0
   -6.5725    5.3809    0.0000 C   0  0  0  0  0  0  0  0  0  0  0  0
   -2.4429    3.9691    0.0000 C   0  0  0  0  0  0  0  0  0  0  0  0
  2  1  1  0  0  0  0
  3  1  1  0  0  0  0
  4  8  1  0  0  0  0
  5  1  1  0  0  0  0
  6  5  1  0  0  0  0
  7  2  1  0  0  0  0
  8  3  1  0  0  0  0
  9  6  1  0  0  0  0
 10  2  2  0  0  0  0
 11  3  2  0  0  0  0
 12  6  2  0  0  0  0
 13  9  1  0  0  0  0
 14 18  1  0  0  0  0
 15 14  1  0  0  0  0
 16 13  2  0  0  0  0
 17 13  1  0  0  0  0
 18 17  2  0  0  0  0
 19 16  1  0  0  0  0
 20  7  1  0  0  0  0
  4  7  1  0  0  0  0
 19 14  2  0  0  0  0
M  END
>  <IDNUMBER>
F1800-0173

>  <Chemical_Name>
N-(4-fluorophenyl)-2-(2-methyl-3,5-dioxothiomorpholin-4-yl)acetamide

>  <PriceCoeff>
1.00

>  <CAS>
868215-94-5

>  <MW>
296.32

>  <Description>
solid

>  <FSP3>
0.31

>  <clogP>
2.37

>  <TPSA>
91.78

>  <Acceptor>
3

>  <Donor>
1

>  <RotBonds>
3

>  <HAC>
20

>  <Collection>
General

>  <PPDS>
+

$$$$
F1800-0174
  Mrv2219 10102508112D          

 20 21  0  0  0  0            999 V2000
   -4.0975    2.5300    0.0000 N   0  0  0  0  0  0  0  0  0  0  0  0
   -3.6850    3.2541    0.0000 C   0  0  0  0  0  0  0  0  0  0  0  0
   -3.6850    1.8241    0.0000 C   0  0  0  0  0  0  0  0  0  0  0  0
   -2.4475    2.5300    0.0000 S   0  0  0  0  0  0  0  0  0  0  0  0
   -5.3350    3.2404    0.0000 C   0  0  0  0  0  0  0  0  0  0  0  0
   -4.9225    2.5300    0.0000 C   0  0  0  0  0  0  0  0  0  0  0  0
   -2.8600    3.2541    0.0000 C   0  0  0  0  0  0  0  0  0  0  0  0
   -6.1600    3.2404    0.0000 N   0  0  0  0  0  0  0  0  0  0  0  0
   -2.8600    1.8241    0.0000 C   0  0  0  0  0  0  0  0  0  0  0  0
   -4.1066    3.9691    0.0000 O   0  0  0  0  0  0  0  0  0  0  0  0
   -4.1066    1.1000    0.0000 O   0  0  0  0  0  0  0  0  0  0  0  0
   -6.5725    3.9554    0.0000 C   0  0  0  0  0  0  0  0  0  0  0  0
   -4.9225    3.9554    0.0000 O   0  0  0  0  0  0  0  0  0  0  0  0
   -7.3884    3.9554    0.0000 C   0  0  0  0  0  0  0  0  0  0  0  0
   -7.8009    4.6521    0.0000 C   0  0  0  0  0  0  0  0  0  0  0  0
   -8.6259    4.6521    0.0000 Cl  0  0  0  0  0  0  0  0  0  0  0  0
   -6.5725    5.3809    0.0000 C   0  0  0  0  0  0  0  0  0  0  0  0
   -6.1600    4.6659    0.0000 C   0  0  0  0  0  0  0  0  0  0  0  0
   -2.4429    3.9691    0.0000 C   0  0  0  0  0  0  0  0  0  0  0  0
   -7.3884    5.3809    0.0000 C   0  0  0  0  0  0  0  0  0  0  0  0
  2  1  1  0  0  0  0
  3  1  1  0  0  0  0
  4  9  1  0  0  0  0
  5  6  1  0  0  0  0
  6  1  1  0  0  0  0
  7  2  1  0  0  0  0
  8  5  1  0  0  0  0
  9  3  1  0  0  0  0
 10  2  2  0  0  0  0
 11  3  2  0  0  0  0
 12  8  1  0  0  0  0
 13  5  2  0  0  0  0
 14 12  2  0  0  0  0
 15 14  1  0  0  0  0
 16 15  1  0  0  0  0
 17 18  2  0  0  0  0
 18 12  1  0  0  0  0
 19  7  1  0  0  0  0
 20 17  1  0  0  0  0
  4  7  1  0  0  0  0
 20 15  2  0  0  0  0
M  END
>  <IDNUMBER>
F1800-0174

>  <Chemical_Name>
N-(3-chlorophenyl)-2-(2-methyl-3,5-dioxothiomorpholin-4-yl)acetamide

>  <PriceCoeff>
1.00

>  <CAS>
868215-95-6

>  <MW>
312.77

>  <Description>
solid

>  <FSP3>
0.31

>  <clogP>
2.94

>  <TPSA>
91.78

>  <Acceptor>
3

>  <Donor>
1

>  <RotBonds>
3

>  <HAC>
20

>  <Collection>
General

>  <PPDS>
+

$$$$
F1800-0175
  Mrv2219 10102508112D          

 20 21  0  0  0  0            999 V2000
   -4.0975    2.5300    0.0000 N   0  0  0  0  0  0  0  0  0  0  0  0
   -3.6850    3.2541    0.0000 C   0  0  0  0  0  0  0  0  0  0  0  0
   -3.6850    1.8241    0.0000 C   0  0  0  0  0  0  0  0  0  0  0  0
   -2.4475    2.5300    0.0000 S   0  0  0  0  0  0  0  0  0  0  0  0
   -4.9225    2.5300    0.0000 C   0  0  0  0  0  0  0  0  0  0  0  0
   -5.3350    3.2404    0.0000 C   0  0  0  0  0  0  0  0  0  0  0  0
   -2.8600    3.2541    0.0000 C   0  0  0  0  0  0  0  0  0  0  0  0
   -2.8600    1.8241    0.0000 C   0  0  0  0  0  0  0  0  0  0  0  0
   -6.1600    3.2404    0.0000 N   0  0  0  0  0  0  0  0  0  0  0  0
   -4.1066    3.9691    0.0000 O   0  0  0  0  0  0  0  0  0  0  0  0
   -4.1066    1.1000    0.0000 O   0  0  0  0  0  0  0  0  0  0  0  0
   -4.9225    3.9554    0.0000 O   0  0  0  0  0  0  0  0  0  0  0  0
   -6.5725    3.9554    0.0000 C   0  0  0  0  0  0  0  0  0  0  0  0
   -7.3884    5.3762    0.0000 C   0  0  0  0  0  0  0  0  0  0  0  0
   -7.8146    6.0959    0.0000 Cl  0  0  0  0  0  0  0  0  0  0  0  0
   -7.3884    3.9554    0.0000 C   0  0  0  0  0  0  0  0  0  0  0  0
   -6.1600    4.6521    0.0000 C   0  0  0  0  0  0  0  0  0  0  0  0
   -7.8009    4.6521    0.0000 C   0  0  0  0  0  0  0  0  0  0  0  0
   -6.5725    5.3762    0.0000 C   0  0  0  0  0  0  0  0  0  0  0  0
   -2.4429    3.9691    0.0000 C   0  0  0  0  0  0  0  0  0  0  0  0
  2  1  1  0  0  0  0
  3  1  1  0  0  0  0
  4  8  1  0  0  0  0
  5  1  1  0  0  0  0
  6  5  1  0  0  0  0
  7  2  1  0  0  0  0
  8  3  1  0  0  0  0
  9  6  1  0  0  0  0
 10  2  2  0  0  0  0
 11  3  2  0  0  0  0
 12  6  2  0  0  0  0
 13  9  1  0  0  0  0
 14 19  1  0  0  0  0
 15 14  1  0  0  0  0
 16 13  2  0  0  0  0
 17 13  1  0  0  0  0
 18 16  1  0  0  0  0
 19 17  2  0  0  0  0
 20  7  1  0  0  0  0
  4  7  1  0  0  0  0
 18 14  2  0  0  0  0
M  END
>  <IDNUMBER>
F1800-0175

>  <Chemical_Name>
N-(4-chlorophenyl)-2-(2-methyl-3,5-dioxothiomorpholin-4-yl)acetamide

>  <PriceCoeff>
1.00

>  <CAS>
868215-96-7

>  <MW>
312.77

>  <Description>
solid

>  <FSP3>
0.31

>  <clogP>
2.94

>  <TPSA>
91.78

>  <Acceptor>
3

>  <Donor>
1

>  <RotBonds>
3

>  <HAC>
20

>  <Collection>
General

>  <PPDS>
+

$$$$
F1800-0176
  Mrv2219 10102508112D          

 20 21  0  0  0  0            999 V2000
   -4.0975    2.5300    0.0000 N   0  0  0  0  0  0  0  0  0  0  0  0
   -3.6850    3.2541    0.0000 C   0  0  0  0  0  0  0  0  0  0  0  0
   -3.6850    1.8241    0.0000 C   0  0  0  0  0  0  0  0  0  0  0  0
   -2.4475    2.5300    0.0000 S   0  0  0  0  0  0  0  0  0  0  0  0
   -4.9225    2.5300    0.0000 C   0  0  0  0  0  0  0  0  0  0  0  0
   -5.3350    3.2404    0.0000 C   0  0  0  0  0  0  0  0  0  0  0  0
   -2.8600    3.2541    0.0000 C   0  0  0  0  0  0  0  0  0  0  0  0
   -2.8600    1.8241    0.0000 C   0  0  0  0  0  0  0  0  0  0  0  0
   -6.1600    3.2404    0.0000 N   0  0  0  0  0  0  0  0  0  0  0  0
   -4.1066    3.9691    0.0000 O   0  0  0  0  0  0  0  0  0  0  0  0
   -4.1066    1.1000    0.0000 O   0  0  0  0  0  0  0  0  0  0  0  0
   -4.9225    3.9554    0.0000 O   0  0  0  0  0  0  0  0  0  0  0  0
   -6.5725    3.9462    0.0000 C   0  0  0  0  0  0  0  0  0  0  0  0
   -7.3884    5.3809    0.0000 C   0  0  0  0  0  0  0  0  0  0  0  0
   -7.8009    6.0959    0.0000 Br  0  0  0  0  0  0  0  0  0  0  0  0
   -6.1600    4.6659    0.0000 C   0  0  0  0  0  0  0  0  0  0  0  0
   -7.3884    3.9554    0.0000 C   0  0  0  0  0  0  0  0  0  0  0  0
   -7.8009    4.6521    0.0000 C   0  0  0  0  0  0  0  0  0  0  0  0
   -6.5725    5.3809    0.0000 C   0  0  0  0  0  0  0  0  0  0  0  0
   -2.4429    3.9691    0.0000 C   0  0  0  0  0  0  0  0  0  0  0  0
  2  1  1  0  0  0  0
  3  1  1  0  0  0  0
  4  8  1  0  0  0  0
  5  1  1  0  0  0  0
  6  5  1  0  0  0  0
  7  2  1  0  0  0  0
  8  3  1  0  0  0  0
  9  6  1  0  0  0  0
 10  2  2  0  0  0  0
 11  3  2  0  0  0  0
 12  6  2  0  0  0  0
 13  9  1  0  0  0  0
 14 18  1  0  0  0  0
 15 14  1  0  0  0  0
 16 13  2  0  0  0  0
 17 13  1  0  0  0  0
 18 17  2  0  0  0  0
 19 16  1  0  0  0  0
 20  7  1  0  0  0  0
  4  7  1  0  0  0  0
 19 14  2  0  0  0  0
M  END
>  <IDNUMBER>
F1800-0176

>  <Chemical_Name>
N-(4-bromophenyl)-2-(2-methyl-3,5-dioxothiomorpholin-4-yl)acetamide

>  <PriceCoeff>
1.00

>  <CAS>
868215-97-8

>  <MW>
357.22

>  <Description>
solid

>  <FSP3>
0.31

>  <clogP>
3.09

>  <TPSA>
91.78

>  <Acceptor>
3

>  <Donor>
1

>  <RotBonds>
3

>  <HAC>
20

>  <Collection>
General

>  <PPDS>
+

$$$$
F1800-0177
  Mrv2219 10102508112D          

 21 22  0  0  0  0            999 V2000
   -4.0975    2.5300    0.0000 N   0  0  0  0  0  0  0  0  0  0  0  0
   -3.6850    3.2541    0.0000 C   0  0  0  0  0  0  0  0  0  0  0  0
   -3.6850    1.8241    0.0000 C   0  0  0  0  0  0  0  0  0  0  0  0
   -2.4475    2.5300    0.0000 S   0  0  0  0  0  0  0  0  0  0  0  0
   -5.3350    3.2404    0.0000 C   0  0  0  0  0  0  0  0  0  0  0  0
   -4.9225    2.5300    0.0000 C   0  0  0  0  0  0  0  0  0  0  0  0
   -6.1600    3.2404    0.0000 N   0  0  0  0  0  0  0  0  0  0  0  0
   -6.5725    3.9554    0.0000 C   0  0  0  0  0  0  0  0  0  0  0  0
   -7.3884    3.9554    0.0000 C   0  0  0  0  0  0  0  0  0  0  0  0
   -2.8600    3.2541    0.0000 C   0  0  0  0  0  0  0  0  0  0  0  0
   -7.8009    4.6521    0.0000 C   0  0  0  0  0  0  0  0  0  0  0  0
   -2.8600    1.8241    0.0000 C   0  0  0  0  0  0  0  0  0  0  0  0
   -4.1066    3.9691    0.0000 O   0  0  0  0  0  0  0  0  0  0  0  0
   -4.1066    1.1000    0.0000 O   0  0  0  0  0  0  0  0  0  0  0  0
   -4.9225    3.9554    0.0000 O   0  0  0  0  0  0  0  0  0  0  0  0
   -6.1600    4.6521    0.0000 C   0  0  0  0  0  0  0  0  0  0  0  0
   -7.3884    5.3762    0.0000 C   0  0  0  0  0  0  0  0  0  0  0  0
   -7.8146    3.2312    0.0000 F   0  0  0  0  0  0  0  0  0  0  0  0
   -6.5725    5.3762    0.0000 C   0  0  0  0  0  0  0  0  0  0  0  0
   -7.8146    6.0959    0.0000 F   0  0  0  0  0  0  0  0  0  0  0  0
   -2.4429    3.9691    0.0000 C   0  0  0  0  0  0  0  0  0  0  0  0
  2  1  1  0  0  0  0
  3  1  1  0  0  0  0
  4 12  1  0  0  0  0
  5  6  1  0  0  0  0
  6  1  1  0  0  0  0
  7  5  1  0  0  0  0
  8  7  1  0  0  0  0
  9  8  1  0  0  0  0
 10  2  1  0  0  0  0
 11  9  2  0  0  0  0
 12  3  1  0  0  0  0
 13  2  2  0  0  0  0
 14  3  2  0  0  0  0
 15  5  2  0  0  0  0
 16  8  2  0  0  0  0
 17 19  2  0  0  0  0
 18  9  1  0  0  0  0
 19 16  1  0  0  0  0
 20 17  1  0  0  0  0
 21 10  1  0  0  0  0
 10  4  1  0  0  0  0
 11 17  1  0  0  0  0
M  END
>  <IDNUMBER>
F1800-0177

>  <Chemical_Name>
N-(2,4-difluorophenyl)-2-(2-methyl-3,5-dioxothiomorpholin-4-yl)acetamide

>  <PriceCoeff>
1.00

>  <CAS>
868215-98-9

>  <MW>
314.31

>  <Description>
solid

>  <FSP3>
0.31

>  <clogP>
2.00

>  <TPSA>
91.78

>  <Acceptor>
3

>  <Donor>
1

>  <RotBonds>
3

>  <HAC>
21

>  <Collection>
General

>  <PPDS>
+

$$$$
F1800-0178
  Mrv2219 10102508112D          

 21 22  0  0  0  0            999 V2000
   -4.0975    2.5300    0.0000 N   0  0  0  0  0  0  0  0  0  0  0  0
   -3.6850    3.2541    0.0000 C   0  0  0  0  0  0  0  0  0  0  0  0
   -3.6850    1.8241    0.0000 C   0  0  0  0  0  0  0  0  0  0  0  0
   -2.4475    2.5300    0.0000 S   0  0  0  0  0  0  0  0  0  0  0  0
   -5.3350    3.2404    0.0000 C   0  0  0  0  0  0  0  0  0  0  0  0
   -4.9225    2.5300    0.0000 C   0  0  0  0  0  0  0  0  0  0  0  0
   -2.8600    3.2541    0.0000 C   0  0  0  0  0  0  0  0  0  0  0  0
   -7.8009    4.6521    0.0000 C   0  0  0  0  0  0  0  0  0  0  0  0
   -7.3884    3.9554    0.0000 C   0  0  0  0  0  0  0  0  0  0  0  0
   -6.1600    3.2404    0.0000 N   0  0  0  0  0  0  0  0  0  0  0  0
   -2.8600    1.8241    0.0000 C   0  0  0  0  0  0  0  0  0  0  0  0
   -4.1066    3.9691    0.0000 O   0  0  0  0  0  0  0  0  0  0  0  0
   -6.5725    3.9554    0.0000 C   0  0  0  0  0  0  0  0  0  0  0  0
   -7.3884    5.3809    0.0000 C   0  0  0  0  0  0  0  0  0  0  0  0
   -4.1066    1.1000    0.0000 O   0  0  0  0  0  0  0  0  0  0  0  0
   -4.9225    3.9554    0.0000 O   0  0  0  0  0  0  0  0  0  0  0  0
   -6.5725    5.3809    0.0000 C   0  0  0  0  0  0  0  0  0  0  0  0
   -8.6259    4.6521    0.0000 Cl  0  0  0  0  0  0  0  0  0  0  0  0
   -6.1600    4.6659    0.0000 C   0  0  0  0  0  0  0  0  0  0  0  0
   -7.8009    6.0959    0.0000 Cl  0  0  0  0  0  0  0  0  0  0  0  0
   -2.4429    3.9691    0.0000 C   0  0  0  0  0  0  0  0  0  0  0  0
  2  1  1  0  0  0  0
  3  1  1  0  0  0  0
  4 11  1  0  0  0  0
  5  6  1  0  0  0  0
  6  1  1  0  0  0  0
  7  2  1  0  0  0  0
  8  9  1  0  0  0  0
  9 13  2  0  0  0  0
 10  5  1  0  0  0  0
 11  3  1  0  0  0  0
 12  2  2  0  0  0  0
 13 10  1  0  0  0  0
 14 17  1  0  0  0  0
 15  3  2  0  0  0  0
 16  5  2  0  0  0  0
 17 19  2  0  0  0  0
 18  8  1  0  0  0  0
 19 13  1  0  0  0  0
 20 14  1  0  0  0  0
 21  7  1  0  0  0  0
  7  4  1  0  0  0  0
 14  8  2  0  0  0  0
M  END
>  <IDNUMBER>
F1800-0178

>  <Chemical_Name>
N-(3,4-dichlorophenyl)-2-(2-methyl-3,5-dioxothiomorpholin-4-yl)acetamide

>  <PriceCoeff>
1.00

>  <CAS>
868215-99-0

>  <MW>
347.22

>  <Description>
solid

>  <FSP3>
0.31

>  <clogP>
3.62

>  <TPSA>
91.78

>  <Acceptor>
3

>  <Donor>
1

>  <RotBonds>
3

>  <HAC>
21

>  <Collection>
General

>  <PPDS>
+

$$$$
F1800-0179
  Mrv2219 10102508112D          

 21 22  0  0  0  0            999 V2000
   -4.0975    2.5300    0.0000 N   0  0  0  0  0  0  0  0  0  0  0  0
   -3.6850    3.2541    0.0000 C   0  0  0  0  0  0  0  0  0  0  0  0
   -3.6850    1.8241    0.0000 C   0  0  0  0  0  0  0  0  0  0  0  0
   -2.4475    2.5300    0.0000 S   0  0  0  0  0  0  0  0  0  0  0  0
   -5.3350    3.2404    0.0000 C   0  0  0  0  0  0  0  0  0  0  0  0
   -4.9225    2.5300    0.0000 C   0  0  0  0  0  0  0  0  0  0  0  0
   -2.8600    3.2541    0.0000 C   0  0  0  0  0  0  0  0  0  0  0  0
   -7.8009    4.6521    0.0000 C   0  0  0  0  0  0  0  0  0  0  0  0
   -7.3884    3.9554    0.0000 C   0  0  0  0  0  0  0  0  0  0  0  0
   -6.1600    3.2404    0.0000 N   0  0  0  0  0  0  0  0  0  0  0  0
   -2.8600    1.8241    0.0000 C   0  0  0  0  0  0  0  0  0  0  0  0
   -4.1066    3.9691    0.0000 O   0  0  0  0  0  0  0  0  0  0  0  0
   -6.5725    3.9554    0.0000 C   0  0  0  0  0  0  0  0  0  0  0  0
   -4.1066    1.1000    0.0000 O   0  0  0  0  0  0  0  0  0  0  0  0
   -7.3884    5.3809    0.0000 C   0  0  0  0  0  0  0  0  0  0  0  0
   -4.9225    3.9554    0.0000 O   0  0  0  0  0  0  0  0  0  0  0  0
   -6.5725    5.3809    0.0000 C   0  0  0  0  0  0  0  0  0  0  0  0
   -8.6259    4.6521    0.0000 Cl  0  0  0  0  0  0  0  0  0  0  0  0
   -6.1600    4.6659    0.0000 C   0  0  0  0  0  0  0  0  0  0  0  0
   -2.4429    3.9691    0.0000 C   0  0  0  0  0  0  0  0  0  0  0  0
   -7.8009    6.0959    0.0000 C   0  0  0  0  0  0  0  0  0  0  0  0
  2  1  1  0  0  0  0
  3  1  1  0  0  0  0
  4 11  1  0  0  0  0
  5  6  1  0  0  0  0
  6  1  1  0  0  0  0
  7  2  1  0  0  0  0
  8  9  1  0  0  0  0
  9 13  2  0  0  0  0
 10  5  1  0  0  0  0
 11  3  1  0  0  0  0
 12  2  2  0  0  0  0
 13 10  1  0  0  0  0
 14  3  2  0  0  0  0
 15 17  1  0  0  0  0
 16  5  2  0  0  0  0
 17 19  2  0  0  0  0
 18  8  1  0  0  0  0
 19 13  1  0  0  0  0
 20  7  1  0  0  0  0
 21 15  1  0  0  0  0
  7  4  1  0  0  0  0
 15  8  2  0  0  0  0
M  END
>  <IDNUMBER>
F1800-0179

>  <Chemical_Name>
N-(3-chloro-4-methylphenyl)-2-(2-methyl-3,5-dioxothiomorpholin-4-yl)acetamide

>  <PriceCoeff>
1.00

>  <CAS>
868216-00-6

>  <MW>
326.80

>  <Description>
solid

>  <FSP3>
0.36

>  <clogP>
3.44

>  <TPSA>
91.78

>  <Acceptor>
3

>  <Donor>
1

>  <RotBonds>
3

>  <HAC>
21

>  <Collection>
General

>  <PPDS>
+

$$$$
F1800-0180
  Mrv2219 10102508112D          

 22 23  0  0  0  0            999 V2000
   -4.0975    2.5300    0.0000 N   0  0  0  0  0  0  0  0  0  0  0  0
   -3.6850    3.2541    0.0000 C   0  0  0  0  0  0  0  0  0  0  0  0
   -3.6850    1.8241    0.0000 C   0  0  0  0  0  0  0  0  0  0  0  0
   -6.5725    3.9554    0.0000 C   0  0  0  0  0  0  0  0  0  0  0  0
   -2.4475    2.5300    0.0000 S   0  0  0  0  0  0  0  0  0  0  0  0
   -5.3350    3.2404    0.0000 C   0  0  0  0  0  0  0  0  0  0  0  0
   -6.1600    3.2404    0.0000 N   0  0  0  0  0  0  0  0  0  0  0  0
   -4.9225    2.5300    0.0000 C   0  0  0  0  0  0  0  0  0  0  0  0
   -2.8600    3.2541    0.0000 C   0  0  0  0  0  0  0  0  0  0  0  0
   -6.1600    4.6521    0.0000 C   0  0  0  0  0  0  0  0  0  0  0  0
   -2.8600    1.8241    0.0000 C   0  0  0  0  0  0  0  0  0  0  0  0
   -4.1066    3.9691    0.0000 O   0  0  0  0  0  0  0  0  0  0  0  0
   -7.3884    3.9554    0.0000 C   0  0  0  0  0  0  0  0  0  0  0  0
   -4.1066    1.1000    0.0000 O   0  0  0  0  0  0  0  0  0  0  0  0
   -4.9225    3.9554    0.0000 O   0  0  0  0  0  0  0  0  0  0  0  0
   -7.8009    4.6521    0.0000 C   0  0  0  0  0  0  0  0  0  0  0  0
   -6.5725    5.3762    0.0000 C   0  0  0  0  0  0  0  0  0  0  0  0
   -7.3884    5.3762    0.0000 C   0  0  0  0  0  0  0  0  0  0  0  0
   -6.1554    6.0959    0.0000 Cl  0  0  0  0  0  0  0  0  0  0  0  0
   -7.8146    3.2312    0.0000 O   0  0  0  0  0  0  0  0  0  0  0  0
   -2.4429    3.9691    0.0000 C   0  0  0  0  0  0  0  0  0  0  0  0
   -7.4021    2.5116    0.0000 C   0  0  0  0  0  0  0  0  0  0  0  0
  2  1  1  0  0  0  0
  3  1  1  0  0  0  0
  4  7  1  0  0  0  0
  5 11  1  0  0  0  0
  6  8  1  0  0  0  0
  7  6  1  0  0  0  0
  8  1  1  0  0  0  0
  9  2  1  0  0  0  0
 10  4  1  0  0  0  0
 11  3  1  0  0  0  0
 12  2  2  0  0  0  0
 13  4  2  0  0  0  0
 14  3  2  0  0  0  0
 15  6  2  0  0  0  0
 16 13  1  0  0  0  0
 17 10  2  0  0  0  0
 18 16  2  0  0  0  0
 19 17  1  0  0  0  0
 20 13  1  0  0  0  0
 21  9  1  0  0  0  0
 22 20  1  0  0  0  0
  9  5  1  0  0  0  0
 17 18  1  0  0  0  0
M  END
>  <IDNUMBER>
F1800-0180

>  <Chemical_Name>
N-(5-chloro-2-methoxyphenyl)-2-(2-methyl-3,5-dioxothiomorpholin-4-yl)acetamide

>  <PriceCoeff>
1.00

>  <CAS>
868216-01-7

>  <MW>
342.80

>  <Description>
solid

>  <FSP3>
0.36

>  <clogP>
2.37

>  <TPSA>
101.01

>  <Acceptor>
4

>  <Donor>
1

>  <RotBonds>
4

>  <HAC>
22

>  <Collection>
General

>  <PPDS>
+

$$$$
F1800-0181
  Mrv2219 10102508112D          

 21 22  0  0  0  0            999 V2000
   -4.0975    2.5300    0.0000 N   0  0  0  0  0  0  0  0  0  0  0  0
   -3.6850    3.2541    0.0000 C   0  0  0  0  0  0  0  0  0  0  0  0
   -3.6850    1.8241    0.0000 C   0  0  0  0  0  0  0  0  0  0  0  0
   -2.4475    2.5300    0.0000 S   0  0  0  0  0  0  0  0  0  0  0  0
   -5.3350    3.2404    0.0000 C   0  0  0  0  0  0  0  0  0  0  0  0
   -4.9225    2.5300    0.0000 C   0  0  0  0  0  0  0  0  0  0  0  0
   -6.1600    3.2404    0.0000 N   0  0  0  0  0  0  0  0  0  0  0  0
   -2.8600    3.2541    0.0000 C   0  0  0  0  0  0  0  0  0  0  0  0
   -6.5725    3.9554    0.0000 C   0  0  0  0  0  0  0  0  0  0  0  0
   -2.8600    1.8241    0.0000 C   0  0  0  0  0  0  0  0  0  0  0  0
   -4.1066    3.9691    0.0000 O   0  0  0  0  0  0  0  0  0  0  0  0
   -4.1066    1.1000    0.0000 O   0  0  0  0  0  0  0  0  0  0  0  0
   -4.9225    3.9554    0.0000 O   0  0  0  0  0  0  0  0  0  0  0  0
   -7.3884    3.9554    0.0000 C   0  0  0  0  0  0  0  0  0  0  0  0
   -7.8146    3.2312    0.0000 O   0  0  0  0  0  0  0  0  0  0  0  0
   -6.1600    4.6521    0.0000 C   0  0  0  0  0  0  0  0  0  0  0  0
   -2.4429    3.9691    0.0000 C   0  0  0  0  0  0  0  0  0  0  0  0
   -7.8009    4.6521    0.0000 C   0  0  0  0  0  0  0  0  0  0  0  0
   -7.4021    2.5116    0.0000 C   0  0  0  0  0  0  0  0  0  0  0  0
   -6.5725    5.3762    0.0000 C   0  0  0  0  0  0  0  0  0  0  0  0
   -7.3884    5.3762    0.0000 C   0  0  0  0  0  0  0  0  0  0  0  0
  2  1  1  0  0  0  0
  3  1  1  0  0  0  0
  4 10  1  0  0  0  0
  5  6  1  0  0  0  0
  6  1  1  0  0  0  0
  7  5  1  0  0  0  0
  8  2  1  0  0  0  0
  9  7  1  0  0  0  0
 10  3  1  0  0  0  0
 11  2  2  0  0  0  0
 12  3  2  0  0  0  0
 13  5  2  0  0  0  0
 14  9  2  0  0  0  0
 15 14  1  0  0  0  0
 16  9  1  0  0  0  0
 17  8  1  0  0  0  0
 18 14  1  0  0  0  0
 19 15  1  0  0  0  0
 20 16  2  0  0  0  0
 21 20  1  0  0  0  0
  8  4  1  0  0  0  0
 21 18  2  0  0  0  0
M  END
>  <IDNUMBER>
F1800-0181

>  <Chemical_Name>
N-(2-methoxyphenyl)-2-(2-methyl-3,5-dioxothiomorpholin-4-yl)acetamide

>  <PriceCoeff>
1.00

>  <CAS>
868216-02-8

>  <MW>
308.35

>  <Description>
solid

>  <FSP3>
0.36

>  <clogP>
1.46

>  <TPSA>
101.01

>  <Acceptor>
4

>  <Donor>
1

>  <RotBonds>
4

>  <HAC>
21

>  <Collection>
General

>  <PPDS>
+

$$$$
F1800-0182
  Mrv2219 10102508112D          

 21 22  0  0  0  0            999 V2000
   -4.0975    2.5300    0.0000 N   0  0  0  0  0  0  0  0  0  0  0  0
   -3.6850    3.2541    0.0000 C   0  0  0  0  0  0  0  0  0  0  0  0
   -3.6850    1.8241    0.0000 C   0  0  0  0  0  0  0  0  0  0  0  0
   -2.4475    2.5300    0.0000 S   0  0  0  0  0  0  0  0  0  0  0  0
   -5.3350    3.2404    0.0000 C   0  0  0  0  0  0  0  0  0  0  0  0
   -4.9225    2.5300    0.0000 C   0  0  0  0  0  0  0  0  0  0  0  0
   -2.8600    3.2541    0.0000 C   0  0  0  0  0  0  0  0  0  0  0  0
   -6.1600    3.2404    0.0000 N   0  0  0  0  0  0  0  0  0  0  0  0
   -2.8600    1.8241    0.0000 C   0  0  0  0  0  0  0  0  0  0  0  0
   -4.1066    3.9691    0.0000 O   0  0  0  0  0  0  0  0  0  0  0  0
   -4.1066    1.1000    0.0000 O   0  0  0  0  0  0  0  0  0  0  0  0
   -6.5725    3.9554    0.0000 C   0  0  0  0  0  0  0  0  0  0  0  0
   -4.9225    3.9554    0.0000 O   0  0  0  0  0  0  0  0  0  0  0  0
   -7.3884    3.9554    0.0000 C   0  0  0  0  0  0  0  0  0  0  0  0
   -7.8009    4.6521    0.0000 C   0  0  0  0  0  0  0  0  0  0  0  0
   -8.6259    4.6521    0.0000 O   0  0  0  0  0  0  0  0  0  0  0  0
   -6.5725    5.3809    0.0000 C   0  0  0  0  0  0  0  0  0  0  0  0
   -6.1600    4.6659    0.0000 C   0  0  0  0  0  0  0  0  0  0  0  0
   -2.4429    3.9691    0.0000 C   0  0  0  0  0  0  0  0  0  0  0  0
   -7.3884    5.3809    0.0000 C   0  0  0  0  0  0  0  0  0  0  0  0
   -9.0521    5.3534    0.0000 C   0  0  0  0  0  0  0  0  0  0  0  0
  2  1  1  0  0  0  0
  3  1  1  0  0  0  0
  4  9  1  0  0  0  0
  5  6  1  0  0  0  0
  6  1  1  0  0  0  0
  7  2  1  0  0  0  0
  8  5  1  0  0  0  0
  9  3  1  0  0  0  0
 10  2  2  0  0  0  0
 11  3  2  0  0  0  0
 12  8  1  0  0  0  0
 13  5  2  0  0  0  0
 14 12  2  0  0  0  0
 15 14  1  0  0  0  0
 16 15  1  0  0  0  0
 17 18  2  0  0  0  0
 18 12  1  0  0  0  0
 19  7  1  0  0  0  0
 20 17  1  0  0  0  0
 21 16  1  0  0  0  0
  7  4  1  0  0  0  0
 20 15  2  0  0  0  0
M  END
>  <IDNUMBER>
F1800-0182

>  <Chemical_Name>
N-(3-methoxyphenyl)-2-(2-methyl-3,5-dioxothiomorpholin-4-yl)acetamide

>  <PriceCoeff>
1.00

>  <CAS>
868216-03-9

>  <MW>
308.35

>  <Description>
solid

>  <FSP3>
0.36

>  <clogP>
2.05

>  <TPSA>
101.01

>  <Acceptor>
4

>  <Donor>
1

>  <RotBonds>
4

>  <HAC>
21

>  <Collection>
General

>  <PPDS>
+

$$$$
F1800-0184
  Mrv2219 10102508112D          

 22 23  0  0  0  0            999 V2000
   -4.0975    2.5300    0.0000 N   0  0  0  0  0  0  0  0  0  0  0  0
   -3.6850    3.2541    0.0000 C   0  0  0  0  0  0  0  0  0  0  0  0
   -3.6850    1.8241    0.0000 C   0  0  0  0  0  0  0  0  0  0  0  0
   -2.4475    2.5300    0.0000 S   0  0  0  0  0  0  0  0  0  0  0  0
   -5.3350    3.2404    0.0000 C   0  0  0  0  0  0  0  0  0  0  0  0
   -4.9225    2.5300    0.0000 C   0  0  0  0  0  0  0  0  0  0  0  0
   -6.1600    3.2404    0.0000 N   0  0  0  0  0  0  0  0  0  0  0  0
   -2.8600    3.2541    0.0000 C   0  0  0  0  0  0  0  0  0  0  0  0
   -6.5725    3.9554    0.0000 C   0  0  0  0  0  0  0  0  0  0  0  0
   -2.8600    1.8241    0.0000 C   0  0  0  0  0  0  0  0  0  0  0  0
   -4.1066    3.9691    0.0000 O   0  0  0  0  0  0  0  0  0  0  0  0
   -4.1066    1.1000    0.0000 O   0  0  0  0  0  0  0  0  0  0  0  0
   -4.9225    3.9554    0.0000 O   0  0  0  0  0  0  0  0  0  0  0  0
   -7.3884    3.9554    0.0000 C   0  0  0  0  0  0  0  0  0  0  0  0
   -7.8146    3.2312    0.0000 O   0  0  0  0  0  0  0  0  0  0  0  0
   -6.1600    4.6521    0.0000 C   0  0  0  0  0  0  0  0  0  0  0  0
   -2.4429    3.9691    0.0000 C   0  0  0  0  0  0  0  0  0  0  0  0
   -7.8009    4.6521    0.0000 C   0  0  0  0  0  0  0  0  0  0  0  0
   -7.4159    2.5116    0.0000 C   0  0  0  0  0  0  0  0  0  0  0  0
   -7.8284    1.7966    0.0000 C   0  0  0  0  0  0  0  0  0  0  0  0
   -6.5725    5.3762    0.0000 C   0  0  0  0  0  0  0  0  0  0  0  0
   -7.3884    5.3762    0.0000 C   0  0  0  0  0  0  0  0  0  0  0  0
  2  1  1  0  0  0  0
  3  1  1  0  0  0  0
  4 10  1  0  0  0  0
  5  6  1  0  0  0  0
  6  1  1  0  0  0  0
  7  5  1  0  0  0  0
  8  2  1  0  0  0  0
  9  7  1  0  0  0  0
 10  3  1  0  0  0  0
 11  2  2  0  0  0  0
 12  3  2  0  0  0  0
 13  5  2  0  0  0  0
 14  9  2  0  0  0  0
 15 14  1  0  0  0  0
 16  9  1  0  0  0  0
 17  8  1  0  0  0  0
 18 14  1  0  0  0  0
 19 15  1  0  0  0  0
 20 19  1  0  0  0  0
 21 16  2  0  0  0  0
 22 21  1  0  0  0  0
  8  4  1  0  0  0  0
 22 18  2  0  0  0  0
M  END
>  <IDNUMBER>
F1800-0184

>  <Chemical_Name>
N-(2-ethoxyphenyl)-2-(2-methyl-3,5-dioxothiomorpholin-4-yl)acetamide

>  <PriceCoeff>
1.00

>  <CAS>
868216-05-1

>  <MW>
322.38

>  <Description>
solid

>  <FSP3>
0.40

>  <clogP>
1.99

>  <TPSA>
101.01

>  <Acceptor>
4

>  <Donor>
1

>  <RotBonds>
5

>  <HAC>
22

>  <Collection>
General

>  <PPDS>
+

$$$$
F1800-0185
  Mrv2219 10102508112D          

 22 23  0  0  0  0            999 V2000
   -4.0975    2.5300    0.0000 N   0  0  0  0  0  0  0  0  0  0  0  0
   -3.6850    3.2541    0.0000 C   0  0  0  0  0  0  0  0  0  0  0  0
   -3.6850    1.8241    0.0000 C   0  0  0  0  0  0  0  0  0  0  0  0
   -2.4475    2.5300    0.0000 S   0  0  0  0  0  0  0  0  0  0  0  0
   -4.9225    2.5300    0.0000 C   0  0  0  0  0  0  0  0  0  0  0  0
   -5.3350    3.2404    0.0000 C   0  0  0  0  0  0  0  0  0  0  0  0
   -2.8600    3.2541    0.0000 C   0  0  0  0  0  0  0  0  0  0  0  0
   -2.8600    1.8241    0.0000 C   0  0  0  0  0  0  0  0  0  0  0  0
   -6.1600    3.2404    0.0000 N   0  0  0  0  0  0  0  0  0  0  0  0
   -4.1066    3.9691    0.0000 O   0  0  0  0  0  0  0  0  0  0  0  0
   -4.1066    1.1000    0.0000 O   0  0  0  0  0  0  0  0  0  0  0  0
   -4.9225    3.9554    0.0000 O   0  0  0  0  0  0  0  0  0  0  0  0
   -6.5725    3.9554    0.0000 C   0  0  0  0  0  0  0  0  0  0  0  0
   -7.3884    5.3762    0.0000 C   0  0  0  0  0  0  0  0  0  0  0  0
   -7.3884    3.9554    0.0000 C   0  0  0  0  0  0  0  0  0  0  0  0
   -6.1600    4.6521    0.0000 C   0  0  0  0  0  0  0  0  0  0  0  0
   -6.5725    5.3762    0.0000 C   0  0  0  0  0  0  0  0  0  0  0  0
   -7.8009    4.6521    0.0000 C   0  0  0  0  0  0  0  0  0  0  0  0
   -7.8146    6.0959    0.0000 O   0  0  0  0  0  0  0  0  0  0  0  0
   -2.4429    3.9691    0.0000 C   0  0  0  0  0  0  0  0  0  0  0  0
   -8.6396    6.0959    0.0000 C   0  0  0  0  0  0  0  0  0  0  0  0
   -9.0521    6.8062    0.0000 C   0  0  0  0  0  0  0  0  0  0  0  0
  2  1  1  0  0  0  0
  3  1  1  0  0  0  0
  4  8  1  0  0  0  0
  5  1  1  0  0  0  0
  6  5  1  0  0  0  0
  7  2  1  0  0  0  0
  8  3  1  0  0  0  0
  9  6  1  0  0  0  0
 10  2  2  0  0  0  0
 11  3  2  0  0  0  0
 12  6  2  0  0  0  0
 13  9  1  0  0  0  0
 14 17  2  0  0  0  0
 15 13  1  0  0  0  0
 16 13  2  0  0  0  0
 17 16  1  0  0  0  0
 18 15  2  0  0  0  0
 19 14  1  0  0  0  0
 20  7  1  0  0  0  0
 21 19  1  0  0  0  0
 22 21  1  0  0  0  0
  7  4  1  0  0  0  0
 18 14  1  0  0  0  0
M  END
>  <IDNUMBER>
F1800-0185

>  <Chemical_Name>
N-(4-ethoxyphenyl)-2-(2-methyl-3,5-dioxothiomorpholin-4-yl)acetamide

>  <PriceCoeff>
1.00

>  <CAS>
868216-06-2

>  <MW>
322.38

>  <Description>
solid

>  <FSP3>
0.40

>  <clogP>
2.58

>  <TPSA>
101.01

>  <Acceptor>
4

>  <Donor>
1

>  <RotBonds>
5

>  <HAC>
22

>  <Collection>
General

>  <PPDS>
+

$$$$
F1800-0186
  Mrv2219 10102508112D          

 23 24  0  0  0  0            999 V2000
   -4.0975    2.5300    0.0000 N   0  0  0  0  0  0  0  0  0  0  0  0
   -3.6850    3.2541    0.0000 C   0  0  0  0  0  0  0  0  0  0  0  0
   -3.6850    1.8241    0.0000 C   0  0  0  0  0  0  0  0  0  0  0  0
   -2.4475    2.5300    0.0000 S   0  0  0  0  0  0  0  0  0  0  0  0
   -5.3350    3.2404    0.0000 C   0  0  0  0  0  0  0  0  0  0  0  0
   -4.9225    2.5300    0.0000 C   0  0  0  0  0  0  0  0  0  0  0  0
   -6.1600    3.2404    0.0000 N   0  0  0  0  0  0  0  0  0  0  0  0
   -6.5725    3.9554    0.0000 C   0  0  0  0  0  0  0  0  0  0  0  0
   -7.3884    3.9554    0.0000 C   0  0  0  0  0  0  0  0  0  0  0  0
   -2.8600    3.2541    0.0000 C   0  0  0  0  0  0  0  0  0  0  0  0
   -7.8009    4.6521    0.0000 C   0  0  0  0  0  0  0  0  0  0  0  0
   -2.8600    1.8241    0.0000 C   0  0  0  0  0  0  0  0  0  0  0  0
   -4.1066    3.9691    0.0000 O   0  0  0  0  0  0  0  0  0  0  0  0
   -4.1066    1.1000    0.0000 O   0  0  0  0  0  0  0  0  0  0  0  0
   -4.9225    3.9554    0.0000 O   0  0  0  0  0  0  0  0  0  0  0  0
   -6.1600    4.6521    0.0000 C   0  0  0  0  0  0  0  0  0  0  0  0
   -7.3884    5.3762    0.0000 C   0  0  0  0  0  0  0  0  0  0  0  0
   -6.5725    5.3762    0.0000 C   0  0  0  0  0  0  0  0  0  0  0  0
   -7.8146    3.2312    0.0000 O   0  0  0  0  0  0  0  0  0  0  0  0
   -7.8146    6.0959    0.0000 O   0  0  0  0  0  0  0  0  0  0  0  0
   -2.4429    3.9691    0.0000 C   0  0  0  0  0  0  0  0  0  0  0  0
   -7.4021    2.5116    0.0000 C   0  0  0  0  0  0  0  0  0  0  0  0
   -8.6396    6.0959    0.0000 C   0  0  0  0  0  0  0  0  0  0  0  0
  2  1  1  0  0  0  0
  3  1  1  0  0  0  0
  4 12  1  0  0  0  0
  5  6  1  0  0  0  0
  6  1  1  0  0  0  0
  7  5  1  0  0  0  0
  8  7  1  0  0  0  0
  9  8  1  0  0  0  0
 10  2  1  0  0  0  0
 11  9  2  0  0  0  0
 12  3  1  0  0  0  0
 13  2  2  0  0  0  0
 14  3  2  0  0  0  0
 15  5  2  0  0  0  0
 16  8  2  0  0  0  0
 17 18  2  0  0  0  0
 18 16  1  0  0  0  0
 19  9  1  0  0  0  0
 20 17  1  0  0  0  0
 21 10  1  0  0  0  0
 22 19  1  0  0  0  0
 23 20  1  0  0  0  0
 10  4  1  0  0  0  0
 11 17  1  0  0  0  0
M  END
>  <IDNUMBER>
F1800-0186

>  <Chemical_Name>
N-(2,4-dimethoxyphenyl)-2-(2-methyl-3,5-dioxothiomorpholin-4-yl)acetamide

>  <PriceCoeff>
1.00

>  <CAS>
868216-07-3

>  <MW>
338.38

>  <Description>
solid

>  <FSP3>
0.40

>  <clogP>
1.48

>  <TPSA>
110.24

>  <Acceptor>
5

>  <Donor>
1

>  <RotBonds>
5

>  <HAC>
23

>  <Collection>
General

>  <PPDS>
+

$$$$
F1800-0187
  Mrv2219 10102508112D          

 23 24  0  0  0  0            999 V2000
   -4.0975    2.5300    0.0000 N   0  0  0  0  0  0  0  0  0  0  0  0
   -3.6850    3.2541    0.0000 C   0  0  0  0  0  0  0  0  0  0  0  0
   -3.6850    1.8241    0.0000 C   0  0  0  0  0  0  0  0  0  0  0  0
   -6.5725    3.9554    0.0000 C   0  0  0  0  0  0  0  0  0  0  0  0
   -2.4475    2.5300    0.0000 S   0  0  0  0  0  0  0  0  0  0  0  0
   -5.3350    3.2404    0.0000 C   0  0  0  0  0  0  0  0  0  0  0  0
   -6.1600    3.2404    0.0000 N   0  0  0  0  0  0  0  0  0  0  0  0
   -4.9225    2.5300    0.0000 C   0  0  0  0  0  0  0  0  0  0  0  0
   -2.8600    3.2541    0.0000 C   0  0  0  0  0  0  0  0  0  0  0  0
   -6.1600    4.6521    0.0000 C   0  0  0  0  0  0  0  0  0  0  0  0
   -2.8600    1.8241    0.0000 C   0  0  0  0  0  0  0  0  0  0  0  0
   -4.1066    3.9691    0.0000 O   0  0  0  0  0  0  0  0  0  0  0  0
   -7.3884    3.9554    0.0000 C   0  0  0  0  0  0  0  0  0  0  0  0
   -4.1066    1.1000    0.0000 O   0  0  0  0  0  0  0  0  0  0  0  0
   -4.9225    3.9554    0.0000 O   0  0  0  0  0  0  0  0  0  0  0  0
   -7.8009    4.6521    0.0000 C   0  0  0  0  0  0  0  0  0  0  0  0
   -6.5725    5.3762    0.0000 C   0  0  0  0  0  0  0  0  0  0  0  0
   -7.3884    5.3762    0.0000 C   0  0  0  0  0  0  0  0  0  0  0  0
   -7.8146    3.2312    0.0000 O   0  0  0  0  0  0  0  0  0  0  0  0
   -6.1554    6.0959    0.0000 O   0  0  0  0  0  0  0  0  0  0  0  0
   -2.4429    3.9691    0.0000 C   0  0  0  0  0  0  0  0  0  0  0  0
   -7.4021    2.5116    0.0000 C   0  0  0  0  0  0  0  0  0  0  0  0
   -5.3304    6.0959    0.0000 C   0  0  0  0  0  0  0  0  0  0  0  0
  2  1  1  0  0  0  0
  3  1  1  0  0  0  0
  4  7  1  0  0  0  0
  5 11  1  0  0  0  0
  6  8  1  0  0  0  0
  7  6  1  0  0  0  0
  8  1  1  0  0  0  0
  9  2  1  0  0  0  0
 10  4  1  0  0  0  0
 11  3  1  0  0  0  0
 12  2  2  0  0  0  0
 13  4  2  0  0  0  0
 14  3  2  0  0  0  0
 15  6  2  0  0  0  0
 16 13  1  0  0  0  0
 17 10  2  0  0  0  0
 18 16  2  0  0  0  0
 19 13  1  0  0  0  0
 20 17  1  0  0  0  0
 21  9  1  0  0  0  0
 22 19  1  0  0  0  0
 23 20  1  0  0  0  0
  9  5  1  0  0  0  0
 17 18  1  0  0  0  0
M  END
>  <IDNUMBER>
F1800-0187

>  <Chemical_Name>
N-(2,5-dimethoxyphenyl)-2-(2-methyl-3,5-dioxothiomorpholin-4-yl)acetamide

>  <PriceCoeff>
1.00

>  <CAS>
868216-08-4

>  <MW>
338.38

>  <Description>
solid

>  <FSP3>
0.40

>  <clogP>
1.48

>  <TPSA>
110.24

>  <Acceptor>
5

>  <Donor>
1

>  <RotBonds>
5

>  <HAC>
23

>  <Collection>
General

>  <PPDS>
+

$$$$
F1800-0188
  Mrv2219 10102508112D          

 22 24  0  0  0  0            999 V2000
   -4.3521    2.8217    0.0000 N   0  0  0  0  0  0  0  0  0  0  0  0
   -5.1380    3.0561    0.0000 C   0  0  0  0  0  0  0  0  0  0  0  0
   -3.7455    3.3870    0.0000 C   0  0  0  0  0  0  0  0  0  0  0  0
   -4.7243    4.4165    0.0000 S   0  0  0  0  0  0  0  0  0  0  0  0
   -4.7565    1.4568    0.0000 C   0  0  0  0  0  0  0  0  0  0  0  0
   -4.1591    2.0220    0.0000 C   0  0  0  0  0  0  0  0  0  0  0  0
   -5.5240   -1.2868    0.0000 C   0  0  0  0  0  0  0  0  0  0  0  0
   -5.3310    3.8604    0.0000 C   0  0  0  0  0  0  0  0  0  0  0  0
   -4.9495   -0.7031    0.0000 C   0  0  0  0  0  0  0  0  0  0  0  0
   -4.5727    0.6571    0.0000 N   0  0  0  0  0  0  0  0  0  0  0  0
   -3.9385    4.1867    0.0000 C   0  0  0  0  0  0  0  0  0  0  0  0
   -6.3236   -1.0754    0.0000 C   0  0  0  0  0  0  0  0  0  0  0  0
   -5.4827   -2.1094    0.0000 O   0  0  0  0  0  0  0  0  0  0  0  0
   -5.7446    2.4909    0.0000 O   0  0  0  0  0  0  0  0  0  0  0  0
   -6.7604   -1.7694    0.0000 O   0  0  0  0  0  0  0  0  0  0  0  0
   -5.1656    0.0919    0.0000 C   0  0  0  0  0  0  0  0  0  0  0  0
   -6.2547   -2.4036    0.0000 C   0  0  0  0  0  0  0  0  0  0  0  0
   -2.9504    3.1526    0.0000 O   0  0  0  0  0  0  0  0  0  0  0  0
   -5.5516    1.6912    0.0000 O   0  0  0  0  0  0  0  0  0  0  0  0
   -6.5443   -0.2804    0.0000 C   0  0  0  0  0  0  0  0  0  0  0  0
   -5.9652    0.3124    0.0000 C   0  0  0  0  0  0  0  0  0  0  0  0
   -6.1168    4.1177    0.0000 C   0  0  0  0  0  0  0  0  0  0  0  0
  2  1  1  0  0  0  0
  3  1  1  0  0  0  0
  4 11  1  0  0  0  0
  5  6  1  0  0  0  0
  6  1  1  0  0  0  0
  7  9  2  0  0  0  0
  8  2  1  0  0  0  0
  9 16  1  0  0  0  0
 10  5  1  0  0  0  0
 11  3  1  0  0  0  0
 12 20  2  0  0  0  0
 13  7  1  0  0  0  0
 14  2  2  0  0  0  0
 15 12  1  0  0  0  0
 16 10  1  0  0  0  0
 17 13  1  0  0  0  0
 18  3  2  0  0  0  0
 19  5  2  0  0  0  0
 20 21  1  0  0  0  0
 21 16  2  0  0  0  0
 22  8  1  0  0  0  0
  8  4  1  0  0  0  0
 12  7  1  0  0  0  0
 15 17  1  0  0  0  0
M  END
>  <IDNUMBER>
F1800-0188

>  <Chemical_Name>
N-(2H-1,3-benzodioxol-5-yl)-2-(2-methyl-3,5-dioxothiomorpholin-4-yl)acetamide

>  <PriceCoeff>
1.00

>  <MW>
322.34

>  <Description>
solid

>  <FSP3>
0.36

>  <clogP>
2.03

>  <TPSA>
110.24

>  <Acceptor>
5

>  <Donor>
1

>  <RotBonds>
3

>  <HAC>
22

>  <Collection>
General

$$$$
F1800-0189
  Mrv2219 10102508112D          

 23 25  0  0  0  0            999 V2000
   -4.3567    2.8156    0.0000 N   0  0  0  0  0  0  0  0  0  0  0  0
   -5.1435    3.0594    0.0000 C   0  0  0  0  0  0  0  0  0  0  0  0
   -3.7495    3.3815    0.0000 C   0  0  0  0  0  0  0  0  0  0  0  0
   -4.7294    4.4212    0.0000 S   0  0  0  0  0  0  0  0  0  0  0  0
   -4.7616    1.4584    0.0000 C   0  0  0  0  0  0  0  0  0  0  0  0
   -4.1635    2.0242    0.0000 C   0  0  0  0  0  0  0  0  0  0  0  0
   -5.5437   -1.2882    0.0000 C   0  0  0  0  0  0  0  0  0  0  0  0
   -5.3367    3.8599    0.0000 C   0  0  0  0  0  0  0  0  0  0  0  0
   -4.9549   -0.7085    0.0000 C   0  0  0  0  0  0  0  0  0  0  0  0
   -4.5776    0.6579    0.0000 N   0  0  0  0  0  0  0  0  0  0  0  0
   -3.9427    4.1911    0.0000 C   0  0  0  0  0  0  0  0  0  0  0  0
   -6.3304   -1.0812    0.0000 C   0  0  0  0  0  0  0  0  0  0  0  0
   -5.7507    2.4935    0.0000 O   0  0  0  0  0  0  0  0  0  0  0  0
   -5.1711    0.0782    0.0000 C   0  0  0  0  0  0  0  0  0  0  0  0
   -5.3137   -2.0887    0.0000 O   0  0  0  0  0  0  0  0  0  0  0  0
   -2.9536    3.1560    0.0000 O   0  0  0  0  0  0  0  0  0  0  0  0
   -6.9056   -1.6609    0.0000 O   0  0  0  0  0  0  0  0  0  0  0  0
   -5.5575    1.6930    0.0000 O   0  0  0  0  0  0  0  0  0  0  0  0
   -6.5512   -0.2807    0.0000 C   0  0  0  0  0  0  0  0  0  0  0  0
   -5.9716    0.3036    0.0000 C   0  0  0  0  0  0  0  0  0  0  0  0
   -5.9026   -2.6776    0.0000 C   0  0  0  0  0  0  0  0  0  0  0  0
   -6.6985   -2.4567    0.0000 C   0  0  0  0  0  0  0  0  0  0  0  0
   -6.1234    4.1083    0.0000 C   0  0  0  0  0  0  0  0  0  0  0  0
  2  1  1  0  0  0  0
  3  1  1  0  0  0  0
  4 11  1  0  0  0  0
  5  6  1  0  0  0  0
  6  1  1  0  0  0  0
  7  9  2  0  0  0  0
  8  2  1  0  0  0  0
  9 14  1  0  0  0  0
 10  5  1  0  0  0  0
 11  3  1  0  0  0  0
 12 19  2  0  0  0  0
 13  2  2  0  0  0  0
 14 10  1  0  0  0  0
 15  7  1  0  0  0  0
 16  3  2  0  0  0  0
 17 12  1  0  0  0  0
 18  5  2  0  0  0  0
 19 20  1  0  0  0  0
 20 14  2  0  0  0  0
 21 15  1  0  0  0  0
 22 17  1  0  0  0  0
 23  8  1  0  0  0  0
  8  4  1  0  0  0  0
 12  7  1  0  0  0  0
 22 21  1  0  0  0  0
M  END
>  <IDNUMBER>
F1800-0189

>  <Chemical_Name>
N-(2,3-dihydro-1,4-benzodioxin-6-yl)-2-(2-methyl-3,5-dioxothiomorpholin-4-yl)acetamide

>  <PriceCoeff>
1.00

>  <MW>
336.36

>  <Description>
solid

>  <FSP3>
0.40

>  <clogP>
1.99

>  <TPSA>
110.24

>  <Acceptor>
5

>  <Donor>
1

>  <RotBonds>
3

>  <HAC>
23

>  <Collection>
General

$$$$
F1800-0193
  Mrv2219 10102508112D          

 24 25  0  0  0  0            999 V2000
   -4.0975    2.5300    0.0000 N   0  0  0  0  0  0  0  0  0  0  0  0
   -3.6850    3.2541    0.0000 C   0  0  0  0  0  0  0  0  0  0  0  0
   -3.6850    1.8241    0.0000 C   0  0  0  0  0  0  0  0  0  0  0  0
   -8.6396    6.1096    0.0000 C   0  0  0  0  0  0  0  0  0  0  0  0
   -2.4475    2.5300    0.0000 S   0  0  0  0  0  0  0  0  0  0  0  0
   -4.9225    2.5300    0.0000 C   0  0  0  0  0  0  0  0  0  0  0  0
   -5.3350    3.2404    0.0000 C   0  0  0  0  0  0  0  0  0  0  0  0
   -2.8600    3.2541    0.0000 C   0  0  0  0  0  0  0  0  0  0  0  0
   -2.8600    1.8241    0.0000 C   0  0  0  0  0  0  0  0  0  0  0  0
   -6.1600    3.2404    0.0000 N   0  0  0  0  0  0  0  0  0  0  0  0
   -4.1066    3.9691    0.0000 O   0  0  0  0  0  0  0  0  0  0  0  0
   -7.8009    6.0959    0.0000 O   0  0  0  0  0  0  0  0  0  0  0  0
   -4.1066    1.1000    0.0000 O   0  0  0  0  0  0  0  0  0  0  0  0
   -4.9225    3.9554    0.0000 O   0  0  0  0  0  0  0  0  0  0  0  0
   -8.6259    6.9346    0.0000 F   0  0  0  0  0  0  0  0  0  0  0  0
   -8.6396    5.2846    0.0000 F   0  0  0  0  0  0  0  0  0  0  0  0
   -9.4646    6.1188    0.0000 F   0  0  0  0  0  0  0  0  0  0  0  0
   -6.5725    3.9554    0.0000 C   0  0  0  0  0  0  0  0  0  0  0  0
   -7.3884    5.3809    0.0000 C   0  0  0  0  0  0  0  0  0  0  0  0
   -6.1600    4.6659    0.0000 C   0  0  0  0  0  0  0  0  0  0  0  0
   -7.3884    3.9554    0.0000 C   0  0  0  0  0  0  0  0  0  0  0  0
   -7.8009    4.6521    0.0000 C   0  0  0  0  0  0  0  0  0  0  0  0
   -6.5725    5.3809    0.0000 C   0  0  0  0  0  0  0  0  0  0  0  0
   -2.4429    3.9691    0.0000 C   0  0  0  0  0  0  0  0  0  0  0  0
  2  1  1  0  0  0  0
  3  1  1  0  0  0  0
  4 12  1  0  0  0  0
  5  9  1  0  0  0  0
  6  1  1  0  0  0  0
  7  6  1  0  0  0  0
  8  2  1  0  0  0  0
  9  3  1  0  0  0  0
 10  7  1  0  0  0  0
 11  2  2  0  0  0  0
 12 19  1  0  0  0  0
 13  3  2  0  0  0  0
 14  7  2  0  0  0  0
 15  4  1  0  0  0  0
 16  4  1  0  0  0  0
 17  4  1  0  0  0  0
 18 10  1  0  0  0  0
 19 22  1  0  0  0  0
 20 18  2  0  0  0  0
 21 18  1  0  0  0  0
 22 21  2  0  0  0  0
 23 20  1  0  0  0  0
 24  8  1  0  0  0  0
  5  8  1  0  0  0  0
 23 19  2  0  0  0  0
M  END
>  <IDNUMBER>
F1800-0193

>  <Chemical_Name>
2-(2-methyl-3,5-dioxothiomorpholin-4-yl)-N-[4-(trifluoromethoxy)phenyl]acetamide

>  <PriceCoeff>
1.00

>  <MW>
362.32

>  <Description>
solid

>  <FSP3>
0.36

>  <clogP>
3.16

>  <TPSA>
101.01

>  <Acceptor>
4

>  <Donor>
1

>  <RotBonds>
4

>  <HAC>
24

>  <Collection>
General

$$$$
F1800-0194
  Mrv2219 10102508112D          

 22 23  0  0  0  0            999 V2000
   -4.0975    2.5300    0.0000 N   0  0  0  0  0  0  0  0  0  0  0  0
   -3.6850    3.2541    0.0000 C   0  0  0  0  0  0  0  0  0  0  0  0
   -7.8146    6.0959    0.0000 N   0  3  0  0  0  0  0  0  0  0  0  0
   -3.6850    1.8241    0.0000 C   0  0  0  0  0  0  0  0  0  0  0  0
   -2.4475    2.5300    0.0000 S   0  0  0  0  0  0  0  0  0  0  0  0
   -4.9225    2.5300    0.0000 C   0  0  0  0  0  0  0  0  0  0  0  0
   -5.3350    3.2404    0.0000 C   0  0  0  0  0  0  0  0  0  0  0  0
   -7.3884    5.3762    0.0000 C   0  0  0  0  0  0  0  0  0  0  0  0
   -2.8600    3.2541    0.0000 C   0  0  0  0  0  0  0  0  0  0  0  0
   -8.6396    6.0959    0.0000 O   0  5  0  0  0  0  0  0  0  0  0  0
   -2.8600    1.8241    0.0000 C   0  0  0  0  0  0  0  0  0  0  0  0
   -6.1600    3.2404    0.0000 N   0  0  0  0  0  0  0  0  0  0  0  0
   -7.4021    6.8109    0.0000 O   0  0  0  0  0  0  0  0  0  0  0  0
   -4.1066    3.9691    0.0000 O   0  0  0  0  0  0  0  0  0  0  0  0
   -4.1066    1.1000    0.0000 O   0  0  0  0  0  0  0  0  0  0  0  0
   -4.9225    3.9554    0.0000 O   0  0  0  0  0  0  0  0  0  0  0  0
   -6.5725    5.3762    0.0000 C   0  0  0  0  0  0  0  0  0  0  0  0
   -7.8009    4.6521    0.0000 C   0  0  0  0  0  0  0  0  0  0  0  0
   -6.5725    3.9554    0.0000 C   0  0  0  0  0  0  0  0  0  0  0  0
   -7.3884    3.9554    0.0000 C   0  0  0  0  0  0  0  0  0  0  0  0
   -6.1600    4.6521    0.0000 C   0  0  0  0  0  0  0  0  0  0  0  0
   -2.4429    3.9691    0.0000 C   0  0  0  0  0  0  0  0  0  0  0  0
  2  1  1  0  0  0  0
  3  8  1  0  0  0  0
  4  1  1  0  0  0  0
  5 11  1  0  0  0  0
  6  1  1  0  0  0  0
  7  6  1  0  0  0  0
  8 17  1  0  0  0  0
  9  2  1  0  0  0  0
 10  3  1  0  0  0  0
 11  4  1  0  0  0  0
 12  7  1  0  0  0  0
 13  3  2  0  0  0  0
 14  2  2  0  0  0  0
 15  4  2  0  0  0  0
 16  7  2  0  0  0  0
 17 21  2  0  0  0  0
 18 20  1  0  0  0  0
 19 12  1  0  0  0  0
 20 19  2  0  0  0  0
 21 19  1  0  0  0  0
 22  9  1  0  0  0  0
  9  5  1  0  0  0  0
 18  8  2  0  0  0  0
M  CHG  2   3   1  10  -1
M  END
>  <IDNUMBER>
F1800-0194

>  <Chemical_Name>
2-(2-methyl-3,5-dioxothiomorpholin-4-yl)-N-(4-nitrophenyl)acetamide

>  <PriceCoeff>
1.00

>  <CAS>
868216-13-1

>  <MW>
323.32

>  <Description>
solid

>  <FSP3>
0.31

>  <clogP>
2.27

>  <TPSA>
134.92

>  <Acceptor>
5

>  <Donor>
1

>  <RotBonds>
4

>  <HAC>
22

>  <Collection>
General

>  <PPDS>
+

$$$$
F1800-0195
  Mrv2219 10102508112D          

 24 25  0  0  0  0            999 V2000
   -4.0975    2.5300    0.0000 N   0  0  0  0  0  0  0  0  0  0  0  0
   -3.6850    3.2541    0.0000 C   0  0  0  0  0  0  0  0  0  0  0  0
   -3.6850    1.8241    0.0000 C   0  0  0  0  0  0  0  0  0  0  0  0
   -2.4475    2.5300    0.0000 S   0  0  0  0  0  0  0  0  0  0  0  0
   -4.9225    2.5300    0.0000 C   0  0  0  0  0  0  0  0  0  0  0  0
   -5.3350    3.2404    0.0000 C   0  0  0  0  0  0  0  0  0  0  0  0
   -7.8009    6.0959    0.0000 C   0  0  0  0  0  0  0  0  0  0  0  0
   -2.8600    3.2541    0.0000 C   0  0  0  0  0  0  0  0  0  0  0  0
   -2.8600    1.8241    0.0000 C   0  0  0  0  0  0  0  0  0  0  0  0
   -6.1600    3.2404    0.0000 N   0  0  0  0  0  0  0  0  0  0  0  0
   -4.1066    3.9691    0.0000 O   0  0  0  0  0  0  0  0  0  0  0  0
   -7.3884    5.3809    0.0000 C   0  0  0  0  0  0  0  0  0  0  0  0
   -4.1066    1.1000    0.0000 O   0  0  0  0  0  0  0  0  0  0  0  0
   -4.9225    3.9554    0.0000 O   0  0  0  0  0  0  0  0  0  0  0  0
   -7.3884    6.8200    0.0000 O   0  0  0  0  0  0  0  0  0  0  0  0
   -7.8009    4.6521    0.0000 C   0  0  0  0  0  0  0  0  0  0  0  0
   -6.5725    5.3809    0.0000 C   0  0  0  0  0  0  0  0  0  0  0  0
   -6.5725    3.9554    0.0000 C   0  0  0  0  0  0  0  0  0  0  0  0
   -8.6396    6.1096    0.0000 O   0  0  0  0  0  0  0  0  0  0  0  0
   -6.1600    4.6659    0.0000 C   0  0  0  0  0  0  0  0  0  0  0  0
   -7.3884    3.9554    0.0000 C   0  0  0  0  0  0  0  0  0  0  0  0
   -2.4429    3.9691    0.0000 C   0  0  0  0  0  0  0  0  0  0  0  0
   -9.0521    6.8200    0.0000 C   0  0  0  0  0  0  0  0  0  0  0  0
   -9.8771    6.8200    0.0000 C   0  0  0  0  0  0  0  0  0  0  0  0
  2  1  1  0  0  0  0
  3  1  1  0  0  0  0
  4  9  1  0  0  0  0
  5  1  1  0  0  0  0
  6  5  1  0  0  0  0
  7 12  1  0  0  0  0
  8  2  1  0  0  0  0
  9  3  1  0  0  0  0
 10  6  1  0  0  0  0
 11  2  2  0  0  0  0
 12 16  1  0  0  0  0
 13  3  2  0  0  0  0
 14  6  2  0  0  0  0
 15  7  2  0  0  0  0
 16 21  2  0  0  0  0
 17 20  1  0  0  0  0
 18 10  1  0  0  0  0
 19  7  1  0  0  0  0
 20 18  2  0  0  0  0
 21 18  1  0  0  0  0
 22  8  1  0  0  0  0
 23 19  1  0  0  0  0
 24 23  1  0  0  0  0
  4  8  1  0  0  0  0
 17 12  2  0  0  0  0
M  END
>  <IDNUMBER>
F1800-0195

>  <Chemical_Name>
ethyl 4-[2-(2-methyl-3,5-dioxothiomorpholin-4-yl)acetamido]benzoate

>  <PriceCoeff>
1.00

>  <CAS>
868216-14-2

>  <MW>
350.39

>  <Description>
solid

>  <FSP3>
0.38

>  <clogP>
2.94

>  <TPSA>
118.08

>  <Acceptor>
5

>  <Donor>
1

>  <RotBonds>
6

>  <HAC>
24

>  <Collection>
General

>  <PPDS>
+

$$$$
F1800-0197
  Mrv2219 10102508112D          

 20 21  0  0  0  0            999 V2000
   -4.0975    2.5300    0.0000 N   0  0  0  0  0  0  0  0  0  0  0  0
   -3.6850    3.2541    0.0000 C   0  0  0  0  0  0  0  0  0  0  0  0
   -3.6850    1.8241    0.0000 C   0  0  0  0  0  0  0  0  0  0  0  0
   -2.4475    2.5300    0.0000 S   0  0  0  0  0  0  0  0  0  0  0  0
   -4.9225    2.5300    0.0000 C   0  0  0  0  0  0  0  0  0  0  0  0
   -2.8600    3.2541    0.0000 C   0  0  0  0  0  0  0  0  0  0  0  0
   -5.3350    3.2404    0.0000 C   0  0  0  0  0  0  0  0  0  0  0  0
   -2.8600    1.8241    0.0000 C   0  0  0  0  0  0  0  0  0  0  0  0
   -4.1066    3.9691    0.0000 O   0  0  0  0  0  0  0  0  0  0  0  0
   -6.1600    3.2404    0.0000 N   0  0  0  0  0  0  0  0  0  0  0  0
   -4.1066    1.1000    0.0000 O   0  0  0  0  0  0  0  0  0  0  0  0
   -4.9225    3.9554    0.0000 O   0  0  0  0  0  0  0  0  0  0  0  0
   -6.5725    3.9554    0.0000 C   0  0  0  0  0  0  0  0  0  0  0  0
   -7.3884    3.9554    0.0000 C   0  0  0  0  0  0  0  0  0  0  0  0
   -2.4429    3.9691    0.0000 C   0  0  0  0  0  0  0  0  0  0  0  0
   -7.8009    3.2404    0.0000 C   0  0  0  0  0  0  0  0  0  0  0  0
   -7.8009    4.6521    0.0000 C   0  0  0  0  0  0  0  0  0  0  0  0
   -8.6259    3.2404    0.0000 C   0  0  0  0  0  0  0  0  0  0  0  0
   -8.6259    4.6521    0.0000 C   0  0  0  0  0  0  0  0  0  0  0  0
   -9.0384    3.9554    0.0000 C   0  0  0  0  0  0  0  0  0  0  0  0
  2  1  1  0  0  0  0
  3  1  1  0  0  0  0
  4  8  1  0  0  0  0
  5  1  1  0  0  0  0
  6  2  1  0  0  0  0
  7  5  1  0  0  0  0
  8  3  1  0  0  0  0
  9  2  2  0  0  0  0
 10  7  1  0  0  0  0
 11  3  2  0  0  0  0
 12  7  2  0  0  0  0
 13 10  1  0  0  0  0
 14 13  1  0  0  0  0
 15  6  1  0  0  0  0
 16 14  1  0  0  0  0
 17 14  2  0  0  0  0
 18 16  2  0  0  0  0
 19 17  1  0  0  0  0
 20 19  2  0  0  0  0
  4  6  1  0  0  0  0
 18 20  1  0  0  0  0
M  END
>  <IDNUMBER>
F1800-0197

>  <Chemical_Name>
N-benzyl-2-(2-methyl-3,5-dioxothiomorpholin-4-yl)acetamide

>  <PriceCoeff>
1.00

>  <MW>
292.35

>  <Description>
solid

>  <FSP3>
0.36

>  <clogP>
2.00

>  <TPSA>
91.78

>  <Acceptor>
3

>  <Donor>
1

>  <RotBonds>
4

>  <HAC>
20

>  <Collection>
General

$$$$
F1800-0200
  Mrv2219 10102508112D          

 27 29  0  0  0  0            999 V2000
   -5.5748    0.1465    0.0000 C   0  0  0  0  0  0  0  0  0  0  0  0
   -5.2312   -0.6047    0.0000 C   0  0  0  0  0  0  0  0  0  0  0  0
   -5.5885    3.0233    0.0000 N   0  0  0  0  0  0  0  0  0  0  0  0
   -6.3856    0.0641    0.0000 S   0  0  0  0  0  0  0  0  0  0  0  0
   -6.4268    3.0187    0.0000 C   0  0  0  0  0  0  0  0  0  0  0  0
   -5.8496   -1.1590    0.0000 C   0  0  0  0  0  0  0  0  0  0  0  0
   -6.5642   -0.7467    0.0000 C   0  0  0  0  0  0  0  0  0  0  0  0
   -5.1625    0.8749    0.0000 N   0  0  0  0  0  0  0  0  0  0  0  0
   -5.1900    3.7470    0.0000 C   0  0  0  0  0  0  0  0  0  0  0  0
   -4.4204   -0.7696    0.0000 C   0  0  0  0  0  0  0  0  0  0  0  0
   -5.5885    1.5895    0.0000 C   0  0  0  0  0  0  0  0  0  0  0  0
   -6.4268    4.4434    0.0000 S   0  0  0  0  0  0  0  0  0  0  0  0
   -5.1763    2.3087    0.0000 C   0  0  0  0  0  0  0  0  0  0  0  0
   -6.8300    3.7333    0.0000 C   0  0  0  0  0  0  0  0  0  0  0  0
   -5.6023    4.4571    0.0000 C   0  0  0  0  0  0  0  0  0  0  0  0
   -6.8346    2.2950    0.0000 O   0  0  0  0  0  0  0  0  0  0  0  0
   -4.3563    3.7608    0.0000 O   0  0  0  0  0  0  0  0  0  0  0  0
   -4.1502   -1.5438    0.0000 O   0  0  0  0  0  0  0  0  0  0  0  0
   -6.4131    1.5804    0.0000 O   0  0  0  0  0  0  0  0  0  0  0  0
   -3.8707   -0.1512    0.0000 O   0  0  0  0  0  0  0  0  0  0  0  0
   -5.8496   -1.9835    0.0000 C   0  0  0  0  0  0  0  0  0  0  0  0
   -7.2606   -1.1590    0.0000 C   0  0  0  0  0  0  0  0  0  0  0  0
   -7.6545    3.7058    0.0000 C   0  0  0  0  0  0  0  0  0  0  0  0
   -4.1318    0.6275    0.0000 C   0  0  0  0  0  0  0  0  0  0  0  0
   -6.5642   -2.3958    0.0000 C   0  0  0  0  0  0  0  0  0  0  0  0
   -7.2606   -1.9835    0.0000 C   0  0  0  0  0  0  0  0  0  0  0  0
   -3.5821    1.2459    0.0000 C   0  0  0  0  0  0  0  0  0  0  0  0
  2  1  2  0  0  0  0
  3 13  1  0  0  0  0
  4  1  1  0  0  0  0
  5  3  1  0  0  0  0
  6  2  1  0  0  0  0
  7  4  1  0  0  0  0
  8  1  1  0  0  0  0
  9  3  1  0  0  0  0
 10  2  1  0  0  0  0
 11  8  1  0  0  0  0
 12 15  1  0  0  0  0
 13 11  1  0  0  0  0
 14  5  1  0  0  0  0
 15  9  1  0  0  0  0
 16  5  2  0  0  0  0
 17  9  2  0  0  0  0
 18 10  2  0  0  0  0
 19 11  2  0  0  0  0
 20 10  1  0  0  0  0
 21  6  1  0  0  0  0
 22  7  1  0  0  0  0
 23 14  1  0  0  0  0
 24 20  1  0  0  0  0
 25 21  1  0  0  0  0
 26 22  1  0  0  0  0
 27 24  1  0  0  0  0
  7  6  2  0  0  0  0
 25 26  1  0  0  0  0
 12 14  1  0  0  0  0
M  END
>  <IDNUMBER>
F1800-0200

>  <Chemical_Name>
ethyl 2-[2-(2-methyl-3,5-dioxothiomorpholin-4-yl)acetamido]-4,5,6,7-tetrahydro-1-benzothiophene-3-carboxylate

>  <PriceCoeff>
1.00

>  <CAS>
868216-19-7

>  <MW>
410.51

>  <Description>
solid

>  <FSP3>
0.56

>  <clogP>
4.24

>  <TPSA>
146.32

>  <Acceptor>
5

>  <Donor>
1

>  <RotBonds>
6

>  <HAC>
27

>  <Collection>
General

>  <PPDS>
+

$$$$
F1813-0343
  Mrv2219 10102508112D          

 27 30  0  0  0  0            999 V2000
   -6.0124    3.4028    0.0000 C   0  0  0  0  0  0  0  0  0  0  0  0
   -6.9060    2.4008    0.0000 C   0  0  0  0  0  0  0  0  0  0  0  0
   -6.0918    2.5678    0.0000 N   0  0  0  0  0  0  0  0  0  0  0  0
   -1.7286    5.0271    0.0000 N   0  0  0  0  0  0  0  0  0  0  0  0
   -5.3068    3.8162    0.0000 N   0  0  0  0  0  0  0  0  0  0  0  0
   -6.7682    3.7410    0.0000 S   0  0  0  0  0  0  0  0  0  0  0  0
   -7.3193    1.6868    0.0000 C   0  0  0  0  0  0  0  0  0  0  0  0
   -7.3193    3.1147    0.0000 C   0  0  0  0  0  0  0  0  0  0  0  0
   -4.5928    3.4028    0.0000 C   0  0  0  0  0  0  0  0  0  0  0  0
   -1.6743    5.8538    0.0000 C   0  0  0  0  0  0  0  0  0  0  0  0
   -0.9645    4.7265    0.0000 C   0  0  0  0  0  0  0  0  0  0  0  0
   -2.4509    4.6137    0.0000 C   0  0  0  0  0  0  0  0  0  0  0  0
   -8.1460    1.6868    0.0000 C   0  0  0  0  0  0  0  0  0  0  0  0
   -3.8788    3.8079    0.0000 C   0  0  0  0  0  0  0  0  0  0  0  0
   -4.5928    2.5761    0.0000 O   0  0  0  0  0  0  0  0  0  0  0  0
   -0.8643    6.0542    0.0000 C   0  0  0  0  0  0  0  0  0  0  0  0
   -0.4467    5.3528    0.0000 C   0  0  0  0  0  0  0  0  0  0  0  0
   -2.3131    6.4049    0.0000 O   0  0  0  0  0  0  0  0  0  0  0  0
   -0.7641    3.9331    0.0000 O   0  0  0  0  0  0  0  0  0  0  0  0
   -8.1460    3.1147    0.0000 C   0  0  0  0  0  0  0  0  0  0  0  0
   -2.4551    3.8079    0.0000 C   0  0  0  0  0  0  0  0  0  0  0  0
   -3.1648    5.0396    0.0000 C   0  0  0  0  0  0  0  0  0  0  0  0
   -8.5594    2.4008    0.0000 C   0  0  0  0  0  0  0  0  0  0  0  0
   -3.1691    3.4028    0.0000 C   0  0  0  0  0  0  0  0  0  0  0  0
   -3.8788    4.6346    0.0000 C   0  0  0  0  0  0  0  0  0  0  0  0
   -6.9060    0.9770    0.0000 Cl  0  0  0  0  0  0  0  0  0  0  0  0
   -8.5469    0.9770    0.0000 Cl  0  0  0  0  0  0  0  0  0  0  0  0
  2  3  1  0  0  0  0
  3  1  2  0  0  0  0
  4 12  1  0  0  0  0
  5  1  1  0  0  0  0
  6  1  1  0  0  0  0
  7  2  2  0  0  0  0
  8  6  1  0  0  0  0
  9  5  1  0  0  0  0
 10  4  1  0  0  0  0
 11  4  1  0  0  0  0
 12 22  1  0  0  0  0
 13  7  1  0  0  0  0
 14  9  1  0  0  0  0
 15  9  2  0  0  0  0
 16 10  1  0  0  0  0
 17 11  1  0  0  0  0
 18 10  2  0  0  0  0
 19 11  2  0  0  0  0
 20  8  2  0  0  0  0
 21 24  1  0  0  0  0
 22 25  2  0  0  0  0
 23 20  1  0  0  0  0
 24 14  2  0  0  0  0
 25 14  1  0  0  0  0
 26  7  1  0  0  0  0
 27 13  1  0  0  0  0
  8  2  1  0  0  0  0
 23 13  2  0  0  0  0
 21 12  2  0  0  0  0
 16 17  1  0  0  0  0
M  END
>  <IDNUMBER>
F1813-0343

>  <Chemical_Name>
N-(4,5-dichloro-1,3-benzothiazol-2-yl)-4-(2,5-dioxopyrrolidin-1-yl)benzamide

>  <PriceCoeff>
1.00

>  <CAS>
897617-97-9

>  <MW>
420.27

>  <Description>
solid

>  <FSP3>
0.11

>  <clogP>
2.94

>  <TPSA>
107.61

>  <Acceptor>
4

>  <Donor>
1

>  <RotBonds>
3

>  <HAC>
27

>  <Collection>
General

>  <PPDS>
+

$$$$
F1813-0344
  Mrv2219 10102508112D          

 27 30  0  0  0  0            999 V2000
   -6.0131    3.4032    0.0000 C   0  0  0  0  0  0  0  0  0  0  0  0
   -1.7288    5.0277    0.0000 N   0  0  0  0  0  0  0  0  0  0  0  0
   -6.0925    2.5681    0.0000 N   0  0  0  0  0  0  0  0  0  0  0  0
   -6.9068    2.4011    0.0000 C   0  0  0  0  0  0  0  0  0  0  0  0
   -5.3074    3.8166    0.0000 N   0  0  0  0  0  0  0  0  0  0  0  0
   -6.7690    3.7414    0.0000 S   0  0  0  0  0  0  0  0  0  0  0  0
   -4.5933    3.4032    0.0000 C   0  0  0  0  0  0  0  0  0  0  0  0
   -7.3201    3.1151    0.0000 C   0  0  0  0  0  0  0  0  0  0  0  0
   -7.3201    1.6870    0.0000 C   0  0  0  0  0  0  0  0  0  0  0  0
   -1.6745    5.8545    0.0000 C   0  0  0  0  0  0  0  0  0  0  0  0
   -0.9646    4.7270    0.0000 C   0  0  0  0  0  0  0  0  0  0  0  0
   -2.4512    4.6142    0.0000 C   0  0  0  0  0  0  0  0  0  0  0  0
   -3.8792    3.8083    0.0000 C   0  0  0  0  0  0  0  0  0  0  0  0
   -8.1469    1.6870    0.0000 C   0  0  0  0  0  0  0  0  0  0  0  0
   -4.5933    2.5764    0.0000 O   0  0  0  0  0  0  0  0  0  0  0  0
   -0.8644    6.0549    0.0000 C   0  0  0  0  0  0  0  0  0  0  0  0
   -0.4468    5.3534    0.0000 C   0  0  0  0  0  0  0  0  0  0  0  0
   -2.3134    6.4056    0.0000 O   0  0  0  0  0  0  0  0  0  0  0  0
   -0.7642    3.9335    0.0000 O   0  0  0  0  0  0  0  0  0  0  0  0
   -8.1469    3.1151    0.0000 C   0  0  0  0  0  0  0  0  0  0  0  0
   -2.4554    3.8083    0.0000 C   0  0  0  0  0  0  0  0  0  0  0  0
   -3.1652    5.0402    0.0000 C   0  0  0  0  0  0  0  0  0  0  0  0
   -8.5479    2.4011    0.0000 C   0  0  0  0  0  0  0  0  0  0  0  0
   -3.1695    3.4032    0.0000 C   0  0  0  0  0  0  0  0  0  0  0  0
   -3.8792    4.6351    0.0000 C   0  0  0  0  0  0  0  0  0  0  0  0
   -8.5479    0.9729    0.0000 Cl  0  0  0  0  0  0  0  0  0  0  0  0
   -6.9068    0.9729    0.0000 C   0  0  0  0  0  0  0  0  0  0  0  0
  2 12  1  0  0  0  0
  3  1  2  0  0  0  0
  4  3  1  0  0  0  0
  5  1  1  0  0  0  0
  6  1  1  0  0  0  0
  7  5  1  0  0  0  0
  8  6  1  0  0  0  0
  9  4  2  0  0  0  0
 10  2  1  0  0  0  0
 11  2  1  0  0  0  0
 12 22  1  0  0  0  0
 13  7  1  0  0  0  0
 14  9  1  0  0  0  0
 15  7  2  0  0  0  0
 16 10  1  0  0  0  0
 17 11  1  0  0  0  0
 18 10  2  0  0  0  0
 19 11  2  0  0  0  0
 20  8  2  0  0  0  0
 21 24  1  0  0  0  0
 22 25  2  0  0  0  0
 23 20  1  0  0  0  0
 24 13  2  0  0  0  0
 25 13  1  0  0  0  0
 26 14  1  0  0  0  0
 27  9  1  0  0  0  0
  8  4  1  0  0  0  0
 23 14  2  0  0  0  0
 21 12  2  0  0  0  0
 16 17  1  0  0  0  0
M  END
>  <IDNUMBER>
F1813-0344

>  <Chemical_Name>
N-(5-chloro-4-methyl-1,3-benzothiazol-2-yl)-4-(2,5-dioxopyrrolidin-1-yl)benzamide

>  <PriceCoeff>
1.00

>  <CAS>
897759-43-2

>  <MW>
399.85

>  <Description>
solid

>  <FSP3>
0.16

>  <clogP>
2.84

>  <TPSA>
107.61

>  <Acceptor>
4

>  <Donor>
1

>  <RotBonds>
3

>  <HAC>
27

>  <Collection>
General

>  <PPDS>
+

$$$$
F1813-0345
  Mrv2219 10102508112D          

 27 30  0  0  0  0            999 V2000
   -6.0124    3.4028    0.0000 C   0  0  0  0  0  0  0  0  0  0  0  0
   -1.7286    5.0271    0.0000 N   0  0  0  0  0  0  0  0  0  0  0  0
   -6.1001    2.5678    0.0000 N   0  0  0  0  0  0  0  0  0  0  0  0
   -5.3068    3.8079    0.0000 N   0  0  0  0  0  0  0  0  0  0  0  0
   -6.7682    3.7410    0.0000 S   0  0  0  0  0  0  0  0  0  0  0  0
   -7.3193    3.1147    0.0000 C   0  0  0  0  0  0  0  0  0  0  0  0
   -6.9060    2.4008    0.0000 C   0  0  0  0  0  0  0  0  0  0  0  0
   -4.5928    3.4028    0.0000 C   0  0  0  0  0  0  0  0  0  0  0  0
   -0.9645    4.7265    0.0000 C   0  0  0  0  0  0  0  0  0  0  0  0
   -1.6743    5.8538    0.0000 C   0  0  0  0  0  0  0  0  0  0  0  0
   -7.3193    1.6868    0.0000 C   0  0  0  0  0  0  0  0  0  0  0  0
   -8.1460    3.1147    0.0000 C   0  0  0  0  0  0  0  0  0  0  0  0
   -2.4509    4.6137    0.0000 C   0  0  0  0  0  0  0  0  0  0  0  0
   -3.8788    3.8079    0.0000 C   0  0  0  0  0  0  0  0  0  0  0  0
   -8.5594    2.4008    0.0000 C   0  0  0  0  0  0  0  0  0  0  0  0
   -8.1460    1.6868    0.0000 C   0  0  0  0  0  0  0  0  0  0  0  0
   -4.5928    2.5761    0.0000 O   0  0  0  0  0  0  0  0  0  0  0  0
   -0.8643    6.0542    0.0000 C   0  0  0  0  0  0  0  0  0  0  0  0
   -0.4467    5.3528    0.0000 C   0  0  0  0  0  0  0  0  0  0  0  0
   -2.3131    6.4049    0.0000 O   0  0  0  0  0  0  0  0  0  0  0  0
   -0.7641    3.9331    0.0000 O   0  0  0  0  0  0  0  0  0  0  0  0
   -3.1648    5.0396    0.0000 C   0  0  0  0  0  0  0  0  0  0  0  0
   -2.4551    3.8079    0.0000 C   0  0  0  0  0  0  0  0  0  0  0  0
   -3.1691    3.4028    0.0000 C   0  0  0  0  0  0  0  0  0  0  0  0
   -3.8788    4.6346    0.0000 C   0  0  0  0  0  0  0  0  0  0  0  0
   -9.3819    2.4008    0.0000 Cl  0  0  0  0  0  0  0  0  0  0  0  0
   -6.9060    0.9728    0.0000 C   0  0  0  0  0  0  0  0  0  0  0  0
  2 13  1  0  0  0  0
  3  1  2  0  0  0  0
  4  1  1  0  0  0  0
  5  1  1  0  0  0  0
  6  5  1  0  0  0  0
  7  3  1  0  0  0  0
  8  4  1  0  0  0  0
  9  2  1  0  0  0  0
 10  2  1  0  0  0  0
 11  7  2  0  0  0  0
 12  6  2  0  0  0  0
 13 22  1  0  0  0  0
 14  8  1  0  0  0  0
 15 12  1  0  0  0  0
 16 11  1  0  0  0  0
 17  8  2  0  0  0  0
 18 10  1  0  0  0  0
 19  9  1  0  0  0  0
 20 10  2  0  0  0  0
 21  9  2  0  0  0  0
 22 25  2  0  0  0  0
 23 24  1  0  0  0  0
 24 14  2  0  0  0  0
 25 14  1  0  0  0  0
 26 15  1  0  0  0  0
 27 11  1  0  0  0  0
  6  7  1  0  0  0  0
 15 16  2  0  0  0  0
 23 13  2  0  0  0  0
 18 19  1  0  0  0  0
M  END
>  <IDNUMBER>
F1813-0345

>  <Chemical_Name>
N-(6-chloro-4-methyl-1,3-benzothiazol-2-yl)-4-(2,5-dioxopyrrolidin-1-yl)benzamide

>  <PriceCoeff>
1.00

>  <CAS>
897617-98-0

>  <MW>
399.85

>  <Description>
solid

>  <FSP3>
0.16

>  <clogP>
2.84

>  <TPSA>
107.61

>  <Acceptor>
4

>  <Donor>
1

>  <RotBonds>
3

>  <HAC>
27

>  <Collection>
General

>  <PPDS>
+

$$$$
F1813-0346
  Mrv2219 10102508112D          

 27 30  0  0  0  0            999 V2000
   -6.0124    3.4028    0.0000 C   0  0  0  0  0  0  0  0  0  0  0  0
   -1.7286    5.0271    0.0000 N   0  0  0  0  0  0  0  0  0  0  0  0
   -6.1001    2.5678    0.0000 N   0  0  0  0  0  0  0  0  0  0  0  0
   -6.9060    2.4008    0.0000 C   0  0  0  0  0  0  0  0  0  0  0  0
   -5.3068    3.8079    0.0000 N   0  0  0  0  0  0  0  0  0  0  0  0
   -7.3277    3.1147    0.0000 C   0  0  0  0  0  0  0  0  0  0  0  0
   -6.7682    3.7410    0.0000 S   0  0  0  0  0  0  0  0  0  0  0  0
   -4.5928    3.4028    0.0000 C   0  0  0  0  0  0  0  0  0  0  0  0
   -0.9645    4.7265    0.0000 C   0  0  0  0  0  0  0  0  0  0  0  0
   -1.6743    5.8538    0.0000 C   0  0  0  0  0  0  0  0  0  0  0  0
   -7.3193    1.6868    0.0000 C   0  0  0  0  0  0  0  0  0  0  0  0
   -8.1460    3.1147    0.0000 C   0  0  0  0  0  0  0  0  0  0  0  0
   -2.4509    4.6137    0.0000 C   0  0  0  0  0  0  0  0  0  0  0  0
   -8.1460    1.6785    0.0000 C   0  0  0  0  0  0  0  0  0  0  0  0
   -3.8788    3.8079    0.0000 C   0  0  0  0  0  0  0  0  0  0  0  0
   -8.5594    2.4008    0.0000 C   0  0  0  0  0  0  0  0  0  0  0  0
   -4.5928    2.5761    0.0000 O   0  0  0  0  0  0  0  0  0  0  0  0
   -0.8643    6.0542    0.0000 C   0  0  0  0  0  0  0  0  0  0  0  0
   -0.4467    5.3528    0.0000 C   0  0  0  0  0  0  0  0  0  0  0  0
   -2.3131    6.4049    0.0000 O   0  0  0  0  0  0  0  0  0  0  0  0
   -0.7641    3.9331    0.0000 O   0  0  0  0  0  0  0  0  0  0  0  0
   -3.1648    5.0396    0.0000 C   0  0  0  0  0  0  0  0  0  0  0  0
   -2.4551    3.8079    0.0000 C   0  0  0  0  0  0  0  0  0  0  0  0
   -3.1691    3.4028    0.0000 C   0  0  0  0  0  0  0  0  0  0  0  0
   -3.8788    4.6346    0.0000 C   0  0  0  0  0  0  0  0  0  0  0  0
   -6.9060    0.9728    0.0000 Cl  0  0  0  0  0  0  0  0  0  0  0  0
   -9.3819    2.4008    0.0000 Cl  0  0  0  0  0  0  0  0  0  0  0  0
  2 13  1  0  0  0  0
  3  1  2  0  0  0  0
  4  3  1  0  0  0  0
  5  1  1  0  0  0  0
  6  7  1  0  0  0  0
  7  1  1  0  0  0  0
  8  5  1  0  0  0  0
  9  2  1  0  0  0  0
 10  2  1  0  0  0  0
 11  4  2  0  0  0  0
 12  6  2  0  0  0  0
 13 22  1  0  0  0  0
 14 11  1  0  0  0  0
 15  8  1  0  0  0  0
 16 12  1  0  0  0  0
 17  8  2  0  0  0  0
 18 10  1  0  0  0  0
 19  9  1  0  0  0  0
 20 10  2  0  0  0  0
 21  9  2  0  0  0  0
 22 25  2  0  0  0  0
 23 24  1  0  0  0  0
 24 15  2  0  0  0  0
 25 15  1  0  0  0  0
 26 11  1  0  0  0  0
 27 16  1  0  0  0  0
  6  4  1  0  0  0  0
 16 14  2  0  0  0  0
 23 13  2  0  0  0  0
 18 19  1  0  0  0  0
M  END
>  <IDNUMBER>
F1813-0346

>  <Chemical_Name>
N-(4,6-dichloro-1,3-benzothiazol-2-yl)-4-(2,5-dioxopyrrolidin-1-yl)benzamide

>  <PriceCoeff>
1.00

>  <CAS>
897759-44-3

>  <MW>
420.27

>  <Description>
solid

>  <FSP3>
0.11

>  <clogP>
3.06

>  <TPSA>
107.61

>  <Acceptor>
4

>  <Donor>
1

>  <RotBonds>
3

>  <HAC>
27

>  <Collection>
General

>  <PPDS>
+

$$$$
F1813-0347
  Mrv2219 10102508112D          

 27 30  0  0  0  0            999 V2000
   -6.0124    3.4028    0.0000 C   0  0  0  0  0  0  0  0  0  0  0  0
   -6.0918    2.5678    0.0000 N   0  0  0  0  0  0  0  0  0  0  0  0
   -6.9060    2.4008    0.0000 C   0  0  0  0  0  0  0  0  0  0  0  0
   -1.7286    5.0271    0.0000 N   0  0  0  0  0  0  0  0  0  0  0  0
   -7.3193    3.1147    0.0000 C   0  0  0  0  0  0  0  0  0  0  0  0
   -5.3068    3.8162    0.0000 N   0  0  0  0  0  0  0  0  0  0  0  0
   -6.7682    3.7410    0.0000 S   0  0  0  0  0  0  0  0  0  0  0  0
   -4.5928    3.4028    0.0000 C   0  0  0  0  0  0  0  0  0  0  0  0
   -0.9645    4.7265    0.0000 C   0  0  0  0  0  0  0  0  0  0  0  0
   -1.6743    5.8538    0.0000 C   0  0  0  0  0  0  0  0  0  0  0  0
   -2.4509    4.6137    0.0000 C   0  0  0  0  0  0  0  0  0  0  0  0
   -7.3193    1.6868    0.0000 C   0  0  0  0  0  0  0  0  0  0  0  0
   -8.1460    3.1147    0.0000 C   0  0  0  0  0  0  0  0  0  0  0  0
   -3.8788    3.8079    0.0000 C   0  0  0  0  0  0  0  0  0  0  0  0
   -4.5928    2.5761    0.0000 O   0  0  0  0  0  0  0  0  0  0  0  0
   -0.8643    6.0542    0.0000 C   0  0  0  0  0  0  0  0  0  0  0  0
   -0.4467    5.3528    0.0000 C   0  0  0  0  0  0  0  0  0  0  0  0
   -2.3131    6.4049    0.0000 O   0  0  0  0  0  0  0  0  0  0  0  0
   -0.7641    3.9331    0.0000 O   0  0  0  0  0  0  0  0  0  0  0  0
   -3.1648    5.0396    0.0000 C   0  0  0  0  0  0  0  0  0  0  0  0
   -2.4551    3.8079    0.0000 C   0  0  0  0  0  0  0  0  0  0  0  0
   -8.5594    2.4008    0.0000 C   0  0  0  0  0  0  0  0  0  0  0  0
   -8.1460    1.6868    0.0000 C   0  0  0  0  0  0  0  0  0  0  0  0
   -3.1691    3.4028    0.0000 C   0  0  0  0  0  0  0  0  0  0  0  0
   -3.8788    4.6346    0.0000 C   0  0  0  0  0  0  0  0  0  0  0  0
   -6.9060    0.9728    0.0000 Cl  0  0  0  0  0  0  0  0  0  0  0  0
   -8.5594    3.8287    0.0000 Cl  0  0  0  0  0  0  0  0  0  0  0  0
  2  1  2  0  0  0  0
  3  2  1  0  0  0  0
  4 11  1  0  0  0  0
  5  7  1  0  0  0  0
  6  1  1  0  0  0  0
  7  1  1  0  0  0  0
  8  6  1  0  0  0  0
  9  4  1  0  0  0  0
 10  4  1  0  0  0  0
 11 20  1  0  0  0  0
 12  3  2  0  0  0  0
 13  5  2  0  0  0  0
 14  8  1  0  0  0  0
 15  8  2  0  0  0  0
 16 10  1  0  0  0  0
 17  9  1  0  0  0  0
 18 10  2  0  0  0  0
 19  9  2  0  0  0  0
 20 25  2  0  0  0  0
 21 24  1  0  0  0  0
 22 13  1  0  0  0  0
 23 12  1  0  0  0  0
 24 14  2  0  0  0  0
 25 14  1  0  0  0  0
 26 12  1  0  0  0  0
 27 13  1  0  0  0  0
  5  3  1  0  0  0  0
 22 23  2  0  0  0  0
 21 11  2  0  0  0  0
 16 17  1  0  0  0  0
M  END
>  <IDNUMBER>
F1813-0347

>  <Chemical_Name>
N-(4,7-dichloro-1,3-benzothiazol-2-yl)-4-(2,5-dioxopyrrolidin-1-yl)benzamide

>  <PriceCoeff>
1.00

>  <CAS>
897617-99-1

>  <MW>
420.27

>  <Description>
solid

>  <FSP3>
0.11

>  <clogP>
3.06

>  <TPSA>
107.61

>  <Acceptor>
4

>  <Donor>
1

>  <RotBonds>
3

>  <HAC>
27

>  <Collection>
General

>  <PPDS>
+

$$$$
F1813-0348
  Mrv2219 10102508112D          

 27 30  0  0  0  0            999 V2000
   -6.0124    3.4028    0.0000 C   0  0  0  0  0  0  0  0  0  0  0  0
   -1.7286    5.0271    0.0000 N   0  0  0  0  0  0  0  0  0  0  0  0
   -6.0918    2.5636    0.0000 N   0  0  0  0  0  0  0  0  0  0  0  0
   -7.3277    3.1147    0.0000 C   0  0  0  0  0  0  0  0  0  0  0  0
   -6.9060    2.4008    0.0000 C   0  0  0  0  0  0  0  0  0  0  0  0
   -5.3068    3.8079    0.0000 N   0  0  0  0  0  0  0  0  0  0  0  0
   -6.7682    3.7285    0.0000 S   0  0  0  0  0  0  0  0  0  0  0  0
   -4.5928    3.4028    0.0000 C   0  0  0  0  0  0  0  0  0  0  0  0
   -0.9645    4.7265    0.0000 C   0  0  0  0  0  0  0  0  0  0  0  0
   -1.6743    5.8538    0.0000 C   0  0  0  0  0  0  0  0  0  0  0  0
   -2.4509    4.6137    0.0000 C   0  0  0  0  0  0  0  0  0  0  0  0
   -8.1460    3.1147    0.0000 C   0  0  0  0  0  0  0  0  0  0  0  0
   -3.8788    3.8079    0.0000 C   0  0  0  0  0  0  0  0  0  0  0  0
   -7.3193    1.6868    0.0000 C   0  0  0  0  0  0  0  0  0  0  0  0
   -4.5928    2.5761    0.0000 O   0  0  0  0  0  0  0  0  0  0  0  0
   -0.8643    6.0542    0.0000 C   0  0  0  0  0  0  0  0  0  0  0  0
   -0.4467    5.3528    0.0000 C   0  0  0  0  0  0  0  0  0  0  0  0
   -2.3131    6.4049    0.0000 O   0  0  0  0  0  0  0  0  0  0  0  0
   -0.7641    3.9331    0.0000 O   0  0  0  0  0  0  0  0  0  0  0  0
   -3.1648    5.0396    0.0000 C   0  0  0  0  0  0  0  0  0  0  0  0
   -2.4551    3.8079    0.0000 C   0  0  0  0  0  0  0  0  0  0  0  0
   -8.5594    2.4008    0.0000 C   0  0  0  0  0  0  0  0  0  0  0  0
   -3.8788    4.6346    0.0000 C   0  0  0  0  0  0  0  0  0  0  0  0
   -3.1691    3.4028    0.0000 C   0  0  0  0  0  0  0  0  0  0  0  0
   -8.1460    1.6785    0.0000 C   0  0  0  0  0  0  0  0  0  0  0  0
   -8.5594    3.8204    0.0000 Cl  0  0  0  0  0  0  0  0  0  0  0  0
   -6.9060    0.9728    0.0000 C   0  0  0  0  0  0  0  0  0  0  0  0
  2 11  1  0  0  0  0
  3  1  2  0  0  0  0
  4  7  1  0  0  0  0
  5  3  1  0  0  0  0
  6  1  1  0  0  0  0
  7  1  1  0  0  0  0
  8  6  1  0  0  0  0
  9  2  1  0  0  0  0
 10  2  1  0  0  0  0
 11 21  2  0  0  0  0
 12  4  2  0  0  0  0
 13  8  1  0  0  0  0
 14  5  2  0  0  0  0
 15  8  2  0  0  0  0
 16 10  1  0  0  0  0
 17  9  1  0  0  0  0
 18 10  2  0  0  0  0
 19  9  2  0  0  0  0
 20 23  2  0  0  0  0
 21 24  1  0  0  0  0
 22 12  1  0  0  0  0
 23 13  1  0  0  0  0
 24 13  2  0  0  0  0
 25 14  1  0  0  0  0
 26 12  1  0  0  0  0
 27 14  1  0  0  0  0
  4  5  1  0  0  0  0
 22 25  2  0  0  0  0
 20 11  1  0  0  0  0
 16 17  1  0  0  0  0
M  END
>  <IDNUMBER>
F1813-0348

>  <Chemical_Name>
N-(7-chloro-4-methyl-1,3-benzothiazol-2-yl)-4-(2,5-dioxopyrrolidin-1-yl)benzamide

>  <PriceCoeff>
1.00

>  <CAS>
897759-45-4

>  <MW>
399.85

>  <Description>
solid

>  <FSP3>
0.16

>  <clogP>
2.84

>  <TPSA>
107.61

>  <Acceptor>
4

>  <Donor>
1

>  <RotBonds>
3

>  <HAC>
27

>  <Collection>
General

>  <PPDS>
+

$$$$
F1813-0349
  Mrv2219 10102508112D          

 27 30  0  0  0  0            999 V2000
   -6.0391    3.4179    0.0000 C   0  0  0  0  0  0  0  0  0  0  0  0
   -1.7362    5.0494    0.0000 N   0  0  0  0  0  0  0  0  0  0  0  0
   -6.1188    2.5792    0.0000 N   0  0  0  0  0  0  0  0  0  0  0  0
   -5.3303    3.8331    0.0000 N   0  0  0  0  0  0  0  0  0  0  0  0
   -6.9366    2.4114    0.0000 C   0  0  0  0  0  0  0  0  0  0  0  0
   -6.7982    3.7576    0.0000 S   0  0  0  0  0  0  0  0  0  0  0  0
   -7.3518    3.1328    0.0000 C   0  0  0  0  0  0  0  0  0  0  0  0
   -4.6132    3.4179    0.0000 C   0  0  0  0  0  0  0  0  0  0  0  0
   -0.9688    4.7474    0.0000 C   0  0  0  0  0  0  0  0  0  0  0  0
   -1.6817    5.8797    0.0000 C   0  0  0  0  0  0  0  0  0  0  0  0
   -2.4617    4.6342    0.0000 C   0  0  0  0  0  0  0  0  0  0  0  0
   -3.8960    3.8247    0.0000 C   0  0  0  0  0  0  0  0  0  0  0  0
   -7.3518    1.6943    0.0000 C   0  0  0  0  0  0  0  0  0  0  0  0
   -8.1821    3.1285    0.0000 C   0  0  0  0  0  0  0  0  0  0  0  0
   -4.6132    2.5875    0.0000 O   0  0  0  0  0  0  0  0  0  0  0  0
   -0.8681    6.0810    0.0000 C   0  0  0  0  0  0  0  0  0  0  0  0
   -0.4487    5.3765    0.0000 C   0  0  0  0  0  0  0  0  0  0  0  0
   -2.3233    6.4333    0.0000 O   0  0  0  0  0  0  0  0  0  0  0  0
   -0.7675    3.9506    0.0000 O   0  0  0  0  0  0  0  0  0  0  0  0
   -3.1789    5.0620    0.0000 C   0  0  0  0  0  0  0  0  0  0  0  0
   -2.4660    3.8247    0.0000 C   0  0  0  0  0  0  0  0  0  0  0  0
   -3.1831    3.4179    0.0000 C   0  0  0  0  0  0  0  0  0  0  0  0
   -3.8960    4.6551    0.0000 C   0  0  0  0  0  0  0  0  0  0  0  0
   -8.5848    2.4114    0.0000 C   0  0  0  0  0  0  0  0  0  0  0  0
   -8.1821    1.6943    0.0000 C   0  0  0  0  0  0  0  0  0  0  0  0
   -6.9366    0.9814    0.0000 C   0  0  0  0  0  0  0  0  0  0  0  0
   -8.5973    3.8457    0.0000 C   0  0  0  0  0  0  0  0  0  0  0  0
  2 11  1  0  0  0  0
  3  1  2  0  0  0  0
  4  1  1  0  0  0  0
  5  3  1  0  0  0  0
  6  1  1  0  0  0  0
  7  6  1  0  0  0  0
  8  4  1  0  0  0  0
  9  2  1  0  0  0  0
 10  2  1  0  0  0  0
 11 20  1  0  0  0  0
 12  8  1  0  0  0  0
 13  5  2  0  0  0  0
 14  7  2  0  0  0  0
 15  8  2  0  0  0  0
 16 10  1  0  0  0  0
 17  9  1  0  0  0  0
 18 10  2  0  0  0  0
 19  9  2  0  0  0  0
 20 23  2  0  0  0  0
 21 22  1  0  0  0  0
 22 12  2  0  0  0  0
 23 12  1  0  0  0  0
 24 14  1  0  0  0  0
 25 13  1  0  0  0  0
 26 13  1  0  0  0  0
 27 14  1  0  0  0  0
  7  5  1  0  0  0  0
 24 25  2  0  0  0  0
 21 11  2  0  0  0  0
 16 17  1  0  0  0  0
M  END
>  <IDNUMBER>
F1813-0349

>  <Chemical_Name>
N-(4,7-dimethyl-1,3-benzothiazol-2-yl)-4-(2,5-dioxopyrrolidin-1-yl)benzamide

>  <PriceCoeff>
1.00

>  <CAS>
897618-00-7

>  <MW>
379.43

>  <Description>
solid

>  <FSP3>
0.20

>  <clogP>
2.62

>  <TPSA>
107.61

>  <Acceptor>
4

>  <Donor>
1

>  <RotBonds>
3

>  <HAC>
27

>  <Collection>
General

>  <PPDS>
+

$$$$
F1813-0350
  Mrv2219 10102508112D          

 28 31  0  0  0  0            999 V2000
   -6.0385    3.4200    0.0000 C   0  0  0  0  0  0  0  0  0  0  0  0
   -6.1183    2.5891    0.0000 N   0  0  0  0  0  0  0  0  0  0  0  0
   -1.7373    5.0524    0.0000 N   0  0  0  0  0  0  0  0  0  0  0  0
   -6.9282    2.4129    0.0000 C   0  0  0  0  0  0  0  0  0  0  0  0
   -5.3252    3.8271    0.0000 N   0  0  0  0  0  0  0  0  0  0  0  0
   -7.3436    3.1347    0.0000 C   0  0  0  0  0  0  0  0  0  0  0  0
   -6.7897    3.7473    0.0000 S   0  0  0  0  0  0  0  0  0  0  0  0
   -4.6159    3.4200    0.0000 C   0  0  0  0  0  0  0  0  0  0  0  0
   -0.9694    4.7503    0.0000 C   0  0  0  0  0  0  0  0  0  0  0  0
   -1.6827    5.8833    0.0000 C   0  0  0  0  0  0  0  0  0  0  0  0
   -2.4632    4.6370    0.0000 C   0  0  0  0  0  0  0  0  0  0  0  0
   -7.3310    1.7079    0.0000 C   0  0  0  0  0  0  0  0  0  0  0  0
   -3.8984    3.8271    0.0000 C   0  0  0  0  0  0  0  0  0  0  0  0
   -8.1619    3.1304    0.0000 C   0  0  0  0  0  0  0  0  0  0  0  0
   -4.6159    2.5891    0.0000 O   0  0  0  0  0  0  0  0  0  0  0  0
   -0.8686    6.0847    0.0000 C   0  0  0  0  0  0  0  0  0  0  0  0
   -0.4490    5.3797    0.0000 C   0  0  0  0  0  0  0  0  0  0  0  0
   -2.3247    6.4372    0.0000 O   0  0  0  0  0  0  0  0  0  0  0  0
   -0.7679    3.9530    0.0000 O   0  0  0  0  0  0  0  0  0  0  0  0
   -3.1808    5.0650    0.0000 C   0  0  0  0  0  0  0  0  0  0  0  0
   -2.4674    3.8271    0.0000 C   0  0  0  0  0  0  0  0  0  0  0  0
   -8.1619    1.7079    0.0000 C   0  0  0  0  0  0  0  0  0  0  0  0
   -3.8984    4.6579    0.0000 C   0  0  0  0  0  0  0  0  0  0  0  0
   -3.1850    3.4200    0.0000 C   0  0  0  0  0  0  0  0  0  0  0  0
   -8.5773    2.4254    0.0000 C   0  0  0  0  0  0  0  0  0  0  0  0
   -6.9240    0.9945    0.0000 O   0  0  0  0  0  0  0  0  0  0  0  0
   -8.5648    3.8480    0.0000 C   0  0  0  0  0  0  0  0  0  0  0  0
   -7.2429    0.1468    0.0000 C   0  0  0  0  0  0  0  0  0  0  0  0
  2  1  2  0  0  0  0
  3 11  1  0  0  0  0
  4  2  1  0  0  0  0
  5  1  1  0  0  0  0
  6  7  1  0  0  0  0
  7  1  1  0  0  0  0
  8  5  1  0  0  0  0
  9  3  1  0  0  0  0
 10  3  1  0  0  0  0
 11 21  2  0  0  0  0
 12  4  2  0  0  0  0
 13  8  1  0  0  0  0
 14  6  2  0  0  0  0
 15  8  2  0  0  0  0
 16 10  1  0  0  0  0
 17  9  1  0  0  0  0
 18 10  2  0  0  0  0
 19  9  2  0  0  0  0
 20 23  2  0  0  0  0
 21 24  1  0  0  0  0
 22 12  1  0  0  0  0
 23 13  1  0  0  0  0
 24 13  2  0  0  0  0
 25 14  1  0  0  0  0
 26 12  1  0  0  0  0
 27 14  1  0  0  0  0
 28 26  1  0  0  0  0
  6  4  1  0  0  0  0
 25 22  2  0  0  0  0
 20 11  1  0  0  0  0
 16 17  1  0  0  0  0
M  END
>  <IDNUMBER>
F1813-0350

>  <Chemical_Name>
4-(2,5-dioxopyrrolidin-1-yl)-N-(4-methoxy-7-methyl-1,3-benzothiazol-2-yl)benzamide

>  <PriceCoeff>
1.00

>  <CAS>
897759-46-5

>  <MW>
395.43

>  <Description>
solid

>  <FSP3>
0.20

>  <clogP>
2.42

>  <TPSA>
116.84

>  <Acceptor>
5

>  <Donor>
1

>  <RotBonds>
4

>  <HAC>
28

>  <Collection>
General

>  <PPDS>
+

$$$$
F1813-0352
  Mrv2219 10102508112D          

 27 30  0  0  0  0            999 V2000
   -6.0309    3.4133    0.0000 C   0  0  0  0  0  0  0  0  0  0  0  0
   -1.7339    5.0426    0.0000 N   0  0  0  0  0  0  0  0  0  0  0  0
   -6.1106    2.5757    0.0000 N   0  0  0  0  0  0  0  0  0  0  0  0
   -5.3231    3.8279    0.0000 N   0  0  0  0  0  0  0  0  0  0  0  0
   -6.9272    2.4082    0.0000 C   0  0  0  0  0  0  0  0  0  0  0  0
   -6.7890    3.7526    0.0000 S   0  0  0  0  0  0  0  0  0  0  0  0
   -7.3419    3.1243    0.0000 C   0  0  0  0  0  0  0  0  0  0  0  0
   -4.6069    3.4133    0.0000 C   0  0  0  0  0  0  0  0  0  0  0  0
   -0.9675    4.7410    0.0000 C   0  0  0  0  0  0  0  0  0  0  0  0
   -1.6794    5.8718    0.0000 C   0  0  0  0  0  0  0  0  0  0  0  0
   -8.1711    3.1286    0.0000 C   0  0  0  0  0  0  0  0  0  0  0  0
   -2.4584    4.6279    0.0000 C   0  0  0  0  0  0  0  0  0  0  0  0
   -3.8908    3.8196    0.0000 C   0  0  0  0  0  0  0  0  0  0  0  0
   -7.3419    1.6920    0.0000 C   0  0  0  0  0  0  0  0  0  0  0  0
   -8.5732    2.4082    0.0000 C   0  0  0  0  0  0  0  0  0  0  0  0
   -4.6069    2.5841    0.0000 O   0  0  0  0  0  0  0  0  0  0  0  0
   -0.4481    5.3692    0.0000 C   0  0  0  0  0  0  0  0  0  0  0  0
   -0.8669    6.0729    0.0000 C   0  0  0  0  0  0  0  0  0  0  0  0
   -0.7664    3.9452    0.0000 O   0  0  0  0  0  0  0  0  0  0  0  0
   -2.3202    6.4247    0.0000 O   0  0  0  0  0  0  0  0  0  0  0  0
   -8.1669    1.6920    0.0000 C   0  0  0  0  0  0  0  0  0  0  0  0
   -3.1746    5.0551    0.0000 C   0  0  0  0  0  0  0  0  0  0  0  0
   -2.4626    3.8196    0.0000 C   0  0  0  0  0  0  0  0  0  0  0  0
   -3.1788    3.4133    0.0000 C   0  0  0  0  0  0  0  0  0  0  0  0
   -3.8908    4.6489    0.0000 C   0  0  0  0  0  0  0  0  0  0  0  0
   -8.5732    3.8531    0.0000 C   0  0  0  0  0  0  0  0  0  0  0  0
   -8.5732    0.9758    0.0000 C   0  0  0  0  0  0  0  0  0  0  0  0
  2 12  1  0  0  0  0
  3  1  2  0  0  0  0
  4  1  1  0  0  0  0
  5  3  1  0  0  0  0
  6  1  1  0  0  0  0
  7  6  1  0  0  0  0
  8  4  1  0  0  0  0
  9  2  1  0  0  0  0
 10  2  1  0  0  0  0
 11  7  2  0  0  0  0
 12 22  1  0  0  0  0
 13  8  1  0  0  0  0
 14  5  2  0  0  0  0
 15 11  1  0  0  0  0
 16  8  2  0  0  0  0
 17  9  1  0  0  0  0
 18 10  1  0  0  0  0
 19  9  2  0  0  0  0
 20 10  2  0  0  0  0
 21 14  1  0  0  0  0
 22 25  2  0  0  0  0
 23 24  1  0  0  0  0
 24 13  2  0  0  0  0
 25 13  1  0  0  0  0
 26 11  1  0  0  0  0
 27 21  1  0  0  0  0
  7  5  1  0  0  0  0
 15 21  2  0  0  0  0
 23 12  2  0  0  0  0
 18 17  1  0  0  0  0
M  END
>  <IDNUMBER>
F1813-0352

>  <Chemical_Name>
N-(5,7-dimethyl-1,3-benzothiazol-2-yl)-4-(2,5-dioxopyrrolidin-1-yl)benzamide

>  <PriceCoeff>
1.00

>  <CAS>
897618-01-8

>  <MW>
379.43

>  <Description>
solid

>  <FSP3>
0.20

>  <clogP>
2.62

>  <TPSA>
107.61

>  <Acceptor>
4

>  <Donor>
1

>  <RotBonds>
3

>  <HAC>
27

>  <Collection>
General

>  <PPDS>
+

$$$$
F1813-0475
  Mrv2219 10102508112D          

 27 30  0  0  0  0            999 V2000
   -6.0124    3.4028    0.0000 C   0  0  0  0  0  0  0  0  0  0  0  0
   -1.7369    3.4028    0.0000 N   0  0  0  0  0  0  0  0  0  0  0  0
   -6.9060    2.4008    0.0000 C   0  0  0  0  0  0  0  0  0  0  0  0
   -6.0918    2.5678    0.0000 N   0  0  0  0  0  0  0  0  0  0  0  0
   -5.3068    3.8162    0.0000 N   0  0  0  0  0  0  0  0  0  0  0  0
   -6.7682    3.7410    0.0000 S   0  0  0  0  0  0  0  0  0  0  0  0
   -7.3193    1.6868    0.0000 C   0  0  0  0  0  0  0  0  0  0  0  0
   -2.4509    3.8079    0.0000 C   0  0  0  0  0  0  0  0  0  0  0  0
   -4.5928    3.4028    0.0000 C   0  0  0  0  0  0  0  0  0  0  0  0
   -7.3193    3.1147    0.0000 C   0  0  0  0  0  0  0  0  0  0  0  0
   -0.9728    3.6951    0.0000 C   0  0  0  0  0  0  0  0  0  0  0  0
   -1.6910    2.5761    0.0000 C   0  0  0  0  0  0  0  0  0  0  0  0
   -3.1648    3.4028    0.0000 C   0  0  0  0  0  0  0  0  0  0  0  0
   -3.8788    3.8079    0.0000 C   0  0  0  0  0  0  0  0  0  0  0  0
   -8.1460    1.6868    0.0000 C   0  0  0  0  0  0  0  0  0  0  0  0
   -4.5928    2.5761    0.0000 O   0  0  0  0  0  0  0  0  0  0  0  0
   -0.4384    3.0646    0.0000 C   0  0  0  0  0  0  0  0  0  0  0  0
   -0.8726    2.3757    0.0000 C   0  0  0  0  0  0  0  0  0  0  0  0
   -0.7599    4.4760    0.0000 O   0  0  0  0  0  0  0  0  0  0  0  0
   -2.3256    2.0500    0.0000 O   0  0  0  0  0  0  0  0  0  0  0  0
   -8.1460    3.1147    0.0000 C   0  0  0  0  0  0  0  0  0  0  0  0
   -8.5594    2.4008    0.0000 C   0  0  0  0  0  0  0  0  0  0  0  0
   -6.9060    0.9770    0.0000 Cl  0  0  0  0  0  0  0  0  0  0  0  0
   -8.5469    0.9770    0.0000 Cl  0  0  0  0  0  0  0  0  0  0  0  0
   -2.4426    4.6263    0.0000 C   0  0  0  0  0  0  0  0  0  0  0  0
   -3.8788    4.6263    0.0000 C   0  0  0  0  0  0  0  0  0  0  0  0
   -3.1648    5.0396    0.0000 C   0  0  0  0  0  0  0  0  0  0  0  0
  2  8  1  0  0  0  0
  3  4  1  0  0  0  0
  4  1  2  0  0  0  0
  5  1  1  0  0  0  0
  6  1  1  0  0  0  0
  7  3  2  0  0  0  0
  8 13  1  0  0  0  0
  9  5  1  0  0  0  0
 10  6  1  0  0  0  0
 11  2  1  0  0  0  0
 12  2  1  0  0  0  0
 13 14  2  0  0  0  0
 14  9  1  0  0  0  0
 15  7  1  0  0  0  0
 16  9  2  0  0  0  0
 17 11  1  0  0  0  0
 18 12  1  0  0  0  0
 19 11  2  0  0  0  0
 20 12  2  0  0  0  0
 21 10  2  0  0  0  0
 22 21  1  0  0  0  0
 23  7  1  0  0  0  0
 24 15  1  0  0  0  0
 25 27  1  0  0  0  0
 26 14  1  0  0  0  0
 27 26  2  0  0  0  0
 10  3  1  0  0  0  0
 22 15  2  0  0  0  0
  8 25  2  0  0  0  0
 17 18  1  0  0  0  0
M  END
>  <IDNUMBER>
F1813-0475

>  <Chemical_Name>
N-(4,5-dichloro-1,3-benzothiazol-2-yl)-3-(2,5-dioxopyrrolidin-1-yl)benzamide

>  <PriceCoeff>
1.00

>  <CAS>
897618-04-1

>  <MW>
420.27

>  <Description>
solid

>  <FSP3>
0.11

>  <clogP>
2.94

>  <TPSA>
107.61

>  <Acceptor>
4

>  <Donor>
1

>  <RotBonds>
3

>  <HAC>
27

>  <Collection>
General

>  <PPDS>
+

$$$$
F1813-0476
  Mrv2219 10102508112D          

 27 30  0  0  0  0            999 V2000
   -6.0131    3.4032    0.0000 C   0  0  0  0  0  0  0  0  0  0  0  0
   -1.7371    3.4032    0.0000 N   0  0  0  0  0  0  0  0  0  0  0  0
   -6.0925    2.5681    0.0000 N   0  0  0  0  0  0  0  0  0  0  0  0
   -6.9068    2.4011    0.0000 C   0  0  0  0  0  0  0  0  0  0  0  0
   -5.3074    3.8166    0.0000 N   0  0  0  0  0  0  0  0  0  0  0  0
   -6.7690    3.7414    0.0000 S   0  0  0  0  0  0  0  0  0  0  0  0
   -2.4512    3.8083    0.0000 C   0  0  0  0  0  0  0  0  0  0  0  0
   -4.5933    3.4032    0.0000 C   0  0  0  0  0  0  0  0  0  0  0  0
   -7.3201    3.1151    0.0000 C   0  0  0  0  0  0  0  0  0  0  0  0
   -7.3201    1.6870    0.0000 C   0  0  0  0  0  0  0  0  0  0  0  0
   -0.9729    3.6955    0.0000 C   0  0  0  0  0  0  0  0  0  0  0  0
   -1.6912    2.5764    0.0000 C   0  0  0  0  0  0  0  0  0  0  0  0
   -3.1652    3.4032    0.0000 C   0  0  0  0  0  0  0  0  0  0  0  0
   -3.8792    3.8083    0.0000 C   0  0  0  0  0  0  0  0  0  0  0  0
   -8.1469    1.6870    0.0000 C   0  0  0  0  0  0  0  0  0  0  0  0
   -4.5933    2.5764    0.0000 O   0  0  0  0  0  0  0  0  0  0  0  0
   -0.4384    3.0649    0.0000 C   0  0  0  0  0  0  0  0  0  0  0  0
   -0.8727    2.3760    0.0000 C   0  0  0  0  0  0  0  0  0  0  0  0
   -0.7600    4.4765    0.0000 O   0  0  0  0  0  0  0  0  0  0  0  0
   -2.3259    2.0502    0.0000 O   0  0  0  0  0  0  0  0  0  0  0  0
   -8.1469    3.1151    0.0000 C   0  0  0  0  0  0  0  0  0  0  0  0
   -8.5479    2.4011    0.0000 C   0  0  0  0  0  0  0  0  0  0  0  0
   -8.5479    0.9729    0.0000 Cl  0  0  0  0  0  0  0  0  0  0  0  0
   -2.4429    4.6268    0.0000 C   0  0  0  0  0  0  0  0  0  0  0  0
   -6.9068    0.9729    0.0000 C   0  0  0  0  0  0  0  0  0  0  0  0
   -3.8792    4.6268    0.0000 C   0  0  0  0  0  0  0  0  0  0  0  0
   -3.1652    5.0402    0.0000 C   0  0  0  0  0  0  0  0  0  0  0  0
  2  7  1  0  0  0  0
  3  1  2  0  0  0  0
  4  3  1  0  0  0  0
  5  1  1  0  0  0  0
  6  1  1  0  0  0  0
  7 13  1  0  0  0  0
  8  5  1  0  0  0  0
  9  6  1  0  0  0  0
 10  4  2  0  0  0  0
 11  2  1  0  0  0  0
 12  2  1  0  0  0  0
 13 14  2  0  0  0  0
 14  8  1  0  0  0  0
 15 10  1  0  0  0  0
 16  8  2  0  0  0  0
 17 11  1  0  0  0  0
 18 12  1  0  0  0  0
 19 11  2  0  0  0  0
 20 12  2  0  0  0  0
 21  9  2  0  0  0  0
 22 21  1  0  0  0  0
 23 15  1  0  0  0  0
 24 27  1  0  0  0  0
 25 10  1  0  0  0  0
 26 14  1  0  0  0  0
 27 26  2  0  0  0  0
  9  4  1  0  0  0  0
 22 15  2  0  0  0  0
  7 24  2  0  0  0  0
 17 18  1  0  0  0  0
M  END
>  <IDNUMBER>
F1813-0476

>  <Chemical_Name>
N-(5-chloro-4-methyl-1,3-benzothiazol-2-yl)-3-(2,5-dioxopyrrolidin-1-yl)benzamide

>  <PriceCoeff>
1.00

>  <CAS>
897759-50-1

>  <MW>
399.85

>  <Description>
solid

>  <FSP3>
0.16

>  <clogP>
2.84

>  <TPSA>
107.61

>  <Acceptor>
4

>  <Donor>
1

>  <RotBonds>
3

>  <HAC>
27

>  <Collection>
General

>  <PPDS>
+

$$$$
F1813-0477
  Mrv2219 10102508112D          

 27 30  0  0  0  0            999 V2000
   -6.0124    3.4028    0.0000 C   0  0  0  0  0  0  0  0  0  0  0  0
   -1.7369    3.4028    0.0000 N   0  0  0  0  0  0  0  0  0  0  0  0
   -6.1001    2.5678    0.0000 N   0  0  0  0  0  0  0  0  0  0  0  0
   -5.3068    3.8079    0.0000 N   0  0  0  0  0  0  0  0  0  0  0  0
   -6.7682    3.7410    0.0000 S   0  0  0  0  0  0  0  0  0  0  0  0
   -7.3193    3.1147    0.0000 C   0  0  0  0  0  0  0  0  0  0  0  0
   -6.9060    2.4008    0.0000 C   0  0  0  0  0  0  0  0  0  0  0  0
   -2.4509    3.8079    0.0000 C   0  0  0  0  0  0  0  0  0  0  0  0
   -4.5928    3.4028    0.0000 C   0  0  0  0  0  0  0  0  0  0  0  0
   -1.6910    2.5761    0.0000 C   0  0  0  0  0  0  0  0  0  0  0  0
   -0.9728    3.6951    0.0000 C   0  0  0  0  0  0  0  0  0  0  0  0
   -7.3193    1.6868    0.0000 C   0  0  0  0  0  0  0  0  0  0  0  0
   -8.1460    3.1147    0.0000 C   0  0  0  0  0  0  0  0  0  0  0  0
   -3.1648    3.4028    0.0000 C   0  0  0  0  0  0  0  0  0  0  0  0
   -3.8788    3.8079    0.0000 C   0  0  0  0  0  0  0  0  0  0  0  0
   -8.5594    2.4008    0.0000 C   0  0  0  0  0  0  0  0  0  0  0  0
   -8.1460    1.6868    0.0000 C   0  0  0  0  0  0  0  0  0  0  0  0
   -4.5928    2.5761    0.0000 O   0  0  0  0  0  0  0  0  0  0  0  0
   -0.4384    3.0646    0.0000 C   0  0  0  0  0  0  0  0  0  0  0  0
   -0.8726    2.3757    0.0000 C   0  0  0  0  0  0  0  0  0  0  0  0
   -0.7599    4.4760    0.0000 O   0  0  0  0  0  0  0  0  0  0  0  0
   -2.3256    2.0500    0.0000 O   0  0  0  0  0  0  0  0  0  0  0  0
   -9.3819    2.4008    0.0000 Cl  0  0  0  0  0  0  0  0  0  0  0  0
   -2.4426    4.6263    0.0000 C   0  0  0  0  0  0  0  0  0  0  0  0
   -6.9060    0.9728    0.0000 C   0  0  0  0  0  0  0  0  0  0  0  0
   -3.8788    4.6263    0.0000 C   0  0  0  0  0  0  0  0  0  0  0  0
   -3.1648    5.0396    0.0000 C   0  0  0  0  0  0  0  0  0  0  0  0
  2  8  1  0  0  0  0
  3  1  2  0  0  0  0
  4  1  1  0  0  0  0
  5  1  1  0  0  0  0
  6  5  1  0  0  0  0
  7  3  1  0  0  0  0
  8 14  1  0  0  0  0
  9  4  1  0  0  0  0
 10  2  1  0  0  0  0
 11  2  1  0  0  0  0
 12  7  2  0  0  0  0
 13  6  2  0  0  0  0
 14 15  2  0  0  0  0
 15  9  1  0  0  0  0
 16 13  1  0  0  0  0
 17 12  1  0  0  0  0
 18  9  2  0  0  0  0
 19 11  1  0  0  0  0
 20 10  1  0  0  0  0
 21 11  2  0  0  0  0
 22 10  2  0  0  0  0
 23 16  1  0  0  0  0
 24 27  1  0  0  0  0
 25 12  1  0  0  0  0
 26 15  1  0  0  0  0
 27 26  2  0  0  0  0
  6  7  1  0  0  0  0
 16 17  2  0  0  0  0
  8 24  2  0  0  0  0
 19 20  1  0  0  0  0
M  END
>  <IDNUMBER>
F1813-0477

>  <Chemical_Name>
N-(6-chloro-4-methyl-1,3-benzothiazol-2-yl)-3-(2,5-dioxopyrrolidin-1-yl)benzamide

>  <PriceCoeff>
1.00

>  <CAS>
897618-05-2

>  <MW>
399.85

>  <Description>
solid

>  <FSP3>
0.16

>  <clogP>
2.84

>  <TPSA>
107.61

>  <Acceptor>
4

>  <Donor>
1

>  <RotBonds>
3

>  <HAC>
27

>  <Collection>
General

>  <PPDS>
+

$$$$
F1813-0478
  Mrv2219 10102508112D          

 27 30  0  0  0  0            999 V2000
   -6.0124    3.4028    0.0000 C   0  0  0  0  0  0  0  0  0  0  0  0
   -1.7369    3.4028    0.0000 N   0  0  0  0  0  0  0  0  0  0  0  0
   -6.1001    2.5678    0.0000 N   0  0  0  0  0  0  0  0  0  0  0  0
   -6.9060    2.4008    0.0000 C   0  0  0  0  0  0  0  0  0  0  0  0
   -5.3068    3.8079    0.0000 N   0  0  0  0  0  0  0  0  0  0  0  0
   -7.3277    3.1147    0.0000 C   0  0  0  0  0  0  0  0  0  0  0  0
   -6.7682    3.7410    0.0000 S   0  0  0  0  0  0  0  0  0  0  0  0
   -2.4509    3.8079    0.0000 C   0  0  0  0  0  0  0  0  0  0  0  0
   -4.5928    3.4028    0.0000 C   0  0  0  0  0  0  0  0  0  0  0  0
   -1.6910    2.5761    0.0000 C   0  0  0  0  0  0  0  0  0  0  0  0
   -0.9728    3.6951    0.0000 C   0  0  0  0  0  0  0  0  0  0  0  0
   -7.3193    1.6868    0.0000 C   0  0  0  0  0  0  0  0  0  0  0  0
   -8.1460    3.1147    0.0000 C   0  0  0  0  0  0  0  0  0  0  0  0
   -3.1648    3.4028    0.0000 C   0  0  0  0  0  0  0  0  0  0  0  0
   -3.8788    3.8079    0.0000 C   0  0  0  0  0  0  0  0  0  0  0  0
   -8.1460    1.6785    0.0000 C   0  0  0  0  0  0  0  0  0  0  0  0
   -8.5594    2.4008    0.0000 C   0  0  0  0  0  0  0  0  0  0  0  0
   -4.5928    2.5761    0.0000 O   0  0  0  0  0  0  0  0  0  0  0  0
   -0.4384    3.0646    0.0000 C   0  0  0  0  0  0  0  0  0  0  0  0
   -0.8726    2.3757    0.0000 C   0  0  0  0  0  0  0  0  0  0  0  0
   -0.7599    4.4760    0.0000 O   0  0  0  0  0  0  0  0  0  0  0  0
   -2.3256    2.0500    0.0000 O   0  0  0  0  0  0  0  0  0  0  0  0
   -6.9060    0.9728    0.0000 Cl  0  0  0  0  0  0  0  0  0  0  0  0
   -9.3819    2.4008    0.0000 Cl  0  0  0  0  0  0  0  0  0  0  0  0
   -2.4426    4.6263    0.0000 C   0  0  0  0  0  0  0  0  0  0  0  0
   -3.8788    4.6263    0.0000 C   0  0  0  0  0  0  0  0  0  0  0  0
   -3.1648    5.0396    0.0000 C   0  0  0  0  0  0  0  0  0  0  0  0
  2  8  1  0  0  0  0
  3  1  2  0  0  0  0
  4  3  1  0  0  0  0
  5  1  1  0  0  0  0
  6  7  1  0  0  0  0
  7  1  1  0  0  0  0
  8 14  1  0  0  0  0
  9  5  1  0  0  0  0
 10  2  1  0  0  0  0
 11  2  1  0  0  0  0
 12  4  2  0  0  0  0
 13  6  2  0  0  0  0
 14 15  2  0  0  0  0
 15  9  1  0  0  0  0
 16 12  1  0  0  0  0
 17 13  1  0  0  0  0
 18  9  2  0  0  0  0
 19 11  1  0  0  0  0
 20 10  1  0  0  0  0
 21 11  2  0  0  0  0
 22 10  2  0  0  0  0
 23 12  1  0  0  0  0
 24 17  1  0  0  0  0
 25 27  1  0  0  0  0
 26 15  1  0  0  0  0
 27 26  2  0  0  0  0
  6  4  1  0  0  0  0
 17 16  2  0  0  0  0
  8 25  2  0  0  0  0
 19 20  1  0  0  0  0
M  END
>  <IDNUMBER>
F1813-0478

>  <Chemical_Name>
N-(4,6-dichloro-1,3-benzothiazol-2-yl)-3-(2,5-dioxopyrrolidin-1-yl)benzamide

>  <PriceCoeff>
1.00

>  <CAS>
897759-52-3

>  <MW>
420.27

>  <Description>
solid

>  <FSP3>
0.11

>  <clogP>
3.06

>  <TPSA>
107.61

>  <Acceptor>
4

>  <Donor>
1

>  <RotBonds>
3

>  <HAC>
27

>  <Collection>
General

>  <PPDS>
+

$$$$
F1813-0479
  Mrv2219 10102508112D          

 27 30  0  0  0  0            999 V2000
   -6.0124    3.4028    0.0000 C   0  0  0  0  0  0  0  0  0  0  0  0
   -1.7369    3.4028    0.0000 N   0  0  0  0  0  0  0  0  0  0  0  0
   -6.0918    2.5678    0.0000 N   0  0  0  0  0  0  0  0  0  0  0  0
   -6.9060    2.4008    0.0000 C   0  0  0  0  0  0  0  0  0  0  0  0
   -7.3193    3.1147    0.0000 C   0  0  0  0  0  0  0  0  0  0  0  0
   -5.3068    3.8162    0.0000 N   0  0  0  0  0  0  0  0  0  0  0  0
   -6.7682    3.7410    0.0000 S   0  0  0  0  0  0  0  0  0  0  0  0
   -2.4509    3.8079    0.0000 C   0  0  0  0  0  0  0  0  0  0  0  0
   -4.5928    3.4028    0.0000 C   0  0  0  0  0  0  0  0  0  0  0  0
   -1.6910    2.5761    0.0000 C   0  0  0  0  0  0  0  0  0  0  0  0
   -0.9728    3.6951    0.0000 C   0  0  0  0  0  0  0  0  0  0  0  0
   -3.1648    3.4028    0.0000 C   0  0  0  0  0  0  0  0  0  0  0  0
   -3.8788    3.8079    0.0000 C   0  0  0  0  0  0  0  0  0  0  0  0
   -7.3193    1.6868    0.0000 C   0  0  0  0  0  0  0  0  0  0  0  0
   -8.1460    3.1147    0.0000 C   0  0  0  0  0  0  0  0  0  0  0  0
   -4.5928    2.5761    0.0000 O   0  0  0  0  0  0  0  0  0  0  0  0
   -0.4384    3.0646    0.0000 C   0  0  0  0  0  0  0  0  0  0  0  0
   -0.8726    2.3757    0.0000 C   0  0  0  0  0  0  0  0  0  0  0  0
   -0.7599    4.4760    0.0000 O   0  0  0  0  0  0  0  0  0  0  0  0
   -2.3256    2.0500    0.0000 O   0  0  0  0  0  0  0  0  0  0  0  0
   -8.5594    2.4008    0.0000 C   0  0  0  0  0  0  0  0  0  0  0  0
   -8.1460    1.6868    0.0000 C   0  0  0  0  0  0  0  0  0  0  0  0
   -6.9060    0.9728    0.0000 Cl  0  0  0  0  0  0  0  0  0  0  0  0
   -8.5594    3.8287    0.0000 Cl  0  0  0  0  0  0  0  0  0  0  0  0
   -2.4426    4.6263    0.0000 C   0  0  0  0  0  0  0  0  0  0  0  0
   -3.8788    4.6263    0.0000 C   0  0  0  0  0  0  0  0  0  0  0  0
   -3.1648    5.0396    0.0000 C   0  0  0  0  0  0  0  0  0  0  0  0
  2  8  1  0  0  0  0
  3  1  2  0  0  0  0
  4  3  1  0  0  0  0
  5  7  1  0  0  0  0
  6  1  1  0  0  0  0
  7  1  1  0  0  0  0
  8 12  1  0  0  0  0
  9  6  1  0  0  0  0
 10  2  1  0  0  0  0
 11  2  1  0  0  0  0
 12 13  2  0  0  0  0
 13  9  1  0  0  0  0
 14  4  2  0  0  0  0
 15  5  2  0  0  0  0
 16  9  2  0  0  0  0
 17 11  1  0  0  0  0
 18 10  1  0  0  0  0
 19 11  2  0  0  0  0
 20 10  2  0  0  0  0
 21 15  1  0  0  0  0
 22 14  1  0  0  0  0
 23 14  1  0  0  0  0
 24 15  1  0  0  0  0
 25 27  1  0  0  0  0
 26 13  1  0  0  0  0
 27 26  2  0  0  0  0
  5  4  1  0  0  0  0
 21 22  2  0  0  0  0
  8 25  2  0  0  0  0
 17 18  1  0  0  0  0
M  END
>  <IDNUMBER>
F1813-0479

>  <Chemical_Name>
N-(4,7-dichloro-1,3-benzothiazol-2-yl)-3-(2,5-dioxopyrrolidin-1-yl)benzamide

>  <PriceCoeff>
1.00

>  <CAS>
897618-06-3

>  <MW>
420.27

>  <Description>
solid

>  <FSP3>
0.11

>  <clogP>
3.06

>  <TPSA>
107.61

>  <Acceptor>
4

>  <Donor>
1

>  <RotBonds>
3

>  <HAC>
27

>  <Collection>
General

>  <PPDS>
+

$$$$
F1813-0480
  Mrv2219 10102508112D          

 27 30  0  0  0  0            999 V2000
   -6.0124    3.4028    0.0000 C   0  0  0  0  0  0  0  0  0  0  0  0
   -1.7369    3.4028    0.0000 N   0  0  0  0  0  0  0  0  0  0  0  0
   -6.0918    2.5636    0.0000 N   0  0  0  0  0  0  0  0  0  0  0  0
   -7.3277    3.1147    0.0000 C   0  0  0  0  0  0  0  0  0  0  0  0
   -6.9060    2.4008    0.0000 C   0  0  0  0  0  0  0  0  0  0  0  0
   -5.3068    3.8079    0.0000 N   0  0  0  0  0  0  0  0  0  0  0  0
   -6.7682    3.7285    0.0000 S   0  0  0  0  0  0  0  0  0  0  0  0
   -2.4509    3.8079    0.0000 C   0  0  0  0  0  0  0  0  0  0  0  0
   -4.5928    3.4028    0.0000 C   0  0  0  0  0  0  0  0  0  0  0  0
   -1.6910    2.5761    0.0000 C   0  0  0  0  0  0  0  0  0  0  0  0
   -0.9728    3.6951    0.0000 C   0  0  0  0  0  0  0  0  0  0  0  0
   -3.1648    3.4028    0.0000 C   0  0  0  0  0  0  0  0  0  0  0  0
   -3.8788    3.8079    0.0000 C   0  0  0  0  0  0  0  0  0  0  0  0
   -8.1460    3.1147    0.0000 C   0  0  0  0  0  0  0  0  0  0  0  0
   -7.3193    1.6868    0.0000 C   0  0  0  0  0  0  0  0  0  0  0  0
   -4.5928    2.5761    0.0000 O   0  0  0  0  0  0  0  0  0  0  0  0
   -0.4384    3.0646    0.0000 C   0  0  0  0  0  0  0  0  0  0  0  0
   -0.8726    2.3757    0.0000 C   0  0  0  0  0  0  0  0  0  0  0  0
   -0.7599    4.4760    0.0000 O   0  0  0  0  0  0  0  0  0  0  0  0
   -2.3256    2.0500    0.0000 O   0  0  0  0  0  0  0  0  0  0  0  0
   -8.5594    2.4008    0.0000 C   0  0  0  0  0  0  0  0  0  0  0  0
   -8.1460    1.6785    0.0000 C   0  0  0  0  0  0  0  0  0  0  0  0
   -8.5594    3.8204    0.0000 Cl  0  0  0  0  0  0  0  0  0  0  0  0
   -2.4426    4.6263    0.0000 C   0  0  0  0  0  0  0  0  0  0  0  0
   -3.8788    4.6263    0.0000 C   0  0  0  0  0  0  0  0  0  0  0  0
   -3.1648    5.0396    0.0000 C   0  0  0  0  0  0  0  0  0  0  0  0
   -6.9060    0.9728    0.0000 C   0  0  0  0  0  0  0  0  0  0  0  0
  2  8  1  0  0  0  0
  3  1  2  0  0  0  0
  4  7  1  0  0  0  0
  5  3  1  0  0  0  0
  6  1  1  0  0  0  0
  7  1  1  0  0  0  0
  8 12  1  0  0  0  0
  9  6  1  0  0  0  0
 10  2  1  0  0  0  0
 11  2  1  0  0  0  0
 12 13  2  0  0  0  0
 13  9  1  0  0  0  0
 14  4  2  0  0  0  0
 15  5  2  0  0  0  0
 16  9  2  0  0  0  0
 17 11  1  0  0  0  0
 18 10  1  0  0  0  0
 19 11  2  0  0  0  0
 20 10  2  0  0  0  0
 21 14  1  0  0  0  0
 22 15  1  0  0  0  0
 23 14  1  0  0  0  0
 24 26  1  0  0  0  0
 25 13  1  0  0  0  0
 26 25  2  0  0  0  0
 27 15  1  0  0  0  0
  4  5  1  0  0  0  0
 21 22  2  0  0  0  0
  8 24  2  0  0  0  0
 17 18  1  0  0  0  0
M  END
>  <IDNUMBER>
F1813-0480

>  <Chemical_Name>
N-(7-chloro-4-methyl-1,3-benzothiazol-2-yl)-3-(2,5-dioxopyrrolidin-1-yl)benzamide

>  <PriceCoeff>
1.00

>  <CAS>
897759-54-5

>  <MW>
399.85

>  <Description>
solid

>  <FSP3>
0.16

>  <clogP>
2.84

>  <TPSA>
107.61

>  <Acceptor>
4

>  <Donor>
1

>  <RotBonds>
3

>  <HAC>
27

>  <Collection>
General

>  <PPDS>
+

$$$$
F1813-0481
  Mrv2219 10102508112D          

 27 30  0  0  0  0            999 V2000
   -6.0124    3.4028    0.0000 C   0  0  0  0  0  0  0  0  0  0  0  0
   -1.7369    3.4028    0.0000 N   0  0  0  0  0  0  0  0  0  0  0  0
   -6.0918    2.5678    0.0000 N   0  0  0  0  0  0  0  0  0  0  0  0
   -5.3068    3.8162    0.0000 N   0  0  0  0  0  0  0  0  0  0  0  0
   -6.9060    2.4008    0.0000 C   0  0  0  0  0  0  0  0  0  0  0  0
   -6.7682    3.7410    0.0000 S   0  0  0  0  0  0  0  0  0  0  0  0
   -7.3193    3.1190    0.0000 C   0  0  0  0  0  0  0  0  0  0  0  0
   -2.4509    3.8079    0.0000 C   0  0  0  0  0  0  0  0  0  0  0  0
   -4.5928    3.4028    0.0000 C   0  0  0  0  0  0  0  0  0  0  0  0
   -1.6910    2.5761    0.0000 C   0  0  0  0  0  0  0  0  0  0  0  0
   -0.9728    3.6951    0.0000 C   0  0  0  0  0  0  0  0  0  0  0  0
   -3.1648    3.4028    0.0000 C   0  0  0  0  0  0  0  0  0  0  0  0
   -3.8788    3.8079    0.0000 C   0  0  0  0  0  0  0  0  0  0  0  0
   -7.3193    1.6868    0.0000 C   0  0  0  0  0  0  0  0  0  0  0  0
   -8.1460    3.1147    0.0000 C   0  0  0  0  0  0  0  0  0  0  0  0
   -4.5928    2.5761    0.0000 O   0  0  0  0  0  0  0  0  0  0  0  0
   -0.4384    3.0646    0.0000 C   0  0  0  0  0  0  0  0  0  0  0  0
   -0.8726    2.3757    0.0000 C   0  0  0  0  0  0  0  0  0  0  0  0
   -0.7599    4.4760    0.0000 O   0  0  0  0  0  0  0  0  0  0  0  0
   -2.3256    2.0500    0.0000 O   0  0  0  0  0  0  0  0  0  0  0  0
   -8.5469    2.4008    0.0000 C   0  0  0  0  0  0  0  0  0  0  0  0
   -8.1460    1.6868    0.0000 C   0  0  0  0  0  0  0  0  0  0  0  0
   -2.4426    4.6263    0.0000 C   0  0  0  0  0  0  0  0  0  0  0  0
   -3.8788    4.6263    0.0000 C   0  0  0  0  0  0  0  0  0  0  0  0
   -3.1648    5.0396    0.0000 C   0  0  0  0  0  0  0  0  0  0  0  0
   -6.9060    0.9770    0.0000 C   0  0  0  0  0  0  0  0  0  0  0  0
   -8.5594    3.8287    0.0000 C   0  0  0  0  0  0  0  0  0  0  0  0
  2  8  1  0  0  0  0
  3  1  2  0  0  0  0
  4  1  1  0  0  0  0
  5  3  1  0  0  0  0
  6  1  1  0  0  0  0
  7  6  1  0  0  0  0
  8 12  1  0  0  0  0
  9  4  1  0  0  0  0
 10  2  1  0  0  0  0
 11  2  1  0  0  0  0
 12 13  2  0  0  0  0
 13  9  1  0  0  0  0
 14  5  2  0  0  0  0
 15  7  2  0  0  0  0
 16  9  2  0  0  0  0
 17 11  1  0  0  0  0
 18 10  1  0  0  0  0
 19 11  2  0  0  0  0
 20 10  2  0  0  0  0
 21 15  1  0  0  0  0
 22 14  1  0  0  0  0
 23 25  1  0  0  0  0
 24 13  1  0  0  0  0
 25 24  2  0  0  0  0
 26 14  1  0  0  0  0
 27 15  1  0  0  0  0
  7  5  1  0  0  0  0
 21 22  2  0  0  0  0
  8 23  2  0  0  0  0
 17 18  1  0  0  0  0
M  END
>  <IDNUMBER>
F1813-0481

>  <Chemical_Name>
N-(4,7-dimethyl-1,3-benzothiazol-2-yl)-3-(2,5-dioxopyrrolidin-1-yl)benzamide

>  <PriceCoeff>
1.00

>  <CAS>
897618-07-4

>  <MW>
379.43

>  <Description>
solid

>  <FSP3>
0.20

>  <clogP>
2.62

>  <TPSA>
107.61

>  <Acceptor>
4

>  <Donor>
1

>  <RotBonds>
3

>  <HAC>
27

>  <Collection>
General

>  <PPDS>
+

$$$$
F1813-0482
  Mrv2219 10102508112D          

 28 31  0  0  0  0            999 V2000
   -6.0385    3.4200    0.0000 C   0  0  0  0  0  0  0  0  0  0  0  0
   -1.7456    3.4200    0.0000 N   0  0  0  0  0  0  0  0  0  0  0  0
   -6.1183    2.5891    0.0000 N   0  0  0  0  0  0  0  0  0  0  0  0
   -6.9282    2.4129    0.0000 C   0  0  0  0  0  0  0  0  0  0  0  0
   -5.3252    3.8271    0.0000 N   0  0  0  0  0  0  0  0  0  0  0  0
   -7.3436    3.1347    0.0000 C   0  0  0  0  0  0  0  0  0  0  0  0
   -6.7897    3.7473    0.0000 S   0  0  0  0  0  0  0  0  0  0  0  0
   -2.4632    3.8271    0.0000 C   0  0  0  0  0  0  0  0  0  0  0  0
   -4.6159    3.4200    0.0000 C   0  0  0  0  0  0  0  0  0  0  0  0
   -1.6995    2.5891    0.0000 C   0  0  0  0  0  0  0  0  0  0  0  0
   -0.9777    3.7138    0.0000 C   0  0  0  0  0  0  0  0  0  0  0  0
   -3.1808    3.4200    0.0000 C   0  0  0  0  0  0  0  0  0  0  0  0
   -3.8984    3.8271    0.0000 C   0  0  0  0  0  0  0  0  0  0  0  0
   -7.3310    1.7079    0.0000 C   0  0  0  0  0  0  0  0  0  0  0  0
   -8.1619    3.1304    0.0000 C   0  0  0  0  0  0  0  0  0  0  0  0
   -4.6159    2.5891    0.0000 O   0  0  0  0  0  0  0  0  0  0  0  0
   -0.4406    3.0801    0.0000 C   0  0  0  0  0  0  0  0  0  0  0  0
   -0.8770    2.3877    0.0000 C   0  0  0  0  0  0  0  0  0  0  0  0
   -0.7637    4.4985    0.0000 O   0  0  0  0  0  0  0  0  0  0  0  0
   -2.3373    2.0604    0.0000 O   0  0  0  0  0  0  0  0  0  0  0  0
   -8.1619    1.7079    0.0000 C   0  0  0  0  0  0  0  0  0  0  0  0
   -8.5773    2.4254    0.0000 C   0  0  0  0  0  0  0  0  0  0  0  0
   -2.4549    4.6496    0.0000 C   0  0  0  0  0  0  0  0  0  0  0  0
   -6.9240    0.9945    0.0000 O   0  0  0  0  0  0  0  0  0  0  0  0
   -3.8984    4.6496    0.0000 C   0  0  0  0  0  0  0  0  0  0  0  0
   -3.1808    5.0650    0.0000 C   0  0  0  0  0  0  0  0  0  0  0  0
   -8.5648    3.8480    0.0000 C   0  0  0  0  0  0  0  0  0  0  0  0
   -7.2429    0.1468    0.0000 C   0  0  0  0  0  0  0  0  0  0  0  0
  2  8  1  0  0  0  0
  3  1  2  0  0  0  0
  4  3  1  0  0  0  0
  5  1  1  0  0  0  0
  6  7  1  0  0  0  0
  7  1  1  0  0  0  0
  8 12  1  0  0  0  0
  9  5  1  0  0  0  0
 10  2  1  0  0  0  0
 11  2  1  0  0  0  0
 12 13  2  0  0  0  0
 13  9  1  0  0  0  0
 14  4  2  0  0  0  0
 15  6  2  0  0  0  0
 16  9  2  0  0  0  0
 17 11  1  0  0  0  0
 18 10  1  0  0  0  0
 19 11  2  0  0  0  0
 20 10  2  0  0  0  0
 21 14  1  0  0  0  0
 22 15  1  0  0  0  0
 23 26  1  0  0  0  0
 24 14  1  0  0  0  0
 25 13  1  0  0  0  0
 26 25  2  0  0  0  0
 27 15  1  0  0  0  0
 28 24  1  0  0  0  0
  6  4  1  0  0  0  0
 22 21  2  0  0  0  0
 23  8  2  0  0  0  0
 17 18  1  0  0  0  0
M  END
>  <IDNUMBER>
F1813-0482

>  <Chemical_Name>
3-(2,5-dioxopyrrolidin-1-yl)-N-(4-methoxy-7-methyl-1,3-benzothiazol-2-yl)benzamide

>  <PriceCoeff>
1.00

>  <CAS>
897759-56-7

>  <MW>
395.43

>  <Description>
solid

>  <FSP3>
0.20

>  <clogP>
2.42

>  <TPSA>
116.84

>  <Acceptor>
5

>  <Donor>
1

>  <RotBonds>
4

>  <HAC>
28

>  <Collection>
General

>  <PPDS>
+

$$$$
F1813-0483
  Mrv2219 10102508112D          

 29 32  0  0  0  0            999 V2000
   -6.0385    3.4200    0.0000 C   0  0  0  0  0  0  0  0  0  0  0  0
   -1.7456    3.4200    0.0000 N   0  0  0  0  0  0  0  0  0  0  0  0
   -6.1183    2.5807    0.0000 N   0  0  0  0  0  0  0  0  0  0  0  0
   -6.9282    2.4129    0.0000 C   0  0  0  0  0  0  0  0  0  0  0  0
   -7.3436    3.1304    0.0000 C   0  0  0  0  0  0  0  0  0  0  0  0
   -5.3252    3.8271    0.0000 N   0  0  0  0  0  0  0  0  0  0  0  0
   -6.7897    3.7473    0.0000 S   0  0  0  0  0  0  0  0  0  0  0  0
   -2.4632    3.8271    0.0000 C   0  0  0  0  0  0  0  0  0  0  0  0
   -4.6159    3.4200    0.0000 C   0  0  0  0  0  0  0  0  0  0  0  0
   -1.6995    2.5891    0.0000 C   0  0  0  0  0  0  0  0  0  0  0  0
   -0.9777    3.7138    0.0000 C   0  0  0  0  0  0  0  0  0  0  0  0
   -3.1808    3.4200    0.0000 C   0  0  0  0  0  0  0  0  0  0  0  0
   -3.8984    3.8271    0.0000 C   0  0  0  0  0  0  0  0  0  0  0  0
   -7.3310    1.7079    0.0000 C   0  0  0  0  0  0  0  0  0  0  0  0
   -8.1619    3.1347    0.0000 C   0  0  0  0  0  0  0  0  0  0  0  0
   -4.6159    2.6017    0.0000 O   0  0  0  0  0  0  0  0  0  0  0  0
   -0.4406    3.0801    0.0000 C   0  0  0  0  0  0  0  0  0  0  0  0
   -0.8770    2.3877    0.0000 C   0  0  0  0  0  0  0  0  0  0  0  0
   -0.7637    4.4985    0.0000 O   0  0  0  0  0  0  0  0  0  0  0  0
   -2.3373    2.0604    0.0000 O   0  0  0  0  0  0  0  0  0  0  0  0
   -8.5648    2.4129    0.0000 C   0  0  0  0  0  0  0  0  0  0  0  0
   -8.1619    1.7079    0.0000 C   0  0  0  0  0  0  0  0  0  0  0  0
   -2.4549    4.6496    0.0000 C   0  0  0  0  0  0  0  0  0  0  0  0
   -6.9240    0.9945    0.0000 O   0  0  0  0  0  0  0  0  0  0  0  0
   -8.5773    3.8480    0.0000 O   0  0  0  0  0  0  0  0  0  0  0  0
   -3.8984    4.6496    0.0000 C   0  0  0  0  0  0  0  0  0  0  0  0
   -3.1808    5.0650    0.0000 C   0  0  0  0  0  0  0  0  0  0  0  0
   -7.2429    0.1385    0.0000 C   0  0  0  0  0  0  0  0  0  0  0  0
   -9.4040    3.8396    0.0000 C   0  0  0  0  0  0  0  0  0  0  0  0
  2  8  1  0  0  0  0
  3  1  2  0  0  0  0
  4  3  1  0  0  0  0
  5  7  1  0  0  0  0
  6  1  1  0  0  0  0
  7  1  1  0  0  0  0
  8 12  1  0  0  0  0
  9  6  1  0  0  0  0
 10  2  1  0  0  0  0
 11  2  1  0  0  0  0
 12 13  2  0  0  0  0
 13  9  1  0  0  0  0
 14  4  2  0  0  0  0
 15  5  2  0  0  0  0
 16  9  2  0  0  0  0
 17 11  1  0  0  0  0
 18 10  1  0  0  0  0
 19 11  2  0  0  0  0
 20 10  2  0  0  0  0
 21 15  1  0  0  0  0
 22 14  1  0  0  0  0
 23 27  1  0  0  0  0
 24 14  1  0  0  0  0
 25 15  1  0  0  0  0
 26 13  1  0  0  0  0
 27 26  2  0  0  0  0
 28 24  1  0  0  0  0
 29 25  1  0  0  0  0
  5  4  1  0  0  0  0
 21 22  2  0  0  0  0
 23  8  2  0  0  0  0
 17 18  1  0  0  0  0
M  END
>  <IDNUMBER>
F1813-0483

>  <Chemical_Name>
N-(4,7-dimethoxy-1,3-benzothiazol-2-yl)-3-(2,5-dioxopyrrolidin-1-yl)benzamide

>  <PriceCoeff>
1.00

>  <CAS>
912766-99-5

>  <MW>
411.43

>  <Description>
solid

>  <FSP3>
0.20

>  <clogP>
2.19

>  <TPSA>
126.07

>  <Acceptor>
6

>  <Donor>
1

>  <RotBonds>
5

>  <HAC>
29

>  <Collection>
General

>  <PPDS>
+

$$$$
F1813-0484
  Mrv2219 10102508112D          

 27 30  0  0  0  0            999 V2000
   -6.0307    3.4132    0.0000 C   0  0  0  0  0  0  0  0  0  0  0  0
   -1.7422    3.4132    0.0000 N   0  0  0  0  0  0  0  0  0  0  0  0
   -6.1103    2.5756    0.0000 N   0  0  0  0  0  0  0  0  0  0  0  0
   -5.3229    3.8278    0.0000 N   0  0  0  0  0  0  0  0  0  0  0  0
   -6.9270    2.4081    0.0000 C   0  0  0  0  0  0  0  0  0  0  0  0
   -6.7888    3.7524    0.0000 S   0  0  0  0  0  0  0  0  0  0  0  0
   -7.3416    3.1242    0.0000 C   0  0  0  0  0  0  0  0  0  0  0  0
   -2.4583    3.8194    0.0000 C   0  0  0  0  0  0  0  0  0  0  0  0
   -4.6068    3.4132    0.0000 C   0  0  0  0  0  0  0  0  0  0  0  0
   -1.6961    2.5840    0.0000 C   0  0  0  0  0  0  0  0  0  0  0  0
   -0.9758    3.7064    0.0000 C   0  0  0  0  0  0  0  0  0  0  0  0
   -8.1708    3.1284    0.0000 C   0  0  0  0  0  0  0  0  0  0  0  0
   -3.1745    3.4132    0.0000 C   0  0  0  0  0  0  0  0  0  0  0  0
   -3.8906    3.8194    0.0000 C   0  0  0  0  0  0  0  0  0  0  0  0
   -7.3416    1.6919    0.0000 C   0  0  0  0  0  0  0  0  0  0  0  0
   -8.5728    2.4081    0.0000 C   0  0  0  0  0  0  0  0  0  0  0  0
   -4.6068    2.5840    0.0000 O   0  0  0  0  0  0  0  0  0  0  0  0
   -0.8753    2.3829    0.0000 C   0  0  0  0  0  0  0  0  0  0  0  0
   -0.4397    3.0739    0.0000 C   0  0  0  0  0  0  0  0  0  0  0  0
   -2.3327    2.0563    0.0000 O   0  0  0  0  0  0  0  0  0  0  0  0
   -0.7622    4.4896    0.0000 O   0  0  0  0  0  0  0  0  0  0  0  0
   -8.1666    1.6919    0.0000 C   0  0  0  0  0  0  0  0  0  0  0  0
   -2.4500    4.6403    0.0000 C   0  0  0  0  0  0  0  0  0  0  0  0
   -8.5728    3.8529    0.0000 C   0  0  0  0  0  0  0  0  0  0  0  0
   -3.8906    4.6403    0.0000 C   0  0  0  0  0  0  0  0  0  0  0  0
   -3.1745    5.0549    0.0000 C   0  0  0  0  0  0  0  0  0  0  0  0
   -8.5728    0.9758    0.0000 C   0  0  0  0  0  0  0  0  0  0  0  0
  2  8  1  0  0  0  0
  3  1  2  0  0  0  0
  4  1  1  0  0  0  0
  5  3  1  0  0  0  0
  6  1  1  0  0  0  0
  7  6  1  0  0  0  0
  8 13  1  0  0  0  0
  9  4  1  0  0  0  0
 10  2  1  0  0  0  0
 11  2  1  0  0  0  0
 12  7  2  0  0  0  0
 13 14  2  0  0  0  0
 14  9  1  0  0  0  0
 15  5  2  0  0  0  0
 16 12  1  0  0  0  0
 17  9  2  0  0  0  0
 18 10  1  0  0  0  0
 19 11  1  0  0  0  0
 20 10  2  0  0  0  0
 21 11  2  0  0  0  0
 22 15  1  0  0  0  0
 23 26  1  0  0  0  0
 24 12  1  0  0  0  0
 25 14  1  0  0  0  0
 26 25  2  0  0  0  0
 27 22  1  0  0  0  0
  7  5  1  0  0  0  0
 16 22  2  0  0  0  0
  8 23  2  0  0  0  0
 19 18  1  0  0  0  0
M  END
>  <IDNUMBER>
F1813-0484

>  <Chemical_Name>
N-(5,7-dimethyl-1,3-benzothiazol-2-yl)-3-(2,5-dioxopyrrolidin-1-yl)benzamide

>  <PriceCoeff>
1.00

>  <CAS>
897618-08-5

>  <MW>
379.43

>  <Description>
solid

>  <FSP3>
0.20

>  <clogP>
2.62

>  <TPSA>
107.61

>  <Acceptor>
4

>  <Donor>
1

>  <RotBonds>
3

>  <HAC>
27

>  <Collection>
General

>  <PPDS>
+

$$$$
F1813-0838
  Mrv2219 10102508112D          

 22 24  0  0  0  0            999 V2000
   -6.0124    3.4028    0.0000 C   0  0  0  0  0  0  0  0  0  0  0  0
   -3.8788    4.6346    0.0000 N   0  0  0  0  0  0  0  0  0  0  0  0
   -6.9060    2.4008    0.0000 C   0  0  0  0  0  0  0  0  0  0  0  0
   -6.0918    2.5678    0.0000 N   0  0  0  0  0  0  0  0  0  0  0  0
   -6.7682    3.7410    0.0000 S   0  0  0  0  0  0  0  0  0  0  0  0
   -5.3068    3.8162    0.0000 N   0  0  0  0  0  0  0  0  0  0  0  0
   -7.3193    1.6868    0.0000 C   0  0  0  0  0  0  0  0  0  0  0  0
   -7.3193    3.1147    0.0000 C   0  0  0  0  0  0  0  0  0  0  0  0
   -4.5427    5.1023    0.0000 C   0  0  0  0  0  0  0  0  0  0  0  0
   -3.2066    5.1023    0.0000 C   0  0  0  0  0  0  0  0  0  0  0  0
   -4.5928    3.4028    0.0000 C   0  0  0  0  0  0  0  0  0  0  0  0
   -3.8788    3.8079    0.0000 C   0  0  0  0  0  0  0  0  0  0  0  0
   -8.1460    1.6868    0.0000 C   0  0  0  0  0  0  0  0  0  0  0  0
   -3.4655    5.8997    0.0000 C   0  0  0  0  0  0  0  0  0  0  0  0
   -4.2922    5.8914    0.0000 C   0  0  0  0  0  0  0  0  0  0  0  0
   -2.4258    4.8475    0.0000 O   0  0  0  0  0  0  0  0  0  0  0  0
   -5.3318    4.8643    0.0000 O   0  0  0  0  0  0  0  0  0  0  0  0
   -8.1460    3.1147    0.0000 C   0  0  0  0  0  0  0  0  0  0  0  0
   -4.5928    2.5761    0.0000 O   0  0  0  0  0  0  0  0  0  0  0  0
   -8.5594    2.4008    0.0000 C   0  0  0  0  0  0  0  0  0  0  0  0
   -6.9060    0.9770    0.0000 Cl  0  0  0  0  0  0  0  0  0  0  0  0
   -8.5469    0.9770    0.0000 Cl  0  0  0  0  0  0  0  0  0  0  0  0
  2 12  1  0  0  0  0
  3  4  1  0  0  0  0
  4  1  2  0  0  0  0
  5  1  1  0  0  0  0
  6  1  1  0  0  0  0
  7  3  2  0  0  0  0
  8  5  1  0  0  0  0
  9  2  1  0  0  0  0
 10  2  1  0  0  0  0
 11  6  1  0  0  0  0
 12 11  1  0  0  0  0
 13  7  1  0  0  0  0
 14 10  1  0  0  0  0
 15  9  1  0  0  0  0
 16 10  2  0  0  0  0
 17  9  2  0  0  0  0
 18  8  2  0  0  0  0
 19 11  2  0  0  0  0
 20 18  1  0  0  0  0
 21  7  1  0  0  0  0
 22 13  1  0  0  0  0
  8  3  1  0  0  0  0
 20 13  2  0  0  0  0
 14 15  1  0  0  0  0
M  END
>  <IDNUMBER>
F1813-0838

>  <Chemical_Name>
N-(4,5-dichloro-1,3-benzothiazol-2-yl)-2-(2,5-dioxopyrrolidin-1-yl)acetamide

>  <PriceCoeff>
1.00

>  <CAS>
868230-95-9

>  <MW>
358.20

>  <Description>
solid

>  <FSP3>
0.23

>  <clogP>
2.76

>  <TPSA>
107.61

>  <Acceptor>
4

>  <Donor>
1

>  <RotBonds>
3

>  <HAC>
22

>  <Collection>
General

>  <PPDS>
+

$$$$
F1813-0839
  Mrv2219 10102508112D          

 22 24  0  0  0  0            999 V2000
   -6.0124    3.4028    0.0000 C   0  0  0  0  0  0  0  0  0  0  0  0
   -3.8788    4.6346    0.0000 N   0  0  0  0  0  0  0  0  0  0  0  0
   -6.0918    2.5678    0.0000 N   0  0  0  0  0  0  0  0  0  0  0  0
   -6.9060    2.4008    0.0000 C   0  0  0  0  0  0  0  0  0  0  0  0
   -6.7682    3.7410    0.0000 S   0  0  0  0  0  0  0  0  0  0  0  0
   -5.3068    3.8162    0.0000 N   0  0  0  0  0  0  0  0  0  0  0  0
   -4.5427    5.1023    0.0000 C   0  0  0  0  0  0  0  0  0  0  0  0
   -3.2066    5.1023    0.0000 C   0  0  0  0  0  0  0  0  0  0  0  0
   -7.3193    3.1147    0.0000 C   0  0  0  0  0  0  0  0  0  0  0  0
   -7.3193    1.6868    0.0000 C   0  0  0  0  0  0  0  0  0  0  0  0
   -4.5928    3.4028    0.0000 C   0  0  0  0  0  0  0  0  0  0  0  0
   -3.8788    3.8079    0.0000 C   0  0  0  0  0  0  0  0  0  0  0  0
   -8.1460    1.6868    0.0000 C   0  0  0  0  0  0  0  0  0  0  0  0
   -3.4655    5.8997    0.0000 C   0  0  0  0  0  0  0  0  0  0  0  0
   -4.2922    5.8914    0.0000 C   0  0  0  0  0  0  0  0  0  0  0  0
   -2.4258    4.8475    0.0000 O   0  0  0  0  0  0  0  0  0  0  0  0
   -5.3318    4.8643    0.0000 O   0  0  0  0  0  0  0  0  0  0  0  0
   -8.1460    3.1147    0.0000 C   0  0  0  0  0  0  0  0  0  0  0  0
   -4.5928    2.5761    0.0000 O   0  0  0  0  0  0  0  0  0  0  0  0
   -8.5469    2.4008    0.0000 C   0  0  0  0  0  0  0  0  0  0  0  0
   -8.5469    0.9728    0.0000 Cl  0  0  0  0  0  0  0  0  0  0  0  0
   -6.9060    0.9728    0.0000 C   0  0  0  0  0  0  0  0  0  0  0  0
  2 12  1  0  0  0  0
  3  1  2  0  0  0  0
  4  3  1  0  0  0  0
  5  1  1  0  0  0  0
  6  1  1  0  0  0  0
  7  2  1  0  0  0  0
  8  2  1  0  0  0  0
  9  5  1  0  0  0  0
 10  4  2  0  0  0  0
 11  6  1  0  0  0  0
 12 11  1  0  0  0  0
 13 10  1  0  0  0  0
 14  8  1  0  0  0  0
 15  7  1  0  0  0  0
 16  8  2  0  0  0  0
 17  7  2  0  0  0  0
 18  9  2  0  0  0  0
 19 11  2  0  0  0  0
 20 18  1  0  0  0  0
 21 13  1  0  0  0  0
 22 10  1  0  0  0  0
  9  4  1  0  0  0  0
 20 13  2  0  0  0  0
 14 15  1  0  0  0  0
M  END
>  <IDNUMBER>
F1813-0839

>  <Chemical_Name>
N-(5-chloro-4-methyl-1,3-benzothiazol-2-yl)-2-(2,5-dioxopyrrolidin-1-yl)acetamide

>  <PriceCoeff>
1.00

>  <CAS>
897759-64-7

>  <MW>
337.78

>  <Description>
solid

>  <FSP3>
0.29

>  <clogP>
2.66

>  <TPSA>
107.61

>  <Acceptor>
4

>  <Donor>
1

>  <RotBonds>
3

>  <HAC>
22

>  <Collection>
General

>  <PPDS>
+

$$$$
F1813-0840
  Mrv2219 10102508112D          

 22 24  0  0  0  0            999 V2000
   -6.0124    3.4028    0.0000 C   0  0  0  0  0  0  0  0  0  0  0  0
   -3.8788    4.6346    0.0000 N   0  0  0  0  0  0  0  0  0  0  0  0
   -6.1001    2.5678    0.0000 N   0  0  0  0  0  0  0  0  0  0  0  0
   -6.7682    3.7410    0.0000 S   0  0  0  0  0  0  0  0  0  0  0  0
   -7.3193    3.1147    0.0000 C   0  0  0  0  0  0  0  0  0  0  0  0
   -6.9060    2.4008    0.0000 C   0  0  0  0  0  0  0  0  0  0  0  0
   -5.3068    3.8079    0.0000 N   0  0  0  0  0  0  0  0  0  0  0  0
   -3.2066    5.1023    0.0000 C   0  0  0  0  0  0  0  0  0  0  0  0
   -4.5427    5.1023    0.0000 C   0  0  0  0  0  0  0  0  0  0  0  0
   -4.5928    3.4028    0.0000 C   0  0  0  0  0  0  0  0  0  0  0  0
   -7.3193    1.6868    0.0000 C   0  0  0  0  0  0  0  0  0  0  0  0
   -3.8788    3.8079    0.0000 C   0  0  0  0  0  0  0  0  0  0  0  0
   -8.1460    3.1147    0.0000 C   0  0  0  0  0  0  0  0  0  0  0  0
   -8.5594    2.4008    0.0000 C   0  0  0  0  0  0  0  0  0  0  0  0
   -8.1460    1.6868    0.0000 C   0  0  0  0  0  0  0  0  0  0  0  0
   -3.4655    5.8997    0.0000 C   0  0  0  0  0  0  0  0  0  0  0  0
   -4.2922    5.8914    0.0000 C   0  0  0  0  0  0  0  0  0  0  0  0
   -2.4258    4.8475    0.0000 O   0  0  0  0  0  0  0  0  0  0  0  0
   -5.3318    4.8643    0.0000 O   0  0  0  0  0  0  0  0  0  0  0  0
   -4.5928    2.5761    0.0000 O   0  0  0  0  0  0  0  0  0  0  0  0
   -9.3819    2.4008    0.0000 Cl  0  0  0  0  0  0  0  0  0  0  0  0
   -6.9060    0.9728    0.0000 C   0  0  0  0  0  0  0  0  0  0  0  0
  2 12  1  0  0  0  0
  3  1  2  0  0  0  0
  4  1  1  0  0  0  0
  5  4  1  0  0  0  0
  6  3  1  0  0  0  0
  7  1  1  0  0  0  0
  8  2  1  0  0  0  0
  9  2  1  0  0  0  0
 10  7  1  0  0  0  0
 11  6  2  0  0  0  0
 12 10  1  0  0  0  0
 13  5  2  0  0  0  0
 14 13  1  0  0  0  0
 15 11  1  0  0  0  0
 16  8  1  0  0  0  0
 17  9  1  0  0  0  0
 18  8  2  0  0  0  0
 19  9  2  0  0  0  0
 20 10  2  0  0  0  0
 21 14  1  0  0  0  0
 22 11  1  0  0  0  0
  5  6  1  0  0  0  0
 14 15  2  0  0  0  0
 16 17  1  0  0  0  0
M  END
>  <IDNUMBER>
F1813-0840

>  <Chemical_Name>
N-(6-chloro-4-methyl-1,3-benzothiazol-2-yl)-2-(2,5-dioxopyrrolidin-1-yl)acetamide

>  <PriceCoeff>
1.00

>  <CAS>
897618-12-1

>  <MW>
337.78

>  <Description>
solid

>  <FSP3>
0.29

>  <clogP>
2.66

>  <TPSA>
107.61

>  <Acceptor>
4

>  <Donor>
1

>  <RotBonds>
3

>  <HAC>
22

>  <Collection>
General

>  <PPDS>
+

$$$$
F1813-0842
  Mrv2219 10102508112D          

 22 24  0  0  0  0            999 V2000
   -6.0124    3.4028    0.0000 C   0  0  0  0  0  0  0  0  0  0  0  0
   -3.8788    4.6346    0.0000 N   0  0  0  0  0  0  0  0  0  0  0  0
   -6.0918    2.5678    0.0000 N   0  0  0  0  0  0  0  0  0  0  0  0
   -6.9060    2.4008    0.0000 C   0  0  0  0  0  0  0  0  0  0  0  0
   -7.3193    3.1147    0.0000 C   0  0  0  0  0  0  0  0  0  0  0  0
   -6.7682    3.7410    0.0000 S   0  0  0  0  0  0  0  0  0  0  0  0
   -5.3068    3.8162    0.0000 N   0  0  0  0  0  0  0  0  0  0  0  0
   -3.2066    5.1023    0.0000 C   0  0  0  0  0  0  0  0  0  0  0  0
   -4.5427    5.1023    0.0000 C   0  0  0  0  0  0  0  0  0  0  0  0
   -4.5928    3.4028    0.0000 C   0  0  0  0  0  0  0  0  0  0  0  0
   -3.8788    3.8079    0.0000 C   0  0  0  0  0  0  0  0  0  0  0  0
   -7.3193    1.6868    0.0000 C   0  0  0  0  0  0  0  0  0  0  0  0
   -8.1460    3.1147    0.0000 C   0  0  0  0  0  0  0  0  0  0  0  0
   -3.4655    5.8997    0.0000 C   0  0  0  0  0  0  0  0  0  0  0  0
   -4.2922    5.8914    0.0000 C   0  0  0  0  0  0  0  0  0  0  0  0
   -2.4258    4.8475    0.0000 O   0  0  0  0  0  0  0  0  0  0  0  0
   -5.3318    4.8643    0.0000 O   0  0  0  0  0  0  0  0  0  0  0  0
   -4.5928    2.5761    0.0000 O   0  0  0  0  0  0  0  0  0  0  0  0
   -8.5594    2.4008    0.0000 C   0  0  0  0  0  0  0  0  0  0  0  0
   -8.1460    1.6868    0.0000 C   0  0  0  0  0  0  0  0  0  0  0  0
   -6.9060    0.9728    0.0000 Cl  0  0  0  0  0  0  0  0  0  0  0  0
   -8.5594    3.8287    0.0000 Cl  0  0  0  0  0  0  0  0  0  0  0  0
  2 11  1  0  0  0  0
  3  1  2  0  0  0  0
  4  3  1  0  0  0  0
  5  6  1  0  0  0  0
  6  1  1  0  0  0  0
  7  1  1  0  0  0  0
  8  2  1  0  0  0  0
  9  2  1  0  0  0  0
 10  7  1  0  0  0  0
 11 10  1  0  0  0  0
 12  4  2  0  0  0  0
 13  5  2  0  0  0  0
 14  8  1  0  0  0  0
 15  9  1  0  0  0  0
 16  8  2  0  0  0  0
 17  9  2  0  0  0  0
 18 10  2  0  0  0  0
 19 13  1  0  0  0  0
 20 12  1  0  0  0  0
 21 12  1  0  0  0  0
 22 13  1  0  0  0  0
  5  4  1  0  0  0  0
 19 20  2  0  0  0  0
 14 15  1  0  0  0  0
M  END
>  <IDNUMBER>
F1813-0842

>  <Chemical_Name>
N-(4,7-dichloro-1,3-benzothiazol-2-yl)-2-(2,5-dioxopyrrolidin-1-yl)acetamide

>  <PriceCoeff>
1.00

>  <CAS>
897759-66-9

>  <MW>
358.20

>  <Description>
solid

>  <FSP3>
0.23

>  <clogP>
2.88

>  <TPSA>
107.61

>  <Acceptor>
4

>  <Donor>
1

>  <RotBonds>
3

>  <HAC>
22

>  <Collection>
General

>  <PPDS>
+

$$$$
F1813-0843
  Mrv2219 10102508112D          

 22 24  0  0  0  0            999 V2000
   -6.0000    3.3958    0.0000 C   0  0  0  0  0  0  0  0  0  0  0  0
   -3.8708    4.6250    0.0000 N   0  0  0  0  0  0  0  0  0  0  0  0
   -6.0792    2.5583    0.0000 N   0  0  0  0  0  0  0  0  0  0  0  0
   -7.3125    3.1083    0.0000 C   0  0  0  0  0  0  0  0  0  0  0  0
   -6.8917    2.3958    0.0000 C   0  0  0  0  0  0  0  0  0  0  0  0
   -6.7542    3.7208    0.0000 S   0  0  0  0  0  0  0  0  0  0  0  0
   -5.2958    3.8000    0.0000 N   0  0  0  0  0  0  0  0  0  0  0  0
   -3.2000    5.0917    0.0000 C   0  0  0  0  0  0  0  0  0  0  0  0
   -4.5333    5.0917    0.0000 C   0  0  0  0  0  0  0  0  0  0  0  0
   -4.5833    3.3958    0.0000 C   0  0  0  0  0  0  0  0  0  0  0  0
   -3.8708    3.8000    0.0000 C   0  0  0  0  0  0  0  0  0  0  0  0
   -8.1292    3.1083    0.0000 C   0  0  0  0  0  0  0  0  0  0  0  0
   -7.3042    1.6833    0.0000 C   0  0  0  0  0  0  0  0  0  0  0  0
   -3.4583    5.8875    0.0000 C   0  0  0  0  0  0  0  0  0  0  0  0
   -4.2833    5.8792    0.0000 C   0  0  0  0  0  0  0  0  0  0  0  0
   -2.4208    4.8375    0.0000 O   0  0  0  0  0  0  0  0  0  0  0  0
   -5.3208    4.8542    0.0000 O   0  0  0  0  0  0  0  0  0  0  0  0
   -4.5833    2.5708    0.0000 O   0  0  0  0  0  0  0  0  0  0  0  0
   -8.5417    2.3958    0.0000 C   0  0  0  0  0  0  0  0  0  0  0  0
   -8.1292    1.6750    0.0000 C   0  0  0  0  0  0  0  0  0  0  0  0
   -8.5417    3.8125    0.0000 Cl  0  0  0  0  0  0  0  0  0  0  0  0
   -6.8917    0.9708    0.0000 C   0  0  0  0  0  0  0  0  0  0  0  0
  2 11  1  0  0  0  0
  3  1  2  0  0  0  0
  4  6  1  0  0  0  0
  5  3  1  0  0  0  0
  6  1  1  0  0  0  0
  7  1  1  0  0  0  0
  8  2  1  0  0  0  0
  9  2  1  0  0  0  0
 10  7  1  0  0  0  0
 11 10  1  0  0  0  0
 12  4  2  0  0  0  0
 13  5  2  0  0  0  0
 14  8  1  0  0  0  0
 15  9  1  0  0  0  0
 16  8  2  0  0  0  0
 17  9  2  0  0  0  0
 18 10  2  0  0  0  0
 19 12  1  0  0  0  0
 20 13  1  0  0  0  0
 21 12  1  0  0  0  0
 22 13  1  0  0  0  0
  4  5  1  0  0  0  0
 19 20  2  0  0  0  0
 14 15  1  0  0  0  0
M  END
>  <IDNUMBER>
F1813-0843

>  <Chemical_Name>
N-(7-chloro-4-methyl-1,3-benzothiazol-2-yl)-2-(2,5-dioxopyrrolidin-1-yl)acetamide

>  <PriceCoeff>
1.00

>  <CAS>
897618-13-2

>  <MW>
337.78

>  <Description>
solid

>  <FSP3>
0.29

>  <clogP>
2.66

>  <TPSA>
107.61

>  <Acceptor>
4

>  <Donor>
1

>  <RotBonds>
3

>  <HAC>
22

>  <Collection>
General

>  <PPDS>
+

$$$$
F1813-0844
  Mrv2219 10102508112D          

 22 24  0  0  0  0            999 V2000
   -6.0062    3.3993    0.0000 C   0  0  0  0  0  0  0  0  0  0  0  0
   -3.8748    4.6298    0.0000 N   0  0  0  0  0  0  0  0  0  0  0  0
   -6.0855    2.5652    0.0000 N   0  0  0  0  0  0  0  0  0  0  0  0
   -6.8988    2.3983    0.0000 C   0  0  0  0  0  0  0  0  0  0  0  0
   -6.7612    3.7372    0.0000 S   0  0  0  0  0  0  0  0  0  0  0  0
   -7.3118    3.1157    0.0000 C   0  0  0  0  0  0  0  0  0  0  0  0
   -5.3013    3.8122    0.0000 N   0  0  0  0  0  0  0  0  0  0  0  0
   -3.2033    5.0970    0.0000 C   0  0  0  0  0  0  0  0  0  0  0  0
   -4.5380    5.0970    0.0000 C   0  0  0  0  0  0  0  0  0  0  0  0
   -4.5880    3.3993    0.0000 C   0  0  0  0  0  0  0  0  0  0  0  0
   -3.8748    3.8039    0.0000 C   0  0  0  0  0  0  0  0  0  0  0  0
   -7.3118    1.6850    0.0000 C   0  0  0  0  0  0  0  0  0  0  0  0
   -8.1376    3.1115    0.0000 C   0  0  0  0  0  0  0  0  0  0  0  0
   -3.4619    5.8936    0.0000 C   0  0  0  0  0  0  0  0  0  0  0  0
   -4.2877    5.8853    0.0000 C   0  0  0  0  0  0  0  0  0  0  0  0
   -2.4233    4.8425    0.0000 O   0  0  0  0  0  0  0  0  0  0  0  0
   -5.3263    4.8592    0.0000 O   0  0  0  0  0  0  0  0  0  0  0  0
   -4.5880    2.5735    0.0000 O   0  0  0  0  0  0  0  0  0  0  0  0
   -8.5380    2.3983    0.0000 C   0  0  0  0  0  0  0  0  0  0  0  0
   -8.1376    1.6850    0.0000 C   0  0  0  0  0  0  0  0  0  0  0  0
   -6.8988    0.9760    0.0000 C   0  0  0  0  0  0  0  0  0  0  0  0
   -8.5505    3.8248    0.0000 C   0  0  0  0  0  0  0  0  0  0  0  0
  2 11  1  0  0  0  0
  3  1  2  0  0  0  0
  4  3  1  0  0  0  0
  5  1  1  0  0  0  0
  6  5  1  0  0  0  0
  7  1  1  0  0  0  0
  8  2  1  0  0  0  0
  9  2  1  0  0  0  0
 10  7  1  0  0  0  0
 11 10  1  0  0  0  0
 12  4  2  0  0  0  0
 13  6  2  0  0  0  0
 14  8  1  0  0  0  0
 15  9  1  0  0  0  0
 16  8  2  0  0  0  0
 17  9  2  0  0  0  0
 18 10  2  0  0  0  0
 19 13  1  0  0  0  0
 20 12  1  0  0  0  0
 21 12  1  0  0  0  0
 22 13  1  0  0  0  0
  6  4  1  0  0  0  0
 19 20  2  0  0  0  0
 14 15  1  0  0  0  0
M  END
>  <IDNUMBER>
F1813-0844

>  <Chemical_Name>
N-(4,7-dimethyl-1,3-benzothiazol-2-yl)-2-(2,5-dioxopyrrolidin-1-yl)acetamide

>  <PriceCoeff>
1.00

>  <CAS>
897759-68-1

>  <MW>
317.36

>  <Description>
solid

>  <FSP3>
0.33

>  <clogP>
2.44

>  <TPSA>
107.61

>  <Acceptor>
4

>  <Donor>
1

>  <RotBonds>
3

>  <HAC>
22

>  <Collection>
General

>  <PPDS>
+

$$$$
F1813-0845
  Mrv2219 10102508112D          

 23 25  0  0  0  0            999 V2000
   -6.0120    3.4050    0.0000 C   0  0  0  0  0  0  0  0  0  0  0  0
   -3.8813    4.6375    0.0000 N   0  0  0  0  0  0  0  0  0  0  0  0
   -6.0914    2.5777    0.0000 N   0  0  0  0  0  0  0  0  0  0  0  0
   -6.8978    2.4023    0.0000 C   0  0  0  0  0  0  0  0  0  0  0  0
   -7.3114    3.1209    0.0000 C   0  0  0  0  0  0  0  0  0  0  0  0
   -6.7599    3.7309    0.0000 S   0  0  0  0  0  0  0  0  0  0  0  0
   -5.3018    3.8103    0.0000 N   0  0  0  0  0  0  0  0  0  0  0  0
   -3.2086    5.1055    0.0000 C   0  0  0  0  0  0  0  0  0  0  0  0
   -4.5455    5.1055    0.0000 C   0  0  0  0  0  0  0  0  0  0  0  0
   -4.5957    3.4050    0.0000 C   0  0  0  0  0  0  0  0  0  0  0  0
   -3.8813    3.8103    0.0000 C   0  0  0  0  0  0  0  0  0  0  0  0
   -7.2989    1.7004    0.0000 C   0  0  0  0  0  0  0  0  0  0  0  0
   -8.1261    3.1167    0.0000 C   0  0  0  0  0  0  0  0  0  0  0  0
   -3.4676    5.9034    0.0000 C   0  0  0  0  0  0  0  0  0  0  0  0
   -4.2949    5.8951    0.0000 C   0  0  0  0  0  0  0  0  0  0  0  0
   -2.4273    4.8506    0.0000 O   0  0  0  0  0  0  0  0  0  0  0  0
   -5.3352    4.8673    0.0000 O   0  0  0  0  0  0  0  0  0  0  0  0
   -4.5957    2.5777    0.0000 O   0  0  0  0  0  0  0  0  0  0  0  0
   -8.1261    1.7004    0.0000 C   0  0  0  0  0  0  0  0  0  0  0  0
   -8.5397    2.4148    0.0000 C   0  0  0  0  0  0  0  0  0  0  0  0
   -6.8936    0.9902    0.0000 O   0  0  0  0  0  0  0  0  0  0  0  0
   -8.5272    3.8311    0.0000 C   0  0  0  0  0  0  0  0  0  0  0  0
   -7.2111    0.1462    0.0000 C   0  0  0  0  0  0  0  0  0  0  0  0
  2 11  1  0  0  0  0
  3  1  2  0  0  0  0
  4  3  1  0  0  0  0
  5  6  1  0  0  0  0
  6  1  1  0  0  0  0
  7  1  1  0  0  0  0
  8  2  1  0  0  0  0
  9  2  1  0  0  0  0
 10  7  1  0  0  0  0
 11 10  1  0  0  0  0
 12  4  2  0  0  0  0
 13  5  2  0  0  0  0
 14  8  1  0  0  0  0
 15  9  1  0  0  0  0
 16  8  2  0  0  0  0
 17  9  2  0  0  0  0
 18 10  2  0  0  0  0
 19 12  1  0  0  0  0
 20 13  1  0  0  0  0
 21 12  1  0  0  0  0
 22 13  1  0  0  0  0
 23 21  1  0  0  0  0
  5  4  1  0  0  0  0
 20 19  2  0  0  0  0
 14 15  1  0  0  0  0
M  END
>  <IDNUMBER>
F1813-0845

>  <Chemical_Name>
2-(2,5-dioxopyrrolidin-1-yl)-N-(4-methoxy-7-methyl-1,3-benzothiazol-2-yl)acetamide

>  <PriceCoeff>
1.00

>  <CAS>
868368-49-4

>  <MW>
333.36

>  <Description>
solid

>  <FSP3>
0.33

>  <clogP>
2.24

>  <TPSA>
116.84

>  <Acceptor>
5

>  <Donor>
1

>  <RotBonds>
4

>  <HAC>
23

>  <Collection>
General

>  <PPDS>
+

$$$$
F1813-0846
  Mrv2219 10102508112D          

 24 26  0  0  0  0            999 V2000
   -6.0267    3.4133    0.0000 C   0  0  0  0  0  0  0  0  0  0  0  0
   -3.8908    4.6489    0.0000 N   0  0  0  0  0  0  0  0  0  0  0  0
   -6.1063    2.5757    0.0000 N   0  0  0  0  0  0  0  0  0  0  0  0
   -6.9147    2.4082    0.0000 C   0  0  0  0  0  0  0  0  0  0  0  0
   -7.3293    3.1243    0.0000 C   0  0  0  0  0  0  0  0  0  0  0  0
   -6.7765    3.7400    0.0000 S   0  0  0  0  0  0  0  0  0  0  0  0
   -5.3148    3.8196    0.0000 N   0  0  0  0  0  0  0  0  0  0  0  0
   -3.2165    5.1180    0.0000 C   0  0  0  0  0  0  0  0  0  0  0  0
   -4.5567    5.1180    0.0000 C   0  0  0  0  0  0  0  0  0  0  0  0
   -4.6069    3.4133    0.0000 C   0  0  0  0  0  0  0  0  0  0  0  0
   -3.8908    3.8196    0.0000 C   0  0  0  0  0  0  0  0  0  0  0  0
   -7.3167    1.7045    0.0000 C   0  0  0  0  0  0  0  0  0  0  0  0
   -8.1460    3.1286    0.0000 C   0  0  0  0  0  0  0  0  0  0  0  0
   -3.4761    5.9179    0.0000 C   0  0  0  0  0  0  0  0  0  0  0  0
   -4.3054    5.9095    0.0000 C   0  0  0  0  0  0  0  0  0  0  0  0
   -2.4333    4.8624    0.0000 O   0  0  0  0  0  0  0  0  0  0  0  0
   -5.3482    4.8792    0.0000 O   0  0  0  0  0  0  0  0  0  0  0  0
   -4.6069    2.5966    0.0000 O   0  0  0  0  0  0  0  0  0  0  0  0
   -8.5481    2.4082    0.0000 C   0  0  0  0  0  0  0  0  0  0  0  0
   -8.1460    1.7045    0.0000 C   0  0  0  0  0  0  0  0  0  0  0  0
   -6.9105    0.9926    0.0000 O   0  0  0  0  0  0  0  0  0  0  0  0
   -8.5606    3.8405    0.0000 O   0  0  0  0  0  0  0  0  0  0  0  0
   -7.2288    0.1382    0.0000 C   0  0  0  0  0  0  0  0  0  0  0  0
   -9.3857    3.8322    0.0000 C   0  0  0  0  0  0  0  0  0  0  0  0
  2 11  1  0  0  0  0
  3  1  2  0  0  0  0
  4  3  1  0  0  0  0
  5  6  1  0  0  0  0
  6  1  1  0  0  0  0
  7  1  1  0  0  0  0
  8  2  1  0  0  0  0
  9  2  1  0  0  0  0
 10  7  1  0  0  0  0
 11 10  1  0  0  0  0
 12  4  2  0  0  0  0
 13  5  2  0  0  0  0
 14  8  1  0  0  0  0
 15  9  1  0  0  0  0
 16  8  2  0  0  0  0
 17  9  2  0  0  0  0
 18 10  2  0  0  0  0
 19 13  1  0  0  0  0
 20 12  1  0  0  0  0
 21 12  1  0  0  0  0
 22 13  1  0  0  0  0
 23 21  1  0  0  0  0
 24 22  1  0  0  0  0
  5  4  1  0  0  0  0
 19 20  2  0  0  0  0
 14 15  1  0  0  0  0
M  END
>  <IDNUMBER>
F1813-0846

>  <Chemical_Name>
N-(4,7-dimethoxy-1,3-benzothiazol-2-yl)-2-(2,5-dioxopyrrolidin-1-yl)acetamide

>  <PriceCoeff>
1.00

>  <CAS>
906784-16-5

>  <MW>
349.36

>  <Description>
solid

>  <FSP3>
0.33

>  <clogP>
2.01

>  <TPSA>
126.07

>  <Acceptor>
6

>  <Donor>
1

>  <RotBonds>
5

>  <HAC>
24

>  <Collection>
General

>  <PPDS>
+

$$$$
F1813-0847
  Mrv2219 10102508112D          

 22 24  0  0  0  0            999 V2000
   -6.0124    3.4028    0.0000 C   0  0  0  0  0  0  0  0  0  0  0  0
   -3.8788    4.6346    0.0000 N   0  0  0  0  0  0  0  0  0  0  0  0
   -6.0918    2.5678    0.0000 N   0  0  0  0  0  0  0  0  0  0  0  0
   -6.9060    2.4008    0.0000 C   0  0  0  0  0  0  0  0  0  0  0  0
   -6.7682    3.7410    0.0000 S   0  0  0  0  0  0  0  0  0  0  0  0
   -7.3193    3.1147    0.0000 C   0  0  0  0  0  0  0  0  0  0  0  0
   -5.3068    3.8162    0.0000 N   0  0  0  0  0  0  0  0  0  0  0  0
   -3.2066    5.1023    0.0000 C   0  0  0  0  0  0  0  0  0  0  0  0
   -4.5427    5.1023    0.0000 C   0  0  0  0  0  0  0  0  0  0  0  0
   -4.5928    3.4028    0.0000 C   0  0  0  0  0  0  0  0  0  0  0  0
   -8.1460    3.1190    0.0000 C   0  0  0  0  0  0  0  0  0  0  0  0
   -3.8788    3.8079    0.0000 C   0  0  0  0  0  0  0  0  0  0  0  0
   -7.3193    1.6868    0.0000 C   0  0  0  0  0  0  0  0  0  0  0  0
   -8.5469    2.4008    0.0000 C   0  0  0  0  0  0  0  0  0  0  0  0
   -4.2922    5.8914    0.0000 C   0  0  0  0  0  0  0  0  0  0  0  0
   -3.4655    5.8997    0.0000 C   0  0  0  0  0  0  0  0  0  0  0  0
   -5.3318    4.8643    0.0000 O   0  0  0  0  0  0  0  0  0  0  0  0
   -2.4258    4.8475    0.0000 O   0  0  0  0  0  0  0  0  0  0  0  0
   -4.5928    2.5761    0.0000 O   0  0  0  0  0  0  0  0  0  0  0  0
   -8.1418    1.6868    0.0000 C   0  0  0  0  0  0  0  0  0  0  0  0
   -8.5469    3.8412    0.0000 C   0  0  0  0  0  0  0  0  0  0  0  0
   -8.5469    0.9728    0.0000 C   0  0  0  0  0  0  0  0  0  0  0  0
  2 12  1  0  0  0  0
  3  1  2  0  0  0  0
  4  3  1  0  0  0  0
  5  1  1  0  0  0  0
  6  5  1  0  0  0  0
  7  1  1  0  0  0  0
  8  2  1  0  0  0  0
  9  2  1  0  0  0  0
 10  7  1  0  0  0  0
 11  6  2  0  0  0  0
 12 10  1  0  0  0  0
 13  4  2  0  0  0  0
 14 11  1  0  0  0  0
 15  9  1  0  0  0  0
 16  8  1  0  0  0  0
 17  9  2  0  0  0  0
 18  8  2  0  0  0  0
 19 10  2  0  0  0  0
 20 13  1  0  0  0  0
 21 11  1  0  0  0  0
 22 20  1  0  0  0  0
  6  4  1  0  0  0  0
 14 20  2  0  0  0  0
 16 15  1  0  0  0  0
M  END
>  <IDNUMBER>
F1813-0847

>  <Chemical_Name>
N-(5,7-dimethyl-1,3-benzothiazol-2-yl)-2-(2,5-dioxopyrrolidin-1-yl)acetamide

>  <PriceCoeff>
1.00

>  <CAS>
897618-14-3

>  <MW>
317.36

>  <Description>
solid

>  <FSP3>
0.33

>  <clogP>
2.44

>  <TPSA>
107.61

>  <Acceptor>
4

>  <Donor>
1

>  <RotBonds>
3

>  <HAC>
22

>  <Collection>
General

>  <PPDS>
+

$$$$
F1813-1163
  Mrv2219 10102508112D          

 27 30  0  0  0  0            999 V2000
   -5.2941    3.8071    0.0000 C   0  0  0  0  0  0  0  0  0  0  0  0
   -0.9955    5.4358    0.0000 N   0  0  0  0  0  0  0  0  0  0  0  0
   -5.3816    2.9824    0.0000 N   0  0  0  0  0  0  0  0  0  0  0  0
   -6.1897    2.7991    0.0000 C   0  0  0  0  0  0  0  0  0  0  0  0
   -4.5818    4.2029    0.0000 N   0  0  0  0  0  0  0  0  0  0  0  0
   -6.6021    3.5197    0.0000 C   0  0  0  0  0  0  0  0  0  0  0  0
   -6.0398    4.1279    0.0000 S   0  0  0  0  0  0  0  0  0  0  0  0
   -3.8696    3.7988    0.0000 C   0  0  0  0  0  0  0  0  0  0  0  0
   -0.2332    5.1359    0.0000 C   0  0  0  0  0  0  0  0  0  0  0  0
   -0.9372    6.2647    0.0000 C   0  0  0  0  0  0  0  0  0  0  0  0
   -6.5896    2.0868    0.0000 C   0  0  0  0  0  0  0  0  0  0  0  0
   -7.4143    3.5197    0.0000 C   0  0  0  0  0  0  0  0  0  0  0  0
   -1.7120    5.0276    0.0000 C   0  0  0  0  0  0  0  0  0  0  0  0
   -7.4268    2.0868    0.0000 C   0  0  0  0  0  0  0  0  0  0  0  0
   -3.1573    4.2112    0.0000 C   0  0  0  0  0  0  0  0  0  0  0  0
   -7.8392    2.8074    0.0000 C   0  0  0  0  0  0  0  0  0  0  0  0
   -3.8696    2.9824    0.0000 O   0  0  0  0  0  0  0  0  0  0  0  0
   -0.1333    6.4646    0.0000 C   0  0  0  0  0  0  0  0  0  0  0  0
    0.2916    5.7649    0.0000 C   0  0  0  0  0  0  0  0  0  0  0  0
   -1.5828    6.8103    0.0000 O   0  0  0  0  0  0  0  0  0  0  0  0
   -0.0333    4.3278    0.0000 O   0  0  0  0  0  0  0  0  0  0  0  0
   -2.4325    5.4525    0.0000 C   0  0  0  0  0  0  0  0  0  0  0  0
   -1.7327    4.2029    0.0000 C   0  0  0  0  0  0  0  0  0  0  0  0
   -2.4450    3.8071    0.0000 C   0  0  0  0  0  0  0  0  0  0  0  0
   -3.1490    5.0401    0.0000 C   0  0  0  0  0  0  0  0  0  0  0  0
   -6.1772    1.3746    0.0000 F   0  0  0  0  0  0  0  0  0  0  0  0
   -8.6639    2.7991    0.0000 F   0  0  0  0  0  0  0  0  0  0  0  0
  2 13  1  0  0  0  0
  3  1  2  0  0  0  0
  4  3  1  0  0  0  0
  5  1  1  0  0  0  0
  6  7  1  0  0  0  0
  7  1  1  0  0  0  0
  8  5  1  0  0  0  0
  9  2  1  0  0  0  0
 10  2  1  0  0  0  0
 11  4  2  0  0  0  0
 12  6  2  0  0  0  0
 13 22  1  0  0  0  0
 14 11  1  0  0  0  0
 15  8  1  0  0  0  0
 16 12  1  0  0  0  0
 17  8  2  0  0  0  0
 18 10  1  0  0  0  0
 19  9  1  0  0  0  0
 20 10  2  0  0  0  0
 21  9  2  0  0  0  0
 22 25  2  0  0  0  0
 23 24  1  0  0  0  0
 24 15  2  0  0  0  0
 25 15  1  0  0  0  0
 26 11  1  0  0  0  0
 27 16  1  0  0  0  0
  6  4  1  0  0  0  0
 16 14  2  0  0  0  0
 23 13  2  0  0  0  0
 18 19  1  0  0  0  0
M  END
>  <IDNUMBER>
F1813-1163

>  <Chemical_Name>
N-(4,6-difluoro-1,3-benzothiazol-2-yl)-4-(2,5-dioxopyrrolidin-1-yl)benzamide

>  <PriceCoeff>
1.00

>  <MW>
387.36

>  <Description>
solid

>  <FSP3>
0.11

>  <clogP>
1.92

>  <TPSA>
107.61

>  <Acceptor>
4

>  <Donor>
1

>  <RotBonds>
3

>  <HAC>
27

>  <Collection>
General

$$$$
F1813-1164
  Mrv2219 10102508112D          

 26 29  0  0  0  0            999 V2000
   -5.2958    3.8000    0.0000 C   0  0  0  0  0  0  0  0  0  0  0  0
   -0.9958    5.4375    0.0000 N   0  0  0  0  0  0  0  0  0  0  0  0
   -5.3833    2.9833    0.0000 N   0  0  0  0  0  0  0  0  0  0  0  0
   -4.5833    4.2042    0.0000 N   0  0  0  0  0  0  0  0  0  0  0  0
   -6.1917    2.7958    0.0000 C   0  0  0  0  0  0  0  0  0  0  0  0
   -6.0417    4.1292    0.0000 S   0  0  0  0  0  0  0  0  0  0  0  0
   -3.8708    3.8000    0.0000 C   0  0  0  0  0  0  0  0  0  0  0  0
   -0.9375    6.2667    0.0000 C   0  0  0  0  0  0  0  0  0  0  0  0
   -0.2333    5.1375    0.0000 C   0  0  0  0  0  0  0  0  0  0  0  0
   -6.6042    3.5208    0.0000 C   0  0  0  0  0  0  0  0  0  0  0  0
   -1.7125    5.0292    0.0000 C   0  0  0  0  0  0  0  0  0  0  0  0
   -3.1583    4.2125    0.0000 C   0  0  0  0  0  0  0  0  0  0  0  0
   -6.6042    2.0833    0.0000 C   0  0  0  0  0  0  0  0  0  0  0  0
   -3.8708    2.9833    0.0000 O   0  0  0  0  0  0  0  0  0  0  0  0
    0.2917    5.7667    0.0000 C   0  0  0  0  0  0  0  0  0  0  0  0
   -0.1333    6.4667    0.0000 C   0  0  0  0  0  0  0  0  0  0  0  0
   -0.0333    4.3292    0.0000 O   0  0  0  0  0  0  0  0  0  0  0  0
   -1.5833    6.8125    0.0000 O   0  0  0  0  0  0  0  0  0  0  0  0
   -1.7333    4.2042    0.0000 C   0  0  0  0  0  0  0  0  0  0  0  0
   -2.4333    5.4542    0.0000 C   0  0  0  0  0  0  0  0  0  0  0  0
   -3.1500    5.0417    0.0000 C   0  0  0  0  0  0  0  0  0  0  0  0
   -2.4458    3.8083    0.0000 C   0  0  0  0  0  0  0  0  0  0  0  0
   -6.1875    1.3708    0.0000 F   0  0  0  0  0  0  0  0  0  0  0  0
   -7.4292    3.5208    0.0000 C   0  0  0  0  0  0  0  0  0  0  0  0
   -7.8417    2.8000    0.0000 C   0  0  0  0  0  0  0  0  0  0  0  0
   -7.4292    2.0833    0.0000 C   0  0  0  0  0  0  0  0  0  0  0  0
  2 11  1  0  0  0  0
  3  1  2  0  0  0  0
  4  1  1  0  0  0  0
  5  3  1  0  0  0  0
  6  1  1  0  0  0  0
  7  4  1  0  0  0  0
  8  2  1  0  0  0  0
  9  2  1  0  0  0  0
 10  6  1  0  0  0  0
 11 19  2  0  0  0  0
 12  7  1  0  0  0  0
 13  5  2  0  0  0  0
 14  7  2  0  0  0  0
 15  9  1  0  0  0  0
 16  8  1  0  0  0  0
 17  9  2  0  0  0  0
 18  8  2  0  0  0  0
 19 22  1  0  0  0  0
 20 21  2  0  0  0  0
 21 12  1  0  0  0  0
 22 12  2  0  0  0  0
 23 13  1  0  0  0  0
 24 10  2  0  0  0  0
 25 24  1  0  0  0  0
 26 13  1  0  0  0  0
 10  5  1  0  0  0  0
 25 26  2  0  0  0  0
 20 11  1  0  0  0  0
 16 15  1  0  0  0  0
M  END
>  <IDNUMBER>
F1813-1164

>  <Chemical_Name>
4-(2,5-dioxopyrrolidin-1-yl)-N-(4-fluoro-1,3-benzothiazol-2-yl)benzamide

>  <PriceCoeff>
1.00

>  <CAS>
897618-18-7

>  <MW>
369.37

>  <Description>
solid

>  <FSP3>
0.11

>  <clogP>
1.77

>  <TPSA>
107.61

>  <Acceptor>
4

>  <Donor>
1

>  <RotBonds>
3

>  <HAC>
26

>  <Collection>
General

>  <PPDS>
+

$$$$
F1813-1187
  Mrv2219 10102508112D          

 27 30  0  0  0  0            999 V2000
   -5.2873    3.8022    0.0000 C   0  0  0  0  0  0  0  0  0  0  0  0
   -1.0067    3.7897    0.0000 N   0  0  0  0  0  0  0  0  0  0  0  0
   -5.3746    2.9785    0.0000 N   0  0  0  0  0  0  0  0  0  0  0  0
   -6.1817    2.7955    0.0000 C   0  0  0  0  0  0  0  0  0  0  0  0
   -4.5759    4.1974    0.0000 N   0  0  0  0  0  0  0  0  0  0  0  0
   -6.5935    3.5151    0.0000 C   0  0  0  0  0  0  0  0  0  0  0  0
   -6.0320    4.1225    0.0000 S   0  0  0  0  0  0  0  0  0  0  0  0
   -1.7180    4.2057    0.0000 C   0  0  0  0  0  0  0  0  0  0  0  0
   -3.8646    3.7939    0.0000 C   0  0  0  0  0  0  0  0  0  0  0  0
   -0.9609    2.9660    0.0000 C   0  0  0  0  0  0  0  0  0  0  0  0
   -0.2371    4.0851    0.0000 C   0  0  0  0  0  0  0  0  0  0  0  0
   -6.5811    2.0841    0.0000 C   0  0  0  0  0  0  0  0  0  0  0  0
   -7.4047    3.5151    0.0000 C   0  0  0  0  0  0  0  0  0  0  0  0
   -2.4336    3.8022    0.0000 C   0  0  0  0  0  0  0  0  0  0  0  0
   -3.1532    4.2057    0.0000 C   0  0  0  0  0  0  0  0  0  0  0  0
   -7.4172    2.0841    0.0000 C   0  0  0  0  0  0  0  0  0  0  0  0
   -7.8290    2.8038    0.0000 C   0  0  0  0  0  0  0  0  0  0  0  0
   -3.8646    2.9785    0.0000 O   0  0  0  0  0  0  0  0  0  0  0  0
    0.2912    3.4652    0.0000 C   0  0  0  0  0  0  0  0  0  0  0  0
   -0.1456    2.7663    0.0000 C   0  0  0  0  0  0  0  0  0  0  0  0
   -0.0208    4.8796    0.0000 O   0  0  0  0  0  0  0  0  0  0  0  0
   -1.5932    2.4543    0.0000 O   0  0  0  0  0  0  0  0  0  0  0  0
   -6.1692    1.3728    0.0000 F   0  0  0  0  0  0  0  0  0  0  0  0
   -8.6527    2.7955    0.0000 F   0  0  0  0  0  0  0  0  0  0  0  0
   -1.7097    5.0211    0.0000 C   0  0  0  0  0  0  0  0  0  0  0  0
   -3.1449    5.0336    0.0000 C   0  0  0  0  0  0  0  0  0  0  0  0
   -2.4294    5.4454    0.0000 C   0  0  0  0  0  0  0  0  0  0  0  0
  2  8  1  0  0  0  0
  3  1  2  0  0  0  0
  4  3  1  0  0  0  0
  5  1  1  0  0  0  0
  6  7  1  0  0  0  0
  7  1  1  0  0  0  0
  8 14  1  0  0  0  0
  9  5  1  0  0  0  0
 10  2  1  0  0  0  0
 11  2  1  0  0  0  0
 12  4  2  0  0  0  0
 13  6  2  0  0  0  0
 14 15  2  0  0  0  0
 15  9  1  0  0  0  0
 16 12  1  0  0  0  0
 17 13  1  0  0  0  0
 18  9  2  0  0  0  0
 19 11  1  0  0  0  0
 20 10  1  0  0  0  0
 21 11  2  0  0  0  0
 22 10  2  0  0  0  0
 23 12  1  0  0  0  0
 24 17  1  0  0  0  0
 25 27  1  0  0  0  0
 26 15  1  0  0  0  0
 27 26  2  0  0  0  0
  6  4  1  0  0  0  0
 17 16  2  0  0  0  0
  8 25  2  0  0  0  0
 19 20  1  0  0  0  0
M  END
>  <IDNUMBER>
F1813-1187

>  <Chemical_Name>
N-(4,6-difluoro-1,3-benzothiazol-2-yl)-3-(2,5-dioxopyrrolidin-1-yl)benzamide

>  <PriceCoeff>
1.00

>  <CAS>
897759-78-3

>  <MW>
387.36

>  <Description>
solid

>  <FSP3>
0.11

>  <clogP>
1.92

>  <TPSA>
107.61

>  <Acceptor>
4

>  <Donor>
1

>  <RotBonds>
3

>  <HAC>
27

>  <Collection>
General

>  <PPDS>
+

$$$$
F1813-1188
  Mrv2219 10102508112D          

 26 29  0  0  0  0            999 V2000
   -5.2928    3.7978    0.0000 C   0  0  0  0  0  0  0  0  0  0  0  0
   -1.0077    3.7936    0.0000 N   0  0  0  0  0  0  0  0  0  0  0  0
   -5.3802    2.9816    0.0000 N   0  0  0  0  0  0  0  0  0  0  0  0
   -4.5807    4.2018    0.0000 N   0  0  0  0  0  0  0  0  0  0  0  0
   -6.1881    2.7942    0.0000 C   0  0  0  0  0  0  0  0  0  0  0  0
   -6.0382    4.1268    0.0000 S   0  0  0  0  0  0  0  0  0  0  0  0
   -1.7198    4.2101    0.0000 C   0  0  0  0  0  0  0  0  0  0  0  0
   -3.8686    3.7978    0.0000 C   0  0  0  0  0  0  0  0  0  0  0  0
   -0.2374    4.0894    0.0000 C   0  0  0  0  0  0  0  0  0  0  0  0
   -0.9619    2.9691    0.0000 C   0  0  0  0  0  0  0  0  0  0  0  0
   -6.6004    3.5188    0.0000 C   0  0  0  0  0  0  0  0  0  0  0  0
   -2.4361    3.8061    0.0000 C   0  0  0  0  0  0  0  0  0  0  0  0
   -3.1565    4.2101    0.0000 C   0  0  0  0  0  0  0  0  0  0  0  0
   -6.6004    2.0821    0.0000 C   0  0  0  0  0  0  0  0  0  0  0  0
   -3.8686    2.9816    0.0000 O   0  0  0  0  0  0  0  0  0  0  0  0
   -0.1457    2.7692    0.0000 C   0  0  0  0  0  0  0  0  0  0  0  0
    0.2915    3.4688    0.0000 C   0  0  0  0  0  0  0  0  0  0  0  0
   -1.5949    2.4569    0.0000 O   0  0  0  0  0  0  0  0  0  0  0  0
   -0.0208    4.8847    0.0000 O   0  0  0  0  0  0  0  0  0  0  0  0
   -6.1840    1.3700    0.0000 F   0  0  0  0  0  0  0  0  0  0  0  0
   -1.7115    5.0263    0.0000 C   0  0  0  0  0  0  0  0  0  0  0  0
   -7.4249    3.5188    0.0000 C   0  0  0  0  0  0  0  0  0  0  0  0
   -3.1482    5.0388    0.0000 C   0  0  0  0  0  0  0  0  0  0  0  0
   -2.4319    5.4511    0.0000 C   0  0  0  0  0  0  0  0  0  0  0  0
   -7.8372    2.7984    0.0000 C   0  0  0  0  0  0  0  0  0  0  0  0
   -7.4249    2.0821    0.0000 C   0  0  0  0  0  0  0  0  0  0  0  0
  2  7  1  0  0  0  0
  3  1  2  0  0  0  0
  4  1  1  0  0  0  0
  5  3  1  0  0  0  0
  6  1  1  0  0  0  0
  7 12  1  0  0  0  0
  8  4  1  0  0  0  0
  9  2  1  0  0  0  0
 10  2  1  0  0  0  0
 11  6  1  0  0  0  0
 12 13  2  0  0  0  0
 13  8  1  0  0  0  0
 14  5  2  0  0  0  0
 15  8  2  0  0  0  0
 16 10  1  0  0  0  0
 17  9  1  0  0  0  0
 18 10  2  0  0  0  0
 19  9  2  0  0  0  0
 20 14  1  0  0  0  0
 21 24  1  0  0  0  0
 22 11  2  0  0  0  0
 23 13  1  0  0  0  0
 24 23  2  0  0  0  0
 25 22  1  0  0  0  0
 26 14  1  0  0  0  0
 11  5  1  0  0  0  0
 25 26  2  0  0  0  0
  7 21  2  0  0  0  0
 17 16  1  0  0  0  0
M  END
>  <IDNUMBER>
F1813-1188

>  <Chemical_Name>
3-(2,5-dioxopyrrolidin-1-yl)-N-(4-fluoro-1,3-benzothiazol-2-yl)benzamide

>  <PriceCoeff>
1.00

>  <CAS>
897618-19-8

>  <MW>
369.37

>  <Description>
solid

>  <FSP3>
0.11

>  <clogP>
1.77

>  <TPSA>
107.61

>  <Acceptor>
4

>  <Donor>
1

>  <RotBonds>
3

>  <HAC>
26

>  <Collection>
General

>  <PPDS>
+

$$$$
F1813-1253
  Mrv2219 10102508112D          

 22 24  0  0  0  0            999 V2000
   -1.7250    2.5708    0.0000 C   0  0  0  0  0  0  0  0  0  0  0  0
   -3.1583    5.0417    0.0000 N   0  0  0  0  0  0  0  0  0  0  0  0
   -0.9625    2.9000    0.0000 N   0  0  0  0  0  0  0  0  0  0  0  0
   -0.4083    2.2833    0.0000 C   0  0  0  0  0  0  0  0  0  0  0  0
   -0.8208    1.5708    0.0000 C   0  0  0  0  0  0  0  0  0  0  0  0
   -1.6333    1.7375    0.0000 S   0  0  0  0  0  0  0  0  0  0  0  0
   -2.4375    2.9833    0.0000 N   0  0  0  0  0  0  0  0  0  0  0  0
   -2.4833    5.5167    0.0000 C   0  0  0  0  0  0  0  0  0  0  0  0
   -3.8208    5.5167    0.0000 C   0  0  0  0  0  0  0  0  0  0  0  0
    0.4167    2.2875    0.0000 C   0  0  0  0  0  0  0  0  0  0  0  0
   -2.4375    3.8000    0.0000 C   0  0  0  0  0  0  0  0  0  0  0  0
   -3.1583    4.2125    0.0000 C   0  0  0  0  0  0  0  0  0  0  0  0
   -0.4083    0.8583    0.0000 C   0  0  0  0  0  0  0  0  0  0  0  0
    0.8292    1.5708    0.0000 C   0  0  0  0  0  0  0  0  0  0  0  0
    0.4167    0.8583    0.0000 C   0  0  0  0  0  0  0  0  0  0  0  0
   -2.7458    6.3125    0.0000 C   0  0  0  0  0  0  0  0  0  0  0  0
   -3.5708    6.3042    0.0000 C   0  0  0  0  0  0  0  0  0  0  0  0
   -1.6958    5.2625    0.0000 O   0  0  0  0  0  0  0  0  0  0  0  0
   -4.6083    5.2750    0.0000 O   0  0  0  0  0  0  0  0  0  0  0  0
   -1.7250    4.2042    0.0000 O   0  0  0  0  0  0  0  0  0  0  0  0
    0.8250    3.0083    0.0000 F   0  0  0  0  0  0  0  0  0  0  0  0
    0.8292    0.1458    0.0000 F   0  0  0  0  0  0  0  0  0  0  0  0
  2 12  1  0  0  0  0
  3  1  2  0  0  0  0
  4  3  1  0  0  0  0
  5  6  1  0  0  0  0
  6  1  1  0  0  0  0
  7  1  1  0  0  0  0
  8  2  1  0  0  0  0
  9  2  1  0  0  0  0
 10  4  2  0  0  0  0
 11  7  1  0  0  0  0
 12 11  1  0  0  0  0
 13  5  2  0  0  0  0
 14 10  1  0  0  0  0
 15 13  1  0  0  0  0
 16  8  1  0  0  0  0
 17  9  1  0  0  0  0
 18  8  2  0  0  0  0
 19  9  2  0  0  0  0
 20 11  2  0  0  0  0
 21 10  1  0  0  0  0
 22 15  1  0  0  0  0
  5  4  1  0  0  0  0
 15 14  2  0  0  0  0
 16 17  1  0  0  0  0
M  END
>  <IDNUMBER>
F1813-1253

>  <Chemical_Name>
N-(4,6-difluoro-1,3-benzothiazol-2-yl)-2-(2,5-dioxopyrrolidin-1-yl)acetamide

>  <PriceCoeff>
1.00

>  <CAS>
897618-21-2

>  <MW>
325.29

>  <Description>
solid

>  <FSP3>
0.23

>  <clogP>
1.74

>  <TPSA>
107.61

>  <Acceptor>
4

>  <Donor>
1

>  <RotBonds>
3

>  <HAC>
22

>  <Collection>
General

>  <PPDS>
+

$$$$
F1814-0480
  Mrv2219 10102508112D          

 31 34  0  0  0  0            999 V2000
   -5.2779    2.1935    0.0000 C   0  0  0  0  0  0  0  0  0  0  0  0
   -6.0230    2.5307    0.0000 S   0  0  0  0  0  0  0  0  0  0  0  0
   -6.5849    1.9063    0.0000 C   0  0  0  0  0  0  0  0  0  0  0  0
   -4.5786    2.5931    0.0000 N   0  0  0  0  0  0  0  0  0  0  0  0
   -5.3570    1.3486    0.0000 N   0  0  0  0  0  0  0  0  0  0  0  0
   -6.1603    1.1821    0.0000 C   0  0  0  0  0  0  0  0  0  0  0  0
   -1.7065    5.0198    0.0000 N   0  0  0  0  0  0  0  0  0  0  0  0
   -4.5786    3.3923    0.0000 C   0  0  0  0  0  0  0  0  0  0  0  0
   -0.9448    4.7118    0.0000 C   0  0  0  0  0  0  0  0  0  0  0  0
   -1.6483    5.8482    0.0000 C   0  0  0  0  0  0  0  0  0  0  0  0
   -2.4308    4.6119    0.0000 C   0  0  0  0  0  0  0  0  0  0  0  0
   -7.4340    1.9063    0.0000 C   0  0  0  0  0  0  0  0  0  0  0  0
   -6.5849    0.4578    0.0000 C   0  0  0  0  0  0  0  0  0  0  0  0
   -3.8668    3.7961    0.0000 C   0  0  0  0  0  0  0  0  0  0  0  0
   -5.2779    3.7919    0.0000 O   0  0  0  0  0  0  0  0  0  0  0  0
   -0.8449    6.0480    0.0000 C   0  0  0  0  0  0  0  0  0  0  0  0
   -0.4204    5.3487    0.0000 C   0  0  0  0  0  0  0  0  0  0  0  0
   -2.2934    6.3934    0.0000 O   0  0  0  0  0  0  0  0  0  0  0  0
   -0.7450    3.9210    0.0000 O   0  0  0  0  0  0  0  0  0  0  0  0
   -3.1468    5.0365    0.0000 C   0  0  0  0  0  0  0  0  0  0  0  0
   -2.4433    3.7961    0.0000 C   0  0  0  0  0  0  0  0  0  0  0  0
   -7.8461    1.1821    0.0000 C   0  0  0  0  0  0  0  0  0  0  0  0
   -7.4340    0.4495    0.0000 C   0  0  0  0  0  0  0  0  0  0  0  0
   -3.1550    3.3923    0.0000 C   0  0  0  0  0  0  0  0  0  0  0  0
   -3.8585    4.6244    0.0000 C   0  0  0  0  0  0  0  0  0  0  0  0
   -4.7659    0.8075    0.0000 C   0  0  0  0  0  0  0  0  0  0  0  0
   -7.8336    2.6181    0.0000 O   0  0  0  0  0  0  0  0  0  0  0  0
   -6.1811   -0.2497    0.0000 O   0  0  0  0  0  0  0  0  0  0  0  0
   -6.5100   -1.0032    0.0000 C   0  0  0  0  0  0  0  0  0  0  0  0
   -8.6661    2.6223    0.0000 C   0  0  0  0  0  0  0  0  0  0  0  0
   -4.9407    0.0083    0.0000 C   0  0  0  0  0  0  0  0  0  0  0  0
  2  1  1  0  0  0  0
  3  2  1  0  0  0  0
  4  1  2  0  0  0  0
  5  1  1  0  0  0  0
  6  5  1  0  0  0  0
  7 11  1  0  0  0  0
  8  4  1  0  0  0  0
  9  7  1  0  0  0  0
 10  7  1  0  0  0  0
 11 20  1  0  0  0  0
 12  3  1  0  0  0  0
 13  6  1  0  0  0  0
 14  8  1  0  0  0  0
 15  8  2  0  0  0  0
 16 10  1  0  0  0  0
 17  9  1  0  0  0  0
 18 10  2  0  0  0  0
 19  9  2  0  0  0  0
 20 25  2  0  0  0  0
 21 24  1  0  0  0  0
 22 12  2  0  0  0  0
 23 13  2  0  0  0  0
 24 14  2  0  0  0  0
 25 14  1  0  0  0  0
 26  5  1  0  0  0  0
 27 12  1  0  0  0  0
 28 13  1  0  0  0  0
 29 28  1  0  0  0  0
 30 27  1  0  0  0  0
 31 26  1  0  0  0  0
  6  3  2  0  0  0  0
 22 23  1  0  0  0  0
 21 11  2  0  0  0  0
 16 17  1  0  0  0  0
M  END
>  <IDNUMBER>
F1814-0480

>  <Chemical_Name>
4-(2,5-dioxopyrrolidin-1-yl)-N-[(2Z)-3-ethyl-4,7-dimethoxy-2,3-dihydro-1,3-benzothiazol-2-ylidene]benzamide

>  <PriceCoeff>
1.00

>  <CAS>
1164536-00-8

>  <MW>
439.48

>  <Description>
solid

>  <FSP3>
0.27

>  <clogP>
3.49

>  <TPSA>
113.81

>  <Acceptor>
5

>  <Donor>
0

>  <RotBonds>
6

>  <HAC>
31

>  <Collection>
General

>  <PPDS>
+

$$$$
F1814-0648
  Mrv2219 10102508112D          

 28 31  0  0  0  0            999 V2000
   -5.2538    2.1753    0.0000 C   0  0  0  0  0  0  0  0  0  0  0  0
   -4.5577    2.5813    0.0000 N   0  0  0  0  0  0  0  0  0  0  0  0
   -5.3284    1.3425    0.0000 N   0  0  0  0  0  0  0  0  0  0  0  0
   -1.7112    3.3644    0.0000 N   0  0  0  0  0  0  0  0  0  0  0  0
   -5.9956    2.5067    0.0000 S   0  0  0  0  0  0  0  0  0  0  0  0
   -6.1447    1.1643    0.0000 C   0  0  0  0  0  0  0  0  0  0  0  0
   -6.5549    1.8852    0.0000 C   0  0  0  0  0  0  0  0  0  0  0  0
   -4.5577    3.3769    0.0000 C   0  0  0  0  0  0  0  0  0  0  0  0
   -2.4239    3.7871    0.0000 C   0  0  0  0  0  0  0  0  0  0  0  0
   -6.5549    0.4475    0.0000 C   0  0  0  0  0  0  0  0  0  0  0  0
   -0.9447    3.6752    0.0000 C   0  0  0  0  0  0  0  0  0  0  0  0
   -1.6657    2.5440    0.0000 C   0  0  0  0  0  0  0  0  0  0  0  0
   -7.4002    1.8852    0.0000 C   0  0  0  0  0  0  0  0  0  0  0  0
   -3.1407    3.3769    0.0000 C   0  0  0  0  0  0  0  0  0  0  0  0
   -7.3960    0.4433    0.0000 C   0  0  0  0  0  0  0  0  0  0  0  0
   -3.8492    3.7788    0.0000 C   0  0  0  0  0  0  0  0  0  0  0  0
   -7.8104    1.1643    0.0000 C   0  0  0  0  0  0  0  0  0  0  0  0
   -5.2538    3.7746    0.0000 O   0  0  0  0  0  0  0  0  0  0  0  0
   -0.4185    3.0412    0.0000 C   0  0  0  0  0  0  0  0  0  0  0  0
   -0.8535    2.3451    0.0000 C   0  0  0  0  0  0  0  0  0  0  0  0
   -0.7334    4.4418    0.0000 O   0  0  0  0  0  0  0  0  0  0  0  0
   -2.2954    2.0261    0.0000 O   0  0  0  0  0  0  0  0  0  0  0  0
   -6.1447   -0.2528    0.0000 Cl  0  0  0  0  0  0  0  0  0  0  0  0
   -4.7442    0.8038    0.0000 C   0  0  0  0  0  0  0  0  0  0  0  0
   -8.6059    1.1560    0.0000 Cl  0  0  0  0  0  0  0  0  0  0  0  0
   -2.4197    4.5910    0.0000 C   0  0  0  0  0  0  0  0  0  0  0  0
   -3.8410    4.6034    0.0000 C   0  0  0  0  0  0  0  0  0  0  0  0
   -3.1283    5.0136    0.0000 C   0  0  0  0  0  0  0  0  0  0  0  0
  2  1  2  0  0  0  0
  3  1  1  0  0  0  0
  4  9  1  0  0  0  0
  5  1  1  0  0  0  0
  6  3  1  0  0  0  0
  7  5  1  0  0  0  0
  8  2  1  0  0  0  0
  9 14  1  0  0  0  0
 10  6  1  0  0  0  0
 11  4  1  0  0  0  0
 12  4  1  0  0  0  0
 13  7  1  0  0  0  0
 14 16  2  0  0  0  0
 15 10  2  0  0  0  0
 16  8  1  0  0  0  0
 17 13  2  0  0  0  0
 18  8  2  0  0  0  0
 19 11  1  0  0  0  0
 20 12  1  0  0  0  0
 21 11  2  0  0  0  0
 22 12  2  0  0  0  0
 23 10  1  0  0  0  0
 24  3  1  0  0  0  0
 25 17  1  0  0  0  0
 26 28  1  0  0  0  0
 27 16  1  0  0  0  0
 28 27  2  0  0  0  0
  6  7  2  0  0  0  0
 17 15  1  0  0  0  0
 26  9  2  0  0  0  0
 19 20  1  0  0  0  0
M  END
>  <IDNUMBER>
F1814-0648

>  <Chemical_Name>
N-[(2Z)-4,6-dichloro-3-methyl-2,3-dihydro-1,3-benzothiazol-2-ylidene]-3-(2,5-dioxopyrrolidin-1-yl)benzamide

>  <PriceCoeff>
1.00

>  <CAS>
868369-90-8

>  <MW>
434.30

>  <Description>
solid

>  <FSP3>
0.16

>  <clogP>
4.38

>  <TPSA>
95.35

>  <Acceptor>
3

>  <Donor>
0

>  <RotBonds>
3

>  <HAC>
28

>  <Collection>
General

>  <PPDS>
+

$$$$
F1814-0649
  Mrv2219 10102508112D          

 28 31  0  0  0  0            999 V2000
   -5.2567    2.1765    0.0000 C   0  0  0  0  0  0  0  0  0  0  0  0
   -4.5602    2.5827    0.0000 N   0  0  0  0  0  0  0  0  0  0  0  0
   -5.3313    1.3432    0.0000 N   0  0  0  0  0  0  0  0  0  0  0  0
   -5.9988    2.5081    0.0000 S   0  0  0  0  0  0  0  0  0  0  0  0
   -1.7121    3.3662    0.0000 N   0  0  0  0  0  0  0  0  0  0  0  0
   -6.1356    1.1691    0.0000 C   0  0  0  0  0  0  0  0  0  0  0  0
   -6.5585    1.8986    0.0000 C   0  0  0  0  0  0  0  0  0  0  0  0
   -4.5602    3.3786    0.0000 C   0  0  0  0  0  0  0  0  0  0  0  0
   -2.4252    3.7891    0.0000 C   0  0  0  0  0  0  0  0  0  0  0  0
   -1.6665    2.5454    0.0000 C   0  0  0  0  0  0  0  0  0  0  0  0
   -0.9452    3.6772    0.0000 C   0  0  0  0  0  0  0  0  0  0  0  0
   -7.3917    1.8986    0.0000 C   0  0  0  0  0  0  0  0  0  0  0  0
   -3.1423    3.3786    0.0000 C   0  0  0  0  0  0  0  0  0  0  0  0
   -3.8513    3.7809    0.0000 C   0  0  0  0  0  0  0  0  0  0  0  0
   -6.5585    0.4477    0.0000 C   0  0  0  0  0  0  0  0  0  0  0  0
   -7.8022    1.1691    0.0000 C   0  0  0  0  0  0  0  0  0  0  0  0
   -5.2442    3.7767    0.0000 O   0  0  0  0  0  0  0  0  0  0  0  0
   -0.8540    2.3464    0.0000 C   0  0  0  0  0  0  0  0  0  0  0  0
   -0.4186    3.0429    0.0000 C   0  0  0  0  0  0  0  0  0  0  0  0
   -2.2967    2.0272    0.0000 O   0  0  0  0  0  0  0  0  0  0  0  0
   -0.7338    4.4442    0.0000 O   0  0  0  0  0  0  0  0  0  0  0  0
   -7.3917    0.4435    0.0000 C   0  0  0  0  0  0  0  0  0  0  0  0
   -4.7467    0.8084    0.0000 C   0  0  0  0  0  0  0  0  0  0  0  0
   -2.4211    4.5934    0.0000 C   0  0  0  0  0  0  0  0  0  0  0  0
   -7.8022    2.5952    0.0000 C   0  0  0  0  0  0  0  0  0  0  0  0
   -3.8430    4.6058    0.0000 C   0  0  0  0  0  0  0  0  0  0  0  0
   -3.1299    5.0163    0.0000 C   0  0  0  0  0  0  0  0  0  0  0  0
   -7.7980   -0.2653    0.0000 C   0  0  0  0  0  0  0  0  0  0  0  0
  2  1  2  0  0  0  0
  3  1  1  0  0  0  0
  4  1  1  0  0  0  0
  5  9  1  0  0  0  0
  6  3  1  0  0  0  0
  7  4  1  0  0  0  0
  8  2  1  0  0  0  0
  9 13  1  0  0  0  0
 10  5  1  0  0  0  0
 11  5  1  0  0  0  0
 12  7  1  0  0  0  0
 13 14  2  0  0  0  0
 14  8  1  0  0  0  0
 15  6  1  0  0  0  0
 16 12  2  0  0  0  0
 17  8  2  0  0  0  0
 18 10  1  0  0  0  0
 19 11  1  0  0  0  0
 20 10  2  0  0  0  0
 21 11  2  0  0  0  0
 22 15  2  0  0  0  0
 23  3  1  0  0  0  0
 24 27  1  0  0  0  0
 25 12  1  0  0  0  0
 26 14  1  0  0  0  0
 27 26  2  0  0  0  0
 28 22  1  0  0  0  0
  6  7  2  0  0  0  0
 16 22  1  0  0  0  0
 24  9  2  0  0  0  0
 19 18  1  0  0  0  0
M  END
>  <IDNUMBER>
F1814-0649

>  <Chemical_Name>
3-(2,5-dioxopyrrolidin-1-yl)-N-[(2Z)-3,5,7-trimethyl-2,3-dihydro-1,3-benzothiazol-2-ylidene]benzamide

>  <PriceCoeff>
1.00

>  <CAS>
868369-91-9

>  <MW>
393.46

>  <Description>
solid

>  <FSP3>
0.24

>  <clogP>
3.95

>  <TPSA>
95.35

>  <Acceptor>
3

>  <Donor>
0

>  <RotBonds>
3

>  <HAC>
28

>  <Collection>
General

>  <PPDS>
+

$$$$
F1814-0650
  Mrv2219 10102508112D          

 28 31  0  0  0  0            999 V2000
   -5.2567    2.1765    0.0000 C   0  0  0  0  0  0  0  0  0  0  0  0
   -4.5602    2.5827    0.0000 N   0  0  0  0  0  0  0  0  0  0  0  0
   -5.9988    2.5081    0.0000 S   0  0  0  0  0  0  0  0  0  0  0  0
   -5.3313    1.3432    0.0000 N   0  0  0  0  0  0  0  0  0  0  0  0
   -1.7121    3.3662    0.0000 N   0  0  0  0  0  0  0  0  0  0  0  0
   -6.5585    1.8862    0.0000 C   0  0  0  0  0  0  0  0  0  0  0  0
   -6.1356    1.1691    0.0000 C   0  0  0  0  0  0  0  0  0  0  0  0
   -4.5602    3.3786    0.0000 C   0  0  0  0  0  0  0  0  0  0  0  0
   -2.4252    3.7891    0.0000 C   0  0  0  0  0  0  0  0  0  0  0  0
   -1.6665    2.5454    0.0000 C   0  0  0  0  0  0  0  0  0  0  0  0
   -0.9452    3.6772    0.0000 C   0  0  0  0  0  0  0  0  0  0  0  0
   -3.1423    3.3786    0.0000 C   0  0  0  0  0  0  0  0  0  0  0  0
   -3.8513    3.7809    0.0000 C   0  0  0  0  0  0  0  0  0  0  0  0
   -7.4000    1.8862    0.0000 C   0  0  0  0  0  0  0  0  0  0  0  0
   -6.5585    0.4477    0.0000 C   0  0  0  0  0  0  0  0  0  0  0  0
   -5.2567    3.7767    0.0000 O   0  0  0  0  0  0  0  0  0  0  0  0
   -0.4186    3.0429    0.0000 C   0  0  0  0  0  0  0  0  0  0  0  0
   -0.8540    2.3464    0.0000 C   0  0  0  0  0  0  0  0  0  0  0  0
   -0.7338    4.4442    0.0000 O   0  0  0  0  0  0  0  0  0  0  0  0
   -2.2967    2.0272    0.0000 O   0  0  0  0  0  0  0  0  0  0  0  0
   -7.8146    1.1649    0.0000 C   0  0  0  0  0  0  0  0  0  0  0  0
   -7.3917    0.4435    0.0000 C   0  0  0  0  0  0  0  0  0  0  0  0
   -4.7467    0.8043    0.0000 C   0  0  0  0  0  0  0  0  0  0  0  0
   -2.4211    4.5934    0.0000 C   0  0  0  0  0  0  0  0  0  0  0  0
   -3.8430    4.6058    0.0000 C   0  0  0  0  0  0  0  0  0  0  0  0
   -3.1299    5.0163    0.0000 C   0  0  0  0  0  0  0  0  0  0  0  0
   -7.8022    2.5952    0.0000 C   0  0  0  0  0  0  0  0  0  0  0  0
   -6.1480   -0.2529    0.0000 C   0  0  0  0  0  0  0  0  0  0  0  0
  2  1  2  0  0  0  0
  3  1  1  0  0  0  0
  4  1  1  0  0  0  0
  5  9  1  0  0  0  0
  6  3  1  0  0  0  0
  7  4  1  0  0  0  0
  8  2  1  0  0  0  0
  9 12  1  0  0  0  0
 10  5  1  0  0  0  0
 11  5  1  0  0  0  0
 12 13  2  0  0  0  0
 13  8  1  0  0  0  0
 14  6  1  0  0  0  0
 15  7  1  0  0  0  0
 16  8  2  0  0  0  0
 17 11  1  0  0  0  0
 18 10  1  0  0  0  0
 19 11  2  0  0  0  0
 20 10  2  0  0  0  0
 21 14  2  0  0  0  0
 22 15  2  0  0  0  0
 23  4  1  0  0  0  0
 24 26  1  0  0  0  0
 25 13  1  0  0  0  0
 26 25  2  0  0  0  0
 27 14  1  0  0  0  0
 28 15  1  0  0  0  0
  7  6  2  0  0  0  0
 21 22  1  0  0  0  0
 24  9  2  0  0  0  0
 17 18  1  0  0  0  0
M  END
>  <IDNUMBER>
F1814-0650

>  <Chemical_Name>
3-(2,5-dioxopyrrolidin-1-yl)-N-[(2Z)-3,4,7-trimethyl-2,3-dihydro-1,3-benzothiazol-2-ylidene]benzamide

>  <PriceCoeff>
1.00

>  <CAS>
1321774-58-6

>  <MW>
393.46

>  <Description>
solid

>  <FSP3>
0.24

>  <clogP>
3.95

>  <TPSA>
95.35

>  <Acceptor>
3

>  <Donor>
0

>  <RotBonds>
3

>  <HAC>
28

>  <Collection>
General

>  <PPDS>
+

$$$$
F1814-0651
  Mrv2219 10102508112D          

 29 32  0  0  0  0            999 V2000
   -5.2442    2.1848    0.0000 C   0  0  0  0  0  0  0  0  0  0  0  0
   -4.5602    2.5827    0.0000 N   0  0  0  0  0  0  0  0  0  0  0  0
   -5.9988    2.5205    0.0000 S   0  0  0  0  0  0  0  0  0  0  0  0
   -5.3313    1.3515    0.0000 N   0  0  0  0  0  0  0  0  0  0  0  0
   -1.7121    3.3662    0.0000 N   0  0  0  0  0  0  0  0  0  0  0  0
   -6.5585    1.8986    0.0000 C   0  0  0  0  0  0  0  0  0  0  0  0
   -6.1356    1.1773    0.0000 C   0  0  0  0  0  0  0  0  0  0  0  0
   -4.5602    3.3786    0.0000 C   0  0  0  0  0  0  0  0  0  0  0  0
   -2.4252    3.7891    0.0000 C   0  0  0  0  0  0  0  0  0  0  0  0
   -1.6665    2.5454    0.0000 C   0  0  0  0  0  0  0  0  0  0  0  0
   -0.9452    3.6772    0.0000 C   0  0  0  0  0  0  0  0  0  0  0  0
   -3.1423    3.3786    0.0000 C   0  0  0  0  0  0  0  0  0  0  0  0
   -3.8513    3.7809    0.0000 C   0  0  0  0  0  0  0  0  0  0  0  0
   -6.5585    0.4560    0.0000 C   0  0  0  0  0  0  0  0  0  0  0  0
   -7.3917    1.8986    0.0000 C   0  0  0  0  0  0  0  0  0  0  0  0
   -5.2442    3.7767    0.0000 O   0  0  0  0  0  0  0  0  0  0  0  0
   -0.4186    3.0429    0.0000 C   0  0  0  0  0  0  0  0  0  0  0  0
   -0.8540    2.3464    0.0000 C   0  0  0  0  0  0  0  0  0  0  0  0
   -0.7338    4.4442    0.0000 O   0  0  0  0  0  0  0  0  0  0  0  0
   -2.2967    2.0272    0.0000 O   0  0  0  0  0  0  0  0  0  0  0  0
   -7.3793    0.4560    0.0000 C   0  0  0  0  0  0  0  0  0  0  0  0
   -7.8022    1.1773    0.0000 C   0  0  0  0  0  0  0  0  0  0  0  0
   -4.7467    0.8167    0.0000 C   0  0  0  0  0  0  0  0  0  0  0  0
   -2.4211    4.5934    0.0000 C   0  0  0  0  0  0  0  0  0  0  0  0
   -6.1480   -0.2405    0.0000 O   0  0  0  0  0  0  0  0  0  0  0  0
   -3.8430    4.6058    0.0000 C   0  0  0  0  0  0  0  0  0  0  0  0
   -3.1299    5.0163    0.0000 C   0  0  0  0  0  0  0  0  0  0  0  0
   -7.8022    2.5993    0.0000 C   0  0  0  0  0  0  0  0  0  0  0  0
   -6.6704   -0.9204    0.0000 C   0  0  0  0  0  0  0  0  0  0  0  0
  2  1  2  0  0  0  0
  3  1  1  0  0  0  0
  4  1  1  0  0  0  0
  5  9  1  0  0  0  0
  6  3  1  0  0  0  0
  7  4  1  0  0  0  0
  8  2  1  0  0  0  0
  9 12  1  0  0  0  0
 10  5  1  0  0  0  0
 11  5  1  0  0  0  0
 12 13  2  0  0  0  0
 13  8  1  0  0  0  0
 14  7  1  0  0  0  0
 15  6  1  0  0  0  0
 16  8  2  0  0  0  0
 17 11  1  0  0  0  0
 18 10  1  0  0  0  0
 19 11  2  0  0  0  0
 20 10  2  0  0  0  0
 21 14  2  0  0  0  0
 22 15  2  0  0  0  0
 23  4  1  0  0  0  0
 24 27  1  0  0  0  0
 25 14  1  0  0  0  0
 26 13  1  0  0  0  0
 27 26  2  0  0  0  0
 28 15  1  0  0  0  0
 29 25  1  0  0  0  0
  7  6  2  0  0  0  0
 22 21  1  0  0  0  0
 24  9  2  0  0  0  0
 17 18  1  0  0  0  0
M  END
>  <IDNUMBER>
F1814-0651

>  <Chemical_Name>
3-(2,5-dioxopyrrolidin-1-yl)-N-[(2Z)-4-methoxy-3,7-dimethyl-2,3-dihydro-1,3-benzothiazol-2-ylidene]benzamide

>  <PriceCoeff>
1.00

>  <CAS>
868369-93-1

>  <MW>
409.46

>  <Description>
solid

>  <FSP3>
0.24

>  <clogP>
3.37

>  <TPSA>
104.58

>  <Acceptor>
4

>  <Donor>
0

>  <RotBonds>
4

>  <HAC>
29

>  <Collection>
General

>  <PPDS>
+

$$$$
F1814-0652
  Mrv2219 10102508112D          

 30 33  0  0  0  0            999 V2000
   -5.2608    2.1782    0.0000 C   0  0  0  0  0  0  0  0  0  0  0  0
   -6.0035    2.5142    0.0000 S   0  0  0  0  0  0  0  0  0  0  0  0
   -6.5636    1.8919    0.0000 C   0  0  0  0  0  0  0  0  0  0  0  0
   -4.5638    2.5847    0.0000 N   0  0  0  0  0  0  0  0  0  0  0  0
   -5.3355    1.3443    0.0000 N   0  0  0  0  0  0  0  0  0  0  0  0
   -1.7135    3.3689    0.0000 N   0  0  0  0  0  0  0  0  0  0  0  0
   -6.1404    1.1658    0.0000 C   0  0  0  0  0  0  0  0  0  0  0  0
   -4.5638    3.3813    0.0000 C   0  0  0  0  0  0  0  0  0  0  0  0
   -2.4271    3.7921    0.0000 C   0  0  0  0  0  0  0  0  0  0  0  0
   -1.6679    2.5474    0.0000 C   0  0  0  0  0  0  0  0  0  0  0  0
   -0.9460    3.6801    0.0000 C   0  0  0  0  0  0  0  0  0  0  0  0
   -3.1449    3.3813    0.0000 C   0  0  0  0  0  0  0  0  0  0  0  0
   -3.8543    3.7838    0.0000 C   0  0  0  0  0  0  0  0  0  0  0  0
   -7.4058    1.8877    0.0000 C   0  0  0  0  0  0  0  0  0  0  0  0
   -6.5636    0.4481    0.0000 C   0  0  0  0  0  0  0  0  0  0  0  0
   -5.2608    3.7796    0.0000 O   0  0  0  0  0  0  0  0  0  0  0  0
   -0.4190    3.0453    0.0000 C   0  0  0  0  0  0  0  0  0  0  0  0
   -0.8546    2.3483    0.0000 C   0  0  0  0  0  0  0  0  0  0  0  0
   -0.7344    4.4477    0.0000 O   0  0  0  0  0  0  0  0  0  0  0  0
   -2.2985    2.0288    0.0000 O   0  0  0  0  0  0  0  0  0  0  0  0
   -7.8083    1.1658    0.0000 C   0  0  0  0  0  0  0  0  0  0  0  0
   -7.3851    0.4439    0.0000 C   0  0  0  0  0  0  0  0  0  0  0  0
   -4.7380    0.8090    0.0000 C   0  0  0  0  0  0  0  0  0  0  0  0
   -2.4229    4.5970    0.0000 C   0  0  0  0  0  0  0  0  0  0  0  0
   -7.8083    2.5972    0.0000 O   0  0  0  0  0  0  0  0  0  0  0  0
   -6.1404   -0.2531    0.0000 O   0  0  0  0  0  0  0  0  0  0  0  0
   -3.8461    4.6095    0.0000 C   0  0  0  0  0  0  0  0  0  0  0  0
   -3.1324    5.0202    0.0000 C   0  0  0  0  0  0  0  0  0  0  0  0
   -6.4723   -0.9999    0.0000 C   0  0  0  0  0  0  0  0  0  0  0  0
   -8.6298    2.5972    0.0000 C   0  0  0  0  0  0  0  0  0  0  0  0
  2  1  1  0  0  0  0
  3  2  1  0  0  0  0
  4  1  2  0  0  0  0
  5  1  1  0  0  0  0
  6  9  1  0  0  0  0
  7  5  1  0  0  0  0
  8  4  1  0  0  0  0
  9 12  1  0  0  0  0
 10  6  1  0  0  0  0
 11  6  1  0  0  0  0
 12 13  2  0  0  0  0
 13  8  1  0  0  0  0
 14  3  1  0  0  0  0
 15  7  1  0  0  0  0
 16  8  2  0  0  0  0
 17 11  1  0  0  0  0
 18 10  1  0  0  0  0
 19 11  2  0  0  0  0
 20 10  2  0  0  0  0
 21 14  2  0  0  0  0
 22 15  2  0  0  0  0
 23  5  1  0  0  0  0
 24 28  1  0  0  0  0
 25 14  1  0  0  0  0
 26 15  1  0  0  0  0
 27 13  1  0  0  0  0
 28 27  2  0  0  0  0
 29 26  1  0  0  0  0
 30 25  1  0  0  0  0
  7  3  2  0  0  0  0
 21 22  1  0  0  0  0
 24  9  2  0  0  0  0
 17 18  1  0  0  0  0
M  END
>  <IDNUMBER>
F1814-0652

>  <Chemical_Name>
N-[(2Z)-4,7-dimethoxy-3-methyl-2,3-dihydro-1,3-benzothiazol-2-ylidene]-3-(2,5-dioxopyrrolidin-1-yl)benzamide

>  <PriceCoeff>
1.00

>  <CAS>
1164509-13-0

>  <MW>
425.46

>  <Description>
solid

>  <FSP3>
0.24

>  <clogP>
2.96

>  <TPSA>
113.81

>  <Acceptor>
5

>  <Donor>
0

>  <RotBonds>
5

>  <HAC>
30

>  <Collection>
General

>  <PPDS>
+

$$$$
F1814-0653
  Mrv2219 10102508112D          

 28 31  0  0  0  0            999 V2000
   -5.2567    2.1765    0.0000 C   0  0  0  0  0  0  0  0  0  0  0  0
   -5.9988    2.5205    0.0000 S   0  0  0  0  0  0  0  0  0  0  0  0
   -4.5602    2.5827    0.0000 N   0  0  0  0  0  0  0  0  0  0  0  0
   -6.5585    1.8904    0.0000 C   0  0  0  0  0  0  0  0  0  0  0  0
   -5.3313    1.3432    0.0000 N   0  0  0  0  0  0  0  0  0  0  0  0
   -1.7121    3.3662    0.0000 N   0  0  0  0  0  0  0  0  0  0  0  0
   -6.1356    1.1691    0.0000 C   0  0  0  0  0  0  0  0  0  0  0  0
   -4.5602    3.3786    0.0000 C   0  0  0  0  0  0  0  0  0  0  0  0
   -2.4252    3.7891    0.0000 C   0  0  0  0  0  0  0  0  0  0  0  0
   -1.6665    2.5454    0.0000 C   0  0  0  0  0  0  0  0  0  0  0  0
   -0.9452    3.6772    0.0000 C   0  0  0  0  0  0  0  0  0  0  0  0
   -3.1423    3.3786    0.0000 C   0  0  0  0  0  0  0  0  0  0  0  0
   -3.8513    3.7809    0.0000 C   0  0  0  0  0  0  0  0  0  0  0  0
   -7.4000    1.8904    0.0000 C   0  0  0  0  0  0  0  0  0  0  0  0
   -6.5585    0.4560    0.0000 C   0  0  0  0  0  0  0  0  0  0  0  0
   -5.2567    3.7767    0.0000 O   0  0  0  0  0  0  0  0  0  0  0  0
   -0.4186    3.0429    0.0000 C   0  0  0  0  0  0  0  0  0  0  0  0
   -0.8540    2.3464    0.0000 C   0  0  0  0  0  0  0  0  0  0  0  0
   -0.7338    4.4442    0.0000 O   0  0  0  0  0  0  0  0  0  0  0  0
   -2.2967    2.0272    0.0000 O   0  0  0  0  0  0  0  0  0  0  0  0
   -7.8146    1.1649    0.0000 C   0  0  0  0  0  0  0  0  0  0  0  0
   -7.3917    0.4435    0.0000 C   0  0  0  0  0  0  0  0  0  0  0  0
   -4.7467    0.8084    0.0000 C   0  0  0  0  0  0  0  0  0  0  0  0
   -7.8022    2.5952    0.0000 Cl  0  0  0  0  0  0  0  0  0  0  0  0
   -2.4211    4.5934    0.0000 C   0  0  0  0  0  0  0  0  0  0  0  0
   -3.8430    4.6058    0.0000 C   0  0  0  0  0  0  0  0  0  0  0  0
   -3.1299    5.0163    0.0000 C   0  0  0  0  0  0  0  0  0  0  0  0
   -6.1480   -0.2529    0.0000 C   0  0  0  0  0  0  0  0  0  0  0  0
  2  1  1  0  0  0  0
  3  1  2  0  0  0  0
  4  2  1  0  0  0  0
  5  1  1  0  0  0  0
  6  9  1  0  0  0  0
  7  5  1  0  0  0  0
  8  3  1  0  0  0  0
  9 12  1  0  0  0  0
 10  6  1  0  0  0  0
 11  6  1  0  0  0  0
 12 13  2  0  0  0  0
 13  8  1  0  0  0  0
 14  4  1  0  0  0  0
 15  7  1  0  0  0  0
 16  8  2  0  0  0  0
 17 11  1  0  0  0  0
 18 10  1  0  0  0  0
 19 11  2  0  0  0  0
 20 10  2  0  0  0  0
 21 14  2  0  0  0  0
 22 15  2  0  0  0  0
 23  5  1  0  0  0  0
 24 14  1  0  0  0  0
 25 27  1  0  0  0  0
 26 13  1  0  0  0  0
 27 26  2  0  0  0  0
 28 15  1  0  0  0  0
  7  4  2  0  0  0  0
 21 22  1  0  0  0  0
 25  9  2  0  0  0  0
 17 18  1  0  0  0  0
M  END
>  <IDNUMBER>
F1814-0653

>  <Chemical_Name>
N-[(2Z)-7-chloro-3,4-dimethyl-2,3-dihydro-1,3-benzothiazol-2-ylidene]-3-(2,5-dioxopyrrolidin-1-yl)benzamide

>  <PriceCoeff>
1.00

>  <CAS>
868369-95-3

>  <MW>
413.88

>  <Description>
solid

>  <FSP3>
0.20

>  <clogP>
4.16

>  <TPSA>
95.35

>  <Acceptor>
3

>  <Donor>
0

>  <RotBonds>
3

>  <HAC>
28

>  <Collection>
General

>  <PPDS>
+

$$$$
F1814-0657
  Mrv2219 10102508112D          

 29 32  0  0  0  0            999 V2000
   -5.2608    2.1782    0.0000 C   0  0  0  0  0  0  0  0  0  0  0  0
   -4.5638    2.5847    0.0000 N   0  0  0  0  0  0  0  0  0  0  0  0
   -5.3355    1.3525    0.0000 N   0  0  0  0  0  0  0  0  0  0  0  0
   -6.0035    2.5225    0.0000 S   0  0  0  0  0  0  0  0  0  0  0  0
   -1.7135    3.3689    0.0000 N   0  0  0  0  0  0  0  0  0  0  0  0
   -6.1404    1.1783    0.0000 C   0  0  0  0  0  0  0  0  0  0  0  0
   -6.5636    1.8919    0.0000 C   0  0  0  0  0  0  0  0  0  0  0  0
   -4.5638    3.3813    0.0000 C   0  0  0  0  0  0  0  0  0  0  0  0
   -2.4271    3.7921    0.0000 C   0  0  0  0  0  0  0  0  0  0  0  0
   -1.6679    2.5474    0.0000 C   0  0  0  0  0  0  0  0  0  0  0  0
   -0.9460    3.6801    0.0000 C   0  0  0  0  0  0  0  0  0  0  0  0
   -7.4058    1.8919    0.0000 C   0  0  0  0  0  0  0  0  0  0  0  0
   -3.1449    3.3813    0.0000 C   0  0  0  0  0  0  0  0  0  0  0  0
   -3.8543    3.7838    0.0000 C   0  0  0  0  0  0  0  0  0  0  0  0
   -6.5636    0.4563    0.0000 C   0  0  0  0  0  0  0  0  0  0  0  0
   -7.8208    1.1658    0.0000 C   0  0  0  0  0  0  0  0  0  0  0  0
   -5.2608    3.7796    0.0000 O   0  0  0  0  0  0  0  0  0  0  0  0
   -0.8546    2.3483    0.0000 C   0  0  0  0  0  0  0  0  0  0  0  0
   -0.4190    3.0453    0.0000 C   0  0  0  0  0  0  0  0  0  0  0  0
   -2.2985    2.0288    0.0000 O   0  0  0  0  0  0  0  0  0  0  0  0
   -0.7344    4.4477    0.0000 O   0  0  0  0  0  0  0  0  0  0  0  0
   -7.3976    0.4481    0.0000 C   0  0  0  0  0  0  0  0  0  0  0  0
   -4.7505    0.8090    0.0000 C   0  0  0  0  0  0  0  0  0  0  0  0
   -2.4229    4.5970    0.0000 C   0  0  0  0  0  0  0  0  0  0  0  0
   -7.8083    2.5972    0.0000 C   0  0  0  0  0  0  0  0  0  0  0  0
   -3.8461    4.6095    0.0000 C   0  0  0  0  0  0  0  0  0  0  0  0
   -3.1324    5.0202    0.0000 C   0  0  0  0  0  0  0  0  0  0  0  0
   -7.8041   -0.2656    0.0000 C   0  0  0  0  0  0  0  0  0  0  0  0
   -4.9165    0.0124    0.0000 C   0  0  0  0  0  0  0  0  0  0  0  0
  2  1  2  0  0  0  0
  3  1  1  0  0  0  0
  4  1  1  0  0  0  0
  5  9  1  0  0  0  0
  6  3  1  0  0  0  0
  7  4  1  0  0  0  0
  8  2  1  0  0  0  0
  9 13  1  0  0  0  0
 10  5  1  0  0  0  0
 11  5  1  0  0  0  0
 12  7  1  0  0  0  0
 13 14  2  0  0  0  0
 14  8  1  0  0  0  0
 15  6  1  0  0  0  0
 16 12  2  0  0  0  0
 17  8  2  0  0  0  0
 18 10  1  0  0  0  0
 19 11  1  0  0  0  0
 20 10  2  0  0  0  0
 21 11  2  0  0  0  0
 22 15  2  0  0  0  0
 23  3  1  0  0  0  0
 24 27  1  0  0  0  0
 25 12  1  0  0  0  0
 26 14  1  0  0  0  0
 27 26  2  0  0  0  0
 28 22  1  0  0  0  0
 29 23  1  0  0  0  0
  6  7  2  0  0  0  0
 16 22  1  0  0  0  0
 24  9  2  0  0  0  0
 19 18  1  0  0  0  0
M  END
>  <IDNUMBER>
F1814-0657

>  <Chemical_Name>
3-(2,5-dioxopyrrolidin-1-yl)-N-[(2Z)-3-ethyl-5,7-dimethyl-2,3-dihydro-1,3-benzothiazol-2-ylidene]benzamide

>  <PriceCoeff>
1.00

>  <CAS>
868369-96-4

>  <MW>
407.49

>  <Description>
solid

>  <FSP3>
0.27

>  <clogP>
4.48

>  <TPSA>
95.35

>  <Acceptor>
3

>  <Donor>
0

>  <RotBonds>
4

>  <HAC>
29

>  <Collection>
General

>  <PPDS>
+

$$$$
F1814-0659
  Mrv2219 10102508112D          

 30 33  0  0  0  0            999 V2000
   -5.2442    2.1765    0.0000 C   0  0  0  0  0  0  0  0  0  0  0  0
   -4.5602    2.5827    0.0000 N   0  0  0  0  0  0  0  0  0  0  0  0
   -5.9946    2.5123    0.0000 S   0  0  0  0  0  0  0  0  0  0  0  0
   -5.3313    1.3515    0.0000 N   0  0  0  0  0  0  0  0  0  0  0  0
   -1.7121    3.3662    0.0000 N   0  0  0  0  0  0  0  0  0  0  0  0
   -6.5585    1.8904    0.0000 C   0  0  0  0  0  0  0  0  0  0  0  0
   -6.1231    1.1691    0.0000 C   0  0  0  0  0  0  0  0  0  0  0  0
   -4.5602    3.3786    0.0000 C   0  0  0  0  0  0  0  0  0  0  0  0
   -2.4252    3.7891    0.0000 C   0  0  0  0  0  0  0  0  0  0  0  0
   -1.6665    2.5454    0.0000 C   0  0  0  0  0  0  0  0  0  0  0  0
   -0.9452    3.6772    0.0000 C   0  0  0  0  0  0  0  0  0  0  0  0
   -3.1423    3.3786    0.0000 C   0  0  0  0  0  0  0  0  0  0  0  0
   -3.8513    3.7809    0.0000 C   0  0  0  0  0  0  0  0  0  0  0  0
   -6.5543    0.4560    0.0000 C   0  0  0  0  0  0  0  0  0  0  0  0
   -7.3917    1.8862    0.0000 C   0  0  0  0  0  0  0  0  0  0  0  0
   -5.2442    3.7767    0.0000 O   0  0  0  0  0  0  0  0  0  0  0  0
   -0.4186    3.0429    0.0000 C   0  0  0  0  0  0  0  0  0  0  0  0
   -0.8540    2.3464    0.0000 C   0  0  0  0  0  0  0  0  0  0  0  0
   -0.7338    4.4442    0.0000 O   0  0  0  0  0  0  0  0  0  0  0  0
   -2.2967    2.0272    0.0000 O   0  0  0  0  0  0  0  0  0  0  0  0
   -7.3793    0.4477    0.0000 C   0  0  0  0  0  0  0  0  0  0  0  0
   -7.8022    1.1649    0.0000 C   0  0  0  0  0  0  0  0  0  0  0  0
   -4.7343    0.8167    0.0000 C   0  0  0  0  0  0  0  0  0  0  0  0
   -2.4211    4.5934    0.0000 C   0  0  0  0  0  0  0  0  0  0  0  0
   -6.1356   -0.2487    0.0000 O   0  0  0  0  0  0  0  0  0  0  0  0
   -3.8430    4.6058    0.0000 C   0  0  0  0  0  0  0  0  0  0  0  0
   -3.1299    5.0163    0.0000 C   0  0  0  0  0  0  0  0  0  0  0  0
   -7.8022    2.5952    0.0000 C   0  0  0  0  0  0  0  0  0  0  0  0
   -6.6580   -0.9245    0.0000 C   0  0  0  0  0  0  0  0  0  0  0  0
   -4.9084    0.0207    0.0000 C   0  0  0  0  0  0  0  0  0  0  0  0
  2  1  2  0  0  0  0
  3  1  1  0  0  0  0
  4  1  1  0  0  0  0
  5  9  1  0  0  0  0
  6  3  1  0  0  0  0
  7  4  1  0  0  0  0
  8  2  1  0  0  0  0
  9 12  1  0  0  0  0
 10  5  1  0  0  0  0
 11  5  1  0  0  0  0
 12 13  2  0  0  0  0
 13  8  1  0  0  0  0
 14  7  1  0  0  0  0
 15  6  1  0  0  0  0
 16  8  2  0  0  0  0
 17 11  1  0  0  0  0
 18 10  1  0  0  0  0
 19 11  2  0  0  0  0
 20 10  2  0  0  0  0
 21 14  2  0  0  0  0
 22 15  2  0  0  0  0
 23  4  1  0  0  0  0
 24 27  1  0  0  0  0
 25 14  1  0  0  0  0
 26 13  1  0  0  0  0
 27 26  2  0  0  0  0
 28 15  1  0  0  0  0
 29 25  1  0  0  0  0
 30 23  1  0  0  0  0
  7  6  2  0  0  0  0
 22 21  1  0  0  0  0
 24  9  2  0  0  0  0
 17 18  1  0  0  0  0
M  END
>  <IDNUMBER>
F1814-0659

>  <Chemical_Name>
3-(2,5-dioxopyrrolidin-1-yl)-N-[(2Z)-3-ethyl-4-methoxy-7-methyl-2,3-dihydro-1,3-benzothiazol-2-ylidene]benzamide

>  <PriceCoeff>
1.00

>  <CAS>
868369-97-5

>  <MW>
423.48

>  <Description>
solid

>  <FSP3>
0.27

>  <clogP>
3.90

>  <TPSA>
104.58

>  <Acceptor>
4

>  <Donor>
0

>  <RotBonds>
5

>  <HAC>
30

>  <Collection>
General

>  <PPDS>
+

$$$$
F1814-0660
  Mrv2219 10102508112D          

 31 34  0  0  0  0            999 V2000
   -5.2567    2.1848    0.0000 C   0  0  0  0  0  0  0  0  0  0  0  0
   -5.9988    2.5205    0.0000 S   0  0  0  0  0  0  0  0  0  0  0  0
   -6.5585    1.8986    0.0000 C   0  0  0  0  0  0  0  0  0  0  0  0
   -4.5602    2.5827    0.0000 N   0  0  0  0  0  0  0  0  0  0  0  0
   -5.3355    1.3432    0.0000 N   0  0  0  0  0  0  0  0  0  0  0  0
   -1.7121    3.3662    0.0000 N   0  0  0  0  0  0  0  0  0  0  0  0
   -6.1356    1.1773    0.0000 C   0  0  0  0  0  0  0  0  0  0  0  0
   -4.5602    3.3786    0.0000 C   0  0  0  0  0  0  0  0  0  0  0  0
   -2.4252    3.7891    0.0000 C   0  0  0  0  0  0  0  0  0  0  0  0
   -1.6665    2.5454    0.0000 C   0  0  0  0  0  0  0  0  0  0  0  0
   -0.9452    3.6772    0.0000 C   0  0  0  0  0  0  0  0  0  0  0  0
   -3.1423    3.3786    0.0000 C   0  0  0  0  0  0  0  0  0  0  0  0
   -3.8513    3.7809    0.0000 C   0  0  0  0  0  0  0  0  0  0  0  0
   -7.4041    1.8986    0.0000 C   0  0  0  0  0  0  0  0  0  0  0  0
   -6.5585    0.4560    0.0000 C   0  0  0  0  0  0  0  0  0  0  0  0
   -5.2567    3.7767    0.0000 O   0  0  0  0  0  0  0  0  0  0  0  0
   -0.4186    3.0429    0.0000 C   0  0  0  0  0  0  0  0  0  0  0  0
   -0.8540    2.3464    0.0000 C   0  0  0  0  0  0  0  0  0  0  0  0
   -0.7338    4.4442    0.0000 O   0  0  0  0  0  0  0  0  0  0  0  0
   -2.2967    2.0272    0.0000 O   0  0  0  0  0  0  0  0  0  0  0  0
   -7.8146    1.1773    0.0000 C   0  0  0  0  0  0  0  0  0  0  0  0
   -7.4041    0.4477    0.0000 C   0  0  0  0  0  0  0  0  0  0  0  0
   -4.7467    0.8043    0.0000 C   0  0  0  0  0  0  0  0  0  0  0  0
   -2.4211    4.5934    0.0000 C   0  0  0  0  0  0  0  0  0  0  0  0
   -7.8022    2.6076    0.0000 O   0  0  0  0  0  0  0  0  0  0  0  0
   -6.1563   -0.2487    0.0000 O   0  0  0  0  0  0  0  0  0  0  0  0
   -3.8430    4.6058    0.0000 C   0  0  0  0  0  0  0  0  0  0  0  0
   -3.1299    5.0163    0.0000 C   0  0  0  0  0  0  0  0  0  0  0  0
   -6.4839   -0.9992    0.0000 C   0  0  0  0  0  0  0  0  0  0  0  0
   -8.6312    2.6118    0.0000 C   0  0  0  0  0  0  0  0  0  0  0  0
   -4.9208    0.0083    0.0000 C   0  0  0  0  0  0  0  0  0  0  0  0
  2  1  1  0  0  0  0
  3  2  1  0  0  0  0
  4  1  2  0  0  0  0
  5  1  1  0  0  0  0
  6  9  1  0  0  0  0
  7  5  1  0  0  0  0
  8  4  1  0  0  0  0
  9 12  1  0  0  0  0
 10  6  1  0  0  0  0
 11  6  1  0  0  0  0
 12 13  2  0  0  0  0
 13  8  1  0  0  0  0
 14  3  1  0  0  0  0
 15  7  1  0  0  0  0
 16  8  2  0  0  0  0
 17 11  1  0  0  0  0
 18 10  1  0  0  0  0
 19 11  2  0  0  0  0
 20 10  2  0  0  0  0
 21 14  2  0  0  0  0
 22 15  2  0  0  0  0
 23  5  1  0  0  0  0
 24 28  1  0  0  0  0
 25 14  1  0  0  0  0
 26 15  1  0  0  0  0
 27 13  1  0  0  0  0
 28 27  2  0  0  0  0
 29 26  1  0  0  0  0
 30 25  1  0  0  0  0
 31 23  1  0  0  0  0
  7  3  2  0  0  0  0
 21 22  1  0  0  0  0
 24  9  2  0  0  0  0
 17 18  1  0  0  0  0
M  END
>  <IDNUMBER>
F1814-0660

>  <Chemical_Name>
3-(2,5-dioxopyrrolidin-1-yl)-N-[(2Z)-3-ethyl-4,7-dimethoxy-2,3-dihydro-1,3-benzothiazol-2-ylidene]benzamide

>  <PriceCoeff>
1.00

>  <CAS>
868369-98-6

>  <MW>
439.48

>  <Description>
solid

>  <FSP3>
0.27

>  <clogP>
3.49

>  <TPSA>
113.81

>  <Acceptor>
5

>  <Donor>
0

>  <RotBonds>
6

>  <HAC>
31

>  <Collection>
General

>  <PPDS>
+

$$$$
F1814-1143
  Mrv2219 10102508112D          

 23 25  0  0  0  0            999 V2000
   -5.2484    2.1730    0.0000 C   0  0  0  0  0  0  0  0  0  0  0  0
   -3.8452    4.5986    0.0000 N   0  0  0  0  0  0  0  0  0  0  0  0
   -5.3229    1.3411    0.0000 N   0  0  0  0  0  0  0  0  0  0  0  0
   -4.5530    2.5786    0.0000 N   0  0  0  0  0  0  0  0  0  0  0  0
   -5.9894    2.5041    0.0000 S   0  0  0  0  0  0  0  0  0  0  0  0
   -6.1384    1.1631    0.0000 C   0  0  0  0  0  0  0  0  0  0  0  0
   -6.5481    1.8833    0.0000 C   0  0  0  0  0  0  0  0  0  0  0  0
   -6.5481    0.4470    0.0000 C   0  0  0  0  0  0  0  0  0  0  0  0
   -4.5033    5.0705    0.0000 C   0  0  0  0  0  0  0  0  0  0  0  0
   -3.1789    5.0705    0.0000 C   0  0  0  0  0  0  0  0  0  0  0  0
   -4.5530    3.3734    0.0000 C   0  0  0  0  0  0  0  0  0  0  0  0
   -3.8452    3.7749    0.0000 C   0  0  0  0  0  0  0  0  0  0  0  0
   -7.3925    1.8833    0.0000 C   0  0  0  0  0  0  0  0  0  0  0  0
   -7.3884    0.4429    0.0000 C   0  0  0  0  0  0  0  0  0  0  0  0
   -7.8023    1.1631    0.0000 C   0  0  0  0  0  0  0  0  0  0  0  0
   -3.4355    5.8610    0.0000 C   0  0  0  0  0  0  0  0  0  0  0  0
   -4.2550    5.8528    0.0000 C   0  0  0  0  0  0  0  0  0  0  0  0
   -2.3966    4.8097    0.0000 O   0  0  0  0  0  0  0  0  0  0  0  0
   -5.2856    4.8221    0.0000 O   0  0  0  0  0  0  0  0  0  0  0  0
   -5.2484    3.7707    0.0000 O   0  0  0  0  0  0  0  0  0  0  0  0
   -6.1384   -0.2525    0.0000 Cl  0  0  0  0  0  0  0  0  0  0  0  0
   -4.7393    0.8030    0.0000 C   0  0  0  0  0  0  0  0  0  0  0  0
   -8.5970    1.1548    0.0000 Cl  0  0  0  0  0  0  0  0  0  0  0  0
  2 12  1  0  0  0  0
  3  1  1  0  0  0  0
  4  1  2  0  0  0  0
  5  1  1  0  0  0  0
  6  3  1  0  0  0  0
  7  5  1  0  0  0  0
  8  6  1  0  0  0  0
  9  2  1  0  0  0  0
 10  2  1  0  0  0  0
 11  4  1  0  0  0  0
 12 11  1  0  0  0  0
 13  7  1  0  0  0  0
 14  8  2  0  0  0  0
 15 13  2  0  0  0  0
 16 10  1  0  0  0  0
 17  9  1  0  0  0  0
 18 10  2  0  0  0  0
 19  9  2  0  0  0  0
 20 11  2  0  0  0  0
 21  8  1  0  0  0  0
 22  3  1  0  0  0  0
 23 15  1  0  0  0  0
  6  7  2  0  0  0  0
 15 14  1  0  0  0  0
 16 17  1  0  0  0  0
M  END
>  <IDNUMBER>
F1814-1143

>  <Chemical_Name>
N-[(2Z)-4,6-dichloro-3-methyl-2,3-dihydro-1,3-benzothiazol-2-ylidene]-2-(2,5-dioxopyrrolidin-1-yl)acetamide

>  <PriceCoeff>
1.00

>  <CAS>
868370-69-8

>  <MW>
372.23

>  <Description>
solid

>  <FSP3>
0.29

>  <clogP>
4.20

>  <TPSA>
95.35

>  <Acceptor>
3

>  <Donor>
0

>  <RotBonds>
3

>  <HAC>
23

>  <Collection>
General

>  <PPDS>
+

$$$$
F1814-1144
  Mrv2219 10102508112D          

 23 25  0  0  0  0            999 V2000
   -5.2513    2.1742    0.0000 C   0  0  0  0  0  0  0  0  0  0  0  0
   -5.3258    1.3418    0.0000 N   0  0  0  0  0  0  0  0  0  0  0  0
   -5.9926    2.5055    0.0000 S   0  0  0  0  0  0  0  0  0  0  0  0
   -3.8473    4.6011    0.0000 N   0  0  0  0  0  0  0  0  0  0  0  0
   -4.5555    2.5801    0.0000 N   0  0  0  0  0  0  0  0  0  0  0  0
   -6.1292    1.1679    0.0000 C   0  0  0  0  0  0  0  0  0  0  0  0
   -6.5516    1.8967    0.0000 C   0  0  0  0  0  0  0  0  0  0  0  0
   -3.1805    5.0732    0.0000 C   0  0  0  0  0  0  0  0  0  0  0  0
   -4.5058    5.0732    0.0000 C   0  0  0  0  0  0  0  0  0  0  0  0
   -4.5555    3.3751    0.0000 C   0  0  0  0  0  0  0  0  0  0  0  0
   -7.3841    1.8967    0.0000 C   0  0  0  0  0  0  0  0  0  0  0  0
   -3.8473    3.7770    0.0000 C   0  0  0  0  0  0  0  0  0  0  0  0
   -6.5516    0.4472    0.0000 C   0  0  0  0  0  0  0  0  0  0  0  0
   -7.7940    1.1679    0.0000 C   0  0  0  0  0  0  0  0  0  0  0  0
   -4.2573    5.8559    0.0000 C   0  0  0  0  0  0  0  0  0  0  0  0
   -3.4373    5.8642    0.0000 C   0  0  0  0  0  0  0  0  0  0  0  0
   -5.2885    4.8247    0.0000 O   0  0  0  0  0  0  0  0  0  0  0  0
   -2.3979    4.8123    0.0000 O   0  0  0  0  0  0  0  0  0  0  0  0
   -5.2388    3.7728    0.0000 O   0  0  0  0  0  0  0  0  0  0  0  0
   -7.3841    0.4431    0.0000 C   0  0  0  0  0  0  0  0  0  0  0  0
   -4.7418    0.8076    0.0000 C   0  0  0  0  0  0  0  0  0  0  0  0
   -7.7940    2.5925    0.0000 C   0  0  0  0  0  0  0  0  0  0  0  0
   -7.7899   -0.2651    0.0000 C   0  0  0  0  0  0  0  0  0  0  0  0
  2  1  1  0  0  0  0
  3  1  1  0  0  0  0
  4 12  1  0  0  0  0
  5  1  2  0  0  0  0
  6  2  1  0  0  0  0
  7  3  1  0  0  0  0
  8  4  1  0  0  0  0
  9  4  1  0  0  0  0
 10  5  1  0  0  0  0
 11  7  1  0  0  0  0
 12 10  1  0  0  0  0
 13  6  1  0  0  0  0
 14 11  2  0  0  0  0
 15  9  1  0  0  0  0
 16  8  1  0  0  0  0
 17  9  2  0  0  0  0
 18  8  2  0  0  0  0
 19 10  2  0  0  0  0
 20 13  2  0  0  0  0
 21  2  1  0  0  0  0
 22 11  1  0  0  0  0
 23 20  1  0  0  0  0
  6  7  2  0  0  0  0
 14 20  1  0  0  0  0
 16 15  1  0  0  0  0
M  END
>  <IDNUMBER>
F1814-1144

>  <Chemical_Name>
2-(2,5-dioxopyrrolidin-1-yl)-N-[(2Z)-3,5,7-trimethyl-2,3-dihydro-1,3-benzothiazol-2-ylidene]acetamide

>  <PriceCoeff>
1.00

>  <CAS>
868370-70-1

>  <MW>
331.39

>  <Description>
solid

>  <FSP3>
0.38

>  <clogP>
3.78

>  <TPSA>
95.35

>  <Acceptor>
3

>  <Donor>
0

>  <RotBonds>
3

>  <HAC>
23

>  <Collection>
General

>  <PPDS>
+

$$$$
F1814-1145
  Mrv2219 10102508112D          

 23 25  0  0  0  0            999 V2000
   -5.2513    2.1742    0.0000 C   0  0  0  0  0  0  0  0  0  0  0  0
   -5.9926    2.5055    0.0000 S   0  0  0  0  0  0  0  0  0  0  0  0
   -3.8473    4.6011    0.0000 N   0  0  0  0  0  0  0  0  0  0  0  0
   -5.3258    1.3418    0.0000 N   0  0  0  0  0  0  0  0  0  0  0  0
   -4.5555    2.5801    0.0000 N   0  0  0  0  0  0  0  0  0  0  0  0
   -6.5516    1.8843    0.0000 C   0  0  0  0  0  0  0  0  0  0  0  0
   -6.1292    1.1679    0.0000 C   0  0  0  0  0  0  0  0  0  0  0  0
   -3.1805    5.0732    0.0000 C   0  0  0  0  0  0  0  0  0  0  0  0
   -4.5058    5.0732    0.0000 C   0  0  0  0  0  0  0  0  0  0  0  0
   -4.5555    3.3751    0.0000 C   0  0  0  0  0  0  0  0  0  0  0  0
   -3.8473    3.7770    0.0000 C   0  0  0  0  0  0  0  0  0  0  0  0
   -7.3923    1.8843    0.0000 C   0  0  0  0  0  0  0  0  0  0  0  0
   -6.5516    0.4472    0.0000 C   0  0  0  0  0  0  0  0  0  0  0  0
   -3.4373    5.8642    0.0000 C   0  0  0  0  0  0  0  0  0  0  0  0
   -4.2573    5.8559    0.0000 C   0  0  0  0  0  0  0  0  0  0  0  0
   -2.3979    4.8123    0.0000 O   0  0  0  0  0  0  0  0  0  0  0  0
   -5.2885    4.8247    0.0000 O   0  0  0  0  0  0  0  0  0  0  0  0
   -5.2513    3.7728    0.0000 O   0  0  0  0  0  0  0  0  0  0  0  0
   -7.8065    1.1637    0.0000 C   0  0  0  0  0  0  0  0  0  0  0  0
   -7.3841    0.4431    0.0000 C   0  0  0  0  0  0  0  0  0  0  0  0
   -4.7418    0.8034    0.0000 C   0  0  0  0  0  0  0  0  0  0  0  0
   -7.7940    2.5925    0.0000 C   0  0  0  0  0  0  0  0  0  0  0  0
   -6.1417   -0.2526    0.0000 C   0  0  0  0  0  0  0  0  0  0  0  0
  2  1  1  0  0  0  0
  3 11  1  0  0  0  0
  4  1  1  0  0  0  0
  5  1  2  0  0  0  0
  6  2  1  0  0  0  0
  7  4  1  0  0  0  0
  8  3  1  0  0  0  0
  9  3  1  0  0  0  0
 10  5  1  0  0  0  0
 11 10  1  0  0  0  0
 12  6  1  0  0  0  0
 13  7  1  0  0  0  0
 14  8  1  0  0  0  0
 15  9  1  0  0  0  0
 16  8  2  0  0  0  0
 17  9  2  0  0  0  0
 18 10  2  0  0  0  0
 19 12  2  0  0  0  0
 20 13  2  0  0  0  0
 21  4  1  0  0  0  0
 22 12  1  0  0  0  0
 23 13  1  0  0  0  0
  7  6  2  0  0  0  0
 19 20  1  0  0  0  0
 14 15  1  0  0  0  0
M  END
>  <IDNUMBER>
F1814-1145

>  <Chemical_Name>
2-(2,5-dioxopyrrolidin-1-yl)-N-[(2Z)-3,4,7-trimethyl-2,3-dihydro-1,3-benzothiazol-2-ylidene]acetamide

>  <PriceCoeff>
1.00

>  <CAS>
1164563-63-6

>  <MW>
331.39

>  <Description>
solid

>  <FSP3>
0.38

>  <clogP>
3.78

>  <TPSA>
95.35

>  <Acceptor>
3

>  <Donor>
0

>  <RotBonds>
3

>  <HAC>
23

>  <Collection>
General

>  <PPDS>
+

$$$$
F1814-1146
  Mrv2219 10102508112D          

 24 26  0  0  0  0            999 V2000
   -5.2441    2.1847    0.0000 C   0  0  0  0  0  0  0  0  0  0  0  0
   -5.9987    2.5205    0.0000 S   0  0  0  0  0  0  0  0  0  0  0  0
   -5.3312    1.3514    0.0000 N   0  0  0  0  0  0  0  0  0  0  0  0
   -3.8512    4.6058    0.0000 N   0  0  0  0  0  0  0  0  0  0  0  0
   -6.5583    1.8986    0.0000 C   0  0  0  0  0  0  0  0  0  0  0  0
   -4.5601    2.5827    0.0000 N   0  0  0  0  0  0  0  0  0  0  0  0
   -6.1355    1.1773    0.0000 C   0  0  0  0  0  0  0  0  0  0  0  0
   -3.1838    5.0783    0.0000 C   0  0  0  0  0  0  0  0  0  0  0  0
   -4.5103    5.0783    0.0000 C   0  0  0  0  0  0  0  0  0  0  0  0
   -4.5601    3.3786    0.0000 C   0  0  0  0  0  0  0  0  0  0  0  0
   -3.8512    3.7808    0.0000 C   0  0  0  0  0  0  0  0  0  0  0  0
   -6.5583    0.4560    0.0000 C   0  0  0  0  0  0  0  0  0  0  0  0
   -7.3916    1.8986    0.0000 C   0  0  0  0  0  0  0  0  0  0  0  0
   -3.4408    5.8701    0.0000 C   0  0  0  0  0  0  0  0  0  0  0  0
   -4.2616    5.8619    0.0000 C   0  0  0  0  0  0  0  0  0  0  0  0
   -2.4003    4.8172    0.0000 O   0  0  0  0  0  0  0  0  0  0  0  0
   -5.2938    4.8296    0.0000 O   0  0  0  0  0  0  0  0  0  0  0  0
   -5.2441    3.7766    0.0000 O   0  0  0  0  0  0  0  0  0  0  0  0
   -7.3791    0.4560    0.0000 C   0  0  0  0  0  0  0  0  0  0  0  0
   -7.8020    1.1773    0.0000 C   0  0  0  0  0  0  0  0  0  0  0  0
   -4.7466    0.8166    0.0000 C   0  0  0  0  0  0  0  0  0  0  0  0
   -6.1479   -0.2405    0.0000 O   0  0  0  0  0  0  0  0  0  0  0  0
   -7.8020    2.5993    0.0000 C   0  0  0  0  0  0  0  0  0  0  0  0
   -6.6702   -0.9203    0.0000 C   0  0  0  0  0  0  0  0  0  0  0  0
  2  1  1  0  0  0  0
  3  1  1  0  0  0  0
  4 11  1  0  0  0  0
  5  2  1  0  0  0  0
  6  1  2  0  0  0  0
  7  3  1  0  0  0  0
  8  4  1  0  0  0  0
  9  4  1  0  0  0  0
 10  6  1  0  0  0  0
 11 10  1  0  0  0  0
 12  7  1  0  0  0  0
 13  5  1  0  0  0  0
 14  8  1  0  0  0  0
 15  9  1  0  0  0  0
 16  8  2  0  0  0  0
 17  9  2  0  0  0  0
 18 10  2  0  0  0  0
 19 12  2  0  0  0  0
 20 13  2  0  0  0  0
 21  3  1  0  0  0  0
 22 12  1  0  0  0  0
 23 13  1  0  0  0  0
 24 22  1  0  0  0  0
  7  5  2  0  0  0  0
 20 19  1  0  0  0  0
 14 15  1  0  0  0  0
M  END
>  <IDNUMBER>
F1814-1146

>  <Chemical_Name>
2-(2,5-dioxopyrrolidin-1-yl)-N-[(2Z)-4-methoxy-3,7-dimethyl-2,3-dihydro-1,3-benzothiazol-2-ylidene]acetamide

>  <PriceCoeff>
1.00

>  <CAS>
868370-72-3

>  <MW>
347.39

>  <Description>
solid

>  <FSP3>
0.38

>  <clogP>
3.20

>  <TPSA>
104.58

>  <Acceptor>
4

>  <Donor>
0

>  <RotBonds>
4

>  <HAC>
24

>  <Collection>
General

>  <PPDS>
+

$$$$
F1814-1147
  Mrv2219 10102508112D          

 25 27  0  0  0  0            999 V2000
   -5.2636    2.1793    0.0000 C   0  0  0  0  0  0  0  0  0  0  0  0
   -6.0067    2.5156    0.0000 S   0  0  0  0  0  0  0  0  0  0  0  0
   -6.5671    1.8930    0.0000 C   0  0  0  0  0  0  0  0  0  0  0  0
   -5.3383    1.3450    0.0000 N   0  0  0  0  0  0  0  0  0  0  0  0
   -3.8564    4.6120    0.0000 N   0  0  0  0  0  0  0  0  0  0  0  0
   -6.1437    1.1664    0.0000 C   0  0  0  0  0  0  0  0  0  0  0  0
   -4.5663    2.5861    0.0000 N   0  0  0  0  0  0  0  0  0  0  0  0
   -3.1881    5.0852    0.0000 C   0  0  0  0  0  0  0  0  0  0  0  0
   -4.5164    5.0852    0.0000 C   0  0  0  0  0  0  0  0  0  0  0  0
   -4.5663    3.3831    0.0000 C   0  0  0  0  0  0  0  0  0  0  0  0
   -3.8564    3.7858    0.0000 C   0  0  0  0  0  0  0  0  0  0  0  0
   -7.4097    1.8888    0.0000 C   0  0  0  0  0  0  0  0  0  0  0  0
   -6.5671    0.4484    0.0000 C   0  0  0  0  0  0  0  0  0  0  0  0
   -3.4454    5.8781    0.0000 C   0  0  0  0  0  0  0  0  0  0  0  0
   -4.2674    5.8698    0.0000 C   0  0  0  0  0  0  0  0  0  0  0  0
   -2.4035    4.8236    0.0000 O   0  0  0  0  0  0  0  0  0  0  0  0
   -5.3010    4.8361    0.0000 O   0  0  0  0  0  0  0  0  0  0  0  0
   -5.2636    3.7816    0.0000 O   0  0  0  0  0  0  0  0  0  0  0  0
   -7.8125    1.1664    0.0000 C   0  0  0  0  0  0  0  0  0  0  0  0
   -7.3890    0.4442    0.0000 C   0  0  0  0  0  0  0  0  0  0  0  0
   -4.7405    0.8094    0.0000 C   0  0  0  0  0  0  0  0  0  0  0  0
   -7.8125    2.5986    0.0000 O   0  0  0  0  0  0  0  0  0  0  0  0
   -6.1437   -0.2533    0.0000 O   0  0  0  0  0  0  0  0  0  0  0  0
   -6.4758   -1.0004    0.0000 C   0  0  0  0  0  0  0  0  0  0  0  0
   -8.6344    2.5986    0.0000 C   0  0  0  0  0  0  0  0  0  0  0  0
  2  1  1  0  0  0  0
  3  2  1  0  0  0  0
  4  1  1  0  0  0  0
  5 11  1  0  0  0  0
  6  4  1  0  0  0  0
  7  1  2  0  0  0  0
  8  5  1  0  0  0  0
  9  5  1  0  0  0  0
 10  7  1  0  0  0  0
 11 10  1  0  0  0  0
 12  3  1  0  0  0  0
 13  6  1  0  0  0  0
 14  8  1  0  0  0  0
 15  9  1  0  0  0  0
 16  8  2  0  0  0  0
 17  9  2  0  0  0  0
 18 10  2  0  0  0  0
 19 12  2  0  0  0  0
 20 13  2  0  0  0  0
 21  4  1  0  0  0  0
 22 12  1  0  0  0  0
 23 13  1  0  0  0  0
 24 23  1  0  0  0  0
 25 22  1  0  0  0  0
  6  3  2  0  0  0  0
 19 20  1  0  0  0  0
 14 15  1  0  0  0  0
M  END
>  <IDNUMBER>
F1814-1147

>  <Chemical_Name>
N-[(2Z)-4,7-dimethoxy-3-methyl-2,3-dihydro-1,3-benzothiazol-2-ylidene]-2-(2,5-dioxopyrrolidin-1-yl)acetamide

>  <PriceCoeff>
1.00

>  <CAS>
1164490-01-0

>  <MW>
363.39

>  <Description>
solid

>  <FSP3>
0.38

>  <clogP>
2.79

>  <TPSA>
113.81

>  <Acceptor>
5

>  <Donor>
0

>  <RotBonds>
5

>  <HAC>
25

>  <Collection>
General

>  <PPDS>
+

$$$$
F1814-1148
  Mrv2219 10102508112D          

 23 25  0  0  0  0            999 V2000
   -5.2311    2.1659    0.0000 C   0  0  0  0  0  0  0  0  0  0  0  0
   -5.9696    2.5083    0.0000 S   0  0  0  0  0  0  0  0  0  0  0  0
   -6.5265    1.8812    0.0000 C   0  0  0  0  0  0  0  0  0  0  0  0
   -3.8325    4.5834    0.0000 N   0  0  0  0  0  0  0  0  0  0  0  0
   -5.3053    1.3367    0.0000 N   0  0  0  0  0  0  0  0  0  0  0  0
   -4.5380    2.5701    0.0000 N   0  0  0  0  0  0  0  0  0  0  0  0
   -6.1057    1.1634    0.0000 C   0  0  0  0  0  0  0  0  0  0  0  0
   -3.1684    5.0537    0.0000 C   0  0  0  0  0  0  0  0  0  0  0  0
   -4.4885    5.0537    0.0000 C   0  0  0  0  0  0  0  0  0  0  0  0
   -4.5380    3.3622    0.0000 C   0  0  0  0  0  0  0  0  0  0  0  0
   -3.8325    3.7624    0.0000 C   0  0  0  0  0  0  0  0  0  0  0  0
   -7.3640    1.8812    0.0000 C   0  0  0  0  0  0  0  0  0  0  0  0
   -6.5265    0.4538    0.0000 C   0  0  0  0  0  0  0  0  0  0  0  0
   -3.4241    5.8417    0.0000 C   0  0  0  0  0  0  0  0  0  0  0  0
   -4.2410    5.8335    0.0000 C   0  0  0  0  0  0  0  0  0  0  0  0
   -2.3887    4.7938    0.0000 O   0  0  0  0  0  0  0  0  0  0  0  0
   -5.2682    4.8062    0.0000 O   0  0  0  0  0  0  0  0  0  0  0  0
   -5.2311    3.7583    0.0000 O   0  0  0  0  0  0  0  0  0  0  0  0
   -7.7766    1.1592    0.0000 C   0  0  0  0  0  0  0  0  0  0  0  0
   -7.3558    0.4414    0.0000 C   0  0  0  0  0  0  0  0  0  0  0  0
   -4.7236    0.8045    0.0000 C   0  0  0  0  0  0  0  0  0  0  0  0
   -7.7642    2.5825    0.0000 Cl  0  0  0  0  0  0  0  0  0  0  0  0
   -6.1181   -0.2517    0.0000 C   0  0  0  0  0  0  0  0  0  0  0  0
  2  1  1  0  0  0  0
  3  2  1  0  0  0  0
  4 11  1  0  0  0  0
  5  1  1  0  0  0  0
  6  1  2  0  0  0  0
  7  5  1  0  0  0  0
  8  4  1  0  0  0  0
  9  4  1  0  0  0  0
 10  6  1  0  0  0  0
 11 10  1  0  0  0  0
 12  3  1  0  0  0  0
 13  7  1  0  0  0  0
 14  8  1  0  0  0  0
 15  9  1  0  0  0  0
 16  8  2  0  0  0  0
 17  9  2  0  0  0  0
 18 10  2  0  0  0  0
 19 12  2  0  0  0  0
 20 13  2  0  0  0  0
 21  5  1  0  0  0  0
 22 12  1  0  0  0  0
 23 13  1  0  0  0  0
  7  3  2  0  0  0  0
 19 20  1  0  0  0  0
 14 15  1  0  0  0  0
M  END
>  <IDNUMBER>
F1814-1148

>  <Chemical_Name>
N-[(2Z)-7-chloro-3,4-dimethyl-2,3-dihydro-1,3-benzothiazol-2-ylidene]-2-(2,5-dioxopyrrolidin-1-yl)acetamide

>  <PriceCoeff>
1.00

>  <CAS>
868370-74-5

>  <MW>
351.81

>  <Description>
solid

>  <FSP3>
0.33

>  <clogP>
3.99

>  <TPSA>
95.35

>  <Acceptor>
3

>  <Donor>
0

>  <RotBonds>
3

>  <HAC>
23

>  <Collection>
General

>  <PPDS>
+

$$$$
F1814-1152
  Mrv2219 10102508112D          

 24 26  0  0  0  0            999 V2000
   -5.2693    2.1817    0.0000 C   0  0  0  0  0  0  0  0  0  0  0  0
   -5.3441    1.3547    0.0000 N   0  0  0  0  0  0  0  0  0  0  0  0
   -6.0132    2.5266    0.0000 S   0  0  0  0  0  0  0  0  0  0  0  0
   -3.8606    4.6169    0.0000 N   0  0  0  0  0  0  0  0  0  0  0  0
   -4.5711    2.5889    0.0000 N   0  0  0  0  0  0  0  0  0  0  0  0
   -6.1504    1.1802    0.0000 C   0  0  0  0  0  0  0  0  0  0  0  0
   -6.5743    1.8950    0.0000 C   0  0  0  0  0  0  0  0  0  0  0  0
   -3.1916    5.0907    0.0000 C   0  0  0  0  0  0  0  0  0  0  0  0
   -4.5213    5.0907    0.0000 C   0  0  0  0  0  0  0  0  0  0  0  0
   -4.5711    3.3868    0.0000 C   0  0  0  0  0  0  0  0  0  0  0  0
   -7.4178    1.8950    0.0000 C   0  0  0  0  0  0  0  0  0  0  0  0
   -3.8606    3.7899    0.0000 C   0  0  0  0  0  0  0  0  0  0  0  0
   -6.5743    0.4571    0.0000 C   0  0  0  0  0  0  0  0  0  0  0  0
   -7.8334    1.1677    0.0000 C   0  0  0  0  0  0  0  0  0  0  0  0
   -4.2720    5.8761    0.0000 C   0  0  0  0  0  0  0  0  0  0  0  0
   -3.4491    5.8843    0.0000 C   0  0  0  0  0  0  0  0  0  0  0  0
   -5.3067    4.8413    0.0000 O   0  0  0  0  0  0  0  0  0  0  0  0
   -2.4061    4.8289    0.0000 O   0  0  0  0  0  0  0  0  0  0  0  0
   -5.2693    3.7857    0.0000 O   0  0  0  0  0  0  0  0  0  0  0  0
   -7.4095    0.4488    0.0000 C   0  0  0  0  0  0  0  0  0  0  0  0
   -4.7581    0.8103    0.0000 C   0  0  0  0  0  0  0  0  0  0  0  0
   -7.8210    2.6014    0.0000 C   0  0  0  0  0  0  0  0  0  0  0  0
   -7.8168   -0.2660    0.0000 C   0  0  0  0  0  0  0  0  0  0  0  0
   -4.9244    0.0125    0.0000 C   0  0  0  0  0  0  0  0  0  0  0  0
  2  1  1  0  0  0  0
  3  1  1  0  0  0  0
  4 12  1  0  0  0  0
  5  1  2  0  0  0  0
  6  2  1  0  0  0  0
  7  3  1  0  0  0  0
  8  4  1  0  0  0  0
  9  4  1  0  0  0  0
 10  5  1  0  0  0  0
 11  7  1  0  0  0  0
 12 10  1  0  0  0  0
 13  6  1  0  0  0  0
 14 11  2  0  0  0  0
 15  9  1  0  0  0  0
 16  8  1  0  0  0  0
 17  9  2  0  0  0  0
 18  8  2  0  0  0  0
 19 10  2  0  0  0  0
 20 13  2  0  0  0  0
 21  2  1  0  0  0  0
 22 11  1  0  0  0  0
 23 20  1  0  0  0  0
 24 21  1  0  0  0  0
  6  7  2  0  0  0  0
 14 20  1  0  0  0  0
 16 15  1  0  0  0  0
M  END
>  <IDNUMBER>
F1814-1152

>  <Chemical_Name>
2-(2,5-dioxopyrrolidin-1-yl)-N-[(2Z)-3-ethyl-5,7-dimethyl-2,3-dihydro-1,3-benzothiazol-2-ylidene]acetamide

>  <PriceCoeff>
1.00

>  <CAS>
1164489-86-4

>  <MW>
345.42

>  <Description>
solid

>  <FSP3>
0.41

>  <clogP>
4.30

>  <TPSA>
95.35

>  <Acceptor>
3

>  <Donor>
0

>  <RotBonds>
4

>  <HAC>
24

>  <Collection>
General

>  <PPDS>
+

$$$$
F1814-1154
  Mrv2219 10102508112D          

 25 27  0  0  0  0            999 V2000
   -5.2438    2.1763    0.0000 C   0  0  0  0  0  0  0  0  0  0  0  0
   -5.9942    2.5121    0.0000 S   0  0  0  0  0  0  0  0  0  0  0  0
   -5.3309    1.3514    0.0000 N   0  0  0  0  0  0  0  0  0  0  0  0
   -3.8510    4.6055    0.0000 N   0  0  0  0  0  0  0  0  0  0  0  0
   -6.5580    1.8903    0.0000 C   0  0  0  0  0  0  0  0  0  0  0  0
   -4.5599    2.5825    0.0000 N   0  0  0  0  0  0  0  0  0  0  0  0
   -6.1227    1.1690    0.0000 C   0  0  0  0  0  0  0  0  0  0  0  0
   -3.1836    5.0781    0.0000 C   0  0  0  0  0  0  0  0  0  0  0  0
   -4.5101    5.0781    0.0000 C   0  0  0  0  0  0  0  0  0  0  0  0
   -4.5599    3.3784    0.0000 C   0  0  0  0  0  0  0  0  0  0  0  0
   -3.8510    3.7806    0.0000 C   0  0  0  0  0  0  0  0  0  0  0  0
   -6.5538    0.4560    0.0000 C   0  0  0  0  0  0  0  0  0  0  0  0
   -7.3912    1.8861    0.0000 C   0  0  0  0  0  0  0  0  0  0  0  0
   -3.4406    5.8698    0.0000 C   0  0  0  0  0  0  0  0  0  0  0  0
   -4.2614    5.8616    0.0000 C   0  0  0  0  0  0  0  0  0  0  0  0
   -2.4002    4.8169    0.0000 O   0  0  0  0  0  0  0  0  0  0  0  0
   -5.2936    4.8294    0.0000 O   0  0  0  0  0  0  0  0  0  0  0  0
   -5.2438    3.7764    0.0000 O   0  0  0  0  0  0  0  0  0  0  0  0
   -7.3788    0.4477    0.0000 C   0  0  0  0  0  0  0  0  0  0  0  0
   -7.8016    1.1648    0.0000 C   0  0  0  0  0  0  0  0  0  0  0  0
   -4.7340    0.8166    0.0000 C   0  0  0  0  0  0  0  0  0  0  0  0
   -6.1352   -0.2487    0.0000 O   0  0  0  0  0  0  0  0  0  0  0  0
   -7.8016    2.5950    0.0000 C   0  0  0  0  0  0  0  0  0  0  0  0
   -6.6575   -0.9244    0.0000 C   0  0  0  0  0  0  0  0  0  0  0  0
   -4.9081    0.0207    0.0000 C   0  0  0  0  0  0  0  0  0  0  0  0
  2  1  1  0  0  0  0
  3  1  1  0  0  0  0
  4 11  1  0  0  0  0
  5  2  1  0  0  0  0
  6  1  2  0  0  0  0
  7  3  1  0  0  0  0
  8  4  1  0  0  0  0
  9  4  1  0  0  0  0
 10  6  1  0  0  0  0
 11 10  1  0  0  0  0
 12  7  1  0  0  0  0
 13  5  1  0  0  0  0
 14  8  1  0  0  0  0
 15  9  1  0  0  0  0
 16  8  2  0  0  0  0
 17  9  2  0  0  0  0
 18 10  2  0  0  0  0
 19 12  2  0  0  0  0
 20 13  2  0  0  0  0
 21  3  1  0  0  0  0
 22 12  1  0  0  0  0
 23 13  1  0  0  0  0
 24 22  1  0  0  0  0
 25 21  1  0  0  0  0
  7  5  2  0  0  0  0
 20 19  1  0  0  0  0
 14 15  1  0  0  0  0
M  END
>  <IDNUMBER>
F1814-1154

>  <Chemical_Name>
2-(2,5-dioxopyrrolidin-1-yl)-N-[(2Z)-3-ethyl-4-methoxy-7-methyl-2,3-dihydro-1,3-benzothiazol-2-ylidene]acetamide

>  <PriceCoeff>
1.00

>  <CAS>
868370-76-7

>  <MW>
361.42

>  <Description>
solid

>  <FSP3>
0.41

>  <clogP>
3.72

>  <TPSA>
104.58

>  <Acceptor>
4

>  <Donor>
0

>  <RotBonds>
5

>  <HAC>
25

>  <Collection>
General

>  <PPDS>
+

$$$$
F1814-1155
  Mrv2219 10102508112D          

 26 28  0  0  0  0            999 V2000
   -5.2306    2.1739    0.0000 C   0  0  0  0  0  0  0  0  0  0  0  0
   -5.9691    2.5080    0.0000 S   0  0  0  0  0  0  0  0  0  0  0  0
   -6.5260    1.8893    0.0000 C   0  0  0  0  0  0  0  0  0  0  0  0
   -5.3090    1.3365    0.0000 N   0  0  0  0  0  0  0  0  0  0  0  0
   -3.8322    4.5830    0.0000 N   0  0  0  0  0  0  0  0  0  0  0  0
   -6.1052    1.1715    0.0000 C   0  0  0  0  0  0  0  0  0  0  0  0
   -4.5376    2.5699    0.0000 N   0  0  0  0  0  0  0  0  0  0  0  0
   -3.1681    5.0533    0.0000 C   0  0  0  0  0  0  0  0  0  0  0  0
   -4.4881    5.0533    0.0000 C   0  0  0  0  0  0  0  0  0  0  0  0
   -4.5376    3.3619    0.0000 C   0  0  0  0  0  0  0  0  0  0  0  0
   -3.8322    3.7621    0.0000 C   0  0  0  0  0  0  0  0  0  0  0  0
   -7.3675    1.8893    0.0000 C   0  0  0  0  0  0  0  0  0  0  0  0
   -6.5260    0.4537    0.0000 C   0  0  0  0  0  0  0  0  0  0  0  0
   -3.4238    5.8412    0.0000 C   0  0  0  0  0  0  0  0  0  0  0  0
   -4.2406    5.8329    0.0000 C   0  0  0  0  0  0  0  0  0  0  0  0
   -2.3884    4.7934    0.0000 O   0  0  0  0  0  0  0  0  0  0  0  0
   -5.2677    4.8058    0.0000 O   0  0  0  0  0  0  0  0  0  0  0  0
   -5.2306    3.7579    0.0000 O   0  0  0  0  0  0  0  0  0  0  0  0
   -7.7759    1.1715    0.0000 C   0  0  0  0  0  0  0  0  0  0  0  0
   -7.3675    0.4455    0.0000 C   0  0  0  0  0  0  0  0  0  0  0  0
   -4.7232    0.8002    0.0000 C   0  0  0  0  0  0  0  0  0  0  0  0
   -7.7635    2.5947    0.0000 O   0  0  0  0  0  0  0  0  0  0  0  0
   -6.1258   -0.2475    0.0000 O   0  0  0  0  0  0  0  0  0  0  0  0
   -6.4517   -0.9942    0.0000 C   0  0  0  0  0  0  0  0  0  0  0  0
   -8.5885    2.5988    0.0000 C   0  0  0  0  0  0  0  0  0  0  0  0
   -4.8965    0.0082    0.0000 C   0  0  0  0  0  0  0  0  0  0  0  0
  2  1  1  0  0  0  0
  3  2  1  0  0  0  0
  4  1  1  0  0  0  0
  5 11  1  0  0  0  0
  6  4  1  0  0  0  0
  7  1  2  0  0  0  0
  8  5  1  0  0  0  0
  9  5  1  0  0  0  0
 10  7  1  0  0  0  0
 11 10  1  0  0  0  0
 12  3  1  0  0  0  0
 13  6  1  0  0  0  0
 14  8  1  0  0  0  0
 15  9  1  0  0  0  0
 16  8  2  0  0  0  0
 17  9  2  0  0  0  0
 18 10  2  0  0  0  0
 19 12  2  0  0  0  0
 20 13  2  0  0  0  0
 21  4  1  0  0  0  0
 22 12  1  0  0  0  0
 23 13  1  0  0  0  0
 24 23  1  0  0  0  0
 25 22  1  0  0  0  0
 26 21  1  0  0  0  0
  6  3  2  0  0  0  0
 19 20  1  0  0  0  0
 14 15  1  0  0  0  0
M  END
>  <IDNUMBER>
F1814-1155

>  <Chemical_Name>
2-(2,5-dioxopyrrolidin-1-yl)-N-[(2Z)-3-ethyl-4,7-dimethoxy-2,3-dihydro-1,3-benzothiazol-2-ylidene]acetamide

>  <PriceCoeff>
1.00

>  <CAS>
1164563-58-9

>  <MW>
377.41

>  <Description>
solid

>  <FSP3>
0.41

>  <clogP>
3.31

>  <TPSA>
113.81

>  <Acceptor>
5

>  <Donor>
0

>  <RotBonds>
6

>  <HAC>
26

>  <Collection>
General

$$$$
F1814-1626
  Mrv2219 10102508112D          

 29 32  0  0  0  0            999 V2000
   -4.5720    2.6262    0.0000 C   0  0  0  0  0  0  0  0  0  0  0  0
   -3.8705    3.0145    0.0000 N   0  0  0  0  0  0  0  0  0  0  0  0
   -4.6554    1.7870    0.0000 N   0  0  0  0  0  0  0  0  0  0  0  0
   -1.0104    5.4405    0.0000 N   0  0  0  0  0  0  0  0  0  0  0  0
   -5.3318    2.9644    0.0000 S   0  0  0  0  0  0  0  0  0  0  0  0
   -5.4821    1.6158    0.0000 C   0  0  0  0  0  0  0  0  0  0  0  0
   -5.8955    2.3381    0.0000 C   0  0  0  0  0  0  0  0  0  0  0  0
   -3.8788    3.8079    0.0000 C   0  0  0  0  0  0  0  0  0  0  0  0
   -5.9080    0.8893    0.0000 C   0  0  0  0  0  0  0  0  0  0  0  0
   -0.9603    6.2672    0.0000 C   0  0  0  0  0  0  0  0  0  0  0  0
   -0.2505    5.1398    0.0000 C   0  0  0  0  0  0  0  0  0  0  0  0
   -6.7306    2.3507    0.0000 C   0  0  0  0  0  0  0  0  0  0  0  0
   -6.7306    0.8977    0.0000 C   0  0  0  0  0  0  0  0  0  0  0  0
   -1.7286    5.0354    0.0000 C   0  0  0  0  0  0  0  0  0  0  0  0
   -3.1648    4.2129    0.0000 C   0  0  0  0  0  0  0  0  0  0  0  0
   -7.1440    1.6242    0.0000 C   0  0  0  0  0  0  0  0  0  0  0  0
   -4.5677    4.2087    0.0000 O   0  0  0  0  0  0  0  0  0  0  0  0
   -0.1503    6.4676    0.0000 C   0  0  0  0  0  0  0  0  0  0  0  0
    0.2756    5.7744    0.0000 C   0  0  0  0  0  0  0  0  0  0  0  0
   -1.5991    6.8183    0.0000 O   0  0  0  0  0  0  0  0  0  0  0  0
   -0.0459    4.3382    0.0000 O   0  0  0  0  0  0  0  0  0  0  0  0
   -2.4509    5.4530    0.0000 C   0  0  0  0  0  0  0  0  0  0  0  0
   -1.7411    4.2129    0.0000 C   0  0  0  0  0  0  0  0  0  0  0  0
   -2.4551    3.8162    0.0000 C   0  0  0  0  0  0  0  0  0  0  0  0
   -3.1648    5.0396    0.0000 C   0  0  0  0  0  0  0  0  0  0  0  0
   -5.4947    0.1837    0.0000 F   0  0  0  0  0  0  0  0  0  0  0  0
   -4.0918    1.2401    0.0000 C   0  0  0  0  0  0  0  0  0  0  0  0
   -7.9331    1.6242    0.0000 F   0  0  0  0  0  0  0  0  0  0  0  0
   -4.2546    0.4384    0.0000 C   0  0  0  0  0  0  0  0  0  0  0  0
  2  1  2  0  0  0  0
  3  1  1  0  0  0  0
  4 14  1  0  0  0  0
  5  1  1  0  0  0  0
  6  3  1  0  0  0  0
  7  5  1  0  0  0  0
  8  2  1  0  0  0  0
  9  6  1  0  0  0  0
 10  4  1  0  0  0  0
 11  4  1  0  0  0  0
 12  7  1  0  0  0  0
 13  9  2  0  0  0  0
 14 22  1  0  0  0  0
 15  8  1  0  0  0  0
 16 12  2  0  0  0  0
 17  8  2  0  0  0  0
 18 10  1  0  0  0  0
 19 11  1  0  0  0  0
 20 10  2  0  0  0  0
 21 11  2  0  0  0  0
 22 25  2  0  0  0  0
 23 24  1  0  0  0  0
 24 15  2  0  0  0  0
 25 15  1  0  0  0  0
 26  9  1  0  0  0  0
 27  3  1  0  0  0  0
 28 16  1  0  0  0  0
 29 27  1  0  0  0  0
  7  6  2  0  0  0  0
 13 16  1  0  0  0  0
 23 14  2  0  0  0  0
 18 19  1  0  0  0  0
M  END
>  <IDNUMBER>
F1814-1626

>  <Chemical_Name>
4-(2,5-dioxopyrrolidin-1-yl)-N-[(2Z)-3-ethyl-4,6-difluoro-2,3-dihydro-1,3-benzothiazol-2-ylidene]benzamide

>  <PriceCoeff>
1.00

>  <CAS>
868375-06-8

>  <MW>
415.41

>  <Description>
solid

>  <FSP3>
0.20

>  <clogP>
3.76

>  <TPSA>
95.35

>  <Acceptor>
3

>  <Donor>
0

>  <RotBonds>
4

>  <HAC>
29

>  <Collection>
General

>  <PPDS>
+

$$$$
F1814-1627
  Mrv2219 10102508112D          

 27 30  0  0  0  0            999 V2000
   -4.5607    2.6145    0.0000 C   0  0  0  0  0  0  0  0  0  0  0  0
   -3.8716    3.0154    0.0000 N   0  0  0  0  0  0  0  0  0  0  0  0
   -4.6442    1.7875    0.0000 N   0  0  0  0  0  0  0  0  0  0  0  0
   -1.0107    5.4420    0.0000 N   0  0  0  0  0  0  0  0  0  0  0  0
   -5.3250    2.9528    0.0000 S   0  0  0  0  0  0  0  0  0  0  0  0
   -5.4712    1.6121    0.0000 C   0  0  0  0  0  0  0  0  0  0  0  0
   -5.8847    2.3388    0.0000 C   0  0  0  0  0  0  0  0  0  0  0  0
   -3.8799    3.8090    0.0000 C   0  0  0  0  0  0  0  0  0  0  0  0
   -0.2506    5.1413    0.0000 C   0  0  0  0  0  0  0  0  0  0  0  0
   -0.9606    6.2690    0.0000 C   0  0  0  0  0  0  0  0  0  0  0  0
   -1.7291    5.0369    0.0000 C   0  0  0  0  0  0  0  0  0  0  0  0
   -3.1658    4.2141    0.0000 C   0  0  0  0  0  0  0  0  0  0  0  0
   -5.8847    0.8854    0.0000 C   0  0  0  0  0  0  0  0  0  0  0  0
   -4.5691    4.2016    0.0000 O   0  0  0  0  0  0  0  0  0  0  0  0
    0.2756    5.7761    0.0000 C   0  0  0  0  0  0  0  0  0  0  0  0
   -0.1504    6.4694    0.0000 C   0  0  0  0  0  0  0  0  0  0  0  0
   -0.0459    4.3394    0.0000 O   0  0  0  0  0  0  0  0  0  0  0  0
   -1.5996    6.8203    0.0000 O   0  0  0  0  0  0  0  0  0  0  0  0
   -1.7416    4.2141    0.0000 C   0  0  0  0  0  0  0  0  0  0  0  0
   -2.4516    5.4545    0.0000 C   0  0  0  0  0  0  0  0  0  0  0  0
   -3.1658    5.0411    0.0000 C   0  0  0  0  0  0  0  0  0  0  0  0
   -2.4558    3.8173    0.0000 C   0  0  0  0  0  0  0  0  0  0  0  0
   -4.0596    1.2487    0.0000 C   0  0  0  0  0  0  0  0  0  0  0  0
   -5.4712    0.1837    0.0000 F   0  0  0  0  0  0  0  0  0  0  0  0
   -6.7075    2.3388    0.0000 C   0  0  0  0  0  0  0  0  0  0  0  0
   -7.1210    1.6121    0.0000 C   0  0  0  0  0  0  0  0  0  0  0  0
   -6.7033    0.8854    0.0000 C   0  0  0  0  0  0  0  0  0  0  0  0
  2  1  2  0  0  0  0
  3  1  1  0  0  0  0
  4 11  1  0  0  0  0
  5  1  1  0  0  0  0
  6  3  1  0  0  0  0
  7  5  1  0  0  0  0
  8  2  1  0  0  0  0
  9  4  1  0  0  0  0
 10  4  1  0  0  0  0
 11 19  2  0  0  0  0
 12  8  1  0  0  0  0
 13  6  1  0  0  0  0
 14  8  2  0  0  0  0
 15  9  1  0  0  0  0
 16 10  1  0  0  0  0
 17  9  2  0  0  0  0
 18 10  2  0  0  0  0
 19 22  1  0  0  0  0
 20 21  2  0  0  0  0
 21 12  1  0  0  0  0
 22 12  2  0  0  0  0
 23  3  1  0  0  0  0
 24 13  1  0  0  0  0
 25  7  1  0  0  0  0
 26 25  2  0  0  0  0
 27 13  2  0  0  0  0
  7  6  2  0  0  0  0
 27 26  1  0  0  0  0
 20 11  1  0  0  0  0
 16 15  1  0  0  0  0
M  END
>  <IDNUMBER>
F1814-1627

>  <Chemical_Name>
4-(2,5-dioxopyrrolidin-1-yl)-N-[(2Z)-4-fluoro-3-methyl-2,3-dihydro-1,3-benzothiazol-2-ylidene]benzamide

>  <PriceCoeff>
1.00

>  <CAS>
868375-07-9

>  <MW>
383.40

>  <Description>
solid

>  <FSP3>
0.16

>  <clogP>
3.09

>  <TPSA>
95.35

>  <Acceptor>
3

>  <Donor>
0

>  <RotBonds>
3

>  <HAC>
27

>  <Collection>
General

>  <PPDS>
+

$$$$
F1814-1673
  Mrv2219 10102508112D          

 28 31  0  0  0  0            999 V2000
   -4.5708    2.6000    0.0000 C   0  0  0  0  0  0  0  0  0  0  0  0
   -3.8625    3.0083    0.0000 N   0  0  0  0  0  0  0  0  0  0  0  0
   -4.6583    1.7708    0.0000 N   0  0  0  0  0  0  0  0  0  0  0  0
   -1.0208    3.8000    0.0000 N   0  0  0  0  0  0  0  0  0  0  0  0
   -5.3333    2.9458    0.0000 S   0  0  0  0  0  0  0  0  0  0  0  0
   -5.4833    1.6000    0.0000 C   0  0  0  0  0  0  0  0  0  0  0  0
   -5.8958    2.3333    0.0000 C   0  0  0  0  0  0  0  0  0  0  0  0
   -3.8708    3.8000    0.0000 C   0  0  0  0  0  0  0  0  0  0  0  0
   -1.7333    4.2042    0.0000 C   0  0  0  0  0  0  0  0  0  0  0  0
   -5.9083    0.8833    0.0000 C   0  0  0  0  0  0  0  0  0  0  0  0
   -0.2583    4.0917    0.0000 C   0  0  0  0  0  0  0  0  0  0  0  0
   -0.9708    2.9833    0.0000 C   0  0  0  0  0  0  0  0  0  0  0  0
   -6.7292    2.3333    0.0000 C   0  0  0  0  0  0  0  0  0  0  0  0
   -2.4458    3.8083    0.0000 C   0  0  0  0  0  0  0  0  0  0  0  0
   -6.7292    0.8833    0.0000 C   0  0  0  0  0  0  0  0  0  0  0  0
   -3.1583    4.2042    0.0000 C   0  0  0  0  0  0  0  0  0  0  0  0
   -7.1417    1.6083    0.0000 C   0  0  0  0  0  0  0  0  0  0  0  0
   -4.5583    4.2000    0.0000 O   0  0  0  0  0  0  0  0  0  0  0  0
    0.2750    3.4708    0.0000 C   0  0  0  0  0  0  0  0  0  0  0  0
   -0.1583    2.7833    0.0000 C   0  0  0  0  0  0  0  0  0  0  0  0
   -0.0375    4.8875    0.0000 O   0  0  0  0  0  0  0  0  0  0  0  0
   -1.6083    2.4583    0.0000 O   0  0  0  0  0  0  0  0  0  0  0  0
   -5.4958    0.1625    0.0000 F   0  0  0  0  0  0  0  0  0  0  0  0
   -4.0625    1.2250    0.0000 C   0  0  0  0  0  0  0  0  0  0  0  0
   -7.9417    1.6083    0.0000 F   0  0  0  0  0  0  0  0  0  0  0  0
   -1.7250    5.0292    0.0000 C   0  0  0  0  0  0  0  0  0  0  0  0
   -3.1583    5.0292    0.0000 C   0  0  0  0  0  0  0  0  0  0  0  0
   -2.4375    5.4417    0.0000 C   0  0  0  0  0  0  0  0  0  0  0  0
  2  1  2  0  0  0  0
  3  1  1  0  0  0  0
  4  9  1  0  0  0  0
  5  1  1  0  0  0  0
  6  3  1  0  0  0  0
  7  5  1  0  0  0  0
  8  2  1  0  0  0  0
  9 14  1  0  0  0  0
 10  6  1  0  0  0  0
 11  4  1  0  0  0  0
 12  4  1  0  0  0  0
 13  7  1  0  0  0  0
 14 16  2  0  0  0  0
 15 10  2  0  0  0  0
 16  8  1  0  0  0  0
 17 13  2  0  0  0  0
 18  8  2  0  0  0  0
 19 11  1  0  0  0  0
 20 12  1  0  0  0  0
 21 11  2  0  0  0  0
 22 12  2  0  0  0  0
 23 10  1  0  0  0  0
 24  3  1  0  0  0  0
 25 17  1  0  0  0  0
 26 28  1  0  0  0  0
 27 16  1  0  0  0  0
 28 27  2  0  0  0  0
  7  6  2  0  0  0  0
 15 17  1  0  0  0  0
 26  9  2  0  0  0  0
 19 20  1  0  0  0  0
M  END
>  <IDNUMBER>
F1814-1673

>  <Chemical_Name>
N-[(2Z)-4,6-difluoro-3-methyl-2,3-dihydro-1,3-benzothiazol-2-ylidene]-3-(2,5-dioxopyrrolidin-1-yl)benzamide

>  <PriceCoeff>
1.00

>  <CAS>
868375-22-8

>  <MW>
401.39

>  <Description>
solid

>  <FSP3>
0.16

>  <clogP>
3.24

>  <TPSA>
95.35

>  <Acceptor>
3

>  <Donor>
0

>  <RotBonds>
3

>  <HAC>
28

>  <Collection>
General

>  <PPDS>
+

$$$$
F1814-1674
  Mrv2219 10102508112D          

 29 32  0  0  0  0            999 V2000
   -4.5625    2.6208    0.0000 C   0  0  0  0  0  0  0  0  0  0  0  0
   -3.8625    3.0083    0.0000 N   0  0  0  0  0  0  0  0  0  0  0  0
   -4.6458    1.7833    0.0000 N   0  0  0  0  0  0  0  0  0  0  0  0
   -1.0208    3.8000    0.0000 N   0  0  0  0  0  0  0  0  0  0  0  0
   -5.3208    2.9583    0.0000 S   0  0  0  0  0  0  0  0  0  0  0  0
   -5.4708    1.6125    0.0000 C   0  0  0  0  0  0  0  0  0  0  0  0
   -5.8833    2.3333    0.0000 C   0  0  0  0  0  0  0  0  0  0  0  0
   -3.8708    3.8000    0.0000 C   0  0  0  0  0  0  0  0  0  0  0  0
   -1.7333    4.2042    0.0000 C   0  0  0  0  0  0  0  0  0  0  0  0
   -5.8958    0.8875    0.0000 C   0  0  0  0  0  0  0  0  0  0  0  0
   -0.2583    4.0917    0.0000 C   0  0  0  0  0  0  0  0  0  0  0  0
   -0.9708    2.9833    0.0000 C   0  0  0  0  0  0  0  0  0  0  0  0
   -6.7167    2.3458    0.0000 C   0  0  0  0  0  0  0  0  0  0  0  0
   -2.4458    3.8083    0.0000 C   0  0  0  0  0  0  0  0  0  0  0  0
   -6.7167    0.8958    0.0000 C   0  0  0  0  0  0  0  0  0  0  0  0
   -3.1583    4.2042    0.0000 C   0  0  0  0  0  0  0  0  0  0  0  0
   -7.1292    1.6208    0.0000 C   0  0  0  0  0  0  0  0  0  0  0  0
   -4.5583    4.2000    0.0000 O   0  0  0  0  0  0  0  0  0  0  0  0
    0.2750    3.4708    0.0000 C   0  0  0  0  0  0  0  0  0  0  0  0
   -0.1583    2.7833    0.0000 C   0  0  0  0  0  0  0  0  0  0  0  0
   -0.0375    4.8875    0.0000 O   0  0  0  0  0  0  0  0  0  0  0  0
   -1.6083    2.4583    0.0000 O   0  0  0  0  0  0  0  0  0  0  0  0
   -5.4833    0.1833    0.0000 F   0  0  0  0  0  0  0  0  0  0  0  0
   -4.0833    1.2375    0.0000 C   0  0  0  0  0  0  0  0  0  0  0  0
   -7.9167    1.6208    0.0000 F   0  0  0  0  0  0  0  0  0  0  0  0
   -1.7250    5.0292    0.0000 C   0  0  0  0  0  0  0  0  0  0  0  0
   -3.1583    5.0292    0.0000 C   0  0  0  0  0  0  0  0  0  0  0  0
   -2.4375    5.4417    0.0000 C   0  0  0  0  0  0  0  0  0  0  0  0
   -4.2458    0.4375    0.0000 C   0  0  0  0  0  0  0  0  0  0  0  0
  2  1  2  0  0  0  0
  3  1  1  0  0  0  0
  4  9  1  0  0  0  0
  5  1  1  0  0  0  0
  6  3  1  0  0  0  0
  7  5  1  0  0  0  0
  8  2  1  0  0  0  0
  9 14  1  0  0  0  0
 10  6  1  0  0  0  0
 11  4  1  0  0  0  0
 12  4  1  0  0  0  0
 13  7  1  0  0  0  0
 14 16  2  0  0  0  0
 15 10  2  0  0  0  0
 16  8  1  0  0  0  0
 17 13  2  0  0  0  0
 18  8  2  0  0  0  0
 19 11  1  0  0  0  0
 20 12  1  0  0  0  0
 21 11  2  0  0  0  0
 22 12  2  0  0  0  0
 23 10  1  0  0  0  0
 24  3  1  0  0  0  0
 25 17  1  0  0  0  0
 26 28  1  0  0  0  0
 27 16  1  0  0  0  0
 28 27  2  0  0  0  0
 29 24  1  0  0  0  0
  7  6  2  0  0  0  0
 15 17  1  0  0  0  0
 26  9  2  0  0  0  0
 19 20  1  0  0  0  0
M  END
>  <IDNUMBER>
F1814-1674

>  <Chemical_Name>
3-(2,5-dioxopyrrolidin-1-yl)-N-[(2Z)-3-ethyl-4,6-difluoro-2,3-dihydro-1,3-benzothiazol-2-ylidene]benzamide

>  <PriceCoeff>
1.00

>  <CAS>
868375-23-9

>  <MW>
415.41

>  <Description>
solid

>  <FSP3>
0.20

>  <clogP>
3.76

>  <TPSA>
95.35

>  <Acceptor>
3

>  <Donor>
0

>  <RotBonds>
4

>  <HAC>
29

>  <Collection>
General

>  <PPDS>
+

$$$$
F1814-1675
  Mrv2219 10102508112D          

 27 30  0  0  0  0            999 V2000
   -4.5594    2.6137    0.0000 C   0  0  0  0  0  0  0  0  0  0  0  0
   -3.8705    3.0145    0.0000 N   0  0  0  0  0  0  0  0  0  0  0  0
   -4.6429    1.7870    0.0000 N   0  0  0  0  0  0  0  0  0  0  0  0
   -1.0229    3.8079    0.0000 N   0  0  0  0  0  0  0  0  0  0  0  0
   -5.3235    2.9519    0.0000 S   0  0  0  0  0  0  0  0  0  0  0  0
   -5.4696    1.6116    0.0000 C   0  0  0  0  0  0  0  0  0  0  0  0
   -5.8830    2.3381    0.0000 C   0  0  0  0  0  0  0  0  0  0  0  0
   -3.8788    3.8079    0.0000 C   0  0  0  0  0  0  0  0  0  0  0  0
   -1.7369    4.2129    0.0000 C   0  0  0  0  0  0  0  0  0  0  0  0
   -0.9728    2.9895    0.0000 C   0  0  0  0  0  0  0  0  0  0  0  0
   -0.2588    4.1002    0.0000 C   0  0  0  0  0  0  0  0  0  0  0  0
   -2.4509    3.8162    0.0000 C   0  0  0  0  0  0  0  0  0  0  0  0
   -3.1648    4.2129    0.0000 C   0  0  0  0  0  0  0  0  0  0  0  0
   -5.8830    0.8851    0.0000 C   0  0  0  0  0  0  0  0  0  0  0  0
   -4.5677    4.2004    0.0000 O   0  0  0  0  0  0  0  0  0  0  0  0
   -0.1586    2.7891    0.0000 C   0  0  0  0  0  0  0  0  0  0  0  0
    0.2756    3.4780    0.0000 C   0  0  0  0  0  0  0  0  0  0  0  0
   -1.6116    2.4634    0.0000 O   0  0  0  0  0  0  0  0  0  0  0  0
   -0.0376    4.8976    0.0000 O   0  0  0  0  0  0  0  0  0  0  0  0
   -4.0584    1.2484    0.0000 C   0  0  0  0  0  0  0  0  0  0  0  0
   -5.4696    0.1837    0.0000 F   0  0  0  0  0  0  0  0  0  0  0  0
   -6.7056    2.3381    0.0000 C   0  0  0  0  0  0  0  0  0  0  0  0
   -1.7286    5.0396    0.0000 C   0  0  0  0  0  0  0  0  0  0  0  0
   -3.1648    5.0396    0.0000 C   0  0  0  0  0  0  0  0  0  0  0  0
   -2.4426    5.4530    0.0000 C   0  0  0  0  0  0  0  0  0  0  0  0
   -7.1189    1.6116    0.0000 C   0  0  0  0  0  0  0  0  0  0  0  0
   -6.7014    0.8851    0.0000 C   0  0  0  0  0  0  0  0  0  0  0  0
  2  1  2  0  0  0  0
  3  1  1  0  0  0  0
  4  9  1  0  0  0  0
  5  1  1  0  0  0  0
  6  3  1  0  0  0  0
  7  5  1  0  0  0  0
  8  2  1  0  0  0  0
  9 12  1  0  0  0  0
 10  4  1  0  0  0  0
 11  4  1  0  0  0  0
 12 13  2  0  0  0  0
 13  8  1  0  0  0  0
 14  6  1  0  0  0  0
 15  8  2  0  0  0  0
 16 10  1  0  0  0  0
 17 11  1  0  0  0  0
 18 10  2  0  0  0  0
 19 11  2  0  0  0  0
 20  3  1  0  0  0  0
 21 14  1  0  0  0  0
 22  7  1  0  0  0  0
 23 25  1  0  0  0  0
 24 13  1  0  0  0  0
 25 24  2  0  0  0  0
 26 22  2  0  0  0  0
 27 14  2  0  0  0  0
  7  6  2  0  0  0  0
 27 26  1  0  0  0  0
  9 23  2  0  0  0  0
 17 16  1  0  0  0  0
M  END
>  <IDNUMBER>
F1814-1675

>  <Chemical_Name>
3-(2,5-dioxopyrrolidin-1-yl)-N-[(2Z)-4-fluoro-3-methyl-2,3-dihydro-1,3-benzothiazol-2-ylidene]benzamide

>  <PriceCoeff>
1.00

>  <CAS>
868375-24-0

>  <MW>
383.40

>  <Description>
solid

>  <FSP3>
0.16

>  <clogP>
3.09

>  <TPSA>
95.35

>  <Acceptor>
3

>  <Donor>
0

>  <RotBonds>
3

>  <HAC>
27

>  <Collection>
General

>  <PPDS>
+

$$$$
F1814-1676
  Mrv2219 10102508112D          

 28 31  0  0  0  0            999 V2000
   -4.5708    2.6083    0.0000 C   0  0  0  0  0  0  0  0  0  0  0  0
   -3.8708    3.0000    0.0000 N   0  0  0  0  0  0  0  0  0  0  0  0
   -4.6583    1.7625    0.0000 N   0  0  0  0  0  0  0  0  0  0  0  0
   -1.0208    3.8000    0.0000 N   0  0  0  0  0  0  0  0  0  0  0  0
   -5.3333    2.9375    0.0000 S   0  0  0  0  0  0  0  0  0  0  0  0
   -5.4833    1.5875    0.0000 C   0  0  0  0  0  0  0  0  0  0  0  0
   -5.8958    2.3208    0.0000 C   0  0  0  0  0  0  0  0  0  0  0  0
   -3.8708    3.8000    0.0000 C   0  0  0  0  0  0  0  0  0  0  0  0
   -1.7333    4.2042    0.0000 C   0  0  0  0  0  0  0  0  0  0  0  0
   -0.9708    2.9833    0.0000 C   0  0  0  0  0  0  0  0  0  0  0  0
   -0.2583    4.0917    0.0000 C   0  0  0  0  0  0  0  0  0  0  0  0
   -2.4458    3.8083    0.0000 C   0  0  0  0  0  0  0  0  0  0  0  0
   -3.1583    4.2042    0.0000 C   0  0  0  0  0  0  0  0  0  0  0  0
   -5.9083    0.8625    0.0000 C   0  0  0  0  0  0  0  0  0  0  0  0
   -4.5708    4.2042    0.0000 O   0  0  0  0  0  0  0  0  0  0  0  0
   -0.1583    2.7833    0.0000 C   0  0  0  0  0  0  0  0  0  0  0  0
    0.2750    3.4708    0.0000 C   0  0  0  0  0  0  0  0  0  0  0  0
   -1.6083    2.4583    0.0000 O   0  0  0  0  0  0  0  0  0  0  0  0
   -0.0375    4.8875    0.0000 O   0  0  0  0  0  0  0  0  0  0  0  0
   -4.0708    1.2208    0.0000 C   0  0  0  0  0  0  0  0  0  0  0  0
   -5.4875    0.1583    0.0000 F   0  0  0  0  0  0  0  0  0  0  0  0
   -6.7292    2.3333    0.0000 C   0  0  0  0  0  0  0  0  0  0  0  0
   -1.7250    5.0292    0.0000 C   0  0  0  0  0  0  0  0  0  0  0  0
   -3.1583    5.0292    0.0000 C   0  0  0  0  0  0  0  0  0  0  0  0
   -2.4375    5.4417    0.0000 C   0  0  0  0  0  0  0  0  0  0  0  0
   -7.1542    1.5958    0.0000 C   0  0  0  0  0  0  0  0  0  0  0  0
   -6.7292    0.8708    0.0000 C   0  0  0  0  0  0  0  0  0  0  0  0
   -4.1833    0.5458    0.0000 C   0  0  0  0  0  0  0  0  0  0  0  0
  2  1  2  0  0  0  0
  3  1  1  0  0  0  0
  4  9  1  0  0  0  0
  5  1  1  0  0  0  0
  6  3  1  0  0  0  0
  7  5  1  0  0  0  0
  8  2  1  0  0  0  0
  9 12  1  0  0  0  0
 10  4  1  0  0  0  0
 11  4  1  0  0  0  0
 12 13  2  0  0  0  0
 13  8  1  0  0  0  0
 14  6  1  0  0  0  0
 15  8  2  0  0  0  0
 16 10  1  0  0  0  0
 17 11  1  0  0  0  0
 18 10  2  0  0  0  0
 19 11  2  0  0  0  0
 20  3  1  0  0  0  0
 21 14  1  0  0  0  0
 22  7  1  0  0  0  0
 23 25  1  0  0  0  0
 24 13  1  0  0  0  0
 25 24  2  0  0  0  0
 26 22  2  0  0  0  0
 27 14  2  0  0  0  0
 28 20  1  0  0  0  0
  7  6  2  0  0  0  0
 27 26  1  0  0  0  0
 23  9  2  0  0  0  0
 17 16  1  0  0  0  0
M  END
>  <IDNUMBER>
F1814-1676

>  <Chemical_Name>
3-(2,5-dioxopyrrolidin-1-yl)-N-[(2Z)-3-ethyl-4-fluoro-2,3-dihydro-1,3-benzothiazol-2-ylidene]benzamide

>  <PriceCoeff>
1.00

>  <CAS>
868375-25-1

>  <MW>
397.42

>  <Description>
solid

>  <FSP3>
0.20

>  <clogP>
3.62

>  <TPSA>
95.35

>  <Acceptor>
3

>  <Donor>
0

>  <RotBonds>
4

>  <HAC>
28

>  <Collection>
General

>  <PPDS>
+

$$$$
F1814-1805
  Mrv2219 10102508112D          

 23 25  0  0  0  0            999 V2000
   -1.0467    3.7542    0.0000 C   0  0  0  0  0  0  0  0  0  0  0  0
   -3.1237    4.9741    0.0000 N   0  0  0  0  0  0  0  0  0  0  0  0
   -0.2926    4.0922    0.0000 N   0  0  0  0  0  0  0  0  0  0  0  0
   -1.7390    4.1540    0.0000 N   0  0  0  0  0  0  0  0  0  0  0  0
   -0.9520    2.9301    0.0000 S   0  0  0  0  0  0  0  0  0  0  0  0
    0.2638    3.4699    0.0000 C   0  0  0  0  0  0  0  0  0  0  0  0
   -0.1566    2.7570    0.0000 C   0  0  0  0  0  0  0  0  0  0  0  0
    1.0921    3.4699    0.0000 C   0  0  0  0  0  0  0  0  0  0  0  0
   -3.7790    5.4521    0.0000 C   0  0  0  0  0  0  0  0  0  0  0  0
   -2.4603    5.4439    0.0000 C   0  0  0  0  0  0  0  0  0  0  0  0
   -2.4190    3.7584    0.0000 C   0  0  0  0  0  0  0  0  0  0  0  0
   -3.1237    4.1582    0.0000 C   0  0  0  0  0  0  0  0  0  0  0  0
    0.2596    2.0358    0.0000 C   0  0  0  0  0  0  0  0  0  0  0  0
    1.5001    2.7528    0.0000 C   0  0  0  0  0  0  0  0  0  0  0  0
    1.0880    2.0358    0.0000 C   0  0  0  0  0  0  0  0  0  0  0  0
   -2.7075    6.2310    0.0000 C   0  0  0  0  0  0  0  0  0  0  0  0
   -3.5235    6.2228    0.0000 C   0  0  0  0  0  0  0  0  0  0  0  0
   -1.6896    5.1925    0.0000 O   0  0  0  0  0  0  0  0  0  0  0  0
   -4.5496    5.2090    0.0000 O   0  0  0  0  0  0  0  0  0  0  0  0
   -2.4232    2.9754    0.0000 O   0  0  0  0  0  0  0  0  0  0  0  0
    1.5001    4.1582    0.0000 F   0  0  0  0  0  0  0  0  0  0  0  0
   -0.1195    4.8629    0.0000 C   0  0  0  0  0  0  0  0  0  0  0  0
    1.4836    1.3476    0.0000 F   0  0  0  0  0  0  0  0  0  0  0  0
  2 12  1  0  0  0  0
  3  1  1  0  0  0  0
  4  1  2  0  0  0  0
  5  1  1  0  0  0  0
  6  3  1  0  0  0  0
  7  5  1  0  0  0  0
  8  6  1  0  0  0  0
  9  2  1  0  0  0  0
 10  2  1  0  0  0  0
 11  4  1  0  0  0  0
 12 11  1  0  0  0  0
 13  7  1  0  0  0  0
 14  8  2  0  0  0  0
 15 13  2  0  0  0  0
 16 10  1  0  0  0  0
 17  9  1  0  0  0  0
 18 10  2  0  0  0  0
 19  9  2  0  0  0  0
 20 11  2  0  0  0  0
 21  8  1  0  0  0  0
 22  3  1  0  0  0  0
 23 15  1  0  0  0  0
  7  6  2  0  0  0  0
 14 15  1  0  0  0  0
 16 17  1  0  0  0  0
M  END
>  <IDNUMBER>
F1814-1805

>  <Chemical_Name>
N-[(2Z)-4,6-difluoro-3-methyl-2,3-dihydro-1,3-benzothiazol-2-ylidene]-2-(2,5-dioxopyrrolidin-1-yl)acetamide

>  <PriceCoeff>
1.00

>  <CAS>
868375-74-0

>  <MW>
339.32

>  <Description>
solid

>  <FSP3>
0.29

>  <clogP>
3.06

>  <TPSA>
95.35

>  <Acceptor>
3

>  <Donor>
0

>  <RotBonds>
3

>  <HAC>
23

>  <Collection>
General

>  <PPDS>
+

$$$$
F1814-1806
  Mrv2219 10102508112D          

 24 26  0  0  0  0            999 V2000
   -4.5625    2.6208    0.0000 C   0  0  0  0  0  0  0  0  0  0  0  0
   -3.1583    5.0292    0.0000 N   0  0  0  0  0  0  0  0  0  0  0  0
   -4.6458    1.7833    0.0000 N   0  0  0  0  0  0  0  0  0  0  0  0
   -3.8625    3.0083    0.0000 N   0  0  0  0  0  0  0  0  0  0  0  0
   -5.3208    2.9583    0.0000 S   0  0  0  0  0  0  0  0  0  0  0  0
   -5.4708    1.6125    0.0000 C   0  0  0  0  0  0  0  0  0  0  0  0
   -5.8833    2.3333    0.0000 C   0  0  0  0  0  0  0  0  0  0  0  0
   -5.8958    0.8875    0.0000 C   0  0  0  0  0  0  0  0  0  0  0  0
   -3.8208    5.5125    0.0000 C   0  0  0  0  0  0  0  0  0  0  0  0
   -2.4875    5.5042    0.0000 C   0  0  0  0  0  0  0  0  0  0  0  0
   -3.8708    3.8000    0.0000 C   0  0  0  0  0  0  0  0  0  0  0  0
   -3.1583    4.2042    0.0000 C   0  0  0  0  0  0  0  0  0  0  0  0
   -6.7167    2.3458    0.0000 C   0  0  0  0  0  0  0  0  0  0  0  0
   -6.7167    0.8958    0.0000 C   0  0  0  0  0  0  0  0  0  0  0  0
   -7.1292    1.6208    0.0000 C   0  0  0  0  0  0  0  0  0  0  0  0
   -2.7375    6.3000    0.0000 C   0  0  0  0  0  0  0  0  0  0  0  0
   -3.5625    6.2917    0.0000 C   0  0  0  0  0  0  0  0  0  0  0  0
   -1.7083    5.2500    0.0000 O   0  0  0  0  0  0  0  0  0  0  0  0
   -4.6000    5.2667    0.0000 O   0  0  0  0  0  0  0  0  0  0  0  0
   -4.5583    4.2000    0.0000 O   0  0  0  0  0  0  0  0  0  0  0  0
   -5.4833    0.1833    0.0000 F   0  0  0  0  0  0  0  0  0  0  0  0
   -4.0833    1.2375    0.0000 C   0  0  0  0  0  0  0  0  0  0  0  0
   -7.9167    1.6208    0.0000 F   0  0  0  0  0  0  0  0  0  0  0  0
   -4.2458    0.4375    0.0000 C   0  0  0  0  0  0  0  0  0  0  0  0
  2 12  1  0  0  0  0
  3  1  1  0  0  0  0
  4  1  2  0  0  0  0
  5  1  1  0  0  0  0
  6  3  1  0  0  0  0
  7  5  1  0  0  0  0
  8  6  1  0  0  0  0
  9  2  1  0  0  0  0
 10  2  1  0  0  0  0
 11  4  1  0  0  0  0
 12 11  1  0  0  0  0
 13  7  1  0  0  0  0
 14  8  2  0  0  0  0
 15 13  2  0  0  0  0
 16 10  1  0  0  0  0
 17  9  1  0  0  0  0
 18 10  2  0  0  0  0
 19  9  2  0  0  0  0
 20 11  2  0  0  0  0
 21  8  1  0  0  0  0
 22  3  1  0  0  0  0
 23 15  1  0  0  0  0
 24 22  1  0  0  0  0
  7  6  2  0  0  0  0
 14 15  1  0  0  0  0
 16 17  1  0  0  0  0
M  END
>  <IDNUMBER>
F1814-1806

>  <Chemical_Name>
2-(2,5-dioxopyrrolidin-1-yl)-N-[(2Z)-3-ethyl-4,6-difluoro-2,3-dihydro-1,3-benzothiazol-2-ylidene]acetamide

>  <PriceCoeff>
1.00

>  <CAS>
868375-75-1

>  <MW>
353.34

>  <Description>
solid

>  <FSP3>
0.33

>  <clogP>
3.59

>  <TPSA>
95.35

>  <Acceptor>
3

>  <Donor>
0

>  <RotBonds>
4

>  <HAC>
24

>  <Collection>
General

>  <PPDS>
+

$$$$
F1814-1807
  Mrv2219 10102508112D          

 22 24  0  0  0  0            999 V2000
   -4.5500    2.6083    0.0000 C   0  0  0  0  0  0  0  0  0  0  0  0
   -3.1583    5.0292    0.0000 N   0  0  0  0  0  0  0  0  0  0  0  0
   -4.6333    1.7833    0.0000 N   0  0  0  0  0  0  0  0  0  0  0  0
   -3.8625    3.0083    0.0000 N   0  0  0  0  0  0  0  0  0  0  0  0
   -5.3125    2.9458    0.0000 S   0  0  0  0  0  0  0  0  0  0  0  0
   -5.4583    1.6083    0.0000 C   0  0  0  0  0  0  0  0  0  0  0  0
   -5.8708    2.3333    0.0000 C   0  0  0  0  0  0  0  0  0  0  0  0
   -2.4875    5.5042    0.0000 C   0  0  0  0  0  0  0  0  0  0  0  0
   -3.8208    5.5125    0.0000 C   0  0  0  0  0  0  0  0  0  0  0  0
   -3.8708    3.8000    0.0000 C   0  0  0  0  0  0  0  0  0  0  0  0
   -3.1583    4.2042    0.0000 C   0  0  0  0  0  0  0  0  0  0  0  0
   -5.8708    0.8833    0.0000 C   0  0  0  0  0  0  0  0  0  0  0  0
   -3.5625    6.2917    0.0000 C   0  0  0  0  0  0  0  0  0  0  0  0
   -2.7375    6.3000    0.0000 C   0  0  0  0  0  0  0  0  0  0  0  0
   -4.6000    5.2667    0.0000 O   0  0  0  0  0  0  0  0  0  0  0  0
   -1.7083    5.2500    0.0000 O   0  0  0  0  0  0  0  0  0  0  0  0
   -4.5583    4.1917    0.0000 O   0  0  0  0  0  0  0  0  0  0  0  0
   -4.0500    1.2458    0.0000 C   0  0  0  0  0  0  0  0  0  0  0  0
   -5.4583    0.1833    0.0000 F   0  0  0  0  0  0  0  0  0  0  0  0
   -6.6917    2.3333    0.0000 C   0  0  0  0  0  0  0  0  0  0  0  0
   -7.1042    1.6083    0.0000 C   0  0  0  0  0  0  0  0  0  0  0  0
   -6.6875    0.8833    0.0000 C   0  0  0  0  0  0  0  0  0  0  0  0
  2 11  1  0  0  0  0
  3  1  1  0  0  0  0
  4  1  2  0  0  0  0
  5  1  1  0  0  0  0
  6  3  1  0  0  0  0
  7  5  1  0  0  0  0
  8  2  1  0  0  0  0
  9  2  1  0  0  0  0
 10  4  1  0  0  0  0
 11 10  1  0  0  0  0
 12  6  1  0  0  0  0
 13  9  1  0  0  0  0
 14  8  1  0  0  0  0
 15  9  2  0  0  0  0
 16  8  2  0  0  0  0
 17 10  2  0  0  0  0
 18  3  1  0  0  0  0
 19 12  1  0  0  0  0
 20  7  1  0  0  0  0
 21 20  2  0  0  0  0
 22 12  2  0  0  0  0
  7  6  2  0  0  0  0
 22 21  1  0  0  0  0
 14 13  1  0  0  0  0
M  END
>  <IDNUMBER>
F1814-1807

>  <Chemical_Name>
2-(2,5-dioxopyrrolidin-1-yl)-N-[(2Z)-4-fluoro-3-methyl-2,3-dihydro-1,3-benzothiazol-2-ylidene]acetamide

>  <PriceCoeff>
1.00

>  <CAS>
868375-76-2

>  <MW>
321.33

>  <Description>
solid

>  <FSP3>
0.29

>  <clogP>
2.92

>  <TPSA>
95.35

>  <Acceptor>
3

>  <Donor>
0

>  <RotBonds>
3

>  <HAC>
22

>  <Collection>
General

>  <PPDS>
+

$$$$
F1814-1808
  Mrv2219 10102508112D          

 23 25  0  0  0  0            999 V2000
   -4.5708    2.6083    0.0000 C   0  0  0  0  0  0  0  0  0  0  0  0
   -3.1583    5.0292    0.0000 N   0  0  0  0  0  0  0  0  0  0  0  0
   -4.6583    1.7625    0.0000 N   0  0  0  0  0  0  0  0  0  0  0  0
   -3.8708    3.0000    0.0000 N   0  0  0  0  0  0  0  0  0  0  0  0
   -5.3333    2.9375    0.0000 S   0  0  0  0  0  0  0  0  0  0  0  0
   -5.4833    1.5875    0.0000 C   0  0  0  0  0  0  0  0  0  0  0  0
   -5.8958    2.3208    0.0000 C   0  0  0  0  0  0  0  0  0  0  0  0
   -2.4875    5.5042    0.0000 C   0  0  0  0  0  0  0  0  0  0  0  0
   -3.8208    5.5125    0.0000 C   0  0  0  0  0  0  0  0  0  0  0  0
   -3.8708    3.8000    0.0000 C   0  0  0  0  0  0  0  0  0  0  0  0
   -3.1583    4.2042    0.0000 C   0  0  0  0  0  0  0  0  0  0  0  0
   -5.9083    0.8625    0.0000 C   0  0  0  0  0  0  0  0  0  0  0  0
   -3.5625    6.2917    0.0000 C   0  0  0  0  0  0  0  0  0  0  0  0
   -2.7375    6.3000    0.0000 C   0  0  0  0  0  0  0  0  0  0  0  0
   -4.6000    5.2667    0.0000 O   0  0  0  0  0  0  0  0  0  0  0  0
   -1.7083    5.2500    0.0000 O   0  0  0  0  0  0  0  0  0  0  0  0
   -4.5708    4.2042    0.0000 O   0  0  0  0  0  0  0  0  0  0  0  0
   -4.0708    1.2208    0.0000 C   0  0  0  0  0  0  0  0  0  0  0  0
   -5.4875    0.1583    0.0000 F   0  0  0  0  0  0  0  0  0  0  0  0
   -6.7292    2.3333    0.0000 C   0  0  0  0  0  0  0  0  0  0  0  0
   -7.1542    1.5958    0.0000 C   0  0  0  0  0  0  0  0  0  0  0  0
   -6.7292    0.8708    0.0000 C   0  0  0  0  0  0  0  0  0  0  0  0
   -4.1833    0.5458    0.0000 C   0  0  0  0  0  0  0  0  0  0  0  0
  2 11  1  0  0  0  0
  3  1  1  0  0  0  0
  4  1  2  0  0  0  0
  5  1  1  0  0  0  0
  6  3  1  0  0  0  0
  7  5  1  0  0  0  0
  8  2  1  0  0  0  0
  9  2  1  0  0  0  0
 10  4  1  0  0  0  0
 11 10  1  0  0  0  0
 12  6  1  0  0  0  0
 13  9  1  0  0  0  0
 14  8  1  0  0  0  0
 15  9  2  0  0  0  0
 16  8  2  0  0  0  0
 17 10  2  0  0  0  0
 18  3  1  0  0  0  0
 19 12  1  0  0  0  0
 20  7  1  0  0  0  0
 21 20  2  0  0  0  0
 22 12  2  0  0  0  0
 23 18  1  0  0  0  0
  7  6  2  0  0  0  0
 22 21  1  0  0  0  0
 14 13  1  0  0  0  0
M  END
>  <IDNUMBER>
F1814-1808

>  <Chemical_Name>
2-(2,5-dioxopyrrolidin-1-yl)-N-[(2Z)-3-ethyl-4-fluoro-2,3-dihydro-1,3-benzothiazol-2-ylidene]acetamide

>  <PriceCoeff>
1.00

>  <CAS>
868375-77-3

>  <MW>
335.35

>  <Description>
solid

>  <FSP3>
0.33

>  <clogP>
3.45

>  <TPSA>
95.35

>  <Acceptor>
3

>  <Donor>
0

>  <RotBonds>
4

>  <HAC>
23

>  <Collection>
General

>  <PPDS>
+

$$$$
F1815-0523
  Mrv2219 10102508112D          

 30 33  0  0  0  0            999 V2000
   -4.5966    2.5657    0.0000 C   0  0  0  0  0  0  0  0  0  0  0  0
   -3.8737    2.9920    0.0000 N   0  0  0  0  0  0  0  0  0  0  0  0
   -4.6886    1.7425    0.0000 N   0  0  0  0  0  0  0  0  0  0  0  0
   -1.0112    5.4449    0.0000 N   0  0  0  0  0  0  0  0  0  0  0  0
   -5.3279    2.9042    0.0000 S   0  0  0  0  0  0  0  0  0  0  0  0
   -5.4867    1.5879    0.0000 C   0  0  0  0  0  0  0  0  0  0  0  0
   -5.8920    2.3025    0.0000 C   0  0  0  0  0  0  0  0  0  0  0  0
   -3.8820    3.8110    0.0000 C   0  0  0  0  0  0  0  0  0  0  0  0
   -0.2507    5.1441    0.0000 C   0  0  0  0  0  0  0  0  0  0  0  0
   -0.9611    6.2723    0.0000 C   0  0  0  0  0  0  0  0  0  0  0  0
   -1.7300    5.0396    0.0000 C   0  0  0  0  0  0  0  0  0  0  0  0
   -3.1675    4.2164    0.0000 C   0  0  0  0  0  0  0  0  0  0  0  0
   -5.9129    0.8859    0.0000 C   0  0  0  0  0  0  0  0  0  0  0  0
   -4.5966    4.2247    0.0000 O   0  0  0  0  0  0  0  0  0  0  0  0
    0.2758    5.7792    0.0000 C   0  0  0  0  0  0  0  0  0  0  0  0
   -0.1504    6.4729    0.0000 C   0  0  0  0  0  0  0  0  0  0  0  0
   -0.0459    4.3418    0.0000 O   0  0  0  0  0  0  0  0  0  0  0  0
   -1.6004    6.8239    0.0000 O   0  0  0  0  0  0  0  0  0  0  0  0
   -1.7425    4.2164    0.0000 C   0  0  0  0  0  0  0  0  0  0  0  0
   -2.4529    5.4575    0.0000 C   0  0  0  0  0  0  0  0  0  0  0  0
   -3.1675    5.0438    0.0000 C   0  0  0  0  0  0  0  0  0  0  0  0
   -2.4571    3.8193    0.0000 C   0  0  0  0  0  0  0  0  0  0  0  0
   -4.0701    1.1784    0.0000 C   0  0  0  0  0  0  0  0  0  0  0  0
   -4.2581    0.3719    0.0000 C   0  0  0  0  0  0  0  0  0  0  0  0
   -3.6438   -0.1923    0.0000 C   0  0  0  0  0  0  0  0  0  0  0  0
   -6.7111    2.3275    0.0000 C   0  0  0  0  0  0  0  0  0  0  0  0
   -5.5117    0.1588    0.0000 O   0  0  0  0  0  0  0  0  0  0  0  0
   -7.1373    1.6172    0.0000 C   0  0  0  0  0  0  0  0  0  0  0  0
   -6.7236    0.8901    0.0000 C   0  0  0  0  0  0  0  0  0  0  0  0
   -5.9422   -0.5433    0.0000 C   0  0  0  0  0  0  0  0  0  0  0  0
  2  1  2  0  0  0  0
  3  1  1  0  0  0  0
  4 11  1  0  0  0  0
  5  1  1  0  0  0  0
  6  3  1  0  0  0  0
  7  5  1  0  0  0  0
  8  2  1  0  0  0  0
  9  4  1  0  0  0  0
 10  4  1  0  0  0  0
 11 19  2  0  0  0  0
 12  8  1  0  0  0  0
 13  6  1  0  0  0  0
 14  8  2  0  0  0  0
 15  9  1  0  0  0  0
 16 10  1  0  0  0  0
 17  9  2  0  0  0  0
 18 10  2  0  0  0  0
 19 22  1  0  0  0  0
 20 21  2  0  0  0  0
 21 12  1  0  0  0  0
 22 12  2  0  0  0  0
 23  3  1  0  0  0  0
 24 23  1  0  0  0  0
 25 24  2  0  0  0  0
 26  7  1  0  0  0  0
 27 13  1  0  0  0  0
 28 26  2  0  0  0  0
 29 13  2  0  0  0  0
 30 27  1  0  0  0  0
  6  7  2  0  0  0  0
 28 29  1  0  0  0  0
 20 11  1  0  0  0  0
 16 15  1  0  0  0  0
M  END
>  <IDNUMBER>
F1815-0523

>  <Chemical_Name>
4-(2,5-dioxopyrrolidin-1-yl)-N-[(2Z)-4-methoxy-3-(prop-2-en-1-yl)-2,3-dihydro-1,3-benzothiazol-2-ylidene]benzamide

>  <PriceCoeff>
1.00

>  <CAS>
1322201-81-9

>  <MW>
421.47

>  <Description>
solid

>  <FSP3>
0.18

>  <clogP>
3.64

>  <TPSA>
104.58

>  <Acceptor>
4

>  <Donor>
0

>  <RotBonds>
6

>  <HAC>
30

>  <Collection>
General

>  <PPDS>
+

$$$$
F1815-0524
  Mrv2219 10102508112D          

 31 34  0  0  0  0            999 V2000
   -4.6097    2.5703    0.0000 C   0  0  0  0  0  0  0  0  0  0  0  0
   -3.8742    2.9923    0.0000 N   0  0  0  0  0  0  0  0  0  0  0  0
   -4.7017    1.7511    0.0000 N   0  0  0  0  0  0  0  0  0  0  0  0
   -1.0114    5.4456    0.0000 N   0  0  0  0  0  0  0  0  0  0  0  0
   -5.3369    2.9088    0.0000 S   0  0  0  0  0  0  0  0  0  0  0  0
   -5.4999    1.5923    0.0000 C   0  0  0  0  0  0  0  0  0  0  0  0
   -5.9011    2.3153    0.0000 C   0  0  0  0  0  0  0  0  0  0  0  0
   -3.8825    3.8115    0.0000 C   0  0  0  0  0  0  0  0  0  0  0  0
   -0.2508    5.1447    0.0000 C   0  0  0  0  0  0  0  0  0  0  0  0
   -0.9612    6.2731    0.0000 C   0  0  0  0  0  0  0  0  0  0  0  0
   -1.7302    5.0402    0.0000 C   0  0  0  0  0  0  0  0  0  0  0  0
   -3.1679    4.2169    0.0000 C   0  0  0  0  0  0  0  0  0  0  0  0
   -5.9262    0.8860    0.0000 C   0  0  0  0  0  0  0  0  0  0  0  0
   -4.5972    4.2295    0.0000 O   0  0  0  0  0  0  0  0  0  0  0  0
    0.2758    5.7799    0.0000 C   0  0  0  0  0  0  0  0  0  0  0  0
   -0.1505    6.4737    0.0000 C   0  0  0  0  0  0  0  0  0  0  0  0
   -0.0459    4.3423    0.0000 O   0  0  0  0  0  0  0  0  0  0  0  0
   -1.6006    6.8248    0.0000 O   0  0  0  0  0  0  0  0  0  0  0  0
   -1.7428    4.2169    0.0000 C   0  0  0  0  0  0  0  0  0  0  0  0
   -2.4532    5.4582    0.0000 C   0  0  0  0  0  0  0  0  0  0  0  0
   -3.1679    5.0444    0.0000 C   0  0  0  0  0  0  0  0  0  0  0  0
   -2.4574    3.8198    0.0000 C   0  0  0  0  0  0  0  0  0  0  0  0
   -4.0831    1.1743    0.0000 C   0  0  0  0  0  0  0  0  0  0  0  0
   -4.2712    0.3719    0.0000 C   0  0  0  0  0  0  0  0  0  0  0  0
   -3.6610   -0.2006    0.0000 C   0  0  0  0  0  0  0  0  0  0  0  0
   -6.7203    2.3404    0.0000 C   0  0  0  0  0  0  0  0  0  0  0  0
   -5.5375    0.1588    0.0000 O   0  0  0  0  0  0  0  0  0  0  0  0
   -7.1508    1.6257    0.0000 C   0  0  0  0  0  0  0  0  0  0  0  0
   -6.7370    0.9027    0.0000 C   0  0  0  0  0  0  0  0  0  0  0  0
   -5.9638   -0.5433    0.0000 C   0  0  0  0  0  0  0  0  0  0  0  0
   -5.5877   -1.2580    0.0000 C   0  0  0  0  0  0  0  0  0  0  0  0
  2  1  2  0  0  0  0
  3  1  1  0  0  0  0
  4 11  1  0  0  0  0
  5  1  1  0  0  0  0
  6  3  1  0  0  0  0
  7  5  1  0  0  0  0
  8  2  1  0  0  0  0
  9  4  1  0  0  0  0
 10  4  1  0  0  0  0
 11 19  2  0  0  0  0
 12  8  1  0  0  0  0
 13  6  1  0  0  0  0
 14  8  2  0  0  0  0
 15  9  1  0  0  0  0
 16 10  1  0  0  0  0
 17  9  2  0  0  0  0
 18 10  2  0  0  0  0
 19 22  1  0  0  0  0
 20 21  2  0  0  0  0
 21 12  1  0  0  0  0
 22 12  2  0  0  0  0
 23  3  1  0  0  0  0
 24 23  1  0  0  0  0
 25 24  2  0  0  0  0
 26  7  1  0  0  0  0
 27 13  1  0  0  0  0
 28 26  2  0  0  0  0
 29 13  2  0  0  0  0
 30 27  1  0  0  0  0
 31 30  1  0  0  0  0
  6  7  2  0  0  0  0
 28 29  1  0  0  0  0
 20 11  1  0  0  0  0
 16 15  1  0  0  0  0
M  END
>  <IDNUMBER>
F1815-0524

>  <Chemical_Name>
4-(2,5-dioxopyrrolidin-1-yl)-N-[(2Z)-4-ethoxy-3-(prop-2-en-1-yl)-2,3-dihydro-1,3-benzothiazol-2-ylidene]benzamide

>  <PriceCoeff>
1.00

>  <CAS>
1321969-67-8

>  <MW>
435.50

>  <Description>
solid

>  <FSP3>
0.22

>  <clogP>
4.17

>  <TPSA>
104.58

>  <Acceptor>
4

>  <Donor>
0

>  <RotBonds>
7

>  <HAC>
31

>  <Collection>
General

>  <PPDS>
+

$$$$
F1815-0721
  Mrv2219 10102508112D          

 30 33  0  0  0  0            999 V2000
   -4.5973    2.5661    0.0000 C   0  0  0  0  0  0  0  0  0  0  0  0
   -3.8742    2.9924    0.0000 N   0  0  0  0  0  0  0  0  0  0  0  0
   -4.6893    1.7428    0.0000 N   0  0  0  0  0  0  0  0  0  0  0  0
   -1.0239    3.8115    0.0000 N   0  0  0  0  0  0  0  0  0  0  0  0
   -5.3286    2.9046    0.0000 S   0  0  0  0  0  0  0  0  0  0  0  0
   -5.4874    1.5881    0.0000 C   0  0  0  0  0  0  0  0  0  0  0  0
   -5.8929    2.3027    0.0000 C   0  0  0  0  0  0  0  0  0  0  0  0
   -3.8826    3.8115    0.0000 C   0  0  0  0  0  0  0  0  0  0  0  0
   -1.7386    4.2170    0.0000 C   0  0  0  0  0  0  0  0  0  0  0  0
   -0.9737    2.9924    0.0000 C   0  0  0  0  0  0  0  0  0  0  0  0
   -0.2591    4.1041    0.0000 C   0  0  0  0  0  0  0  0  0  0  0  0
   -2.4532    3.8199    0.0000 C   0  0  0  0  0  0  0  0  0  0  0  0
   -3.1679    4.2170    0.0000 C   0  0  0  0  0  0  0  0  0  0  0  0
   -5.9138    0.8860    0.0000 C   0  0  0  0  0  0  0  0  0  0  0  0
   -4.5973    4.2253    0.0000 O   0  0  0  0  0  0  0  0  0  0  0  0
   -0.1588    2.7918    0.0000 C   0  0  0  0  0  0  0  0  0  0  0  0
    0.2759    3.4814    0.0000 C   0  0  0  0  0  0  0  0  0  0  0  0
   -1.6132    2.4658    0.0000 O   0  0  0  0  0  0  0  0  0  0  0  0
   -0.0376    4.9024    0.0000 O   0  0  0  0  0  0  0  0  0  0  0  0
   -4.0706    1.1786    0.0000 C   0  0  0  0  0  0  0  0  0  0  0  0
   -4.2587    0.3720    0.0000 C   0  0  0  0  0  0  0  0  0  0  0  0
   -3.6444   -0.1923    0.0000 C   0  0  0  0  0  0  0  0  0  0  0  0
   -6.7120    2.3278    0.0000 C   0  0  0  0  0  0  0  0  0  0  0  0
   -1.7303    5.0446    0.0000 C   0  0  0  0  0  0  0  0  0  0  0  0
   -5.5125    0.1588    0.0000 O   0  0  0  0  0  0  0  0  0  0  0  0
   -3.1679    5.0446    0.0000 C   0  0  0  0  0  0  0  0  0  0  0  0
   -2.4449    5.4582    0.0000 C   0  0  0  0  0  0  0  0  0  0  0  0
   -7.1384    1.6174    0.0000 C   0  0  0  0  0  0  0  0  0  0  0  0
   -6.7246    0.8902    0.0000 C   0  0  0  0  0  0  0  0  0  0  0  0
   -5.9430   -0.5434    0.0000 C   0  0  0  0  0  0  0  0  0  0  0  0
  2  1  2  0  0  0  0
  3  1  1  0  0  0  0
  4  9  1  0  0  0  0
  5  1  1  0  0  0  0
  6  3  1  0  0  0  0
  7  5  1  0  0  0  0
  8  2  1  0  0  0  0
  9 12  1  0  0  0  0
 10  4  1  0  0  0  0
 11  4  1  0  0  0  0
 12 13  2  0  0  0  0
 13  8  1  0  0  0  0
 14  6  1  0  0  0  0
 15  8  2  0  0  0  0
 16 10  1  0  0  0  0
 17 11  1  0  0  0  0
 18 10  2  0  0  0  0
 19 11  2  0  0  0  0
 20  3  1  0  0  0  0
 21 20  1  0  0  0  0
 22 21  2  0  0  0  0
 23  7  1  0  0  0  0
 24 27  1  0  0  0  0
 25 14  1  0  0  0  0
 26 13  1  0  0  0  0
 27 26  2  0  0  0  0
 28 23  2  0  0  0  0
 29 14  2  0  0  0  0
 30 25  1  0  0  0  0
  6  7  2  0  0  0  0
 28 29  1  0  0  0  0
 24  9  2  0  0  0  0
 17 16  1  0  0  0  0
M  END
>  <IDNUMBER>
F1815-0721

>  <Chemical_Name>
3-(2,5-dioxopyrrolidin-1-yl)-N-[(2Z)-4-methoxy-3-(prop-2-en-1-yl)-2,3-dihydro-1,3-benzothiazol-2-ylidene]benzamide

>  <PriceCoeff>
1.00

>  <CAS>
868376-47-0

>  <MW>
421.47

>  <Description>
solid

>  <FSP3>
0.18

>  <clogP>
3.64

>  <TPSA>
104.58

>  <Acceptor>
4

>  <Donor>
0

>  <RotBonds>
6

>  <HAC>
30

>  <Collection>
General

>  <PPDS>
+

$$$$
F1815-0722
  Mrv2219 10102508112D          

 31 34  0  0  0  0            999 V2000
   -4.6122    2.5717    0.0000 C   0  0  0  0  0  0  0  0  0  0  0  0
   -3.8763    2.9940    0.0000 N   0  0  0  0  0  0  0  0  0  0  0  0
   -4.7043    1.7520    0.0000 N   0  0  0  0  0  0  0  0  0  0  0  0
   -1.0245    3.8136    0.0000 N   0  0  0  0  0  0  0  0  0  0  0  0
   -5.3398    2.9104    0.0000 S   0  0  0  0  0  0  0  0  0  0  0  0
   -5.5029    1.5932    0.0000 C   0  0  0  0  0  0  0  0  0  0  0  0
   -5.9043    2.3166    0.0000 C   0  0  0  0  0  0  0  0  0  0  0  0
   -3.8846    3.8136    0.0000 C   0  0  0  0  0  0  0  0  0  0  0  0
   -1.7395    4.2192    0.0000 C   0  0  0  0  0  0  0  0  0  0  0  0
   -0.9743    2.9940    0.0000 C   0  0  0  0  0  0  0  0  0  0  0  0
   -0.2592    4.1063    0.0000 C   0  0  0  0  0  0  0  0  0  0  0  0
   -2.4545    3.8219    0.0000 C   0  0  0  0  0  0  0  0  0  0  0  0
   -3.1696    4.2192    0.0000 C   0  0  0  0  0  0  0  0  0  0  0  0
   -5.9294    0.8865    0.0000 C   0  0  0  0  0  0  0  0  0  0  0  0
   -4.5997    4.2318    0.0000 O   0  0  0  0  0  0  0  0  0  0  0  0
   -0.1589    2.7933    0.0000 C   0  0  0  0  0  0  0  0  0  0  0  0
    0.2760    3.4832    0.0000 C   0  0  0  0  0  0  0  0  0  0  0  0
   -1.6141    2.4671    0.0000 O   0  0  0  0  0  0  0  0  0  0  0  0
   -0.0376    4.9050    0.0000 O   0  0  0  0  0  0  0  0  0  0  0  0
   -4.0854    1.1750    0.0000 C   0  0  0  0  0  0  0  0  0  0  0  0
   -4.2735    0.3721    0.0000 C   0  0  0  0  0  0  0  0  0  0  0  0
   -3.6631   -0.2007    0.0000 C   0  0  0  0  0  0  0  0  0  0  0  0
   -6.7240    2.3416    0.0000 C   0  0  0  0  0  0  0  0  0  0  0  0
   -1.7312    5.0472    0.0000 C   0  0  0  0  0  0  0  0  0  0  0  0
   -5.5406    0.1589    0.0000 O   0  0  0  0  0  0  0  0  0  0  0  0
   -3.1696    5.0472    0.0000 C   0  0  0  0  0  0  0  0  0  0  0  0
   -2.4462    5.4612    0.0000 C   0  0  0  0  0  0  0  0  0  0  0  0
   -7.1547    1.6266    0.0000 C   0  0  0  0  0  0  0  0  0  0  0  0
   -6.7407    0.9032    0.0000 C   0  0  0  0  0  0  0  0  0  0  0  0
   -5.9671   -0.5436    0.0000 C   0  0  0  0  0  0  0  0  0  0  0  0
   -5.5907   -1.2587    0.0000 C   0  0  0  0  0  0  0  0  0  0  0  0
  2  1  2  0  0  0  0
  3  1  1  0  0  0  0
  4  9  1  0  0  0  0
  5  1  1  0  0  0  0
  6  3  1  0  0  0  0
  7  5  1  0  0  0  0
  8  2  1  0  0  0  0
  9 12  1  0  0  0  0
 10  4  1  0  0  0  0
 11  4  1  0  0  0  0
 12 13  2  0  0  0  0
 13  8  1  0  0  0  0
 14  6  1  0  0  0  0
 15  8  2  0  0  0  0
 16 10  1  0  0  0  0
 17 11  1  0  0  0  0
 18 10  2  0  0  0  0
 19 11  2  0  0  0  0
 20  3  1  0  0  0  0
 21 20  1  0  0  0  0
 22 21  2  0  0  0  0
 23  7  1  0  0  0  0
 24 27  1  0  0  0  0
 25 14  1  0  0  0  0
 26 13  1  0  0  0  0
 27 26  2  0  0  0  0
 28 23  2  0  0  0  0
 29 14  2  0  0  0  0
 30 25  1  0  0  0  0
 31 30  1  0  0  0  0
  6  7  2  0  0  0  0
 28 29  1  0  0  0  0
 24  9  2  0  0  0  0
 17 16  1  0  0  0  0
M  END
>  <IDNUMBER>
F1815-0722

>  <Chemical_Name>
3-(2,5-dioxopyrrolidin-1-yl)-N-[(2Z)-4-ethoxy-3-(prop-2-en-1-yl)-2,3-dihydro-1,3-benzothiazol-2-ylidene]benzamide

>  <PriceCoeff>
1.00

>  <CAS>
868376-48-1

>  <MW>
435.50

>  <Description>
solid

>  <FSP3>
0.22

>  <clogP>
4.17

>  <TPSA>
104.58

>  <Acceptor>
4

>  <Donor>
0

>  <RotBonds>
7

>  <HAC>
31

>  <Collection>
General

>  <PPDS>
+

$$$$
F1815-1183
  Mrv2219 10102508112D          

 25 27  0  0  0  0            999 V2000
   -4.6003    2.5678    0.0000 C   0  0  0  0  0  0  0  0  0  0  0  0
   -3.1700    5.0479    0.0000 N   0  0  0  0  0  0  0  0  0  0  0  0
   -4.6924    1.7440    0.0000 N   0  0  0  0  0  0  0  0  0  0  0  0
   -3.8768    2.9944    0.0000 N   0  0  0  0  0  0  0  0  0  0  0  0
   -5.3322    2.9066    0.0000 S   0  0  0  0  0  0  0  0  0  0  0  0
   -5.4911    1.5892    0.0000 C   0  0  0  0  0  0  0  0  0  0  0  0
   -5.8968    2.3043    0.0000 C   0  0  0  0  0  0  0  0  0  0  0  0
   -2.4967    5.5246    0.0000 C   0  0  0  0  0  0  0  0  0  0  0  0
   -3.8350    5.5330    0.0000 C   0  0  0  0  0  0  0  0  0  0  0  0
   -3.8852    3.8141    0.0000 C   0  0  0  0  0  0  0  0  0  0  0  0
   -3.1700    4.2198    0.0000 C   0  0  0  0  0  0  0  0  0  0  0  0
   -5.9177    0.8866    0.0000 C   0  0  0  0  0  0  0  0  0  0  0  0
   -3.5757    6.3151    0.0000 C   0  0  0  0  0  0  0  0  0  0  0  0
   -2.7477    6.3234    0.0000 C   0  0  0  0  0  0  0  0  0  0  0  0
   -4.6171    5.2863    0.0000 O   0  0  0  0  0  0  0  0  0  0  0  0
   -1.7146    5.2695    0.0000 O   0  0  0  0  0  0  0  0  0  0  0  0
   -4.6003    4.2281    0.0000 O   0  0  0  0  0  0  0  0  0  0  0  0
   -4.0734    1.1794    0.0000 C   0  0  0  0  0  0  0  0  0  0  0  0
   -4.2616    0.3722    0.0000 C   0  0  0  0  0  0  0  0  0  0  0  0
   -3.6468   -0.1924    0.0000 C   0  0  0  0  0  0  0  0  0  0  0  0
   -6.7166    2.3294    0.0000 C   0  0  0  0  0  0  0  0  0  0  0  0
   -5.5162    0.1589    0.0000 O   0  0  0  0  0  0  0  0  0  0  0  0
   -7.1431    1.6185    0.0000 C   0  0  0  0  0  0  0  0  0  0  0  0
   -6.7291    0.8908    0.0000 C   0  0  0  0  0  0  0  0  0  0  0  0
   -5.9470   -0.5437    0.0000 C   0  0  0  0  0  0  0  0  0  0  0  0
  2 11  1  0  0  0  0
  3  1  1  0  0  0  0
  4  1  2  0  0  0  0
  5  1  1  0  0  0  0
  6  3  1  0  0  0  0
  7  5  1  0  0  0  0
  8  2  1  0  0  0  0
  9  2  1  0  0  0  0
 10  4  1  0  0  0  0
 11 10  1  0  0  0  0
 12  6  1  0  0  0  0
 13  9  1  0  0  0  0
 14  8  1  0  0  0  0
 15  9  2  0  0  0  0
 16  8  2  0  0  0  0
 17 10  2  0  0  0  0
 18  3  1  0  0  0  0
 19 18  1  0  0  0  0
 20 19  2  0  0  0  0
 21  7  1  0  0  0  0
 22 12  1  0  0  0  0
 23 21  2  0  0  0  0
 24 12  2  0  0  0  0
 25 22  1  0  0  0  0
  6  7  2  0  0  0  0
 23 24  1  0  0  0  0
 14 13  1  0  0  0  0
M  END
>  <IDNUMBER>
F1815-1183

>  <Chemical_Name>
2-(2,5-dioxopyrrolidin-1-yl)-N-[(2Z)-4-methoxy-3-(prop-2-en-1-yl)-2,3-dihydro-1,3-benzothiazol-2-ylidene]acetamide

>  <PriceCoeff>
1.00

>  <CAS>
1164535-92-5

>  <MW>
359.40

>  <Description>
solid

>  <FSP3>
0.29

>  <clogP>
3.47

>  <TPSA>
104.58

>  <Acceptor>
4

>  <Donor>
0

>  <RotBonds>
6

>  <HAC>
25

>  <Collection>
General

>  <PPDS>
+

$$$$
F1815-1184
  Mrv2219 10102508112D          

 26 28  0  0  0  0            999 V2000
   -4.6129    2.5720    0.0000 C   0  0  0  0  0  0  0  0  0  0  0  0
   -3.1700    5.0479    0.0000 N   0  0  0  0  0  0  0  0  0  0  0  0
   -4.7049    1.7523    0.0000 N   0  0  0  0  0  0  0  0  0  0  0  0
   -3.8768    2.9944    0.0000 N   0  0  0  0  0  0  0  0  0  0  0  0
   -5.3406    2.9108    0.0000 S   0  0  0  0  0  0  0  0  0  0  0  0
   -5.5037    1.5934    0.0000 C   0  0  0  0  0  0  0  0  0  0  0  0
   -5.9051    2.3169    0.0000 C   0  0  0  0  0  0  0  0  0  0  0  0
   -2.4967    5.5246    0.0000 C   0  0  0  0  0  0  0  0  0  0  0  0
   -3.8350    5.5330    0.0000 C   0  0  0  0  0  0  0  0  0  0  0  0
   -3.8852    3.8141    0.0000 C   0  0  0  0  0  0  0  0  0  0  0  0
   -3.1700    4.2198    0.0000 C   0  0  0  0  0  0  0  0  0  0  0  0
   -5.9302    0.8866    0.0000 C   0  0  0  0  0  0  0  0  0  0  0  0
   -3.5757    6.3151    0.0000 C   0  0  0  0  0  0  0  0  0  0  0  0
   -2.7477    6.3234    0.0000 C   0  0  0  0  0  0  0  0  0  0  0  0
   -4.6171    5.2863    0.0000 O   0  0  0  0  0  0  0  0  0  0  0  0
   -1.7146    5.2695    0.0000 O   0  0  0  0  0  0  0  0  0  0  0  0
   -4.6003    4.2324    0.0000 O   0  0  0  0  0  0  0  0  0  0  0  0
   -4.0859    1.1751    0.0000 C   0  0  0  0  0  0  0  0  0  0  0  0
   -4.2741    0.3722    0.0000 C   0  0  0  0  0  0  0  0  0  0  0  0
   -3.6636   -0.2007    0.0000 C   0  0  0  0  0  0  0  0  0  0  0  0
   -6.7249    2.3420    0.0000 C   0  0  0  0  0  0  0  0  0  0  0  0
   -5.5413    0.1589    0.0000 O   0  0  0  0  0  0  0  0  0  0  0  0
   -7.1557    1.6268    0.0000 C   0  0  0  0  0  0  0  0  0  0  0  0
   -6.7416    0.9033    0.0000 C   0  0  0  0  0  0  0  0  0  0  0  0
   -5.9679   -0.5437    0.0000 C   0  0  0  0  0  0  0  0  0  0  0  0
   -5.5915   -1.2589    0.0000 C   0  0  0  0  0  0  0  0  0  0  0  0
  2 11  1  0  0  0  0
  3  1  1  0  0  0  0
  4  1  2  0  0  0  0
  5  1  1  0  0  0  0
  6  3  1  0  0  0  0
  7  5  1  0  0  0  0
  8  2  1  0  0  0  0
  9  2  1  0  0  0  0
 10  4  1  0  0  0  0
 11 10  1  0  0  0  0
 12  6  1  0  0  0  0
 13  9  1  0  0  0  0
 14  8  1  0  0  0  0
 15  9  2  0  0  0  0
 16  8  2  0  0  0  0
 17 10  2  0  0  0  0
 18  3  1  0  0  0  0
 19 18  1  0  0  0  0
 20 19  2  0  0  0  0
 21  7  1  0  0  0  0
 22 12  1  0  0  0  0
 23 21  2  0  0  0  0
 24 12  2  0  0  0  0
 25 22  1  0  0  0  0
 26 25  1  0  0  0  0
  6  7  2  0  0  0  0
 23 24  1  0  0  0  0
 14 13  1  0  0  0  0
M  END
>  <IDNUMBER>
F1815-1184

>  <Chemical_Name>
2-(2,5-dioxopyrrolidin-1-yl)-N-[(2Z)-4-ethoxy-3-(prop-2-en-1-yl)-2,3-dihydro-1,3-benzothiazol-2-ylidene]acetamide

>  <PriceCoeff>
1.00

>  <CAS>
868376-69-6

>  <MW>
373.43

>  <Description>
solid

>  <FSP3>
0.33

>  <clogP>
4.00

>  <TPSA>
104.58

>  <Acceptor>
4

>  <Donor>
0

>  <RotBonds>
7

>  <HAC>
26

>  <Collection>
General

>  <PPDS>
+

$$$$
F1815-1185
  Mrv2219 10102508112D          

 24 26  0  0  0  0            999 V2000
   -4.5928    2.5636    0.0000 C   0  0  0  0  0  0  0  0  0  0  0  0
   -3.1648    5.0396    0.0000 N   0  0  0  0  0  0  0  0  0  0  0  0
   -4.6847    1.7411    0.0000 N   0  0  0  0  0  0  0  0  0  0  0  0
   -3.8705    2.9895    0.0000 N   0  0  0  0  0  0  0  0  0  0  0  0
   -5.3235    2.9018    0.0000 S   0  0  0  0  0  0  0  0  0  0  0  0
   -5.4821    1.5866    0.0000 C   0  0  0  0  0  0  0  0  0  0  0  0
   -5.8872    2.3006    0.0000 C   0  0  0  0  0  0  0  0  0  0  0  0
   -2.4927    5.5156    0.0000 C   0  0  0  0  0  0  0  0  0  0  0  0
   -3.8287    5.5239    0.0000 C   0  0  0  0  0  0  0  0  0  0  0  0
   -3.8788    3.8079    0.0000 C   0  0  0  0  0  0  0  0  0  0  0  0
   -3.1648    4.2129    0.0000 C   0  0  0  0  0  0  0  0  0  0  0  0
   -2.7432    6.3131    0.0000 C   0  0  0  0  0  0  0  0  0  0  0  0
   -3.5699    6.3047    0.0000 C   0  0  0  0  0  0  0  0  0  0  0  0
   -1.7118    5.2609    0.0000 O   0  0  0  0  0  0  0  0  0  0  0  0
   -4.6095    5.2776    0.0000 O   0  0  0  0  0  0  0  0  0  0  0  0
   -5.9080    0.8851    0.0000 C   0  0  0  0  0  0  0  0  0  0  0  0
   -4.5928    4.2212    0.0000 O   0  0  0  0  0  0  0  0  0  0  0  0
   -4.2546    0.3716    0.0000 C   0  0  0  0  0  0  0  0  0  0  0  0
   -4.0667    1.1774    0.0000 C   0  0  0  0  0  0  0  0  0  0  0  0
   -3.6408   -0.1921    0.0000 C   0  0  0  0  0  0  0  0  0  0  0  0
   -6.7056    2.3256    0.0000 C   0  0  0  0  0  0  0  0  0  0  0  0
   -7.1314    1.6158    0.0000 C   0  0  0  0  0  0  0  0  0  0  0  0
   -6.7181    0.8893    0.0000 C   0  0  0  0  0  0  0  0  0  0  0  0
   -5.5072    0.1586    0.0000 C   0  0  0  0  0  0  0  0  0  0  0  0
  2 11  1  0  0  0  0
  3  1  1  0  0  0  0
  4  1  2  0  0  0  0
  5  1  1  0  0  0  0
  6  3  1  0  0  0  0
  7  5  1  0  0  0  0
  8  2  1  0  0  0  0
  9  2  1  0  0  0  0
 10  4  1  0  0  0  0
 11 10  1  0  0  0  0
 12  8  1  0  0  0  0
 13  9  1  0  0  0  0
 14  8  2  0  0  0  0
 15  9  2  0  0  0  0
 16  6  1  0  0  0  0
 17 10  2  0  0  0  0
 18 19  1  0  0  0  0
 19  3  1  0  0  0  0
 20 18  2  0  0  0  0
 21  7  1  0  0  0  0
 22 21  2  0  0  0  0
 23 16  2  0  0  0  0
 24 16  1  0  0  0  0
  6  7  2  0  0  0  0
 22 23  1  0  0  0  0
 12 13  1  0  0  0  0
M  END
>  <IDNUMBER>
F1815-1185

>  <Chemical_Name>
2-(2,5-dioxopyrrolidin-1-yl)-N-[(2Z)-4-methyl-3-(prop-2-en-1-yl)-2,3-dihydro-1,3-benzothiazol-2-ylidene]acetamide

>  <PriceCoeff>
1.00

>  <CAS>
1321875-01-7

>  <MW>
343.40

>  <Description>
solid

>  <FSP3>
0.29

>  <clogP>
4.05

>  <TPSA>
95.35

>  <Acceptor>
3

>  <Donor>
0

>  <RotBonds>
5

>  <HAC>
24

>  <Collection>
General

>  <PPDS>
+

$$$$
F1816-0521
  Mrv2219 10102508112D          

 30 33  0  0  0  0            999 V2000
   -4.5776    2.5468    0.0000 C   0  0  0  0  0  0  0  0  0  0  0  0
   -3.8660    2.9671    0.0000 N   0  0  0  0  0  0  0  0  0  0  0  0
   -4.6692    1.7312    0.0000 N   0  0  0  0  0  0  0  0  0  0  0  0
   -5.3142    2.8922    0.0000 S   0  0  0  0  0  0  0  0  0  0  0  0
   -5.4765    1.5689    0.0000 C   0  0  0  0  0  0  0  0  0  0  0  0
   -0.9946    5.4308    0.0000 N   0  0  0  0  0  0  0  0  0  0  0  0
   -5.8760    2.2930    0.0000 C   0  0  0  0  0  0  0  0  0  0  0  0
   -3.8660    3.7953    0.0000 C   0  0  0  0  0  0  0  0  0  0  0  0
   -0.2330    5.1311    0.0000 C   0  0  0  0  0  0  0  0  0  0  0  0
   -0.9363    6.2589    0.0000 C   0  0  0  0  0  0  0  0  0  0  0  0
   -6.6959    2.3054    0.0000 C   0  0  0  0  0  0  0  0  0  0  0  0
   -1.7104    5.0230    0.0000 C   0  0  0  0  0  0  0  0  0  0  0  0
   -4.2405    0.3496    0.0000 C   0  0  0  0  0  0  0  0  0  0  0  0
   -4.4153   -0.4536    0.0000 C   0  0  0  0  0  0  0  0  0  0  0  0
   -5.9010    0.8697    0.0000 C   0  0  0  0  0  0  0  0  0  0  0  0
   -3.1544    4.2073    0.0000 C   0  0  0  0  0  0  0  0  0  0  0  0
   -7.1204    1.5980    0.0000 C   0  0  0  0  0  0  0  0  0  0  0  0
   -4.5901    4.2073    0.0000 O   0  0  0  0  0  0  0  0  0  0  0  0
    0.2913    5.7596    0.0000 C   0  0  0  0  0  0  0  0  0  0  0  0
   -0.1331    6.4587    0.0000 C   0  0  0  0  0  0  0  0  0  0  0  0
   -0.0333    4.3238    0.0000 O   0  0  0  0  0  0  0  0  0  0  0  0
   -1.5813    6.8041    0.0000 O   0  0  0  0  0  0  0  0  0  0  0  0
   -6.7084    0.8822    0.0000 C   0  0  0  0  0  0  0  0  0  0  0  0
   -4.0533    1.1611    0.0000 C   0  0  0  0  0  0  0  0  0  0  0  0
   -1.7312    4.1990    0.0000 C   0  0  0  0  0  0  0  0  0  0  0  0
   -2.4303    5.4474    0.0000 C   0  0  0  0  0  0  0  0  0  0  0  0
   -3.1461    5.0355    0.0000 C   0  0  0  0  0  0  0  0  0  0  0  0
   -2.4428    3.8036    0.0000 C   0  0  0  0  0  0  0  0  0  0  0  0
   -7.0954    3.0295    0.0000 C   0  0  0  0  0  0  0  0  0  0  0  0
   -7.1079    0.1581    0.0000 C   0  0  0  0  0  0  0  0  0  0  0  0
  2  1  2  0  0  0  0
  3  1  1  0  0  0  0
  4  1  1  0  0  0  0
  5  3  1  0  0  0  0
  6 12  1  0  0  0  0
  7  4  1  0  0  0  0
  8  2  1  0  0  0  0
  9  6  1  0  0  0  0
 10  6  1  0  0  0  0
 11  7  1  0  0  0  0
 12 25  2  0  0  0  0
 13 24  1  0  0  0  0
 14 13  3  0  0  0  0
 15  5  1  0  0  0  0
 16  8  1  0  0  0  0
 17 11  2  0  0  0  0
 18  8  2  0  0  0  0
 19  9  1  0  0  0  0
 20 10  1  0  0  0  0
 21  9  2  0  0  0  0
 22 10  2  0  0  0  0
 23 15  2  0  0  0  0
 24  3  1  0  0  0  0
 25 28  1  0  0  0  0
 26 27  2  0  0  0  0
 27 16  1  0  0  0  0
 28 16  2  0  0  0  0
 29 11  1  0  0  0  0
 30 23  1  0  0  0  0
  5  7  2  0  0  0  0
 17 23  1  0  0  0  0
 26 12  1  0  0  0  0
 20 19  1  0  0  0  0
M  END
>  <IDNUMBER>
F1816-0521

>  <Chemical_Name>
N-[(2Z)-5,7-dimethyl-3-(prop-2-yn-1-yl)-2,3-dihydro-1,3-benzothiazol-2-ylidene]-4-(2,5-dioxopyrrolidin-1-yl)benzamide

>  <PriceCoeff>
1.00

>  <CAS>
868377-94-0

>  <MW>
417.48

>  <Description>
solid

>  <FSP3>
0.22

>  <clogP>
4.05

>  <TPSA>
95.35

>  <Acceptor>
3

>  <Donor>
0

>  <RotBonds>
5

>  <HAC>
30

>  <Collection>
General

>  <PPDS>
+

$$$$
F1816-0528
  Mrv2219 10102508112D          

 32 36  0  0  0  0            999 V2000
   -4.5821    2.5493    0.0000 C   0  0  0  0  0  0  0  0  0  0  0  0
   -3.8698    2.9825    0.0000 N   0  0  0  0  0  0  0  0  0  0  0  0
   -5.3486    2.8701    0.0000 S   0  0  0  0  0  0  0  0  0  0  0  0
   -4.6570    1.7371    0.0000 N   0  0  0  0  0  0  0  0  0  0  0  0
   -5.8818    2.2452    0.0000 C   0  0  0  0  0  0  0  0  0  0  0  0
   -0.9955    5.4361    0.0000 N   0  0  0  0  0  0  0  0  0  0  0  0
   -5.4569    1.5454    0.0000 C   0  0  0  0  0  0  0  0  0  0  0  0
   -3.8698    3.7990    0.0000 C   0  0  0  0  0  0  0  0  0  0  0  0
   -0.2333    5.1361    0.0000 C   0  0  0  0  0  0  0  0  0  0  0  0
   -0.9372    6.2650    0.0000 C   0  0  0  0  0  0  0  0  0  0  0  0
   -6.7024    2.2327    0.0000 C   0  0  0  0  0  0  0  0  0  0  0  0
   -1.7121    5.0278    0.0000 C   0  0  0  0  0  0  0  0  0  0  0  0
   -5.8443    0.8205    0.0000 C   0  0  0  0  0  0  0  0  0  0  0  0
   -3.2367    1.4621    0.0000 C   0  0  0  0  0  0  0  0  0  0  0  0
   -2.4618    1.7454    0.0000 C   0  0  0  0  0  0  0  0  0  0  0  0
   -3.1575    4.2114    0.0000 C   0  0  0  0  0  0  0  0  0  0  0  0
   -4.5821    4.2031    0.0000 O   0  0  0  0  0  0  0  0  0  0  0  0
   -0.1333    6.4650    0.0000 C   0  0  0  0  0  0  0  0  0  0  0  0
    0.2916    5.7652    0.0000 C   0  0  0  0  0  0  0  0  0  0  0  0
   -1.5829    6.8107    0.0000 O   0  0  0  0  0  0  0  0  0  0  0  0
   -0.0333    4.3281    0.0000 O   0  0  0  0  0  0  0  0  0  0  0  0
   -4.0197    1.1955    0.0000 C   0  0  0  0  0  0  0  0  0  0  0  0
   -7.1023    1.5079    0.0000 C   0  0  0  0  0  0  0  0  0  0  0  0
   -6.6649    0.7955    0.0000 C   0  0  0  0  0  0  0  0  0  0  0  0
   -1.7329    4.2031    0.0000 C   0  0  0  0  0  0  0  0  0  0  0  0
   -2.4326    5.4528    0.0000 C   0  0  0  0  0  0  0  0  0  0  0  0
   -3.1492    5.0403    0.0000 C   0  0  0  0  0  0  0  0  0  0  0  0
   -2.4451    3.8073    0.0000 C   0  0  0  0  0  0  0  0  0  0  0  0
   -7.1398    2.9325    0.0000 C   0  0  0  0  0  0  0  0  0  0  0  0
   -7.9146    1.4829    0.0000 C   0  0  0  0  0  0  0  0  0  0  0  0
   -7.9646    2.9117    0.0000 C   0  0  0  0  0  0  0  0  0  0  0  0
   -8.3520    2.1869    0.0000 C   0  0  0  0  0  0  0  0  0  0  0  0
  2  1  2  0  0  0  0
  3  1  1  0  0  0  0
  4  1  1  0  0  0  0
  5  3  1  0  0  0  0
  6 12  1  0  0  0  0
  7  4  1  0  0  0  0
  8  2  1  0  0  0  0
  9  6  1  0  0  0  0
 10  6  1  0  0  0  0
 11  5  1  0  0  0  0
 12 25  2  0  0  0  0
 13  7  1  0  0  0  0
 14 22  1  0  0  0  0
 15 14  3  0  0  0  0
 16  8  1  0  0  0  0
 17  8  2  0  0  0  0
 18 10  1  0  0  0  0
 19  9  1  0  0  0  0
 20 10  2  0  0  0  0
 21  9  2  0  0  0  0
 22  4  1  0  0  0  0
 23 11  1  0  0  0  0
 24 13  2  0  0  0  0
 25 28  1  0  0  0  0
 26 27  2  0  0  0  0
 27 16  1  0  0  0  0
 28 16  2  0  0  0  0
 29 11  2  0  0  0  0
 30 23  2  0  0  0  0
 31 29  1  0  0  0  0
 32 31  2  0  0  0  0
  7  5  2  0  0  0  0
 23 24  1  0  0  0  0
 26 12  1  0  0  0  0
 32 30  1  0  0  0  0
 18 19  1  0  0  0  0
M  END
>  <IDNUMBER>
F1816-0528

>  <Chemical_Name>
4-(2,5-dioxopyrrolidin-1-yl)-N-[(2Z)-3-(prop-2-yn-1-yl)-2H,3H-naphtho[2,1-d][1,3]thiazol-2-ylidene]benzamide

>  <PriceCoeff>
1.00

>  <CAS>
868377-95-1

>  <MW>
439.49

>  <Description>
solid

>  <FSP3>
0.12

>  <clogP>
4.22

>  <TPSA>
95.35

>  <Acceptor>
3

>  <Donor>
0

>  <RotBonds>
5

>  <HAC>
32

>  <Collection>
General

>  <PPDS>
+

$$$$
F1816-0719
  Mrv2219 10102508112D          

 30 33  0  0  0  0            999 V2000
   -4.5776    2.5468    0.0000 C   0  0  0  0  0  0  0  0  0  0  0  0
   -3.8660    2.9671    0.0000 N   0  0  0  0  0  0  0  0  0  0  0  0
   -4.6692    1.7312    0.0000 N   0  0  0  0  0  0  0  0  0  0  0  0
   -5.3142    2.8922    0.0000 S   0  0  0  0  0  0  0  0  0  0  0  0
   -1.0071    3.7911    0.0000 N   0  0  0  0  0  0  0  0  0  0  0  0
   -5.4765    1.5689    0.0000 C   0  0  0  0  0  0  0  0  0  0  0  0
   -5.8760    2.2930    0.0000 C   0  0  0  0  0  0  0  0  0  0  0  0
   -3.8660    3.7953    0.0000 C   0  0  0  0  0  0  0  0  0  0  0  0
   -1.7187    4.2073    0.0000 C   0  0  0  0  0  0  0  0  0  0  0  0
   -0.9613    2.9671    0.0000 C   0  0  0  0  0  0  0  0  0  0  0  0
   -0.2372    4.0866    0.0000 C   0  0  0  0  0  0  0  0  0  0  0  0
   -6.6959    2.3054    0.0000 C   0  0  0  0  0  0  0  0  0  0  0  0
   -2.4345    3.8036    0.0000 C   0  0  0  0  0  0  0  0  0  0  0  0
   -3.1544    4.2073    0.0000 C   0  0  0  0  0  0  0  0  0  0  0  0
   -4.2405    0.3496    0.0000 C   0  0  0  0  0  0  0  0  0  0  0  0
   -4.4153   -0.4536    0.0000 C   0  0  0  0  0  0  0  0  0  0  0  0
   -5.9010    0.8697    0.0000 C   0  0  0  0  0  0  0  0  0  0  0  0
   -7.1204    1.5980    0.0000 C   0  0  0  0  0  0  0  0  0  0  0  0
   -4.5901    4.2073    0.0000 O   0  0  0  0  0  0  0  0  0  0  0  0
   -0.1456    2.7674    0.0000 C   0  0  0  0  0  0  0  0  0  0  0  0
    0.2913    3.4665    0.0000 C   0  0  0  0  0  0  0  0  0  0  0  0
   -1.5938    2.4553    0.0000 O   0  0  0  0  0  0  0  0  0  0  0  0
   -0.0208    4.8814    0.0000 O   0  0  0  0  0  0  0  0  0  0  0  0
   -6.7084    0.8822    0.0000 C   0  0  0  0  0  0  0  0  0  0  0  0
   -4.0533    1.1611    0.0000 C   0  0  0  0  0  0  0  0  0  0  0  0
   -1.7104    5.0230    0.0000 C   0  0  0  0  0  0  0  0  0  0  0  0
   -7.0954    3.0295    0.0000 C   0  0  0  0  0  0  0  0  0  0  0  0
   -3.1461    5.0355    0.0000 C   0  0  0  0  0  0  0  0  0  0  0  0
   -2.4303    5.4474    0.0000 C   0  0  0  0  0  0  0  0  0  0  0  0
   -7.1079    0.1581    0.0000 C   0  0  0  0  0  0  0  0  0  0  0  0
  2  1  2  0  0  0  0
  3  1  1  0  0  0  0
  4  1  1  0  0  0  0
  5  9  1  0  0  0  0
  6  3  1  0  0  0  0
  7  4  1  0  0  0  0
  8  2  1  0  0  0  0
  9 13  1  0  0  0  0
 10  5  1  0  0  0  0
 11  5  1  0  0  0  0
 12  7  1  0  0  0  0
 13 14  2  0  0  0  0
 14  8  1  0  0  0  0
 15 25  1  0  0  0  0
 16 15  3  0  0  0  0
 17  6  1  0  0  0  0
 18 12  2  0  0  0  0
 19  8  2  0  0  0  0
 20 10  1  0  0  0  0
 21 11  1  0  0  0  0
 22 10  2  0  0  0  0
 23 11  2  0  0  0  0
 24 17  2  0  0  0  0
 25  3  1  0  0  0  0
 26 29  1  0  0  0  0
 27 12  1  0  0  0  0
 28 14  1  0  0  0  0
 29 28  2  0  0  0  0
 30 24  1  0  0  0  0
  6  7  2  0  0  0  0
 18 24  1  0  0  0  0
 26  9  2  0  0  0  0
 21 20  1  0  0  0  0
M  END
>  <IDNUMBER>
F1816-0719

>  <Chemical_Name>
N-[(2Z)-5,7-dimethyl-3-(prop-2-yn-1-yl)-2,3-dihydro-1,3-benzothiazol-2-ylidene]-3-(2,5-dioxopyrrolidin-1-yl)benzamide

>  <PriceCoeff>
1.00

>  <CAS>
868674-12-8

>  <MW>
417.48

>  <Description>
solid

>  <FSP3>
0.22

>  <clogP>
4.05

>  <TPSA>
95.35

>  <Acceptor>
3

>  <Donor>
0

>  <RotBonds>
5

>  <HAC>
30

>  <Collection>
General

>  <PPDS>
+

$$$$
F1816-0721
  Mrv2219 10102508112D          

 30 33  0  0  0  0            999 V2000
   -4.5932    2.5568    0.0000 C   0  0  0  0  0  0  0  0  0  0  0  0
   -3.8603    2.9816    0.0000 N   0  0  0  0  0  0  0  0  0  0  0  0
   -4.6806    1.7323    0.0000 N   0  0  0  0  0  0  0  0  0  0  0  0
   -1.0077    3.7936    0.0000 N   0  0  0  0  0  0  0  0  0  0  0  0
   -5.3177    2.8941    0.0000 S   0  0  0  0  0  0  0  0  0  0  0  0
   -5.4844    1.5824    0.0000 C   0  0  0  0  0  0  0  0  0  0  0  0
   -5.8924    2.2987    0.0000 C   0  0  0  0  0  0  0  0  0  0  0  0
   -3.8686    3.7978    0.0000 C   0  0  0  0  0  0  0  0  0  0  0  0
   -1.7198    4.2101    0.0000 C   0  0  0  0  0  0  0  0  0  0  0  0
   -0.9619    2.9691    0.0000 C   0  0  0  0  0  0  0  0  0  0  0  0
   -0.2374    4.0894    0.0000 C   0  0  0  0  0  0  0  0  0  0  0  0
   -2.4361    3.8061    0.0000 C   0  0  0  0  0  0  0  0  0  0  0  0
   -3.1565    4.2101    0.0000 C   0  0  0  0  0  0  0  0  0  0  0  0
   -4.2559    0.3581    0.0000 C   0  0  0  0  0  0  0  0  0  0  0  0
   -4.4433   -0.4539    0.0000 C   0  0  0  0  0  0  0  0  0  0  0  0
   -5.9174    0.8828    0.0000 C   0  0  0  0  0  0  0  0  0  0  0  0
   -4.5807    4.2143    0.0000 O   0  0  0  0  0  0  0  0  0  0  0  0
   -0.1457    2.7692    0.0000 C   0  0  0  0  0  0  0  0  0  0  0  0
    0.2915    3.4688    0.0000 C   0  0  0  0  0  0  0  0  0  0  0  0
   -1.5949    2.4569    0.0000 O   0  0  0  0  0  0  0  0  0  0  0  0
   -0.0208    4.8847    0.0000 O   0  0  0  0  0  0  0  0  0  0  0  0
   -4.0685    1.1618    0.0000 C   0  0  0  0  0  0  0  0  0  0  0  0
   -6.7004    2.3195    0.0000 C   0  0  0  0  0  0  0  0  0  0  0  0
   -1.7115    5.0263    0.0000 C   0  0  0  0  0  0  0  0  0  0  0  0
   -5.5176    0.1457    0.0000 O   0  0  0  0  0  0  0  0  0  0  0  0
   -3.1482    5.0388    0.0000 C   0  0  0  0  0  0  0  0  0  0  0  0
   -2.4319    5.4511    0.0000 C   0  0  0  0  0  0  0  0  0  0  0  0
   -7.1376    1.6199    0.0000 C   0  0  0  0  0  0  0  0  0  0  0  0
   -6.7253    0.8870    0.0000 C   0  0  0  0  0  0  0  0  0  0  0  0
   -5.9549   -0.5539    0.0000 C   0  0  0  0  0  0  0  0  0  0  0  0
  2  1  2  0  0  0  0
  3  1  1  0  0  0  0
  4  9  1  0  0  0  0
  5  1  1  0  0  0  0
  6  3  1  0  0  0  0
  7  5  1  0  0  0  0
  8  2  1  0  0  0  0
  9 12  1  0  0  0  0
 10  4  1  0  0  0  0
 11  4  1  0  0  0  0
 12 13  2  0  0  0  0
 13  8  1  0  0  0  0
 14 22  1  0  0  0  0
 15 14  3  0  0  0  0
 16  6  1  0  0  0  0
 17  8  2  0  0  0  0
 18 10  1  0  0  0  0
 19 11  1  0  0  0  0
 20 10  2  0  0  0  0
 21 11  2  0  0  0  0
 22  3  1  0  0  0  0
 23  7  1  0  0  0  0
 24 27  1  0  0  0  0
 25 16  1  0  0  0  0
 26 13  1  0  0  0  0
 27 26  2  0  0  0  0
 28 23  2  0  0  0  0
 29 16  2  0  0  0  0
 30 25  1  0  0  0  0
  6  7  2  0  0  0  0
 28 29  1  0  0  0  0
 24  9  2  0  0  0  0
 19 18  1  0  0  0  0
M  END
>  <IDNUMBER>
F1816-0721

>  <Chemical_Name>
3-(2,5-dioxopyrrolidin-1-yl)-N-[(2Z)-4-methoxy-3-(prop-2-yn-1-yl)-2,3-dihydro-1,3-benzothiazol-2-ylidene]benzamide

>  <PriceCoeff>
1.00

>  <CAS>
868674-13-9

>  <MW>
419.45

>  <Description>
solid

>  <FSP3>
0.18

>  <clogP>
2.97

>  <TPSA>
104.58

>  <Acceptor>
4

>  <Donor>
0

>  <RotBonds>
6

>  <HAC>
30

>  <Collection>
General

>  <PPDS>
+

$$$$
F1816-0722
  Mrv2219 10102508112D          

 31 34  0  0  0  0            999 V2000
   -4.5756    2.5457    0.0000 C   0  0  0  0  0  0  0  0  0  0  0  0
   -3.8643    2.9658    0.0000 N   0  0  0  0  0  0  0  0  0  0  0  0
   -4.6754    1.7304    0.0000 N   0  0  0  0  0  0  0  0  0  0  0  0
   -1.0066    3.7894    0.0000 N   0  0  0  0  0  0  0  0  0  0  0  0
   -5.3118    2.8909    0.0000 S   0  0  0  0  0  0  0  0  0  0  0  0
   -5.4782    1.5723    0.0000 C   0  0  0  0  0  0  0  0  0  0  0  0
   -5.8858    2.2919    0.0000 C   0  0  0  0  0  0  0  0  0  0  0  0
   -3.8643    3.7936    0.0000 C   0  0  0  0  0  0  0  0  0  0  0  0
   -1.7179    4.2054    0.0000 C   0  0  0  0  0  0  0  0  0  0  0  0
   -0.9609    2.9658    0.0000 C   0  0  0  0  0  0  0  0  0  0  0  0
   -0.2371    4.0848    0.0000 C   0  0  0  0  0  0  0  0  0  0  0  0
   -2.4334    3.8019    0.0000 C   0  0  0  0  0  0  0  0  0  0  0  0
   -3.1530    4.2054    0.0000 C   0  0  0  0  0  0  0  0  0  0  0  0
   -4.2428    0.3494    0.0000 C   0  0  0  0  0  0  0  0  0  0  0  0
   -4.4258   -0.4617    0.0000 C   0  0  0  0  0  0  0  0  0  0  0  0
   -5.9025    0.8693    0.0000 C   0  0  0  0  0  0  0  0  0  0  0  0
   -4.5880    4.1971    0.0000 O   0  0  0  0  0  0  0  0  0  0  0  0
   -0.1456    2.7661    0.0000 C   0  0  0  0  0  0  0  0  0  0  0  0
    0.2912    3.4649    0.0000 C   0  0  0  0  0  0  0  0  0  0  0  0
   -1.5931    2.4541    0.0000 O   0  0  0  0  0  0  0  0  0  0  0  0
   -0.0208    4.8792    0.0000 O   0  0  0  0  0  0  0  0  0  0  0  0
   -4.0556    1.1563    0.0000 C   0  0  0  0  0  0  0  0  0  0  0  0
   -6.6929    2.3086    0.0000 C   0  0  0  0  0  0  0  0  0  0  0  0
   -1.7096    5.0207    0.0000 C   0  0  0  0  0  0  0  0  0  0  0  0
   -5.5115    0.1373    0.0000 O   0  0  0  0  0  0  0  0  0  0  0  0
   -3.1447    5.0332    0.0000 C   0  0  0  0  0  0  0  0  0  0  0  0
   -2.4292    5.4450    0.0000 C   0  0  0  0  0  0  0  0  0  0  0  0
   -7.1296    1.6056    0.0000 C   0  0  0  0  0  0  0  0  0  0  0  0
   -6.7178    0.8818    0.0000 C   0  0  0  0  0  0  0  0  0  0  0  0
   -5.9358   -0.5657    0.0000 C   0  0  0  0  0  0  0  0  0  0  0  0
   -5.5531   -1.2770    0.0000 C   0  0  0  0  0  0  0  0  0  0  0  0
  2  1  2  0  0  0  0
  3  1  1  0  0  0  0
  4  9  1  0  0  0  0
  5  1  1  0  0  0  0
  6  3  1  0  0  0  0
  7  5  1  0  0  0  0
  8  2  1  0  0  0  0
  9 12  1  0  0  0  0
 10  4  1  0  0  0  0
 11  4  1  0  0  0  0
 12 13  2  0  0  0  0
 13  8  1  0  0  0  0
 14 22  1  0  0  0  0
 15 14  3  0  0  0  0
 16  6  1  0  0  0  0
 17  8  2  0  0  0  0
 18 10  1  0  0  0  0
 19 11  1  0  0  0  0
 20 10  2  0  0  0  0
 21 11  2  0  0  0  0
 22  3  1  0  0  0  0
 23  7  1  0  0  0  0
 24 27  1  0  0  0  0
 25 16  1  0  0  0  0
 26 13  1  0  0  0  0
 27 26  2  0  0  0  0
 28 23  2  0  0  0  0
 29 16  2  0  0  0  0
 30 25  1  0  0  0  0
 31 30  1  0  0  0  0
  6  7  2  0  0  0  0
 28 29  1  0  0  0  0
 24  9  2  0  0  0  0
 19 18  1  0  0  0  0
M  END
>  <IDNUMBER>
F1816-0722

>  <Chemical_Name>
3-(2,5-dioxopyrrolidin-1-yl)-N-[(2Z)-4-ethoxy-3-(prop-2-yn-1-yl)-2,3-dihydro-1,3-benzothiazol-2-ylidene]benzamide

>  <PriceCoeff>
1.00

>  <CAS>
868674-14-0

>  <MW>
433.48

>  <Description>
solid

>  <FSP3>
0.22

>  <clogP>
3.50

>  <TPSA>
104.58

>  <Acceptor>
4

>  <Donor>
0

>  <RotBonds>
7

>  <HAC>
31

>  <Collection>
General

>  <PPDS>
+

$$$$
F1816-0723
  Mrv2219 10102508112D          

 29 32  0  0  0  0            999 V2000
   -4.5918    2.5561    0.0000 C   0  0  0  0  0  0  0  0  0  0  0  0
   -3.8592    2.9807    0.0000 N   0  0  0  0  0  0  0  0  0  0  0  0
   -1.0075    3.7926    0.0000 N   0  0  0  0  0  0  0  0  0  0  0  0
   -4.6834    1.7318    0.0000 N   0  0  0  0  0  0  0  0  0  0  0  0
   -5.3162    2.8975    0.0000 S   0  0  0  0  0  0  0  0  0  0  0  0
   -3.8675    3.7968    0.0000 C   0  0  0  0  0  0  0  0  0  0  0  0
   -5.4911    1.5819    0.0000 C   0  0  0  0  0  0  0  0  0  0  0  0
   -5.8907    2.3064    0.0000 C   0  0  0  0  0  0  0  0  0  0  0  0
   -1.7193    4.2089    0.0000 C   0  0  0  0  0  0  0  0  0  0  0  0
   -0.9617    2.9682    0.0000 C   0  0  0  0  0  0  0  0  0  0  0  0
   -0.2373    4.0882    0.0000 C   0  0  0  0  0  0  0  0  0  0  0  0
   -2.4354    3.8051    0.0000 C   0  0  0  0  0  0  0  0  0  0  0  0
   -3.1556    4.2089    0.0000 C   0  0  0  0  0  0  0  0  0  0  0  0
   -4.2671    0.3580    0.0000 C   0  0  0  0  0  0  0  0  0  0  0  0
   -4.4544   -0.4538    0.0000 C   0  0  0  0  0  0  0  0  0  0  0  0
   -4.5793    4.2089    0.0000 O   0  0  0  0  0  0  0  0  0  0  0  0
    0.2914    3.4678    0.0000 C   0  0  0  0  0  0  0  0  0  0  0  0
   -0.1457    2.7684    0.0000 C   0  0  0  0  0  0  0  0  0  0  0  0
   -0.0208    4.8833    0.0000 O   0  0  0  0  0  0  0  0  0  0  0  0
   -1.5944    2.4562    0.0000 O   0  0  0  0  0  0  0  0  0  0  0  0
   -5.9199    0.8826    0.0000 C   0  0  0  0  0  0  0  0  0  0  0  0
   -4.0798    1.1615    0.0000 C   0  0  0  0  0  0  0  0  0  0  0  0
   -6.7068    2.3313    0.0000 C   0  0  0  0  0  0  0  0  0  0  0  0
   -1.7110    5.0248    0.0000 C   0  0  0  0  0  0  0  0  0  0  0  0
   -3.1473    5.0373    0.0000 C   0  0  0  0  0  0  0  0  0  0  0  0
   -2.4312    5.4495    0.0000 C   0  0  0  0  0  0  0  0  0  0  0  0
   -7.1356    1.6236    0.0000 C   0  0  0  0  0  0  0  0  0  0  0  0
   -6.7234    0.8951    0.0000 C   0  0  0  0  0  0  0  0  0  0  0  0
   -5.5285    0.1499    0.0000 C   0  0  0  0  0  0  0  0  0  0  0  0
  2  1  2  0  0  0  0
  3  9  1  0  0  0  0
  4  1  1  0  0  0  0
  5  1  1  0  0  0  0
  6  2  1  0  0  0  0
  7  4  1  0  0  0  0
  8  5  1  0  0  0  0
  9 12  1  0  0  0  0
 10  3  1  0  0  0  0
 11  3  1  0  0  0  0
 12 13  2  0  0  0  0
 13  6  1  0  0  0  0
 14 22  1  0  0  0  0
 15 14  3  0  0  0  0
 16  6  2  0  0  0  0
 17 11  1  0  0  0  0
 18 10  1  0  0  0  0
 19 11  2  0  0  0  0
 20 10  2  0  0  0  0
 21  7  1  0  0  0  0
 22  4  1  0  0  0  0
 23  8  1  0  0  0  0
 24 26  1  0  0  0  0
 25 13  1  0  0  0  0
 26 25  2  0  0  0  0
 27 23  2  0  0  0  0
 28 21  2  0  0  0  0
 29 21  1  0  0  0  0
  7  8  2  0  0  0  0
 27 28  1  0  0  0  0
 24  9  2  0  0  0  0
 17 18  1  0  0  0  0
M  END
>  <IDNUMBER>
F1816-0723

>  <Chemical_Name>
3-(2,5-dioxopyrrolidin-1-yl)-N-[(2Z)-4-methyl-3-(prop-2-yn-1-yl)-2,3-dihydro-1,3-benzothiazol-2-ylidene]benzamide

>  <PriceCoeff>
1.00

>  <CAS>
868674-15-1

>  <MW>
403.45

>  <Description>
solid

>  <FSP3>
0.18

>  <clogP>
3.55

>  <TPSA>
95.35

>  <Acceptor>
3

>  <Donor>
0

>  <RotBonds>
5

>  <HAC>
29

>  <Collection>
General

>  <PPDS>
+

$$$$
F1816-0725
  Mrv2219 10102508112D          

 29 32  0  0  0  0            999 V2000
   -4.5802    2.5483    0.0000 C   0  0  0  0  0  0  0  0  0  0  0  0
   -3.8682    2.9688    0.0000 N   0  0  0  0  0  0  0  0  0  0  0  0
   -4.6718    1.7321    0.0000 N   0  0  0  0  0  0  0  0  0  0  0  0
   -1.0076    3.7932    0.0000 N   0  0  0  0  0  0  0  0  0  0  0  0
   -5.3172    2.8938    0.0000 S   0  0  0  0  0  0  0  0  0  0  0  0
   -5.4796    1.5697    0.0000 C   0  0  0  0  0  0  0  0  0  0  0  0
   -5.8793    2.2942    0.0000 C   0  0  0  0  0  0  0  0  0  0  0  0
   -3.8682    3.7974    0.0000 C   0  0  0  0  0  0  0  0  0  0  0  0
   -1.7196    4.2096    0.0000 C   0  0  0  0  0  0  0  0  0  0  0  0
   -0.9618    2.9688    0.0000 C   0  0  0  0  0  0  0  0  0  0  0  0
   -0.2373    4.0889    0.0000 C   0  0  0  0  0  0  0  0  0  0  0  0
   -2.4358    3.8057    0.0000 C   0  0  0  0  0  0  0  0  0  0  0  0
   -3.1562    4.2096    0.0000 C   0  0  0  0  0  0  0  0  0  0  0  0
   -4.2429    0.3498    0.0000 C   0  0  0  0  0  0  0  0  0  0  0  0
   -4.4178   -0.4539    0.0000 C   0  0  0  0  0  0  0  0  0  0  0  0
   -5.9043    0.8702    0.0000 C   0  0  0  0  0  0  0  0  0  0  0  0
   -4.5927    4.2096    0.0000 O   0  0  0  0  0  0  0  0  0  0  0  0
   -0.1457    2.7689    0.0000 C   0  0  0  0  0  0  0  0  0  0  0  0
    0.2915    3.4684    0.0000 C   0  0  0  0  0  0  0  0  0  0  0  0
   -1.5947    2.4566    0.0000 O   0  0  0  0  0  0  0  0  0  0  0  0
   -0.0208    4.8842    0.0000 O   0  0  0  0  0  0  0  0  0  0  0  0
   -4.0556    1.1575    0.0000 C   0  0  0  0  0  0  0  0  0  0  0  0
   -5.5046    0.1457    0.0000 Cl  0  0  0  0  0  0  0  0  0  0  0  0
   -6.6997    2.3067    0.0000 C   0  0  0  0  0  0  0  0  0  0  0  0
   -1.7113    5.0258    0.0000 C   0  0  0  0  0  0  0  0  0  0  0  0
   -3.1479    5.0383    0.0000 C   0  0  0  0  0  0  0  0  0  0  0  0
   -2.4317    5.4505    0.0000 C   0  0  0  0  0  0  0  0  0  0  0  0
   -7.1244    1.5989    0.0000 C   0  0  0  0  0  0  0  0  0  0  0  0
   -6.7122    0.8744    0.0000 C   0  0  0  0  0  0  0  0  0  0  0  0
  2  1  2  0  0  0  0
  3  1  1  0  0  0  0
  4  9  1  0  0  0  0
  5  1  1  0  0  0  0
  6  3  1  0  0  0  0
  7  5  1  0  0  0  0
  8  2  1  0  0  0  0
  9 12  1  0  0  0  0
 10  4  1  0  0  0  0
 11  4  1  0  0  0  0
 12 13  2  0  0  0  0
 13  8  1  0  0  0  0
 14 22  1  0  0  0  0
 15 14  3  0  0  0  0
 16  6  1  0  0  0  0
 17  8  2  0  0  0  0
 18 10  1  0  0  0  0
 19 11  1  0  0  0  0
 20 10  2  0  0  0  0
 21 11  2  0  0  0  0
 22  3  1  0  0  0  0
 23 16  1  0  0  0  0
 24  7  1  0  0  0  0
 25 27  1  0  0  0  0
 26 13  1  0  0  0  0
 27 26  2  0  0  0  0
 28 24  2  0  0  0  0
 29 16  2  0  0  0  0
  6  7  2  0  0  0  0
 28 29  1  0  0  0  0
 25  9  2  0  0  0  0
 19 18  1  0  0  0  0
M  END
>  <IDNUMBER>
F1816-0725

>  <Chemical_Name>
N-[(2Z)-4-chloro-3-(prop-2-yn-1-yl)-2,3-dihydro-1,3-benzothiazol-2-ylidene]-3-(2,5-dioxopyrrolidin-1-yl)benzamide

>  <PriceCoeff>
1.00

>  <CAS>
868674-16-2

>  <MW>
423.87

>  <Description>
solid

>  <FSP3>
0.14

>  <clogP>
3.76

>  <TPSA>
95.35

>  <Acceptor>
3

>  <Donor>
0

>  <RotBonds>
5

>  <HAC>
29

>  <Collection>
General

>  <PPDS>
+

$$$$
F1816-0726
  Mrv2219 10102508112D          

 32 36  0  0  0  0            999 V2000
   -4.5815    2.5490    0.0000 C   0  0  0  0  0  0  0  0  0  0  0  0
   -3.8693    2.9822    0.0000 N   0  0  0  0  0  0  0  0  0  0  0  0
   -5.3479    2.8697    0.0000 S   0  0  0  0  0  0  0  0  0  0  0  0
   -4.6564    1.7368    0.0000 N   0  0  0  0  0  0  0  0  0  0  0  0
   -1.0079    3.7943    0.0000 N   0  0  0  0  0  0  0  0  0  0  0  0
   -5.8810    2.2449    0.0000 C   0  0  0  0  0  0  0  0  0  0  0  0
   -5.4562    1.5452    0.0000 C   0  0  0  0  0  0  0  0  0  0  0  0
   -3.8693    3.7985    0.0000 C   0  0  0  0  0  0  0  0  0  0  0  0
   -1.7202    4.2109    0.0000 C   0  0  0  0  0  0  0  0  0  0  0  0
   -0.9621    2.9697    0.0000 C   0  0  0  0  0  0  0  0  0  0  0  0
   -0.2374    4.0901    0.0000 C   0  0  0  0  0  0  0  0  0  0  0  0
   -6.7016    2.2324    0.0000 C   0  0  0  0  0  0  0  0  0  0  0  0
   -2.4365    3.8068    0.0000 C   0  0  0  0  0  0  0  0  0  0  0  0
   -3.1571    4.2109    0.0000 C   0  0  0  0  0  0  0  0  0  0  0  0
   -5.8435    0.8204    0.0000 C   0  0  0  0  0  0  0  0  0  0  0  0
   -3.2363    1.4619    0.0000 C   0  0  0  0  0  0  0  0  0  0  0  0
   -2.4615    1.7451    0.0000 C   0  0  0  0  0  0  0  0  0  0  0  0
   -4.5815    4.2026    0.0000 O   0  0  0  0  0  0  0  0  0  0  0  0
    0.2916    3.4694    0.0000 C   0  0  0  0  0  0  0  0  0  0  0  0
   -0.1458    2.7697    0.0000 C   0  0  0  0  0  0  0  0  0  0  0  0
   -0.0208    4.8855    0.0000 O   0  0  0  0  0  0  0  0  0  0  0  0
   -1.5952    2.4573    0.0000 O   0  0  0  0  0  0  0  0  0  0  0  0
   -4.0192    1.1953    0.0000 C   0  0  0  0  0  0  0  0  0  0  0  0
   -7.1014    1.5077    0.0000 C   0  0  0  0  0  0  0  0  0  0  0  0
   -6.6641    0.7954    0.0000 C   0  0  0  0  0  0  0  0  0  0  0  0
   -1.7119    5.0272    0.0000 C   0  0  0  0  0  0  0  0  0  0  0  0
   -3.1488    5.0397    0.0000 C   0  0  0  0  0  0  0  0  0  0  0  0
   -7.1389    2.9322    0.0000 C   0  0  0  0  0  0  0  0  0  0  0  0
   -2.4323    5.4521    0.0000 C   0  0  0  0  0  0  0  0  0  0  0  0
   -7.9136    1.4827    0.0000 C   0  0  0  0  0  0  0  0  0  0  0  0
   -7.9636    2.9114    0.0000 C   0  0  0  0  0  0  0  0  0  0  0  0
   -8.3509    2.1866    0.0000 C   0  0  0  0  0  0  0  0  0  0  0  0
  2  1  2  0  0  0  0
  3  1  1  0  0  0  0
  4  1  1  0  0  0  0
  5  9  1  0  0  0  0
  6  3  1  0  0  0  0
  7  4  1  0  0  0  0
  8  2  1  0  0  0  0
  9 13  1  0  0  0  0
 10  5  1  0  0  0  0
 11  5  1  0  0  0  0
 12  6  1  0  0  0  0
 13 14  2  0  0  0  0
 14  8  1  0  0  0  0
 15  7  1  0  0  0  0
 16 23  1  0  0  0  0
 17 16  3  0  0  0  0
 18  8  2  0  0  0  0
 19 11  1  0  0  0  0
 20 10  1  0  0  0  0
 21 11  2  0  0  0  0
 22 10  2  0  0  0  0
 23  4  1  0  0  0  0
 24 12  1  0  0  0  0
 25 15  2  0  0  0  0
 26 29  1  0  0  0  0
 27 14  1  0  0  0  0
 28 12  2  0  0  0  0
 29 27  2  0  0  0  0
 30 24  2  0  0  0  0
 31 28  1  0  0  0  0
 32 31  2  0  0  0  0
  7  6  2  0  0  0  0
 24 25  1  0  0  0  0
 32 30  1  0  0  0  0
 26  9  2  0  0  0  0
 19 20  1  0  0  0  0
M  END
>  <IDNUMBER>
F1816-0726

>  <Chemical_Name>
3-(2,5-dioxopyrrolidin-1-yl)-N-[(2Z)-3-(prop-2-yn-1-yl)-2H,3H-naphtho[2,1-d][1,3]thiazol-2-ylidene]benzamide

>  <PriceCoeff>
1.00

>  <CAS>
868674-17-3

>  <MW>
439.49

>  <Description>
solid

>  <FSP3>
0.12

>  <clogP>
4.22

>  <TPSA>
95.35

>  <Acceptor>
3

>  <Donor>
0

>  <RotBonds>
5

>  <HAC>
32

>  <Collection>
General

>  <PPDS>
+

$$$$
F1816-1181
  Mrv2219 10102508112D          

 25 27  0  0  0  0            999 V2000
   -4.5776    2.5468    0.0000 C   0  0  0  0  0  0  0  0  0  0  0  0
   -4.6692    1.7312    0.0000 N   0  0  0  0  0  0  0  0  0  0  0  0
   -5.3142    2.8922    0.0000 S   0  0  0  0  0  0  0  0  0  0  0  0
   -3.1544    5.0355    0.0000 N   0  0  0  0  0  0  0  0  0  0  0  0
   -3.8660    2.9671    0.0000 N   0  0  0  0  0  0  0  0  0  0  0  0
   -5.4765    1.5689    0.0000 C   0  0  0  0  0  0  0  0  0  0  0  0
   -5.8760    2.2930    0.0000 C   0  0  0  0  0  0  0  0  0  0  0  0
   -2.4802    5.5099    0.0000 C   0  0  0  0  0  0  0  0  0  0  0  0
   -3.8161    5.5099    0.0000 C   0  0  0  0  0  0  0  0  0  0  0  0
   -3.8660    3.7953    0.0000 C   0  0  0  0  0  0  0  0  0  0  0  0
   -6.6959    2.3054    0.0000 C   0  0  0  0  0  0  0  0  0  0  0  0
   -3.1544    4.2073    0.0000 C   0  0  0  0  0  0  0  0  0  0  0  0
   -4.2405    0.3496    0.0000 C   0  0  0  0  0  0  0  0  0  0  0  0
   -4.4153   -0.4536    0.0000 C   0  0  0  0  0  0  0  0  0  0  0  0
   -5.9010    0.8697    0.0000 C   0  0  0  0  0  0  0  0  0  0  0  0
   -7.1204    1.5980    0.0000 C   0  0  0  0  0  0  0  0  0  0  0  0
   -3.5664    6.2964    0.0000 C   0  0  0  0  0  0  0  0  0  0  0  0
   -2.7424    6.3047    0.0000 C   0  0  0  0  0  0  0  0  0  0  0  0
   -4.6026    5.2685    0.0000 O   0  0  0  0  0  0  0  0  0  0  0  0
   -1.6937    5.2560    0.0000 O   0  0  0  0  0  0  0  0  0  0  0  0
   -4.5901    4.2073    0.0000 O   0  0  0  0  0  0  0  0  0  0  0  0
   -6.7084    0.8822    0.0000 C   0  0  0  0  0  0  0  0  0  0  0  0
   -4.0533    1.1611    0.0000 C   0  0  0  0  0  0  0  0  0  0  0  0
   -7.0954    3.0295    0.0000 C   0  0  0  0  0  0  0  0  0  0  0  0
   -7.1079    0.1581    0.0000 C   0  0  0  0  0  0  0  0  0  0  0  0
  2  1  1  0  0  0  0
  3  1  1  0  0  0  0
  4 12  1  0  0  0  0
  5  1  2  0  0  0  0
  6  2  1  0  0  0  0
  7  3  1  0  0  0  0
  8  4  1  0  0  0  0
  9  4  1  0  0  0  0
 10  5  1  0  0  0  0
 11  7  1  0  0  0  0
 12 10  1  0  0  0  0
 13 23  1  0  0  0  0
 14 13  3  0  0  0  0
 15  6  1  0  0  0  0
 16 11  2  0  0  0  0
 17  9  1  0  0  0  0
 18  8  1  0  0  0  0
 19  9  2  0  0  0  0
 20  8  2  0  0  0  0
 21 10  2  0  0  0  0
 22 15  2  0  0  0  0
 23  2  1  0  0  0  0
 24 11  1  0  0  0  0
 25 22  1  0  0  0  0
  6  7  2  0  0  0  0
 16 22  1  0  0  0  0
 18 17  1  0  0  0  0
M  END
>  <IDNUMBER>
F1816-1181

>  <Chemical_Name>
N-[(2Z)-5,7-dimethyl-3-(prop-2-yn-1-yl)-2,3-dihydro-1,3-benzothiazol-2-ylidene]-2-(2,5-dioxopyrrolidin-1-yl)acetamide

>  <PriceCoeff>
1.00

>  <CAS>
868674-72-0

>  <MW>
355.41

>  <Description>
solid

>  <FSP3>
0.33

>  <clogP>
3.88

>  <TPSA>
95.35

>  <Acceptor>
3

>  <Donor>
0

>  <RotBonds>
5

>  <HAC>
25

>  <Collection>
General

>  <PPDS>
+

$$$$
F1816-1183
  Mrv2219 10102508112D          

 25 27  0  0  0  0            999 V2000
   -4.5932    2.5568    0.0000 C   0  0  0  0  0  0  0  0  0  0  0  0
   -3.1565    5.0388    0.0000 N   0  0  0  0  0  0  0  0  0  0  0  0
   -4.6806    1.7323    0.0000 N   0  0  0  0  0  0  0  0  0  0  0  0
   -3.8603    2.9816    0.0000 N   0  0  0  0  0  0  0  0  0  0  0  0
   -5.3177    2.8941    0.0000 S   0  0  0  0  0  0  0  0  0  0  0  0
   -5.4844    1.5824    0.0000 C   0  0  0  0  0  0  0  0  0  0  0  0
   -5.8924    2.2987    0.0000 C   0  0  0  0  0  0  0  0  0  0  0  0
   -2.4819    5.5135    0.0000 C   0  0  0  0  0  0  0  0  0  0  0  0
   -3.8186    5.5135    0.0000 C   0  0  0  0  0  0  0  0  0  0  0  0
   -3.8686    3.7978    0.0000 C   0  0  0  0  0  0  0  0  0  0  0  0
   -3.1565    4.2101    0.0000 C   0  0  0  0  0  0  0  0  0  0  0  0
   -4.2559    0.3581    0.0000 C   0  0  0  0  0  0  0  0  0  0  0  0
   -4.4433   -0.4539    0.0000 C   0  0  0  0  0  0  0  0  0  0  0  0
   -5.9174    0.8828    0.0000 C   0  0  0  0  0  0  0  0  0  0  0  0
   -3.5688    6.3006    0.0000 C   0  0  0  0  0  0  0  0  0  0  0  0
   -2.7442    6.3089    0.0000 C   0  0  0  0  0  0  0  0  0  0  0  0
   -4.6057    5.2720    0.0000 O   0  0  0  0  0  0  0  0  0  0  0  0
   -1.6948    5.2595    0.0000 O   0  0  0  0  0  0  0  0  0  0  0  0
   -4.5807    4.2143    0.0000 O   0  0  0  0  0  0  0  0  0  0  0  0
   -4.0685    1.1618    0.0000 C   0  0  0  0  0  0  0  0  0  0  0  0
   -6.7004    2.3195    0.0000 C   0  0  0  0  0  0  0  0  0  0  0  0
   -5.5176    0.1457    0.0000 O   0  0  0  0  0  0  0  0  0  0  0  0
   -7.1376    1.6199    0.0000 C   0  0  0  0  0  0  0  0  0  0  0  0
   -6.7253    0.8870    0.0000 C   0  0  0  0  0  0  0  0  0  0  0  0
   -5.9549   -0.5539    0.0000 C   0  0  0  0  0  0  0  0  0  0  0  0
  2 11  1  0  0  0  0
  3  1  1  0  0  0  0
  4  1  2  0  0  0  0
  5  1  1  0  0  0  0
  6  3  1  0  0  0  0
  7  5  1  0  0  0  0
  8  2  1  0  0  0  0
  9  2  1  0  0  0  0
 10  4  1  0  0  0  0
 11 10  1  0  0  0  0
 12 20  1  0  0  0  0
 13 12  3  0  0  0  0
 14  6  1  0  0  0  0
 15  9  1  0  0  0  0
 16  8  1  0  0  0  0
 17  9  2  0  0  0  0
 18  8  2  0  0  0  0
 19 10  2  0  0  0  0
 20  3  1  0  0  0  0
 21  7  1  0  0  0  0
 22 14  1  0  0  0  0
 23 21  2  0  0  0  0
 24 14  2  0  0  0  0
 25 22  1  0  0  0  0
  6  7  2  0  0  0  0
 23 24  1  0  0  0  0
 16 15  1  0  0  0  0
M  END
>  <IDNUMBER>
F1816-1183

>  <Chemical_Name>
2-(2,5-dioxopyrrolidin-1-yl)-N-[(2Z)-4-methoxy-3-(prop-2-yn-1-yl)-2,3-dihydro-1,3-benzothiazol-2-ylidene]acetamide

>  <PriceCoeff>
1.00

>  <CAS>
868674-73-1

>  <MW>
357.38

>  <Description>
solid

>  <FSP3>
0.29

>  <clogP>
2.80

>  <TPSA>
104.58

>  <Acceptor>
4

>  <Donor>
0

>  <RotBonds>
6

>  <HAC>
25

>  <Collection>
General

>  <PPDS>
+

$$$$
F1816-1184
  Mrv2219 10102508112D          

 26 28  0  0  0  0            999 V2000
   -4.5765    2.5462    0.0000 C   0  0  0  0  0  0  0  0  0  0  0  0
   -3.1536    5.0342    0.0000 N   0  0  0  0  0  0  0  0  0  0  0  0
   -4.6763    1.7307    0.0000 N   0  0  0  0  0  0  0  0  0  0  0  0
   -3.8650    2.9664    0.0000 N   0  0  0  0  0  0  0  0  0  0  0  0
   -5.3129    2.8915    0.0000 S   0  0  0  0  0  0  0  0  0  0  0  0
   -5.4793    1.5727    0.0000 C   0  0  0  0  0  0  0  0  0  0  0  0
   -5.8870    2.2924    0.0000 C   0  0  0  0  0  0  0  0  0  0  0  0
   -2.4796    5.5085    0.0000 C   0  0  0  0  0  0  0  0  0  0  0  0
   -3.8151    5.5085    0.0000 C   0  0  0  0  0  0  0  0  0  0  0  0
   -3.8650    3.7943    0.0000 C   0  0  0  0  0  0  0  0  0  0  0  0
   -3.1536    4.2062    0.0000 C   0  0  0  0  0  0  0  0  0  0  0  0
   -4.2437    0.3495    0.0000 C   0  0  0  0  0  0  0  0  0  0  0  0
   -4.4267   -0.4618    0.0000 C   0  0  0  0  0  0  0  0  0  0  0  0
   -5.9037    0.8695    0.0000 C   0  0  0  0  0  0  0  0  0  0  0  0
   -3.5655    6.2948    0.0000 C   0  0  0  0  0  0  0  0  0  0  0  0
   -2.7417    6.3031    0.0000 C   0  0  0  0  0  0  0  0  0  0  0  0
   -4.6014    5.2671    0.0000 O   0  0  0  0  0  0  0  0  0  0  0  0
   -1.6933    5.2547    0.0000 O   0  0  0  0  0  0  0  0  0  0  0  0
   -4.5890    4.1979    0.0000 O   0  0  0  0  0  0  0  0  0  0  0  0
   -4.0565    1.1566    0.0000 C   0  0  0  0  0  0  0  0  0  0  0  0
   -6.6942    2.3091    0.0000 C   0  0  0  0  0  0  0  0  0  0  0  0
   -5.5126    0.1373    0.0000 O   0  0  0  0  0  0  0  0  0  0  0  0
   -7.1311    1.6059    0.0000 C   0  0  0  0  0  0  0  0  0  0  0  0
   -6.7192    0.8820    0.0000 C   0  0  0  0  0  0  0  0  0  0  0  0
   -5.9369   -0.5659    0.0000 C   0  0  0  0  0  0  0  0  0  0  0  0
   -5.5542   -1.2773    0.0000 C   0  0  0  0  0  0  0  0  0  0  0  0
  2 11  1  0  0  0  0
  3  1  1  0  0  0  0
  4  1  2  0  0  0  0
  5  1  1  0  0  0  0
  6  3  1  0  0  0  0
  7  5  1  0  0  0  0
  8  2  1  0  0  0  0
  9  2  1  0  0  0  0
 10  4  1  0  0  0  0
 11 10  1  0  0  0  0
 12 20  1  0  0  0  0
 13 12  3  0  0  0  0
 14  6  1  0  0  0  0
 15  9  1  0  0  0  0
 16  8  1  0  0  0  0
 17  9  2  0  0  0  0
 18  8  2  0  0  0  0
 19 10  2  0  0  0  0
 20  3  1  0  0  0  0
 21  7  1  0  0  0  0
 22 14  1  0  0  0  0
 23 21  2  0  0  0  0
 24 14  2  0  0  0  0
 25 22  1  0  0  0  0
 26 25  1  0  0  0  0
  6  7  2  0  0  0  0
 23 24  1  0  0  0  0
 16 15  1  0  0  0  0
M  END
>  <IDNUMBER>
F1816-1184

>  <Chemical_Name>
2-(2,5-dioxopyrrolidin-1-yl)-N-[(2Z)-4-ethoxy-3-(prop-2-yn-1-yl)-2,3-dihydro-1,3-benzothiazol-2-ylidene]acetamide

>  <PriceCoeff>
1.00

>  <CAS>
868674-74-2

>  <MW>
371.41

>  <Description>
solid

>  <FSP3>
0.33

>  <clogP>
3.33

>  <TPSA>
104.58

>  <Acceptor>
4

>  <Donor>
0

>  <RotBonds>
7

>  <HAC>
26

>  <Collection>
General

>  <PPDS>
+

$$$$
F1816-1185
  Mrv2219 10102508112D          

 24 26  0  0  0  0            999 V2000
   -4.5890    2.5545    0.0000 C   0  0  0  0  0  0  0  0  0  0  0  0
   -3.1536    5.0342    0.0000 N   0  0  0  0  0  0  0  0  0  0  0  0
   -4.6805    1.7307    0.0000 N   0  0  0  0  0  0  0  0  0  0  0  0
   -3.8567    2.9789    0.0000 N   0  0  0  0  0  0  0  0  0  0  0  0
   -5.3129    2.8957    0.0000 S   0  0  0  0  0  0  0  0  0  0  0  0
   -5.4876    1.5809    0.0000 C   0  0  0  0  0  0  0  0  0  0  0  0
   -5.8870    2.3049    0.0000 C   0  0  0  0  0  0  0  0  0  0  0  0
   -2.4796    5.5085    0.0000 C   0  0  0  0  0  0  0  0  0  0  0  0
   -3.8151    5.5085    0.0000 C   0  0  0  0  0  0  0  0  0  0  0  0
   -3.8650    3.7943    0.0000 C   0  0  0  0  0  0  0  0  0  0  0  0
   -3.1536    4.2062    0.0000 C   0  0  0  0  0  0  0  0  0  0  0  0
   -4.2644    0.3578    0.0000 C   0  0  0  0  0  0  0  0  0  0  0  0
   -4.4517   -0.4535    0.0000 C   0  0  0  0  0  0  0  0  0  0  0  0
   -2.7417    6.3031    0.0000 C   0  0  0  0  0  0  0  0  0  0  0  0
   -3.5655    6.2948    0.0000 C   0  0  0  0  0  0  0  0  0  0  0  0
   -1.6933    5.2547    0.0000 O   0  0  0  0  0  0  0  0  0  0  0  0
   -4.6014    5.2671    0.0000 O   0  0  0  0  0  0  0  0  0  0  0  0
   -5.9162    0.8820    0.0000 C   0  0  0  0  0  0  0  0  0  0  0  0
   -4.5765    4.2062    0.0000 O   0  0  0  0  0  0  0  0  0  0  0  0
   -4.0772    1.1608    0.0000 C   0  0  0  0  0  0  0  0  0  0  0  0
   -6.7025    2.3298    0.0000 C   0  0  0  0  0  0  0  0  0  0  0  0
   -7.1311    1.6226    0.0000 C   0  0  0  0  0  0  0  0  0  0  0  0
   -6.7192    0.8945    0.0000 C   0  0  0  0  0  0  0  0  0  0  0  0
   -5.5251    0.1498    0.0000 C   0  0  0  0  0  0  0  0  0  0  0  0
  2 11  1  0  0  0  0
  3  1  1  0  0  0  0
  4  1  2  0  0  0  0
  5  1  1  0  0  0  0
  6  3  1  0  0  0  0
  7  5  1  0  0  0  0
  8  2  1  0  0  0  0
  9  2  1  0  0  0  0
 10  4  1  0  0  0  0
 11 10  1  0  0  0  0
 12 20  1  0  0  0  0
 13 12  3  0  0  0  0
 14  8  1  0  0  0  0
 15  9  1  0  0  0  0
 16  8  2  0  0  0  0
 17  9  2  0  0  0  0
 18  6  1  0  0  0  0
 19 10  2  0  0  0  0
 20  3  1  0  0  0  0
 21  7  1  0  0  0  0
 22 21  2  0  0  0  0
 23 18  2  0  0  0  0
 24 18  1  0  0  0  0
  6  7  2  0  0  0  0
 22 23  1  0  0  0  0
 14 15  1  0  0  0  0
M  END
>  <IDNUMBER>
F1816-1185

>  <Chemical_Name>
2-(2,5-dioxopyrrolidin-1-yl)-N-[(2Z)-4-methyl-3-(prop-2-yn-1-yl)-2,3-dihydro-1,3-benzothiazol-2-ylidene]acetamide

>  <PriceCoeff>
1.00

>  <CAS>
1164527-40-5

>  <MW>
341.38

>  <Description>
solid

>  <FSP3>
0.29

>  <clogP>
3.38

>  <TPSA>
95.35

>  <Acceptor>
3

>  <Donor>
0

>  <RotBonds>
5

>  <HAC>
24

>  <Collection>
General

>  <PPDS>
+

$$$$
F1816-1187
  Mrv2219 10102508112D          

 24 26  0  0  0  0            999 V2000
   -4.5794    2.5478    0.0000 C   0  0  0  0  0  0  0  0  0  0  0  0
   -3.1556    5.0374    0.0000 N   0  0  0  0  0  0  0  0  0  0  0  0
   -4.6710    1.7318    0.0000 N   0  0  0  0  0  0  0  0  0  0  0  0
   -3.8675    2.9683    0.0000 N   0  0  0  0  0  0  0  0  0  0  0  0
   -5.3163    2.8933    0.0000 S   0  0  0  0  0  0  0  0  0  0  0  0
   -5.4786    1.5695    0.0000 C   0  0  0  0  0  0  0  0  0  0  0  0
   -5.8783    2.2939    0.0000 C   0  0  0  0  0  0  0  0  0  0  0  0
   -2.4812    5.5120    0.0000 C   0  0  0  0  0  0  0  0  0  0  0  0
   -3.8176    5.5120    0.0000 C   0  0  0  0  0  0  0  0  0  0  0  0
   -3.8675    3.7968    0.0000 C   0  0  0  0  0  0  0  0  0  0  0  0
   -3.1556    4.2089    0.0000 C   0  0  0  0  0  0  0  0  0  0  0  0
   -4.2422    0.3497    0.0000 C   0  0  0  0  0  0  0  0  0  0  0  0
   -4.4170   -0.4538    0.0000 C   0  0  0  0  0  0  0  0  0  0  0  0
   -5.9033    0.8701    0.0000 C   0  0  0  0  0  0  0  0  0  0  0  0
   -3.5678    6.2988    0.0000 C   0  0  0  0  0  0  0  0  0  0  0  0
   -2.7435    6.3071    0.0000 C   0  0  0  0  0  0  0  0  0  0  0  0
   -4.6044    5.2705    0.0000 O   0  0  0  0  0  0  0  0  0  0  0  0
   -1.6944    5.2580    0.0000 O   0  0  0  0  0  0  0  0  0  0  0  0
   -4.5919    4.2089    0.0000 O   0  0  0  0  0  0  0  0  0  0  0  0
   -4.0549    1.1573    0.0000 C   0  0  0  0  0  0  0  0  0  0  0  0
   -5.5036    0.1457    0.0000 Cl  0  0  0  0  0  0  0  0  0  0  0  0
   -6.6985    2.3063    0.0000 C   0  0  0  0  0  0  0  0  0  0  0  0
   -7.1231    1.5986    0.0000 C   0  0  0  0  0  0  0  0  0  0  0  0
   -6.7110    0.8743    0.0000 C   0  0  0  0  0  0  0  0  0  0  0  0
  2 11  1  0  0  0  0
  3  1  1  0  0  0  0
  4  1  2  0  0  0  0
  5  1  1  0  0  0  0
  6  3  1  0  0  0  0
  7  5  1  0  0  0  0
  8  2  1  0  0  0  0
  9  2  1  0  0  0  0
 10  4  1  0  0  0  0
 11 10  1  0  0  0  0
 12 20  1  0  0  0  0
 13 12  3  0  0  0  0
 14  6  1  0  0  0  0
 15  9  1  0  0  0  0
 16  8  1  0  0  0  0
 17  9  2  0  0  0  0
 18  8  2  0  0  0  0
 19 10  2  0  0  0  0
 20  3  1  0  0  0  0
 21 14  1  0  0  0  0
 22  7  1  0  0  0  0
 23 22  2  0  0  0  0
 24 14  2  0  0  0  0
  6  7  2  0  0  0  0
 23 24  1  0  0  0  0
 16 15  1  0  0  0  0
M  END
>  <IDNUMBER>
F1816-1187

>  <Chemical_Name>
N-[(2Z)-4-chloro-3-(prop-2-yn-1-yl)-2,3-dihydro-1,3-benzothiazol-2-ylidene]-2-(2,5-dioxopyrrolidin-1-yl)acetamide

>  <PriceCoeff>
1.00

>  <CAS>
868674-76-4

>  <MW>
361.80

>  <Description>
solid

>  <FSP3>
0.25

>  <clogP>
3.59

>  <TPSA>
95.35

>  <Acceptor>
3

>  <Donor>
0

>  <RotBonds>
5

>  <HAC>
24

>  <Collection>
General

>  <PPDS>
+

$$$$
F1816-1188
  Mrv2219 10102508112D          

 27 30  0  0  0  0            999 V2000
   -4.5821    2.5493    0.0000 C   0  0  0  0  0  0  0  0  0  0  0  0
   -5.3486    2.8701    0.0000 S   0  0  0  0  0  0  0  0  0  0  0  0
   -3.1575    5.0403    0.0000 N   0  0  0  0  0  0  0  0  0  0  0  0
   -4.6570    1.7371    0.0000 N   0  0  0  0  0  0  0  0  0  0  0  0
   -5.8818    2.2452    0.0000 C   0  0  0  0  0  0  0  0  0  0  0  0
   -3.8698    2.9825    0.0000 N   0  0  0  0  0  0  0  0  0  0  0  0
   -5.4569    1.5454    0.0000 C   0  0  0  0  0  0  0  0  0  0  0  0
   -2.4826    5.5153    0.0000 C   0  0  0  0  0  0  0  0  0  0  0  0
   -3.8198    5.5153    0.0000 C   0  0  0  0  0  0  0  0  0  0  0  0
   -3.8698    3.7990    0.0000 C   0  0  0  0  0  0  0  0  0  0  0  0
   -6.7024    2.2327    0.0000 C   0  0  0  0  0  0  0  0  0  0  0  0
   -3.1575    4.2114    0.0000 C   0  0  0  0  0  0  0  0  0  0  0  0
   -5.8443    0.8205    0.0000 C   0  0  0  0  0  0  0  0  0  0  0  0
   -3.2367    1.4621    0.0000 C   0  0  0  0  0  0  0  0  0  0  0  0
   -2.4618    1.7454    0.0000 C   0  0  0  0  0  0  0  0  0  0  0  0
   -2.7451    6.3108    0.0000 C   0  0  0  0  0  0  0  0  0  0  0  0
   -3.5698    6.3025    0.0000 C   0  0  0  0  0  0  0  0  0  0  0  0
   -1.6954    5.2611    0.0000 O   0  0  0  0  0  0  0  0  0  0  0  0
   -4.6070    5.2736    0.0000 O   0  0  0  0  0  0  0  0  0  0  0  0
   -4.5821    4.2031    0.0000 O   0  0  0  0  0  0  0  0  0  0  0  0
   -4.0197    1.1955    0.0000 C   0  0  0  0  0  0  0  0  0  0  0  0
   -7.1023    1.5079    0.0000 C   0  0  0  0  0  0  0  0  0  0  0  0
   -6.6649    0.7955    0.0000 C   0  0  0  0  0  0  0  0  0  0  0  0
   -7.1398    2.9325    0.0000 C   0  0  0  0  0  0  0  0  0  0  0  0
   -7.9146    1.4829    0.0000 C   0  0  0  0  0  0  0  0  0  0  0  0
   -7.9646    2.9117    0.0000 C   0  0  0  0  0  0  0  0  0  0  0  0
   -8.3520    2.1869    0.0000 C   0  0  0  0  0  0  0  0  0  0  0  0
  2  1  1  0  0  0  0
  3 12  1  0  0  0  0
  4  1  1  0  0  0  0
  5  2  1  0  0  0  0
  6  1  2  0  0  0  0
  7  4  1  0  0  0  0
  8  3  1  0  0  0  0
  9  3  1  0  0  0  0
 10  6  1  0  0  0  0
 11  5  1  0  0  0  0
 12 10  1  0  0  0  0
 13  7  1  0  0  0  0
 14 21  1  0  0  0  0
 15 14  3  0  0  0  0
 16  8  1  0  0  0  0
 17  9  1  0  0  0  0
 18  8  2  0  0  0  0
 19  9  2  0  0  0  0
 20 10  2  0  0  0  0
 21  4  1  0  0  0  0
 22 11  1  0  0  0  0
 23 13  2  0  0  0  0
 24 11  2  0  0  0  0
 25 22  2  0  0  0  0
 26 24  1  0  0  0  0
 27 26  2  0  0  0  0
  7  5  2  0  0  0  0
 22 23  1  0  0  0  0
 16 17  1  0  0  0  0
 27 25  1  0  0  0  0
M  END
>  <IDNUMBER>
F1816-1188

>  <Chemical_Name>
2-(2,5-dioxopyrrolidin-1-yl)-N-[(2Z)-3-(prop-2-yn-1-yl)-2H,3H-naphtho[2,1-d][1,3]thiazol-2-ylidene]acetamide

>  <PriceCoeff>
1.00

>  <CAS>
868674-77-5

>  <MW>
377.42

>  <Description>
solid

>  <FSP3>
0.20

>  <clogP>
4.05

>  <TPSA>
95.35

>  <Acceptor>
3

>  <Donor>
0

>  <RotBonds>
5

>  <HAC>
27

>  <Collection>
General

>  <PPDS>
+

$$$$
F1819-0521
  Mrv2219 10102508112D          

 33 36  0  0  0  0            999 V2000
   -4.5808    2.5486    0.0000 C   0  0  0  0  0  0  0  0  0  0  0  0
   -4.6724    1.7323    0.0000 N   0  0  0  0  0  0  0  0  0  0  0  0
   -3.8687    2.9692    0.0000 N   0  0  0  0  0  0  0  0  0  0  0  0
   -5.3179    2.8942    0.0000 S   0  0  0  0  0  0  0  0  0  0  0  0
   -5.4803    1.5699    0.0000 C   0  0  0  0  0  0  0  0  0  0  0  0
   -0.9953    5.4346    0.0000 N   0  0  0  0  0  0  0  0  0  0  0  0
   -5.8801    2.2946    0.0000 C   0  0  0  0  0  0  0  0  0  0  0  0
   -3.8687    3.7980    0.0000 C   0  0  0  0  0  0  0  0  0  0  0  0
   -0.2332    5.1347    0.0000 C   0  0  0  0  0  0  0  0  0  0  0  0
   -0.9370    6.2632    0.0000 C   0  0  0  0  0  0  0  0  0  0  0  0
   -6.7006    2.3071    0.0000 C   0  0  0  0  0  0  0  0  0  0  0  0
   -4.0561    1.1619    0.0000 C   0  0  0  0  0  0  0  0  0  0  0  0
   -1.7115    5.0264    0.0000 C   0  0  0  0  0  0  0  0  0  0  0  0
   -5.9051    0.8704    0.0000 C   0  0  0  0  0  0  0  0  0  0  0  0
   -4.2435    0.3498    0.0000 C   0  0  0  0  0  0  0  0  0  0  0  0
   -3.1566    4.2102    0.0000 C   0  0  0  0  0  0  0  0  0  0  0  0
   -7.1253    1.5991    0.0000 C   0  0  0  0  0  0  0  0  0  0  0  0
   -4.5933    4.2102    0.0000 O   0  0  0  0  0  0  0  0  0  0  0  0
    0.2915    5.7635    0.0000 C   0  0  0  0  0  0  0  0  0  0  0  0
   -0.1332    6.4631    0.0000 C   0  0  0  0  0  0  0  0  0  0  0  0
   -0.0333    4.3268    0.0000 O   0  0  0  0  0  0  0  0  0  0  0  0
   -1.5824    6.8088    0.0000 O   0  0  0  0  0  0  0  0  0  0  0  0
   -6.7131    0.8829    0.0000 C   0  0  0  0  0  0  0  0  0  0  0  0
   -5.0305    0.1082    0.0000 O   0  0  0  0  0  0  0  0  0  0  0  0
   -1.7323    4.2019    0.0000 C   0  0  0  0  0  0  0  0  0  0  0  0
   -2.4320    5.4512    0.0000 C   0  0  0  0  0  0  0  0  0  0  0  0
   -3.1483    5.0389    0.0000 C   0  0  0  0  0  0  0  0  0  0  0  0
   -2.4445    3.8063    0.0000 C   0  0  0  0  0  0  0  0  0  0  0  0
   -3.6439   -0.2041    0.0000 O   0  0  0  0  0  0  0  0  0  0  0  0
   -7.1003    3.0316    0.0000 C   0  0  0  0  0  0  0  0  0  0  0  0
   -7.1128    0.1582    0.0000 C   0  0  0  0  0  0  0  0  0  0  0  0
   -3.8229   -1.0037    0.0000 C   0  0  0  0  0  0  0  0  0  0  0  0
   -3.2190   -1.5658    0.0000 C   0  0  0  0  0  0  0  0  0  0  0  0
  2  1  1  0  0  0  0
  3  1  2  0  0  0  0
  4  1  1  0  0  0  0
  5  2  1  0  0  0  0
  6 13  1  0  0  0  0
  7  4  1  0  0  0  0
  8  3  1  0  0  0  0
  9  6  1  0  0  0  0
 10  6  1  0  0  0  0
 11  7  1  0  0  0  0
 12  2  1  0  0  0  0
 13 25  2  0  0  0  0
 14  5  1  0  0  0  0
 15 12  1  0  0  0  0
 16  8  1  0  0  0  0
 17 11  2  0  0  0  0
 18  8  2  0  0  0  0
 19  9  1  0  0  0  0
 20 10  1  0  0  0  0
 21  9  2  0  0  0  0
 22 10  2  0  0  0  0
 23 14  2  0  0  0  0
 24 15  2  0  0  0  0
 25 28  1  0  0  0  0
 26 27  2  0  0  0  0
 27 16  1  0  0  0  0
 28 16  2  0  0  0  0
 29 15  1  0  0  0  0
 30 11  1  0  0  0  0
 31 23  1  0  0  0  0
 32 29  1  0  0  0  0
 33 32  1  0  0  0  0
  5  7  2  0  0  0  0
 17 23  1  0  0  0  0
 26 13  1  0  0  0  0
 20 19  1  0  0  0  0
M  END
>  <IDNUMBER>
F1819-0521

>  <Chemical_Name>
ethyl 2-[(2Z)-2-{[4-(2,5-dioxopyrrolidin-1-yl)benzoyl]imino}-5,7-dimethyl-2,3-dihydro-1,3-benzothiazol-3-yl]acetate

>  <PriceCoeff>
1.00

>  <CAS>
868675-12-1

>  <MW>
465.52

>  <Description>
solid

>  <FSP3>
0.29

>  <clogP>
4.04

>  <TPSA>
121.65

>  <Acceptor>
5

>  <Donor>
0

>  <RotBonds>
7

>  <HAC>
33

>  <Collection>
General

>  <PPDS>
+

$$$$
F1819-0719
  Mrv2219 10102508112D          

 33 36  0  0  0  0            999 V2000
   -4.5776    2.5468    0.0000 C   0  0  0  0  0  0  0  0  0  0  0  0
   -4.6692    1.7312    0.0000 N   0  0  0  0  0  0  0  0  0  0  0  0
   -3.8660    2.9671    0.0000 N   0  0  0  0  0  0  0  0  0  0  0  0
   -5.3142    2.8922    0.0000 S   0  0  0  0  0  0  0  0  0  0  0  0
   -1.0071    3.7911    0.0000 N   0  0  0  0  0  0  0  0  0  0  0  0
   -5.4765    1.5689    0.0000 C   0  0  0  0  0  0  0  0  0  0  0  0
   -5.8760    2.2930    0.0000 C   0  0  0  0  0  0  0  0  0  0  0  0
   -3.8660    3.7953    0.0000 C   0  0  0  0  0  0  0  0  0  0  0  0
   -1.7187    4.2073    0.0000 C   0  0  0  0  0  0  0  0  0  0  0  0
   -0.9613    2.9671    0.0000 C   0  0  0  0  0  0  0  0  0  0  0  0
   -0.2372    4.0866    0.0000 C   0  0  0  0  0  0  0  0  0  0  0  0
   -6.6959    2.3054    0.0000 C   0  0  0  0  0  0  0  0  0  0  0  0
   -4.0533    1.1611    0.0000 C   0  0  0  0  0  0  0  0  0  0  0  0
   -2.4345    3.8036    0.0000 C   0  0  0  0  0  0  0  0  0  0  0  0
   -3.1544    4.2073    0.0000 C   0  0  0  0  0  0  0  0  0  0  0  0
   -5.9010    0.8697    0.0000 C   0  0  0  0  0  0  0  0  0  0  0  0
   -4.2405    0.3496    0.0000 C   0  0  0  0  0  0  0  0  0  0  0  0
   -7.1204    1.5980    0.0000 C   0  0  0  0  0  0  0  0  0  0  0  0
   -4.5901    4.2073    0.0000 O   0  0  0  0  0  0  0  0  0  0  0  0
   -0.1456    2.7674    0.0000 C   0  0  0  0  0  0  0  0  0  0  0  0
    0.2913    3.4665    0.0000 C   0  0  0  0  0  0  0  0  0  0  0  0
   -1.5938    2.4553    0.0000 O   0  0  0  0  0  0  0  0  0  0  0  0
   -0.0208    4.8814    0.0000 O   0  0  0  0  0  0  0  0  0  0  0  0
   -6.7084    0.8822    0.0000 C   0  0  0  0  0  0  0  0  0  0  0  0
   -5.0271    0.1082    0.0000 O   0  0  0  0  0  0  0  0  0  0  0  0
   -3.6413   -0.2039    0.0000 O   0  0  0  0  0  0  0  0  0  0  0  0
   -1.7104    5.0230    0.0000 C   0  0  0  0  0  0  0  0  0  0  0  0
   -7.0954    3.0295    0.0000 C   0  0  0  0  0  0  0  0  0  0  0  0
   -3.1461    5.0355    0.0000 C   0  0  0  0  0  0  0  0  0  0  0  0
   -2.4303    5.4474    0.0000 C   0  0  0  0  0  0  0  0  0  0  0  0
   -7.1079    0.1581    0.0000 C   0  0  0  0  0  0  0  0  0  0  0  0
   -3.8203   -1.0030    0.0000 C   0  0  0  0  0  0  0  0  0  0  0  0
   -3.2168   -1.5648    0.0000 C   0  0  0  0  0  0  0  0  0  0  0  0
  2  1  1  0  0  0  0
  3  1  2  0  0  0  0
  4  1  1  0  0  0  0
  5  9  1  0  0  0  0
  6  2  1  0  0  0  0
  7  4  1  0  0  0  0
  8  3  1  0  0  0  0
  9 14  1  0  0  0  0
 10  5  1  0  0  0  0
 11  5  1  0  0  0  0
 12  7  1  0  0  0  0
 13  2  1  0  0  0  0
 14 15  2  0  0  0  0
 15  8  1  0  0  0  0
 16  6  1  0  0  0  0
 17 13  1  0  0  0  0
 18 12  2  0  0  0  0
 19  8  2  0  0  0  0
 20 10  1  0  0  0  0
 21 11  1  0  0  0  0
 22 10  2  0  0  0  0
 23 11  2  0  0  0  0
 24 16  2  0  0  0  0
 25 17  2  0  0  0  0
 26 17  1  0  0  0  0
 27 30  1  0  0  0  0
 28 12  1  0  0  0  0
 29 15  1  0  0  0  0
 30 29  2  0  0  0  0
 31 24  1  0  0  0  0
 32 26  1  0  0  0  0
 33 32  1  0  0  0  0
  6  7  2  0  0  0  0
 18 24  1  0  0  0  0
 27  9  2  0  0  0  0
 21 20  1  0  0  0  0
M  END
>  <IDNUMBER>
F1819-0719

>  <Chemical_Name>
ethyl 2-[(2Z)-2-{[3-(2,5-dioxopyrrolidin-1-yl)benzoyl]imino}-5,7-dimethyl-2,3-dihydro-1,3-benzothiazol-3-yl]acetate

>  <PriceCoeff>
1.00

>  <CAS>
868675-14-3

>  <MW>
465.52

>  <Description>
solid

>  <FSP3>
0.29

>  <clogP>
4.04

>  <TPSA>
121.65

>  <Acceptor>
5

>  <Donor>
0

>  <RotBonds>
7

>  <HAC>
33

>  <Collection>
General

>  <PPDS>
+

$$$$
F1819-1181
  Mrv2219 10102508112D          

 28 30  0  0  0  0            999 V2000
   -4.5776    2.5468    0.0000 C   0  0  0  0  0  0  0  0  0  0  0  0
   -4.6692    1.7312    0.0000 N   0  0  0  0  0  0  0  0  0  0  0  0
   -5.3142    2.8922    0.0000 S   0  0  0  0  0  0  0  0  0  0  0  0
   -3.1544    5.0355    0.0000 N   0  0  0  0  0  0  0  0  0  0  0  0
   -3.8660    2.9671    0.0000 N   0  0  0  0  0  0  0  0  0  0  0  0
   -5.4765    1.5689    0.0000 C   0  0  0  0  0  0  0  0  0  0  0  0
   -5.8760    2.2930    0.0000 C   0  0  0  0  0  0  0  0  0  0  0  0
   -2.4802    5.5099    0.0000 C   0  0  0  0  0  0  0  0  0  0  0  0
   -3.8161    5.5099    0.0000 C   0  0  0  0  0  0  0  0  0  0  0  0
   -3.8660    3.7953    0.0000 C   0  0  0  0  0  0  0  0  0  0  0  0
   -6.6959    2.3054    0.0000 C   0  0  0  0  0  0  0  0  0  0  0  0
   -3.1544    4.2073    0.0000 C   0  0  0  0  0  0  0  0  0  0  0  0
   -4.0533    1.1611    0.0000 C   0  0  0  0  0  0  0  0  0  0  0  0
   -5.9010    0.8697    0.0000 C   0  0  0  0  0  0  0  0  0  0  0  0
   -4.2405    0.3496    0.0000 C   0  0  0  0  0  0  0  0  0  0  0  0
   -7.1204    1.5980    0.0000 C   0  0  0  0  0  0  0  0  0  0  0  0
   -3.5664    6.2964    0.0000 C   0  0  0  0  0  0  0  0  0  0  0  0
   -2.7424    6.3047    0.0000 C   0  0  0  0  0  0  0  0  0  0  0  0
   -4.6026    5.2685    0.0000 O   0  0  0  0  0  0  0  0  0  0  0  0
   -1.6937    5.2560    0.0000 O   0  0  0  0  0  0  0  0  0  0  0  0
   -4.5901    4.2073    0.0000 O   0  0  0  0  0  0  0  0  0  0  0  0
   -6.7084    0.8822    0.0000 C   0  0  0  0  0  0  0  0  0  0  0  0
   -5.0271    0.1082    0.0000 O   0  0  0  0  0  0  0  0  0  0  0  0
   -3.6413   -0.2039    0.0000 O   0  0  0  0  0  0  0  0  0  0  0  0
   -7.0954    3.0295    0.0000 C   0  0  0  0  0  0  0  0  0  0  0  0
   -7.1079    0.1581    0.0000 C   0  0  0  0  0  0  0  0  0  0  0  0
   -3.8203   -1.0030    0.0000 C   0  0  0  0  0  0  0  0  0  0  0  0
   -3.2168   -1.5648    0.0000 C   0  0  0  0  0  0  0  0  0  0  0  0
  2  1  1  0  0  0  0
  3  1  1  0  0  0  0
  4 12  1  0  0  0  0
  5  1  2  0  0  0  0
  6  2  1  0  0  0  0
  7  3  1  0  0  0  0
  8  4  1  0  0  0  0
  9  4  1  0  0  0  0
 10  5  1  0  0  0  0
 11  7  1  0  0  0  0
 12 10  1  0  0  0  0
 13  2  1  0  0  0  0
 14  6  1  0  0  0  0
 15 13  1  0  0  0  0
 16 11  2  0  0  0  0
 17  9  1  0  0  0  0
 18  8  1  0  0  0  0
 19  9  2  0  0  0  0
 20  8  2  0  0  0  0
 21 10  2  0  0  0  0
 22 14  2  0  0  0  0
 23 15  2  0  0  0  0
 24 15  1  0  0  0  0
 25 11  1  0  0  0  0
 26 22  1  0  0  0  0
 27 24  1  0  0  0  0
 28 27  1  0  0  0  0
  6  7  2  0  0  0  0
 16 22  1  0  0  0  0
 18 17  1  0  0  0  0
M  END
>  <IDNUMBER>
F1819-1181

>  <Chemical_Name>
ethyl 2-[(2Z)-2-{[2-(2,5-dioxopyrrolidin-1-yl)acetyl]imino}-5,7-dimethyl-2,3-dihydro-1,3-benzothiazol-3-yl]acetate

>  <PriceCoeff>
1.00

>  <CAS>
1322256-78-9

>  <MW>
403.45

>  <Description>
solid

>  <FSP3>
0.42

>  <clogP>
3.86

>  <TPSA>
121.65

>  <Acceptor>
5

>  <Donor>
0

>  <RotBonds>
7

>  <HAC>
28

>  <Collection>
General

>  <PPDS>
+

$$$$
F1820-0521
  Mrv2219 10102508112D          

 32 35  0  0  0  0            999 V2000
   -4.6066    2.5685    0.0000 C   0  0  0  0  0  0  0  0  0  0  0  0
   -4.6944    1.7499    0.0000 N   0  0  0  0  0  0  0  0  0  0  0  0
   -3.8716    2.9903    0.0000 N   0  0  0  0  0  0  0  0  0  0  0  0
   -5.3334    2.9068    0.0000 S   0  0  0  0  0  0  0  0  0  0  0  0
   -5.5004    1.5996    0.0000 C   0  0  0  0  0  0  0  0  0  0  0  0
   -1.0107    5.4420    0.0000 N   0  0  0  0  0  0  0  0  0  0  0  0
   -5.8972    2.3137    0.0000 C   0  0  0  0  0  0  0  0  0  0  0  0
   -3.8799    3.8090    0.0000 C   0  0  0  0  0  0  0  0  0  0  0  0
   -0.2506    5.1413    0.0000 C   0  0  0  0  0  0  0  0  0  0  0  0
   -0.9606    6.2690    0.0000 C   0  0  0  0  0  0  0  0  0  0  0  0
   -6.7158    2.3388    0.0000 C   0  0  0  0  0  0  0  0  0  0  0  0
   -4.0804    1.1861    0.0000 C   0  0  0  0  0  0  0  0  0  0  0  0
   -1.7291    5.0369    0.0000 C   0  0  0  0  0  0  0  0  0  0  0  0
   -5.9222    0.8896    0.0000 C   0  0  0  0  0  0  0  0  0  0  0  0
   -4.2683    0.3717    0.0000 C   0  0  0  0  0  0  0  0  0  0  0  0
   -3.1658    4.2141    0.0000 C   0  0  0  0  0  0  0  0  0  0  0  0
   -7.1460    1.6288    0.0000 C   0  0  0  0  0  0  0  0  0  0  0  0
   -4.5941    4.2266    0.0000 O   0  0  0  0  0  0  0  0  0  0  0  0
    0.2756    5.7761    0.0000 C   0  0  0  0  0  0  0  0  0  0  0  0
   -0.1504    6.4694    0.0000 C   0  0  0  0  0  0  0  0  0  0  0  0
   -0.0459    4.3394    0.0000 O   0  0  0  0  0  0  0  0  0  0  0  0
   -1.5996    6.8203    0.0000 O   0  0  0  0  0  0  0  0  0  0  0  0
   -6.7325    0.9104    0.0000 C   0  0  0  0  0  0  0  0  0  0  0  0
   -5.0577    0.1336    0.0000 O   0  0  0  0  0  0  0  0  0  0  0  0
   -1.7416    4.2141    0.0000 C   0  0  0  0  0  0  0  0  0  0  0  0
   -2.4516    5.4545    0.0000 C   0  0  0  0  0  0  0  0  0  0  0  0
   -3.1658    5.0411    0.0000 C   0  0  0  0  0  0  0  0  0  0  0  0
   -2.4558    3.8173    0.0000 C   0  0  0  0  0  0  0  0  0  0  0  0
   -3.6711   -0.1879    0.0000 O   0  0  0  0  0  0  0  0  0  0  0  0
   -7.1084    3.0655    0.0000 C   0  0  0  0  0  0  0  0  0  0  0  0
   -7.1460    0.1879    0.0000 C   0  0  0  0  0  0  0  0  0  0  0  0
   -3.8591   -0.9898    0.0000 C   0  0  0  0  0  0  0  0  0  0  0  0
  2  1  1  0  0  0  0
  3  1  2  0  0  0  0
  4  1  1  0  0  0  0
  5  2  1  0  0  0  0
  6 13  1  0  0  0  0
  7  4  1  0  0  0  0
  8  3  1  0  0  0  0
  9  6  1  0  0  0  0
 10  6  1  0  0  0  0
 11  7  1  0  0  0  0
 12  2  1  0  0  0  0
 13 25  2  0  0  0  0
 14  5  1  0  0  0  0
 15 12  1  0  0  0  0
 16  8  1  0  0  0  0
 17 11  2  0  0  0  0
 18  8  2  0  0  0  0
 19  9  1  0  0  0  0
 20 10  1  0  0  0  0
 21  9  2  0  0  0  0
 22 10  2  0  0  0  0
 23 14  2  0  0  0  0
 24 15  2  0  0  0  0
 25 28  1  0  0  0  0
 26 27  2  0  0  0  0
 27 16  1  0  0  0  0
 28 16  2  0  0  0  0
 29 15  1  0  0  0  0
 30 11  1  0  0  0  0
 31 23  1  0  0  0  0
 32 29  1  0  0  0  0
  5  7  2  0  0  0  0
 17 23  1  0  0  0  0
 26 13  1  0  0  0  0
 20 19  1  0  0  0  0
M  END
>  <IDNUMBER>
F1820-0521

>  <Chemical_Name>
methyl 2-[(2Z)-2-{[4-(2,5-dioxopyrrolidin-1-yl)benzoyl]imino}-5,7-dimethyl-2,3-dihydro-1,3-benzothiazol-3-yl]acetate

>  <PriceCoeff>
1.00

>  <CAS>
1322259-53-9

>  <MW>
451.49

>  <Description>
solid

>  <FSP3>
0.26

>  <clogP>
3.51

>  <TPSA>
121.65

>  <Acceptor>
5

>  <Donor>
0

>  <RotBonds>
6

>  <HAC>
32

>  <Collection>
General

>  <PPDS>
+

$$$$
F1820-0719
  Mrv2219 10102508112D          

 32 35  0  0  0  0            999 V2000
   -4.6053    2.5678    0.0000 C   0  0  0  0  0  0  0  0  0  0  0  0
   -4.6930    1.7494    0.0000 N   0  0  0  0  0  0  0  0  0  0  0  0
   -3.8705    2.9895    0.0000 N   0  0  0  0  0  0  0  0  0  0  0  0
   -5.3318    2.9060    0.0000 S   0  0  0  0  0  0  0  0  0  0  0  0
   -1.0229    3.8079    0.0000 N   0  0  0  0  0  0  0  0  0  0  0  0
   -5.4989    1.5991    0.0000 C   0  0  0  0  0  0  0  0  0  0  0  0
   -5.8955    2.3131    0.0000 C   0  0  0  0  0  0  0  0  0  0  0  0
   -3.8788    3.8079    0.0000 C   0  0  0  0  0  0  0  0  0  0  0  0
   -1.7369    4.2129    0.0000 C   0  0  0  0  0  0  0  0  0  0  0  0
   -0.9728    2.9895    0.0000 C   0  0  0  0  0  0  0  0  0  0  0  0
   -0.2588    4.1002    0.0000 C   0  0  0  0  0  0  0  0  0  0  0  0
   -6.7139    2.3381    0.0000 C   0  0  0  0  0  0  0  0  0  0  0  0
   -4.0792    1.1858    0.0000 C   0  0  0  0  0  0  0  0  0  0  0  0
   -2.4509    3.8162    0.0000 C   0  0  0  0  0  0  0  0  0  0  0  0
   -3.1648    4.2129    0.0000 C   0  0  0  0  0  0  0  0  0  0  0  0
   -5.9205    0.8893    0.0000 C   0  0  0  0  0  0  0  0  0  0  0  0
   -4.2671    0.3716    0.0000 C   0  0  0  0  0  0  0  0  0  0  0  0
   -7.1440    1.6284    0.0000 C   0  0  0  0  0  0  0  0  0  0  0  0
   -4.5928    4.2254    0.0000 O   0  0  0  0  0  0  0  0  0  0  0  0
   -0.1586    2.7891    0.0000 C   0  0  0  0  0  0  0  0  0  0  0  0
    0.2756    3.4780    0.0000 C   0  0  0  0  0  0  0  0  0  0  0  0
   -1.6116    2.4634    0.0000 O   0  0  0  0  0  0  0  0  0  0  0  0
   -0.0376    4.8976    0.0000 O   0  0  0  0  0  0  0  0  0  0  0  0
   -6.7306    0.9102    0.0000 C   0  0  0  0  0  0  0  0  0  0  0  0
   -5.0563    0.1336    0.0000 O   0  0  0  0  0  0  0  0  0  0  0  0
   -3.6701   -0.1879    0.0000 O   0  0  0  0  0  0  0  0  0  0  0  0
   -1.7286    5.0396    0.0000 C   0  0  0  0  0  0  0  0  0  0  0  0
   -7.1064    3.0646    0.0000 C   0  0  0  0  0  0  0  0  0  0  0  0
   -3.1648    5.0396    0.0000 C   0  0  0  0  0  0  0  0  0  0  0  0
   -2.4426    5.4530    0.0000 C   0  0  0  0  0  0  0  0  0  0  0  0
   -7.1440    0.1879    0.0000 C   0  0  0  0  0  0  0  0  0  0  0  0
   -3.8580   -0.9895    0.0000 C   0  0  0  0  0  0  0  0  0  0  0  0
  2  1  1  0  0  0  0
  3  1  2  0  0  0  0
  4  1  1  0  0  0  0
  5  9  1  0  0  0  0
  6  2  1  0  0  0  0
  7  4  1  0  0  0  0
  8  3  1  0  0  0  0
  9 14  1  0  0  0  0
 10  5  1  0  0  0  0
 11  5  1  0  0  0  0
 12  7  1  0  0  0  0
 13  2  1  0  0  0  0
 14 15  2  0  0  0  0
 15  8  1  0  0  0  0
 16  6  1  0  0  0  0
 17 13  1  0  0  0  0
 18 12  2  0  0  0  0
 19  8  2  0  0  0  0
 20 10  1  0  0  0  0
 21 11  1  0  0  0  0
 22 10  2  0  0  0  0
 23 11  2  0  0  0  0
 24 16  2  0  0  0  0
 25 17  2  0  0  0  0
 26 17  1  0  0  0  0
 27 30  1  0  0  0  0
 28 12  1  0  0  0  0
 29 15  1  0  0  0  0
 30 29  2  0  0  0  0
 31 24  1  0  0  0  0
 32 26  1  0  0  0  0
  6  7  2  0  0  0  0
 18 24  1  0  0  0  0
 27  9  2  0  0  0  0
 21 20  1  0  0  0  0
M  END
>  <IDNUMBER>
F1820-0719

>  <Chemical_Name>
methyl 2-[(2Z)-2-{[3-(2,5-dioxopyrrolidin-1-yl)benzoyl]imino}-5,7-dimethyl-2,3-dihydro-1,3-benzothiazol-3-yl]acetate

>  <PriceCoeff>
1.00

>  <CAS>
1322008-17-2

>  <MW>
451.49

>  <Description>
solid

>  <FSP3>
0.26

>  <clogP>
3.51

>  <TPSA>
121.65

>  <Acceptor>
5

>  <Donor>
0

>  <RotBonds>
6

>  <HAC>
32

>  <Collection>
General

>  <PPDS>
+

$$$$
F1822-0283
  Mrv2219 10102508112D          

 27 30  0  0  0  0            999 V2000
   -5.9708    3.3958    0.0000 C   0  0  0  0  0  0  0  0  0  0  0  0
   -1.7250    5.0167    0.0000 N   0  0  0  0  0  0  0  0  0  0  0  0
   -6.0542    2.5583    0.0000 N   0  0  0  0  0  0  0  0  0  0  0  0
   -5.2833    3.7958    0.0000 N   0  0  0  0  0  0  0  0  0  0  0  0
   -6.7292    3.7333    0.0000 S   0  0  0  0  0  0  0  0  0  0  0  0
   -6.8750    2.3833    0.0000 C   0  0  0  0  0  0  0  0  0  0  0  0
   -4.5833    3.3958    0.0000 C   0  0  0  0  0  0  0  0  0  0  0  0
   -1.6708    5.8417    0.0000 C   0  0  0  0  0  0  0  0  0  0  0  0
   -0.9625    4.7167    0.0000 C   0  0  0  0  0  0  0  0  0  0  0  0
   -7.2792    3.1125    0.0000 C   0  0  0  0  0  0  0  0  0  0  0  0
   -2.4458    4.6042    0.0000 C   0  0  0  0  0  0  0  0  0  0  0  0
   -3.8708    3.8000    0.0000 C   0  0  0  0  0  0  0  0  0  0  0  0
   -4.5833    2.5875    0.0000 O   0  0  0  0  0  0  0  0  0  0  0  0
   -0.8625    6.0417    0.0000 C   0  0  0  0  0  0  0  0  0  0  0  0
   -0.4458    5.3417    0.0000 C   0  0  0  0  0  0  0  0  0  0  0  0
   -2.3083    6.3917    0.0000 O   0  0  0  0  0  0  0  0  0  0  0  0
   -0.7625    3.9250    0.0000 O   0  0  0  0  0  0  0  0  0  0  0  0
   -7.2792    1.6625    0.0000 C   0  0  0  0  0  0  0  0  0  0  0  0
   -2.4500    3.8000    0.0000 C   0  0  0  0  0  0  0  0  0  0  0  0
   -3.1583    5.0292    0.0000 C   0  0  0  0  0  0  0  0  0  0  0  0
   -3.8708    4.6250    0.0000 C   0  0  0  0  0  0  0  0  0  0  0  0
   -3.1625    3.3958    0.0000 C   0  0  0  0  0  0  0  0  0  0  0  0
   -8.1250    3.1208    0.0000 C   0  0  0  0  0  0  0  0  0  0  0  0
   -8.5417    2.3958    0.0000 C   0  0  0  0  0  0  0  0  0  0  0  0
   -8.1167    1.6583    0.0000 C   0  0  0  0  0  0  0  0  0  0  0  0
   -6.8792    0.9750    0.0000 C   0  0  0  0  0  0  0  0  0  0  0  0
   -7.2792    0.2833    0.0000 C   0  0  0  0  0  0  0  0  0  0  0  0
  2 11  1  0  0  0  0
  3  1  2  0  0  0  0
  4  1  1  0  0  0  0
  5  1  1  0  0  0  0
  6  3  1  0  0  0  0
  7  4  1  0  0  0  0
  8  2  1  0  0  0  0
  9  2  1  0  0  0  0
 10  5  1  0  0  0  0
 11 19  2  0  0  0  0
 12  7  1  0  0  0  0
 13  7  2  0  0  0  0
 14  8  1  0  0  0  0
 15  9  1  0  0  0  0
 16  8  2  0  0  0  0
 17  9  2  0  0  0  0
 18  6  1  0  0  0  0
 19 22  1  0  0  0  0
 20 21  2  0  0  0  0
 21 12  1  0  0  0  0
 22 12  2  0  0  0  0
 23 10  1  0  0  0  0
 24 23  2  0  0  0  0
 25 18  2  0  0  0  0
 26 18  1  0  0  0  0
 27 26  1  0  0  0  0
 10  6  2  0  0  0  0
 25 24  1  0  0  0  0
 11 20  1  0  0  0  0
 15 14  1  0  0  0  0
M  END
>  <IDNUMBER>
F1822-0283

>  <Chemical_Name>
4-(2,5-dioxopyrrolidin-1-yl)-N-(4-ethyl-1,3-benzothiazol-2-yl)benzamide

>  <PriceCoeff>
1.00

>  <CAS>
892857-73-7

>  <MW>
379.43

>  <Description>
solid

>  <FSP3>
0.20

>  <clogP>
2.65

>  <TPSA>
107.61

>  <Acceptor>
4

>  <Donor>
1

>  <RotBonds>
4

>  <HAC>
27

>  <Collection>
General

>  <PPDS>
+

$$$$
F1822-0284
  Mrv2219 10102508112D          

 28 32  0  0  0  0            999 V2000
   -5.9583    3.3958    0.0000 C   0  0  0  0  0  0  0  0  0  0  0  0
   -1.7250    5.0167    0.0000 N   0  0  0  0  0  0  0  0  0  0  0  0
   -6.0292    2.5625    0.0000 N   0  0  0  0  0  0  0  0  0  0  0  0
   -5.2708    3.7833    0.0000 N   0  0  0  0  0  0  0  0  0  0  0  0
   -6.7042    3.7208    0.0000 S   0  0  0  0  0  0  0  0  0  0  0  0
   -6.8417    2.3958    0.0000 C   0  0  0  0  0  0  0  0  0  0  0  0
   -7.2667    3.1083    0.0000 C   0  0  0  0  0  0  0  0  0  0  0  0
   -4.5833    3.3958    0.0000 C   0  0  0  0  0  0  0  0  0  0  0  0
   -0.9625    4.7167    0.0000 C   0  0  0  0  0  0  0  0  0  0  0  0
   -1.6708    5.8417    0.0000 C   0  0  0  0  0  0  0  0  0  0  0  0
   -7.2542    1.6708    0.0000 C   0  0  0  0  0  0  0  0  0  0  0  0
   -8.0917    3.1083    0.0000 C   0  0  0  0  0  0  0  0  0  0  0  0
   -8.0792    1.6625    0.0000 C   0  0  0  0  0  0  0  0  0  0  0  0
   -8.5042    2.3833    0.0000 C   0  0  0  0  0  0  0  0  0  0  0  0
   -2.4458    4.6042    0.0000 C   0  0  0  0  0  0  0  0  0  0  0  0
   -3.8708    3.8000    0.0000 C   0  0  0  0  0  0  0  0  0  0  0  0
   -9.3167    2.2083    0.0000 O   0  0  0  0  0  0  0  0  0  0  0  0
   -8.6417    1.0458    0.0000 O   0  0  0  0  0  0  0  0  0  0  0  0
   -9.4042    1.3833    0.0000 C   0  0  0  0  0  0  0  0  0  0  0  0
   -4.5958    2.5958    0.0000 O   0  0  0  0  0  0  0  0  0  0  0  0
   -0.4458    5.3417    0.0000 C   0  0  0  0  0  0  0  0  0  0  0  0
   -0.8625    6.0417    0.0000 C   0  0  0  0  0  0  0  0  0  0  0  0
   -0.7625    3.9250    0.0000 O   0  0  0  0  0  0  0  0  0  0  0  0
   -2.3083    6.3917    0.0000 O   0  0  0  0  0  0  0  0  0  0  0  0
   -2.4500    3.8000    0.0000 C   0  0  0  0  0  0  0  0  0  0  0  0
   -3.1583    5.0292    0.0000 C   0  0  0  0  0  0  0  0  0  0  0  0
   -3.8708    4.6250    0.0000 C   0  0  0  0  0  0  0  0  0  0  0  0
   -3.1625    3.3958    0.0000 C   0  0  0  0  0  0  0  0  0  0  0  0
  2 15  1  0  0  0  0
  3  1  2  0  0  0  0
  4  1  1  0  0  0  0
  5  1  1  0  0  0  0
  6  3  1  0  0  0  0
  7  5  1  0  0  0  0
  8  4  1  0  0  0  0
  9  2  1  0  0  0  0
 10  2  1  0  0  0  0
 11  6  1  0  0  0  0
 12  7  1  0  0  0  0
 13 11  2  0  0  0  0
 14 12  2  0  0  0  0
 15 25  2  0  0  0  0
 16  8  1  0  0  0  0
 17 14  1  0  0  0  0
 18 13  1  0  0  0  0
 19 17  1  0  0  0  0
 20  8  2  0  0  0  0
 21  9  1  0  0  0  0
 22 10  1  0  0  0  0
 23  9  2  0  0  0  0
 24 10  2  0  0  0  0
 25 28  1  0  0  0  0
 26 27  2  0  0  0  0
 27 16  1  0  0  0  0
 28 16  2  0  0  0  0
  7  6  2  0  0  0  0
 14 13  1  0  0  0  0
 15 26  1  0  0  0  0
 18 19  1  0  0  0  0
 21 22  1  0  0  0  0
M  END
>  <IDNUMBER>
F1822-0284

>  <Chemical_Name>
N-{4,6-dioxa-10-thia-12-azatricyclo[7.3.0.0?,?]dodeca-1,3(7),8,11-tetraen-11-yl}-4-(2,5-dioxopyrrolidin-1-yl)benzamide

>  <PriceCoeff>
1.00

>  <CAS>
892857-75-9

>  <MW>
395.39

>  <Description>
solid

>  <FSP3>
0.16

>  <clogP>
2.15

>  <TPSA>
126.07

>  <Acceptor>
6

>  <Donor>
1

>  <RotBonds>
3

>  <HAC>
28

>  <Collection>
General

>  <PPDS>
+

$$$$
F1822-0285
  Mrv2219 10102508112D          

 26 29  0  0  0  0            999 V2000
   -5.9708    3.3833    0.0000 C   0  0  0  0  0  0  0  0  0  0  0  0
   -1.7250    5.0167    0.0000 N   0  0  0  0  0  0  0  0  0  0  0  0
   -6.0417    2.5583    0.0000 N   0  0  0  0  0  0  0  0  0  0  0  0
   -5.2708    3.7958    0.0000 N   0  0  0  0  0  0  0  0  0  0  0  0
   -6.8542    2.3833    0.0000 C   0  0  0  0  0  0  0  0  0  0  0  0
   -6.7167    3.7208    0.0000 S   0  0  0  0  0  0  0  0  0  0  0  0
   -4.5833    3.3958    0.0000 C   0  0  0  0  0  0  0  0  0  0  0  0
   -1.6708    5.8417    0.0000 C   0  0  0  0  0  0  0  0  0  0  0  0
   -0.9625    4.7167    0.0000 C   0  0  0  0  0  0  0  0  0  0  0  0
   -7.2750    3.1083    0.0000 C   0  0  0  0  0  0  0  0  0  0  0  0
   -2.4458    4.6042    0.0000 C   0  0  0  0  0  0  0  0  0  0  0  0
   -3.8708    3.8000    0.0000 C   0  0  0  0  0  0  0  0  0  0  0  0
   -7.2667    1.6583    0.0000 C   0  0  0  0  0  0  0  0  0  0  0  0
   -4.5833    2.5958    0.0000 O   0  0  0  0  0  0  0  0  0  0  0  0
   -0.4458    5.3417    0.0000 C   0  0  0  0  0  0  0  0  0  0  0  0
   -0.8625    6.0417    0.0000 C   0  0  0  0  0  0  0  0  0  0  0  0
   -0.7625    3.9250    0.0000 O   0  0  0  0  0  0  0  0  0  0  0  0
   -2.3083    6.3917    0.0000 O   0  0  0  0  0  0  0  0  0  0  0  0
   -2.4500    3.8000    0.0000 C   0  0  0  0  0  0  0  0  0  0  0  0
   -3.1583    5.0292    0.0000 C   0  0  0  0  0  0  0  0  0  0  0  0
   -3.8708    4.6250    0.0000 C   0  0  0  0  0  0  0  0  0  0  0  0
   -3.1625    3.3958    0.0000 C   0  0  0  0  0  0  0  0  0  0  0  0
   -6.8542    0.9708    0.0000 Br  0  0  0  0  0  0  0  0  0  0  0  0
   -8.1167    3.0958    0.0000 C   0  0  0  0  0  0  0  0  0  0  0  0
   -8.5167    2.3708    0.0000 C   0  0  0  0  0  0  0  0  0  0  0  0
   -8.0917    1.6458    0.0000 C   0  0  0  0  0  0  0  0  0  0  0  0
  2 11  1  0  0  0  0
  3  1  2  0  0  0  0
  4  1  1  0  0  0  0
  5  3  1  0  0  0  0
  6  1  1  0  0  0  0
  7  4  1  0  0  0  0
  8  2  1  0  0  0  0
  9  2  1  0  0  0  0
 10  6  1  0  0  0  0
 11 19  2  0  0  0  0
 12  7  1  0  0  0  0
 13  5  1  0  0  0  0
 14  7  2  0  0  0  0
 15  9  1  0  0  0  0
 16  8  1  0  0  0  0
 17  9  2  0  0  0  0
 18  8  2  0  0  0  0
 19 22  1  0  0  0  0
 20 21  2  0  0  0  0
 21 12  1  0  0  0  0
 22 12  2  0  0  0  0
 23 13  1  0  0  0  0
 24 10  1  0  0  0  0
 25 24  2  0  0  0  0
 26 13  2  0  0  0  0
 10  5  2  0  0  0  0
 26 25  1  0  0  0  0
 11 20  1  0  0  0  0
 15 16  1  0  0  0  0
M  END
>  <IDNUMBER>
F1822-0285

>  <Chemical_Name>
N-(4-bromo-1,3-benzothiazol-2-yl)-4-(2,5-dioxopyrrolidin-1-yl)benzamide

>  <PriceCoeff>
1.00

>  <CAS>
892857-77-1

>  <MW>
430.28

>  <Description>
solid

>  <FSP3>
0.11

>  <clogP>
2.49

>  <TPSA>
107.61

>  <Acceptor>
4

>  <Donor>
1

>  <RotBonds>
3

>  <HAC>
26

>  <Collection>
General

>  <PPDS>
+

$$$$
F1822-0286
  Mrv2219 10102508112D          

 29 33  0  0  0  0            999 V2000
   -5.9583    3.3833    0.0000 C   0  0  0  0  0  0  0  0  0  0  0  0
   -1.7250    5.0167    0.0000 N   0  0  0  0  0  0  0  0  0  0  0  0
   -6.0167    2.5583    0.0000 N   0  0  0  0  0  0  0  0  0  0  0  0
   -5.2708    3.7833    0.0000 N   0  0  0  0  0  0  0  0  0  0  0  0
   -6.7042    3.7083    0.0000 S   0  0  0  0  0  0  0  0  0  0  0  0
   -6.8292    2.3833    0.0000 C   0  0  0  0  0  0  0  0  0  0  0  0
   -7.2542    3.0958    0.0000 C   0  0  0  0  0  0  0  0  0  0  0  0
   -4.5833    3.3958    0.0000 C   0  0  0  0  0  0  0  0  0  0  0  0
   -0.9625    4.7167    0.0000 C   0  0  0  0  0  0  0  0  0  0  0  0
   -1.6708    5.8417    0.0000 C   0  0  0  0  0  0  0  0  0  0  0  0
   -7.2417    1.6708    0.0000 C   0  0  0  0  0  0  0  0  0  0  0  0
   -8.0875    3.0958    0.0000 C   0  0  0  0  0  0  0  0  0  0  0  0
   -8.0667    1.6500    0.0000 C   0  0  0  0  0  0  0  0  0  0  0  0
   -8.4917    2.3750    0.0000 C   0  0  0  0  0  0  0  0  0  0  0  0
   -2.4458    4.6042    0.0000 C   0  0  0  0  0  0  0  0  0  0  0  0
   -3.8708    3.8000    0.0000 C   0  0  0  0  0  0  0  0  0  0  0  0
   -9.3167    2.3625    0.0000 O   0  0  0  0  0  0  0  0  0  0  0  0
   -8.4667    0.9333    0.0000 O   0  0  0  0  0  0  0  0  0  0  0  0
   -4.5833    2.6000    0.0000 O   0  0  0  0  0  0  0  0  0  0  0  0
   -0.8625    6.0417    0.0000 C   0  0  0  0  0  0  0  0  0  0  0  0
   -0.4458    5.3417    0.0000 C   0  0  0  0  0  0  0  0  0  0  0  0
   -2.3083    6.3917    0.0000 O   0  0  0  0  0  0  0  0  0  0  0  0
   -0.7625    3.9250    0.0000 O   0  0  0  0  0  0  0  0  0  0  0  0
   -3.1583    5.0292    0.0000 C   0  0  0  0  0  0  0  0  0  0  0  0
   -2.4500    3.8000    0.0000 C   0  0  0  0  0  0  0  0  0  0  0  0
   -3.1625    3.3958    0.0000 C   0  0  0  0  0  0  0  0  0  0  0  0
   -3.8708    4.6250    0.0000 C   0  0  0  0  0  0  0  0  0  0  0  0
   -9.3042    0.9208    0.0000 C   0  0  0  0  0  0  0  0  0  0  0  0
   -9.7292    1.6333    0.0000 C   0  0  0  0  0  0  0  0  0  0  0  0
  2 15  1  0  0  0  0
  3  1  2  0  0  0  0
  4  1  1  0  0  0  0
  5  1  1  0  0  0  0
  6  3  1  0  0  0  0
  7  5  1  0  0  0  0
  8  4  1  0  0  0  0
  9  2  1  0  0  0  0
 10  2  1  0  0  0  0
 11  6  1  0  0  0  0
 12  7  1  0  0  0  0
 13 11  2  0  0  0  0
 14 12  2  0  0  0  0
 15 24  1  0  0  0  0
 16  8  1  0  0  0  0
 17 14  1  0  0  0  0
 18 13  1  0  0  0  0
 19  8  2  0  0  0  0
 20 10  1  0  0  0  0
 21  9  1  0  0  0  0
 22 10  2  0  0  0  0
 23  9  2  0  0  0  0
 24 27  2  0  0  0  0
 25 26  1  0  0  0  0
 26 16  2  0  0  0  0
 27 16  1  0  0  0  0
 28 18  1  0  0  0  0
 29 17  1  0  0  0  0
  7  6  2  0  0  0  0
 14 13  1  0  0  0  0
 15 25  2  0  0  0  0
 28 29  1  0  0  0  0
 21 20  1  0  0  0  0
M  END
>  <IDNUMBER>
F1822-0286

>  <Chemical_Name>
N-{10,13-dioxa-4-thia-6-azatricyclo[7.4.0.0?,?]trideca-1(9),2,5,7-tetraen-5-yl}-4-(2,5-dioxopyrrolidin-1-yl)benzamide

>  <PriceCoeff>
1.00

>  <CAS>
892857-79-3

>  <MW>
409.42

>  <Description>
solid

>  <FSP3>
0.20

>  <clogP>
2.11

>  <TPSA>
126.07

>  <Acceptor>
6

>  <Donor>
1

>  <RotBonds>
3

>  <HAC>
29

>  <Collection>
General

>  <PPDS>
+

$$$$
F1822-0288
  Mrv2219 10102508112D          

 28 31  0  0  0  0            999 V2000
   -5.9708    3.3833    0.0000 C   0  0  0  0  0  0  0  0  0  0  0  0
   -1.7250    5.0167    0.0000 N   0  0  0  0  0  0  0  0  0  0  0  0
   -6.0292    2.5583    0.0000 N   0  0  0  0  0  0  0  0  0  0  0  0
   -5.2708    3.7958    0.0000 N   0  0  0  0  0  0  0  0  0  0  0  0
   -6.7167    3.7208    0.0000 S   0  0  0  0  0  0  0  0  0  0  0  0
   -4.5833    3.3958    0.0000 C   0  0  0  0  0  0  0  0  0  0  0  0
   -0.9625    4.7167    0.0000 C   0  0  0  0  0  0  0  0  0  0  0  0
   -1.6708    5.8417    0.0000 C   0  0  0  0  0  0  0  0  0  0  0  0
   -7.2667    3.1083    0.0000 C   0  0  0  0  0  0  0  0  0  0  0  0
   -6.8417    2.3833    0.0000 C   0  0  0  0  0  0  0  0  0  0  0  0
   -2.4458    4.6042    0.0000 C   0  0  0  0  0  0  0  0  0  0  0  0
   -8.1125    3.1083    0.0000 C   0  0  0  0  0  0  0  0  0  0  0  0
   -8.5042    2.3708    0.0000 C   0  0  0  0  0  0  0  0  0  0  0  0
   -3.8708    3.8000    0.0000 C   0  0  0  0  0  0  0  0  0  0  0  0
   -4.5833    2.5958    0.0000 O   0  0  0  0  0  0  0  0  0  0  0  0
   -0.8625    6.0417    0.0000 C   0  0  0  0  0  0  0  0  0  0  0  0
   -0.4458    5.3417    0.0000 C   0  0  0  0  0  0  0  0  0  0  0  0
   -2.3083    6.3917    0.0000 O   0  0  0  0  0  0  0  0  0  0  0  0
   -0.7625    3.9250    0.0000 O   0  0  0  0  0  0  0  0  0  0  0  0
   -7.2625    1.6625    0.0000 C   0  0  0  0  0  0  0  0  0  0  0  0
   -8.0917    1.6500    0.0000 C   0  0  0  0  0  0  0  0  0  0  0  0
   -3.1583    5.0292    0.0000 C   0  0  0  0  0  0  0  0  0  0  0  0
   -2.4500    3.8000    0.0000 C   0  0  0  0  0  0  0  0  0  0  0  0
   -3.1625    3.3958    0.0000 C   0  0  0  0  0  0  0  0  0  0  0  0
   -3.8708    4.6250    0.0000 C   0  0  0  0  0  0  0  0  0  0  0  0
   -9.3375    2.3750    0.0000 C   0  0  0  0  0  0  0  0  0  0  0  0
   -9.7500    3.0708    0.0000 C   0  0  0  0  0  0  0  0  0  0  0  0
   -9.7417    1.6583    0.0000 C   0  0  0  0  0  0  0  0  0  0  0  0
  2 11  1  0  0  0  0
  3  1  2  0  0  0  0
  4  1  1  0  0  0  0
  5  1  1  0  0  0  0
  6  4  1  0  0  0  0
  7  2  1  0  0  0  0
  8  2  1  0  0  0  0
  9  5  1  0  0  0  0
 10  3  1  0  0  0  0
 11 22  1  0  0  0  0
 12  9  1  0  0  0  0
 13 12  2  0  0  0  0
 14  6  1  0  0  0  0
 15  6  2  0  0  0  0
 16  8  1  0  0  0  0
 17  7  1  0  0  0  0
 18  8  2  0  0  0  0
 19  7  2  0  0  0  0
 20 10  1  0  0  0  0
 21 20  2  0  0  0  0
 22 25  2  0  0  0  0
 23 24  1  0  0  0  0
 24 14  2  0  0  0  0
 25 14  1  0  0  0  0
 26 13  1  0  0  0  0
 27 26  1  0  0  0  0
 28 26  1  0  0  0  0
  9 10  2  0  0  0  0
 21 13  1  0  0  0  0
 11 23  2  0  0  0  0
 17 16  1  0  0  0  0
M  END
>  <IDNUMBER>
F1822-0288

>  <Chemical_Name>
4-(2,5-dioxopyrrolidin-1-yl)-N-[6-(propan-2-yl)-1,3-benzothiazol-2-yl]benzamide

>  <PriceCoeff>
1.00

>  <CAS>
892857-81-7

>  <MW>
393.46

>  <Description>
solid

>  <FSP3>
0.24

>  <clogP>
3.05

>  <TPSA>
107.61

>  <Acceptor>
4

>  <Donor>
1

>  <RotBonds>
4

>  <HAC>
28

>  <Collection>
General

>  <PPDS>
+

$$$$
F1822-0391
  Mrv2219 10102508112D          

 27 30  0  0  0  0            999 V2000
   -5.9832    3.4028    0.0000 C   0  0  0  0  0  0  0  0  0  0  0  0
   -1.7369    3.4028    0.0000 N   0  0  0  0  0  0  0  0  0  0  0  0
   -6.0667    2.5636    0.0000 N   0  0  0  0  0  0  0  0  0  0  0  0
   -5.2942    3.8037    0.0000 N   0  0  0  0  0  0  0  0  0  0  0  0
   -6.7431    3.7410    0.0000 S   0  0  0  0  0  0  0  0  0  0  0  0
   -2.4509    3.8079    0.0000 C   0  0  0  0  0  0  0  0  0  0  0  0
   -6.8892    2.3882    0.0000 C   0  0  0  0  0  0  0  0  0  0  0  0
   -4.5928    3.4028    0.0000 C   0  0  0  0  0  0  0  0  0  0  0  0
   -0.9728    3.6951    0.0000 C   0  0  0  0  0  0  0  0  0  0  0  0
   -1.6910    2.5761    0.0000 C   0  0  0  0  0  0  0  0  0  0  0  0
   -7.2943    3.1190    0.0000 C   0  0  0  0  0  0  0  0  0  0  0  0
   -3.1648    3.4028    0.0000 C   0  0  0  0  0  0  0  0  0  0  0  0
   -3.8788    3.8079    0.0000 C   0  0  0  0  0  0  0  0  0  0  0  0
   -4.5928    2.5929    0.0000 O   0  0  0  0  0  0  0  0  0  0  0  0
   -0.4384    3.0646    0.0000 C   0  0  0  0  0  0  0  0  0  0  0  0
   -0.8726    2.3757    0.0000 C   0  0  0  0  0  0  0  0  0  0  0  0
   -0.7599    4.4760    0.0000 O   0  0  0  0  0  0  0  0  0  0  0  0
   -2.3256    2.0500    0.0000 O   0  0  0  0  0  0  0  0  0  0  0  0
   -7.2943    1.6659    0.0000 C   0  0  0  0  0  0  0  0  0  0  0  0
   -2.4426    4.6263    0.0000 C   0  0  0  0  0  0  0  0  0  0  0  0
   -8.1418    3.1273    0.0000 C   0  0  0  0  0  0  0  0  0  0  0  0
   -3.8788    4.6263    0.0000 C   0  0  0  0  0  0  0  0  0  0  0  0
   -3.1648    5.0396    0.0000 C   0  0  0  0  0  0  0  0  0  0  0  0
   -8.5594    2.4008    0.0000 C   0  0  0  0  0  0  0  0  0  0  0  0
   -8.1335    1.6617    0.0000 C   0  0  0  0  0  0  0  0  0  0  0  0
   -6.8935    0.9770    0.0000 C   0  0  0  0  0  0  0  0  0  0  0  0
   -7.2943    0.2839    0.0000 C   0  0  0  0  0  0  0  0  0  0  0  0
  2  6  1  0  0  0  0
  3  1  2  0  0  0  0
  4  1  1  0  0  0  0
  5  1  1  0  0  0  0
  6 12  1  0  0  0  0
  7  3  1  0  0  0  0
  8  4  1  0  0  0  0
  9  2  1  0  0  0  0
 10  2  1  0  0  0  0
 11  5  1  0  0  0  0
 12 13  2  0  0  0  0
 13  8  1  0  0  0  0
 14  8  2  0  0  0  0
 15  9  1  0  0  0  0
 16 10  1  0  0  0  0
 17  9  2  0  0  0  0
 18 10  2  0  0  0  0
 19  7  1  0  0  0  0
 20 23  1  0  0  0  0
 21 11  1  0  0  0  0
 22 13  1  0  0  0  0
 23 22  2  0  0  0  0
 24 21  2  0  0  0  0
 25 19  2  0  0  0  0
 26 19  1  0  0  0  0
 27 26  1  0  0  0  0
 11  7  2  0  0  0  0
 25 24  1  0  0  0  0
 20  6  2  0  0  0  0
 16 15  1  0  0  0  0
M  END
>  <IDNUMBER>
F1822-0391

>  <Chemical_Name>
3-(2,5-dioxopyrrolidin-1-yl)-N-(4-ethyl-1,3-benzothiazol-2-yl)benzamide

>  <PriceCoeff>
1.00

>  <CAS>
892842-90-9

>  <MW>
379.43

>  <Description>
solid

>  <FSP3>
0.20

>  <clogP>
2.65

>  <TPSA>
107.61

>  <Acceptor>
4

>  <Donor>
1

>  <RotBonds>
4

>  <HAC>
27

>  <Collection>
General

>  <PPDS>
+

$$$$
F1822-0392
  Mrv2219 10102508112D          

 28 32  0  0  0  0            999 V2000
   -5.9590    3.3962    0.0000 C   0  0  0  0  0  0  0  0  0  0  0  0
   -1.7335    3.3962    0.0000 N   0  0  0  0  0  0  0  0  0  0  0  0
   -6.0299    2.5628    0.0000 N   0  0  0  0  0  0  0  0  0  0  0  0
   -5.2714    3.7837    0.0000 N   0  0  0  0  0  0  0  0  0  0  0  0
   -6.7050    3.7212    0.0000 S   0  0  0  0  0  0  0  0  0  0  0  0
   -6.8425    2.3961    0.0000 C   0  0  0  0  0  0  0  0  0  0  0  0
   -2.4461    3.8005    0.0000 C   0  0  0  0  0  0  0  0  0  0  0  0
   -4.5838    3.3962    0.0000 C   0  0  0  0  0  0  0  0  0  0  0  0
   -7.2676    3.1087    0.0000 C   0  0  0  0  0  0  0  0  0  0  0  0
   -1.6877    2.5711    0.0000 C   0  0  0  0  0  0  0  0  0  0  0  0
   -0.9709    3.6879    0.0000 C   0  0  0  0  0  0  0  0  0  0  0  0
   -7.2551    1.6710    0.0000 C   0  0  0  0  0  0  0  0  0  0  0  0
   -8.0927    3.1087    0.0000 C   0  0  0  0  0  0  0  0  0  0  0  0
   -8.0802    1.6627    0.0000 C   0  0  0  0  0  0  0  0  0  0  0  0
   -8.5052    2.3836    0.0000 C   0  0  0  0  0  0  0  0  0  0  0  0
   -3.1587    3.3962    0.0000 C   0  0  0  0  0  0  0  0  0  0  0  0
   -3.8713    3.8005    0.0000 C   0  0  0  0  0  0  0  0  0  0  0  0
   -9.3178    2.2086    0.0000 O   0  0  0  0  0  0  0  0  0  0  0  0
   -8.6427    1.0459    0.0000 O   0  0  0  0  0  0  0  0  0  0  0  0
   -9.4053    1.3835    0.0000 C   0  0  0  0  0  0  0  0  0  0  0  0
   -4.5963    2.5961    0.0000 O   0  0  0  0  0  0  0  0  0  0  0  0
   -0.8709    2.3711    0.0000 C   0  0  0  0  0  0  0  0  0  0  0  0
   -0.4376    3.0587    0.0000 C   0  0  0  0  0  0  0  0  0  0  0  0
   -2.3211    2.0460    0.0000 O   0  0  0  0  0  0  0  0  0  0  0  0
   -0.7584    4.4672    0.0000 O   0  0  0  0  0  0  0  0  0  0  0  0
   -2.4378    4.6172    0.0000 C   0  0  0  0  0  0  0  0  0  0  0  0
   -3.8713    4.6172    0.0000 C   0  0  0  0  0  0  0  0  0  0  0  0
   -3.1587    5.0298    0.0000 C   0  0  0  0  0  0  0  0  0  0  0  0
  2  7  1  0  0  0  0
  3  1  2  0  0  0  0
  4  1  1  0  0  0  0
  5  1  1  0  0  0  0
  6  3  1  0  0  0  0
  7 16  1  0  0  0  0
  8  4  1  0  0  0  0
  9  5  1  0  0  0  0
 10  2  1  0  0  0  0
 11  2  1  0  0  0  0
 12  6  1  0  0  0  0
 13  9  1  0  0  0  0
 14 12  2  0  0  0  0
 15 13  2  0  0  0  0
 16 17  2  0  0  0  0
 17  8  1  0  0  0  0
 18 15  1  0  0  0  0
 19 14  1  0  0  0  0
 20 18  1  0  0  0  0
 21  8  2  0  0  0  0
 22 10  1  0  0  0  0
 23 11  1  0  0  0  0
 24 10  2  0  0  0  0
 25 11  2  0  0  0  0
 26 28  1  0  0  0  0
 27 17  1  0  0  0  0
 28 27  2  0  0  0  0
  9  6  2  0  0  0  0
 15 14  1  0  0  0  0
 19 20  1  0  0  0  0
  7 26  2  0  0  0  0
 22 23  1  0  0  0  0
M  END
>  <IDNUMBER>
F1822-0392

>  <Chemical_Name>
N-{4,6-dioxa-10-thia-12-azatricyclo[7.3.0.0?,?]dodeca-1,3(7),8,11-tetraen-11-yl}-3-(2,5-dioxopyrrolidin-1-yl)benzamide

>  <PriceCoeff>
1.00

>  <CAS>
892842-96-5

>  <MW>
395.39

>  <Description>
solid

>  <FSP3>
0.16

>  <clogP>
2.15

>  <TPSA>
126.07

>  <Acceptor>
6

>  <Donor>
1

>  <RotBonds>
3

>  <HAC>
28

>  <Collection>
General

>  <PPDS>
+

$$$$
F1822-0393
  Mrv2219 10102508112D          

 26 29  0  0  0  0            999 V2000
   -5.9722    3.3841    0.0000 C   0  0  0  0  0  0  0  0  0  0  0  0
   -1.7337    3.3966    0.0000 N   0  0  0  0  0  0  0  0  0  0  0  0
   -6.0431    2.5589    0.0000 N   0  0  0  0  0  0  0  0  0  0  0  0
   -5.2721    3.7967    0.0000 N   0  0  0  0  0  0  0  0  0  0  0  0
   -6.8558    2.3839    0.0000 C   0  0  0  0  0  0  0  0  0  0  0  0
   -6.7183    3.7217    0.0000 S   0  0  0  0  0  0  0  0  0  0  0  0
   -2.4464    3.8009    0.0000 C   0  0  0  0  0  0  0  0  0  0  0  0
   -4.5844    3.3966    0.0000 C   0  0  0  0  0  0  0  0  0  0  0  0
   -0.9710    3.6884    0.0000 C   0  0  0  0  0  0  0  0  0  0  0  0
   -1.6879    2.5714    0.0000 C   0  0  0  0  0  0  0  0  0  0  0  0
   -7.2767    3.1090    0.0000 C   0  0  0  0  0  0  0  0  0  0  0  0
   -3.1591    3.3966    0.0000 C   0  0  0  0  0  0  0  0  0  0  0  0
   -3.8717    3.8009    0.0000 C   0  0  0  0  0  0  0  0  0  0  0  0
   -7.2684    1.6587    0.0000 C   0  0  0  0  0  0  0  0  0  0  0  0
   -4.5844    2.5964    0.0000 O   0  0  0  0  0  0  0  0  0  0  0  0
   -0.8710    2.3714    0.0000 C   0  0  0  0  0  0  0  0  0  0  0  0
   -0.4376    3.0590    0.0000 C   0  0  0  0  0  0  0  0  0  0  0  0
   -2.3214    2.0463    0.0000 O   0  0  0  0  0  0  0  0  0  0  0  0
   -0.7585    4.4678    0.0000 O   0  0  0  0  0  0  0  0  0  0  0  0
   -6.8558    0.9710    0.0000 Br  0  0  0  0  0  0  0  0  0  0  0  0
   -2.4381    4.6178    0.0000 C   0  0  0  0  0  0  0  0  0  0  0  0
   -8.1186    3.0965    0.0000 C   0  0  0  0  0  0  0  0  0  0  0  0
   -3.8717    4.6178    0.0000 C   0  0  0  0  0  0  0  0  0  0  0  0
   -3.1591    5.0304    0.0000 C   0  0  0  0  0  0  0  0  0  0  0  0
   -8.5187    2.3714    0.0000 C   0  0  0  0  0  0  0  0  0  0  0  0
   -8.0936    1.6462    0.0000 C   0  0  0  0  0  0  0  0  0  0  0  0
  2  7  1  0  0  0  0
  3  1  2  0  0  0  0
  4  1  1  0  0  0  0
  5  3  1  0  0  0  0
  6  1  1  0  0  0  0
  7 12  1  0  0  0  0
  8  4  1  0  0  0  0
  9  2  1  0  0  0  0
 10  2  1  0  0  0  0
 11  6  1  0  0  0  0
 12 13  2  0  0  0  0
 13  8  1  0  0  0  0
 14  5  1  0  0  0  0
 15  8  2  0  0  0  0
 16 10  1  0  0  0  0
 17  9  1  0  0  0  0
 18 10  2  0  0  0  0
 19  9  2  0  0  0  0
 20 14  1  0  0  0  0
 21 24  1  0  0  0  0
 22 11  1  0  0  0  0
 23 13  1  0  0  0  0
 24 23  2  0  0  0  0
 25 22  2  0  0  0  0
 26 14  2  0  0  0  0
 11  5  2  0  0  0  0
 26 25  1  0  0  0  0
 21  7  2  0  0  0  0
 16 17  1  0  0  0  0
M  END
>  <IDNUMBER>
F1822-0393

>  <Chemical_Name>
N-(4-bromo-1,3-benzothiazol-2-yl)-3-(2,5-dioxopyrrolidin-1-yl)benzamide

>  <PriceCoeff>
1.00

>  <CAS>
892843-02-6

>  <MW>
430.28

>  <Description>
solid

>  <FSP3>
0.11

>  <clogP>
2.49

>  <TPSA>
107.61

>  <Acceptor>
4

>  <Donor>
1

>  <RotBonds>
3

>  <HAC>
26

>  <Collection>
General

>  <PPDS>
+

$$$$
F1822-0394
  Mrv2219 10102508112D          

 29 33  0  0  0  0            999 V2000
   -5.9647    3.3869    0.0000 C   0  0  0  0  0  0  0  0  0  0  0  0
   -1.7352    3.3994    0.0000 N   0  0  0  0  0  0  0  0  0  0  0  0
   -6.0231    2.5611    0.0000 N   0  0  0  0  0  0  0  0  0  0  0  0
   -5.2765    3.7874    0.0000 N   0  0  0  0  0  0  0  0  0  0  0  0
   -6.7114    3.7123    0.0000 S   0  0  0  0  0  0  0  0  0  0  0  0
   -6.8366    2.3859    0.0000 C   0  0  0  0  0  0  0  0  0  0  0  0
   -2.4484    3.8041    0.0000 C   0  0  0  0  0  0  0  0  0  0  0  0
   -4.5883    3.3994    0.0000 C   0  0  0  0  0  0  0  0  0  0  0  0
   -7.2620    3.0992    0.0000 C   0  0  0  0  0  0  0  0  0  0  0  0
   -1.6893    2.5736    0.0000 C   0  0  0  0  0  0  0  0  0  0  0  0
   -0.9718    3.6915    0.0000 C   0  0  0  0  0  0  0  0  0  0  0  0
   -7.2495    1.6726    0.0000 C   0  0  0  0  0  0  0  0  0  0  0  0
   -8.0962    3.0992    0.0000 C   0  0  0  0  0  0  0  0  0  0  0  0
   -8.0754    1.6518    0.0000 C   0  0  0  0  0  0  0  0  0  0  0  0
   -8.5009    2.3775    0.0000 C   0  0  0  0  0  0  0  0  0  0  0  0
   -3.1617    3.3994    0.0000 C   0  0  0  0  0  0  0  0  0  0  0  0
   -3.8750    3.8041    0.0000 C   0  0  0  0  0  0  0  0  0  0  0  0
   -9.3268    2.3650    0.0000 O   0  0  0  0  0  0  0  0  0  0  0  0
   -8.4759    0.9343    0.0000 O   0  0  0  0  0  0  0  0  0  0  0  0
   -4.5883    2.6028    0.0000 O   0  0  0  0  0  0  0  0  0  0  0  0
   -0.4380    3.0616    0.0000 C   0  0  0  0  0  0  0  0  0  0  0  0
   -0.8717    2.3733    0.0000 C   0  0  0  0  0  0  0  0  0  0  0  0
   -0.7591    4.4716    0.0000 O   0  0  0  0  0  0  0  0  0  0  0  0
   -2.3233    2.0480    0.0000 O   0  0  0  0  0  0  0  0  0  0  0  0
   -2.4401    4.6216    0.0000 C   0  0  0  0  0  0  0  0  0  0  0  0
   -3.8750    4.6216    0.0000 C   0  0  0  0  0  0  0  0  0  0  0  0
   -3.1617    5.0346    0.0000 C   0  0  0  0  0  0  0  0  0  0  0  0
   -9.3142    0.9218    0.0000 C   0  0  0  0  0  0  0  0  0  0  0  0
   -9.7397    1.6351    0.0000 C   0  0  0  0  0  0  0  0  0  0  0  0
  2  7  1  0  0  0  0
  3  1  2  0  0  0  0
  4  1  1  0  0  0  0
  5  1  1  0  0  0  0
  6  3  1  0  0  0  0
  7 16  1  0  0  0  0
  8  4  1  0  0  0  0
  9  5  1  0  0  0  0
 10  2  1  0  0  0  0
 11  2  1  0  0  0  0
 12  6  1  0  0  0  0
 13  9  1  0  0  0  0
 14 12  2  0  0  0  0
 15 13  2  0  0  0  0
 16 17  2  0  0  0  0
 17  8  1  0  0  0  0
 18 15  1  0  0  0  0
 19 14  1  0  0  0  0
 20  8  2  0  0  0  0
 21 11  1  0  0  0  0
 22 10  1  0  0  0  0
 23 11  2  0  0  0  0
 24 10  2  0  0  0  0
 25 27  1  0  0  0  0
 26 17  1  0  0  0  0
 27 26  2  0  0  0  0
 28 19  1  0  0  0  0
 29 18  1  0  0  0  0
  9  6  2  0  0  0  0
 15 14  1  0  0  0  0
 28 29  1  0  0  0  0
  7 25  2  0  0  0  0
 22 21  1  0  0  0  0
M  END
>  <IDNUMBER>
F1822-0394

>  <Chemical_Name>
N-{10,13-dioxa-4-thia-6-azatricyclo[7.4.0.0?,?]trideca-1(9),2,5,7-tetraen-5-yl}-3-(2,5-dioxopyrrolidin-1-yl)benzamide

>  <PriceCoeff>
1.00

>  <CAS>
892843-07-1

>  <MW>
409.42

>  <Description>
solid

>  <FSP3>
0.20

>  <clogP>
2.11

>  <TPSA>
126.07

>  <Acceptor>
6

>  <Donor>
1

>  <RotBonds>
3

>  <HAC>
29

>  <Collection>
General

>  <PPDS>
+

$$$$
F1822-0396
  Mrv2219 10102508112D          

 28 31  0  0  0  0            999 V2000
   -5.9832    3.3903    0.0000 C   0  0  0  0  0  0  0  0  0  0  0  0
   -1.7369    3.4028    0.0000 N   0  0  0  0  0  0  0  0  0  0  0  0
   -6.0417    2.5636    0.0000 N   0  0  0  0  0  0  0  0  0  0  0  0
   -5.2817    3.8037    0.0000 N   0  0  0  0  0  0  0  0  0  0  0  0
   -6.7306    3.7285    0.0000 S   0  0  0  0  0  0  0  0  0  0  0  0
   -2.4509    3.8079    0.0000 C   0  0  0  0  0  0  0  0  0  0  0  0
   -4.5928    3.4028    0.0000 C   0  0  0  0  0  0  0  0  0  0  0  0
   -1.6910    2.5761    0.0000 C   0  0  0  0  0  0  0  0  0  0  0  0
   -0.9728    3.6951    0.0000 C   0  0  0  0  0  0  0  0  0  0  0  0
   -7.2818    3.1147    0.0000 C   0  0  0  0  0  0  0  0  0  0  0  0
   -6.8559    2.3882    0.0000 C   0  0  0  0  0  0  0  0  0  0  0  0
   -3.1648    3.4028    0.0000 C   0  0  0  0  0  0  0  0  0  0  0  0
   -3.8788    3.8079    0.0000 C   0  0  0  0  0  0  0  0  0  0  0  0
   -8.1293    3.1147    0.0000 C   0  0  0  0  0  0  0  0  0  0  0  0
   -8.5218    2.3757    0.0000 C   0  0  0  0  0  0  0  0  0  0  0  0
   -4.5928    2.6012    0.0000 O   0  0  0  0  0  0  0  0  0  0  0  0
   -0.4384    3.0646    0.0000 C   0  0  0  0  0  0  0  0  0  0  0  0
   -0.8726    2.3757    0.0000 C   0  0  0  0  0  0  0  0  0  0  0  0
   -0.7599    4.4760    0.0000 O   0  0  0  0  0  0  0  0  0  0  0  0
   -2.3256    2.0500    0.0000 O   0  0  0  0  0  0  0  0  0  0  0  0
   -7.2776    1.6659    0.0000 C   0  0  0  0  0  0  0  0  0  0  0  0
   -8.1085    1.6534    0.0000 C   0  0  0  0  0  0  0  0  0  0  0  0
   -9.3569    2.3799    0.0000 C   0  0  0  0  0  0  0  0  0  0  0  0
   -2.4426    4.6263    0.0000 C   0  0  0  0  0  0  0  0  0  0  0  0
   -3.8788    4.6263    0.0000 C   0  0  0  0  0  0  0  0  0  0  0  0
   -3.1648    5.0396    0.0000 C   0  0  0  0  0  0  0  0  0  0  0  0
   -9.7702    3.0772    0.0000 C   0  0  0  0  0  0  0  0  0  0  0  0
   -9.7619    1.6617    0.0000 C   0  0  0  0  0  0  0  0  0  0  0  0
  2  6  1  0  0  0  0
  3  1  2  0  0  0  0
  4  1  1  0  0  0  0
  5  1  1  0  0  0  0
  6 12  1  0  0  0  0
  7  4  1  0  0  0  0
  8  2  1  0  0  0  0
  9  2  1  0  0  0  0
 10  5  1  0  0  0  0
 11  3  1  0  0  0  0
 12 13  2  0  0  0  0
 13  7  1  0  0  0  0
 14 10  1  0  0  0  0
 15 14  2  0  0  0  0
 16  7  2  0  0  0  0
 17  9  1  0  0  0  0
 18  8  1  0  0  0  0
 19  9  2  0  0  0  0
 20  8  2  0  0  0  0
 21 11  1  0  0  0  0
 22 21  2  0  0  0  0
 23 15  1  0  0  0  0
 24 26  1  0  0  0  0
 25 13  1  0  0  0  0
 26 25  2  0  0  0  0
 27 23  1  0  0  0  0
 28 23  1  0  0  0  0
 10 11  2  0  0  0  0
 22 15  1  0  0  0  0
  6 24  2  0  0  0  0
 18 17  1  0  0  0  0
M  END
>  <IDNUMBER>
F1822-0396

>  <Chemical_Name>
3-(2,5-dioxopyrrolidin-1-yl)-N-[6-(propan-2-yl)-1,3-benzothiazol-2-yl]benzamide

>  <PriceCoeff>
1.00

>  <CAS>
892843-13-9

>  <MW>
393.46

>  <Description>
solid

>  <FSP3>
0.24

>  <clogP>
3.05

>  <TPSA>
107.61

>  <Acceptor>
4

>  <Donor>
1

>  <RotBonds>
4

>  <HAC>
28

>  <Collection>
General

>  <PPDS>
+

$$$$
F1822-0643
  Mrv2219 10102508112D          

 22 24  0  0  0  0            999 V2000
   -2.4462    2.1657    0.0000 C   0  0  0  0  0  0  0  0  0  0  0  0
   -3.8322    4.5789    0.0000 N   0  0  0  0  0  0  0  0  0  0  0  0
   -1.6831    2.4998    0.0000 N   0  0  0  0  0  0  0  0  0  0  0  0
   -2.3596    1.3448    0.0000 S   0  0  0  0  0  0  0  0  0  0  0  0
   -3.1268    2.5699    0.0000 N   0  0  0  0  0  0  0  0  0  0  0  0
   -1.1344    1.8893    0.0000 C   0  0  0  0  0  0  0  0  0  0  0  0
   -4.4881    5.0410    0.0000 C   0  0  0  0  0  0  0  0  0  0  0  0
   -3.1681    5.0410    0.0000 C   0  0  0  0  0  0  0  0  0  0  0  0
   -1.5469    1.1715    0.0000 C   0  0  0  0  0  0  0  0  0  0  0  0
   -3.1268    3.3620    0.0000 C   0  0  0  0  0  0  0  0  0  0  0  0
   -3.8322    3.7622    0.0000 C   0  0  0  0  0  0  0  0  0  0  0  0
   -3.4239    5.8289    0.0000 C   0  0  0  0  0  0  0  0  0  0  0  0
   -4.2406    5.8206    0.0000 C   0  0  0  0  0  0  0  0  0  0  0  0
   -2.3967    4.7893    0.0000 O   0  0  0  0  0  0  0  0  0  0  0  0
   -5.2678    4.8059    0.0000 O   0  0  0  0  0  0  0  0  0  0  0  0
   -0.3094    1.8893    0.0000 C   0  0  0  0  0  0  0  0  0  0  0  0
   -2.4462    3.7580    0.0000 O   0  0  0  0  0  0  0  0  0  0  0  0
   -1.1385    0.4455    0.0000 C   0  0  0  0  0  0  0  0  0  0  0  0
   -0.3052    0.4537    0.0000 C   0  0  0  0  0  0  0  0  0  0  0  0
    0.1114    1.1757    0.0000 C   0  0  0  0  0  0  0  0  0  0  0  0
    0.0784    2.5741    0.0000 C   0  0  0  0  0  0  0  0  0  0  0  0
    0.8704    2.5823    0.0000 C   0  0  0  0  0  0  0  0  0  0  0  0
  2 11  1  0  0  0  0
  3  1  2  0  0  0  0
  4  1  1  0  0  0  0
  5  1  1  0  0  0  0
  6  3  1  0  0  0  0
  7  2  1  0  0  0  0
  8  2  1  0  0  0  0
  9  4  1  0  0  0  0
 10  5  1  0  0  0  0
 11 10  1  0  0  0  0
 12  8  1  0  0  0  0
 13  7  1  0  0  0  0
 14  8  2  0  0  0  0
 15  7  2  0  0  0  0
 16  6  1  0  0  0  0
 17 10  2  0  0  0  0
 18  9  1  0  0  0  0
 19 18  2  0  0  0  0
 20 16  2  0  0  0  0
 21 16  1  0  0  0  0
 22 21  1  0  0  0  0
  9  6  2  0  0  0  0
 20 19  1  0  0  0  0
 13 12  1  0  0  0  0
M  END
>  <IDNUMBER>
F1822-0643

>  <Chemical_Name>
2-(2,5-dioxopyrrolidin-1-yl)-N-(4-ethyl-1,3-benzothiazol-2-yl)acetamide

>  <PriceCoeff>
1.00

>  <CAS>
892851-36-4

>  <MW>
317.36

>  <Description>
solid

>  <FSP3>
0.33

>  <clogP>
2.47

>  <TPSA>
107.61

>  <Acceptor>
4

>  <Donor>
1

>  <RotBonds>
4

>  <HAC>
22

>  <Collection>
General

>  <PPDS>
+

$$$$
F1822-0644
  Mrv2219 10102508112D          

 23 26  0  0  0  0            999 V2000
   -5.9494    3.3907    0.0000 C   0  0  0  0  0  0  0  0  0  0  0  0
   -3.8650    4.6181    0.0000 N   0  0  0  0  0  0  0  0  0  0  0  0
   -6.0202    2.5587    0.0000 N   0  0  0  0  0  0  0  0  0  0  0  0
   -6.6942    3.7153    0.0000 S   0  0  0  0  0  0  0  0  0  0  0  0
   -5.2630    3.7777    0.0000 N   0  0  0  0  0  0  0  0  0  0  0  0
   -6.8315    2.3922    0.0000 C   0  0  0  0  0  0  0  0  0  0  0  0
   -7.2559    3.1037    0.0000 C   0  0  0  0  0  0  0  0  0  0  0  0
   -3.1952    5.0841    0.0000 C   0  0  0  0  0  0  0  0  0  0  0  0
   -4.5266    5.0841    0.0000 C   0  0  0  0  0  0  0  0  0  0  0  0
   -4.5765    3.3907    0.0000 C   0  0  0  0  0  0  0  0  0  0  0  0
   -7.2434    1.6683    0.0000 C   0  0  0  0  0  0  0  0  0  0  0  0
   -8.0797    3.1037    0.0000 C   0  0  0  0  0  0  0  0  0  0  0  0
   -8.0672    1.6600    0.0000 C   0  0  0  0  0  0  0  0  0  0  0  0
   -8.4915    2.3798    0.0000 C   0  0  0  0  0  0  0  0  0  0  0  0
   -3.8650    3.7943    0.0000 C   0  0  0  0  0  0  0  0  0  0  0  0
   -9.3028    2.2050    0.0000 O   0  0  0  0  0  0  0  0  0  0  0  0
   -8.6288    1.0442    0.0000 O   0  0  0  0  0  0  0  0  0  0  0  0
   -9.3902    1.3812    0.0000 C   0  0  0  0  0  0  0  0  0  0  0  0
   -4.2769    5.8704    0.0000 C   0  0  0  0  0  0  0  0  0  0  0  0
   -3.4532    5.8787    0.0000 C   0  0  0  0  0  0  0  0  0  0  0  0
   -5.3129    4.8470    0.0000 O   0  0  0  0  0  0  0  0  0  0  0  0
   -2.4172    4.8303    0.0000 O   0  0  0  0  0  0  0  0  0  0  0  0
   -4.5890    2.5919    0.0000 O   0  0  0  0  0  0  0  0  0  0  0  0
  2 15  1  0  0  0  0
  3  1  2  0  0  0  0
  4  1  1  0  0  0  0
  5  1  1  0  0  0  0
  6  3  1  0  0  0  0
  7  4  1  0  0  0  0
  8  2  1  0  0  0  0
  9  2  1  0  0  0  0
 10  5  1  0  0  0  0
 11  6  1  0  0  0  0
 12  7  1  0  0  0  0
 13 11  2  0  0  0  0
 14 12  2  0  0  0  0
 15 10  1  0  0  0  0
 16 14  1  0  0  0  0
 17 13  1  0  0  0  0
 18 16  1  0  0  0  0
 19  9  1  0  0  0  0
 20  8  1  0  0  0  0
 21  9  2  0  0  0  0
 22  8  2  0  0  0  0
 23 10  2  0  0  0  0
  7  6  2  0  0  0  0
 14 13  1  0  0  0  0
 19 20  1  0  0  0  0
 17 18  1  0  0  0  0
M  END
>  <IDNUMBER>
F1822-0644

>  <Chemical_Name>
N-{4,6-dioxa-10-thia-12-azatricyclo[7.3.0.0?,?]dodeca-1,3(7),8,11-tetraen-11-yl}-2-(2,5-dioxopyrrolidin-1-yl)acetamide

>  <PriceCoeff>
1.00

>  <CAS>
892851-42-2

>  <MW>
333.32

>  <Description>
solid

>  <FSP3>
0.29

>  <clogP>
1.97

>  <TPSA>
126.07

>  <Acceptor>
6

>  <Donor>
1

>  <RotBonds>
3

>  <HAC>
23

>  <Collection>
General

>  <PPDS>
+

$$$$
F1823-0787
  Mrv2219 10102508112D          

 30 34  0  0  0  0            999 V2000
   -5.9597    3.3966    0.0000 C   0  0  0  0  0  0  0  0  0  0  0  0
   -5.2721    3.7842    0.0000 N   0  0  0  0  0  0  0  0  0  0  0  0
   -6.0306    2.5631    0.0000 N   0  0  0  0  0  0  0  0  0  0  0  0
   -1.7337    3.3966    0.0000 N   0  0  0  0  0  0  0  0  0  0  0  0
   -6.7016    3.7217    0.0000 S   0  0  0  0  0  0  0  0  0  0  0  0
   -6.8308    2.3964    0.0000 C   0  0  0  0  0  0  0  0  0  0  0  0
   -7.2559    3.1090    0.0000 C   0  0  0  0  0  0  0  0  0  0  0  0
   -4.5844    3.3966    0.0000 C   0  0  0  0  0  0  0  0  0  0  0  0
   -2.4464    3.8009    0.0000 C   0  0  0  0  0  0  0  0  0  0  0  0
   -7.2517    1.6754    0.0000 C   0  0  0  0  0  0  0  0  0  0  0  0
   -0.9710    3.6884    0.0000 C   0  0  0  0  0  0  0  0  0  0  0  0
   -1.6879    2.5714    0.0000 C   0  0  0  0  0  0  0  0  0  0  0  0
   -8.0894    3.1090    0.0000 C   0  0  0  0  0  0  0  0  0  0  0  0
   -8.0811    1.6712    0.0000 C   0  0  0  0  0  0  0  0  0  0  0  0
   -8.4937    2.3964    0.0000 C   0  0  0  0  0  0  0  0  0  0  0  0
   -3.1591    3.3966    0.0000 C   0  0  0  0  0  0  0  0  0  0  0  0
   -3.8717    3.8009    0.0000 C   0  0  0  0  0  0  0  0  0  0  0  0
   -8.4937    0.9460    0.0000 O   0  0  0  0  0  0  0  0  0  0  0  0
   -4.5844    2.5964    0.0000 O   0  0  0  0  0  0  0  0  0  0  0  0
   -9.3314    2.3964    0.0000 O   0  0  0  0  0  0  0  0  0  0  0  0
   -0.4376    3.0590    0.0000 C   0  0  0  0  0  0  0  0  0  0  0  0
   -0.8710    2.3714    0.0000 C   0  0  0  0  0  0  0  0  0  0  0  0
   -0.7585    4.4678    0.0000 O   0  0  0  0  0  0  0  0  0  0  0  0
   -2.3214    2.0463    0.0000 O   0  0  0  0  0  0  0  0  0  0  0  0
   -5.4263    2.0213    0.0000 C   0  0  0  0  0  0  0  0  0  0  0  0
   -2.4381    4.6178    0.0000 C   0  0  0  0  0  0  0  0  0  0  0  0
   -3.8717    4.6178    0.0000 C   0  0  0  0  0  0  0  0  0  0  0  0
   -3.1591    5.0304    0.0000 C   0  0  0  0  0  0  0  0  0  0  0  0
   -9.3314    0.9460    0.0000 C   0  0  0  0  0  0  0  0  0  0  0  0
   -9.7440    1.6712    0.0000 C   0  0  0  0  0  0  0  0  0  0  0  0
  2  1  2  0  0  0  0
  3  1  1  0  0  0  0
  4  9  1  0  0  0  0
  5  1  1  0  0  0  0
  6  3  1  0  0  0  0
  7  5  1  0  0  0  0
  8  2  1  0  0  0  0
  9 16  1  0  0  0  0
 10  6  1  0  0  0  0
 11  4  1  0  0  0  0
 12  4  1  0  0  0  0
 13  7  1  0  0  0  0
 14 10  2  0  0  0  0
 15 13  2  0  0  0  0
 16 17  2  0  0  0  0
 17  8  1  0  0  0  0
 18 14  1  0  0  0  0
 19  8  2  0  0  0  0
 20 15  1  0  0  0  0
 21 11  1  0  0  0  0
 22 12  1  0  0  0  0
 23 11  2  0  0  0  0
 24 12  2  0  0  0  0
 25  3  1  0  0  0  0
 26 28  1  0  0  0  0
 27 17  1  0  0  0  0
 28 27  2  0  0  0  0
 29 18  1  0  0  0  0
 30 20  1  0  0  0  0
  7  6  2  0  0  0  0
 15 14  1  0  0  0  0
 29 30  1  0  0  0  0
  9 26  2  0  0  0  0
 22 21  1  0  0  0  0
M  END
>  <IDNUMBER>
F1823-0787

>  <Chemical_Name>
3-(2,5-dioxopyrrolidin-1-yl)-N-[(5E)-6-methyl-10,13-dioxa-4-thia-6-azatricyclo[7.4.0.0?,?]trideca-1(9),2,7-trien-5-ylidene]benzamide

>  <PriceCoeff>
1.00

>  <CAS>
1321710-28-4

>  <MW>
423.44

>  <Description>
solid

>  <FSP3>
0.24

>  <clogP>
2.87

>  <TPSA>
113.81

>  <Acceptor>
5

>  <Donor>
0

>  <RotBonds>
3

>  <HAC>
30

>  <Collection>
General

>  <PPDS>
+

$$$$
F1825-0063
  Mrv2219 10102508112D          

 29 31  0  0  0  0            999 V2000
   -2.4333    2.5625    0.0000 C   0  0  0  0  0  0  0  0  0  0  0  0
   -2.4333    1.7375    0.0000 C   0  0  0  0  0  0  0  0  0  0  0  0
   -3.1500    2.9833    0.0000 C   0  0  0  0  0  0  0  0  0  0  0  0
   -6.7167    4.1542    0.0000 N   0  3  0  0  0  0  0  0  0  0  0  0
   -1.7250    1.3333    0.0000 N   0  0  0  0  0  0  0  0  0  0  0  0
   -3.8625    2.5583    0.0000 N   0  0  0  0  0  0  0  0  0  0  0  0
   -5.9958    3.7958    0.0000 C   0  0  0  0  0  0  0  0  0  0  0  0
   -5.2833    4.1917    0.0000 C   0  0  0  0  0  0  0  0  0  0  0  0
   -4.5833    2.9708    0.0000 C   0  0  0  0  0  0  0  0  0  0  0  0
   -4.5708    3.7958    0.0000 C   0  0  0  0  0  0  0  0  0  0  0  0
   -1.7250    2.9833    0.0000 C   0  0  0  0  0  0  0  0  0  0  0  0
   -6.8250    4.9917    0.0000 O   0  5  0  0  0  0  0  0  0  0  0  0
   -1.7333    0.5083    0.0000 O   0  0  0  0  0  0  0  0  0  0  0  0
   -1.0125    1.7375    0.0000 C   0  0  0  0  0  0  0  0  0  0  0  0
   -7.4375    3.7833    0.0000 O   0  0  0  0  0  0  0  0  0  0  0  0
   -3.1500    1.3250    0.0000 O   0  0  0  0  0  0  0  0  0  0  0  0
   -1.0125    2.5625    0.0000 C   0  0  0  0  0  0  0  0  0  0  0  0
   -3.1583    3.8000    0.0000 O   0  0  0  0  0  0  0  0  0  0  0  0
   -5.9833    2.9708    0.0000 C   0  0  0  0  0  0  0  0  0  0  0  0
   -5.2833    2.5583    0.0000 C   0  0  0  0  0  0  0  0  0  0  0  0
   -3.8750    4.1792    0.0000 Cl  0  0  0  0  0  0  0  0  0  0  0  0
   -1.0208    0.0875    0.0000 C   0  0  0  0  0  0  0  0  0  0  0  0
   -1.0458   -2.3792    0.0000 C   0  0  0  0  0  0  0  0  0  0  0  0
   -1.0333   -0.7375    0.0000 C   0  0  0  0  0  0  0  0  0  0  0  0
   -1.0583   -3.2042    0.0000 F   0  0  0  0  0  0  0  0  0  0  0  0
   -0.3250   -1.9667    0.0000 C   0  0  0  0  0  0  0  0  0  0  0  0
   -1.7583   -1.9625    0.0000 C   0  0  0  0  0  0  0  0  0  0  0  0
   -0.3208   -1.1500    0.0000 C   0  0  0  0  0  0  0  0  0  0  0  0
   -1.7500   -1.1375    0.0000 C   0  0  0  0  0  0  0  0  0  0  0  0
  2  1  1  0  0  0  0
  3  1  1  0  0  0  0
  4  7  1  0  0  0  0
  5  2  1  0  0  0  0
  6  3  1  0  0  0  0
  7 19  2  0  0  0  0
  8 10  2  0  0  0  0
  9  6  1  0  0  0  0
 10  9  1  0  0  0  0
 11  1  2  0  0  0  0
 12  4  1  0  0  0  0
 13  5  1  0  0  0  0
 14 17  2  0  0  0  0
 15  4  2  0  0  0  0
 16  2  2  0  0  0  0
 17 11  1  0  0  0  0
 18  3  2  0  0  0  0
 19 20  1  0  0  0  0
 20  9  2  0  0  0  0
 21 10  1  0  0  0  0
 22 13  1  0  0  0  0
 23 27  2  0  0  0  0
 24 22  1  0  0  0  0
 25 23  1  0  0  0  0
 26 28  2  0  0  0  0
 27 29  1  0  0  0  0
 28 24  1  0  0  0  0
 29 24  2  0  0  0  0
  5 14  1  0  0  0  0
  7  8  1  0  0  0  0
 23 26  1  0  0  0  0
M  CHG  2   4   1  12  -1
M  END
>  <IDNUMBER>
F1825-0063

>  <Chemical_Name>
N-(2-chloro-4-nitrophenyl)-1-[(4-fluorophenyl)methoxy]-2-oxo-1,2-dihydropyridine-3-carboxamide

>  <PriceCoeff>
1.00

>  <CAS>
868678-45-9

>  <MW>
417.78

>  <Description>
solid

>  <FSP3>
0.05

>  <clogP>
1.94

>  <TPSA>
101.78

>  <Acceptor>
5

>  <Donor>
1

>  <RotBonds>
6

>  <HAC>
29

>  <Collection>
General

>  <PPDS>
+

$$$$
F1825-0064
  Mrv2219 10102508112D          

 29 31  0  0  0  0            999 V2000
    4.0498    0.6407    0.0000 C   0  0  0  0  0  0  0  0  0  0  0  0
    4.0498   -0.1770    0.0000 C   0  0  0  0  0  0  0  0  0  0  0  0
    1.8983    1.8743    0.0000 C   0  0  0  0  0  0  0  0  0  0  0  0
    2.6154    2.2616    0.0000 N   0  3  0  0  0  0  0  0  0  0  0  0
    3.3327    1.0566    0.0000 C   0  0  0  0  0  0  0  0  0  0  0  0
    4.7623   -0.5930    0.0000 N   0  0  0  0  0  0  0  0  0  0  0  0
    1.9078    1.0423    0.0000 C   0  0  0  0  0  0  0  0  0  0  0  0
    2.6154    0.6407    0.0000 N   0  0  0  0  0  0  0  0  0  0  0  0
    1.2097    2.2759    0.0000 C   0  0  0  0  0  0  0  0  0  0  0  0
    4.7623    1.0614    0.0000 C   0  0  0  0  0  0  0  0  0  0  0  0
    3.4713    2.2951    0.0000 O   0  5  0  0  0  0  0  0  0  0  0  0
    4.7527   -1.4201    0.0000 O   0  0  0  0  0  0  0  0  0  0  0  0
    2.6728    3.0792    0.0000 O   0  0  0  0  0  0  0  0  0  0  0  0
    5.4794   -0.1770    0.0000 C   0  0  0  0  0  0  0  0  0  0  0  0
    3.3327   -0.6025    0.0000 O   0  0  0  0  0  0  0  0  0  0  0  0
    5.4794    0.6407    0.0000 C   0  0  0  0  0  0  0  0  0  0  0  0
    3.3327    1.8791    0.0000 O   0  0  0  0  0  0  0  0  0  0  0  0
    1.1954    0.6312    0.0000 C   0  0  0  0  0  0  0  0  0  0  0  0
    0.4782    1.8743    0.0000 C   0  0  0  0  0  0  0  0  0  0  0  0
    5.4699   -1.8409    0.0000 C   0  0  0  0  0  0  0  0  0  0  0  0
    5.4413   -4.3176    0.0000 C   0  0  0  0  0  0  0  0  0  0  0  0
    5.4557   -2.6680    0.0000 C   0  0  0  0  0  0  0  0  0  0  0  0
    0.4926    1.0566    0.0000 C   0  0  0  0  0  0  0  0  0  0  0  0
   -0.2439    2.2521    0.0000 Cl  0  0  0  0  0  0  0  0  0  0  0  0
    5.4365   -5.1401    0.0000 F   0  0  0  0  0  0  0  0  0  0  0  0
    6.1680   -3.9016    0.0000 C   0  0  0  0  0  0  0  0  0  0  0  0
    4.7241   -3.8921    0.0000 C   0  0  0  0  0  0  0  0  0  0  0  0
    6.1728   -3.0745    0.0000 C   0  0  0  0  0  0  0  0  0  0  0  0
    4.7384   -3.0696    0.0000 C   0  0  0  0  0  0  0  0  0  0  0  0
  2  1  1  0  0  0  0
  3  7  1  0  0  0  0
  4  3  1  0  0  0  0
  5  1  1  0  0  0  0
  6  2  1  0  0  0  0
  7  8  1  0  0  0  0
  8  5  1  0  0  0  0
  9  3  2  0  0  0  0
 10  1  2  0  0  0  0
 11  4  1  0  0  0  0
 12  6  1  0  0  0  0
 13  4  2  0  0  0  0
 14 16  2  0  0  0  0
 15  2  2  0  0  0  0
 16 10  1  0  0  0  0
 17  5  2  0  0  0  0
 18  7  2  0  0  0  0
 19 23  2  0  0  0  0
 20 12  1  0  0  0  0
 21 27  2  0  0  0  0
 22 20  1  0  0  0  0
 23 18  1  0  0  0  0
 24 19  1  0  0  0  0
 25 21  1  0  0  0  0
 26 28  2  0  0  0  0
 27 29  1  0  0  0  0
 28 22  1  0  0  0  0
 29 22  2  0  0  0  0
  6 14  1  0  0  0  0
 19  9  1  0  0  0  0
 21 26  1  0  0  0  0
M  CHG  2   4   1  11  -1
M  END
>  <IDNUMBER>
F1825-0064

>  <Chemical_Name>
N-(4-chloro-2-nitrophenyl)-1-[(4-fluorophenyl)methoxy]-2-oxo-1,2-dihydropyridine-3-carboxamide

>  <PriceCoeff>
1.00

>  <CAS>
868678-46-0

>  <MW>
417.78

>  <Description>
solid

>  <FSP3>
0.05

>  <clogP>
2.33

>  <TPSA>
101.78

>  <Acceptor>
5

>  <Donor>
1

>  <RotBonds>
6

>  <HAC>
29

>  <Collection>
General

>  <PPDS>
+

$$$$
F1826-0075
  Mrv2219 10102508112D          

 24 25  0  0  0  0            999 V2000
   -2.4375    1.3208    0.0000 C   0  0  0  0  0  0  0  0  0  0  0  0
   -2.4375    0.4958    0.0000 C   0  0  0  0  0  0  0  0  0  0  0  0
   -3.1500    1.7375    0.0000 C   0  0  0  0  0  0  0  0  0  0  0  0
   -1.7208    1.7375    0.0000 N   0  3  0  0  0  0  0  0  0  0  0  0
   -6.7042    2.9833    0.0000 N   0  3  0  0  0  0  0  0  0  0  0  0
   -6.0042    2.5708    0.0000 C   0  0  0  0  0  0  0  0  0  0  0  0
   -3.1500    0.0875    0.0000 N   0  0  0  0  0  0  0  0  0  0  0  0
   -3.8583    1.3208    0.0000 C   0  0  0  0  0  0  0  0  0  0  0  0
   -3.8625    2.9833    0.0000 C   0  0  0  0  0  0  0  0  0  0  0  0
   -3.1500    2.5625    0.0000 O   0  0  0  0  0  0  0  0  0  0  0  0
   -5.2833    2.9833    0.0000 C   0  0  0  0  0  0  0  0  0  0  0  0
   -3.8583    0.4958    0.0000 C   0  0  0  0  0  0  0  0  0  0  0  0
   -4.5833    2.5708    0.0000 C   0  0  0  0  0  0  0  0  0  0  0  0
   -6.0000    1.7458    0.0000 C   0  0  0  0  0  0  0  0  0  0  0  0
   -1.0083    1.3208    0.0000 O   0  5  0  0  0  0  0  0  0  0  0  0
   -6.7042    3.8000    0.0000 O   0  5  0  0  0  0  0  0  0  0  0  0
   -1.7208    0.0833    0.0000 O   0  0  0  0  0  0  0  0  0  0  0  0
   -1.7208    2.5625    0.0000 O   0  0  0  0  0  0  0  0  0  0  0  0
   -7.4167    2.5833    0.0000 O   0  0  0  0  0  0  0  0  0  0  0  0
   -3.8625    3.8000    0.0000 O   0  0  0  0  0  0  0  0  0  0  0  0
   -4.5833    1.7458    0.0000 C   0  0  0  0  0  0  0  0  0  0  0  0
   -5.2833    1.3333    0.0000 C   0  0  0  0  0  0  0  0  0  0  0  0
   -6.7042    1.3333    0.0000 Cl  0  0  0  0  0  0  0  0  0  0  0  0
   -4.5833    0.0833    0.0000 C   0  0  0  0  0  0  0  0  0  0  0  0
  2  1  1  0  0  0  0
  3  1  2  0  0  0  0
  4  1  1  0  0  0  0
  5  6  1  0  0  0  0
  6 11  2  0  0  0  0
  7  2  1  0  0  0  0
  8  3  1  0  0  0  0
  9 10  1  0  0  0  0
 10  3  1  0  0  0  0
 11 13  1  0  0  0  0
 12  8  2  0  0  0  0
 13  9  1  0  0  0  0
 14 22  2  0  0  0  0
 15  4  1  0  0  0  0
 16  5  1  0  0  0  0
 17  2  2  0  0  0  0
 18  4  2  0  0  0  0
 19  5  2  0  0  0  0
 20  9  2  0  0  0  0
 21 13  2  0  0  0  0
 22 21  1  0  0  0  0
 23 14  1  0  0  0  0
 24 12  1  0  0  0  0
 12  7  1  0  0  0  0
  6 14  1  0  0  0  0
M  CHG  4   4   1   5   1  15  -1  16  -1
M  END
>  <IDNUMBER>
F1826-0075

>  <Chemical_Name>
6-methyl-3-nitro-2-oxo-1,2-dihydropyridin-4-yl 4-chloro-3-nitrobenzoate

>  <PriceCoeff>
1.00

>  <CAS>
868679-96-3

>  <MW>
353.67

>  <Description>
solid

>  <FSP3>
0.08

>  <clogP>
1.81

>  <TPSA>
141.68

>  <Acceptor>
7

>  <Donor>
1

>  <RotBonds>
5

>  <HAC>
24

>  <Collection>
General

>  <PPDS>
+

$$$$
F1828-0066
  Mrv2219 10102508112D          

 29 32  0  0  0  0            999 V2000
   -1.8956    1.2457    0.0000 C   0  0  0  0  0  0  0  0  0  0  0  0
   -2.5497    1.7248    0.0000 C   0  0  0  0  0  0  0  0  0  0  0  0
    1.7415    0.7499    0.0000 N   0  0  0  0  0  0  0  0  0  0  0  0
   -2.1498    0.4582    0.0000 S   0  0  0  0  0  0  0  0  0  0  0  0
   -3.2246    1.2457    0.0000 C   0  0  0  0  0  0  0  0  0  0  0  0
   -1.1249    1.2124    0.0000 N   0  0  0  0  0  0  0  0  0  0  0  0
   -2.9705    0.4582    0.0000 C   0  0  0  0  0  0  0  0  0  0  0  0
    1.3165    1.4706    0.0000 C   0  0  0  0  0  0  0  0  0  0  0  0
   -0.7582    2.1498    0.0000 C   0  0  0  0  0  0  0  0  0  0  0  0
    2.5622    0.6457    0.0000 C   0  0  0  0  0  0  0  0  0  0  0  0
    1.3790    0.0083    0.0000 C   0  0  0  0  0  0  0  0  0  0  0  0
   -2.5455    2.5497    0.0000 C   0  0  0  0  0  0  0  0  0  0  0  0
    0.4916    1.4581    0.0000 C   0  0  0  0  0  0  0  0  0  0  0  0
    0.0667    2.1623    0.0000 C   0  0  0  0  0  0  0  0  0  0  0  0
   -1.0332    2.8080    0.0000 O   0  0  0  0  0  0  0  0  0  0  0  0
    2.7164   -0.1667    0.0000 C   0  0  0  0  0  0  0  0  0  0  0  0
    1.9915   -0.5666    0.0000 C   0  0  0  0  0  0  0  0  0  0  0  0
    3.1371    1.2249    0.0000 O   0  0  0  0  0  0  0  0  0  0  0  0
    0.5666   -0.1375    0.0000 O   0  0  0  0  0  0  0  0  0  0  0  0
   -1.8248    2.9580    0.0000 O   0  0  0  0  0  0  0  0  0  0  0  0
   -3.2579    2.9705    0.0000 N   0  0  0  0  0  0  0  0  0  0  0  0
   -4.0328    1.4206    0.0000 C   0  0  0  0  0  0  0  0  0  0  0  0
    1.7290    2.1830    0.0000 C   0  0  0  0  0  0  0  0  0  0  0  0
   -3.5246   -0.1500    0.0000 C   0  0  0  0  0  0  0  0  0  0  0  0
    0.4791    2.8955    0.0000 C   0  0  0  0  0  0  0  0  0  0  0  0
    1.3041    2.8955    0.0000 C   0  0  0  0  0  0  0  0  0  0  0  0
   -3.2496    3.7954    0.0000 C   0  0  0  0  0  0  0  0  0  0  0  0
   -4.5828    0.8082    0.0000 C   0  0  0  0  0  0  0  0  0  0  0  0
   -4.3328    0.0250    0.0000 C   0  0  0  0  0  0  0  0  0  0  0  0
  2  1  2  0  0  0  0
  3  8  1  0  0  0  0
  4  1  1  0  0  0  0
  5  2  1  0  0  0  0
  6  1  1  0  0  0  0
  7  4  1  0  0  0  0
  8 13  1  0  0  0  0
  9  6  1  0  0  0  0
 10  3  1  0  0  0  0
 11  3  1  0  0  0  0
 12  2  1  0  0  0  0
 13 14  2  0  0  0  0
 14  9  1  0  0  0  0
 15  9  2  0  0  0  0
 16 10  1  0  0  0  0
 17 11  1  0  0  0  0
 18 10  2  0  0  0  0
 19 11  2  0  0  0  0
 20 12  2  0  0  0  0
 21 12  1  0  0  0  0
 22  5  1  0  0  0  0
 23 26  1  0  0  0  0
 24  7  1  0  0  0  0
 25 14  1  0  0  0  0
 26 25  2  0  0  0  0
 27 21  1  0  0  0  0
 28 22  1  0  0  0  0
 29 24  1  0  0  0  0
  5  7  2  0  0  0  0
 29 28  1  0  0  0  0
  8 23  2  0  0  0  0
 17 16  1  0  0  0  0
M  END
>  <IDNUMBER>
F1828-0066

>  <Chemical_Name>
2-[3-(2,5-dioxopyrrolidin-1-yl)benzamido]-N-methyl-4,5,6,7-tetrahydro-1-benzothiophene-3-carboxamide

>  <PriceCoeff>
1.00

>  <CAS>
892979-82-7

>  <MW>
411.47

>  <Description>
solid

>  <FSP3>
0.33

>  <clogP>
1.55

>  <TPSA>
123.82

>  <Acceptor>
4

>  <Donor>
2

>  <RotBonds>
4

>  <HAC>
29

>  <Collection>
General

>  <PPDS>
+

$$$$
F1829-0048
  Mrv2219 10102508112D          

 30 33  0  0  0  0            999 V2000
   -1.6081    1.2457    0.0000 C   0  0  0  0  0  0  0  0  0  0  0  0
   -2.2622    1.7248    0.0000 C   0  0  0  0  0  0  0  0  0  0  0  0
   -2.9330    1.2457    0.0000 C   0  0  0  0  0  0  0  0  0  0  0  0
   -2.6747    0.4582    0.0000 C   0  0  0  0  0  0  0  0  0  0  0  0
   -1.8581    0.4582    0.0000 S   0  0  0  0  0  0  0  0  0  0  0  0
    2.8414    2.1830    0.0000 N   0  0  0  0  0  0  0  0  0  0  0  0
   -0.8332    1.2124    0.0000 N   0  0  0  0  0  0  0  0  0  0  0  0
   -0.4624    2.1498    0.0000 C   0  0  0  0  0  0  0  0  0  0  0  0
    3.2996    2.8747    0.0000 C   0  0  0  0  0  0  0  0  0  0  0  0
    3.3663    1.5456    0.0000 C   0  0  0  0  0  0  0  0  0  0  0  0
   -2.2497    2.5497    0.0000 C   0  0  0  0  0  0  0  0  0  0  0  0
    2.0165    2.1748    0.0000 C   0  0  0  0  0  0  0  0  0  0  0  0
   -3.7371    1.4206    0.0000 C   0  0  0  0  0  0  0  0  0  0  0  0
    0.3625    2.1623    0.0000 C   0  0  0  0  0  0  0  0  0  0  0  0
   -3.2329   -0.1500    0.0000 C   0  0  0  0  0  0  0  0  0  0  0  0
   -0.7457    2.8080    0.0000 O   0  0  0  0  0  0  0  0  0  0  0  0
    4.1037    2.6580    0.0000 C   0  0  0  0  0  0  0  0  0  0  0  0
    4.1287    1.8373    0.0000 C   0  0  0  0  0  0  0  0  0  0  0  0
    3.0039    3.6704    0.0000 O   0  0  0  0  0  0  0  0  0  0  0  0
    3.1496    0.7457    0.0000 O   0  0  0  0  0  0  0  0  0  0  0  0
   -1.5331    2.9580    0.0000 O   0  0  0  0  0  0  0  0  0  0  0  0
    1.5915    2.8955    0.0000 C   0  0  0  0  0  0  0  0  0  0  0  0
    1.6040    1.4706    0.0000 C   0  0  0  0  0  0  0  0  0  0  0  0
    0.7874    1.4581    0.0000 C   0  0  0  0  0  0  0  0  0  0  0  0
    0.7749    2.8955    0.0000 C   0  0  0  0  0  0  0  0  0  0  0  0
   -2.9622    2.9705    0.0000 N   0  0  0  0  0  0  0  0  0  0  0  0
   -4.2953    0.8082    0.0000 C   0  0  0  0  0  0  0  0  0  0  0  0
   -4.0328    0.0250    0.0000 C   0  0  0  0  0  0  0  0  0  0  0  0
   -2.9580    3.7954    0.0000 C   0  0  0  0  0  0  0  0  0  0  0  0
   -4.5828   -0.5916    0.0000 C   0  0  0  0  0  0  0  0  0  0  0  0
  2  1  2  0  0  0  0
  3  2  1  0  0  0  0
  4  5  1  0  0  0  0
  5  1  1  0  0  0  0
  6 12  1  0  0  0  0
  7  1  1  0  0  0  0
  8  7  1  0  0  0  0
  9  6  1  0  0  0  0
 10  6  1  0  0  0  0
 11  2  1  0  0  0  0
 12 22  1  0  0  0  0
 13  3  1  0  0  0  0
 14  8  1  0  0  0  0
 15  4  1  0  0  0  0
 16  8  2  0  0  0  0
 17  9  1  0  0  0  0
 18 10  1  0  0  0  0
 19  9  2  0  0  0  0
 20 10  2  0  0  0  0
 21 11  2  0  0  0  0
 22 25  2  0  0  0  0
 23 24  1  0  0  0  0
 24 14  2  0  0  0  0
 25 14  1  0  0  0  0
 26 11  1  0  0  0  0
 27 13  1  0  0  0  0
 28 15  1  0  0  0  0
 29 26  1  0  0  0  0
 30 28  1  0  0  0  0
  3  4  2  0  0  0  0
 28 27  1  0  0  0  0
 12 23  2  0  0  0  0
 18 17  1  0  0  0  0
M  END
>  <IDNUMBER>
F1829-0048

>  <Chemical_Name>
2-[4-(2,5-dioxopyrrolidin-1-yl)benzamido]-N,6-dimethyl-4,5,6,7-tetrahydro-1-benzothiophene-3-carboxamide

>  <PriceCoeff>
1.00

>  <CAS>
892978-51-7

>  <MW>
425.50

>  <Description>
solid

>  <FSP3>
0.36

>  <clogP>
2.06

>  <TPSA>
123.82

>  <Acceptor>
4

>  <Donor>
2

>  <RotBonds>
4

>  <HAC>
30

>  <Collection>
General

>  <PPDS>
+

$$$$
F1829-0066
  Mrv2219 10102508112D          

 30 33  0  0  0  0            999 V2000
   -1.6081    1.2457    0.0000 C   0  0  0  0  0  0  0  0  0  0  0  0
   -2.2622    1.7248    0.0000 C   0  0  0  0  0  0  0  0  0  0  0  0
    2.0373    0.7499    0.0000 N   0  0  0  0  0  0  0  0  0  0  0  0
   -2.9330    1.2457    0.0000 C   0  0  0  0  0  0  0  0  0  0  0  0
   -2.6747    0.4582    0.0000 C   0  0  0  0  0  0  0  0  0  0  0  0
   -1.8581    0.4582    0.0000 S   0  0  0  0  0  0  0  0  0  0  0  0
   -0.8332    1.2124    0.0000 N   0  0  0  0  0  0  0  0  0  0  0  0
    1.6123    1.4706    0.0000 C   0  0  0  0  0  0  0  0  0  0  0  0
   -0.4624    2.1498    0.0000 C   0  0  0  0  0  0  0  0  0  0  0  0
    2.8539    0.6457    0.0000 C   0  0  0  0  0  0  0  0  0  0  0  0
    1.6665    0.0083    0.0000 C   0  0  0  0  0  0  0  0  0  0  0  0
   -2.2497    2.5497    0.0000 C   0  0  0  0  0  0  0  0  0  0  0  0
    0.7874    1.4581    0.0000 C   0  0  0  0  0  0  0  0  0  0  0  0
    0.3625    2.1623    0.0000 C   0  0  0  0  0  0  0  0  0  0  0  0
   -3.7371    1.4206    0.0000 C   0  0  0  0  0  0  0  0  0  0  0  0
   -3.2329   -0.1500    0.0000 C   0  0  0  0  0  0  0  0  0  0  0  0
   -0.7457    2.8080    0.0000 O   0  0  0  0  0  0  0  0  0  0  0  0
    3.0039   -0.1667    0.0000 C   0  0  0  0  0  0  0  0  0  0  0  0
    2.2872   -0.5666    0.0000 C   0  0  0  0  0  0  0  0  0  0  0  0
    3.4288    1.2249    0.0000 O   0  0  0  0  0  0  0  0  0  0  0  0
    0.8624   -0.1375    0.0000 O   0  0  0  0  0  0  0  0  0  0  0  0
   -1.5331    2.9580    0.0000 O   0  0  0  0  0  0  0  0  0  0  0  0
   -2.9622    2.9705    0.0000 N   0  0  0  0  0  0  0  0  0  0  0  0
   -4.2953    0.8082    0.0000 C   0  0  0  0  0  0  0  0  0  0  0  0
   -4.0328    0.0250    0.0000 C   0  0  0  0  0  0  0  0  0  0  0  0
    2.0165    2.1830    0.0000 C   0  0  0  0  0  0  0  0  0  0  0  0
    0.7749    2.8955    0.0000 C   0  0  0  0  0  0  0  0  0  0  0  0
    1.5998    2.8955    0.0000 C   0  0  0  0  0  0  0  0  0  0  0  0
   -2.9580    3.7954    0.0000 C   0  0  0  0  0  0  0  0  0  0  0  0
   -4.5828   -0.5916    0.0000 C   0  0  0  0  0  0  0  0  0  0  0  0
  2  1  2  0  0  0  0
  3  8  1  0  0  0  0
  4  2  1  0  0  0  0
  5  6  1  0  0  0  0
  6  1  1  0  0  0  0
  7  1  1  0  0  0  0
  8 13  1  0  0  0  0
  9  7  1  0  0  0  0
 10  3  1  0  0  0  0
 11  3  1  0  0  0  0
 12  2  1  0  0  0  0
 13 14  2  0  0  0  0
 14  9  1  0  0  0  0
 15  4  1  0  0  0  0
 16  5  1  0  0  0  0
 17  9  2  0  0  0  0
 18 10  1  0  0  0  0
 19 11  1  0  0  0  0
 20 10  2  0  0  0  0
 21 11  2  0  0  0  0
 22 12  2  0  0  0  0
 23 12  1  0  0  0  0
 24 15  1  0  0  0  0
 25 16  1  0  0  0  0
 26 28  1  0  0  0  0
 27 14  1  0  0  0  0
 28 27  2  0  0  0  0
 29 23  1  0  0  0  0
 30 25  1  0  0  0  0
  4  5  2  0  0  0  0
 25 24  1  0  0  0  0
  8 26  2  0  0  0  0
 19 18  1  0  0  0  0
M  END
>  <IDNUMBER>
F1829-0066

>  <Chemical_Name>
2-[3-(2,5-dioxopyrrolidin-1-yl)benzamido]-N,6-dimethyl-4,5,6,7-tetrahydro-1-benzothiophene-3-carboxamide

>  <PriceCoeff>
1.00

>  <CAS>
892979-36-1

>  <MW>
425.50

>  <Description>
solid

>  <FSP3>
0.36

>  <clogP>
2.06

>  <TPSA>
123.82

>  <Acceptor>
4

>  <Donor>
2

>  <RotBonds>
4

>  <HAC>
30

>  <Collection>
General

>  <PPDS>
+

$$$$
F1829-0108
  Mrv2219 10102508112D          

 25 27  0  0  0  0            999 V2000
   -1.6081    1.2457    0.0000 C   0  0  0  0  0  0  0  0  0  0  0  0
   -2.2622    1.7248    0.0000 C   0  0  0  0  0  0  0  0  0  0  0  0
    0.7666    2.8955    0.0000 N   0  0  0  0  0  0  0  0  0  0  0  0
   -2.9330    1.2457    0.0000 C   0  0  0  0  0  0  0  0  0  0  0  0
   -2.6747    0.4582    0.0000 C   0  0  0  0  0  0  0  0  0  0  0  0
   -1.8581    0.4582    0.0000 S   0  0  0  0  0  0  0  0  0  0  0  0
   -0.8332    1.2124    0.0000 N   0  0  0  0  0  0  0  0  0  0  0  0
    1.5873    2.9830    0.0000 C   0  0  0  0  0  0  0  0  0  0  0  0
    0.4167    3.6329    0.0000 C   0  0  0  0  0  0  0  0  0  0  0  0
   -2.2497    2.5497    0.0000 C   0  0  0  0  0  0  0  0  0  0  0  0
   -0.4624    2.1498    0.0000 C   0  0  0  0  0  0  0  0  0  0  0  0
    0.3625    2.1623    0.0000 C   0  0  0  0  0  0  0  0  0  0  0  0
   -3.7371    1.4206    0.0000 C   0  0  0  0  0  0  0  0  0  0  0  0
   -3.2329   -0.1500    0.0000 C   0  0  0  0  0  0  0  0  0  0  0  0
    1.0249    4.1870    0.0000 C   0  0  0  0  0  0  0  0  0  0  0  0
    1.7498    3.7954    0.0000 C   0  0  0  0  0  0  0  0  0  0  0  0
   -0.3833    3.7996    0.0000 O   0  0  0  0  0  0  0  0  0  0  0  0
    2.1498    2.3705    0.0000 O   0  0  0  0  0  0  0  0  0  0  0  0
   -1.5331    2.9580    0.0000 O   0  0  0  0  0  0  0  0  0  0  0  0
   -0.7457    2.8080    0.0000 O   0  0  0  0  0  0  0  0  0  0  0  0
   -2.9622    2.9705    0.0000 N   0  0  0  0  0  0  0  0  0  0  0  0
   -4.2953    0.8082    0.0000 C   0  0  0  0  0  0  0  0  0  0  0  0
   -4.0328    0.0250    0.0000 C   0  0  0  0  0  0  0  0  0  0  0  0
   -2.9580    3.7954    0.0000 C   0  0  0  0  0  0  0  0  0  0  0  0
   -4.5828   -0.5916    0.0000 C   0  0  0  0  0  0  0  0  0  0  0  0
  2  1  2  0  0  0  0
  3 12  1  0  0  0  0
  4  2  1  0  0  0  0
  5  6  1  0  0  0  0
  6  1  1  0  0  0  0
  7  1  1  0  0  0  0
  8  3  1  0  0  0  0
  9  3  1  0  0  0  0
 10  2  1  0  0  0  0
 11  7  1  0  0  0  0
 12 11  1  0  0  0  0
 13  4  1  0  0  0  0
 14  5  1  0  0  0  0
 15  9  1  0  0  0  0
 16  8  1  0  0  0  0
 17  9  2  0  0  0  0
 18  8  2  0  0  0  0
 19 10  2  0  0  0  0
 20 11  2  0  0  0  0
 21 10  1  0  0  0  0
 22 13  1  0  0  0  0
 23 14  1  0  0  0  0
 24 21  1  0  0  0  0
 25 23  1  0  0  0  0
  4  5  2  0  0  0  0
 23 22  1  0  0  0  0
 15 16  1  0  0  0  0
M  END
>  <IDNUMBER>
F1829-0108

>  <Chemical_Name>
2-[2-(2,5-dioxopyrrolidin-1-yl)acetamido]-N,6-dimethyl-4,5,6,7-tetrahydro-1-benzothiophene-3-carboxamide

>  <PriceCoeff>
1.00

>  <CAS>
892981-97-4

>  <MW>
363.43

>  <Description>
solid

>  <FSP3>
0.53

>  <clogP>
1.88

>  <TPSA>
123.82

>  <Acceptor>
4

>  <Donor>
2

>  <RotBonds>
4

>  <HAC>
25

>  <Collection>
General

>  <PPDS>
+

$$$$
F1830-0065
  Mrv2219 10102508112D          

 28 31  0  0  0  0            999 V2000
   -1.8142    1.1922    0.0000 C   0  0  0  0  0  0  0  0  0  0  0  0
   -2.4402    1.6508    0.0000 C   0  0  0  0  0  0  0  0  0  0  0  0
    1.7744    0.6539    0.0000 N   0  0  0  0  0  0  0  0  0  0  0  0
   -2.0575    0.4386    0.0000 S   0  0  0  0  0  0  0  0  0  0  0  0
   -3.0862    1.1922    0.0000 C   0  0  0  0  0  0  0  0  0  0  0  0
   -1.0766    1.1603    0.0000 N   0  0  0  0  0  0  0  0  0  0  0  0
   -2.8429    0.4386    0.0000 C   0  0  0  0  0  0  0  0  0  0  0  0
    1.3557    1.3716    0.0000 C   0  0  0  0  0  0  0  0  0  0  0  0
   -0.7256    2.0575    0.0000 C   0  0  0  0  0  0  0  0  0  0  0  0
    2.5957    0.5463    0.0000 C   0  0  0  0  0  0  0  0  0  0  0  0
    1.4115   -0.0878    0.0000 C   0  0  0  0  0  0  0  0  0  0  0  0
   -2.4362    2.4402    0.0000 C   0  0  0  0  0  0  0  0  0  0  0  0
    0.5304    1.3637    0.0000 C   0  0  0  0  0  0  0  0  0  0  0  0
    0.0997    2.0695    0.0000 C   0  0  0  0  0  0  0  0  0  0  0  0
   -0.9888    2.6874    0.0000 O   0  0  0  0  0  0  0  0  0  0  0  0
    2.7433   -0.2672    0.0000 C   0  0  0  0  0  0  0  0  0  0  0  0
    2.0256   -0.6620    0.0000 C   0  0  0  0  0  0  0  0  0  0  0  0
    3.1740    1.1323    0.0000 O   0  0  0  0  0  0  0  0  0  0  0  0
    0.6022   -0.2313    0.0000 O   0  0  0  0  0  0  0  0  0  0  0  0
   -1.7465    2.8310    0.0000 O   0  0  0  0  0  0  0  0  0  0  0  0
   -3.1181    2.8429    0.0000 N   0  0  0  0  0  0  0  0  0  0  0  0
   -3.8597    1.3596    0.0000 C   0  0  0  0  0  0  0  0  0  0  0  0
   -4.1468    0.0239    0.0000 C   0  0  0  0  0  0  0  0  0  0  0  0
    1.7625    2.0893    0.0000 C   0  0  0  0  0  0  0  0  0  0  0  0
    0.5184    2.7951    0.0000 C   0  0  0  0  0  0  0  0  0  0  0  0
   -4.3860    0.7735    0.0000 C   0  0  0  0  0  0  0  0  0  0  0  0
    1.3438    2.8070    0.0000 C   0  0  0  0  0  0  0  0  0  0  0  0
   -3.1101    3.6683    0.0000 C   0  0  0  0  0  0  0  0  0  0  0  0
  2  1  2  0  0  0  0
  3  8  1  0  0  0  0
  4  1  1  0  0  0  0
  5  2  1  0  0  0  0
  6  1  1  0  0  0  0
  7  4  1  0  0  0  0
  8 13  1  0  0  0  0
  9  6  1  0  0  0  0
 10  3  1  0  0  0  0
 11  3  1  0  0  0  0
 12  2  1  0  0  0  0
 13 14  2  0  0  0  0
 14  9  1  0  0  0  0
 15  9  2  0  0  0  0
 16 10  1  0  0  0  0
 17 11  1  0  0  0  0
 18 10  2  0  0  0  0
 19 11  2  0  0  0  0
 20 12  2  0  0  0  0
 21 12  1  0  0  0  0
 22  5  1  0  0  0  0
 23  7  1  0  0  0  0
 24 27  1  0  0  0  0
 25 14  1  0  0  0  0
 26 23  1  0  0  0  0
 27 25  2  0  0  0  0
 28 21  1  0  0  0  0
  5  7  2  0  0  0  0
 26 22  1  0  0  0  0
  8 24  2  0  0  0  0
 17 16  1  0  0  0  0
M  END
>  <IDNUMBER>
F1830-0065

>  <Chemical_Name>
2-[3-(2,5-dioxopyrrolidin-1-yl)benzamido]-N-methyl-4H,5H,6H-cyclopenta[b]thiophene-3-carboxamide

>  <PriceCoeff>
1.00

>  <CAS>
893096-89-4

>  <MW>
397.45

>  <Description>
solid

>  <FSP3>
0.30

>  <clogP>
0.99

>  <TPSA>
123.82

>  <Acceptor>
4

>  <Donor>
2

>  <RotBonds>
4

>  <HAC>
28

>  <Collection>
General

>  <PPDS>
+

$$$$
F1831-0048
  Mrv2219 10102508112D          

 30 33  0  0  0  0            999 V2000
   -1.8396    1.2673    0.0000 C   0  0  0  0  0  0  0  0  0  0  0  0
   -2.5051    1.7548    0.0000 C   0  0  0  0  0  0  0  0  0  0  0  0
    2.6365    2.2211    0.0000 N   0  0  0  0  0  0  0  0  0  0  0  0
   -2.0939    0.4662    0.0000 S   0  0  0  0  0  0  0  0  0  0  0  0
   -3.1875    1.2673    0.0000 C   0  0  0  0  0  0  0  0  0  0  0  0
   -1.0512    1.2335    0.0000 N   0  0  0  0  0  0  0  0  0  0  0  0
   -2.9205    0.4705    0.0000 C   0  0  0  0  0  0  0  0  0  0  0  0
   -0.6740    2.1872    0.0000 C   0  0  0  0  0  0  0  0  0  0  0  0
    3.0943    2.9205    0.0000 C   0  0  0  0  0  0  0  0  0  0  0  0
    3.1579    1.5853    0.0000 C   0  0  0  0  0  0  0  0  0  0  0  0
   -2.4924    2.5941    0.0000 C   0  0  0  0  0  0  0  0  0  0  0  0
    1.8057    2.2084    0.0000 C   0  0  0  0  0  0  0  0  0  0  0  0
    0.1526    2.1999    0.0000 C   0  0  0  0  0  0  0  0  0  0  0  0
   -0.9622    2.8569    0.0000 O   0  0  0  0  0  0  0  0  0  0  0  0
    3.8954    2.6916    0.0000 C   0  0  0  0  0  0  0  0  0  0  0  0
    3.9293    1.8777    0.0000 C   0  0  0  0  0  0  0  0  0  0  0  0
    2.8018    3.7089    0.0000 O   0  0  0  0  0  0  0  0  0  0  0  0
    2.9417    0.7757    0.0000 O   0  0  0  0  0  0  0  0  0  0  0  0
   -1.7633    3.0095    0.0000 O   0  0  0  0  0  0  0  0  0  0  0  0
    1.3861    2.9459    0.0000 C   0  0  0  0  0  0  0  0  0  0  0  0
    1.3988    1.5005    0.0000 C   0  0  0  0  0  0  0  0  0  0  0  0
    0.5765    1.4962    0.0000 C   0  0  0  0  0  0  0  0  0  0  0  0
    0.5638    2.9332    0.0000 C   0  0  0  0  0  0  0  0  0  0  0  0
   -3.2172    3.0222    0.0000 N   0  0  0  0  0  0  0  0  0  0  0  0
   -3.8106    1.5725    0.0000 C   0  0  0  0  0  0  0  0  0  0  0  0
   -3.2638   -0.1569    0.0000 C   0  0  0  0  0  0  0  0  0  0  0  0
   -3.2129    3.8487    0.0000 C   0  0  0  0  0  0  0  0  0  0  0  0
   -4.5354    1.1953    0.0000 C   0  0  0  0  0  0  0  0  0  0  0  0
   -4.0776   -0.2713    0.0000 C   0  0  0  0  0  0  0  0  0  0  0  0
   -4.6626    0.3518    0.0000 C   0  0  0  0  0  0  0  0  0  0  0  0
  2  1  2  0  0  0  0
  3 12  1  0  0  0  0
  4  1  1  0  0  0  0
  5  2  1  0  0  0  0
  6  1  1  0  0  0  0
  7  4  1  0  0  0  0
  8  6  1  0  0  0  0
  9  3  1  0  0  0  0
 10  3  1  0  0  0  0
 11  2  1  0  0  0  0
 12 20  1  0  0  0  0
 13  8  1  0  0  0  0
 14  8  2  0  0  0  0
 15  9  1  0  0  0  0
 16 10  1  0  0  0  0
 17  9  2  0  0  0  0
 18 10  2  0  0  0  0
 19 11  2  0  0  0  0
 20 23  2  0  0  0  0
 21 22  1  0  0  0  0
 22 13  2  0  0  0  0
 23 13  1  0  0  0  0
 24 11  1  0  0  0  0
 25  5  1  0  0  0  0
 26  7  1  0  0  0  0
 27 24  1  0  0  0  0
 28 25  1  0  0  0  0
 29 26  1  0  0  0  0
 30 29  1  0  0  0  0
  5  7  2  0  0  0  0
 12 21  2  0  0  0  0
 30 28  1  0  0  0  0
 16 15  1  0  0  0  0
M  END
>  <IDNUMBER>
F1831-0048

>  <Chemical_Name>
2-[4-(2,5-dioxopyrrolidin-1-yl)benzamido]-N-methyl-4H,5H,6H,7H,8H-cyclohepta[b]thiophene-3-carboxamide

>  <PriceCoeff>
1.00

>  <CAS>
893125-99-0

>  <MW>
425.50

>  <Description>
solid

>  <FSP3>
0.36

>  <clogP>
2.10

>  <TPSA>
123.82

>  <Acceptor>
4

>  <Donor>
2

>  <RotBonds>
4

>  <HAC>
30

>  <Collection>
General

>  <PPDS>
+

$$$$
F1831-0066
  Mrv2219 10102508112D          

 30 33  0  0  0  0            999 V2000
   -1.8361    1.2649    0.0000 C   0  0  0  0  0  0  0  0  0  0  0  0
   -2.5004    1.7515    0.0000 C   0  0  0  0  0  0  0  0  0  0  0  0
    1.8192    0.7826    0.0000 N   0  0  0  0  0  0  0  0  0  0  0  0
   -2.0899    0.4653    0.0000 S   0  0  0  0  0  0  0  0  0  0  0  0
   -3.1815    1.2649    0.0000 C   0  0  0  0  0  0  0  0  0  0  0  0
   -1.0492    1.2311    0.0000 N   0  0  0  0  0  0  0  0  0  0  0  0
   -2.9149    0.4696    0.0000 C   0  0  0  0  0  0  0  0  0  0  0  0
    1.4004    1.4934    0.0000 C   0  0  0  0  0  0  0  0  0  0  0  0
   -0.6727    2.1830    0.0000 C   0  0  0  0  0  0  0  0  0  0  0  0
    2.6442    0.6684    0.0000 C   0  0  0  0  0  0  0  0  0  0  0  0
    1.4596    0.0465    0.0000 C   0  0  0  0  0  0  0  0  0  0  0  0
   -2.4877    2.5892    0.0000 C   0  0  0  0  0  0  0  0  0  0  0  0
    0.5754    1.4934    0.0000 C   0  0  0  0  0  0  0  0  0  0  0  0
    0.1523    2.1957    0.0000 C   0  0  0  0  0  0  0  0  0  0  0  0
   -0.9603    2.8515    0.0000 O   0  0  0  0  0  0  0  0  0  0  0  0
    2.7965   -0.1396    0.0000 C   0  0  0  0  0  0  0  0  0  0  0  0
    2.0731   -0.5373    0.0000 C   0  0  0  0  0  0  0  0  0  0  0  0
    3.2154    1.2649    0.0000 O   0  0  0  0  0  0  0  0  0  0  0  0
    0.6516   -0.1058    0.0000 O   0  0  0  0  0  0  0  0  0  0  0  0
   -1.7599    3.0038    0.0000 O   0  0  0  0  0  0  0  0  0  0  0  0
   -3.2111    3.0165    0.0000 N   0  0  0  0  0  0  0  0  0  0  0  0
   -3.8034    1.5696    0.0000 C   0  0  0  0  0  0  0  0  0  0  0  0
    1.8065    2.2084    0.0000 C   0  0  0  0  0  0  0  0  0  0  0  0
   -3.2576   -0.1566    0.0000 C   0  0  0  0  0  0  0  0  0  0  0  0
    0.5627    2.9276    0.0000 C   0  0  0  0  0  0  0  0  0  0  0  0
    1.3877    2.9276    0.0000 C   0  0  0  0  0  0  0  0  0  0  0  0
   -3.2068    3.8415    0.0000 C   0  0  0  0  0  0  0  0  0  0  0  0
   -4.5268    1.1931    0.0000 C   0  0  0  0  0  0  0  0  0  0  0  0
   -4.0699   -0.2708    0.0000 C   0  0  0  0  0  0  0  0  0  0  0  0
   -4.6538    0.3511    0.0000 C   0  0  0  0  0  0  0  0  0  0  0  0
  2  1  2  0  0  0  0
  3  8  1  0  0  0  0
  4  1  1  0  0  0  0
  5  2  1  0  0  0  0
  6  1  1  0  0  0  0
  7  4  1  0  0  0  0
  8 13  1  0  0  0  0
  9  6  1  0  0  0  0
 10  3  1  0  0  0  0
 11  3  1  0  0  0  0
 12  2  1  0  0  0  0
 13 14  2  0  0  0  0
 14  9  1  0  0  0  0
 15  9  2  0  0  0  0
 16 10  1  0  0  0  0
 17 11  1  0  0  0  0
 18 10  2  0  0  0  0
 19 11  2  0  0  0  0
 20 12  2  0  0  0  0
 21 12  1  0  0  0  0
 22  5  1  0  0  0  0
 23 26  1  0  0  0  0
 24  7  1  0  0  0  0
 25 14  1  0  0  0  0
 26 25  2  0  0  0  0
 27 21  1  0  0  0  0
 28 22  1  0  0  0  0
 29 24  1  0  0  0  0
 30 29  1  0  0  0  0
  5  7  2  0  0  0  0
 30 28  1  0  0  0  0
  8 23  2  0  0  0  0
 17 16  1  0  0  0  0
M  END
>  <IDNUMBER>
F1831-0066

>  <Chemical_Name>
2-[3-(2,5-dioxopyrrolidin-1-yl)benzamido]-N-methyl-4H,5H,6H,7H,8H-cyclohepta[b]thiophene-3-carboxamide

>  <PriceCoeff>
1.00

>  <CAS>
893126-86-8

>  <MW>
425.50

>  <Description>
solid

>  <FSP3>
0.36

>  <clogP>
2.10

>  <TPSA>
123.82

>  <Acceptor>
4

>  <Donor>
2

>  <RotBonds>
4

>  <HAC>
30

>  <Collection>
General

>  <PPDS>
+

$$$$
F1864-0070
  Mrv2219 10102508112D          

 24 27  0  0  0  0            999 V2000
    5.2292   -2.6250    0.0000 C   0  0  0  0  0  0  0  0  0  0  0  0
    4.5167   -1.3875    0.0000 C   0  0  0  0  0  0  0  0  0  0  0  0
    4.5167   -2.2125    0.0000 C   0  0  0  0  0  0  0  0  0  0  0  0
    5.2292   -0.9750    0.0000 O   0  0  0  0  0  0  0  0  0  0  0  0
    5.9500   -1.3875    0.0000 C   0  0  0  0  0  0  0  0  0  0  0  0
    7.3875   -4.6792    0.0000 C   0  0  0  0  0  0  0  0  0  0  0  0
    5.9500   -2.2125    0.0000 C   0  0  0  0  0  0  0  0  0  0  0  0
    3.8042   -0.9750    0.0000 C   0  0  0  0  0  0  0  0  0  0  0  0
    3.8042   -2.6250    0.0000 C   0  0  0  0  0  0  0  0  0  0  0  0
    5.9500   -3.8625    0.0000 N   0  0  0  0  0  0  0  0  0  0  0  0
    3.0917   -2.2125    0.0000 C   0  0  0  0  0  0  0  0  0  0  0  0
    3.0917   -1.3917    0.0000 C   0  0  0  0  0  0  0  0  0  0  0  0
    5.2292   -3.4500    0.0000 C   0  0  0  0  0  0  0  0  0  0  0  0
    7.3875   -3.8542    0.0000 C   0  0  0  0  0  0  0  0  0  0  0  0
    6.6750   -5.1042    0.0000 C   0  0  0  0  0  0  0  0  0  0  0  0
    8.0667   -4.2417    0.0000 O   0  0  0  0  0  0  0  0  0  0  0  0
    7.6000   -5.4875    0.0000 O   0  0  0  0  0  0  0  0  0  0  0  0
    6.6667   -0.9667    0.0000 O   0  0  0  0  0  0  0  0  0  0  0  0
    5.9500   -4.6917    0.0000 C   0  0  0  0  0  0  0  0  0  0  0  0
    6.6542   -3.4500    0.0000 C   0  0  0  0  0  0  0  0  0  0  0  0
    2.3792   -2.6250    0.0000 Cl  0  0  0  0  0  0  0  0  0  0  0  0
    2.3750   -0.9792    0.0000 O   0  0  0  0  0  0  0  0  0  0  0  0
    8.4167   -5.5167    0.0000 C   0  0  0  0  0  0  0  0  0  0  0  0
    8.7125   -4.7667    0.0000 C   0  0  0  0  0  0  0  0  0  0  0  0
  2  3  2  0  0  0  0
  3  1  1  0  0  0  0
  4  5  1  0  0  0  0
  5  7  1  0  0  0  0
  6 14  1  0  0  0  0
  7  1  2  0  0  0  0
  8  2  1  0  0  0  0
  9  3  1  0  0  0  0
 10 13  1  0  0  0  0
 11  9  2  0  0  0  0
 12 11  1  0  0  0  0
 13  1  1  0  0  0  0
 14 20  1  0  0  0  0
 15 19  1  0  0  0  0
 16  6  1  0  0  0  0
 17  6  1  0  0  0  0
 18  5  2  0  0  0  0
 19 10  1  0  0  0  0
 20 10  1  0  0  0  0
 21 11  1  0  0  0  0
 22 12  1  0  0  0  0
 23 17  1  0  0  0  0
 24 16  1  0  0  0  0
  2  4  1  0  0  0  0
 15  6  1  0  0  0  0
  8 12  2  0  0  0  0
 24 23  1  0  0  0  0
M  END
>  <IDNUMBER>
F1864-0070

>  <Chemical_Name>
6-chloro-4-({1,4-dioxa-8-azaspiro[4.5]decan-8-yl}methyl)-7-hydroxy-2H-chromen-2-one

>  <PriceCoeff>
1.00

>  <CAS>
887209-77-0

>  <MW>
351.78

>  <Description>
solid

>  <FSP3>
0.47

>  <clogP>
1.61

>  <TPSA>
68.23

>  <Acceptor>
5

>  <Donor>
2

>  <RotBonds>
2

>  <HAC>
24

>  <Collection>
General

>  <PPDS>
+

$$$$
F1864-0084
  Mrv2219 10102508112D          

 22 24  0  0  0  0            999 V2000
    5.2346   -2.6277    0.0000 C   0  0  0  0  0  0  0  0  0  0  0  0
    4.5214   -1.3889    0.0000 C   0  0  0  0  0  0  0  0  0  0  0  0
    4.5214   -2.2148    0.0000 C   0  0  0  0  0  0  0  0  0  0  0  0
    5.9562   -3.8665    0.0000 N   0  0  0  0  0  0  0  0  0  0  0  0
    5.2346   -0.9760    0.0000 O   0  0  0  0  0  0  0  0  0  0  0  0
    5.9562   -1.3889    0.0000 C   0  0  0  0  0  0  0  0  0  0  0  0
    5.9562   -2.2148    0.0000 C   0  0  0  0  0  0  0  0  0  0  0  0
    3.8081   -0.9760    0.0000 C   0  0  0  0  0  0  0  0  0  0  0  0
    3.8081   -2.6277    0.0000 C   0  0  0  0  0  0  0  0  0  0  0  0
    5.2429   -3.4536    0.0000 C   0  0  0  0  0  0  0  0  0  0  0  0
    3.0949   -2.2148    0.0000 C   0  0  0  0  0  0  0  0  0  0  0  0
    3.0949   -1.3931    0.0000 C   0  0  0  0  0  0  0  0  0  0  0  0
    7.3868   -4.6840    0.0000 O   0  0  0  0  0  0  0  0  0  0  0  0
    6.6736   -0.9677    0.0000 O   0  0  0  0  0  0  0  0  0  0  0  0
    5.9562   -4.6924    0.0000 C   0  0  0  0  0  0  0  0  0  0  0  0
    6.6611   -3.4536    0.0000 C   0  0  0  0  0  0  0  0  0  0  0  0
    7.3868   -3.8582    0.0000 C   0  0  0  0  0  0  0  0  0  0  0  0
    6.6819   -5.1053    0.0000 C   0  0  0  0  0  0  0  0  0  0  0  0
    2.3817   -2.6277    0.0000 Cl  0  0  0  0  0  0  0  0  0  0  0  0
    2.3775   -0.9802    0.0000 O   0  0  0  0  0  0  0  0  0  0  0  0
    6.6861   -5.9228    0.0000 C   0  0  0  0  0  0  0  0  0  0  0  0
    8.0959   -3.4453    0.0000 C   0  0  0  0  0  0  0  0  0  0  0  0
  2  3  2  0  0  0  0
  3  1  1  0  0  0  0
  4 10  1  0  0  0  0
  5  6  1  0  0  0  0
  6  7  1  0  0  0  0
  7  1  2  0  0  0  0
  8  2  1  0  0  0  0
  9  3  1  0  0  0  0
 10  1  1  0  0  0  0
 11  9  2  0  0  0  0
 12 11  1  0  0  0  0
 13 17  1  0  0  0  0
 14  6  2  0  0  0  0
 15  4  1  0  0  0  0
 16  4  1  0  0  0  0
 17 16  1  0  0  0  0
 18 15  1  0  0  0  0
 19 11  1  0  0  0  0
 20 12  1  0  0  0  0
 21 18  1  0  0  0  0
 22 17  1  0  0  0  0
  2  5  1  0  0  0  0
 18 13  1  0  0  0  0
  8 12  2  0  0  0  0
M  END
>  <IDNUMBER>
F1864-0084

>  <Chemical_Name>
6-chloro-4-[(2,6-dimethylmorpholin-4-yl)methyl]-7-hydroxy-2H-chromen-2-one

>  <PriceCoeff>
1.00

>  <CAS>
887210-02-8

>  <MW>
323.77

>  <Description>
solid

>  <FSP3>
0.44

>  <clogP>
2.83

>  <TPSA>
59.00

>  <Acceptor>
4

>  <Donor>
2

>  <RotBonds>
2

>  <HAC>
22

>  <Collection>
General

>  <PPDS>
+

$$$$
F1864-0146
  Mrv2219 10102508112D          

 20 22  0  0  0  0            999 V2000
    5.2292   -2.6250    0.0000 C   0  0  0  0  0  0  0  0  0  0  0  0
    4.5167   -1.3875    0.0000 C   0  0  0  0  0  0  0  0  0  0  0  0
    4.5167   -2.2125    0.0000 C   0  0  0  0  0  0  0  0  0  0  0  0
    5.2292   -0.9750    0.0000 O   0  0  0  0  0  0  0  0  0  0  0  0
    5.9500   -1.3875    0.0000 C   0  0  0  0  0  0  0  0  0  0  0  0
    5.9500   -2.2125    0.0000 C   0  0  0  0  0  0  0  0  0  0  0  0
    3.8042   -0.9750    0.0000 C   0  0  0  0  0  0  0  0  0  0  0  0
    3.8042   -2.6250    0.0000 C   0  0  0  0  0  0  0  0  0  0  0  0
    3.0917   -2.2125    0.0000 C   0  0  0  0  0  0  0  0  0  0  0  0
    3.0917   -1.3917    0.0000 C   0  0  0  0  0  0  0  0  0  0  0  0
    5.2375   -3.4500    0.0000 C   0  0  0  0  0  0  0  0  0  0  0  0
    5.9500   -3.8625    0.0000 N   0  0  0  0  0  0  0  0  0  0  0  0
    6.6667   -0.9667    0.0000 O   0  0  0  0  0  0  0  0  0  0  0  0
    2.3792   -2.6250    0.0000 Cl  0  0  0  0  0  0  0  0  0  0  0  0
    2.3750   -0.9792    0.0000 O   0  0  0  0  0  0  0  0  0  0  0  0
    6.6625   -3.4417    0.0000 C   0  0  0  0  0  0  0  0  0  0  0  0
    5.9500   -4.6792    0.0000 C   0  0  0  0  0  0  0  0  0  0  0  0
    6.6750   -5.0917    0.0000 C   0  0  0  0  0  0  0  0  0  0  0  0
    7.3792   -3.8542    0.0000 C   0  0  0  0  0  0  0  0  0  0  0  0
    7.3792   -4.6792    0.0000 C   0  0  0  0  0  0  0  0  0  0  0  0
  2  3  2  0  0  0  0
  3  1  1  0  0  0  0
  4  5  1  0  0  0  0
  5  6  1  0  0  0  0
  6  1  2  0  0  0  0
  7  2  1  0  0  0  0
  8  3  1  0  0  0  0
  9  8  2  0  0  0  0
 10  9  1  0  0  0  0
 11  1  1  0  0  0  0
 12 11  1  0  0  0  0
 13  5  2  0  0  0  0
 14  9  1  0  0  0  0
 15 10  1  0  0  0  0
 16 12  1  0  0  0  0
 17 12  1  0  0  0  0
 18 17  1  0  0  0  0
 19 16  1  0  0  0  0
 20 18  1  0  0  0  0
  2  4  1  0  0  0  0
  7 10  2  0  0  0  0
 19 20  1  0  0  0  0
M  END
>  <IDNUMBER>
F1864-0146

>  <Chemical_Name>
6-chloro-7-hydroxy-4-[(piperidin-1-yl)methyl]-2H-chromen-2-one

>  <PriceCoeff>
1.00

>  <CAS>
849054-21-3

>  <MW>
293.75

>  <Description>
solid

>  <FSP3>
0.40

>  <clogP>
3.07

>  <TPSA>
49.77

>  <Acceptor>
3

>  <Donor>
2

>  <RotBonds>
2

>  <HAC>
20

>  <Collection>
General

>  <PPDS>
+

$$$$
F1864-0335
  Mrv2219 10102508112D          

 21 23  0  0  0  0            999 V2000
    5.2292   -2.6250    0.0000 C   0  0  0  0  0  0  0  0  0  0  0  0
    4.5167   -1.3875    0.0000 C   0  0  0  0  0  0  0  0  0  0  0  0
    4.5167   -2.2125    0.0000 C   0  0  0  0  0  0  0  0  0  0  0  0
    5.2292   -0.9750    0.0000 O   0  0  0  0  0  0  0  0  0  0  0  0
    5.9500   -1.3875    0.0000 C   0  0  0  0  0  0  0  0  0  0  0  0
    5.9500   -2.2125    0.0000 C   0  0  0  0  0  0  0  0  0  0  0  0
    3.8042   -0.9750    0.0000 C   0  0  0  0  0  0  0  0  0  0  0  0
    3.8042   -2.6250    0.0000 C   0  0  0  0  0  0  0  0  0  0  0  0
    5.9500   -3.8542    0.0000 N   0  0  0  0  0  0  0  0  0  0  0  0
    3.0917   -2.2125    0.0000 C   0  0  0  0  0  0  0  0  0  0  0  0
    3.0917   -1.3917    0.0000 C   0  0  0  0  0  0  0  0  0  0  0  0
    5.2292   -3.4500    0.0000 C   0  0  0  0  0  0  0  0  0  0  0  0
    6.6667   -0.9667    0.0000 O   0  0  0  0  0  0  0  0  0  0  0  0
    6.6542   -3.4417    0.0000 C   0  0  0  0  0  0  0  0  0  0  0  0
    5.9417   -4.6792    0.0000 C   0  0  0  0  0  0  0  0  0  0  0  0
    2.3792   -2.6250    0.0000 Cl  0  0  0  0  0  0  0  0  0  0  0  0
    2.3750   -0.9792    0.0000 O   0  0  0  0  0  0  0  0  0  0  0  0
    6.6667   -5.0917    0.0000 C   0  0  0  0  0  0  0  0  0  0  0  0
    7.3750   -3.8542    0.0000 C   0  0  0  0  0  0  0  0  0  0  0  0
    7.3792   -4.6750    0.0000 C   0  0  0  0  0  0  0  0  0  0  0  0
    8.1000   -5.0792    0.0000 C   0  0  0  0  0  0  0  0  0  0  0  0
  2  3  2  0  0  0  0
  3  1  1  0  0  0  0
  4  5  1  0  0  0  0
  5  6  1  0  0  0  0
  6  1  2  0  0  0  0
  7  2  1  0  0  0  0
  8  3  1  0  0  0  0
  9 12  1  0  0  0  0
 10  8  2  0  0  0  0
 11 10  1  0  0  0  0
 12  1  1  0  0  0  0
 13  5  2  0  0  0  0
 14  9  1  0  0  0  0
 15  9  1  0  0  0  0
 16 10  1  0  0  0  0
 17 11  1  0  0  0  0
 18 15  1  0  0  0  0
 19 14  1  0  0  0  0
 20 18  1  0  0  0  0
 21 20  1  0  0  0  0
  2  4  1  0  0  0  0
  7 11  2  0  0  0  0
 19 20  1  0  0  0  0
M  END
>  <IDNUMBER>
F1864-0335

>  <Chemical_Name>
6-chloro-7-hydroxy-4-[(4-methylpiperidin-1-yl)methyl]-2H-chromen-2-one

>  <PriceCoeff>
1.00

>  <CAS>
848911-79-5

>  <MW>
307.77

>  <Description>
solid

>  <FSP3>
0.44

>  <clogP>
3.59

>  <TPSA>
49.77

>  <Acceptor>
3

>  <Donor>
2

>  <RotBonds>
2

>  <HAC>
21

>  <Collection>
General

>  <PPDS>
+

$$$$
F1900-3879
  Mrv2219 10102508112D          

 12 13  0  0  0  0            999 V2000
    5.6658   -5.5041    0.0000 C   0  0  0  0  0  0  0  0  0  0  0  0
    5.9230   -6.2880    0.0000 C   0  0  0  0  0  0  0  0  0  0  0  0
    6.2216   -4.8944    0.0000 N   0  0  0  0  0  0  0  0  0  0  0  0
    7.2793   -5.8525    0.0000 N   0  0  0  0  0  0  0  0  0  0  0  0
    6.7235   -6.4622    0.0000 C   0  0  0  0  0  0  0  0  0  0  0  0
    7.0221   -5.0686    0.0000 C   0  0  0  0  0  0  0  0  0  0  0  0
    4.8446   -5.5041    0.0000 N   0  0  0  0  0  0  0  0  0  0  0  0
    4.5915   -6.2962    0.0000 N   0  0  0  0  0  0  0  0  0  0  0  0
    5.2552   -6.7733    0.0000 C   0  0  0  0  0  0  0  0  0  0  0  0
    6.9724   -7.2461    0.0000 O   0  0  0  0  0  0  0  0  0  0  0  0
    7.5779   -4.4588    0.0000 O   0  0  0  0  0  0  0  0  0  0  0  0
    3.8118   -6.5493    0.0000 C   0  0  0  0  0  0  0  0  0  0  0  0
  2  1  1  0  0  0  0
  3  1  1  0  0  0  0
  4  6  1  0  0  0  0
  5  2  1  0  0  0  0
  6  3  1  0  0  0  0
  7  1  2  0  0  0  0
  8  7  1  0  0  0  0
  9  2  2  0  0  0  0
 10  5  2  0  0  0  0
 11  6  2  0  0  0  0
 12  8  1  0  0  0  0
  8  9  1  0  0  0  0
  5  4  1  0  0  0  0
M  END
>  <IDNUMBER>
F1900-3879

>  <Chemical_Name>
2-methyl-2H,4H,5H,6H,7H-pyrazolo[3,4-d]pyrimidine-4,6-dione

>  <PriceCoeff>
1.00

>  <CAS>
10505-25-6

>  <MW>
166.14

>  <Description>
solid

>  <FSP3>
0.17

>  <clogP>
0.42

>  <TPSA>
76.02

>  <Acceptor>
3

>  <Donor>
2

>  <RotBonds>
0

>  <HAC>
12

>  <Collection>
General

>  <PPDS>
+

$$$$
F1902-0079
  Mrv2219 10102508112D          

 20 22  0  0  0  0            999 V2000
    3.2359   -0.3675    0.0000 C   0  0  0  0  0  0  0  0  0  0  0  0
    1.7954   -0.3675    0.0000 C   0  0  0  0  0  0  0  0  0  0  0  0
    2.5094   -0.7808    0.0000 C   0  0  0  0  0  0  0  0  0  0  0  0
    3.2359    0.4718    0.0000 C   0  0  0  0  0  0  0  0  0  0  0  0
    1.7954    0.4718    0.0000 C   0  0  0  0  0  0  0  0  0  0  0  0
    2.5094    0.8893    0.0000 O   0  0  0  0  0  0  0  0  0  0  0  0
    1.0814   -0.7766    0.0000 C   0  0  0  0  0  0  0  0  0  0  0  0
    1.0814    0.8851    0.0000 C   0  0  0  0  0  0  0  0  0  0  0  0
    0.3675   -0.3633    0.0000 C   0  0  0  0  0  0  0  0  0  0  0  0
    3.9499   -0.7808    0.0000 C   0  0  0  0  0  0  0  0  0  0  0  0
    0.3675    0.4635    0.0000 C   0  0  0  0  0  0  0  0  0  0  0  0
    2.5094   -1.6075    0.0000 O   0  0  0  0  0  0  0  0  0  0  0  0
    3.9457   -1.6075    0.0000 C   0  0  0  0  0  0  0  0  0  0  0  0
    4.6638   -0.3675    0.0000 C   0  0  0  0  0  0  0  0  0  0  0  0
    5.3778   -1.6158    0.0000 C   0  0  0  0  0  0  0  0  0  0  0  0
    6.0918   -2.0292    0.0000 N   0  0  0  0  0  0  0  0  0  0  0  0
    4.6596   -2.0209    0.0000 C   0  0  0  0  0  0  0  0  0  0  0  0
    5.3778   -0.7808    0.0000 C   0  0  0  0  0  0  0  0  0  0  0  0
   -0.3507   -0.7766    0.0000 C   0  0  0  0  0  0  0  0  0  0  0  0
   -0.3465    0.8768    0.0000 C   0  0  0  0  0  0  0  0  0  0  0  0
  2  3  1  0  0  0  0
  3  1  1  0  0  0  0
  4  1  2  0  0  0  0
  5  6  1  0  0  0  0
  6  4  1  0  0  0  0
  7  2  2  0  0  0  0
  8  5  2  0  0  0  0
  9  7  1  0  0  0  0
 10  1  1  0  0  0  0
 11  8  1  0  0  0  0
 12  3  2  0  0  0  0
 13 10  2  0  0  0  0
 14 10  1  0  0  0  0
 15 18  1  0  0  0  0
 16 15  1  0  0  0  0
 17 13  1  0  0  0  0
 18 14  2  0  0  0  0
 19  9  1  0  0  0  0
 20 11  1  0  0  0  0
 15 17  2  0  0  0  0
  5  2  1  0  0  0  0
 11  9  2  0  0  0  0
M  END
>  <IDNUMBER>
F1902-0079

>  <Chemical_Name>
3-(4-aminophenyl)-6,7-dimethyl-4H-chromen-4-one

>  <PriceCoeff>
1.00

>  <CAS>
2034157-06-5

>  <MW>
265.31

>  <Description>
solid

>  <FSP3>
0.12

>  <clogP>
3.54

>  <TPSA>
52.32

>  <Acceptor>
3

>  <Donor>
1

>  <RotBonds>
1

>  <HAC>
20

>  <Collection>
General

>  <PPDS>
+

$$$$
F1902-0099
  Mrv2219 10102508112D          

 12 13  0  0  0  0            999 V2000
    6.6475   -3.5017    0.0000 C   0  0  0  0  0  0  0  0  0  0  0  0
    6.6557   -2.6739    0.0000 C   0  0  0  0  0  0  0  0  0  0  0  0
    7.3635   -3.9115    0.0000 C   0  0  0  0  0  0  0  0  0  0  0  0
    5.9397   -2.2641    0.0000 C   0  0  0  0  0  0  0  0  0  0  0  0
    8.0837   -3.5017    0.0000 C   0  0  0  0  0  0  0  0  0  0  0  0
    7.3677   -2.2517    0.0000 O   0  0  0  0  0  0  0  0  0  0  0  0
    5.9397   -3.9032    0.0000 C   0  0  0  0  0  0  0  0  0  0  0  0
    8.0837   -2.6739    0.0000 C   0  0  0  0  0  0  0  0  0  0  0  0
    7.3635   -4.7310    0.0000 O   0  0  0  0  0  0  0  0  0  0  0  0
    5.2319   -2.6739    0.0000 C   0  0  0  0  0  0  0  0  0  0  0  0
    5.2319   -3.4935    0.0000 C   0  0  0  0  0  0  0  0  0  0  0  0
    4.5241   -2.2641    0.0000 Br  0  0  0  0  0  0  0  0  0  0  0  0
  2  1  1  0  0  0  0
  3  1  1  0  0  0  0
  4  2  2  0  0  0  0
  5  3  1  0  0  0  0
  6  2  1  0  0  0  0
  7  1  2  0  0  0  0
  8  5  2  0  0  0  0
  9  3  2  0  0  0  0
 10 11  2  0  0  0  0
 11  7  1  0  0  0  0
 12 10  1  0  0  0  0
  4 10  1  0  0  0  0
  6  8  1  0  0  0  0
M  END
>  <IDNUMBER>
F1902-0099

>  <Chemical_Name>
7-bromo-4H-chromen-4-one

>  <PriceCoeff>
1.50

>  <CAS>
168759-60-2

>  <MW>
225.04

>  <Description>
solid

>  <FSP3>
0.00

>  <clogP>
2.44

>  <TPSA>
26.30

>  <Acceptor>
2

>  <Donor>
0

>  <RotBonds>
0

>  <HAC>
12

>  <Collection>
Advanced

>  <PPDS>
+

$$$$
F1903-9727
  Mrv2219 10102508112D          

 17 16  0  0  0  0            999 V2000
    7.0646   -5.9999    0.0000 N   0  0  0  0  0  0  0  0  0  0  0  0
    6.3423   -5.5866    0.0000 C   0  0  0  0  0  0  0  0  0  0  0  0
    4.9144   -4.7598    0.0000 C   0  0  0  0  0  0  0  0  0  0  0  0
    4.2004   -4.3465    0.0000 N   0  0  0  0  0  0  0  0  0  0  0  0
    7.0646   -6.8266    0.0000 C   0  0  0  0  0  0  0  0  0  0  0  0
    6.3423   -4.7515    0.0000 C   0  0  0  0  0  0  0  0  0  0  0  0
    5.6283   -5.9999    0.0000 C   0  0  0  0  0  0  0  0  0  0  0  0
    5.6283   -4.3382    0.0000 C   0  0  0  0  0  0  0  0  0  0  0  0
    4.9144   -5.5866    0.0000 C   0  0  0  0  0  0  0  0  0  0  0  0
    4.2004   -3.5198    0.0000 C   0  0  0  0  0  0  0  0  0  0  0  0
    6.3506   -7.2400    0.0000 C   0  0  0  0  0  0  0  0  0  0  0  0
    7.7786   -7.2317    0.0000 C   0  0  0  0  0  0  0  0  0  0  0  0
    7.7828   -8.0584    0.0000 C   0  0  0  0  0  0  0  0  0  0  0  0
    6.3506   -8.0584    0.0000 C   0  0  0  0  0  0  0  0  0  0  0  0
    7.0688   -8.4717    0.0000 C   0  0  0  0  0  0  0  0  0  0  0  0
    9.1732   -5.3569    0.0000 Cl  0  0  0  0  0  0  0  0  0  0  0  0
    9.2984   -6.4425    0.0000 Cl  0  0  0  0  0  0  0  0  0  0  0  0
  4  3  1  0  0  0  0
  5  1  1  0  0  0  0
  6  2  1  0  0  0  0
  7  2  2  0  0  0  0
  8  6  2  0  0  0  0
  9  7  1  0  0  0  0
 10  4  1  0  0  0  0
 11  5  2  0  0  0  0
 12  5  1  0  0  0  0
 13 12  2  0  0  0  0
 14 11  1  0  0  0  0
 15 13  1  0  0  0  0
  8  3  1  0  0  0  0
 14 15  2  0  0  0  0
  2  1  1  0  0  0  0
  3  9  2  0  0  0  0
M  END
>  <IDNUMBER>
F1903-9727

>  <Chemical_Name>
N1-methyl-N4-phenylbenzene-1,4-diamine dihydrochloride

>  <PriceCoeff>
1.00

>  <CAS>
2355385-15-6

>  <MW>
198.27

>  <Description>
solid

>  <FSP3>
0.08

>  <clogP>
2.89

>  <TPSA>
24.06

>  <Acceptor>
2

>  <Donor>
2

>  <RotBonds>
3

>  <HAC>
15

>  <Collection>
General

>  <PPDS>
+

$$$$
F1903-9745
  Mrv2219 10102508112D          

 11 11  0  0  0  0            999 V2000
    4.6558   -0.1538    0.0000 C   0  0  0  0  0  0  0  0  0  0  0  0
    4.6558   -0.9852    0.0000 C   0  0  0  0  0  0  0  0  0  0  0  0
    3.9408   -1.3967    0.0000 N   0  0  0  0  0  0  0  0  0  0  0  0
    5.3666    0.2577    0.0000 C   0  0  0  0  0  0  0  0  0  0  0  0
    3.9408    0.2577    0.0000 C   0  0  0  0  0  0  0  0  0  0  0  0
    5.3624    1.0808    0.0000 O   0  0  0  0  0  0  0  0  0  0  0  0
    5.3666   -1.3967    0.0000 S   0  0  0  0  0  0  0  0  0  0  0  0
    3.2299   -0.9852    0.0000 C   0  0  0  0  0  0  0  0  0  0  0  0
    3.2299   -0.1538    0.0000 C   0  0  0  0  0  0  0  0  0  0  0  0
    6.0775   -0.1496    0.0000 O   0  0  0  0  0  0  0  0  0  0  0  0
    2.5108   -1.3967    0.0000 C   0  0  0  0  0  0  0  0  0  0  0  0
  2  1  1  0  0  0  0
  3  2  2  0  0  0  0
  4  1  1  0  0  0  0
  5  1  2  0  0  0  0
  6  4  2  0  0  0  0
  7  2  1  0  0  0  0
  8  9  2  0  0  0  0
  9  5  1  0  0  0  0
 10  4  1  0  0  0  0
 11  8  1  0  0  0  0
  3  8  1  0  0  0  0
M  END
>  <IDNUMBER>
F1903-9745

>  <Chemical_Name>
6-methyl-2-sulfanylpyridine-3-carboxylic acid

>  <PriceCoeff>
1.00

>  <CAS>
3395-05-9

>  <MW>
169.20

>  <Description>
solid

>  <FSP3>
0.14

>  <clogP>
2.13

>  <TPSA>
88.99

>  <Acceptor>
3

>  <Donor>
2

>  <RotBonds>
1

>  <HAC>
11

>  <Collection>
General

>  <PPDS>
+

$$$$
F1905-0470
  Mrv2219 10102508112D          

 10 10  0  0  0  0            999 V2000
    1.4280    0.8267    0.0000 N   0  0  0  0  0  0  0  0  0  0  0  0
    0.7140    1.2401    0.0000 C   0  0  0  0  0  0  0  0  0  0  0  0
    0.7140    2.0668    0.0000 O   0  0  0  0  0  0  0  0  0  0  0  0
    2.1461    1.2401    0.0000 C   0  0  0  0  0  0  0  0  0  0  0  0
    1.4280    0.0000    0.0000 C   0  0  0  0  0  0  0  0  0  0  0  0
    0.0000    0.8267    0.0000 C   0  0  0  0  0  0  0  0  0  0  0  0
    3.5741    1.2401    0.0000 O   0  0  0  0  0  0  0  0  0  0  0  0
    2.8601    0.8267    0.0000 C   0  0  0  0  0  0  0  0  0  0  0  0
    0.7140   -0.4134    0.0000 C   0  0  0  0  0  0  0  0  0  0  0  0
    0.0000    0.0000    0.0000 C   0  0  0  0  0  0  0  0  0  0  0  0
  2  1  1  0  0  0  0
  3  2  2  0  0  0  0
  4  1  1  0  0  0  0
  5  1  1  0  0  0  0
  6  2  1  0  0  0  0
  7  8  1  0  0  0  0
  8  4  1  0  0  0  0
  9  5  1  0  0  0  0
 10  9  1  0  0  0  0
 10  6  1  0  0  0  0
M  END
>  <IDNUMBER>
F1905-0470

>  <Chemical_Name>
1-(2-hydroxyethyl)piperidin-2-one

>  <PriceCoeff>
1.50

>  <CAS>
3445-12-3

>  <MW>
143.19

>  <Description>
oil

>  <FSP3>
0.86

>  <clogP>
-0.60

>  <TPSA>
40.54

>  <Acceptor>
2

>  <Donor>
1

>  <RotBonds>
2

>  <HAC>
10

>  <Collection>
Advanced

$$$$
F1905-6545
  Mrv2219 10102508112D          

 35 35  0  0  0  0            999 V2000
   -0.5625   -0.6375    0.0000 C   0  0  0  0  0  0  0  0  0  0  0  0
    0.8667    0.1875    0.0000 C   0  0  0  0  0  0  0  0  0  0  0  0
    0.1500   -1.0500    0.0000 C   0  0  0  0  0  0  0  0  0  0  0  0
   -0.5625    0.1875    0.0000 C   0  0  0  0  0  0  0  0  0  0  0  0
    1.5875    0.6000    0.0000 C   0  0  0  0  0  0  0  0  0  0  0  0
    0.1500    0.6000    0.0000 C   0  0  0  0  0  0  0  0  0  0  0  0
    0.8667   -0.6375    0.0000 C   0  0  0  0  0  0  0  0  0  0  0  0
    3.0042   -1.8792    0.0000 N   0  3  0  0  0  0  0  0  0  0  0  0
    1.5917    1.4250    0.0000 O   0  0  0  0  0  0  0  0  0  0  0  0
    2.3000    0.1833    0.0000 O   0  0  0  0  0  0  0  0  0  0  0  0
   -1.2833   -1.0625    0.0000 O   0  0  0  0  0  0  0  0  0  0  0  0
   -1.2833    0.6042    0.0000 O   0  0  0  0  0  0  0  0  0  0  0  0
    0.1500   -1.8750    0.0000 O   0  0  0  0  0  0  0  0  0  0  0  0
    2.2917   -0.6417    0.0000 C   0  0  0  0  0  0  0  0  0  0  0  0
    3.0042   -1.0542    0.0000 C   0  0  0  0  0  0  0  0  0  0  0  0
    2.1792   -1.8792    0.0000 C   0  0  0  0  0  0  0  0  0  0  0  0
    3.8292   -1.8792    0.0000 C   0  0  0  0  0  0  0  0  0  0  0  0
    3.0042   -2.7042    0.0000 C   0  0  0  0  0  0  0  0  0  0  0  0
   -2.0083   -0.6542    0.0000 C   0  0  0  0  0  0  0  0  0  0  0  0
   -1.4750    1.5625    0.0000 C   0  0  0  0  0  0  0  0  0  0  0  0
   -0.6000   -2.4375    0.0000 C   0  0  0  0  0  0  0  0  0  0  0  0
    4.5167   -1.2792    0.0000 C   0  0  0  0  0  0  0  0  0  0  0  0
    1.8292   -2.5625    0.0000 C   0  0  0  0  0  0  0  0  0  0  0  0
    3.8000   -3.1167    0.0000 C   0  0  0  0  0  0  0  0  0  0  0  0
    7.2923    0.2942    0.0000 S   0  0  0  0  0  0  0  0  0  0  0  0
    6.9579   -0.4581    0.0000 C   0  0  0  0  0  0  0  0  0  0  0  0
    8.0447   -0.0402    0.0000 O   0  5  0  0  0  0  0  0  0  0  0  0
    7.6243    1.0499    0.0000 O   0  0  0  0  0  0  0  0  0  0  0  0
    6.5376    0.6320    0.0000 O   0  0  0  0  0  0  0  0  0  0  0  0
    7.4473   -1.1326    0.0000 C   0  0  0  0  0  0  0  0  0  0  0  0
    6.1390   -0.5427    0.0000 C   0  0  0  0  0  0  0  0  0  0  0  0
    7.1129   -1.8849    0.0000 C   0  0  0  0  0  0  0  0  0  0  0  0
    5.8094   -1.3017    0.0000 C   0  0  0  0  0  0  0  0  0  0  0  0
    6.2940   -1.9694    0.0000 C   0  0  0  0  0  0  0  0  0  0  0  0
    5.9562   -2.7242    0.0000 C   0  0  0  0  0  0  0  0  0  0  0  0
 13  3  1  0  0  0  0
 14 10  1  0  0  0  0
 15 14  1  0  0  0  0
 16  8  1  0  0  0  0
 17  8  1  0  0  0  0
 18  8  1  0  0  0  0
 19 11  1  0  0  0  0
 20 12  1  0  0  0  0
 21 13  1  0  0  0  0
 22 17  1  0  0  0  0
 23 16  1  0  0  0  0
 24 18  1  0  0  0  0
  6  2  2  0  0  0  0
  2  7  1  0  0  0  0
  3  1  1  0  0  0  0
  4  1  2  0  0  0  0
  5  2  1  0  0  0  0
  6  4  1  0  0  0  0
  7  3  2  0  0  0  0
  8 15  1  0  0  0  0
  9  5  2  0  0  0  0
 10  5  1  0  0  0  0
 11  1  1  0  0  0  0
 12  4  1  0  0  0  0
 26 25  1  0  0  0  0
 27 25  1  0  0  0  0
 28 25  2  0  0  0  0
 29 25  2  0  0  0  0
 30 26  1  0  0  0  0
 31 26  2  0  0  0  0
 32 30  2  0  0  0  0
 33 31  1  0  0  0  0
 34 33  2  0  0  0  0
 35 34  1  0  0  0  0
 34 32  1  0  0  0  0
M  CHG  2   8   1  27  -1
M  END
>  <IDNUMBER>
F1905-6545

>  <Chemical_Name>
triethyl[2-(3,4,5-trimethoxybenzoyloxy)ethyl]azanium 4-methylbenzene-1-sulfonate

>  <PriceCoeff>
1.00

>  <CAS>
391-70-8

>  <MW>
340.44

>  <Description>
solid

>  <FSP3>
0.61

>  <clogP>
-1.57

>  <TPSA>
53.99

>  <Acceptor>
5

>  <Donor>
0

>  <RotBonds>
11

>  <HAC>
24

>  <Collection>
General

$$$$
F1905-7074
  Mrv2219 10102508112D          

 11 12  0  0  0  0            999 V2000
    0.7128   -1.2380    0.0000 C   0  0  0  0  0  0  0  0  0  0  0  0
    0.0417   -1.7173    0.0000 N   0  0  0  0  0  0  0  0  0  0  0  0
    1.3797   -1.7173    0.0000 N   0  0  0  0  0  0  0  0  0  0  0  0
    0.7128   -0.4127    0.0000 C   0  0  0  0  0  0  0  0  0  0  0  0
    0.3001   -2.5051    0.0000 C   0  0  0  0  0  0  0  0  0  0  0  0
    1.4255    0.0000    0.0000 N   0  0  0  0  0  0  0  0  0  0  0  0
    1.1254   -2.5051    0.0000 C   0  0  0  0  0  0  0  0  0  0  0  0
    1.4255    0.8336    0.0000 C   0  0  0  0  0  0  0  0  0  0  0  0
    0.0000    0.0000    0.0000 C   0  0  0  0  0  0  0  0  0  0  0  0
    0.7128    1.2463    0.0000 C   0  0  0  0  0  0  0  0  0  0  0  0
    0.0000    0.8336    0.0000 C   0  0  0  0  0  0  0  0  0  0  0  0
  2  1  2  0  0  0  0
  3  1  1  0  0  0  0
  4  1  1  0  0  0  0
  5  2  1  0  0  0  0
  6  4  1  0  0  0  0
  7  3  1  0  0  0  0
  8  6  2  0  0  0  0
  9  4  2  0  0  0  0
 10 11  2  0  0  0  0
 11  9  1  0  0  0  0
  7  5  2  0  0  0  0
  8 10  1  0  0  0  0
M  END
>  <IDNUMBER>
F1905-7074

>  <Chemical_Name>
2-(1H-imidazol-2-yl)pyridine

>  <PriceCoeff>
1.50

>  <CAS>
18653-75-3

>  <MW>
145.16

>  <Description>
solid

>  <FSP3>
0.00

>  <clogP>
1.05

>  <TPSA>
41.57

>  <Acceptor>
3

>  <Donor>
3

>  <RotBonds>
1

>  <HAC>
11

>  <Collection>
Advanced

>  <PPDS>
+

$$$$
F1906-0442
  Mrv2219 10102508112D          

 12 12  0  0  0  0            999 V2000
    4.5375   -3.3792    0.0000 N   0  0  0  0  0  0  0  0  0  0  0  0
    0.2500   -3.3917    0.0000 C   0  0  0  0  0  0  0  0  0  0  0  0
    0.9625   -2.9792    0.0000 O   0  0  0  0  0  0  0  0  0  0  0  0
    3.8167   -2.9667    0.0000 C   0  0  0  0  0  0  0  0  0  0  0  0
    1.6792   -3.3875    0.0000 C   0  0  0  0  0  0  0  0  0  0  0  0
    0.2500   -4.2250    0.0000 C   0  0  0  0  0  0  0  0  0  0  0  0
   -0.4708   -2.9792    0.0000 C   0  0  0  0  0  0  0  0  0  0  0  0
    3.1042   -3.3792    0.0000 C   0  0  0  0  0  0  0  0  0  0  0  0
    2.3917   -2.9750    0.0000 C   0  0  0  0  0  0  0  0  0  0  0  0
   -0.4708   -4.6375    0.0000 C   0  0  0  0  0  0  0  0  0  0  0  0
   -1.1833   -3.4000    0.0000 C   0  0  0  0  0  0  0  0  0  0  0  0
   -1.1833   -4.2250    0.0000 C   0  0  0  0  0  0  0  0  0  0  0  0
  2  3  1  0  0  0  0
  3  5  1  0  0  0  0
  4  1  1  0  0  0  0
  5  9  1  0  0  0  0
  6  2  1  0  0  0  0
  7  2  2  0  0  0  0
  8  4  1  0  0  0  0
  9  8  1  0  0  0  0
 10  6  2  0  0  0  0
 11  7  1  0  0  0  0
 12 11  2  0  0  0  0
 12 10  1  0  0  0  0
M  END
>  <IDNUMBER>
F1906-0442

>  <Chemical_Name>
4-phenoxybutan-1-amine

>  <PriceCoeff>
1.00

>  <CAS>
16728-66-8

>  <MW>
165.24

>  <Description>
liquid

>  <FSP3>
0.40

>  <clogP>
1.60

>  <TPSA>
35.25

>  <Acceptor>
1

>  <Donor>
1

>  <RotBonds>
5

>  <HAC>
12

>  <Collection>
General

>  <PPDS>
+

$$$$
F1907-0022
  Mrv2219 10102508112D          

 17 19  0  0  0  0            999 V2000
    7.8480   -2.2310    0.0000 N   0  0  0  0  0  0  0  0  0  0  0  0
    8.6737   -2.3186    0.0000 C   0  0  0  0  0  0  0  0  0  0  0  0
    8.8446   -3.1317    0.0000 N   0  0  0  0  0  0  0  0  0  0  0  0
    7.5060   -2.9816    0.0000 C   0  0  0  0  0  0  0  0  0  0  0  0
    8.1190   -3.5445    0.0000 O   0  0  0  0  0  0  0  0  0  0  0  0
    9.2116   -1.6931    0.0000 C   0  0  0  0  0  0  0  0  0  0  0  0
    5.7588   -1.7514    0.0000 N   0  0  0  0  0  0  0  0  0  0  0  0
   10.5627   -1.2052    0.0000 C   0  0  0  0  0  0  0  0  0  0  0  0
    6.1758   -2.4687    0.0000 C   0  0  0  0  0  0  0  0  0  0  0  0
   10.0248   -1.8307    0.0000 C   0  0  0  0  0  0  0  0  0  0  0  0
    6.6971   -3.1067    0.0000 C   0  0  0  0  0  0  0  0  0  0  0  0
   10.2750   -0.4295    0.0000 C   0  0  0  0  0  0  0  0  0  0  0  0
   11.3884   -1.1676    0.0000 O   0  0  0  0  0  0  0  0  0  0  0  0
   10.9255    0.0834    0.0000 O   0  0  0  0  0  0  0  0  0  0  0  0
   11.6135   -0.3795    0.0000 C   0  0  0  0  0  0  0  0  0  0  0  0
    8.9364   -0.9299    0.0000 C   0  0  0  0  0  0  0  0  0  0  0  0
    9.4493   -0.2919    0.0000 C   0  0  0  0  0  0  0  0  0  0  0  0
  2  1  1  0  0  0  0
  3  2  2  0  0  0  0
  4  1  2  0  0  0  0
  5  4  1  0  0  0  0
  6  2  1  0  0  0  0
  7  9  3  0  0  0  0
  8 10  2  0  0  0  0
  9 11  1  0  0  0  0
 10  6  1  0  0  0  0
 11  4  1  0  0  0  0
 12 17  2  0  0  0  0
 13  8  1  0  0  0  0
 14 12  1  0  0  0  0
 15 13  1  0  0  0  0
 16  6  2  0  0  0  0
 17 16  1  0  0  0  0
  5  3  1  0  0  0  0
  8 12  1  0  0  0  0
 14 15  1  0  0  0  0
M  END
>  <IDNUMBER>
F1907-0022

>  <Chemical_Name>
2-[3-(2H-1,3-benzodioxol-5-yl)-1,2,4-oxadiazol-5-yl]acetonitrile

>  <PriceCoeff>
1.00

>  <CAS>
919744-08-4

>  <MW>
229.19

>  <Description>
solid

>  <FSP3>
0.18

>  <clogP>
1.07

>  <TPSA>
81.17

>  <Acceptor>
6

>  <Donor>
0

>  <RotBonds>
2

>  <HAC>
17

>  <Collection>
General

>  <PPDS>
+

$$$$
F1907-0661
  Mrv2219 10102508112D          

 15 17  0  0  0  0            999 V2000
    7.2391   -7.6859    0.0000 C   0  0  0  0  0  0  0  0  0  0  0  0
    6.5234   -7.2680    0.0000 C   0  0  0  0  0  0  0  0  0  0  0  0
    7.2349   -8.5174    0.0000 C   0  0  0  0  0  0  0  0  0  0  0  0
    6.5194   -8.9227    0.0000 N   0  0  0  0  0  0  0  0  0  0  0  0
    5.8120   -7.6859    0.0000 C   0  0  0  0  0  0  0  0  0  0  0  0
    5.8078   -8.5132    0.0000 C   0  0  0  0  0  0  0  0  0  0  0  0
    6.5234   -6.4490    0.0000 O   0  0  0  0  0  0  0  0  0  0  0  0
    8.6745   -7.6900    0.0000 N   0  0  0  0  0  0  0  0  0  0  0  0
    7.9547   -7.2721    0.0000 C   0  0  0  0  0  0  0  0  0  0  0  0
    7.9505   -8.9309    0.0000 C   0  0  0  0  0  0  0  0  0  0  0  0
    5.1005   -7.2763    0.0000 C   0  0  0  0  0  0  0  0  0  0  0  0
    8.6703   -8.5214    0.0000 C   0  0  0  0  0  0  0  0  0  0  0  0
    5.1005   -8.9185    0.0000 C   0  0  0  0  0  0  0  0  0  0  0  0
    4.3931   -7.6859    0.0000 C   0  0  0  0  0  0  0  0  0  0  0  0
    4.3931   -8.5090    0.0000 C   0  0  0  0  0  0  0  0  0  0  0  0
  2  1  1  0  0  0  0
  3  1  2  0  0  0  0
  4  3  1  0  0  0  0
  5  2  1  0  0  0  0
  6  4  1  0  0  0  0
  7  2  2  0  0  0  0
  8  9  1  0  0  0  0
  9  1  1  0  0  0  0
 10  3  1  0  0  0  0
 11  5  2  0  0  0  0
 12  8  1  0  0  0  0
 13  6  2  0  0  0  0
 14 11  1  0  0  0  0
 15 13  1  0  0  0  0
 12 10  1  0  0  0  0
  6  5  1  0  0  0  0
 15 14  2  0  0  0  0
M  END
>  <IDNUMBER>
F1907-0661

>  <Chemical_Name>
1H,2H,3H,4H,5H,10H-benzo[b]1,6-naphthyridin-10-one

>  <PriceCoeff>
1.00

>  <CAS>
108651-01-0

>  <MW>
200.24

>  <Description>
solid

>  <FSP3>
0.25

>  <clogP>
0.75

>  <TPSA>
41.13

>  <Acceptor>
2

>  <Donor>
2

>  <RotBonds>
0

>  <HAC>
15

>  <Collection>
General

$$$$
F1909-1624
  Mrv2219 10102508112D          

 15 14  0  0  0  0            999 V2000
    0.4802    0.5386    0.0000 C   0  0  0  0  0  0  0  0  0  0  0  0
    1.1942    0.1253    0.0000 C   0  0  0  0  0  0  0  0  0  0  0  0
    4.7724    0.5720    0.0000 N   0  0  0  0  0  0  0  0  0  0  0  0
    1.9081    0.5469    0.0000 O   0  0  0  0  0  0  0  0  0  0  0  0
    0.4760    1.3653    0.0000 O   0  0  0  0  0  0  0  0  0  0  0  0
    3.3444    0.5511    0.0000 C   0  0  0  0  0  0  0  0  0  0  0  0
    4.0626    0.1461    0.0000 C   0  0  0  0  0  0  0  0  0  0  0  0
    2.6304    0.1336    0.0000 C   0  0  0  0  0  0  0  0  0  0  0  0
    1.1942   -0.7057    0.0000 C   0  0  0  0  0  0  0  0  0  0  0  0
   -0.2338    0.1253    0.0000 C   0  0  0  0  0  0  0  0  0  0  0  0
    5.4906    0.1586    0.0000 C   0  0  0  0  0  0  0  0  0  0  0  0
    1.1942    1.7787    0.0000 C   0  0  0  0  0  0  0  0  0  0  0  0
   -0.2338   -0.7057    0.0000 C   0  0  0  0  0  0  0  0  0  0  0  0
    0.4802   -1.1190    0.0000 C   0  0  0  0  0  0  0  0  0  0  0  0
    6.8809    0.4259    0.0000 Cl  0  0  0  0  0  0  0  0  0  0  0  0
  3  7  1  0  0  0  0
  4  2  1  0  0  0  0
  5  1  1  0  0  0  0
  6  8  1  0  0  0  0
  7  6  1  0  0  0  0
  8  4  1  0  0  0  0
  9  2  1  0  0  0  0
 10  1  1  0  0  0  0
 11  3  1  0  0  0  0
 12  5  1  0  0  0  0
 13 10  2  0  0  0  0
 14 13  1  0  0  0  0
 14  9  2  0  0  0  0
  2  1  2  0  0  0  0
M  END
>  <IDNUMBER>
F1909-1624

>  <Chemical_Name>
[3-(2-methoxyphenoxy)propyl](methyl)amine hydrochloride

>  <PriceCoeff>
1.00

>  <CAS>
1609407-81-9

>  <MW>
195.26

>  <Description>
solid

>  <FSP3>
0.45

>  <clogP>
1.35

>  <TPSA>
30.49

>  <Acceptor>
2

>  <Donor>
1

>  <RotBonds>
6

>  <HAC>
14

>  <Collection>
General

>  <PPDS>
+

$$$$
F1911-8405
  Mrv2219 10102508112D          

 17 18  0  0  0  0            999 V2000
    2.2834  -14.5536    0.0000 C   0  0  0  0  0  0  0  0  0  0  0  0
    1.5640  -14.1418    0.0000 C   0  0  0  0  0  0  0  0  0  0  0  0
    2.2876  -15.3772    0.0000 O   0  0  0  0  0  0  0  0  0  0  0  0
   -0.5740  -12.9189    0.0000 O   0  0  0  0  0  0  0  0  0  0  0  0
    0.8527  -14.5619    0.0000 C   0  0  0  0  0  0  0  0  0  0  0  0
    1.5598  -13.3183    0.0000 C   0  0  0  0  0  0  0  0  0  0  0  0
    0.1415  -13.3307    0.0000 C   0  0  0  0  0  0  0  0  0  0  0  0
    2.9947  -14.1418    0.0000 O   0  0  0  0  0  0  0  0  0  0  0  0
    0.8402  -12.9147    0.0000 C   0  0  0  0  0  0  0  0  0  0  0  0
    0.1415  -14.1542    0.0000 C   0  0  0  0  0  0  0  0  0  0  0  0
   -1.2852  -13.3390    0.0000 C   0  0  0  0  0  0  0  0  0  0  0  0
    3.7059  -14.5494    0.0000 C   0  0  0  0  0  0  0  0  0  0  0  0
   -2.0048  -12.9272    0.0000 C   0  0  0  0  0  0  0  0  0  0  0  0
   -1.2852  -14.1667    0.0000 C   0  0  0  0  0  0  0  0  0  0  0  0
   -2.7160  -13.3390    0.0000 C   0  0  0  0  0  0  0  0  0  0  0  0
   -2.0048  -14.5785    0.0000 C   0  0  0  0  0  0  0  0  0  0  0  0
   -2.7160  -14.1667    0.0000 C   0  0  0  0  0  0  0  0  0  0  0  0
  2  1  1  0  0  0  0
  3  1  2  0  0  0  0
  4  7  1  0  0  0  0
  5  2  2  0  0  0  0
  6  2  1  0  0  0  0
  7  9  1  0  0  0  0
  8  1  1  0  0  0  0
  9  6  2  0  0  0  0
 10  5  1  0  0  0  0
 11  4  1  0  0  0  0
 12  8  1  0  0  0  0
 13 11  2  0  0  0  0
 14 11  1  0  0  0  0
 15 13  1  0  0  0  0
 16 14  2  0  0  0  0
 17 16  1  0  0  0  0
  7 10  2  0  0  0  0
 15 17  2  0  0  0  0
M  END
>  <IDNUMBER>
F1911-8405

>  <Chemical_Name>
methyl 4-phenoxybenzoate

>  <PriceCoeff>
1.00

>  <CAS>
21218-94-0

>  <MW>
228.25

>  <Description>
solid

>  <FSP3>
0.07

>  <clogP>
4.21

>  <TPSA>
35.53

>  <Acceptor>
3

>  <Donor>
0

>  <RotBonds>
4

>  <HAC>
17

>  <Collection>
General

$$$$
F1913-0569
  Mrv2219 10102508112D          

 13 14  0  0  0  0            999 V2000
    6.3967   -1.2361    0.0000 N   0  0  0  0  0  0  0  0  0  0  0  0
    5.6101   -0.1540    0.0000 C   0  0  0  0  0  0  0  0  0  0  0  0
    6.8836   -0.5660    0.0000 C   0  0  0  0  0  0  0  0  0  0  0  0
    6.3967    0.1082    0.0000 C   0  0  0  0  0  0  0  0  0  0  0  0
    5.6101   -0.9781    0.0000 C   0  0  0  0  0  0  0  0  0  0  0  0
    4.8943    0.2580    0.0000 C   0  0  0  0  0  0  0  0  0  0  0  0
    4.8943   -1.3901    0.0000 C   0  0  0  0  0  0  0  0  0  0  0  0
    4.1826   -0.1540    0.0000 C   0  0  0  0  0  0  0  0  0  0  0  0
    4.1826   -0.9781    0.0000 C   0  0  0  0  0  0  0  0  0  0  0  0
    3.4709    0.2580    0.0000 F   0  0  0  0  0  0  0  0  0  0  0  0
    7.7077    1.8436    0.0000 N   0  0  0  0  0  0  0  0  0  0  0  0
    6.6464    0.8865    0.0000 C   0  0  0  0  0  0  0  0  0  0  0  0
    7.4580    1.0613    0.0000 C   0  0  0  0  0  0  0  0  0  0  0  0
  2  5  1  0  0  0  0
  3  1  1  0  0  0  0
  4  3  2  0  0  0  0
  5  1  1  0  0  0  0
  6  2  2  0  0  0  0
  7  5  2  0  0  0  0
  8  9  2  0  0  0  0
  9  7  1  0  0  0  0
 10  8  1  0  0  0  0
 11 13  1  0  0  0  0
 12  4  1  0  0  0  0
 13 12  1  0  0  0  0
  4  2  1  0  0  0  0
  6  8  1  0  0  0  0
M  END
>  <IDNUMBER>
F1913-0569

>  <Chemical_Name>
2-(5-fluoro-1H-indol-3-yl)ethan-1-amine

>  <PriceCoeff>
1.50

>  <MW>
178.21

>  <Description>
solid

>  <FSP3>
0.20

>  <clogP>
1.63

>  <TPSA>
41.81

>  <Acceptor>
0

>  <Donor>
2

>  <RotBonds>
2

>  <HAC>
13

>  <Collection>
Advanced

$$$$
F1913-0574
  Mrv2219 10102508112D          

 11 11  0  0  0  0            999 V2000
    8.4688   -5.8470    0.0000 C   0  0  0  0  0  0  0  0  0  0  0  0
    7.8654   -5.2935    0.0000 C   0  0  0  0  0  0  0  0  0  0  0  0
    8.3023   -6.6543    0.0000 O   0  0  0  0  0  0  0  0  0  0  0  0
    5.9969   -6.3339    0.0000 O   0  0  0  0  0  0  0  0  0  0  0  0
    7.0788   -5.5474    0.0000 C   0  0  0  0  0  0  0  0  0  0  0  0
    9.2554   -5.5931    0.0000 O   0  0  0  0  0  0  0  0  0  0  0  0
    6.8208   -6.3339    0.0000 C   0  0  0  0  0  0  0  0  0  0  0  0
    8.0319   -4.4862    0.0000 C   0  0  0  0  0  0  0  0  0  0  0  0
    5.7472   -5.5474    0.0000 C   0  0  0  0  0  0  0  0  0  0  0  0
    6.4088   -5.0605    0.0000 C   0  0  0  0  0  0  0  0  0  0  0  0
    9.8671   -6.1467    0.0000 C   0  0  0  0  0  0  0  0  0  0  0  0
  2  1  1  0  0  0  0
  3  1  2  0  0  0  0
  4  7  1  0  0  0  0
  5  2  1  0  0  0  0
  6  1  1  0  0  0  0
  7  5  1  0  0  0  0
  8  2  1  0  0  0  0
  9 10  1  0  0  0  0
 10  5  1  0  0  0  0
 11  6  1  0  0  0  0
  9  4  1  0  0  0  0
M  END
>  <IDNUMBER>
F1913-0574

>  <Chemical_Name>
methyl 2-(oxolan-3-yl)propanoate

>  <PriceCoeff>
1.50

>  <MW>
158.20

>  <Description>
liquid

>  <FSP3>
0.88

>  <clogP>
0.71

>  <TPSA>
35.53

>  <Acceptor>
3

>  <Donor>
0

>  <RotBonds>
3

>  <HAC>
11

>  <Collection>
Advanced

$$$$
F1913-0659
  Mrv2219 10102508112D          

 13 12  0  0  0  0            999 V2000
   -5.6190    3.2648    0.0000 C   0  0  0  0  0  0  0  0  0  0  0  0
   -4.9006    2.8480    0.0000 O   0  0  0  0  0  0  0  0  0  0  0  0
   -6.3245    2.8480    0.0000 C   0  0  0  0  0  0  0  0  0  0  0  0
   -5.6190    4.0923    0.0000 O   0  0  0  0  0  0  0  0  0  0  0  0
   -6.3245    2.0333    0.0000 C   0  0  0  0  0  0  0  0  0  0  0  0
   -4.9006    4.4964    0.0000 C   0  0  0  0  0  0  0  0  0  0  0  0
   -5.6190    1.6164    0.0000 C   0  0  0  0  0  0  0  0  0  0  0  0
   -7.0494    1.6164    0.0000 C   0  0  0  0  0  0  0  0  0  0  0  0
   -7.7550    2.0333    0.0000 C   0  0  0  0  0  0  0  0  0  0  0  0
   -4.9006    2.0333    0.0000 C   0  0  0  0  0  0  0  0  0  0  0  0
   -4.9006    5.3239    0.0000 C   0  0  0  0  0  0  0  0  0  0  0  0
   -8.4669    1.6164    0.0000 C   0  0  0  0  0  0  0  0  0  0  0  0
   -4.1885    1.6099    0.0000 C   0  0  0  0  0  0  0  0  0  0  0  0
  2  1  2  0  0  0  0
  3  1  1  0  0  0  0
  4  1  1  0  0  0  0
  5  3  1  0  0  0  0
  6  4  1  0  0  0  0
  7  5  1  0  0  0  0
  8  5  1  0  0  0  0
  9  8  1  0  0  0  0
 10  7  1  0  0  0  0
 11  6  1  0  0  0  0
 12  9  1  0  0  0  0
 13 10  1  0  0  0  0
M  END
>  <IDNUMBER>
F1913-0659

>  <Chemical_Name>
ethyl 3-propylhexanoate

>  <PriceCoeff>
1.00

>  <CAS>
1089315-43-4

>  <MW>
186.29

>  <Description>
liquid

>  <FSP3>
0.91

>  <clogP>
3.49

>  <TPSA>
26.30

>  <Acceptor>
2

>  <Donor>
0

>  <RotBonds>
8

>  <HAC>
13

>  <Collection>
General

$$$$
F1913-1244
  Mrv2219 10102508112D          

 13 14  0  0  0  0            999 V2000
    6.2487   -0.7892    0.0000 N   0  0  0  0  0  0  0  0  0  0  0  0
    5.5624   -0.3241    0.0000 C   0  0  0  0  0  0  0  0  0  0  0  0
    5.7987    0.4575    0.0000 C   0  0  0  0  0  0  0  0  0  0  0  0
    6.9081   -0.2783    0.0000 C   0  0  0  0  0  0  0  0  0  0  0  0
    6.6222    0.4803    0.0000 C   0  0  0  0  0  0  0  0  0  0  0  0
    4.7693   -0.5261    0.0000 C   0  0  0  0  0  0  0  0  0  0  0  0
    8.3721    1.8033    0.0000 N   0  0  0  0  0  0  0  0  0  0  0  0
    5.2269    1.0522    0.0000 C   0  0  0  0  0  0  0  0  0  0  0  0
    7.0835    1.1742    0.0000 C   0  0  0  0  0  0  0  0  0  0  0  0
    4.4187    0.8654    0.0000 C   0  0  0  0  0  0  0  0  0  0  0  0
    4.1899    0.0572    0.0000 C   0  0  0  0  0  0  0  0  0  0  0  0
    4.5330   -1.3191    0.0000 C   0  0  0  0  0  0  0  0  0  0  0  0
    7.9070    1.1170    0.0000 C   0  0  0  0  0  0  0  0  0  0  0  0
  2  1  1  0  0  0  0
  3  2  2  0  0  0  0
  4  1  1  0  0  0  0
  5  4  2  0  0  0  0
  6  2  1  0  0  0  0
  7 13  1  0  0  0  0
  8  3  1  0  0  0  0
  9  5  1  0  0  0  0
 10 11  1  0  0  0  0
 11  6  2  0  0  0  0
 12  6  1  0  0  0  0
 13  9  1  0  0  0  0
  5  3  1  0  0  0  0
 10  8  2  0  0  0  0
M  END
>  <IDNUMBER>
F1913-1244

>  <Chemical_Name>
2-(7-methyl-1H-indol-3-yl)ethan-1-amine

>  <PriceCoeff>
1.00

>  <CAS>
14490-05-2

>  <MW>
174.25

>  <Description>
solid

>  <FSP3>
0.27

>  <clogP>
2.00

>  <TPSA>
41.81

>  <Acceptor>
0

>  <Donor>
2

>  <RotBonds>
2

>  <HAC>
13

>  <Collection>
General

>  <PPDS>
+

$$$$
F1913-1517
  Mrv2219 10102508112D          

 14 14  0  0  0  0            999 V2000
    5.4278   -2.4855    0.0000 N   0  0  0  0  0  0  0  0  0  0  0  0
    5.0075   -1.2245    0.0000 C   0  0  0  0  0  0  0  0  0  0  0  0
    6.0857   -2.0164    0.0000 C   0  0  0  0  0  0  0  0  0  0  0  0
    5.8299   -1.2245    0.0000 C   0  0  0  0  0  0  0  0  0  0  0  0
    4.7578   -2.0164    0.0000 C   0  0  0  0  0  0  0  0  0  0  0  0
    4.4654   -0.6092    0.0000 C   0  0  0  0  0  0  0  0  0  0  0  0
    3.9537   -2.1809    0.0000 C   0  0  0  0  0  0  0  0  0  0  0  0
    3.6612   -0.7737    0.0000 C   0  0  0  0  0  0  0  0  0  0  0  0
    3.3931   -1.5717    0.0000 C   0  0  0  0  0  0  0  0  0  0  0  0
    3.1130   -0.1706    0.0000 F   0  0  0  0  0  0  0  0  0  0  0  0
    7.6088    0.0304    0.0000 N   0  0  0  0  0  0  0  0  0  0  0  0
    6.3112   -0.5544    0.0000 C   0  0  0  0  0  0  0  0  0  0  0  0
    7.1336   -0.6396    0.0000 C   0  0  0  0  0  0  0  0  0  0  0  0
    9.7835   -1.2306    0.0000 Cl  0  0  0  0  0  0  0  0  0  0  0  0
  3  1  1  0  0  0  0
  4  3  2  0  0  0  0
  5  1  1  0  0  0  0
  6  2  1  0  0  0  0
  7  5  1  0  0  0  0
  8  9  1  0  0  0  0
  9  7  2  0  0  0  0
 10  8  1  0  0  0  0
 11 13  1  0  0  0  0
 12  4  1  0  0  0  0
 13 12  1  0  0  0  0
  4  2  1  0  0  0  0
  6  8  2  0  0  0  0
  2  5  2  0  0  0  0
M  END
>  <IDNUMBER>
F1913-1517

>  <Chemical_Name>
2-(5-fluoro-1H-indol-3-yl)ethan-1-amine hydrochloride

>  <PriceCoeff>
1.50

>  <MW>
178.21

>  <Description>
solid

>  <FSP3>
0.20

>  <clogP>
1.63

>  <TPSA>
41.81

>  <Acceptor>
0

>  <Donor>
2

>  <RotBonds>
2

>  <HAC>
13

>  <Collection>
Advanced

$$$$
F1913-1938
  Mrv2219 10102508112D          

 14 15  0  0  0  0            999 V2000
   13.1042   -3.8042    0.0000 C   0  0  0  0  0  0  0  0  0  0  0  0
   12.3917   -3.3917    0.0000 C   0  0  0  0  0  0  0  0  0  0  0  0
   12.3875   -2.5667    0.0000 C   0  0  0  0  0  0  0  0  0  0  0  0
   13.1042   -4.6292    0.0000 C   0  0  0  0  0  0  0  0  0  0  0  0
   11.6667   -2.1542    0.0000 O   0  0  0  0  0  0  0  0  0  0  0  0
   13.8250   -5.0417    0.0000 C   0  0  0  0  0  0  0  0  0  0  0  0
   13.1000   -2.1500    0.0000 O   0  0  0  0  0  0  0  0  0  0  0  0
   13.8167   -3.3875    0.0000 C   0  0  0  0  0  0  0  0  0  0  0  0
   11.6792   -3.8042    0.0000 C   0  0  0  0  0  0  0  0  0  0  0  0
   12.3917   -5.0417    0.0000 C   0  0  0  0  0  0  0  0  0  0  0  0
   11.6792   -4.6292    0.0000 C   0  0  0  0  0  0  0  0  0  0  0  0
   14.5292   -3.7917    0.0000 C   0  0  0  0  0  0  0  0  0  0  0  0
   14.5375   -4.6250    0.0000 C   0  0  0  0  0  0  0  0  0  0  0  0
   13.8167   -5.8667    0.0000 C   0  0  0  0  0  0  0  0  0  0  0  0
  2  1  2  0  0  0  0
  3  2  1  0  0  0  0
  4  1  1  0  0  0  0
  5  3  2  0  0  0  0
  6  4  1  0  0  0  0
  7  3  1  0  0  0  0
  8  1  1  0  0  0  0
  9  2  1  0  0  0  0
 10  4  2  0  0  0  0
 11 10  1  0  0  0  0
 12  8  2  0  0  0  0
 13 12  1  0  0  0  0
 14  6  1  0  0  0  0
  6 13  2  0  0  0  0
  9 11  2  0  0  0  0
M  END
>  <IDNUMBER>
F1913-1938

>  <Chemical_Name>
5-methylnaphthalene-1-carboxylic acid

>  <PriceCoeff>
1.00

>  <CAS>
4527-60-0

>  <MW>
186.21

>  <Description>
solid

>  <FSP3>
0.08

>  <clogP>
3.13

>  <TPSA>
37.30

>  <Acceptor>
2

>  <Donor>
0

>  <RotBonds>
1

>  <HAC>
14

>  <Collection>
General

>  <PPDS>
+

$$$$
F1913-8005
  Mrv2219 10102508112D          

 18 18  0  0  0  0            999 V2000
   13.3568   -0.8768    0.0000 C   0  0  0  0  0  0  0  0  0  0  0  0
   13.3568   -0.0501    0.0000 N   0  0  0  0  0  0  0  0  0  0  0  0
   12.6428    1.1900    0.0000 C   0  0  0  0  0  0  0  0  0  0  0  0
   12.6428    0.3633    0.0000 C   0  0  0  0  0  0  0  0  0  0  0  0
   12.6428   -1.2902    0.0000 O   0  0  0  0  0  0  0  0  0  0  0  0
   13.3568    1.6033    0.0000 O   0  0  0  0  0  0  0  0  0  0  0  0
   14.0791   -1.2902    0.0000 O   0  0  0  0  0  0  0  0  0  0  0  0
   11.9289    1.6033    0.0000 O   0  0  0  0  0  0  0  0  0  0  0  0
   11.9289   -0.0501    0.0000 C   0  0  0  0  0  0  0  0  0  0  0  0
   14.0791   -2.1169    0.0000 C   0  0  0  0  0  0  0  0  0  0  0  0
   14.7931   -2.5302    0.0000 C   0  0  0  0  0  0  0  0  0  0  0  0
   10.5009   -0.0501    0.0000 F   0  0  0  0  0  0  0  0  0  0  0  0
   11.2149    0.3633    0.0000 C   0  0  0  0  0  0  0  0  0  0  0  0
   14.7931   -3.3569    0.0000 C   0  0  0  0  0  0  0  0  0  0  0  0
   15.5071   -2.1169    0.0000 C   0  0  0  0  0  0  0  0  0  0  0  0
   16.2210   -2.5219    0.0000 C   0  0  0  0  0  0  0  0  0  0  0  0
   15.5071   -3.7703    0.0000 C   0  0  0  0  0  0  0  0  0  0  0  0
   16.2253   -3.3569    0.0000 C   0  0  0  0  0  0  0  0  0  0  0  0
  2  1  1  0  0  0  0
  3  4  1  0  0  0  0
  4  2  1  0  0  0  0
  5  1  2  0  0  0  0
  6  3  2  0  0  0  0
  7  1  1  0  0  0  0
  8  3  1  0  0  0  0
  9  4  1  0  0  0  0
 10  7  1  0  0  0  0
 11 10  1  0  0  0  0
 12 13  1  0  0  0  0
 13  9  1  0  0  0  0
 14 11  2  0  0  0  0
 15 11  1  0  0  0  0
 16 15  2  0  0  0  0
 17 14  1  0  0  0  0
 18 16  1  0  0  0  0
 17 18  2  0  0  0  0
M  END
>  <IDNUMBER>
F1913-8005

>  <Chemical_Name>
2-{[(benzyloxy)carbonyl]amino}-4-fluorobutanoic acid

>  <PriceCoeff>
1.00

>  <CAS>
1518305-66-2

>  <MW>
255.24

>  <Description>
solid

>  <FSP3>
0.33

>  <clogP>
1.49

>  <TPSA>
75.63

>  <Acceptor>
4

>  <Donor>
1

>  <RotBonds>
7

>  <HAC>
18

>  <Collection>
General

>  <PPDS>
+

$$$$
F1913-9284
  Mrv2219 10102508112D          

 14 14  0  0  0  0            999 V2000
    6.6486    0.6340    0.0000 C   0  0  0  0  0  0  0  0  0  0  0  0
    6.6486    1.4598    0.0000 O   0  0  0  0  0  0  0  0  0  0  0  0
    5.9353    0.2210    0.0000 C   0  0  0  0  0  0  0  0  0  0  0  0
    7.3618    0.2210    0.0000 O   0  0  0  0  0  0  0  0  0  0  0  0
   10.9405    0.6340    0.0000 O   0  0  0  0  0  0  0  0  0  0  0  0
    5.2221    0.6340    0.0000 C   0  0  0  0  0  0  0  0  0  0  0  0
    5.9353   -0.6048    0.0000 C   0  0  0  0  0  0  0  0  0  0  0  0
    8.0834    0.6340    0.0000 C   0  0  0  0  0  0  0  0  0  0  0  0
   10.2273    0.2210    0.0000 C   0  0  0  0  0  0  0  0  0  0  0  0
    9.5140    0.6340    0.0000 C   0  0  0  0  0  0  0  0  0  0  0  0
    8.8008    0.2210    0.0000 C   0  0  0  0  0  0  0  0  0  0  0  0
    5.2221   -1.0178    0.0000 C   0  0  0  0  0  0  0  0  0  0  0  0
    4.5047    0.2210    0.0000 C   0  0  0  0  0  0  0  0  0  0  0  0
    4.5047   -0.6048    0.0000 C   0  0  0  0  0  0  0  0  0  0  0  0
  2  1  2  0  0  0  0
  3  1  1  0  0  0  0
  4  1  1  0  0  0  0
  5  9  1  0  0  0  0
  6  3  2  0  0  0  0
  7  3  1  0  0  0  0
  8  4  1  0  0  0  0
  9 10  1  0  0  0  0
 10 11  1  0  0  0  0
 11  8  1  0  0  0  0
 12  7  2  0  0  0  0
 13  6  1  0  0  0  0
 14 12  1  0  0  0  0
 13 14  2  0  0  0  0
M  END
>  <IDNUMBER>
F1913-9284

>  <Chemical_Name>
4-hydroxybutyl benzoate

>  <PriceCoeff>
1.00

>  <CAS>
32651-37-9

>  <MW>
194.23

>  <Description>
liquid

>  <FSP3>
0.36

>  <clogP>
1.86

>  <TPSA>
46.53

>  <Acceptor>
3

>  <Donor>
1

>  <RotBonds>
6

>  <HAC>
14

>  <Collection>
General

$$$$
F1916-0009
  Mrv2219 10102508112D          

 17 18  0  0  0  0            999 V2000
    2.2667   -1.8625    0.0000 O   0  0  0  0  0  0  0  0  0  0  0  0
   -1.3083   -3.1042    0.0000 O   0  0  0  0  0  0  0  0  0  0  0  0
    5.8417   -3.0792    0.0000 O   0  0  0  0  0  0  0  0  0  0  0  0
    1.5542   -2.2792    0.0000 C   0  0  0  0  0  0  0  0  0  0  0  0
    2.9792   -2.2667    0.0000 C   0  0  0  0  0  0  0  0  0  0  0  0
    5.1292   -3.5000    0.0000 C   0  0  0  0  0  0  0  0  0  0  0  0
   -0.5958   -3.5167    0.0000 C   0  0  0  0  0  0  0  0  0  0  0  0
    0.1250   -3.1042    0.0000 C   0  0  0  0  0  0  0  0  0  0  0  0
    4.4125   -3.0875    0.0000 C   0  0  0  0  0  0  0  0  0  0  0  0
    0.8375   -1.8667    0.0000 C   0  0  0  0  0  0  0  0  0  0  0  0
    2.9792   -3.0917    0.0000 C   0  0  0  0  0  0  0  0  0  0  0  0
    1.5542   -3.1042    0.0000 C   0  0  0  0  0  0  0  0  0  0  0  0
    3.6875   -1.8542    0.0000 C   0  0  0  0  0  0  0  0  0  0  0  0
    3.6917   -3.5042    0.0000 C   0  0  0  0  0  0  0  0  0  0  0  0
    0.1250   -2.2792    0.0000 C   0  0  0  0  0  0  0  0  0  0  0  0
    4.4042   -2.2542    0.0000 C   0  0  0  0  0  0  0  0  0  0  0  0
    0.8375   -3.5167    0.0000 C   0  0  0  0  0  0  0  0  0  0  0  0
  2  7  2  0  0  0  0
  3  6  2  0  0  0  0
  4  1  1  0  0  0  0
  5  1  1  0  0  0  0
  6  9  1  0  0  0  0
  7  8  1  0  0  0  0
  8 17  1  0  0  0  0
  9 16  1  0  0  0  0
 10  4  2  0  0  0  0
 11  5  2  0  0  0  0
 12  4  1  0  0  0  0
 13  5  1  0  0  0  0
 14 11  1  0  0  0  0
 15 10  1  0  0  0  0
 16 13  2  0  0  0  0
 17 12  2  0  0  0  0
  9 14  2  0  0  0  0
  8 15  2  0  0  0  0
M  END
>  <IDNUMBER>
F1916-0009

>  <Chemical_Name>
4-(4-formylphenoxy)benzaldehyde

>  <PriceCoeff>
1.00

>  <CAS>
2215-76-1

>  <MW>
226.23

>  <Description>
solid

>  <FSP3>
0.00

>  <clogP>
2.90

>  <TPSA>
43.37

>  <Acceptor>
3

>  <Donor>
0

>  <RotBonds>
4

>  <HAC>
17

>  <Collection>
General

>  <PPDS>
+

$$$$
F1916-0010
  Mrv2219 10102508112D          

 23 24  0  0  0  0            999 V2000
    2.1314   -9.1094    0.0000 C   0  0  0  0  0  0  0  0  0  0  0  0
   10.7153   -9.0761    0.0000 C   0  0  0  0  0  0  0  0  0  0  0  0
    1.4182   -8.6965    0.0000 O   0  0  0  0  0  0  0  0  0  0  0  0
   11.4285   -8.6632    0.0000 O   0  0  0  0  0  0  0  0  0  0  0  0
    6.4233   -7.4494    0.0000 O   0  0  0  0  0  0  0  0  0  0  0  0
    5.7101   -7.8623    0.0000 C   0  0  0  0  0  0  0  0  0  0  0  0
    7.1449   -7.8581    0.0000 C   0  0  0  0  0  0  0  0  0  0  0  0
    2.8530   -8.6965    0.0000 C   0  0  0  0  0  0  0  0  0  0  0  0
   10.0020   -8.6715    0.0000 C   0  0  0  0  0  0  0  0  0  0  0  0
    4.2836   -8.6965    0.0000 C   0  0  0  0  0  0  0  0  0  0  0  0
    8.5756   -8.6757    0.0000 C   0  0  0  0  0  0  0  0  0  0  0  0
    2.1314   -9.9353    0.0000 O   0  0  0  0  0  0  0  0  0  0  0  0
   10.7153   -9.9019    0.0000 O   0  0  0  0  0  0  0  0  0  0  0  0
    3.5662   -9.1094    0.0000 C   0  0  0  0  0  0  0  0  0  0  0  0
    9.2888   -9.0886    0.0000 C   0  0  0  0  0  0  0  0  0  0  0  0
    5.7101   -8.6965    0.0000 C   0  0  0  0  0  0  0  0  0  0  0  0
    7.8498   -7.4369    0.0000 C   0  0  0  0  0  0  0  0  0  0  0  0
    4.9969   -7.4494    0.0000 C   0  0  0  0  0  0  0  0  0  0  0  0
    7.1449   -8.6840    0.0000 C   0  0  0  0  0  0  0  0  0  0  0  0
    8.5631   -7.8456    0.0000 C   0  0  0  0  0  0  0  0  0  0  0  0
    4.9969   -9.1094    0.0000 C   0  0  0  0  0  0  0  0  0  0  0  0
    7.8581   -9.0886    0.0000 C   0  0  0  0  0  0  0  0  0  0  0  0
    4.2836   -7.8706    0.0000 C   0  0  0  0  0  0  0  0  0  0  0  0
  2  9  1  0  0  0  0
  3  1  2  0  0  0  0
  4  2  2  0  0  0  0
  5  6  1  0  0  0  0
  6 18  2  0  0  0  0
  7  5  1  0  0  0  0
  8  1  1  0  0  0  0
  9 15  1  0  0  0  0
 10 14  1  0  0  0  0
 11 22  2  0  0  0  0
 12  1  1  0  0  0  0
 13  2  1  0  0  0  0
 14  8  1  0  0  0  0
 15 11  1  0  0  0  0
 16 21  2  0  0  0  0
 17  7  1  0  0  0  0
 18 23  1  0  0  0  0
 19  7  2  0  0  0  0
 20 17  2  0  0  0  0
 21 10  1  0  0  0  0
 22 19  1  0  0  0  0
 23 10  2  0  0  0  0
  6 16  1  0  0  0  0
 20 11  1  0  0  0  0
M  END
>  <IDNUMBER>
F1916-0010

>  <Chemical_Name>
3-{4-[4-(2-carboxyethyl)phenoxy]phenyl}propanoic acid

>  <PriceCoeff>
1.00

>  <CAS>
13655-10-2

>  <MW>
314.33

>  <Description>
solid

>  <FSP3>
0.22

>  <clogP>
3.76

>  <TPSA>
83.83

>  <Acceptor>
5

>  <Donor>
0

>  <RotBonds>
8

>  <HAC>
23

>  <Collection>
General

>  <PPDS>
+

$$$$
F1916-0069
  Mrv2219 10102508112D          

 24 26  0  0  0  0            999 V2000
    3.5792  -16.3917    0.0000 N   0  0  0  0  0  0  0  0  0  0  0  0
    5.0000  -15.5667    0.0000 N   0  0  0  0  0  0  0  0  0  0  0  0
    4.2875  -16.8000    0.0000 C   0  0  0  0  0  0  0  0  0  0  0  0
    4.2875  -15.1500    0.0000 C   0  0  0  0  0  0  0  0  0  0  0  0
    3.5792  -15.5667    0.0000 C   0  0  0  0  0  0  0  0  0  0  0  0
    5.0000  -16.3917    0.0000 C   0  0  0  0  0  0  0  0  0  0  0  0
    4.2875  -14.3250    0.0000 O   0  0  0  0  0  0  0  0  0  0  0  0
    4.2875  -17.6250    0.0000 O   0  0  0  0  0  0  0  0  0  0  0  0
    2.8625  -15.1542    0.0000 C   0  0  0  0  0  0  0  0  0  0  0  0
    5.7167  -16.8042    0.0000 C   0  0  0  0  0  0  0  0  0  0  0  0
    2.8542  -14.3292    0.0000 C   0  0  0  0  0  0  0  0  0  0  0  0
    5.7125  -17.6292    0.0000 C   0  0  0  0  0  0  0  0  0  0  0  0
    2.8542  -12.6792    0.0000 C   0  0  0  0  0  0  0  0  0  0  0  0
    5.7125  -19.2750    0.0000 C   0  0  0  0  0  0  0  0  0  0  0  0
    2.1417  -13.9167    0.0000 C   0  0  0  0  0  0  0  0  0  0  0  0
    4.9917  -18.0375    0.0000 C   0  0  0  0  0  0  0  0  0  0  0  0
    3.5667  -13.9167    0.0000 C   0  0  0  0  0  0  0  0  0  0  0  0
    6.4250  -18.0375    0.0000 C   0  0  0  0  0  0  0  0  0  0  0  0
    4.9917  -18.8625    0.0000 C   0  0  0  0  0  0  0  0  0  0  0  0
    3.5667  -13.0917    0.0000 C   0  0  0  0  0  0  0  0  0  0  0  0
    6.4292  -18.8625    0.0000 C   0  0  0  0  0  0  0  0  0  0  0  0
    2.1333  -13.1000    0.0000 C   0  0  0  0  0  0  0  0  0  0  0  0
    2.8500  -11.8542    0.0000 O   0  0  0  0  0  0  0  0  0  0  0  0
    5.7125  -20.1000    0.0000 O   0  0  0  0  0  0  0  0  0  0  0  0
  2  4  1  0  0  0  0
  3  1  1  0  0  0  0
  4  5  1  0  0  0  0
  5  1  1  0  0  0  0
  6  3  1  0  0  0  0
  7  4  2  0  0  0  0
  8  3  2  0  0  0  0
  9  5  1  0  0  0  0
 10  6  1  0  0  0  0
 11  9  1  0  0  0  0
 12 10  1  0  0  0  0
 13 20  2  0  0  0  0
 14 21  1  0  0  0  0
 15 11  1  0  0  0  0
 16 12  2  0  0  0  0
 17 11  2  0  0  0  0
 18 12  1  0  0  0  0
 19 16  1  0  0  0  0
 20 17  1  0  0  0  0
 21 18  2  0  0  0  0
 22 15  2  0  0  0  0
 23 13  1  0  0  0  0
 24 14  1  0  0  0  0
  6  2  1  0  0  0  0
 22 13  1  0  0  0  0
 19 14  2  0  0  0  0
M  END
>  <IDNUMBER>
F1916-0069

>  <Chemical_Name>
3,6-bis[(4-hydroxyphenyl)methyl]piperazine-2,5-dione

>  <PriceCoeff>
1.00

>  <CAS>
5625-40-1

>  <MW>
326.35

>  <Description>
solid

>  <FSP3>
0.22

>  <clogP>
0.82

>  <TPSA>
135.45

>  <Acceptor>
4

>  <Donor>
4

>  <RotBonds>
4

>  <HAC>
24

>  <Collection>
General

>  <PPDS>
+

$$$$
F1916-0149
  Mrv2219 10102508112D          

 16 16  0  0  0  0            999 V2000
   10.1311   -1.5445    0.0000 C   0  0  0  0  0  0  0  0  0  0  0  0
   10.1353   -4.8506    0.0000 C   0  0  0  0  0  0  0  0  0  0  0  0
   10.1353   -4.0241    0.0000 C   0  0  0  0  0  0  0  0  0  0  0  0
   10.1353   -2.3710    0.0000 C   0  0  0  0  0  0  0  0  0  0  0  0
    9.4173   -1.1313    0.0000 O   0  0  0  0  0  0  0  0  0  0  0  0
   10.8491   -5.2638    0.0000 O   0  0  0  0  0  0  0  0  0  0  0  0
    9.4215   -2.7843    0.0000 C   0  0  0  0  0  0  0  0  0  0  0  0
   10.8491   -3.6108    0.0000 C   0  0  0  0  0  0  0  0  0  0  0  0
   10.8491   -2.7843    0.0000 C   0  0  0  0  0  0  0  0  0  0  0  0
    9.4215   -3.6108    0.0000 C   0  0  0  0  0  0  0  0  0  0  0  0
   10.8491   -1.1313    0.0000 O   0  0  0  0  0  0  0  0  0  0  0  0
    9.4215   -5.2638    0.0000 O   0  0  0  0  0  0  0  0  0  0  0  0
   10.8449   -0.3048    0.0000 C   0  0  0  0  0  0  0  0  0  0  0  0
    9.6344   -6.0653    0.0000 C   0  0  0  0  0  0  0  0  0  0  0  0
   11.5504    0.1127    0.0000 C   0  0  0  0  0  0  0  0  0  0  0  0
   10.4316   -6.2782    0.0000 C   0  0  0  0  0  0  0  0  0  0  0  0
  2  3  1  0  0  0  0
  3  8  2  0  0  0  0
  4  1  1  0  0  0  0
  5  1  2  0  0  0  0
  6  2  2  0  0  0  0
  7  4  1  0  0  0  0
  8  9  1  0  0  0  0
  9  4  2  0  0  0  0
 10  7  2  0  0  0  0
 11  1  1  0  0  0  0
 12  2  1  0  0  0  0
 13 11  1  0  0  0  0
 14 12  1  0  0  0  0
 15 13  1  0  0  0  0
 16 14  1  0  0  0  0
 10  3  1  0  0  0  0
M  END
>  <IDNUMBER>
F1916-0149

>  <Chemical_Name>
1,4-diethyl benzene-1,4-dicarboxylate

>  <PriceCoeff>
1.00

>  <CAS>
636-09-9

>  <MW>
222.24

>  <Description>
solid

>  <FSP3>
0.33

>  <clogP>
2.69

>  <TPSA>
52.60

>  <Acceptor>
4

>  <Donor>
0

>  <RotBonds>
6

>  <HAC>
16

>  <Collection>
General

$$$$
F1916-0163
  Mrv2219 10102508112D          

 19 20  0  0  0  0            999 V2000
   -0.7458   -3.8667    0.0000 S   0  0  0  0  0  0  0  0  0  0  0  0
   -1.5708   -3.8667    0.0000 C   0  0  0  0  0  0  0  0  0  0  0  0
    0.0792   -3.8667    0.0000 C   0  0  0  0  0  0  0  0  0  0  0  0
   -1.9833   -3.1500    0.0000 C   0  0  0  0  0  0  0  0  0  0  0  0
    0.4875   -3.1542    0.0000 C   0  0  0  0  0  0  0  0  0  0  0  0
    1.3042   -3.1500    0.0000 C   0  0  0  0  0  0  0  0  0  0  0  0
   -2.8083   -3.1542    0.0000 C   0  0  0  0  0  0  0  0  0  0  0  0
   -0.7500   -3.0417    0.0000 O   0  0  0  0  0  0  0  0  0  0  0  0
   -0.7500   -4.6917    0.0000 O   0  0  0  0  0  0  0  0  0  0  0  0
   -3.2208   -3.8667    0.0000 C   0  0  0  0  0  0  0  0  0  0  0  0
    1.7250   -3.8667    0.0000 C   0  0  0  0  0  0  0  0  0  0  0  0
    0.4875   -4.5792    0.0000 C   0  0  0  0  0  0  0  0  0  0  0  0
   -1.9750   -4.5792    0.0000 C   0  0  0  0  0  0  0  0  0  0  0  0
    1.3125   -4.5792    0.0000 C   0  0  0  0  0  0  0  0  0  0  0  0
   -2.8000   -4.5875    0.0000 C   0  0  0  0  0  0  0  0  0  0  0  0
   -3.2250   -2.4417    0.0000 Cl  0  0  0  0  0  0  0  0  0  0  0  0
    1.7167   -2.4292    0.0000 Cl  0  0  0  0  0  0  0  0  0  0  0  0
    2.5500   -3.8667    0.0000 Cl  0  0  0  0  0  0  0  0  0  0  0  0
   -4.0458   -3.8750    0.0000 Cl  0  0  0  0  0  0  0  0  0  0  0  0
  2  1  1  0  0  0  0
  3  1  1  0  0  0  0
  4  2  2  0  0  0  0
  5  3  1  0  0  0  0
  6  5  2  0  0  0  0
  7  4  1  0  0  0  0
  8  1  2  0  0  0  0
  9  1  2  0  0  0  0
 10 15  1  0  0  0  0
 11 14  2  0  0  0  0
 12  3  2  0  0  0  0
 13  2  1  0  0  0  0
 14 12  1  0  0  0  0
 15 13  2  0  0  0  0
 16  7  1  0  0  0  0
 17  6  1  0  0  0  0
 18 11  1  0  0  0  0
 19 10  1  0  0  0  0
 11  6  1  0  0  0  0
  7 10  2  0  0  0  0
M  END
>  <IDNUMBER>
F1916-0163

>  <Chemical_Name>
1,2-dichloro-4-(3,4-dichlorobenzenesulfonyl)benzene

>  <PriceCoeff>
1.00

>  <CAS>
22588-79-0

>  <MW>
356.04

>  <Description>
solid

>  <FSP3>
0.00

>  <clogP>
5.23

>  <TPSA>
8.94

>  <Acceptor>
2

>  <Donor>
0

>  <RotBonds>
2

>  <HAC>
19

>  <Collection>
General

>  <PPDS>
+

$$$$
F1916-0196
  Mrv2219 10102508112D          

 24 26  0  0  0  0            999 V2000
    9.9500   -5.8792    0.0000 O   0  0  0  0  0  0  0  0  0  0  0  0
   13.2417   -5.8792    0.0000 O   0  0  0  0  0  0  0  0  0  0  0  0
    6.2417   -5.1292    0.0000 O   0  0  0  0  0  0  0  0  0  0  0  0
   16.9542   -6.5792    0.0000 O   0  0  0  0  0  0  0  0  0  0  0  0
    9.1250   -5.8792    0.0000 C   0  0  0  0  0  0  0  0  0  0  0  0
   14.0667   -5.8792    0.0000 C   0  0  0  0  0  0  0  0  0  0  0  0
   12.4167   -5.8792    0.0000 C   0  0  0  0  0  0  0  0  0  0  0  0
   10.7708   -5.8792    0.0000 C   0  0  0  0  0  0  0  0  0  0  0  0
   16.5417   -5.8667    0.0000 C   0  0  0  0  0  0  0  0  0  0  0  0
    6.6417   -5.8500    0.0000 C   0  0  0  0  0  0  0  0  0  0  0  0
    7.4667   -5.8542    0.0000 C   0  0  0  0  0  0  0  0  0  0  0  0
   15.7167   -5.8667    0.0000 C   0  0  0  0  0  0  0  0  0  0  0  0
    8.7042   -6.5875    0.0000 C   0  0  0  0  0  0  0  0  0  0  0  0
   14.4792   -6.5917    0.0000 C   0  0  0  0  0  0  0  0  0  0  0  0
   12.0042   -5.1667    0.0000 C   0  0  0  0  0  0  0  0  0  0  0  0
   14.4750   -5.1625    0.0000 C   0  0  0  0  0  0  0  0  0  0  0  0
   11.1792   -5.1667    0.0000 C   0  0  0  0  0  0  0  0  0  0  0  0
   12.0042   -6.5917    0.0000 C   0  0  0  0  0  0  0  0  0  0  0  0
    8.7167   -5.1542    0.0000 C   0  0  0  0  0  0  0  0  0  0  0  0
   11.1792   -6.5917    0.0000 C   0  0  0  0  0  0  0  0  0  0  0  0
   15.3042   -6.5875    0.0000 C   0  0  0  0  0  0  0  0  0  0  0  0
    7.8917   -5.1417    0.0000 C   0  0  0  0  0  0  0  0  0  0  0  0
   15.2917   -5.1542    0.0000 C   0  0  0  0  0  0  0  0  0  0  0  0
    7.8792   -6.5792    0.0000 C   0  0  0  0  0  0  0  0  0  0  0  0
  2  7  1  0  0  0  0
  3 10  2  0  0  0  0
  4  9  2  0  0  0  0
  5  1  1  0  0  0  0
  6  2  1  0  0  0  0
  7 18  1  0  0  0  0
  8  1  1  0  0  0  0
  9 12  1  0  0  0  0
 10 11  1  0  0  0  0
 11 22  2  0  0  0  0
 12 23  1  0  0  0  0
 13  5  1  0  0  0  0
 14  6  2  0  0  0  0
 15 17  1  0  0  0  0
 16  6  1  0  0  0  0
 17  8  2  0  0  0  0
 18 20  2  0  0  0  0
 19  5  2  0  0  0  0
 20  8  1  0  0  0  0
 21 14  1  0  0  0  0
 22 19  1  0  0  0  0
 23 16  2  0  0  0  0
 24 13  2  0  0  0  0
 15  7  2  0  0  0  0
 11 24  1  0  0  0  0
 21 12  2  0  0  0  0
M  END
>  <IDNUMBER>
F1916-0196

>  <Chemical_Name>
4-[4-(4-formylphenoxy)phenoxy]benzaldehyde

>  <PriceCoeff>
1.00

>  <CAS>
126026-43-5

>  <MW>
318.33

>  <Description>
solid

>  <FSP3>
0.00

>  <clogP>
5.04

>  <TPSA>
79.77

>  <Acceptor>
4

>  <Donor>
0

>  <RotBonds>
6

>  <HAC>
24

>  <Collection>
General

>  <PPDS>
+

$$$$
F1918-0023
  Mrv2219 10102508112D          

 14 14  0  0  0  0            999 V2000
   10.1417   -5.1750    0.0000 C   0  0  0  0  0  0  0  0  0  0  0  0
   10.8542   -5.5875    0.0000 N   0  0  0  0  0  0  0  0  0  0  0  0
    9.4292   -5.5917    0.0000 C   0  0  0  0  0  0  0  0  0  0  0  0
   12.2792   -5.5792    0.0000 C   0  0  0  0  0  0  0  0  0  0  0  0
   10.1417   -4.3500    0.0000 O   0  0  0  0  0  0  0  0  0  0  0  0
   12.9917   -5.1667    0.0000 O   0  0  0  0  0  0  0  0  0  0  0  0
   11.5667   -5.1667    0.0000 C   0  0  0  0  0  0  0  0  0  0  0  0
    9.0292   -4.8667    0.0000 C   0  0  0  0  0  0  0  0  0  0  0  0
    9.0167   -6.3042    0.0000 C   0  0  0  0  0  0  0  0  0  0  0  0
    7.7792   -5.5792    0.0000 C   0  0  0  0  0  0  0  0  0  0  0  0
   12.6917   -6.2917    0.0000 O   0  0  0  0  0  0  0  0  0  0  0  0
    8.2042   -4.8667    0.0000 C   0  0  0  0  0  0  0  0  0  0  0  0
    8.1917   -6.3000    0.0000 C   0  0  0  0  0  0  0  0  0  0  0  0
    6.9542   -5.5792    0.0000 O   0  0  0  0  0  0  0  0  0  0  0  0
  2  1  1  0  0  0  0
  3  1  1  0  0  0  0
  4  7  1  0  0  0  0
  5  1  2  0  0  0  0
  6  4  2  0  0  0  0
  7  2  1  0  0  0  0
  8  3  2  0  0  0  0
  9  3  1  0  0  0  0
 10 13  1  0  0  0  0
 11  4  1  0  0  0  0
 12  8  1  0  0  0  0
 13  9  2  0  0  0  0
 14 10  1  0  0  0  0
 10 12  2  0  0  0  0
M  END
>  <IDNUMBER>
F1918-0023

>  <Chemical_Name>
2-[(4-hydroxyphenyl)formamido]acetic acid

>  <PriceCoeff>
1.00

>  <CAS>
2482-25-9

>  <MW>
195.17

>  <Description>
solid

>  <FSP3>
0.11

>  <clogP>
0.22

>  <TPSA>
86.63

>  <Acceptor>
4

>  <Donor>
2

>  <RotBonds>
3

>  <HAC>
14

>  <Collection>
General

>  <PPDS>
+

$$$$
F1918-0038
  Mrv2219 10102508112D          

 13 14  0  0  0  0            999 V2000
   13.7684   -3.6455    0.0000 C   0  0  0  0  0  0  0  0  0  0  0  0
   14.4817   -2.4067    0.0000 C   0  0  0  0  0  0  0  0  0  0  0  0
   14.4817   -4.0584    0.0000 O   0  0  0  0  0  0  0  0  0  0  0  0
   15.1949   -3.6455    0.0000 C   0  0  0  0  0  0  0  0  0  0  0  0
   13.7684   -2.8196    0.0000 C   0  0  0  0  0  0  0  0  0  0  0  0
   15.1949   -2.8196    0.0000 C   0  0  0  0  0  0  0  0  0  0  0  0
   13.0552   -4.0542    0.0000 C   0  0  0  0  0  0  0  0  0  0  0  0
   13.0552   -2.4025    0.0000 C   0  0  0  0  0  0  0  0  0  0  0  0
   15.9082   -4.0667    0.0000 O   0  0  0  0  0  0  0  0  0  0  0  0
   12.3503   -3.6455    0.0000 C   0  0  0  0  0  0  0  0  0  0  0  0
   12.3503   -2.8196    0.0000 C   0  0  0  0  0  0  0  0  0  0  0  0
   14.4900   -1.5808    0.0000 C   0  0  0  0  0  0  0  0  0  0  0  0
   11.6287   -4.0584    0.0000 O   0  0  0  0  0  0  0  0  0  0  0  0
  2  5  1  0  0  0  0
  3  1  1  0  0  0  0
  4  3  1  0  0  0  0
  5  1  2  0  0  0  0
  6  2  2  0  0  0  0
  7  1  1  0  0  0  0
  8  5  1  0  0  0  0
  9  4  2  0  0  0  0
 10  7  2  0  0  0  0
 11 10  1  0  0  0  0
 12  2  1  0  0  0  0
 13 10  1  0  0  0  0
 11  8  2  0  0  0  0
  6  4  1  0  0  0  0
M  END
>  <IDNUMBER>
F1918-0038

>  <Chemical_Name>
7-hydroxy-4-methyl-2H-chromen-2-one

>  <PriceCoeff>
1.00

>  <CAS>
90-33-5

>  <MW>
176.17

>  <Description>
solid

>  <FSP3>
0.10

>  <clogP>
1.81

>  <TPSA>
46.53

>  <Acceptor>
3

>  <Donor>
1

>  <RotBonds>
0

>  <HAC>
13

>  <Collection>
General

>  <PPDS>
+

$$$$
F1918-0045
  Mrv2219 10102508112D          

 17 19  0  0  0  0            999 V2000
    0.3498    0.3331    0.0000 C   0  0  0  0  0  0  0  0  0  0  0  0
    0.3415   -0.4998    0.0000 C   0  0  0  0  0  0  0  0  0  0  0  0
   -0.3623   -0.9121    0.0000 N   0  0  0  0  0  0  0  0  0  0  0  0
    1.7658   -0.5040    0.0000 N   0  0  0  0  0  0  0  0  0  0  0  0
   -1.0745    0.3331    0.0000 C   0  0  0  0  0  0  0  0  0  0  0  0
    1.0662    0.7371    0.0000 C   0  0  0  0  0  0  0  0  0  0  0  0
    1.7783    0.3206    0.0000 C   0  0  0  0  0  0  0  0  0  0  0  0
   -1.0745   -0.4915    0.0000 C   0  0  0  0  0  0  0  0  0  0  0  0
    1.0537   -0.9162    0.0000 C   0  0  0  0  0  0  0  0  0  0  0  0
    2.4905    0.7246    0.0000 C   0  0  0  0  0  0  0  0  0  0  0  0
    3.2026    0.3081    0.0000 O   0  0  0  0  0  0  0  0  0  0  0  0
    2.5030    1.5492    0.0000 O   0  0  0  0  0  0  0  0  0  0  0  0
   -1.7949    0.7454    0.0000 C   0  0  0  0  0  0  0  0  0  0  0  0
   -1.7949   -0.9121    0.0000 C   0  0  0  0  0  0  0  0  0  0  0  0
    1.0412   -1.7408    0.0000 C   0  0  0  0  0  0  0  0  0  0  0  0
   -2.5071    0.3248    0.0000 C   0  0  0  0  0  0  0  0  0  0  0  0
   -2.5071   -0.4998    0.0000 C   0  0  0  0  0  0  0  0  0  0  0  0
  2  1  2  0  0  0  0
  3  2  1  0  0  0  0
  4  7  1  0  0  0  0
  5  1  1  0  0  0  0
  6  1  1  0  0  0  0
  7  6  1  0  0  0  0
  8  5  1  0  0  0  0
  9  2  1  0  0  0  0
 10  7  1  0  0  0  0
 11 10  2  0  0  0  0
 12 10  1  0  0  0  0
 13  5  2  0  0  0  0
 14  8  2  0  0  0  0
 15  9  1  0  0  0  0
 16 13  1  0  0  0  0
 17 16  2  0  0  0  0
  3  8  1  0  0  0  0
  4  9  1  0  0  0  0
 14 17  1  0  0  0  0
M  END
>  <IDNUMBER>
F1918-0045

>  <Chemical_Name>
1-methyl-1H,2H,3H,4H,9H-pyrido[3,4-b]indole-3-carboxylic acid

>  <PriceCoeff>
1.00

>  <CAS>
5470-37-1

>  <MW>
230.26

>  <Description>
solid

>  <FSP3>
0.31

>  <clogP>
-0.69

>  <TPSA>
65.12

>  <Acceptor>
2

>  <Donor>
2

>  <RotBonds>
1

>  <HAC>
17

>  <Collection>
General

>  <PPDS>
+

$$$$
F1920-0045
  Mrv2219 10102508112D          

 19 21  0  0  0  0            999 V2000
    6.6167   -2.2792    0.0000 C   0  0  0  0  0  0  0  0  0  0  0  0
    6.6167   -1.4500    0.0000 C   0  0  0  0  0  0  0  0  0  0  0  0
    5.1917   -1.4500    0.0000 C   0  0  0  0  0  0  0  0  0  0  0  0
    5.9042   -1.0292    0.0000 C   0  0  0  0  0  0  0  0  0  0  0  0
    5.9042   -2.6917    0.0000 O   0  0  0  0  0  0  0  0  0  0  0  0
    5.1875   -2.2750    0.0000 C   0  0  0  0  0  0  0  0  0  0  0  0
    7.3292   -2.6917    0.0000 C   0  0  0  0  0  0  0  0  0  0  0  0
    4.4750   -1.0375    0.0000 C   0  0  0  0  0  0  0  0  0  0  0  0
    5.9042   -0.2042    0.0000 O   0  0  0  0  0  0  0  0  0  0  0  0
    4.4750   -2.6917    0.0000 C   0  0  0  0  0  0  0  0  0  0  0  0
    7.3292   -3.5167    0.0000 C   0  0  0  0  0  0  0  0  0  0  0  0
    8.0417   -2.2792    0.0000 C   0  0  0  0  0  0  0  0  0  0  0  0
    3.7625   -1.4500    0.0000 C   0  0  0  0  0  0  0  0  0  0  0  0
    8.7542   -3.5167    0.0000 C   0  0  0  0  0  0  0  0  0  0  0  0
    3.7625   -2.2792    0.0000 C   0  0  0  0  0  0  0  0  0  0  0  0
    8.7542   -2.6917    0.0000 C   0  0  0  0  0  0  0  0  0  0  0  0
    8.0417   -3.9292    0.0000 C   0  0  0  0  0  0  0  0  0  0  0  0
    9.4750   -3.9292    0.0000 Cl  0  0  0  0  0  0  0  0  0  0  0  0
    3.0500   -1.0417    0.0000 C   0  0  0  0  0  0  0  0  0  0  0  0
  2  1  2  0  0  0  0
  3  6  1  0  0  0  0
  4  2  1  0  0  0  0
  5  1  1  0  0  0  0
  6  5  1  0  0  0  0
  7  1  1  0  0  0  0
  8  3  2  0  0  0  0
  9  4  2  0  0  0  0
 10  6  2  0  0  0  0
 11  7  2  0  0  0  0
 12  7  1  0  0  0  0
 13 15  2  0  0  0  0
 14 16  1  0  0  0  0
 15 10  1  0  0  0  0
 16 12  2  0  0  0  0
 17 11  1  0  0  0  0
 18 14  1  0  0  0  0
 19 13  1  0  0  0  0
  4  3  1  0  0  0  0
 17 14  2  0  0  0  0
 13  8  1  0  0  0  0
M  END
>  <IDNUMBER>
F1920-0045

>  <Chemical_Name>
2-(4-chlorophenyl)-6-methyl-4H-chromen-4-one

>  <PriceCoeff>
1.00

>  <CAS>
60402-30-4

>  <MW>
270.71

>  <Description>
solid

>  <FSP3>
0.06

>  <clogP>
4.69

>  <TPSA>
26.30

>  <Acceptor>
2

>  <Donor>
0

>  <RotBonds>
1

>  <HAC>
19

>  <Collection>
General

$$$$
F1924-1708
  Mrv2219 10102508112D          

 14 16  0  0  0  0            999 V2000
    2.7845   -1.2468    0.0000 C   0  0  0  0  0  0  0  0  0  0  0  0
    3.5035   -0.8271    0.0000 C   0  0  0  0  0  0  0  0  0  0  0  0
    3.9067   -1.5377    0.0000 O   0  0  0  0  0  0  0  0  0  0  0  0
    2.7845   -2.0739    0.0000 C   0  0  0  0  0  0  0  0  0  0  0  0
    3.4952   -2.4853    0.0000 C   0  0  0  0  0  0  0  0  0  0  0  0
    2.0739   -0.8354    0.0000 C   0  0  0  0  0  0  0  0  0  0  0  0
    2.0655   -0.0125    0.0000 C   0  0  0  0  0  0  0  0  0  0  0  0
    4.2184   -1.2468    0.0000 C   0  0  0  0  0  0  0  0  0  0  0  0
    4.2184   -2.0739    0.0000 C   0  0  0  0  0  0  0  0  0  0  0  0
    1.3590    0.3948    0.0000 O   0  0  0  0  0  0  0  0  0  0  0  0
    2.7845    0.3990    0.0000 O   0  0  0  0  0  0  0  0  0  0  0  0
    2.0739   -2.4853    0.0000 C   0  0  0  0  0  0  0  0  0  0  0  0
    1.3632   -1.2468    0.0000 C   0  0  0  0  0  0  0  0  0  0  0  0
    1.3632   -2.0739    0.0000 C   0  0  0  0  0  0  0  0  0  0  0  0
  2  1  1  0  0  0  0
  3  2  1  0  0  0  0
  4  1  1  0  0  0  0
  5  4  1  0  0  0  0
  6  1  2  0  0  0  0
  7  6  1  0  0  0  0
  8  2  1  0  0  0  0
  9  5  1  0  0  0  0
 10  7  2  0  0  0  0
 11  7  1  0  0  0  0
 12  4  2  0  0  0  0
 13  6  1  0  0  0  0
 14 13  2  0  0  0  0
  3  5  1  0  0  0  0
 12 14  1  0  0  0  0
  9  8  1  0  0  0  0
M  END
>  <IDNUMBER>
F1924-1708

>  <Chemical_Name>
11-oxatricyclo[6.2.1.0?,?]undeca-2(7),3,5-triene-3-carboxylic acid

>  <PriceCoeff>
1.00

>  <CAS>
2470438-80-1

>  <MW>
190.20

>  <Description>
solid

>  <FSP3>
0.36

>  <clogP>
1.68

>  <TPSA>
46.53

>  <Acceptor>
3

>  <Donor>
0

>  <RotBonds>
1

>  <HAC>
14

>  <Collection>
General

>  <PPDS>
+

$$$$
F1926-0026
  Mrv2219 10102508112D          

 14 15  0  0  0  0            999 V2000
    3.2753   -0.9345    0.0000 C   0  0  0  0  0  0  0  0  0  0  0  0
    2.5607   -1.3468    0.0000 N   0  0  0  0  0  0  0  0  0  0  0  0
    1.8461   -0.9345    0.0000 C   0  0  0  0  0  0  0  0  0  0  0  0
    3.2753   -0.1008    0.0000 C   0  0  0  0  0  0  0  0  0  0  0  0
    3.9990   -1.3468    0.0000 C   0  0  0  0  0  0  0  0  0  0  0  0
    2.5607    0.3115    0.0000 C   0  0  0  0  0  0  0  0  0  0  0  0
    1.8461   -0.1008    0.0000 C   0  0  0  0  0  0  0  0  0  0  0  0
    1.1406   -1.3468    0.0000 N   0  0  0  0  0  0  0  0  0  0  0  0
    1.1406    0.3023    0.0000 N   0  0  0  0  0  0  0  0  0  0  0  0
    4.7136   -0.9345    0.0000 O   0  0  0  0  0  0  0  0  0  0  0  0
    3.9899    0.3115    0.0000 Br  0  0  0  0  0  0  0  0  0  0  0  0
    3.9990   -2.1713    0.0000 O   0  0  0  0  0  0  0  0  0  0  0  0
    0.4260   -0.9345    0.0000 C   0  0  0  0  0  0  0  0  0  0  0  0
    0.4260   -0.1008    0.0000 C   0  0  0  0  0  0  0  0  0  0  0  0
  2  1  2  0  0  0  0
  3  2  1  0  0  0  0
  4  1  1  0  0  0  0
  5  1  1  0  0  0  0
  6  4  2  0  0  0  0
  7  6  1  0  0  0  0
  8  3  2  0  0  0  0
  9  7  2  0  0  0  0
 10  5  2  0  0  0  0
 11  4  1  0  0  0  0
 12  5  1  0  0  0  0
 13  8  1  0  0  0  0
 14  9  1  0  0  0  0
  7  3  1  0  0  0  0
 13 14  2  0  0  0  0
M  END
>  <IDNUMBER>
F1926-0026

>  <Chemical_Name>
7-bromopyrido[2,3-b]pyrazine-6-carboxylic acid

>  <PriceCoeff>
1.50

>  <CAS>
887206-72-6

>  <MW>
254.04

>  <Description>
solid

>  <FSP3>
0.00

>  <clogP>
-0.26

>  <TPSA>
75.97

>  <Acceptor>
5

>  <Donor>
1

>  <RotBonds>
1

>  <HAC>
14

>  <Collection>
Advanced

>  <PPDS>
+

$$$$
F1929-1777
  Mrv2219 10102508112D          

 17 18  0  0  0  0            999 V2000
    0.2750   -0.3545    0.0000 N   0  0  0  0  0  0  0  0  0  0  0  0
   -0.4583    0.8921    0.0000 C   0  0  0  0  0  0  0  0  0  0  0  0
    0.9899    0.0672    0.0000 C   0  0  0  0  0  0  0  0  0  0  0  0
    0.9777    0.8921    0.0000 C   0  0  0  0  0  0  0  0  0  0  0  0
   -0.4583    0.0550    0.0000 C   0  0  0  0  0  0  0  0  0  0  0  0
    3.3975    0.2566    0.0000 C   0  0  0  0  0  0  0  0  0  0  0  0
   -1.1670    1.2954    0.0000 C   0  0  0  0  0  0  0  0  0  0  0  0
    4.0024    0.8737    0.0000 O   0  0  0  0  0  0  0  0  0  0  0  0
   -1.1670   -0.3483    0.0000 C   0  0  0  0  0  0  0  0  0  0  0  0
    2.5725    0.4766    0.0000 N   0  0  0  0  0  0  0  0  0  0  0  0
   -1.8820    0.8799    0.0000 C   0  0  0  0  0  0  0  0  0  0  0  0
   -1.8820    0.0550    0.0000 C   0  0  0  0  0  0  0  0  0  0  0  0
    2.3526    1.2649    0.0000 C   0  0  0  0  0  0  0  0  0  0  0  0
    1.5582    1.4787    0.0000 C   0  0  0  0  0  0  0  0  0  0  0  0
   -2.5847    1.2954    0.0000 O   0  0  0  0  0  0  0  0  0  0  0  0
    3.6296   -0.5744    0.0000 C   0  0  0  0  0  0  0  0  0  0  0  0
   -3.2935    0.8921    0.0000 C   0  0  0  0  0  0  0  0  0  0  0  0
  2  5  1  0  0  0  0
  3  1  1  0  0  0  0
  4  3  2  0  0  0  0
  5  1  1  0  0  0  0
  6 10  1  0  0  0  0
  7  2  2  0  0  0  0
  8  6  2  0  0  0  0
  9  5  2  0  0  0  0
 10 13  1  0  0  0  0
 11 12  2  0  0  0  0
 12  9  1  0  0  0  0
 13 14  1  0  0  0  0
 14  4  1  0  0  0  0
 15 11  1  0  0  0  0
 16  6  1  0  0  0  0
 17 15  1  0  0  0  0
  4  2  1  0  0  0  0
 11  7  1  0  0  0  0
M  END
>  <IDNUMBER>
F1929-1777

>  <Chemical_Name>
N-[2-(5-methoxy-1H-indol-3-yl)ethyl]acetamide

>  <PriceCoeff>
1.50

>  <CAS>
73-31-4

>  <MW>
232.28

>  <Description>
solid

>  <FSP3>
0.31

>  <clogP>
1.03

>  <TPSA>
54.12

>  <Acceptor>
2

>  <Donor>
2

>  <RotBonds>
4

>  <HAC>
17

>  <Collection>
Advanced

>  <PPDS>
+

$$$$
F1929-2096
  Mrv2219 10102508112D          

 15 15  0  0  0  0            999 V2000
    4.2590   -1.8456    0.0000 C   0  0  0  0  0  0  0  0  0  0  0  0
    5.0858   -1.8539    0.0000 N   0  0  0  0  0  0  0  0  0  0  0  0
    3.8498   -1.1149    0.0000 O   0  0  0  0  0  0  0  0  0  0  0  0
    3.8373   -2.5471    0.0000 C   0  0  0  0  0  0  0  0  0  0  0  0
    6.7309   -1.7955    0.0000 N   0  0  0  0  0  0  0  0  0  0  0  0
    5.5242   -2.5471    0.0000 C   0  0  0  0  0  0  0  0  0  0  0  0
    5.4783   -1.1149    0.0000 C   0  0  0  0  0  0  0  0  0  0  0  0
    6.3301   -2.5220    0.0000 C   0  0  0  0  0  0  0  0  0  0  0  0
    6.3050   -1.0940    0.0000 C   0  0  0  0  0  0  0  0  0  0  0  0
    3.0189   -2.5471    0.0000 C   0  0  0  0  0  0  0  0  0  0  0  0
    4.2507   -3.2862    0.0000 C   0  0  0  0  0  0  0  0  0  0  0  0
    2.5847   -3.2486    0.0000 C   0  0  0  0  0  0  0  0  0  0  0  0
    3.8331   -3.9876    0.0000 C   0  0  0  0  0  0  0  0  0  0  0  0
    2.9855   -3.9876    0.0000 C   0  0  0  0  0  0  0  0  0  0  0  0
    8.2216   -2.3968    0.0000 Cl  0  0  0  0  0  0  0  0  0  0  0  0
  3  1  2  0  0  0  0
  4  1  1  0  0  0  0
  5  9  1  0  0  0  0
  6  2  1  0  0  0  0
  7  2  1  0  0  0  0
  8  6  1  0  0  0  0
  9  7  1  0  0  0  0
 10  4  2  0  0  0  0
 11  4  1  0  0  0  0
 12 10  1  0  0  0  0
 13 11  2  0  0  0  0
 14 13  1  0  0  0  0
  5  8  1  0  0  0  0
 14 12  2  0  0  0  0
  2  1  1  0  0  0  0
M  END
>  <IDNUMBER>
F1929-2096

>  <Chemical_Name>
1-benzoylpiperazine hydrochloride

>  <PriceCoeff>
1.50

>  <CAS>
56227-55-5

>  <MW>
190.25

>  <Description>
solid

>  <FSP3>
0.36

>  <clogP>
0.74

>  <TPSA>
32.34

>  <Acceptor>
1

>  <Donor>
1

>  <RotBonds>
1

>  <HAC>
14

>  <Collection>
Advanced

>  <PPDS>
+

$$$$
F1936-0008
  Mrv2219 10102508112D          

 21 23  0  0  0  0            999 V2000
    1.4405   -0.3424    0.0000 C   0  0  0  0  0  0  0  0  0  0  0  0
    2.8684   -1.1774    0.0000 C   0  0  0  0  0  0  0  0  0  0  0  0
    1.4322   -1.1691    0.0000 C   0  0  0  0  0  0  0  0  0  0  0  0
    2.8684   -0.3507    0.0000 C   0  0  0  0  0  0  0  0  0  0  0  0
    2.1461   -1.5825    0.0000 O   0  0  0  0  0  0  0  0  0  0  0  0
    2.1545    0.0709    0.0000 C   0  0  0  0  0  0  0  0  0  0  0  0
    0.7265    0.0709    0.0000 C   0  0  0  0  0  0  0  0  0  0  0  0
    0.7265   -1.5825    0.0000 C   0  0  0  0  0  0  0  0  0  0  0  0
    0.0167   -0.3424    0.0000 C   0  0  0  0  0  0  0  0  0  0  0  0
    0.0167   -1.1691    0.0000 C   0  0  0  0  0  0  0  0  0  0  0  0
    3.5741   -1.5950    0.0000 C   0  0  0  0  0  0  0  0  0  0  0  0
    2.1587    0.8977    0.0000 O   0  0  0  0  0  0  0  0  0  0  0  0
   -1.4154   -1.1691    0.0000 C   0  0  0  0  0  0  0  0  0  0  0  0
   -2.1377   -1.5825    0.0000 C   0  0  0  0  0  0  0  0  0  0  0  0
   -0.7015    0.0709    0.0000 O   0  0  0  0  0  0  0  0  0  0  0  0
   -0.7015   -1.5825    0.0000 C   0  0  0  0  0  0  0  0  0  0  0  0
    4.2881   -1.1816    0.0000 C   0  0  0  0  0  0  0  0  0  0  0  0
    3.5741   -2.4217    0.0000 C   0  0  0  0  0  0  0  0  0  0  0  0
    4.2839   -2.8351    0.0000 C   0  0  0  0  0  0  0  0  0  0  0  0
    5.0020   -1.5950    0.0000 C   0  0  0  0  0  0  0  0  0  0  0  0
    5.0020   -2.4300    0.0000 C   0  0  0  0  0  0  0  0  0  0  0  0
  2  4  2  0  0  0  0
  3  1  2  0  0  0  0
  4  6  1  0  0  0  0
  5  3  1  0  0  0  0
  6  1  1  0  0  0  0
  7  1  1  0  0  0  0
  8  3  1  0  0  0  0
  9  7  2  0  0  0  0
 10  9  1  0  0  0  0
 11  2  1  0  0  0  0
 12  6  2  0  0  0  0
 13 16  1  0  0  0  0
 14 13  2  0  0  0  0
 15  9  1  0  0  0  0
 16 10  1  0  0  0  0
 17 11  1  0  0  0  0
 18 11  2  0  0  0  0
 19 18  1  0  0  0  0
 20 17  2  0  0  0  0
 21 19  2  0  0  0  0
  5  2  1  0  0  0  0
 10  8  2  0  0  0  0
 20 21  1  0  0  0  0
M  END
>  <IDNUMBER>
F1936-0008

>  <Chemical_Name>
6-hydroxy-2-phenyl-7-(prop-2-en-1-yl)-4H-chromen-4-one

>  <PriceCoeff>
1.00

>  <CAS>
1395786-38-5

>  <MW>
278.31

>  <Description>
solid

>  <FSP3>
0.06

>  <clogP>
3.76

>  <TPSA>
46.53

>  <Acceptor>
3

>  <Donor>
1

>  <RotBonds>
3

>  <HAC>
21

>  <Collection>
General

$$$$
F1957-0079
  Mrv2219 10102508112D          

 22 23  0  0  0  0            999 V2000
    5.6542   -3.1917    0.0000 C   0  0  0  0  0  0  0  0  0  0  0  0
    5.6542   -4.0167    0.0000 N   0  0  0  0  0  0  0  0  0  0  0  0
    5.6500   -5.6667    0.0000 N   0  0  0  0  0  0  0  0  0  0  0  0
    6.3667   -7.7292    0.0000 C   0  0  0  0  0  0  0  0  0  0  0  0
    6.3667   -6.9042    0.0000 C   0  0  0  0  0  0  0  0  0  0  0  0
    5.6500   -6.4917    0.0000 C   0  0  0  0  0  0  0  0  0  0  0  0
    7.0792   -8.1417    0.0000 C   0  0  0  0  0  0  0  0  0  0  0  0
    4.9417   -2.7792    0.0000 O   0  0  0  0  0  0  0  0  0  0  0  0
    5.6500   -8.1417    0.0000 N   0  0  0  0  0  0  0  0  0  0  0  0
    6.3750   -2.7875    0.0000 O   0  0  0  0  0  0  0  0  0  0  0  0
    4.9375   -4.4292    0.0000 C   0  0  0  0  0  0  0  0  0  0  0  0
    6.3667   -4.4375    0.0000 C   0  0  0  0  0  0  0  0  0  0  0  0
    4.9292   -5.2625    0.0000 C   0  0  0  0  0  0  0  0  0  0  0  0
    6.3667   -5.2625    0.0000 C   0  0  0  0  0  0  0  0  0  0  0  0
    7.7917   -7.7292    0.0000 O   0  0  0  0  0  0  0  0  0  0  0  0
    4.9500   -1.9542    0.0000 C   0  0  0  0  0  0  0  0  0  0  0  0
    4.9375   -6.9042    0.0000 C   0  0  0  0  0  0  0  0  0  0  0  0
    7.0792   -8.9667    0.0000 O   0  0  0  0  0  0  0  0  0  0  0  0
    4.9375   -7.7292    0.0000 C   0  0  0  0  0  0  0  0  0  0  0  0
    4.9417   -1.1292    0.0000 C   0  0  0  0  0  0  0  0  0  0  0  0
    5.7750   -1.9542    0.0000 C   0  0  0  0  0  0  0  0  0  0  0  0
    4.1250   -1.9500    0.0000 C   0  0  0  0  0  0  0  0  0  0  0  0
  2  1  1  0  0  0  0
  3 14  1  0  0  0  0
  4  5  1  0  0  0  0
  5  6  2  0  0  0  0
  6  3  1  0  0  0  0
  7  4  1  0  0  0  0
  8  1  1  0  0  0  0
  9 19  1  0  0  0  0
 10  1  2  0  0  0  0
 11  2  1  0  0  0  0
 12  2  1  0  0  0  0
 13 11  1  0  0  0  0
 14 12  1  0  0  0  0
 15  7  2  0  0  0  0
 16  8  1  0  0  0  0
 17  6  1  0  0  0  0
 18  7  1  0  0  0  0
 19 17  2  0  0  0  0
 20 16  1  0  0  0  0
 21 16  1  0  0  0  0
 22 16  1  0  0  0  0
 13  3  1  0  0  0  0
  9  4  2  0  0  0  0
M  END
>  <IDNUMBER>
F1957-0079

>  <Chemical_Name>
4-{4-[(tert-butoxy)carbonyl]piperazin-1-yl}pyridine-2-carboxylic acid

>  <PriceCoeff>
1.50

>  <CAS>
1211595-81-1

>  <MW>
307.35

>  <Description>
solid

>  <FSP3>
0.53

>  <clogP>
0.01

>  <TPSA>
82.97

>  <Acceptor>
5

>  <Donor>
2

>  <RotBonds>
4

>  <HAC>
22

>  <Collection>
Advanced

>  <PPDS>
+

$$$$
F1957-0113
  Mrv2219 10102508112D          

 14 15  0  0  0  0            999 V2000
    3.3380   -3.2632    0.0000 N   0  0  0  0  0  0  0  0  0  0  0  0
    4.0530   -2.8516    0.0000 C   0  0  0  0  0  0  0  0  0  0  0  0
    2.6313   -2.0245    0.0000 C   0  0  0  0  0  0  0  0  0  0  0  0
    2.6272   -2.8516    0.0000 C   0  0  0  0  0  0  0  0  0  0  0  0
    3.3380   -1.6129    0.0000 C   0  0  0  0  0  0  0  0  0  0  0  0
    4.0530   -2.0245    0.0000 C   0  0  0  0  0  0  0  0  0  0  0  0
    4.7680   -3.2632    0.0000 C   0  0  0  0  0  0  0  0  0  0  0  0
    1.9205   -1.6129    0.0000 N   0  0  0  0  0  0  0  0  0  0  0  0
    4.7680   -4.0862    0.0000 O   0  0  0  0  0  0  0  0  0  0  0  0
    3.3339   -0.7899    0.0000 Br  0  0  0  0  0  0  0  0  0  0  0  0
    5.4789   -2.8475    0.0000 O   0  0  0  0  0  0  0  0  0  0  0  0
    1.9122   -3.2632    0.0000 C   0  0  0  0  0  0  0  0  0  0  0  0
    1.2055   -2.0203    0.0000 C   0  0  0  0  0  0  0  0  0  0  0  0
    1.2014   -2.8433    0.0000 C   0  0  0  0  0  0  0  0  0  0  0  0
  2  1  2  0  0  0  0
  3  4  2  0  0  0  0
  4  1  1  0  0  0  0
  5  3  1  0  0  0  0
  6  2  1  0  0  0  0
  7  2  1  0  0  0  0
  8  3  1  0  0  0  0
  9  7  2  0  0  0  0
 10  5  1  0  0  0  0
 11  7  1  0  0  0  0
 12  4  1  0  0  0  0
 13  8  1  0  0  0  0
 14 12  1  0  0  0  0
  5  6  2  0  0  0  0
 14 13  1  0  0  0  0
M  END
>  <IDNUMBER>
F1957-0113

>  <Chemical_Name>
4-bromo-5,6,7,8-tetrahydro-1,5-naphthyridine-2-carboxylic acid

>  <PriceCoeff>
1.00

>  <CAS>
1219022-87-3

>  <MW>
257.09

>  <Description>
solid

>  <FSP3>
0.33

>  <clogP>
1.40

>  <TPSA>
62.22

>  <Acceptor>
4

>  <Donor>
2

>  <RotBonds>
1

>  <HAC>
14

>  <Collection>
General

>  <PPDS>
+

$$$$
F1967-2640
  Mrv2219 10102508112D          

 14 15  0  0  0  0            999 V2000
    4.4737   -0.3288    0.0000 C   0  0  0  0  0  0  0  0  0  0  0  0
    4.7359    0.4577    0.0000 N   0  0  0  0  0  0  0  0  0  0  0  0
    3.6955   -0.5868    0.0000 C   0  0  0  0  0  0  0  0  0  0  0  0
    5.1479   -0.8115    0.0000 O   0  0  0  0  0  0  0  0  0  0  0  0
    5.8096   -0.3288    0.0000 C   0  0  0  0  0  0  0  0  0  0  0  0
    5.5599    0.4577    0.0000 C   0  0  0  0  0  0  0  0  0  0  0  0
    3.0837   -0.0333    0.0000 C   0  0  0  0  0  0  0  0  0  0  0  0
    3.2502    0.7699    0.0000 F   0  0  0  0  0  0  0  0  0  0  0  0
    3.5249   -1.3900    0.0000 C   0  0  0  0  0  0  0  0  0  0  0  0
    6.5961   -0.5868    0.0000 C   0  0  0  0  0  0  0  0  0  0  0  0
    6.7667   -1.3900    0.0000 Br  0  0  0  0  0  0  0  0  0  0  0  0
    2.3014   -0.2913    0.0000 C   0  0  0  0  0  0  0  0  0  0  0  0
    2.7508   -1.6480    0.0000 C   0  0  0  0  0  0  0  0  0  0  0  0
    2.1266   -1.0987    0.0000 C   0  0  0  0  0  0  0  0  0  0  0  0
  2  1  2  0  0  0  0
  3  1  1  0  0  0  0
  4  1  1  0  0  0  0
  5  4  1  0  0  0  0
  6  2  1  0  0  0  0
  7  3  2  0  0  0  0
  8  7  1  0  0  0  0
  9  3  1  0  0  0  0
 10  5  1  0  0  0  0
 11 10  1  0  0  0  0
 12  7  1  0  0  0  0
 13  9  2  0  0  0  0
 14 13  1  0  0  0  0
  5  6  2  0  0  0  0
 12 14  2  0  0  0  0
M  END
>  <IDNUMBER>
F1967-2640

>  <Chemical_Name>
5-(bromomethyl)-2-(2-fluorophenyl)-1,3-oxazole

>  <PriceCoeff>
1.00

>  <CAS>
2098091-29-1

>  <MW>
256.07

>  <Description>
solid

>  <FSP3>
0.10

>  <clogP>
2.78

>  <TPSA>
26.03

>  <Acceptor>
2

>  <Donor>
0

>  <RotBonds>
2

>  <HAC>
14

>  <Collection>
General

>  <PPDS>
+

$$$$
F1967-6724
  Mrv2219 10102508112D          

 23 23  0  0  0  0            999 V2000
   -2.7448    0.8498    0.0000 C   0  0  0  0  0  0  0  0  0  0  0  0
   -2.7448    0.0189    0.0000 O   0  0  0  0  0  0  0  0  0  0  0  0
   -2.0176    1.2622    0.0000 O   0  0  0  0  0  0  0  0  0  0  0  0
   -1.3063    0.8498    0.0000 C   0  0  0  0  0  0  0  0  0  0  0  0
   -4.1770    0.8498    0.0000 N   0  0  0  0  0  0  0  0  0  0  0  0
   -0.5761    1.2622    0.0000 C   0  0  0  0  0  0  0  0  0  0  0  0
   -3.4624    1.2622    0.0000 C   0  0  0  0  0  0  0  0  0  0  0  0
   -0.5823    2.0901    0.0000 C   0  0  0  0  0  0  0  0  0  0  0  0
    0.1385    0.8498    0.0000 C   0  0  0  0  0  0  0  0  0  0  0  0
    0.8625    1.2622    0.0000 C   0  0  0  0  0  0  0  0  0  0  0  0
    0.1385    2.5087    0.0000 C   0  0  0  0  0  0  0  0  0  0  0  0
    0.8656    2.0963    0.0000 C   0  0  0  0  0  0  0  0  0  0  0  0
    3.1048    1.9236    0.0000 S   0  0  0  0  0  0  0  0  0  0  0  0
    2.8005    1.3873    0.0000 C   0  0  0  0  0  0  0  0  0  0  0  0
    2.5677    2.2418    0.0000 O   0  0  0  0  0  0  0  0  0  0  0  0
    3.4113    2.4683    0.0000 O   0  0  0  0  0  0  0  0  0  0  0  0
    3.6495    1.6170    0.0000 O   0  0  0  0  0  0  0  0  0  0  0  0
    3.1143    0.8452    0.0000 C   0  0  0  0  0  0  0  0  0  0  0  0
    2.1730    1.3841    0.0000 C   0  0  0  0  0  0  0  0  0  0  0  0
    2.7992    0.3027    0.0000 C   0  0  0  0  0  0  0  0  0  0  0  0
    1.8649    0.8421    0.0000 C   0  0  0  0  0  0  0  0  0  0  0  0
    2.1772    0.3027    0.0000 C   0  0  0  0  0  0  0  0  0  0  0  0
    1.8648   -0.2383    0.0000 C   0  0  0  0  0  0  0  0  0  0  0  0
 11 12  1  0  0  0  0
  2  1  2  0  0  0  0
  3  1  1  0  0  0  0
  4  3  1  0  0  0  0
  5  7  1  0  0  0  0
  6  4  1  0  0  0  0
  7  1  1  0  0  0  0
  8  6  1  0  0  0  0
  9  6  2  0  0  0  0
 10  9  1  0  0  0  0
 11  8  2  0  0  0  0
 12 10  2  0  0  0  0
 14 13  1  0  0  0  0
 15 13  2  0  0  0  0
 16 13  2  0  0  0  0
 17 13  1  0  0  0  0
 18 14  1  0  0  0  0
 19 14  2  0  0  0  0
 20 18  2  0  0  0  0
 21 19  1  0  0  0  0
 22 21  2  0  0  0  0
 23 22  1  0  0  0  0
 20 22  1  0  0  0  0
M  END
>  <IDNUMBER>
F1967-6724

>  <Chemical_Name>
4-methylbenzene-1-sulfonic acid; benzyl 2-aminoacetate

>  <PriceCoeff>
1.00

>  <CAS>
1738-76-7

>  <MW>
165.19

>  <Description>
solid

>  <FSP3>
0.22

>  <clogP>
0.72

>  <TPSA>
52.32

>  <Acceptor>
2

>  <Donor>
1

>  <RotBonds>
4

>  <HAC>
12

>  <Collection>
General

$$$$
F1974-0012
  Mrv2219 10102508112D          

  9  8  0  0  0  0            999 V2000
    5.4835   -2.6461    0.0000 C   0  0  0  0  0  0  0  0  0  0  0  0
    4.8095   -3.1245    0.0000 O   0  0  0  0  0  0  0  0  0  0  0  0
    5.2214   -1.8597    0.0000 C   0  0  0  0  0  0  0  0  0  0  0  0
    4.1480   -2.6461    0.0000 C   0  0  0  0  0  0  0  0  0  0  0  0
    4.3976   -1.8597    0.0000 C   0  0  0  0  0  0  0  0  0  0  0  0
    6.4321   -3.7070    0.0000 N   0  0  0  0  0  0  0  0  0  0  0  0
    6.2574   -2.8957    0.0000 C   0  0  0  0  0  0  0  0  0  0  0  0
    7.2184   -3.9566    0.0000 C   0  0  0  0  0  0  0  0  0  0  0  0
    8.6039   -2.8375    0.0000 Cl  0  0  0  0  0  0  0  0  0  0  0  0
  3  1  2  0  0  0  0
  4  2  1  0  0  0  0
  5  3  1  0  0  0  0
  6  7  1  0  0  0  0
  7  1  1  0  0  0  0
  8  6  1  0  0  0  0
  5  4  2  0  0  0  0
  2  1  1  0  0  0  0
M  END
>  <IDNUMBER>
F1974-0012

>  <Chemical_Name>
[(furan-2-yl)methyl](methyl)amine hydrochloride

>  <PriceCoeff>
1.00

>  <CAS>
99839-46-0

>  <MW>
111.14

>  <Description>
solid

>  <FSP3>
0.33

>  <clogP>
0.59

>  <TPSA>
25.17

>  <Acceptor>
1

>  <Donor>
1

>  <RotBonds>
2

>  <HAC>
8

>  <Collection>
General

>  <PPDS>
+

$$$$
F1995-0226
  Mrv2219 10102508112D          

 10 10  0  0  0  0            999 V2000
    3.6325   -2.1587    0.0000 C   0  0  0  0  0  0  0  0  0  0  0  0
    4.0459   -1.4447    0.0000 C   0  0  0  0  0  0  0  0  0  0  0  0
    2.8058   -2.1587    0.0000 C   0  0  0  0  0  0  0  0  0  0  0  0
    3.6325   -0.7307    0.0000 C   0  0  0  0  0  0  0  0  0  0  0  0
    4.8726   -1.4447    0.0000 C   0  0  0  0  0  0  0  0  0  0  0  0
    5.2776   -0.7265    0.0000 O   0  0  0  0  0  0  0  0  0  0  0  0
    2.3967   -1.4447    0.0000 C   0  0  0  0  0  0  0  0  0  0  0  0
    4.0459   -2.8726    0.0000 O   0  0  0  0  0  0  0  0  0  0  0  0
    2.8058   -0.7307    0.0000 C   0  0  0  0  0  0  0  0  0  0  0  0
    1.5699   -1.4447    0.0000 O   0  0  0  0  0  0  0  0  0  0  0  0
  2  1  1  0  0  0  0
  3  1  2  0  0  0  0
  4  2  2  0  0  0  0
  5  2  1  0  0  0  0
  6  5  2  0  0  0  0
  7  3  1  0  0  0  0
  8  1  1  0  0  0  0
  9  7  2  0  0  0  0
 10  7  1  0  0  0  0
  9  4  1  0  0  0  0
M  END
>  <IDNUMBER>
F1995-0226

>  <Chemical_Name>
2,4-dihydroxybenzaldehyde

>  <PriceCoeff>
1.00

>  <CAS>
95-01-2

>  <MW>
138.12

>  <Description>
solid

>  <FSP3>
0.00

>  <clogP>
0.91

>  <TPSA>
57.53

>  <Acceptor>
3

>  <Donor>
2

>  <RotBonds>
1

>  <HAC>
10

>  <Collection>
General

>  <PPDS>
+

$$$$
F1995-0241
  Mrv2219 10102508112D          

 12 12  0  0  0  0            999 V2000
    6.1523   -3.6041    0.0000 C   0  0  0  0  0  0  0  0  0  0  0  0
    5.4373   -4.0156    0.0000 C   0  0  0  0  0  0  0  0  0  0  0  0
    4.7264   -3.6041    0.0000 C   0  0  0  0  0  0  0  0  0  0  0  0
    6.8631   -4.0156    0.0000 C   0  0  0  0  0  0  0  0  0  0  0  0
    6.1523   -2.7727    0.0000 C   0  0  0  0  0  0  0  0  0  0  0  0
    4.7264   -2.7810    0.0000 C   0  0  0  0  0  0  0  0  0  0  0  0
    7.5823   -3.5958    0.0000 O   0  0  0  0  0  0  0  0  0  0  0  0
    5.4373   -2.3612    0.0000 C   0  0  0  0  0  0  0  0  0  0  0  0
    5.4373   -4.8387    0.0000 O   0  0  0  0  0  0  0  0  0  0  0  0
    4.0073   -4.0156    0.0000 O   0  0  0  0  0  0  0  0  0  0  0  0
    6.8714   -4.8387    0.0000 O   0  0  0  0  0  0  0  0  0  0  0  0
    4.0156   -2.3695    0.0000 O   0  0  0  0  0  0  0  0  0  0  0  0
  2  1  2  0  0  0  0
  3  2  1  0  0  0  0
  4  1  1  0  0  0  0
  5  1  1  0  0  0  0
  6  8  1  0  0  0  0
  7  4  2  0  0  0  0
  8  5  2  0  0  0  0
  9  2  1  0  0  0  0
 10  3  1  0  0  0  0
 11  4  1  0  0  0  0
 12  6  1  0  0  0  0
  3  6  2  0  0  0  0
M  END
>  <IDNUMBER>
F1995-0241

>  <Chemical_Name>
2,3,4-trihydroxybenzoic acid

>  <PriceCoeff>
1.00

>  <CAS>
610-02-6

>  <MW>
170.12

>  <Description>
solid

>  <FSP3>
0.00

>  <clogP>
0.50

>  <TPSA>
97.99

>  <Acceptor>
5

>  <Donor>
3

>  <RotBonds>
1

>  <HAC>
12

>  <Collection>
General

$$$$
F2018-0572
  Mrv2219 10102508112D          

 32 34  0  0  0  0            999 V2000
   -3.8788    2.9895    0.0000 C   0  0  0  0  0  0  0  0  0  0  0  0
   -3.1648    2.5678    0.0000 N   0  0  0  0  0  0  0  0  0  0  0  0
   -1.0146    0.4968    0.0000 N   0  0  0  0  0  0  0  0  0  0  0  0
   -4.6429    2.6513    0.0000 N   0  0  0  0  0  0  0  0  0  0  0  0
   -3.9665    3.8079    0.0000 S   0  0  0  0  0  0  0  0  0  0  0  0
   -2.4509    2.9895    0.0000 C   0  0  0  0  0  0  0  0  0  0  0  0
   -1.0146    1.3361    0.0000 C   0  0  0  0  0  0  0  0  0  0  0  0
   -4.7807    3.9790    0.0000 C   0  0  0  0  0  0  0  0  0  0  0  0
   -0.3716   -0.0167    0.0000 C   0  0  0  0  0  0  0  0  0  0  0  0
   -1.7118    0.0459    0.0000 C   0  0  0  0  0  0  0  0  0  0  0  0
   -5.1940    3.2651    0.0000 C   0  0  0  0  0  0  0  0  0  0  0  0
   -1.7369    2.5678    0.0000 C   0  0  0  0  0  0  0  0  0  0  0  0
   -1.7286    1.7494    0.0000 C   0  0  0  0  0  0  0  0  0  0  0  0
   -3.1648    1.7411    0.0000 C   0  0  0  0  0  0  0  0  0  0  0  0
   -5.1815    4.6889    0.0000 C   0  0  0  0  0  0  0  0  0  0  0  0
   -2.4509    3.8079    0.0000 O   0  0  0  0  0  0  0  0  0  0  0  0
   -0.6513   -0.7933    0.0000 C   0  0  0  0  0  0  0  0  0  0  0  0
   -1.4781   -0.7683    0.0000 C   0  0  0  0  0  0  0  0  0  0  0  0
    0.4259    0.1962    0.0000 O   0  0  0  0  0  0  0  0  0  0  0  0
   -2.4801    0.3340    0.0000 O   0  0  0  0  0  0  0  0  0  0  0  0
   -6.0082    3.2651    0.0000 C   0  0  0  0  0  0  0  0  0  0  0  0
   -6.0082    4.6889    0.0000 C   0  0  0  0  0  0  0  0  0  0  0  0
   -3.8788    1.3277    0.0000 C   0  0  0  0  0  0  0  0  0  0  0  0
   -3.8788    0.5010    0.0000 N   0  0  0  0  0  0  0  0  0  0  0  0
   -6.4175    3.9790    0.0000 C   0  0  0  0  0  0  0  0  0  0  0  0
   -6.4175    5.4154    0.0000 Cl  0  0  0  0  0  0  0  0  0  0  0  0
   -0.2964    1.7369    0.0000 C   0  0  0  0  0  0  0  0  0  0  0  0
   -1.0104    2.9895    0.0000 C   0  0  0  0  0  0  0  0  0  0  0  0
   -0.2964    2.5678    0.0000 C   0  0  0  0  0  0  0  0  0  0  0  0
   -3.1648    0.0877    0.0000 C   0  0  0  0  0  0  0  0  0  0  0  0
   -4.5928    0.0877    0.0000 C   0  0  0  0  0  0  0  0  0  0  0  0
    1.9457    2.4634    0.0000 Cl  0  0  0  0  0  0  0  0  0  0  0  0
  3  7  1  0  0  0  0
  4  1  2  0  0  0  0
  5  1  1  0  0  0  0
  6  2  1  0  0  0  0
  7 13  1  0  0  0  0
  8  5  1  0  0  0  0
  9  3  1  0  0  0  0
 10  3  1  0  0  0  0
 11  4  1  0  0  0  0
 12  6  1  0  0  0  0
 13 12  2  0  0  0  0
 14  2  1  0  0  0  0
 15  8  1  0  0  0  0
 16  6  2  0  0  0  0
 17  9  1  0  0  0  0
 18 10  1  0  0  0  0
 19  9  2  0  0  0  0
 20 10  2  0  0  0  0
 21 11  1  0  0  0  0
 22 15  2  0  0  0  0
 23 14  1  0  0  0  0
 24 23  1  0  0  0  0
 25 21  2  0  0  0  0
 26 22  1  0  0  0  0
 27 29  1  0  0  0  0
 28 12  1  0  0  0  0
 29 28  2  0  0  0  0
 30 24  1  0  0  0  0
 31 24  1  0  0  0  0
  8 11  2  0  0  0  0
 25 22  1  0  0  0  0
  7 27  2  0  0  0  0
 18 17  1  0  0  0  0
  2  1  1  0  0  0  0
M  END
>  <IDNUMBER>
F2018-0572

>  <Chemical_Name>
N-(6-chloro-1,3-benzothiazol-2-yl)-N-[2-(dimethylamino)ethyl]-3-(2,5-dioxopyrrolidin-1-yl)benzamide hydrochloride

>  <PriceCoeff>
1.00

>  <MW>
456.95

>  <Description>
solid

>  <FSP3>
0.27

>  <clogP>
1.87

>  <TPSA>
102.06

>  <Acceptor>
4

>  <Donor>
1

>  <RotBonds>
7

>  <HAC>
31

>  <Collection>
General

$$$$
F2018-0987
  Mrv2219 10102508112D          

 27 28  0  0  0  0            999 V2000
   -3.8788    2.9895    0.0000 C   0  0  0  0  0  0  0  0  0  0  0  0
   -4.6429    2.6513    0.0000 N   0  0  0  0  0  0  0  0  0  0  0  0
   -1.0104    2.9895    0.0000 N   0  0  0  0  0  0  0  0  0  0  0  0
   -3.1648    2.5678    0.0000 N   0  0  0  0  0  0  0  0  0  0  0  0
   -3.9665    3.8162    0.0000 S   0  0  0  0  0  0  0  0  0  0  0  0
   -2.4509    2.9895    0.0000 C   0  0  0  0  0  0  0  0  0  0  0  0
   -5.1983    3.2567    0.0000 C   0  0  0  0  0  0  0  0  0  0  0  0
   -1.7369    2.5678    0.0000 C   0  0  0  0  0  0  0  0  0  0  0  0
   -0.9352    3.8079    0.0000 C   0  0  0  0  0  0  0  0  0  0  0  0
   -0.2630    2.6513    0.0000 C   0  0  0  0  0  0  0  0  0  0  0  0
   -4.7807    3.9790    0.0000 C   0  0  0  0  0  0  0  0  0  0  0  0
   -3.1648    1.7411    0.0000 C   0  0  0  0  0  0  0  0  0  0  0  0
   -2.4509    3.8079    0.0000 O   0  0  0  0  0  0  0  0  0  0  0  0
   -0.1253    3.9790    0.0000 C   0  0  0  0  0  0  0  0  0  0  0  0
    0.2923    3.2651    0.0000 C   0  0  0  0  0  0  0  0  0  0  0  0
   -1.5365    4.3507    0.0000 O   0  0  0  0  0  0  0  0  0  0  0  0
   -0.0877    1.8371    0.0000 O   0  0  0  0  0  0  0  0  0  0  0  0
   -6.0124    3.2567    0.0000 C   0  0  0  0  0  0  0  0  0  0  0  0
   -3.8788    1.3277    0.0000 C   0  0  0  0  0  0  0  0  0  0  0  0
   -3.8788    0.5010    0.0000 N   0  0  0  0  0  0  0  0  0  0  0  0
   -5.1940    4.6764    0.0000 C   0  0  0  0  0  0  0  0  0  0  0  0
   -6.0166    4.6764    0.0000 C   0  0  0  0  0  0  0  0  0  0  0  0
   -6.4175    3.9665    0.0000 C   0  0  0  0  0  0  0  0  0  0  0  0
   -6.4175    2.5386    0.0000 C   0  0  0  0  0  0  0  0  0  0  0  0
   -4.5928    0.0877    0.0000 C   0  0  0  0  0  0  0  0  0  0  0  0
   -3.1648    0.0877    0.0000 C   0  0  0  0  0  0  0  0  0  0  0  0
    1.6827    2.4759    0.0000 Cl  0  0  0  0  0  0  0  0  0  0  0  0
  3  8  1  0  0  0  0
  4  1  1  0  0  0  0
  5  1  1  0  0  0  0
  6  4  1  0  0  0  0
  7  2  1  0  0  0  0
  8  6  1  0  0  0  0
  9  3  1  0  0  0  0
 10  3  1  0  0  0  0
 11  5  1  0  0  0  0
 12  4  1  0  0  0  0
 13  6  2  0  0  0  0
 14  9  1  0  0  0  0
 15 10  1  0  0  0  0
 16  9  2  0  0  0  0
 17 10  2  0  0  0  0
 18  7  1  0  0  0  0
 19 12  1  0  0  0  0
 20 19  1  0  0  0  0
 21 11  1  0  0  0  0
 22 21  2  0  0  0  0
 23 18  2  0  0  0  0
 24 18  1  0  0  0  0
 25 20  1  0  0  0  0
 26 20  1  0  0  0  0
 11  7  2  0  0  0  0
 23 22  1  0  0  0  0
 14 15  1  0  0  0  0
  2  1  2  0  0  0  0
M  END
>  <IDNUMBER>
F2018-0987

>  <Chemical_Name>
N-[2-(dimethylamino)ethyl]-2-(2,5-dioxopyrrolidin-1-yl)-N-(4-methyl-1,3-benzothiazol-2-yl)acetamide hydrochloride

>  <PriceCoeff>
1.00

>  <CAS>
1216445-11-2

>  <MW>
374.46

>  <Description>
solid

>  <FSP3>
0.44

>  <clogP>
1.80

>  <TPSA>
102.06

>  <Acceptor>
4

>  <Donor>
1

>  <RotBonds>
7

>  <HAC>
26

>  <Collection>
General

>  <PPDS>
+

$$$$
F2018-1571
  Mrv2219 10102508112D          

 34 37  0  0  0  0            999 V2000
   -3.8790    2.9897    0.0000 C   0  0  0  0  0  0  0  0  0  0  0  0
   -3.1650    2.5680    0.0000 N   0  0  0  0  0  0  0  0  0  0  0  0
   -4.6432    2.6515    0.0000 N   0  0  0  0  0  0  0  0  0  0  0  0
    0.4176    1.3111    0.0000 N   0  0  0  0  0  0  0  0  0  0  0  0
   -3.9667    3.8164    0.0000 S   0  0  0  0  0  0  0  0  0  0  0  0
   -2.4511    2.9897    0.0000 C   0  0  0  0  0  0  0  0  0  0  0  0
   -5.1943    3.2653    0.0000 C   0  0  0  0  0  0  0  0  0  0  0  0
   -4.7810    3.9792    0.0000 C   0  0  0  0  0  0  0  0  0  0  0  0
    1.1650    1.6786    0.0000 C   0  0  0  0  0  0  0  0  0  0  0  0
    0.5303    0.5010    0.0000 C   0  0  0  0  0  0  0  0  0  0  0  0
   -6.0128    3.2569    0.0000 C   0  0  0  0  0  0  0  0  0  0  0  0
   -5.1986    4.6892    0.0000 C   0  0  0  0  0  0  0  0  0  0  0  0
   -6.0170    4.6767    0.0000 C   0  0  0  0  0  0  0  0  0  0  0  0
   -6.4179    3.9667    0.0000 C   0  0  0  0  0  0  0  0  0  0  0  0
   -3.1650    1.7412    0.0000 C   0  0  0  0  0  0  0  0  0  0  0  0
   -0.3006    1.7370    0.0000 C   0  0  0  0  0  0  0  0  0  0  0  0
   -1.7370    2.5680    0.0000 C   0  0  0  0  0  0  0  0  0  0  0  0
   -7.2321    4.1338    0.0000 O   0  0  0  0  0  0  0  0  0  0  0  0
   -6.5765    5.2904    0.0000 O   0  0  0  0  0  0  0  0  0  0  0  0
   -2.4511    3.8081    0.0000 O   0  0  0  0  0  0  0  0  0  0  0  0
   -7.3323    4.9522    0.0000 C   0  0  0  0  0  0  0  0  0  0  0  0
    1.7412    1.0773    0.0000 C   0  0  0  0  0  0  0  0  0  0  0  0
    1.3446    0.3590    0.0000 C   0  0  0  0  0  0  0  0  0  0  0  0
    1.3153    2.5137    0.0000 O   0  0  0  0  0  0  0  0  0  0  0  0
   -0.0584   -0.0794    0.0000 O   0  0  0  0  0  0  0  0  0  0  0  0
   -0.2964    2.5680    0.0000 C   0  0  0  0  0  0  0  0  0  0  0  0
   -1.0230    1.3362    0.0000 C   0  0  0  0  0  0  0  0  0  0  0  0
   -1.7287    1.7495    0.0000 C   0  0  0  0  0  0  0  0  0  0  0  0
   -1.0022    2.9897    0.0000 C   0  0  0  0  0  0  0  0  0  0  0  0
   -3.8790    1.3278    0.0000 C   0  0  0  0  0  0  0  0  0  0  0  0
   -3.8790    0.5010    0.0000 N   0  0  0  0  0  0  0  0  0  0  0  0
   -3.1650    0.0877    0.0000 C   0  0  0  0  0  0  0  0  0  0  0  0
   -4.5931    0.0877    0.0000 C   0  0  0  0  0  0  0  0  0  0  0  0
    3.1317    2.6056    0.0000 Cl  0  0  0  0  0  0  0  0  0  0  0  0
  3  1  2  0  0  0  0
  4 16  1  0  0  0  0
  5  1  1  0  0  0  0
  6  2  1  0  0  0  0
  7  3  1  0  0  0  0
  8  5  1  0  0  0  0
  9  4  1  0  0  0  0
 10  4  1  0  0  0  0
 11  7  1  0  0  0  0
 12  8  1  0  0  0  0
 13 12  2  0  0  0  0
 14 11  2  0  0  0  0
 15  2  1  0  0  0  0
 16 26  1  0  0  0  0
 17  6  1  0  0  0  0
 18 14  1  0  0  0  0
 19 13  1  0  0  0  0
 20  6  2  0  0  0  0
 21 19  1  0  0  0  0
 22  9  1  0  0  0  0
 23 10  1  0  0  0  0
 24  9  2  0  0  0  0
 25 10  2  0  0  0  0
 26 29  2  0  0  0  0
 27 28  1  0  0  0  0
 28 17  2  0  0  0  0
 29 17  1  0  0  0  0
 30 15  1  0  0  0  0
 31 30  1  0  0  0  0
 32 31  1  0  0  0  0
 33 31  1  0  0  0  0
  8  7  2  0  0  0  0
 13 14  1  0  0  0  0
 16 27  2  0  0  0  0
 18 21  1  0  0  0  0
 23 22  1  0  0  0  0
  2  1  1  0  0  0  0
M  END
>  <IDNUMBER>
F2018-1571

>  <Chemical_Name>
N-[2-(dimethylamino)ethyl]-N-{4,6-dioxa-10-thia-12-azatricyclo[7.3.0.0?,?]dodeca-1,3(7),8,11-tetraen-11-yl}-4-(2,5-dioxopyrrolidin-1-yl)benzamide hydrochloride

>  <PriceCoeff>
1.00

>  <CAS>
1052531-15-3

>  <MW>
466.51

>  <Description>
solid

>  <FSP3>
0.30

>  <clogP>
1.68

>  <TPSA>
120.52

>  <Acceptor>
6

>  <Donor>
1

>  <RotBonds>
7

>  <HAC>
33

>  <Collection>
General

>  <PPDS>
+

$$$$
F2018-1698
  Mrv2219 10102508112D          

 35 38  0  0  0  0            999 V2000
   -3.8739    2.9857    0.0000 C   0  0  0  0  0  0  0  0  0  0  0  0
   -3.1608    2.5645    0.0000 N   0  0  0  0  0  0  0  0  0  0  0  0
   -4.6370    2.6479    0.0000 N   0  0  0  0  0  0  0  0  0  0  0  0
    0.4170    1.3093    0.0000 N   0  0  0  0  0  0  0  0  0  0  0  0
   -3.9656    3.8113    0.0000 S   0  0  0  0  0  0  0  0  0  0  0  0
   -2.4477    2.9857    0.0000 C   0  0  0  0  0  0  0  0  0  0  0  0
   -5.1916    3.2609    0.0000 C   0  0  0  0  0  0  0  0  0  0  0  0
   -4.7746    3.9739    0.0000 C   0  0  0  0  0  0  0  0  0  0  0  0
    1.1634    1.6763    0.0000 C   0  0  0  0  0  0  0  0  0  0  0  0
    0.5296    0.5004    0.0000 C   0  0  0  0  0  0  0  0  0  0  0  0
   -6.0047    3.2609    0.0000 C   0  0  0  0  0  0  0  0  0  0  0  0
   -5.1874    4.6704    0.0000 C   0  0  0  0  0  0  0  0  0  0  0  0
   -6.0047    4.6829    0.0000 C   0  0  0  0  0  0  0  0  0  0  0  0
   -6.4093    3.9656    0.0000 C   0  0  0  0  0  0  0  0  0  0  0  0
   -3.1608    1.7389    0.0000 C   0  0  0  0  0  0  0  0  0  0  0  0
   -0.3002    1.7347    0.0000 C   0  0  0  0  0  0  0  0  0  0  0  0
   -1.7347    2.5645    0.0000 C   0  0  0  0  0  0  0  0  0  0  0  0
   -2.4477    3.8030    0.0000 O   0  0  0  0  0  0  0  0  0  0  0  0
   -7.2349    3.9614    0.0000 O   0  0  0  0  0  0  0  0  0  0  0  0
   -6.4093    5.3917    0.0000 O   0  0  0  0  0  0  0  0  0  0  0  0
    1.7389    1.0758    0.0000 C   0  0  0  0  0  0  0  0  0  0  0  0
    1.3428    0.3586    0.0000 C   0  0  0  0  0  0  0  0  0  0  0  0
    1.3135    2.5103    0.0000 O   0  0  0  0  0  0  0  0  0  0  0  0
   -0.0583   -0.0793    0.0000 O   0  0  0  0  0  0  0  0  0  0  0  0
   -0.2960    2.5645    0.0000 C   0  0  0  0  0  0  0  0  0  0  0  0
   -1.0216    1.3344    0.0000 C   0  0  0  0  0  0  0  0  0  0  0  0
   -1.7264    1.7472    0.0000 C   0  0  0  0  0  0  0  0  0  0  0  0
   -1.0008    2.9857    0.0000 C   0  0  0  0  0  0  0  0  0  0  0  0
   -3.8739    1.3260    0.0000 C   0  0  0  0  0  0  0  0  0  0  0  0
   -3.8739    0.5004    0.0000 N   0  0  0  0  0  0  0  0  0  0  0  0
   -7.2474    5.3917    0.0000 C   0  0  0  0  0  0  0  0  0  0  0  0
   -7.6602    4.6704    0.0000 C   0  0  0  0  0  0  0  0  0  0  0  0
   -4.5869    0.0876    0.0000 C   0  0  0  0  0  0  0  0  0  0  0  0
   -3.1608    0.0876    0.0000 C   0  0  0  0  0  0  0  0  0  0  0  0
    3.1275    2.6563    0.0000 Cl  0  0  0  0  0  0  0  0  0  0  0  0
  3  1  2  0  0  0  0
  4 16  1  0  0  0  0
  5  1  1  0  0  0  0
  6  2  1  0  0  0  0
  7  3  1  0  0  0  0
  8  5  1  0  0  0  0
  9  4  1  0  0  0  0
 10  4  1  0  0  0  0
 11  7  1  0  0  0  0
 12  8  1  0  0  0  0
 13 12  2  0  0  0  0
 14 11  2  0  0  0  0
 15  2  1  0  0  0  0
 16 25  1  0  0  0  0
 17  6  1  0  0  0  0
 18  6  2  0  0  0  0
 19 14  1  0  0  0  0
 20 13  1  0  0  0  0
 21  9  1  0  0  0  0
 22 10  1  0  0  0  0
 23  9  2  0  0  0  0
 24 10  2  0  0  0  0
 25 28  2  0  0  0  0
 26 27  1  0  0  0  0
 27 17  2  0  0  0  0
 28 17  1  0  0  0  0
 29 15  1  0  0  0  0
 30 29  1  0  0  0  0
 31 20  1  0  0  0  0
 32 19  1  0  0  0  0
 33 30  1  0  0  0  0
 34 30  1  0  0  0  0
  8  7  2  0  0  0  0
 13 14  1  0  0  0  0
 16 26  2  0  0  0  0
 32 31  1  0  0  0  0
 22 21  1  0  0  0  0
  2  1  1  0  0  0  0
M  END
>  <IDNUMBER>
F2018-1698

>  <Chemical_Name>
N-[2-(dimethylamino)ethyl]-N-{10,13-dioxa-4-thia-6-azatricyclo[7.4.0.0?,?]trideca-1(9),2,5,7-tetraen-5-yl}-4-(2,5-dioxopyrrolidin-1-yl)benzamide hydrochloride

>  <PriceCoeff>
1.00

>  <CAS>
1052538-21-2

>  <MW>
480.54

>  <Description>
solid

>  <FSP3>
0.33

>  <clogP>
1.64

>  <TPSA>
120.52

>  <Acceptor>
6

>  <Donor>
1

>  <RotBonds>
7

>  <HAC>
34

>  <Collection>
General

>  <PPDS>
+

$$$$
F2018-1842
  Mrv2219 10102508112D          

 35 37  0  0  0  0            999 V2000
   -3.8766    2.9878    0.0000 C   0  0  0  0  0  0  0  0  0  0  0  0
   -3.1631    2.5664    0.0000 N   0  0  0  0  0  0  0  0  0  0  0  0
   -4.6320    2.6498    0.0000 N   0  0  0  0  0  0  0  0  0  0  0  0
   -1.0140    0.4965    0.0000 N   0  0  0  0  0  0  0  0  0  0  0  0
   -3.9643    3.8057    0.0000 S   0  0  0  0  0  0  0  0  0  0  0  0
   -2.4495    2.9878    0.0000 C   0  0  0  0  0  0  0  0  0  0  0  0
   -5.1911    3.2632    0.0000 C   0  0  0  0  0  0  0  0  0  0  0  0
   -4.7780    3.9768    0.0000 C   0  0  0  0  0  0  0  0  0  0  0  0
   -1.0140    1.3353    0.0000 C   0  0  0  0  0  0  0  0  0  0  0  0
   -0.3714   -0.0167    0.0000 C   0  0  0  0  0  0  0  0  0  0  0  0
   -1.7109    0.0459    0.0000 C   0  0  0  0  0  0  0  0  0  0  0  0
   -1.7359    2.5664    0.0000 C   0  0  0  0  0  0  0  0  0  0  0  0
   -6.0048    3.2549    0.0000 C   0  0  0  0  0  0  0  0  0  0  0  0
   -5.1828    4.6737    0.0000 C   0  0  0  0  0  0  0  0  0  0  0  0
   -1.7276    1.7484    0.0000 C   0  0  0  0  0  0  0  0  0  0  0  0
   -3.1631    1.7401    0.0000 C   0  0  0  0  0  0  0  0  0  0  0  0
   -6.4096    3.9685    0.0000 C   0  0  0  0  0  0  0  0  0  0  0  0
   -6.0090    4.6737    0.0000 C   0  0  0  0  0  0  0  0  0  0  0  0
   -2.4495    3.8057    0.0000 O   0  0  0  0  0  0  0  0  0  0  0  0
   -0.6510   -0.7929    0.0000 C   0  0  0  0  0  0  0  0  0  0  0  0
   -1.4772   -0.7679    0.0000 C   0  0  0  0  0  0  0  0  0  0  0  0
    0.4256    0.1961    0.0000 O   0  0  0  0  0  0  0  0  0  0  0  0
   -2.4787    0.3338    0.0000 O   0  0  0  0  0  0  0  0  0  0  0  0
   -3.8766    1.3270    0.0000 C   0  0  0  0  0  0  0  0  0  0  0  0
   -3.8766    0.5008    0.0000 N   0  0  0  0  0  0  0  0  0  0  0  0
   -7.2401    3.9768    0.0000 O   0  0  0  0  0  0  0  0  0  0  0  0
   -6.4139    5.3998    0.0000 O   0  0  0  0  0  0  0  0  0  0  0  0
   -0.2962    1.7359    0.0000 C   0  0  0  0  0  0  0  0  0  0  0  0
   -1.0098    2.9878    0.0000 C   0  0  0  0  0  0  0  0  0  0  0  0
   -0.2962    2.5664    0.0000 C   0  0  0  0  0  0  0  0  0  0  0  0
   -4.5902    0.0876    0.0000 C   0  0  0  0  0  0  0  0  0  0  0  0
   -3.1631    0.0876    0.0000 C   0  0  0  0  0  0  0  0  0  0  0  0
   -7.2401    5.3998    0.0000 C   0  0  0  0  0  0  0  0  0  0  0  0
   -7.6532    3.2507    0.0000 C   0  0  0  0  0  0  0  0  0  0  0  0
    1.9446    2.4537    0.0000 Cl  0  0  0  0  0  0  0  0  0  0  0  0
  3  1  2  0  0  0  0
  4  9  1  0  0  0  0
  5  1  1  0  0  0  0
  6  2  1  0  0  0  0
  7  3  1  0  0  0  0
  8  5  1  0  0  0  0
  9 15  1  0  0  0  0
 10  4  1  0  0  0  0
 11  4  1  0  0  0  0
 12  6  1  0  0  0  0
 13  7  1  0  0  0  0
 14  8  1  0  0  0  0
 15 12  2  0  0  0  0
 16  2  1  0  0  0  0
 17 13  2  0  0  0  0
 18 14  2  0  0  0  0
 19  6  2  0  0  0  0
 20 10  1  0  0  0  0
 21 11  1  0  0  0  0
 22 10  2  0  0  0  0
 23 11  2  0  0  0  0
 24 16  1  0  0  0  0
 25 24  1  0  0  0  0
 26 17  1  0  0  0  0
 27 18  1  0  0  0  0
 28 30  1  0  0  0  0
 29 12  1  0  0  0  0
 30 29  2  0  0  0  0
 31 25  1  0  0  0  0
 32 25  1  0  0  0  0
 33 27  1  0  0  0  0
 34 26  1  0  0  0  0
  8  7  2  0  0  0  0
 17 18  1  0  0  0  0
  9 28  2  0  0  0  0
 21 20  1  0  0  0  0
  2  1  1  0  0  0  0
M  END
>  <IDNUMBER>
F2018-1842

>  <Chemical_Name>
N-(5,6-dimethoxy-1,3-benzothiazol-2-yl)-N-[2-(dimethylamino)ethyl]-3-(2,5-dioxopyrrolidin-1-yl)benzamide hydrochloride

>  <PriceCoeff>
1.00

>  <CAS>
1329882-09-8

>  <MW>
482.55

>  <Description>
solid

>  <FSP3>
0.33

>  <clogP>
1.38

>  <TPSA>
120.52

>  <Acceptor>
6

>  <Donor>
1

>  <RotBonds>
9

>  <HAC>
34

>  <Collection>
General

>  <PPDS>
+

$$$$
F2018-2477
  Mrv2219 10102508112D          

 34 36  0  0  0  0            999 V2000
   -3.8788    2.9895    0.0000 C   0  0  0  0  0  0  0  0  0  0  0  0
   -4.6346    2.6513    0.0000 N   0  0  0  0  0  0  0  0  0  0  0  0
   -3.1648    2.5678    0.0000 N   0  0  0  0  0  0  0  0  0  0  0  0
   -3.9665    3.8162    0.0000 S   0  0  0  0  0  0  0  0  0  0  0  0
   -1.0146    0.4968    0.0000 N   0  0  0  0  0  0  0  0  0  0  0  0
   -5.1940    3.2651    0.0000 C   0  0  0  0  0  0  0  0  0  0  0  0
   -2.4509    2.9895    0.0000 C   0  0  0  0  0  0  0  0  0  0  0  0
   -4.7807    3.9790    0.0000 C   0  0  0  0  0  0  0  0  0  0  0  0
   -1.0146    1.3361    0.0000 C   0  0  0  0  0  0  0  0  0  0  0  0
   -0.3716   -0.0167    0.0000 C   0  0  0  0  0  0  0  0  0  0  0  0
   -1.7118    0.0459    0.0000 C   0  0  0  0  0  0  0  0  0  0  0  0
   -1.7369    2.5678    0.0000 C   0  0  0  0  0  0  0  0  0  0  0  0
   -1.7286    1.7494    0.0000 C   0  0  0  0  0  0  0  0  0  0  0  0
   -3.1648    1.7411    0.0000 C   0  0  0  0  0  0  0  0  0  0  0  0
   -6.0124    3.2567    0.0000 C   0  0  0  0  0  0  0  0  0  0  0  0
   -5.1940    4.6764    0.0000 C   0  0  0  0  0  0  0  0  0  0  0  0
   -2.4509    3.8079    0.0000 O   0  0  0  0  0  0  0  0  0  0  0  0
   -0.6513   -0.7933    0.0000 C   0  0  0  0  0  0  0  0  0  0  0  0
   -1.4781   -0.7683    0.0000 C   0  0  0  0  0  0  0  0  0  0  0  0
    0.4259    0.1962    0.0000 O   0  0  0  0  0  0  0  0  0  0  0  0
   -2.4801    0.3340    0.0000 O   0  0  0  0  0  0  0  0  0  0  0  0
   -6.4175    3.9665    0.0000 C   0  0  0  0  0  0  0  0  0  0  0  0
   -6.0166    4.6764    0.0000 C   0  0  0  0  0  0  0  0  0  0  0  0
   -3.8788    1.3277    0.0000 C   0  0  0  0  0  0  0  0  0  0  0  0
   -3.8788    0.5010    0.0000 N   0  0  0  0  0  0  0  0  0  0  0  0
   -0.2964    1.7369    0.0000 C   0  0  0  0  0  0  0  0  0  0  0  0
   -6.4175    2.5428    0.0000 O   0  0  0  0  0  0  0  0  0  0  0  0
   -1.0104    2.9895    0.0000 C   0  0  0  0  0  0  0  0  0  0  0  0
   -0.2964    2.5678    0.0000 C   0  0  0  0  0  0  0  0  0  0  0  0
   -4.7807    5.4029    0.0000 C   0  0  0  0  0  0  0  0  0  0  0  0
   -4.5928    0.0877    0.0000 C   0  0  0  0  0  0  0  0  0  0  0  0
   -3.1648    0.0877    0.0000 C   0  0  0  0  0  0  0  0  0  0  0  0
   -6.0082    1.8371    0.0000 C   0  0  0  0  0  0  0  0  0  0  0  0
    1.9457    2.4008    0.0000 Cl  0  0  0  0  0  0  0  0  0  0  0  0
  3  1  1  0  0  0  0
  4  1  1  0  0  0  0
  5  9  1  0  0  0  0
  6  2  1  0  0  0  0
  7  3  1  0  0  0  0
  8  4  1  0  0  0  0
  9 13  1  0  0  0  0
 10  5  1  0  0  0  0
 11  5  1  0  0  0  0
 12  7  1  0  0  0  0
 13 12  2  0  0  0  0
 14  3  1  0  0  0  0
 15  6  1  0  0  0  0
 16  8  1  0  0  0  0
 17  7  2  0  0  0  0
 18 10  1  0  0  0  0
 19 11  1  0  0  0  0
 20 10  2  0  0  0  0
 21 11  2  0  0  0  0
 22 15  2  0  0  0  0
 23 16  2  0  0  0  0
 24 14  1  0  0  0  0
 25 24  1  0  0  0  0
 26 29  1  0  0  0  0
 27 15  1  0  0  0  0
 28 12  1  0  0  0  0
 29 28  2  0  0  0  0
 30 16  1  0  0  0  0
 31 25  1  0  0  0  0
 32 25  1  0  0  0  0
 33 27  1  0  0  0  0
  8  6  2  0  0  0  0
 22 23  1  0  0  0  0
  9 26  2  0  0  0  0
 19 18  1  0  0  0  0
  2  1  2  0  0  0  0
M  END
>  <IDNUMBER>
F2018-2477

>  <Chemical_Name>
N-[2-(dimethylamino)ethyl]-3-(2,5-dioxopyrrolidin-1-yl)-N-(4-methoxy-7-methyl-1,3-benzothiazol-2-yl)benzamide hydrochloride

>  <PriceCoeff>
1.00

>  <CAS>
1135209-73-2

>  <MW>
466.55

>  <Description>
solid

>  <FSP3>
0.33

>  <clogP>
1.93

>  <TPSA>
111.29

>  <Acceptor>
5

>  <Donor>
1

>  <RotBonds>
8

>  <HAC>
33

>  <Collection>
General

>  <PPDS>
+

$$$$
F2018-2985
  Mrv2219 10102508112D          

 35 37  0  0  0  0            999 V2000
   -3.1583    2.9833    0.0000 C   0  0  0  0  0  0  0  0  0  0  0  0
   -2.4375    2.5625    0.0000 N   0  0  0  0  0  0  0  0  0  0  0  0
   -0.2958    0.4958    0.0000 N   0  0  0  0  0  0  0  0  0  0  0  0
   -3.9125    2.6458    0.0000 N   0  0  0  0  0  0  0  0  0  0  0  0
   -3.2458    3.8083    0.0000 S   0  0  0  0  0  0  0  0  0  0  0  0
   -1.7250    2.9833    0.0000 C   0  0  0  0  0  0  0  0  0  0  0  0
   -0.2958    1.3333    0.0000 C   0  0  0  0  0  0  0  0  0  0  0  0
   -4.0583    3.9708    0.0000 C   0  0  0  0  0  0  0  0  0  0  0  0
    0.3500   -0.0167    0.0000 C   0  0  0  0  0  0  0  0  0  0  0  0
   -0.9958    0.0458    0.0000 C   0  0  0  0  0  0  0  0  0  0  0  0
   -4.4708    3.2583    0.0000 C   0  0  0  0  0  0  0  0  0  0  0  0
   -1.0125    2.5625    0.0000 C   0  0  0  0  0  0  0  0  0  0  0  0
   -1.0083    1.7458    0.0000 C   0  0  0  0  0  0  0  0  0  0  0  0
   -2.4375    1.7375    0.0000 C   0  0  0  0  0  0  0  0  0  0  0  0
   -4.4708    4.6667    0.0000 C   0  0  0  0  0  0  0  0  0  0  0  0
   -1.7250    3.8000    0.0000 O   0  0  0  0  0  0  0  0  0  0  0  0
    0.0667   -0.7917    0.0000 C   0  0  0  0  0  0  0  0  0  0  0  0
   -0.7583   -0.7667    0.0000 C   0  0  0  0  0  0  0  0  0  0  0  0
    1.1417    0.1958    0.0000 O   0  0  0  0  0  0  0  0  0  0  0  0
   -1.7583    0.3333    0.0000 O   0  0  0  0  0  0  0  0  0  0  0  0
   -5.2833    3.2458    0.0000 C   0  0  0  0  0  0  0  0  0  0  0  0
   -5.2958    4.6667    0.0000 C   0  0  0  0  0  0  0  0  0  0  0  0
   -3.1583    1.3250    0.0000 C   0  0  0  0  0  0  0  0  0  0  0  0
   -3.1583    0.5000    0.0000 N   0  0  0  0  0  0  0  0  0  0  0  0
   -5.6958    3.9583    0.0000 C   0  0  0  0  0  0  0  0  0  0  0  0
    0.4167    1.7333    0.0000 C   0  0  0  0  0  0  0  0  0  0  0  0
   -0.2875    2.9833    0.0000 C   0  0  0  0  0  0  0  0  0  0  0  0
   -5.7083    5.3792    0.0000 O   0  0  0  0  0  0  0  0  0  0  0  0
    0.4250    2.5625    0.0000 C   0  0  0  0  0  0  0  0  0  0  0  0
   -2.4375    0.0875    0.0000 C   0  0  0  0  0  0  0  0  0  0  0  0
   -3.8708    0.0875    0.0000 C   0  0  0  0  0  0  0  0  0  0  0  0
   -6.5292    5.3792    0.0000 C   0  0  0  0  0  0  0  0  0  0  0  0
   -4.5833    0.5000    0.0000 C   0  0  0  0  0  0  0  0  0  0  0  0
   -2.4375   -0.7375    0.0000 C   0  0  0  0  0  0  0  0  0  0  0  0
    2.6584    2.4458    0.0000 Cl  0  0  0  0  0  0  0  0  0  0  0  0
  3  7  1  0  0  0  0
  4  1  2  0  0  0  0
  5  1  1  0  0  0  0
  6  2  1  0  0  0  0
  7 13  1  0  0  0  0
  8  5  1  0  0  0  0
  9  3  1  0  0  0  0
 10  3  1  0  0  0  0
 11  4  1  0  0  0  0
 12  6  1  0  0  0  0
 13 12  2  0  0  0  0
 14  2  1  0  0  0  0
 15  8  1  0  0  0  0
 16  6  2  0  0  0  0
 17  9  1  0  0  0  0
 18 10  1  0  0  0  0
 19  9  2  0  0  0  0
 20 10  2  0  0  0  0
 21 11  1  0  0  0  0
 22 15  2  0  0  0  0
 23 14  1  0  0  0  0
 24 23  1  0  0  0  0
 25 21  2  0  0  0  0
 26 29  1  0  0  0  0
 27 12  1  0  0  0  0
 28 22  1  0  0  0  0
 29 27  2  0  0  0  0
 30 24  1  0  0  0  0
 31 24  1  0  0  0  0
 32 28  1  0  0  0  0
 33 31  1  0  0  0  0
 34 30  1  0  0  0  0
  8 11  2  0  0  0  0
 25 22  1  0  0  0  0
  7 26  2  0  0  0  0
 18 17  1  0  0  0  0
  2  1  1  0  0  0  0
M  END
>  <IDNUMBER>
F2018-2985

>  <Chemical_Name>
N-[2-(diethylamino)ethyl]-3-(2,5-dioxopyrrolidin-1-yl)-N-(6-methoxy-1,3-benzothiazol-2-yl)benzamide hydrochloride

>  <PriceCoeff>
1.00

>  <CAS>
1329897-56-4

>  <MW>
480.58

>  <Description>
solid

>  <FSP3>
0.36

>  <clogP>
2.48

>  <TPSA>
111.29

>  <Acceptor>
5

>  <Donor>
1

>  <RotBonds>
10

>  <HAC>
34

>  <Collection>
General

>  <PPDS>
+

$$$$
F2018-3400
  Mrv2219 10102508112D          

 29 30  0  0  0  0            999 V2000
   -3.1583    2.9833    0.0000 C   0  0  0  0  0  0  0  0  0  0  0  0
   -0.2958    2.9833    0.0000 N   0  0  0  0  0  0  0  0  0  0  0  0
   -2.4375    2.5625    0.0000 N   0  0  0  0  0  0  0  0  0  0  0  0
   -3.9125    2.6458    0.0000 N   0  0  0  0  0  0  0  0  0  0  0  0
   -3.2375    3.8000    0.0000 S   0  0  0  0  0  0  0  0  0  0  0  0
   -1.7250    2.9833    0.0000 C   0  0  0  0  0  0  0  0  0  0  0  0
   -1.0125    2.5625    0.0000 C   0  0  0  0  0  0  0  0  0  0  0  0
   -0.2125    3.8000    0.0000 C   0  0  0  0  0  0  0  0  0  0  0  0
    0.4542    2.6458    0.0000 C   0  0  0  0  0  0  0  0  0  0  0  0
   -4.0500    3.9708    0.0000 C   0  0  0  0  0  0  0  0  0  0  0  0
   -4.4708    3.2583    0.0000 C   0  0  0  0  0  0  0  0  0  0  0  0
   -2.4375    1.7375    0.0000 C   0  0  0  0  0  0  0  0  0  0  0  0
   -4.4583    4.6792    0.0000 C   0  0  0  0  0  0  0  0  0  0  0  0
   -1.7250    3.8000    0.0000 O   0  0  0  0  0  0  0  0  0  0  0  0
    0.5917    3.9708    0.0000 C   0  0  0  0  0  0  0  0  0  0  0  0
    1.0125    3.2583    0.0000 C   0  0  0  0  0  0  0  0  0  0  0  0
   -0.8125    4.3417    0.0000 O   0  0  0  0  0  0  0  0  0  0  0  0
    0.6292    1.8333    0.0000 O   0  0  0  0  0  0  0  0  0  0  0  0
   -5.2833    3.2583    0.0000 C   0  0  0  0  0  0  0  0  0  0  0  0
   -5.2833    4.6792    0.0000 C   0  0  0  0  0  0  0  0  0  0  0  0
   -3.1583    1.3250    0.0000 C   0  0  0  0  0  0  0  0  0  0  0  0
   -3.1583    0.5000    0.0000 N   0  0  0  0  0  0  0  0  0  0  0  0
   -5.6958    3.9708    0.0000 C   0  0  0  0  0  0  0  0  0  0  0  0
   -5.6958    5.4042    0.0000 Cl  0  0  0  0  0  0  0  0  0  0  0  0
   -3.8708    0.0875    0.0000 C   0  0  0  0  0  0  0  0  0  0  0  0
   -2.4375    0.0875    0.0000 C   0  0  0  0  0  0  0  0  0  0  0  0
   -4.5833    0.5000    0.0000 C   0  0  0  0  0  0  0  0  0  0  0  0
   -2.4375   -0.7375    0.0000 C   0  0  0  0  0  0  0  0  0  0  0  0
    2.4000    2.4833    0.0000 Cl  0  0  0  0  0  0  0  0  0  0  0  0
  3  1  1  0  0  0  0
  4  1  2  0  0  0  0
  5  1  1  0  0  0  0
  6  3  1  0  0  0  0
  7  6  1  0  0  0  0
  8  2  1  0  0  0  0
  9  2  1  0  0  0  0
 10  5  1  0  0  0  0
 11  4  1  0  0  0  0
 12  3  1  0  0  0  0
 13 10  1  0  0  0  0
 14  6  2  0  0  0  0
 15  8  1  0  0  0  0
 16  9  1  0  0  0  0
 17  8  2  0  0  0  0
 18  9  2  0  0  0  0
 19 11  1  0  0  0  0
 20 13  2  0  0  0  0
 21 12  1  0  0  0  0
 22 21  1  0  0  0  0
 23 19  2  0  0  0  0
 24 20  1  0  0  0  0
 25 22  1  0  0  0  0
 26 22  1  0  0  0  0
 27 25  1  0  0  0  0
 28 26  1  0  0  0  0
 10 11  2  0  0  0  0
 23 20  1  0  0  0  0
 15 16  1  0  0  0  0
  2  7  1  0  0  0  0
M  END
>  <IDNUMBER>
F2018-3400

>  <Chemical_Name>
N-(6-chloro-1,3-benzothiazol-2-yl)-N-[2-(diethylamino)ethyl]-2-(2,5-dioxopyrrolidin-1-yl)acetamide hydrochloride

>  <PriceCoeff>
1.00

>  <CAS>
1216418-40-4

>  <MW>
422.93

>  <Description>
solid

>  <FSP3>
0.47

>  <clogP>
3.10

>  <TPSA>
102.06

>  <Acceptor>
4

>  <Donor>
1

>  <RotBonds>
9

>  <HAC>
28

>  <Collection>
General

>  <PPDS>
+

$$$$
F2018-3527
  Mrv2219 10102508112D          

 29 30  0  0  0  0            999 V2000
   -3.1583    2.9833    0.0000 C   0  0  0  0  0  0  0  0  0  0  0  0
   -0.2958    2.9833    0.0000 N   0  0  0  0  0  0  0  0  0  0  0  0
   -2.4375    2.5625    0.0000 N   0  0  0  0  0  0  0  0  0  0  0  0
   -3.9125    2.6458    0.0000 N   0  0  0  0  0  0  0  0  0  0  0  0
   -3.2458    3.8083    0.0000 S   0  0  0  0  0  0  0  0  0  0  0  0
   -1.7250    2.9833    0.0000 C   0  0  0  0  0  0  0  0  0  0  0  0
   -1.0125    2.5625    0.0000 C   0  0  0  0  0  0  0  0  0  0  0  0
   -0.2125    3.8000    0.0000 C   0  0  0  0  0  0  0  0  0  0  0  0
    0.4542    2.6458    0.0000 C   0  0  0  0  0  0  0  0  0  0  0  0
   -4.0583    3.9708    0.0000 C   0  0  0  0  0  0  0  0  0  0  0  0
   -4.4708    3.2583    0.0000 C   0  0  0  0  0  0  0  0  0  0  0  0
   -2.4375    1.7375    0.0000 C   0  0  0  0  0  0  0  0  0  0  0  0
   -4.4708    4.6667    0.0000 C   0  0  0  0  0  0  0  0  0  0  0  0
   -1.7250    3.8000    0.0000 O   0  0  0  0  0  0  0  0  0  0  0  0
    0.5917    3.9708    0.0000 C   0  0  0  0  0  0  0  0  0  0  0  0
    1.0125    3.2583    0.0000 C   0  0  0  0  0  0  0  0  0  0  0  0
   -0.8125    4.3417    0.0000 O   0  0  0  0  0  0  0  0  0  0  0  0
    0.6292    1.8333    0.0000 O   0  0  0  0  0  0  0  0  0  0  0  0
   -5.2833    3.2458    0.0000 C   0  0  0  0  0  0  0  0  0  0  0  0
   -5.2958    4.6667    0.0000 C   0  0  0  0  0  0  0  0  0  0  0  0
   -3.1583    1.3250    0.0000 C   0  0  0  0  0  0  0  0  0  0  0  0
   -3.1583    0.5000    0.0000 N   0  0  0  0  0  0  0  0  0  0  0  0
   -5.6958    3.9583    0.0000 C   0  0  0  0  0  0  0  0  0  0  0  0
   -5.7208    5.3917    0.0000 Br  0  0  0  0  0  0  0  0  0  0  0  0
   -3.8708    0.0875    0.0000 C   0  0  0  0  0  0  0  0  0  0  0  0
   -2.4375    0.0875    0.0000 C   0  0  0  0  0  0  0  0  0  0  0  0
   -4.5833    0.5000    0.0000 C   0  0  0  0  0  0  0  0  0  0  0  0
   -2.4375   -0.7375    0.0000 C   0  0  0  0  0  0  0  0  0  0  0  0
    2.4000    2.4792    0.0000 Cl  0  0  0  0  0  0  0  0  0  0  0  0
  3  1  1  0  0  0  0
  4  1  2  0  0  0  0
  5  1  1  0  0  0  0
  6  3  1  0  0  0  0
  7  6  1  0  0  0  0
  8  2  1  0  0  0  0
  9  2  1  0  0  0  0
 10  5  1  0  0  0  0
 11  4  1  0  0  0  0
 12  3  1  0  0  0  0
 13 10  1  0  0  0  0
 14  6  2  0  0  0  0
 15  8  1  0  0  0  0
 16  9  1  0  0  0  0
 17  8  2  0  0  0  0
 18  9  2  0  0  0  0
 19 11  1  0  0  0  0
 20 13  2  0  0  0  0
 21 12  1  0  0  0  0
 22 21  1  0  0  0  0
 23 19  2  0  0  0  0
 24 20  1  0  0  0  0
 25 22  1  0  0  0  0
 26 22  1  0  0  0  0
 27 25  1  0  0  0  0
 28 26  1  0  0  0  0
 10 11  2  0  0  0  0
 23 20  1  0  0  0  0
 15 16  1  0  0  0  0
  2  7  1  0  0  0  0
M  END
>  <IDNUMBER>
F2018-3527

>  <Chemical_Name>
N-(6-bromo-1,3-benzothiazol-2-yl)-N-[2-(diethylamino)ethyl]-2-(2,5-dioxopyrrolidin-1-yl)acetamide hydrochloride

>  <PriceCoeff>
1.00

>  <CAS>
1215610-36-8

>  <MW>
467.38

>  <Description>
solid

>  <FSP3>
0.47

>  <clogP>
3.25

>  <TPSA>
102.06

>  <Acceptor>
4

>  <Donor>
1

>  <RotBonds>
9

>  <HAC>
28

>  <Collection>
General

>  <PPDS>
+

$$$$
F2018-3874
  Mrv2219 10102508112D          

 35 37  0  0  0  0            999 V2000
   -3.1583    2.9833    0.0000 C   0  0  0  0  0  0  0  0  0  0  0  0
   -3.9125    2.6458    0.0000 N   0  0  0  0  0  0  0  0  0  0  0  0
   -2.4375    2.5625    0.0000 N   0  0  0  0  0  0  0  0  0  0  0  0
   -0.2958    0.4958    0.0000 N   0  0  0  0  0  0  0  0  0  0  0  0
   -3.2458    3.8083    0.0000 S   0  0  0  0  0  0  0  0  0  0  0  0
   -1.7250    2.9833    0.0000 C   0  0  0  0  0  0  0  0  0  0  0  0
   -4.4708    3.2583    0.0000 C   0  0  0  0  0  0  0  0  0  0  0  0
   -0.2958    1.3333    0.0000 C   0  0  0  0  0  0  0  0  0  0  0  0
    0.3500   -0.0167    0.0000 C   0  0  0  0  0  0  0  0  0  0  0  0
   -0.9958    0.0458    0.0000 C   0  0  0  0  0  0  0  0  0  0  0  0
   -4.0583    3.9708    0.0000 C   0  0  0  0  0  0  0  0  0  0  0  0
   -1.0125    2.5625    0.0000 C   0  0  0  0  0  0  0  0  0  0  0  0
   -1.0083    1.7458    0.0000 C   0  0  0  0  0  0  0  0  0  0  0  0
   -2.4375    1.7375    0.0000 C   0  0  0  0  0  0  0  0  0  0  0  0
   -1.7250    3.8000    0.0000 O   0  0  0  0  0  0  0  0  0  0  0  0
   -5.2833    3.2458    0.0000 C   0  0  0  0  0  0  0  0  0  0  0  0
    0.0667   -0.7917    0.0000 C   0  0  0  0  0  0  0  0  0  0  0  0
   -0.7583   -0.7667    0.0000 C   0  0  0  0  0  0  0  0  0  0  0  0
    1.1417    0.1958    0.0000 O   0  0  0  0  0  0  0  0  0  0  0  0
   -1.7583    0.3333    0.0000 O   0  0  0  0  0  0  0  0  0  0  0  0
   -3.1583    1.3250    0.0000 C   0  0  0  0  0  0  0  0  0  0  0  0
   -3.1583    0.5000    0.0000 N   0  0  0  0  0  0  0  0  0  0  0  0
    0.4167    1.7333    0.0000 C   0  0  0  0  0  0  0  0  0  0  0  0
   -5.7083    2.5375    0.0000 O   0  0  0  0  0  0  0  0  0  0  0  0
   -4.4708    4.6667    0.0000 C   0  0  0  0  0  0  0  0  0  0  0  0
   -0.2875    2.9833    0.0000 C   0  0  0  0  0  0  0  0  0  0  0  0
    0.4250    2.5625    0.0000 C   0  0  0  0  0  0  0  0  0  0  0  0
   -5.2958    4.6667    0.0000 C   0  0  0  0  0  0  0  0  0  0  0  0
   -5.6958    3.9583    0.0000 C   0  0  0  0  0  0  0  0  0  0  0  0
   -2.4375    0.0875    0.0000 C   0  0  0  0  0  0  0  0  0  0  0  0
   -3.8708    0.0875    0.0000 C   0  0  0  0  0  0  0  0  0  0  0  0
   -5.2833    1.8208    0.0000 C   0  0  0  0  0  0  0  0  0  0  0  0
   -4.5833    0.5000    0.0000 C   0  0  0  0  0  0  0  0  0  0  0  0
   -2.4375   -0.7375    0.0000 C   0  0  0  0  0  0  0  0  0  0  0  0
    2.6584    2.0333    0.0000 Cl  0  0  0  0  0  0  0  0  0  0  0  0
  3  1  1  0  0  0  0
  4  8  1  0  0  0  0
  5  1  1  0  0  0  0
  6  3  1  0  0  0  0
  7  2  1  0  0  0  0
  8 13  1  0  0  0  0
  9  4  1  0  0  0  0
 10  4  1  0  0  0  0
 11  5  1  0  0  0  0
 12  6  1  0  0  0  0
 13 12  2  0  0  0  0
 14  3  1  0  0  0  0
 15  6  2  0  0  0  0
 16  7  1  0  0  0  0
 17  9  1  0  0  0  0
 18 10  1  0  0  0  0
 19  9  2  0  0  0  0
 20 10  2  0  0  0  0
 21 14  1  0  0  0  0
 22 21  1  0  0  0  0
 23 27  1  0  0  0  0
 24 16  1  0  0  0  0
 25 11  1  0  0  0  0
 26 12  1  0  0  0  0
 27 26  2  0  0  0  0
 28 25  2  0  0  0  0
 29 16  2  0  0  0  0
 30 22  1  0  0  0  0
 31 22  1  0  0  0  0
 32 24  1  0  0  0  0
 33 31  1  0  0  0  0
 34 30  1  0  0  0  0
 11  7  2  0  0  0  0
 29 28  1  0  0  0  0
  8 23  2  0  0  0  0
 18 17  1  0  0  0  0
  2  1  2  0  0  0  0
M  END
>  <IDNUMBER>
F2018-3874

>  <Chemical_Name>
N-[2-(diethylamino)ethyl]-3-(2,5-dioxopyrrolidin-1-yl)-N-(4-methoxy-1,3-benzothiazol-2-yl)benzamide hydrochloride

>  <PriceCoeff>
1.00

>  <CAS>
1135212-02-0

>  <MW>
480.58

>  <Description>
solid

>  <FSP3>
0.36

>  <clogP>
2.48

>  <TPSA>
111.29

>  <Acceptor>
5

>  <Donor>
1

>  <RotBonds>
10

>  <HAC>
34

>  <Collection>
General

>  <PPDS>
+

$$$$
F2018-4001
  Mrv2219 10102508112D          

 36 38  0  0  0  0            999 V2000
   -3.1429    2.9688    0.0000 C   0  0  0  0  0  0  0  0  0  0  0  0
   -3.9142    2.6205    0.0000 N   0  0  0  0  0  0  0  0  0  0  0  0
   -2.4256    2.5500    0.0000 N   0  0  0  0  0  0  0  0  0  0  0  0
   -0.2944    0.4934    0.0000 N   0  0  0  0  0  0  0  0  0  0  0  0
   -3.2300    3.8146    0.0000 S   0  0  0  0  0  0  0  0  0  0  0  0
   -1.7166    2.9688    0.0000 C   0  0  0  0  0  0  0  0  0  0  0  0
   -4.4864    3.2549    0.0000 C   0  0  0  0  0  0  0  0  0  0  0  0
   -0.2944    1.3268    0.0000 C   0  0  0  0  0  0  0  0  0  0  0  0
    0.3483   -0.0166    0.0000 C   0  0  0  0  0  0  0  0  0  0  0  0
   -0.9910    0.0456    0.0000 C   0  0  0  0  0  0  0  0  0  0  0  0
   -4.0634    3.9805    0.0000 C   0  0  0  0  0  0  0  0  0  0  0  0
   -1.0076    2.5500    0.0000 C   0  0  0  0  0  0  0  0  0  0  0  0
   -1.0034    1.7373    0.0000 C   0  0  0  0  0  0  0  0  0  0  0  0
   -2.4256    1.7290    0.0000 C   0  0  0  0  0  0  0  0  0  0  0  0
   -1.7166    3.7815    0.0000 O   0  0  0  0  0  0  0  0  0  0  0  0
   -5.3198    3.2549    0.0000 C   0  0  0  0  0  0  0  0  0  0  0  0
    0.0664   -0.7878    0.0000 C   0  0  0  0  0  0  0  0  0  0  0  0
   -0.7546   -0.7630    0.0000 C   0  0  0  0  0  0  0  0  0  0  0  0
    1.1361    0.1948    0.0000 O   0  0  0  0  0  0  0  0  0  0  0  0
   -1.7497    0.3317    0.0000 O   0  0  0  0  0  0  0  0  0  0  0  0
   -3.1429    1.3186    0.0000 C   0  0  0  0  0  0  0  0  0  0  0  0
   -3.1429    0.4976    0.0000 N   0  0  0  0  0  0  0  0  0  0  0  0
    0.4147    1.7249    0.0000 C   0  0  0  0  0  0  0  0  0  0  0  0
   -5.7427    2.5210    0.0000 O   0  0  0  0  0  0  0  0  0  0  0  0
   -4.4781    4.6937    0.0000 C   0  0  0  0  0  0  0  0  0  0  0  0
   -0.2861    2.9688    0.0000 C   0  0  0  0  0  0  0  0  0  0  0  0
    0.4229    2.5500    0.0000 C   0  0  0  0  0  0  0  0  0  0  0  0
   -5.3240    4.7062    0.0000 C   0  0  0  0  0  0  0  0  0  0  0  0
   -5.7427    3.9764    0.0000 C   0  0  0  0  0  0  0  0  0  0  0  0
   -2.4256    0.0871    0.0000 C   0  0  0  0  0  0  0  0  0  0  0  0
   -3.8520    0.0871    0.0000 C   0  0  0  0  0  0  0  0  0  0  0  0
   -5.3198    1.7912    0.0000 C   0  0  0  0  0  0  0  0  0  0  0  0
   -4.5610    0.4976    0.0000 C   0  0  0  0  0  0  0  0  0  0  0  0
   -2.4256   -0.7339    0.0000 C   0  0  0  0  0  0  0  0  0  0  0  0
   -5.5561    1.2564    0.0000 C   0  0  0  0  0  0  0  0  0  0  0  0
    2.6455    2.0525    0.0000 Cl  0  0  0  0  0  0  0  0  0  0  0  0
  3  1  1  0  0  0  0
  4  8  1  0  0  0  0
  5  1  1  0  0  0  0
  6  3  1  0  0  0  0
  7  2  1  0  0  0  0
  8 13  1  0  0  0  0
  9  4  1  0  0  0  0
 10  4  1  0  0  0  0
 11  5  1  0  0  0  0
 12  6  1  0  0  0  0
 13 12  2  0  0  0  0
 14  3  1  0  0  0  0
 15  6  2  0  0  0  0
 16  7  1  0  0  0  0
 17  9  1  0  0  0  0
 18 10  1  0  0  0  0
 19  9  2  0  0  0  0
 20 10  2  0  0  0  0
 21 14  1  0  0  0  0
 22 21  1  0  0  0  0
 23 27  1  0  0  0  0
 24 16  1  0  0  0  0
 25 11  1  0  0  0  0
 26 12  1  0  0  0  0
 27 26  2  0  0  0  0
 28 25  2  0  0  0  0
 29 16  2  0  0  0  0
 30 22  1  0  0  0  0
 31 22  1  0  0  0  0
 32 24  1  0  0  0  0
 33 31  1  0  0  0  0
 34 30  1  0  0  0  0
 35 32  1  0  0  0  0
 11  7  2  0  0  0  0
 29 28  1  0  0  0  0
  8 23  2  0  0  0  0
 18 17  1  0  0  0  0
  2  1  2  0  0  0  0
M  END
>  <IDNUMBER>
F2018-4001

>  <Chemical_Name>
N-[2-(diethylamino)ethyl]-3-(2,5-dioxopyrrolidin-1-yl)-N-(4-ethoxy-1,3-benzothiazol-2-yl)benzamide hydrochloride

>  <PriceCoeff>
1.00

>  <CAS>
1135198-10-5

>  <MW>
494.61

>  <Description>
solid

>  <FSP3>
0.38

>  <clogP>
3.01

>  <TPSA>
111.29

>  <Acceptor>
5

>  <Donor>
1

>  <RotBonds>
11

>  <HAC>
35

>  <Collection>
General

>  <PPDS>
+

$$$$
F2018-4289
  Mrv2219 10102508112D          

 29 30  0  0  0  0            999 V2000
   -3.1583    2.9833    0.0000 C   0  0  0  0  0  0  0  0  0  0  0  0
   -3.9125    2.6458    0.0000 N   0  0  0  0  0  0  0  0  0  0  0  0
   -0.2958    2.9833    0.0000 N   0  0  0  0  0  0  0  0  0  0  0  0
   -2.4375    2.5625    0.0000 N   0  0  0  0  0  0  0  0  0  0  0  0
   -3.2458    3.8083    0.0000 S   0  0  0  0  0  0  0  0  0  0  0  0
   -4.4708    3.2500    0.0000 C   0  0  0  0  0  0  0  0  0  0  0  0
   -1.7250    2.9833    0.0000 C   0  0  0  0  0  0  0  0  0  0  0  0
   -1.0125    2.5625    0.0000 C   0  0  0  0  0  0  0  0  0  0  0  0
   -0.2125    3.8000    0.0000 C   0  0  0  0  0  0  0  0  0  0  0  0
    0.4542    2.6458    0.0000 C   0  0  0  0  0  0  0  0  0  0  0  0
   -4.0583    3.9708    0.0000 C   0  0  0  0  0  0  0  0  0  0  0  0
   -2.4375    1.7375    0.0000 C   0  0  0  0  0  0  0  0  0  0  0  0
   -5.2875    3.2500    0.0000 C   0  0  0  0  0  0  0  0  0  0  0  0
   -1.7250    3.8000    0.0000 O   0  0  0  0  0  0  0  0  0  0  0  0
    0.5917    3.9708    0.0000 C   0  0  0  0  0  0  0  0  0  0  0  0
    1.0125    3.2583    0.0000 C   0  0  0  0  0  0  0  0  0  0  0  0
   -0.8125    4.3417    0.0000 O   0  0  0  0  0  0  0  0  0  0  0  0
    0.6292    1.8333    0.0000 O   0  0  0  0  0  0  0  0  0  0  0  0
   -3.1583    1.3250    0.0000 C   0  0  0  0  0  0  0  0  0  0  0  0
   -3.1583    0.5000    0.0000 N   0  0  0  0  0  0  0  0  0  0  0  0
   -5.7083    2.5333    0.0000 Cl  0  0  0  0  0  0  0  0  0  0  0  0
   -4.4708    4.6667    0.0000 C   0  0  0  0  0  0  0  0  0  0  0  0
   -5.2958    4.6667    0.0000 C   0  0  0  0  0  0  0  0  0  0  0  0
   -5.7083    3.9583    0.0000 C   0  0  0  0  0  0  0  0  0  0  0  0
   -3.8708    0.0875    0.0000 C   0  0  0  0  0  0  0  0  0  0  0  0
   -2.4375    0.0875    0.0000 C   0  0  0  0  0  0  0  0  0  0  0  0
   -4.5833    0.5000    0.0000 C   0  0  0  0  0  0  0  0  0  0  0  0
   -2.4375   -0.7375    0.0000 C   0  0  0  0  0  0  0  0  0  0  0  0
    2.4000    2.0583    0.0000 Cl  0  0  0  0  0  0  0  0  0  0  0  0
  3  8  1  0  0  0  0
  4  1  1  0  0  0  0
  5  1  1  0  0  0  0
  6  2  1  0  0  0  0
  7  4  1  0  0  0  0
  8  7  1  0  0  0  0
  9  3  1  0  0  0  0
 10  3  1  0  0  0  0
 11  5  1  0  0  0  0
 12  4  1  0  0  0  0
 13  6  1  0  0  0  0
 14  7  2  0  0  0  0
 15  9  1  0  0  0  0
 16 10  1  0  0  0  0
 17  9  2  0  0  0  0
 18 10  2  0  0  0  0
 19 12  1  0  0  0  0
 20 19  1  0  0  0  0
 21 13  1  0  0  0  0
 22 11  1  0  0  0  0
 23 22  2  0  0  0  0
 24 13  2  0  0  0  0
 25 20  1  0  0  0  0
 26 20  1  0  0  0  0
 27 25  1  0  0  0  0
 28 26  1  0  0  0  0
 11  6  2  0  0  0  0
 24 23  1  0  0  0  0
 15 16  1  0  0  0  0
  2  1  2  0  0  0  0
M  END
>  <IDNUMBER>
F2018-4289

>  <Chemical_Name>
N-(4-chloro-1,3-benzothiazol-2-yl)-N-[2-(diethylamino)ethyl]-2-(2,5-dioxopyrrolidin-1-yl)acetamide hydrochloride

>  <PriceCoeff>
1.00

>  <CAS>
1216396-08-5

>  <MW>
422.93

>  <Description>
solid

>  <FSP3>
0.47

>  <clogP>
3.10

>  <TPSA>
102.06

>  <Acceptor>
4

>  <Donor>
1

>  <RotBonds>
9

>  <HAC>
28

>  <Collection>
General

>  <PPDS>
+

$$$$
F2018-4365
  Mrv2219 10102508112D          

 36 39  0  0  0  0            999 V2000
   -3.1592    2.9842    0.0000 C   0  0  0  0  0  0  0  0  0  0  0  0
   -2.4382    2.5632    0.0000 N   0  0  0  0  0  0  0  0  0  0  0  0
   -3.9136    2.6466    0.0000 N   0  0  0  0  0  0  0  0  0  0  0  0
    1.1295    1.3087    0.0000 N   0  0  0  0  0  0  0  0  0  0  0  0
   -3.2467    3.8094    0.0000 S   0  0  0  0  0  0  0  0  0  0  0  0
   -1.7255    2.9842    0.0000 C   0  0  0  0  0  0  0  0  0  0  0  0
   -4.4721    3.2592    0.0000 C   0  0  0  0  0  0  0  0  0  0  0  0
   -4.0595    3.9719    0.0000 C   0  0  0  0  0  0  0  0  0  0  0  0
    1.8797    1.6755    0.0000 C   0  0  0  0  0  0  0  0  0  0  0  0
    1.2504    0.5001    0.0000 C   0  0  0  0  0  0  0  0  0  0  0  0
   -5.2848    3.2509    0.0000 C   0  0  0  0  0  0  0  0  0  0  0  0
   -4.4721    4.6805    0.0000 C   0  0  0  0  0  0  0  0  0  0  0  0
   -5.2973    4.6680    0.0000 C   0  0  0  0  0  0  0  0  0  0  0  0
   -5.7099    3.9594    0.0000 C   0  0  0  0  0  0  0  0  0  0  0  0
   -2.4382    1.7380    0.0000 C   0  0  0  0  0  0  0  0  0  0  0  0
    0.4168    1.7338    0.0000 C   0  0  0  0  0  0  0  0  0  0  0  0
   -1.0128    2.5632    0.0000 C   0  0  0  0  0  0  0  0  0  0  0  0
   -6.5061    4.1262    0.0000 O   0  0  0  0  0  0  0  0  0  0  0  0
   -5.8517    5.2807    0.0000 O   0  0  0  0  0  0  0  0  0  0  0  0
   -1.7255    3.8011    0.0000 O   0  0  0  0  0  0  0  0  0  0  0  0
   -6.5936    4.9431    0.0000 C   0  0  0  0  0  0  0  0  0  0  0  0
    2.4549    1.0753    0.0000 C   0  0  0  0  0  0  0  0  0  0  0  0
    2.0631    0.3584    0.0000 C   0  0  0  0  0  0  0  0  0  0  0  0
    2.0298    2.5090    0.0000 O   0  0  0  0  0  0  0  0  0  0  0  0
    0.6544   -0.0792    0.0000 O   0  0  0  0  0  0  0  0  0  0  0  0
    0.4251    2.5632    0.0000 C   0  0  0  0  0  0  0  0  0  0  0  0
   -0.3001    1.3337    0.0000 C   0  0  0  0  0  0  0  0  0  0  0  0
   -1.0086    1.7463    0.0000 C   0  0  0  0  0  0  0  0  0  0  0  0
   -0.2834    2.9842    0.0000 C   0  0  0  0  0  0  0  0  0  0  0  0
   -3.1592    1.3254    0.0000 C   0  0  0  0  0  0  0  0  0  0  0  0
   -3.1592    0.5001    0.0000 N   0  0  0  0  0  0  0  0  0  0  0  0
   -2.4382    0.0875    0.0000 C   0  0  0  0  0  0  0  0  0  0  0  0
   -3.8719    0.0875    0.0000 C   0  0  0  0  0  0  0  0  0  0  0  0
   -2.4382   -0.7377    0.0000 C   0  0  0  0  0  0  0  0  0  0  0  0
   -4.5846    0.5001    0.0000 C   0  0  0  0  0  0  0  0  0  0  0  0
    3.8428    2.4215    0.0000 Cl  0  0  0  0  0  0  0  0  0  0  0  0
  3  1  2  0  0  0  0
  4 16  1  0  0  0  0
  5  1  1  0  0  0  0
  6  2  1  0  0  0  0
  7  3  1  0  0  0  0
  8  5  1  0  0  0  0
  9  4  1  0  0  0  0
 10  4  1  0  0  0  0
 11  7  1  0  0  0  0
 12  8  1  0  0  0  0
 13 12  2  0  0  0  0
 14 11  2  0  0  0  0
 15  2  1  0  0  0  0
 16 26  1  0  0  0  0
 17  6  1  0  0  0  0
 18 14  1  0  0  0  0
 19 13  1  0  0  0  0
 20  6  2  0  0  0  0
 21 19  1  0  0  0  0
 22  9  1  0  0  0  0
 23 10  1  0  0  0  0
 24  9  2  0  0  0  0
 25 10  2  0  0  0  0
 26 29  2  0  0  0  0
 27 28  1  0  0  0  0
 28 17  2  0  0  0  0
 29 17  1  0  0  0  0
 30 15  1  0  0  0  0
 31 30  1  0  0  0  0
 32 31  1  0  0  0  0
 33 31  1  0  0  0  0
 34 32  1  0  0  0  0
 35 33  1  0  0  0  0
  8  7  2  0  0  0  0
 13 14  1  0  0  0  0
 16 27  2  0  0  0  0
 18 21  1  0  0  0  0
 23 22  1  0  0  0  0
  2  1  1  0  0  0  0
M  END
>  <IDNUMBER>
F2018-4365

>  <Chemical_Name>
N-[2-(diethylamino)ethyl]-N-{4,6-dioxa-10-thia-12-azatricyclo[7.3.0.0?,?]dodeca-1,3(7),8,11-tetraen-11-yl}-4-(2,5-dioxopyrrolidin-1-yl)benzamide hydrochloride

>  <PriceCoeff>
1.00

>  <CAS>
1052537-76-4

>  <MW>
494.56

>  <Description>
solid

>  <FSP3>
0.36

>  <clogP>
2.74

>  <TPSA>
120.52

>  <Acceptor>
6

>  <Donor>
1

>  <RotBonds>
9

>  <HAC>
35

>  <Collection>
General

$$$$
F2018-4382
  Mrv2219 10102508112D          

 36 39  0  0  0  0            999 V2000
   -3.1579    2.9830    0.0000 C   0  0  0  0  0  0  0  0  0  0  0  0
   -2.4372    2.5622    0.0000 N   0  0  0  0  0  0  0  0  0  0  0  0
   -3.9121    2.6455    0.0000 N   0  0  0  0  0  0  0  0  0  0  0  0
   -0.2958    0.4957    0.0000 N   0  0  0  0  0  0  0  0  0  0  0  0
   -3.2454    3.8079    0.0000 S   0  0  0  0  0  0  0  0  0  0  0  0
   -1.7248    2.9830    0.0000 C   0  0  0  0  0  0  0  0  0  0  0  0
   -4.4703    3.2579    0.0000 C   0  0  0  0  0  0  0  0  0  0  0  0
   -4.0578    3.9703    0.0000 C   0  0  0  0  0  0  0  0  0  0  0  0
   -0.2958    1.3331    0.0000 C   0  0  0  0  0  0  0  0  0  0  0  0
    0.3500   -0.0167    0.0000 C   0  0  0  0  0  0  0  0  0  0  0  0
   -0.9957    0.0458    0.0000 C   0  0  0  0  0  0  0  0  0  0  0  0
   -1.0124    2.5622    0.0000 C   0  0  0  0  0  0  0  0  0  0  0  0
   -5.2827    3.2496    0.0000 C   0  0  0  0  0  0  0  0  0  0  0  0
   -4.4703    4.6787    0.0000 C   0  0  0  0  0  0  0  0  0  0  0  0
   -5.2952    4.6662    0.0000 C   0  0  0  0  0  0  0  0  0  0  0  0
   -5.7076    3.9578    0.0000 C   0  0  0  0  0  0  0  0  0  0  0  0
   -1.0082    1.7456    0.0000 C   0  0  0  0  0  0  0  0  0  0  0  0
   -2.4372    1.7373    0.0000 C   0  0  0  0  0  0  0  0  0  0  0  0
   -5.8493    5.2786    0.0000 O   0  0  0  0  0  0  0  0  0  0  0  0
   -6.5035    4.1245    0.0000 O   0  0  0  0  0  0  0  0  0  0  0  0
   -1.7248    3.7996    0.0000 O   0  0  0  0  0  0  0  0  0  0  0  0
   -6.5909    4.9411    0.0000 C   0  0  0  0  0  0  0  0  0  0  0  0
    0.0667   -0.7916    0.0000 C   0  0  0  0  0  0  0  0  0  0  0  0
   -0.7582   -0.7666    0.0000 C   0  0  0  0  0  0  0  0  0  0  0  0
    1.1416    0.1958    0.0000 O   0  0  0  0  0  0  0  0  0  0  0  0
   -1.7581    0.3333    0.0000 O   0  0  0  0  0  0  0  0  0  0  0  0
   -3.1579    1.3248    0.0000 C   0  0  0  0  0  0  0  0  0  0  0  0
   -3.1579    0.4999    0.0000 N   0  0  0  0  0  0  0  0  0  0  0  0
    0.4167    1.7331    0.0000 C   0  0  0  0  0  0  0  0  0  0  0  0
   -0.2875    2.9830    0.0000 C   0  0  0  0  0  0  0  0  0  0  0  0
    0.4250    2.5622    0.0000 C   0  0  0  0  0  0  0  0  0  0  0  0
   -2.4372    0.0875    0.0000 C   0  0  0  0  0  0  0  0  0  0  0  0
   -3.8704    0.0875    0.0000 C   0  0  0  0  0  0  0  0  0  0  0  0
   -2.4372   -0.7374    0.0000 C   0  0  0  0  0  0  0  0  0  0  0  0
   -4.5828    0.4999    0.0000 C   0  0  0  0  0  0  0  0  0  0  0  0
    2.6581    2.3955    0.0000 Cl  0  0  0  0  0  0  0  0  0  0  0  0
  3  1  2  0  0  0  0
  4  9  1  0  0  0  0
  5  1  1  0  0  0  0
  6  2  1  0  0  0  0
  7  3  1  0  0  0  0
  8  5  1  0  0  0  0
  9 17  1  0  0  0  0
 10  4  1  0  0  0  0
 11  4  1  0  0  0  0
 12  6  1  0  0  0  0
 13  7  1  0  0  0  0
 14  8  1  0  0  0  0
 15 14  2  0  0  0  0
 16 13  2  0  0  0  0
 17 12  2  0  0  0  0
 18  2  1  0  0  0  0
 19 15  1  0  0  0  0
 20 16  1  0  0  0  0
 21  6  2  0  0  0  0
 22 19  1  0  0  0  0
 23 10  1  0  0  0  0
 24 11  1  0  0  0  0
 25 10  2  0  0  0  0
 26 11  2  0  0  0  0
 27 18  1  0  0  0  0
 28 27  1  0  0  0  0
 29 31  1  0  0  0  0
 30 12  1  0  0  0  0
 31 30  2  0  0  0  0
 32 28  1  0  0  0  0
 33 28  1  0  0  0  0
 34 32  1  0  0  0  0
 35 33  1  0  0  0  0
  8  7  2  0  0  0  0
 15 16  1  0  0  0  0
 20 22  1  0  0  0  0
  9 29  2  0  0  0  0
 24 23  1  0  0  0  0
  2  1  1  0  0  0  0
M  END
>  <IDNUMBER>
F2018-4382

>  <Chemical_Name>
N-[2-(diethylamino)ethyl]-N-{4,6-dioxa-10-thia-12-azatricyclo[7.3.0.0?,?]dodeca-1,3(7),8,11-tetraen-11-yl}-3-(2,5-dioxopyrrolidin-1-yl)benzamide hydrochloride

>  <PriceCoeff>
1.00

>  <CAS>
1052530-19-4

>  <MW>
494.56

>  <Description>
solid

>  <FSP3>
0.36

>  <clogP>
2.74

>  <TPSA>
120.52

>  <Acceptor>
6

>  <Donor>
1

>  <RotBonds>
9

>  <HAC>
35

>  <Collection>
General

>  <PPDS>
+

$$$$
F2018-4416
  Mrv2219 10102508112D          

 31 33  0  0  0  0            999 V2000
   -3.1583    2.9833    0.0000 C   0  0  0  0  0  0  0  0  0  0  0  0
   -0.2958    2.9833    0.0000 N   0  0  0  0  0  0  0  0  0  0  0  0
   -3.9125    2.6458    0.0000 N   0  0  0  0  0  0  0  0  0  0  0  0
   -2.4375    2.5625    0.0000 N   0  0  0  0  0  0  0  0  0  0  0  0
   -3.2458    3.8083    0.0000 S   0  0  0  0  0  0  0  0  0  0  0  0
   -1.7250    2.9833    0.0000 C   0  0  0  0  0  0  0  0  0  0  0  0
   -4.4708    3.2583    0.0000 C   0  0  0  0  0  0  0  0  0  0  0  0
   -1.0125    2.5625    0.0000 C   0  0  0  0  0  0  0  0  0  0  0  0
   -4.0583    3.9708    0.0000 C   0  0  0  0  0  0  0  0  0  0  0  0
   -0.2125    3.8000    0.0000 C   0  0  0  0  0  0  0  0  0  0  0  0
    0.4542    2.6458    0.0000 C   0  0  0  0  0  0  0  0  0  0  0  0
   -5.2833    3.2500    0.0000 C   0  0  0  0  0  0  0  0  0  0  0  0
   -4.4708    4.6792    0.0000 C   0  0  0  0  0  0  0  0  0  0  0  0
   -5.7083    3.9583    0.0000 C   0  0  0  0  0  0  0  0  0  0  0  0
   -5.2958    4.6667    0.0000 C   0  0  0  0  0  0  0  0  0  0  0  0
   -2.4375    1.7375    0.0000 C   0  0  0  0  0  0  0  0  0  0  0  0
   -5.8500    5.2792    0.0000 O   0  0  0  0  0  0  0  0  0  0  0  0
   -6.5042    4.1250    0.0000 O   0  0  0  0  0  0  0  0  0  0  0  0
   -1.7250    3.8000    0.0000 O   0  0  0  0  0  0  0  0  0  0  0  0
   -6.5917    4.9417    0.0000 C   0  0  0  0  0  0  0  0  0  0  0  0
    0.5917    3.9708    0.0000 C   0  0  0  0  0  0  0  0  0  0  0  0
    1.0125    3.2583    0.0000 C   0  0  0  0  0  0  0  0  0  0  0  0
   -0.8125    4.3417    0.0000 O   0  0  0  0  0  0  0  0  0  0  0  0
    0.6292    1.8333    0.0000 O   0  0  0  0  0  0  0  0  0  0  0  0
   -3.1583    1.3250    0.0000 C   0  0  0  0  0  0  0  0  0  0  0  0
   -3.1583    0.5000    0.0000 N   0  0  0  0  0  0  0  0  0  0  0  0
   -3.8708    0.0875    0.0000 C   0  0  0  0  0  0  0  0  0  0  0  0
   -2.4375    0.0875    0.0000 C   0  0  0  0  0  0  0  0  0  0  0  0
   -4.5833    0.5000    0.0000 C   0  0  0  0  0  0  0  0  0  0  0  0
   -2.4375   -0.7375    0.0000 C   0  0  0  0  0  0  0  0  0  0  0  0
    2.4000    2.4208    0.0000 Cl  0  0  0  0  0  0  0  0  0  0  0  0
  3  1  2  0  0  0  0
  4  1  1  0  0  0  0
  5  1  1  0  0  0  0
  6  4  1  0  0  0  0
  7  3  1  0  0  0  0
  8  6  1  0  0  0  0
  9  5  1  0  0  0  0
 10  2  1  0  0  0  0
 11  2  1  0  0  0  0
 12  7  1  0  0  0  0
 13  9  1  0  0  0  0
 14 12  2  0  0  0  0
 15 13  2  0  0  0  0
 16  4  1  0  0  0  0
 17 15  1  0  0  0  0
 18 14  1  0  0  0  0
 19  6  2  0  0  0  0
 20 17  1  0  0  0  0
 21 10  1  0  0  0  0
 22 11  1  0  0  0  0
 23 10  2  0  0  0  0
 24 11  2  0  0  0  0
 25 16  1  0  0  0  0
 26 25  1  0  0  0  0
 27 26  1  0  0  0  0
 28 26  1  0  0  0  0
 29 27  1  0  0  0  0
 30 28  1  0  0  0  0
  9  7  2  0  0  0  0
 15 14  1  0  0  0  0
 18 20  1  0  0  0  0
 21 22  1  0  0  0  0
  2  8  1  0  0  0  0
M  END
>  <IDNUMBER>
F2018-4416

>  <Chemical_Name>
N-[2-(diethylamino)ethyl]-N-{4,6-dioxa-10-thia-12-azatricyclo[7.3.0.0?,?]dodeca-1,3(7),8,11-tetraen-11-yl}-2-(2,5-dioxopyrrolidin-1-yl)acetamide hydrochloride

>  <PriceCoeff>
1.00

>  <CAS>
1052537-05-9

>  <MW>
432.49

>  <Description>
solid

>  <FSP3>
0.50

>  <clogP>
2.91

>  <TPSA>
120.52

>  <Acceptor>
6

>  <Donor>
1

>  <RotBonds>
9

>  <HAC>
30

>  <Collection>
General

>  <PPDS>
+

$$$$
F2018-4543
  Mrv2219 10102508112D          

 32 34  0  0  0  0            999 V2000
   -3.1586    2.9837    0.0000 C   0  0  0  0  0  0  0  0  0  0  0  0
   -0.2959    2.9837    0.0000 N   0  0  0  0  0  0  0  0  0  0  0  0
   -3.9129    2.6461    0.0000 N   0  0  0  0  0  0  0  0  0  0  0  0
   -2.4378    2.5628    0.0000 N   0  0  0  0  0  0  0  0  0  0  0  0
   -3.2461    3.8087    0.0000 S   0  0  0  0  0  0  0  0  0  0  0  0
   -1.7252    2.9837    0.0000 C   0  0  0  0  0  0  0  0  0  0  0  0
   -4.4712    3.2586    0.0000 C   0  0  0  0  0  0  0  0  0  0  0  0
   -1.0126    2.5628    0.0000 C   0  0  0  0  0  0  0  0  0  0  0  0
   -4.0588    3.9713    0.0000 C   0  0  0  0  0  0  0  0  0  0  0  0
   -0.2125    3.8004    0.0000 C   0  0  0  0  0  0  0  0  0  0  0  0
    0.4543    2.6461    0.0000 C   0  0  0  0  0  0  0  0  0  0  0  0
   -5.2839    3.2586    0.0000 C   0  0  0  0  0  0  0  0  0  0  0  0
   -4.4712    4.6672    0.0000 C   0  0  0  0  0  0  0  0  0  0  0  0
   -5.6964    3.9629    0.0000 C   0  0  0  0  0  0  0  0  0  0  0  0
   -5.2881    4.6797    0.0000 C   0  0  0  0  0  0  0  0  0  0  0  0
   -2.4378    1.7377    0.0000 C   0  0  0  0  0  0  0  0  0  0  0  0
   -1.7252    3.8004    0.0000 O   0  0  0  0  0  0  0  0  0  0  0  0
   -5.7089    5.3881    0.0000 O   0  0  0  0  0  0  0  0  0  0  0  0
   -6.5174    3.9587    0.0000 O   0  0  0  0  0  0  0  0  0  0  0  0
    0.5918    3.9713    0.0000 C   0  0  0  0  0  0  0  0  0  0  0  0
    1.0126    3.2586    0.0000 C   0  0  0  0  0  0  0  0  0  0  0  0
   -0.8126    4.3421    0.0000 O   0  0  0  0  0  0  0  0  0  0  0  0
    0.6292    1.8335    0.0000 O   0  0  0  0  0  0  0  0  0  0  0  0
   -3.1586    1.3252    0.0000 C   0  0  0  0  0  0  0  0  0  0  0  0
   -3.1586    0.5001    0.0000 N   0  0  0  0  0  0  0  0  0  0  0  0
   -6.9382    4.6672    0.0000 C   0  0  0  0  0  0  0  0  0  0  0  0
   -6.5299    5.3881    0.0000 C   0  0  0  0  0  0  0  0  0  0  0  0
   -2.4378    0.0875    0.0000 C   0  0  0  0  0  0  0  0  0  0  0  0
   -3.8712    0.0875    0.0000 C   0  0  0  0  0  0  0  0  0  0  0  0
   -2.4378   -0.7375    0.0000 C   0  0  0  0  0  0  0  0  0  0  0  0
   -4.5838    0.5001    0.0000 C   0  0  0  0  0  0  0  0  0  0  0  0
    2.4003    2.4753    0.0000 Cl  0  0  0  0  0  0  0  0  0  0  0  0
  3  1  2  0  0  0  0
  4  1  1  0  0  0  0
  5  1  1  0  0  0  0
  6  4  1  0  0  0  0
  7  3  1  0  0  0  0
  8  6  1  0  0  0  0
  9  5  1  0  0  0  0
 10  2  1  0  0  0  0
 11  2  1  0  0  0  0
 12  7  1  0  0  0  0
 13  9  1  0  0  0  0
 14 12  2  0  0  0  0
 15 13  2  0  0  0  0
 16  4  1  0  0  0  0
 17  6  2  0  0  0  0
 18 15  1  0  0  0  0
 19 14  1  0  0  0  0
 20 10  1  0  0  0  0
 21 11  1  0  0  0  0
 22 10  2  0  0  0  0
 23 11  2  0  0  0  0
 24 16  1  0  0  0  0
 25 24  1  0  0  0  0
 26 19  1  0  0  0  0
 27 18  1  0  0  0  0
 28 25  1  0  0  0  0
 29 25  1  0  0  0  0
 30 28  1  0  0  0  0
 31 29  1  0  0  0  0
  9  7  2  0  0  0  0
 15 14  1  0  0  0  0
 26 27  1  0  0  0  0
 20 21  1  0  0  0  0
  2  8  1  0  0  0  0
M  END
>  <IDNUMBER>
F2018-4543

>  <Chemical_Name>
N-[2-(diethylamino)ethyl]-N-{10,13-dioxa-4-thia-6-azatricyclo[7.4.0.0?,?]trideca-1(9),2,5,7-tetraen-5-yl}-2-(2,5-dioxopyrrolidin-1-yl)acetamide hydrochloride

>  <PriceCoeff>
1.00

>  <CAS>
1216476-32-2

>  <MW>
446.52

>  <Description>
solid

>  <FSP3>
0.52

>  <clogP>
2.87

>  <TPSA>
120.52

>  <Acceptor>
6

>  <Donor>
1

>  <RotBonds>
9

>  <HAC>
31

>  <Collection>
General

>  <PPDS>
+

$$$$
F2018-5525
  Mrv2219 10102508112D          

 35 37  0  0  0  0            999 V2000
   -3.1583    2.9833    0.0000 C   0  0  0  0  0  0  0  0  0  0  0  0
   -3.9125    2.6458    0.0000 N   0  0  0  0  0  0  0  0  0  0  0  0
   -2.4375    2.5625    0.0000 N   0  0  0  0  0  0  0  0  0  0  0  0
   -0.2958    0.4958    0.0000 N   0  0  0  0  0  0  0  0  0  0  0  0
   -4.4708    3.2583    0.0000 C   0  0  0  0  0  0  0  0  0  0  0  0
   -3.2458    3.8083    0.0000 S   0  0  0  0  0  0  0  0  0  0  0  0
   -1.7250    2.9833    0.0000 C   0  0  0  0  0  0  0  0  0  0  0  0
   -4.0583    3.9708    0.0000 C   0  0  0  0  0  0  0  0  0  0  0  0
   -0.2958    1.3333    0.0000 C   0  0  0  0  0  0  0  0  0  0  0  0
    0.3500   -0.0167    0.0000 C   0  0  0  0  0  0  0  0  0  0  0  0
   -0.9958    0.0458    0.0000 C   0  0  0  0  0  0  0  0  0  0  0  0
   -5.2833    3.2458    0.0000 C   0  0  0  0  0  0  0  0  0  0  0  0
   -1.0125    2.5625    0.0000 C   0  0  0  0  0  0  0  0  0  0  0  0
   -1.0083    1.7458    0.0000 C   0  0  0  0  0  0  0  0  0  0  0  0
   -2.4375    1.7375    0.0000 C   0  0  0  0  0  0  0  0  0  0  0  0
   -4.4708    4.6667    0.0000 C   0  0  0  0  0  0  0  0  0  0  0  0
   -5.6958    3.9583    0.0000 C   0  0  0  0  0  0  0  0  0  0  0  0
   -5.2958    4.6667    0.0000 C   0  0  0  0  0  0  0  0  0  0  0  0
   -1.7250    3.8000    0.0000 O   0  0  0  0  0  0  0  0  0  0  0  0
    0.0667   -0.7917    0.0000 C   0  0  0  0  0  0  0  0  0  0  0  0
   -0.7583   -0.7667    0.0000 C   0  0  0  0  0  0  0  0  0  0  0  0
    1.1417    0.1958    0.0000 O   0  0  0  0  0  0  0  0  0  0  0  0
   -1.7583    0.3333    0.0000 O   0  0  0  0  0  0  0  0  0  0  0  0
   -5.6958    2.5333    0.0000 F   0  0  0  0  0  0  0  0  0  0  0  0
   -3.1583    1.3250    0.0000 C   0  0  0  0  0  0  0  0  0  0  0  0
   -3.1583    0.5000    0.0000 N   0  0  0  0  0  0  0  0  0  0  0  0
   -5.7208    5.3917    0.0000 F   0  0  0  0  0  0  0  0  0  0  0  0
    0.4167    1.7333    0.0000 C   0  0  0  0  0  0  0  0  0  0  0  0
   -0.2875    2.9833    0.0000 C   0  0  0  0  0  0  0  0  0  0  0  0
    0.4250    2.5625    0.0000 C   0  0  0  0  0  0  0  0  0  0  0  0
   -3.8708    0.0875    0.0000 C   0  0  0  0  0  0  0  0  0  0  0  0
   -2.4375    0.0875    0.0000 C   0  0  0  0  0  0  0  0  0  0  0  0
   -4.5833    0.5000    0.0000 C   0  0  0  0  0  0  0  0  0  0  0  0
   -2.4375   -0.7375    0.0000 C   0  0  0  0  0  0  0  0  0  0  0  0
    2.6584    2.4500    0.0000 Cl  0  0  0  0  0  0  0  0  0  0  0  0
  3  1  1  0  0  0  0
  4  9  1  0  0  0  0
  5  2  1  0  0  0  0
  6  1  1  0  0  0  0
  7  3  1  0  0  0  0
  8  6  1  0  0  0  0
  9 14  1  0  0  0  0
 10  4  1  0  0  0  0
 11  4  1  0  0  0  0
 12  5  1  0  0  0  0
 13  7  1  0  0  0  0
 14 13  2  0  0  0  0
 15  3  1  0  0  0  0
 16  8  1  0  0  0  0
 17 12  2  0  0  0  0
 18 16  2  0  0  0  0
 19  7  2  0  0  0  0
 20 10  1  0  0  0  0
 21 11  1  0  0  0  0
 22 10  2  0  0  0  0
 23 11  2  0  0  0  0
 24 12  1  0  0  0  0
 25 15  1  0  0  0  0
 26 25  1  0  0  0  0
 27 18  1  0  0  0  0
 28 30  1  0  0  0  0
 29 13  1  0  0  0  0
 30 29  2  0  0  0  0
 31 26  1  0  0  0  0
 32 26  1  0  0  0  0
 33 31  1  0  0  0  0
 34 32  1  0  0  0  0
  8  5  2  0  0  0  0
 17 18  1  0  0  0  0
  9 28  2  0  0  0  0
 21 20  1  0  0  0  0
  2  1  2  0  0  0  0
M  END
>  <IDNUMBER>
F2018-5525

>  <Chemical_Name>
N-[2-(diethylamino)ethyl]-N-(4,6-difluoro-1,3-benzothiazol-2-yl)-3-(2,5-dioxopyrrolidin-1-yl)benzamide hydrochloride

>  <PriceCoeff>
1.00

>  <CAS>
1321775-07-8

>  <MW>
486.53

>  <Description>
solid

>  <FSP3>
0.33

>  <clogP>
2.51

>  <TPSA>
102.06

>  <Acceptor>
4

>  <Donor>
1

>  <RotBonds>
9

>  <HAC>
34

>  <Collection>
General

>  <PPDS>
+

$$$$
F2019-0428
  Mrv2219 10102508112D          

 33 35  0  0  0  0            999 V2000
   -3.1592    2.9842    0.0000 C   0  0  0  0  0  0  0  0  0  0  0  0
   -2.4382    2.5632    0.0000 N   0  0  0  0  0  0  0  0  0  0  0  0
   -3.9136    2.6466    0.0000 N   0  0  0  0  0  0  0  0  0  0  0  0
    1.1295    1.3087    0.0000 N   0  0  0  0  0  0  0  0  0  0  0  0
   -3.2467    3.8094    0.0000 S   0  0  0  0  0  0  0  0  0  0  0  0
   -1.7255    2.9842    0.0000 C   0  0  0  0  0  0  0  0  0  0  0  0
   -4.0595    3.9719    0.0000 C   0  0  0  0  0  0  0  0  0  0  0  0
    1.8797    1.6755    0.0000 C   0  0  0  0  0  0  0  0  0  0  0  0
    1.2504    0.5001    0.0000 C   0  0  0  0  0  0  0  0  0  0  0  0
   -4.4721    3.2592    0.0000 C   0  0  0  0  0  0  0  0  0  0  0  0
    0.4168    1.7338    0.0000 C   0  0  0  0  0  0  0  0  0  0  0  0
   -4.4721    4.6680    0.0000 C   0  0  0  0  0  0  0  0  0  0  0  0
   -1.0128    2.5632    0.0000 C   0  0  0  0  0  0  0  0  0  0  0  0
   -1.7255    3.8011    0.0000 O   0  0  0  0  0  0  0  0  0  0  0  0
    2.4549    1.0753    0.0000 C   0  0  0  0  0  0  0  0  0  0  0  0
    2.0631    0.3584    0.0000 C   0  0  0  0  0  0  0  0  0  0  0  0
    2.0298    2.5090    0.0000 O   0  0  0  0  0  0  0  0  0  0  0  0
    0.6544   -0.0792    0.0000 O   0  0  0  0  0  0  0  0  0  0  0  0
   -5.2848    3.2467    0.0000 C   0  0  0  0  0  0  0  0  0  0  0  0
    0.4251    2.5632    0.0000 C   0  0  0  0  0  0  0  0  0  0  0  0
   -0.3001    1.3337    0.0000 C   0  0  0  0  0  0  0  0  0  0  0  0
   -1.0086    1.7463    0.0000 C   0  0  0  0  0  0  0  0  0  0  0  0
   -0.2834    2.9842    0.0000 C   0  0  0  0  0  0  0  0  0  0  0  0
   -2.4382    1.7380    0.0000 C   0  0  0  0  0  0  0  0  0  0  0  0
   -5.2973    4.6680    0.0000 C   0  0  0  0  0  0  0  0  0  0  0  0
   -3.1592    1.3254    0.0000 C   0  0  0  0  0  0  0  0  0  0  0  0
   -3.8719    0.0875    0.0000 N   0  0  0  0  0  0  0  0  0  0  0  0
   -5.6974    3.9594    0.0000 C   0  0  0  0  0  0  0  0  0  0  0  0
   -5.7224    5.3932    0.0000 F   0  0  0  0  0  0  0  0  0  0  0  0
   -3.1592    0.5001    0.0000 C   0  0  0  0  0  0  0  0  0  0  0  0
   -3.8719   -0.7377    0.0000 C   0  0  0  0  0  0  0  0  0  0  0  0
   -4.5846    0.5001    0.0000 C   0  0  0  0  0  0  0  0  0  0  0  0
    3.8428    2.4799    0.0000 Cl  0  0  0  0  0  0  0  0  0  0  0  0
  3  1  2  0  0  0  0
  4 11  1  0  0  0  0
  5  1  1  0  0  0  0
  6  2  1  0  0  0  0
  7  5  1  0  0  0  0
  8  4  1  0  0  0  0
  9  4  1  0  0  0  0
 10  3  1  0  0  0  0
 11 20  1  0  0  0  0
 12  7  1  0  0  0  0
 13  6  1  0  0  0  0
 14  6  2  0  0  0  0
 15  8  1  0  0  0  0
 16  9  1  0  0  0  0
 17  8  2  0  0  0  0
 18  9  2  0  0  0  0
 19 10  1  0  0  0  0
 20 23  2  0  0  0  0
 21 22  1  0  0  0  0
 22 13  2  0  0  0  0
 23 13  1  0  0  0  0
 24  2  1  0  0  0  0
 25 12  2  0  0  0  0
 26 24  1  0  0  0  0
 27 30  1  0  0  0  0
 28 19  2  0  0  0  0
 29 25  1  0  0  0  0
 30 26  1  0  0  0  0
 31 27  1  0  0  0  0
 32 27  1  0  0  0  0
  7 10  2  0  0  0  0
 28 25  1  0  0  0  0
 11 21  2  0  0  0  0
 16 15  1  0  0  0  0
  2  1  1  0  0  0  0
M  END
>  <IDNUMBER>
F2019-0428

>  <Chemical_Name>
N-[3-(dimethylamino)propyl]-4-(2,5-dioxopyrrolidin-1-yl)-N-(6-fluoro-1,3-benzothiazol-2-yl)benzamide hydrochloride

>  <PriceCoeff>
1.00

>  <CAS>
1216827-05-2

>  <MW>
454.52

>  <Description>
solid

>  <FSP3>
0.30

>  <clogP>
1.56

>  <TPSA>
102.06

>  <Acceptor>
4

>  <Donor>
1

>  <RotBonds>
8

>  <HAC>
32

>  <Collection>
General

>  <PPDS>
+

$$$$
F2019-0479
  Mrv2219 10102508112D          

 28 29  0  0  0  0            999 V2000
   -3.1583    2.9833    0.0000 C   0  0  0  0  0  0  0  0  0  0  0  0
   -0.2958    2.9833    0.0000 N   0  0  0  0  0  0  0  0  0  0  0  0
   -3.9125    2.6458    0.0000 N   0  0  0  0  0  0  0  0  0  0  0  0
   -2.4375    2.5625    0.0000 N   0  0  0  0  0  0  0  0  0  0  0  0
   -3.2458    3.8083    0.0000 S   0  0  0  0  0  0  0  0  0  0  0  0
   -1.7250    2.9833    0.0000 C   0  0  0  0  0  0  0  0  0  0  0  0
   -1.0125    2.5625    0.0000 C   0  0  0  0  0  0  0  0  0  0  0  0
   -0.2125    3.8000    0.0000 C   0  0  0  0  0  0  0  0  0  0  0  0
    0.4542    2.6458    0.0000 C   0  0  0  0  0  0  0  0  0  0  0  0
   -4.0583    3.9708    0.0000 C   0  0  0  0  0  0  0  0  0  0  0  0
   -4.4708    3.2583    0.0000 C   0  0  0  0  0  0  0  0  0  0  0  0
   -4.4708    4.6667    0.0000 C   0  0  0  0  0  0  0  0  0  0  0  0
   -1.7250    3.8000    0.0000 O   0  0  0  0  0  0  0  0  0  0  0  0
    0.5917    3.9708    0.0000 C   0  0  0  0  0  0  0  0  0  0  0  0
    1.0125    3.2583    0.0000 C   0  0  0  0  0  0  0  0  0  0  0  0
   -0.8125    4.3417    0.0000 O   0  0  0  0  0  0  0  0  0  0  0  0
    0.6292    1.8333    0.0000 O   0  0  0  0  0  0  0  0  0  0  0  0
   -5.2833    3.2458    0.0000 C   0  0  0  0  0  0  0  0  0  0  0  0
   -5.2958    4.6667    0.0000 C   0  0  0  0  0  0  0  0  0  0  0  0
   -2.4375    1.7375    0.0000 C   0  0  0  0  0  0  0  0  0  0  0  0
   -3.1583    1.3250    0.0000 C   0  0  0  0  0  0  0  0  0  0  0  0
   -3.8708    0.0875    0.0000 N   0  0  0  0  0  0  0  0  0  0  0  0
   -5.6958    3.9583    0.0000 C   0  0  0  0  0  0  0  0  0  0  0  0
   -5.7208    5.3917    0.0000 F   0  0  0  0  0  0  0  0  0  0  0  0
   -3.1583    0.5000    0.0000 C   0  0  0  0  0  0  0  0  0  0  0  0
   -4.5833    0.5000    0.0000 C   0  0  0  0  0  0  0  0  0  0  0  0
   -3.8708   -0.7375    0.0000 C   0  0  0  0  0  0  0  0  0  0  0  0
    2.4000    2.4792    0.0000 Cl  0  0  0  0  0  0  0  0  0  0  0  0
  3  1  2  0  0  0  0
  4  1  1  0  0  0  0
  5  1  1  0  0  0  0
  6  4  1  0  0  0  0
  7  6  1  0  0  0  0
  8  2  1  0  0  0  0
  9  2  1  0  0  0  0
 10  5  1  0  0  0  0
 11  3  1  0  0  0  0
 12 10  1  0  0  0  0
 13  6  2  0  0  0  0
 14  8  1  0  0  0  0
 15  9  1  0  0  0  0
 16  8  2  0  0  0  0
 17  9  2  0  0  0  0
 18 11  1  0  0  0  0
 19 12  2  0  0  0  0
 20  4  1  0  0  0  0
 21 20  1  0  0  0  0
 22 25  1  0  0  0  0
 23 18  2  0  0  0  0
 24 19  1  0  0  0  0
 25 21  1  0  0  0  0
 26 22  1  0  0  0  0
 27 22  1  0  0  0  0
 10 11  2  0  0  0  0
 23 19  1  0  0  0  0
 14 15  1  0  0  0  0
  2  7  1  0  0  0  0
M  END
>  <IDNUMBER>
F2019-0479

>  <Chemical_Name>
N-[3-(dimethylamino)propyl]-2-(2,5-dioxopyrrolidin-1-yl)-N-(6-fluoro-1,3-benzothiazol-2-yl)acetamide hydrochloride

>  <PriceCoeff>
1.00

>  <CAS>
1216857-82-7

>  <MW>
392.45

>  <Description>
solid

>  <FSP3>
0.44

>  <clogP>
1.72

>  <TPSA>
102.06

>  <Acceptor>
4

>  <Donor>
1

>  <RotBonds>
8

>  <HAC>
27

>  <Collection>
General

>  <PPDS>
+

$$$$
F2019-0606
  Mrv2219 10102508112D          

 28 29  0  0  0  0            999 V2000
   -3.1583    2.9833    0.0000 C   0  0  0  0  0  0  0  0  0  0  0  0
   -0.2958    2.9833    0.0000 N   0  0  0  0  0  0  0  0  0  0  0  0
   -3.9125    2.6458    0.0000 N   0  0  0  0  0  0  0  0  0  0  0  0
   -2.4375    2.5625    0.0000 N   0  0  0  0  0  0  0  0  0  0  0  0
   -3.2375    3.8000    0.0000 S   0  0  0  0  0  0  0  0  0  0  0  0
   -1.7250    2.9833    0.0000 C   0  0  0  0  0  0  0  0  0  0  0  0
   -1.0125    2.5625    0.0000 C   0  0  0  0  0  0  0  0  0  0  0  0
   -0.2125    3.8000    0.0000 C   0  0  0  0  0  0  0  0  0  0  0  0
    0.4542    2.6458    0.0000 C   0  0  0  0  0  0  0  0  0  0  0  0
   -4.0500    3.9708    0.0000 C   0  0  0  0  0  0  0  0  0  0  0  0
   -4.4708    3.2583    0.0000 C   0  0  0  0  0  0  0  0  0  0  0  0
   -4.4583    4.6792    0.0000 C   0  0  0  0  0  0  0  0  0  0  0  0
   -1.7250    3.8000    0.0000 O   0  0  0  0  0  0  0  0  0  0  0  0
    0.5917    3.9708    0.0000 C   0  0  0  0  0  0  0  0  0  0  0  0
    1.0125    3.2583    0.0000 C   0  0  0  0  0  0  0  0  0  0  0  0
   -0.8125    4.3417    0.0000 O   0  0  0  0  0  0  0  0  0  0  0  0
    0.6292    1.8333    0.0000 O   0  0  0  0  0  0  0  0  0  0  0  0
   -5.2833    3.2583    0.0000 C   0  0  0  0  0  0  0  0  0  0  0  0
   -5.2833    4.6792    0.0000 C   0  0  0  0  0  0  0  0  0  0  0  0
   -2.4375    1.7375    0.0000 C   0  0  0  0  0  0  0  0  0  0  0  0
   -3.1583    1.3250    0.0000 C   0  0  0  0  0  0  0  0  0  0  0  0
   -3.8708    0.0875    0.0000 N   0  0  0  0  0  0  0  0  0  0  0  0
   -5.6958    3.9708    0.0000 C   0  0  0  0  0  0  0  0  0  0  0  0
   -5.6958    5.4042    0.0000 Cl  0  0  0  0  0  0  0  0  0  0  0  0
   -3.1583    0.5000    0.0000 C   0  0  0  0  0  0  0  0  0  0  0  0
   -4.5833    0.5000    0.0000 C   0  0  0  0  0  0  0  0  0  0  0  0
   -3.8708   -0.7375    0.0000 C   0  0  0  0  0  0  0  0  0  0  0  0
    2.4000    2.4833    0.0000 Cl  0  0  0  0  0  0  0  0  0  0  0  0
  3  1  2  0  0  0  0
  4  1  1  0  0  0  0
  5  1  1  0  0  0  0
  6  4  1  0  0  0  0
  7  6  1  0  0  0  0
  8  2  1  0  0  0  0
  9  2  1  0  0  0  0
 10  5  1  0  0  0  0
 11  3  1  0  0  0  0
 12 10  1  0  0  0  0
 13  6  2  0  0  0  0
 14  8  1  0  0  0  0
 15  9  1  0  0  0  0
 16  8  2  0  0  0  0
 17  9  2  0  0  0  0
 18 11  1  0  0  0  0
 19 12  2  0  0  0  0
 20  4  1  0  0  0  0
 21 20  1  0  0  0  0
 22 25  1  0  0  0  0
 23 18  2  0  0  0  0
 24 19  1  0  0  0  0
 25 21  1  0  0  0  0
 26 22  1  0  0  0  0
 27 22  1  0  0  0  0
 10 11  2  0  0  0  0
 23 19  1  0  0  0  0
 14 15  1  0  0  0  0
  2  7  1  0  0  0  0
M  END
>  <IDNUMBER>
F2019-0606

>  <Chemical_Name>
N-(6-chloro-1,3-benzothiazol-2-yl)-N-[3-(dimethylamino)propyl]-2-(2,5-dioxopyrrolidin-1-yl)acetamide hydrochloride

>  <PriceCoeff>
1.00

>  <CAS>
1216542-77-6

>  <MW>
408.90

>  <Description>
solid

>  <FSP3>
0.44

>  <clogP>
2.29

>  <TPSA>
102.06

>  <Acceptor>
4

>  <Donor>
1

>  <RotBonds>
8

>  <HAC>
27

>  <Collection>
General

>  <PPDS>
+

$$$$
F2019-0733
  Mrv2219 10102508112D          

 28 29  0  0  0  0            999 V2000
   -3.1583    2.9833    0.0000 C   0  0  0  0  0  0  0  0  0  0  0  0
   -0.2958    2.9833    0.0000 N   0  0  0  0  0  0  0  0  0  0  0  0
   -3.9125    2.6458    0.0000 N   0  0  0  0  0  0  0  0  0  0  0  0
   -2.4375    2.5625    0.0000 N   0  0  0  0  0  0  0  0  0  0  0  0
   -3.2458    3.8083    0.0000 S   0  0  0  0  0  0  0  0  0  0  0  0
   -1.7250    2.9833    0.0000 C   0  0  0  0  0  0  0  0  0  0  0  0
   -1.0125    2.5625    0.0000 C   0  0  0  0  0  0  0  0  0  0  0  0
   -0.2125    3.8000    0.0000 C   0  0  0  0  0  0  0  0  0  0  0  0
    0.4542    2.6458    0.0000 C   0  0  0  0  0  0  0  0  0  0  0  0
   -4.0583    3.9708    0.0000 C   0  0  0  0  0  0  0  0  0  0  0  0
   -4.4708    3.2583    0.0000 C   0  0  0  0  0  0  0  0  0  0  0  0
   -4.4708    4.6667    0.0000 C   0  0  0  0  0  0  0  0  0  0  0  0
   -1.7250    3.8000    0.0000 O   0  0  0  0  0  0  0  0  0  0  0  0
    0.5917    3.9708    0.0000 C   0  0  0  0  0  0  0  0  0  0  0  0
    1.0125    3.2583    0.0000 C   0  0  0  0  0  0  0  0  0  0  0  0
   -0.8125    4.3417    0.0000 O   0  0  0  0  0  0  0  0  0  0  0  0
    0.6292    1.8333    0.0000 O   0  0  0  0  0  0  0  0  0  0  0  0
   -5.2833    3.2458    0.0000 C   0  0  0  0  0  0  0  0  0  0  0  0
   -5.2958    4.6667    0.0000 C   0  0  0  0  0  0  0  0  0  0  0  0
   -2.4375    1.7375    0.0000 C   0  0  0  0  0  0  0  0  0  0  0  0
   -3.1583    1.3250    0.0000 C   0  0  0  0  0  0  0  0  0  0  0  0
   -3.8708    0.0875    0.0000 N   0  0  0  0  0  0  0  0  0  0  0  0
   -5.6958    3.9583    0.0000 C   0  0  0  0  0  0  0  0  0  0  0  0
   -5.7208    5.3917    0.0000 Br  0  0  0  0  0  0  0  0  0  0  0  0
   -3.1583    0.5000    0.0000 C   0  0  0  0  0  0  0  0  0  0  0  0
   -4.5833    0.5000    0.0000 C   0  0  0  0  0  0  0  0  0  0  0  0
   -3.8708   -0.7375    0.0000 C   0  0  0  0  0  0  0  0  0  0  0  0
    2.4000    2.4792    0.0000 Cl  0  0  0  0  0  0  0  0  0  0  0  0
  3  1  2  0  0  0  0
  4  1  1  0  0  0  0
  5  1  1  0  0  0  0
  6  4  1  0  0  0  0
  7  6  1  0  0  0  0
  8  2  1  0  0  0  0
  9  2  1  0  0  0  0
 10  5  1  0  0  0  0
 11  3  1  0  0  0  0
 12 10  1  0  0  0  0
 13  6  2  0  0  0  0
 14  8  1  0  0  0  0
 15  9  1  0  0  0  0
 16  8  2  0  0  0  0
 17  9  2  0  0  0  0
 18 11  1  0  0  0  0
 19 12  2  0  0  0  0
 20  4  1  0  0  0  0
 21 20  1  0  0  0  0
 22 25  1  0  0  0  0
 23 18  2  0  0  0  0
 24 19  1  0  0  0  0
 25 21  1  0  0  0  0
 26 22  1  0  0  0  0
 27 22  1  0  0  0  0
 10 11  2  0  0  0  0
 23 19  1  0  0  0  0
 14 15  1  0  0  0  0
  2  7  1  0  0  0  0
M  END
>  <IDNUMBER>
F2019-0733

>  <Chemical_Name>
N-(6-bromo-1,3-benzothiazol-2-yl)-N-[3-(dimethylamino)propyl]-2-(2,5-dioxopyrrolidin-1-yl)acetamide hydrochloride

>  <PriceCoeff>
1.00

>  <CAS>
1217174-40-7

>  <MW>
453.35

>  <Description>
solid

>  <FSP3>
0.44

>  <clogP>
2.44

>  <TPSA>
102.06

>  <Acceptor>
4

>  <Donor>
1

>  <RotBonds>
8

>  <HAC>
27

>  <Collection>
General

>  <PPDS>
+

$$$$
F2019-0936
  Mrv2219 10102508112D          

 33 35  0  0  0  0            999 V2000
   -3.1583    2.9833    0.0000 C   0  0  0  0  0  0  0  0  0  0  0  0
   -3.9125    2.6458    0.0000 N   0  0  0  0  0  0  0  0  0  0  0  0
   -2.4375    2.5625    0.0000 N   0  0  0  0  0  0  0  0  0  0  0  0
    1.1292    1.3083    0.0000 N   0  0  0  0  0  0  0  0  0  0  0  0
   -3.2458    3.8083    0.0000 S   0  0  0  0  0  0  0  0  0  0  0  0
   -1.7250    2.9833    0.0000 C   0  0  0  0  0  0  0  0  0  0  0  0
   -4.4708    3.2500    0.0000 C   0  0  0  0  0  0  0  0  0  0  0  0
    1.8792    1.6750    0.0000 C   0  0  0  0  0  0  0  0  0  0  0  0
    1.2500    0.5000    0.0000 C   0  0  0  0  0  0  0  0  0  0  0  0
   -4.0583    3.9708    0.0000 C   0  0  0  0  0  0  0  0  0  0  0  0
    0.4167    1.7333    0.0000 C   0  0  0  0  0  0  0  0  0  0  0  0
   -1.0125    2.5625    0.0000 C   0  0  0  0  0  0  0  0  0  0  0  0
   -1.7250    3.8000    0.0000 O   0  0  0  0  0  0  0  0  0  0  0  0
    2.4542    1.0750    0.0000 C   0  0  0  0  0  0  0  0  0  0  0  0
    2.0625    0.3583    0.0000 C   0  0  0  0  0  0  0  0  0  0  0  0
    2.0292    2.5083    0.0000 O   0  0  0  0  0  0  0  0  0  0  0  0
    0.6542   -0.0792    0.0000 O   0  0  0  0  0  0  0  0  0  0  0  0
   -5.2875    3.2500    0.0000 C   0  0  0  0  0  0  0  0  0  0  0  0
    0.4250    2.5625    0.0000 C   0  0  0  0  0  0  0  0  0  0  0  0
   -0.3000    1.3333    0.0000 C   0  0  0  0  0  0  0  0  0  0  0  0
   -1.0083    1.7458    0.0000 C   0  0  0  0  0  0  0  0  0  0  0  0
   -0.2833    2.9833    0.0000 C   0  0  0  0  0  0  0  0  0  0  0  0
   -2.4375    1.7375    0.0000 C   0  0  0  0  0  0  0  0  0  0  0  0
   -3.1583    1.3250    0.0000 C   0  0  0  0  0  0  0  0  0  0  0  0
   -3.8708    0.0875    0.0000 N   0  0  0  0  0  0  0  0  0  0  0  0
   -4.4708    4.6667    0.0000 C   0  0  0  0  0  0  0  0  0  0  0  0
   -3.1583    0.5000    0.0000 C   0  0  0  0  0  0  0  0  0  0  0  0
   -5.2958    4.6667    0.0000 C   0  0  0  0  0  0  0  0  0  0  0  0
   -5.7083    3.9583    0.0000 C   0  0  0  0  0  0  0  0  0  0  0  0
   -5.7083    2.5333    0.0000 C   0  0  0  0  0  0  0  0  0  0  0  0
   -3.8708   -0.7375    0.0000 C   0  0  0  0  0  0  0  0  0  0  0  0
   -4.5833    0.5000    0.0000 C   0  0  0  0  0  0  0  0  0  0  0  0
    3.8417    2.0583    0.0000 Cl  0  0  0  0  0  0  0  0  0  0  0  0
  3  1  1  0  0  0  0
  4 11  1  0  0  0  0
  5  1  1  0  0  0  0
  6  3  1  0  0  0  0
  7  2  1  0  0  0  0
  8  4  1  0  0  0  0
  9  4  1  0  0  0  0
 10  5  1  0  0  0  0
 11 19  1  0  0  0  0
 12  6  1  0  0  0  0
 13  6  2  0  0  0  0
 14  8  1  0  0  0  0
 15  9  1  0  0  0  0
 16  8  2  0  0  0  0
 17  9  2  0  0  0  0
 18  7  1  0  0  0  0
 19 22  2  0  0  0  0
 20 21  1  0  0  0  0
 21 12  2  0  0  0  0
 22 12  1  0  0  0  0
 23  3  1  0  0  0  0
 24 23  1  0  0  0  0
 25 27  1  0  0  0  0
 26 10  1  0  0  0  0
 27 24  1  0  0  0  0
 28 26  2  0  0  0  0
 29 18  2  0  0  0  0
 30 18  1  0  0  0  0
 31 25  1  0  0  0  0
 32 25  1  0  0  0  0
 10  7  2  0  0  0  0
 29 28  1  0  0  0  0
 11 20  2  0  0  0  0
 15 14  1  0  0  0  0
  2  1  2  0  0  0  0
M  END
>  <IDNUMBER>
F2019-0936

>  <Chemical_Name>
N-[3-(dimethylamino)propyl]-4-(2,5-dioxopyrrolidin-1-yl)-N-(4-methyl-1,3-benzothiazol-2-yl)benzamide hydrochloride

>  <PriceCoeff>
1.00

>  <CAS>
1215454-48-0

>  <MW>
450.55

>  <Description>
solid

>  <FSP3>
0.33

>  <clogP>
1.89

>  <TPSA>
102.06

>  <Acceptor>
4

>  <Donor>
1

>  <RotBonds>
8

>  <HAC>
32

>  <Collection>
General

>  <PPDS>
+

$$$$
F2019-0953
  Mrv2219 10102508112D          

 33 35  0  0  0  0            999 V2000
   -3.1579    2.9829    0.0000 C   0  0  0  0  0  0  0  0  0  0  0  0
   -3.9121    2.6455    0.0000 N   0  0  0  0  0  0  0  0  0  0  0  0
   -2.4372    2.5622    0.0000 N   0  0  0  0  0  0  0  0  0  0  0  0
   -0.2957    0.4957    0.0000 N   0  0  0  0  0  0  0  0  0  0  0  0
   -3.2455    3.8079    0.0000 S   0  0  0  0  0  0  0  0  0  0  0  0
   -1.7248    2.9829    0.0000 C   0  0  0  0  0  0  0  0  0  0  0  0
   -4.4703    3.2497    0.0000 C   0  0  0  0  0  0  0  0  0  0  0  0
   -0.2957    1.3331    0.0000 C   0  0  0  0  0  0  0  0  0  0  0  0
    0.3499   -0.0167    0.0000 C   0  0  0  0  0  0  0  0  0  0  0  0
   -0.9957    0.0458    0.0000 C   0  0  0  0  0  0  0  0  0  0  0  0
   -4.0578    3.9703    0.0000 C   0  0  0  0  0  0  0  0  0  0  0  0
   -1.0124    2.5622    0.0000 C   0  0  0  0  0  0  0  0  0  0  0  0
   -1.0082    1.7456    0.0000 C   0  0  0  0  0  0  0  0  0  0  0  0
   -1.7248    3.7996    0.0000 O   0  0  0  0  0  0  0  0  0  0  0  0
    0.0667   -0.7916    0.0000 C   0  0  0  0  0  0  0  0  0  0  0  0
   -0.7583   -0.7667    0.0000 C   0  0  0  0  0  0  0  0  0  0  0  0
    1.1416    0.1958    0.0000 O   0  0  0  0  0  0  0  0  0  0  0  0
   -1.7581    0.3332    0.0000 O   0  0  0  0  0  0  0  0  0  0  0  0
   -5.2869    3.2497    0.0000 C   0  0  0  0  0  0  0  0  0  0  0  0
   -2.4372    1.7373    0.0000 C   0  0  0  0  0  0  0  0  0  0  0  0
   -3.1579    1.3248    0.0000 C   0  0  0  0  0  0  0  0  0  0  0  0
   -3.8704    0.0875    0.0000 N   0  0  0  0  0  0  0  0  0  0  0  0
    0.4166    1.7331    0.0000 C   0  0  0  0  0  0  0  0  0  0  0  0
   -4.4703    4.6662    0.0000 C   0  0  0  0  0  0  0  0  0  0  0  0
   -0.2874    2.9829    0.0000 C   0  0  0  0  0  0  0  0  0  0  0  0
   -3.1579    0.4999    0.0000 C   0  0  0  0  0  0  0  0  0  0  0  0
    0.4249    2.5622    0.0000 C   0  0  0  0  0  0  0  0  0  0  0  0
   -5.2952    4.6662    0.0000 C   0  0  0  0  0  0  0  0  0  0  0  0
   -5.7077    3.9578    0.0000 C   0  0  0  0  0  0  0  0  0  0  0  0
   -5.7077    2.5330    0.0000 C   0  0  0  0  0  0  0  0  0  0  0  0
   -3.8704   -0.7375    0.0000 C   0  0  0  0  0  0  0  0  0  0  0  0
   -4.5828    0.4999    0.0000 C   0  0  0  0  0  0  0  0  0  0  0  0
    2.6581    2.0331    0.0000 Cl  0  0  0  0  0  0  0  0  0  0  0  0
  3  1  1  0  0  0  0
  4  8  1  0  0  0  0
  5  1  1  0  0  0  0
  6  3  1  0  0  0  0
  7  2  1  0  0  0  0
  8 13  1  0  0  0  0
  9  4  1  0  0  0  0
 10  4  1  0  0  0  0
 11  5  1  0  0  0  0
 12  6  1  0  0  0  0
 13 12  2  0  0  0  0
 14  6  2  0  0  0  0
 15  9  1  0  0  0  0
 16 10  1  0  0  0  0
 17  9  2  0  0  0  0
 18 10  2  0  0  0  0
 19  7  1  0  0  0  0
 20  3  1  0  0  0  0
 21 20  1  0  0  0  0
 22 26  1  0  0  0  0
 23 27  1  0  0  0  0
 24 11  1  0  0  0  0
 25 12  1  0  0  0  0
 26 21  1  0  0  0  0
 27 25  2  0  0  0  0
 28 24  2  0  0  0  0
 29 19  2  0  0  0  0
 30 19  1  0  0  0  0
 31 22  1  0  0  0  0
 32 22  1  0  0  0  0
 11  7  2  0  0  0  0
 29 28  1  0  0  0  0
  8 23  2  0  0  0  0
 16 15  1  0  0  0  0
  2  1  2  0  0  0  0
M  END
>  <IDNUMBER>
F2019-0953

>  <Chemical_Name>
N-[3-(dimethylamino)propyl]-3-(2,5-dioxopyrrolidin-1-yl)-N-(4-methyl-1,3-benzothiazol-2-yl)benzamide hydrochloride

>  <PriceCoeff>
1.00

>  <CAS>
1216504-17-4

>  <MW>
450.55

>  <Description>
solid

>  <FSP3>
0.33

>  <clogP>
1.89

>  <TPSA>
102.06

>  <Acceptor>
4

>  <Donor>
1

>  <RotBonds>
8

>  <HAC>
32

>  <Collection>
General

>  <PPDS>
+

$$$$
F2019-0987
  Mrv2219 10102508112D          

 28 29  0  0  0  0            999 V2000
   -3.1583    2.9833    0.0000 C   0  0  0  0  0  0  0  0  0  0  0  0
   -3.9125    2.6458    0.0000 N   0  0  0  0  0  0  0  0  0  0  0  0
   -0.2958    2.9833    0.0000 N   0  0  0  0  0  0  0  0  0  0  0  0
   -2.4375    2.5625    0.0000 N   0  0  0  0  0  0  0  0  0  0  0  0
   -3.2458    3.8083    0.0000 S   0  0  0  0  0  0  0  0  0  0  0  0
   -1.7250    2.9833    0.0000 C   0  0  0  0  0  0  0  0  0  0  0  0
   -4.4708    3.2500    0.0000 C   0  0  0  0  0  0  0  0  0  0  0  0
   -1.0125    2.5625    0.0000 C   0  0  0  0  0  0  0  0  0  0  0  0
   -0.2125    3.8000    0.0000 C   0  0  0  0  0  0  0  0  0  0  0  0
    0.4542    2.6458    0.0000 C   0  0  0  0  0  0  0  0  0  0  0  0
   -4.0583    3.9708    0.0000 C   0  0  0  0  0  0  0  0  0  0  0  0
   -1.7250    3.8000    0.0000 O   0  0  0  0  0  0  0  0  0  0  0  0
    0.5917    3.9708    0.0000 C   0  0  0  0  0  0  0  0  0  0  0  0
    1.0125    3.2583    0.0000 C   0  0  0  0  0  0  0  0  0  0  0  0
   -0.8125    4.3417    0.0000 O   0  0  0  0  0  0  0  0  0  0  0  0
    0.6292    1.8333    0.0000 O   0  0  0  0  0  0  0  0  0  0  0  0
   -5.2875    3.2500    0.0000 C   0  0  0  0  0  0  0  0  0  0  0  0
   -2.4375    1.7375    0.0000 C   0  0  0  0  0  0  0  0  0  0  0  0
   -3.1583    1.3250    0.0000 C   0  0  0  0  0  0  0  0  0  0  0  0
   -3.8708    0.0875    0.0000 N   0  0  0  0  0  0  0  0  0  0  0  0
   -4.4708    4.6667    0.0000 C   0  0  0  0  0  0  0  0  0  0  0  0
   -3.1583    0.5000    0.0000 C   0  0  0  0  0  0  0  0  0  0  0  0
   -5.2958    4.6667    0.0000 C   0  0  0  0  0  0  0  0  0  0  0  0
   -5.7083    3.9583    0.0000 C   0  0  0  0  0  0  0  0  0  0  0  0
   -5.7083    2.5333    0.0000 C   0  0  0  0  0  0  0  0  0  0  0  0
   -4.5833    0.5000    0.0000 C   0  0  0  0  0  0  0  0  0  0  0  0
   -3.8708   -0.7375    0.0000 C   0  0  0  0  0  0  0  0  0  0  0  0
    2.4000    2.0583    0.0000 Cl  0  0  0  0  0  0  0  0  0  0  0  0
  3  8  1  0  0  0  0
  4  1  1  0  0  0  0
  5  1  1  0  0  0  0
  6  4  1  0  0  0  0
  7  2  1  0  0  0  0
  8  6  1  0  0  0  0
  9  3  1  0  0  0  0
 10  3  1  0  0  0  0
 11  5  1  0  0  0  0
 12  6  2  0  0  0  0
 13  9  1  0  0  0  0
 14 10  1  0  0  0  0
 15  9  2  0  0  0  0
 16 10  2  0  0  0  0
 17  7  1  0  0  0  0
 18  4  1  0  0  0  0
 19 18  1  0  0  0  0
 20 22  1  0  0  0  0
 21 11  1  0  0  0  0
 22 19  1  0  0  0  0
 23 21  2  0  0  0  0
 24 17  2  0  0  0  0
 25 17  1  0  0  0  0
 26 20  1  0  0  0  0
 27 20  1  0  0  0  0
 11  7  2  0  0  0  0
 24 23  1  0  0  0  0
 13 14  1  0  0  0  0
  2  1  2  0  0  0  0
M  END
>  <IDNUMBER>
F2019-0987

>  <Chemical_Name>
N-[3-(dimethylamino)propyl]-2-(2,5-dioxopyrrolidin-1-yl)-N-(4-methyl-1,3-benzothiazol-2-yl)acetamide hydrochloride

>  <PriceCoeff>
1.00

>  <MW>
388.48

>  <Description>
solid

>  <FSP3>
0.47

>  <clogP>
2.04

>  <TPSA>
102.06

>  <Acceptor>
4

>  <Donor>
1

>  <RotBonds>
8

>  <HAC>
27

>  <Collection>
General

$$$$
F2019-1241
  Mrv2219 10102508112D          

 30 31  0  0  0  0            999 V2000
   -3.1429    2.9688    0.0000 C   0  0  0  0  0  0  0  0  0  0  0  0
   -3.9142    2.6205    0.0000 N   0  0  0  0  0  0  0  0  0  0  0  0
   -0.2944    2.9688    0.0000 N   0  0  0  0  0  0  0  0  0  0  0  0
   -2.4256    2.5500    0.0000 N   0  0  0  0  0  0  0  0  0  0  0  0
   -3.2300    3.8146    0.0000 S   0  0  0  0  0  0  0  0  0  0  0  0
   -4.4864    3.2549    0.0000 C   0  0  0  0  0  0  0  0  0  0  0  0
   -1.7166    2.9688    0.0000 C   0  0  0  0  0  0  0  0  0  0  0  0
   -1.0076    2.5500    0.0000 C   0  0  0  0  0  0  0  0  0  0  0  0
   -0.2115    3.7815    0.0000 C   0  0  0  0  0  0  0  0  0  0  0  0
    0.4520    2.6329    0.0000 C   0  0  0  0  0  0  0  0  0  0  0  0
   -4.0634    3.9805    0.0000 C   0  0  0  0  0  0  0  0  0  0  0  0
   -5.3198    3.2549    0.0000 C   0  0  0  0  0  0  0  0  0  0  0  0
   -1.7166    3.7815    0.0000 O   0  0  0  0  0  0  0  0  0  0  0  0
    0.5888    3.9515    0.0000 C   0  0  0  0  0  0  0  0  0  0  0  0
    1.0076    3.2424    0.0000 C   0  0  0  0  0  0  0  0  0  0  0  0
   -0.8085    4.3206    0.0000 O   0  0  0  0  0  0  0  0  0  0  0  0
    0.6261    1.8244    0.0000 O   0  0  0  0  0  0  0  0  0  0  0  0
   -2.4256    1.7290    0.0000 C   0  0  0  0  0  0  0  0  0  0  0  0
   -3.1429    1.3186    0.0000 C   0  0  0  0  0  0  0  0  0  0  0  0
   -3.8520    0.0871    0.0000 N   0  0  0  0  0  0  0  0  0  0  0  0
   -5.7427    2.5210    0.0000 O   0  0  0  0  0  0  0  0  0  0  0  0
   -4.4781    4.6937    0.0000 C   0  0  0  0  0  0  0  0  0  0  0  0
   -3.1429    0.4976    0.0000 C   0  0  0  0  0  0  0  0  0  0  0  0
   -5.3240    4.7062    0.0000 C   0  0  0  0  0  0  0  0  0  0  0  0
   -5.7427    3.9764    0.0000 C   0  0  0  0  0  0  0  0  0  0  0  0
   -4.5610    0.4976    0.0000 C   0  0  0  0  0  0  0  0  0  0  0  0
   -3.8520   -0.7339    0.0000 C   0  0  0  0  0  0  0  0  0  0  0  0
   -5.3198    1.7912    0.0000 C   0  0  0  0  0  0  0  0  0  0  0  0
   -5.5561    1.2564    0.0000 C   0  0  0  0  0  0  0  0  0  0  0  0
    2.3883    2.0815    0.0000 Cl  0  0  0  0  0  0  0  0  0  0  0  0
  3  8  1  0  0  0  0
  4  1  1  0  0  0  0
  5  1  1  0  0  0  0
  6  2  1  0  0  0  0
  7  4  1  0  0  0  0
  8  7  1  0  0  0  0
  9  3  1  0  0  0  0
 10  3  1  0  0  0  0
 11  5  1  0  0  0  0
 12  6  1  0  0  0  0
 13  7  2  0  0  0  0
 14  9  1  0  0  0  0
 15 10  1  0  0  0  0
 16  9  2  0  0  0  0
 17 10  2  0  0  0  0
 18  4  1  0  0  0  0
 19 18  1  0  0  0  0
 20 23  1  0  0  0  0
 21 12  1  0  0  0  0
 22 11  1  0  0  0  0
 23 19  1  0  0  0  0
 24 22  2  0  0  0  0
 25 12  2  0  0  0  0
 26 20  1  0  0  0  0
 27 20  1  0  0  0  0
 28 21  1  0  0  0  0
 29 28  1  0  0  0  0
 11  6  2  0  0  0  0
 25 24  1  0  0  0  0
 14 15  1  0  0  0  0
  2  1  2  0  0  0  0
M  END
>  <IDNUMBER>
F2019-1241

>  <Chemical_Name>
N-[3-(dimethylamino)propyl]-2-(2,5-dioxopyrrolidin-1-yl)-N-(4-ethoxy-1,3-benzothiazol-2-yl)acetamide hydrochloride

>  <PriceCoeff>
1.00

>  <CAS>
1216913-59-5

>  <MW>
418.51

>  <Description>
solid

>  <FSP3>
0.50

>  <clogP>
2.37

>  <TPSA>
111.29

>  <Acceptor>
5

>  <Donor>
1

>  <RotBonds>
10

>  <HAC>
29

>  <Collection>
General

>  <PPDS>
+

$$$$
F2019-1317
  Mrv2219 10102508112D          

 33 35  0  0  0  0            999 V2000
   -3.1592    2.9842    0.0000 C   0  0  0  0  0  0  0  0  0  0  0  0
   -3.9136    2.6466    0.0000 N   0  0  0  0  0  0  0  0  0  0  0  0
   -2.4382    2.5632    0.0000 N   0  0  0  0  0  0  0  0  0  0  0  0
    1.1295    1.3087    0.0000 N   0  0  0  0  0  0  0  0  0  0  0  0
   -3.2467    3.8094    0.0000 S   0  0  0  0  0  0  0  0  0  0  0  0
   -4.4721    3.2717    0.0000 C   0  0  0  0  0  0  0  0  0  0  0  0
   -1.7255    2.9842    0.0000 C   0  0  0  0  0  0  0  0  0  0  0  0
    1.8797    1.6755    0.0000 C   0  0  0  0  0  0  0  0  0  0  0  0
    1.2504    0.5001    0.0000 C   0  0  0  0  0  0  0  0  0  0  0  0
   -4.0595    3.9719    0.0000 C   0  0  0  0  0  0  0  0  0  0  0  0
    0.4168    1.7338    0.0000 C   0  0  0  0  0  0  0  0  0  0  0  0
   -1.0128    2.5632    0.0000 C   0  0  0  0  0  0  0  0  0  0  0  0
   -5.2890    3.2592    0.0000 C   0  0  0  0  0  0  0  0  0  0  0  0
   -1.7255    3.8011    0.0000 O   0  0  0  0  0  0  0  0  0  0  0  0
    2.4549    1.0753    0.0000 C   0  0  0  0  0  0  0  0  0  0  0  0
    2.0631    0.3584    0.0000 C   0  0  0  0  0  0  0  0  0  0  0  0
    2.0298    2.5090    0.0000 O   0  0  0  0  0  0  0  0  0  0  0  0
    0.6544   -0.0792    0.0000 O   0  0  0  0  0  0  0  0  0  0  0  0
    0.4251    2.5632    0.0000 C   0  0  0  0  0  0  0  0  0  0  0  0
   -0.3001    1.3337    0.0000 C   0  0  0  0  0  0  0  0  0  0  0  0
   -1.0086    1.7463    0.0000 C   0  0  0  0  0  0  0  0  0  0  0  0
   -0.2834    2.9842    0.0000 C   0  0  0  0  0  0  0  0  0  0  0  0
   -2.4382    1.7380    0.0000 C   0  0  0  0  0  0  0  0  0  0  0  0
   -3.1592    1.3254    0.0000 C   0  0  0  0  0  0  0  0  0  0  0  0
   -3.8719    0.0875    0.0000 N   0  0  0  0  0  0  0  0  0  0  0  0
   -5.7099    2.5465    0.0000 F   0  0  0  0  0  0  0  0  0  0  0  0
   -4.4596    4.6805    0.0000 C   0  0  0  0  0  0  0  0  0  0  0  0
   -3.1592    0.5001    0.0000 C   0  0  0  0  0  0  0  0  0  0  0  0
   -5.2848    4.6805    0.0000 C   0  0  0  0  0  0  0  0  0  0  0  0
   -5.6974    3.9719    0.0000 C   0  0  0  0  0  0  0  0  0  0  0  0
   -3.8719   -0.7377    0.0000 C   0  0  0  0  0  0  0  0  0  0  0  0
   -4.5846    0.5001    0.0000 C   0  0  0  0  0  0  0  0  0  0  0  0
    3.8428    2.0673    0.0000 Cl  0  0  0  0  0  0  0  0  0  0  0  0
  3  1  1  0  0  0  0
  4 11  1  0  0  0  0
  5  1  1  0  0  0  0
  6  2  1  0  0  0  0
  7  3  1  0  0  0  0
  8  4  1  0  0  0  0
  9  4  1  0  0  0  0
 10  5  1  0  0  0  0
 11 19  1  0  0  0  0
 12  7  1  0  0  0  0
 13  6  1  0  0  0  0
 14  7  2  0  0  0  0
 15  8  1  0  0  0  0
 16  9  1  0  0  0  0
 17  8  2  0  0  0  0
 18  9  2  0  0  0  0
 19 22  2  0  0  0  0
 20 21  1  0  0  0  0
 21 12  2  0  0  0  0
 22 12  1  0  0  0  0
 23  3  1  0  0  0  0
 24 23  1  0  0  0  0
 25 28  1  0  0  0  0
 26 13  1  0  0  0  0
 27 10  1  0  0  0  0
 28 24  1  0  0  0  0
 29 27  2  0  0  0  0
 30 13  2  0  0  0  0
 31 25  1  0  0  0  0
 32 25  1  0  0  0  0
 10  6  2  0  0  0  0
 30 29  1  0  0  0  0
 11 20  2  0  0  0  0
 16 15  1  0  0  0  0
  2  1  2  0  0  0  0
M  END
>  <IDNUMBER>
F2019-1317

>  <Chemical_Name>
N-[3-(dimethylamino)propyl]-4-(2,5-dioxopyrrolidin-1-yl)-N-(4-fluoro-1,3-benzothiazol-2-yl)benzamide hydrochloride

>  <PriceCoeff>
1.00

>  <CAS>
1052531-49-3

>  <MW>
454.52

>  <Description>
solid

>  <FSP3>
0.30

>  <clogP>
1.56

>  <TPSA>
102.06

>  <Acceptor>
4

>  <Donor>
1

>  <RotBonds>
8

>  <HAC>
32

>  <Collection>
General

>  <PPDS>
+

$$$$
F2019-1334
  Mrv2219 10102508112D          

 33 35  0  0  0  0            999 V2000
   -3.1583    2.9833    0.0000 C   0  0  0  0  0  0  0  0  0  0  0  0
   -3.9125    2.6458    0.0000 N   0  0  0  0  0  0  0  0  0  0  0  0
   -2.4375    2.5625    0.0000 N   0  0  0  0  0  0  0  0  0  0  0  0
   -0.2958    0.4958    0.0000 N   0  0  0  0  0  0  0  0  0  0  0  0
   -3.2458    3.8083    0.0000 S   0  0  0  0  0  0  0  0  0  0  0  0
   -1.7250    2.9833    0.0000 C   0  0  0  0  0  0  0  0  0  0  0  0
   -4.4708    3.2708    0.0000 C   0  0  0  0  0  0  0  0  0  0  0  0
   -0.2958    1.3333    0.0000 C   0  0  0  0  0  0  0  0  0  0  0  0
    0.3500   -0.0167    0.0000 C   0  0  0  0  0  0  0  0  0  0  0  0
   -0.9958    0.0458    0.0000 C   0  0  0  0  0  0  0  0  0  0  0  0
   -4.0583    3.9708    0.0000 C   0  0  0  0  0  0  0  0  0  0  0  0
   -1.0125    2.5625    0.0000 C   0  0  0  0  0  0  0  0  0  0  0  0
   -1.0083    1.7458    0.0000 C   0  0  0  0  0  0  0  0  0  0  0  0
   -5.2875    3.2583    0.0000 C   0  0  0  0  0  0  0  0  0  0  0  0
   -1.7250    3.8000    0.0000 O   0  0  0  0  0  0  0  0  0  0  0  0
    0.0667   -0.7917    0.0000 C   0  0  0  0  0  0  0  0  0  0  0  0
   -0.7583   -0.7667    0.0000 C   0  0  0  0  0  0  0  0  0  0  0  0
    1.1417    0.1958    0.0000 O   0  0  0  0  0  0  0  0  0  0  0  0
   -1.7583    0.3333    0.0000 O   0  0  0  0  0  0  0  0  0  0  0  0
   -2.4375    1.7375    0.0000 C   0  0  0  0  0  0  0  0  0  0  0  0
   -3.1583    1.3250    0.0000 C   0  0  0  0  0  0  0  0  0  0  0  0
   -3.8708    0.0875    0.0000 N   0  0  0  0  0  0  0  0  0  0  0  0
   -5.7083    2.5458    0.0000 F   0  0  0  0  0  0  0  0  0  0  0  0
    0.4167    1.7333    0.0000 C   0  0  0  0  0  0  0  0  0  0  0  0
   -4.4583    4.6792    0.0000 C   0  0  0  0  0  0  0  0  0  0  0  0
   -0.2875    2.9833    0.0000 C   0  0  0  0  0  0  0  0  0  0  0  0
   -3.1583    0.5000    0.0000 C   0  0  0  0  0  0  0  0  0  0  0  0
    0.4250    2.5625    0.0000 C   0  0  0  0  0  0  0  0  0  0  0  0
   -5.2833    4.6792    0.0000 C   0  0  0  0  0  0  0  0  0  0  0  0
   -5.6958    3.9708    0.0000 C   0  0  0  0  0  0  0  0  0  0  0  0
   -3.8708   -0.7375    0.0000 C   0  0  0  0  0  0  0  0  0  0  0  0
   -4.5833    0.5000    0.0000 C   0  0  0  0  0  0  0  0  0  0  0  0
    2.6584    2.0375    0.0000 Cl  0  0  0  0  0  0  0  0  0  0  0  0
  3  1  1  0  0  0  0
  4  8  1  0  0  0  0
  5  1  1  0  0  0  0
  6  3  1  0  0  0  0
  7  2  1  0  0  0  0
  8 13  1  0  0  0  0
  9  4  1  0  0  0  0
 10  4  1  0  0  0  0
 11  5  1  0  0  0  0
 12  6  1  0  0  0  0
 13 12  2  0  0  0  0
 14  7  1  0  0  0  0
 15  6  2  0  0  0  0
 16  9  1  0  0  0  0
 17 10  1  0  0  0  0
 18  9  2  0  0  0  0
 19 10  2  0  0  0  0
 20  3  1  0  0  0  0
 21 20  1  0  0  0  0
 22 27  1  0  0  0  0
 23 14  1  0  0  0  0
 24 28  1  0  0  0  0
 25 11  1  0  0  0  0
 26 12  1  0  0  0  0
 27 21  1  0  0  0  0
 28 26  2  0  0  0  0
 29 25  2  0  0  0  0
 30 14  2  0  0  0  0
 31 22  1  0  0  0  0
 32 22  1  0  0  0  0
 11  7  2  0  0  0  0
 30 29  1  0  0  0  0
  8 24  2  0  0  0  0
 17 16  1  0  0  0  0
  2  1  2  0  0  0  0
M  END
>  <IDNUMBER>
F2019-1334

>  <Chemical_Name>
N-[3-(dimethylamino)propyl]-3-(2,5-dioxopyrrolidin-1-yl)-N-(4-fluoro-1,3-benzothiazol-2-yl)benzamide hydrochloride

>  <PriceCoeff>
1.00

>  <MW>
454.52

>  <Description>
solid

>  <FSP3>
0.30

>  <clogP>
1.56

>  <TPSA>
102.06

>  <Acceptor>
4

>  <Donor>
1

>  <RotBonds>
8

>  <HAC>
32

>  <Collection>
General

$$$$
F2019-1368
  Mrv2219 10102508112D          

 28 29  0  0  0  0            999 V2000
   -3.1583    2.9833    0.0000 C   0  0  0  0  0  0  0  0  0  0  0  0
   -3.9125    2.6458    0.0000 N   0  0  0  0  0  0  0  0  0  0  0  0
   -0.2958    2.9833    0.0000 N   0  0  0  0  0  0  0  0  0  0  0  0
   -2.4375    2.5625    0.0000 N   0  0  0  0  0  0  0  0  0  0  0  0
   -3.2458    3.8083    0.0000 S   0  0  0  0  0  0  0  0  0  0  0  0
   -4.4708    3.2708    0.0000 C   0  0  0  0  0  0  0  0  0  0  0  0
   -1.7250    2.9833    0.0000 C   0  0  0  0  0  0  0  0  0  0  0  0
   -1.0125    2.5625    0.0000 C   0  0  0  0  0  0  0  0  0  0  0  0
   -0.2125    3.8000    0.0000 C   0  0  0  0  0  0  0  0  0  0  0  0
    0.4542    2.6458    0.0000 C   0  0  0  0  0  0  0  0  0  0  0  0
   -4.0583    3.9708    0.0000 C   0  0  0  0  0  0  0  0  0  0  0  0
   -5.2875    3.2583    0.0000 C   0  0  0  0  0  0  0  0  0  0  0  0
   -1.7250    3.8000    0.0000 O   0  0  0  0  0  0  0  0  0  0  0  0
    0.5917    3.9708    0.0000 C   0  0  0  0  0  0  0  0  0  0  0  0
    1.0125    3.2583    0.0000 C   0  0  0  0  0  0  0  0  0  0  0  0
   -0.8125    4.3417    0.0000 O   0  0  0  0  0  0  0  0  0  0  0  0
    0.6292    1.8333    0.0000 O   0  0  0  0  0  0  0  0  0  0  0  0
   -2.4375    1.7375    0.0000 C   0  0  0  0  0  0  0  0  0  0  0  0
   -3.1583    1.3250    0.0000 C   0  0  0  0  0  0  0  0  0  0  0  0
   -3.8708    0.0875    0.0000 N   0  0  0  0  0  0  0  0  0  0  0  0
   -5.7083    2.5458    0.0000 F   0  0  0  0  0  0  0  0  0  0  0  0
   -4.4583    4.6792    0.0000 C   0  0  0  0  0  0  0  0  0  0  0  0
   -3.1583    0.5000    0.0000 C   0  0  0  0  0  0  0  0  0  0  0  0
   -5.2833    4.6792    0.0000 C   0  0  0  0  0  0  0  0  0  0  0  0
   -5.6958    3.9708    0.0000 C   0  0  0  0  0  0  0  0  0  0  0  0
   -4.5833    0.5000    0.0000 C   0  0  0  0  0  0  0  0  0  0  0  0
   -3.8708   -0.7375    0.0000 C   0  0  0  0  0  0  0  0  0  0  0  0
    2.4000    2.0667    0.0000 Cl  0  0  0  0  0  0  0  0  0  0  0  0
  3  8  1  0  0  0  0
  4  1  1  0  0  0  0
  5  1  1  0  0  0  0
  6  2  1  0  0  0  0
  7  4  1  0  0  0  0
  8  7  1  0  0  0  0
  9  3  1  0  0  0  0
 10  3  1  0  0  0  0
 11  5  1  0  0  0  0
 12  6  1  0  0  0  0
 13  7  2  0  0  0  0
 14  9  1  0  0  0  0
 15 10  1  0  0  0  0
 16  9  2  0  0  0  0
 17 10  2  0  0  0  0
 18  4  1  0  0  0  0
 19 18  1  0  0  0  0
 20 23  1  0  0  0  0
 21 12  1  0  0  0  0
 22 11  1  0  0  0  0
 23 19  1  0  0  0  0
 24 22  2  0  0  0  0
 25 12  2  0  0  0  0
 26 20  1  0  0  0  0
 27 20  1  0  0  0  0
 11  6  2  0  0  0  0
 25 24  1  0  0  0  0
 14 15  1  0  0  0  0
  2  1  2  0  0  0  0
M  END
>  <IDNUMBER>
F2019-1368

>  <Chemical_Name>
N-[3-(dimethylamino)propyl]-2-(2,5-dioxopyrrolidin-1-yl)-N-(4-fluoro-1,3-benzothiazol-2-yl)acetamide hydrochloride

>  <PriceCoeff>
1.00

>  <CAS>
1216953-96-6

>  <MW>
392.45

>  <Description>
solid

>  <FSP3>
0.44

>  <clogP>
1.72

>  <TPSA>
102.06

>  <Acceptor>
4

>  <Donor>
1

>  <RotBonds>
8

>  <HAC>
27

>  <Collection>
General

>  <PPDS>
+

$$$$
F2019-1495
  Mrv2219 10102508112D          

 28 29  0  0  0  0            999 V2000
   -3.1583    2.9833    0.0000 C   0  0  0  0  0  0  0  0  0  0  0  0
   -3.9125    2.6458    0.0000 N   0  0  0  0  0  0  0  0  0  0  0  0
   -0.2958    2.9833    0.0000 N   0  0  0  0  0  0  0  0  0  0  0  0
   -2.4375    2.5625    0.0000 N   0  0  0  0  0  0  0  0  0  0  0  0
   -3.2458    3.8083    0.0000 S   0  0  0  0  0  0  0  0  0  0  0  0
   -4.4708    3.2500    0.0000 C   0  0  0  0  0  0  0  0  0  0  0  0
   -1.7250    2.9833    0.0000 C   0  0  0  0  0  0  0  0  0  0  0  0
   -1.0125    2.5625    0.0000 C   0  0  0  0  0  0  0  0  0  0  0  0
   -0.2125    3.8000    0.0000 C   0  0  0  0  0  0  0  0  0  0  0  0
    0.4542    2.6458    0.0000 C   0  0  0  0  0  0  0  0  0  0  0  0
   -4.0583    3.9708    0.0000 C   0  0  0  0  0  0  0  0  0  0  0  0
   -5.2875    3.2500    0.0000 C   0  0  0  0  0  0  0  0  0  0  0  0
   -1.7250    3.8000    0.0000 O   0  0  0  0  0  0  0  0  0  0  0  0
    0.5917    3.9708    0.0000 C   0  0  0  0  0  0  0  0  0  0  0  0
    1.0125    3.2583    0.0000 C   0  0  0  0  0  0  0  0  0  0  0  0
   -0.8125    4.3417    0.0000 O   0  0  0  0  0  0  0  0  0  0  0  0
    0.6292    1.8333    0.0000 O   0  0  0  0  0  0  0  0  0  0  0  0
   -2.4375    1.7375    0.0000 C   0  0  0  0  0  0  0  0  0  0  0  0
   -3.1583    1.3250    0.0000 C   0  0  0  0  0  0  0  0  0  0  0  0
   -3.8708    0.0875    0.0000 N   0  0  0  0  0  0  0  0  0  0  0  0
   -5.7083    2.5333    0.0000 Cl  0  0  0  0  0  0  0  0  0  0  0  0
   -4.4708    4.6667    0.0000 C   0  0  0  0  0  0  0  0  0  0  0  0
   -3.1583    0.5000    0.0000 C   0  0  0  0  0  0  0  0  0  0  0  0
   -5.2958    4.6667    0.0000 C   0  0  0  0  0  0  0  0  0  0  0  0
   -5.7083    3.9583    0.0000 C   0  0  0  0  0  0  0  0  0  0  0  0
   -4.5833    0.5000    0.0000 C   0  0  0  0  0  0  0  0  0  0  0  0
   -3.8708   -0.7375    0.0000 C   0  0  0  0  0  0  0  0  0  0  0  0
    2.4000    2.0583    0.0000 Cl  0  0  0  0  0  0  0  0  0  0  0  0
  3  8  1  0  0  0  0
  4  1  1  0  0  0  0
  5  1  1  0  0  0  0
  6  2  1  0  0  0  0
  7  4  1  0  0  0  0
  8  7  1  0  0  0  0
  9  3  1  0  0  0  0
 10  3  1  0  0  0  0
 11  5  1  0  0  0  0
 12  6  1  0  0  0  0
 13  7  2  0  0  0  0
 14  9  1  0  0  0  0
 15 10  1  0  0  0  0
 16  9  2  0  0  0  0
 17 10  2  0  0  0  0
 18  4  1  0  0  0  0
 19 18  1  0  0  0  0
 20 23  1  0  0  0  0
 21 12  1  0  0  0  0
 22 11  1  0  0  0  0
 23 19  1  0  0  0  0
 24 22  2  0  0  0  0
 25 12  2  0  0  0  0
 26 20  1  0  0  0  0
 27 20  1  0  0  0  0
 11  6  2  0  0  0  0
 25 24  1  0  0  0  0
 14 15  1  0  0  0  0
  2  1  2  0  0  0  0
M  END
>  <IDNUMBER>
F2019-1495

>  <Chemical_Name>
N-(4-chloro-1,3-benzothiazol-2-yl)-N-[3-(dimethylamino)propyl]-2-(2,5-dioxopyrrolidin-1-yl)acetamide hydrochloride

>  <PriceCoeff>
1.00

>  <CAS>
1217111-94-8

>  <MW>
408.90

>  <Description>
solid

>  <FSP3>
0.44

>  <clogP>
2.29

>  <TPSA>
102.06

>  <Acceptor>
4

>  <Donor>
1

>  <RotBonds>
8

>  <HAC>
27

>  <Collection>
General

>  <PPDS>
+

$$$$
F2019-1588
  Mrv2219 10102508112D          

 35 38  0  0  0  0            999 V2000
   -3.1579    2.9830    0.0000 C   0  0  0  0  0  0  0  0  0  0  0  0
   -2.4372    2.5622    0.0000 N   0  0  0  0  0  0  0  0  0  0  0  0
   -3.9121    2.6455    0.0000 N   0  0  0  0  0  0  0  0  0  0  0  0
   -0.2958    0.4957    0.0000 N   0  0  0  0  0  0  0  0  0  0  0  0
   -3.2454    3.8079    0.0000 S   0  0  0  0  0  0  0  0  0  0  0  0
   -1.7248    2.9830    0.0000 C   0  0  0  0  0  0  0  0  0  0  0  0
   -4.4703    3.2579    0.0000 C   0  0  0  0  0  0  0  0  0  0  0  0
   -4.0578    3.9703    0.0000 C   0  0  0  0  0  0  0  0  0  0  0  0
   -0.2958    1.3331    0.0000 C   0  0  0  0  0  0  0  0  0  0  0  0
    0.3500   -0.0167    0.0000 C   0  0  0  0  0  0  0  0  0  0  0  0
   -0.9957    0.0458    0.0000 C   0  0  0  0  0  0  0  0  0  0  0  0
   -1.0124    2.5622    0.0000 C   0  0  0  0  0  0  0  0  0  0  0  0
   -5.2827    3.2496    0.0000 C   0  0  0  0  0  0  0  0  0  0  0  0
   -4.4703    4.6787    0.0000 C   0  0  0  0  0  0  0  0  0  0  0  0
   -5.2952    4.6662    0.0000 C   0  0  0  0  0  0  0  0  0  0  0  0
   -5.7076    3.9578    0.0000 C   0  0  0  0  0  0  0  0  0  0  0  0
   -1.0082    1.7456    0.0000 C   0  0  0  0  0  0  0  0  0  0  0  0
   -5.8493    5.2786    0.0000 O   0  0  0  0  0  0  0  0  0  0  0  0
   -6.5035    4.1245    0.0000 O   0  0  0  0  0  0  0  0  0  0  0  0
   -1.7248    3.7996    0.0000 O   0  0  0  0  0  0  0  0  0  0  0  0
   -6.5909    4.9411    0.0000 C   0  0  0  0  0  0  0  0  0  0  0  0
    0.0667   -0.7916    0.0000 C   0  0  0  0  0  0  0  0  0  0  0  0
   -0.7582   -0.7666    0.0000 C   0  0  0  0  0  0  0  0  0  0  0  0
    1.1416    0.1958    0.0000 O   0  0  0  0  0  0  0  0  0  0  0  0
   -1.7581    0.3333    0.0000 O   0  0  0  0  0  0  0  0  0  0  0  0
   -2.4372    1.7373    0.0000 C   0  0  0  0  0  0  0  0  0  0  0  0
   -3.1579    1.3248    0.0000 C   0  0  0  0  0  0  0  0  0  0  0  0
   -3.8704    0.0875    0.0000 N   0  0  0  0  0  0  0  0  0  0  0  0
    0.4167    1.7331    0.0000 C   0  0  0  0  0  0  0  0  0  0  0  0
   -0.2875    2.9830    0.0000 C   0  0  0  0  0  0  0  0  0  0  0  0
   -3.1579    0.4999    0.0000 C   0  0  0  0  0  0  0  0  0  0  0  0
    0.4250    2.5622    0.0000 C   0  0  0  0  0  0  0  0  0  0  0  0
   -3.8704   -0.7374    0.0000 C   0  0  0  0  0  0  0  0  0  0  0  0
   -4.5828    0.4999    0.0000 C   0  0  0  0  0  0  0  0  0  0  0  0
    2.6581    2.3955    0.0000 Cl  0  0  0  0  0  0  0  0  0  0  0  0
  3  1  2  0  0  0  0
  4  9  1  0  0  0  0
  5  1  1  0  0  0  0
  6  2  1  0  0  0  0
  7  3  1  0  0  0  0
  8  5  1  0  0  0  0
  9 17  1  0  0  0  0
 10  4  1  0  0  0  0
 11  4  1  0  0  0  0
 12  6  1  0  0  0  0
 13  7  1  0  0  0  0
 14  8  1  0  0  0  0
 15 14  2  0  0  0  0
 16 13  2  0  0  0  0
 17 12  2  0  0  0  0
 18 15  1  0  0  0  0
 19 16  1  0  0  0  0
 20  6  2  0  0  0  0
 21 18  1  0  0  0  0
 22 10  1  0  0  0  0
 23 11  1  0  0  0  0
 24 10  2  0  0  0  0
 25 11  2  0  0  0  0
 26  2  1  0  0  0  0
 27 26  1  0  0  0  0
 28 31  1  0  0  0  0
 29 32  1  0  0  0  0
 30 12  1  0  0  0  0
 31 27  1  0  0  0  0
 32 30  2  0  0  0  0
 33 28  1  0  0  0  0
 34 28  1  0  0  0  0
  8  7  2  0  0  0  0
 15 16  1  0  0  0  0
 19 21  1  0  0  0  0
  9 29  2  0  0  0  0
 23 22  1  0  0  0  0
  2  1  1  0  0  0  0
M  END
>  <IDNUMBER>
F2019-1588

>  <Chemical_Name>
N-[3-(dimethylamino)propyl]-N-{4,6-dioxa-10-thia-12-azatricyclo[7.3.0.0?,?]dodeca-1,3(7),8,11-tetraen-11-yl}-3-(2,5-dioxopyrrolidin-1-yl)benzamide hydrochloride

>  <PriceCoeff>
1.00

>  <CAS>
1052537-38-8

>  <MW>
480.54

>  <Description>
solid

>  <FSP3>
0.33

>  <clogP>
1.94

>  <TPSA>
120.52

>  <Acceptor>
6

>  <Donor>
1

>  <RotBonds>
8

>  <HAC>
34

>  <Collection>
General

>  <PPDS>
+

$$$$
F2019-2765
  Mrv2219 10102508112D          

 29 30  0  0  0  0            999 V2000
   -3.1583    2.9833    0.0000 C   0  0  0  0  0  0  0  0  0  0  0  0
   -3.9125    2.6458    0.0000 N   0  0  0  0  0  0  0  0  0  0  0  0
   -0.2958    2.9833    0.0000 N   0  0  0  0  0  0  0  0  0  0  0  0
   -2.4375    2.5625    0.0000 N   0  0  0  0  0  0  0  0  0  0  0  0
   -4.4708    3.2583    0.0000 C   0  0  0  0  0  0  0  0  0  0  0  0
   -3.2458    3.8083    0.0000 S   0  0  0  0  0  0  0  0  0  0  0  0
   -4.0583    3.9708    0.0000 C   0  0  0  0  0  0  0  0  0  0  0  0
   -1.7250    2.9833    0.0000 C   0  0  0  0  0  0  0  0  0  0  0  0
   -1.0125    2.5625    0.0000 C   0  0  0  0  0  0  0  0  0  0  0  0
   -0.2125    3.8000    0.0000 C   0  0  0  0  0  0  0  0  0  0  0  0
    0.4542    2.6458    0.0000 C   0  0  0  0  0  0  0  0  0  0  0  0
   -5.2833    3.2458    0.0000 C   0  0  0  0  0  0  0  0  0  0  0  0
   -4.4708    4.6667    0.0000 C   0  0  0  0  0  0  0  0  0  0  0  0
   -5.6958    3.9583    0.0000 C   0  0  0  0  0  0  0  0  0  0  0  0
   -5.2958    4.6667    0.0000 C   0  0  0  0  0  0  0  0  0  0  0  0
   -1.7250    3.8000    0.0000 O   0  0  0  0  0  0  0  0  0  0  0  0
    0.5917    3.9708    0.0000 C   0  0  0  0  0  0  0  0  0  0  0  0
    1.0125    3.2583    0.0000 C   0  0  0  0  0  0  0  0  0  0  0  0
   -0.8125    4.3417    0.0000 O   0  0  0  0  0  0  0  0  0  0  0  0
    0.6292    1.8333    0.0000 O   0  0  0  0  0  0  0  0  0  0  0  0
   -5.6958    2.5333    0.0000 F   0  0  0  0  0  0  0  0  0  0  0  0
   -2.4375    1.7375    0.0000 C   0  0  0  0  0  0  0  0  0  0  0  0
   -3.1583    1.3250    0.0000 C   0  0  0  0  0  0  0  0  0  0  0  0
   -3.8708    0.0875    0.0000 N   0  0  0  0  0  0  0  0  0  0  0  0
   -5.7208    5.3917    0.0000 F   0  0  0  0  0  0  0  0  0  0  0  0
   -3.1583    0.5000    0.0000 C   0  0  0  0  0  0  0  0  0  0  0  0
   -3.8708   -0.7375    0.0000 C   0  0  0  0  0  0  0  0  0  0  0  0
   -4.5833    0.5000    0.0000 C   0  0  0  0  0  0  0  0  0  0  0  0
    2.4000    2.4792    0.0000 Cl  0  0  0  0  0  0  0  0  0  0  0  0
  3  9  1  0  0  0  0
  4  1  1  0  0  0  0
  5  2  1  0  0  0  0
  6  1  1  0  0  0  0
  7  6  1  0  0  0  0
  8  4  1  0  0  0  0
  9  8  1  0  0  0  0
 10  3  1  0  0  0  0
 11  3  1  0  0  0  0
 12  5  1  0  0  0  0
 13  7  1  0  0  0  0
 14 12  2  0  0  0  0
 15 13  2  0  0  0  0
 16  8  2  0  0  0  0
 17 10  1  0  0  0  0
 18 11  1  0  0  0  0
 19 10  2  0  0  0  0
 20 11  2  0  0  0  0
 21 12  1  0  0  0  0
 22  4  1  0  0  0  0
 23 22  1  0  0  0  0
 24 26  1  0  0  0  0
 25 15  1  0  0  0  0
 26 23  1  0  0  0  0
 27 24  1  0  0  0  0
 28 24  1  0  0  0  0
  7  5  2  0  0  0  0
 14 15  1  0  0  0  0
 17 18  1  0  0  0  0
  2  1  2  0  0  0  0
M  END
>  <IDNUMBER>
F2019-2765

>  <Chemical_Name>
N-(4,6-difluoro-1,3-benzothiazol-2-yl)-N-[3-(dimethylamino)propyl]-2-(2,5-dioxopyrrolidin-1-yl)acetamide hydrochloride

>  <PriceCoeff>
1.00

>  <CAS>
1215613-88-9

>  <MW>
410.44

>  <Description>
solid

>  <FSP3>
0.44

>  <clogP>
1.87

>  <TPSA>
102.06

>  <Acceptor>
4

>  <Donor>
1

>  <RotBonds>
8

>  <HAC>
28

>  <Collection>
General

>  <PPDS>
+

$$$$
F2040-0025
  Mrv2219 10102508112D          

 26 28  0  0  0  0            999 V2000
   -3.0221    7.4869    0.0000 N   0  0  0  0  0  0  0  0  0  0  0  0
   -3.7517    0.4850    0.0000 N   0  3  0  0  0  0  0  0  0  0  0  0
   -3.7517    2.9682    0.0000 C   0  0  0  0  0  0  0  0  0  0  0  0
   -3.7393    3.7808    0.0000 C   0  0  0  0  0  0  0  0  0  0  0  0
   -3.0304    6.6578    0.0000 C   0  0  0  0  0  0  0  0  0  0  0  0
   -3.0221    2.5453    0.0000 C   0  0  0  0  0  0  0  0  0  0  0  0
   -3.7434    1.3059    0.0000 C   0  0  0  0  0  0  0  0  0  0  0  0
   -3.7393    7.9015    0.0000 C   0  0  0  0  0  0  0  0  0  0  0  0
   -3.0221    1.7163    0.0000 C   0  0  0  0  0  0  0  0  0  0  0  0
   -3.0304    4.1912    0.0000 N   0  0  0  0  0  0  0  0  0  0  0  0
   -2.3132    6.2432    0.0000 C   0  0  0  0  0  0  0  0  0  0  0  0
   -4.4606    2.5495    0.0000 C   0  0  0  0  0  0  0  0  0  0  0  0
   -3.7434    6.2474    0.0000 C   0  0  0  0  0  0  0  0  0  0  0  0
   -4.4606    0.0829    0.0000 O   0  5  0  0  0  0  0  0  0  0  0  0
   -3.0428    0.0746    0.0000 O   0  0  0  0  0  0  0  0  0  0  0  0
   -3.0304    5.0037    0.0000 C   0  0  0  0  0  0  0  0  0  0  0  0
   -2.3132    5.4224    0.0000 C   0  0  0  0  0  0  0  0  0  0  0  0
   -4.4523    4.1829    0.0000 O   0  0  0  0  0  0  0  0  0  0  0  0
   -4.4606    1.7245    0.0000 C   0  0  0  0  0  0  0  0  0  0  0  0
   -4.4606    7.4911    0.0000 O   0  0  0  0  0  0  0  0  0  0  0  0
   -2.3090    2.9475    0.0000 Cl  0  0  0  0  0  0  0  0  0  0  0  0
   -3.7393    5.4266    0.0000 C   0  0  0  0  0  0  0  0  0  0  0  0
   -2.3008    7.8890    0.0000 C   0  0  0  0  0  0  0  0  0  0  0  0
   -1.6002    6.6536    0.0000 C   0  0  0  0  0  0  0  0  0  0  0  0
   -3.7268    8.7306    0.0000 C   0  0  0  0  0  0  0  0  0  0  0  0
   -1.5919    7.4744    0.0000 C   0  0  0  0  0  0  0  0  0  0  0  0
  2  7  1  0  0  0  0
  3  4  1  0  0  0  0
  4 10  1  0  0  0  0
  5  1  1  0  0  0  0
  6  3  1  0  0  0  0
  7 19  2  0  0  0  0
  8  1  1  0  0  0  0
  9  6  2  0  0  0  0
 10 16  1  0  0  0  0
 11  5  2  0  0  0  0
 12  3  2  0  0  0  0
 13  5  1  0  0  0  0
 14  2  1  0  0  0  0
 15  2  2  0  0  0  0
 16 22  1  0  0  0  0
 17 11  1  0  0  0  0
 18  4  2  0  0  0  0
 19 12  1  0  0  0  0
 20  8  2  0  0  0  0
 21  6  1  0  0  0  0
 22 13  2  0  0  0  0
 23  1  1  0  0  0  0
 24 26  1  0  0  0  0
 25  8  1  0  0  0  0
 26 23  1  0  0  0  0
 11 24  1  0  0  0  0
 16 17  2  0  0  0  0
  7  9  1  0  0  0  0
M  CHG  2   2   1  14  -1
M  END
>  <IDNUMBER>
F2040-0025

>  <Chemical_Name>
N-(1-acetyl-1,2,3,4-tetrahydroquinolin-6-yl)-2-chloro-4-nitrobenzamide

>  <PriceCoeff>
1.00

>  <CAS>
941900-02-3

>  <MW>
373.79

>  <Description>
solid

>  <FSP3>
0.22

>  <clogP>
2.41

>  <TPSA>
92.55

>  <Acceptor>
4

>  <Donor>
1

>  <RotBonds>
4

>  <HAC>
26

>  <Collection>
General

>  <PPDS>
+

$$$$
F2040-0081
  Mrv2219 10102508112D          

 28 31  0  0  0  0            999 V2000
   -3.0206    7.4830    0.0000 N   0  0  0  0  0  0  0  0  0  0  0  0
   -3.7373    7.8974    0.0000 C   0  0  0  0  0  0  0  0  0  0  0  0
   -3.7498    0.4848    0.0000 N   0  3  0  0  0  0  0  0  0  0  0  0
   -3.7498    2.9667    0.0000 C   0  0  0  0  0  0  0  0  0  0  0  0
   -3.7373    3.7788    0.0000 C   0  0  0  0  0  0  0  0  0  0  0  0
   -3.0288    6.6544    0.0000 C   0  0  0  0  0  0  0  0  0  0  0  0
   -3.7291    8.7178    0.0000 C   0  0  0  0  0  0  0  0  0  0  0  0
   -3.0206    2.5440    0.0000 C   0  0  0  0  0  0  0  0  0  0  0  0
   -3.7415    1.3052    0.0000 C   0  0  0  0  0  0  0  0  0  0  0  0
   -3.0206    1.7154    0.0000 C   0  0  0  0  0  0  0  0  0  0  0  0
   -3.0288    4.1890    0.0000 N   0  0  0  0  0  0  0  0  0  0  0  0
   -2.3120    6.2400    0.0000 C   0  0  0  0  0  0  0  0  0  0  0  0
   -4.1475    9.4388    0.0000 C   0  0  0  0  0  0  0  0  0  0  0  0
   -3.3147    9.4346    0.0000 C   0  0  0  0  0  0  0  0  0  0  0  0
   -4.4583    2.5482    0.0000 C   0  0  0  0  0  0  0  0  0  0  0  0
   -3.7415    6.2442    0.0000 C   0  0  0  0  0  0  0  0  0  0  0  0
   -4.4583    0.0828    0.0000 O   0  5  0  0  0  0  0  0  0  0  0  0
   -3.0412    0.0746    0.0000 O   0  0  0  0  0  0  0  0  0  0  0  0
   -4.4583    7.4872    0.0000 O   0  0  0  0  0  0  0  0  0  0  0  0
   -3.0288    5.0012    0.0000 C   0  0  0  0  0  0  0  0  0  0  0  0
   -2.3120    5.4196    0.0000 C   0  0  0  0  0  0  0  0  0  0  0  0
   -4.4500    4.1808    0.0000 O   0  0  0  0  0  0  0  0  0  0  0  0
   -4.4583    1.7236    0.0000 C   0  0  0  0  0  0  0  0  0  0  0  0
   -2.3079    7.8850    0.0000 C   0  0  0  0  0  0  0  0  0  0  0  0
   -2.3079    2.9460    0.0000 Cl  0  0  0  0  0  0  0  0  0  0  0  0
   -3.7373    5.4238    0.0000 C   0  0  0  0  0  0  0  0  0  0  0  0
   -1.5993    6.6502    0.0000 C   0  0  0  0  0  0  0  0  0  0  0  0
   -1.5911    7.4623    0.0000 C   0  0  0  0  0  0  0  0  0  0  0  0
  2  1  1  0  0  0  0
  3  9  1  0  0  0  0
  4  5  1  0  0  0  0
  5 11  1  0  0  0  0
  6  1  1  0  0  0  0
  7  2  1  0  0  0  0
  8  4  1  0  0  0  0
  9 23  2  0  0  0  0
 10  8  2  0  0  0  0
 11 20  1  0  0  0  0
 12  6  2  0  0  0  0
 13  7  1  0  0  0  0
 14  7  1  0  0  0  0
 15  4  2  0  0  0  0
 16  6  1  0  0  0  0
 17  3  1  0  0  0  0
 18  3  2  0  0  0  0
 19  2  2  0  0  0  0
 20 26  1  0  0  0  0
 21 12  1  0  0  0  0
 22  5  2  0  0  0  0
 23 15  1  0  0  0  0
 24  1  1  0  0  0  0
 25  8  1  0  0  0  0
 26 16  2  0  0  0  0
 27 28  1  0  0  0  0
 28 24  1  0  0  0  0
 12 27  1  0  0  0  0
 20 21  2  0  0  0  0
 13 14  1  0  0  0  0
  9 10  1  0  0  0  0
M  CHG  2   3   1  17  -1
M  END
>  <IDNUMBER>
F2040-0081

>  <Chemical_Name>
2-chloro-N-(1-cyclopropanecarbonyl-1,2,3,4-tetrahydroquinolin-6-yl)-4-nitrobenzamide

>  <PriceCoeff>
1.00

>  <CAS>
897620-37-0

>  <MW>
399.83

>  <Description>
solid

>  <FSP3>
0.30

>  <clogP>
2.99

>  <TPSA>
92.55

>  <Acceptor>
4

>  <Donor>
1

>  <RotBonds>
5

>  <HAC>
28

>  <Collection>
General

>  <PPDS>
+

$$$$
F2040-0165
  Mrv2219 10102508112D          

 30 33  0  0  0  0            999 V2000
   -3.0266    7.4876    0.0000 N   0  0  0  0  0  0  0  0  0  0  0  0
   -3.7376    7.9075    0.0000 C   0  0  0  0  0  0  0  0  0  0  0  0
   -3.7625    0.4865    0.0000 N   0  3  0  0  0  0  0  0  0  0  0  0
   -3.7625    2.9767    0.0000 C   0  0  0  0  0  0  0  0  0  0  0  0
   -3.7500    3.7917    0.0000 C   0  0  0  0  0  0  0  0  0  0  0  0
   -3.0266    6.6645    0.0000 C   0  0  0  0  0  0  0  0  0  0  0  0
   -3.0308    2.5526    0.0000 C   0  0  0  0  0  0  0  0  0  0  0  0
   -3.7251    8.7349    0.0000 C   0  0  0  0  0  0  0  0  0  0  0  0
   -3.7542    1.3096    0.0000 C   0  0  0  0  0  0  0  0  0  0  0  0
   -3.0308    1.7212    0.0000 C   0  0  0  0  0  0  0  0  0  0  0  0
   -3.0391    4.2032    0.0000 N   0  0  0  0  0  0  0  0  0  0  0  0
   -2.3157    6.2529    0.0000 C   0  0  0  0  0  0  0  0  0  0  0  0
   -4.4734    2.5568    0.0000 C   0  0  0  0  0  0  0  0  0  0  0  0
   -3.7418    6.2612    0.0000 C   0  0  0  0  0  0  0  0  0  0  0  0
   -4.4734    0.0831    0.0000 O   0  5  0  0  0  0  0  0  0  0  0  0
   -4.3986    9.2296    0.0000 O   0  0  0  0  0  0  0  0  0  0  0  0
   -3.0515    0.0748    0.0000 O   0  0  0  0  0  0  0  0  0  0  0  0
   -4.4609    7.5084    0.0000 O   0  0  0  0  0  0  0  0  0  0  0  0
   -3.0391    5.0181    0.0000 C   0  0  0  0  0  0  0  0  0  0  0  0
   -2.3199    5.4297    0.0000 C   0  0  0  0  0  0  0  0  0  0  0  0
   -4.4651    4.1949    0.0000 O   0  0  0  0  0  0  0  0  0  0  0  0
   -3.0557    9.2171    0.0000 C   0  0  0  0  0  0  0  0  0  0  0  0
   -4.4734    1.7295    0.0000 C   0  0  0  0  0  0  0  0  0  0  0  0
   -4.1241   10.0071    0.0000 C   0  0  0  0  0  0  0  0  0  0  0  0
   -3.3010   10.0071    0.0000 C   0  0  0  0  0  0  0  0  0  0  0  0
   -2.3033    7.8868    0.0000 C   0  0  0  0  0  0  0  0  0  0  0  0
   -2.3157    2.9560    0.0000 Cl  0  0  0  0  0  0  0  0  0  0  0  0
   -3.7500    5.4422    0.0000 C   0  0  0  0  0  0  0  0  0  0  0  0
   -1.6048    6.6520    0.0000 C   0  0  0  0  0  0  0  0  0  0  0  0
   -1.5965    7.4751    0.0000 C   0  0  0  0  0  0  0  0  0  0  0  0
  2  1  1  0  0  0  0
  3  9  1  0  0  0  0
  4  5  1  0  0  0  0
  5 11  1  0  0  0  0
  6  1  1  0  0  0  0
  7  4  1  0  0  0  0
  8  2  1  0  0  0  0
  9 23  2  0  0  0  0
 10  7  2  0  0  0  0
 11 19  1  0  0  0  0
 12  6  2  0  0  0  0
 13  4  2  0  0  0  0
 14  6  1  0  0  0  0
 15  3  1  0  0  0  0
 16  8  1  0  0  0  0
 17  3  2  0  0  0  0
 18  2  2  0  0  0  0
 19 28  1  0  0  0  0
 20 12  1  0  0  0  0
 21  5  2  0  0  0  0
 22  8  2  0  0  0  0
 23 13  1  0  0  0  0
 24 16  1  0  0  0  0
 25 22  1  0  0  0  0
 26  1  1  0  0  0  0
 27  7  1  0  0  0  0
 28 14  2  0  0  0  0
 29 30  1  0  0  0  0
 30 26  1  0  0  0  0
 29 12  1  0  0  0  0
 19 20  2  0  0  0  0
 25 24  2  0  0  0  0
  9 10  1  0  0  0  0
M  CHG  2   3   1  15  -1
M  END
>  <IDNUMBER>
F2040-0165

>  <Chemical_Name>
2-chloro-N-[1-(furan-2-carbonyl)-1,2,3,4-tetrahydroquinolin-6-yl]-4-nitrobenzamide

>  <PriceCoeff>
1.00

>  <CAS>
941986-43-2

>  <MW>
425.82

>  <Description>
solid

>  <FSP3>
0.14

>  <clogP>
2.85

>  <TPSA>
105.69

>  <Acceptor>
5

>  <Donor>
1

>  <RotBonds>
5

>  <HAC>
30

>  <Collection>
General

>  <PPDS>
+

$$$$
F2040-0259
  Mrv2219 10102508112D          

 30 33  0  0  0  0            999 V2000
   -3.0266    7.4876    0.0000 N   0  0  0  0  0  0  0  0  0  0  0  0
   -3.7376    7.9075    0.0000 C   0  0  0  0  0  0  0  0  0  0  0  0
   -3.7625    0.4865    0.0000 N   0  3  0  0  0  0  0  0  0  0  0  0
   -3.7625    2.9767    0.0000 C   0  0  0  0  0  0  0  0  0  0  0  0
   -3.7500    3.7917    0.0000 C   0  0  0  0  0  0  0  0  0  0  0  0
   -3.0266    6.6645    0.0000 C   0  0  0  0  0  0  0  0  0  0  0  0
   -3.7251    8.7349    0.0000 C   0  0  0  0  0  0  0  0  0  0  0  0
   -3.0308    2.5526    0.0000 C   0  0  0  0  0  0  0  0  0  0  0  0
   -3.7542    1.3096    0.0000 C   0  0  0  0  0  0  0  0  0  0  0  0
   -3.0308    1.7212    0.0000 C   0  0  0  0  0  0  0  0  0  0  0  0
   -3.0391    4.2032    0.0000 N   0  0  0  0  0  0  0  0  0  0  0  0
   -2.3157    6.2529    0.0000 C   0  0  0  0  0  0  0  0  0  0  0  0
   -4.4734    2.5568    0.0000 C   0  0  0  0  0  0  0  0  0  0  0  0
   -4.3986    9.2296    0.0000 S   0  0  0  0  0  0  0  0  0  0  0  0
   -3.7418    6.2612    0.0000 C   0  0  0  0  0  0  0  0  0  0  0  0
   -4.4734    0.0831    0.0000 O   0  5  0  0  0  0  0  0  0  0  0  0
   -3.0515    0.0748    0.0000 O   0  0  0  0  0  0  0  0  0  0  0  0
   -4.4609    7.5084    0.0000 O   0  0  0  0  0  0  0  0  0  0  0  0
   -3.0391    5.0181    0.0000 C   0  0  0  0  0  0  0  0  0  0  0  0
   -2.3199    5.4297    0.0000 C   0  0  0  0  0  0  0  0  0  0  0  0
   -4.4651    4.1949    0.0000 O   0  0  0  0  0  0  0  0  0  0  0  0
   -3.0557    9.2171    0.0000 C   0  0  0  0  0  0  0  0  0  0  0  0
   -4.4734    1.7295    0.0000 C   0  0  0  0  0  0  0  0  0  0  0  0
   -4.1241   10.0071    0.0000 C   0  0  0  0  0  0  0  0  0  0  0  0
   -3.3010   10.0071    0.0000 C   0  0  0  0  0  0  0  0  0  0  0  0
   -2.3033    7.8868    0.0000 C   0  0  0  0  0  0  0  0  0  0  0  0
   -2.3157    2.9560    0.0000 Cl  0  0  0  0  0  0  0  0  0  0  0  0
   -3.7500    5.4422    0.0000 C   0  0  0  0  0  0  0  0  0  0  0  0
   -1.6048    6.6520    0.0000 C   0  0  0  0  0  0  0  0  0  0  0  0
   -1.5965    7.4751    0.0000 C   0  0  0  0  0  0  0  0  0  0  0  0
  2  1  1  0  0  0  0
  3  9  1  0  0  0  0
  4  5  1  0  0  0  0
  5 11  1  0  0  0  0
  6  1  1  0  0  0  0
  7  2  1  0  0  0  0
  8  4  1  0  0  0  0
  9 23  2  0  0  0  0
 10  8  2  0  0  0  0
 11 19  1  0  0  0  0
 12  6  2  0  0  0  0
 13  4  2  0  0  0  0
 14  7  1  0  0  0  0
 15  6  1  0  0  0  0
 16  3  1  0  0  0  0
 17  3  2  0  0  0  0
 18  2  2  0  0  0  0
 19 28  1  0  0  0  0
 20 12  1  0  0  0  0
 21  5  2  0  0  0  0
 22  7  2  0  0  0  0
 23 13  1  0  0  0  0
 24 14  1  0  0  0  0
 25 22  1  0  0  0  0
 26  1  1  0  0  0  0
 27  8  1  0  0  0  0
 28 15  2  0  0  0  0
 29 30  1  0  0  0  0
 30 26  1  0  0  0  0
 29 12  1  0  0  0  0
 19 20  2  0  0  0  0
 25 24  2  0  0  0  0
  9 10  1  0  0  0  0
M  CHG  2   3   1  16  -1
M  END
>  <IDNUMBER>
F2040-0259

>  <Chemical_Name>
2-chloro-4-nitro-N-[1-(thiophene-2-carbonyl)-1,2,3,4-tetrahydroquinolin-6-yl]benzamide

>  <PriceCoeff>
1.00

>  <CAS>
897620-39-2

>  <MW>
441.89

>  <Description>
solid

>  <FSP3>
0.14

>  <clogP>
3.45

>  <TPSA>
120.79

>  <Acceptor>
4

>  <Donor>
1

>  <RotBonds>
5

>  <HAC>
30

>  <Collection>
General

>  <PPDS>
+

$$$$
F2040-0353
  Mrv2219 10102508112D          

 28 31  0  0  0  0            999 V2000
   -3.0333    7.5125    0.0000 N   0  0  0  0  0  0  0  0  0  0  0  0
   -3.7458    7.9292    0.0000 C   0  0  0  0  0  0  0  0  0  0  0  0
   -3.0333    6.6875    0.0000 C   0  0  0  0  0  0  0  0  0  0  0  0
   -3.7500    3.8000    0.0000 C   0  0  0  0  0  0  0  0  0  0  0  0
   -2.3208    6.2667    0.0000 C   0  0  0  0  0  0  0  0  0  0  0  0
   -3.0375    4.2125    0.0000 N   0  0  0  0  0  0  0  0  0  0  0  0
   -3.7458    6.2792    0.0000 C   0  0  0  0  0  0  0  0  0  0  0  0
   -3.7583    2.9833    0.0000 C   0  0  0  0  0  0  0  0  0  0  0  0
   -4.4583    7.5167    0.0000 O   0  0  0  0  0  0  0  0  0  0  0  0
   -3.0375    5.0292    0.0000 C   0  0  0  0  0  0  0  0  0  0  0  0
   -2.3208    5.4417    0.0000 C   0  0  0  0  0  0  0  0  0  0  0  0
   -3.7375    8.7500    0.0000 C   0  0  0  0  0  0  0  0  0  0  0  0
   -4.4708    4.2042    0.0000 O   0  0  0  0  0  0  0  0  0  0  0  0
   -3.0458    2.5583    0.0000 C   0  0  0  0  0  0  0  0  0  0  0  0
   -4.4708    2.5708    0.0000 C   0  0  0  0  0  0  0  0  0  0  0  0
   -2.3125    7.9167    0.0000 C   0  0  0  0  0  0  0  0  0  0  0  0
   -3.7583    5.4542    0.0000 C   0  0  0  0  0  0  0  0  0  0  0  0
   -3.7625    1.3208    0.0000 C   0  0  0  0  0  0  0  0  0  0  0  0
   -3.0458    1.7333    0.0000 C   0  0  0  0  0  0  0  0  0  0  0  0
   -4.4750    1.7375    0.0000 C   0  0  0  0  0  0  0  0  0  0  0  0
   -3.7708    0.4958    0.0000 Cl  0  0  0  0  0  0  0  0  0  0  0  0
   -1.6083    6.6792    0.0000 C   0  0  0  0  0  0  0  0  0  0  0  0
   -1.6000    7.5042    0.0000 C   0  0  0  0  0  0  0  0  0  0  0  0
   -4.4583    9.1542    0.0000 C   0  0  0  0  0  0  0  0  0  0  0  0
   -3.0208    9.1542    0.0000 C   0  0  0  0  0  0  0  0  0  0  0  0
   -3.0208    9.9792    0.0000 C   0  0  0  0  0  0  0  0  0  0  0  0
   -4.4583    9.9792    0.0000 C   0  0  0  0  0  0  0  0  0  0  0  0
   -3.7333   10.3917    0.0000 C   0  0  0  0  0  0  0  0  0  0  0  0
  2  1  1  0  0  0  0
  3  1  1  0  0  0  0
  4  6  1  0  0  0  0
  5  3  2  0  0  0  0
  6 10  1  0  0  0  0
  7  3  1  0  0  0  0
  8  4  1  0  0  0  0
  9  2  2  0  0  0  0
 10 17  1  0  0  0  0
 11  5  1  0  0  0  0
 12  2  1  0  0  0  0
 13  4  2  0  0  0  0
 14  8  1  0  0  0  0
 15  8  2  0  0  0  0
 16  1  1  0  0  0  0
 17  7  2  0  0  0  0
 18 20  2  0  0  0  0
 19 14  2  0  0  0  0
 20 15  1  0  0  0  0
 21 18  1  0  0  0  0
 22 23  1  0  0  0  0
 23 16  1  0  0  0  0
 24 12  1  0  0  0  0
 25 12  2  0  0  0  0
 26 25  1  0  0  0  0
 27 24  2  0  0  0  0
 28 26  2  0  0  0  0
 22  5  1  0  0  0  0
 11 10  2  0  0  0  0
 28 27  1  0  0  0  0
 18 19  1  0  0  0  0
M  END
>  <IDNUMBER>
F2040-0353

>  <Chemical_Name>
N-(1-benzoyl-1,2,3,4-tetrahydroquinolin-6-yl)-4-chlorobenzamide

>  <PriceCoeff>
1.00

>  <CAS>
946318-26-9

>  <MW>
390.86

>  <Description>
solid

>  <FSP3>
0.13

>  <clogP>
4.46

>  <TPSA>
49.41

>  <Acceptor>
2

>  <Donor>
1

>  <RotBonds>
4

>  <HAC>
28

>  <Collection>
General

>  <PPDS>
+

$$$$
F2040-0434
  Mrv2219 10102508112D          

 24 26  0  0  0  0            999 V2000
   -3.0333    7.5042    0.0000 N   0  0  0  0  0  0  0  0  0  0  0  0
   -3.0333    6.6792    0.0000 C   0  0  0  0  0  0  0  0  0  0  0  0
   -3.7500    3.8000    0.0000 C   0  0  0  0  0  0  0  0  0  0  0  0
   -3.7458    7.9250    0.0000 C   0  0  0  0  0  0  0  0  0  0  0  0
   -2.3208    6.2667    0.0000 C   0  0  0  0  0  0  0  0  0  0  0  0
   -3.0375    4.2125    0.0000 N   0  0  0  0  0  0  0  0  0  0  0  0
   -3.7458    6.2792    0.0000 C   0  0  0  0  0  0  0  0  0  0  0  0
   -3.7583    2.9833    0.0000 C   0  0  0  0  0  0  0  0  0  0  0  0
   -3.0375    5.0292    0.0000 C   0  0  0  0  0  0  0  0  0  0  0  0
   -2.3208    5.4417    0.0000 C   0  0  0  0  0  0  0  0  0  0  0  0
   -4.4708    4.2042    0.0000 O   0  0  0  0  0  0  0  0  0  0  0  0
   -4.4708    7.5167    0.0000 O   0  0  0  0  0  0  0  0  0  0  0  0
   -3.0458    2.5583    0.0000 C   0  0  0  0  0  0  0  0  0  0  0  0
   -4.4708    2.5708    0.0000 C   0  0  0  0  0  0  0  0  0  0  0  0
   -3.7583    5.4542    0.0000 C   0  0  0  0  0  0  0  0  0  0  0  0
   -2.3125    7.9167    0.0000 C   0  0  0  0  0  0  0  0  0  0  0  0
   -3.7625    1.3208    0.0000 C   0  0  0  0  0  0  0  0  0  0  0  0
   -3.0458    1.7333    0.0000 C   0  0  0  0  0  0  0  0  0  0  0  0
   -4.4750    1.7375    0.0000 C   0  0  0  0  0  0  0  0  0  0  0  0
   -3.7708    0.4958    0.0000 Cl  0  0  0  0  0  0  0  0  0  0  0  0
   -1.6083    6.6750    0.0000 C   0  0  0  0  0  0  0  0  0  0  0  0
   -3.7458    8.7500    0.0000 C   0  0  0  0  0  0  0  0  0  0  0  0
   -1.6000    7.5000    0.0000 C   0  0  0  0  0  0  0  0  0  0  0  0
   -3.0333    9.1625    0.0000 C   0  0  0  0  0  0  0  0  0  0  0  0
  2  1  1  0  0  0  0
  3  6  1  0  0  0  0
  4  1  1  0  0  0  0
  5  2  2  0  0  0  0
  6  9  1  0  0  0  0
  7  2  1  0  0  0  0
  8  3  1  0  0  0  0
  9 15  1  0  0  0  0
 10  5  1  0  0  0  0
 11  3  2  0  0  0  0
 12  4  2  0  0  0  0
 13  8  1  0  0  0  0
 14  8  2  0  0  0  0
 15  7  2  0  0  0  0
 16  1  1  0  0  0  0
 17 19  2  0  0  0  0
 18 13  2  0  0  0  0
 19 14  1  0  0  0  0
 20 17  1  0  0  0  0
 21 23  1  0  0  0  0
 22  4  1  0  0  0  0
 23 16  1  0  0  0  0
 24 22  1  0  0  0  0
 21  5  1  0  0  0  0
  9 10  2  0  0  0  0
 17 18  1  0  0  0  0
M  END
>  <IDNUMBER>
F2040-0434

>  <Chemical_Name>
4-chloro-N-(1-propanoyl-1,2,3,4-tetrahydroquinolin-6-yl)benzamide

>  <PriceCoeff>
1.00

>  <MW>
342.82

>  <Description>
solid

>  <FSP3>
0.26

>  <clogP>
3.72

>  <TPSA>
49.41

>  <Acceptor>
2

>  <Donor>
1

>  <RotBonds>
4

>  <HAC>
24

>  <Collection>
General

$$$$
F2040-0492
  Mrv2219 10102508112D          

 24 26  0  0  0  0            999 V2000
   -3.0333    7.5042    0.0000 N   0  0  0  0  0  0  0  0  0  0  0  0
   -3.0333    6.6792    0.0000 C   0  0  0  0  0  0  0  0  0  0  0  0
   -3.7500    3.8000    0.0000 C   0  0  0  0  0  0  0  0  0  0  0  0
   -3.7458    7.9250    0.0000 C   0  0  0  0  0  0  0  0  0  0  0  0
   -2.3208    6.2667    0.0000 C   0  0  0  0  0  0  0  0  0  0  0  0
   -3.0375    4.2125    0.0000 N   0  0  0  0  0  0  0  0  0  0  0  0
   -3.7583    2.9833    0.0000 C   0  0  0  0  0  0  0  0  0  0  0  0
   -3.7458    6.2792    0.0000 C   0  0  0  0  0  0  0  0  0  0  0  0
   -3.0375    5.0292    0.0000 C   0  0  0  0  0  0  0  0  0  0  0  0
   -2.3208    5.4417    0.0000 C   0  0  0  0  0  0  0  0  0  0  0  0
   -4.4708    4.2042    0.0000 O   0  0  0  0  0  0  0  0  0  0  0  0
   -4.4708    7.5167    0.0000 O   0  0  0  0  0  0  0  0  0  0  0  0
   -4.4750    2.5625    0.0000 C   0  0  0  0  0  0  0  0  0  0  0  0
   -3.7583    5.4542    0.0000 C   0  0  0  0  0  0  0  0  0  0  0  0
   -2.3125    7.9167    0.0000 C   0  0  0  0  0  0  0  0  0  0  0  0
   -4.4833    1.7375    0.0000 C   0  0  0  0  0  0  0  0  0  0  0  0
   -5.1958    1.3333    0.0000 Cl  0  0  0  0  0  0  0  0  0  0  0  0
   -1.6083    6.6750    0.0000 C   0  0  0  0  0  0  0  0  0  0  0  0
   -3.7458    8.7500    0.0000 C   0  0  0  0  0  0  0  0  0  0  0  0
   -3.0458    2.5583    0.0000 C   0  0  0  0  0  0  0  0  0  0  0  0
   -1.6000    7.5000    0.0000 C   0  0  0  0  0  0  0  0  0  0  0  0
   -3.0458    1.7250    0.0000 C   0  0  0  0  0  0  0  0  0  0  0  0
   -3.7625    1.3208    0.0000 C   0  0  0  0  0  0  0  0  0  0  0  0
   -3.0333    9.1625    0.0000 C   0  0  0  0  0  0  0  0  0  0  0  0
  2  1  1  0  0  0  0
  3  6  1  0  0  0  0
  4  1  1  0  0  0  0
  5  2  2  0  0  0  0
  6  9  1  0  0  0  0
  7  3  1  0  0  0  0
  8  2  1  0  0  0  0
  9 14  1  0  0  0  0
 10  5  1  0  0  0  0
 11  3  2  0  0  0  0
 12  4  2  0  0  0  0
 13  7  2  0  0  0  0
 14  8  2  0  0  0  0
 15  1  1  0  0  0  0
 16 13  1  0  0  0  0
 17 16  1  0  0  0  0
 18 21  1  0  0  0  0
 19  4  1  0  0  0  0
 20  7  1  0  0  0  0
 21 15  1  0  0  0  0
 22 20  2  0  0  0  0
 23 22  1  0  0  0  0
 24 19  1  0  0  0  0
 18  5  1  0  0  0  0
  9 10  2  0  0  0  0
 16 23  2  0  0  0  0
M  END
>  <IDNUMBER>
F2040-0492

>  <Chemical_Name>
3-chloro-N-(1-propanoyl-1,2,3,4-tetrahydroquinolin-6-yl)benzamide

>  <PriceCoeff>
1.00

>  <CAS>
954000-18-1

>  <MW>
342.82

>  <Description>
solid

>  <FSP3>
0.26

>  <clogP>
3.72

>  <TPSA>
49.41

>  <Acceptor>
2

>  <Donor>
1

>  <RotBonds>
4

>  <HAC>
24

>  <Collection>
General

>  <PPDS>
+

$$$$
F2047-0088
  Mrv2219 10102508112D          

 31 33  0  0  0  0            999 V2000
   -4.9937    5.4863    0.0000 S   0  0  0  0  0  0  0  0  0  0  0  0
   -4.2757    5.9143    0.0000 C   0  0  0  0  0  0  0  0  0  0  0  0
    0.7594    7.1800    0.0000 N   0  3  0  0  0  0  0  0  0  0  0  0
   -1.3946    5.9281    0.0000 C   0  0  0  0  0  0  0  0  0  0  0  0
   -2.1079    5.5139    0.0000 C   0  0  0  0  0  0  0  0  0  0  0  0
   -4.2804    6.7428    0.0000 C   0  0  0  0  0  0  0  0  0  0  0  0
   -1.3946    6.7566    0.0000 C   0  0  0  0  0  0  0  0  0  0  0  0
    0.0323    6.7566    0.0000 C   0  0  0  0  0  0  0  0  0  0  0  0
   -0.6857    7.1708    0.0000 C   0  0  0  0  0  0  0  0  0  0  0  0
   -3.5486    5.5001    0.0000 C   0  0  0  0  0  0  0  0  0  0  0  0
   -5.7164    5.0721    0.0000 C   0  0  0  0  0  0  0  0  0  0  0  0
   -2.8306    5.9281    0.0000 N   0  0  0  0  0  0  0  0  0  0  0  0
   -0.6857    5.5139    0.0000 C   0  0  0  0  0  0  0  0  0  0  0  0
   -4.8971    7.3089    0.0000 S   0  0  0  0  0  0  0  0  0  0  0  0
   -4.5795    4.7683    0.0000 O   0  0  0  0  0  0  0  0  0  0  0  0
   -5.4218    6.2181    0.0000 O   0  0  0  0  0  0  0  0  0  0  0  0
    1.4774    6.7658    0.0000 O   0  5  0  0  0  0  0  0  0  0  0  0
    0.7594    8.0084    0.0000 O   0  0  0  0  0  0  0  0  0  0  0  0
   -3.5715    7.1662    0.0000 C   0  0  0  0  0  0  0  0  0  0  0  0
    0.0323    5.9281    0.0000 C   0  0  0  0  0  0  0  0  0  0  0  0
   -4.5565    8.0637    0.0000 C   0  0  0  0  0  0  0  0  0  0  0  0
   -2.1079    4.6854    0.0000 O   0  0  0  0  0  0  0  0  0  0  0  0
   -3.7419    7.9717    0.0000 C   0  0  0  0  0  0  0  0  0  0  0  0
   -5.7164    4.2481    0.0000 C   0  0  0  0  0  0  0  0  0  0  0  0
   -6.4297    5.4863    0.0000 C   0  0  0  0  0  0  0  0  0  0  0  0
   -2.1217    7.1846    0.0000 Cl  0  0  0  0  0  0  0  0  0  0  0  0
   -7.1432    4.2481    0.0000 C   0  0  0  0  0  0  0  0  0  0  0  0
   -7.1432    5.0721    0.0000 C   0  0  0  0  0  0  0  0  0  0  0  0
   -6.4297    3.8339    0.0000 C   0  0  0  0  0  0  0  0  0  0  0  0
   -7.8704    3.8247    0.0000 O   0  0  0  0  0  0  0  0  0  0  0  0
   -8.5884    4.2390    0.0000 C   0  0  0  0  0  0  0  0  0  0  0  0
  2  1  1  0  0  0  0
  3  8  1  0  0  0  0
  4  5  1  0  0  0  0
  5 12  1  0  0  0  0
  6  2  1  0  0  0  0
  7  4  1  0  0  0  0
  8 20  2  0  0  0  0
  9  7  2  0  0  0  0
 10  2  1  0  0  0  0
 11  1  1  0  0  0  0
 12 10  1  0  0  0  0
 13  4  2  0  0  0  0
 14  6  1  0  0  0  0
 15  1  2  0  0  0  0
 16  1  2  0  0  0  0
 17  3  1  0  0  0  0
 18  3  2  0  0  0  0
 19  6  2  0  0  0  0
 20 13  1  0  0  0  0
 21 14  1  0  0  0  0
 22  5  2  0  0  0  0
 23 19  1  0  0  0  0
 24 11  1  0  0  0  0
 25 11  2  0  0  0  0
 26  7  1  0  0  0  0
 27 28  2  0  0  0  0
 28 25  1  0  0  0  0
 29 24  2  0  0  0  0
 30 27  1  0  0  0  0
 31 30  1  0  0  0  0
 29 27  1  0  0  0  0
 21 23  2  0  0  0  0
  9  8  1  0  0  0  0
M  CHG  2   3   1  17  -1
M  END
>  <IDNUMBER>
F2047-0088

>  <Chemical_Name>
2-chloro-N-[2-(4-methoxybenzenesulfonyl)-2-(thiophen-2-yl)ethyl]-4-nitrobenzamide

>  <PriceCoeff>
1.00

>  <CAS>
941944-90-7

>  <MW>
480.94

>  <Description>
solid

>  <FSP3>
0.15

>  <clogP>
3.17

>  <TPSA>
152.23

>  <Acceptor>
6

>  <Donor>
1

>  <RotBonds>
8

>  <HAC>
31

>  <Collection>
General

>  <PPDS>
+

$$$$
F2047-0205
  Mrv2219 10102508112D          

 31 33  0  0  0  0            999 V2000
   -4.9839    5.4603    0.0000 S   0  0  0  0  0  0  0  0  0  0  0  0
   -4.2555    5.8726    0.0000 C   0  0  0  0  0  0  0  0  0  0  0  0
    0.7467    7.1369    0.0000 N   0  3  0  0  0  0  0  0  0  0  0  0
   -1.3971    5.8864    0.0000 C   0  0  0  0  0  0  0  0  0  0  0  0
   -5.6985    5.0343    0.0000 C   0  0  0  0  0  0  0  0  0  0  0  0
   -2.0980    5.4741    0.0000 C   0  0  0  0  0  0  0  0  0  0  0  0
   -4.2693    6.7109    0.0000 C   0  0  0  0  0  0  0  0  0  0  0  0
   -1.3971    6.7109    0.0000 C   0  0  0  0  0  0  0  0  0  0  0  0
    0.0321    6.7109    0.0000 C   0  0  0  0  0  0  0  0  0  0  0  0
   -0.6825    7.1323    0.0000 C   0  0  0  0  0  0  0  0  0  0  0  0
   -3.5409    5.4741    0.0000 C   0  0  0  0  0  0  0  0  0  0  0  0
   -2.8263    5.8864    0.0000 N   0  0  0  0  0  0  0  0  0  0  0  0
   -0.6825    5.4741    0.0000 C   0  0  0  0  0  0  0  0  0  0  0  0
   -6.4131    5.4466    0.0000 C   0  0  0  0  0  0  0  0  0  0  0  0
   -4.8785    7.2606    0.0000 S   0  0  0  0  0  0  0  0  0  0  0  0
   -5.3961    6.1749    0.0000 O   0  0  0  0  0  0  0  0  0  0  0  0
   -4.5578    4.7411    0.0000 O   0  0  0  0  0  0  0  0  0  0  0  0
    1.4613    6.7246    0.0000 O   0  5  0  0  0  0  0  0  0  0  0  0
   -7.1094    5.0343    0.0000 C   0  0  0  0  0  0  0  0  0  0  0  0
    0.7467    7.9614    0.0000 O   0  0  0  0  0  0  0  0  0  0  0  0
   -7.1094    4.2143    0.0000 C   0  0  0  0  0  0  0  0  0  0  0  0
   -3.5547    7.1232    0.0000 C   0  0  0  0  0  0  0  0  0  0  0  0
    0.0321    5.8864    0.0000 C   0  0  0  0  0  0  0  0  0  0  0  0
   -5.6985    4.2143    0.0000 C   0  0  0  0  0  0  0  0  0  0  0  0
   -4.5441    8.0164    0.0000 C   0  0  0  0  0  0  0  0  0  0  0  0
   -2.0980    4.6495    0.0000 O   0  0  0  0  0  0  0  0  0  0  0  0
   -3.7333    7.9340    0.0000 C   0  0  0  0  0  0  0  0  0  0  0  0
   -6.4131    3.8020    0.0000 C   0  0  0  0  0  0  0  0  0  0  0  0
   -2.1117    7.1369    0.0000 Cl  0  0  0  0  0  0  0  0  0  0  0  0
   -7.8378    3.8020    0.0000 F   0  0  0  0  0  0  0  0  0  0  0  0
   -7.8378    5.4557    0.0000 C   0  0  0  0  0  0  0  0  0  0  0  0
  2  1  1  0  0  0  0
  3  9  1  0  0  0  0
  4  6  1  0  0  0  0
  5  1  1  0  0  0  0
  6 12  1  0  0  0  0
  7  2  1  0  0  0  0
  8  4  1  0  0  0  0
  9 23  2  0  0  0  0
 10  8  2  0  0  0  0
 11  2  1  0  0  0  0
 12 11  1  0  0  0  0
 13  4  2  0  0  0  0
 14  5  2  0  0  0  0
 15  7  1  0  0  0  0
 16  1  2  0  0  0  0
 17  1  2  0  0  0  0
 18  3  1  0  0  0  0
 19 14  1  0  0  0  0
 20  3  2  0  0  0  0
 21 28  1  0  0  0  0
 22  7  2  0  0  0  0
 23 13  1  0  0  0  0
 24  5  1  0  0  0  0
 25 15  1  0  0  0  0
 26  6  2  0  0  0  0
 27 22  1  0  0  0  0
 28 24  2  0  0  0  0
 29  8  1  0  0  0  0
 30 21  1  0  0  0  0
 31 19  1  0  0  0  0
 19 21  2  0  0  0  0
 27 25  2  0  0  0  0
 10  9  1  0  0  0  0
M  CHG  2   3   1  18  -1
M  END
>  <IDNUMBER>
F2047-0205

>  <Chemical_Name>
2-chloro-N-[2-(4-fluoro-3-methylbenzenesulfonyl)-2-(thiophen-2-yl)ethyl]-4-nitrobenzamide

>  <PriceCoeff>
1.00

>  <CAS>
896379-24-1

>  <MW>
482.93

>  <Description>
solid

>  <FSP3>
0.15

>  <clogP>
3.59

>  <TPSA>
143.00

>  <Acceptor>
5

>  <Donor>
1

>  <RotBonds>
7

>  <HAC>
31

>  <Collection>
General

>  <PPDS>
+

$$$$
F2049-0369
  Mrv2219 10102508112D          

 25 27  0  0  0  0            999 V2000
   -4.4811    6.6967    0.0000 N   0  0  0  0  0  0  0  0  0  0  0  0
   -5.2029    6.2836    0.0000 C   0  0  0  0  0  0  0  0  0  0  0  0
   -3.7635    6.2753    0.0000 C   0  0  0  0  0  0  0  0  0  0  0  0
   -3.7635    3.8052    0.0000 C   0  0  0  0  0  0  0  0  0  0  0  0
   -3.0500    4.2183    0.0000 N   0  0  0  0  0  0  0  0  0  0  0  0
   -3.7635    5.4492    0.0000 C   0  0  0  0  0  0  0  0  0  0  0  0
   -3.7551    2.9666    0.0000 C   0  0  0  0  0  0  0  0  0  0  0  0
   -3.0417    6.6884    0.0000 C   0  0  0  0  0  0  0  0  0  0  0  0
   -3.0500    5.0361    0.0000 C   0  0  0  0  0  0  0  0  0  0  0  0
   -5.2029    5.4575    0.0000 O   0  0  0  0  0  0  0  0  0  0  0  0
   -4.4769    4.2100    0.0000 O   0  0  0  0  0  0  0  0  0  0  0  0
   -5.9164    6.6967    0.0000 C   0  0  0  0  0  0  0  0  0  0  0  0
   -2.3282    6.2836    0.0000 C   0  0  0  0  0  0  0  0  0  0  0  0
   -3.0249    2.5660    0.0000 C   0  0  0  0  0  0  0  0  0  0  0  0
   -4.4644    2.5618    0.0000 C   0  0  0  0  0  0  0  0  0  0  0  0
   -4.4769    7.5270    0.0000 C   0  0  0  0  0  0  0  0  0  0  0  0
   -2.3282    5.4575    0.0000 C   0  0  0  0  0  0  0  0  0  0  0  0
   -3.7551    1.3226    0.0000 C   0  0  0  0  0  0  0  0  0  0  0  0
   -4.4644    1.7399    0.0000 C   0  0  0  0  0  0  0  0  0  0  0  0
   -3.0249    1.7482    0.0000 C   0  0  0  0  0  0  0  0  0  0  0  0
   -3.7509    0.4840    0.0000 Cl  0  0  0  0  0  0  0  0  0  0  0  0
   -3.7509    7.9359    0.0000 C   0  0  0  0  0  0  0  0  0  0  0  0
   -3.0417    7.5145    0.0000 C   0  0  0  0  0  0  0  0  0  0  0  0
   -6.6133    6.2836    0.0000 C   0  0  0  0  0  0  0  0  0  0  0  0
   -5.9164    7.5145    0.0000 C   0  0  0  0  0  0  0  0  0  0  0  0
  2  1  1  0  0  0  0
  3  1  1  0  0  0  0
  4  5  1  0  0  0  0
  5  9  1  0  0  0  0
  6  3  1  0  0  0  0
  7  4  1  0  0  0  0
  8  3  2  0  0  0  0
  9  6  2  0  0  0  0
 10  2  2  0  0  0  0
 11  4  2  0  0  0  0
 12  2  1  0  0  0  0
 13  8  1  0  0  0  0
 14  7  1  0  0  0  0
 15  7  2  0  0  0  0
 16  1  1  0  0  0  0
 17 13  2  0  0  0  0
 18 19  2  0  0  0  0
 19 15  1  0  0  0  0
 20 14  2  0  0  0  0
 21 18  1  0  0  0  0
 22 16  1  0  0  0  0
 23 22  1  0  0  0  0
 24 12  1  0  0  0  0
 25 12  1  0  0  0  0
 23  8  1  0  0  0  0
  9 17  1  0  0  0  0
 18 20  1  0  0  0  0
M  END
>  <IDNUMBER>
F2049-0369

>  <Chemical_Name>
4-chloro-N-[1-(2-methylpropanoyl)-1,2,3,4-tetrahydroquinolin-7-yl]benzamide

>  <PriceCoeff>
1.00

>  <CAS>
1005301-57-4

>  <MW>
356.85

>  <Description>
solid

>  <FSP3>
0.30

>  <clogP>
4.03

>  <TPSA>
49.41

>  <Acceptor>
2

>  <Donor>
1

>  <RotBonds>
4

>  <HAC>
25

>  <Collection>
General

>  <PPDS>
+

$$$$
F2049-0420
  Mrv2219 10102508112D          

 28 31  0  0  0  0            999 V2000
   -4.4833    6.6875    0.0000 N   0  0  0  0  0  0  0  0  0  0  0  0
   -5.2083    6.2667    0.0000 C   0  0  0  0  0  0  0  0  0  0  0  0
   -3.7583    6.2792    0.0000 C   0  0  0  0  0  0  0  0  0  0  0  0
   -3.7500    3.8000    0.0000 C   0  0  0  0  0  0  0  0  0  0  0  0
   -3.0375    4.2125    0.0000 N   0  0  0  0  0  0  0  0  0  0  0  0
   -3.7583    5.4500    0.0000 C   0  0  0  0  0  0  0  0  0  0  0  0
   -3.7583    2.9833    0.0000 C   0  0  0  0  0  0  0  0  0  0  0  0
   -3.0458    6.6917    0.0000 C   0  0  0  0  0  0  0  0  0  0  0  0
   -3.0375    5.0292    0.0000 C   0  0  0  0  0  0  0  0  0  0  0  0
   -5.1958    5.4375    0.0000 O   0  0  0  0  0  0  0  0  0  0  0  0
   -5.9208    6.6792    0.0000 C   0  0  0  0  0  0  0  0  0  0  0  0
   -4.4708    4.2042    0.0000 O   0  0  0  0  0  0  0  0  0  0  0  0
   -2.3250    6.2792    0.0000 C   0  0  0  0  0  0  0  0  0  0  0  0
   -3.0458    2.5583    0.0000 C   0  0  0  0  0  0  0  0  0  0  0  0
   -4.4708    2.5708    0.0000 C   0  0  0  0  0  0  0  0  0  0  0  0
   -4.4833    7.5167    0.0000 C   0  0  0  0  0  0  0  0  0  0  0  0
   -2.3250    5.4542    0.0000 C   0  0  0  0  0  0  0  0  0  0  0  0
   -3.7625    1.3208    0.0000 C   0  0  0  0  0  0  0  0  0  0  0  0
   -3.0458    1.7333    0.0000 C   0  0  0  0  0  0  0  0  0  0  0  0
   -4.4750    1.7375    0.0000 C   0  0  0  0  0  0  0  0  0  0  0  0
   -3.7708    0.4958    0.0000 Cl  0  0  0  0  0  0  0  0  0  0  0  0
   -3.7708    7.9292    0.0000 C   0  0  0  0  0  0  0  0  0  0  0  0
   -3.0500    7.5167    0.0000 C   0  0  0  0  0  0  0  0  0  0  0  0
   -5.9208    7.5042    0.0000 C   0  0  0  0  0  0  0  0  0  0  0  0
   -6.6167    6.2542    0.0000 C   0  0  0  0  0  0  0  0  0  0  0  0
   -7.3417    6.6667    0.0000 C   0  0  0  0  0  0  0  0  0  0  0  0
   -6.6292    7.9167    0.0000 C   0  0  0  0  0  0  0  0  0  0  0  0
   -7.3417    7.5042    0.0000 C   0  0  0  0  0  0  0  0  0  0  0  0
  2  1  1  0  0  0  0
  3  1  1  0  0  0  0
  4  5  1  0  0  0  0
  5  9  1  0  0  0  0
  6  3  1  0  0  0  0
  7  4  1  0  0  0  0
  8  3  2  0  0  0  0
  9  6  2  0  0  0  0
 10  2  2  0  0  0  0
 11  2  1  0  0  0  0
 12  4  2  0  0  0  0
 13  8  1  0  0  0  0
 14  7  1  0  0  0  0
 15  7  2  0  0  0  0
 16  1  1  0  0  0  0
 17 13  2  0  0  0  0
 18 20  2  0  0  0  0
 19 14  2  0  0  0  0
 20 15  1  0  0  0  0
 21 18  1  0  0  0  0
 22 16  1  0  0  0  0
 23 22  1  0  0  0  0
 24 11  2  0  0  0  0
 25 11  1  0  0  0  0
 26 25  2  0  0  0  0
 27 24  1  0  0  0  0
 28 26  1  0  0  0  0
 23  8  1  0  0  0  0
 17  9  1  0  0  0  0
 28 27  2  0  0  0  0
 18 19  1  0  0  0  0
M  END
>  <IDNUMBER>
F2049-0420

>  <Chemical_Name>
N-(1-benzoyl-1,2,3,4-tetrahydroquinolin-7-yl)-4-chlorobenzamide

>  <PriceCoeff>
1.00

>  <CAS>
946320-72-5

>  <MW>
390.86

>  <Description>
solid

>  <FSP3>
0.13

>  <clogP>
4.46

>  <TPSA>
49.41

>  <Acceptor>
2

>  <Donor>
1

>  <RotBonds>
4

>  <HAC>
28

>  <Collection>
General

>  <PPDS>
+

$$$$
F2049-0461
  Mrv2219 10102508112D          

 28 31  0  0  0  0            999 V2000
   -4.4728    6.6719    0.0000 N   0  0  0  0  0  0  0  0  0  0  0  0
   -5.1961    6.2521    0.0000 C   0  0  0  0  0  0  0  0  0  0  0  0
   -3.7495    6.2645    0.0000 C   0  0  0  0  0  0  0  0  0  0  0  0
   -3.7412    3.7911    0.0000 C   0  0  0  0  0  0  0  0  0  0  0  0
   -3.7412    2.9763    0.0000 C   0  0  0  0  0  0  0  0  0  0  0  0
   -3.0304    4.2027    0.0000 N   0  0  0  0  0  0  0  0  0  0  0  0
   -3.7495    5.4373    0.0000 C   0  0  0  0  0  0  0  0  0  0  0  0
   -3.0304    5.0175    0.0000 C   0  0  0  0  0  0  0  0  0  0  0  0
   -3.0387    6.6761    0.0000 C   0  0  0  0  0  0  0  0  0  0  0  0
   -4.4604    2.5523    0.0000 C   0  0  0  0  0  0  0  0  0  0  0  0
   -5.1837    5.4248    0.0000 O   0  0  0  0  0  0  0  0  0  0  0  0
   -4.4604    4.2027    0.0000 O   0  0  0  0  0  0  0  0  0  0  0  0
   -5.9070    6.6636    0.0000 C   0  0  0  0  0  0  0  0  0  0  0  0
   -2.3196    6.2645    0.0000 C   0  0  0  0  0  0  0  0  0  0  0  0
   -4.4728    7.4991    0.0000 C   0  0  0  0  0  0  0  0  0  0  0  0
   -2.3196    5.4415    0.0000 C   0  0  0  0  0  0  0  0  0  0  0  0
   -5.1754    2.9639    0.0000 Cl  0  0  0  0  0  0  0  0  0  0  0  0
   -3.0262    2.5565    0.0000 C   0  0  0  0  0  0  0  0  0  0  0  0
   -3.7620    7.9107    0.0000 C   0  0  0  0  0  0  0  0  0  0  0  0
   -3.0429    7.4991    0.0000 C   0  0  0  0  0  0  0  0  0  0  0  0
   -4.4604    1.7293    0.0000 C   0  0  0  0  0  0  0  0  0  0  0  0
   -5.9070    7.4867    0.0000 C   0  0  0  0  0  0  0  0  0  0  0  0
   -6.6012    6.2396    0.0000 C   0  0  0  0  0  0  0  0  0  0  0  0
   -3.0262    1.7293    0.0000 C   0  0  0  0  0  0  0  0  0  0  0  0
   -6.6137    7.8982    0.0000 C   0  0  0  0  0  0  0  0  0  0  0  0
   -7.3246    6.6511    0.0000 C   0  0  0  0  0  0  0  0  0  0  0  0
   -3.7412    1.3177    0.0000 C   0  0  0  0  0  0  0  0  0  0  0  0
   -7.3246    7.4867    0.0000 C   0  0  0  0  0  0  0  0  0  0  0  0
  2  1  1  0  0  0  0
  3  1  1  0  0  0  0
  4  6  1  0  0  0  0
  5  4  1  0  0  0  0
  6  8  1  0  0  0  0
  7  3  1  0  0  0  0
  8  7  2  0  0  0  0
  9  3  2  0  0  0  0
 10  5  1  0  0  0  0
 11  2  2  0  0  0  0
 12  4  2  0  0  0  0
 13  2  1  0  0  0  0
 14  9  1  0  0  0  0
 15  1  1  0  0  0  0
 16 14  2  0  0  0  0
 17 10  1  0  0  0  0
 18  5  2  0  0  0  0
 19 15  1  0  0  0  0
 20 19  1  0  0  0  0
 21 10  2  0  0  0  0
 22 13  2  0  0  0  0
 23 13  1  0  0  0  0
 24 18  1  0  0  0  0
 25 22  1  0  0  0  0
 26 23  2  0  0  0  0
 27 24  2  0  0  0  0
 28 26  1  0  0  0  0
 20  9  1  0  0  0  0
 16  8  1  0  0  0  0
 28 25  2  0  0  0  0
 27 21  1  0  0  0  0
M  END
>  <IDNUMBER>
F2049-0461

>  <Chemical_Name>
N-(1-benzoyl-1,2,3,4-tetrahydroquinolin-7-yl)-2-chlorobenzamide

>  <PriceCoeff>
1.00

>  <CAS>
946219-24-5

>  <MW>
390.86

>  <Description>
solid

>  <FSP3>
0.13

>  <clogP>
3.63

>  <TPSA>
49.41

>  <Acceptor>
2

>  <Donor>
1

>  <RotBonds>
4

>  <HAC>
28

>  <Collection>
General

>  <PPDS>
+

$$$$
F2049-0468
  Mrv2219 10102508112D          

 22 24  0  0  0  0            999 V2000
   -4.4833    6.6875    0.0000 N   0  0  0  0  0  0  0  0  0  0  0  0
   -5.2083    6.2667    0.0000 C   0  0  0  0  0  0  0  0  0  0  0  0
   -3.7583    6.2792    0.0000 C   0  0  0  0  0  0  0  0  0  0  0  0
   -3.7583    5.4500    0.0000 C   0  0  0  0  0  0  0  0  0  0  0  0
   -3.7500    3.8000    0.0000 C   0  0  0  0  0  0  0  0  0  0  0  0
   -3.0375    4.2125    0.0000 N   0  0  0  0  0  0  0  0  0  0  0  0
   -3.0458    6.6917    0.0000 C   0  0  0  0  0  0  0  0  0  0  0  0
   -5.1958    5.4375    0.0000 O   0  0  0  0  0  0  0  0  0  0  0  0
   -3.0375    5.0292    0.0000 C   0  0  0  0  0  0  0  0  0  0  0  0
   -5.9208    6.6792    0.0000 C   0  0  0  0  0  0  0  0  0  0  0  0
   -4.4708    4.2167    0.0000 O   0  0  0  0  0  0  0  0  0  0  0  0
   -2.3250    6.2792    0.0000 C   0  0  0  0  0  0  0  0  0  0  0  0
   -4.4833    7.5167    0.0000 C   0  0  0  0  0  0  0  0  0  0  0  0
   -2.3250    5.4542    0.0000 C   0  0  0  0  0  0  0  0  0  0  0  0
   -3.7708    7.9292    0.0000 C   0  0  0  0  0  0  0  0  0  0  0  0
   -3.0500    7.5167    0.0000 C   0  0  0  0  0  0  0  0  0  0  0  0
   -3.7500    2.9833    0.0000 C   0  0  0  0  0  0  0  0  0  0  0  0
   -5.9208    7.5042    0.0000 C   0  0  0  0  0  0  0  0  0  0  0  0
   -6.6167    6.2542    0.0000 C   0  0  0  0  0  0  0  0  0  0  0  0
   -7.3417    6.6667    0.0000 C   0  0  0  0  0  0  0  0  0  0  0  0
   -6.6292    7.9167    0.0000 C   0  0  0  0  0  0  0  0  0  0  0  0
   -7.3417    7.5042    0.0000 C   0  0  0  0  0  0  0  0  0  0  0  0
  2  1  1  0  0  0  0
  3  1  1  0  0  0  0
  4  3  1  0  0  0  0
  5  6  1  0  0  0  0
  6  9  1  0  0  0  0
  7  3  2  0  0  0  0
  8  2  2  0  0  0  0
  9  4  2  0  0  0  0
 10  2  1  0  0  0  0
 11  5  2  0  0  0  0
 12  7  1  0  0  0  0
 13  1  1  0  0  0  0
 14 12  2  0  0  0  0
 15 13  1  0  0  0  0
 16 15  1  0  0  0  0
 17  5  1  0  0  0  0
 18 10  2  0  0  0  0
 19 10  1  0  0  0  0
 20 19  2  0  0  0  0
 21 18  1  0  0  0  0
 22 20  1  0  0  0  0
 16  7  1  0  0  0  0
 14  9  1  0  0  0  0
 22 21  2  0  0  0  0
M  END
>  <IDNUMBER>
F2049-0468

>  <Chemical_Name>
N-(1-benzoyl-1,2,3,4-tetrahydroquinolin-7-yl)acetamide

>  <PriceCoeff>
1.00

>  <CAS>
946266-74-6

>  <MW>
294.35

>  <Description>
solid

>  <FSP3>
0.22

>  <clogP>
2.06

>  <TPSA>
49.41

>  <Acceptor>
2

>  <Donor>
1

>  <RotBonds>
3

>  <HAC>
22

>  <Collection>
General

>  <PPDS>
+

$$$$
F2049-0479
  Mrv2219 10102508112D          

 27 30  0  0  0  0            999 V2000
   -4.4833    6.6875    0.0000 N   0  0  0  0  0  0  0  0  0  0  0  0
   -5.2083    6.2667    0.0000 C   0  0  0  0  0  0  0  0  0  0  0  0
   -3.7583    6.2792    0.0000 C   0  0  0  0  0  0  0  0  0  0  0  0
   -3.7500    3.8000    0.0000 C   0  0  0  0  0  0  0  0  0  0  0  0
   -3.0375    4.2125    0.0000 N   0  0  0  0  0  0  0  0  0  0  0  0
   -3.7583    5.4500    0.0000 C   0  0  0  0  0  0  0  0  0  0  0  0
   -3.0458    6.6917    0.0000 C   0  0  0  0  0  0  0  0  0  0  0  0
   -3.0375    5.0292    0.0000 C   0  0  0  0  0  0  0  0  0  0  0  0
   -5.1958    5.4375    0.0000 O   0  0  0  0  0  0  0  0  0  0  0  0
   -5.9208    6.6792    0.0000 C   0  0  0  0  0  0  0  0  0  0  0  0
   -4.4583    4.2042    0.0000 O   0  0  0  0  0  0  0  0  0  0  0  0
   -3.7500    2.9583    0.0000 C   0  0  0  0  0  0  0  0  0  0  0  0
   -2.3250    6.2792    0.0000 C   0  0  0  0  0  0  0  0  0  0  0  0
   -4.4833    7.5167    0.0000 C   0  0  0  0  0  0  0  0  0  0  0  0
   -2.3250    5.4542    0.0000 C   0  0  0  0  0  0  0  0  0  0  0  0
   -3.7708    7.9292    0.0000 C   0  0  0  0  0  0  0  0  0  0  0  0
   -3.0500    7.5167    0.0000 C   0  0  0  0  0  0  0  0  0  0  0  0
   -5.9208    7.5042    0.0000 C   0  0  0  0  0  0  0  0  0  0  0  0
   -6.6167    6.2542    0.0000 C   0  0  0  0  0  0  0  0  0  0  0  0
   -4.4458    2.5583    0.0000 C   0  0  0  0  0  0  0  0  0  0  0  0
   -3.0125    2.5583    0.0000 C   0  0  0  0  0  0  0  0  0  0  0  0
   -7.3417    6.6667    0.0000 C   0  0  0  0  0  0  0  0  0  0  0  0
   -6.6292    7.9167    0.0000 C   0  0  0  0  0  0  0  0  0  0  0  0
   -3.0125    1.7333    0.0000 C   0  0  0  0  0  0  0  0  0  0  0  0
   -4.4458    1.7208    0.0000 C   0  0  0  0  0  0  0  0  0  0  0  0
   -7.3417    7.5042    0.0000 C   0  0  0  0  0  0  0  0  0  0  0  0
   -3.7375    1.3083    0.0000 C   0  0  0  0  0  0  0  0  0  0  0  0
  2  1  1  0  0  0  0
  3  1  1  0  0  0  0
  4  5  1  0  0  0  0
  5  8  1  0  0  0  0
  6  3  1  0  0  0  0
  7  3  2  0  0  0  0
  8  6  2  0  0  0  0
  9  2  2  0  0  0  0
 10  2  1  0  0  0  0
 11  4  2  0  0  0  0
 12  4  1  0  0  0  0
 13  7  1  0  0  0  0
 14  1  1  0  0  0  0
 15 13  2  0  0  0  0
 16 14  1  0  0  0  0
 17 16  1  0  0  0  0
 18 10  2  0  0  0  0
 19 10  1  0  0  0  0
 20 12  2  0  0  0  0
 21 12  1  0  0  0  0
 22 19  2  0  0  0  0
 23 18  1  0  0  0  0
 24 21  2  0  0  0  0
 25 20  1  0  0  0  0
 26 22  1  0  0  0  0
 27 24  1  0  0  0  0
 17  7  1  0  0  0  0
 15  8  1  0  0  0  0
 26 23  2  0  0  0  0
 27 25  2  0  0  0  0
M  END
>  <IDNUMBER>
F2049-0479

>  <Chemical_Name>
N-(1-benzoyl-1,2,3,4-tetrahydroquinolin-7-yl)benzamide

>  <PriceCoeff>
1.00

>  <CAS>
946266-78-0

>  <MW>
356.42

>  <Description>
solid

>  <FSP3>
0.13

>  <clogP>
3.55

>  <TPSA>
49.41

>  <Acceptor>
2

>  <Donor>
1

>  <RotBonds>
4

>  <HAC>
27

>  <Collection>
General

>  <PPDS>
+

$$$$
F2049-0480
  Mrv2219 10102508112D          

 28 31  0  0  0  0            999 V2000
   -4.4669    6.6631    0.0000 N   0  0  0  0  0  0  0  0  0  0  0  0
   -5.1893    6.2438    0.0000 C   0  0  0  0  0  0  0  0  0  0  0  0
   -3.7446    6.2563    0.0000 C   0  0  0  0  0  0  0  0  0  0  0  0
   -3.7363    3.7861    0.0000 C   0  0  0  0  0  0  0  0  0  0  0  0
   -3.0264    4.1971    0.0000 N   0  0  0  0  0  0  0  0  0  0  0  0
   -3.7446    5.4301    0.0000 C   0  0  0  0  0  0  0  0  0  0  0  0
   -3.7488    2.9599    0.0000 C   0  0  0  0  0  0  0  0  0  0  0  0
   -3.0347    6.6673    0.0000 C   0  0  0  0  0  0  0  0  0  0  0  0
   -3.0264    5.0108    0.0000 C   0  0  0  0  0  0  0  0  0  0  0  0
   -5.1768    5.4176    0.0000 O   0  0  0  0  0  0  0  0  0  0  0  0
   -5.8992    6.6548    0.0000 C   0  0  0  0  0  0  0  0  0  0  0  0
   -4.4669    4.1888    0.0000 O   0  0  0  0  0  0  0  0  0  0  0  0
   -4.4545    2.5531    0.0000 C   0  0  0  0  0  0  0  0  0  0  0  0
   -2.3165    6.2563    0.0000 C   0  0  0  0  0  0  0  0  0  0  0  0
   -4.4669    7.4892    0.0000 C   0  0  0  0  0  0  0  0  0  0  0  0
   -2.3165    5.4343    0.0000 C   0  0  0  0  0  0  0  0  0  0  0  0
   -4.4420    1.7187    0.0000 C   0  0  0  0  0  0  0  0  0  0  0  0
   -3.0264    2.5614    0.0000 C   0  0  0  0  0  0  0  0  0  0  0  0
   -3.7570    7.9002    0.0000 C   0  0  0  0  0  0  0  0  0  0  0  0
   -3.0347    1.7312    0.0000 C   0  0  0  0  0  0  0  0  0  0  0  0
   -3.0389    7.4892    0.0000 C   0  0  0  0  0  0  0  0  0  0  0  0
   -5.8992    7.4768    0.0000 C   0  0  0  0  0  0  0  0  0  0  0  0
   -6.5925    6.2314    0.0000 C   0  0  0  0  0  0  0  0  0  0  0  0
   -3.7363    1.3160    0.0000 C   0  0  0  0  0  0  0  0  0  0  0  0
   -5.1561    1.2911    0.0000 C   0  0  0  0  0  0  0  0  0  0  0  0
   -7.3149    6.6423    0.0000 C   0  0  0  0  0  0  0  0  0  0  0  0
   -6.6050    7.8878    0.0000 C   0  0  0  0  0  0  0  0  0  0  0  0
   -7.3149    7.4768    0.0000 C   0  0  0  0  0  0  0  0  0  0  0  0
  2  1  1  0  0  0  0
  3  1  1  0  0  0  0
  4  5  1  0  0  0  0
  5  9  1  0  0  0  0
  6  3  1  0  0  0  0
  7  4  1  0  0  0  0
  8  3  2  0  0  0  0
  9  6  2  0  0  0  0
 10  2  2  0  0  0  0
 11  2  1  0  0  0  0
 12  4  2  0  0  0  0
 13  7  2  0  0  0  0
 14  8  1  0  0  0  0
 15  1  1  0  0  0  0
 16 14  2  0  0  0  0
 17 13  1  0  0  0  0
 18  7  1  0  0  0  0
 19 15  1  0  0  0  0
 20 18  2  0  0  0  0
 21 19  1  0  0  0  0
 22 11  2  0  0  0  0
 23 11  1  0  0  0  0
 24 20  1  0  0  0  0
 25 17  1  0  0  0  0
 26 23  2  0  0  0  0
 27 22  1  0  0  0  0
 28 26  1  0  0  0  0
 21  8  1  0  0  0  0
 16  9  1  0  0  0  0
 28 27  2  0  0  0  0
 17 24  2  0  0  0  0
M  END
>  <IDNUMBER>
F2049-0480

>  <Chemical_Name>
N-(1-benzoyl-1,2,3,4-tetrahydroquinolin-7-yl)-3-methylbenzamide

>  <PriceCoeff>
1.00

>  <CAS>
946321-03-5

>  <MW>
370.44

>  <Description>
solid

>  <FSP3>
0.17

>  <clogP>
4.05

>  <TPSA>
49.41

>  <Acceptor>
2

>  <Donor>
1

>  <RotBonds>
4

>  <HAC>
28

>  <Collection>
General

>  <PPDS>
+

$$$$
F2049-0482
  Mrv2219 10102508112D          

 28 31  0  0  0  0            999 V2000
   -4.4833    6.6875    0.0000 N   0  0  0  0  0  0  0  0  0  0  0  0
   -5.2083    6.2667    0.0000 C   0  0  0  0  0  0  0  0  0  0  0  0
   -3.7583    6.2792    0.0000 C   0  0  0  0  0  0  0  0  0  0  0  0
   -3.7500    3.8000    0.0000 C   0  0  0  0  0  0  0  0  0  0  0  0
   -3.0375    4.2125    0.0000 N   0  0  0  0  0  0  0  0  0  0  0  0
   -3.7583    5.4500    0.0000 C   0  0  0  0  0  0  0  0  0  0  0  0
   -3.7500    2.9625    0.0000 C   0  0  0  0  0  0  0  0  0  0  0  0
   -3.0458    6.6917    0.0000 C   0  0  0  0  0  0  0  0  0  0  0  0
   -3.0375    5.0292    0.0000 C   0  0  0  0  0  0  0  0  0  0  0  0
   -5.1958    5.4375    0.0000 O   0  0  0  0  0  0  0  0  0  0  0  0
   -5.9208    6.6792    0.0000 C   0  0  0  0  0  0  0  0  0  0  0  0
   -4.4583    4.2042    0.0000 O   0  0  0  0  0  0  0  0  0  0  0  0
   -2.3250    6.2792    0.0000 C   0  0  0  0  0  0  0  0  0  0  0  0
   -3.0208    2.5583    0.0000 C   0  0  0  0  0  0  0  0  0  0  0  0
   -4.4583    2.5458    0.0000 C   0  0  0  0  0  0  0  0  0  0  0  0
   -4.4833    7.5167    0.0000 C   0  0  0  0  0  0  0  0  0  0  0  0
   -2.3250    5.4542    0.0000 C   0  0  0  0  0  0  0  0  0  0  0  0
   -3.0083    1.7375    0.0000 C   0  0  0  0  0  0  0  0  0  0  0  0
   -4.4458    1.7333    0.0000 C   0  0  0  0  0  0  0  0  0  0  0  0
   -3.7458    1.3125    0.0000 C   0  0  0  0  0  0  0  0  0  0  0  0
   -3.7708    7.9292    0.0000 C   0  0  0  0  0  0  0  0  0  0  0  0
   -3.0500    7.5167    0.0000 C   0  0  0  0  0  0  0  0  0  0  0  0
   -6.6167    6.2542    0.0000 C   0  0  0  0  0  0  0  0  0  0  0  0
   -5.9208    7.5042    0.0000 C   0  0  0  0  0  0  0  0  0  0  0  0
   -3.7375    0.4750    0.0000 C   0  0  0  0  0  0  0  0  0  0  0  0
   -7.3417    6.6667    0.0000 C   0  0  0  0  0  0  0  0  0  0  0  0
   -6.6292    7.9167    0.0000 C   0  0  0  0  0  0  0  0  0  0  0  0
   -7.3417    7.5042    0.0000 C   0  0  0  0  0  0  0  0  0  0  0  0
  2  1  1  0  0  0  0
  3  1  1  0  0  0  0
  4  5  1  0  0  0  0
  5  9  1  0  0  0  0
  6  3  1  0  0  0  0
  7  4  1  0  0  0  0
  8  3  2  0  0  0  0
  9  6  2  0  0  0  0
 10  2  2  0  0  0  0
 11  2  1  0  0  0  0
 12  4  2  0  0  0  0
 13  8  1  0  0  0  0
 14  7  1  0  0  0  0
 15  7  2  0  0  0  0
 16  1  1  0  0  0  0
 17 13  2  0  0  0  0
 18 14  2  0  0  0  0
 19 15  1  0  0  0  0
 20 19  2  0  0  0  0
 21 16  1  0  0  0  0
 22 21  1  0  0  0  0
 23 11  1  0  0  0  0
 24 11  2  0  0  0  0
 25 20  1  0  0  0  0
 26 23  2  0  0  0  0
 27 24  1  0  0  0  0
 28 27  2  0  0  0  0
 22  8  1  0  0  0  0
 17  9  1  0  0  0  0
 28 26  1  0  0  0  0
 20 18  1  0  0  0  0
M  END
>  <IDNUMBER>
F2049-0482

>  <Chemical_Name>
N-(1-benzoyl-1,2,3,4-tetrahydroquinolin-7-yl)-4-methylbenzamide

>  <PriceCoeff>
1.00

>  <CAS>
946368-69-0

>  <MW>
370.44

>  <Description>
solid

>  <FSP3>
0.17

>  <clogP>
4.05

>  <TPSA>
49.41

>  <Acceptor>
2

>  <Donor>
1

>  <RotBonds>
4

>  <HAC>
28

>  <Collection>
General

>  <PPDS>
+

$$$$
F2049-0501
  Mrv2219 10102508112D          

 24 26  0  0  0  0            999 V2000
   -4.4750    6.6917    0.0000 N   0  0  0  0  0  0  0  0  0  0  0  0
   -3.7583    6.2792    0.0000 C   0  0  0  0  0  0  0  0  0  0  0  0
   -3.7500    3.8000    0.0000 C   0  0  0  0  0  0  0  0  0  0  0  0
   -5.1958    6.2750    0.0000 C   0  0  0  0  0  0  0  0  0  0  0  0
   -3.0375    4.2125    0.0000 N   0  0  0  0  0  0  0  0  0  0  0  0
   -3.7583    5.4542    0.0000 C   0  0  0  0  0  0  0  0  0  0  0  0
   -3.7583    2.9833    0.0000 C   0  0  0  0  0  0  0  0  0  0  0  0
   -3.0375    5.0417    0.0000 C   0  0  0  0  0  0  0  0  0  0  0  0
   -3.0458    6.6917    0.0000 C   0  0  0  0  0  0  0  0  0  0  0  0
   -4.4708    4.2042    0.0000 O   0  0  0  0  0  0  0  0  0  0  0  0
   -5.1958    5.4500    0.0000 O   0  0  0  0  0  0  0  0  0  0  0  0
   -2.3208    6.2792    0.0000 C   0  0  0  0  0  0  0  0  0  0  0  0
   -3.0458    2.5583    0.0000 C   0  0  0  0  0  0  0  0  0  0  0  0
   -4.4708    2.5708    0.0000 C   0  0  0  0  0  0  0  0  0  0  0  0
   -4.4708    7.5250    0.0000 C   0  0  0  0  0  0  0  0  0  0  0  0
   -2.3250    5.4542    0.0000 C   0  0  0  0  0  0  0  0  0  0  0  0
   -3.7625    1.3208    0.0000 C   0  0  0  0  0  0  0  0  0  0  0  0
   -3.0458    1.7333    0.0000 C   0  0  0  0  0  0  0  0  0  0  0  0
   -4.4750    1.7375    0.0000 C   0  0  0  0  0  0  0  0  0  0  0  0
   -3.7708    0.4958    0.0000 Cl  0  0  0  0  0  0  0  0  0  0  0  0
   -5.9083    6.6875    0.0000 C   0  0  0  0  0  0  0  0  0  0  0  0
   -3.7625    7.9375    0.0000 C   0  0  0  0  0  0  0  0  0  0  0  0
   -3.0458    7.5167    0.0000 C   0  0  0  0  0  0  0  0  0  0  0  0
   -5.9208    7.5167    0.0000 C   0  0  0  0  0  0  0  0  0  0  0  0
  2  1  1  0  0  0  0
  3  5  1  0  0  0  0
  4  1  1  0  0  0  0
  5  8  1  0  0  0  0
  6  2  1  0  0  0  0
  7  3  1  0  0  0  0
  8  6  2  0  0  0  0
  9  2  2  0  0  0  0
 10  3  2  0  0  0  0
 11  4  2  0  0  0  0
 12  9  1  0  0  0  0
 13  7  1  0  0  0  0
 14  7  2  0  0  0  0
 15  1  1  0  0  0  0
 16 12  2  0  0  0  0
 17 19  2  0  0  0  0
 18 13  2  0  0  0  0
 19 14  1  0  0  0  0
 20 17  1  0  0  0  0
 21  4  1  0  0  0  0
 22 15  1  0  0  0  0
 23 22  1  0  0  0  0
 24 21  1  0  0  0  0
 23  9  1  0  0  0  0
 16  8  1  0  0  0  0
 17 18  1  0  0  0  0
M  END
>  <IDNUMBER>
F2049-0501

>  <Chemical_Name>
4-chloro-N-(1-propanoyl-1,2,3,4-tetrahydroquinolin-7-yl)benzamide

>  <PriceCoeff>
1.00

>  <CAS>
946266-93-9

>  <MW>
342.82

>  <Description>
solid

>  <FSP3>
0.26

>  <clogP>
3.72

>  <TPSA>
49.41

>  <Acceptor>
2

>  <Donor>
1

>  <RotBonds>
4

>  <HAC>
24

>  <Collection>
General

>  <PPDS>
+

$$$$
F2049-0559
  Mrv2219 10102508112D          

 24 26  0  0  0  0            999 V2000
   -4.4750    6.6917    0.0000 N   0  0  0  0  0  0  0  0  0  0  0  0
   -3.7583    6.2792    0.0000 C   0  0  0  0  0  0  0  0  0  0  0  0
   -3.7500    3.8000    0.0000 C   0  0  0  0  0  0  0  0  0  0  0  0
   -5.1958    6.2750    0.0000 C   0  0  0  0  0  0  0  0  0  0  0  0
   -3.0375    4.2125    0.0000 N   0  0  0  0  0  0  0  0  0  0  0  0
   -3.7583    5.4542    0.0000 C   0  0  0  0  0  0  0  0  0  0  0  0
   -3.7583    2.9833    0.0000 C   0  0  0  0  0  0  0  0  0  0  0  0
   -3.0375    5.0417    0.0000 C   0  0  0  0  0  0  0  0  0  0  0  0
   -3.0458    6.6917    0.0000 C   0  0  0  0  0  0  0  0  0  0  0  0
   -4.4708    4.2042    0.0000 O   0  0  0  0  0  0  0  0  0  0  0  0
   -5.1958    5.4500    0.0000 O   0  0  0  0  0  0  0  0  0  0  0  0
   -4.4750    2.5625    0.0000 C   0  0  0  0  0  0  0  0  0  0  0  0
   -2.3208    6.2792    0.0000 C   0  0  0  0  0  0  0  0  0  0  0  0
   -4.4708    7.5250    0.0000 C   0  0  0  0  0  0  0  0  0  0  0  0
   -4.4833    1.7375    0.0000 C   0  0  0  0  0  0  0  0  0  0  0  0
   -2.3250    5.4542    0.0000 C   0  0  0  0  0  0  0  0  0  0  0  0
   -5.1958    1.3333    0.0000 Cl  0  0  0  0  0  0  0  0  0  0  0  0
   -5.9083    6.6875    0.0000 C   0  0  0  0  0  0  0  0  0  0  0  0
   -3.0458    2.5583    0.0000 C   0  0  0  0  0  0  0  0  0  0  0  0
   -3.7625    7.9375    0.0000 C   0  0  0  0  0  0  0  0  0  0  0  0
   -3.0458    1.7250    0.0000 C   0  0  0  0  0  0  0  0  0  0  0  0
   -3.0458    7.5167    0.0000 C   0  0  0  0  0  0  0  0  0  0  0  0
   -3.7625    1.3208    0.0000 C   0  0  0  0  0  0  0  0  0  0  0  0
   -5.9208    7.5167    0.0000 C   0  0  0  0  0  0  0  0  0  0  0  0
  2  1  1  0  0  0  0
  3  5  1  0  0  0  0
  4  1  1  0  0  0  0
  5  8  1  0  0  0  0
  6  2  1  0  0  0  0
  7  3  1  0  0  0  0
  8  6  2  0  0  0  0
  9  2  2  0  0  0  0
 10  3  2  0  0  0  0
 11  4  2  0  0  0  0
 12  7  2  0  0  0  0
 13  9  1  0  0  0  0
 14  1  1  0  0  0  0
 15 12  1  0  0  0  0
 16 13  2  0  0  0  0
 17 15  1  0  0  0  0
 18  4  1  0  0  0  0
 19  7  1  0  0  0  0
 20 14  1  0  0  0  0
 21 19  2  0  0  0  0
 22 20  1  0  0  0  0
 23 21  1  0  0  0  0
 24 18  1  0  0  0  0
 22  9  1  0  0  0  0
 16  8  1  0  0  0  0
 15 23  2  0  0  0  0
M  END
>  <IDNUMBER>
F2049-0559

>  <Chemical_Name>
3-chloro-N-(1-propanoyl-1,2,3,4-tetrahydroquinolin-7-yl)benzamide

>  <PriceCoeff>
1.00

>  <CAS>
946369-13-7

>  <MW>
342.82

>  <Description>
solid

>  <FSP3>
0.26

>  <clogP>
3.72

>  <TPSA>
49.41

>  <Acceptor>
2

>  <Donor>
1

>  <RotBonds>
4

>  <HAC>
24

>  <Collection>
General

>  <PPDS>
+

$$$$
F2051-0244
  Mrv2219 10102508112D          

 33 36  0  0  0  0            999 V2000
   -5.1833    6.2792    0.0000 S   0  0  0  0  0  0  0  0  0  0  0  0
   -4.4708    6.6917    0.0000 N   0  0  0  0  0  0  0  0  0  0  0  0
   -3.7708    0.4875    0.0000 N   0  3  0  0  0  0  0  0  0  0  0  0
   -3.7708    2.9833    0.0000 C   0  0  0  0  0  0  0  0  0  0  0  0
   -3.7500    6.2792    0.0000 C   0  0  0  0  0  0  0  0  0  0  0  0
   -3.7583    3.8000    0.0000 C   0  0  0  0  0  0  0  0  0  0  0  0
   -3.0375    2.5583    0.0000 C   0  0  0  0  0  0  0  0  0  0  0  0
   -3.7625    1.3125    0.0000 C   0  0  0  0  0  0  0  0  0  0  0  0
   -3.0375    1.7250    0.0000 C   0  0  0  0  0  0  0  0  0  0  0  0
   -5.9083    5.8792    0.0000 C   0  0  0  0  0  0  0  0  0  0  0  0
   -3.0458    4.2125    0.0000 N   0  0  0  0  0  0  0  0  0  0  0  0
   -3.7583    5.4542    0.0000 C   0  0  0  0  0  0  0  0  0  0  0  0
   -4.7833    5.5667    0.0000 O   0  0  0  0  0  0  0  0  0  0  0  0
   -5.5958    7.0000    0.0000 O   0  0  0  0  0  0  0  0  0  0  0  0
   -4.4833    2.5625    0.0000 C   0  0  0  0  0  0  0  0  0  0  0  0
   -4.4833    0.0833    0.0000 O   0  5  0  0  0  0  0  0  0  0  0  0
   -3.0458    5.0417    0.0000 C   0  0  0  0  0  0  0  0  0  0  0  0
   -3.0250    6.6917    0.0000 C   0  0  0  0  0  0  0  0  0  0  0  0
   -3.0583    0.0750    0.0000 O   0  0  0  0  0  0  0  0  0  0  0  0
   -4.4750    4.2042    0.0000 O   0  0  0  0  0  0  0  0  0  0  0  0
   -4.4833    1.7333    0.0000 C   0  0  0  0  0  0  0  0  0  0  0  0
   -5.9083    5.0667    0.0000 C   0  0  0  0  0  0  0  0  0  0  0  0
   -6.6042    6.3042    0.0000 C   0  0  0  0  0  0  0  0  0  0  0  0
   -2.3125    6.2792    0.0000 C   0  0  0  0  0  0  0  0  0  0  0  0
   -4.4583    7.5167    0.0000 C   0  0  0  0  0  0  0  0  0  0  0  0
   -2.3208    2.9625    0.0000 Cl  0  0  0  0  0  0  0  0  0  0  0  0
   -2.3208    5.4542    0.0000 C   0  0  0  0  0  0  0  0  0  0  0  0
   -7.3250    5.0792    0.0000 C   0  0  0  0  0  0  0  0  0  0  0  0
   -6.6042    4.6542    0.0000 C   0  0  0  0  0  0  0  0  0  0  0  0
   -7.3167    5.9042    0.0000 C   0  0  0  0  0  0  0  0  0  0  0  0
   -8.0417    4.6667    0.0000 F   0  0  0  0  0  0  0  0  0  0  0  0
   -3.7333    7.9292    0.0000 C   0  0  0  0  0  0  0  0  0  0  0  0
   -3.0208    7.5167    0.0000 C   0  0  0  0  0  0  0  0  0  0  0  0
  2  1  1  0  0  0  0
  3  8  1  0  0  0  0
  4  6  1  0  0  0  0
  5  2  1  0  0  0  0
  6 11  1  0  0  0  0
  7  4  1  0  0  0  0
  8 21  2  0  0  0  0
  9  7  2  0  0  0  0
 10  1  1  0  0  0  0
 11 17  1  0  0  0  0
 12  5  1  0  0  0  0
 13  1  2  0  0  0  0
 14  1  2  0  0  0  0
 15  4  2  0  0  0  0
 16  3  1  0  0  0  0
 17 12  2  0  0  0  0
 18  5  2  0  0  0  0
 19  3  2  0  0  0  0
 20  6  2  0  0  0  0
 21 15  1  0  0  0  0
 22 10  1  0  0  0  0
 23 10  2  0  0  0  0
 24 18  1  0  0  0  0
 25  2  1  0  0  0  0
 26  7  1  0  0  0  0
 27 24  2  0  0  0  0
 28 30  2  0  0  0  0
 29 22  2  0  0  0  0
 30 23  1  0  0  0  0
 31 28  1  0  0  0  0
 32 25  1  0  0  0  0
 33 32  1  0  0  0  0
 29 28  1  0  0  0  0
 18 33  1  0  0  0  0
 27 17  1  0  0  0  0
  9  8  1  0  0  0  0
M  CHG  2   3   1  16  -1
M  END
>  <IDNUMBER>
F2051-0244

>  <Chemical_Name>
2-chloro-N-[1-(4-fluorobenzenesulfonyl)-1,2,3,4-tetrahydroquinolin-7-yl]-4-nitrobenzamide

>  <PriceCoeff>
1.00

>  <CAS>
941900-77-2

>  <MW>
489.90

>  <Description>
solid

>  <FSP3>
0.14

>  <clogP>
4.24

>  <TPSA>
118.00

>  <Acceptor>
6

>  <Donor>
1

>  <RotBonds>
5

>  <HAC>
33

>  <Collection>
General

>  <PPDS>
+

$$$$
F2055-0269
  Mrv2219 10102508112D          

 27 29  0  0  0  0            999 V2000
   -3.7555    0.4855    0.0000 N   0  3  0  0  0  0  0  0  0  0  0  0
   -1.9130    7.5361    0.0000 C   0  0  0  0  0  0  0  0  0  0  0  0
   -1.6516    6.7393    0.0000 N   0  0  0  0  0  0  0  0  0  0  0  0
   -3.7555    2.9712    0.0000 C   0  0  0  0  0  0  0  0  0  0  0  0
   -2.7347    7.5236    0.0000 S   0  0  0  0  0  0  0  0  0  0  0  0
   -3.0252    2.5479    0.0000 C   0  0  0  0  0  0  0  0  0  0  0  0
   -3.7473    1.3072    0.0000 C   0  0  0  0  0  0  0  0  0  0  0  0
   -3.7431    3.7846    0.0000 C   0  0  0  0  0  0  0  0  0  0  0  0
   -3.0252    1.7180    0.0000 C   0  0  0  0  0  0  0  0  0  0  0  0
   -2.3238    6.2538    0.0000 C   0  0  0  0  0  0  0  0  0  0  0  0
   -2.9878    6.7393    0.0000 C   0  0  0  0  0  0  0  0  0  0  0  0
   -1.4275    8.1959    0.0000 C   0  0  0  0  0  0  0  0  0  0  0  0
   -4.4651    2.5521    0.0000 C   0  0  0  0  0  0  0  0  0  0  0  0
   -4.4651    0.0830    0.0000 O   0  5  0  0  0  0  0  0  0  0  0  0
   -3.0459    0.0747    0.0000 O   0  0  0  0  0  0  0  0  0  0  0  0
   -4.4651    1.7263    0.0000 C   0  0  0  0  0  0  0  0  0  0  0  0
   -1.7761    8.9511    0.0000 C   0  0  0  0  0  0  0  0  0  0  0  0
   -4.4569    4.1872    0.0000 O   0  0  0  0  0  0  0  0  0  0  0  0
   -3.0335    4.1954    0.0000 N   0  0  0  0  0  0  0  0  0  0  0  0
   -2.3114    2.9505    0.0000 Cl  0  0  0  0  0  0  0  0  0  0  0  0
   -2.3238    5.4321    0.0000 C   0  0  0  0  0  0  0  0  0  0  0  0
   -1.2906    9.6151    0.0000 C   0  0  0  0  0  0  0  0  0  0  0  0
   -3.0335    5.0213    0.0000 C   0  0  0  0  0  0  0  0  0  0  0  0
   -1.6267   10.3703    0.0000 F   0  0  0  0  0  0  0  0  0  0  0  0
   -0.6058    8.1087    0.0000 C   0  0  0  0  0  0  0  0  0  0  0  0
   -0.1203    8.7810    0.0000 C   0  0  0  0  0  0  0  0  0  0  0  0
   -0.4606    9.5279    0.0000 C   0  0  0  0  0  0  0  0  0  0  0  0
  2  3  2  0  0  0  0
  3 10  1  0  0  0  0
  4 13  2  0  0  0  0
  5 11  1  0  0  0  0
  6  9  2  0  0  0  0
  7  1  1  0  0  0  0
  8  4  1  0  0  0  0
  9  7  1  0  0  0  0
 10 21  1  0  0  0  0
 11 10  2  0  0  0  0
 12  2  1  0  0  0  0
 13 16  1  0  0  0  0
 14  1  1  0  0  0  0
 15  1  2  0  0  0  0
 16  7  2  0  0  0  0
 17 12  1  0  0  0  0
 18  8  2  0  0  0  0
 19  8  1  0  0  0  0
 20  6  1  0  0  0  0
 21 23  1  0  0  0  0
 22 17  2  0  0  0  0
 23 19  1  0  0  0  0
 24 22  1  0  0  0  0
 25 12  2  0  0  0  0
 26 25  1  0  0  0  0
 27 26  2  0  0  0  0
  4  6  1  0  0  0  0
  5  2  1  0  0  0  0
 27 22  1  0  0  0  0
M  CHG  2   1   1  14  -1
M  END
>  <IDNUMBER>
F2055-0269

>  <Chemical_Name>
2-chloro-N-{2-[2-(3-fluorophenyl)-1,3-thiazol-4-yl]ethyl}-4-nitrobenzamide

>  <PriceCoeff>
1.00

>  <CAS>
897612-41-8

>  <MW>
405.83

>  <Description>
solid

>  <FSP3>
0.11

>  <clogP>
3.68

>  <TPSA>
113.37

>  <Acceptor>
4

>  <Donor>
1

>  <RotBonds>
6

>  <HAC>
27

>  <Collection>
General

>  <PPDS>
+

$$$$
F2066-0136
  Mrv2219 10102508112D          

 29 31  0  0  0  0            999 V2000
   -2.4748    0.7905    0.0000 N   0  0  0  0  0  0  0  0  0  0  0  0
   -3.0667    1.8217    0.0000 C   0  0  0  0  0  0  0  0  0  0  0  0
   -2.4748   -0.0268    0.0000 S   0  0  0  0  0  0  0  0  0  0  0  0
   -3.5517    2.5397    0.0000 S   0  0  0  0  0  0  0  0  0  0  0  0
   -3.0667    1.1343    0.0000 C   0  0  0  0  0  0  0  0  0  0  0  0
   -1.8790    1.1343    0.0000 N   0  0  0  0  0  0  0  0  0  0  0  0
   -1.8790    1.8217    0.0000 C   0  0  0  0  0  0  0  0  0  0  0  0
   -3.1927   -2.1120    0.0000 C   0  0  0  0  0  0  0  0  0  0  0  0
   -3.9031   -2.5244    0.0000 N   0  3  0  0  0  0  0  0  0  0  0  0
   -2.4709   -0.8707    0.0000 C   0  0  0  0  0  0  0  0  0  0  0  0
   -4.0406    3.2042    0.0000 N   0  0  0  0  0  0  0  0  0  0  0  0
   -3.1966   -1.2832    0.0000 C   0  0  0  0  0  0  0  0  0  0  0  0
   -3.3073   -0.0458    0.0000 O   0  0  0  0  0  0  0  0  0  0  0  0
   -1.6498   -0.0382    0.0000 O   0  0  0  0  0  0  0  0  0  0  0  0
   -2.8375    2.8528    0.0000 O   0  0  0  0  0  0  0  0  0  0  0  0
   -4.1819    2.1654    0.0000 O   0  0  0  0  0  0  0  0  0  0  0  0
   -2.4709   -2.5244    0.0000 C   0  0  0  0  0  0  0  0  0  0  0  0
   -4.6249   -2.1196    0.0000 O   0  5  0  0  0  0  0  0  0  0  0  0
   -3.8955   -3.3494    0.0000 O   0  0  0  0  0  0  0  0  0  0  0  0
   -1.7606   -1.2756    0.0000 C   0  0  0  0  0  0  0  0  0  0  0  0
   -3.7541    1.1075    0.0000 C   0  0  0  0  0  0  0  0  0  0  0  0
   -1.7491   -2.1005    0.0000 C   0  0  0  0  0  0  0  0  0  0  0  0
   -5.0144    4.5295    0.0000 O   0  0  0  0  0  0  0  0  0  0  0  0
   -4.8540    3.1240    0.0000 C   0  0  0  0  0  0  0  0  0  0  0  0
   -3.7007    3.9566    0.0000 C   0  0  0  0  0  0  0  0  0  0  0  0
   -1.3481    2.3678    0.0000 C   0  0  0  0  0  0  0  0  0  0  0  0
   -2.4709   -3.3494    0.0000 Cl  0  0  0  0  0  0  0  0  0  0  0  0
   -4.2010    4.6211    0.0000 C   0  0  0  0  0  0  0  0  0  0  0  0
   -5.3467    3.7847    0.0000 C   0  0  0  0  0  0  0  0  0  0  0  0
  2  5  2  0  0  0  0
  3  1  1  0  0  0  0
  4  2  1  0  0  0  0
  5  1  1  0  0  0  0
  6  1  1  0  0  0  0
  7  6  2  0  0  0  0
  8 12  1  0  0  0  0
  9  8  1  0  0  0  0
 10  3  1  0  0  0  0
 11  4  1  0  0  0  0
 12 10  2  0  0  0  0
 13  3  2  0  0  0  0
 14  3  2  0  0  0  0
 15  4  2  0  0  0  0
 16  4  2  0  0  0  0
 17 22  1  0  0  0  0
 18  9  1  0  0  0  0
 19  9  2  0  0  0  0
 20 10  1  0  0  0  0
 21  5  1  0  0  0  0
 22 20  2  0  0  0  0
 23 28  1  0  0  0  0
 24 11  1  0  0  0  0
 25 11  1  0  0  0  0
 26  7  1  0  0  0  0
 27 17  1  0  0  0  0
 28 25  1  0  0  0  0
 29 24  1  0  0  0  0
  2  7  1  0  0  0  0
  8 17  2  0  0  0  0
 29 23  1  0  0  0  0
M  CHG  2   9   1  18  -1
M  END
>  <IDNUMBER>
F2066-0136

>  <Chemical_Name>
4-{[1-(4-chloro-3-nitrobenzenesulfonyl)-3,5-dimethyl-1H-pyrazol-4-yl]sulfonyl}morpholine

>  <PriceCoeff>
1.00

>  <CAS>
956270-83-0

>  <MW>
464.90

>  <Description>
solid

>  <FSP3>
0.40

>  <clogP>
0.49

>  <TPSA>
158.47

>  <Acceptor>
8

>  <Donor>
0

>  <RotBonds>
5

>  <HAC>
29

>  <Collection>
General

>  <PPDS>
+

$$$$
F2066-0144
  Mrv2219 10102508112D          

 31 33  0  0  0  0            999 V2000
   -2.4746    0.7904    0.0000 N   0  0  0  0  0  0  0  0  0  0  0  0
   -3.5514    2.5395    0.0000 S   0  0  0  0  0  0  0  0  0  0  0  0
   -3.0664    1.8215    0.0000 C   0  0  0  0  0  0  0  0  0  0  0  0
   -2.4746   -0.0268    0.0000 S   0  0  0  0  0  0  0  0  0  0  0  0
   -3.0664    1.1342    0.0000 C   0  0  0  0  0  0  0  0  0  0  0  0
   -1.8788    1.1342    0.0000 N   0  0  0  0  0  0  0  0  0  0  0  0
   -1.8788    1.8215    0.0000 C   0  0  0  0  0  0  0  0  0  0  0  0
   -3.1924   -2.1118    0.0000 C   0  0  0  0  0  0  0  0  0  0  0  0
   -3.9027   -2.5242    0.0000 N   0  3  0  0  0  0  0  0  0  0  0  0
   -4.0402    3.2039    0.0000 N   0  0  0  0  0  0  0  0  0  0  0  0
   -2.4707   -0.8706    0.0000 C   0  0  0  0  0  0  0  0  0  0  0  0
   -3.1963   -1.2831    0.0000 C   0  0  0  0  0  0  0  0  0  0  0  0
   -2.8372    2.8525    0.0000 O   0  0  0  0  0  0  0  0  0  0  0  0
   -4.1815    2.1652    0.0000 O   0  0  0  0  0  0  0  0  0  0  0  0
   -3.3070   -0.0458    0.0000 O   0  0  0  0  0  0  0  0  0  0  0  0
   -1.6496   -0.0382    0.0000 O   0  0  0  0  0  0  0  0  0  0  0  0
   -2.4707   -2.5242    0.0000 C   0  0  0  0  0  0  0  0  0  0  0  0
   -4.6245   -2.1194    0.0000 O   0  5  0  0  0  0  0  0  0  0  0  0
   -3.8951   -3.3491    0.0000 O   0  0  0  0  0  0  0  0  0  0  0  0
   -4.8535    3.3299    0.0000 C   0  0  0  0  0  0  0  0  0  0  0  0
   -1.7604   -1.2755    0.0000 C   0  0  0  0  0  0  0  0  0  0  0  0
   -3.7537    1.1074    0.0000 C   0  0  0  0  0  0  0  0  0  0  0  0
   -1.7489   -2.1003    0.0000 C   0  0  0  0  0  0  0  0  0  0  0  0
   -1.3480    2.3676    0.0000 C   0  0  0  0  0  0  0  0  0  0  0  0
   -2.4707   -3.3491    0.0000 Cl  0  0  0  0  0  0  0  0  0  0  0  0
   -3.9027    4.0135    0.0000 C   0  0  0  0  0  0  0  0  0  0  0  0
   -5.3691    2.6768    0.0000 C   0  0  0  0  0  0  0  0  0  0  0  0
   -5.1514    4.0898    0.0000 C   0  0  0  0  0  0  0  0  0  0  0  0
   -5.9686    4.2083    0.0000 C   0  0  0  0  0  0  0  0  0  0  0  0
   -6.1863    2.8029    0.0000 C   0  0  0  0  0  0  0  0  0  0  0  0
   -6.4880    3.5820    0.0000 C   0  0  0  0  0  0  0  0  0  0  0  0
  2  3  1  0  0  0  0
  3  5  2  0  0  0  0
  4  1  1  0  0  0  0
  5  1  1  0  0  0  0
  6  1  1  0  0  0  0
  7  6  2  0  0  0  0
  8 12  1  0  0  0  0
  9  8  1  0  0  0  0
 10  2  1  0  0  0  0
 11  4  1  0  0  0  0
 12 11  2  0  0  0  0
 13  2  2  0  0  0  0
 14  2  2  0  0  0  0
 15  4  2  0  0  0  0
 16  4  2  0  0  0  0
 17 23  1  0  0  0  0
 18  9  1  0  0  0  0
 19  9  2  0  0  0  0
 20 10  1  0  0  0  0
 21 11  1  0  0  0  0
 22  5  1  0  0  0  0
 23 21  2  0  0  0  0
 24  7  1  0  0  0  0
 25 17  1  0  0  0  0
 26 10  1  0  0  0  0
 27 20  2  0  0  0  0
 28 20  1  0  0  0  0
 29 28  2  0  0  0  0
 30 27  1  0  0  0  0
 31 29  1  0  0  0  0
  3  7  1  0  0  0  0
  8 17  2  0  0  0  0
 31 30  2  0  0  0  0
M  CHG  2   9   1  18  -1
M  END
>  <IDNUMBER>
F2066-0144

>  <Chemical_Name>
1-(4-chloro-3-nitrobenzenesulfonyl)-N,3,5-trimethyl-N-phenyl-1H-pyrazole-4-sulfonamide

>  <PriceCoeff>
1.00

>  <CAS>
956271-22-0

>  <MW>
484.93

>  <Description>
solid

>  <FSP3>
0.17

>  <clogP>
2.00

>  <TPSA>
149.24

>  <Acceptor>
8

>  <Donor>
0

>  <RotBonds>
6

>  <HAC>
31

>  <Collection>
General

>  <PPDS>
+

$$$$
F2070-1198
  Mrv2219 10102508112D          

 27 29  0  0  0  0            999 V2000
   -3.7777    2.4214    0.0000 N   0  0  0  0  0  0  0  0  0  0  0  0
   -3.1162    2.9040    0.0000 C   0  0  0  0  0  0  0  0  0  0  0  0
    1.8639    3.5280    0.0000 N   0  3  0  0  0  0  0  0  0  0  0  0
    1.0859    3.7901    0.0000 C   0  0  0  0  0  0  0  0  0  0  0  0
   -4.1896    3.6903    0.0000 N   0  0  0  0  0  0  0  0  0  0  0  0
   -4.4517    2.9040    0.0000 N   0  0  0  0  0  0  0  0  0  0  0  0
   -3.3658    3.6903    0.0000 N   0  0  0  0  0  0  0  0  0  0  0  0
   -3.7777    1.5976    0.0000 C   0  0  0  0  0  0  0  0  0  0  0  0
    0.4618    3.2410    0.0000 C   0  0  0  0  0  0  0  0  0  0  0  0
   -0.9319    2.9414    0.0000 C   0  0  0  0  0  0  0  0  0  0  0  0
   -4.4933    1.1857    0.0000 C   0  0  0  0  0  0  0  0  0  0  0  0
   -0.3203    3.4906    0.0000 C   0  0  0  0  0  0  0  0  0  0  0  0
   -4.4933    0.3620    0.0000 C   0  0  0  0  0  0  0  0  0  0  0  0
   -1.7182    3.2035    0.0000 N   0  0  0  0  0  0  0  0  0  0  0  0
    0.9029    4.5973    0.0000 C   0  0  0  0  0  0  0  0  0  0  0  0
   -2.3298    2.6461    0.0000 C   0  0  0  0  0  0  0  0  0  0  0  0
    2.0387    2.7292    0.0000 O   0  5  0  0  0  0  0  0  0  0  0  0
    2.4838    4.0731    0.0000 O   0  0  0  0  0  0  0  0  0  0  0  0
   -3.7819   -0.0541    0.0000 C   0  0  0  0  0  0  0  0  0  0  0  0
   -3.0662    1.1815    0.0000 C   0  0  0  0  0  0  0  0  0  0  0  0
   -0.7614    2.1426    0.0000 O   0  0  0  0  0  0  0  0  0  0  0  0
   -0.4951    4.2978    0.0000 C   0  0  0  0  0  0  0  0  0  0  0  0
    0.1165    4.8470    0.0000 C   0  0  0  0  0  0  0  0  0  0  0  0
   -3.0662    0.3578    0.0000 C   0  0  0  0  0  0  0  0  0  0  0  0
   -5.2130   -0.0416    0.0000 F   0  0  0  0  0  0  0  0  0  0  0  0
    1.5227    5.1465    0.0000 Cl  0  0  0  0  0  0  0  0  0  0  0  0
   -3.7901   -0.8779    0.0000 F   0  0  0  0  0  0  0  0  0  0  0  0
  2  1  1  0  0  0  0
  3  4  1  0  0  0  0
  4  9  2  0  0  0  0
  5  6  2  0  0  0  0
  6  1  1  0  0  0  0
  7  2  2  0  0  0  0
  8  1  1  0  0  0  0
  9 12  1  0  0  0  0
 10 14  1  0  0  0  0
 11  8  2  0  0  0  0
 12 10  1  0  0  0  0
 13 11  1  0  0  0  0
 14 16  1  0  0  0  0
 15 23  2  0  0  0  0
 16  2  1  0  0  0  0
 17  3  1  0  0  0  0
 18  3  2  0  0  0  0
 19 24  1  0  0  0  0
 20  8  1  0  0  0  0
 21 10  2  0  0  0  0
 22 12  2  0  0  0  0
 23 22  1  0  0  0  0
 24 20  2  0  0  0  0
 25 13  1  0  0  0  0
 26 15  1  0  0  0  0
 27 19  1  0  0  0  0
  5  7  1  0  0  0  0
 19 13  2  0  0  0  0
  4 15  1  0  0  0  0
M  CHG  2   3   1  17  -1
M  END
>  <IDNUMBER>
F2070-1198

>  <Chemical_Name>
4-chloro-N-{[1-(3,4-difluorophenyl)-1H-1,2,3,4-tetrazol-5-yl]methyl}-3-nitrobenzamide

>  <PriceCoeff>
1.00

>  <CAS>
921502-64-9

>  <MW>
394.72

>  <Description>
solid

>  <FSP3>
0.07

>  <clogP>
2.61

>  <TPSA>
115.84

>  <Acceptor>
6

>  <Donor>
1

>  <RotBonds>
5

>  <HAC>
27

>  <Collection>
General

>  <PPDS>
+

$$$$
F2070-1681
  Mrv2219 10102508112D          

 26 28  0  0  0  0            999 V2000
   -3.7796    2.4226    0.0000 N   0  0  0  0  0  0  0  0  0  0  0  0
   -3.1177    2.9054    0.0000 C   0  0  0  0  0  0  0  0  0  0  0  0
    1.8649    3.5298    0.0000 N   0  3  0  0  0  0  0  0  0  0  0  0
    1.0864    3.7920    0.0000 C   0  0  0  0  0  0  0  0  0  0  0  0
   -4.1916    3.6921    0.0000 N   0  0  0  0  0  0  0  0  0  0  0  0
   -4.4539    2.9054    0.0000 N   0  0  0  0  0  0  0  0  0  0  0  0
   -3.3675    3.6921    0.0000 N   0  0  0  0  0  0  0  0  0  0  0  0
    0.4620    3.2426    0.0000 C   0  0  0  0  0  0  0  0  0  0  0  0
   -0.9324    2.9429    0.0000 C   0  0  0  0  0  0  0  0  0  0  0  0
   -0.3205    3.4923    0.0000 C   0  0  0  0  0  0  0  0  0  0  0  0
   -3.7796    1.5984    0.0000 C   0  0  0  0  0  0  0  0  0  0  0  0
   -1.7191    3.2051    0.0000 N   0  0  0  0  0  0  0  0  0  0  0  0
    0.9033    4.5996    0.0000 C   0  0  0  0  0  0  0  0  0  0  0  0
   -2.3310    2.6474    0.0000 C   0  0  0  0  0  0  0  0  0  0  0  0
    2.0397    2.7306    0.0000 O   0  5  0  0  0  0  0  0  0  0  0  0
    2.4850    4.0752    0.0000 O   0  0  0  0  0  0  0  0  0  0  0  0
   -0.7617    2.1437    0.0000 O   0  0  0  0  0  0  0  0  0  0  0  0
   -0.4953    4.2999    0.0000 C   0  0  0  0  0  0  0  0  0  0  0  0
    0.1166    4.8494    0.0000 C   0  0  0  0  0  0  0  0  0  0  0  0
   -4.4955    1.1863    0.0000 C   0  0  0  0  0  0  0  0  0  0  0  0
   -3.0678    1.1821    0.0000 C   0  0  0  0  0  0  0  0  0  0  0  0
   -3.7837   -0.0541    0.0000 C   0  0  0  0  0  0  0  0  0  0  0  0
    1.5235    5.1491    0.0000 Cl  0  0  0  0  0  0  0  0  0  0  0  0
   -3.0678    0.3579    0.0000 C   0  0  0  0  0  0  0  0  0  0  0  0
   -4.4955    0.3621    0.0000 C   0  0  0  0  0  0  0  0  0  0  0  0
   -3.7920   -0.8783    0.0000 F   0  0  0  0  0  0  0  0  0  0  0  0
  2  1  1  0  0  0  0
  3  4  1  0  0  0  0
  4  8  2  0  0  0  0
  5  6  2  0  0  0  0
  6  1  1  0  0  0  0
  7  2  2  0  0  0  0
  8 10  1  0  0  0  0
  9 12  1  0  0  0  0
 10  9  1  0  0  0  0
 11  1  1  0  0  0  0
 12 14  1  0  0  0  0
 13 19  2  0  0  0  0
 14  2  1  0  0  0  0
 15  3  1  0  0  0  0
 16  3  2  0  0  0  0
 17  9  2  0  0  0  0
 18 10  2  0  0  0  0
 19 18  1  0  0  0  0
 20 11  2  0  0  0  0
 21 11  1  0  0  0  0
 22 24  1  0  0  0  0
 23 13  1  0  0  0  0
 24 21  2  0  0  0  0
 25 20  1  0  0  0  0
 26 22  1  0  0  0  0
  5  7  1  0  0  0  0
 22 25  2  0  0  0  0
  4 13  1  0  0  0  0
M  CHG  2   3   1  15  -1
M  END
>  <IDNUMBER>
F2070-1681

>  <Chemical_Name>
4-chloro-N-{[1-(4-fluorophenyl)-1H-1,2,3,4-tetrazol-5-yl]methyl}-3-nitrobenzamide

>  <PriceCoeff>
1.00

>  <CAS>
897623-49-3

>  <MW>
376.73

>  <Description>
solid

>  <FSP3>
0.07

>  <clogP>
2.51

>  <TPSA>
115.84

>  <Acceptor>
6

>  <Donor>
1

>  <RotBonds>
5

>  <HAC>
26

>  <Collection>
General

>  <PPDS>
+

$$$$
F2073-0017
  Mrv2219 10102508112D          

 25 27  0  0  0  0            999 V2000
   -2.4022    4.5246    0.0000 C   0  0  0  0  0  0  0  0  0  0  0  0
   -1.5165    5.6526    0.0000 N   0  0  0  0  0  0  0  0  0  0  0  0
   -2.2769    5.3435    0.0000 C   0  0  0  0  0  0  0  0  0  0  0  0
   -0.8648    5.1387    0.0000 C   0  0  0  0  0  0  0  0  0  0  0  0
   -0.9734    4.3157    0.0000 N   0  0  0  0  0  0  0  0  0  0  0  0
   -1.7505    4.0107    0.0000 C   0  0  0  0  0  0  0  0  0  0  0  0
   -3.1667    4.2154    0.0000 N   0  0  0  0  0  0  0  0  0  0  0  0
   -6.4589    6.6595    0.0000 N   0  3  0  0  0  0  0  0  0  0  0  0
   -3.8102    4.7293    0.0000 C   0  0  0  0  0  0  0  0  0  0  0  0
   -4.4828    5.2139    0.0000 C   0  0  0  0  0  0  0  0  0  0  0  0
   -4.3825    6.0328    0.0000 C   0  0  0  0  0  0  0  0  0  0  0  0
   -5.7988    6.1832    0.0000 C   0  0  0  0  0  0  0  0  0  0  0  0
   -5.0468    6.5174    0.0000 C   0  0  0  0  0  0  0  0  0  0  0  0
   -5.2222    4.8797    0.0000 C   0  0  0  0  0  0  0  0  0  0  0  0
   -1.3995    6.4547    0.0000 C   0  0  0  0  0  0  0  0  0  0  0  0
   -6.3712    7.4867    0.0000 O   0  5  0  0  0  0  0  0  0  0  0  0
   -2.9286    5.8531    0.0000 O   0  0  0  0  0  0  0  0  0  0  0  0
   -0.1086    5.4312    0.0000 C   0  0  0  0  0  0  0  0  0  0  0  0
   -7.2193    6.3294    0.0000 O   0  0  0  0  0  0  0  0  0  0  0  0
   -3.8937    3.9188    0.0000 O   0  0  0  0  0  0  0  0  0  0  0  0
   -5.8865    5.3560    0.0000 C   0  0  0  0  0  0  0  0  0  0  0  0
   -0.6350    6.7681    0.0000 C   0  0  0  0  0  0  0  0  0  0  0  0
    0.0167    6.2584    0.0000 C   0  0  0  0  0  0  0  0  0  0  0  0
   -3.6305    6.3587    0.0000 Cl  0  0  0  0  0  0  0  0  0  0  0  0
   -1.8675    3.2043    0.0000 C   0  0  0  0  0  0  0  0  0  0  0  0
  2  3  1  0  0  0  0
  3  1  1  0  0  0  0
  4  5  2  0  0  0  0
  5  6  1  0  0  0  0
  6  1  2  0  0  0  0
  7  1  1  0  0  0  0
  8 12  1  0  0  0  0
  9  7  1  0  0  0  0
 10  9  1  0  0  0  0
 11 10  2  0  0  0  0
 12 21  1  0  0  0  0
 13 11  1  0  0  0  0
 14 10  1  0  0  0  0
 15  2  1  0  0  0  0
 16  8  1  0  0  0  0
 17  3  2  0  0  0  0
 18  4  1  0  0  0  0
 19  8  2  0  0  0  0
 20  9  2  0  0  0  0
 21 14  2  0  0  0  0
 22 15  2  0  0  0  0
 23 18  2  0  0  0  0
 24 11  1  0  0  0  0
 25  6  1  0  0  0  0
  2  4  1  0  0  0  0
 12 13  2  0  0  0  0
 22 23  1  0  0  0  0
M  CHG  2   8   1  16  -1
M  END
>  <IDNUMBER>
F2073-0017

>  <Chemical_Name>
2-chloro-N-{2-methyl-4-oxo-4H-pyrido[1,2-a]pyrimidin-3-yl}-4-nitrobenzamide

>  <PriceCoeff>
1.00

>  <CAS>
921111-06-0

>  <MW>
358.74

>  <Description>
solid

>  <FSP3>
0.06

>  <clogP>
1.26

>  <TPSA>
104.91

>  <Acceptor>
5

>  <Donor>
1

>  <RotBonds>
3

>  <HAC>
25

>  <Collection>
General

>  <PPDS>
+

$$$$
F2073-0018
  Mrv2219 10102508112D          

 25 27  0  0  0  0            999 V2000
   -2.3952    4.5113    0.0000 C   0  0  0  0  0  0  0  0  0  0  0  0
   -1.5121    5.6360    0.0000 N   0  0  0  0  0  0  0  0  0  0  0  0
   -2.2702    5.3278    0.0000 C   0  0  0  0  0  0  0  0  0  0  0  0
   -0.8622    5.1237    0.0000 C   0  0  0  0  0  0  0  0  0  0  0  0
   -0.9705    4.3030    0.0000 N   0  0  0  0  0  0  0  0  0  0  0  0
   -4.5696    0.8497    0.0000 N   0  3  0  0  0  0  0  0  0  0  0  0
   -3.8740    1.3080    0.0000 C   0  0  0  0  0  0  0  0  0  0  0  0
   -1.7454    3.9990    0.0000 C   0  0  0  0  0  0  0  0  0  0  0  0
   -3.1574    4.2030    0.0000 N   0  0  0  0  0  0  0  0  0  0  0  0
   -3.2741    3.3991    0.0000 C   0  0  0  0  0  0  0  0  0  0  0  0
   -3.9198    2.1327    0.0000 C   0  0  0  0  0  0  0  0  0  0  0  0
   -3.2324    2.5826    0.0000 C   0  0  0  0  0  0  0  0  0  0  0  0
   -1.3954    6.4358    0.0000 C   0  0  0  0  0  0  0  0  0  0  0  0
   -3.1366    0.9330    0.0000 C   0  0  0  0  0  0  0  0  0  0  0  0
   -5.2945    1.2247    0.0000 O   0  5  0  0  0  0  0  0  0  0  0  0
   -2.9201    5.8360    0.0000 O   0  0  0  0  0  0  0  0  0  0  0  0
   -0.1083    5.4152    0.0000 C   0  0  0  0  0  0  0  0  0  0  0  0
   -4.5196    0.0333    0.0000 O   0  0  0  0  0  0  0  0  0  0  0  0
   -2.5868    3.8573    0.0000 O   0  0  0  0  0  0  0  0  0  0  0  0
   -2.4952    2.2119    0.0000 C   0  0  0  0  0  0  0  0  0  0  0  0
   -0.6331    6.7482    0.0000 C   0  0  0  0  0  0  0  0  0  0  0  0
    0.0167    6.2401    0.0000 C   0  0  0  0  0  0  0  0  0  0  0  0
   -2.4494    1.3954    0.0000 C   0  0  0  0  0  0  0  0  0  0  0  0
   -3.0866    0.1083    0.0000 Cl  0  0  0  0  0  0  0  0  0  0  0  0
   -1.8620    3.1949    0.0000 C   0  0  0  0  0  0  0  0  0  0  0  0
  2  3  1  0  0  0  0
  3  1  1  0  0  0  0
  4  5  2  0  0  0  0
  5  8  1  0  0  0  0
  6  7  1  0  0  0  0
  7 11  1  0  0  0  0
  8  1  2  0  0  0  0
  9  1  1  0  0  0  0
 10  9  1  0  0  0  0
 11 12  2  0  0  0  0
 12 10  1  0  0  0  0
 13  2  1  0  0  0  0
 14 23  1  0  0  0  0
 15  6  1  0  0  0  0
 16  3  2  0  0  0  0
 17  4  1  0  0  0  0
 18  6  2  0  0  0  0
 19 10  2  0  0  0  0
 20 12  1  0  0  0  0
 21 13  2  0  0  0  0
 22 17  2  0  0  0  0
 23 20  2  0  0  0  0
 24 14  1  0  0  0  0
 25  8  1  0  0  0  0
  2  4  1  0  0  0  0
 21 22  1  0  0  0  0
 14  7  2  0  0  0  0
M  CHG  2   6   1  15  -1
M  END
>  <IDNUMBER>
F2073-0018

>  <Chemical_Name>
4-chloro-N-{2-methyl-4-oxo-4H-pyrido[1,2-a]pyrimidin-3-yl}-3-nitrobenzamide

>  <PriceCoeff>
1.00

>  <CAS>
920486-99-3

>  <MW>
358.74

>  <Description>
solid

>  <FSP3>
0.06

>  <clogP>
1.94

>  <TPSA>
104.91

>  <Acceptor>
5

>  <Donor>
1

>  <RotBonds>
3

>  <HAC>
25

>  <Collection>
General

>  <PPDS>
+

$$$$
F2073-0118
  Mrv2219 10102508112D          

 26 28  0  0  0  0            999 V2000
   -1.4453    5.5718    0.0000 N   0  0  0  0  0  0  0  0  0  0  0  0
   -2.3963    4.4909    0.0000 C   0  0  0  0  0  0  0  0  0  0  0  0
   -2.2246    5.3079    0.0000 C   0  0  0  0  0  0  0  0  0  0  0  0
   -0.8253    5.0189    0.0000 C   0  0  0  0  0  0  0  0  0  0  0  0
   -0.9803    4.2103    0.0000 N   0  0  0  0  0  0  0  0  0  0  0  0
   -1.7678    3.9547    0.0000 C   0  0  0  0  0  0  0  0  0  0  0  0
   -3.1754    4.2270    0.0000 N   0  0  0  0  0  0  0  0  0  0  0  0
   -6.3384    6.8537    0.0000 N   0  3  0  0  0  0  0  0  0  0  0  0
   -3.7913    4.7758    0.0000 C   0  0  0  0  0  0  0  0  0  0  0  0
   -4.4322    5.2953    0.0000 C   0  0  0  0  0  0  0  0  0  0  0  0
   -1.2903    6.3719    0.0000 C   0  0  0  0  0  0  0  0  0  0  0  0
   -4.2940    6.1122    0.0000 C   0  0  0  0  0  0  0  0  0  0  0  0
   -5.7016    6.3384    0.0000 C   0  0  0  0  0  0  0  0  0  0  0  0
   -0.0503    5.2828    0.0000 C   0  0  0  0  0  0  0  0  0  0  0  0
   -4.9349    6.6275    0.0000 C   0  0  0  0  0  0  0  0  0  0  0  0
   -0.5110    6.6401    0.0000 C   0  0  0  0  0  0  0  0  0  0  0  0
   -5.1989    4.9937    0.0000 C   0  0  0  0  0  0  0  0  0  0  0  0
    0.1131    6.0996    0.0000 C   0  0  0  0  0  0  0  0  0  0  0  0
   -6.2127    7.6706    0.0000 O   0  5  0  0  0  0  0  0  0  0  0  0
   -2.8487    5.8483    0.0000 O   0  0  0  0  0  0  0  0  0  0  0  0
   -7.1177    6.5605    0.0000 O   0  0  0  0  0  0  0  0  0  0  0  0
   -3.9212    3.9673    0.0000 O   0  0  0  0  0  0  0  0  0  0  0  0
   -5.8273    5.5090    0.0000 C   0  0  0  0  0  0  0  0  0  0  0  0
   -3.5273    6.4013    0.0000 Cl  0  0  0  0  0  0  0  0  0  0  0  0
   -0.3477    7.4444    0.0000 Cl  0  0  0  0  0  0  0  0  0  0  0  0
   -1.9354    3.1420    0.0000 C   0  0  0  0  0  0  0  0  0  0  0  0
  2  3  1  0  0  0  0
  3  1  1  0  0  0  0
  4  1  1  0  0  0  0
  5  4  2  0  0  0  0
  6  5  1  0  0  0  0
  7  2  1  0  0  0  0
  8 13  1  0  0  0  0
  9  7  1  0  0  0  0
 10  9  1  0  0  0  0
 11  1  1  0  0  0  0
 12 10  2  0  0  0  0
 13 23  1  0  0  0  0
 14  4  1  0  0  0  0
 15 12  1  0  0  0  0
 16 11  2  0  0  0  0
 17 10  1  0  0  0  0
 18 16  1  0  0  0  0
 19  8  1  0  0  0  0
 20  3  2  0  0  0  0
 21  8  2  0  0  0  0
 22  9  2  0  0  0  0
 23 17  2  0  0  0  0
 24 12  1  0  0  0  0
 25 16  1  0  0  0  0
 26  6  1  0  0  0  0
 18 14  2  0  0  0  0
  6  2  2  0  0  0  0
 13 15  2  0  0  0  0
M  CHG  2   8   1  19  -1
M  END
>  <IDNUMBER>
F2073-0118

>  <Chemical_Name>
2-chloro-N-{7-chloro-2-methyl-4-oxo-4H-pyrido[1,2-a]pyrimidin-3-yl}-4-nitrobenzamide

>  <PriceCoeff>
1.00

>  <CAS>
941923-23-5

>  <MW>
393.18

>  <Description>
solid

>  <FSP3>
0.06

>  <clogP>
1.97

>  <TPSA>
104.91

>  <Acceptor>
5

>  <Donor>
1

>  <RotBonds>
3

>  <HAC>
26

>  <Collection>
General

>  <PPDS>
+

$$$$
F2073-0219
  Mrv2219 10102508112D          

 26 28  0  0  0  0            999 V2000
   -2.3831    4.4695    0.0000 C   0  0  0  0  0  0  0  0  0  0  0  0
   -2.2158    5.2848    0.0000 C   0  0  0  0  0  0  0  0  0  0  0  0
   -1.4257    5.5356    0.0000 N   0  0  0  0  0  0  0  0  0  0  0  0
   -0.8111    4.9837    0.0000 C   0  0  0  0  0  0  0  0  0  0  0  0
   -0.9784    4.1685    0.0000 N   0  0  0  0  0  0  0  0  0  0  0  0
   -1.7685    3.9217    0.0000 C   0  0  0  0  0  0  0  0  0  0  0  0
   -3.1691    4.2187    0.0000 N   0  0  0  0  0  0  0  0  0  0  0  0
   -6.2882    6.9028    0.0000 N   0  3  0  0  0  0  0  0  0  0  0  0
   -3.7754    4.7789    0.0000 C   0  0  0  0  0  0  0  0  0  0  0  0
   -4.4109    5.3098    0.0000 C   0  0  0  0  0  0  0  0  0  0  0  0
   -4.2604    6.1126    0.0000 C   0  0  0  0  0  0  0  0  0  0  0  0
   -1.2626    6.3342    0.0000 C   0  0  0  0  0  0  0  0  0  0  0  0
   -5.6652    6.3635    0.0000 C   0  0  0  0  0  0  0  0  0  0  0  0
   -4.8875    6.6519    0.0000 C   0  0  0  0  0  0  0  0  0  0  0  0
   -5.1760    5.0297    0.0000 C   0  0  0  0  0  0  0  0  0  0  0  0
   -0.0376    5.2346    0.0000 C   0  0  0  0  0  0  0  0  0  0  0  0
   -2.8222    5.8325    0.0000 O   0  0  0  0  0  0  0  0  0  0  0  0
   -6.1377    7.7181    0.0000 O   0  5  0  0  0  0  0  0  0  0  0  0
   -7.0658    6.6143    0.0000 O   0  0  0  0  0  0  0  0  0  0  0  0
    0.1296    6.0457    0.0000 C   0  0  0  0  0  0  0  0  0  0  0  0
   -3.9217    3.9718    0.0000 O   0  0  0  0  0  0  0  0  0  0  0  0
   -0.4766    6.5892    0.0000 C   0  0  0  0  0  0  0  0  0  0  0  0
   -5.8032    5.5481    0.0000 C   0  0  0  0  0  0  0  0  0  0  0  0
   -3.4827    6.3969    0.0000 Cl  0  0  0  0  0  0  0  0  0  0  0  0
   -1.9399    3.1232    0.0000 C   0  0  0  0  0  0  0  0  0  0  0  0
   -1.8772    6.8777    0.0000 C   0  0  0  0  0  0  0  0  0  0  0  0
  2  1  1  0  0  0  0
  3  2  1  0  0  0  0
  4  5  2  0  0  0  0
  5  6  1  0  0  0  0
  6  1  2  0  0  0  0
  7  1  1  0  0  0  0
  8 13  1  0  0  0  0
  9  7  1  0  0  0  0
 10  9  1  0  0  0  0
 11 10  2  0  0  0  0
 12  3  1  0  0  0  0
 13 23  1  0  0  0  0
 14 11  1  0  0  0  0
 15 10  1  0  0  0  0
 16  4  1  0  0  0  0
 17  2  2  0  0  0  0
 18  8  1  0  0  0  0
 19  8  2  0  0  0  0
 20 16  2  0  0  0  0
 21  9  2  0  0  0  0
 22 12  2  0  0  0  0
 23 15  2  0  0  0  0
 24 11  1  0  0  0  0
 25  6  1  0  0  0  0
 26 12  1  0  0  0  0
  3  4  1  0  0  0  0
 22 20  1  0  0  0  0
 13 14  2  0  0  0  0
M  CHG  2   8   1  18  -1
M  END
>  <IDNUMBER>
F2073-0219

>  <Chemical_Name>
2-chloro-N-{2,6-dimethyl-4-oxo-4H-pyrido[1,2-a]pyrimidin-3-yl}-4-nitrobenzamide

>  <PriceCoeff>
1.00

>  <CAS>
941923-28-0

>  <MW>
372.76

>  <Description>
solid

>  <FSP3>
0.12

>  <clogP>
1.76

>  <TPSA>
104.91

>  <Acceptor>
5

>  <Donor>
1

>  <RotBonds>
3

>  <HAC>
26

>  <Collection>
General

>  <PPDS>
+

$$$$
F2073-0321
  Mrv2219 10102508112D          

 26 28  0  0  0  0            999 V2000
    2.3258    0.4951    0.0000 C   0  0  0  0  0  0  0  0  0  0  0  0
    3.2120    1.6226    0.0000 N   0  0  0  0  0  0  0  0  0  0  0  0
    3.8693    1.1067    0.0000 C   0  0  0  0  0  0  0  0  0  0  0  0
    2.4506    1.3189    0.0000 C   0  0  0  0  0  0  0  0  0  0  0  0
    3.7570    0.2871    0.0000 N   0  0  0  0  0  0  0  0  0  0  0  0
    0.1290   -3.1745    0.0000 N   0  3  0  0  0  0  0  0  0  0  0  0
    0.8280   -2.7127    0.0000 C   0  0  0  0  0  0  0  0  0  0  0  0
    2.9873   -0.0167    0.0000 C   0  0  0  0  0  0  0  0  0  0  0  0
    1.5644    0.1955    0.0000 N   0  0  0  0  0  0  0  0  0  0  0  0
    3.3243    2.4297    0.0000 C   0  0  0  0  0  0  0  0  0  0  0  0
    1.4396   -0.6158    0.0000 C   0  0  0  0  0  0  0  0  0  0  0  0
    4.6224    1.4187    0.0000 C   0  0  0  0  0  0  0  0  0  0  0  0
    0.7863   -1.8889    0.0000 C   0  0  0  0  0  0  0  0  0  0  0  0
    1.4853   -1.4396    0.0000 C   0  0  0  0  0  0  0  0  0  0  0  0
    4.0982    2.7418    0.0000 C   0  0  0  0  0  0  0  0  0  0  0  0
    4.7472    2.2342    0.0000 C   0  0  0  0  0  0  0  0  0  0  0  0
    1.5644   -3.0955    0.0000 C   0  0  0  0  0  0  0  0  0  0  0  0
   -0.5991   -2.7876    0.0000 O   0  5  0  0  0  0  0  0  0  0  0  0
    1.8016    1.8306    0.0000 O   0  0  0  0  0  0  0  0  0  0  0  0
    0.1789   -3.9983    0.0000 O   0  0  0  0  0  0  0  0  0  0  0  0
    0.6490   -0.5908    0.0000 O   0  0  0  0  0  0  0  0  0  0  0  0
    2.2135   -1.8140    0.0000 C   0  0  0  0  0  0  0  0  0  0  0  0
    2.2634   -2.6336    0.0000 C   0  0  0  0  0  0  0  0  0  0  0  0
    1.6143   -3.9234    0.0000 Cl  0  0  0  0  0  0  0  0  0  0  0  0
    2.8625   -0.8280    0.0000 C   0  0  0  0  0  0  0  0  0  0  0  0
    5.5086    2.5421    0.0000 C   0  0  0  0  0  0  0  0  0  0  0  0
  2  4  1  0  0  0  0
  3  5  2  0  0  0  0
  4  1  1  0  0  0  0
  5  8  1  0  0  0  0
  6  7  1  0  0  0  0
  7 13  1  0  0  0  0
  8  1  2  0  0  0  0
  9  1  1  0  0  0  0
 10  2  1  0  0  0  0
 11  9  1  0  0  0  0
 12  3  1  0  0  0  0
 13 14  2  0  0  0  0
 14 11  1  0  0  0  0
 15 10  2  0  0  0  0
 16 12  2  0  0  0  0
 17 23  1  0  0  0  0
 18  6  1  0  0  0  0
 19  4  2  0  0  0  0
 20  6  2  0  0  0  0
 21 11  2  0  0  0  0
 22 14  1  0  0  0  0
 23 22  2  0  0  0  0
 24 17  1  0  0  0  0
 25  8  1  0  0  0  0
 26 16  1  0  0  0  0
  2  3  1  0  0  0  0
 15 16  1  0  0  0  0
 17  7  2  0  0  0  0
M  CHG  2   6   1  18  -1
M  END
>  <IDNUMBER>
F2073-0321

>  <Chemical_Name>
4-chloro-N-{2,8-dimethyl-4-oxo-4H-pyrido[1,2-a]pyrimidin-3-yl}-3-nitrobenzamide

>  <PriceCoeff>
1.00

>  <CAS>
920489-08-3

>  <MW>
372.76

>  <Description>
solid

>  <FSP3>
0.12

>  <clogP>
2.44

>  <TPSA>
104.91

>  <Acceptor>
5

>  <Donor>
1

>  <RotBonds>
3

>  <HAC>
26

>  <Collection>
General

>  <PPDS>
+

$$$$
F2073-0422
  Mrv2219 10102508112D          

 26 28  0  0  0  0            999 V2000
    2.3781    0.4998    0.0000 C   0  0  0  0  0  0  0  0  0  0  0  0
    3.2152    1.6700    0.0000 N   0  0  0  0  0  0  0  0  0  0  0  0
    3.8899    1.1745    0.0000 C   0  0  0  0  0  0  0  0  0  0  0  0
    2.4656    1.3244    0.0000 C   0  0  0  0  0  0  0  0  0  0  0  0
    3.8149    0.3498    0.0000 N   0  0  0  0  0  0  0  0  0  0  0  0
    3.0611    0.0125    0.0000 C   0  0  0  0  0  0  0  0  0  0  0  0
    0.3498   -3.2527    0.0000 N   0  3  0  0  0  0  0  0  0  0  0  0
    1.0162   -2.7737    0.0000 C   0  0  0  0  0  0  0  0  0  0  0  0
    1.6285    0.1624    0.0000 N   0  0  0  0  0  0  0  0  0  0  0  0
    1.5410   -0.6539    0.0000 C   0  0  0  0  0  0  0  0  0  0  0  0
    0.9413   -1.9491    0.0000 C   0  0  0  0  0  0  0  0  0  0  0  0
    4.6396    1.5118    0.0000 C   0  0  0  0  0  0  0  0  0  0  0  0
    1.6160   -1.4743    0.0000 C   0  0  0  0  0  0  0  0  0  0  0  0
    3.2985    2.4739    0.0000 C   0  0  0  0  0  0  0  0  0  0  0  0
    1.7742   -3.1153    0.0000 C   0  0  0  0  0  0  0  0  0  0  0  0
   -0.3998   -2.9112    0.0000 O   0  5  0  0  0  0  0  0  0  0  0  0
    1.7992    1.8075    0.0000 O   0  0  0  0  0  0  0  0  0  0  0  0
    0.4290   -4.0773    0.0000 O   0  0  0  0  0  0  0  0  0  0  0  0
    4.0523    2.8195    0.0000 C   0  0  0  0  0  0  0  0  0  0  0  0
    4.7228    2.3447    0.0000 C   0  0  0  0  0  0  0  0  0  0  0  0
    0.8371   -0.6247    0.0000 O   0  0  0  0  0  0  0  0  0  0  0  0
    2.3656   -1.8159    0.0000 C   0  0  0  0  0  0  0  0  0  0  0  0
    2.4406   -2.6280    0.0000 C   0  0  0  0  0  0  0  0  0  0  0  0
    1.8533   -3.9399    0.0000 Cl  0  0  0  0  0  0  0  0  0  0  0  0
    2.9736   -0.7996    0.0000 C   0  0  0  0  0  0  0  0  0  0  0  0
    5.3143    1.0453    0.0000 C   0  0  0  0  0  0  0  0  0  0  0  0
  2  4  1  0  0  0  0
  3  5  2  0  0  0  0
  4  1  1  0  0  0  0
  5  6  1  0  0  0  0
  6  1  2  0  0  0  0
  7  8  1  0  0  0  0
  8 11  1  0  0  0  0
  9  1  1  0  0  0  0
 10  9  1  0  0  0  0
 11 13  2  0  0  0  0
 12  3  1  0  0  0  0
 13 10  1  0  0  0  0
 14  2  1  0  0  0  0
 15 23  1  0  0  0  0
 16  7  1  0  0  0  0
 17  4  2  0  0  0  0
 18  7  2  0  0  0  0
 19 14  2  0  0  0  0
 20 12  2  0  0  0  0
 21 10  2  0  0  0  0
 22 13  1  0  0  0  0
 23 22  2  0  0  0  0
 24 15  1  0  0  0  0
 25  6  1  0  0  0  0
 26 12  1  0  0  0  0
  2  3  1  0  0  0  0
 19 20  1  0  0  0  0
 15  8  2  0  0  0  0
M  CHG  2   7   1  16  -1
M  END
>  <IDNUMBER>
F2073-0422

>  <Chemical_Name>
4-chloro-N-{2,9-dimethyl-4-oxo-4H-pyrido[1,2-a]pyrimidin-3-yl}-3-nitrobenzamide

>  <PriceCoeff>
1.00

>  <CAS>
897617-39-9

>  <MW>
372.76

>  <Description>
solid

>  <FSP3>
0.12

>  <clogP>
2.44

>  <TPSA>
104.91

>  <Acceptor>
5

>  <Donor>
1

>  <RotBonds>
3

>  <HAC>
26

>  <Collection>
General

>  <PPDS>
+

$$$$
F2093-0698
  Mrv2219 10102508112D          

 33 36  0  0  0  0            999 V2000
   -1.0894    3.3394    0.0000 C   0  0  0  0  0  0  0  0  0  0  0  0
    3.1216    2.4344    0.0000 N   0  0  0  0  0  0  0  0  0  0  0  0
   -2.4344    3.3394    0.0000 C   0  0  0  0  0  0  0  0  0  0  0  0
   -1.3450    2.5475    0.0000 N   0  0  0  0  0  0  0  0  0  0  0  0
   -0.2975    3.5908    0.0000 N   0  0  0  0  0  0  0  0  0  0  0  0
   -1.7598    3.8213    0.0000 S   0  0  0  0  0  0  0  0  0  0  0  0
   -2.1746    2.5475    0.0000 C   0  0  0  0  0  0  0  0  0  0  0  0
    2.5057    2.9875    0.0000 C   0  0  0  0  0  0  0  0  0  0  0  0
    0.3185    3.0377    0.0000 C   0  0  0  0  0  0  0  0  0  0  0  0
    3.9387    2.5726    0.0000 C   0  0  0  0  0  0  0  0  0  0  0  0
    2.9917    1.6173    0.0000 C   0  0  0  0  0  0  0  0  0  0  0  0
   -3.7919    2.8911    0.0000 N   0  0  0  0  0  0  0  0  0  0  0  0
   -3.2389    3.5028    0.0000 C   0  0  0  0  0  0  0  0  0  0  0  0
    1.7138    2.7361    0.0000 C   0  0  0  0  0  0  0  0  0  0  0  0
    1.1062    3.2891    0.0000 C   0  0  0  0  0  0  0  0  0  0  0  0
   -2.7235    1.9316    0.0000 C   0  0  0  0  0  0  0  0  0  0  0  0
    0.1425    2.2207    0.0000 O   0  0  0  0  0  0  0  0  0  0  0  0
    4.3241    1.8436    0.0000 C   0  0  0  0  0  0  0  0  0  0  0  0
    3.7501    1.2444    0.0000 C   0  0  0  0  0  0  0  0  0  0  0  0
    4.3158    3.3017    0.0000 O   0  0  0  0  0  0  0  0  0  0  0  0
    2.2626    1.2319    0.0000 O   0  0  0  0  0  0  0  0  0  0  0  0
   -3.5405    2.1076    0.0000 C   0  0  0  0  0  0  0  0  0  0  0  0
   -4.6090    3.0629    0.0000 C   0  0  0  0  0  0  0  0  0  0  0  0
    2.6817    3.7919    0.0000 C   0  0  0  0  0  0  0  0  0  0  0  0
   -5.1537    2.4469    0.0000 C   0  0  0  0  0  0  0  0  0  0  0  0
    1.2822    4.0979    0.0000 C   0  0  0  0  0  0  0  0  0  0  0  0
    2.0657    4.3493    0.0000 C   0  0  0  0  0  0  0  0  0  0  0  0
   -4.8981    1.6676    0.0000 C   0  0  0  0  0  0  0  0  0  0  0  0
   -5.9582    2.6229    0.0000 C   0  0  0  0  0  0  0  0  0  0  0  0
   -6.5030    2.0112    0.0000 C   0  0  0  0  0  0  0  0  0  0  0  0
   -5.4429    1.0559    0.0000 C   0  0  0  0  0  0  0  0  0  0  0  0
   -6.2516    1.2276    0.0000 C   0  0  0  0  0  0  0  0  0  0  0  0
    5.8410    2.7319    0.0000 Cl  0  0  0  0  0  0  0  0  0  0  0  0
  3  6  1  0  0  0  0
  4  1  2  0  0  0  0
  5  1  1  0  0  0  0
  6  1  1  0  0  0  0
  7  4  1  0  0  0  0
  8 14  1  0  0  0  0
  9  5  1  0  0  0  0
 10  2  1  0  0  0  0
 11  2  1  0  0  0  0
 12 13  1  0  0  0  0
 13  3  1  0  0  0  0
 14 15  2  0  0  0  0
 15  9  1  0  0  0  0
 16  7  1  0  0  0  0
 17  9  2  0  0  0  0
 18 10  1  0  0  0  0
 19 11  1  0  0  0  0
 20 10  2  0  0  0  0
 21 11  2  0  0  0  0
 22 16  1  0  0  0  0
 23 12  1  0  0  0  0
 24 27  1  0  0  0  0
 25 23  1  0  0  0  0
 26 15  1  0  0  0  0
 27 26  2  0  0  0  0
 28 25  1  0  0  0  0
 29 25  2  0  0  0  0
 30 29  1  0  0  0  0
 31 28  2  0  0  0  0
 32 30  2  0  0  0  0
  3  7  2  0  0  0  0
 22 12  1  0  0  0  0
  8 24  2  0  0  0  0
 18 19  1  0  0  0  0
 32 31  1  0  0  0  0
  2  8  1  0  0  0  0
M  END
>  <IDNUMBER>
F2093-0698

>  <Chemical_Name>
N-{5-benzyl-4H,5H,6H,7H-[1,3]thiazolo[5,4-c]pyridin-2-yl}-3-(2,5-dioxopyrrolidin-1-yl)benzamide hydrochloride

>  <PriceCoeff>
1.00

>  <CAS>
1189650-77-8

>  <MW>
446.52

>  <Description>
solid

>  <FSP3>
0.25

>  <clogP>
1.91

>  <TPSA>
110.85

>  <Acceptor>
4

>  <Donor>
2

>  <RotBonds>
5

>  <HAC>
32

>  <Collection>
General

>  <PPDS>
+

$$$$
F2098-0016
  Mrv2219 10102508112D          

 29 31  0  0  0  0            999 V2000
    3.9167   -1.1542    0.0000 S   0  0  0  0  0  0  0  0  0  0  0  0
    4.6417   -1.5667    0.0000 C   0  0  0  0  0  0  0  0  0  0  0  0
    8.1917   -8.5917    0.0000 N   0  3  0  0  0  0  0  0  0  0  0  0
    8.1917   -6.1167    0.0000 C   0  0  0  0  0  0  0  0  0  0  0  0
    8.1917   -5.2917    0.0000 C   0  0  0  0  0  0  0  0  0  0  0  0
    5.3542   -1.1542    0.0000 N   0  0  0  0  0  0  0  0  0  0  0  0
    7.4792   -6.5292    0.0000 C   0  0  0  0  0  0  0  0  0  0  0  0
    6.0667   -1.5667    0.0000 N   0  0  0  0  0  0  0  0  0  0  0  0
    8.1917   -7.7667    0.0000 C   0  0  0  0  0  0  0  0  0  0  0  0
    7.4792   -7.3542    0.0000 C   0  0  0  0  0  0  0  0  0  0  0  0
    7.4875   -4.8750    0.0000 N   0  0  0  0  0  0  0  0  0  0  0  0
    8.9042   -6.5292    0.0000 C   0  0  0  0  0  0  0  0  0  0  0  0
    6.0667   -2.3917    0.0000 C   0  0  0  0  0  0  0  0  0  0  0  0
    7.4792   -9.0042    0.0000 O   0  5  0  0  0  0  0  0  0  0  0  0
    3.5042   -1.8750    0.0000 O   0  0  0  0  0  0  0  0  0  0  0  0
    4.3375   -0.4292    0.0000 O   0  0  0  0  0  0  0  0  0  0  0  0
    6.7792   -2.8042    0.0000 C   0  0  0  0  0  0  0  0  0  0  0  0
    8.9042   -9.0042    0.0000 O   0  0  0  0  0  0  0  0  0  0  0  0
    4.6417   -2.3917    0.0000 C   0  0  0  0  0  0  0  0  0  0  0  0
    8.9042   -4.8792    0.0000 O   0  0  0  0  0  0  0  0  0  0  0  0
    7.4917   -4.0500    0.0000 C   0  0  0  0  0  0  0  0  0  0  0  0
    8.9042   -7.3542    0.0000 C   0  0  0  0  0  0  0  0  0  0  0  0
    6.7792   -3.6375    0.0000 C   0  0  0  0  0  0  0  0  0  0  0  0
    5.3542   -2.8042    0.0000 C   0  0  0  0  0  0  0  0  0  0  0  0
    6.7542   -6.1042    0.0000 Cl  0  0  0  0  0  0  0  0  0  0  0  0
    3.2000   -0.7375    0.0000 C   0  0  0  0  0  0  0  0  0  0  0  0
    7.5000   -2.3917    0.0000 C   0  0  0  0  0  0  0  0  0  0  0  0
    8.2167   -2.8042    0.0000 C   0  0  0  0  0  0  0  0  0  0  0  0
    8.2167   -3.6375    0.0000 C   0  0  0  0  0  0  0  0  0  0  0  0
  2  1  1  0  0  0  0
  3  9  1  0  0  0  0
  4  5  1  0  0  0  0
  5 11  1  0  0  0  0
  6  2  2  0  0  0  0
  7  4  2  0  0  0  0
  8  6  1  0  0  0  0
  9 22  1  0  0  0  0
 10  7  1  0  0  0  0
 11 21  1  0  0  0  0
 12  4  1  0  0  0  0
 13 24  1  0  0  0  0
 14  3  1  0  0  0  0
 15  1  2  0  0  0  0
 16  1  2  0  0  0  0
 17 13  1  0  0  0  0
 18  3  2  0  0  0  0
 19  2  1  0  0  0  0
 20  5  2  0  0  0  0
 21 23  1  0  0  0  0
 22 12  2  0  0  0  0
 23 17  2  0  0  0  0
 24 19  2  0  0  0  0
 25  7  1  0  0  0  0
 26  1  1  0  0  0  0
 27 17  1  0  0  0  0
 28 27  2  0  0  0  0
 29 28  1  0  0  0  0
 13  8  2  0  0  0  0
 21 29  2  0  0  0  0
 10  9  2  0  0  0  0
M  CHG  2   3   1  14  -1
M  END
>  <IDNUMBER>
F2098-0016

>  <Chemical_Name>
2-chloro-N-[3-(6-methanesulfonylpyridazin-3-yl)phenyl]-4-nitrobenzamide

>  <PriceCoeff>
1.00

>  <CAS>
946327-29-3

>  <MW>
432.84

>  <Description>
solid

>  <FSP3>
0.06

>  <clogP>
1.52

>  <TPSA>
140.54

>  <Acceptor>
7

>  <Donor>
1

>  <RotBonds>
5

>  <HAC>
29

>  <Collection>
General

>  <PPDS>
+

$$$$
F2098-0017
  Mrv2219 10102508112D          

 29 31  0  0  0  0            999 V2000
   12.4625   -3.6165    0.0000 S   0  0  0  0  0  0  0  0  0  0  0  0
    5.3168   -2.7852    0.0000 N   0  3  0  0  0  0  0  0  0  0  0  0
    5.3168   -3.6083    0.0000 C   0  0  0  0  0  0  0  0  0  0  0  0
   11.7392   -4.0323    0.0000 C   0  0  0  0  0  0  0  0  0  0  0  0
   11.7392   -4.8553    0.0000 N   0  0  0  0  0  0  0  0  0  0  0  0
    6.7509   -5.2669    0.0000 C   0  0  0  0  0  0  0  0  0  0  0  0
    6.0276   -4.0198    0.0000 C   0  0  0  0  0  0  0  0  0  0  0  0
   11.0284   -5.2669    0.0000 N   0  0  0  0  0  0  0  0  0  0  0  0
    6.0276   -4.8511    0.0000 C   0  0  0  0  0  0  0  0  0  0  0  0
    7.4617   -4.8553    0.0000 N   0  0  0  0  0  0  0  0  0  0  0  0
    4.6059   -4.0198    0.0000 C   0  0  0  0  0  0  0  0  0  0  0  0
   10.3051   -4.8553    0.0000 C   0  0  0  0  0  0  0  0  0  0  0  0
    6.0276   -2.3736    0.0000 O   0  5  0  0  0  0  0  0  0  0  0  0
   12.8823   -4.3398    0.0000 O   0  0  0  0  0  0  0  0  0  0  0  0
   12.0510   -2.8932    0.0000 O   0  0  0  0  0  0  0  0  0  0  0  0
    9.6025   -5.2669    0.0000 C   0  0  0  0  0  0  0  0  0  0  0  0
    4.6017   -2.3736    0.0000 O   0  0  0  0  0  0  0  0  0  0  0  0
   11.0242   -3.6207    0.0000 C   0  0  0  0  0  0  0  0  0  0  0  0
    8.1726   -5.2669    0.0000 C   0  0  0  0  0  0  0  0  0  0  0  0
    6.7467   -6.0982    0.0000 O   0  0  0  0  0  0  0  0  0  0  0  0
    8.8834   -4.8553    0.0000 C   0  0  0  0  0  0  0  0  0  0  0  0
    5.3168   -5.2627    0.0000 C   0  0  0  0  0  0  0  0  0  0  0  0
   10.3051   -4.0323    0.0000 C   0  0  0  0  0  0  0  0  0  0  0  0
    4.6059   -4.8511    0.0000 C   0  0  0  0  0  0  0  0  0  0  0  0
   13.1858   -3.1967    0.0000 C   0  0  0  0  0  0  0  0  0  0  0  0
    3.8826   -3.6041    0.0000 Cl  0  0  0  0  0  0  0  0  0  0  0  0
    9.6025   -6.0982    0.0000 C   0  0  0  0  0  0  0  0  0  0  0  0
    8.8834   -6.5098    0.0000 C   0  0  0  0  0  0  0  0  0  0  0  0
    8.1726   -6.0982    0.0000 C   0  0  0  0  0  0  0  0  0  0  0  0
  2  3  1  0  0  0  0
  3  7  1  0  0  0  0
  4  1  1  0  0  0  0
  5  4  2  0  0  0  0
  6 10  1  0  0  0  0
  7  9  2  0  0  0  0
  8  5  1  0  0  0  0
  9  6  1  0  0  0  0
 10 19  1  0  0  0  0
 11 24  1  0  0  0  0
 12 23  1  0  0  0  0
 13  2  1  0  0  0  0
 14  1  2  0  0  0  0
 15  1  2  0  0  0  0
 16 12  1  0  0  0  0
 17  2  2  0  0  0  0
 18  4  1  0  0  0  0
 19 21  1  0  0  0  0
 20  6  2  0  0  0  0
 21 16  2  0  0  0  0
 22  9  1  0  0  0  0
 23 18  2  0  0  0  0
 24 22  2  0  0  0  0
 25  1  1  0  0  0  0
 26 11  1  0  0  0  0
 27 16  1  0  0  0  0
 28 27  2  0  0  0  0
 29 28  1  0  0  0  0
 12  8  2  0  0  0  0
 19 29  2  0  0  0  0
  3 11  2  0  0  0  0
M  CHG  2   2   1  13  -1
M  END
>  <IDNUMBER>
F2098-0017

>  <Chemical_Name>
4-chloro-N-[3-(6-methanesulfonylpyridazin-3-yl)phenyl]-3-nitrobenzamide

>  <PriceCoeff>
1.00

>  <CAS>
946376-15-4

>  <MW>
432.84

>  <Description>
solid

>  <FSP3>
0.06

>  <clogP>
2.20

>  <TPSA>
140.54

>  <Acceptor>
7

>  <Donor>
1

>  <RotBonds>
5

>  <HAC>
29

>  <Collection>
General

>  <PPDS>
+

$$$$
F2098-0132
  Mrv2219 10102508112D          

 30 32  0  0  0  0            999 V2000
    4.2667   -1.1542    0.0000 S   0  0  0  0  0  0  0  0  0  0  0  0
    4.9875   -1.5667    0.0000 C   0  0  0  0  0  0  0  0  0  0  0  0
    8.5375   -8.5917    0.0000 N   0  3  0  0  0  0  0  0  0  0  0  0
    8.5375   -6.1167    0.0000 C   0  0  0  0  0  0  0  0  0  0  0  0
    8.5417   -5.2917    0.0000 C   0  0  0  0  0  0  0  0  0  0  0  0
    5.7000   -1.1542    0.0000 N   0  0  0  0  0  0  0  0  0  0  0  0
    7.8250   -6.5292    0.0000 C   0  0  0  0  0  0  0  0  0  0  0  0
    6.4167   -1.5667    0.0000 N   0  0  0  0  0  0  0  0  0  0  0  0
    8.5375   -7.7667    0.0000 C   0  0  0  0  0  0  0  0  0  0  0  0
    7.8250   -7.3542    0.0000 C   0  0  0  0  0  0  0  0  0  0  0  0
    7.8292   -4.8750    0.0000 N   0  0  0  0  0  0  0  0  0  0  0  0
    9.2542   -6.5292    0.0000 C   0  0  0  0  0  0  0  0  0  0  0  0
    6.4167   -2.3917    0.0000 C   0  0  0  0  0  0  0  0  0  0  0  0
    7.8250   -9.0042    0.0000 O   0  5  0  0  0  0  0  0  0  0  0  0
    3.8500   -1.8750    0.0000 O   0  0  0  0  0  0  0  0  0  0  0  0
    4.6792   -0.4292    0.0000 O   0  0  0  0  0  0  0  0  0  0  0  0
    7.1292   -2.8042    0.0000 C   0  0  0  0  0  0  0  0  0  0  0  0
    9.2542   -9.0042    0.0000 O   0  0  0  0  0  0  0  0  0  0  0  0
    4.9875   -2.3917    0.0000 C   0  0  0  0  0  0  0  0  0  0  0  0
    9.2542   -4.8792    0.0000 O   0  0  0  0  0  0  0  0  0  0  0  0
    7.8417   -4.0500    0.0000 C   0  0  0  0  0  0  0  0  0  0  0  0
    9.2542   -7.3542    0.0000 C   0  0  0  0  0  0  0  0  0  0  0  0
    7.1292   -3.6375    0.0000 C   0  0  0  0  0  0  0  0  0  0  0  0
    5.7000   -2.8042    0.0000 C   0  0  0  0  0  0  0  0  0  0  0  0
    7.1042   -6.1042    0.0000 Cl  0  0  0  0  0  0  0  0  0  0  0  0
    3.5417   -0.7375    0.0000 C   0  0  0  0  0  0  0  0  0  0  0  0
    7.8417   -2.3917    0.0000 C   0  0  0  0  0  0  0  0  0  0  0  0
    8.5625   -2.8042    0.0000 C   0  0  0  0  0  0  0  0  0  0  0  0
    8.5625   -3.6375    0.0000 C   0  0  0  0  0  0  0  0  0  0  0  0
    3.5417    0.0958    0.0000 C   0  0  0  0  0  0  0  0  0  0  0  0
  2  1  1  0  0  0  0
  3  9  1  0  0  0  0
  4  5  1  0  0  0  0
  5 11  1  0  0  0  0
  6  2  2  0  0  0  0
  7  4  2  0  0  0  0
  8  6  1  0  0  0  0
  9 22  1  0  0  0  0
 10  7  1  0  0  0  0
 11 21  1  0  0  0  0
 12  4  1  0  0  0  0
 13 24  1  0  0  0  0
 14  3  1  0  0  0  0
 15  1  2  0  0  0  0
 16  1  2  0  0  0  0
 17 13  1  0  0  0  0
 18  3  2  0  0  0  0
 19  2  1  0  0  0  0
 20  5  2  0  0  0  0
 21 23  1  0  0  0  0
 22 12  2  0  0  0  0
 23 17  2  0  0  0  0
 24 19  2  0  0  0  0
 25  7  1  0  0  0  0
 26  1  1  0  0  0  0
 27 17  1  0  0  0  0
 28 27  2  0  0  0  0
 29 28  1  0  0  0  0
 30 26  1  0  0  0  0
 13  8  2  0  0  0  0
 21 29  2  0  0  0  0
 10  9  2  0  0  0  0
M  CHG  2   3   1  14  -1
M  END
>  <IDNUMBER>
F2098-0132

>  <Chemical_Name>
2-chloro-N-{3-[6-(ethanesulfonyl)pyridazin-3-yl]phenyl}-4-nitrobenzamide

>  <PriceCoeff>
1.00

>  <CAS>
946272-41-9

>  <MW>
446.86

>  <Description>
solid

>  <FSP3>
0.11

>  <clogP>
2.05

>  <TPSA>
140.54

>  <Acceptor>
7

>  <Donor>
1

>  <RotBonds>
6

>  <HAC>
30

>  <Collection>
General

>  <PPDS>
+

$$$$
F2098-0133
  Mrv2219 10102508112D          

 30 32  0  0  0  0            999 V2000
   12.8242   -3.6165    0.0000 S   0  0  0  0  0  0  0  0  0  0  0  0
    5.6742   -2.7852    0.0000 N   0  3  0  0  0  0  0  0  0  0  0  0
    5.6742   -3.6083    0.0000 C   0  0  0  0  0  0  0  0  0  0  0  0
   12.1009   -4.0323    0.0000 C   0  0  0  0  0  0  0  0  0  0  0  0
   12.1009   -4.8553    0.0000 N   0  0  0  0  0  0  0  0  0  0  0  0
    7.1084   -5.2669    0.0000 C   0  0  0  0  0  0  0  0  0  0  0  0
    6.3892   -4.0198    0.0000 C   0  0  0  0  0  0  0  0  0  0  0  0
   11.3858   -5.2669    0.0000 N   0  0  0  0  0  0  0  0  0  0  0  0
    6.3892   -4.8511    0.0000 C   0  0  0  0  0  0  0  0  0  0  0  0
    7.8192   -4.8553    0.0000 N   0  0  0  0  0  0  0  0  0  0  0  0
    4.9634   -4.0198    0.0000 C   0  0  0  0  0  0  0  0  0  0  0  0
   10.6667   -4.8553    0.0000 C   0  0  0  0  0  0  0  0  0  0  0  0
    6.3851   -2.3736    0.0000 O   0  5  0  0  0  0  0  0  0  0  0  0
   13.2357   -4.3398    0.0000 O   0  0  0  0  0  0  0  0  0  0  0  0
   12.4085   -2.8932    0.0000 O   0  0  0  0  0  0  0  0  0  0  0  0
    9.9559   -5.2669    0.0000 C   0  0  0  0  0  0  0  0  0  0  0  0
    4.9551   -2.3736    0.0000 O   0  0  0  0  0  0  0  0  0  0  0  0
   11.3776   -3.6207    0.0000 C   0  0  0  0  0  0  0  0  0  0  0  0
    8.5342   -5.2669    0.0000 C   0  0  0  0  0  0  0  0  0  0  0  0
    7.1001   -6.0982    0.0000 O   0  0  0  0  0  0  0  0  0  0  0  0
    9.2451   -4.8553    0.0000 C   0  0  0  0  0  0  0  0  0  0  0  0
    5.6742   -5.2627    0.0000 C   0  0  0  0  0  0  0  0  0  0  0  0
   10.6667   -4.0323    0.0000 C   0  0  0  0  0  0  0  0  0  0  0  0
    4.9634   -4.8511    0.0000 C   0  0  0  0  0  0  0  0  0  0  0  0
   13.5475   -3.1967    0.0000 C   0  0  0  0  0  0  0  0  0  0  0  0
    4.2443   -3.6041    0.0000 Cl  0  0  0  0  0  0  0  0  0  0  0  0
    9.9559   -6.0982    0.0000 C   0  0  0  0  0  0  0  0  0  0  0  0
    9.2451   -6.5098    0.0000 C   0  0  0  0  0  0  0  0  0  0  0  0
    8.5342   -6.0982    0.0000 C   0  0  0  0  0  0  0  0  0  0  0  0
   13.5475   -2.3695    0.0000 C   0  0  0  0  0  0  0  0  0  0  0  0
  2  3  1  0  0  0  0
  3  7  1  0  0  0  0
  4  1  1  0  0  0  0
  5  4  2  0  0  0  0
  6 10  1  0  0  0  0
  7  9  2  0  0  0  0
  8  5  1  0  0  0  0
  9  6  1  0  0  0  0
 10 19  1  0  0  0  0
 11 24  1  0  0  0  0
 12 23  1  0  0  0  0
 13  2  1  0  0  0  0
 14  1  2  0  0  0  0
 15  1  2  0  0  0  0
 16 12  1  0  0  0  0
 17  2  2  0  0  0  0
 18  4  1  0  0  0  0
 19 21  1  0  0  0  0
 20  6  2  0  0  0  0
 21 16  2  0  0  0  0
 22  9  1  0  0  0  0
 23 18  2  0  0  0  0
 24 22  2  0  0  0  0
 25  1  1  0  0  0  0
 26 11  1  0  0  0  0
 27 16  1  0  0  0  0
 28 27  2  0  0  0  0
 29 28  1  0  0  0  0
 30 25  1  0  0  0  0
 12  8  2  0  0  0  0
 19 29  2  0  0  0  0
  3 11  2  0  0  0  0
M  CHG  2   2   1  13  -1
M  END
>  <IDNUMBER>
F2098-0133

>  <Chemical_Name>
4-chloro-N-{3-[6-(ethanesulfonyl)pyridazin-3-yl]phenyl}-3-nitrobenzamide

>  <PriceCoeff>
1.00

>  <CAS>
946272-45-3

>  <MW>
446.86

>  <Description>
solid

>  <FSP3>
0.11

>  <clogP>
2.73

>  <TPSA>
140.54

>  <Acceptor>
7

>  <Donor>
1

>  <RotBonds>
6

>  <HAC>
30

>  <Collection>
General

>  <PPDS>
+

$$$$
F2099-0016
  Mrv2219 10102508112D          

 29 31  0  0  0  0            999 V2000
   -3.4722   10.7099    0.0000 S   0  0  0  0  0  0  0  0  0  0  0  0
   -3.4722    9.8854    0.0000 C   0  0  0  0  0  0  0  0  0  0  0  0
   -2.7576    1.2322    0.0000 N   0  3  0  0  0  0  0  0  0  0  0  0
   -2.7576    3.7058    0.0000 C   0  0  0  0  0  0  0  0  0  0  0  0
   -2.7576    4.5259    0.0000 C   0  0  0  0  0  0  0  0  0  0  0  0
   -2.7576    9.4731    0.0000 N   0  0  0  0  0  0  0  0  0  0  0  0
   -3.4722    3.2936    0.0000 C   0  0  0  0  0  0  0  0  0  0  0  0
   -2.7576    8.6486    0.0000 N   0  0  0  0  0  0  0  0  0  0  0  0
   -2.7576    2.0567    0.0000 C   0  0  0  0  0  0  0  0  0  0  0  0
   -3.4722    2.4690    0.0000 C   0  0  0  0  0  0  0  0  0  0  0  0
   -3.4722    4.9381    0.0000 N   0  0  0  0  0  0  0  0  0  0  0  0
   -2.0430    3.2936    0.0000 C   0  0  0  0  0  0  0  0  0  0  0  0
   -3.4722    0.8199    0.0000 O   0  5  0  0  0  0  0  0  0  0  0  0
   -3.4722    8.2363    0.0000 C   0  0  0  0  0  0  0  0  0  0  0  0
   -4.2967   10.7099    0.0000 O   0  0  0  0  0  0  0  0  0  0  0  0
   -2.6477   10.7099    0.0000 O   0  0  0  0  0  0  0  0  0  0  0  0
   -2.0430    0.8199    0.0000 O   0  0  0  0  0  0  0  0  0  0  0  0
   -4.1868    9.4731    0.0000 C   0  0  0  0  0  0  0  0  0  0  0  0
   -2.0476    4.9381    0.0000 O   0  0  0  0  0  0  0  0  0  0  0  0
   -3.4722    7.4118    0.0000 C   0  0  0  0  0  0  0  0  0  0  0  0
   -2.0430    2.4690    0.0000 C   0  0  0  0  0  0  0  0  0  0  0  0
   -4.1868    8.6486    0.0000 C   0  0  0  0  0  0  0  0  0  0  0  0
   -3.4722    5.7627    0.0000 C   0  0  0  0  0  0  0  0  0  0  0  0
   -2.7576    6.9995    0.0000 C   0  0  0  0  0  0  0  0  0  0  0  0
   -4.1868    6.9995    0.0000 C   0  0  0  0  0  0  0  0  0  0  0  0
   -4.1868    3.7104    0.0000 Cl  0  0  0  0  0  0  0  0  0  0  0  0
   -3.4722   11.5345    0.0000 C   0  0  0  0  0  0  0  0  0  0  0  0
   -4.1868    6.1749    0.0000 C   0  0  0  0  0  0  0  0  0  0  0  0
   -2.7576    6.1749    0.0000 C   0  0  0  0  0  0  0  0  0  0  0  0
  2  1  1  0  0  0  0
  3  9  1  0  0  0  0
  4  5  1  0  0  0  0
  5 11  1  0  0  0  0
  6  2  2  0  0  0  0
  7  4  2  0  0  0  0
  8  6  1  0  0  0  0
  9 21  1  0  0  0  0
 10  7  1  0  0  0  0
 11 23  1  0  0  0  0
 12  4  1  0  0  0  0
 13  3  1  0  0  0  0
 14 22  1  0  0  0  0
 15  1  2  0  0  0  0
 16  1  2  0  0  0  0
 17  3  2  0  0  0  0
 18  2  1  0  0  0  0
 19  5  2  0  0  0  0
 20 14  1  0  0  0  0
 21 12  2  0  0  0  0
 22 18  2  0  0  0  0
 23 28  2  0  0  0  0
 24 20  1  0  0  0  0
 25 20  2  0  0  0  0
 26  7  1  0  0  0  0
 27  1  1  0  0  0  0
 28 25  1  0  0  0  0
 29 24  2  0  0  0  0
 14  8  2  0  0  0  0
 29 23  1  0  0  0  0
 10  9  2  0  0  0  0
M  CHG  2   3   1  13  -1
M  END
>  <IDNUMBER>
F2099-0016

>  <Chemical_Name>
2-chloro-N-[4-(6-methanesulfonylpyridazin-3-yl)phenyl]-4-nitrobenzamide

>  <PriceCoeff>
1.00

>  <CAS>
921795-74-6

>  <MW>
432.84

>  <Description>
solid

>  <FSP3>
0.06

>  <clogP>
1.52

>  <TPSA>
140.54

>  <Acceptor>
7

>  <Donor>
1

>  <RotBonds>
5

>  <HAC>
29

>  <Collection>
General

>  <PPDS>
+

$$$$
F2099-0017
  Mrv2219 10102508112D          

 29 31  0  0  0  0            999 V2000
   -3.4722   10.7099    0.0000 S   0  0  0  0  0  0  0  0  0  0  0  0
   -4.1868    2.0430    0.0000 N   0  3  0  0  0  0  0  0  0  0  0  0
   -3.4722    2.4690    0.0000 C   0  0  0  0  0  0  0  0  0  0  0  0
   -3.4722    9.8854    0.0000 C   0  0  0  0  0  0  0  0  0  0  0  0
   -2.7576    9.4731    0.0000 N   0  0  0  0  0  0  0  0  0  0  0  0
   -2.7576    4.5259    0.0000 C   0  0  0  0  0  0  0  0  0  0  0  0
   -3.4722    3.2936    0.0000 C   0  0  0  0  0  0  0  0  0  0  0  0
   -2.7576    8.6486    0.0000 N   0  0  0  0  0  0  0  0  0  0  0  0
   -2.7576    3.7058    0.0000 C   0  0  0  0  0  0  0  0  0  0  0  0
   -3.4722    4.9381    0.0000 N   0  0  0  0  0  0  0  0  0  0  0  0
   -2.7576    2.0567    0.0000 C   0  0  0  0  0  0  0  0  0  0  0  0
   -4.9152    2.4553    0.0000 O   0  5  0  0  0  0  0  0  0  0  0  0
   -3.4722    8.2363    0.0000 C   0  0  0  0  0  0  0  0  0  0  0  0
   -2.6477   10.7099    0.0000 O   0  0  0  0  0  0  0  0  0  0  0  0
   -4.2967   10.7099    0.0000 O   0  0  0  0  0  0  0  0  0  0  0  0
   -4.1777    1.2093    0.0000 O   0  0  0  0  0  0  0  0  0  0  0  0
   -4.1868    9.4731    0.0000 C   0  0  0  0  0  0  0  0  0  0  0  0
   -3.4722    7.4118    0.0000 C   0  0  0  0  0  0  0  0  0  0  0  0
   -2.0476    4.9381    0.0000 O   0  0  0  0  0  0  0  0  0  0  0  0
   -2.0430    3.2936    0.0000 C   0  0  0  0  0  0  0  0  0  0  0  0
   -4.1868    8.6486    0.0000 C   0  0  0  0  0  0  0  0  0  0  0  0
   -2.0430    2.4690    0.0000 C   0  0  0  0  0  0  0  0  0  0  0  0
   -3.4722    5.7627    0.0000 C   0  0  0  0  0  0  0  0  0  0  0  0
   -2.7576    6.9995    0.0000 C   0  0  0  0  0  0  0  0  0  0  0  0
   -4.1868    6.9995    0.0000 C   0  0  0  0  0  0  0  0  0  0  0  0
   -3.4722   11.5345    0.0000 C   0  0  0  0  0  0  0  0  0  0  0  0
   -2.7576    1.2322    0.0000 Cl  0  0  0  0  0  0  0  0  0  0  0  0
   -4.1868    6.1749    0.0000 C   0  0  0  0  0  0  0  0  0  0  0  0
   -2.7576    6.1749    0.0000 C   0  0  0  0  0  0  0  0  0  0  0  0
  2  3  1  0  0  0  0
  3  7  1  0  0  0  0
  4  1  1  0  0  0  0
  5  4  2  0  0  0  0
  6 10  1  0  0  0  0
  7  9  2  0  0  0  0
  8  5  1  0  0  0  0
  9  6  1  0  0  0  0
 10 23  1  0  0  0  0
 11 22  1  0  0  0  0
 12  2  1  0  0  0  0
 13 21  1  0  0  0  0
 14  1  2  0  0  0  0
 15  1  2  0  0  0  0
 16  2  2  0  0  0  0
 17  4  1  0  0  0  0
 18 13  1  0  0  0  0
 19  6  2  0  0  0  0
 20  9  1  0  0  0  0
 21 17  2  0  0  0  0
 22 20  2  0  0  0  0
 23 28  2  0  0  0  0
 24 18  1  0  0  0  0
 25 18  2  0  0  0  0
 26  1  1  0  0  0  0
 27 11  1  0  0  0  0
 28 25  1  0  0  0  0
 29 24  2  0  0  0  0
 13  8  2  0  0  0  0
 29 23  1  0  0  0  0
  3 11  2  0  0  0  0
M  CHG  2   2   1  12  -1
M  END
>  <IDNUMBER>
F2099-0017

>  <Chemical_Name>
4-chloro-N-[4-(6-methanesulfonylpyridazin-3-yl)phenyl]-3-nitrobenzamide

>  <PriceCoeff>
1.00

>  <CAS>
921542-69-0

>  <MW>
432.84

>  <Description>
solid

>  <FSP3>
0.06

>  <clogP>
2.20

>  <TPSA>
140.54

>  <Acceptor>
7

>  <Donor>
1

>  <RotBonds>
5

>  <HAC>
29

>  <Collection>
General

>  <PPDS>
+

$$$$
F2099-0132
  Mrv2219 10102508112D          

 30 32  0  0  0  0            999 V2000
   -3.4722   10.7099    0.0000 S   0  0  0  0  0  0  0  0  0  0  0  0
   -3.4722    9.8854    0.0000 C   0  0  0  0  0  0  0  0  0  0  0  0
   -2.7576    1.2322    0.0000 N   0  3  0  0  0  0  0  0  0  0  0  0
   -2.7576    3.7058    0.0000 C   0  0  0  0  0  0  0  0  0  0  0  0
   -2.7576    4.5259    0.0000 C   0  0  0  0  0  0  0  0  0  0  0  0
   -2.7576    9.4731    0.0000 N   0  0  0  0  0  0  0  0  0  0  0  0
   -3.4722    3.2936    0.0000 C   0  0  0  0  0  0  0  0  0  0  0  0
   -2.7576    8.6486    0.0000 N   0  0  0  0  0  0  0  0  0  0  0  0
   -2.7576    2.0567    0.0000 C   0  0  0  0  0  0  0  0  0  0  0  0
   -3.4722    2.4690    0.0000 C   0  0  0  0  0  0  0  0  0  0  0  0
   -3.4722    4.9381    0.0000 N   0  0  0  0  0  0  0  0  0  0  0  0
   -2.0430    3.2936    0.0000 C   0  0  0  0  0  0  0  0  0  0  0  0
   -3.4722    0.8199    0.0000 O   0  5  0  0  0  0  0  0  0  0  0  0
   -3.4722    8.2363    0.0000 C   0  0  0  0  0  0  0  0  0  0  0  0
   -4.2967   10.7099    0.0000 O   0  0  0  0  0  0  0  0  0  0  0  0
   -2.6477   10.7099    0.0000 O   0  0  0  0  0  0  0  0  0  0  0  0
   -2.0430    0.8199    0.0000 O   0  0  0  0  0  0  0  0  0  0  0  0
   -4.1868    9.4731    0.0000 C   0  0  0  0  0  0  0  0  0  0  0  0
   -2.0476    4.9381    0.0000 O   0  0  0  0  0  0  0  0  0  0  0  0
   -3.4722    7.4118    0.0000 C   0  0  0  0  0  0  0  0  0  0  0  0
   -2.0430    2.4690    0.0000 C   0  0  0  0  0  0  0  0  0  0  0  0
   -4.1868    8.6486    0.0000 C   0  0  0  0  0  0  0  0  0  0  0  0
   -3.4722    5.7627    0.0000 C   0  0  0  0  0  0  0  0  0  0  0  0
   -2.7576    6.9995    0.0000 C   0  0  0  0  0  0  0  0  0  0  0  0
   -4.1868    6.9995    0.0000 C   0  0  0  0  0  0  0  0  0  0  0  0
   -4.1868    3.7104    0.0000 Cl  0  0  0  0  0  0  0  0  0  0  0  0
   -3.4722   11.5345    0.0000 C   0  0  0  0  0  0  0  0  0  0  0  0
   -4.1868    6.1749    0.0000 C   0  0  0  0  0  0  0  0  0  0  0  0
   -2.7576    6.1749    0.0000 C   0  0  0  0  0  0  0  0  0  0  0  0
   -4.1777   11.9467    0.0000 C   0  0  0  0  0  0  0  0  0  0  0  0
  2  1  1  0  0  0  0
  3  9  1  0  0  0  0
  4  5  1  0  0  0  0
  5 11  1  0  0  0  0
  6  2  2  0  0  0  0
  7  4  2  0  0  0  0
  8  6  1  0  0  0  0
  9 21  1  0  0  0  0
 10  7  1  0  0  0  0
 11 23  1  0  0  0  0
 12  4  1  0  0  0  0
 13  3  1  0  0  0  0
 14 22  1  0  0  0  0
 15  1  2  0  0  0  0
 16  1  2  0  0  0  0
 17  3  2  0  0  0  0
 18  2  1  0  0  0  0
 19  5  2  0  0  0  0
 20 14  1  0  0  0  0
 21 12  2  0  0  0  0
 22 18  2  0  0  0  0
 23 28  2  0  0  0  0
 24 20  1  0  0  0  0
 25 20  2  0  0  0  0
 26  7  1  0  0  0  0
 27  1  1  0  0  0  0
 28 25  1  0  0  0  0
 29 24  2  0  0  0  0
 30 27  1  0  0  0  0
 14  8  2  0  0  0  0
 29 23  1  0  0  0  0
 10  9  2  0  0  0  0
M  CHG  2   3   1  13  -1
M  END
>  <IDNUMBER>
F2099-0132

>  <Chemical_Name>
2-chloro-N-{4-[6-(ethanesulfonyl)pyridazin-3-yl]phenyl}-4-nitrobenzamide

>  <PriceCoeff>
1.00

>  <CAS>
1005294-64-3

>  <MW>
446.86

>  <Description>
solid

>  <FSP3>
0.11

>  <clogP>
2.05

>  <TPSA>
140.54

>  <Acceptor>
7

>  <Donor>
1

>  <RotBonds>
6

>  <HAC>
30

>  <Collection>
General

>  <PPDS>
+

$$$$
F2099-0133
  Mrv2219 10102508112D          

 30 32  0  0  0  0            999 V2000
   -3.4722   10.7099    0.0000 S   0  0  0  0  0  0  0  0  0  0  0  0
   -4.1868    2.0430    0.0000 N   0  3  0  0  0  0  0  0  0  0  0  0
   -3.4722    2.4690    0.0000 C   0  0  0  0  0  0  0  0  0  0  0  0
   -3.4722    9.8854    0.0000 C   0  0  0  0  0  0  0  0  0  0  0  0
   -2.7576    9.4731    0.0000 N   0  0  0  0  0  0  0  0  0  0  0  0
   -2.7576    4.5259    0.0000 C   0  0  0  0  0  0  0  0  0  0  0  0
   -3.4722    3.2936    0.0000 C   0  0  0  0  0  0  0  0  0  0  0  0
   -2.7576    8.6486    0.0000 N   0  0  0  0  0  0  0  0  0  0  0  0
   -2.7576    3.7058    0.0000 C   0  0  0  0  0  0  0  0  0  0  0  0
   -3.4722    4.9381    0.0000 N   0  0  0  0  0  0  0  0  0  0  0  0
   -2.7576    2.0567    0.0000 C   0  0  0  0  0  0  0  0  0  0  0  0
   -4.9152    2.4553    0.0000 O   0  5  0  0  0  0  0  0  0  0  0  0
   -3.4722    8.2363    0.0000 C   0  0  0  0  0  0  0  0  0  0  0  0
   -2.6477   10.7099    0.0000 O   0  0  0  0  0  0  0  0  0  0  0  0
   -4.2967   10.7099    0.0000 O   0  0  0  0  0  0  0  0  0  0  0  0
   -4.1777    1.2093    0.0000 O   0  0  0  0  0  0  0  0  0  0  0  0
   -4.1868    9.4731    0.0000 C   0  0  0  0  0  0  0  0  0  0  0  0
   -3.4722    7.4118    0.0000 C   0  0  0  0  0  0  0  0  0  0  0  0
   -2.0476    4.9381    0.0000 O   0  0  0  0  0  0  0  0  0  0  0  0
   -2.0430    3.2936    0.0000 C   0  0  0  0  0  0  0  0  0  0  0  0
   -4.1868    8.6486    0.0000 C   0  0  0  0  0  0  0  0  0  0  0  0
   -2.0430    2.4690    0.0000 C   0  0  0  0  0  0  0  0  0  0  0  0
   -3.4722    5.7627    0.0000 C   0  0  0  0  0  0  0  0  0  0  0  0
   -2.7576    6.9995    0.0000 C   0  0  0  0  0  0  0  0  0  0  0  0
   -4.1868    6.9995    0.0000 C   0  0  0  0  0  0  0  0  0  0  0  0
   -3.4722   11.5345    0.0000 C   0  0  0  0  0  0  0  0  0  0  0  0
   -2.7576    1.2322    0.0000 Cl  0  0  0  0  0  0  0  0  0  0  0  0
   -4.1868    6.1749    0.0000 C   0  0  0  0  0  0  0  0  0  0  0  0
   -2.7576    6.1749    0.0000 C   0  0  0  0  0  0  0  0  0  0  0  0
   -4.1777   11.9467    0.0000 C   0  0  0  0  0  0  0  0  0  0  0  0
  2  3  1  0  0  0  0
  3  7  1  0  0  0  0
  4  1  1  0  0  0  0
  5  4  2  0  0  0  0
  6 10  1  0  0  0  0
  7  9  2  0  0  0  0
  8  5  1  0  0  0  0
  9  6  1  0  0  0  0
 10 23  1  0  0  0  0
 11 22  1  0  0  0  0
 12  2  1  0  0  0  0
 13 21  1  0  0  0  0
 14  1  2  0  0  0  0
 15  1  2  0  0  0  0
 16  2  2  0  0  0  0
 17  4  1  0  0  0  0
 18 13  1  0  0  0  0
 19  6  2  0  0  0  0
 20  9  1  0  0  0  0
 21 17  2  0  0  0  0
 22 20  2  0  0  0  0
 23 28  2  0  0  0  0
 24 18  1  0  0  0  0
 25 18  2  0  0  0  0
 26  1  1  0  0  0  0
 27 11  1  0  0  0  0
 28 25  1  0  0  0  0
 29 24  2  0  0  0  0
 30 26  1  0  0  0  0
 13  8  2  0  0  0  0
 29 23  1  0  0  0  0
  3 11  2  0  0  0  0
M  CHG  2   2   1  12  -1
M  END
>  <IDNUMBER>
F2099-0133

>  <Chemical_Name>
4-chloro-N-{4-[6-(ethanesulfonyl)pyridazin-3-yl]phenyl}-3-nitrobenzamide

>  <PriceCoeff>
1.00

>  <CAS>
1005307-71-0

>  <MW>
446.86

>  <Description>
solid

>  <FSP3>
0.11

>  <clogP>
2.73

>  <TPSA>
140.54

>  <Acceptor>
7

>  <Donor>
1

>  <RotBonds>
6

>  <HAC>
30

>  <Collection>
General

>  <PPDS>
+

$$$$
F2100-0034
  Mrv2219 10102508112D          

 18 19  0  0  0  0            999 V2000
    5.1324   -3.0998    0.0000 C   0  0  0  0  0  0  0  0  0  0  0  0
    4.9198   -3.8836    0.0000 C   0  0  0  0  0  0  0  0  0  0  0  0
    4.1227   -3.6710    0.0000 C   0  0  0  0  0  0  0  0  0  0  0  0
    4.3353   -2.8873    0.0000 C   0  0  0  0  0  0  0  0  0  0  0  0
    4.1227   -2.0901    0.0000 C   0  0  0  0  0  0  0  0  0  0  0  0
    5.9250   -2.8873    0.0000 C   0  0  0  0  0  0  0  0  0  0  0  0
    6.3280   -2.1787    0.0000 C   0  0  0  0  0  0  0  0  0  0  0  0
    3.3257   -3.8969    0.0000 C   0  0  0  0  0  0  0  0  0  0  0  0
    3.5382   -3.0998    0.0000 C   0  0  0  0  0  0  0  0  0  0  0  0
    5.3272   -4.5877    0.0000 O   0  0  0  0  0  0  0  0  0  0  0  0
    5.9162   -1.4658    0.0000 O   0  0  0  0  0  0  0  0  0  0  0  0
    6.4210   -3.5337    0.0000 O   0  0  0  0  0  0  0  0  0  0  0  0
    3.4983   -1.4658    0.0000 C   0  0  0  0  0  0  0  0  0  0  0  0
    3.8969   -4.5213    0.0000 C   0  0  0  0  0  0  0  0  0  0  0  0
    7.1472   -2.1698    0.0000 O   0  0  0  0  0  0  0  0  0  0  0  0
    4.7471   -1.4658    0.0000 C   0  0  0  0  0  0  0  0  0  0  0  0
    2.7411   -1.8998    0.0000 Br  0  0  0  0  0  0  0  0  0  0  0  0
    7.5590   -2.8828    0.0000 C   0  0  0  0  0  0  0  0  0  0  0  0
  2  1  1  0  0  0  0
  3  2  1  0  0  0  0
  4  1  1  0  0  0  0
  5  4  1  0  0  0  0
  6  1  2  0  0  0  0
  7  6  1  0  0  0  0
  8  9  1  0  0  0  0
  9  4  1  0  0  0  0
 10  2  2  0  0  0  0
 11  7  2  0  0  0  0
 12  6  1  0  0  0  0
 13  5  1  0  0  0  0
 14  3  1  0  0  0  0
 15  7  1  0  0  0  0
 16  5  1  0  0  0  0
 17 13  1  0  0  0  0
 18 15  1  0  0  0  0
  3  5  1  0  0  0  0
  3  8  1  0  0  0  0
M  END
>  <IDNUMBER>
F2100-0034

>  <Chemical_Name>
methyl 2-[(2Z)-7-(bromomethyl)-4,7-dimethyl-3-oxobicyclo[2.2.1]heptan-2-ylidene]-2-hydroxyacetate

>  <PriceCoeff>
1.00

>  <MW>
317.18

>  <Description>
solid

>  <FSP3>
0.69

>  <clogP>
2.21

>  <TPSA>
63.60

>  <Acceptor>
4

>  <Donor>
1

>  <RotBonds>
3

>  <HAC>
18

>  <Collection>
General

$$$$
F2102-0079
  Mrv2219 10102508112D          

 16 17  0  0  0  0            999 V2000
    1.5534   -5.9388    0.0000 C   0  0  0  0  0  0  0  0  0  0  0  0
    0.8413   -5.5265    0.0000 C   0  0  0  0  0  0  0  0  0  0  0  0
   -0.5872   -4.6977    0.0000 C   0  0  0  0  0  0  0  0  0  0  0  0
    1.5534   -6.7634    0.0000 O   0  0  0  0  0  0  0  0  0  0  0  0
    2.2656   -5.5223    0.0000 N   0  0  0  0  0  0  0  0  0  0  0  0
    0.8413   -4.6977    0.0000 C   0  0  0  0  0  0  0  0  0  0  0  0
    0.1249   -5.9388    0.0000 C   0  0  0  0  0  0  0  0  0  0  0  0
    0.1249   -4.2854    0.0000 C   0  0  0  0  0  0  0  0  0  0  0  0
   -0.5872   -5.5265    0.0000 C   0  0  0  0  0  0  0  0  0  0  0  0
   -1.2994   -4.2896    0.0000 C   0  0  0  0  0  0  0  0  0  0  0  0
    2.9860   -5.9346    0.0000 N   0  0  0  0  0  0  0  0  0  0  0  0
   -1.2994   -3.4608    0.0000 C   0  0  0  0  0  0  0  0  0  0  0  0
   -2.0073   -4.6977    0.0000 C   0  0  0  0  0  0  0  0  0  0  0  0
   -2.7237   -4.2896    0.0000 C   0  0  0  0  0  0  0  0  0  0  0  0
   -2.0115   -3.0485    0.0000 C   0  0  0  0  0  0  0  0  0  0  0  0
   -2.7320   -3.4608    0.0000 C   0  0  0  0  0  0  0  0  0  0  0  0
  2  1  1  0  0  0  0
  3  9  2  0  0  0  0
  4  1  2  0  0  0  0
  5  1  1  0  0  0  0
  6  2  1  0  0  0  0
  7  2  2  0  0  0  0
  8  6  2  0  0  0  0
  9  7  1  0  0  0  0
 10  3  1  0  0  0  0
 11  5  1  0  0  0  0
 12 10  2  0  0  0  0
 13 10  1  0  0  0  0
 14 13  2  0  0  0  0
 15 12  1  0  0  0  0
 16 14  1  0  0  0  0
  8  3  1  0  0  0  0
 15 16  2  0  0  0  0
M  END
>  <IDNUMBER>
F2102-0079

>  <Chemical_Name>
[1,1'-biphenyl]-4-carbohydrazide

>  <PriceCoeff>
1.00

>  <CAS>
18622-23-6

>  <MW>
212.25

>  <Description>
solid

>  <FSP3>
0.00

>  <clogP>
2.17

>  <TPSA>
55.12

>  <Acceptor>
1

>  <Donor>
2

>  <RotBonds>
2

>  <HAC>
16

>  <Collection>
General

>  <PPDS>
+

$$$$
F2106-0042
  Mrv2219 10102508112D          

 21 23  0  0  0  0            999 V2000
    3.3695   -1.4280    0.0000 C   0  0  0  0  0  0  0  0  0  0  0  0
    2.6430   -1.8413    0.0000 C   0  0  0  0  0  0  0  0  0  0  0  0
    1.9207   -1.4280    0.0000 C   0  0  0  0  0  0  0  0  0  0  0  0
    3.3695   -0.5929    0.0000 C   0  0  0  0  0  0  0  0  0  0  0  0
    1.9290   -0.5929    0.0000 C   0  0  0  0  0  0  0  0  0  0  0  0
    2.6472   -0.1670    0.0000 O   0  0  0  0  0  0  0  0  0  0  0  0
    1.2067   -1.8330    0.0000 C   0  0  0  0  0  0  0  0  0  0  0  0
    1.2067   -0.1796    0.0000 C   0  0  0  0  0  0  0  0  0  0  0  0
    4.0751   -1.8413    0.0000 C   0  0  0  0  0  0  0  0  0  0  0  0
    2.6430   -2.6680    0.0000 O   0  0  0  0  0  0  0  0  0  0  0  0
    0.4927   -0.5929    0.0000 C   0  0  0  0  0  0  0  0  0  0  0  0
    0.4927   -1.4196    0.0000 C   0  0  0  0  0  0  0  0  0  0  0  0
   -2.3674   -0.5929    0.0000 Br  0  0  0  0  0  0  0  0  0  0  0  0
   -0.2213   -0.1796    0.0000 O   0  0  0  0  0  0  0  0  0  0  0  0
    4.7891   -1.4322    0.0000 C   0  0  0  0  0  0  0  0  0  0  0  0
    4.0751   -2.6722    0.0000 C   0  0  0  0  0  0  0  0  0  0  0  0
   -1.6492   -0.1796    0.0000 C   0  0  0  0  0  0  0  0  0  0  0  0
   -0.9352   -0.5929    0.0000 C   0  0  0  0  0  0  0  0  0  0  0  0
    5.5031   -1.8455    0.0000 C   0  0  0  0  0  0  0  0  0  0  0  0
    4.7891   -3.0856    0.0000 C   0  0  0  0  0  0  0  0  0  0  0  0
    5.5031   -2.6722    0.0000 C   0  0  0  0  0  0  0  0  0  0  0  0
  2  1  1  0  0  0  0
  3  2  1  0  0  0  0
  4  1  2  0  0  0  0
  5  6  1  0  0  0  0
  6  4  1  0  0  0  0
  7  3  2  0  0  0  0
  8  5  2  0  0  0  0
  9  1  1  0  0  0  0
 10  2  2  0  0  0  0
 11  8  1  0  0  0  0
 12  7  1  0  0  0  0
 13 17  1  0  0  0  0
 14 11  1  0  0  0  0
 15  9  1  0  0  0  0
 16  9  2  0  0  0  0
 17 18  1  0  0  0  0
 18 14  1  0  0  0  0
 19 15  2  0  0  0  0
 20 16  1  0  0  0  0
 21 20  2  0  0  0  0
  5  3  1  0  0  0  0
 19 21  1  0  0  0  0
 11 12  2  0  0  0  0
M  END
>  <IDNUMBER>
F2106-0042

>  <Chemical_Name>
7-(2-bromoethoxy)-3-phenyl-4H-chromen-4-one

>  <PriceCoeff>
1.00

>  <CAS>
287472-10-0

>  <MW>
345.19

>  <Description>
solid

>  <FSP3>
0.12

>  <clogP>
3.82

>  <TPSA>
35.53

>  <Acceptor>
3

>  <Donor>
0

>  <RotBonds>
4

>  <HAC>
21

>  <Collection>
General

>  <PPDS>
+

$$$$
F2106-0046
  Mrv2219 10102508112D          

 20 22  0  0  0  0            999 V2000
    6.1803   -3.5334    0.0000 C   0  0  0  0  0  0  0  0  0  0  0  0
    6.8961   -3.9454    0.0000 C   0  0  0  0  0  0  0  0  0  0  0  0
    7.6203   -3.5334    0.0000 C   0  0  0  0  0  0  0  0  0  0  0  0
    7.6203   -2.7010    0.0000 C   0  0  0  0  0  0  0  0  0  0  0  0
    6.1845   -2.7010    0.0000 C   0  0  0  0  0  0  0  0  0  0  0  0
    6.8961   -2.2765    0.0000 O   0  0  0  0  0  0  0  0  0  0  0  0
    5.4686   -3.9371    0.0000 C   0  0  0  0  0  0  0  0  0  0  0  0
    5.4686   -2.2890    0.0000 C   0  0  0  0  0  0  0  0  0  0  0  0
    4.7569   -3.5251    0.0000 C   0  0  0  0  0  0  0  0  0  0  0  0
    4.7569   -2.7010    0.0000 C   0  0  0  0  0  0  0  0  0  0  0  0
    6.8961   -4.7694    0.0000 O   0  0  0  0  0  0  0  0  0  0  0  0
    8.3319   -2.2890    0.0000 C   0  0  0  0  0  0  0  0  0  0  0  0
    5.4686   -4.7611    0.0000 O   0  0  0  0  0  0  0  0  0  0  0  0
    4.0453   -2.2890    0.0000 O   0  0  0  0  0  0  0  0  0  0  0  0
    9.0436   -2.7093    0.0000 C   0  0  0  0  0  0  0  0  0  0  0  0
    8.3319   -1.4733    0.0000 C   0  0  0  0  0  0  0  0  0  0  0  0
    4.7486   -5.1731    0.0000 C   0  0  0  0  0  0  0  0  0  0  0  0
    9.7553   -2.3015    0.0000 C   0  0  0  0  0  0  0  0  0  0  0  0
    9.0436   -1.0613    0.0000 C   0  0  0  0  0  0  0  0  0  0  0  0
    9.7636   -1.4733    0.0000 C   0  0  0  0  0  0  0  0  0  0  0  0
  2  1  1  0  0  0  0
  3  2  1  0  0  0  0
  4  6  1  0  0  0  0
  5  1  1  0  0  0  0
  6  5  1  0  0  0  0
  7  1  2  0  0  0  0
  8  5  2  0  0  0  0
  9  7  1  0  0  0  0
 10  9  2  0  0  0  0
 11  2  2  0  0  0  0
 12  4  1  0  0  0  0
 13  7  1  0  0  0  0
 14 10  1  0  0  0  0
 15 12  2  0  0  0  0
 16 12  1  0  0  0  0
 17 13  1  0  0  0  0
 18 15  1  0  0  0  0
 19 16  2  0  0  0  0
 20 19  1  0  0  0  0
  8 10  1  0  0  0  0
  3  4  2  0  0  0  0
 18 20  2  0  0  0  0
M  END
>  <IDNUMBER>
F2106-0046

>  <Chemical_Name>
7-hydroxy-5-methoxy-2-phenyl-4H-chromen-4-one

>  <PriceCoeff>
1.00

>  <CAS>
33554-47-1

>  <MW>
268.27

>  <Description>
solid

>  <FSP3>
0.06

>  <clogP>
2.51

>  <TPSA>
55.76

>  <Acceptor>
4

>  <Donor>
1

>  <RotBonds>
2

>  <HAC>
20

>  <Collection>
General

$$$$
F2106-0049
  Mrv2219 10102508112D          

 19 21  0  0  0  0            999 V2000
    4.1375   -2.8625    0.0000 C   0  0  0  0  0  0  0  0  0  0  0  0
    3.4167   -3.2750    0.0000 C   0  0  0  0  0  0  0  0  0  0  0  0
    4.1375   -2.0292    0.0000 C   0  0  0  0  0  0  0  0  0  0  0  0
    2.7042   -2.8542    0.0000 C   0  0  0  0  0  0  0  0  0  0  0  0
    3.4167   -1.6167    0.0000 O   0  0  0  0  0  0  0  0  0  0  0  0
    2.7042   -2.0292    0.0000 C   0  0  0  0  0  0  0  0  0  0  0  0
    1.9917   -1.6167    0.0000 C   0  0  0  0  0  0  0  0  0  0  0  0
    1.9917   -3.2750    0.0000 C   0  0  0  0  0  0  0  0  0  0  0  0
    4.8500   -3.2750    0.0000 C   0  0  0  0  0  0  0  0  0  0  0  0
    4.8542   -1.6250    0.0000 O   0  0  0  0  0  0  0  0  0  0  0  0
    3.4167   -4.1000    0.0000 O   0  0  0  0  0  0  0  0  0  0  0  0
    1.2792   -2.0375    0.0000 C   0  0  0  0  0  0  0  0  0  0  0  0
    1.2792   -2.8625    0.0000 C   0  0  0  0  0  0  0  0  0  0  0  0
    0.5667   -1.6167    0.0000 O   0  0  0  0  0  0  0  0  0  0  0  0
    5.5625   -2.8625    0.0000 C   0  0  0  0  0  0  0  0  0  0  0  0
    4.8417   -4.1000    0.0000 C   0  0  0  0  0  0  0  0  0  0  0  0
    5.5542   -4.5042    0.0000 C   0  0  0  0  0  0  0  0  0  0  0  0
    6.2750   -3.2750    0.0000 C   0  0  0  0  0  0  0  0  0  0  0  0
    6.2750   -4.1042    0.0000 C   0  0  0  0  0  0  0  0  0  0  0  0
  2  1  2  0  0  0  0
  3  1  1  0  0  0  0
  4  2  1  0  0  0  0
  5  3  1  0  0  0  0
  6  5  1  0  0  0  0
  7  6  2  0  0  0  0
  8  4  2  0  0  0  0
  9  1  1  0  0  0  0
 10  3  2  0  0  0  0
 11  2  1  0  0  0  0
 12  7  1  0  0  0  0
 13  8  1  0  0  0  0
 14 12  1  0  0  0  0
 15  9  1  0  0  0  0
 16  9  2  0  0  0  0
 17 16  1  0  0  0  0
 18 15  2  0  0  0  0
 19 17  2  0  0  0  0
  6  4  1  0  0  0  0
 18 19  1  0  0  0  0
 12 13  2  0  0  0  0
M  END
>  <IDNUMBER>
F2106-0049

>  <Chemical_Name>
4,7-dihydroxy-3-phenyl-2H-chromen-2-one

>  <PriceCoeff>
1.00

>  <CAS>
19225-17-3

>  <MW>
254.24

>  <Description>
solid

>  <FSP3>
0.00

>  <clogP>
2.39

>  <TPSA>
66.76

>  <Acceptor>
4

>  <Donor>
2

>  <RotBonds>
1

>  <HAC>
19

>  <Collection>
General

>  <PPDS>
+

$$$$
F2106-0072
  Mrv2219 10102508112D          

 23 25  0  0  0  0            999 V2000
    4.3590   -1.3904    0.0000 C   0  0  0  0  0  0  0  0  0  0  0  0
    3.6450   -1.7954    0.0000 C   0  0  0  0  0  0  0  0  0  0  0  0
    4.3590   -0.5637    0.0000 C   0  0  0  0  0  0  0  0  0  0  0  0
    2.9353   -1.3904    0.0000 C   0  0  0  0  0  0  0  0  0  0  0  0
    3.6367   -0.1503    0.0000 O   0  0  0  0  0  0  0  0  0  0  0  0
    2.9311   -0.5679    0.0000 C   0  0  0  0  0  0  0  0  0  0  0  0
    5.0730   -1.7954    0.0000 C   0  0  0  0  0  0  0  0  0  0  0  0
    5.7870   -1.3821    0.0000 C   0  0  0  0  0  0  0  0  0  0  0  0
    2.2171   -0.1503    0.0000 C   0  0  0  0  0  0  0  0  0  0  0  0
    2.2171   -1.8079    0.0000 C   0  0  0  0  0  0  0  0  0  0  0  0
    6.5009   -1.7954    0.0000 C   0  0  0  0  0  0  0  0  0  0  0  0
    5.0730   -0.1503    0.0000 O   0  0  0  0  0  0  0  0  0  0  0  0
    5.0730   -2.6221    0.0000 C   0  0  0  0  0  0  0  0  0  0  0  0
    6.5052   -2.6221    0.0000 C   0  0  0  0  0  0  0  0  0  0  0  0
    3.6450   -2.6221    0.0000 O   0  0  0  0  0  0  0  0  0  0  0  0
    5.7870   -3.0355    0.0000 C   0  0  0  0  0  0  0  0  0  0  0  0
    1.5031   -0.5637    0.0000 C   0  0  0  0  0  0  0  0  0  0  0  0
    1.5031   -1.3946    0.0000 C   0  0  0  0  0  0  0  0  0  0  0  0
    7.2149   -1.3821    0.0000 O   0  0  0  0  0  0  0  0  0  0  0  0
    7.2149   -3.0355    0.0000 O   0  0  0  0  0  0  0  0  0  0  0  0
    0.7891   -0.1545    0.0000 O   0  0  0  0  0  0  0  0  0  0  0  0
    7.2066   -0.5553    0.0000 C   0  0  0  0  0  0  0  0  0  0  0  0
    7.9289   -2.6221    0.0000 C   0  0  0  0  0  0  0  0  0  0  0  0
  2  1  2  0  0  0  0
  3  1  1  0  0  0  0
  4  2  1  0  0  0  0
  5  3  1  0  0  0  0
  6  5  1  0  0  0  0
  7  1  1  0  0  0  0
  8  7  1  0  0  0  0
  9  6  2  0  0  0  0
 10  4  2  0  0  0  0
 11  8  2  0  0  0  0
 12  3  2  0  0  0  0
 13  7  2  0  0  0  0
 14 16  2  0  0  0  0
 15  2  1  0  0  0  0
 16 13  1  0  0  0  0
 17  9  1  0  0  0  0
 18 10  1  0  0  0  0
 19 11  1  0  0  0  0
 20 14  1  0  0  0  0
 21 17  1  0  0  0  0
 22 19  1  0  0  0  0
 23 20  1  0  0  0  0
  6  4  1  0  0  0  0
 11 14  1  0  0  0  0
 17 18  2  0  0  0  0
M  END
>  <IDNUMBER>
F2106-0072

>  <Chemical_Name>
3-(3,4-dimethoxyphenyl)-4,7-dihydroxy-2H-chromen-2-one

>  <PriceCoeff>
1.00

>  <CAS>
929339-03-7

>  <MW>
314.29

>  <Description>
solid

>  <FSP3>
0.12

>  <clogP>
2.73

>  <TPSA>
85.22

>  <Acceptor>
6

>  <Donor>
2

>  <RotBonds>
3

>  <HAC>
23

>  <Collection>
General

>  <PPDS>
+

$$$$
F2106-0076
  Mrv2219 10102508112D          

 21 23  0  0  0  0            999 V2000
    3.6792   -0.4250    0.0000 C   0  0  0  0  0  0  0  0  0  0  0  0
    2.9542   -0.8375    0.0000 C   0  0  0  0  0  0  0  0  0  0  0  0
    3.6792    0.4083    0.0000 C   0  0  0  0  0  0  0  0  0  0  0  0
    2.2375   -0.4250    0.0000 C   0  0  0  0  0  0  0  0  0  0  0  0
    2.9542    0.8333    0.0000 O   0  0  0  0  0  0  0  0  0  0  0  0
    2.2417    0.4083    0.0000 C   0  0  0  0  0  0  0  0  0  0  0  0
    4.3875   -0.8375    0.0000 C   0  0  0  0  0  0  0  0  0  0  0  0
    1.5250    0.8208    0.0000 C   0  0  0  0  0  0  0  0  0  0  0  0
    1.5250   -0.8292    0.0000 C   0  0  0  0  0  0  0  0  0  0  0  0
    4.3917    0.8208    0.0000 O   0  0  0  0  0  0  0  0  0  0  0  0
    2.9542   -1.6625    0.0000 O   0  0  0  0  0  0  0  0  0  0  0  0
    4.3792   -1.6667    0.0000 C   0  0  0  0  0  0  0  0  0  0  0  0
    5.1000   -0.4292    0.0000 C   0  0  0  0  0  0  0  0  0  0  0  0
    0.8125    0.4083    0.0000 C   0  0  0  0  0  0  0  0  0  0  0  0
    0.8125   -0.4167    0.0000 C   0  0  0  0  0  0  0  0  0  0  0  0
    5.8125   -1.6667    0.0000 C   0  0  0  0  0  0  0  0  0  0  0  0
    5.8125   -0.8417    0.0000 C   0  0  0  0  0  0  0  0  0  0  0  0
    5.0917   -2.0792    0.0000 C   0  0  0  0  0  0  0  0  0  0  0  0
    0.1000    0.8208    0.0000 O   0  0  0  0  0  0  0  0  0  0  0  0
    6.5250   -2.0792    0.0000 O   0  0  0  0  0  0  0  0  0  0  0  0
    7.2417   -1.6667    0.0000 C   0  0  0  0  0  0  0  0  0  0  0  0
  2  1  2  0  0  0  0
  3  1  1  0  0  0  0
  4  2  1  0  0  0  0
  5  3  1  0  0  0  0
  6  5  1  0  0  0  0
  7  1  1  0  0  0  0
  8  6  2  0  0  0  0
  9  4  2  0  0  0  0
 10  3  2  0  0  0  0
 11  2  1  0  0  0  0
 12  7  2  0  0  0  0
 13  7  1  0  0  0  0
 14  8  1  0  0  0  0
 15  9  1  0  0  0  0
 16 17  1  0  0  0  0
 17 13  2  0  0  0  0
 18 12  1  0  0  0  0
 19 14  1  0  0  0  0
 20 16  1  0  0  0  0
 21 20  1  0  0  0  0
 18 16  2  0  0  0  0
  6  4  1  0  0  0  0
 14 15  2  0  0  0  0
M  END
>  <IDNUMBER>
F2106-0076

>  <Chemical_Name>
4,7-dihydroxy-3-(4-methoxyphenyl)-2H-chromen-2-one

>  <PriceCoeff>
1.00

>  <CAS>
42345-56-2

>  <MW>
284.26

>  <Description>
solid

>  <FSP3>
0.06

>  <clogP>
3.05

>  <TPSA>
75.99

>  <Acceptor>
5

>  <Donor>
2

>  <RotBonds>
2

>  <HAC>
21

>  <Collection>
General

>  <PPDS>
+

$$$$
F2106-0084
  Mrv2219 10102508112D          

 21 23  0  0  0  0            999 V2000
    4.6375   -0.3292    0.0000 C   0  0  0  0  0  0  0  0  0  0  0  0
    3.9125   -0.7417    0.0000 C   0  0  0  0  0  0  0  0  0  0  0  0
    4.6375    0.5000    0.0000 C   0  0  0  0  0  0  0  0  0  0  0  0
    3.1917   -0.3292    0.0000 C   0  0  0  0  0  0  0  0  0  0  0  0
    3.9167    0.9208    0.0000 O   0  0  0  0  0  0  0  0  0  0  0  0
    3.2000    0.5000    0.0000 C   0  0  0  0  0  0  0  0  0  0  0  0
    5.3417   -0.7500    0.0000 C   0  0  0  0  0  0  0  0  0  0  0  0
    2.4792    0.9125    0.0000 C   0  0  0  0  0  0  0  0  0  0  0  0
    2.4792   -0.7417    0.0000 C   0  0  0  0  0  0  0  0  0  0  0  0
    5.3542    0.9083    0.0000 O   0  0  0  0  0  0  0  0  0  0  0  0
    5.3417   -1.5750    0.0000 C   0  0  0  0  0  0  0  0  0  0  0  0
    3.9125   -1.5667    0.0000 O   0  0  0  0  0  0  0  0  0  0  0  0
    1.7667    0.5000    0.0000 C   0  0  0  0  0  0  0  0  0  0  0  0
    1.7667   -0.3292    0.0000 C   0  0  0  0  0  0  0  0  0  0  0  0
    4.6292   -1.9792    0.0000 O   0  0  0  0  0  0  0  0  0  0  0  0
    1.0542    0.9083    0.0000 O   0  0  0  0  0  0  0  0  0  0  0  0
    6.0542   -0.3375    0.0000 C   0  0  0  0  0  0  0  0  0  0  0  0
    6.0542   -1.9875    0.0000 C   0  0  0  0  0  0  0  0  0  0  0  0
    4.6250   -2.8042    0.0000 C   0  0  0  0  0  0  0  0  0  0  0  0
    6.7667   -0.7500    0.0000 C   0  0  0  0  0  0  0  0  0  0  0  0
    6.7667   -1.5792    0.0000 C   0  0  0  0  0  0  0  0  0  0  0  0
  2  1  2  0  0  0  0
  3  1  1  0  0  0  0
  4  2  1  0  0  0  0
  5  3  1  0  0  0  0
  6  5  1  0  0  0  0
  7  1  1  0  0  0  0
  8  6  2  0  0  0  0
  9  4  2  0  0  0  0
 10  3  2  0  0  0  0
 11  7  2  0  0  0  0
 12  2  1  0  0  0  0
 13  8  1  0  0  0  0
 14  9  1  0  0  0  0
 15 11  1  0  0  0  0
 16 13  1  0  0  0  0
 17  7  1  0  0  0  0
 18 11  1  0  0  0  0
 19 15  1  0  0  0  0
 20 17  2  0  0  0  0
 21 20  1  0  0  0  0
  6  4  1  0  0  0  0
 18 21  2  0  0  0  0
 13 14  2  0  0  0  0
M  END
>  <IDNUMBER>
F2106-0084

>  <Chemical_Name>
4,7-dihydroxy-3-(2-methoxyphenyl)-2H-chromen-2-one

>  <PriceCoeff>
1.00

>  <CAS>
21229-16-3

>  <MW>
284.26

>  <Description>
solid

>  <FSP3>
0.06

>  <clogP>
2.49

>  <TPSA>
75.99

>  <Acceptor>
5

>  <Donor>
2

>  <RotBonds>
2

>  <HAC>
21

>  <Collection>
General

>  <PPDS>
+

$$$$
F2106-0103
  Mrv2219 10102508112D          

 22 24  0  0  0  0            999 V2000
    7.0667   -2.4917    0.0000 C   0  0  0  0  0  0  0  0  0  0  0  0
    6.3417   -2.9042    0.0000 C   0  0  0  0  0  0  0  0  0  0  0  0
    5.6250   -2.4917    0.0000 C   0  0  0  0  0  0  0  0  0  0  0  0
    7.0667   -1.6542    0.0000 C   0  0  0  0  0  0  0  0  0  0  0  0
    5.6292   -1.6542    0.0000 C   0  0  0  0  0  0  0  0  0  0  0  0
    6.3417   -1.2375    0.0000 O   0  0  0  0  0  0  0  0  0  0  0  0
    4.9125   -2.9000    0.0000 C   0  0  0  0  0  0  0  0  0  0  0  0
    4.9125   -1.2417    0.0000 C   0  0  0  0  0  0  0  0  0  0  0  0
    7.7750   -2.9042    0.0000 C   0  0  0  0  0  0  0  0  0  0  0  0
    2.0542   -1.2500    0.0000 C   0  0  0  0  0  0  0  0  0  0  0  0
    6.3417   -3.7292    0.0000 O   0  0  0  0  0  0  0  0  0  0  0  0
    1.3417   -1.6625    0.0000 O   0  0  0  0  0  0  0  0  0  0  0  0
    4.2000   -1.6625    0.0000 C   0  0  0  0  0  0  0  0  0  0  0  0
    3.4875   -1.2500    0.0000 O   0  0  0  0  0  0  0  0  0  0  0  0
    2.7667   -1.6625    0.0000 C   0  0  0  0  0  0  0  0  0  0  0  0
    4.2000   -2.4875    0.0000 C   0  0  0  0  0  0  0  0  0  0  0  0
    2.0542   -0.4250    0.0000 O   0  0  0  0  0  0  0  0  0  0  0  0
    7.7667   -3.7292    0.0000 C   0  0  0  0  0  0  0  0  0  0  0  0
    8.4875   -2.4917    0.0000 C   0  0  0  0  0  0  0  0  0  0  0  0
    9.2000   -2.9042    0.0000 C   0  0  0  0  0  0  0  0  0  0  0  0
    8.4792   -4.1417    0.0000 C   0  0  0  0  0  0  0  0  0  0  0  0
    9.2000   -3.7375    0.0000 C   0  0  0  0  0  0  0  0  0  0  0  0
  2  1  1  0  0  0  0
  3  2  1  0  0  0  0
  4  1  2  0  0  0  0
  5  6  1  0  0  0  0
  6  4  1  0  0  0  0
  7  3  2  0  0  0  0
  8  5  2  0  0  0  0
  9  1  1  0  0  0  0
 10 15  1  0  0  0  0
 11  2  2  0  0  0  0
 12 10  2  0  0  0  0
 13  8  1  0  0  0  0
 14 13  1  0  0  0  0
 15 14  1  0  0  0  0
 16  7  1  0  0  0  0
 17 10  1  0  0  0  0
 18  9  2  0  0  0  0
 19  9  1  0  0  0  0
 20 19  2  0  0  0  0
 21 18  1  0  0  0  0
 22 20  1  0  0  0  0
  5  3  1  0  0  0  0
 21 22  2  0  0  0  0
 13 16  2  0  0  0  0
M  END
>  <IDNUMBER>
F2106-0103

>  <Chemical_Name>
2-[(4-oxo-3-phenyl-4H-chromen-7-yl)oxy]acetic acid

>  <PriceCoeff>
1.00

>  <MW>
296.28

>  <Description>
solid

>  <FSP3>
0.06

>  <clogP>
2.66

>  <TPSA>
72.83

>  <Acceptor>
5

>  <Donor>
0

>  <RotBonds>
4

>  <HAC>
22

>  <Collection>
General

$$$$
F2106-0149
  Mrv2219 10102508112D          

 12 13  0  0  0  0            999 V2000
    2.1242   -1.7334    0.0000 C   0  0  0  0  0  0  0  0  0  0  0  0
    2.8475   -2.1450    0.0000 C   0  0  0  0  0  0  0  0  0  0  0  0
    2.1367   -0.9021    0.0000 C   0  0  0  0  0  0  0  0  0  0  0  0
    3.5708   -1.7334    0.0000 C   0  0  0  0  0  0  0  0  0  0  0  0
    3.5708   -0.9021    0.0000 C   0  0  0  0  0  0  0  0  0  0  0  0
    2.8475   -0.4781    0.0000 O   0  0  0  0  0  0  0  0  0  0  0  0
    1.4217   -2.1367    0.0000 C   0  0  0  0  0  0  0  0  0  0  0  0
    2.8475   -2.9681    0.0000 O   0  0  0  0  0  0  0  0  0  0  0  0
    1.4217   -0.4906    0.0000 C   0  0  0  0  0  0  0  0  0  0  0  0
    0.7108   -1.7252    0.0000 C   0  0  0  0  0  0  0  0  0  0  0  0
   -0.0083   -2.1367    0.0000 N   0  0  0  0  0  0  0  0  0  0  0  0
    0.7108   -0.9021    0.0000 C   0  0  0  0  0  0  0  0  0  0  0  0
  2  1  1  0  0  0  0
  3  1  1  0  0  0  0
  4  2  1  0  0  0  0
  5  6  1  0  0  0  0
  6  3  1  0  0  0  0
  7  1  2  0  0  0  0
  8  2  2  0  0  0  0
  9  3  2  0  0  0  0
 10  7  1  0  0  0  0
 11 10  1  0  0  0  0
 12 10  2  0  0  0  0
  9 12  1  0  0  0  0
  4  5  2  0  0  0  0
M  END
>  <IDNUMBER>
F2106-0149

>  <Chemical_Name>
6-amino-4H-chromen-4-one

>  <PriceCoeff>
1.50

>  <CAS>
98589-40-3

>  <MW>
161.16

>  <Description>
solid

>  <FSP3>
0.00

>  <clogP>
0.84

>  <TPSA>
52.32

>  <Acceptor>
3

>  <Donor>
1

>  <RotBonds>
0

>  <HAC>
12

>  <Collection>
Advanced

>  <PPDS>
+

$$$$
F2111-0036
  Mrv2219 10102508112D          

 13 13  0  0  0  0            999 V2000
    5.2833   -2.5501    0.0000 C   0  0  0  0  0  0  0  0  0  0  0  0
    5.9947   -2.9578    0.0000 N   0  0  0  0  0  0  0  0  0  0  0  0
    7.4256   -2.9495    0.0000 C   0  0  0  0  0  0  0  0  0  0  0  0
    5.2791   -1.7265    0.0000 O   0  0  0  0  0  0  0  0  0  0  0  0
    4.5719   -2.9620    0.0000 C   0  0  0  0  0  0  0  0  0  0  0  0
    7.4256   -3.7732    0.0000 O   0  0  0  0  0  0  0  0  0  0  0  0
    6.7061   -2.5459    0.0000 C   0  0  0  0  0  0  0  0  0  0  0  0
    8.1370   -2.5376    0.0000 O   0  0  0  0  0  0  0  0  0  0  0  0
    3.8564   -2.5501    0.0000 C   0  0  0  0  0  0  0  0  0  0  0  0
    4.5719   -3.7940    0.0000 C   0  0  0  0  0  0  0  0  0  0  0  0
    3.1450   -2.9703    0.0000 C   0  0  0  0  0  0  0  0  0  0  0  0
    3.8564   -4.2058    0.0000 C   0  0  0  0  0  0  0  0  0  0  0  0
    3.1450   -3.7940    0.0000 C   0  0  0  0  0  0  0  0  0  0  0  0
  2  1  1  0  0  0  0
  3  7  1  0  0  0  0
  4  1  2  0  0  0  0
  5  1  1  0  0  0  0
  6  3  2  0  0  0  0
  7  2  1  0  0  0  0
  8  3  1  0  0  0  0
  9  5  2  0  0  0  0
 10  5  1  0  0  0  0
 11  9  1  0  0  0  0
 12 10  2  0  0  0  0
 13 12  1  0  0  0  0
 11 13  2  0  0  0  0
M  END
>  <IDNUMBER>
F2111-0036

>  <Chemical_Name>
2-(phenylformamido)acetic acid

>  <PriceCoeff>
1.00

>  <CAS>
495-69-2

>  <MW>
179.18

>  <Description>
solid

>  <FSP3>
0.11

>  <clogP>
0.50

>  <TPSA>
66.40

>  <Acceptor>
3

>  <Donor>
1

>  <RotBonds>
3

>  <HAC>
13

>  <Collection>
General

>  <PPDS>
+

$$$$
F2113-0600
  Mrv2219 10102508112D          

 12 13  0  0  0  0            999 V2000
    1.5542    0.4458    0.0000 C   0  0  0  0  0  0  0  0  0  0  0  0
    0.8417   -0.8000    0.0000 C   0  0  0  0  0  0  0  0  0  0  0  0
    0.1292   -0.3875    0.0000 C   0  0  0  0  0  0  0  0  0  0  0  0
    0.1292    0.4458    0.0000 C   0  0  0  0  0  0  0  0  0  0  0  0
    1.5625   -0.3792    0.0000 C   0  0  0  0  0  0  0  0  0  0  0  0
    0.8417    0.8583    0.0000 C   0  0  0  0  0  0  0  0  0  0  0  0
   -0.6583   -0.6417    0.0000 O   0  0  0  0  0  0  0  0  0  0  0  0
   -0.6583    0.7000    0.0000 O   0  0  0  0  0  0  0  0  0  0  0  0
   -1.1458    0.0333    0.0000 C   0  0  0  0  0  0  0  0  0  0  0  0
    2.2667    0.8583    0.0000 C   0  0  0  0  0  0  0  0  0  0  0  0
    2.9875    0.4500    0.0000 O   0  0  0  0  0  0  0  0  0  0  0  0
    2.2792   -0.7917    0.0000 O   0  0  0  0  0  0  0  0  0  0  0  0
  2  5  2  0  0  0  0
  3  4  2  0  0  0  0
  4  6  1  0  0  0  0
  5  1  1  0  0  0  0
  6  1  2  0  0  0  0
  7  3  1  0  0  0  0
  8  4  1  0  0  0  0
  9  8  1  0  0  0  0
 10  1  1  0  0  0  0
 11 10  2  0  0  0  0
 12  5  1  0  0  0  0
  2  3  1  0  0  0  0
  9  7  1  0  0  0  0
M  END
>  <IDNUMBER>
F2113-0600

>  <Chemical_Name>
6-hydroxy-2H-1,3-benzodioxole-5-carbaldehyde

>  <PriceCoeff>
1.00

>  <CAS>
4720-68-7

>  <MW>
166.13

>  <Description>
solid

>  <FSP3>
0.13

>  <clogP>
1.66

>  <TPSA>
55.76

>  <Acceptor>
4

>  <Donor>
1

>  <RotBonds>
1

>  <HAC>
12

>  <Collection>
General

>  <PPDS>
+

$$$$
F2119-0005
  Mrv2219 10102508112D          

 12 12  0  0  0  0            999 V2000
    2.2542    1.7875    0.0000 C   0  0  0  0  0  0  0  0  0  0  0  0
    1.5417    2.2083    0.0000 O   0  0  0  0  0  0  0  0  0  0  0  0
    2.2542    0.9625    0.0000 C   0  0  0  0  0  0  0  0  0  0  0  0
    0.8375   -0.6875    0.0000 C   0  0  0  0  0  0  0  0  0  0  0  0
    2.9667    2.2083    0.0000 O   0  0  0  0  0  0  0  0  0  0  0  0
    0.8375   -1.5167    0.0000 C   0  0  0  0  0  0  0  0  0  0  0  0
    1.5500   -0.2750    0.0000 C   0  0  0  0  0  0  0  0  0  0  0  0
    1.5417    0.5500    0.0000 C   0  0  0  0  0  0  0  0  0  0  0  0
    0.1167   -1.9292    0.0000 O   0  0  0  0  0  0  0  0  0  0  0  0
    2.2667   -1.5167    0.0000 C   0  0  0  0  0  0  0  0  0  0  0  0
    1.5500   -1.9292    0.0000 C   0  0  0  0  0  0  0  0  0  0  0  0
    2.2667   -0.6875    0.0000 C   0  0  0  0  0  0  0  0  0  0  0  0
  2  1  2  0  0  0  0
  3  1  1  0  0  0  0
  4  7  1  0  0  0  0
  5  1  1  0  0  0  0
  6  4  2  0  0  0  0
  7  8  1  0  0  0  0
  8  3  1  0  0  0  0
  9  6  1  0  0  0  0
 10 12  1  0  0  0  0
 11 10  2  0  0  0  0
 12  7  2  0  0  0  0
  6 11  1  0  0  0  0
M  END
>  <IDNUMBER>
F2119-0005

>  <Chemical_Name>
3-(3-hydroxyphenyl)propanoic acid

>  <PriceCoeff>
1.50

>  <CAS>
621-54-5

>  <MW>
166.18

>  <Description>
solid

>  <FSP3>
0.22

>  <clogP>
1.75

>  <TPSA>
57.53

>  <Acceptor>
3

>  <Donor>
1

>  <RotBonds>
3

>  <HAC>
12

>  <Collection>
Advanced

>  <PPDS>
+

$$$$
F2121-0053
  Mrv2219 10102508112D          

 13 13  0  0  0  0            999 V2000
    3.6875   -1.7625    0.0000 C   0  0  0  0  0  0  0  0  0  0  0  0
    2.9667   -1.3500    0.0000 C   0  0  0  0  0  0  0  0  0  0  0  0
    3.6875   -2.5875    0.0000 C   0  0  0  0  0  0  0  0  0  0  0  0
    4.4042   -2.9917    0.0000 C   0  0  0  0  0  0  0  0  0  0  0  0
    2.9667   -0.5167    0.0000 C   0  0  0  0  0  0  0  0  0  0  0  0
    2.2542   -1.7625    0.0000 C   0  0  0  0  0  0  0  0  0  0  0  0
    5.1167   -2.5875    0.0000 O   0  0  0  0  0  0  0  0  0  0  0  0
    2.2542   -0.1042    0.0000 C   0  0  0  0  0  0  0  0  0  0  0  0
    1.5417   -1.3500    0.0000 C   0  0  0  0  0  0  0  0  0  0  0  0
    3.6792   -0.1042    0.0000 Cl  0  0  0  0  0  0  0  0  0  0  0  0
    4.4042   -3.8250    0.0000 O   0  0  0  0  0  0  0  0  0  0  0  0
    1.5417   -0.5250    0.0000 C   0  0  0  0  0  0  0  0  0  0  0  0
    0.8250   -1.7542    0.0000 Cl  0  0  0  0  0  0  0  0  0  0  0  0
  2  1  1  0  0  0  0
  3  1  2  0  0  0  0
  4  3  1  0  0  0  0
  5  2  1  0  0  0  0
  6  2  2  0  0  0  0
  7  4  2  0  0  0  0
  8  5  2  0  0  0  0
  9  6  1  0  0  0  0
 10  5  1  0  0  0  0
 11  4  1  0  0  0  0
 12  9  2  0  0  0  0
 13  9  1  0  0  0  0
  8 12  1  0  0  0  0
M  END
>  <IDNUMBER>
F2121-0053

>  <Chemical_Name>
(2E)-3-(2,5-dichlorophenyl)prop-2-enoic acid

>  <PriceCoeff>
1.00

>  <CAS>
20595-47-5

>  <MW>
217.05

>  <Description>
solid

>  <FSP3>
0.00

>  <clogP>
3.34

>  <TPSA>
37.30

>  <Acceptor>
2

>  <Donor>
0

>  <RotBonds>
2

>  <HAC>
13

>  <Collection>
General

>  <PPDS>
+

$$$$
F2124-0810
  Mrv2219 10102508112D          

 13 14  0  0  0  0            999 V2000
    6.9644   -0.7933    0.0000 C   0  0  0  0  0  0  0  0  0  0  0  0
    6.2504   -1.2150    0.0000 C   0  0  0  0  0  0  0  0  0  0  0  0
    5.5365   -0.8059    0.0000 C   0  0  0  0  0  0  0  0  0  0  0  0
    4.8267   -1.2192    0.0000 C   0  0  0  0  0  0  0  0  0  0  0  0
    4.8267   -2.0417    0.0000 C   0  0  0  0  0  0  0  0  0  0  0  0
    6.9644    0.0334    0.0000 O   0  0  0  0  0  0  0  0  0  0  0  0
    6.2546   -2.0417    0.0000 C   0  0  0  0  0  0  0  0  0  0  0  0
    5.5407   -2.4551    0.0000 C   0  0  0  0  0  0  0  0  0  0  0  0
    7.6826   -1.2067    0.0000 O   0  0  0  0  0  0  0  0  0  0  0  0
    4.1127   -0.8017    0.0000 C   0  0  0  0  0  0  0  0  0  0  0  0
    4.1127   -2.4551    0.0000 C   0  0  0  0  0  0  0  0  0  0  0  0
    3.3987   -1.2192    0.0000 C   0  0  0  0  0  0  0  0  0  0  0  0
    3.3987   -2.0459    0.0000 C   0  0  0  0  0  0  0  0  0  0  0  0
  2  1  1  0  0  0  0
  3  2  2  0  0  0  0
  4  3  1  0  0  0  0
  5  8  1  0  0  0  0
  6  1  2  0  0  0  0
  7  2  1  0  0  0  0
  8  7  2  0  0  0  0
  9  1  1  0  0  0  0
 10  4  1  0  0  0  0
 11  5  1  0  0  0  0
 12 10  1  0  0  0  0
 13 11  1  0  0  0  0
  4  5  2  0  0  0  0
 12 13  1  0  0  0  0
M  END
>  <IDNUMBER>
F2124-0810

>  <Chemical_Name>
5,6,7,8-tetrahydronaphthalene-2-carboxylic acid

>  <PriceCoeff>
1.50

>  <CAS>
1131-63-1

>  <MW>
176.22

>  <Description>
solid

>  <FSP3>
0.36

>  <clogP>
2.26

>  <TPSA>
37.30

>  <Acceptor>
2

>  <Donor>
0

>  <RotBonds>
1

>  <HAC>
13

>  <Collection>
Advanced

>  <PPDS>
+

$$$$
F2130-0132
  Mrv2219 10102508112D          

 17 18  0  0  0  0            999 V2000
   -2.6844    3.0204    0.0000 C   0  0  0  0  0  0  0  0  0  0  0  0
   -2.9448    3.8145    0.0000 C   0  0  0  0  0  0  0  0  0  0  0  0
   -4.0287    3.0204    0.0000 N   0  0  0  0  0  0  0  0  0  0  0  0
   -3.7683    3.8145    0.0000 C   0  0  0  0  0  0  0  0  0  0  0  0
   -3.3608    2.5416    0.0000 N   0  0  0  0  0  0  0  0  0  0  0  0
   -1.8989    2.7684    0.0000 C   0  0  0  0  0  0  0  0  0  0  0  0
   -4.2555    4.4783    0.0000 C   0  0  0  0  0  0  0  0  0  0  0  0
   -2.4534    4.4783    0.0000 Br  0  0  0  0  0  0  0  0  0  0  0  0
   -1.7266    1.9619    0.0000 O   0  0  0  0  0  0  0  0  0  0  0  0
   -5.0790    4.3901    0.0000 C   0  0  0  0  0  0  0  0  0  0  0  0
   -3.9279    5.2345    0.0000 C   0  0  0  0  0  0  0  0  0  0  0  0
   -1.2813    3.3230    0.0000 O   0  0  0  0  0  0  0  0  0  0  0  0
   -5.2260    5.8143    0.0000 C   0  0  0  0  0  0  0  0  0  0  0  0
   -5.5663    5.0580    0.0000 C   0  0  0  0  0  0  0  0  0  0  0  0
   -4.4069    5.9025    0.0000 C   0  0  0  0  0  0  0  0  0  0  0  0
   -5.7092    6.4822    0.0000 F   0  0  0  0  0  0  0  0  0  0  0  0
   -0.4915    3.0709    0.0000 C   0  0  0  0  0  0  0  0  0  0  0  0
  2  1  2  0  0  0  0
  3  5  1  0  0  0  0
  4  2  1  0  0  0  0
  5  1  1  0  0  0  0
  6  1  1  0  0  0  0
  7  4  1  0  0  0  0
  8  2  1  0  0  0  0
  9  6  2  0  0  0  0
 10  7  2  0  0  0  0
 11  7  1  0  0  0  0
 12  6  1  0  0  0  0
 13 15  1  0  0  0  0
 14 10  1  0  0  0  0
 15 11  2  0  0  0  0
 16 13  1  0  0  0  0
 17 12  1  0  0  0  0
  3  4  2  0  0  0  0
 14 13  2  0  0  0  0
M  END
>  <IDNUMBER>
F2130-0132

>  <Chemical_Name>
methyl 4-bromo-3-(4-fluorophenyl)-1H-pyrazole-5-carboxylate

>  <PriceCoeff>
1.00

>  <CAS>
1350465-88-1

>  <MW>
299.10

>  <Description>
solid

>  <FSP3>
0.09

>  <clogP>
3.15

>  <TPSA>
54.98

>  <Acceptor>
4

>  <Donor>
2

>  <RotBonds>
3

>  <HAC>
17

>  <Collection>
General

>  <PPDS>
+

$$$$
F2130-0143
  Mrv2219 10102508112D          

 16 17  0  0  0  0            999 V2000
   -2.6844    3.0204    0.0000 C   0  0  0  0  0  0  0  0  0  0  0  0
   -2.9448    3.8145    0.0000 C   0  0  0  0  0  0  0  0  0  0  0  0
   -4.0287    3.0204    0.0000 N   0  0  0  0  0  0  0  0  0  0  0  0
   -3.7683    3.8145    0.0000 C   0  0  0  0  0  0  0  0  0  0  0  0
   -3.3608    2.5416    0.0000 N   0  0  0  0  0  0  0  0  0  0  0  0
   -1.8989    2.7684    0.0000 C   0  0  0  0  0  0  0  0  0  0  0  0
   -4.2555    4.4783    0.0000 C   0  0  0  0  0  0  0  0  0  0  0  0
   -2.4534    4.4783    0.0000 Br  0  0  0  0  0  0  0  0  0  0  0  0
   -1.7266    1.9619    0.0000 O   0  0  0  0  0  0  0  0  0  0  0  0
   -5.0790    4.3901    0.0000 C   0  0  0  0  0  0  0  0  0  0  0  0
   -3.9279    5.2345    0.0000 C   0  0  0  0  0  0  0  0  0  0  0  0
   -1.2813    3.3230    0.0000 O   0  0  0  0  0  0  0  0  0  0  0  0
   -5.2260    5.8143    0.0000 C   0  0  0  0  0  0  0  0  0  0  0  0
   -5.5663    5.0580    0.0000 C   0  0  0  0  0  0  0  0  0  0  0  0
   -4.4069    5.9025    0.0000 C   0  0  0  0  0  0  0  0  0  0  0  0
   -5.7092    6.4822    0.0000 F   0  0  0  0  0  0  0  0  0  0  0  0
  2  1  2  0  0  0  0
  3  5  1  0  0  0  0
  4  2  1  0  0  0  0
  5  1  1  0  0  0  0
  6  1  1  0  0  0  0
  7  4  1  0  0  0  0
  8  2  1  0  0  0  0
  9  6  2  0  0  0  0
 10  7  2  0  0  0  0
 11  7  1  0  0  0  0
 12  6  1  0  0  0  0
 13 15  1  0  0  0  0
 14 10  1  0  0  0  0
 15 11  2  0  0  0  0
 16 13  1  0  0  0  0
  3  4  2  0  0  0  0
 14 13  2  0  0  0  0
M  END
>  <IDNUMBER>
F2130-0143

>  <Chemical_Name>
4-bromo-3-(4-fluorophenyl)-1H-pyrazole-5-carboxylic acid

>  <PriceCoeff>
1.50

>  <CAS>
1350443-31-0

>  <MW>
285.07

>  <Description>
solid

>  <FSP3>
0.00

>  <clogP>
2.80

>  <TPSA>
65.98

>  <Acceptor>
4

>  <Donor>
2

>  <RotBonds>
2

>  <HAC>
16

>  <Collection>
Advanced

>  <PPDS>
+

$$$$
F2135-0535
  Mrv2219 10102508112D          

 15 16  0  0  0  0            999 V2000
    6.0913   -3.5199    0.0000 C   0  0  0  0  0  0  0  0  0  0  0  0
    7.4269   -3.5199    0.0000 N   0  0  0  0  0  0  0  0  0  0  0  0
    6.3451   -2.7336    0.0000 C   0  0  0  0  0  0  0  0  0  0  0  0
    6.7570   -3.9985    0.0000 O   0  0  0  0  0  0  0  0  0  0  0  0
    7.1689   -2.7336    0.0000 C   0  0  0  0  0  0  0  0  0  0  0  0
    5.3090   -3.7738    0.0000 C   0  0  0  0  0  0  0  0  0  0  0  0
    4.6975   -3.2245    0.0000 C   0  0  0  0  0  0  0  0  0  0  0  0
    5.1427   -4.5726    0.0000 C   0  0  0  0  0  0  0  0  0  0  0  0
    3.7446   -4.2855    0.0000 C   0  0  0  0  0  0  0  0  0  0  0  0
    4.3604   -4.8348    0.0000 C   0  0  0  0  0  0  0  0  0  0  0  0
    3.9111   -3.4742    0.0000 C   0  0  0  0  0  0  0  0  0  0  0  0
    7.6557   -2.0637    0.0000 C   0  0  0  0  0  0  0  0  0  0  0  0
    2.9624   -4.5435    0.0000 O   0  0  0  0  0  0  0  0  0  0  0  0
    8.4753   -2.1511    0.0000 O   0  0  0  0  0  0  0  0  0  0  0  0
    2.3466   -3.9860    0.0000 C   0  0  0  0  0  0  0  0  0  0  0  0
  2  4  1  0  0  0  0
  3  1  2  0  0  0  0
  4  1  1  0  0  0  0
  5  3  1  0  0  0  0
  6  1  1  0  0  0  0
  7  6  2  0  0  0  0
  8  6  1  0  0  0  0
  9 10  1  0  0  0  0
 10  8  2  0  0  0  0
 11  7  1  0  0  0  0
 12  5  1  0  0  0  0
 13  9  1  0  0  0  0
 14 12  1  0  0  0  0
 15 13  1  0  0  0  0
  2  5  2  0  0  0  0
 11  9  2  0  0  0  0
M  END
>  <IDNUMBER>
F2135-0535

>  <Chemical_Name>
[5-(4-methoxyphenyl)-1,2-oxazol-3-yl]methanol

>  <PriceCoeff>
1.50

>  <CAS>
58492-77-6

>  <MW>
205.21

>  <Description>
solid

>  <FSP3>
0.18

>  <clogP>
1.06

>  <TPSA>
55.49

>  <Acceptor>
4

>  <Donor>
1

>  <RotBonds>
3

>  <HAC>
15

>  <Collection>
Advanced

>  <PPDS>
+

$$$$
F2135-0602
  Mrv2219 10102508112D          

 13 14  0  0  0  0            999 V2000
   -0.3702   -0.2663    0.0000 N   0  0  0  0  0  0  0  0  0  0  0  0
   -1.1190    0.0707    0.0000 C   0  0  0  0  0  0  0  0  0  0  0  0
    0.1789    0.3494    0.0000 C   0  0  0  0  0  0  0  0  0  0  0  0
   -1.0358    0.8861    0.0000 N   0  0  0  0  0  0  0  0  0  0  0  0
   -0.2329    1.0608    0.0000 N   0  0  0  0  0  0  0  0  0  0  0  0
   -1.8304   -0.3412    0.0000 C   0  0  0  0  0  0  0  0  0  0  0  0
   -0.1955   -1.0650    0.0000 N   0  0  0  0  0  0  0  0  0  0  0  0
    1.0026    0.2704    0.0000 S   0  0  0  0  0  0  0  0  0  0  0  0
   -2.5459   -1.5849    0.0000 N   0  0  0  0  0  0  0  0  0  0  0  0
   -1.8304   -1.1731    0.0000 C   0  0  0  0  0  0  0  0  0  0  0  0
   -2.5459    0.0707    0.0000 C   0  0  0  0  0  0  0  0  0  0  0  0
   -3.2573   -1.1731    0.0000 C   0  0  0  0  0  0  0  0  0  0  0  0
   -3.2573   -0.3494    0.0000 C   0  0  0  0  0  0  0  0  0  0  0  0
  2  1  1  0  0  0  0
  3  1  1  0  0  0  0
  4  2  2  0  0  0  0
  5  3  2  0  0  0  0
  6  2  1  0  0  0  0
  7  1  1  0  0  0  0
  8  3  1  0  0  0  0
  9 10  2  0  0  0  0
 10  6  1  0  0  0  0
 11  6  2  0  0  0  0
 12 13  2  0  0  0  0
 13 11  1  0  0  0  0
  4  5  1  0  0  0  0
  9 12  1  0  0  0  0
M  END
>  <IDNUMBER>
F2135-0602

>  <Chemical_Name>
4-amino-5-(pyridin-3-yl)-4H-1,2,4-triazole-3-thiol

>  <PriceCoeff>
1.00

>  <CAS>
78027-00-6

>  <MW>
193.23

>  <Description>
solid

>  <FSP3>
0.00

>  <clogP>
-0.49

>  <TPSA>
69.62

>  <Acceptor>
3

>  <Donor>
4

>  <RotBonds>
1

>  <HAC>
13

>  <Collection>
General

>  <PPDS>
+

$$$$
F2135-1140
  Mrv2219 10102508112D          

 17 18  0  0  0  0            999 V2000
    0.6990   -0.8321    0.0000 C   0  0  0  0  0  0  0  0  0  0  0  0
    1.5227   -0.8280    0.0000 C   0  0  0  0  0  0  0  0  0  0  0  0
    1.7766   -1.6143    0.0000 C   0  0  0  0  0  0  0  0  0  0  0  0
    1.1150   -2.1011    0.0000 N   0  0  0  0  0  0  0  0  0  0  0  0
    0.4451   -1.6184    0.0000 N   0  0  0  0  0  0  0  0  0  0  0  0
    0.2122   -0.1665    0.0000 C   0  0  0  0  0  0  0  0  0  0  0  0
    1.1191   -2.9248    0.0000 C   0  0  0  0  0  0  0  0  0  0  0  0
    2.0012   -0.1623    0.0000 Cl  0  0  0  0  0  0  0  0  0  0  0  0
    2.5629   -1.8639    0.0000 O   0  0  0  0  0  0  0  0  0  0  0  0
    0.9777    0.1290    0.0000 F   0  0  0  0  0  0  0  0  0  0  0  0
    0.5450    0.5866    0.0000 F   0  0  0  0  0  0  0  0  0  0  0  0
   -0.6074   -0.2538    0.0000 F   0  0  0  0  0  0  0  0  0  0  0  0
    0.4077   -3.3367    0.0000 C   0  0  0  0  0  0  0  0  0  0  0  0
    1.8348   -3.3367    0.0000 C   0  0  0  0  0  0  0  0  0  0  0  0
    1.8348   -4.1646    0.0000 C   0  0  0  0  0  0  0  0  0  0  0  0
    0.4077   -4.1646    0.0000 C   0  0  0  0  0  0  0  0  0  0  0  0
    1.1191   -4.5765    0.0000 C   0  0  0  0  0  0  0  0  0  0  0  0
  2  1  1  0  0  0  0
  3  2  2  0  0  0  0
  4  5  1  0  0  0  0
  5  1  2  0  0  0  0
  6  1  1  0  0  0  0
  7  4  1  0  0  0  0
  8  2  1  0  0  0  0
  9  3  1  0  0  0  0
 10  6  1  0  0  0  0
 11  6  1  0  0  0  0
 12  6  1  0  0  0  0
 13  7  1  0  0  0  0
 14  7  2  0  0  0  0
 15 14  1  0  0  0  0
 16 13  2  0  0  0  0
 17 16  1  0  0  0  0
  3  4  1  0  0  0  0
 15 17  2  0  0  0  0
M  END
>  <IDNUMBER>
F2135-1140

>  <Chemical_Name>
4-chloro-1-phenyl-3-(trifluoromethyl)-1H-pyrazol-5-ol

>  <PriceCoeff>
1.50

>  <CAS>
122431-44-1

>  <MW>
262.62

>  <Description>
solid

>  <FSP3>
0.10

>  <clogP>
3.71

>  <TPSA>
38.05

>  <Acceptor>
2

>  <Donor>
2

>  <RotBonds>
2

>  <HAC>
17

>  <Collection>
Advanced

>  <PPDS>
+

$$$$
F2135-1153
  Mrv2219 10102508112D          

 12 13  0  0  0  0            999 V2000
   10.7997   -2.0826    0.0000 N   0  0  0  0  0  0  0  0  0  0  0  0
   10.3882   -1.3676    0.0000 C   0  0  0  0  0  0  0  0  0  0  0  0
   11.6270   -2.0826    0.0000 C   0  0  0  0  0  0  0  0  0  0  0  0
   10.7997   -0.6568    0.0000 C   0  0  0  0  0  0  0  0  0  0  0  0
   11.6270   -0.6568    0.0000 C   0  0  0  0  0  0  0  0  0  0  0  0
   12.0385   -1.3676    0.0000 C   0  0  0  0  0  0  0  0  0  0  0  0
   12.8741   -2.7977    0.0000 N   0  0  0  0  0  0  0  0  0  0  0  0
   12.0468   -2.8017    0.0000 C   0  0  0  0  0  0  0  0  0  0  0  0
    9.5609   -1.3635    0.0000 C   0  0  0  0  0  0  0  0  0  0  0  0
   10.3882    0.0582    0.0000 C   0  0  0  0  0  0  0  0  0  0  0  0
    9.1494   -0.6568    0.0000 C   0  0  0  0  0  0  0  0  0  0  0  0
    9.5609    0.0582    0.0000 C   0  0  0  0  0  0  0  0  0  0  0  0
  2  1  1  0  0  0  0
  3  1  2  0  0  0  0
  4  2  2  0  0  0  0
  5  6  2  0  0  0  0
  6  3  1  0  0  0  0
  7  8  1  0  0  0  0
  8  3  1  0  0  0  0
  9  2  1  0  0  0  0
 10  4  1  0  0  0  0
 11  9  2  0  0  0  0
 12 11  1  0  0  0  0
  4  5  1  0  0  0  0
 10 12  2  0  0  0  0
M  END
>  <IDNUMBER>
F2135-1153

>  <Chemical_Name>
1-(quinolin-2-yl)methanamine

>  <PriceCoeff>
1.50

>  <CAS>
5760-20-3

>  <MW>
158.20

>  <Description>
oil

>  <FSP3>
0.10

>  <clogP>
1.69

>  <TPSA>
38.91

>  <Acceptor>
1

>  <Donor>
2

>  <RotBonds>
1

>  <HAC>
12

>  <Collection>
Advanced

>  <PPDS>
+

$$$$
F2135-1489
  Mrv2219 10102508112D          

 16 18  0  0  0  0            999 V2000
    6.0960   -3.7913    0.0000 C   0  0  0  0  0  0  0  0  0  0  0  0
    5.6184   -4.4474    0.0000 N   0  0  0  0  0  0  0  0  0  0  0  0
    5.6184   -3.1186    0.0000 C   0  0  0  0  0  0  0  0  0  0  0  0
    6.9182   -3.6999    0.0000 C   0  0  0  0  0  0  0  0  0  0  0  0
    4.8378   -3.3760    0.0000 C   0  0  0  0  0  0  0  0  0  0  0  0
    4.8378   -4.1982    0.0000 C   0  0  0  0  0  0  0  0  0  0  0  0
    7.4040   -4.3685    0.0000 C   0  0  0  0  0  0  0  0  0  0  0  0
    7.2628   -2.9525    0.0000 N   0  0  0  0  0  0  0  0  0  0  0  0
    7.0635   -5.1201    0.0000 O   0  0  0  0  0  0  0  0  0  0  0  0
    5.9465   -2.3670    0.0000 C   0  0  0  0  0  0  0  0  0  0  0  0
    8.2138   -4.2896    0.0000 O   0  0  0  0  0  0  0  0  0  0  0  0
    6.7687   -2.2798    0.0000 C   0  0  0  0  0  0  0  0  0  0  0  0
    4.1235   -2.9649    0.0000 C   0  0  0  0  0  0  0  0  0  0  0  0
    4.1235   -4.6135    0.0000 C   0  0  0  0  0  0  0  0  0  0  0  0
    3.4051   -3.3760    0.0000 C   0  0  0  0  0  0  0  0  0  0  0  0
    3.4051   -4.1982    0.0000 C   0  0  0  0  0  0  0  0  0  0  0  0
  2  1  1  0  0  0  0
  3  1  2  0  0  0  0
  4  1  1  0  0  0  0
  5  3  1  0  0  0  0
  6  2  1  0  0  0  0
  7  4  1  0  0  0  0
  8  4  1  0  0  0  0
  9  7  2  0  0  0  0
 10  3  1  0  0  0  0
 11  7  1  0  0  0  0
 12 10  1  0  0  0  0
 13  5  1  0  0  0  0
 14  6  1  0  0  0  0
 15 13  2  0  0  0  0
 16 14  2  0  0  0  0
  6  5  2  0  0  0  0
  8 12  1  0  0  0  0
 15 16  1  0  0  0  0
M  END
>  <IDNUMBER>
F2135-1489

>  <Chemical_Name>
1H,2H,3H,4H,9H-pyrido[3,4-b]indole-1-carboxylic acid

>  <PriceCoeff>
1.00

>  <CAS>
6649-91-8

>  <MW>
216.24

>  <Description>
solid

>  <FSP3>
0.25

>  <clogP>
-1.20

>  <TPSA>
65.12

>  <Acceptor>
2

>  <Donor>
2

>  <RotBonds>
1

>  <HAC>
16

>  <Collection>
General

>  <PPDS>
+

$$$$
F2135-1620
  Mrv2219 10102508112D          

 15 16  0  0  0  0            999 V2000
    4.5792   -1.6250    0.0000 S   0  0  0  0  0  0  0  0  0  0  0  0
    3.8667   -1.2167    0.0000 C   0  0  0  0  0  0  0  0  0  0  0  0
    2.4417   -0.3917    0.0000 C   0  0  0  0  0  0  0  0  0  0  0  0
    4.5792   -2.4500    0.0000 C   0  0  0  0  0  0  0  0  0  0  0  0
    1.7250    0.0208    0.0000 Cl  0  0  0  0  0  0  0  0  0  0  0  0
    3.8667   -0.3917    0.0000 C   0  0  0  0  0  0  0  0  0  0  0  0
    3.1542   -1.6292    0.0000 C   0  0  0  0  0  0  0  0  0  0  0  0
    2.4417   -1.2250    0.0000 C   0  0  0  0  0  0  0  0  0  0  0  0
    3.1500    0.0250    0.0000 C   0  0  0  0  0  0  0  0  0  0  0  0
    5.3000   -2.8542    0.0000 C   0  0  0  0  0  0  0  0  0  0  0  0
    5.2917   -3.6792    0.0000 C   0  0  0  0  0  0  0  0  0  0  0  0
    6.0042   -2.4417    0.0000 C   0  0  0  0  0  0  0  0  0  0  0  0
    6.7167   -2.8500    0.0000 C   0  0  0  0  0  0  0  0  0  0  0  0
    6.0042   -4.0917    0.0000 C   0  0  0  0  0  0  0  0  0  0  0  0
    6.7250   -3.6792    0.0000 C   0  0  0  0  0  0  0  0  0  0  0  0
  2  1  1  0  0  0  0
  3  8  2  0  0  0  0
  4  1  1  0  0  0  0
  5  3  1  0  0  0  0
  6  2  1  0  0  0  0
  7  2  2  0  0  0  0
  8  7  1  0  0  0  0
  9  6  2  0  0  0  0
 10  4  1  0  0  0  0
 11 10  2  0  0  0  0
 12 10  1  0  0  0  0
 13 12  2  0  0  0  0
 14 11  1  0  0  0  0
 15 13  1  0  0  0  0
  9  3  1  0  0  0  0
 14 15  2  0  0  0  0
M  END
>  <IDNUMBER>
F2135-1620

>  <Chemical_Name>
1-(benzylsulfanyl)-4-chlorobenzene

>  <PriceCoeff>
1.00

>  <CAS>
53830-54-9

>  <MW>
234.74

>  <Description>
solid

>  <FSP3>
0.08

>  <clogP>
5.04

>  <TPSA>
0.00

>  <Acceptor>
0

>  <Donor>
0

>  <RotBonds>
3

>  <HAC>
15

>  <Collection>
General

>  <PPDS>
+

$$$$
F2135-1745
  Mrv2219 10102508112D          

 15 16  0  0  0  0            999 V2000
    6.8016   -4.4008    0.0000 S   0  0  0  0  0  0  0  0  0  0  0  0
    9.6617   -5.2150    0.0000 C   0  0  0  0  0  0  0  0  0  0  0  0
    7.5155   -3.9832    0.0000 C   0  0  0  0  0  0  0  0  0  0  0  0
    8.2337   -4.3924    0.0000 C   0  0  0  0  0  0  0  0  0  0  0  0
    6.0793   -3.9874    0.0000 C   0  0  0  0  0  0  0  0  0  0  0  0
   10.3757   -5.6283    0.0000 F   0  0  0  0  0  0  0  0  0  0  0  0
    9.6575   -4.3883    0.0000 C   0  0  0  0  0  0  0  0  0  0  0  0
    8.9435   -5.6367    0.0000 C   0  0  0  0  0  0  0  0  0  0  0  0
    8.9435   -3.9749    0.0000 C   0  0  0  0  0  0  0  0  0  0  0  0
    8.2295   -5.2233    0.0000 C   0  0  0  0  0  0  0  0  0  0  0  0
    6.0793   -3.1565    0.0000 C   0  0  0  0  0  0  0  0  0  0  0  0
    5.3653   -4.4008    0.0000 C   0  0  0  0  0  0  0  0  0  0  0  0
    5.3653   -2.7432    0.0000 C   0  0  0  0  0  0  0  0  0  0  0  0
    4.6513   -3.9874    0.0000 C   0  0  0  0  0  0  0  0  0  0  0  0
    4.6513   -3.1565    0.0000 C   0  0  0  0  0  0  0  0  0  0  0  0
  2  8  2  0  0  0  0
  3  1  1  0  0  0  0
  4  3  1  0  0  0  0
  5  1  1  0  0  0  0
  6  2  1  0  0  0  0
  7  9  2  0  0  0  0
  8 10  1  0  0  0  0
  9  4  1  0  0  0  0
 10  4  2  0  0  0  0
 11  5  1  0  0  0  0
 12  5  2  0  0  0  0
 13 11  2  0  0  0  0
 14 12  1  0  0  0  0
 15 14  2  0  0  0  0
 13 15  1  0  0  0  0
  7  2  1  0  0  0  0
M  END
>  <IDNUMBER>
F2135-1745

>  <Chemical_Name>
1-fluoro-4-[(phenylsulfanyl)methyl]benzene

>  <PriceCoeff>
1.00

>  <CAS>
351-66-6

>  <MW>
218.29

>  <Description>
solid

>  <FSP3>
0.08

>  <clogP>
4.41

>  <TPSA>
0.00

>  <Acceptor>
0

>  <Donor>
0

>  <RotBonds>
3

>  <HAC>
15

>  <Collection>
General

>  <PPDS>
+

$$$$
F2135-1746
  Mrv2219 10102508112D          

 16 17  0  0  0  0            999 V2000
    6.8544   -3.3067    0.0000 S   0  0  0  0  0  0  0  0  0  0  0  0
    6.0236   -3.3026    0.0000 C   0  0  0  0  0  0  0  0  0  0  0  0
    9.7374   -4.0420    0.0000 C   0  0  0  0  0  0  0  0  0  0  0  0
    4.3785   -3.2818    0.0000 C   0  0  0  0  0  0  0  0  0  0  0  0
    7.2574   -4.0254    0.0000 C   0  0  0  0  0  0  0  0  0  0  0  0
    8.0882   -4.0296    0.0000 C   0  0  0  0  0  0  0  0  0  0  0  0
   10.5599   -4.0545    0.0000 F   0  0  0  0  0  0  0  0  0  0  0  0
    3.5518   -3.2776    0.0000 Cl  0  0  0  0  0  0  0  0  0  0  0  0
    5.6123   -4.0046    0.0000 C   0  0  0  0  0  0  0  0  0  0  0  0
    5.6248   -2.5839    0.0000 C   0  0  0  0  0  0  0  0  0  0  0  0
    9.3137   -4.7607    0.0000 C   0  0  0  0  0  0  0  0  0  0  0  0
    4.7898   -4.0046    0.0000 C   0  0  0  0  0  0  0  0  0  0  0  0
    9.3261   -3.3275    0.0000 C   0  0  0  0  0  0  0  0  0  0  0  0
    4.7981   -2.5715    0.0000 C   0  0  0  0  0  0  0  0  0  0  0  0
    8.4994   -3.3192    0.0000 C   0  0  0  0  0  0  0  0  0  0  0  0
    8.4911   -4.7524    0.0000 C   0  0  0  0  0  0  0  0  0  0  0  0
  2  1  1  0  0  0  0
  3 11  2  0  0  0  0
  4 14  2  0  0  0  0
  5  1  1  0  0  0  0
  6  5  1  0  0  0  0
  7  3  1  0  0  0  0
  8  4  1  0  0  0  0
  9  2  1  0  0  0  0
 10  2  2  0  0  0  0
 11 16  1  0  0  0  0
 12  9  2  0  0  0  0
 13 15  2  0  0  0  0
 14 10  1  0  0  0  0
 15  6  1  0  0  0  0
 16  6  2  0  0  0  0
 12  4  1  0  0  0  0
 13  3  1  0  0  0  0
M  END
>  <IDNUMBER>
F2135-1746

>  <Chemical_Name>
1-chloro-4-{[(4-fluorophenyl)methyl]sulfanyl}benzene

>  <PriceCoeff>
1.00

>  <CAS>
332-05-8

>  <MW>
252.73

>  <Description>
solid

>  <FSP3>
0.08

>  <clogP>
5.18

>  <TPSA>
0.00

>  <Acceptor>
0

>  <Donor>
0

>  <RotBonds>
3

>  <HAC>
16

>  <Collection>
General

>  <PPDS>
+

$$$$
F2143-0151
  Mrv2219 10102508112D          

 12 13  0  0  0  0            999 V2000
    4.9856   -4.7399    0.0000 N   0  0  0  0  0  0  0  0  0  0  0  0
    4.5733   -3.4737    0.0000 C   0  0  0  0  0  0  0  0  0  0  0  0
    5.6521   -4.2526    0.0000 C   0  0  0  0  0  0  0  0  0  0  0  0
    5.3980   -3.4737    0.0000 C   0  0  0  0  0  0  0  0  0  0  0  0
    4.3151   -4.2526    0.0000 C   0  0  0  0  0  0  0  0  0  0  0  0
    4.0235   -2.8614    0.0000 C   0  0  0  0  0  0  0  0  0  0  0  0
    3.5112   -4.4275    0.0000 C   0  0  0  0  0  0  0  0  0  0  0  0
    3.2155   -3.0281    0.0000 C   0  0  0  0  0  0  0  0  0  0  0  0
    2.9531   -3.8153    0.0000 C   0  0  0  0  0  0  0  0  0  0  0  0
    2.9156   -1.6286    0.0000 N   0  0  0  0  0  0  0  0  0  0  0  0
    6.4351   -4.5150    0.0000 C   0  0  0  0  0  0  0  0  0  0  0  0
    2.6615   -2.4158    0.0000 C   0  0  0  0  0  0  0  0  0  0  0  0
  2  5  2  0  0  0  0
  3  1  1  0  0  0  0
  4  3  2  0  0  0  0
  5  1  1  0  0  0  0
  6  2  1  0  0  0  0
  7  5  1  0  0  0  0
  8  9  1  0  0  0  0
  9  7  2  0  0  0  0
 10 12  1  0  0  0  0
 11  3  1  0  0  0  0
 12  8  1  0  0  0  0
  4  2  1  0  0  0  0
  6  8  2  0  0  0  0
M  END
>  <IDNUMBER>
F2143-0151

>  <Chemical_Name>
1-(2-methyl-1H-indol-5-yl)methanamine

>  <PriceCoeff>
1.50

>  <CAS>
36798-25-1

>  <MW>
160.22

>  <Description>
solid

>  <FSP3>
0.20

>  <clogP>
1.40

>  <TPSA>
41.81

>  <Acceptor>
0

>  <Donor>
2

>  <RotBonds>
1

>  <HAC>
12

>  <Collection>
Advanced

>  <PPDS>
+

$$$$
F2145-0647
  Mrv2219 10102508112D          

 13 14  0  0  0  0            999 V2000
    6.9333   -8.7250    0.0000 N   0  0  0  0  0  0  0  0  0  0  0  0
    7.6875   -8.3917    0.0000 C   0  0  0  0  0  0  0  0  0  0  0  0
    6.7958   -7.3958    0.0000 N   0  0  0  0  0  0  0  0  0  0  0  0
    8.4042   -8.8042    0.0000 C   0  0  0  0  0  0  0  0  0  0  0  0
    7.6042   -7.5708    0.0000 O   0  0  0  0  0  0  0  0  0  0  0  0
    6.3833   -8.1125    0.0000 C   0  0  0  0  0  0  0  0  0  0  0  0
    9.1167  -10.0417    0.0000 N   0  0  0  0  0  0  0  0  0  0  0  0
    9.1167   -8.3917    0.0000 C   0  0  0  0  0  0  0  0  0  0  0  0
    8.4000   -9.6250    0.0000 C   0  0  0  0  0  0  0  0  0  0  0  0
    9.8292   -8.8042    0.0000 C   0  0  0  0  0  0  0  0  0  0  0  0
   10.5458   -8.3917    0.0000 Br  0  0  0  0  0  0  0  0  0  0  0  0
    9.8292   -9.6292    0.0000 C   0  0  0  0  0  0  0  0  0  0  0  0
    5.5625   -8.1958    0.0000 C   0  0  0  0  0  0  0  0  0  0  0  0
  2  1  2  0  0  0  0
  3  6  2  0  0  0  0
  4  2  1  0  0  0  0
  5  2  1  0  0  0  0
  6  1  1  0  0  0  0
  7  9  1  0  0  0  0
  8  4  1  0  0  0  0
  9  4  2  0  0  0  0
 10  8  2  0  0  0  0
 11 10  1  0  0  0  0
 12  7  2  0  0  0  0
 13  6  1  0  0  0  0
  3  5  1  0  0  0  0
 10 12  1  0  0  0  0
M  END
>  <IDNUMBER>
F2145-0647

>  <Chemical_Name>
3-bromo-5-(3-methyl-1,2,4-oxadiazol-5-yl)pyridine

>  <PriceCoeff>
1.50

>  <CAS>
1283108-13-3

>  <MW>
240.06

>  <Description>
solid

>  <FSP3>
0.13

>  <clogP>
1.90

>  <TPSA>
51.81

>  <Acceptor>
4

>  <Donor>
1

>  <RotBonds>
1

>  <HAC>
13

>  <Collection>
Advanced

$$$$
F2145-0662
  Mrv2219 10102508112D          

 16 18  0  0  0  0            999 V2000
   16.8875  -23.6000    0.0000 N   0  0  0  0  0  0  0  0  0  0  0  0
   16.8042  -24.4208    0.0000 C   0  0  0  0  0  0  0  0  0  0  0  0
   18.1083  -24.1458    0.0000 N   0  0  0  0  0  0  0  0  0  0  0  0
   17.5542  -24.7583    0.0000 O   0  0  0  0  0  0  0  0  0  0  0  0
   17.6958  -23.4292    0.0000 C   0  0  0  0  0  0  0  0  0  0  0  0
   16.0917  -24.8375    0.0000 C   0  0  0  0  0  0  0  0  0  0  0  0
   15.3792  -24.4250    0.0000 C   0  0  0  0  0  0  0  0  0  0  0  0
   14.6625  -24.8375    0.0000 C   0  0  0  0  0  0  0  0  0  0  0  0
   13.9458  -24.4250    0.0000 N   0  0  0  0  0  0  0  0  0  0  0  0
   13.9542  -26.0750    0.0000 N   0  0  0  0  0  0  0  0  0  0  0  0
   14.6625  -25.6625    0.0000 C   0  0  0  0  0  0  0  0  0  0  0  0
   16.0917  -25.6625    0.0000 C   0  0  0  0  0  0  0  0  0  0  0  0
   15.3792  -26.0750    0.0000 C   0  0  0  0  0  0  0  0  0  0  0  0
   18.0333  -22.6750    0.0000 C   0  0  0  0  0  0  0  0  0  0  0  0
   13.2333  -24.8417    0.0000 C   0  0  0  0  0  0  0  0  0  0  0  0
   13.2375  -25.6667    0.0000 C   0  0  0  0  0  0  0  0  0  0  0  0
  2  1  2  0  0  0  0
  3  5  2  0  0  0  0
  4  2  1  0  0  0  0
  5  1  1  0  0  0  0
  6  2  1  0  0  0  0
  7  6  2  0  0  0  0
  8  7  1  0  0  0  0
  9  8  2  0  0  0  0
 10 11  2  0  0  0  0
 11  8  1  0  0  0  0
 12  6  1  0  0  0  0
 13 12  2  0  0  0  0
 14  5  1  0  0  0  0
 15  9  1  0  0  0  0
 16 15  2  0  0  0  0
  3  4  1  0  0  0  0
 13 11  1  0  0  0  0
 10 16  1  0  0  0  0
M  END
>  <IDNUMBER>
F2145-0662

>  <Chemical_Name>
6-(3-methyl-1,2,4-oxadiazol-5-yl)quinoxaline

>  <PriceCoeff>
1.00

>  <CAS>
1283108-26-8

>  <MW>
212.21

>  <Description>
solid

>  <FSP3>
0.09

>  <clogP>
1.66

>  <TPSA>
64.70

>  <Acceptor>
5

>  <Donor>
0

>  <RotBonds>
1

>  <HAC>
16

>  <Collection>
General

>  <PPDS>
+

$$$$
F2146-0709
  Mrv2219 10102508112D          

 26 27  0  0  0  0            999 V2000
    6.2741   -2.2304    0.0000 C   0  0  0  0  0  0  0  0  0  0  0  0
    6.0157   -3.0058    0.0000 N   0  0  0  0  0  0  0  0  0  0  0  0
    5.6155   -1.7426    0.0000 S   0  0  0  0  0  0  0  0  0  0  0  0
    4.9484   -2.2304    0.0000 C   0  0  0  0  0  0  0  0  0  0  0  0
    5.2027   -3.0058    0.0000 C   0  0  0  0  0  0  0  0  0  0  0  0
    7.0579   -1.9760    0.0000 N   0  0  0  0  0  0  0  0  0  0  0  0
    4.1480   -2.0511    0.0000 C   0  0  0  0  0  0  0  0  0  0  0  0
    4.6525   -3.6144    0.0000 C   0  0  0  0  0  0  0  0  0  0  0  0
    3.5977   -2.6639    0.0000 C   0  0  0  0  0  0  0  0  0  0  0  0
    6.5034   -3.6727    0.0000 C   0  0  0  0  0  0  0  0  0  0  0  0
    3.8562   -3.4393    0.0000 C   0  0  0  0  0  0  0  0  0  0  0  0
    2.7932   -2.4930    0.0000 O   0  0  0  0  0  0  0  0  0  0  0  0
    2.2429   -3.1058    0.0000 C   0  0  0  0  0  0  0  0  0  0  0  0
    6.1700   -4.4273    0.0000 C   0  0  0  0  0  0  0  0  0  0  0  0
    2.5013   -3.8896    0.0000 C   0  0  0  0  0  0  0  0  0  0  0  0
   10.0943   -2.0174    0.0000 S   0  0  0  0  0  0  0  0  0  0  0  0
    9.6913   -2.7275    0.0000 C   0  0  0  0  0  0  0  0  0  0  0  0
    9.3831   -1.5958    0.0000 O   0  0  0  0  0  0  0  0  0  0  0  0
   10.5003   -1.2959    0.0000 O   0  0  0  0  0  0  0  0  0  0  0  0
   10.8159   -2.4234    0.0000 O   0  0  0  0  0  0  0  0  0  0  0  0
   10.1069   -3.4455    0.0000 C   0  0  0  0  0  0  0  0  0  0  0  0
    8.8604   -2.7317    0.0000 C   0  0  0  0  0  0  0  0  0  0  0  0
    9.6896   -4.1641    0.0000 C   0  0  0  0  0  0  0  0  0  0  0  0
    8.4523   -3.4496    0.0000 C   0  0  0  0  0  0  0  0  0  0  0  0
    8.8659   -4.1640    0.0000 C   0  0  0  0  0  0  0  0  0  0  0  0
    8.4521   -4.8805    0.0000 C   0  0  0  0  0  0  0  0  0  0  0  0
 13 12  1  0  0  0  0
 14 10  1  0  0  0  0
 15 13  1  0  0  0  0
  4  5  2  0  0  0  0
 11  9  1  0  0  0  0
  2  1  1  0  0  0  0
  3  1  1  0  0  0  0
  4  3  1  0  0  0  0
  5  2  1  0  0  0  0
  6  1  2  0  0  0  0
  7  4  1  0  0  0  0
  8  5  1  0  0  0  0
  9  7  2  0  0  0  0
 10  2  1  0  0  0  0
 11  8  2  0  0  0  0
 12  9  1  0  0  0  0
 17 16  1  0  0  0  0
 18 16  2  0  0  0  0
 19 16  2  0  0  0  0
 20 16  1  0  0  0  0
 21 17  1  0  0  0  0
 22 17  2  0  0  0  0
 23 21  2  0  0  0  0
 24 22  1  0  0  0  0
 25 24  2  0  0  0  0
 26 25  1  0  0  0  0
 23 25  1  0  0  0  0
M  END
>  <IDNUMBER>
F2146-0709

>  <Chemical_Name>
4-methylbenzene-1-sulfonic acid; 6-ethoxy-3-ethyl-2,3-dihydro-1,3-benzothiazol-2-imine

>  <PriceCoeff>
1.00

>  <CAS>
2034155-63-8

>  <MW>
222.31

>  <Description>
solid

>  <FSP3>
0.36

>  <clogP>
2.58

>  <TPSA>
36.32

>  <Acceptor>
1

>  <Donor>
1

>  <RotBonds>
3

>  <HAC>
15

>  <Collection>
General

$$$$
F2146-0710
  Mrv2219 10102508112D          

 24 25  0  0  0  0            999 V2000
    4.6597   -2.6437    0.0000 C   0  0  0  0  0  0  0  0  0  0  0  0
    4.4020   -3.4252    0.0000 N   0  0  0  0  0  0  0  0  0  0  0  0
    3.9947   -2.1574    0.0000 S   0  0  0  0  0  0  0  0  0  0  0  0
    3.3254   -2.6437    0.0000 C   0  0  0  0  0  0  0  0  0  0  0  0
    3.5790   -3.4252    0.0000 C   0  0  0  0  0  0  0  0  0  0  0  0
    2.5190   -2.4609    0.0000 C   0  0  0  0  0  0  0  0  0  0  0  0
    5.4495   -2.3860    0.0000 N   0  0  0  0  0  0  0  0  0  0  0  0
    3.0261   -4.0362    0.0000 C   0  0  0  0  0  0  0  0  0  0  0  0
    1.9620   -3.0802    0.0000 C   0  0  0  0  0  0  0  0  0  0  0  0
    4.8926   -4.0945    0.0000 C   0  0  0  0  0  0  0  0  0  0  0  0
    2.2239   -3.8616    0.0000 C   0  0  0  0  0  0  0  0  0  0  0  0
    1.1515   -2.9098    0.0000 Cl  0  0  0  0  0  0  0  0  0  0  0  0
    4.5559   -4.8552    0.0000 C   0  0  0  0  0  0  0  0  0  0  0  0
    8.4772   -2.4396    0.0000 S   0  0  0  0  0  0  0  0  0  0  0  0
    8.0753   -3.1477    0.0000 C   0  0  0  0  0  0  0  0  0  0  0  0
    7.7679   -2.0193    0.0000 O   0  0  0  0  0  0  0  0  0  0  0  0
    8.8820   -1.7202    0.0000 O   0  0  0  0  0  0  0  0  0  0  0  0
    9.1966   -2.8444    0.0000 O   0  0  0  0  0  0  0  0  0  0  0  0
    8.4897   -3.8636    0.0000 C   0  0  0  0  0  0  0  0  0  0  0  0
    7.2468   -3.1519    0.0000 C   0  0  0  0  0  0  0  0  0  0  0  0
    8.0736   -4.5801    0.0000 C   0  0  0  0  0  0  0  0  0  0  0  0
    6.8398   -3.8677    0.0000 C   0  0  0  0  0  0  0  0  0  0  0  0
    7.2523   -4.5800    0.0000 C   0  0  0  0  0  0  0  0  0  0  0  0
    6.8396   -5.2944    0.0000 C   0  0  0  0  0  0  0  0  0  0  0  0
 13 10  1  0  0  0  0
  4  5  2  0  0  0  0
 11  9  1  0  0  0  0
  2  1  1  0  0  0  0
  3  1  1  0  0  0  0
  4  3  1  0  0  0  0
  5  2  1  0  0  0  0
  6  4  1  0  0  0  0
  7  1  2  0  0  0  0
  8  5  1  0  0  0  0
  9  6  2  0  0  0  0
 10  2  1  0  0  0  0
 11  8  2  0  0  0  0
 12  9  1  0  0  0  0
 15 14  1  0  0  0  0
 16 14  2  0  0  0  0
 17 14  2  0  0  0  0
 18 14  1  0  0  0  0
 19 15  1  0  0  0  0
 20 15  2  0  0  0  0
 21 19  2  0  0  0  0
 22 20  1  0  0  0  0
 23 22  2  0  0  0  0
 24 23  1  0  0  0  0
 21 23  1  0  0  0  0
M  END
>  <IDNUMBER>
F2146-0710

>  <Chemical_Name>
4-methylbenzene-1-sulfonic acid; 6-chloro-3-ethyl-2,3-dihydro-1,3-benzothiazol-2-imine

>  <PriceCoeff>
1.00

>  <CAS>
2034157-11-2

>  <MW>
212.70

>  <Description>
solid

>  <FSP3>
0.22

>  <clogP>
2.98

>  <TPSA>
27.09

>  <Acceptor>
0

>  <Donor>
1

>  <RotBonds>
1

>  <HAC>
13

>  <Collection>
General

$$$$
F2146-0716
  Mrv2219 10102508112D          

 27 28  0  0  0  0            999 V2000
    2.8337   -5.3970    0.0000 C   0  0  0  0  0  0  0  0  0  0  0  0
    2.5716   -6.1791    0.0000 N   0  0  0  0  0  0  0  0  0  0  0  0
    2.1720   -4.9100    0.0000 S   0  0  0  0  0  0  0  0  0  0  0  0
    1.4980   -5.3970    0.0000 C   0  0  0  0  0  0  0  0  0  0  0  0
    1.7476   -6.1791    0.0000 C   0  0  0  0  0  0  0  0  0  0  0  0
   -0.6740   -5.6632    0.0000 C   0  0  0  0  0  0  0  0  0  0  0  0
    0.6907   -5.2138    0.0000 C   0  0  0  0  0  0  0  0  0  0  0  0
    0.1331   -5.8338    0.0000 C   0  0  0  0  0  0  0  0  0  0  0  0
    3.6243   -5.1388    0.0000 N   0  0  0  0  0  0  0  0  0  0  0  0
    1.1984   -6.7909    0.0000 C   0  0  0  0  0  0  0  0  0  0  0  0
    0.3952   -6.6160    0.0000 C   0  0  0  0  0  0  0  0  0  0  0  0
   -1.2276   -6.2790    0.0000 O   0  0  0  0  0  0  0  0  0  0  0  0
    3.0667   -6.8491    0.0000 C   0  0  0  0  0  0  0  0  0  0  0  0
   -0.9321   -4.8809    0.0000 O   0  0  0  0  0  0  0  0  0  0  0  0
   -0.3828   -4.2651    0.0000 C   0  0  0  0  0  0  0  0  0  0  0  0
    2.7296   -7.6105    0.0000 C   0  0  0  0  0  0  0  0  0  0  0  0
    6.6550   -4.9262    0.0000 S   0  0  0  0  0  0  0  0  0  0  0  0
    6.2527   -5.6351    0.0000 C   0  0  0  0  0  0  0  0  0  0  0  0
    5.9451   -4.5055    0.0000 O   0  0  0  0  0  0  0  0  0  0  0  0
    7.0603   -4.2061    0.0000 O   0  0  0  0  0  0  0  0  0  0  0  0
    7.3752   -5.3315    0.0000 O   0  0  0  0  0  0  0  0  0  0  0  0
    6.6676   -6.3517    0.0000 C   0  0  0  0  0  0  0  0  0  0  0  0
    5.4234   -5.6393    0.0000 C   0  0  0  0  0  0  0  0  0  0  0  0
    6.2510   -7.0690    0.0000 C   0  0  0  0  0  0  0  0  0  0  0  0
    5.0160   -6.3558    0.0000 C   0  0  0  0  0  0  0  0  0  0  0  0
    5.4289   -7.0689    0.0000 C   0  0  0  0  0  0  0  0  0  0  0  0
    5.0158   -7.7840    0.0000 C   0  0  0  0  0  0  0  0  0  0  0  0
 13  2  1  0  0  0  0
 14  6  1  0  0  0  0
 15 14  1  0  0  0  0
 16 13  1  0  0  0  0
  4  5  2  0  0  0  0
 11  8  1  0  0  0  0
  2  1  1  0  0  0  0
  3  1  1  0  0  0  0
  4  3  1  0  0  0  0
  5  2  1  0  0  0  0
  6  8  1  0  0  0  0
  7  4  1  0  0  0  0
  8  7  2  0  0  0  0
  9  1  2  0  0  0  0
 10  5  1  0  0  0  0
 11 10  2  0  0  0  0
 12  6  2  0  0  0  0
 18 17  1  0  0  0  0
 19 17  2  0  0  0  0
 20 17  2  0  0  0  0
 21 17  1  0  0  0  0
 22 18  1  0  0  0  0
 23 18  2  0  0  0  0
 24 22  2  0  0  0  0
 25 23  1  0  0  0  0
 26 25  2  0  0  0  0
 27 26  1  0  0  0  0
 24 26  1  0  0  0  0
M  END
>  <IDNUMBER>
F2146-0716

>  <Chemical_Name>
4-methylbenzene-1-sulfonic acid; methyl 3-ethyl-2-imino-2,3-dihydro-1,3-benzothiazole-6-carboxylate

>  <PriceCoeff>
1.00

>  <CAS>
2034154-17-9

>  <MW>
236.29

>  <Description>
solid

>  <FSP3>
0.27

>  <clogP>
2.38

>  <TPSA>
53.39

>  <Acceptor>
2

>  <Donor>
1

>  <RotBonds>
3

>  <HAC>
16

>  <Collection>
General

$$$$
F2146-0717
  Mrv2219 10102508112D          

 25 26  0  0  0  0            999 V2000
    2.2172   -3.2115    0.0000 C   0  0  0  0  0  0  0  0  0  0  0  0
    1.9593   -3.9936    0.0000 N   0  0  0  0  0  0  0  0  0  0  0  0
    1.5517   -2.7248    0.0000 S   0  0  0  0  0  0  0  0  0  0  0  0
    1.1357   -3.9936    0.0000 C   0  0  0  0  0  0  0  0  0  0  0  0
    0.8819   -3.2115    0.0000 C   0  0  0  0  0  0  0  0  0  0  0  0
    0.0749   -3.0284    0.0000 C   0  0  0  0  0  0  0  0  0  0  0  0
    3.0077   -2.9535    0.0000 N   0  0  0  0  0  0  0  0  0  0  0  0
    0.5824   -4.6051    0.0000 C   0  0  0  0  0  0  0  0  0  0  0  0
   -0.4825   -3.6483    0.0000 C   0  0  0  0  0  0  0  0  0  0  0  0
   -0.2204   -4.4304    0.0000 C   0  0  0  0  0  0  0  0  0  0  0  0
    2.4503   -4.6633    0.0000 C   0  0  0  0  0  0  0  0  0  0  0  0
   -0.1747   -2.2464    0.0000 C   0  0  0  0  0  0  0  0  0  0  0  0
   -0.7696   -5.0461    0.0000 C   0  0  0  0  0  0  0  0  0  0  0  0
    2.1133   -5.4246    0.0000 C   0  0  0  0  0  0  0  0  0  0  0  0
    6.0376   -2.8243    0.0000 S   0  0  0  0  0  0  0  0  0  0  0  0
    5.6354   -3.5329    0.0000 C   0  0  0  0  0  0  0  0  0  0  0  0
    5.3278   -2.4036    0.0000 O   0  0  0  0  0  0  0  0  0  0  0  0
    6.4427   -2.1043    0.0000 O   0  0  0  0  0  0  0  0  0  0  0  0
    6.7576   -3.2294    0.0000 O   0  0  0  0  0  0  0  0  0  0  0  0
    6.0502   -4.2494    0.0000 C   0  0  0  0  0  0  0  0  0  0  0  0
    4.8063   -3.5371    0.0000 C   0  0  0  0  0  0  0  0  0  0  0  0
    5.6337   -4.9664    0.0000 C   0  0  0  0  0  0  0  0  0  0  0  0
    4.3990   -4.2535    0.0000 C   0  0  0  0  0  0  0  0  0  0  0  0
    4.8118   -4.9663    0.0000 C   0  0  0  0  0  0  0  0  0  0  0  0
    4.3988   -5.6813    0.0000 C   0  0  0  0  0  0  0  0  0  0  0  0
 13 10  1  0  0  0  0
 14 11  1  0  0  0  0
  5  4  2  0  0  0  0
 10  9  1  0  0  0  0
  2  1  1  0  0  0  0
  3  1  1  0  0  0  0
  4  2  1  0  0  0  0
  5  3  1  0  0  0  0
  6  5  1  0  0  0  0
  7  1  2  0  0  0  0
  8  4  1  0  0  0  0
  9  6  2  0  0  0  0
 10  8  2  0  0  0  0
 11  2  1  0  0  0  0
 12  6  1  0  0  0  0
 16 15  1  0  0  0  0
 17 15  2  0  0  0  0
 18 15  2  0  0  0  0
 19 15  1  0  0  0  0
 20 16  1  0  0  0  0
 21 16  2  0  0  0  0
 22 20  2  0  0  0  0
 23 21  1  0  0  0  0
 24 23  2  0  0  0  0
 25 24  1  0  0  0  0
 22 24  1  0  0  0  0
M  END
>  <IDNUMBER>
F2146-0717

>  <Chemical_Name>
3-ethyl-5,7-dimethyl-2,3-dihydro-1,3-benzothiazol-2-imine; 4-methylbenzene-1-sulfonic acid

>  <PriceCoeff>
1.00

>  <CAS>
2034155-41-2

>  <MW>
206.31

>  <Description>
solid

>  <FSP3>
0.36

>  <clogP>
3.41

>  <TPSA>
27.09

>  <Acceptor>
0

>  <Donor>
1

>  <RotBonds>
1

>  <HAC>
14

>  <Collection>
General

$$$$
F2146-0718
  Mrv2219 10102508112D          

 26 27  0  0  0  0            999 V2000
    3.5993   -2.8711    0.0000 C   0  0  0  0  0  0  0  0  0  0  0  0
    2.9335   -2.3843    0.0000 S   0  0  0  0  0  0  0  0  0  0  0  0
    3.3372   -3.6534    0.0000 N   0  0  0  0  0  0  0  0  0  0  0  0
    2.2636   -2.8711    0.0000 C   0  0  0  0  0  0  0  0  0  0  0  0
    2.5133   -3.6534    0.0000 C   0  0  0  0  0  0  0  0  0  0  0  0
    4.3899   -2.6132    0.0000 N   0  0  0  0  0  0  0  0  0  0  0  0
    1.9640   -4.2650    0.0000 C   0  0  0  0  0  0  0  0  0  0  0  0
    1.4563   -2.6881    0.0000 C   0  0  0  0  0  0  0  0  0  0  0  0
    1.1609   -4.0903    0.0000 C   0  0  0  0  0  0  0  0  0  0  0  0
    0.8988   -3.3080    0.0000 C   0  0  0  0  0  0  0  0  0  0  0  0
    3.8323   -4.3234    0.0000 C   0  0  0  0  0  0  0  0  0  0  0  0
    2.2178   -5.0432    0.0000 O   0  0  0  0  0  0  0  0  0  0  0  0
    1.2067   -1.9057    0.0000 C   0  0  0  0  0  0  0  0  0  0  0  0
    1.7394   -5.7090    0.0000 C   0  0  0  0  0  0  0  0  0  0  0  0
    3.4953   -5.0848    0.0000 C   0  0  0  0  0  0  0  0  0  0  0  0
    7.4206   -2.7958    0.0000 S   0  0  0  0  0  0  0  0  0  0  0  0
    7.0183   -3.5047    0.0000 C   0  0  0  0  0  0  0  0  0  0  0  0
    6.7106   -2.3751    0.0000 O   0  0  0  0  0  0  0  0  0  0  0  0
    7.8258   -2.0757    0.0000 O   0  0  0  0  0  0  0  0  0  0  0  0
    8.1408   -3.2011    0.0000 O   0  0  0  0  0  0  0  0  0  0  0  0
    7.4332   -4.2213    0.0000 C   0  0  0  0  0  0  0  0  0  0  0  0
    6.1889   -3.5089    0.0000 C   0  0  0  0  0  0  0  0  0  0  0  0
    7.0166   -4.9385    0.0000 C   0  0  0  0  0  0  0  0  0  0  0  0
    5.7816   -4.2254    0.0000 C   0  0  0  0  0  0  0  0  0  0  0  0
    6.1944   -4.9384    0.0000 C   0  0  0  0  0  0  0  0  0  0  0  0
    5.7814   -5.6536    0.0000 C   0  0  0  0  0  0  0  0  0  0  0  0
 13  8  1  0  0  0  0
 14 12  1  0  0  0  0
 15 11  1  0  0  0  0
  4  5  2  0  0  0  0
  9 10  1  0  0  0  0
  2  1  1  0  0  0  0
  3  1  1  0  0  0  0
  4  2  1  0  0  0  0
  5  3  1  0  0  0  0
  6  1  2  0  0  0  0
  7  5  1  0  0  0  0
  8  4  1  0  0  0  0
  9  7  2  0  0  0  0
 10  8  2  0  0  0  0
 11  3  1  0  0  0  0
 12  7  1  0  0  0  0
 17 16  1  0  0  0  0
 18 16  2  0  0  0  0
 19 16  2  0  0  0  0
 20 16  1  0  0  0  0
 21 17  1  0  0  0  0
 22 17  2  0  0  0  0
 23 21  2  0  0  0  0
 24 22  1  0  0  0  0
 25 24  2  0  0  0  0
 26 25  1  0  0  0  0
 23 25  1  0  0  0  0
M  END
>  <IDNUMBER>
F2146-0718

>  <Chemical_Name>
3-ethyl-4-methoxy-7-methyl-2,3-dihydro-1,3-benzothiazol-2-imine; 4-methylbenzene-1-sulfonic acid

>  <PriceCoeff>
1.00

>  <CAS>
2034154-92-0

>  <MW>
222.31

>  <Description>
solid

>  <FSP3>
0.36

>  <clogP>
2.74

>  <TPSA>
36.32

>  <Acceptor>
1

>  <Donor>
1

>  <RotBonds>
2

>  <HAC>
15

>  <Collection>
General

$$$$
F2146-0719
  Mrv2219 10102508112D          

 23 24  0  0  0  0            999 V2000
    3.1561   -3.7716    0.0000 C   0  0  0  0  0  0  0  0  0  0  0  0
    2.8942   -4.5533    0.0000 N   0  0  0  0  0  0  0  0  0  0  0  0
    2.4950   -3.2851    0.0000 S   0  0  0  0  0  0  0  0  0  0  0  0
    2.0708   -4.5533    0.0000 C   0  0  0  0  0  0  0  0  0  0  0  0
    1.8213   -3.7716    0.0000 C   0  0  0  0  0  0  0  0  0  0  0  0
    3.9463   -3.5137    0.0000 N   0  0  0  0  0  0  0  0  0  0  0  0
    3.3890   -5.2228    0.0000 C   0  0  0  0  0  0  0  0  0  0  0  0
    1.5219   -5.1646    0.0000 C   0  0  0  0  0  0  0  0  0  0  0  0
    1.0147   -3.5886    0.0000 C   0  0  0  0  0  0  0  0  0  0  0  0
    3.0522   -5.9838    0.0000 C   0  0  0  0  0  0  0  0  0  0  0  0
    0.7194   -4.9900    0.0000 C   0  0  0  0  0  0  0  0  0  0  0  0
    0.4574   -4.2082    0.0000 C   0  0  0  0  0  0  0  0  0  0  0  0
    6.9750   -3.5674    0.0000 S   0  0  0  0  0  0  0  0  0  0  0  0
    6.5730   -4.2758    0.0000 C   0  0  0  0  0  0  0  0  0  0  0  0
    6.2655   -3.1470    0.0000 O   0  0  0  0  0  0  0  0  0  0  0  0
    7.3799   -2.8478    0.0000 O   0  0  0  0  0  0  0  0  0  0  0  0
    7.6947   -3.9724    0.0000 O   0  0  0  0  0  0  0  0  0  0  0  0
    6.9875   -4.9920    0.0000 C   0  0  0  0  0  0  0  0  0  0  0  0
    5.7441   -4.2800    0.0000 C   0  0  0  0  0  0  0  0  0  0  0  0
    6.5713   -5.7087    0.0000 C   0  0  0  0  0  0  0  0  0  0  0  0
    5.3371   -4.9960    0.0000 C   0  0  0  0  0  0  0  0  0  0  0  0
    5.7496   -5.7086    0.0000 C   0  0  0  0  0  0  0  0  0  0  0  0
    5.3369   -6.4233    0.0000 C   0  0  0  0  0  0  0  0  0  0  0  0
  5  4  2  0  0  0  0
 11 12  1  0  0  0  0
  2  1  1  0  0  0  0
  3  1  1  0  0  0  0
  4  2  1  0  0  0  0
  5  3  1  0  0  0  0
  6  1  2  0  0  0  0
  7  2  1  0  0  0  0
  8  4  1  0  0  0  0
  9  5  1  0  0  0  0
 10  7  1  0  0  0  0
 11  8  2  0  0  0  0
 12  9  2  0  0  0  0
 14 13  1  0  0  0  0
 15 13  2  0  0  0  0
 16 13  2  0  0  0  0
 17 13  1  0  0  0  0
 18 14  1  0  0  0  0
 19 14  2  0  0  0  0
 20 18  2  0  0  0  0
 21 19  1  0  0  0  0
 22 21  2  0  0  0  0
 23 22  1  0  0  0  0
 20 22  1  0  0  0  0
M  END
>  <IDNUMBER>
F2146-0719

>  <Chemical_Name>
3-ethyl-2,3-dihydro-1,3-benzothiazol-2-imine; 4-methylbenzene-1-sulfonic acid

>  <PriceCoeff>
1.00

>  <CAS>
202192-95-8

>  <MW>
178.26

>  <Description>
solid

>  <FSP3>
0.22

>  <clogP>
2.38

>  <TPSA>
27.09

>  <Acceptor>
0

>  <Donor>
1

>  <RotBonds>
1

>  <HAC>
12

>  <Collection>
General

$$$$
F2146-0721
  Mrv2219 10102508112D          

 26 27  0  0  0  0            999 V2000
    3.0136   -3.9614    0.0000 C   0  0  0  0  0  0  0  0  0  0  0  0
    2.7559   -4.7429    0.0000 N   0  0  0  0  0  0  0  0  0  0  0  0
    2.3486   -3.4710    0.0000 S   0  0  0  0  0  0  0  0  0  0  0  0
    1.9329   -4.7429    0.0000 C   0  0  0  0  0  0  0  0  0  0  0  0
    1.6793   -3.9614    0.0000 C   0  0  0  0  0  0  0  0  0  0  0  0
    3.8035   -3.7037    0.0000 N   0  0  0  0  0  0  0  0  0  0  0  0
    1.3800   -5.3540    0.0000 C   0  0  0  0  0  0  0  0  0  0  0  0
    3.2465   -5.4121    0.0000 C   0  0  0  0  0  0  0  0  0  0  0  0
    0.8729   -3.7785    0.0000 C   0  0  0  0  0  0  0  0  0  0  0  0
    1.6336   -6.1312    0.0000 O   0  0  0  0  0  0  0  0  0  0  0  0
    0.3159   -4.3978    0.0000 C   0  0  0  0  0  0  0  0  0  0  0  0
    0.5778   -5.1794    0.0000 C   0  0  0  0  0  0  0  0  0  0  0  0
    0.9270   -6.6966    0.0000 C   0  0  0  0  0  0  0  0  0  0  0  0
    2.9098   -6.1728    0.0000 C   0  0  0  0  0  0  0  0  0  0  0  0
    1.0642   -7.5862    0.0000 C   0  0  0  0  0  0  0  0  0  0  0  0
    6.8311   -4.4640    0.0000 S   0  0  0  0  0  0  0  0  0  0  0  0
    6.4292   -5.1721    0.0000 C   0  0  0  0  0  0  0  0  0  0  0  0
    6.1219   -4.0437    0.0000 O   0  0  0  0  0  0  0  0  0  0  0  0
    7.2359   -3.7446    0.0000 O   0  0  0  0  0  0  0  0  0  0  0  0
    7.5506   -4.8688    0.0000 O   0  0  0  0  0  0  0  0  0  0  0  0
    6.8436   -5.8880    0.0000 C   0  0  0  0  0  0  0  0  0  0  0  0
    5.6007   -5.1763    0.0000 C   0  0  0  0  0  0  0  0  0  0  0  0
    6.4275   -6.6045    0.0000 C   0  0  0  0  0  0  0  0  0  0  0  0
    5.1938   -5.8921    0.0000 C   0  0  0  0  0  0  0  0  0  0  0  0
    5.6062   -6.6044    0.0000 C   0  0  0  0  0  0  0  0  0  0  0  0
    5.1936   -7.3188    0.0000 C   0  0  0  0  0  0  0  0  0  0  0  0
 13 10  1  0  0  0  0
 14  8  1  0  0  0  0
 15 13  1  0  0  0  0
  5  4  2  0  0  0  0
 12 11  1  0  0  0  0
  2  1  1  0  0  0  0
  3  1  1  0  0  0  0
  4  2  1  0  0  0  0
  5  3  1  0  0  0  0
  6  1  2  0  0  0  0
  7  4  1  0  0  0  0
  8  2  1  0  0  0  0
  9  5  1  0  0  0  0
 10  7  1  0  0  0  0
 11  9  2  0  0  0  0
 12  7  2  0  0  0  0
 17 16  1  0  0  0  0
 18 16  2  0  0  0  0
 19 16  2  0  0  0  0
 20 16  1  0  0  0  0
 21 17  1  0  0  0  0
 22 17  2  0  0  0  0
 23 21  2  0  0  0  0
 24 22  1  0  0  0  0
 25 24  2  0  0  0  0
 26 25  1  0  0  0  0
 23 25  1  0  0  0  0
M  END
>  <IDNUMBER>
F2146-0721

>  <Chemical_Name>
4-ethoxy-3-ethyl-2,3-dihydro-1,3-benzothiazol-2-imine; 4-methylbenzene-1-sulfonic acid

>  <PriceCoeff>
1.00

>  <CAS>
2034156-80-2

>  <MW>
222.31

>  <Description>
solid

>  <FSP3>
0.36

>  <clogP>
2.58

>  <TPSA>
36.32

>  <Acceptor>
1

>  <Donor>
1

>  <RotBonds>
3

>  <HAC>
15

>  <Collection>
General

$$$$
F2146-0723
  Mrv2219 10102508112D          

 26 27  0  0  0  0            999 V2000
    4.2192   -3.5541    0.0000 C   0  0  0  0  0  0  0  0  0  0  0  0
    3.9573   -4.3355    0.0000 N   0  0  0  0  0  0  0  0  0  0  0  0
    3.5541   -3.0677    0.0000 S   0  0  0  0  0  0  0  0  0  0  0  0
    3.1343   -4.3355    0.0000 C   0  0  0  0  0  0  0  0  0  0  0  0
    2.8848   -3.5541    0.0000 C   0  0  0  0  0  0  0  0  0  0  0  0
    5.0089   -3.2964    0.0000 N   0  0  0  0  0  0  0  0  0  0  0  0
    4.4519   -5.0048    0.0000 C   0  0  0  0  0  0  0  0  0  0  0  0
    2.5856   -4.9465    0.0000 C   0  0  0  0  0  0  0  0  0  0  0  0
    2.0784   -3.3712    0.0000 C   0  0  0  0  0  0  0  0  0  0  0  0
    3.3254   -5.8528    0.0000 O   0  0  0  0  0  0  0  0  0  0  0  0
    4.1152   -5.7655    0.0000 C   0  0  0  0  0  0  0  0  0  0  0  0
    2.9638   -6.6051    0.0000 C   0  0  0  0  0  0  0  0  0  0  0  0
    1.7833   -4.7720    0.0000 C   0  0  0  0  0  0  0  0  0  0  0  0
    1.5214   -3.9905    0.0000 C   0  0  0  0  0  0  0  0  0  0  0  0
    2.1407   -6.6675    0.0000 C   0  0  0  0  0  0  0  0  0  0  0  0
    8.0365   -3.8031    0.0000 S   0  0  0  0  0  0  0  0  0  0  0  0
    7.6347   -4.5112    0.0000 C   0  0  0  0  0  0  0  0  0  0  0  0
    7.3273   -3.3828    0.0000 O   0  0  0  0  0  0  0  0  0  0  0  0
    8.4413   -3.0837    0.0000 O   0  0  0  0  0  0  0  0  0  0  0  0
    8.7560   -4.2079    0.0000 O   0  0  0  0  0  0  0  0  0  0  0  0
    8.0491   -5.2271    0.0000 C   0  0  0  0  0  0  0  0  0  0  0  0
    6.8061   -4.5154    0.0000 C   0  0  0  0  0  0  0  0  0  0  0  0
    7.6330   -5.9436    0.0000 C   0  0  0  0  0  0  0  0  0  0  0  0
    6.3992   -5.2312    0.0000 C   0  0  0  0  0  0  0  0  0  0  0  0
    6.8116   -5.9435    0.0000 C   0  0  0  0  0  0  0  0  0  0  0  0
    6.3990   -6.6579    0.0000 C   0  0  0  0  0  0  0  0  0  0  0  0
 13  8  2  0  0  0  0
 14  9  2  0  0  0  0
 15 12  1  0  0  0  0
  5  4  2  0  0  0  0
 13 14  1  0  0  0  0
  2  1  1  0  0  0  0
  3  1  1  0  0  0  0
  4  2  1  0  0  0  0
  5  3  1  0  0  0  0
  6  1  2  0  0  0  0
  7  2  1  0  0  0  0
  8  4  1  0  0  0  0
  9  5  1  0  0  0  0
 10 11  1  0  0  0  0
 11  7  1  0  0  0  0
 12 10  1  0  0  0  0
 17 16  1  0  0  0  0
 18 16  2  0  0  0  0
 19 16  2  0  0  0  0
 20 16  1  0  0  0  0
 21 17  1  0  0  0  0
 22 17  2  0  0  0  0
 23 21  2  0  0  0  0
 24 22  1  0  0  0  0
 25 24  2  0  0  0  0
 26 25  1  0  0  0  0
 23 25  1  0  0  0  0
M  END
>  <IDNUMBER>
F2146-0723

>  <Chemical_Name>
3-(2-ethoxyethyl)-2,3-dihydro-1,3-benzothiazol-2-imine; 4-methylbenzene-1-sulfonic acid

>  <PriceCoeff>
1.00

>  <CAS>
2034157-59-8

>  <MW>
222.31

>  <Description>
solid

>  <FSP3>
0.36

>  <clogP>
2.33

>  <TPSA>
36.32

>  <Acceptor>
1

>  <Donor>
1

>  <RotBonds>
4

>  <HAC>
15

>  <Collection>
General

$$$$
F2146-0724
  Mrv2219 10102508112D          

 27 28  0  0  0  0            999 V2000
    4.6263   -3.5571    0.0000 C   0  0  0  0  0  0  0  0  0  0  0  0
    4.3684   -4.3392    0.0000 N   0  0  0  0  0  0  0  0  0  0  0  0
    3.9607   -3.0704    0.0000 S   0  0  0  0  0  0  0  0  0  0  0  0
    3.2908   -3.5571    0.0000 C   0  0  0  0  0  0  0  0  0  0  0  0
    3.5446   -4.3392    0.0000 C   0  0  0  0  0  0  0  0  0  0  0  0
    5.4168   -3.2992    0.0000 N   0  0  0  0  0  0  0  0  0  0  0  0
    2.9913   -4.9508    0.0000 C   0  0  0  0  0  0  0  0  0  0  0  0
    2.4837   -3.3741    0.0000 C   0  0  0  0  0  0  0  0  0  0  0  0
    4.8594   -5.0091    0.0000 C   0  0  0  0  0  0  0  0  0  0  0  0
    2.1884   -4.7761    0.0000 C   0  0  0  0  0  0  0  0  0  0  0  0
    1.9263   -3.9940    0.0000 C   0  0  0  0  0  0  0  0  0  0  0  0
    3.7319   -5.8578    0.0000 O   0  0  0  0  0  0  0  0  0  0  0  0
    4.5224   -5.7705    0.0000 C   0  0  0  0  0  0  0  0  0  0  0  0
    1.1191   -3.8234    0.0000 C   0  0  0  0  0  0  0  0  0  0  0  0
    3.3699   -6.6108    0.0000 C   0  0  0  0  0  0  0  0  0  0  0  0
    3.8317   -7.2932    0.0000 C   0  0  0  0  0  0  0  0  0  0  0  0
    8.4470   -4.1142    0.0000 S   0  0  0  0  0  0  0  0  0  0  0  0
    8.0448   -4.8229    0.0000 C   0  0  0  0  0  0  0  0  0  0  0  0
    7.7372   -3.6935    0.0000 O   0  0  0  0  0  0  0  0  0  0  0  0
    8.8522   -3.3942    0.0000 O   0  0  0  0  0  0  0  0  0  0  0  0
    9.1671   -4.5194    0.0000 O   0  0  0  0  0  0  0  0  0  0  0  0
    8.4596   -5.5394    0.0000 C   0  0  0  0  0  0  0  0  0  0  0  0
    7.2156   -4.8271    0.0000 C   0  0  0  0  0  0  0  0  0  0  0  0
    8.0431   -6.2565    0.0000 C   0  0  0  0  0  0  0  0  0  0  0  0
    6.8083   -5.5435    0.0000 C   0  0  0  0  0  0  0  0  0  0  0  0
    7.2211   -6.2564    0.0000 C   0  0  0  0  0  0  0  0  0  0  0  0
    6.8081   -6.9715    0.0000 C   0  0  0  0  0  0  0  0  0  0  0  0
 13  9  1  0  0  0  0
 14 11  1  0  0  0  0
 15 12  1  0  0  0  0
 16 15  1  0  0  0  0
  4  5  2  0  0  0  0
 10 11  1  0  0  0  0
  2  1  1  0  0  0  0
  3  1  1  0  0  0  0
  4  3  1  0  0  0  0
  5  2  1  0  0  0  0
  6  1  2  0  0  0  0
  7  5  1  0  0  0  0
  8  4  1  0  0  0  0
  9  2  1  0  0  0  0
 10  7  2  0  0  0  0
 11  8  2  0  0  0  0
 12 13  1  0  0  0  0
 18 17  1  0  0  0  0
 19 17  2  0  0  0  0
 20 17  2  0  0  0  0
 21 17  1  0  0  0  0
 22 18  1  0  0  0  0
 23 18  2  0  0  0  0
 24 22  2  0  0  0  0
 25 23  1  0  0  0  0
 26 25  2  0  0  0  0
 27 26  1  0  0  0  0
 24 26  1  0  0  0  0
M  END
>  <IDNUMBER>
F2146-0724

>  <Chemical_Name>
3-(2-ethoxyethyl)-6-methyl-2,3-dihydro-1,3-benzothiazol-2-imine; 4-methylbenzene-1-sulfonic acid

>  <PriceCoeff>
1.00

>  <CAS>
2034157-13-4

>  <MW>
236.34

>  <Description>
solid

>  <FSP3>
0.42

>  <clogP>
2.85

>  <TPSA>
36.32

>  <Acceptor>
1

>  <Donor>
1

>  <RotBonds>
4

>  <HAC>
16

>  <Collection>
General

$$$$
F2146-0725
  Mrv2219 10102508112D          

 27 28  0  0  0  0            999 V2000
    4.6223   -3.5541    0.0000 C   0  0  0  0  0  0  0  0  0  0  0  0
    4.3646   -4.3355    0.0000 N   0  0  0  0  0  0  0  0  0  0  0  0
    3.9573   -3.0677    0.0000 S   0  0  0  0  0  0  0  0  0  0  0  0
    3.2880   -3.5541    0.0000 C   0  0  0  0  0  0  0  0  0  0  0  0
    3.5416   -4.3355    0.0000 C   0  0  0  0  0  0  0  0  0  0  0  0
    2.4816   -3.3712    0.0000 C   0  0  0  0  0  0  0  0  0  0  0  0
    5.4121   -3.2964    0.0000 N   0  0  0  0  0  0  0  0  0  0  0  0
    2.9887   -4.9465    0.0000 C   0  0  0  0  0  0  0  0  0  0  0  0
    1.9246   -3.9905    0.0000 C   0  0  0  0  0  0  0  0  0  0  0  0
    4.8552   -5.0048    0.0000 C   0  0  0  0  0  0  0  0  0  0  0  0
    2.1865   -4.7720    0.0000 C   0  0  0  0  0  0  0  0  0  0  0  0
    1.1181   -3.8201    0.0000 F   0  0  0  0  0  0  0  0  0  0  0  0
    3.7286   -5.8528    0.0000 O   0  0  0  0  0  0  0  0  0  0  0  0
    4.5185   -5.7655    0.0000 C   0  0  0  0  0  0  0  0  0  0  0  0
    3.3670   -6.6051    0.0000 C   0  0  0  0  0  0  0  0  0  0  0  0
    2.5440   -6.6675    0.0000 C   0  0  0  0  0  0  0  0  0  0  0  0
    8.4397   -3.8031    0.0000 S   0  0  0  0  0  0  0  0  0  0  0  0
    8.0379   -4.5112    0.0000 C   0  0  0  0  0  0  0  0  0  0  0  0
    7.7305   -3.3828    0.0000 O   0  0  0  0  0  0  0  0  0  0  0  0
    8.8446   -3.0837    0.0000 O   0  0  0  0  0  0  0  0  0  0  0  0
    9.1592   -4.2079    0.0000 O   0  0  0  0  0  0  0  0  0  0  0  0
    8.4523   -5.2271    0.0000 C   0  0  0  0  0  0  0  0  0  0  0  0
    7.2094   -4.5154    0.0000 C   0  0  0  0  0  0  0  0  0  0  0  0
    8.0362   -5.9436    0.0000 C   0  0  0  0  0  0  0  0  0  0  0  0
    6.8024   -5.2312    0.0000 C   0  0  0  0  0  0  0  0  0  0  0  0
    7.2149   -5.9435    0.0000 C   0  0  0  0  0  0  0  0  0  0  0  0
    6.8022   -6.6579    0.0000 C   0  0  0  0  0  0  0  0  0  0  0  0
 13 14  1  0  0  0  0
 14 10  1  0  0  0  0
 15 13  1  0  0  0  0
 16 15  1  0  0  0  0
  4  5  2  0  0  0  0
 11  9  1  0  0  0  0
  2  1  1  0  0  0  0
  3  1  1  0  0  0  0
  4  3  1  0  0  0  0
  5  2  1  0  0  0  0
  6  4  1  0  0  0  0
  7  1  2  0  0  0  0
  8  5  1  0  0  0  0
  9  6  2  0  0  0  0
 10  2  1  0  0  0  0
 11  8  2  0  0  0  0
 12  9  1  0  0  0  0
 18 17  1  0  0  0  0
 19 17  2  0  0  0  0
 20 17  2  0  0  0  0
 21 17  1  0  0  0  0
 22 18  1  0  0  0  0
 23 18  2  0  0  0  0
 24 22  2  0  0  0  0
 25 23  1  0  0  0  0
 26 25  2  0  0  0  0
 27 26  1  0  0  0  0
 24 26  1  0  0  0  0
M  END
>  <IDNUMBER>
F2146-0725

>  <Chemical_Name>
3-(2-ethoxyethyl)-6-fluoro-2,3-dihydro-1,3-benzothiazol-2-imine; 4-methylbenzene-1-sulfonic acid

>  <PriceCoeff>
1.00

>  <CAS>
2034155-65-0

>  <MW>
240.30

>  <Description>
solid

>  <FSP3>
0.36

>  <clogP>
2.48

>  <TPSA>
36.32

>  <Acceptor>
1

>  <Donor>
1

>  <RotBonds>
4

>  <HAC>
16

>  <Collection>
General

$$$$
F2146-0727
  Mrv2219 10102508112D          

 30 31  0  0  0  0            999 V2000
    4.9169   -3.5566    0.0000 C   0  0  0  0  0  0  0  0  0  0  0  0
    4.6548   -4.3386    0.0000 N   0  0  0  0  0  0  0  0  0  0  0  0
    4.2555   -3.0699    0.0000 S   0  0  0  0  0  0  0  0  0  0  0  0
    3.5816   -3.5566    0.0000 C   0  0  0  0  0  0  0  0  0  0  0  0
    3.8312   -4.3386    0.0000 C   0  0  0  0  0  0  0  0  0  0  0  0
    1.4102   -3.8229    0.0000 C   0  0  0  0  0  0  0  0  0  0  0  0
    2.7746   -3.3736    0.0000 C   0  0  0  0  0  0  0  0  0  0  0  0
    2.2171   -3.9934    0.0000 C   0  0  0  0  0  0  0  0  0  0  0  0
    5.7073   -3.2988    0.0000 N   0  0  0  0  0  0  0  0  0  0  0  0
    3.2821   -4.9501    0.0000 C   0  0  0  0  0  0  0  0  0  0  0  0
    2.4792   -4.7754    0.0000 C   0  0  0  0  0  0  0  0  0  0  0  0
    0.8569   -4.4385    0.0000 O   0  0  0  0  0  0  0  0  0  0  0  0
    5.1498   -5.0084    0.0000 C   0  0  0  0  0  0  0  0  0  0  0  0
    1.1523   -3.0408    0.0000 O   0  0  0  0  0  0  0  0  0  0  0  0
    4.0226   -5.8570    0.0000 O   0  0  0  0  0  0  0  0  0  0  0  0
    4.8129   -5.7697    0.0000 C   0  0  0  0  0  0  0  0  0  0  0  0
    3.6607   -6.6099    0.0000 C   0  0  0  0  0  0  0  0  0  0  0  0
    1.7014   -2.4252    0.0000 C   0  0  0  0  0  0  0  0  0  0  0  0
    2.8370   -6.6723    0.0000 C   0  0  0  0  0  0  0  0  0  0  0  0
    8.7371   -3.5396    0.0000 S   0  0  0  0  0  0  0  0  0  0  0  0
    8.3349   -4.2482    0.0000 C   0  0  0  0  0  0  0  0  0  0  0  0
    8.0274   -3.1190    0.0000 O   0  0  0  0  0  0  0  0  0  0  0  0
    9.1422   -2.8196    0.0000 O   0  0  0  0  0  0  0  0  0  0  0  0
    9.4571   -3.9447    0.0000 O   0  0  0  0  0  0  0  0  0  0  0  0
    8.7497   -4.9646    0.0000 C   0  0  0  0  0  0  0  0  0  0  0  0
    7.5058   -4.2524    0.0000 C   0  0  0  0  0  0  0  0  0  0  0  0
    8.3333   -5.6816    0.0000 C   0  0  0  0  0  0  0  0  0  0  0  0
    7.0986   -4.9687    0.0000 C   0  0  0  0  0  0  0  0  0  0  0  0
    7.5113   -5.6815    0.0000 C   0  0  0  0  0  0  0  0  0  0  0  0
    7.0984   -6.3964    0.0000 C   0  0  0  0  0  0  0  0  0  0  0  0
 13  2  1  0  0  0  0
 14  6  1  0  0  0  0
 15 16  1  0  0  0  0
 16 13  1  0  0  0  0
 17 15  1  0  0  0  0
 18 14  1  0  0  0  0
 19 17  1  0  0  0  0
  4  5  2  0  0  0  0
 11  8  1  0  0  0  0
  2  1  1  0  0  0  0
  3  1  1  0  0  0  0
  4  3  1  0  0  0  0
  5  2  1  0  0  0  0
  6  8  1  0  0  0  0
  7  4  1  0  0  0  0
  8  7  2  0  0  0  0
  9  1  2  0  0  0  0
 10  5  1  0  0  0  0
 11 10  2  0  0  0  0
 12  6  2  0  0  0  0
 21 20  1  0  0  0  0
 22 20  2  0  0  0  0
 23 20  2  0  0  0  0
 24 20  1  0  0  0  0
 25 21  1  0  0  0  0
 26 21  2  0  0  0  0
 27 25  2  0  0  0  0
 28 26  1  0  0  0  0
 29 28  2  0  0  0  0
 30 29  1  0  0  0  0
 27 29  1  0  0  0  0
M  END
>  <IDNUMBER>
F2146-0727

>  <Chemical_Name>
4-methylbenzene-1-sulfonic acid; methyl 3-(2-ethoxyethyl)-2-imino-2,3-dihydro-1,3-benzothiazole-6-carboxylate

>  <PriceCoeff>
1.00

>  <CAS>
2034154-18-0

>  <MW>
280.35

>  <Description>
solid

>  <FSP3>
0.38

>  <clogP>
2.34

>  <TPSA>
62.62

>  <Acceptor>
3

>  <Donor>
1

>  <RotBonds>
6

>  <HAC>
19

>  <Collection>
General

$$$$
F2146-0728
  Mrv2219 10102508112D          

 28 29  0  0  0  0            999 V2000
    4.9017   -3.5577    0.0000 C   0  0  0  0  0  0  0  0  0  0  0  0
    4.6437   -4.3399    0.0000 N   0  0  0  0  0  0  0  0  0  0  0  0
    4.2360   -3.0709    0.0000 S   0  0  0  0  0  0  0  0  0  0  0  0
    3.5660   -3.5577    0.0000 C   0  0  0  0  0  0  0  0  0  0  0  0
    3.8198   -4.3399    0.0000 C   0  0  0  0  0  0  0  0  0  0  0  0
    5.6923   -3.2997    0.0000 N   0  0  0  0  0  0  0  0  0  0  0  0
    2.7588   -3.3746    0.0000 C   0  0  0  0  0  0  0  0  0  0  0  0
    3.2664   -4.9516    0.0000 C   0  0  0  0  0  0  0  0  0  0  0  0
    2.2012   -3.9946    0.0000 C   0  0  0  0  0  0  0  0  0  0  0  0
    5.1348   -5.0099    0.0000 C   0  0  0  0  0  0  0  0  0  0  0  0
    2.4634   -4.7768    0.0000 C   0  0  0  0  0  0  0  0  0  0  0  0
    1.3981   -3.8240    0.0000 O   0  0  0  0  0  0  0  0  0  0  0  0
    4.0071   -5.8588    0.0000 O   0  0  0  0  0  0  0  0  0  0  0  0
    4.7977   -5.7714    0.0000 C   0  0  0  0  0  0  0  0  0  0  0  0
    3.6451   -6.6119    0.0000 C   0  0  0  0  0  0  0  0  0  0  0  0
    0.8489   -4.4357    0.0000 C   0  0  0  0  0  0  0  0  0  0  0  0
    4.1070   -7.2943    0.0000 C   0  0  0  0  0  0  0  0  0  0  0  0
    8.7230   -4.1148    0.0000 S   0  0  0  0  0  0  0  0  0  0  0  0
    8.3208   -4.8237    0.0000 C   0  0  0  0  0  0  0  0  0  0  0  0
    8.0131   -3.6941    0.0000 O   0  0  0  0  0  0  0  0  0  0  0  0
    9.1283   -3.3947    0.0000 O   0  0  0  0  0  0  0  0  0  0  0  0
    9.4432   -4.5201    0.0000 O   0  0  0  0  0  0  0  0  0  0  0  0
    8.7356   -5.5403    0.0000 C   0  0  0  0  0  0  0  0  0  0  0  0
    7.4914   -4.8279    0.0000 C   0  0  0  0  0  0  0  0  0  0  0  0
    8.3191   -6.2575    0.0000 C   0  0  0  0  0  0  0  0  0  0  0  0
    7.0840   -5.5444    0.0000 C   0  0  0  0  0  0  0  0  0  0  0  0
    7.4969   -6.2574    0.0000 C   0  0  0  0  0  0  0  0  0  0  0  0
    7.0838   -6.9726    0.0000 C   0  0  0  0  0  0  0  0  0  0  0  0
 13 14  1  0  0  0  0
 14 10  1  0  0  0  0
 15 13  1  0  0  0  0
 16 12  1  0  0  0  0
 17 15  1  0  0  0  0
  4  5  2  0  0  0  0
 11  9  1  0  0  0  0
  2  1  1  0  0  0  0
  3  1  1  0  0  0  0
  4  3  1  0  0  0  0
  5  2  1  0  0  0  0
  6  1  2  0  0  0  0
  7  4  1  0  0  0  0
  8  5  1  0  0  0  0
  9  7  2  0  0  0  0
 10  2  1  0  0  0  0
 11  8  2  0  0  0  0
 12  9  1  0  0  0  0
 19 18  1  0  0  0  0
 20 18  2  0  0  0  0
 21 18  2  0  0  0  0
 22 18  1  0  0  0  0
 23 19  1  0  0  0  0
 24 19  2  0  0  0  0
 25 23  2  0  0  0  0
 26 24  1  0  0  0  0
 27 26  2  0  0  0  0
 28 27  1  0  0  0  0
 25 27  1  0  0  0  0
M  END
>  <IDNUMBER>
F2146-0728

>  <Chemical_Name>
3-(2-ethoxyethyl)-6-methoxy-2,3-dihydro-1,3-benzothiazol-2-imine; 4-methylbenzene-1-sulfonic acid

>  <PriceCoeff>
1.00

>  <CAS>
2034154-27-1

>  <MW>
252.34

>  <Description>
solid

>  <FSP3>
0.42

>  <clogP>
2.18

>  <TPSA>
45.55

>  <Acceptor>
2

>  <Donor>
1

>  <RotBonds>
5

>  <HAC>
17

>  <Collection>
General

$$$$
F2146-0729
  Mrv2219 10102508112D          

 27 28  0  0  0  0            999 V2000
    4.7470   -3.5541    0.0000 C   0  0  0  0  0  0  0  0  0  0  0  0
    4.4893   -4.3355    0.0000 N   0  0  0  0  0  0  0  0  0  0  0  0
    4.0820   -3.0677    0.0000 S   0  0  0  0  0  0  0  0  0  0  0  0
    3.4127   -3.5541    0.0000 C   0  0  0  0  0  0  0  0  0  0  0  0
    3.6663   -4.3355    0.0000 C   0  0  0  0  0  0  0  0  0  0  0  0
    2.6063   -3.3712    0.0000 C   0  0  0  0  0  0  0  0  0  0  0  0
    5.5368   -3.2964    0.0000 N   0  0  0  0  0  0  0  0  0  0  0  0
    3.1134   -4.9465    0.0000 C   0  0  0  0  0  0  0  0  0  0  0  0
    2.0493   -3.9905    0.0000 C   0  0  0  0  0  0  0  0  0  0  0  0
    4.9799   -5.0048    0.0000 C   0  0  0  0  0  0  0  0  0  0  0  0
    2.3112   -4.7720    0.0000 C   0  0  0  0  0  0  0  0  0  0  0  0
    1.2428   -3.8201    0.0000 Br  0  0  0  0  0  0  0  0  0  0  0  0
    3.8533   -5.8528    0.0000 O   0  0  0  0  0  0  0  0  0  0  0  0
    4.6432   -5.7655    0.0000 C   0  0  0  0  0  0  0  0  0  0  0  0
    3.4917   -6.6051    0.0000 C   0  0  0  0  0  0  0  0  0  0  0  0
    2.6687   -6.6675    0.0000 C   0  0  0  0  0  0  0  0  0  0  0  0
    8.5644   -3.8031    0.0000 S   0  0  0  0  0  0  0  0  0  0  0  0
    8.1626   -4.5112    0.0000 C   0  0  0  0  0  0  0  0  0  0  0  0
    7.8552   -3.3828    0.0000 O   0  0  0  0  0  0  0  0  0  0  0  0
    8.9693   -3.0837    0.0000 O   0  0  0  0  0  0  0  0  0  0  0  0
    9.2839   -4.2079    0.0000 O   0  0  0  0  0  0  0  0  0  0  0  0
    8.5770   -5.2271    0.0000 C   0  0  0  0  0  0  0  0  0  0  0  0
    7.3341   -4.5154    0.0000 C   0  0  0  0  0  0  0  0  0  0  0  0
    8.1609   -5.9436    0.0000 C   0  0  0  0  0  0  0  0  0  0  0  0
    6.9271   -5.2312    0.0000 C   0  0  0  0  0  0  0  0  0  0  0  0
    7.3396   -5.9435    0.0000 C   0  0  0  0  0  0  0  0  0  0  0  0
    6.9269   -6.6579    0.0000 C   0  0  0  0  0  0  0  0  0  0  0  0
 13 14  1  0  0  0  0
 14 10  1  0  0  0  0
 15 13  1  0  0  0  0
 16 15  1  0  0  0  0
  4  5  2  0  0  0  0
 11  9  1  0  0  0  0
  2  1  1  0  0  0  0
  3  1  1  0  0  0  0
  4  3  1  0  0  0  0
  5  2  1  0  0  0  0
  6  4  1  0  0  0  0
  7  1  2  0  0  0  0
  8  5  1  0  0  0  0
  9  6  2  0  0  0  0
 10  2  1  0  0  0  0
 11  8  2  0  0  0  0
 12  9  1  0  0  0  0
 18 17  1  0  0  0  0
 19 17  2  0  0  0  0
 20 17  2  0  0  0  0
 21 17  1  0  0  0  0
 22 18  1  0  0  0  0
 23 18  2  0  0  0  0
 24 22  2  0  0  0  0
 25 23  1  0  0  0  0
 26 25  2  0  0  0  0
 27 26  1  0  0  0  0
 24 26  1  0  0  0  0
M  END
>  <IDNUMBER>
F2146-0729

>  <Chemical_Name>
4-methylbenzene-1-sulfonic acid; 6-bromo-3-(2-ethoxyethyl)-2,3-dihydro-1,3-benzothiazol-2-imine

>  <PriceCoeff>
1.00

>  <CAS>
2034155-44-5

>  <MW>
301.21

>  <Description>
solid

>  <FSP3>
0.36

>  <clogP>
3.10

>  <TPSA>
36.32

>  <Acceptor>
1

>  <Donor>
1

>  <RotBonds>
4

>  <HAC>
16

>  <Collection>
General

$$$$
F2146-0730
  Mrv2219 10102508112D          

 30 31  0  0  0  0            999 V2000
    4.4820   -3.2752    0.0000 C   0  0  0  0  0  0  0  0  0  0  0  0
    3.1544   -3.2752    0.0000 C   0  0  0  0  0  0  0  0  0  0  0  0
    3.8245   -2.7883    0.0000 S   0  0  0  0  0  0  0  0  0  0  0  0
    4.2323   -4.0575    0.0000 N   0  0  0  0  0  0  0  0  0  0  0  0
    3.4083   -4.0575    0.0000 C   0  0  0  0  0  0  0  0  0  0  0  0
    5.2685   -3.0213    0.0000 N   0  0  0  0  0  0  0  0  0  0  0  0
    2.3513   -3.1004    0.0000 C   0  0  0  0  0  0  0  0  0  0  0  0
    2.8548   -4.6651    0.0000 C   0  0  0  0  0  0  0  0  0  0  0  0
    1.7978   -3.7122    0.0000 C   0  0  0  0  0  0  0  0  0  0  0  0
    2.0558   -4.4903    0.0000 C   0  0  0  0  0  0  0  0  0  0  0  0
    4.7150   -4.7275    0.0000 C   0  0  0  0  0  0  0  0  0  0  0  0
    2.1016   -2.3097    0.0000 O   0  0  0  0  0  0  0  0  0  0  0  0
    3.1004   -5.4600    0.0000 O   0  0  0  0  0  0  0  0  0  0  0  0
    4.8648   -6.1508    0.0000 O   0  0  0  0  0  0  0  0  0  0  0  0
    4.3779   -5.4808    0.0000 C   0  0  0  0  0  0  0  0  0  0  0  0
    4.5278   -6.9040    0.0000 C   0  0  0  0  0  0  0  0  0  0  0  0
    1.2942   -2.1266    0.0000 C   0  0  0  0  0  0  0  0  0  0  0  0
    2.5344   -6.0676    0.0000 C   0  0  0  0  0  0  0  0  0  0  0  0
    5.0106   -7.5740    0.0000 C   0  0  0  0  0  0  0  0  0  0  0  0
    8.2996   -3.8407    0.0000 S   0  0  0  0  0  0  0  0  0  0  0  0
    7.8973   -4.5496    0.0000 C   0  0  0  0  0  0  0  0  0  0  0  0
    7.5896   -3.4199    0.0000 O   0  0  0  0  0  0  0  0  0  0  0  0
    8.7049   -3.1205    0.0000 O   0  0  0  0  0  0  0  0  0  0  0  0
    9.0199   -4.2460    0.0000 O   0  0  0  0  0  0  0  0  0  0  0  0
    8.3122   -5.2663    0.0000 C   0  0  0  0  0  0  0  0  0  0  0  0
    7.0678   -4.5538    0.0000 C   0  0  0  0  0  0  0  0  0  0  0  0
    7.8956   -5.9837    0.0000 C   0  0  0  0  0  0  0  0  0  0  0  0
    6.6604   -5.2704    0.0000 C   0  0  0  0  0  0  0  0  0  0  0  0
    7.0733   -5.9836    0.0000 C   0  0  0  0  0  0  0  0  0  0  0  0
    6.6602   -6.6988    0.0000 C   0  0  0  0  0  0  0  0  0  0  0  0
 13  8  1  0  0  0  0
 14 15  1  0  0  0  0
 15 11  1  0  0  0  0
 16 14  1  0  0  0  0
 17 12  1  0  0  0  0
 18 13  1  0  0  0  0
 19 16  1  0  0  0  0
  2  5  2  0  0  0  0
 10  9  1  0  0  0  0
  2  3  1  0  0  0  0
  3  1  1  0  0  0  0
  4  1  1  0  0  0  0
  5  4  1  0  0  0  0
  6  1  2  0  0  0  0
  7  2  1  0  0  0  0
  8  5  1  0  0  0  0
  9  7  2  0  0  0  0
 10  8  2  0  0  0  0
 11  4  1  0  0  0  0
 12  7  1  0  0  0  0
 21 20  1  0  0  0  0
 22 20  2  0  0  0  0
 23 20  2  0  0  0  0
 24 20  1  0  0  0  0
 25 21  1  0  0  0  0
 26 21  2  0  0  0  0
 27 25  2  0  0  0  0
 28 26  1  0  0  0  0
 29 28  2  0  0  0  0
 30 29  1  0  0  0  0
 27 29  1  0  0  0  0
M  END
>  <IDNUMBER>
F2146-0730

>  <Chemical_Name>
3-(2-ethoxyethyl)-4,7-dimethoxy-2,3-dihydro-1,3-benzothiazol-2-imine; 4-methylbenzene-1-sulfonic acid

>  <PriceCoeff>
1.00

>  <CAS>
2034156-61-9

>  <MW>
282.36

>  <Description>
solid

>  <FSP3>
0.46

>  <clogP>
2.02

>  <TPSA>
54.78

>  <Acceptor>
3

>  <Donor>
1

>  <RotBonds>
6

>  <HAC>
19

>  <Collection>
General

$$$$
F2146-0731
  Mrv2219 10102508112D          

 28 29  0  0  0  0            999 V2000
    4.3784   -3.2568    0.0000 C   0  0  0  0  0  0  0  0  0  0  0  0
    4.1249   -4.0419    0.0000 N   0  0  0  0  0  0  0  0  0  0  0  0
    3.7262   -2.7708    0.0000 S   0  0  0  0  0  0  0  0  0  0  0  0
    3.3024   -4.0419    0.0000 C   0  0  0  0  0  0  0  0  0  0  0  0
    3.0490   -3.2568    0.0000 C   0  0  0  0  0  0  0  0  0  0  0  0
    2.2432   -3.0823    0.0000 C   0  0  0  0  0  0  0  0  0  0  0  0
    5.1676   -3.0034    0.0000 N   0  0  0  0  0  0  0  0  0  0  0  0
    2.7458   -4.6525    0.0000 C   0  0  0  0  0  0  0  0  0  0  0  0
    1.6866   -3.6970    0.0000 C   0  0  0  0  0  0  0  0  0  0  0  0
    1.9441   -4.4781    0.0000 C   0  0  0  0  0  0  0  0  0  0  0  0
    4.6152   -4.7149    0.0000 C   0  0  0  0  0  0  0  0  0  0  0  0
    1.9897   -2.2972    0.0000 C   0  0  0  0  0  0  0  0  0  0  0  0
    4.7647   -6.1438    0.0000 O   0  0  0  0  0  0  0  0  0  0  0  0
    1.3916   -5.0928    0.0000 C   0  0  0  0  0  0  0  0  0  0  0  0
    4.2745   -5.4709    0.0000 C   0  0  0  0  0  0  0  0  0  0  0  0
    4.4240   -6.8998    0.0000 C   0  0  0  0  0  0  0  0  0  0  0  0
    3.6057   -6.9829    0.0000 C   0  0  0  0  0  0  0  0  0  0  0  0
    8.1932   -3.6303    0.0000 S   0  0  0  0  0  0  0  0  0  0  0  0
    7.7916   -4.3379    0.0000 C   0  0  0  0  0  0  0  0  0  0  0  0
    7.4844   -3.2102    0.0000 O   0  0  0  0  0  0  0  0  0  0  0  0
    8.5977   -2.9113    0.0000 O   0  0  0  0  0  0  0  0  0  0  0  0
    8.9122   -4.0348    0.0000 O   0  0  0  0  0  0  0  0  0  0  0  0
    8.2057   -5.0533    0.0000 C   0  0  0  0  0  0  0  0  0  0  0  0
    6.9636   -4.3421    0.0000 C   0  0  0  0  0  0  0  0  0  0  0  0
    7.7899   -5.7693    0.0000 C   0  0  0  0  0  0  0  0  0  0  0  0
    6.5569   -5.0574    0.0000 C   0  0  0  0  0  0  0  0  0  0  0  0
    6.9691   -5.7692    0.0000 C   0  0  0  0  0  0  0  0  0  0  0  0
    6.5567   -6.4832    0.0000 C   0  0  0  0  0  0  0  0  0  0  0  0
 13 15  1  0  0  0  0
 14 10  1  0  0  0  0
 15 11  1  0  0  0  0
 16 13  1  0  0  0  0
 17 16  1  0  0  0  0
  5  4  2  0  0  0  0
 10  9  1  0  0  0  0
  2  1  1  0  0  0  0
  3  1  1  0  0  0  0
  4  2  1  0  0  0  0
  5  3  1  0  0  0  0
  6  5  1  0  0  0  0
  7  1  2  0  0  0  0
  8  4  1  0  0  0  0
  9  6  2  0  0  0  0
 10  8  2  0  0  0  0
 11  2  1  0  0  0  0
 12  6  1  0  0  0  0
 19 18  1  0  0  0  0
 20 18  2  0  0  0  0
 21 18  2  0  0  0  0
 22 18  1  0  0  0  0
 23 19  1  0  0  0  0
 24 19  2  0  0  0  0
 25 23  2  0  0  0  0
 26 24  1  0  0  0  0
 27 26  2  0  0  0  0
 28 27  1  0  0  0  0
 25 27  1  0  0  0  0
M  END
>  <IDNUMBER>
F2146-0731

>  <Chemical_Name>
3-(2-ethoxyethyl)-5,7-dimethyl-2,3-dihydro-1,3-benzothiazol-2-imine; 4-methylbenzene-1-sulfonic acid

>  <PriceCoeff>
1.00

>  <CAS>
2034156-83-5

>  <MW>
250.36

>  <Description>
solid

>  <FSP3>
0.46

>  <clogP>
3.36

>  <TPSA>
36.32

>  <Acceptor>
1

>  <Donor>
1

>  <RotBonds>
4

>  <HAC>
17

>  <Collection>
General

$$$$
F2146-0732
  Mrv2219 10102508112D          

 28 29  0  0  0  0            999 V2000
    4.6333   -3.2521    0.0000 C   0  0  0  0  0  0  0  0  0  0  0  0
    4.3803   -4.0361    0.0000 N   0  0  0  0  0  0  0  0  0  0  0  0
    3.9739   -2.7668    0.0000 S   0  0  0  0  0  0  0  0  0  0  0  0
    3.5589   -4.0361    0.0000 C   0  0  0  0  0  0  0  0  0  0  0  0
    3.3018   -3.2521    0.0000 C   0  0  0  0  0  0  0  0  0  0  0  0
    3.0032   -4.6458    0.0000 C   0  0  0  0  0  0  0  0  0  0  0  0
    2.4971   -3.0778    0.0000 C   0  0  0  0  0  0  0  0  0  0  0  0
    5.4214   -2.9990    0.0000 N   0  0  0  0  0  0  0  0  0  0  0  0
    2.2025   -4.4716    0.0000 C   0  0  0  0  0  0  0  0  0  0  0  0
    1.9412   -3.6916    0.0000 C   0  0  0  0  0  0  0  0  0  0  0  0
    4.8656   -4.7080    0.0000 C   0  0  0  0  0  0  0  0  0  0  0  0
    5.0149   -6.1349    0.0000 O   0  0  0  0  0  0  0  0  0  0  0  0
    1.6468   -5.0813    0.0000 C   0  0  0  0  0  0  0  0  0  0  0  0
    1.1324   -3.5174    0.0000 C   0  0  0  0  0  0  0  0  0  0  0  0
    4.5296   -5.4630    0.0000 C   0  0  0  0  0  0  0  0  0  0  0  0
    4.6789   -6.8897    0.0000 C   0  0  0  0  0  0  0  0  0  0  0  0
    5.1600   -7.5577    0.0000 C   0  0  0  0  0  0  0  0  0  0  0  0
    8.4426   -4.0979    0.0000 S   0  0  0  0  0  0  0  0  0  0  0  0
    8.0416   -4.8045    0.0000 C   0  0  0  0  0  0  0  0  0  0  0  0
    7.7349   -3.6784    0.0000 O   0  0  0  0  0  0  0  0  0  0  0  0
    8.8466   -3.3800    0.0000 O   0  0  0  0  0  0  0  0  0  0  0  0
    9.1606   -4.5018    0.0000 O   0  0  0  0  0  0  0  0  0  0  0  0
    8.4551   -5.5189    0.0000 C   0  0  0  0  0  0  0  0  0  0  0  0
    7.2149   -4.8086    0.0000 C   0  0  0  0  0  0  0  0  0  0  0  0
    8.0399   -6.2338    0.0000 C   0  0  0  0  0  0  0  0  0  0  0  0
    6.8087   -5.5230    0.0000 C   0  0  0  0  0  0  0  0  0  0  0  0
    7.2203   -6.2337    0.0000 C   0  0  0  0  0  0  0  0  0  0  0  0
    6.8085   -6.9467    0.0000 C   0  0  0  0  0  0  0  0  0  0  0  0
 13  9  1  0  0  0  0
 14 10  1  0  0  0  0
 15 11  1  0  0  0  0
 16 12  1  0  0  0  0
 17 16  1  0  0  0  0
  5  4  2  0  0  0  0
  9 10  1  0  0  0  0
  2  1  1  0  0  0  0
  3  1  1  0  0  0  0
  4  2  1  0  0  0  0
  5  3  1  0  0  0  0
  6  4  1  0  0  0  0
  7  5  1  0  0  0  0
  8  1  2  0  0  0  0
  9  6  2  0  0  0  0
 10  7  2  0  0  0  0
 11  2  1  0  0  0  0
 12 15  1  0  0  0  0
 19 18  1  0  0  0  0
 20 18  2  0  0  0  0
 21 18  2  0  0  0  0
 22 18  1  0  0  0  0
 23 19  1  0  0  0  0
 24 19  2  0  0  0  0
 25 23  2  0  0  0  0
 26 24  1  0  0  0  0
 27 26  2  0  0  0  0
 28 27  1  0  0  0  0
 25 27  1  0  0  0  0
M  END
>  <IDNUMBER>
F2146-0732

>  <Chemical_Name>
3-(2-ethoxyethyl)-5,6-dimethyl-2,3-dihydro-1,3-benzothiazol-2-imine; 4-methylbenzene-1-sulfonic acid

>  <PriceCoeff>
1.00

>  <CAS>
2034154-94-2

>  <MW>
250.36

>  <Description>
solid

>  <FSP3>
0.46

>  <clogP>
3.36

>  <TPSA>
36.32

>  <Acceptor>
1

>  <Donor>
1

>  <RotBonds>
4

>  <HAC>
17

>  <Collection>
General

$$$$
F2146-0748
  Mrv2219 10102508112D          

 26 27  0  0  0  0            999 V2000
    3.4686   -2.2764    0.0000 C   0  0  0  0  0  0  0  0  0  0  0  0
    3.2152   -3.0615    0.0000 N   0  0  0  0  0  0  0  0  0  0  0  0
    2.8082   -1.7945    0.0000 S   0  0  0  0  0  0  0  0  0  0  0  0
    2.1352   -2.2764    0.0000 C   0  0  0  0  0  0  0  0  0  0  0  0
    2.3927   -3.0615    0.0000 C   0  0  0  0  0  0  0  0  0  0  0  0
    1.3293   -2.1019    0.0000 C   0  0  0  0  0  0  0  0  0  0  0  0
    4.2578   -2.0230    0.0000 N   0  0  0  0  0  0  0  0  0  0  0  0
    1.8361   -3.6721    0.0000 C   0  0  0  0  0  0  0  0  0  0  0  0
    0.7726   -2.7167    0.0000 C   0  0  0  0  0  0  0  0  0  0  0  0
    3.7012   -3.7344    0.0000 C   0  0  0  0  0  0  0  0  0  0  0  0
    1.0344   -3.4977    0.0000 C   0  0  0  0  0  0  0  0  0  0  0  0
   -0.0332   -2.5465    0.0000 F   0  0  0  0  0  0  0  0  0  0  0  0
    3.8508   -5.1635    0.0000 O   0  0  0  0  0  0  0  0  0  0  0  0
    3.3648   -4.4905    0.0000 C   0  0  0  0  0  0  0  0  0  0  0  0
    3.5143   -5.9195    0.0000 C   0  0  0  0  0  0  0  0  0  0  0  0
    7.2834   -2.7911    0.0000 S   0  0  0  0  0  0  0  0  0  0  0  0
    6.8819   -3.4988    0.0000 C   0  0  0  0  0  0  0  0  0  0  0  0
    6.5747   -2.3711    0.0000 O   0  0  0  0  0  0  0  0  0  0  0  0
    7.6880   -2.0722    0.0000 O   0  0  0  0  0  0  0  0  0  0  0  0
    8.0024   -3.1957    0.0000 O   0  0  0  0  0  0  0  0  0  0  0  0
    7.2960   -4.2142    0.0000 C   0  0  0  0  0  0  0  0  0  0  0  0
    6.0539   -3.5029    0.0000 C   0  0  0  0  0  0  0  0  0  0  0  0
    6.8802   -4.9302    0.0000 C   0  0  0  0  0  0  0  0  0  0  0  0
    5.6472   -4.2183    0.0000 C   0  0  0  0  0  0  0  0  0  0  0  0
    6.0594   -4.9301    0.0000 C   0  0  0  0  0  0  0  0  0  0  0  0
    5.6470   -5.6440    0.0000 C   0  0  0  0  0  0  0  0  0  0  0  0
 13 14  1  0  0  0  0
 14 10  1  0  0  0  0
 15 13  1  0  0  0  0
  4  5  2  0  0  0  0
 11  9  1  0  0  0  0
  2  1  1  0  0  0  0
  3  1  1  0  0  0  0
  4  3  1  0  0  0  0
  5  2  1  0  0  0  0
  6  4  1  0  0  0  0
  7  1  2  0  0  0  0
  8  5  1  0  0  0  0
  9  6  2  0  0  0  0
 10  2  1  0  0  0  0
 11  8  2  0  0  0  0
 12  9  1  0  0  0  0
 17 16  1  0  0  0  0
 18 16  2  0  0  0  0
 19 16  2  0  0  0  0
 20 16  1  0  0  0  0
 21 17  1  0  0  0  0
 22 17  2  0  0  0  0
 23 21  2  0  0  0  0
 24 22  1  0  0  0  0
 25 24  2  0  0  0  0
 26 25  1  0  0  0  0
 23 25  1  0  0  0  0
M  END
>  <IDNUMBER>
F2146-0748

>  <Chemical_Name>
4-methylbenzene-1-sulfonic acid; 6-fluoro-3-(2-methoxyethyl)-2,3-dihydro-1,3-benzothiazol-2-imine

>  <PriceCoeff>
1.00

>  <CAS>
2034156-64-2

>  <MW>
226.27

>  <Description>
solid

>  <FSP3>
0.30

>  <clogP>
2.12

>  <TPSA>
36.32

>  <Acceptor>
1

>  <Donor>
1

>  <RotBonds>
3

>  <HAC>
15

>  <Collection>
General

$$$$
F2146-0749
  Mrv2219 10102508112D          

 25 26  0  0  0  0            999 V2000
    1.8455   -2.1530    0.0000 C   0  0  0  0  0  0  0  0  0  0  0  0
    1.5878   -2.9386    0.0000 N   0  0  0  0  0  0  0  0  0  0  0  0
    1.1846   -1.6709    0.0000 S   0  0  0  0  0  0  0  0  0  0  0  0
    0.7648   -2.9386    0.0000 C   0  0  0  0  0  0  0  0  0  0  0  0
    0.5112   -2.1530    0.0000 C   0  0  0  0  0  0  0  0  0  0  0  0
    2.6352   -1.8995    0.0000 N   0  0  0  0  0  0  0  0  0  0  0  0
    2.0782   -3.6119    0.0000 C   0  0  0  0  0  0  0  0  0  0  0  0
    0.2120   -3.5496    0.0000 C   0  0  0  0  0  0  0  0  0  0  0  0
   -0.2951   -1.9784    0.0000 C   0  0  0  0  0  0  0  0  0  0  0  0
    2.2278   -5.0418    0.0000 O   0  0  0  0  0  0  0  0  0  0  0  0
    1.7415   -4.3685    0.0000 C   0  0  0  0  0  0  0  0  0  0  0  0
    1.8912   -5.7983    0.0000 C   0  0  0  0  0  0  0  0  0  0  0  0
   -0.5902   -3.3750    0.0000 C   0  0  0  0  0  0  0  0  0  0  0  0
   -0.8521   -2.5936    0.0000 C   0  0  0  0  0  0  0  0  0  0  0  0
    5.6626   -2.6680    0.0000 S   0  0  0  0  0  0  0  0  0  0  0  0
    5.2608   -3.3761    0.0000 C   0  0  0  0  0  0  0  0  0  0  0  0
    4.9534   -2.2478    0.0000 O   0  0  0  0  0  0  0  0  0  0  0  0
    6.0674   -1.9487    0.0000 O   0  0  0  0  0  0  0  0  0  0  0  0
    6.3820   -3.0728    0.0000 O   0  0  0  0  0  0  0  0  0  0  0  0
    5.6752   -4.0919    0.0000 C   0  0  0  0  0  0  0  0  0  0  0  0
    4.4323   -3.3803    0.0000 C   0  0  0  0  0  0  0  0  0  0  0  0
    5.2591   -4.8084    0.0000 C   0  0  0  0  0  0  0  0  0  0  0  0
    4.0254   -4.0960    0.0000 C   0  0  0  0  0  0  0  0  0  0  0  0
    4.4378   -4.8083    0.0000 C   0  0  0  0  0  0  0  0  0  0  0  0
    4.0252   -5.5226    0.0000 C   0  0  0  0  0  0  0  0  0  0  0  0
 13  8  2  0  0  0  0
 14  9  2  0  0  0  0
  5  4  2  0  0  0  0
 13 14  1  0  0  0  0
  2  1  1  0  0  0  0
  3  1  1  0  0  0  0
  4  2  1  0  0  0  0
  5  3  1  0  0  0  0
  6  1  2  0  0  0  0
  7  2  1  0  0  0  0
  8  4  1  0  0  0  0
  9  5  1  0  0  0  0
 10 11  1  0  0  0  0
 11  7  1  0  0  0  0
 12 10  1  0  0  0  0
 16 15  1  0  0  0  0
 17 15  2  0  0  0  0
 18 15  2  0  0  0  0
 19 15  1  0  0  0  0
 20 16  1  0  0  0  0
 21 16  2  0  0  0  0
 22 20  2  0  0  0  0
 23 21  1  0  0  0  0
 24 23  2  0  0  0  0
 25 24  1  0  0  0  0
 22 24  1  0  0  0  0
M  END
>  <IDNUMBER>
F2146-0749

>  <Chemical_Name>
3-(2-methoxyethyl)-2,3-dihydro-1,3-benzothiazol-2-imine; 4-methylbenzene-1-sulfonic acid

>  <PriceCoeff>
1.00

>  <CAS>
2034619-06-0

>  <MW>
208.28

>  <Description>
solid

>  <FSP3>
0.30

>  <clogP>
2.91

>  <TPSA>
61.62

>  <Acceptor>
1

>  <Donor>
1

>  <RotBonds>
3

>  <HAC>
14

>  <Collection>
General

$$$$
F2146-0750
  Mrv2219 10102508112D          

 28 29  0  0  0  0            999 V2000
    4.2356   -3.2588    0.0000 C   0  0  0  0  0  0  0  0  0  0  0  0
    3.9779   -4.0444    0.0000 N   0  0  0  0  0  0  0  0  0  0  0  0
    3.5789   -2.7725    0.0000 S   0  0  0  0  0  0  0  0  0  0  0  0
    3.1549   -4.0444    0.0000 C   0  0  0  0  0  0  0  0  0  0  0  0
    2.9013   -3.2588    0.0000 C   0  0  0  0  0  0  0  0  0  0  0  0
    5.0254   -3.0052    0.0000 N   0  0  0  0  0  0  0  0  0  0  0  0
    2.6020   -4.6554    0.0000 C   0  0  0  0  0  0  0  0  0  0  0  0
    4.4684   -4.7178    0.0000 C   0  0  0  0  0  0  0  0  0  0  0  0
    2.0949   -3.0842    0.0000 C   0  0  0  0  0  0  0  0  0  0  0  0
    2.8556   -5.4327    0.0000 O   0  0  0  0  0  0  0  0  0  0  0  0
    1.5380   -3.6994    0.0000 C   0  0  0  0  0  0  0  0  0  0  0  0
    4.6180   -6.1476    0.0000 O   0  0  0  0  0  0  0  0  0  0  0  0
    1.7998   -4.4809    0.0000 C   0  0  0  0  0  0  0  0  0  0  0  0
    4.1317   -5.4743    0.0000 C   0  0  0  0  0  0  0  0  0  0  0  0
    2.3277   -6.1060    0.0000 C   0  0  0  0  0  0  0  0  0  0  0  0
    4.2814   -6.9041    0.0000 C   0  0  0  0  0  0  0  0  0  0  0  0
    2.6353   -6.8709    0.0000 C   0  0  0  0  0  0  0  0  0  0  0  0
    8.0528   -3.7738    0.0000 S   0  0  0  0  0  0  0  0  0  0  0  0
    7.6510   -4.4819    0.0000 C   0  0  0  0  0  0  0  0  0  0  0  0
    7.3437   -3.3535    0.0000 O   0  0  0  0  0  0  0  0  0  0  0  0
    8.4577   -3.0544    0.0000 O   0  0  0  0  0  0  0  0  0  0  0  0
    8.7723   -4.1786    0.0000 O   0  0  0  0  0  0  0  0  0  0  0  0
    8.0654   -5.1977    0.0000 C   0  0  0  0  0  0  0  0  0  0  0  0
    6.8225   -4.4861    0.0000 C   0  0  0  0  0  0  0  0  0  0  0  0
    7.6493   -5.9142    0.0000 C   0  0  0  0  0  0  0  0  0  0  0  0
    6.4156   -5.2018    0.0000 C   0  0  0  0  0  0  0  0  0  0  0  0
    6.8280   -5.9141    0.0000 C   0  0  0  0  0  0  0  0  0  0  0  0
    6.4154   -6.6285    0.0000 C   0  0  0  0  0  0  0  0  0  0  0  0
 13  7  2  0  0  0  0
 14  8  1  0  0  0  0
 15 10  1  0  0  0  0
 16 12  1  0  0  0  0
 17 15  1  0  0  0  0
  5  4  2  0  0  0  0
 13 11  1  0  0  0  0
  2  1  1  0  0  0  0
  3  1  1  0  0  0  0
  4  2  1  0  0  0  0
  5  3  1  0  0  0  0
  6  1  2  0  0  0  0
  7  4  1  0  0  0  0
  8  2  1  0  0  0  0
  9  5  1  0  0  0  0
 10  7  1  0  0  0  0
 11  9  2  0  0  0  0
 12 14  1  0  0  0  0
 19 18  1  0  0  0  0
 20 18  2  0  0  0  0
 21 18  2  0  0  0  0
 22 18  1  0  0  0  0
 23 19  1  0  0  0  0
 24 19  2  0  0  0  0
 25 23  2  0  0  0  0
 26 24  1  0  0  0  0
 27 26  2  0  0  0  0
 28 27  1  0  0  0  0
 25 27  1  0  0  0  0
M  END
>  <IDNUMBER>
F2146-0750

>  <Chemical_Name>
4-ethoxy-3-(2-methoxyethyl)-2,3-dihydro-1,3-benzothiazol-2-imine; 4-methylbenzene-1-sulfonic acid

>  <PriceCoeff>
1.00

>  <CAS>
2034157-44-1

>  <MW>
252.34

>  <Description>
solid

>  <FSP3>
0.42

>  <clogP>
2.18

>  <TPSA>
45.55

>  <Acceptor>
2

>  <Donor>
1

>  <RotBonds>
5

>  <HAC>
17

>  <Collection>
General

$$$$
F2146-0751
  Mrv2219 10102508112D          

 26 27  0  0  0  0            999 V2000
    1.7863    0.3074    0.0000 C   0  0  0  0  0  0  0  0  0  0  0  0
    1.5328   -0.4777    0.0000 N   0  0  0  0  0  0  0  0  0  0  0  0
    1.1258    0.7934    0.0000 S   0  0  0  0  0  0  0  0  0  0  0  0
    0.7103   -0.4777    0.0000 C   0  0  0  0  0  0  0  0  0  0  0  0
    0.4528    0.3074    0.0000 C   0  0  0  0  0  0  0  0  0  0  0  0
    2.5755    0.5608    0.0000 N   0  0  0  0  0  0  0  0  0  0  0  0
    0.1537   -1.0884    0.0000 C   0  0  0  0  0  0  0  0  0  0  0  0
    2.0189   -1.1507    0.0000 C   0  0  0  0  0  0  0  0  0  0  0  0
    0.4071   -1.8693    0.0000 F   0  0  0  0  0  0  0  0  0  0  0  0
   -0.3531    0.4818    0.0000 C   0  0  0  0  0  0  0  0  0  0  0  0
   -0.9097   -0.1329    0.0000 C   0  0  0  0  0  0  0  0  0  0  0  0
    2.1684   -2.5796    0.0000 O   0  0  0  0  0  0  0  0  0  0  0  0
   -0.6480   -0.9139    0.0000 C   0  0  0  0  0  0  0  0  0  0  0  0
    1.6824   -1.9067    0.0000 C   0  0  0  0  0  0  0  0  0  0  0  0
    1.8319   -3.3356    0.0000 C   0  0  0  0  0  0  0  0  0  0  0  0
    5.6011   -0.2073    0.0000 S   0  0  0  0  0  0  0  0  0  0  0  0
    5.1995   -0.9149    0.0000 C   0  0  0  0  0  0  0  0  0  0  0  0
    4.8923    0.2128    0.0000 O   0  0  0  0  0  0  0  0  0  0  0  0
    6.0056    0.5116    0.0000 O   0  0  0  0  0  0  0  0  0  0  0  0
    6.3201   -0.6118    0.0000 O   0  0  0  0  0  0  0  0  0  0  0  0
    5.6136   -1.6303    0.0000 C   0  0  0  0  0  0  0  0  0  0  0  0
    4.3715   -0.9191    0.0000 C   0  0  0  0  0  0  0  0  0  0  0  0
    5.1978   -2.3464    0.0000 C   0  0  0  0  0  0  0  0  0  0  0  0
    3.9648   -1.6344    0.0000 C   0  0  0  0  0  0  0  0  0  0  0  0
    4.3770   -2.3463    0.0000 C   0  0  0  0  0  0  0  0  0  0  0  0
    3.9646   -3.0602    0.0000 C   0  0  0  0  0  0  0  0  0  0  0  0
 13  7  2  0  0  0  0
 14  8  1  0  0  0  0
 15 12  1  0  0  0  0
  5  4  2  0  0  0  0
 13 11  1  0  0  0  0
  2  1  1  0  0  0  0
  3  1  1  0  0  0  0
  4  2  1  0  0  0  0
  5  3  1  0  0  0  0
  6  1  2  0  0  0  0
  7  4  1  0  0  0  0
  8  2  1  0  0  0  0
  9  7  1  0  0  0  0
 10  5  1  0  0  0  0
 11 10  2  0  0  0  0
 12 14  1  0  0  0  0
 17 16  1  0  0  0  0
 18 16  2  0  0  0  0
 19 16  2  0  0  0  0
 20 16  1  0  0  0  0
 21 17  1  0  0  0  0
 22 17  2  0  0  0  0
 23 21  2  0  0  0  0
 24 22  1  0  0  0  0
 25 24  2  0  0  0  0
 26 25  1  0  0  0  0
 23 25  1  0  0  0  0
M  END
>  <IDNUMBER>
F2146-0751

>  <Chemical_Name>
4-fluoro-3-(2-methoxyethyl)-2,3-dihydro-1,3-benzothiazol-2-imine; 4-methylbenzene-1-sulfonic acid

>  <PriceCoeff>
1.00

>  <CAS>
2034153-20-1

>  <MW>
226.27

>  <Description>
solid

>  <FSP3>
0.30

>  <clogP>
2.12

>  <TPSA>
36.32

>  <Acceptor>
1

>  <Donor>
1

>  <RotBonds>
3

>  <HAC>
15

>  <Collection>
General

$$$$
F2146-0752
  Mrv2219 10102508112D          

 27 28  0  0  0  0            999 V2000
    2.1948   -3.7120    0.0000 C   0  0  0  0  0  0  0  0  0  0  0  0
    1.9371   -4.4976    0.0000 N   0  0  0  0  0  0  0  0  0  0  0  0
    1.5339   -3.2298    0.0000 S   0  0  0  0  0  0  0  0  0  0  0  0
    1.1141   -4.4976    0.0000 C   0  0  0  0  0  0  0  0  0  0  0  0
    0.8605   -3.7120    0.0000 C   0  0  0  0  0  0  0  0  0  0  0  0
    0.0541   -3.5374    0.0000 C   0  0  0  0  0  0  0  0  0  0  0  0
    2.9846   -3.4585    0.0000 N   0  0  0  0  0  0  0  0  0  0  0  0
    0.5612   -5.1087    0.0000 C   0  0  0  0  0  0  0  0  0  0  0  0
   -0.5030   -4.1526    0.0000 C   0  0  0  0  0  0  0  0  0  0  0  0
   -0.2411   -4.9341    0.0000 C   0  0  0  0  0  0  0  0  0  0  0  0
    2.4275   -5.1710    0.0000 C   0  0  0  0  0  0  0  0  0  0  0  0
   -0.1953   -2.7559    0.0000 C   0  0  0  0  0  0  0  0  0  0  0  0
    2.5772   -6.6010    0.0000 O   0  0  0  0  0  0  0  0  0  0  0  0
   -0.7898   -5.5493    0.0000 C   0  0  0  0  0  0  0  0  0  0  0  0
    2.0908   -5.9276    0.0000 C   0  0  0  0  0  0  0  0  0  0  0  0
    2.2405   -7.3575    0.0000 C   0  0  0  0  0  0  0  0  0  0  0  0
    6.0122   -4.0483    0.0000 S   0  0  0  0  0  0  0  0  0  0  0  0
    5.6104   -4.7564    0.0000 C   0  0  0  0  0  0  0  0  0  0  0  0
    5.3030   -3.6280    0.0000 O   0  0  0  0  0  0  0  0  0  0  0  0
    6.4170   -3.3289    0.0000 O   0  0  0  0  0  0  0  0  0  0  0  0
    6.7317   -4.4531    0.0000 O   0  0  0  0  0  0  0  0  0  0  0  0
    6.0248   -5.4723    0.0000 C   0  0  0  0  0  0  0  0  0  0  0  0
    4.7818   -4.7606    0.0000 C   0  0  0  0  0  0  0  0  0  0  0  0
    5.6087   -6.1888    0.0000 C   0  0  0  0  0  0  0  0  0  0  0  0
    4.3749   -5.4764    0.0000 C   0  0  0  0  0  0  0  0  0  0  0  0
    4.7873   -6.1887    0.0000 C   0  0  0  0  0  0  0  0  0  0  0  0
    4.3747   -6.9031    0.0000 C   0  0  0  0  0  0  0  0  0  0  0  0
 13 15  1  0  0  0  0
 14 10  1  0  0  0  0
 15 11  1  0  0  0  0
 16 13  1  0  0  0  0
  5  4  2  0  0  0  0
 10  9  1  0  0  0  0
  2  1  1  0  0  0  0
  3  1  1  0  0  0  0
  4  2  1  0  0  0  0
  5  3  1  0  0  0  0
  6  5  1  0  0  0  0
  7  1  2  0  0  0  0
  8  4  1  0  0  0  0
  9  6  2  0  0  0  0
 10  8  2  0  0  0  0
 11  2  1  0  0  0  0
 12  6  1  0  0  0  0
 18 17  1  0  0  0  0
 19 17  2  0  0  0  0
 20 17  2  0  0  0  0
 21 17  1  0  0  0  0
 22 18  1  0  0  0  0
 23 18  2  0  0  0  0
 24 22  2  0  0  0  0
 25 23  1  0  0  0  0
 26 25  2  0  0  0  0
 27 26  1  0  0  0  0
 24 26  1  0  0  0  0
M  END
>  <IDNUMBER>
F2146-0752

>  <Chemical_Name>
3-(2-methoxyethyl)-5,7-dimethyl-2,3-dihydro-1,3-benzothiazol-2-imine; 4-methylbenzene-1-sulfonic acid

>  <PriceCoeff>
1.00

>  <CAS>
2034157-21-4

>  <MW>
236.34

>  <Description>
solid

>  <FSP3>
0.42

>  <clogP>
3.00

>  <TPSA>
36.32

>  <Acceptor>
1

>  <Donor>
1

>  <RotBonds>
3

>  <HAC>
16

>  <Collection>
General

$$$$
F2146-0753
  Mrv2219 10102508112D          

 27 28  0  0  0  0            999 V2000
    4.2357   -3.2590    0.0000 C   0  0  0  0  0  0  0  0  0  0  0  0
    3.9780   -4.0446    0.0000 N   0  0  0  0  0  0  0  0  0  0  0  0
    3.5790   -2.7726    0.0000 S   0  0  0  0  0  0  0  0  0  0  0  0
    3.1550   -4.0446    0.0000 C   0  0  0  0  0  0  0  0  0  0  0  0
    2.9014   -3.2590    0.0000 C   0  0  0  0  0  0  0  0  0  0  0  0
    2.6021   -4.6556    0.0000 C   0  0  0  0  0  0  0  0  0  0  0  0
    2.0950   -3.0844    0.0000 C   0  0  0  0  0  0  0  0  0  0  0  0
    5.0256   -3.0054    0.0000 N   0  0  0  0  0  0  0  0  0  0  0  0
    1.7999   -4.4810    0.0000 C   0  0  0  0  0  0  0  0  0  0  0  0
    1.5380   -3.6995    0.0000 C   0  0  0  0  0  0  0  0  0  0  0  0
    4.4686   -4.7180    0.0000 C   0  0  0  0  0  0  0  0  0  0  0  0
    4.6182   -6.1479    0.0000 O   0  0  0  0  0  0  0  0  0  0  0  0
    1.2512   -5.0962    0.0000 C   0  0  0  0  0  0  0  0  0  0  0  0
    0.7316   -3.5291    0.0000 C   0  0  0  0  0  0  0  0  0  0  0  0
    4.1319   -5.4745    0.0000 C   0  0  0  0  0  0  0  0  0  0  0  0
    4.2815   -6.9044    0.0000 C   0  0  0  0  0  0  0  0  0  0  0  0
    8.0532   -3.7739    0.0000 S   0  0  0  0  0  0  0  0  0  0  0  0
    7.6513   -4.4820    0.0000 C   0  0  0  0  0  0  0  0  0  0  0  0
    7.3439   -3.3536    0.0000 O   0  0  0  0  0  0  0  0  0  0  0  0
    8.4580   -3.0545    0.0000 O   0  0  0  0  0  0  0  0  0  0  0  0
    8.7726   -4.1788    0.0000 O   0  0  0  0  0  0  0  0  0  0  0  0
    8.0657   -5.1979    0.0000 C   0  0  0  0  0  0  0  0  0  0  0  0
    6.8228   -4.4862    0.0000 C   0  0  0  0  0  0  0  0  0  0  0  0
    7.6496   -5.9144    0.0000 C   0  0  0  0  0  0  0  0  0  0  0  0
    6.4159   -5.2020    0.0000 C   0  0  0  0  0  0  0  0  0  0  0  0
    6.8283   -5.9143    0.0000 C   0  0  0  0  0  0  0  0  0  0  0  0
    6.4157   -6.6287    0.0000 C   0  0  0  0  0  0  0  0  0  0  0  0
 13  9  1  0  0  0  0
 14 10  1  0  0  0  0
 15 11  1  0  0  0  0
 16 12  1  0  0  0  0
  5  4  2  0  0  0  0
  9 10  1  0  0  0  0
  2  1  1  0  0  0  0
  3  1  1  0  0  0  0
  4  2  1  0  0  0  0
  5  3  1  0  0  0  0
  6  4  1  0  0  0  0
  7  5  1  0  0  0  0
  8  1  2  0  0  0  0
  9  6  2  0  0  0  0
 10  7  2  0  0  0  0
 11  2  1  0  0  0  0
 12 15  1  0  0  0  0
 18 17  1  0  0  0  0
 19 17  2  0  0  0  0
 20 17  2  0  0  0  0
 21 17  1  0  0  0  0
 22 18  1  0  0  0  0
 23 18  2  0  0  0  0
 24 22  2  0  0  0  0
 25 23  1  0  0  0  0
 26 25  2  0  0  0  0
 27 26  1  0  0  0  0
 24 26  1  0  0  0  0
M  END
>  <IDNUMBER>
F2146-0753

>  <Chemical_Name>
3-(2-methoxyethyl)-5,6-dimethyl-2,3-dihydro-1,3-benzothiazol-2-imine; 4-methylbenzene-1-sulfonic acid

>  <PriceCoeff>
1.00

>  <CAS>
2034157-62-3

>  <MW>
236.34

>  <Description>
solid

>  <FSP3>
0.42

>  <clogP>
3.00

>  <TPSA>
36.32

>  <Acceptor>
1

>  <Donor>
1

>  <RotBonds>
3

>  <HAC>
16

>  <Collection>
General

$$$$
F2146-0754
  Mrv2219 10102508112D          

 29 30  0  0  0  0            999 V2000
    4.2337   -3.2678    0.0000 C   0  0  0  0  0  0  0  0  0  0  0  0
    2.9057   -3.2678    0.0000 C   0  0  0  0  0  0  0  0  0  0  0  0
    3.5760   -2.7850    0.0000 S   0  0  0  0  0  0  0  0  0  0  0  0
    3.9839   -4.0506    0.0000 N   0  0  0  0  0  0  0  0  0  0  0  0
    3.1597   -4.0506    0.0000 C   0  0  0  0  0  0  0  0  0  0  0  0
    5.0205   -3.0140    0.0000 N   0  0  0  0  0  0  0  0  0  0  0  0
    2.1023   -3.0931    0.0000 C   0  0  0  0  0  0  0  0  0  0  0  0
    2.6060   -4.6583    0.0000 C   0  0  0  0  0  0  0  0  0  0  0  0
    1.5486   -3.7050    0.0000 C   0  0  0  0  0  0  0  0  0  0  0  0
    1.8067   -4.4834    0.0000 C   0  0  0  0  0  0  0  0  0  0  0  0
    4.4667   -4.7207    0.0000 C   0  0  0  0  0  0  0  0  0  0  0  0
    1.8526   -2.3021    0.0000 O   0  0  0  0  0  0  0  0  0  0  0  0
    2.8517   -5.4534    0.0000 O   0  0  0  0  0  0  0  0  0  0  0  0
    4.6166   -6.1445    0.0000 O   0  0  0  0  0  0  0  0  0  0  0  0
    4.1296   -5.4743    0.0000 C   0  0  0  0  0  0  0  0  0  0  0  0
    1.0448   -2.1231    0.0000 C   0  0  0  0  0  0  0  0  0  0  0  0
    2.2854   -6.0612    0.0000 C   0  0  0  0  0  0  0  0  0  0  0  0
    4.2795   -6.8980    0.0000 C   0  0  0  0  0  0  0  0  0  0  0  0
    8.0526   -3.5006    0.0000 S   0  0  0  0  0  0  0  0  0  0  0  0
    7.6501   -4.2098    0.0000 C   0  0  0  0  0  0  0  0  0  0  0  0
    7.3423   -3.0798    0.0000 O   0  0  0  0  0  0  0  0  0  0  0  0
    8.4580   -2.7802    0.0000 O   0  0  0  0  0  0  0  0  0  0  0  0
    8.7731   -3.9061    0.0000 O   0  0  0  0  0  0  0  0  0  0  0  0
    8.0652   -4.9268    0.0000 C   0  0  0  0  0  0  0  0  0  0  0  0
    6.8204   -4.2140    0.0000 C   0  0  0  0  0  0  0  0  0  0  0  0
    7.6484   -5.6444    0.0000 C   0  0  0  0  0  0  0  0  0  0  0  0
    6.4128   -4.9309    0.0000 C   0  0  0  0  0  0  0  0  0  0  0  0
    6.8259   -5.6443    0.0000 C   0  0  0  0  0  0  0  0  0  0  0  0
    6.4126   -6.3597    0.0000 C   0  0  0  0  0  0  0  0  0  0  0  0
 13  8  1  0  0  0  0
 14 15  1  0  0  0  0
 15 11  1  0  0  0  0
 16 12  1  0  0  0  0
 17 13  1  0  0  0  0
 18 14  1  0  0  0  0
  2  5  2  0  0  0  0
 10  9  1  0  0  0  0
  2  3  1  0  0  0  0
  3  1  1  0  0  0  0
  4  1  1  0  0  0  0
  5  4  1  0  0  0  0
  6  1  2  0  0  0  0
  7  2  1  0  0  0  0
  8  5  1  0  0  0  0
  9  7  2  0  0  0  0
 10  8  2  0  0  0  0
 11  4  1  0  0  0  0
 12  7  1  0  0  0  0
 20 19  1  0  0  0  0
 21 19  2  0  0  0  0
 22 19  2  0  0  0  0
 23 19  1  0  0  0  0
 24 20  1  0  0  0  0
 25 20  2  0  0  0  0
 26 24  2  0  0  0  0
 27 25  1  0  0  0  0
 28 27  2  0  0  0  0
 29 28  1  0  0  0  0
 26 28  1  0  0  0  0
M  END
>  <IDNUMBER>
F2146-0754

>  <Chemical_Name>
4,7-dimethoxy-3-(2-methoxyethyl)-2,3-dihydro-1,3-benzothiazol-2-imine; 4-methylbenzene-1-sulfonic acid

>  <PriceCoeff>
1.00

>  <CAS>
2034156-69-7

>  <MW>
268.34

>  <Description>
solid

>  <FSP3>
0.42

>  <clogP>
1.66

>  <TPSA>
54.78

>  <Acceptor>
3

>  <Donor>
1

>  <RotBonds>
5

>  <HAC>
18

>  <Collection>
General

$$$$
F2146-0780
  Mrv2219 10102508112D          

 25 26  0  0  0  0            999 V2000
   -0.5916    1.7779    0.0000 C   0  0  0  0  0  0  0  0  0  0  0  0
   -0.8530    0.9869    0.0000 N   0  0  0  0  0  0  0  0  0  0  0  0
   -1.2648    2.2615    0.0000 S   0  0  0  0  0  0  0  0  0  0  0  0
   -1.9347    1.7746    0.0000 C   0  0  0  0  0  0  0  0  0  0  0  0
   -1.6765    0.9869    0.0000 C   0  0  0  0  0  0  0  0  0  0  0  0
   -2.7419    1.9511    0.0000 C   0  0  0  0  0  0  0  0  0  0  0  0
    0.2026    2.0328    0.0000 N   0  0  0  0  0  0  0  0  0  0  0  0
   -2.2289    0.3726    0.0000 C   0  0  0  0  0  0  0  0  0  0  0  0
   -3.2942    1.3334    0.0000 C   0  0  0  0  0  0  0  0  0  0  0  0
   -0.3595    0.3170    0.0000 C   0  0  0  0  0  0  0  0  0  0  0  0
   -3.0360    0.5457    0.0000 C   0  0  0  0  0  0  0  0  0  0  0  0
   -4.1080    1.5034    0.0000 S   0  0  0  0  0  0  0  0  0  0  0  0
   -4.3662    2.2975    0.0000 C   0  0  0  0  0  0  0  0  0  0  0  0
    0.4608    0.4053    0.0000 C   0  0  0  0  0  0  0  0  0  0  0  0
    2.7627    2.1246    0.0000 S   0  0  0  0  0  0  0  0  0  0  0  0
    2.4468    1.5678    0.0000 C   0  0  0  0  0  0  0  0  0  0  0  0
    2.2051    2.4550    0.0000 O   0  0  0  0  0  0  0  0  0  0  0  0
    3.0810    2.6901    0.0000 O   0  0  0  0  0  0  0  0  0  0  0  0
    3.3284    1.8063    0.0000 O   0  0  0  0  0  0  0  0  0  0  0  0
    2.7726    1.0050    0.0000 C   0  0  0  0  0  0  0  0  0  0  0  0
    1.7954    1.5645    0.0000 C   0  0  0  0  0  0  0  0  0  0  0  0
    2.4454    0.4417    0.0000 C   0  0  0  0  0  0  0  0  0  0  0  0
    1.4754    1.0018    0.0000 C   0  0  0  0  0  0  0  0  0  0  0  0
    1.7997    0.4417    0.0000 C   0  0  0  0  0  0  0  0  0  0  0  0
    1.4753   -0.1199    0.0000 C   0  0  0  0  0  0  0  0  0  0  0  0
 13 12  1  0  0  0  0
 14 10  1  0  0  0  0
  4  5  2  0  0  0  0
 11  9  1  0  0  0  0
  2  1  1  0  0  0  0
  3  1  1  0  0  0  0
  4  3  1  0  0  0  0
  5  2  1  0  0  0  0
  6  4  1  0  0  0  0
  7  1  2  0  0  0  0
  8  5  1  0  0  0  0
  9  6  2  0  0  0  0
 10  2  1  0  0  0  0
 11  8  2  0  0  0  0
 12  9  1  0  0  0  0
 16 15  1  0  0  0  0
 17 15  2  0  0  0  0
 18 15  2  0  0  0  0
 19 15  1  0  0  0  0
 20 16  1  0  0  0  0
 21 16  2  0  0  0  0
 22 20  2  0  0  0  0
 23 21  1  0  0  0  0
 24 23  2  0  0  0  0
 25 24  1  0  0  0  0
 22 24  1  0  0  0  0
M  END
>  <IDNUMBER>
F2146-0780

>  <Chemical_Name>
3-ethyl-6-(methylsulfanyl)-2,3-dihydro-1,3-benzothiazol-2-imine; 4-methylbenzene-1-sulfonic acid

>  <PriceCoeff>
1.00

>  <CAS>
2034155-01-4

>  <MW>
224.35

>  <Description>
solid

>  <FSP3>
0.30

>  <clogP>
3.01

>  <TPSA>
27.09

>  <Acceptor>
0

>  <Donor>
1

>  <RotBonds>
2

>  <HAC>
14

>  <Collection>
General

$$$$
F2146-0781
  Mrv2219 10102508112D          

 24 25  0  0  0  0            999 V2000
   -0.6389    1.7443    0.0000 C   0  0  0  0  0  0  0  0  0  0  0  0
   -0.9019    0.9520    0.0000 N   0  0  0  0  0  0  0  0  0  0  0  0
   -1.3121    2.2298    0.0000 S   0  0  0  0  0  0  0  0  0  0  0  0
   -1.9823    1.7412    0.0000 C   0  0  0  0  0  0  0  0  0  0  0  0
   -1.7255    0.9520    0.0000 C   0  0  0  0  0  0  0  0  0  0  0  0
    0.1566    1.9980    0.0000 N   0  0  0  0  0  0  0  0  0  0  0  0
   -2.2767    0.3382    0.0000 C   0  0  0  0  0  0  0  0  0  0  0  0
   -2.7903    1.9166    0.0000 C   0  0  0  0  0  0  0  0  0  0  0  0
   -0.4071    0.2787    0.0000 C   0  0  0  0  0  0  0  0  0  0  0  0
   -3.0847    0.5105    0.0000 C   0  0  0  0  0  0  0  0  0  0  0  0
   -3.3414    1.2965    0.0000 C   0  0  0  0  0  0  0  0  0  0  0  0
   -4.1557    1.4688    0.0000 C   0  0  0  0  0  0  0  0  0  0  0  0
    0.4134    0.3664    0.0000 C   0  0  0  0  0  0  0  0  0  0  0  0
    2.6192    2.0546    0.0000 S   0  0  0  0  0  0  0  0  0  0  0  0
    2.3164    1.5212    0.0000 C   0  0  0  0  0  0  0  0  0  0  0  0
    2.0848    2.3713    0.0000 O   0  0  0  0  0  0  0  0  0  0  0  0
    2.9241    2.5966    0.0000 O   0  0  0  0  0  0  0  0  0  0  0  0
    3.1612    1.7496    0.0000 O   0  0  0  0  0  0  0  0  0  0  0  0
    2.6286    0.9818    0.0000 C   0  0  0  0  0  0  0  0  0  0  0  0
    1.6922    1.5180    0.0000 C   0  0  0  0  0  0  0  0  0  0  0  0
    2.3151    0.4420    0.0000 C   0  0  0  0  0  0  0  0  0  0  0  0
    1.3856    0.9787    0.0000 C   0  0  0  0  0  0  0  0  0  0  0  0
    1.6963    0.4421    0.0000 C   0  0  0  0  0  0  0  0  0  0  0  0
    1.3855   -0.0961    0.0000 C   0  0  0  0  0  0  0  0  0  0  0  0
 13  9  1  0  0  0  0
  4  5  2  0  0  0  0
 10 11  1  0  0  0  0
  2  1  1  0  0  0  0
  3  1  1  0  0  0  0
  4  3  1  0  0  0  0
  5  2  1  0  0  0  0
  6  1  2  0  0  0  0
  7  5  1  0  0  0  0
  8  4  1  0  0  0  0
  9  2  1  0  0  0  0
 10  7  2  0  0  0  0
 11  8  2  0  0  0  0
 12 11  1  0  0  0  0
 15 14  1  0  0  0  0
 16 14  2  0  0  0  0
 17 14  2  0  0  0  0
 18 14  1  0  0  0  0
 19 15  1  0  0  0  0
 20 15  2  0  0  0  0
 21 19  2  0  0  0  0
 22 20  1  0  0  0  0
 23 22  2  0  0  0  0
 24 23  1  0  0  0  0
 21 23  1  0  0  0  0
M  END
>  <IDNUMBER>
F2146-0781

>  <Chemical_Name>
3-ethyl-6-methyl-2,3-dihydro-1,3-benzothiazol-2-imine; 4-methylbenzene-1-sulfonic acid

>  <PriceCoeff>
1.00

>  <CAS>
2034154-23-7

>  <MW>
192.29

>  <Description>
solid

>  <FSP3>
0.30

>  <clogP>
2.89

>  <TPSA>
27.09

>  <Acceptor>
0

>  <Donor>
1

>  <RotBonds>
1

>  <HAC>
13

>  <Collection>
General

$$$$
F2147-0872
  Mrv2219 10102508112D          

 12 12  0  0  0  0            999 V2000
    4.4064   -0.9977    0.0000 C   0  0  0  0  0  0  0  0  0  0  0  0
    2.9805   -1.8249    0.0000 C   0  0  0  0  0  0  0  0  0  0  0  0
    4.4064   -1.8249    0.0000 C   0  0  0  0  0  0  0  0  0  0  0  0
    3.6914   -0.5861    0.0000 C   0  0  0  0  0  0  0  0  0  0  0  0
    3.6914   -2.2365    0.0000 C   0  0  0  0  0  0  0  0  0  0  0  0
    2.9805   -0.9977    0.0000 C   0  0  0  0  0  0  0  0  0  0  0  0
    5.1172   -0.5819    0.0000 O   0  0  0  0  0  0  0  0  0  0  0  0
    2.2655   -2.2365    0.0000 O   0  0  0  0  0  0  0  0  0  0  0  0
    0.1289   -1.8249    0.0000 O   0  0  0  0  0  0  0  0  0  0  0  0
    1.5547   -1.8249    0.0000 C   0  0  0  0  0  0  0  0  0  0  0  0
    0.8397   -2.2365    0.0000 C   0  0  0  0  0  0  0  0  0  0  0  0
   -0.5861   -2.2323    0.0000 C   0  0  0  0  0  0  0  0  0  0  0  0
  2  6  2  0  0  0  0
  3  1  1  0  0  0  0
  4  1  2  0  0  0  0
  5  3  2  0  0  0  0
  6  4  1  0  0  0  0
  7  1  1  0  0  0  0
  8  2  1  0  0  0  0
  9 11  1  0  0  0  0
 10  8  1  0  0  0  0
 11 10  1  0  0  0  0
 12  9  1  0  0  0  0
  5  2  1  0  0  0  0
M  END
>  <IDNUMBER>
F2147-0872

>  <Chemical_Name>
4-(2-methoxyethoxy)phenol

>  <PriceCoeff>
1.00

>  <CAS>
51980-60-0

>  <MW>
168.19

>  <Description>
solid

>  <FSP3>
0.33

>  <clogP>
1.47

>  <TPSA>
38.69

>  <Acceptor>
3

>  <Donor>
1

>  <RotBonds>
4

>  <HAC>
12

>  <Collection>
General

>  <PPDS>
+

$$$$
F2147-0933
  Mrv2219 10102508112D          

 18 20  0  0  0  0            999 V2000
    1.8167   -3.9417    0.0000 C   0  0  0  0  0  0  0  0  0  0  0  0
    2.5708   -3.5417    0.0000 O   0  0  0  0  0  0  0  0  0  0  0  0
    2.2375   -3.2292    0.0000 O   0  0  0  0  0  0  0  0  0  0  0  0
    1.1500   -3.5417    0.0000 O   0  0  0  0  0  0  0  0  0  0  0  0
    1.8583   -2.3042    0.0000 C   0  0  0  0  0  0  0  0  0  0  0  0
    1.8167   -4.7667    0.0000 C   0  0  0  0  0  0  0  0  0  0  0  0
    2.5708   -2.7167    0.0000 C   0  0  0  0  0  0  0  0  0  0  0  0
    1.1500   -2.7167    0.0000 C   0  0  0  0  0  0  0  0  0  0  0  0
    1.4417   -3.0167    0.0000 C   0  0  0  0  0  0  0  0  0  0  0  0
    1.0958   -5.1708    0.0000 C   0  0  0  0  0  0  0  0  0  0  0  0
    2.5250   -5.1750    0.0000 C   0  0  0  0  0  0  0  0  0  0  0  0
    1.8042   -6.4125    0.0000 C   0  0  0  0  0  0  0  0  0  0  0  0
    2.5250   -6.0000    0.0000 C   0  0  0  0  0  0  0  0  0  0  0  0
    1.0917   -5.9958    0.0000 C   0  0  0  0  0  0  0  0  0  0  0  0
    1.8000   -7.2375    0.0000 I   0  0  0  0  0  0  0  0  0  0  0  0
    1.8542   -1.4792    0.0000 C   0  0  0  0  0  0  0  0  0  0  0  0
    2.5625   -1.0583    0.0000 C   0  0  0  0  0  0  0  0  0  0  0  0
    2.5542   -0.2333    0.0000 C   0  0  0  0  0  0  0  0  0  0  0  0
  2  1  1  0  0  0  0
  3  1  1  0  0  0  0
  4  1  1  0  0  0  0
  5  9  1  0  0  0  0
  6  1  1  0  0  0  0
  7  2  1  0  0  0  0
  8  4  1  0  0  0  0
  9  3  1  0  0  0  0
 10  6  2  0  0  0  0
 11  6  1  0  0  0  0
 12 13  1  0  0  0  0
 13 11  2  0  0  0  0
 14 10  1  0  0  0  0
 15 12  1  0  0  0  0
 16  5  1  0  0  0  0
 17 16  1  0  0  0  0
 18 17  1  0  0  0  0
  5  7  1  0  0  0  0
  5  8  1  0  0  0  0
 12 14  2  0  0  0  0
M  END
>  <IDNUMBER>
F2147-0933

>  <Chemical_Name>
1-(4-iodophenyl)-4-propyl-2,6,7-trioxabicyclo[2.2.2]octane

>  <PriceCoeff>
1.00

>  <CAS>
108614-59-1

>  <MW>
360.19

>  <Description>
solid

>  <FSP3>
0.57

>  <clogP>
4.15

>  <TPSA>
27.69

>  <Acceptor>
3

>  <Donor>
0

>  <RotBonds>
3

>  <HAC>
18

>  <Collection>
General

>  <PPDS>
+

$$$$
F2147-0935
  Mrv2219 10102508112D          

 23 25  0  0  0  0            999 V2000
    4.9131   -2.2513    0.0000 C   0  0  0  0  0  0  0  0  0  0  0  0
    5.6636   -1.8575    0.0000 O   0  0  0  0  0  0  0  0  0  0  0  0
    5.3277   -1.5341    0.0000 O   0  0  0  0  0  0  0  0  0  0  0  0
    4.2414   -1.8575    0.0000 O   0  0  0  0  0  0  0  0  0  0  0  0
    4.9504   -0.6137    0.0000 C   0  0  0  0  0  0  0  0  0  0  0  0
    4.8882   -6.3601    0.0000 C   0  0  0  0  0  0  0  0  0  0  0  0
    4.8924   -5.5433    0.0000 C   0  0  0  0  0  0  0  0  0  0  0  0
    4.9048   -3.0764    0.0000 C   0  0  0  0  0  0  0  0  0  0  0  0
    4.8799   -7.1810    0.0000 Si  0  0  0  0  0  0  0  0  0  0  0  0
    5.6636   -1.0324    0.0000 C   0  0  0  0  0  0  0  0  0  0  0  0
    4.2414   -1.0324    0.0000 C   0  0  0  0  0  0  0  0  0  0  0  0
    4.5317   -1.3226    0.0000 C   0  0  0  0  0  0  0  0  0  0  0  0
    4.8965   -4.7223    0.0000 C   0  0  0  0  0  0  0  0  0  0  0  0
    5.6179   -3.4869    0.0000 C   0  0  0  0  0  0  0  0  0  0  0  0
    4.1875   -3.4827    0.0000 C   0  0  0  0  0  0  0  0  0  0  0  0
    4.1834   -4.3078    0.0000 C   0  0  0  0  0  0  0  0  0  0  0  0
    5.6179   -4.3119    0.0000 C   0  0  0  0  0  0  0  0  0  0  0  0
    4.9421    0.2114    0.0000 C   0  0  0  0  0  0  0  0  0  0  0  0
    4.1710   -7.5915    0.0000 C   0  0  0  0  0  0  0  0  0  0  0  0
    5.5889   -7.5956    0.0000 C   0  0  0  0  0  0  0  0  0  0  0  0
    4.8799   -8.0019    0.0000 C   0  0  0  0  0  0  0  0  0  0  0  0
    5.6552    0.6302    0.0000 C   0  0  0  0  0  0  0  0  0  0  0  0
    5.6469    1.4553    0.0000 C   0  0  0  0  0  0  0  0  0  0  0  0
  2  1  1  0  0  0  0
  3  1  1  0  0  0  0
  4  1  1  0  0  0  0
  5 10  1  0  0  0  0
  6  7  3  0  0  0  0
  7 13  1  0  0  0  0
  8  1  1  0  0  0  0
  9  6  1  0  0  0  0
 10  2  1  0  0  0  0
 11  4  1  0  0  0  0
 12  3  1  0  0  0  0
 13 17  1  0  0  0  0
 14  8  1  0  0  0  0
 15  8  2  0  0  0  0
 16 15  1  0  0  0  0
 17 14  2  0  0  0  0
 18  5  1  0  0  0  0
 19  9  1  0  0  0  0
 20  9  1  0  0  0  0
 21  9  1  0  0  0  0
 22 18  1  0  0  0  0
 23 22  1  0  0  0  0
  5 11  1  0  0  0  0
 12  5  1  0  0  0  0
 13 16  2  0  0  0  0
M  END
>  <IDNUMBER>
F2147-0935

>  <Chemical_Name>
trimethyl[2-(4-{4-propyl-2,6,7-trioxabicyclo[2.2.2]octan-1-yl}phenyl)ethynyl]silane

>  <PriceCoeff>
1.00

>  <CAS>
108613-97-4

>  <MW>
330.49

>  <Description>
solid

>  <FSP3>
0.58

>  <clogP>
5.52

>  <TPSA>
27.69

>  <Acceptor>
3

>  <Donor>
0

>  <RotBonds>
3

>  <HAC>
23

>  <Collection>
General

$$$$
F2147-0938
  Mrv2219 10102508112D          

 17 18  0  0  0  0            999 V2000
    7.1632   -3.5191    0.0000 C   0  0  0  0  0  0  0  0  0  0  0  0
    6.4510   -3.9356    0.0000 C   0  0  0  0  0  0  0  0  0  0  0  0
    5.7347   -3.5233    0.0000 C   0  0  0  0  0  0  0  0  0  0  0  0
    3.5982   -4.7685    0.0000 C   0  0  0  0  0  0  0  0  0  0  0  0
    7.1590   -2.6945    0.0000 O   0  0  0  0  0  0  0  0  0  0  0  0
    2.8903   -5.1849    0.0000 C   0  0  0  0  0  0  0  0  0  0  0  0
    4.3146   -5.1808    0.0000 C   0  0  0  0  0  0  0  0  0  0  0  0
    3.5940   -3.9481    0.0000 C   0  0  0  0  0  0  0  0  0  0  0  0
    5.0225   -3.9398    0.0000 C   0  0  0  0  0  0  0  0  0  0  0  0
    7.8794   -3.9273    0.0000 O   0  0  0  0  0  0  0  0  0  0  0  0
    5.0267   -4.7685    0.0000 C   0  0  0  0  0  0  0  0  0  0  0  0
    4.3021   -3.5316    0.0000 C   0  0  0  0  0  0  0  0  0  0  0  0
    2.1739   -4.7727    0.0000 C   0  0  0  0  0  0  0  0  0  0  0  0
    2.8903   -6.0137    0.0000 C   0  0  0  0  0  0  0  0  0  0  0  0
    1.4618   -5.1849    0.0000 C   0  0  0  0  0  0  0  0  0  0  0  0
    2.1739   -6.4260    0.0000 C   0  0  0  0  0  0  0  0  0  0  0  0
    1.4618   -6.0137    0.0000 C   0  0  0  0  0  0  0  0  0  0  0  0
  2  1  1  0  0  0  0
  3  2  2  0  0  0  0
  4  8  1  0  0  0  0
  5  1  2  0  0  0  0
  6  4  1  0  0  0  0
  7 11  1  0  0  0  0
  8 12  2  0  0  0  0
  9  3  1  0  0  0  0
 10  1  1  0  0  0  0
 11  9  2  0  0  0  0
 12  9  1  0  0  0  0
 13  6  2  0  0  0  0
 14  6  1  0  0  0  0
 15 13  1  0  0  0  0
 16 14  2  0  0  0  0
 17 15  2  0  0  0  0
  7  4  2  0  0  0  0
 16 17  1  0  0  0  0
M  END
>  <IDNUMBER>
F2147-0938

>  <Chemical_Name>
(2E)-3-{[1,1'-biphenyl]-4-yl}prop-2-enoic acid

>  <PriceCoeff>
1.00

>  <CAS>
88241-65-0

>  <MW>
224.26

>  <Description>
solid

>  <FSP3>
0.00

>  <clogP>
4.13

>  <TPSA>
37.30

>  <Acceptor>
2

>  <Donor>
0

>  <RotBonds>
3

>  <HAC>
17

>  <Collection>
General

>  <PPDS>
+

$$$$
F2147-1049
  Mrv2219 10102508112D          

 13 13  0  0  0  0            999 V2000
    3.1402   -2.9693    0.0000 C   0  0  0  0  0  0  0  0  0  0  0  0
    3.1402   -3.7981    0.0000 C   0  0  0  0  0  0  0  0  0  0  0  0
    3.8523   -2.5529    0.0000 C   0  0  0  0  0  0  0  0  0  0  0  0
    3.8564   -4.2104    0.0000 C   0  0  0  0  0  0  0  0  0  0  0  0
    2.4238   -2.5570    0.0000 C   0  0  0  0  0  0  0  0  0  0  0  0
    3.8481   -1.7283    0.0000 O   0  0  0  0  0  0  0  0  0  0  0  0
    3.8564   -5.0350    0.0000 O   0  0  0  0  0  0  0  0  0  0  0  0
    4.5686   -2.9610    0.0000 O   0  0  0  0  0  0  0  0  0  0  0  0
    4.5686   -3.7939    0.0000 O   0  0  0  0  0  0  0  0  0  0  0  0
    2.4196   -1.7324    0.0000 O   0  0  0  0  0  0  0  0  0  0  0  0
    2.4238   -4.2104    0.0000 C   0  0  0  0  0  0  0  0  0  0  0  0
    1.7117   -3.7981    0.0000 C   0  0  0  0  0  0  0  0  0  0  0  0
    1.7117   -2.9735    0.0000 C   0  0  0  0  0  0  0  0  0  0  0  0
  2  1  1  0  0  0  0
  3  1  1  0  0  0  0
  4  2  1  0  0  0  0
  5  1  2  0  0  0  0
  6  3  2  0  0  0  0
  7  4  2  0  0  0  0
  8  3  1  0  0  0  0
  9  4  1  0  0  0  0
 10  5  1  0  0  0  0
 11  2  2  0  0  0  0
 12 13  2  0  0  0  0
 13  5  1  0  0  0  0
 11 12  1  0  0  0  0
M  END
>  <IDNUMBER>
F2147-1049

>  <Chemical_Name>
3-hydroxybenzene-1,2-dicarboxylic acid

>  <PriceCoeff>
1.00

>  <CAS>
601-97-8

>  <MW>
182.13

>  <Description>
solid

>  <FSP3>
0.00

>  <clogP>
1.63

>  <TPSA>
94.83

>  <Acceptor>
5

>  <Donor>
1

>  <RotBonds>
2

>  <HAC>
13

>  <Collection>
General

>  <PPDS>
+

$$$$
F2147-1322
  Mrv2219 10102508112D          

 14 16  0  0  0  0            999 V2000
    4.4042   -0.3583    0.0000 C   0  0  0  0  0  0  0  0  0  0  0  0
    4.6583   -1.1458    0.0000 C   0  0  0  0  0  0  0  0  0  0  0  0
    3.9917   -1.6250    0.0000 N   0  0  0  0  0  0  0  0  0  0  0  0
    3.5792   -0.3583    0.0000 C   0  0  0  0  0  0  0  0  0  0  0  0
    3.3208   -1.1458    0.0000 C   0  0  0  0  0  0  0  0  0  0  0  0
    5.9625    1.0958    0.0000 N   0  0  0  0  0  0  0  0  0  0  0  0
    4.8833    0.3083    0.0000 C   0  0  0  0  0  0  0  0  0  0  0  0
    5.7083    0.3125    0.0000 C   0  0  0  0  0  0  0  0  0  0  0  0
    3.0292    0.2542    0.0000 C   0  0  0  0  0  0  0  0  0  0  0  0
    5.2958    1.5792    0.0000 C   0  0  0  0  0  0  0  0  0  0  0  0
    2.5167   -1.3167    0.0000 C   0  0  0  0  0  0  0  0  0  0  0  0
    4.6292    1.0958    0.0000 C   0  0  0  0  0  0  0  0  0  0  0  0
    2.2208    0.0875    0.0000 C   0  0  0  0  0  0  0  0  0  0  0  0
    1.9625   -0.7042    0.0000 C   0  0  0  0  0  0  0  0  0  0  0  0
  2  1  2  0  0  0  0
  3  2  1  0  0  0  0
  4  1  1  0  0  0  0
  5  4  2  0  0  0  0
  6  8  1  0  0  0  0
  7  1  1  0  0  0  0
  8  7  1  0  0  0  0
  9  4  1  0  0  0  0
 10 12  1  0  0  0  0
 11  5  1  0  0  0  0
 12  7  1  0  0  0  0
 13  9  2  0  0  0  0
 14 13  1  0  0  0  0
  3  5  1  0  0  0  0
 10  6  1  0  0  0  0
 11 14  2  0  0  0  0
M  END
>  <IDNUMBER>
F2147-1322

>  <Chemical_Name>
3-(pyrrolidin-3-yl)-1H-indole

>  <PriceCoeff>
1.50

>  <CAS>
3766-02-7

>  <MW>
186.26

>  <Description>
solid

>  <FSP3>
0.33

>  <clogP>
1.81

>  <TPSA>
27.82

>  <Acceptor>
0

>  <Donor>
2

>  <RotBonds>
1

>  <HAC>
14

>  <Collection>
Advanced

>  <PPDS>
+

$$$$
F2147-1619
  Mrv2219 10102508112D          

 15 17  0  0  0  0            999 V2000
    3.7500   -1.0167    0.0000 C   0  0  0  0  0  0  0  0  0  0  0  0
    4.0042   -1.8042    0.0000 C   0  0  0  0  0  0  0  0  0  0  0  0
    3.3375   -2.2875    0.0000 N   0  0  0  0  0  0  0  0  0  0  0  0
    2.9250   -1.0167    0.0000 C   0  0  0  0  0  0  0  0  0  0  0  0
    4.2292   -0.3500    0.0000 C   0  0  0  0  0  0  0  0  0  0  0  0
    4.6417    0.9208    0.0000 N   0  0  0  0  0  0  0  0  0  0  0  0
    5.3083    0.4375    0.0000 C   0  0  0  0  0  0  0  0  0  0  0  0
    2.6667   -1.8042    0.0000 C   0  0  0  0  0  0  0  0  0  0  0  0
    5.0542   -0.3458    0.0000 C   0  0  0  0  0  0  0  0  0  0  0  0
    3.9750    0.4375    0.0000 C   0  0  0  0  0  0  0  0  0  0  0  0
    6.0917    0.6958    0.0000 O   0  0  0  0  0  0  0  0  0  0  0  0
    2.3750   -0.4042    0.0000 C   0  0  0  0  0  0  0  0  0  0  0  0
    1.8625   -1.9750    0.0000 C   0  0  0  0  0  0  0  0  0  0  0  0
    1.5667   -0.5708    0.0000 C   0  0  0  0  0  0  0  0  0  0  0  0
    1.3083   -1.3625    0.0000 C   0  0  0  0  0  0  0  0  0  0  0  0
  2  1  2  0  0  0  0
  3  2  1  0  0  0  0
  4  1  1  0  0  0  0
  5  1  1  0  0  0  0
  6 10  1  0  0  0  0
  7  9  1  0  0  0  0
  8  4  2  0  0  0  0
  9  5  1  0  0  0  0
 10  5  1  0  0  0  0
 11  7  2  0  0  0  0
 12  4  1  0  0  0  0
 13  8  1  0  0  0  0
 14 12  2  0  0  0  0
 15 14  1  0  0  0  0
  3  8  1  0  0  0  0
  6  7  1  0  0  0  0
 13 15  2  0  0  0  0
M  END
>  <IDNUMBER>
F2147-1619

>  <Chemical_Name>
4-(1H-indol-3-yl)pyrrolidin-2-one

>  <PriceCoeff>
1.50

>  <CAS>
27008-33-9

>  <MW>
200.24

>  <Description>
solid

>  <FSP3>
0.25

>  <clogP>
1.02

>  <TPSA>
44.89

>  <Acceptor>
1

>  <Donor>
2

>  <RotBonds>
1

>  <HAC>
15

>  <Collection>
Advanced

>  <PPDS>
+

$$$$
F2147-1739
  Mrv2219 10102508112D          

  9  8  0  0  0  0            999 V2000
   -0.1002   -2.6597    0.0000 C   0  0  0  0  0  0  0  0  0  0  0  0
   -0.1002   -3.4864    0.0000 O   0  0  0  0  0  0  0  0  0  0  0  0
    2.7599   -2.6597    0.0000 O   0  0  0  0  0  0  0  0  0  0  0  0
    2.0459   -2.2463    0.0000 C   0  0  0  0  0  0  0  0  0  0  0  0
   -0.8184   -2.2463    0.0000 O   0  0  0  0  0  0  0  0  0  0  0  0
    0.6138   -2.2463    0.0000 C   0  0  0  0  0  0  0  0  0  0  0  0
    1.3277   -2.6597    0.0000 C   0  0  0  0  0  0  0  0  0  0  0  0
   -0.8184   -1.4196    0.0000 C   0  0  0  0  0  0  0  0  0  0  0  0
   -1.5324   -1.0063    0.0000 C   0  0  0  0  0  0  0  0  0  0  0  0
  2  1  2  0  0  0  0
  3  4  2  0  0  0  0
  4  7  1  0  0  0  0
  5  1  1  0  0  0  0
  6  1  1  0  0  0  0
  7  6  1  0  0  0  0
  8  5  1  0  0  0  0
  9  8  1  0  0  0  0
M  END
>  <IDNUMBER>
F2147-1739

>  <Chemical_Name>
ethyl 4-oxobutanoate

>  <PriceCoeff>
1.00

>  <CAS>
10138-10-0

>  <MW>
130.14

>  <Description>
liquid

>  <FSP3>
0.67

>  <clogP>
-0.05

>  <TPSA>
43.37

>  <Acceptor>
3

>  <Donor>
0

>  <RotBonds>
5

>  <HAC>
9

>  <Collection>
General

$$$$
F2147-6052
  Mrv2219 10102508112D          

  9  8  0  0  0  0            999 V2000
   -5.3146    3.8194    0.0000 O   0  0  0  0  0  0  0  0  0  0  0  0
   -3.8906    3.8194    0.0000 C   0  0  0  0  0  0  0  0  0  0  0  0
   -4.6068    3.4132    0.0000 C   0  0  0  0  0  0  0  0  0  0  0  0
   -3.1745    4.2257    0.0000 C   0  0  0  0  0  0  0  0  0  0  0  0
   -3.4802    3.1033    0.0000 C   0  0  0  0  0  0  0  0  0  0  0  0
   -4.3052    4.5272    0.0000 C   0  0  0  0  0  0  0  0  0  0  0  0
   -3.1745    5.0549    0.0000 C   0  0  0  0  0  0  0  0  0  0  0  0
   -2.4583    5.4695    0.0000 C   0  0  0  0  0  0  0  0  0  0  0  0
   -2.4583    6.2945    0.0000 C   0  0  0  0  0  0  0  0  0  0  0  0
  2  3  1  0  0  0  0
  3  1  2  0  0  0  0
  4  2  1  0  0  0  0
  5  2  1  0  0  0  0
  6  2  1  0  0  0  0
  7  4  1  0  0  0  0
  8  7  1  0  0  0  0
  9  8  1  0  0  0  0
M  END
>  <IDNUMBER>
F2147-6052

>  <Chemical_Name>
2,2-dimethylhexanal

>  <PriceCoeff>
1.00

>  <CAS>
996-12-3

>  <MW>
128.21

>  <Description>
liquid

>  <FSP3>
0.88

>  <clogP>
2.75

>  <TPSA>
17.07

>  <Acceptor>
1

>  <Donor>
0

>  <RotBonds>
4

>  <HAC>
9

>  <Collection>
General

>  <PPDS>
+

$$$$
F2147-9882
  Mrv2219 10102508112D          

 15 16  0  0  0  0            999 V2000
   -1.2918    1.1352    0.0000 C   0  0  0  0  0  0  0  0  0  0  0  0
    0.0077    1.7232    0.0000 C   0  0  0  0  0  0  0  0  0  0  0  0
   -1.7027   -0.1259    0.0000 N   0  0  0  0  0  0  0  0  0  0  0  0
   -1.0375    0.3518    0.0000 C   0  0  0  0  0  0  0  0  0  0  0  0
   -2.1162    1.1352    0.0000 C   0  0  0  0  0  0  0  0  0  0  0  0
   -0.8141    1.8080    0.0000 C   0  0  0  0  0  0  0  0  0  0  0  0
    0.0051    0.9014    0.0000 C   0  0  0  0  0  0  0  0  0  0  0  0
    0.7191    1.3149    0.0000 C   0  0  0  0  0  0  0  0  0  0  0  0
   -2.3730    0.3518    0.0000 C   0  0  0  0  0  0  0  0  0  0  0  0
    0.2234    2.5220    0.0000 N   0  0  0  0  0  0  0  0  0  0  0  0
   -2.6632    1.7463    0.0000 C   0  0  0  0  0  0  0  0  0  0  0  0
   -3.1794    0.1772    0.0000 C   0  0  0  0  0  0  0  0  0  0  0  0
   -3.4722    1.5846    0.0000 C   0  0  0  0  0  0  0  0  0  0  0  0
   -3.7341    0.7936    0.0000 C   0  0  0  0  0  0  0  0  0  0  0  0
    1.5743    1.1968    0.0000 Cl  0  0  0  0  0  0  0  0  0  0  0  0
  3  4  1  0  0  0  0
  4  1  2  0  0  0  0
  5  1  1  0  0  0  0
  6  1  1  0  0  0  0
  7  2  1  0  0  0  0
  8  2  1  0  0  0  0
  9  5  2  0  0  0  0
 10  2  1  0  0  0  0
 11  5  1  0  0  0  0
 12  9  1  0  0  0  0
 13 11  2  0  0  0  0
 14 13  1  0  0  0  0
  3  9  1  0  0  0  0
  7  8  1  0  0  0  0
 12 14  2  0  0  0  0
  2  6  1  0  0  0  0
M  END
>  <IDNUMBER>
F2147-9882

>  <Chemical_Name>
1-[(1H-indol-3-yl)methyl]cyclopropan-1-amine hydrochloride

>  <PriceCoeff>
1.50

>  <CAS>
2411638-56-5

>  <MW>
186.26

>  <Description>
solid

>  <FSP3>
0.33

>  <clogP>
1.88

>  <TPSA>
41.81

>  <Acceptor>
0

>  <Donor>
2

>  <RotBonds>
2

>  <HAC>
14

>  <Collection>
Advanced

>  <PPDS>
+

$$$$
F2148-2605
  Mrv2219 10102508112D          

 18 20  0  0  0  0            999 V2000
    9.6245  -11.0613    0.0000 N   0  0  0  0  0  0  0  0  0  0  0  0
    8.9206  -12.3064    0.0000 C   0  0  0  0  0  0  0  0  0  0  0  0
    7.4880  -12.3106    0.0000 C   0  0  0  0  0  0  0  0  0  0  0  0
    8.2002  -11.8941    0.0000 C   0  0  0  0  0  0  0  0  0  0  0  0
    9.6328  -11.8859    0.0000 C   0  0  0  0  0  0  0  0  0  0  0  0
    7.4880  -13.1352    0.0000 C   0  0  0  0  0  0  0  0  0  0  0  0
    6.7092  -12.0566    0.0000 O   0  0  0  0  0  0  0  0  0  0  0  0
    6.7092  -13.3851    0.0000 O   0  0  0  0  0  0  0  0  0  0  0  0
    6.2261  -12.7229    0.0000 C   0  0  0  0  0  0  0  0  0  0  0  0
    8.9206  -13.1352    0.0000 C   0  0  0  0  0  0  0  0  0  0  0  0
    8.2002  -13.5475    0.0000 C   0  0  0  0  0  0  0  0  0  0  0  0
    9.6245   -9.4204    0.0000 O   0  0  0  0  0  0  0  0  0  0  0  0
   11.0613  -11.8859    0.0000 N   0  0  0  0  0  0  0  0  0  0  0  0
   10.3366  -10.6490    0.0000 C   0  0  0  0  0  0  0  0  0  0  0  0
    8.9123  -10.6615    0.0000 C   0  0  0  0  0  0  0  0  0  0  0  0
   10.3491  -12.2981    0.0000 C   0  0  0  0  0  0  0  0  0  0  0  0
    8.9123   -9.8327    0.0000 C   0  0  0  0  0  0  0  0  0  0  0  0
   10.3366   -9.8327    0.0000 C   0  0  0  0  0  0  0  0  0  0  0  0
  2  5  1  0  0  0  0
  3  4  1  0  0  0  0
  4  2  2  0  0  0  0
  5  1  1  0  0  0  0
  6 11  1  0  0  0  0
  7  3  1  0  0  0  0
  8  6  1  0  0  0  0
  9  7  1  0  0  0  0
 10  2  1  0  0  0  0
 11 10  2  0  0  0  0
 12 17  1  0  0  0  0
 13 16  1  0  0  0  0
 14  1  1  0  0  0  0
 15  1  1  0  0  0  0
 16  5  1  0  0  0  0
 17 15  1  0  0  0  0
 18 14  1  0  0  0  0
 18 12  1  0  0  0  0
  3  6  2  0  0  0  0
  9  8  1  0  0  0  0
M  END
>  <IDNUMBER>
F2148-2605

>  <Chemical_Name>
2-(2H-1,3-benzodioxol-5-yl)-2-(morpholin-4-yl)ethan-1-amine

>  <PriceCoeff>
1.00

>  <CAS>
951919-47-4

>  <MW>
250.30

>  <Description>
oil

>  <FSP3>
0.54

>  <clogP>
0.58

>  <TPSA>
56.95

>  <Acceptor>
5

>  <Donor>
2

>  <RotBonds>
3

>  <HAC>
18

>  <Collection>
General

>  <PPDS>
+

$$$$
F2156-0041
  Mrv2219 10102508112D          

 17 18  0  0  0  0            999 V2000
    0.4292    0.3500    0.0000 C   0  0  0  0  0  0  0  0  0  0  0  0
   -0.2750   -0.8917    0.0000 N   0  0  0  0  0  0  0  0  0  0  0  0
   -0.2833    0.7583    0.0000 C   0  0  0  0  0  0  0  0  0  0  0  0
    0.4375   -0.4792    0.0000 C   0  0  0  0  0  0  0  0  0  0  0  0
   -0.9958    0.3458    0.0000 C   0  0  0  0  0  0  0  0  0  0  0  0
   -0.9958   -0.4792    0.0000 C   0  0  0  0  0  0  0  0  0  0  0  0
    1.1417    0.7708    0.0000 C   0  0  0  0  0  0  0  0  0  0  0  0
   -0.2875    1.5833    0.0000 O   0  0  0  0  0  0  0  0  0  0  0  0
   -1.7083   -0.9000    0.0000 C   0  0  0  0  0  0  0  0  0  0  0  0
    1.1417    1.5958    0.0000 O   0  0  0  0  0  0  0  0  0  0  0  0
   -0.2750   -1.7167    0.0000 C   0  0  0  0  0  0  0  0  0  0  0  0
   -1.7083    0.7583    0.0000 C   0  0  0  0  0  0  0  0  0  0  0  0
    1.8625    0.3583    0.0000 O   0  0  0  0  0  0  0  0  0  0  0  0
   -1.7083   -1.7250    0.0000 F   0  0  0  0  0  0  0  0  0  0  0  0
   -2.4208    0.3375    0.0000 C   0  0  0  0  0  0  0  0  0  0  0  0
   -2.4208   -0.4875    0.0000 C   0  0  0  0  0  0  0  0  0  0  0  0
    0.4417   -2.1292    0.0000 C   0  0  0  0  0  0  0  0  0  0  0  0
  2  4  1  0  0  0  0
  3  1  1  0  0  0  0
  4  1  2  0  0  0  0
  5  3  1  0  0  0  0
  6  2  1  0  0  0  0
  7  1  1  0  0  0  0
  8  3  2  0  0  0  0
  9  6  2  0  0  0  0
 10  7  2  0  0  0  0
 11  2  1  0  0  0  0
 12  5  2  0  0  0  0
 13  7  1  0  0  0  0
 14  9  1  0  0  0  0
 15 12  1  0  0  0  0
 16  9  1  0  0  0  0
 17 11  1  0  0  0  0
  6  5  1  0  0  0  0
 16 15  2  0  0  0  0
M  END
>  <IDNUMBER>
F2156-0041

>  <Chemical_Name>
1-ethyl-8-fluoro-4-oxo-1,4-dihydroquinoline-3-carboxylic acid

>  <PriceCoeff>
1.50

>  <CAS>
1018135-10-8

>  <MW>
235.21

>  <Description>
solid

>  <FSP3>
0.17

>  <clogP>
1.87

>  <TPSA>
57.61

>  <Acceptor>
4

>  <Donor>
1

>  <RotBonds>
2

>  <HAC>
17

>  <Collection>
Advanced

$$$$
F2156-0063
  Mrv2219 10102508112D          

 17 18  0  0  0  0            999 V2000
    1.0750    0.2333    0.0000 C   0  0  0  0  0  0  0  0  0  0  0  0
   -0.3500    0.2250    0.0000 C   0  0  0  0  0  0  0  0  0  0  0  0
    0.3542    0.6458    0.0000 C   0  0  0  0  0  0  0  0  0  0  0  0
    1.0792   -0.5917    0.0000 C   0  0  0  0  0  0  0  0  0  0  0  0
    0.3667   -1.0125    0.0000 N   0  0  0  0  0  0  0  0  0  0  0  0
   -0.3500   -0.6000    0.0000 C   0  0  0  0  0  0  0  0  0  0  0  0
    1.7875    0.6500    0.0000 C   0  0  0  0  0  0  0  0  0  0  0  0
   -1.0708   -1.0167    0.0000 C   0  0  0  0  0  0  0  0  0  0  0  0
   -1.0708    0.6375    0.0000 C   0  0  0  0  0  0  0  0  0  0  0  0
    0.3542    1.4708    0.0000 O   0  0  0  0  0  0  0  0  0  0  0  0
    1.7792    1.4750    0.0000 O   0  0  0  0  0  0  0  0  0  0  0  0
   -1.7833    0.2250    0.0000 C   0  0  0  0  0  0  0  0  0  0  0  0
    2.5042    0.2458    0.0000 O   0  0  0  0  0  0  0  0  0  0  0  0
   -1.7833   -0.6042    0.0000 C   0  0  0  0  0  0  0  0  0  0  0  0
    0.3667   -1.8375    0.0000 C   0  0  0  0  0  0  0  0  0  0  0  0
   -2.4958    0.6333    0.0000 F   0  0  0  0  0  0  0  0  0  0  0  0
    1.0792   -2.2417    0.0000 C   0  0  0  0  0  0  0  0  0  0  0  0
  2  3  1  0  0  0  0
  3  1  1  0  0  0  0
  4  1  2  0  0  0  0
  5  4  1  0  0  0  0
  6  5  1  0  0  0  0
  7  1  1  0  0  0  0
  8  6  2  0  0  0  0
  9  2  2  0  0  0  0
 10  3  2  0  0  0  0
 11  7  2  0  0  0  0
 12  9  1  0  0  0  0
 13  7  1  0  0  0  0
 14  8  1  0  0  0  0
 15  5  1  0  0  0  0
 16 12  1  0  0  0  0
 17 15  1  0  0  0  0
  6  2  1  0  0  0  0
 14 12  2  0  0  0  0
M  END
>  <IDNUMBER>
F2156-0063

>  <Chemical_Name>
1-ethyl-6-fluoro-4-oxo-1,4-dihydroquinoline-3-carboxylic acid

>  <PriceCoeff>
1.00

>  <CAS>
3832-97-1

>  <MW>
235.21

>  <Description>
solid

>  <FSP3>
0.17

>  <clogP>
1.93

>  <TPSA>
57.61

>  <Acceptor>
4

>  <Donor>
1

>  <RotBonds>
2

>  <HAC>
17

>  <Collection>
General

$$$$
F2158-0411
  Mrv2219 10102508112D          

 11 11  0  0  0  0            999 V2000
    3.9381   -5.2716    0.0000 C   0  0  0  0  0  0  0  0  0  0  0  0
    4.6485   -4.8521    0.0000 C   0  0  0  0  0  0  0  0  0  0  0  0
    5.3589   -5.2716    0.0000 C   0  0  0  0  0  0  0  0  0  0  0  0
    3.9381   -6.0983    0.0000 C   0  0  0  0  0  0  0  0  0  0  0  0
    4.6485   -6.5096    0.0000 O   0  0  0  0  0  0  0  0  0  0  0  0
    5.3589   -6.0983    0.0000 C   0  0  0  0  0  0  0  0  0  0  0  0
    4.6485   -4.0296    0.0000 O   0  0  0  0  0  0  0  0  0  0  0  0
    3.2195   -4.8604    0.0000 O   0  0  0  0  0  0  0  0  0  0  0  0
    6.0734   -6.5096    0.0000 C   0  0  0  0  0  0  0  0  0  0  0  0
    6.7838   -6.0983    0.0000 O   0  0  0  0  0  0  0  0  0  0  0  0
    3.2153   -4.0296    0.0000 C   0  0  0  0  0  0  0  0  0  0  0  0
  2  1  1  0  0  0  0
  3  2  1  0  0  0  0
  4  1  2  0  0  0  0
  5  4  1  0  0  0  0
  6  5  1  0  0  0  0
  7  2  2  0  0  0  0
  8  1  1  0  0  0  0
  9  6  1  0  0  0  0
 10  9  1  0  0  0  0
 11  8  1  0  0  0  0
  3  6  2  0  0  0  0
M  END
>  <IDNUMBER>
F2158-0411

>  <Chemical_Name>
2-(hydroxymethyl)-5-methoxy-4H-pyran-4-one

>  <PriceCoeff>
1.50

>  <CAS>
6269-25-6

>  <MW>
156.14

>  <Description>
solid

>  <FSP3>
0.29

>  <clogP>
-0.39

>  <TPSA>
55.76

>  <Acceptor>
4

>  <Donor>
1

>  <RotBonds>
2

>  <HAC>
11

>  <Collection>
Advanced

>  <PPDS>
+

$$$$
F2158-0861
  Mrv2219 10102508112D          

 17 17  0  0  0  0            999 V2000
    1.8792   -0.9167    0.0000 C   0  0  0  0  0  0  0  0  0  0  0  0
    5.4542    0.3250    0.0000 C   0  0  0  0  0  0  0  0  0  0  0  0
    2.5917   -1.3292    0.0000 O   0  0  0  0  0  0  0  0  0  0  0  0
    1.1667   -1.3292    0.0000 N   0  0  0  0  0  0  0  0  0  0  0  0
    4.7417   -0.0917    0.0000 C   0  0  0  0  0  0  0  0  0  0  0  0
    1.8792   -0.0917    0.0000 O   0  0  0  0  0  0  0  0  0  0  0  0
    5.4500    1.1500    0.0000 O   0  0  0  0  0  0  0  0  0  0  0  0
    4.7417   -0.9167    0.0000 C   0  0  0  0  0  0  0  0  0  0  0  0
    4.0250    0.3208    0.0000 C   0  0  0  0  0  0  0  0  0  0  0  0
    3.3125   -0.9167    0.0000 C   0  0  0  0  0  0  0  0  0  0  0  0
    6.1667   -0.0792    0.0000 O   0  0  0  0  0  0  0  0  0  0  0  0
    3.3125   -0.0917    0.0000 C   0  0  0  0  0  0  0  0  0  0  0  0
    4.0250   -1.3292    0.0000 C   0  0  0  0  0  0  0  0  0  0  0  0
    0.4542   -0.9167    0.0000 C   0  0  0  0  0  0  0  0  0  0  0  0
    1.1667   -2.1542    0.0000 C   0  0  0  0  0  0  0  0  0  0  0  0
   -0.2625   -1.3292    0.0000 C   0  0  0  0  0  0  0  0  0  0  0  0
    0.4542   -2.5667    0.0000 C   0  0  0  0  0  0  0  0  0  0  0  0
  2  5  1  0  0  0  0
  3  1  1  0  0  0  0
  4  1  1  0  0  0  0
  5  8  1  0  0  0  0
  6  1  2  0  0  0  0
  7  2  2  0  0  0  0
  8 13  2  0  0  0  0
  9 12  1  0  0  0  0
 10  3  1  0  0  0  0
 11  2  1  0  0  0  0
 12 10  2  0  0  0  0
 13 10  1  0  0  0  0
 14  4  1  0  0  0  0
 15  4  1  0  0  0  0
 16 14  1  0  0  0  0
 17 15  1  0  0  0  0
  9  5  2  0  0  0  0
M  END
>  <IDNUMBER>
F2158-0861

>  <Chemical_Name>
4-[(diethylcarbamoyl)oxy]benzoic acid

>  <PriceCoeff>
1.00

>  <CAS>
1204297-93-7

>  <MW>
237.25

>  <Description>
solid

>  <FSP3>
0.33

>  <clogP>
2.07

>  <TPSA>
66.84

>  <Acceptor>
4

>  <Donor>
0

>  <RotBonds>
5

>  <HAC>
17

>  <Collection>
General

>  <PPDS>
+

$$$$
F2158-0864
  Mrv2219 10102508112D          

 16 17  0  0  0  0            999 V2000
    5.6993    0.1336    0.0000 N   0  0  0  0  0  0  0  0  0  0  0  0
    4.9394   -0.2046    0.0000 C   0  0  0  0  0  0  0  0  0  0  0  0
    5.0271   -1.0313    0.0000 N   0  0  0  0  0  0  0  0  0  0  0  0
    6.2546   -0.4802    0.0000 C   0  0  0  0  0  0  0  0  0  0  0  0
    5.8413   -1.2025    0.0000 O   0  0  0  0  0  0  0  0  0  0  0  0
    7.0688   -0.3925    0.0000 C   0  0  0  0  0  0  0  0  0  0  0  0
    4.2254    0.2004    0.0000 C   0  0  0  0  0  0  0  0  0  0  0  0
    7.5573   -1.0647    0.0000 C   0  0  0  0  0  0  0  0  0  0  0  0
    8.3840   -0.9770    0.0000 O   0  0  0  0  0  0  0  0  0  0  0  0
    3.5115   -0.2129    0.0000 C   0  0  0  0  0  0  0  0  0  0  0  0
    4.2254    1.0354    0.0000 C   0  0  0  0  0  0  0  0  0  0  0  0
    2.7975    1.0271    0.0000 C   0  0  0  0  0  0  0  0  0  0  0  0
    2.7975    0.2004    0.0000 C   0  0  0  0  0  0  0  0  0  0  0  0
    3.5115    1.4488    0.0000 C   0  0  0  0  0  0  0  0  0  0  0  0
    2.0835    1.4405    0.0000 Cl  0  0  0  0  0  0  0  0  0  0  0  0
    7.2274   -1.8205    0.0000 C   0  0  0  0  0  0  0  0  0  0  0  0
  2  1  1  0  0  0  0
  3  2  2  0  0  0  0
  4  1  2  0  0  0  0
  5  4  1  0  0  0  0
  6  4  1  0  0  0  0
  7  2  1  0  0  0  0
  8  6  1  0  0  0  0
  9  8  2  0  0  0  0
 10  7  2  0  0  0  0
 11  7  1  0  0  0  0
 12 14  1  0  0  0  0
 13 10  1  0  0  0  0
 14 11  2  0  0  0  0
 15 12  1  0  0  0  0
 16  8  1  0  0  0  0
  3  5  1  0  0  0  0
 13 12  2  0  0  0  0
M  END
>  <IDNUMBER>
F2158-0864

>  <Chemical_Name>
1-[3-(4-chlorophenyl)-1,2,4-oxadiazol-5-yl]propan-2-one

>  <PriceCoeff>
1.00

>  <CAS>
286841-24-5

>  <MW>
236.66

>  <Description>
solid

>  <FSP3>
0.18

>  <clogP>
3.18

>  <TPSA>
55.99

>  <Acceptor>
4

>  <Donor>
0

>  <RotBonds>
3

>  <HAC>
16

>  <Collection>
General

>  <PPDS>
+

$$$$
F2158-0913
  Mrv2219 10102508112D          

 12 13  0  0  0  0            999 V2000
    0.9667    2.0000    0.0000 N   0  0  0  0  0  0  0  0  0  0  0  0
   -0.4583    1.9958    0.0000 C   0  0  0  0  0  0  0  0  0  0  0  0
    0.2542    2.4083    0.0000 C   0  0  0  0  0  0  0  0  0  0  0  0
   -1.1750    0.7583    0.0000 N   0  0  0  0  0  0  0  0  0  0  0  0
   -0.4583    1.1708    0.0000 C   0  0  0  0  0  0  0  0  0  0  0  0
    1.6792    2.4083    0.0000 C   0  0  0  0  0  0  0  0  0  0  0  0
   -1.1750    2.4083    0.0000 C   0  0  0  0  0  0  0  0  0  0  0  0
   -1.8875    1.1708    0.0000 C   0  0  0  0  0  0  0  0  0  0  0  0
    0.2500    3.2333    0.0000 C   0  0  0  0  0  0  0  0  0  0  0  0
   -1.8875    1.9958    0.0000 C   0  0  0  0  0  0  0  0  0  0  0  0
    1.6792    3.2333    0.0000 C   0  0  0  0  0  0  0  0  0  0  0  0
    0.9667    3.6458    0.0000 C   0  0  0  0  0  0  0  0  0  0  0  0
  2  3  1  0  0  0  0
  3  1  1  0  0  0  0
  4  5  2  0  0  0  0
  5  2  1  0  0  0  0
  6  1  1  0  0  0  0
  7  2  2  0  0  0  0
  8 10  2  0  0  0  0
  9  3  1  0  0  0  0
 10  7  1  0  0  0  0
 11  6  1  0  0  0  0
 12 11  1  0  0  0  0
  9 12  1  0  0  0  0
  4  8  1  0  0  0  0
M  END
>  <IDNUMBER>
F2158-0913

>  <Chemical_Name>
3-(piperidin-2-yl)pyridine

>  <PriceCoeff>
1.50

>  <CAS>
13078-04-1

>  <MW>
162.24

>  <Description>
liquid

>  <FSP3>
0.50

>  <clogP>
1.90

>  <TPSA>
24.92

>  <Acceptor>
1

>  <Donor>
2

>  <RotBonds>
1

>  <HAC>
12

>  <Collection>
Advanced

$$$$
F2158-1561
  Mrv2219 10102508112D          

 11 11  0  0  0  0            999 V2000
    5.7684   -2.0381    0.0000 N   0  0  0  0  0  0  0  0  0  0  0  0
    4.9641   -1.8548    0.0000 C   0  0  0  0  0  0  0  0  0  0  0  0
    6.2811   -1.3921    0.0000 C   0  0  0  0  0  0  0  0  0  0  0  0
    4.7181   -1.0628    0.0000 O   0  0  0  0  0  0  0  0  0  0  0  0
    7.6190   -2.0506    0.0000 C   0  0  0  0  0  0  0  0  0  0  0  0
    7.1064   -1.3921    0.0000 C   0  0  0  0  0  0  0  0  0  0  0  0
    8.4276   -1.8673    0.0000 O   0  0  0  0  0  0  0  0  0  0  0  0
    5.9436   -2.8426    0.0000 C   0  0  0  0  0  0  0  0  0  0  0  0
    4.4013   -2.4549    0.0000 C   0  0  0  0  0  0  0  0  0  0  0  0
    6.6812   -3.1927    0.0000 C   0  0  0  0  0  0  0  0  0  0  0  0
    7.4315   -2.8551    0.0000 C   0  0  0  0  0  0  0  0  0  0  0  0
  2  1  1  0  0  0  0
  3  1  1  0  0  0  0
  4  2  2  0  0  0  0
  5  6  1  0  0  0  0
  6  3  1  0  0  0  0
  7  5  2  0  0  0  0
  8  1  1  0  0  0  0
  9  2  1  0  0  0  0
 10  8  1  0  0  0  0
 11 10  1  0  0  0  0
  5 11  1  0  0  0  0
M  END
>  <IDNUMBER>
F2158-1561

>  <Chemical_Name>
1-acetylazepan-4-one

>  <PriceCoeff>
1.50

>  <CAS>
50492-23-4

>  <MW>
155.20

>  <Description>
oil

>  <FSP3>
0.75

>  <clogP>
-0.31

>  <TPSA>
37.38

>  <Acceptor>
2

>  <Donor>
0

>  <RotBonds>
0

>  <HAC>
11

>  <Collection>
Advanced

>  <PPDS>
+

$$$$
F2158-2187
  Mrv2219 10102508112D          

 13 13  0  0  0  0            999 V2000
    1.3375   -0.8125    0.0000 C   0  0  0  0  0  0  0  0  0  0  0  0
    2.0458   -0.3917    0.0000 C   0  0  0  0  0  0  0  0  0  0  0  0
    2.7583   -0.8125    0.0000 C   0  0  0  0  0  0  0  0  0  0  0  0
    1.3375   -1.6375    0.0000 C   0  0  0  0  0  0  0  0  0  0  0  0
    2.7583   -1.6375    0.0000 C   0  0  0  0  0  0  0  0  0  0  0  0
    2.0458   -2.0417    0.0000 O   0  0  0  0  0  0  0  0  0  0  0  0
    4.1875   -3.2875    0.0000 C   0  0  0  0  0  0  0  0  0  0  0  0
    2.0458    0.4333    0.0000 O   0  0  0  0  0  0  0  0  0  0  0  0
    4.9000   -2.8750    0.0000 O   0  0  0  0  0  0  0  0  0  0  0  0
    3.4708   -2.8750    0.0000 O   0  0  0  0  0  0  0  0  0  0  0  0
    0.6208   -0.4000    0.0000 O   0  0  0  0  0  0  0  0  0  0  0  0
    3.4750   -2.0500    0.0000 C   0  0  0  0  0  0  0  0  0  0  0  0
    4.1833   -4.1125    0.0000 C   0  0  0  0  0  0  0  0  0  0  0  0
  2  1  1  0  0  0  0
  3  2  1  0  0  0  0
  4  1  2  0  0  0  0
  5  3  2  0  0  0  0
  6  4  1  0  0  0  0
  7 10  1  0  0  0  0
  8  2  2  0  0  0  0
  9  7  2  0  0  0  0
 10 12  1  0  0  0  0
 11  1  1  0  0  0  0
 12  5  1  0  0  0  0
 13  7  1  0  0  0  0
  5  6  1  0  0  0  0
M  END
>  <IDNUMBER>
F2158-2187

>  <Chemical_Name>
(5-hydroxy-4-oxo-4H-pyran-2-yl)methyl acetate

>  <PriceCoeff>
1.00

>  <CAS>
25552-08-3

>  <MW>
184.15

>  <Description>
solid

>  <FSP3>
0.25

>  <clogP>
-0.06

>  <TPSA>
72.83

>  <Acceptor>
5

>  <Donor>
1

>  <RotBonds>
3

>  <HAC>
13

>  <Collection>
General

>  <PPDS>
+

$$$$
F2163-0132
  Mrv2219 10102508112D          

 13 13  0  0  0  0            999 V2000
    6.6578   -4.1497    0.0000 C   0  0  0  0  0  0  0  0  0  0  0  0
    5.2276   -1.6665    0.0000 C   0  0  0  0  0  0  0  0  0  0  0  0
    5.9406   -2.9102    0.0000 C   0  0  0  0  0  0  0  0  0  0  0  0
    5.9406   -3.7352    0.0000 C   0  0  2  0  0  0  0  0  0  0  0  0
    5.2276   -2.4915    0.0000 C   0  0  1  0  0  0  0  0  0  0  0  0
    6.6536   -4.9747    0.0000 O   0  0  0  0  0  0  0  0  0  0  0  0
    5.9447   -1.2561    0.0000 O   0  0  0  0  0  0  0  0  0  0  0  0
    7.3708   -3.7352    0.0000 O   0  0  0  0  0  0  0  0  0  0  0  0
    4.5145   -1.2561    0.0000 O   0  0  0  0  0  0  0  0  0  0  0  0
    5.2276   -4.1414    0.0000 C   0  0  0  0  0  0  0  0  0  0  0  0
    4.5187   -2.9102    0.0000 C   0  0  0  0  0  0  0  0  0  0  0  0
    4.5187   -3.7352    0.0000 C   0  0  0  0  0  0  0  0  0  0  0  0
    4.5145   -0.4270    0.0000 C   0  0  0  0  0  0  0  0  0  0  0  0
  5  2  1  1  0  0  0
  3  4  1  0  0  0  0
  4  1  1  1  0  0  0
  5  3  1  0  0  0  0
  6  1  2  0  0  0  0
  7  2  2  0  0  0  0
  8  1  1  0  0  0  0
  9  2  1  0  0  0  0
 10  4  1  0  0  0  0
 11  5  1  0  0  0  0
 12 10  1  0  0  0  0
 13  9  1  0  0  0  0
 12 11  1  0  0  0  0
M  END
>  <IDNUMBER>
F2163-0132

>  <Chemical_Name>
(1S,3R)-3-(methoxycarbonyl)cyclohexane-1-carboxylic acid

>  <PriceCoeff>
1.50

>  <CAS>
733742-58-0

>  <MW>
186.21

>  <Description>
solid

>  <FSP3>
0.78

>  <clogP>
1.26

>  <TPSA>
63.60

>  <Acceptor>
4

>  <Donor>
0

>  <RotBonds>
3

>  <HAC>
13

>  <Collection>
Advanced

>  <PPDS>
+

$$$$
F2163-0215
  Mrv2219 10102508112D          

 11 12  0  0  0  0            999 V2000
    1.0898   -1.8706    0.0000 C   0  0  0  0  0  0  0  0  0  0  0  0
    1.0898   -1.0439    0.0000 C   0  0  0  0  0  0  0  0  0  0  0  0
    1.7954   -0.6305    0.0000 N   0  0  0  0  0  0  0  0  0  0  0  0
    1.8037   -2.2839    0.0000 C   0  0  0  0  0  0  0  0  0  0  0  0
    1.7954   -3.1106    0.0000 N   0  0  0  0  0  0  0  0  0  0  0  0
    2.5094   -1.0439    0.0000 C   0  0  0  0  0  0  0  0  0  0  0  0
    2.5135   -1.8706    0.0000 C   0  0  0  0  0  0  0  0  0  0  0  0
    0.3758   -2.2839    0.0000 C   0  0  0  0  0  0  0  0  0  0  0  0
    0.3758   -0.6305    0.0000 C   0  0  0  0  0  0  0  0  0  0  0  0
   -0.3340   -1.8706    0.0000 C   0  0  0  0  0  0  0  0  0  0  0  0
   -0.3340   -1.0439    0.0000 C   0  0  0  0  0  0  0  0  0  0  0  0
  2  1  2  0  0  0  0
  3  2  1  0  0  0  0
  4  1  1  0  0  0  0
  5  4  1  0  0  0  0
  6  7  1  0  0  0  0
  7  4  2  0  0  0  0
  8  1  1  0  0  0  0
  9  2  1  0  0  0  0
 10  8  1  0  0  0  0
 11 10  1  0  0  0  0
 11  9  1  0  0  0  0
  6  3  2  0  0  0  0
M  END
>  <IDNUMBER>
F2163-0215

>  <Chemical_Name>
5,6,7,8-tetrahydroquinolin-4-amine

>  <PriceCoeff>
1.00

>  <CAS>
14807-39-7

>  <MW>
148.21

>  <Description>
solid

>  <FSP3>
0.44

>  <clogP>
1.25

>  <TPSA>
38.91

>  <Acceptor>
1

>  <Donor>
2

>  <RotBonds>
0

>  <HAC>
11

>  <Collection>
General

>  <PPDS>
+

$$$$
F2167-1144
  Mrv2219 10102508112D          

 16 17  0  0  0  0            999 V2000
    2.3315   -0.4330    0.0000 C   0  0  0  0  0  0  0  0  0  0  0  0
    2.7520   -1.1449    0.0000 N   0  0  0  0  0  0  0  0  0  0  0  0
    3.3141   -1.5904    0.0000 C   0  0  0  0  0  0  0  0  0  0  0  0
    2.8894   -1.9652    0.0000 C   0  0  0  0  0  0  0  0  0  0  0  0
    1.5071   -0.4454    0.0000 O   0  0  0  0  0  0  0  0  0  0  0  0
    3.8761   -1.9652    0.0000 C   0  0  0  0  0  0  0  0  0  0  0  0
    4.2549   -1.5696    0.0000 C   0  0  0  0  0  0  0  0  0  0  0  0
    2.7353    0.2831    0.0000 O   0  0  0  0  0  0  0  0  0  0  0  0
    4.4007   -2.3981    0.0000 C   0  0  0  0  0  0  0  0  0  0  0  0
    2.9893   -2.3065    0.0000 C   0  0  0  0  0  0  0  0  0  0  0  0
    2.3606   -2.6854    0.0000 C   0  0  0  0  0  0  0  0  0  0  0  0
    1.0866    0.2665    0.0000 C   0  0  0  0  0  0  0  0  0  0  0  0
    4.8129   -3.1142    0.0000 O   0  0  0  0  0  0  0  0  0  0  0  0
    0.2623    0.2581    0.0000 C   0  0  0  0  0  0  0  0  0  0  0  0
    1.4905    0.9825    0.0000 C   0  0  0  0  0  0  0  0  0  0  0  0
    0.8826   -0.5329    0.0000 C   0  0  0  0  0  0  0  0  0  0  0  0
  2  1  1  0  0  0  0
  3  2  1  0  0  0  0
  4  2  1  0  0  0  0
  5  1  1  0  0  0  0
  6  4  1  0  0  0  0
  7  3  1  0  0  0  0
  8  1  2  0  0  0  0
  9  7  1  0  0  0  0
 10  3  1  0  0  0  0
 11  4  1  0  0  0  0
 12  5  1  0  0  0  0
 13  9  1  0  0  0  0
 14 12  1  0  0  0  0
 15 12  1  0  0  0  0
 16 12  1  0  0  0  0
 10 11  1  0  0  0  0
  6  9  1  0  0  0  0
M  END
>  <IDNUMBER>
F2167-1144

>  <Chemical_Name>
tert-butyl 3-hydroxy-8-azabicyclo[3.2.1]octane-8-carboxylate

>  <PriceCoeff>
1.50

>  <CAS>
478837-18-2

>  <MW>
227.30

>  <Description>
solid

>  <FSP3>
0.92

>  <clogP>
1.91

>  <TPSA>
49.77

>  <Acceptor>
3

>  <Donor>
1

>  <RotBonds>
2

>  <HAC>
16

>  <Collection>
Advanced

>  <PPDS>
+

$$$$
F2167-4302
  Mrv2219 10102508112D          

 13 13  0  0  0  0            999 V2000
    5.5869   -1.4092    0.0000 C   0  0  0  0  0  0  0  0  0  0  0  0
    6.3019   -1.8249    0.0000 C   0  0  0  0  0  0  0  0  0  0  0  0
    5.5869   -0.5778    0.0000 C   0  0  0  0  0  0  0  0  0  0  0  0
    4.8678   -1.8249    0.0000 C   0  0  0  0  0  0  0  0  0  0  0  0
    7.0128   -1.4092    0.0000 C   0  0  0  0  0  0  0  0  0  0  0  0
    7.7361    0.6568    0.0000 O   0  0  0  0  0  0  0  0  0  0  0  0
    7.0128   -0.5778    0.0000 C   0  0  0  0  0  0  0  0  0  0  0  0
    7.7361   -0.1663    0.0000 C   0  0  0  0  0  0  0  0  0  0  0  0
    6.3019   -2.6480    0.0000 O   0  0  0  0  0  0  0  0  0  0  0  0
    6.3019   -0.1663    0.0000 C   0  0  0  0  0  0  0  0  0  0  0  0
    4.8678   -2.6480    0.0000 C   0  0  0  0  0  0  0  0  0  0  0  0
    4.1570   -2.2365    0.0000 C   0  0  0  0  0  0  0  0  0  0  0  0
    4.1570   -1.4092    0.0000 C   0  0  0  0  0  0  0  0  0  0  0  0
  2  1  1  0  0  0  0
  3  1  2  0  0  0  0
  4  1  1  0  0  0  0
  5  2  2  0  0  0  0
  6  8  2  0  0  0  0
  7 10  2  0  0  0  0
  8  7  1  0  0  0  0
  9  2  1  0  0  0  0
 10  3  1  0  0  0  0
 11  4  1  0  0  0  0
 12  4  1  0  0  0  0
 13  4  1  0  0  0  0
  5  7  1  0  0  0  0
M  END
>  <IDNUMBER>
F2167-4302

>  <Chemical_Name>
4-tert-butyl-3-hydroxybenzaldehyde

>  <PriceCoeff>
1.00

>  <CAS>
532966-59-9

>  <MW>
178.23

>  <Description>
solid

>  <FSP3>
0.36

>  <clogP>
2.93

>  <TPSA>
37.30

>  <Acceptor>
2

>  <Donor>
1

>  <RotBonds>
2

>  <HAC>
13

>  <Collection>
General

$$$$
F2167-7968
  Mrv2219 10102508112D          

 10 10  0  0  0  0            999 V2000
    8.7126   -5.0647    0.0000 C   0  0  0  0  0  0  0  0  0  0  0  0
    8.5671   -4.2545    0.0000 C   0  0  0  0  0  0  0  0  0  0  0  0
    9.1363   -3.6562    0.0000 O   0  0  0  0  0  0  0  0  0  0  0  0
    7.9814   -5.4469    0.0000 C   0  0  0  0  0  0  0  0  0  0  0  0
    7.7570   -4.1382    0.0000 C   0  0  0  0  0  0  0  0  0  0  0  0
    9.5020   -4.8112    0.0000 C   0  0  0  0  0  0  0  0  0  0  0  0
    8.9660   -5.8499    0.0000 C   0  0  0  0  0  0  0  0  0  0  0  0
    7.3955   -4.8652    0.0000 C   0  0  0  0  0  0  0  0  0  0  0  0
    9.7720   -6.0327    0.0000 C   0  0  0  0  0  0  0  0  0  0  0  0
    9.6764   -4.0052    0.0000 C   0  0  0  0  0  0  0  0  0  0  0  0
  2  1  1  0  0  0  0
  3  2  2  0  0  0  0
  4  1  1  0  0  0  0
  5  2  1  0  0  0  0
  6  1  1  0  0  0  0
  7  1  1  0  0  0  0
  8  4  1  0  0  0  0
  9  7  1  0  0  0  0
 10  6  1  0  0  0  0
  5  8  1  0  0  0  0
M  END
>  <IDNUMBER>
F2167-7968

>  <Chemical_Name>
2,2-diethylcyclopentan-1-one

>  <PriceCoeff>
1.00

>  <CAS>
103263-31-6

>  <MW>
140.22

>  <Description>
liquid

>  <FSP3>
0.89

>  <clogP>
3.03

>  <TPSA>
17.07

>  <Acceptor>
1

>  <Donor>
0

>  <RotBonds>
2

>  <HAC>
10

>  <Collection>
General

$$$$
F2167-9481
  Mrv2219 10102508112D          

 19 21  0  0  0  0            999 V2000
    2.8167    0.3583    0.0000 C   0  0  0  0  0  0  0  0  0  0  0  0
    3.5375   -0.8792    0.0000 C   0  0  0  0  0  0  0  0  0  0  0  0
    3.5292   -0.0542    0.0000 C   0  0  0  0  0  0  0  0  0  0  0  0
    2.1042   -0.8875    0.0000 C   0  0  0  0  0  0  0  0  0  0  0  0
    2.1042   -0.0625    0.0000 C   0  0  0  0  0  0  0  0  0  0  0  0
    2.8250   -1.3000    0.0000 C   0  0  0  0  0  0  0  0  0  0  0  0
    4.2542   -1.2917    0.0000 C   0  0  0  0  0  0  0  0  0  0  0  0
    4.2375    0.3625    0.0000 C   0  0  0  0  0  0  0  0  0  0  0  0
    2.8042    1.1708    0.0000 C   0  0  0  0  0  0  0  0  0  0  0  0
    1.3917   -1.3042    0.0000 C   0  0  0  0  0  0  0  0  0  0  0  0
    4.9667   -0.8750    0.0000 O   0  0  0  0  0  0  0  0  0  0  0  0
    4.2542   -2.1167    0.0000 O   0  0  0  0  0  0  0  0  0  0  0  0
    4.2292    1.1833    0.0000 C   0  0  0  0  0  0  0  0  0  0  0  0
    3.5125    1.5833    0.0000 C   0  0  0  0  0  0  0  0  0  0  0  0
    1.3917    0.3500    0.0000 C   0  0  0  0  0  0  0  0  0  0  0  0
    0.6792   -0.0625    0.0000 C   0  0  0  0  0  0  0  0  0  0  0  0
    0.6792   -0.8917    0.0000 C   0  0  0  0  0  0  0  0  0  0  0  0
    1.3917   -2.1292    0.0000 C   0  0  0  0  0  0  0  0  0  0  0  0
    3.5042    2.4083    0.0000 C   0  0  0  0  0  0  0  0  0  0  0  0
  2  3  1  0  0  0  0
  3  1  1  0  0  0  0
  4  5  1  0  0  0  0
  5  1  1  0  0  0  0
  6  4  1  0  0  0  0
  7  2  1  0  0  0  0
  8  3  2  0  0  0  0
  9  1  2  0  0  0  0
 10  4  2  0  0  0  0
 11  7  2  0  0  0  0
 12  7  1  0  0  0  0
 13 14  2  0  0  0  0
 14  9  1  0  0  0  0
 15  5  2  0  0  0  0
 16 15  1  0  0  0  0
 17 16  2  0  0  0  0
 18 10  1  0  0  0  0
 19 14  1  0  0  0  0
 13  8  1  0  0  0  0
  2  6  2  0  0  0  0
 17 10  1  0  0  0  0
M  END
>  <IDNUMBER>
F2167-9481

>  <Chemical_Name>
1,6-dimethylphenanthrene-9-carboxylic acid

>  <PriceCoeff>
1.00

>  <CAS>
2319878-31-2

>  <MW>
250.30

>  <Description>
solid

>  <FSP3>
0.12

>  <clogP>
4.64

>  <TPSA>
37.30

>  <Acceptor>
2

>  <Donor>
0

>  <RotBonds>
1

>  <HAC>
19

>  <Collection>
General

>  <PPDS>
+

$$$$
F2167-9582
  Mrv2219 10102508112D          

 25 27  0  0  0  0            999 V2000
    4.6417   -0.9250    0.0000 C   0  0  0  0  0  0  0  0  0  0  0  0
    3.9292   -1.3417    0.0000 C   0  0  0  0  0  0  0  0  0  0  0  0
    3.2125   -2.5792    0.0000 C   0  0  0  0  0  0  0  0  0  0  0  0
    3.9292   -2.1667    0.0000 C   0  0  0  0  0  0  0  0  0  0  0  0
    2.5000   -2.1667    0.0000 C   0  0  0  0  0  0  0  0  0  0  0  0
    3.2125   -3.4042    0.0000 O   0  0  0  0  0  0  0  0  0  0  0  0
    1.7792   -2.5792    0.0000 O   0  0  0  0  0  0  0  0  0  0  0  0
    4.6375   -0.0958    0.0000 O   0  0  0  0  0  0  0  0  0  0  0  0
    3.2125   -0.9292    0.0000 C   0  0  0  0  0  0  0  0  0  0  0  0
    2.5000   -1.3417    0.0000 C   0  0  0  0  0  0  0  0  0  0  0  0
    5.3542   -1.3292    0.0000 O   0  0  0  0  0  0  0  0  0  0  0  0
    2.5000   -3.8167    0.0000 C   0  0  0  0  0  0  0  0  0  0  0  0
    1.0667   -2.1667    0.0000 C   0  0  0  0  0  0  0  0  0  0  0  0
    0.3542   -2.5792    0.0000 C   0  0  0  0  0  0  0  0  0  0  0  0
    2.5000   -4.6417    0.0000 C   0  0  0  0  0  0  0  0  0  0  0  0
   -0.3583   -2.1667    0.0000 C   0  0  0  0  0  0  0  0  0  0  0  0
    0.3542   -3.4042    0.0000 C   0  0  0  0  0  0  0  0  0  0  0  0
    1.7792   -5.0542    0.0000 C   0  0  0  0  0  0  0  0  0  0  0  0
    3.2125   -5.0542    0.0000 C   0  0  0  0  0  0  0  0  0  0  0  0
   -0.3583   -3.8167    0.0000 C   0  0  0  0  0  0  0  0  0  0  0  0
    1.7792   -5.8792    0.0000 C   0  0  0  0  0  0  0  0  0  0  0  0
    3.2167   -5.8750    0.0000 C   0  0  0  0  0  0  0  0  0  0  0  0
   -1.0708   -2.5792    0.0000 C   0  0  0  0  0  0  0  0  0  0  0  0
   -1.0750   -3.4042    0.0000 C   0  0  0  0  0  0  0  0  0  0  0  0
    2.5000   -6.2917    0.0000 C   0  0  0  0  0  0  0  0  0  0  0  0
  2  1  1  0  0  0  0
  3  4  2  0  0  0  0
  4  2  1  0  0  0  0
  5 10  2  0  0  0  0
  6  3  1  0  0  0  0
  7  5  1  0  0  0  0
  8  1  2  0  0  0  0
  9  2  2  0  0  0  0
 10  9  1  0  0  0  0
 11  1  1  0  0  0  0
 12  6  1  0  0  0  0
 13  7  1  0  0  0  0
 14 13  1  0  0  0  0
 15 12  1  0  0  0  0
 16 14  2  0  0  0  0
 17 14  1  0  0  0  0
 18 15  2  0  0  0  0
 19 15  1  0  0  0  0
 20 17  2  0  0  0  0
 21 18  1  0  0  0  0
 22 19  2  0  0  0  0
 23 16  1  0  0  0  0
 24 20  1  0  0  0  0
 25 22  1  0  0  0  0
  5  3  1  0  0  0  0
 21 25  2  0  0  0  0
 23 24  2  0  0  0  0
M  END
>  <IDNUMBER>
F2167-9582

>  <Chemical_Name>
3,4-bis(benzyloxy)benzoic acid

>  <PriceCoeff>
1.00

>  <CAS>
1570-05-4

>  <MW>
334.37

>  <Description>
solid

>  <FSP3>
0.10

>  <clogP>
4.76

>  <TPSA>
55.76

>  <Acceptor>
4

>  <Donor>
0

>  <RotBonds>
7

>  <HAC>
25

>  <Collection>
General

>  <PPDS>
+

$$$$
F2167-9988
  Mrv2219 10102508112D          

 16 18  0  0  0  0            999 V2000
   -1.9359   -5.8369    0.0000 C   0  0  0  0  0  0  0  0  0  0  0  0
   -2.4210   -6.5085    0.0000 N   0  0  0  0  0  0  0  0  0  0  0  0
   -2.4251   -5.1736    0.0000 C   0  0  0  0  0  0  0  0  0  0  0  0
   -1.1193   -5.7457    0.0000 C   0  0  0  0  0  0  0  0  0  0  0  0
   -3.2086   -5.4348    0.0000 C   0  0  0  0  0  0  0  0  0  0  0  0
   -3.2045   -6.2598    0.0000 C   0  0  0  0  0  0  0  0  0  0  0  0
   -0.6301   -6.4090    0.0000 C   0  0  0  0  0  0  0  0  0  0  0  0
   -0.7835   -4.9913    0.0000 N   0  0  0  0  0  0  0  0  0  0  0  0
    0.1865   -6.3178    0.0000 O   0  0  0  0  0  0  0  0  0  0  0  0
   -2.0976   -4.4150    0.0000 C   0  0  0  0  0  0  0  0  0  0  0  0
   -0.9659   -7.1552    0.0000 O   0  0  0  0  0  0  0  0  0  0  0  0
   -1.2768   -4.3197    0.0000 C   0  0  0  0  0  0  0  0  0  0  0  0
   -3.9258   -5.0244    0.0000 C   0  0  0  0  0  0  0  0  0  0  0  0
   -3.9258   -6.6702    0.0000 C   0  0  0  0  0  0  0  0  0  0  0  0
   -4.6347   -5.4348    0.0000 C   0  0  0  0  0  0  0  0  0  0  0  0
   -4.6347   -6.2598    0.0000 C   0  0  0  0  0  0  0  0  0  0  0  0
  2  1  1  0  0  0  0
  3  1  2  0  0  0  0
  4  1  1  0  0  0  0
  5  3  1  0  0  0  0
  6  2  1  0  0  0  0
  7  4  1  0  0  0  0
  8  4  1  0  0  0  0
  9  7  2  0  0  0  0
 10  3  1  0  0  0  0
 11  7  1  0  0  0  0
 12  8  1  0  0  0  0
 13  5  2  0  0  0  0
 14  6  2  0  0  0  0
 15 13  1  0  0  0  0
 16 14  1  0  0  0  0
  5  6  1  0  0  0  0
 12 10  1  0  0  0  0
 15 16  2  0  0  0  0
M  END
>  <IDNUMBER>
F2167-9988

>  <Chemical_Name>
1H,2H,3H,4H,9H-pyrido[3,4-b]indole-1-carboxylic acid

>  <PriceCoeff>
1.00

>  <CAS>
6649-91-8

>  <MW>
216.24

>  <Description>
solid

>  <FSP3>
0.25

>  <clogP>
-1.19

>  <TPSA>
65.12

>  <Acceptor>
2

>  <Donor>
2

>  <RotBonds>
1

>  <HAC>
16

>  <Collection>
General

>  <PPDS>
+

$$$$
F2167-9989
  Mrv2219 10102508112D          

 17 19  0  0  0  0            999 V2000
    5.8621   -5.5595    0.0000 C   0  0  0  0  0  0  0  0  0  0  0  0
    5.3770   -4.8920    0.0000 C   0  0  0  0  0  0  0  0  0  0  0  0
    5.3853   -6.2352    0.0000 N   0  0  0  0  0  0  0  0  0  0  0  0
    6.6829   -5.4641    0.0000 C   0  0  0  0  0  0  0  0  0  0  0  0
    7.0188   -4.7137    0.0000 N   0  0  0  0  0  0  0  0  0  0  0  0
    4.5935   -5.1532    0.0000 C   0  0  0  0  0  0  0  0  0  0  0  0
    4.5935   -5.9823    0.0000 C   0  0  0  0  0  0  0  0  0  0  0  0
    7.1680   -6.1315    0.0000 C   0  0  0  0  0  0  0  0  0  0  0  0
    5.7004   -4.1333    0.0000 C   0  0  0  0  0  0  0  0  0  0  0  0
    6.5212   -4.0462    0.0000 C   0  0  0  0  0  0  0  0  0  0  0  0
    7.9888   -6.0362    0.0000 O   0  0  0  0  0  0  0  0  0  0  0  0
    6.8405   -6.8820    0.0000 O   0  0  0  0  0  0  0  0  0  0  0  0
    7.8271   -4.6184    0.0000 C   0  0  0  0  0  0  0  0  0  0  0  0
    3.8804   -4.7428    0.0000 C   0  0  0  0  0  0  0  0  0  0  0  0
    3.8804   -6.3927    0.0000 C   0  0  0  0  0  0  0  0  0  0  0  0
    3.1715   -5.1614    0.0000 C   0  0  0  0  0  0  0  0  0  0  0  0
    3.1715   -5.9823    0.0000 C   0  0  0  0  0  0  0  0  0  0  0  0
  2  1  2  0  0  0  0
  3  1  1  0  0  0  0
  4  1  1  0  0  0  0
  5  4  1  0  0  0  0
  6  2  1  0  0  0  0
  7  3  1  0  0  0  0
  8  4  1  0  0  0  0
  9  2  1  0  0  0  0
 10  5  1  0  0  0  0
 11  8  2  0  0  0  0
 12  8  1  0  0  0  0
 13  5  1  0  0  0  0
 14  6  2  0  0  0  0
 15  7  2  0  0  0  0
 16 14  1  0  0  0  0
 17 15  1  0  0  0  0
  6  7  1  0  0  0  0
 10  9  1  0  0  0  0
 16 17  2  0  0  0  0
M  END
>  <IDNUMBER>
F2167-9989

>  <Chemical_Name>
2-methyl-1H,2H,3H,4H,9H-pyrido[3,4-b]indole-1-carboxylic acid

>  <PriceCoeff>
1.00

>  <CAS>
87091-41-6

>  <MW>
230.27

>  <Description>
solid

>  <FSP3>
0.31

>  <clogP>
0.41

>  <TPSA>
56.33

>  <Acceptor>
2

>  <Donor>
2

>  <RotBonds>
1

>  <HAC>
17

>  <Collection>
General

>  <PPDS>
+

$$$$
F2167-9997
  Mrv2219 10102508112D          

 21 20  0  0  0  0            999 V2000
   -3.1490    2.9486    0.0000 O   0  0  0  0  0  0  0  0  0  0  0  0
   -3.8664    2.5213    0.0000 C   0  0  0  0  0  0  0  0  0  0  0  0
   -2.4369    2.5372    0.0000 C   0  0  0  0  0  0  0  0  0  0  0  0
   -5.3064    1.7037    0.0000 C   0  0  0  0  0  0  0  0  0  0  0  0
   -0.9969    1.7143    0.0000 C   0  0  0  0  0  0  0  0  0  0  0  0
   -3.8664    1.7037    0.0000 C   0  0  0  0  0  0  0  0  0  0  0  0
   -1.7248    2.9486    0.0000 C   0  0  0  0  0  0  0  0  0  0  0  0
   -4.5943    2.9379    0.0000 C   0  0  0  0  0  0  0  0  0  0  0  0
   -2.4369    1.7090    0.0000 C   0  0  0  0  0  0  0  0  0  0  0  0
   -7.4584    1.2923    0.0000 N   0  0  0  0  0  0  0  0  0  0  0  0
    1.1498    1.3134    0.0000 N   0  0  0  0  0  0  0  0  0  0  0  0
   -1.7195    1.2976    0.0000 C   0  0  0  0  0  0  0  0  0  0  0  0
   -5.3064    2.5213    0.0000 C   0  0  0  0  0  0  0  0  0  0  0  0
   -1.0074    2.5582    0.0000 C   0  0  0  0  0  0  0  0  0  0  0  0
   -4.5943    1.2923    0.0000 C   0  0  0  0  0  0  0  0  0  0  0  0
    0.4378    1.7248    0.0000 C   0  0  0  0  0  0  0  0  0  0  0  0
   -6.7463    1.7037    0.0000 C   0  0  0  0  0  0  0  0  0  0  0  0
   -6.0131    1.2923    0.0000 C   0  0  0  0  0  0  0  0  0  0  0  0
   -0.2848    1.3134    0.0000 C   0  0  0  0  0  0  0  0  0  0  0  0
    3.0330    2.8062    0.0000 Cl  0  0  0  0  0  0  0  0  0  0  0  0
    3.1913    1.4347    0.0000 Cl  0  0  0  0  0  0  0  0  0  0  0  0
  4 13  2  0  0  0  0
  5 12  2  0  0  0  0
  6  2  1  0  0  0  0
  7  3  1  0  0  0  0
  8  2  2  0  0  0  0
  9  3  2  0  0  0  0
 10 17  1  0  0  0  0
 11 16  1  0  0  0  0
 12  9  1  0  0  0  0
 13  8  1  0  0  0  0
 14  7  2  0  0  0  0
 15  6  2  0  0  0  0
 16 19  1  0  0  0  0
 17 18  1  0  0  0  0
 18  4  1  0  0  0  0
 19  5  1  0  0  0  0
 14  5  1  0  0  0  0
 15  4  1  0  0  0  0
  2  1  1  0  0  0  0
  3  1  1  0  0  0  0
M  END
>  <IDNUMBER>
F2167-9997

>  <Chemical_Name>
2-{4-[4-(2-aminoethyl)phenoxy]phenyl}ethan-1-amine dihydrochloride

>  <PriceCoeff>
1.00

>  <CAS>
107418-22-4

>  <MW>
256.35

>  <Description>
solid

>  <FSP3>
0.25

>  <clogP>
2.82

>  <TPSA>
61.27

>  <Acceptor>
1

>  <Donor>
2

>  <RotBonds>
6

>  <HAC>
19

>  <Collection>
General

>  <PPDS>
+

$$$$
F2168-0005
  Mrv2219 10102508112D          

 11 11  0  0  0  0            999 V2000
    2.2137   -0.2156    0.0000 C   0  0  0  0  0  0  0  0  0  0  0  0
    2.9723    0.1202    0.0000 C   0  0  0  0  0  0  0  0  0  0  0  0
    1.5463    0.2694    0.0000 C   0  0  0  0  0  0  0  0  0  0  0  0
    0.8001   -0.0622    0.0000 N   0  0  0  0  0  0  0  0  0  0  0  0
    3.0636    0.9327    0.0000 O   0  0  0  0  0  0  0  0  0  0  0  0
    1.6292    1.0902    0.0000 S   0  0  0  0  0  0  0  0  0  0  0  0
    3.6356   -0.3731    0.0000 O   0  0  0  0  0  0  0  0  0  0  0  0
    2.1225   -1.0322    0.0000 C   0  0  0  0  0  0  0  0  0  0  0  0
    0.7131   -0.8747    0.0000 C   0  0  0  0  0  0  0  0  0  0  0  0
    1.0737    1.6789    0.0000 C   0  0  0  0  0  0  0  0  0  0  0  0
    1.3804   -1.3598    0.0000 C   0  0  0  0  0  0  0  0  0  0  0  0
  2  1  1  0  0  0  0
  3  1  2  0  0  0  0
  4  3  1  0  0  0  0
  5  2  2  0  0  0  0
  6  3  1  0  0  0  0
  7  2  1  0  0  0  0
  8  1  1  0  0  0  0
  9 11  1  0  0  0  0
 10  6  1  0  0  0  0
 11  8  2  0  0  0  0
  4  9  2  0  0  0  0
M  END
>  <IDNUMBER>
F2168-0005

>  <Chemical_Name>
2-(methylsulfanyl)pyridine-3-carboxylic acid

>  <PriceCoeff>
1.00

>  <CAS>
74470-23-8

>  <MW>
169.21

>  <Description>
solid

>  <FSP3>
0.14

>  <clogP>
1.50

>  <TPSA>
50.19

>  <Acceptor>
3

>  <Donor>
1

>  <RotBonds>
2

>  <HAC>
11

>  <Collection>
General

>  <PPDS>
+

$$$$
F2173-0145
  Mrv2219 10102508112D          

 13 14  0  0  0  0            999 V2000
    5.6917   -4.9667    0.0000 N   0  0  0  0  0  0  0  0  0  0  0  0
    6.4125   -4.5542    0.0000 C   0  0  0  0  0  0  0  0  0  0  0  0
    4.9875   -3.7292    0.0000 N   0  0  0  0  0  0  0  0  0  0  0  0
    4.9792   -4.5417    0.0000 C   0  0  0  0  0  0  0  0  0  0  0  0
    6.4125   -3.7292    0.0000 C   0  0  0  0  0  0  0  0  0  0  0  0
    5.7042   -3.3167    0.0000 C   0  0  0  0  0  0  0  0  0  0  0  0
    7.2000   -4.8167    0.0000 N   0  0  0  0  0  0  0  0  0  0  0  0
    7.2000   -3.4792    0.0000 N   0  0  0  0  0  0  0  0  0  0  0  0
    7.6792   -4.1417    0.0000 C   0  0  0  0  0  0  0  0  0  0  0  0
    4.2625   -4.9542    0.0000 O   0  0  0  0  0  0  0  0  0  0  0  0
    5.7000   -2.4917    0.0000 O   0  0  0  0  0  0  0  0  0  0  0  0
    5.6875   -5.7917    0.0000 C   0  0  0  0  0  0  0  0  0  0  0  0
    4.2750   -3.3167    0.0000 C   0  0  0  0  0  0  0  0  0  0  0  0
  2  1  1  0  0  0  0
  3  4  1  0  0  0  0
  4  1  1  0  0  0  0
  5  2  2  0  0  0  0
  6  3  1  0  0  0  0
  7  2  1  0  0  0  0
  8  5  1  0  0  0  0
  9  7  2  0  0  0  0
 10  4  2  0  0  0  0
 11  6  2  0  0  0  0
 12  1  1  0  0  0  0
 13  3  1  0  0  0  0
  5  6  1  0  0  0  0
  9  8  1  0  0  0  0
M  END
>  <IDNUMBER>
F2173-0145

>  <Chemical_Name>
1,3-dimethyl-2,3,6,7-tetrahydro-1H-purine-2,6-dione

>  <PriceCoeff>
1.00

>  <CAS>
58-55-9

>  <MW>
180.17

>  <Description>
solid

>  <FSP3>
0.29

>  <clogP>
-0.77

>  <TPSA>
69.30

>  <Acceptor>
4

>  <Donor>
2

>  <RotBonds>
0

>  <HAC>
13

>  <Collection>
General

>  <PPDS>
+

$$$$
F2173-0390
  Mrv2219 10102508112D          

  9  9  0  0  0  0            999 V2000
    3.1106   -4.2463    0.0000 N   0  0  0  0  0  0  0  0  0  0  0  0
    3.8246   -4.6638    0.0000 C   0  0  0  0  0  0  0  0  0  0  0  0
    3.8246   -5.4906    0.0000 C   0  0  0  0  0  0  0  0  0  0  0  0
    2.3967   -4.6638    0.0000 C   0  0  0  0  0  0  0  0  0  0  0  0
    2.3967   -5.4906    0.0000 N   0  0  0  0  0  0  0  0  0  0  0  0
    3.1106   -5.8997    0.0000 C   0  0  0  0  0  0  0  0  0  0  0  0
    4.5386   -4.2505    0.0000 O   0  0  0  0  0  0  0  0  0  0  0  0
    1.6827   -4.2505    0.0000 O   0  0  0  0  0  0  0  0  0  0  0  0
    4.5386   -5.9039    0.0000 F   0  0  0  0  0  0  0  0  0  0  0  0
  2  1  1  0  0  0  0
  3  2  1  0  0  0  0
  4  1  1  0  0  0  0
  5  4  1  0  0  0  0
  6  5  1  0  0  0  0
  7  2  2  0  0  0  0
  8  4  2  0  0  0  0
  9  3  1  0  0  0  0
  3  6  2  0  0  0  0
M  END
>  <IDNUMBER>
F2173-0390

>  <Chemical_Name>
5-fluoro-1,2,3,4-tetrahydropyrimidine-2,4-dione

>  <PriceCoeff>
1.00

>  <CAS>
51-21-8

>  <MW>
130.08

>  <Description>
solid

>  <FSP3>
0.00

>  <clogP>
-0.66

>  <TPSA>
58.20

>  <Acceptor>
2

>  <Donor>
2

>  <RotBonds>
0

>  <HAC>
9

>  <Collection>
General

>  <PPDS>
+

$$$$
F2173-0425
  Mrv2219 10102508112D          

  9  9  0  0  0  0            999 V2000
    2.0614    1.8460    0.0000 C   0  0  0  0  0  0  0  0  0  0  0  0
    1.6491    1.1269    0.0000 C   0  0  0  0  0  0  0  0  0  0  0  0
    1.6491    2.5515    0.0000 O   0  0  0  0  0  0  0  0  0  0  0  0
    0.8245    1.1269    0.0000 O   0  0  0  0  0  0  0  0  0  0  0  0
    2.8859    1.8460    0.0000 C   0  0  0  0  0  0  0  0  0  0  0  0
    2.0614    0.4123    0.0000 C   0  0  0  0  0  0  0  0  0  0  0  0
    0.4123    0.4123    0.0000 C   0  0  0  0  0  0  0  0  0  0  0  0
    2.8859    0.4123    0.0000 C   0  0  0  0  0  0  0  0  0  0  0  0
    3.2982    1.1269    0.0000 C   0  0  0  0  0  0  0  0  0  0  0  0
  2  1  2  0  0  0  0
  3  1  1  0  0  0  0
  4  2  1  0  0  0  0
  5  1  1  0  0  0  0
  6  2  1  0  0  0  0
  7  4  1  0  0  0  0
  8  9  1  0  0  0  0
  9  5  2  0  0  0  0
  8  6  2  0  0  0  0
M  END
>  <IDNUMBER>
F2173-0425

>  <Chemical_Name>
2-methoxyphenol

>  <PriceCoeff>
1.00

>  <CAS>
90-05-1

>  <MW>
124.14

>  <Description>
liquid

>  <FSP3>
0.14

>  <clogP>
1.40

>  <TPSA>
29.46

>  <Acceptor>
2

>  <Donor>
1

>  <RotBonds>
1

>  <HAC>
9

>  <Collection>
General

>  <PPDS>
+

$$$$
F2173-0553
  Mrv2219 10102508112D          

 23 24  0  0  0  0            999 V2000
    4.4457   -9.2452    0.0000 C   0  0  0  0  0  0  0  0  0  0  0  0
    5.2614   -9.2452    0.0000 C   0  0  0  0  0  0  0  0  0  0  0  0
    4.0313   -9.9574    0.0000 C   0  0  0  0  0  0  0  0  0  0  0  0
    5.6887   -8.5244    0.0000 N   0  0  0  0  0  0  0  0  0  0  0  0
    3.2026   -9.9574    0.0000 C   0  0  0  0  0  0  0  0  0  0  0  0
    4.0313   -8.5244    0.0000 C   0  0  0  0  0  0  0  0  0  0  0  0
    4.4457  -10.6739    0.0000 N   0  0  0  0  0  0  0  0  0  0  0  0
    2.7883   -9.2452    0.0000 C   0  0  0  0  0  0  0  0  0  0  0  0
    5.6758   -9.9574    0.0000 C   0  0  0  0  0  0  0  0  0  0  0  0
    3.2026   -8.5244    0.0000 C   0  0  0  0  0  0  0  0  0  0  0  0
    5.2614  -10.6739    0.0000 C   0  0  0  0  0  0  0  0  0  0  0  0
    8.9906   -7.1087    0.0000 N   0  0  0  0  0  0  0  0  0  0  0  0
    1.9596   -9.2452    0.0000 Cl  0  0  0  0  0  0  0  0  0  0  0  0
    6.5174   -8.5244    0.0000 C   0  0  0  0  0  0  0  0  0  0  0  0
   10.6351   -5.6844    0.0000 O   0  0  0  0  0  0  0  0  0  0  0  0
    7.7475   -7.8123    0.0000 C   0  0  0  0  0  0  0  0  0  0  0  0
    8.1619   -7.1087    0.0000 C   0  0  0  0  0  0  0  0  0  0  0  0
    9.4049   -6.3965    0.0000 C   0  0  0  0  0  0  0  0  0  0  0  0
    9.4049   -7.8252    0.0000 C   0  0  0  0  0  0  0  0  0  0  0  0
    6.9188   -7.8123    0.0000 C   0  0  0  0  0  0  0  0  0  0  0  0
   10.2207   -6.3965    0.0000 C   0  0  0  0  0  0  0  0  0  0  0  0
    6.9188   -9.2452    0.0000 C   0  0  0  0  0  0  0  0  0  0  0  0
    8.9776   -8.5330    0.0000 C   0  0  0  0  0  0  0  0  0  0  0  0
  2  1  1  0  0  0  0
  3  1  1  0  0  0  0
  4  2  1  0  0  0  0
  5  3  2  0  0  0  0
  6  1  2  0  0  0  0
  7  3  1  0  0  0  0
  8 10  2  0  0  0  0
  9  2  2  0  0  0  0
 10  6  1  0  0  0  0
 11  7  2  0  0  0  0
 12 17  1  0  0  0  0
 13  8  1  0  0  0  0
 14  4  1  0  0  0  0
 15 21  1  0  0  0  0
 16 20  1  0  0  0  0
 17 16  1  0  0  0  0
 18 12  1  0  0  0  0
 19 12  1  0  0  0  0
 20 14  1  0  0  0  0
 21 18  1  0  0  0  0
 22 14  1  0  0  0  0
 23 19  1  0  0  0  0
  5  8  1  0  0  0  0
  9 11  1  0  0  0  0
M  END
>  <IDNUMBER>
F2173-0553

>  <Chemical_Name>
2-({4-[(7-chloroquinolin-4-yl)amino]pentyl}(ethyl)amino)ethan-1-ol

>  <PriceCoeff>
1.00

>  <CAS>
118-42-3

>  <MW>
335.88

>  <Description>
solid

>  <FSP3>
0.50

>  <clogP>
3.78

>  <TPSA>
48.39

>  <Acceptor>
2

>  <Donor>
4

>  <RotBonds>
9

>  <HAC>
23

>  <Collection>
General

>  <PPDS>
+

$$$$
F2173-0664
  Mrv2219 10102508112D          

 24 26  0  0  0  0            999 V2000
    4.2004   -2.5012    0.0000 C   0  0  0  0  0  0  0  0  0  0  0  0
    4.1206   -3.3223    0.0000 C   0  0  0  0  0  0  0  0  0  0  0  0
    5.7854   -1.0073    0.0000 N   0  0  0  0  0  0  0  0  0  0  0  0
    6.7775   -0.1140    0.0000 N   0  0  0  0  0  0  0  0  0  0  0  0
    4.9530   -2.1553    0.0000 C   0  0  0  0  0  0  0  0  0  0  0  0
    5.9565   -0.1977    0.0000 C   0  0  0  0  0  0  0  0  0  0  0  0
    3.3679   -3.6530    0.0000 C   0  0  0  0  0  0  0  0  0  0  0  0
    3.5351   -2.0108    0.0000 C   0  0  0  0  0  0  0  0  0  0  0  0
    5.0442   -1.3381    0.0000 C   0  0  0  0  0  0  0  0  0  0  0  0
    5.6144   -2.6381    0.0000 O   0  0  0  0  0  0  0  0  0  0  0  0
    7.1158   -0.8705    0.0000 C   0  0  0  0  0  0  0  0  0  0  0  0
    6.5039   -1.4065    0.0000 C   0  0  0  0  0  0  0  0  0  0  0  0
    2.6951   -3.1740    0.0000 C   0  0  0  0  0  0  0  0  0  0  0  0
    4.7895   -3.8013    0.0000 Cl  0  0  0  0  0  0  0  0  0  0  0  0
    2.7825   -2.3491    0.0000 C   0  0  0  0  0  0  0  0  0  0  0  0
    6.3746   -2.3074    0.0000 C   0  0  0  0  0  0  0  0  0  0  0  0
    8.3817   -3.7632    0.0000 C   0  0  0  0  0  0  0  0  0  0  0  0
    7.0398   -2.7863    0.0000 C   0  0  0  0  0  0  0  0  0  0  0  0
    1.9424   -3.5047    0.0000 Cl  0  0  0  0  0  0  0  0  0  0  0  0
    9.0469   -4.2459    0.0000 Cl  0  0  0  0  0  0  0  0  0  0  0  0
    8.4653   -2.9346    0.0000 C   0  0  0  0  0  0  0  0  0  0  0  0
    7.6215   -4.0939    0.0000 C   0  0  0  0  0  0  0  0  0  0  0  0
    7.7925   -2.4518    0.0000 C   0  0  0  0  0  0  0  0  0  0  0  0
    6.9600   -3.6074    0.0000 C   0  0  0  0  0  0  0  0  0  0  0  0
  2  1  1  0  0  0  0
  3  9  1  0  0  0  0
  4  6  2  0  0  0  0
  5  1  1  0  0  0  0
  6  3  1  0  0  0  0
  7  2  2  0  0  0  0
  8  1  2  0  0  0  0
  9  5  1  0  0  0  0
 10  5  1  0  0  0  0
 11 12  2  0  0  0  0
 12  3  1  0  0  0  0
 13 15  2  0  0  0  0
 14  2  1  0  0  0  0
 15  8  1  0  0  0  0
 16 10  1  0  0  0  0
 17 22  2  0  0  0  0
 18 16  1  0  0  0  0
 19 13  1  0  0  0  0
 20 17  1  0  0  0  0
 21 23  2  0  0  0  0
 22 24  1  0  0  0  0
 23 18  1  0  0  0  0
 24 18  2  0  0  0  0
 13  7  1  0  0  0  0
  4 11  1  0  0  0  0
 17 21  1  0  0  0  0
M  END
>  <IDNUMBER>
F2173-0664

>  <Chemical_Name>
1-{2-[(4-chlorophenyl)methoxy]-2-(2,4-dichlorophenyl)ethyl}-1H-imidazole

>  <PriceCoeff>
1.00

>  <MW>
381.68

>  <Description>
solid

>  <FSP3>
0.17

>  <clogP>
5.10

>  <TPSA>
27.05

>  <Acceptor>
2

>  <Donor>
1

>  <RotBonds>
6

>  <HAC>
24

>  <Collection>
General

$$$$
F2173-0972
  Mrv2219 10102508112D          

 23 25  0  0  0  0            999 V2000
    2.4405   -0.9610    0.0000 C   0  0  0  0  0  0  0  0  0  0  0  0
    0.9990   -0.9610    0.0000 C   0  0  0  0  0  0  0  0  0  0  0  0
    1.7197   -1.3688    0.0000 C   0  0  0  0  0  0  0  0  0  0  0  0
    0.9990   -0.1423    0.0000 C   0  0  0  0  0  0  0  0  0  0  0  0
    2.4405   -0.1423    0.0000 C   0  0  0  0  0  0  0  0  0  0  0  0
    1.7197    0.2655    0.0000 N   0  0  0  0  0  0  0  0  0  0  0  0
    0.2782    0.2655    0.0000 C   0  0  0  0  0  0  0  0  0  0  0  0
   -0.4425   -0.1423    0.0000 C   0  0  0  0  0  0  0  0  0  0  0  0
    0.2782   -1.3688    0.0000 C   0  0  0  0  0  0  0  0  0  0  0  0
    3.1517   -1.3593    0.0000 C   0  0  0  0  0  0  0  0  0  0  0  0
   -0.4425   -0.9610    0.0000 C   0  0  0  0  0  0  0  0  0  0  0  0
   -1.1475    0.2561    0.0000 N   0  0  0  0  0  0  0  0  0  0  0  0
    1.7197   -2.1749    0.0000 O   0  0  0  0  0  0  0  0  0  0  0  0
   -2.5795    1.0779    0.0000 N   0  0  0  0  0  0  0  0  0  0  0  0
    3.8345   -0.9484    0.0000 O   0  0  0  0  0  0  0  0  0  0  0  0
   -1.1475   -1.3593    0.0000 F   0  0  0  0  0  0  0  0  0  0  0  0
    3.1517   -2.1560    0.0000 O   0  0  0  0  0  0  0  0  0  0  0  0
    1.7197    1.0874    0.0000 C   0  0  0  0  0  0  0  0  0  0  0  0
   -1.8746   -0.1644    0.0000 C   0  0  0  0  0  0  0  0  0  0  0  0
   -1.1475    1.0874    0.0000 C   0  0  0  0  0  0  0  0  0  0  0  0
   -2.5795    0.2561    0.0000 C   0  0  0  0  0  0  0  0  0  0  0  0
   -1.8840    1.4984    0.0000 C   0  0  0  0  0  0  0  0  0  0  0  0
    2.4025    1.4984    0.0000 C   0  0  0  0  0  0  0  0  0  0  0  0
  2  3  1  0  0  0  0
  3  1  1  0  0  0  0
  4  6  1  0  0  0  0
  5  1  2  0  0  0  0
  6  5  1  0  0  0  0
  7  4  2  0  0  0  0
  8  7  1  0  0  0  0
  9  2  2  0  0  0  0
 10  1  1  0  0  0  0
 11  9  1  0  0  0  0
 12  8  1  0  0  0  0
 13  3  2  0  0  0  0
 14 22  1  0  0  0  0
 15 10  2  0  0  0  0
 16 11  1  0  0  0  0
 17 10  1  0  0  0  0
 18  6  1  0  0  0  0
 19 12  1  0  0  0  0
 20 12  1  0  0  0  0
 21 19  1  0  0  0  0
 22 20  1  0  0  0  0
 23 18  1  0  0  0  0
  2  4  1  0  0  0  0
 11  8  2  0  0  0  0
 14 21  1  0  0  0  0
M  END
>  <IDNUMBER>
F2173-0972

>  <Chemical_Name>
1-ethyl-6-fluoro-4-oxo-7-(piperazin-1-yl)-1,4-dihydroquinoline-3-carboxylic acid

>  <PriceCoeff>
1.00

>  <CAS>
70458-96-7

>  <MW>
319.33

>  <Description>
solid

>  <FSP3>
0.38

>  <clogP>
-0.78

>  <TPSA>
72.88

>  <Acceptor>
5

>  <Donor>
3

>  <RotBonds>
3

>  <HAC>
23

>  <Collection>
General

$$$$
F2173-1139
  Mrv2219 10102508112D          

 32 31  0  0  0  0            999 V2000
    4.3135   -5.5458    0.0000 C   0  0  0  0  0  0  0  0  0  0  0  0
    5.0315   -5.1385    0.0000 C   0  0  0  0  0  0  0  0  0  0  0  0
    4.3135   -6.3708    0.0000 C   0  0  0  0  0  0  0  0  0  0  0  0
    5.0315   -4.3083    0.0000 N   0  0  0  0  0  0  0  0  0  0  0  0
    3.6056   -6.7833    0.0000 C   0  0  0  0  0  0  0  0  0  0  0  0
    3.6056   -5.1385    0.0000 C   0  0  0  0  0  0  0  0  0  0  0  0
    5.0315   -6.7833    0.0000 N   0  0  0  0  0  0  0  0  0  0  0  0
    2.8926   -6.3708    0.0000 C   0  0  0  0  0  0  0  0  0  0  0  0
    5.7343   -5.5458    0.0000 C   0  0  0  0  0  0  0  0  0  0  0  0
    2.8926   -5.5458    0.0000 C   0  0  0  0  0  0  0  0  0  0  0  0
    5.7343   -6.3708    0.0000 C   0  0  0  0  0  0  0  0  0  0  0  0
    8.6065   -3.9111    0.0000 N   0  0  0  0  0  0  0  0  0  0  0  0
    2.1746   -6.7885    0.0000 Cl  0  0  0  0  0  0  0  0  0  0  0  0
    5.7190   -3.8704    0.0000 C   0  0  0  0  0  0  0  0  0  0  0  0
    7.2264   -3.9264    0.0000 C   0  0  0  0  0  0  0  0  0  0  0  0
    7.9037   -4.3440    0.0000 C   0  0  0  0  0  0  0  0  0  0  0  0
    8.6065   -3.0149    0.0000 C   0  0  0  0  0  0  0  0  0  0  0  0
    9.3704   -4.3440    0.0000 C   0  0  0  0  0  0  0  0  0  0  0  0
    6.4931   -4.3083    0.0000 C   0  0  0  0  0  0  0  0  0  0  0  0
    5.7190   -3.1218    0.0000 C   0  0  0  0  0  0  0  0  0  0  0  0
    9.3551   -2.6176    0.0000 C   0  0  0  0  0  0  0  0  0  0  0  0
   10.0986   -3.9468    0.0000 C   0  0  0  0  0  0  0  0  0  0  0  0
   12.8486   -3.1014    0.0000 P   0  0  0  0  0  0  0  0  0  0  0  0
   12.8435   -2.0931    0.0000 O   0  0  0  0  0  0  0  0  0  0  0  0
   13.8569   -3.1014    0.0000 O   0  0  0  0  0  0  0  0  0  0  0  0
   11.8351   -3.0912    0.0000 O   0  0  0  0  0  0  0  0  0  0  0  0
   12.8435   -4.1097    0.0000 O   0  0  0  0  0  0  0  0  0  0  0  0
   13.0014   -6.4421    0.0000 P   0  0  0  0  0  0  0  0  0  0  0  0
   12.9963   -5.4338    0.0000 O   0  0  0  0  0  0  0  0  0  0  0  0
   14.0097   -6.4421    0.0000 O   0  0  0  0  0  0  0  0  0  0  0  0
   11.9879   -6.4319    0.0000 O   0  0  0  0  0  0  0  0  0  0  0  0
   12.9963   -7.4504    0.0000 O   0  0  0  0  0  0  0  0  0  0  0  0
 12 16  1  0  0  0  0
 13  8  1  0  0  0  0
 14  4  1  0  0  0  0
 15 19  1  0  0  0  0
 16 15  1  0  0  0  0
 17 12  1  0  0  0  0
 18 12  1  0  0  0  0
 19 14  1  0  0  0  0
 20 14  1  0  0  0  0
 21 17  1  0  0  0  0
 22 18  1  0  0  0  0
  8  5  2  0  0  0  0
 11  9  1  0  0  0  0
  2  1  1  0  0  0  0
  3  1  2  0  0  0  0
  4  2  1  0  0  0  0
  5  3  1  0  0  0  0
  6  1  1  0  0  0  0
  7  3  1  0  0  0  0
  8 10  1  0  0  0  0
  9  2  2  0  0  0  0
 10  6  2  0  0  0  0
 11  7  2  0  0  0  0
 24 23  2  0  0  0  0
 25 23  1  0  0  0  0
 26 23  1  0  0  0  0
 27 23  1  0  0  0  0
 29 28  2  0  0  0  0
 30 28  1  0  0  0  0
 31 28  1  0  0  0  0
 32 28  1  0  0  0  0
M  END
>  <IDNUMBER>
F2173-1139

>  <Chemical_Name>
7-chloro-N-[5-(diethylamino)pentan-2-yl]quinolin-4-amine; bis(phosphoric acid)

>  <PriceCoeff>
1.00

>  <CAS>
50-63-5

>  <MW>
319.88

>  <Description>
solid

>  <FSP3>
0.50

>  <clogP>
5.06

>  <TPSA>
28.16

>  <Acceptor>
1

>  <Donor>
3

>  <RotBonds>
8

>  <HAC>
22

>  <Collection>
General

>  <PPDS>
+

$$$$
F2173-1249
  Mrv2219 10102508112D          

 15 16  0  0  0  0            999 V2000
   -4.7527    2.2150    0.0000 C   0  0  0  0  0  0  0  0  0  0  0  0
   -5.4746    2.6197    0.0000 C   0  0  0  0  0  0  0  0  0  0  0  0
   -4.0308    2.6689    0.0000 C   0  0  0  0  0  0  0  0  0  0  0  0
   -6.1801    2.1986    0.0000 C   0  0  0  0  0  0  0  0  0  0  0  0
   -4.7527    1.3618    0.0000 C   0  0  0  0  0  0  0  0  0  0  0  0
   -4.0308    3.4784    0.0000 O   0  0  0  0  0  0  0  0  0  0  0  0
   -6.1801    1.3782    0.0000 C   0  0  0  0  0  0  0  0  0  0  0  0
   -5.4746    0.9625    0.0000 C   0  0  0  0  0  0  0  0  0  0  0  0
   -5.4746    3.4401    0.0000 O   0  0  0  0  0  0  0  0  0  0  0  0
   -3.3088    2.2751    0.0000 O   0  0  0  0  0  0  0  0  0  0  0  0
   -6.8857    2.6197    0.0000 C   0  0  0  0  0  0  0  0  0  0  0  0
   -6.8857    0.9625    0.0000 C   0  0  0  0  0  0  0  0  0  0  0  0
   -2.6197    2.6853    0.0000 C   0  0  0  0  0  0  0  0  0  0  0  0
   -7.6076    2.2150    0.0000 C   0  0  0  0  0  0  0  0  0  0  0  0
   -7.6076    1.3618    0.0000 C   0  0  0  0  0  0  0  0  0  0  0  0
  2  1  1  0  0  0  0
  3  1  1  0  0  0  0
  4  2  2  0  0  0  0
  5  1  2  0  0  0  0
  6  3  2  0  0  0  0
  7  8  2  0  0  0  0
  8  5  1  0  0  0  0
  9  2  1  0  0  0  0
 10  3  1  0  0  0  0
 11  4  1  0  0  0  0
 12  7  1  0  0  0  0
 13 10  1  0  0  0  0
 14 11  2  0  0  0  0
 15 12  2  0  0  0  0
  7  4  1  0  0  0  0
 15 14  1  0  0  0  0
M  END
>  <IDNUMBER>
F2173-1249

>  <Chemical_Name>
methyl 1-hydroxynaphthalene-2-carboxylate

>  <PriceCoeff>
1.00

>  <CAS>
948-03-8

>  <MW>
202.21

>  <Description>
solid

>  <FSP3>
0.08

>  <clogP>
2.33

>  <TPSA>
46.53

>  <Acceptor>
3

>  <Donor>
1

>  <RotBonds>
2

>  <HAC>
15

>  <Collection>
General

>  <PPDS>
+

$$$$
F2173-2154
  Mrv2219 10102508112D          

 20 21  0  0  0  0            999 V2000
    9.3417   -7.1750    0.0000 C   0  0  0  0  0  0  0  0  0  0  0  0
    9.3375   -6.3500    0.0000 C   0  0  0  0  0  0  0  0  0  0  0  0
   10.0417   -5.1042    0.0000 C   0  0  0  0  0  0  0  0  0  0  0  0
   10.7542   -4.6875    0.0000 C   0  0  0  0  0  0  0  0  0  0  0  0
   10.0542   -5.9292    0.0000 C   0  0  0  0  0  0  0  0  0  0  0  0
    8.6250   -5.1167    0.0000 C   0  0  0  0  0  0  0  0  0  0  0  0
    8.6250   -5.9417    0.0000 C   0  0  0  0  0  0  0  0  0  0  0  0
    9.3292   -4.7000    0.0000 C   0  0  0  0  0  0  0  0  0  0  0  0
   10.7500   -3.8625    0.0000 O   0  0  0  0  0  0  0  0  0  0  0  0
    7.9042   -4.7042    0.0000 O   0  0  0  0  0  0  0  0  0  0  0  0
    9.3542   -8.0917    0.0000 F   0  0  0  0  0  0  0  0  0  0  0  0
    8.5167   -7.1667    0.0000 F   0  0  0  0  0  0  0  0  0  0  0  0
   10.1667   -7.1750    0.0000 F   0  0  0  0  0  0  0  0  0  0  0  0
   11.4750   -5.0917    0.0000 O   0  0  0  0  0  0  0  0  0  0  0  0
    7.1917   -5.1250    0.0000 C   0  0  0  0  0  0  0  0  0  0  0  0
    7.1917   -5.9542    0.0000 C   0  0  0  0  0  0  0  0  0  0  0  0
    6.4792   -4.7125    0.0000 C   0  0  0  0  0  0  0  0  0  0  0  0
    6.4792   -6.3667    0.0000 C   0  0  0  0  0  0  0  0  0  0  0  0
    5.7667   -5.1250    0.0000 C   0  0  0  0  0  0  0  0  0  0  0  0
    5.7667   -5.9542    0.0000 C   0  0  0  0  0  0  0  0  0  0  0  0
  2  1  1  0  0  0  0
  3  5  1  0  0  0  0
  4  3  1  0  0  0  0
  5  2  2  0  0  0  0
  6  7  2  0  0  0  0
  7  2  1  0  0  0  0
  8  6  1  0  0  0  0
  9  4  2  0  0  0  0
 10  6  1  0  0  0  0
 11  1  1  0  0  0  0
 12  1  1  0  0  0  0
 13  1  1  0  0  0  0
 14  4  1  0  0  0  0
 15 10  1  0  0  0  0
 16 15  1  0  0  0  0
 17 15  2  0  0  0  0
 18 16  2  0  0  0  0
 19 17  1  0  0  0  0
 20 19  2  0  0  0  0
  3  8  2  0  0  0  0
 18 20  1  0  0  0  0
M  END
>  <IDNUMBER>
F2173-2154

>  <Chemical_Name>
3-phenoxy-5-(trifluoromethyl)benzoic acid

>  <PriceCoeff>
1.00

>  <CAS>
2948485-62-7

>  <MW>
282.22

>  <Description>
solid

>  <FSP3>
0.07

>  <clogP>
4.01

>  <TPSA>
46.53

>  <Acceptor>
3

>  <Donor>
0

>  <RotBonds>
4

>  <HAC>
20

>  <Collection>
General

>  <PPDS>
+

$$$$
F2182-0140
  Mrv2219 10102508112D          

 12 12  0  0  0  0            999 V2000
    1.4906   -2.7349    0.0000 C   0  0  0  0  0  0  0  0  0  0  0  0
    0.7808   -3.9749    0.0000 S   0  0  0  0  0  0  0  0  0  0  0  0
    1.4906   -1.9039    0.0000 O   0  0  0  0  0  0  0  0  0  0  0  0
    0.7766   -3.1482    0.0000 C   0  0  0  0  0  0  0  0  0  0  0  0
    0.0543   -4.4008    0.0000 C   0  0  0  0  0  0  0  0  0  0  0  0
    2.2088   -3.1482    0.0000 O   0  0  0  0  0  0  0  0  0  0  0  0
   -1.3736   -5.2275    0.0000 C   0  0  0  0  0  0  0  0  0  0  0  0
   -0.6597   -3.9874    0.0000 C   0  0  0  0  0  0  0  0  0  0  0  0
    0.0543   -5.2275    0.0000 C   0  0  0  0  0  0  0  0  0  0  0  0
   -1.3736   -4.4008    0.0000 C   0  0  0  0  0  0  0  0  0  0  0  0
   -0.6597   -5.6409    0.0000 C   0  0  0  0  0  0  0  0  0  0  0  0
   -2.1001   -5.6534    0.0000 C   0  0  0  0  0  0  0  0  0  0  0  0
  2  4  1  0  0  0  0
  3  1  2  0  0  0  0
  4  1  1  0  0  0  0
  5  2  1  0  0  0  0
  6  1  1  0  0  0  0
  7 11  1  0  0  0  0
  8  5  2  0  0  0  0
  9  5  1  0  0  0  0
 10  8  1  0  0  0  0
 11  9  2  0  0  0  0
 12  7  1  0  0  0  0
 10  7  2  0  0  0  0
M  END
>  <IDNUMBER>
F2182-0140

>  <Chemical_Name>
2-[(4-methylphenyl)sulfanyl]acetic acid

>  <PriceCoeff>
1.00

>  <CAS>
3996-29-0

>  <MW>
182.24

>  <Description>
solid

>  <FSP3>
0.22

>  <clogP>
2.17

>  <TPSA>
37.30

>  <Acceptor>
2

>  <Donor>
0

>  <RotBonds>
3

>  <HAC>
12

>  <Collection>
General

>  <PPDS>
+

$$$$
F2183-0479
  Mrv2219 10102508112D          

 18 19  0  0  0  0            999 V2000
    3.0375    1.1208    0.0000 C   0  0  0  0  0  0  0  0  0  0  0  0
    1.6125    1.1083    0.0000 C   0  0  0  0  0  0  0  0  0  0  0  0
    2.3167    1.5250    0.0000 C   0  0  0  0  0  0  0  0  0  0  0  0
    3.0417    0.2875    0.0000 C   0  0  0  0  0  0  0  0  0  0  0  0
    2.3292   -0.1292    0.0000 N   0  0  0  0  0  0  0  0  0  0  0  0
    1.6125    0.2833    0.0000 C   0  0  0  0  0  0  0  0  0  0  0  0
    3.7500    1.5333    0.0000 C   0  0  0  0  0  0  0  0  0  0  0  0
    0.8917   -0.1292    0.0000 C   0  0  0  0  0  0  0  0  0  0  0  0
    0.8917    1.5208    0.0000 C   0  0  0  0  0  0  0  0  0  0  0  0
    2.3167    2.3500    0.0000 O   0  0  0  0  0  0  0  0  0  0  0  0
    3.7417    2.3583    0.0000 O   0  0  0  0  0  0  0  0  0  0  0  0
    0.1792    1.1083    0.0000 C   0  0  0  0  0  0  0  0  0  0  0  0
    4.4667    1.1250    0.0000 O   0  0  0  0  0  0  0  0  0  0  0  0
    0.1792    0.2833    0.0000 C   0  0  0  0  0  0  0  0  0  0  0  0
    2.3292   -0.9542    0.0000 C   0  0  0  0  0  0  0  0  0  0  0  0
   -0.5333    1.5208    0.0000 F   0  0  0  0  0  0  0  0  0  0  0  0
    3.0417   -1.3625    0.0000 C   0  0  0  0  0  0  0  0  0  0  0  0
    3.0417   -2.1875    0.0000 C   0  0  0  0  0  0  0  0  0  0  0  0
  2  3  1  0  0  0  0
  3  1  1  0  0  0  0
  4  1  2  0  0  0  0
  5  4  1  0  0  0  0
  6  5  1  0  0  0  0
  7  1  1  0  0  0  0
  8  6  2  0  0  0  0
  9  2  2  0  0  0  0
 10  3  2  0  0  0  0
 11  7  2  0  0  0  0
 12  9  1  0  0  0  0
 13  7  1  0  0  0  0
 14  8  1  0  0  0  0
 15  5  1  0  0  0  0
 16 12  1  0  0  0  0
 17 15  1  0  0  0  0
 18 17  1  0  0  0  0
  6  2  1  0  0  0  0
 14 12  2  0  0  0  0
M  END
>  <IDNUMBER>
F2183-0479

>  <Chemical_Name>
6-fluoro-4-oxo-1-propyl-1,4-dihydroquinoline-3-carboxylic acid

>  <PriceCoeff>
1.00

>  <CAS>
70032-17-6

>  <MW>
249.24

>  <Description>
solid

>  <FSP3>
0.23

>  <clogP>
2.40

>  <TPSA>
57.61

>  <Acceptor>
4

>  <Donor>
1

>  <RotBonds>
3

>  <HAC>
18

>  <Collection>
General

$$$$
F2184-0204
  Mrv2219 10102508112D          

 16 16  0  0  0  0            999 V2000
    1.4948   -2.7724    0.0000 C   0  0  0  0  0  0  0  0  0  0  0  0
    2.2088   -2.3591    0.0000 N   0  0  0  0  0  0  0  0  0  0  0  0
    0.7808   -2.3591    0.0000 O   0  0  0  0  0  0  0  0  0  0  0  0
    1.4948   -3.5991    0.0000 O   0  0  0  0  0  0  0  0  0  0  0  0
    2.2088   -1.5324    0.0000 C   0  0  0  0  0  0  0  0  0  0  0  0
    0.0626   -2.7724    0.0000 C   0  0  0  0  0  0  0  0  0  0  0  0
    2.9227   -2.7724    0.0000 C   0  0  0  0  0  0  0  0  0  0  0  0
    1.4948   -1.1190    0.0000 C   0  0  0  0  0  0  0  0  0  0  0  0
    0.7683    0.1127    0.0000 O   0  0  0  0  0  0  0  0  0  0  0  0
    1.4906   -0.2923    0.0000 C   0  0  0  0  0  0  0  0  0  0  0  0
   -0.6513   -2.3674    0.0000 C   0  0  0  0  0  0  0  0  0  0  0  0
    0.0668   -3.5991    0.0000 C   0  0  0  0  0  0  0  0  0  0  0  0
   -0.1503   -1.9791    0.0000 C   0  0  0  0  0  0  0  0  0  0  0  0
    2.9227   -1.1190    0.0000 C   0  0  0  0  0  0  0  0  0  0  0  0
    3.6367   -2.3591    0.0000 C   0  0  0  0  0  0  0  0  0  0  0  0
    3.6367   -1.5324    0.0000 C   0  0  0  0  0  0  0  0  0  0  0  0
  2  1  1  0  0  0  0
  3  1  1  0  0  0  0
  4  1  2  0  0  0  0
  5  2  1  0  0  0  0
  6  3  1  0  0  0  0
  7  2  1  0  0  0  0
  8  5  1  0  0  0  0
  9 10  1  0  0  0  0
 10  8  1  0  0  0  0
 11  6  1  0  0  0  0
 12  6  1  0  0  0  0
 13  6  1  0  0  0  0
 14  5  1  0  0  0  0
 15  7  1  0  0  0  0
 16 15  1  0  0  0  0
 14 16  1  0  0  0  0
M  END
>  <IDNUMBER>
F2184-0204

>  <Chemical_Name>
tert-butyl 2-(2-hydroxyethyl)piperidine-1-carboxylate

>  <PriceCoeff>
1.00

>  <CAS>
118811-03-3

>  <MW>
229.32

>  <Description>
liquid

>  <FSP3>
0.92

>  <clogP>
1.37

>  <TPSA>
49.77

>  <Acceptor>
3

>  <Donor>
1

>  <RotBonds>
4

>  <HAC>
16

>  <Collection>
General

>  <PPDS>
+

$$$$
F2185-0115
  Mrv2219 10102508112D          

 17 17  0  0  0  0            999 V2000
    2.8694    0.2999    0.0000 N   0  0  0  0  0  0  0  0  0  0  0  0
    2.1198    0.6330    0.0000 C   0  0  0  0  0  0  0  0  0  0  0  0
    2.1989    1.4535    0.0000 N   0  0  0  0  0  0  0  0  0  0  0  0
    3.4191    0.9121    0.0000 C   0  0  0  0  0  0  0  0  0  0  0  0
    3.0068    1.6284    0.0000 O   0  0  0  0  0  0  0  0  0  0  0  0
    1.4076    0.2166    0.0000 C   0  0  0  0  0  0  0  0  0  0  0  0
    0.6914    0.6289    0.0000 C   0  0  0  0  0  0  0  0  0  0  0  0
    1.4076   -0.6122    0.0000 C   0  0  0  0  0  0  0  0  0  0  0  0
   -0.0208   -0.6122    0.0000 C   0  0  0  0  0  0  0  0  0  0  0  0
   -0.0208    0.2124    0.0000 C   0  0  0  0  0  0  0  0  0  0  0  0
    0.6914   -1.0245    0.0000 C   0  0  0  0  0  0  0  0  0  0  0  0
   -0.7371   -1.0245    0.0000 Cl  0  0  0  0  0  0  0  0  0  0  0  0
    6.2011    1.7949    0.0000 N   0  0  0  0  0  0  0  0  0  0  0  0
    4.2396    0.8288    0.0000 C   0  0  0  0  0  0  0  0  0  0  0  0
    5.6139    1.2077    0.0000 C   0  0  0  0  0  0  0  0  0  0  0  0
    4.8226    1.4201    0.0000 C   0  0  0  0  0  0  0  0  0  0  0  0
    7.6879    0.3831    0.0000 Cl  0  0  0  0  0  0  0  0  0  0  0  0
  3  2  2  0  0  0  0
  4  1  2  0  0  0  0
  5  4  1  0  0  0  0
  6  2  1  0  0  0  0
  7  6  2  0  0  0  0
  8  6  1  0  0  0  0
  9 10  2  0  0  0  0
 10  7  1  0  0  0  0
 11  8  2  0  0  0  0
 12  9  1  0  0  0  0
 13 15  1  0  0  0  0
 14  4  1  0  0  0  0
 15 16  1  0  0  0  0
 16 14  1  0  0  0  0
  3  5  1  0  0  0  0
 11  9  1  0  0  0  0
  2  1  1  0  0  0  0
M  END
>  <IDNUMBER>
F2185-0115

>  <Chemical_Name>
3-[3-(4-chlorophenyl)-1,2,4-oxadiazol-5-yl]propan-1-amine hydrochloride

>  <PriceCoeff>
1.50

>  <CAS>
1374407-72-3

>  <MW>
237.69

>  <Description>
solid

>  <FSP3>
0.27

>  <clogP>
2.48

>  <TPSA>
64.94

>  <Acceptor>
3

>  <Donor>
1

>  <RotBonds>
4

>  <HAC>
16

>  <Collection>
Advanced

>  <PPDS>
+

$$$$
F2185-0117
  Mrv2219 10102508112D          

 17 17  0  0  0  0            999 V2000
    1.8096    0.4368    0.0000 C   0  0  0  0  0  0  0  0  0  0  0  0
    2.5626    0.0998    0.0000 N   0  0  0  0  0  0  0  0  0  0  0  0
    1.8928    1.2522    0.0000 N   0  0  0  0  0  0  0  0  0  0  0  0
    1.0982    0.0208    0.0000 C   0  0  0  0  0  0  0  0  0  0  0  0
    3.1117    0.7155    0.0000 C   0  0  0  0  0  0  0  0  0  0  0  0
    2.6998    1.4269    0.0000 O   0  0  0  0  0  0  0  0  0  0  0  0
    0.3827    0.4326    0.0000 C   0  0  0  0  0  0  0  0  0  0  0  0
    0.3786    1.2563    0.0000 Cl  0  0  0  0  0  0  0  0  0  0  0  0
    1.0982   -0.8070    0.0000 C   0  0  0  0  0  0  0  0  0  0  0  0
    5.5411    1.8553    0.0000 N   0  0  0  0  0  0  0  0  0  0  0  0
    3.9311    0.6323    0.0000 C   0  0  0  0  0  0  0  0  0  0  0  0
   -0.3287    0.0208    0.0000 C   0  0  0  0  0  0  0  0  0  0  0  0
    5.1334    1.1357    0.0000 C   0  0  0  0  0  0  0  0  0  0  0  0
    4.3347    1.3478    0.0000 C   0  0  0  0  0  0  0  0  0  0  0  0
    0.3827   -1.2188    0.0000 C   0  0  0  0  0  0  0  0  0  0  0  0
   -0.3287   -0.8070    0.0000 C   0  0  0  0  0  0  0  0  0  0  0  0
    7.0262    0.4701    0.0000 Cl  0  0  0  0  0  0  0  0  0  0  0  0
  3  1  2  0  0  0  0
  4  1  1  0  0  0  0
  5  2  2  0  0  0  0
  6  3  1  0  0  0  0
  7  4  2  0  0  0  0
  8  7  1  0  0  0  0
  9  4  1  0  0  0  0
 10 13  1  0  0  0  0
 11  5  1  0  0  0  0
 12  7  1  0  0  0  0
 13 14  1  0  0  0  0
 14 11  1  0  0  0  0
 15  9  2  0  0  0  0
 16 12  2  0  0  0  0
  6  5  1  0  0  0  0
 15 16  1  0  0  0  0
  2  1  1  0  0  0  0
M  END
>  <IDNUMBER>
F2185-0117

>  <Chemical_Name>
3-[3-(2-chlorophenyl)-1,2,4-oxadiazol-5-yl]propan-1-amine hydrochloride

>  <PriceCoeff>
1.50

>  <CAS>
1374407-84-7

>  <MW>
237.69

>  <Description>
solid

>  <FSP3>
0.27

>  <clogP>
2.48

>  <TPSA>
64.94

>  <Acceptor>
3

>  <Donor>
1

>  <RotBonds>
4

>  <HAC>
16

>  <Collection>
Advanced

>  <PPDS>
+

$$$$
F2185-0118
  Mrv2219 10102508112D          

 15 15  0  0  0  0            999 V2000
    1.3910    0.0625    0.0000 C   0  0  0  0  0  0  0  0  0  0  0  0
    2.2156    0.0625    0.0000 N   0  0  0  0  0  0  0  0  0  0  0  0
    1.1327   -0.7246    0.0000 N   0  0  0  0  0  0  0  0  0  0  0  0
    0.9038    0.7329    0.0000 C   0  0  0  0  0  0  0  0  0  0  0  0
    2.4696   -0.7246    0.0000 C   0  0  0  0  0  0  0  0  0  0  0  0
    1.8033   -1.2036    0.0000 O   0  0  0  0  0  0  0  0  0  0  0  0
    0.0833    0.7329    0.0000 S   0  0  0  0  0  0  0  0  0  0  0  0
    1.1619    1.5160    0.0000 C   0  0  0  0  0  0  0  0  0  0  0  0
   -0.1749    1.5160    0.0000 C   0  0  0  0  0  0  0  0  0  0  0  0
    0.4956    2.0032    0.0000 C   0  0  0  0  0  0  0  0  0  0  0  0
    5.3890   -0.5539    0.0000 N   0  0  0  0  0  0  0  0  0  0  0  0
    3.2526   -0.9787    0.0000 C   0  0  0  0  0  0  0  0  0  0  0  0
    4.6769   -0.9745    0.0000 C   0  0  0  0  0  0  0  0  0  0  0  0
    3.9647   -0.5622    0.0000 C   0  0  0  0  0  0  0  0  0  0  0  0
    6.8758    0.3415    0.0000 Cl  0  0  0  0  0  0  0  0  0  0  0  0
  3  1  2  0  0  0  0
  4  1  1  0  0  0  0
  5  2  2  0  0  0  0
  6  3  1  0  0  0  0
  7  4  1  0  0  0  0
  8  4  2  0  0  0  0
  9  7  1  0  0  0  0
 10  8  1  0  0  0  0
 11 13  1  0  0  0  0
 12  5  1  0  0  0  0
 13 14  1  0  0  0  0
 14 12  1  0  0  0  0
  5  6  1  0  0  0  0
  9 10  2  0  0  0  0
  2  1  1  0  0  0  0
M  END
>  <IDNUMBER>
F2185-0118

>  <Chemical_Name>
3-[3-(thiophen-2-yl)-1,2,4-oxadiazol-5-yl]propan-1-amine hydrochloride

>  <PriceCoeff>
1.50

>  <CAS>
1286708-64-2

>  <MW>
209.27

>  <Description>
solid

>  <FSP3>
0.33

>  <clogP>
1.55

>  <TPSA>
64.94

>  <Acceptor>
3

>  <Donor>
1

>  <RotBonds>
4

>  <HAC>
14

>  <Collection>
Advanced

>  <PPDS>
+

$$$$
F2185-0119
  Mrv2219 10102508112D          

 15 15  0  0  0  0            999 V2000
    1.3910    0.0625    0.0000 C   0  0  0  0  0  0  0  0  0  0  0  0
    2.2156    0.0625    0.0000 N   0  0  0  0  0  0  0  0  0  0  0  0
    1.1327   -0.7246    0.0000 N   0  0  0  0  0  0  0  0  0  0  0  0
    0.9038    0.7329    0.0000 C   0  0  0  0  0  0  0  0  0  0  0  0
    2.4696   -0.7246    0.0000 C   0  0  0  0  0  0  0  0  0  0  0  0
    1.8033   -1.2036    0.0000 O   0  0  0  0  0  0  0  0  0  0  0  0
    0.0792    0.7288    0.0000 O   0  0  0  0  0  0  0  0  0  0  0  0
    1.1577    1.5118    0.0000 C   0  0  0  0  0  0  0  0  0  0  0  0
   -0.1749    1.5118    0.0000 C   0  0  0  0  0  0  0  0  0  0  0  0
    0.4915    1.9990    0.0000 C   0  0  0  0  0  0  0  0  0  0  0  0
    5.3890   -0.5539    0.0000 N   0  0  0  0  0  0  0  0  0  0  0  0
    3.2526   -0.9787    0.0000 C   0  0  0  0  0  0  0  0  0  0  0  0
    4.6769   -0.9745    0.0000 C   0  0  0  0  0  0  0  0  0  0  0  0
    3.9647   -0.5622    0.0000 C   0  0  0  0  0  0  0  0  0  0  0  0
    6.8758    0.3415    0.0000 Cl  0  0  0  0  0  0  0  0  0  0  0  0
  3  1  2  0  0  0  0
  4  1  1  0  0  0  0
  5  2  2  0  0  0  0
  6  3  1  0  0  0  0
  7  4  1  0  0  0  0
  8  4  2  0  0  0  0
  9  7  1  0  0  0  0
 10  8  1  0  0  0  0
 11 13  1  0  0  0  0
 12  5  1  0  0  0  0
 13 14  1  0  0  0  0
 14 12  1  0  0  0  0
  5  6  1  0  0  0  0
  9 10  2  0  0  0  0
  2  1  1  0  0  0  0
M  END
>  <IDNUMBER>
F2185-0119

>  <Chemical_Name>
3-[3-(furan-2-yl)-1,2,4-oxadiazol-5-yl]propan-1-amine hydrochloride

>  <PriceCoeff>
1.50

>  <CAS>
1435804-19-5

>  <MW>
193.21

>  <Description>
solid

>  <FSP3>
0.33

>  <clogP>
0.97

>  <TPSA>
78.08

>  <Acceptor>
4

>  <Donor>
1

>  <RotBonds>
4

>  <HAC>
14

>  <Collection>
Advanced

>  <PPDS>
+

$$$$
F2185-0121
  Mrv2219 10102508112D          

 18 18  0  0  0  0            999 V2000
    3.0998    0.2996    0.0000 N   0  0  0  0  0  0  0  0  0  0  0  0
    2.3509    0.6324    0.0000 C   0  0  0  0  0  0  0  0  0  0  0  0
    2.4299    1.4521    0.0000 N   0  0  0  0  0  0  0  0  0  0  0  0
    3.6490    0.9112    0.0000 C   0  0  0  0  0  0  0  0  0  0  0  0
    3.2371    1.6269    0.0000 O   0  0  0  0  0  0  0  0  0  0  0  0
    1.6394    0.2164    0.0000 C   0  0  0  0  0  0  0  0  0  0  0  0
    0.9237    0.6283    0.0000 C   0  0  0  0  0  0  0  0  0  0  0  0
    1.6394   -0.6116    0.0000 C   0  0  0  0  0  0  0  0  0  0  0  0
    0.2122   -0.6116    0.0000 C   0  0  0  0  0  0  0  0  0  0  0  0
    0.2122    0.2122    0.0000 C   0  0  0  0  0  0  0  0  0  0  0  0
    0.9237   -1.0236    0.0000 C   0  0  0  0  0  0  0  0  0  0  0  0
    6.4284    1.7933    0.0000 N   0  0  0  0  0  0  0  0  0  0  0  0
   -0.5035   -1.0236    0.0000 O   0  0  0  0  0  0  0  0  0  0  0  0
    4.4687    0.8280    0.0000 C   0  0  0  0  0  0  0  0  0  0  0  0
    5.8459    1.2066    0.0000 C   0  0  0  0  0  0  0  0  0  0  0  0
   -1.2150   -0.6116    0.0000 C   0  0  0  0  0  0  0  0  0  0  0  0
    5.0471    1.4188    0.0000 C   0  0  0  0  0  0  0  0  0  0  0  0
    7.9138    0.3828    0.0000 Cl  0  0  0  0  0  0  0  0  0  0  0  0
  3  2  2  0  0  0  0
  4  1  2  0  0  0  0
  5  4  1  0  0  0  0
  6  2  1  0  0  0  0
  7  6  2  0  0  0  0
  8  6  1  0  0  0  0
  9 10  2  0  0  0  0
 10  7  1  0  0  0  0
 11  8  2  0  0  0  0
 12 15  1  0  0  0  0
 13  9  1  0  0  0  0
 14  4  1  0  0  0  0
 15 17  1  0  0  0  0
 16 13  1  0  0  0  0
 17 14  1  0  0  0  0
  3  5  1  0  0  0  0
 11  9  1  0  0  0  0
  2  1  1  0  0  0  0
M  END
>  <IDNUMBER>
F2185-0121

>  <Chemical_Name>
3-[3-(4-methoxyphenyl)-1,2,4-oxadiazol-5-yl]propan-1-amine hydrochloride

>  <PriceCoeff>
1.50

>  <CAS>
1374408-25-9

>  <MW>
233.27

>  <Description>
solid

>  <FSP3>
0.33

>  <clogP>
1.72

>  <TPSA>
74.17

>  <Acceptor>
4

>  <Donor>
1

>  <RotBonds>
5

>  <HAC>
17

>  <Collection>
Advanced

>  <PPDS>
+

$$$$
F2189-0119
  Mrv2219 10102508112D          

 22 24  0  0  0  0            999 V2000
    3.9206   -3.8580    0.0000 N   0  0  0  0  0  0  0  0  0  0  0  0
    3.9206   -4.6847    0.0000 C   0  0  0  0  0  0  0  0  0  0  0  0
    3.2066   -3.4446    0.0000 C   0  0  0  0  0  0  0  0  0  0  0  0
    2.4843   -4.6847    0.0000 C   0  0  0  0  0  0  0  0  0  0  0  0
    3.2066   -5.0897    0.0000 C   0  0  0  0  0  0  0  0  0  0  0  0
    2.4843   -3.8580    0.0000 C   0  0  0  0  0  0  0  0  0  0  0  0
    4.6388   -3.4446    0.0000 C   0  0  0  0  0  0  0  0  0  0  0  0
    1.7704   -5.1023    0.0000 C   0  0  0  0  0  0  0  0  0  0  0  0
    4.6388   -5.0980    0.0000 O   0  0  0  0  0  0  0  0  0  0  0  0
    3.1983   -2.6179    0.0000 O   0  0  0  0  0  0  0  0  0  0  0  0
    1.0564   -4.6889    0.0000 C   0  0  0  0  0  0  0  0  0  0  0  0
    1.7704   -5.9290    0.0000 C   0  0  0  0  0  0  0  0  0  0  0  0
    0.3424   -5.9290    0.0000 C   0  0  0  0  0  0  0  0  0  0  0  0
    5.3528   -3.8580    0.0000 C   0  0  0  0  0  0  0  0  0  0  0  0
    1.0564   -6.3423    0.0000 C   0  0  0  0  0  0  0  0  0  0  0  0
    0.3424   -5.1023    0.0000 C   0  0  0  0  0  0  0  0  0  0  0  0
   -0.3758   -6.3423    0.0000 Br  0  0  0  0  0  0  0  0  0  0  0  0
    5.3528   -4.6847    0.0000 C   0  0  0  0  0  0  0  0  0  0  0  0
    6.0667   -3.4446    0.0000 C   0  0  0  0  0  0  0  0  0  0  0  0
    6.7807   -3.8497    0.0000 C   0  0  0  0  0  0  0  0  0  0  0  0
    6.0667   -5.0980    0.0000 C   0  0  0  0  0  0  0  0  0  0  0  0
    6.7807   -4.6847    0.0000 C   0  0  0  0  0  0  0  0  0  0  0  0
  2  1  1  0  0  0  0
  3  1  1  0  0  0  0
  4  6  1  0  0  0  0
  5  2  1  0  0  0  0
  6  3  1  0  0  0  0
  7  1  1  0  0  0  0
  8  4  1  0  0  0  0
  9  2  2  0  0  0  0
 10  3  2  0  0  0  0
 11  8  2  0  0  0  0
 12  8  1  0  0  0  0
 13 15  1  0  0  0  0
 14  7  1  0  0  0  0
 15 12  2  0  0  0  0
 16 11  1  0  0  0  0
 17 13  1  0  0  0  0
 18 14  2  0  0  0  0
 19 14  1  0  0  0  0
 20 19  2  0  0  0  0
 21 18  1  0  0  0  0
 22 20  1  0  0  0  0
  4  5  1  0  0  0  0
 21 22  2  0  0  0  0
 16 13  2  0  0  0  0
M  END
>  <IDNUMBER>
F2189-0119

>  <Chemical_Name>
1-benzyl-4-(4-bromophenyl)piperidine-2,6-dione

>  <PriceCoeff>
1.00

>  <MW>
358.23

>  <Description>
solid

>  <FSP3>
0.22

>  <clogP>
3.95

>  <TPSA>
37.38

>  <Acceptor>
2

>  <Donor>
0

>  <RotBonds>
3

>  <HAC>
22

>  <Collection>
General

$$$$
F2189-0168
  Mrv2219 10102508112D          

  9  9  0  0  0  0            999 V2000
   -0.1381    0.0586    0.0000 N   0  0  0  0  0  0  0  0  0  0  0  0
   -0.9500   -0.1130    0.0000 C   0  0  0  0  0  0  0  0  0  0  0  0
   -1.2890   -0.8705    0.0000 C   0  0  0  0  0  0  0  0  0  0  0  0
   -0.0502    0.8789    0.0000 C   0  0  0  0  0  0  0  0  0  0  0  0
   -0.8035    1.2136    0.0000 C   0  0  0  0  0  0  0  0  0  0  0  0
   -1.3560    0.5984    0.0000 C   0  0  0  0  0  0  0  0  0  0  0  0
   -2.1093   -0.9584    0.0000 N   0  0  0  0  0  0  0  0  0  0  0  0
   -2.4440   -1.7117    0.0000 O   0  0  0  0  0  0  0  0  0  0  0  0
    0.4771   -0.4939    0.0000 C   0  0  0  0  0  0  0  0  0  0  0  0
  2  1  1  0  0  0  0
  3  2  1  0  0  0  0
  4  1  1  0  0  0  0
  5  4  2  0  0  0  0
  6  2  2  0  0  0  0
  7  3  2  0  0  0  0
  8  7  1  0  0  0  0
  9  1  1  0  0  0  0
  5  6  1  0  0  0  0
M  END
>  <IDNUMBER>
F2189-0168

>  <Chemical_Name>
(E)-N-[(1-methyl-1H-pyrrol-2-yl)methylidene]hydroxylamine

>  <PriceCoeff>
1.00

>  <CAS>
37110-15-9

>  <MW>
124.14

>  <Description>
solid

>  <FSP3>
0.17

>  <clogP>
0.92

>  <TPSA>
37.52

>  <Acceptor>
2

>  <Donor>
2

>  <RotBonds>
1

>  <HAC>
9

>  <Collection>
General

>  <PPDS>
+

$$$$
F2189-0245
  Mrv2219 10102508112D          

 21 23  0  0  0  0            999 V2000
    6.4309   -3.7129    0.0000 N   0  0  0  0  0  0  0  0  0  0  0  0
    5.6609   -3.4132    0.0000 C   0  0  0  0  0  0  0  0  0  0  0  0
    7.1301   -3.2633    0.0000 C   0  0  0  0  0  0  0  0  0  0  0  0
    6.3976   -4.5120    0.0000 C   0  0  0  0  0  0  0  0  0  0  0  0
    7.0844   -2.4392    0.0000 C   0  0  0  0  0  0  0  0  0  0  0  0
    5.1489   -4.0583    0.0000 C   0  0  0  0  0  0  0  0  0  0  0  0
    7.0219   -0.7784    0.0000 C   0  0  0  0  0  0  0  0  0  0  0  0
    7.0053    0.0458    0.0000 N   0  0  0  0  0  0  0  0  0  0  0  0
    5.6067   -4.7451    0.0000 C   0  0  0  0  0  0  0  0  0  0  0  0
    6.3559   -2.0604    0.0000 C   0  0  0  0  0  0  0  0  0  0  0  0
    7.7795   -1.9896    0.0000 C   0  0  0  0  0  0  0  0  0  0  0  0
    6.3102   -1.2279    0.0000 C   0  0  0  0  0  0  0  0  0  0  0  0
    7.7420   -1.1655    0.0000 C   0  0  0  0  0  0  0  0  0  0  0  0
    8.5537   -3.1884    0.0000 N   0  0  0  0  0  0  0  0  0  0  0  0
    7.8586   -3.6379    0.0000 C   0  0  0  0  0  0  0  0  0  0  0  0
    5.3570   -2.6515    0.0000 C   0  0  0  0  0  0  0  0  0  0  0  0
    7.7087    0.4703    0.0000 C   0  0  0  0  0  0  0  0  0  0  0  0
    6.2810    0.4495    0.0000 C   0  0  0  0  0  0  0  0  0  0  0  0
    4.3330   -3.9376    0.0000 C   0  0  0  0  0  0  0  0  0  0  0  0
    4.5370   -2.5266    0.0000 C   0  0  0  0  0  0  0  0  0  0  0  0
    4.0250   -3.1717    0.0000 C   0  0  0  0  0  0  0  0  0  0  0  0
  2  1  1  0  0  0  0
  3  1  1  0  0  0  0
  4  1  1  0  0  0  0
  5  3  1  0  0  0  0
  6  2  2  0  0  0  0
  7 13  1  0  0  0  0
  8  7  1  0  0  0  0
  9  4  1  0  0  0  0
 10  5  2  0  0  0  0
 11  5  1  0  0  0  0
 12 10  1  0  0  0  0
 13 11  2  0  0  0  0
 14 15  1  0  0  0  0
 15  3  1  0  0  0  0
 16  2  1  0  0  0  0
 17  8  1  0  0  0  0
 18  8  1  0  0  0  0
 19  6  1  0  0  0  0
 20 16  2  0  0  0  0
 21 20  1  0  0  0  0
  9  6  1  0  0  0  0
 12  7  2  0  0  0  0
 19 21  2  0  0  0  0
M  END
>  <IDNUMBER>
F2189-0245

>  <Chemical_Name>
4-[2-amino-1-(2,3-dihydro-1H-indol-1-yl)ethyl]-N,N-dimethylaniline

>  <PriceCoeff>
1.00

>  <CAS>
954568-18-4

>  <MW>
281.40

>  <Description>
solid

>  <FSP3>
0.33

>  <clogP>
3.22

>  <TPSA>
32.50

>  <Acceptor>
2

>  <Donor>
3

>  <RotBonds>
4

>  <HAC>
21

>  <Collection>
General

>  <PPDS>
+

$$$$
F2189-0257
  Mrv2219 10102508112D          

 19 21  0  0  0  0            999 V2000
   10.2629  -21.6615    0.0000 N   0  0  0  0  0  0  0  0  0  0  0  0
   10.2629  -22.4882    0.0000 C   0  0  0  0  0  0  0  0  0  0  0  0
   10.9769  -21.2481    0.0000 C   0  0  0  0  0  0  0  0  0  0  0  0
   11.6909  -21.6615    0.0000 C   0  0  0  0  0  0  0  0  0  0  0  0
   10.9769  -20.4172    0.0000 C   0  0  0  0  0  0  0  0  0  0  0  0
   10.9769  -22.9016    0.0000 O   0  0  0  0  0  0  0  0  0  0  0  0
    9.5489  -22.9016    0.0000 C   0  0  0  0  0  0  0  0  0  0  0  0
   11.6909  -20.0039    0.0000 C   0  0  0  0  0  0  0  0  0  0  0  0
   12.4049  -21.2481    0.0000 C   0  0  0  0  0  0  0  0  0  0  0  0
    9.5447  -21.2481    0.0000 C   0  0  0  0  0  0  0  0  0  0  0  0
   13.1272  -21.6615    0.0000 N   0  0  0  0  0  0  0  0  0  0  0  0
   12.4049  -20.4172    0.0000 C   0  0  0  0  0  0  0  0  0  0  0  0
    9.5447  -20.4214    0.0000 C   0  0  0  0  0  0  0  0  0  0  0  0
   10.2629  -20.0081    0.0000 C   0  0  0  0  0  0  0  0  0  0  0  0
    9.5573  -23.7283    0.0000 C   0  0  0  0  0  0  0  0  0  0  0  0
    8.8350  -22.4882    0.0000 C   0  0  0  0  0  0  0  0  0  0  0  0
    8.1210  -22.9016    0.0000 C   0  0  0  0  0  0  0  0  0  0  0  0
    8.8433  -24.1416    0.0000 C   0  0  0  0  0  0  0  0  0  0  0  0
    8.1210  -23.7283    0.0000 C   0  0  0  0  0  0  0  0  0  0  0  0
  2  1  1  0  0  0  0
  3  1  1  0  0  0  0
  4  3  1  0  0  0  0
  5  3  2  0  0  0  0
  6  2  2  0  0  0  0
  7  2  1  0  0  0  0
  8  5  1  0  0  0  0
  9  4  2  0  0  0  0
 10  1  1  0  0  0  0
 11  9  1  0  0  0  0
 12  8  2  0  0  0  0
 13 10  1  0  0  0  0
 14 13  1  0  0  0  0
 15  7  1  0  0  0  0
 16  7  2  0  0  0  0
 17 16  1  0  0  0  0
 18 15  2  0  0  0  0
 19 17  2  0  0  0  0
  5 14  1  0  0  0  0
  9 12  1  0  0  0  0
 18 19  1  0  0  0  0
M  END
>  <IDNUMBER>
F2189-0257

>  <Chemical_Name>
1-benzoyl-1,2,3,4-tetrahydroquinolin-7-amine

>  <PriceCoeff>
1.00

>  <CAS>
857759-24-1

>  <MW>
252.32

>  <Description>
solid

>  <FSP3>
0.19

>  <clogP>
2.58

>  <TPSA>
46.33

>  <Acceptor>
2

>  <Donor>
1

>  <RotBonds>
1

>  <HAC>
19

>  <Collection>
General

>  <PPDS>
+

$$$$
F2189-0261
  Mrv2219 10102508112D          

 19 21  0  0  0  0            999 V2000
   10.8141  -16.7096    0.0000 N   0  0  0  0  0  0  0  0  0  0  0  0
   10.8141  -17.5363    0.0000 C   0  0  0  0  0  0  0  0  0  0  0  0
   11.5280  -16.2879    0.0000 C   0  0  0  0  0  0  0  0  0  0  0  0
   11.5280  -15.4612    0.0000 C   0  0  0  0  0  0  0  0  0  0  0  0
   12.2420  -16.7012    0.0000 C   0  0  0  0  0  0  0  0  0  0  0  0
   11.5280  -17.9496    0.0000 O   0  0  0  0  0  0  0  0  0  0  0  0
   10.1001  -17.9496    0.0000 C   0  0  0  0  0  0  0  0  0  0  0  0
   12.2420  -15.0478    0.0000 C   0  0  0  0  0  0  0  0  0  0  0  0
   10.0959  -16.2879    0.0000 C   0  0  0  0  0  0  0  0  0  0  0  0
   12.9560  -15.4612    0.0000 C   0  0  0  0  0  0  0  0  0  0  0  0
   12.9560  -16.2879    0.0000 C   0  0  0  0  0  0  0  0  0  0  0  0
   13.6700  -15.0436    0.0000 N   0  0  0  0  0  0  0  0  0  0  0  0
   10.8141  -15.0478    0.0000 C   0  0  0  0  0  0  0  0  0  0  0  0
   10.0959  -15.4612    0.0000 C   0  0  0  0  0  0  0  0  0  0  0  0
    9.3861  -17.5363    0.0000 C   0  0  0  0  0  0  0  0  0  0  0  0
   10.1001  -18.7680    0.0000 C   0  0  0  0  0  0  0  0  0  0  0  0
    9.3944  -19.1897    0.0000 C   0  0  0  0  0  0  0  0  0  0  0  0
    8.6721  -17.9496    0.0000 C   0  0  0  0  0  0  0  0  0  0  0  0
    8.6721  -18.7763    0.0000 C   0  0  0  0  0  0  0  0  0  0  0  0
  2  1  1  0  0  0  0
  3  1  1  0  0  0  0
  4  3  2  0  0  0  0
  5  3  1  0  0  0  0
  6  2  2  0  0  0  0
  7  2  1  0  0  0  0
  8  4  1  0  0  0  0
  9  1  1  0  0  0  0
 10 11  1  0  0  0  0
 11  5  2  0  0  0  0
 12 10  1  0  0  0  0
 13 14  1  0  0  0  0
 14  9  1  0  0  0  0
 15  7  2  0  0  0  0
 16  7  1  0  0  0  0
 17 16  2  0  0  0  0
 18 15  1  0  0  0  0
 19 17  1  0  0  0  0
  4 13  1  0  0  0  0
 10  8  2  0  0  0  0
 18 19  2  0  0  0  0
M  END
>  <IDNUMBER>
F2189-0261

>  <Chemical_Name>
1-benzoyl-1,2,3,4-tetrahydroquinolin-6-amine

>  <PriceCoeff>
1.00

>  <CAS>
857759-22-9

>  <MW>
252.32

>  <Description>
solid

>  <FSP3>
0.19

>  <clogP>
2.58

>  <TPSA>
46.33

>  <Acceptor>
2

>  <Donor>
1

>  <RotBonds>
1

>  <HAC>
19

>  <Collection>
General

>  <PPDS>
+

$$$$
F2189-0265
  Mrv2219 10102508112D          

 11 12  0  0  0  0            999 V2000
    1.6459    0.6941    0.0000 N   0  0  0  0  0  0  0  0  0  0  0  0
    1.1597    1.3674    0.0000 C   0  0  0  0  0  0  0  0  0  0  0  0
    2.4315    0.9477    0.0000 C   0  0  0  0  0  0  0  0  0  0  0  0
    2.4315    1.7789    0.0000 C   0  0  0  0  0  0  0  0  0  0  0  0
    1.6459    2.0325    0.0000 C   0  0  0  0  0  0  0  0  0  0  0  0
    3.1422    2.1904    0.0000 C   0  0  0  0  0  0  0  0  0  0  0  0
    0.3367    1.3674    0.0000 O   0  0  0  0  0  0  0  0  0  0  0  0
    3.1422    0.5361    0.0000 C   0  0  0  0  0  0  0  0  0  0  0  0
    3.8573    1.7789    0.0000 C   0  0  0  0  0  0  0  0  0  0  0  0
    4.5680    2.1904    0.0000 N   0  0  0  0  0  0  0  0  0  0  0  0
    3.8573    0.9477    0.0000 C   0  0  0  0  0  0  0  0  0  0  0  0
  2  1  1  0  0  0  0
  3  1  1  0  0  0  0
  4  3  2  0  0  0  0
  5  2  1  0  0  0  0
  6  4  1  0  0  0  0
  7  2  2  0  0  0  0
  8  3  1  0  0  0  0
  9 11  1  0  0  0  0
 10  9  1  0  0  0  0
 11  8  2  0  0  0  0
  5  4  1  0  0  0  0
  9  6  2  0  0  0  0
M  END
>  <IDNUMBER>
F2189-0265

>  <Chemical_Name>
5-amino-2,3-dihydro-1H-indol-2-one

>  <PriceCoeff>
1.50

>  <CAS>
20876-36-2

>  <MW>
148.16

>  <Description>
solid

>  <FSP3>
0.13

>  <clogP>
0.24

>  <TPSA>
55.12

>  <Acceptor>
2

>  <Donor>
2

>  <RotBonds>
0

>  <HAC>
11

>  <Collection>
Advanced

>  <PPDS>
+

$$$$
F2189-0266
  Mrv2219 10102508112D          

 12 13  0  0  0  0            999 V2000
    2.3695   -0.0042    0.0000 N   0  0  0  0  0  0  0  0  0  0  0  0
    1.8831    0.6610    0.0000 C   0  0  0  0  0  0  0  0  0  0  0  0
    3.1551    0.2452    0.0000 C   0  0  0  0  0  0  0  0  0  0  0  0
    3.1551    1.0725    0.0000 C   0  0  0  0  0  0  0  0  0  0  0  0
    2.3695    1.3302    0.0000 C   0  0  0  0  0  0  0  0  0  0  0  0
    3.8660   -0.1663    0.0000 C   0  0  0  0  0  0  0  0  0  0  0  0
    1.0600    0.6610    0.0000 O   0  0  0  0  0  0  0  0  0  0  0  0
    3.8660    1.4840    0.0000 C   0  0  0  0  0  0  0  0  0  0  0  0
    4.5810    1.0725    0.0000 C   0  0  0  0  0  0  0  0  0  0  0  0
    4.5810    0.2452    0.0000 C   0  0  0  0  0  0  0  0  0  0  0  0
    2.1118   -0.7899    0.0000 C   0  0  0  0  0  0  0  0  0  0  0  0
    5.2918    1.4923    0.0000 N   0  0  0  0  0  0  0  0  0  0  0  0
  2  1  1  0  0  0  0
  3  1  1  0  0  0  0
  4  3  2  0  0  0  0
  5  2  1  0  0  0  0
  6  3  1  0  0  0  0
  7  2  2  0  0  0  0
  8  4  1  0  0  0  0
  9 10  1  0  0  0  0
 10  6  2  0  0  0  0
 11  1  1  0  0  0  0
 12  9  1  0  0  0  0
  5  4  1  0  0  0  0
  8  9  2  0  0  0  0
M  END
>  <IDNUMBER>
F2189-0266

>  <Chemical_Name>
5-amino-1-methyl-2,3-dihydro-1H-indol-2-one

>  <PriceCoeff>
1.50

>  <CAS>
20870-91-1

>  <MW>
162.19

>  <Description>
solid

>  <FSP3>
0.22

>  <clogP>
0.11

>  <TPSA>
46.33

>  <Acceptor>
2

>  <Donor>
1

>  <RotBonds>
0

>  <HAC>
12

>  <Collection>
Advanced

>  <PPDS>
+

$$$$
F2189-0334
  Mrv2219 10102508112D          

 19 21  0  0  0  0            999 V2000
    2.6234   -3.3321    0.0000 N   0  0  0  0  0  0  0  0  0  0  0  0
    2.3292   -1.9396    0.0000 C   0  0  0  0  0  0  0  0  0  0  0  0
    0.9740   -1.4920    0.0000 C   0  0  0  0  0  0  0  0  0  0  0  0
    1.5210   -2.1054    0.0000 C   0  0  0  0  0  0  0  0  0  0  0  0
    2.8763   -2.5530    0.0000 C   0  0  0  0  0  0  0  0  0  0  0  0
    2.1054   -4.8905    0.0000 N   0  0  0  0  0  0  0  0  0  0  0  0
    1.2351   -0.7087    0.0000 C   0  0  0  0  0  0  0  0  0  0  0  0
    0.1534   -1.4962    0.0000 O   0  0  0  0  0  0  0  0  0  0  0  0
    0.5637   -0.2280    0.0000 O   0  0  0  0  0  0  0  0  0  0  0  0
   -0.0995   -0.7087    0.0000 C   0  0  0  0  0  0  0  0  0  0  0  0
    1.8194   -3.4979    0.0000 C   0  0  0  0  0  0  0  0  0  0  0  0
    3.1747   -3.9414    0.0000 C   0  0  0  0  0  0  0  0  0  0  0  0
    2.5779   -1.1480    0.0000 C   0  0  0  0  0  0  0  0  0  0  0  0
    2.0308   -0.5388    0.0000 C   0  0  0  0  0  0  0  0  0  0  0  0
    2.9136   -4.7288    0.0000 C   0  0  0  0  0  0  0  0  0  0  0  0
    1.5583   -4.2812    0.0000 C   0  0  0  0  0  0  0  0  0  0  0  0
    4.2315   -2.9964    0.0000 N   0  0  0  0  0  0  0  0  0  0  0  0
    3.6844   -2.3789    0.0000 C   0  0  0  0  0  0  0  0  0  0  0  0
    1.8443   -5.6738    0.0000 C   0  0  0  0  0  0  0  0  0  0  0  0
  2  5  1  0  0  0  0
  3  4  1  0  0  0  0
  4  2  2  0  0  0  0
  5  1  1  0  0  0  0
  6 15  1  0  0  0  0
  7 14  1  0  0  0  0
  8  3  1  0  0  0  0
  9  7  1  0  0  0  0
 10  8  1  0  0  0  0
 11  1  1  0  0  0  0
 12  1  1  0  0  0  0
 13  2  1  0  0  0  0
 14 13  2  0  0  0  0
 15 12  1  0  0  0  0
 16 11  1  0  0  0  0
 17 18  1  0  0  0  0
 18  5  1  0  0  0  0
 19  6  1  0  0  0  0
 16  6  1  0  0  0  0
  7  3  2  0  0  0  0
  9 10  1  0  0  0  0
M  END
>  <IDNUMBER>
F2189-0334

>  <Chemical_Name>
2-(2H-1,3-benzodioxol-5-yl)-2-(4-methylpiperazin-1-yl)ethan-1-amine

>  <PriceCoeff>
1.50

>  <CAS>
951919-35-0

>  <MW>
263.34

>  <Description>
oil

>  <FSP3>
0.57

>  <clogP>
1.65

>  <TPSA>
50.96

>  <Acceptor>
5

>  <Donor>
3

>  <RotBonds>
3

>  <HAC>
19

>  <Collection>
Advanced

>  <PPDS>
+

$$$$
F2189-0836
  Mrv2219 10102508112D          

 11 11  0  0  0  0            999 V2000
   -1.4466    2.4567    0.0000 C   0  0  0  0  0  0  0  0  0  0  0  0
   -2.1657    2.8683    0.0000 C   0  0  0  0  0  0  0  0  0  0  0  0
   -1.4466    1.6295    0.0000 C   0  0  0  0  0  0  0  0  0  0  0  0
   -0.7316    2.8683    0.0000 C   0  0  0  0  0  0  0  0  0  0  0  0
   -2.1657    1.2179    0.0000 C   0  0  0  0  0  0  0  0  0  0  0  0
   -2.8766    2.4567    0.0000 C   0  0  0  0  0  0  0  0  0  0  0  0
   -2.8766    1.6295    0.0000 C   0  0  0  0  0  0  0  0  0  0  0  0
    0.6901    2.8641    0.0000 N   0  0  0  0  0  0  0  0  0  0  0  0
   -0.7316    3.6955    0.0000 O   0  0  0  0  0  0  0  0  0  0  0  0
   -0.0208    2.4526    0.0000 C   0  0  0  0  0  0  0  0  0  0  0  0
   -3.5874    1.2221    0.0000 C   0  0  0  0  0  0  0  0  0  0  0  0
  2  1  2  0  0  0  0
  3  1  1  0  0  0  0
  4  1  1  0  0  0  0
  5  3  2  0  0  0  0
  6  2  1  0  0  0  0
  7  5  1  0  0  0  0
  8 10  1  0  0  0  0
  9  4  1  0  0  0  0
 10  4  1  0  0  0  0
 11  7  1  0  0  0  0
  7  6  2  0  0  0  0
M  END
>  <IDNUMBER>
F2189-0836

>  <Chemical_Name>
2-amino-1-(4-methylphenyl)ethan-1-ol

>  <PriceCoeff>
1.50

>  <CAS>
53360-85-3

>  <MW>
151.21

>  <Description>
solid

>  <FSP3>
0.33

>  <clogP>
0.77

>  <TPSA>
46.25

>  <Acceptor>
1

>  <Donor>
2

>  <RotBonds>
2

>  <HAC>
11

>  <Collection>
Advanced

>  <PPDS>
+

$$$$
F2189-0857
  Mrv2219 10102508112D          

 12 12  0  0  0  0            999 V2000
    9.0103  -20.2586    0.0000 C   0  0  0  0  0  0  0  0  0  0  0  0
    8.2838  -19.8452    0.0000 C   0  0  0  0  0  0  0  0  0  0  0  0
    9.0103  -21.0978    0.0000 C   0  0  0  0  0  0  0  0  0  0  0  0
    9.7243  -19.8452    0.0000 C   0  0  0  0  0  0  0  0  0  0  0  0
    7.5699  -20.2586    0.0000 C   0  0  0  0  0  0  0  0  0  0  0  0
    8.2838  -21.5112    0.0000 C   0  0  0  0  0  0  0  0  0  0  0  0
    7.5699  -21.0978    0.0000 C   0  0  0  0  0  0  0  0  0  0  0  0
   11.1523  -19.8327    0.0000 N   0  0  0  0  0  0  0  0  0  0  0  0
    9.7118  -19.0185    0.0000 O   0  0  0  0  0  0  0  0  0  0  0  0
   10.4383  -20.2461    0.0000 C   0  0  0  0  0  0  0  0  0  0  0  0
    6.8642  -21.5070    0.0000 C   0  0  0  0  0  0  0  0  0  0  0  0
    6.1502  -21.0978    0.0000 C   0  0  0  0  0  0  0  0  0  0  0  0
  2  1  2  0  0  0  0
  3  1  1  0  0  0  0
  4  1  1  0  0  0  0
  5  2  1  0  0  0  0
  6  3  2  0  0  0  0
  7  6  1  0  0  0  0
  8 10  1  0  0  0  0
  9  4  1  0  0  0  0
 10  4  1  0  0  0  0
 11  7  1  0  0  0  0
 12 11  1  0  0  0  0
  5  7  2  0  0  0  0
M  END
>  <IDNUMBER>
F2189-0857

>  <Chemical_Name>
2-amino-1-(4-ethylphenyl)ethan-1-ol

>  <PriceCoeff>
1.00

>  <CAS>
133562-39-7

>  <MW>
165.24

>  <Description>
solid

>  <FSP3>
0.40

>  <clogP>
1.43

>  <TPSA>
46.25

>  <Acceptor>
1

>  <Donor>
2

>  <RotBonds>
3

>  <HAC>
12

>  <Collection>
General

>  <PPDS>
+

$$$$
F2190-0411
  Mrv2219 10102508112D          

 13 14  0  0  0  0            999 V2000
    6.2377   -4.4620    0.0000 N   0  0  0  0  0  0  0  0  0  0  0  0
    5.8238   -3.7418    0.0000 C   0  0  0  0  0  0  0  0  0  0  0  0
    5.8238   -5.1698    0.0000 C   0  0  0  0  0  0  0  0  0  0  0  0
    6.2377   -3.0340    0.0000 C   0  0  0  0  0  0  0  0  0  0  0  0
    4.9960   -3.7501    0.0000 C   0  0  0  0  0  0  0  0  0  0  0  0
    4.9960   -5.1698    0.0000 C   0  0  0  0  0  0  0  0  0  0  0  0
    6.2335   -5.8859    0.0000 C   0  0  0  0  0  0  0  0  0  0  0  0
    4.5862   -3.0340    0.0000 C   0  0  0  0  0  0  0  0  0  0  0  0
    4.5820   -5.8776    0.0000 C   0  0  0  0  0  0  0  0  0  0  0  0
    5.8238   -6.5978    0.0000 C   0  0  0  0  0  0  0  0  0  0  0  0
    5.8238   -2.3221    0.0000 C   0  0  0  0  0  0  0  0  0  0  0  0
    4.9960   -2.3221    0.0000 C   0  0  0  0  0  0  0  0  0  0  0  0
    4.9960   -6.5978    0.0000 C   0  0  0  0  0  0  0  0  0  0  0  0
  2  1  1  0  0  0  0
  3  1  1  0  0  0  0
  4  2  2  0  0  0  0
  5  2  1  0  0  0  0
  6  3  2  0  0  0  0
  7  3  1  0  0  0  0
  8  5  2  0  0  0  0
  9  6  1  0  0  0  0
 10  7  2  0  0  0  0
 11  4  1  0  0  0  0
 12  8  1  0  0  0  0
 13 10  1  0  0  0  0
 13  9  2  0  0  0  0
 12 11  2  0  0  0  0
M  END
>  <IDNUMBER>
F2190-0411

>  <Chemical_Name>
N-phenylaniline

>  <PriceCoeff>
1.00

>  <CAS>
122-39-4

>  <MW>
169.23

>  <Description>
solid

>  <FSP3>
0.00

>  <clogP>
3.43

>  <TPSA>
12.03

>  <Acceptor>
1

>  <Donor>
1

>  <RotBonds>
2

>  <HAC>
13

>  <Collection>
General

>  <PPDS>
+

$$$$
F2191-0001
  Mrv2219 10102508112D          

 14 15  0  0  0  0            999 V2000
   -1.4625    1.2208    0.0000 C   0  0  0  0  0  0  0  0  0  0  0  0
   -2.1833    1.6333    0.0000 C   0  0  0  0  0  0  0  0  0  0  0  0
   -0.7458    1.6375    0.0000 C   0  0  0  0  0  0  0  0  0  0  0  0
   -2.8958    1.2208    0.0000 C   0  0  0  0  0  0  0  0  0  0  0  0
   -1.4625    0.3958    0.0000 C   0  0  0  0  0  0  0  0  0  0  0  0
   -0.7458    2.4625    0.0000 O   0  0  0  0  0  0  0  0  0  0  0  0
   -2.8958    0.3958    0.0000 C   0  0  0  0  0  0  0  0  0  0  0  0
   -2.1833   -0.0167    0.0000 C   0  0  0  0  0  0  0  0  0  0  0  0
   -2.1833    2.4583    0.0000 O   0  0  0  0  0  0  0  0  0  0  0  0
   -0.0208    1.2250    0.0000 O   0  0  0  0  0  0  0  0  0  0  0  0
   -3.6083    1.6250    0.0000 C   0  0  0  0  0  0  0  0  0  0  0  0
   -3.6083   -0.0167    0.0000 C   0  0  0  0  0  0  0  0  0  0  0  0
   -4.3208    1.2208    0.0000 C   0  0  0  0  0  0  0  0  0  0  0  0
   -4.3208    0.3958    0.0000 C   0  0  0  0  0  0  0  0  0  0  0  0
  2  1  1  0  0  0  0
  3  1  1  0  0  0  0
  4  2  2  0  0  0  0
  5  1  2  0  0  0  0
  6  3  2  0  0  0  0
  7  8  2  0  0  0  0
  8  5  1  0  0  0  0
  9  2  1  0  0  0  0
 10  3  1  0  0  0  0
 11  4  1  0  0  0  0
 12  7  1  0  0  0  0
 13 11  2  0  0  0  0
 14 12  2  0  0  0  0
  4  7  1  0  0  0  0
 13 14  1  0  0  0  0
M  END
>  <IDNUMBER>
F2191-0001

>  <Chemical_Name>
1-hydroxynaphthalene-2-carboxylic acid

>  <PriceCoeff>
1.00

>  <CAS>
86-48-6

>  <MW>
188.18

>  <Description>
solid

>  <FSP3>
0.00

>  <clogP>
2.24

>  <TPSA>
57.53

>  <Acceptor>
3

>  <Donor>
1

>  <RotBonds>
1

>  <HAC>
14

>  <Collection>
General

$$$$
F2191-0004
  Mrv2219 10102508112D          

 12 12  0  0  0  0            999 V2000
    5.7906   -4.0447    0.0000 C   0  0  0  0  0  0  0  0  0  0  0  0
    5.0798   -3.6332    0.0000 C   0  0  0  0  0  0  0  0  0  0  0  0
    4.3648   -4.0447    0.0000 C   0  0  0  0  0  0  0  0  0  0  0  0
    6.5098   -3.6332    0.0000 C   0  0  0  0  0  0  0  0  0  0  0  0
    4.3648   -4.8678    0.0000 C   0  0  0  0  0  0  0  0  0  0  0  0
    5.7906   -4.8678    0.0000 C   0  0  0  0  0  0  0  0  0  0  0  0
    6.5098   -2.8059    0.0000 O   0  0  0  0  0  0  0  0  0  0  0  0
    5.0798   -5.2793    0.0000 C   0  0  0  0  0  0  0  0  0  0  0  0
    3.6457   -3.6332    0.0000 O   0  0  0  0  0  0  0  0  0  0  0  0
    3.6457   -5.2918    0.0000 O   0  0  0  0  0  0  0  0  0  0  0  0
    7.2248   -4.0447    0.0000 C   0  0  0  0  0  0  0  0  0  0  0  0
    2.9348   -4.0530    0.0000 C   0  0  0  0  0  0  0  0  0  0  0  0
  2  1  2  0  0  0  0
  3  2  1  0  0  0  0
  4  1  1  0  0  0  0
  5  8  1  0  0  0  0
  6  1  1  0  0  0  0
  7  4  2  0  0  0  0
  8  6  2  0  0  0  0
  9  3  1  0  0  0  0
 10  5  1  0  0  0  0
 11  4  1  0  0  0  0
 12  9  1  0  0  0  0
  5  3  2  0  0  0  0
M  END
>  <IDNUMBER>
F2191-0004

>  <Chemical_Name>
1-(4-hydroxy-3-methoxyphenyl)ethan-1-one

>  <PriceCoeff>
1.00

>  <MW>
166.18

>  <Description>
solid

>  <FSP3>
0.22

>  <clogP>
1.60

>  <TPSA>
46.53

>  <Acceptor>
3

>  <Donor>
1

>  <RotBonds>
2

>  <HAC>
12

>  <Collection>
General

$$$$
F2191-0011
  Mrv2219 10102508112D          

 14 15  0  0  0  0            999 V2000
    4.8792   -2.5500    0.0000 C   0  0  0  0  0  0  0  0  0  0  0  0
    4.1667   -2.9667    0.0000 C   0  0  0  0  0  0  0  0  0  0  0  0
    3.4500   -2.5542    0.0000 C   0  0  0  0  0  0  0  0  0  0  0  0
    2.7375   -2.9708    0.0000 C   0  0  0  0  0  0  0  0  0  0  0  0
    2.7375   -3.7958    0.0000 C   0  0  0  0  0  0  0  0  0  0  0  0
    4.8750   -1.7250    0.0000 O   0  0  0  0  0  0  0  0  0  0  0  0
    2.0250   -4.2083    0.0000 C   0  0  0  0  0  0  0  0  0  0  0  0
    4.1667   -3.7958    0.0000 C   0  0  0  0  0  0  0  0  0  0  0  0
    3.4500   -4.2083    0.0000 C   0  0  0  0  0  0  0  0  0  0  0  0
    2.0250   -2.5583    0.0000 C   0  0  0  0  0  0  0  0  0  0  0  0
    1.3125   -3.7958    0.0000 C   0  0  0  0  0  0  0  0  0  0  0  0
    5.5958   -2.9583    0.0000 O   0  0  0  0  0  0  0  0  0  0  0  0
    0.6000   -4.2125    0.0000 N   0  0  0  0  0  0  0  0  0  0  0  0
    1.3125   -2.9708    0.0000 C   0  0  0  0  0  0  0  0  0  0  0  0
  2  1  1  0  0  0  0
  3  2  2  0  0  0  0
  4  3  1  0  0  0  0
  5  9  1  0  0  0  0
  6  1  2  0  0  0  0
  7  5  2  0  0  0  0
  8  2  1  0  0  0  0
  9  8  2  0  0  0  0
 10  4  2  0  0  0  0
 11  7  1  0  0  0  0
 12  1  1  0  0  0  0
 13 11  1  0  0  0  0
 14 10  1  0  0  0  0
  4  5  1  0  0  0  0
 11 14  2  0  0  0  0
M  END
>  <IDNUMBER>
F2191-0011

>  <Chemical_Name>
6-aminonaphthalene-2-carboxylic acid

>  <PriceCoeff>
1.00

>  <CAS>
116668-47-4

>  <MW>
187.20

>  <Description>
solid

>  <FSP3>
0.00

>  <clogP>
2.12

>  <TPSA>
63.32

>  <Acceptor>
3

>  <Donor>
1

>  <RotBonds>
1

>  <HAC>
14

>  <Collection>
General

>  <PPDS>
+

$$$$
F2191-0017
  Mrv2219 10102508112D          

 15 16  0  0  0  0            999 V2000
    4.6958   -0.4875    0.0000 C   0  0  0  0  0  0  0  0  0  0  0  0
    3.9833   -0.9042    0.0000 C   0  0  0  0  0  0  0  0  0  0  0  0
    3.2667   -0.4917    0.0000 C   0  0  0  0  0  0  0  0  0  0  0  0
    2.5542   -0.9083    0.0000 C   0  0  0  0  0  0  0  0  0  0  0  0
    2.5542   -1.7333    0.0000 C   0  0  0  0  0  0  0  0  0  0  0  0
    4.6917    0.3375    0.0000 O   0  0  0  0  0  0  0  0  0  0  0  0
    1.8417   -2.1458    0.0000 C   0  0  0  0  0  0  0  0  0  0  0  0
    3.9833   -1.7333    0.0000 C   0  0  0  0  0  0  0  0  0  0  0  0
    3.2667   -2.1458    0.0000 C   0  0  0  0  0  0  0  0  0  0  0  0
    1.8417   -0.4958    0.0000 C   0  0  0  0  0  0  0  0  0  0  0  0
    1.1292   -1.7333    0.0000 C   0  0  0  0  0  0  0  0  0  0  0  0
    5.4125   -0.8958    0.0000 O   0  0  0  0  0  0  0  0  0  0  0  0
    1.1292   -0.9083    0.0000 C   0  0  0  0  0  0  0  0  0  0  0  0
    0.4167   -2.1458    0.0000 O   0  0  0  0  0  0  0  0  0  0  0  0
    0.4208   -2.9708    0.0000 C   0  0  0  0  0  0  0  0  0  0  0  0
  2  1  1  0  0  0  0
  3  2  2  0  0  0  0
  4  3  1  0  0  0  0
  5  9  1  0  0  0  0
  6  1  2  0  0  0  0
  7  5  2  0  0  0  0
  8  2  1  0  0  0  0
  9  8  2  0  0  0  0
 10  4  2  0  0  0  0
 11  7  1  0  0  0  0
 12  1  1  0  0  0  0
 13 10  1  0  0  0  0
 14 11  1  0  0  0  0
 15 14  1  0  0  0  0
  4  5  1  0  0  0  0
 11 13  2  0  0  0  0
M  END
>  <IDNUMBER>
F2191-0017

>  <Chemical_Name>
6-methoxynaphthalene-2-carboxylic acid

>  <PriceCoeff>
1.00

>  <CAS>
2471-70-7

>  <MW>
202.21

>  <Description>
solid

>  <FSP3>
0.08

>  <clogP>
2.55

>  <TPSA>
46.53

>  <Acceptor>
3

>  <Donor>
0

>  <RotBonds>
2

>  <HAC>
15

>  <Collection>
General

>  <PPDS>
+

$$$$
F2191-0037
  Mrv2219 10102508112D          

 16 17  0  0  0  0            999 V2000
   11.5917   -9.0750    0.0000 C   0  0  0  0  0  0  0  0  0  0  0  0
   11.5917   -9.9000    0.0000 C   0  0  0  0  0  0  0  0  0  0  0  0
   10.8750   -8.6625    0.0000 O   0  0  0  0  0  0  0  0  0  0  0  0
   11.5917  -12.3792    0.0000 O   0  0  0  0  0  0  0  0  0  0  0  0
   10.8792  -10.3125    0.0000 C   0  0  0  0  0  0  0  0  0  0  0  0
   12.3125  -10.3125    0.0000 C   0  0  0  0  0  0  0  0  0  0  0  0
   11.5917  -11.5542    0.0000 C   0  0  0  0  0  0  0  0  0  0  0  0
   12.3042   -8.6542    0.0000 O   0  0  0  0  0  0  0  0  0  0  0  0
   10.8792  -11.1417    0.0000 C   0  0  0  0  0  0  0  0  0  0  0  0
   12.3125  -11.1417    0.0000 C   0  0  0  0  0  0  0  0  0  0  0  0
   12.3042  -12.7917    0.0000 C   0  0  0  0  0  0  0  0  0  0  0  0
   12.3000  -13.6167    0.0000 C   0  0  0  0  0  0  0  0  0  0  0  0
   13.0167  -12.3875    0.0000 C   0  0  0  0  0  0  0  0  0  0  0  0
   13.7250  -12.7917    0.0000 C   0  0  0  0  0  0  0  0  0  0  0  0
   13.0042  -14.0292    0.0000 C   0  0  0  0  0  0  0  0  0  0  0  0
   13.7250  -13.6250    0.0000 C   0  0  0  0  0  0  0  0  0  0  0  0
  2  1  1  0  0  0  0
  3  1  2  0  0  0  0
  4  7  1  0  0  0  0
  5  2  1  0  0  0  0
  6  2  2  0  0  0  0
  7 10  2  0  0  0  0
  8  1  1  0  0  0  0
  9  5  2  0  0  0  0
 10  6  1  0  0  0  0
 11  4  1  0  0  0  0
 12 11  2  0  0  0  0
 13 11  1  0  0  0  0
 14 13  2  0  0  0  0
 15 12  1  0  0  0  0
 16 14  1  0  0  0  0
  7  9  1  0  0  0  0
 16 15  2  0  0  0  0
M  END
>  <IDNUMBER>
F2191-0037

>  <Chemical_Name>
4-phenoxybenzoic acid

>  <PriceCoeff>
1.00

>  <CAS>
2215-77-2

>  <MW>
214.22

>  <Description>
solid

>  <FSP3>
0.00

>  <clogP>
3.18

>  <TPSA>
46.53

>  <Acceptor>
3

>  <Donor>
0

>  <RotBonds>
3

>  <HAC>
16

>  <Collection>
General

$$$$
F2191-0121
  Mrv2219 10102508112D          

  8  7  0  0  0  0            999 V2000
    0.3792    0.2958    0.0000 C   0  0  0  0  0  0  0  0  0  0  0  0
    0.3792    1.1208    0.0000 O   0  0  0  0  0  0  0  0  0  0  0  0
   -0.3333   -0.1250    0.0000 C   0  0  0  0  0  0  0  0  0  0  0  0
    1.0917   -0.1167    0.0000 O   0  0  0  0  0  0  0  0  0  0  0  0
   -1.0458    0.2875    0.0000 C   0  0  0  0  0  0  0  0  0  0  0  0
   -1.7583   -0.1292    0.0000 C   0  0  0  0  0  0  0  0  0  0  0  0
   -1.0458    1.1125    0.0000 C   0  0  0  0  0  0  0  0  0  0  0  0
   -2.4708    0.2833    0.0000 C   0  0  0  0  0  0  0  0  0  0  0  0
  2  1  2  0  0  0  0
  3  1  1  0  0  0  0
  4  1  1  0  0  0  0
  5  3  1  0  0  0  0
  6  5  1  0  0  0  0
  7  5  1  0  0  0  0
  8  6  1  0  0  0  0
M  END
>  <IDNUMBER>
F2191-0121

>  <Chemical_Name>
3-methylpentanoic acid

>  <PriceCoeff>
1.00

>  <CAS>
105-43-1

>  <MW>
116.16

>  <Description>
liquid

>  <FSP3>
0.83

>  <clogP>
1.51

>  <TPSA>
37.30

>  <Acceptor>
2

>  <Donor>
0

>  <RotBonds>
3

>  <HAC>
8

>  <Collection>
General

$$$$
F2191-0179
  Mrv2219 10102508112D          

 10 10  0  0  0  0            999 V2000
    2.3792   -5.3125    0.0000 C   0  0  0  0  0  0  0  0  0  0  0  0
    3.0917   -4.9000    0.0000 C   0  0  0  0  0  0  0  0  0  0  0  0
    2.3792   -6.1375    0.0000 C   0  0  0  0  0  0  0  0  0  0  0  0
    1.6625   -6.5500    0.0000 N   0  0  0  0  0  0  0  0  0  0  0  0
    3.0917   -4.0667    0.0000 O   0  0  0  0  0  0  0  0  0  0  0  0
    3.0917   -6.5500    0.0000 Cl  0  0  0  0  0  0  0  0  0  0  0  0
    3.8042   -5.3125    0.0000 O   0  0  0  0  0  0  0  0  0  0  0  0
    1.6625   -4.9000    0.0000 C   0  0  0  0  0  0  0  0  0  0  0  0
    0.9417   -6.1375    0.0000 C   0  0  0  0  0  0  0  0  0  0  0  0
    0.9417   -5.3125    0.0000 C   0  0  0  0  0  0  0  0  0  0  0  0
  2  1  1  0  0  0  0
  3  1  1  0  0  0  0
  4  3  2  0  0  0  0
  5  2  2  0  0  0  0
  6  3  1  0  0  0  0
  7  2  1  0  0  0  0
  8  1  2  0  0  0  0
  9 10  2  0  0  0  0
 10  8  1  0  0  0  0
  9  4  1  0  0  0  0
M  END
>  <IDNUMBER>
F2191-0179

>  <Chemical_Name>
2-chloropyridine-3-carboxylic acid

>  <PriceCoeff>
1.00

>  <CAS>
2942-59-8

>  <MW>
157.56

>  <Description>
solid

>  <FSP3>
0.00

>  <clogP>
1.43

>  <TPSA>
50.19

>  <Acceptor>
3

>  <Donor>
1

>  <RotBonds>
1

>  <HAC>
10

>  <Collection>
General

>  <PPDS>
+

$$$$
F2196-0154
  Mrv2219 10102508112D          

  8  8  0  0  0  0            999 V2000
    7.6944    0.6034    0.0000 C   0  0  0  0  0  0  0  0  0  0  0  0
    7.2075   -0.0624    0.0000 C   0  0  0  0  0  0  0  0  0  0  0  0
    7.3573    1.3566    0.0000 O   0  0  0  0  0  0  0  0  0  0  0  0
    6.7955   -1.3358    0.0000 O   0  0  0  0  0  0  0  0  0  0  0  0
    8.5142    0.5160    0.0000 O   0  0  0  0  0  0  0  0  0  0  0  0
    7.4655   -0.8489    0.0000 C   0  0  0  0  0  0  0  0  0  0  0  0
    6.3836   -0.0624    0.0000 C   0  0  0  0  0  0  0  0  0  0  0  0
    6.1339   -0.8489    0.0000 C   0  0  0  0  0  0  0  0  0  0  0  0
  2  1  1  0  0  0  0
  3  1  2  0  0  0  0
  4  6  1  0  0  0  0
  5  1  1  0  0  0  0
  6  2  1  0  0  0  0
  7  2  1  0  0  0  0
  8  7  1  0  0  0  0
  8  4  1  0  0  0  0
M  END
>  <IDNUMBER>
F2196-0154

>  <Chemical_Name>
oxolane-3-carboxylic acid

>  <PriceCoeff>
1.00

>  <CAS>
89364-31-8

>  <MW>
116.12

>  <Description>
liquid

>  <FSP3>
0.80

>  <clogP>
0.11

>  <TPSA>
46.53

>  <Acceptor>
3

>  <Donor>
0

>  <RotBonds>
1

>  <HAC>
8

>  <Collection>
General

>  <PPDS>
+

$$$$
F2199-0317
  Mrv2219 10102508112D          

 20 21  0  0  0  0            999 V2000
    0.0853   -1.9993    0.0000 C   0  0  0  0  0  0  0  0  0  0  0  0
    5.7997   -0.3493    0.0000 C   0  0  0  0  0  0  0  0  0  0  0  0
    5.0848   -0.7618    0.0000 C   0  0  0  0  0  0  0  0  0  0  0  0
    0.7948   -1.5868    0.0000 C   0  0  0  0  0  0  0  0  0  0  0  0
    4.3670   -0.3493    0.0000 C   0  0  0  0  0  0  0  0  0  0  0  0
    5.7997    0.4757    0.0000 O   0  0  0  0  0  0  0  0  0  0  0  0
    3.6575   -0.7618    0.0000 C   0  0  0  0  0  0  0  0  0  0  0  0
    2.9398   -0.3493    0.0000 O   0  0  0  0  0  0  0  0  0  0  0  0
   -0.6325   -2.4118    0.0000 F   0  0  0  0  0  0  0  0  0  0  0  0
    0.0853   -2.8243    0.0000 F   0  0  0  0  0  0  0  0  0  0  0  0
   -0.6325   -1.5868    0.0000 F   0  0  0  0  0  0  0  0  0  0  0  0
    1.5125   -1.9993    0.0000 C   0  0  0  0  0  0  0  0  0  0  0  0
    0.7948   -0.7618    0.0000 C   0  0  0  0  0  0  0  0  0  0  0  0
    2.2275   -0.7618    0.0000 C   0  0  0  0  0  0  0  0  0  0  0  0
    6.5120   -0.7618    0.0000 O   0  0  0  0  0  0  0  0  0  0  0  0
    2.2275   -1.5868    0.0000 C   0  0  0  0  0  0  0  0  0  0  0  0
    1.5125   -0.3493    0.0000 C   0  0  0  0  0  0  0  0  0  0  0  0
    5.0848   -1.5868    0.0000 C   0  0  0  0  0  0  0  0  0  0  0  0
    4.3670   -1.9993    0.0000 C   0  0  0  0  0  0  0  0  0  0  0  0
    3.6575   -1.5868    0.0000 C   0  0  0  0  0  0  0  0  0  0  0  0
  2  3  1  0  0  0  0
  3  5  1  0  0  0  0
  4  1  1  0  0  0  0
  5  7  2  0  0  0  0
  6  2  2  0  0  0  0
  7  8  1  0  0  0  0
  8 14  1  0  0  0  0
  9  1  1  0  0  0  0
 10  1  1  0  0  0  0
 11  1  1  0  0  0  0
 12  4  1  0  0  0  0
 13  4  2  0  0  0  0
 14 17  2  0  0  0  0
 15  2  1  0  0  0  0
 16 12  2  0  0  0  0
 17 13  1  0  0  0  0
 18 19  1  0  0  0  0
 19 20  2  0  0  0  0
 20  7  1  0  0  0  0
 16 14  1  0  0  0  0
 18  3  2  0  0  0  0
M  END
>  <IDNUMBER>
F2199-0317

>  <Chemical_Name>
3-[4-(trifluoromethyl)phenoxy]benzoic acid

>  <PriceCoeff>
1.00

>  <CAS>
72178-29-1

>  <MW>
282.22

>  <Description>
solid

>  <FSP3>
0.07

>  <clogP>
4.01

>  <TPSA>
46.53

>  <Acceptor>
3

>  <Donor>
0

>  <RotBonds>
4

>  <HAC>
20

>  <Collection>
General

>  <PPDS>
+

$$$$
F2204-0089
  Mrv2219 10102508112D          

 31 34  0  0  0  0            999 V2000
   -3.1012    1.6720    0.0000 C   0  0  0  0  0  0  0  0  0  0  0  0
   -3.1012    2.4965    0.0000 C   0  0  0  0  0  0  0  0  0  0  0  0
   -1.6766    1.6720    0.0000 N   0  0  0  0  0  0  0  0  0  0  0  0
   -3.8845    2.7439    0.0000 C   0  0  0  0  0  0  0  0  0  0  0  0
   -2.3912    1.2597    0.0000 C   0  0  0  0  0  0  0  0  0  0  0  0
   -1.6766    2.4965    0.0000 C   0  0  0  0  0  0  0  0  0  0  0  0
   -3.8845    1.4155    0.0000 N   0  0  0  0  0  0  0  0  0  0  0  0
   -2.3912    2.9088    0.0000 N   0  0  0  0  0  0  0  0  0  0  0  0
   -4.3655    2.0888    0.0000 C   0  0  0  0  0  0  0  0  0  0  0  0
   -4.3838    6.4910    0.0000 N   0  3  0  0  0  0  0  0  0  0  0  0
   -4.9289    5.8726    0.0000 C   0  0  0  0  0  0  0  0  0  0  0  0
   -4.1456    3.5409    0.0000 C   0  0  0  0  0  0  0  0  0  0  0  0
   -4.9564    3.7058    0.0000 N   0  0  0  0  0  0  0  0  0  0  0  0
   -4.6678    5.0893    0.0000 C   0  0  0  0  0  0  0  0  0  0  0  0
   -0.9711    1.2597    0.0000 C   0  0  0  0  0  0  0  0  0  0  0  0
   -0.9573    2.9088    0.0000 O   0  0  0  0  0  0  0  0  0  0  0  0
   -2.3912    0.4351    0.0000 O   0  0  0  0  0  0  0  0  0  0  0  0
   -5.7397    6.0375    0.0000 C   0  0  0  0  0  0  0  0  0  0  0  0
   -3.5821    6.3261    0.0000 O   0  5  0  0  0  0  0  0  0  0  0  0
   -4.6449    7.2697    0.0000 O   0  0  0  0  0  0  0  0  0  0  0  0
   -5.2175    4.4800    0.0000 C   0  0  0  0  0  0  0  0  0  0  0  0
   -3.5959    4.1502    0.0000 O   0  0  0  0  0  0  0  0  0  0  0  0
   -6.2894    5.4191    0.0000 C   0  0  0  0  0  0  0  0  0  0  0  0
   -4.1456    0.6275    0.0000 C   0  0  0  0  0  0  0  0  0  0  0  0
   -6.0192    4.6358    0.0000 C   0  0  0  0  0  0  0  0  0  0  0  0
   -6.0008    6.8300    0.0000 Cl  0  0  0  0  0  0  0  0  0  0  0  0
   -0.9711    0.4351    0.0000 C   0  0  0  0  0  0  0  0  0  0  0  0
   -0.2565    1.6720    0.0000 C   0  0  0  0  0  0  0  0  0  0  0  0
    0.4581    1.2597    0.0000 C   0  0  0  0  0  0  0  0  0  0  0  0
   -0.2565    0.0229    0.0000 C   0  0  0  0  0  0  0  0  0  0  0  0
    0.4581    0.4351    0.0000 C   0  0  0  0  0  0  0  0  0  0  0  0
  2  1  2  0  0  0  0
  3  5  1  0  0  0  0
  4  2  1  0  0  0  0
  5  1  1  0  0  0  0
  6  3  1  0  0  0  0
  7  1  1  0  0  0  0
  8  2  1  0  0  0  0
  9  7  1  0  0  0  0
 10 11  1  0  0  0  0
 11 14  1  0  0  0  0
 12  4  1  0  0  0  0
 13 12  1  0  0  0  0
 14 21  2  0  0  0  0
 15  3  1  0  0  0  0
 16  6  2  0  0  0  0
 17  5  2  0  0  0  0
 18 23  1  0  0  0  0
 19 10  1  0  0  0  0
 20 10  2  0  0  0  0
 21 13  1  0  0  0  0
 22 12  2  0  0  0  0
 23 25  2  0  0  0  0
 24  7  1  0  0  0  0
 25 21  1  0  0  0  0
 26 18  1  0  0  0  0
 27 15  1  0  0  0  0
 28 15  2  0  0  0  0
 29 28  1  0  0  0  0
 30 27  2  0  0  0  0
 31 29  2  0  0  0  0
  4  9  2  0  0  0  0
  6  8  1  0  0  0  0
 30 31  1  0  0  0  0
 18 11  2  0  0  0  0
M  CHG  2  10   1  19  -1
M  END
>  <IDNUMBER>
F2204-0089

>  <Chemical_Name>
N-(4-chloro-3-nitrophenyl)-5-methyl-2,4-dioxo-3-phenyl-1H,2H,3H,4H,5H-pyrrolo[3,2-d]pyrimidine-7-carboxamide

>  <PriceCoeff>
1.00

>  <CAS>
923141-06-4

>  <MW>
439.81

>  <Description>
solid

>  <FSP3>
0.05

>  <clogP>
4.36

>  <TPSA>
126.58

>  <Acceptor>
5

>  <Donor>
2

>  <RotBonds>
4

>  <HAC>
31

>  <Collection>
General

>  <PPDS>
+

$$$$
F2206-0129
  Mrv2219 10102508112D          

 29 32  0  0  0  0            999 V2000
   -2.7640    8.7723    0.0000 C   0  0  0  0  0  0  0  0  0  0  0  0
   -2.5052    7.9957    0.0000 N   0  0  0  0  0  0  0  0  0  0  0  0
   -3.5907    8.7723    0.0000 N   0  0  0  0  0  0  0  0  0  0  0  0
   -2.3549    9.4988    0.0000 N   0  0  0  0  0  0  0  0  0  0  0  0
   -3.1774    7.5072    0.0000 C   0  0  0  0  0  0  0  0  0  0  0  0
   -3.8663    0.5010    0.0000 N   0  3  0  0  0  0  0  0  0  0  0  0
   -3.8788    2.9895    0.0000 C   0  0  0  0  0  0  0  0  0  0  0  0
   -3.8788    3.8079    0.0000 C   0  0  0  0  0  0  0  0  0  0  0  0
   -3.8412    7.9832    0.0000 C   0  0  0  0  0  0  0  0  0  0  0  0
   -4.5928    2.5761    0.0000 C   0  0  0  0  0  0  0  0  0  0  0  0
   -4.0083    9.4863    0.0000 C   0  0  0  0  0  0  0  0  0  0  0  0
   -3.8663    1.3361    0.0000 C   0  0  0  0  0  0  0  0  0  0  0  0
   -4.5928    1.7494    0.0000 C   0  0  0  0  0  0  0  0  0  0  0  0
   -3.5949   10.2003    0.0000 C   0  0  0  0  0  0  0  0  0  0  0  0
   -3.1648    4.2129    0.0000 N   0  0  0  0  0  0  0  0  0  0  0  0
   -3.1648    2.5761    0.0000 C   0  0  0  0  0  0  0  0  0  0  0  0
   -2.7765   10.2128    0.0000 C   0  0  0  0  0  0  0  0  0  0  0  0
   -3.1691    6.6805    0.0000 C   0  0  0  0  0  0  0  0  0  0  0  0
   -4.5677    0.0960    0.0000 O   0  5  0  0  0  0  0  0  0  0  0  0
   -3.1523    0.1002    0.0000 O   0  0  0  0  0  0  0  0  0  0  0  0
   -4.5928    4.2129    0.0000 O   0  0  0  0  0  0  0  0  0  0  0  0
   -3.1523    1.7494    0.0000 C   0  0  0  0  0  0  0  0  0  0  0  0
   -3.8830    6.2672    0.0000 C   0  0  0  0  0  0  0  0  0  0  0  0
   -2.4509    6.2797    0.0000 C   0  0  0  0  0  0  0  0  0  0  0  0
   -3.1648    5.0354    0.0000 C   0  0  0  0  0  0  0  0  0  0  0  0
   -5.2985    2.9770    0.0000 Cl  0  0  0  0  0  0  0  0  0  0  0  0
   -3.8830    5.4488    0.0000 C   0  0  0  0  0  0  0  0  0  0  0  0
   -2.4509    5.4530    0.0000 C   0  0  0  0  0  0  0  0  0  0  0  0
   -2.3674   10.9268    0.0000 C   0  0  0  0  0  0  0  0  0  0  0  0
  2  1  2  0  0  0  0
  3  1  1  0  0  0  0
  4  1  1  0  0  0  0
  5  2  1  0  0  0  0
  6 12  1  0  0  0  0
  7  8  1  0  0  0  0
  8 15  1  0  0  0  0
  9  3  1  0  0  0  0
 10  7  1  0  0  0  0
 11  3  1  0  0  0  0
 12 22  2  0  0  0  0
 13 10  2  0  0  0  0
 14 17  1  0  0  0  0
 15 25  1  0  0  0  0
 16  7  2  0  0  0  0
 17  4  2  0  0  0  0
 18  5  1  0  0  0  0
 19  6  1  0  0  0  0
 20  6  2  0  0  0  0
 21  8  2  0  0  0  0
 22 16  1  0  0  0  0
 23 18  2  0  0  0  0
 24 18  1  0  0  0  0
 25 28  1  0  0  0  0
 26 10  1  0  0  0  0
 27 23  1  0  0  0  0
 28 24  2  0  0  0  0
 29 17  1  0  0  0  0
  9  5  2  0  0  0  0
 14 11  2  0  0  0  0
 27 25  2  0  0  0  0
 13 12  1  0  0  0  0
M  CHG  2   6   1  19  -1
M  END
>  <IDNUMBER>
F2206-0129

>  <Chemical_Name>
2-chloro-N-(4-{7-methylimidazo[1,2-a]pyrimidin-2-yl}phenyl)-4-nitrobenzamide

>  <PriceCoeff>
1.00

>  <CAS>
923122-37-6

>  <MW>
407.81

>  <Description>
solid

>  <FSP3>
0.05

>  <clogP>
3.55

>  <TPSA>
102.43

>  <Acceptor>
5

>  <Donor>
1

>  <RotBonds>
4

>  <HAC>
29

>  <Collection>
General

$$$$
F2211-0001
  Mrv2219 10102508112D          

 18 20  0  0  0  0            999 V2000
    6.3042   -8.2292    0.0000 C   0  0  0  0  0  0  0  0  0  0  0  0
    6.3000   -9.0542    0.0000 C   0  0  0  0  0  0  0  0  0  0  0  0
    4.8667   -9.0500    0.0000 C   0  0  0  0  0  0  0  0  0  0  0  0
    5.5792   -9.4625    0.0000 C   0  0  0  0  0  0  0  0  0  0  0  0
    5.5875   -7.8125    0.0000 O   0  0  0  0  0  0  0  0  0  0  0  0
    4.8750   -8.2250    0.0000 C   0  0  0  0  0  0  0  0  0  0  0  0
    4.1625   -9.4625    0.0000 C   0  0  0  0  0  0  0  0  0  0  0  0
    7.0167   -7.8167    0.0000 C   0  0  0  0  0  0  0  0  0  0  0  0
    5.5792  -10.2875    0.0000 O   0  0  0  0  0  0  0  0  0  0  0  0
    4.1625   -7.8125    0.0000 C   0  0  0  0  0  0  0  0  0  0  0  0
    3.4417   -9.0542    0.0000 C   0  0  0  0  0  0  0  0  0  0  0  0
    2.7292   -9.4667    0.0000 N   0  0  0  0  0  0  0  0  0  0  0  0
    3.4417   -8.2250    0.0000 C   0  0  0  0  0  0  0  0  0  0  0  0
    7.0167   -6.9917    0.0000 C   0  0  0  0  0  0  0  0  0  0  0  0
    7.7292   -8.2292    0.0000 C   0  0  0  0  0  0  0  0  0  0  0  0
    8.4417   -7.8250    0.0000 C   0  0  0  0  0  0  0  0  0  0  0  0
    7.7292   -6.5792    0.0000 C   0  0  0  0  0  0  0  0  0  0  0  0
    8.4417   -7.0000    0.0000 C   0  0  0  0  0  0  0  0  0  0  0  0
  2  1  2  0  0  0  0
  3  6  1  0  0  0  0
  4  2  1  0  0  0  0
  5  1  1  0  0  0  0
  6  5  1  0  0  0  0
  7  3  2  0  0  0  0
  8  1  1  0  0  0  0
  9  4  2  0  0  0  0
 10  6  2  0  0  0  0
 11 13  2  0  0  0  0
 12 11  1  0  0  0  0
 13 10  1  0  0  0  0
 14  8  1  0  0  0  0
 15  8  2  0  0  0  0
 16 15  1  0  0  0  0
 17 14  2  0  0  0  0
 18 16  2  0  0  0  0
  4  3  1  0  0  0  0
 18 17  1  0  0  0  0
 11  7  1  0  0  0  0
M  END
>  <IDNUMBER>
F2211-0001

>  <Chemical_Name>
6-amino-2-phenyl-4H-chromen-4-one

>  <PriceCoeff>
1.00

>  <CAS>
4613-53-0

>  <MW>
237.25

>  <Description>
solid

>  <FSP3>
0.00

>  <clogP>
2.63

>  <TPSA>
52.32

>  <Acceptor>
3

>  <Donor>
1

>  <RotBonds>
1

>  <HAC>
18

>  <Collection>
General

$$$$
F2211-0002
  Mrv2219 10102508112D          

 19 21  0  0  0  0            999 V2000
    6.3042   -8.2292    0.0000 C   0  0  0  0  0  0  0  0  0  0  0  0
    6.3000   -9.0542    0.0000 C   0  0  0  0  0  0  0  0  0  0  0  0
    5.5875   -7.8125    0.0000 O   0  0  0  0  0  0  0  0  0  0  0  0
    4.8667   -9.0500    0.0000 C   0  0  0  0  0  0  0  0  0  0  0  0
    5.5792   -9.4625    0.0000 C   0  0  0  0  0  0  0  0  0  0  0  0
    4.8750   -8.2250    0.0000 C   0  0  0  0  0  0  0  0  0  0  0  0
    7.0167   -7.8167    0.0000 C   0  0  0  0  0  0  0  0  0  0  0  0
    4.1625   -9.4625    0.0000 C   0  0  0  0  0  0  0  0  0  0  0  0
    5.5792  -10.2875    0.0000 O   0  0  0  0  0  0  0  0  0  0  0  0
    4.1625   -7.8125    0.0000 C   0  0  0  0  0  0  0  0  0  0  0  0
    7.7292   -8.2292    0.0000 C   0  0  0  0  0  0  0  0  0  0  0  0
    3.4417   -9.0542    0.0000 C   0  0  0  0  0  0  0  0  0  0  0  0
    2.7292   -9.4667    0.0000 N   0  0  0  0  0  0  0  0  0  0  0  0
    3.4417   -8.2250    0.0000 C   0  0  0  0  0  0  0  0  0  0  0  0
    7.0167   -6.9917    0.0000 C   0  0  0  0  0  0  0  0  0  0  0  0
    7.7167   -9.0542    0.0000 C   0  0  0  0  0  0  0  0  0  0  0  0
    8.4417   -7.8250    0.0000 C   0  0  0  0  0  0  0  0  0  0  0  0
    7.7292   -6.5792    0.0000 C   0  0  0  0  0  0  0  0  0  0  0  0
    8.4417   -7.0000    0.0000 C   0  0  0  0  0  0  0  0  0  0  0  0
  2  1  2  0  0  0  0
  3  1  1  0  0  0  0
  4  6  1  0  0  0  0
  5  2  1  0  0  0  0
  6  3  1  0  0  0  0
  7  1  1  0  0  0  0
  8  4  2  0  0  0  0
  9  5  2  0  0  0  0
 10  6  2  0  0  0  0
 11  7  2  0  0  0  0
 12 14  2  0  0  0  0
 13 12  1  0  0  0  0
 14 10  1  0  0  0  0
 15  7  1  0  0  0  0
 16 11  1  0  0  0  0
 17 11  1  0  0  0  0
 18 15  2  0  0  0  0
 19 18  1  0  0  0  0
  5  4  1  0  0  0  0
 19 17  2  0  0  0  0
 12  8  1  0  0  0  0
M  END
>  <IDNUMBER>
F2211-0002

>  <Chemical_Name>
6-amino-2-(2-methylphenyl)-4H-chromen-4-one

>  <PriceCoeff>
1.00

>  <CAS>
923184-85-4

>  <MW>
251.28

>  <Description>
solid

>  <FSP3>
0.06

>  <clogP>
2.83

>  <TPSA>
52.32

>  <Acceptor>
3

>  <Donor>
1

>  <RotBonds>
1

>  <HAC>
19

>  <Collection>
General

>  <PPDS>
+

$$$$
F2211-0003
  Mrv2219 10102508112D          

 19 21  0  0  0  0            999 V2000
    6.3042   -8.2292    0.0000 C   0  0  0  0  0  0  0  0  0  0  0  0
    6.3000   -9.0542    0.0000 C   0  0  0  0  0  0  0  0  0  0  0  0
    4.8667   -9.0500    0.0000 C   0  0  0  0  0  0  0  0  0  0  0  0
    5.5792   -9.4625    0.0000 C   0  0  0  0  0  0  0  0  0  0  0  0
    5.5875   -7.8125    0.0000 O   0  0  0  0  0  0  0  0  0  0  0  0
    4.8750   -8.2250    0.0000 C   0  0  0  0  0  0  0  0  0  0  0  0
    7.0167   -7.8167    0.0000 C   0  0  0  0  0  0  0  0  0  0  0  0
    4.1625   -9.4625    0.0000 C   0  0  0  0  0  0  0  0  0  0  0  0
    5.5792  -10.2875    0.0000 O   0  0  0  0  0  0  0  0  0  0  0  0
    7.7292   -8.2292    0.0000 C   0  0  0  0  0  0  0  0  0  0  0  0
    4.1625   -7.8125    0.0000 C   0  0  0  0  0  0  0  0  0  0  0  0
    3.4417   -9.0542    0.0000 C   0  0  0  0  0  0  0  0  0  0  0  0
    2.7292   -9.4667    0.0000 N   0  0  0  0  0  0  0  0  0  0  0  0
    3.4417   -8.2250    0.0000 C   0  0  0  0  0  0  0  0  0  0  0  0
    8.4417   -7.8250    0.0000 C   0  0  0  0  0  0  0  0  0  0  0  0
    7.0167   -6.9917    0.0000 C   0  0  0  0  0  0  0  0  0  0  0  0
    7.7292   -6.5792    0.0000 C   0  0  0  0  0  0  0  0  0  0  0  0
    8.4417   -7.0000    0.0000 C   0  0  0  0  0  0  0  0  0  0  0  0
    9.1542   -8.2417    0.0000 C   0  0  0  0  0  0  0  0  0  0  0  0
  2  1  2  0  0  0  0
  3  6  1  0  0  0  0
  4  2  1  0  0  0  0
  5  1  1  0  0  0  0
  6  5  1  0  0  0  0
  7  1  1  0  0  0  0
  8  3  2  0  0  0  0
  9  4  2  0  0  0  0
 10  7  2  0  0  0  0
 11  6  2  0  0  0  0
 12 14  2  0  0  0  0
 13 12  1  0  0  0  0
 14 11  1  0  0  0  0
 15 10  1  0  0  0  0
 16  7  1  0  0  0  0
 17 16  2  0  0  0  0
 18 17  1  0  0  0  0
 19 15  1  0  0  0  0
  4  3  1  0  0  0  0
 18 15  2  0  0  0  0
 12  8  1  0  0  0  0
M  END
>  <IDNUMBER>
F2211-0003

>  <Chemical_Name>
6-amino-2-(3-methylphenyl)-4H-chromen-4-one

>  <PriceCoeff>
1.00

>  <CAS>
923184-83-2

>  <MW>
251.28

>  <Description>
solid

>  <FSP3>
0.06

>  <clogP>
3.13

>  <TPSA>
52.32

>  <Acceptor>
3

>  <Donor>
1

>  <RotBonds>
1

>  <HAC>
19

>  <Collection>
General

$$$$
F2211-0005
  Mrv2219 10102508112D          

 19 21  0  0  0  0            999 V2000
    6.3042   -8.2292    0.0000 C   0  0  0  0  0  0  0  0  0  0  0  0
    6.3000   -9.0542    0.0000 C   0  0  0  0  0  0  0  0  0  0  0  0
    5.5875   -7.8125    0.0000 O   0  0  0  0  0  0  0  0  0  0  0  0
    4.8667   -9.0500    0.0000 C   0  0  0  0  0  0  0  0  0  0  0  0
    5.5792   -9.4625    0.0000 C   0  0  0  0  0  0  0  0  0  0  0  0
    4.8750   -8.2250    0.0000 C   0  0  0  0  0  0  0  0  0  0  0  0
    7.0167   -7.8167    0.0000 C   0  0  0  0  0  0  0  0  0  0  0  0
    4.1625   -9.4625    0.0000 C   0  0  0  0  0  0  0  0  0  0  0  0
    7.0167   -6.9917    0.0000 C   0  0  0  0  0  0  0  0  0  0  0  0
    5.5792  -10.2875    0.0000 O   0  0  0  0  0  0  0  0  0  0  0  0
    4.1625   -7.8125    0.0000 C   0  0  0  0  0  0  0  0  0  0  0  0
    3.4417   -9.0542    0.0000 C   0  0  0  0  0  0  0  0  0  0  0  0
    6.3042   -6.5792    0.0000 F   0  0  0  0  0  0  0  0  0  0  0  0
    2.7292   -9.4667    0.0000 N   0  0  0  0  0  0  0  0  0  0  0  0
    3.4417   -8.2250    0.0000 C   0  0  0  0  0  0  0  0  0  0  0  0
    7.7292   -8.2292    0.0000 C   0  0  0  0  0  0  0  0  0  0  0  0
    7.7292   -6.5792    0.0000 C   0  0  0  0  0  0  0  0  0  0  0  0
    8.4417   -7.8250    0.0000 C   0  0  0  0  0  0  0  0  0  0  0  0
    8.4417   -7.0000    0.0000 C   0  0  0  0  0  0  0  0  0  0  0  0
  2  1  2  0  0  0  0
  3  1  1  0  0  0  0
  4  6  1  0  0  0  0
  5  2  1  0  0  0  0
  6  3  1  0  0  0  0
  7  1  1  0  0  0  0
  8  4  2  0  0  0  0
  9  7  1  0  0  0  0
 10  5  2  0  0  0  0
 11  6  2  0  0  0  0
 12 15  2  0  0  0  0
 13  9  1  0  0  0  0
 14 12  1  0  0  0  0
 15 11  1  0  0  0  0
 16  7  2  0  0  0  0
 17  9  2  0  0  0  0
 18 16  1  0  0  0  0
 19 18  2  0  0  0  0
  5  4  1  0  0  0  0
 19 17  1  0  0  0  0
 12  8  1  0  0  0  0
M  END
>  <IDNUMBER>
F2211-0005

>  <Chemical_Name>
6-amino-2-(2-fluorophenyl)-4H-chromen-4-one

>  <PriceCoeff>
1.00

>  <CAS>
923233-84-5

>  <MW>
255.24

>  <Description>
solid

>  <FSP3>
0.00

>  <clogP>
2.77

>  <TPSA>
52.32

>  <Acceptor>
3

>  <Donor>
1

>  <RotBonds>
1

>  <HAC>
19

>  <Collection>
General

>  <PPDS>
+

$$$$
F2211-0006
  Mrv2219 10102508112D          

 19 21  0  0  0  0            999 V2000
    6.3042   -8.2292    0.0000 C   0  0  0  0  0  0  0  0  0  0  0  0
    6.3000   -9.0542    0.0000 C   0  0  0  0  0  0  0  0  0  0  0  0
    4.8667   -9.0500    0.0000 C   0  0  0  0  0  0  0  0  0  0  0  0
    5.5792   -9.4625    0.0000 C   0  0  0  0  0  0  0  0  0  0  0  0
    5.5875   -7.8125    0.0000 O   0  0  0  0  0  0  0  0  0  0  0  0
    4.8750   -8.2250    0.0000 C   0  0  0  0  0  0  0  0  0  0  0  0
    7.0167   -7.8167    0.0000 C   0  0  0  0  0  0  0  0  0  0  0  0
    4.1625   -9.4625    0.0000 C   0  0  0  0  0  0  0  0  0  0  0  0
    5.5792  -10.2875    0.0000 O   0  0  0  0  0  0  0  0  0  0  0  0
    4.1625   -7.8125    0.0000 C   0  0  0  0  0  0  0  0  0  0  0  0
    7.0167   -6.9917    0.0000 C   0  0  0  0  0  0  0  0  0  0  0  0
    7.7292   -8.2292    0.0000 C   0  0  0  0  0  0  0  0  0  0  0  0
    3.4417   -9.0542    0.0000 C   0  0  0  0  0  0  0  0  0  0  0  0
    8.4417   -7.0000    0.0000 C   0  0  0  0  0  0  0  0  0  0  0  0
    2.7292   -9.4667    0.0000 N   0  0  0  0  0  0  0  0  0  0  0  0
    3.4417   -8.2250    0.0000 C   0  0  0  0  0  0  0  0  0  0  0  0
    8.4417   -7.8250    0.0000 C   0  0  0  0  0  0  0  0  0  0  0  0
    7.7292   -6.5792    0.0000 C   0  0  0  0  0  0  0  0  0  0  0  0
    9.1667   -6.5917    0.0000 F   0  0  0  0  0  0  0  0  0  0  0  0
  2  1  2  0  0  0  0
  3  6  1  0  0  0  0
  4  2  1  0  0  0  0
  5  1  1  0  0  0  0
  6  5  1  0  0  0  0
  7  1  1  0  0  0  0
  8  3  2  0  0  0  0
  9  4  2  0  0  0  0
 10  6  2  0  0  0  0
 11  7  1  0  0  0  0
 12  7  2  0  0  0  0
 13 16  2  0  0  0  0
 14 17  2  0  0  0  0
 15 13  1  0  0  0  0
 16 10  1  0  0  0  0
 17 12  1  0  0  0  0
 18 11  2  0  0  0  0
 19 14  1  0  0  0  0
  4  3  1  0  0  0  0
 14 18  1  0  0  0  0
 13  8  1  0  0  0  0
M  END
>  <IDNUMBER>
F2211-0006

>  <Chemical_Name>
6-amino-2-(4-fluorophenyl)-4H-chromen-4-one

>  <PriceCoeff>
1.00

>  <CAS>
923693-49-6

>  <MW>
255.24

>  <Description>
solid

>  <FSP3>
0.00

>  <clogP>
2.77

>  <TPSA>
52.32

>  <Acceptor>
3

>  <Donor>
1

>  <RotBonds>
1

>  <HAC>
19

>  <Collection>
General

$$$$
F2211-0008
  Mrv2219 10102508112D          

 20 22  0  0  0  0            999 V2000
    6.3042   -8.2292    0.0000 C   0  0  0  0  0  0  0  0  0  0  0  0
    6.3000   -9.0542    0.0000 C   0  0  0  0  0  0  0  0  0  0  0  0
    5.5875   -7.8125    0.0000 O   0  0  0  0  0  0  0  0  0  0  0  0
    4.8667   -9.0500    0.0000 C   0  0  0  0  0  0  0  0  0  0  0  0
    5.5792   -9.4625    0.0000 C   0  0  0  0  0  0  0  0  0  0  0  0
    4.8750   -8.2250    0.0000 C   0  0  0  0  0  0  0  0  0  0  0  0
    7.0167   -7.8167    0.0000 C   0  0  0  0  0  0  0  0  0  0  0  0
    4.1625   -9.4625    0.0000 C   0  0  0  0  0  0  0  0  0  0  0  0
    5.5792  -10.2875    0.0000 O   0  0  0  0  0  0  0  0  0  0  0  0
    7.7292   -8.2292    0.0000 C   0  0  0  0  0  0  0  0  0  0  0  0
    4.1625   -7.8125    0.0000 C   0  0  0  0  0  0  0  0  0  0  0  0
    3.4417   -9.0542    0.0000 C   0  0  0  0  0  0  0  0  0  0  0  0
    2.7292   -9.4667    0.0000 N   0  0  0  0  0  0  0  0  0  0  0  0
    3.4417   -8.2250    0.0000 C   0  0  0  0  0  0  0  0  0  0  0  0
    7.7250   -9.0542    0.0000 O   0  0  0  0  0  0  0  0  0  0  0  0
    7.0167   -6.9917    0.0000 C   0  0  0  0  0  0  0  0  0  0  0  0
    8.4417   -7.8250    0.0000 C   0  0  0  0  0  0  0  0  0  0  0  0
    8.4375   -9.4667    0.0000 C   0  0  0  0  0  0  0  0  0  0  0  0
    7.7292   -6.5792    0.0000 C   0  0  0  0  0  0  0  0  0  0  0  0
    8.4417   -7.0000    0.0000 C   0  0  0  0  0  0  0  0  0  0  0  0
  2  1  2  0  0  0  0
  3  1  1  0  0  0  0
  4  6  1  0  0  0  0
  5  2  1  0  0  0  0
  6  3  1  0  0  0  0
  7  1  1  0  0  0  0
  8  4  2  0  0  0  0
  9  5  2  0  0  0  0
 10  7  2  0  0  0  0
 11  6  2  0  0  0  0
 12 14  2  0  0  0  0
 13 12  1  0  0  0  0
 14 11  1  0  0  0  0
 15 10  1  0  0  0  0
 16  7  1  0  0  0  0
 17 10  1  0  0  0  0
 18 15  1  0  0  0  0
 19 16  2  0  0  0  0
 20 19  1  0  0  0  0
  5  4  1  0  0  0  0
 20 17  2  0  0  0  0
 12  8  1  0  0  0  0
M  END
>  <IDNUMBER>
F2211-0008

>  <Chemical_Name>
6-amino-2-(2-methoxyphenyl)-4H-chromen-4-one

>  <PriceCoeff>
1.00

>  <CAS>
55160-75-3

>  <MW>
267.28

>  <Description>
solid

>  <FSP3>
0.06

>  <clogP>
2.00

>  <TPSA>
61.55

>  <Acceptor>
4

>  <Donor>
1

>  <RotBonds>
2

>  <HAC>
20

>  <Collection>
General

>  <PPDS>
+

$$$$
F2211-0016
  Mrv2219 10102508112D          

 22 24  0  0  0  0            999 V2000
    6.3042   -8.2292    0.0000 C   0  0  0  0  0  0  0  0  0  0  0  0
    6.3000   -9.0542    0.0000 C   0  0  0  0  0  0  0  0  0  0  0  0
    4.8667   -9.0500    0.0000 C   0  0  0  0  0  0  0  0  0  0  0  0
    5.5792   -9.4625    0.0000 C   0  0  0  0  0  0  0  0  0  0  0  0
    5.5875   -7.8125    0.0000 O   0  0  0  0  0  0  0  0  0  0  0  0
    4.8750   -8.2250    0.0000 C   0  0  0  0  0  0  0  0  0  0  0  0
    7.0167   -7.8167    0.0000 C   0  0  0  0  0  0  0  0  0  0  0  0
    4.1625   -9.4625    0.0000 C   0  0  0  0  0  0  0  0  0  0  0  0
    9.1625   -6.5875    0.0000 C   0  0  0  0  0  0  0  0  0  0  0  0
    8.4417   -7.0000    0.0000 C   0  0  0  0  0  0  0  0  0  0  0  0
    5.5792  -10.2875    0.0000 O   0  0  0  0  0  0  0  0  0  0  0  0
    4.1625   -7.8125    0.0000 C   0  0  0  0  0  0  0  0  0  0  0  0
    7.7292   -8.2292    0.0000 C   0  0  0  0  0  0  0  0  0  0  0  0
    7.0167   -6.9917    0.0000 C   0  0  0  0  0  0  0  0  0  0  0  0
    7.7292   -6.5792    0.0000 C   0  0  0  0  0  0  0  0  0  0  0  0
    8.4417   -7.8250    0.0000 C   0  0  0  0  0  0  0  0  0  0  0  0
    3.4417   -9.0542    0.0000 C   0  0  0  0  0  0  0  0  0  0  0  0
    2.7292   -9.4667    0.0000 N   0  0  0  0  0  0  0  0  0  0  0  0
    3.4417   -8.2250    0.0000 C   0  0  0  0  0  0  0  0  0  0  0  0
    9.8750   -6.1667    0.0000 C   0  0  0  0  0  0  0  0  0  0  0  0
    9.5792   -7.3000    0.0000 C   0  0  0  0  0  0  0  0  0  0  0  0
    8.7417   -5.8750    0.0000 C   0  0  0  0  0  0  0  0  0  0  0  0
  2  1  2  0  0  0  0
  3  6  1  0  0  0  0
  4  2  1  0  0  0  0
  5  1  1  0  0  0  0
  6  5  1  0  0  0  0
  7  1  1  0  0  0  0
  8  3  2  0  0  0  0
  9 10  1  0  0  0  0
 10 15  1  0  0  0  0
 11  4  2  0  0  0  0
 12  6  2  0  0  0  0
 13  7  2  0  0  0  0
 14  7  1  0  0  0  0
 15 14  2  0  0  0  0
 16 13  1  0  0  0  0
 17 19  2  0  0  0  0
 18 17  1  0  0  0  0
 19 12  1  0  0  0  0
 20  9  1  0  0  0  0
 21  9  1  0  0  0  0
 22  9  1  0  0  0  0
  4  3  1  0  0  0  0
 10 16  2  0  0  0  0
 17  8  1  0  0  0  0
M  END
>  <IDNUMBER>
F2211-0016

>  <Chemical_Name>
6-amino-2-(4-tert-butylphenyl)-4H-chromen-4-one

>  <PriceCoeff>
1.00

>  <CAS>
923163-67-1

>  <MW>
293.36

>  <Description>
solid

>  <FSP3>
0.21

>  <clogP>
4.45

>  <TPSA>
52.32

>  <Acceptor>
3

>  <Donor>
1

>  <RotBonds>
1

>  <HAC>
22

>  <Collection>
General

$$$$
F2211-0018
  Mrv2219 10102508112D          

 22 24  0  0  0  0            999 V2000
    6.3042   -8.2292    0.0000 C   0  0  0  0  0  0  0  0  0  0  0  0
    6.3000   -9.0542    0.0000 C   0  0  0  0  0  0  0  0  0  0  0  0
    4.8667   -9.0500    0.0000 C   0  0  0  0  0  0  0  0  0  0  0  0
    5.5792   -9.4625    0.0000 C   0  0  0  0  0  0  0  0  0  0  0  0
    5.5875   -7.8125    0.0000 O   0  0  0  0  0  0  0  0  0  0  0  0
    4.8750   -8.2250    0.0000 C   0  0  0  0  0  0  0  0  0  0  0  0
    7.0167   -7.8167    0.0000 C   0  0  0  0  0  0  0  0  0  0  0  0
    4.1625   -9.4625    0.0000 C   0  0  0  0  0  0  0  0  0  0  0  0
    2.0167   -9.0542    0.0000 C   0  0  0  0  0  0  0  0  0  0  0  0
    2.7292   -9.4667    0.0000 N   0  0  0  0  0  0  0  0  0  0  0  0
    3.4417   -9.0542    0.0000 C   0  0  0  0  0  0  0  0  0  0  0  0
    5.5792  -10.2875    0.0000 O   0  0  0  0  0  0  0  0  0  0  0  0
    4.1625   -7.8125    0.0000 C   0  0  0  0  0  0  0  0  0  0  0  0
    2.0042   -8.2292    0.0000 O   0  0  0  0  0  0  0  0  0  0  0  0
    7.0167   -6.9917    0.0000 C   0  0  0  0  0  0  0  0  0  0  0  0
    7.7292   -8.2292    0.0000 C   0  0  0  0  0  0  0  0  0  0  0  0
    3.4417   -8.2250    0.0000 C   0  0  0  0  0  0  0  0  0  0  0  0
    8.4417   -7.0000    0.0000 C   0  0  0  0  0  0  0  0  0  0  0  0
    8.4417   -7.8250    0.0000 C   0  0  0  0  0  0  0  0  0  0  0  0
    7.7292   -6.5792    0.0000 C   0  0  0  0  0  0  0  0  0  0  0  0
    9.1667   -6.5917    0.0000 F   0  0  0  0  0  0  0  0  0  0  0  0
    1.3000   -9.4667    0.0000 C   0  0  0  0  0  0  0  0  0  0  0  0
  2  1  2  0  0  0  0
  3  6  1  0  0  0  0
  4  2  1  0  0  0  0
  5  1  1  0  0  0  0
  6  5  1  0  0  0  0
  7  1  1  0  0  0  0
  8  3  2  0  0  0  0
  9 10  1  0  0  0  0
 10 11  1  0  0  0  0
 11 17  2  0  0  0  0
 12  4  2  0  0  0  0
 13  6  2  0  0  0  0
 14  9  2  0  0  0  0
 15  7  1  0  0  0  0
 16  7  2  0  0  0  0
 17 13  1  0  0  0  0
 18 19  2  0  0  0  0
 19 16  1  0  0  0  0
 20 15  2  0  0  0  0
 21 18  1  0  0  0  0
 22  9  1  0  0  0  0
  3  4  1  0  0  0  0
 20 18  1  0  0  0  0
  8 11  1  0  0  0  0
M  END
>  <IDNUMBER>
F2211-0018

>  <Chemical_Name>
N-[2-(4-fluorophenyl)-4-oxo-4H-chromen-6-yl]acetamide

>  <PriceCoeff>
1.00

>  <CAS>
923138-98-1

>  <MW>
297.28

>  <Description>
solid

>  <FSP3>
0.06

>  <clogP>
2.99

>  <TPSA>
55.40

>  <Acceptor>
3

>  <Donor>
1

>  <RotBonds>
2

>  <HAC>
22

>  <Collection>
General

>  <PPDS>
+

$$$$
F2212-0015
  Mrv2219 10102508112D          

 22 24  0  0  0  0            999 V2000
    6.3917   -8.2250    0.0000 C   0  0  0  0  0  0  0  0  0  0  0  0
    6.3917   -7.4000    0.0000 C   0  0  0  0  0  0  0  0  0  0  0  0
    4.9667   -8.2292    0.0000 C   0  0  0  0  0  0  0  0  0  0  0  0
    5.6792   -8.6417    0.0000 O   0  0  0  0  0  0  0  0  0  0  0  0
    5.6750   -6.9917    0.0000 C   0  0  0  0  0  0  0  0  0  0  0  0
    4.9625   -7.4042    0.0000 C   0  0  0  0  0  0  0  0  0  0  0  0
    4.2542   -8.6417    0.0000 C   0  0  0  0  0  0  0  0  0  0  0  0
    4.2542   -6.9917    0.0000 C   0  0  0  0  0  0  0  0  0  0  0  0
    7.1042   -8.6375    0.0000 C   0  0  0  0  0  0  0  0  0  0  0  0
    2.1042   -8.2292    0.0000 C   0  0  0  0  0  0  0  0  0  0  0  0
    2.8167   -8.6417    0.0000 N   0  0  0  0  0  0  0  0  0  0  0  0
    3.5375   -8.2292    0.0000 C   0  0  0  0  0  0  0  0  0  0  0  0
    5.6667   -6.1667    0.0000 O   0  0  0  0  0  0  0  0  0  0  0  0
    2.1042   -7.4042    0.0000 O   0  0  0  0  0  0  0  0  0  0  0  0
    7.8167   -8.2167    0.0000 C   0  0  0  0  0  0  0  0  0  0  0  0
    7.1042   -9.4542    0.0000 C   0  0  0  0  0  0  0  0  0  0  0  0
    3.5375   -7.4000    0.0000 C   0  0  0  0  0  0  0  0  0  0  0  0
    7.8167   -9.8667    0.0000 C   0  0  0  0  0  0  0  0  0  0  0  0
    8.5375   -8.6292    0.0000 C   0  0  0  0  0  0  0  0  0  0  0  0
    8.5375   -9.4542    0.0000 C   0  0  0  0  0  0  0  0  0  0  0  0
    1.3917   -8.6417    0.0000 C   0  0  0  0  0  0  0  0  0  0  0  0
    9.2542   -9.8667    0.0000 C   0  0  0  0  0  0  0  0  0  0  0  0
  2  1  2  0  0  0  0
  3  4  1  0  0  0  0
  4  1  1  0  0  0  0
  5  2  1  0  0  0  0
  6  3  1  0  0  0  0
  7  3  2  0  0  0  0
  8  6  2  0  0  0  0
  9  1  1  0  0  0  0
 10 11  1  0  0  0  0
 11 12  1  0  0  0  0
 12  7  1  0  0  0  0
 13  5  2  0  0  0  0
 14 10  2  0  0  0  0
 15  9  2  0  0  0  0
 16  9  1  0  0  0  0
 17 12  2  0  0  0  0
 18 16  2  0  0  0  0
 19 15  1  0  0  0  0
 20 18  1  0  0  0  0
 21 10  1  0  0  0  0
 22 20  1  0  0  0  0
  5  6  1  0  0  0  0
 19 20  2  0  0  0  0
 17  8  1  0  0  0  0
M  END
>  <IDNUMBER>
F2212-0015

>  <Chemical_Name>
N-[2-(4-methylphenyl)-4-oxo-4H-chromen-7-yl]acetamide

>  <PriceCoeff>
1.00

>  <CAS>
923673-80-7

>  <MW>
293.32

>  <Description>
solid

>  <FSP3>
0.11

>  <clogP>
3.34

>  <TPSA>
55.40

>  <Acceptor>
3

>  <Donor>
1

>  <RotBonds>
2

>  <HAC>
22

>  <Collection>
General

>  <PPDS>
+

$$$$
F2224-0018
  Mrv2219 10102508112D          

 31 34  0  0  0  0            999 V2000
   -7.4446    2.1545    0.0000 N   0  0  0  0  0  0  0  0  0  0  0  0
   -8.1586    2.5678    0.0000 C   0  0  0  0  0  0  0  0  0  0  0  0
   -8.1460    0.9144    0.0000 N   0  0  0  0  0  0  0  0  0  0  0  0
   -7.4321    1.3277    0.0000 C   0  0  0  0  0  0  0  0  0  0  0  0
   -8.8726    2.1502    0.0000 C   0  0  0  0  0  0  0  0  0  0  0  0
   -8.8726    1.3235    0.0000 C   0  0  0  0  0  0  0  0  0  0  0  0
   -1.0229    5.0396    0.0000 N   0  3  0  0  0  0  0  0  0  0  0  0
   -3.1648    3.8079    0.0000 C   0  0  0  0  0  0  0  0  0  0  0  0
   -3.8705    3.4028    0.0000 C   0  0  0  0  0  0  0  0  0  0  0  0
   -2.4551    3.3903    0.0000 C   0  0  0  0  0  0  0  0  0  0  0  0
   -1.7369    4.6263    0.0000 C   0  0  0  0  0  0  0  0  0  0  0  0
   -1.7369    3.8037    0.0000 C   0  0  0  0  0  0  0  0  0  0  0  0
   -4.5928    3.8079    0.0000 N   0  0  0  0  0  0  0  0  0  0  0  0
   -6.7264    2.5678    0.0000 C   0  0  0  0  0  0  0  0  0  0  0  0
   -3.1691    4.6137    0.0000 C   0  0  0  0  0  0  0  0  0  0  0  0
   -9.5740    0.9144    0.0000 N   0  0  0  0  0  0  0  0  0  0  0  0
   -8.1586    3.4028    0.0000 O   0  0  0  0  0  0  0  0  0  0  0  0
   -0.3089    4.6263    0.0000 O   0  5  0  0  0  0  0  0  0  0  0  0
   -1.0229    5.8663    0.0000 O   0  0  0  0  0  0  0  0  0  0  0  0
   -3.8705    2.5678    0.0000 O   0  0  0  0  0  0  0  0  0  0  0  0
   -2.4551    5.0354    0.0000 C   0  0  0  0  0  0  0  0  0  0  0  0
   -6.7306    3.3903    0.0000 C   0  0  0  0  0  0  0  0  0  0  0  0
   -6.0124    2.1545    0.0000 C   0  0  0  0  0  0  0  0  0  0  0  0
   -5.3068    3.4028    0.0000 C   0  0  0  0  0  0  0  0  0  0  0  0
   -2.4551    2.5636    0.0000 Cl  0  0  0  0  0  0  0  0  0  0  0  0
   -6.7264    0.9144    0.0000 C   0  0  0  0  0  0  0  0  0  0  0  0
   -9.5865    2.5678    0.0000 C   0  0  0  0  0  0  0  0  0  0  0  0
   -5.2985    2.5678    0.0000 C   0  0  0  0  0  0  0  0  0  0  0  0
   -6.0166    3.8079    0.0000 C   0  0  0  0  0  0  0  0  0  0  0  0
  -10.2880    1.3152    0.0000 C   0  0  0  0  0  0  0  0  0  0  0  0
  -10.2963    2.1502    0.0000 C   0  0  0  0  0  0  0  0  0  0  0  0
  2  1  1  0  0  0  0
  3  4  2  0  0  0  0
  4  1  1  0  0  0  0
  5  2  1  0  0  0  0
  6  3  1  0  0  0  0
  7 11  1  0  0  0  0
  8  9  1  0  0  0  0
  9 13  1  0  0  0  0
 10  8  2  0  0  0  0
 11 21  1  0  0  0  0
 12 10  1  0  0  0  0
 13 24  1  0  0  0  0
 14  1  1  0  0  0  0
 15  8  1  0  0  0  0
 16  6  1  0  0  0  0
 17  2  2  0  0  0  0
 18  7  1  0  0  0  0
 19  7  2  0  0  0  0
 20  9  2  0  0  0  0
 21 15  2  0  0  0  0
 22 14  1  0  0  0  0
 23 14  2  0  0  0  0
 24 28  2  0  0  0  0
 25 10  1  0  0  0  0
 26  4  1  0  0  0  0
 27  5  1  0  0  0  0
 28 23  1  0  0  0  0
 29 22  2  0  0  0  0
 30 16  2  0  0  0  0
 31 27  2  0  0  0  0
 24 29  1  0  0  0  0
  5  6  2  0  0  0  0
 31 30  1  0  0  0  0
 12 11  2  0  0  0  0
M  CHG  2   7   1  18  -1
M  END
>  <IDNUMBER>
F2224-0018

>  <Chemical_Name>
2-chloro-N-(4-{2-methyl-4-oxo-3H,4H-pyrido[2,3-d]pyrimidin-3-yl}phenyl)-4-nitrobenzamide

>  <PriceCoeff>
1.00

>  <CAS>
1005297-82-4

>  <MW>
435.82

>  <Description>
solid

>  <FSP3>
0.05

>  <clogP>
2.74

>  <TPSA>
117.80

>  <Acceptor>
6

>  <Donor>
2

>  <RotBonds>
4

>  <HAC>
31

>  <Collection>
General

>  <PPDS>
+

$$$$
F2224-0019
  Mrv2219 10102508112D          

 31 34  0  0  0  0            999 V2000
   -7.4446    2.1545    0.0000 N   0  0  0  0  0  0  0  0  0  0  0  0
   -8.1586    2.5678    0.0000 C   0  0  0  0  0  0  0  0  0  0  0  0
   -8.1460    0.9144    0.0000 N   0  0  0  0  0  0  0  0  0  0  0  0
   -7.4321    1.3277    0.0000 C   0  0  0  0  0  0  0  0  0  0  0  0
   -8.8726    2.1502    0.0000 C   0  0  0  0  0  0  0  0  0  0  0  0
   -1.0229    3.3903    0.0000 N   0  3  0  0  0  0  0  0  0  0  0  0
   -8.8726    1.3235    0.0000 C   0  0  0  0  0  0  0  0  0  0  0  0
   -1.7369    3.8037    0.0000 C   0  0  0  0  0  0  0  0  0  0  0  0
   -3.8705    3.4028    0.0000 C   0  0  0  0  0  0  0  0  0  0  0  0
   -2.4551    3.4028    0.0000 C   0  0  0  0  0  0  0  0  0  0  0  0
   -3.1648    3.8079    0.0000 C   0  0  0  0  0  0  0  0  0  0  0  0
   -4.5928    3.8079    0.0000 N   0  0  0  0  0  0  0  0  0  0  0  0
   -6.7264    2.5678    0.0000 C   0  0  0  0  0  0  0  0  0  0  0  0
   -1.7369    4.6263    0.0000 C   0  0  0  0  0  0  0  0  0  0  0  0
   -9.5740    0.9144    0.0000 N   0  0  0  0  0  0  0  0  0  0  0  0
   -8.1586    3.4028    0.0000 O   0  0  0  0  0  0  0  0  0  0  0  0
   -1.0229    2.5636    0.0000 O   0  5  0  0  0  0  0  0  0  0  0  0
   -0.3089    3.8037    0.0000 O   0  0  0  0  0  0  0  0  0  0  0  0
   -3.8705    2.5678    0.0000 O   0  0  0  0  0  0  0  0  0  0  0  0
   -3.1691    4.6137    0.0000 C   0  0  0  0  0  0  0  0  0  0  0  0
   -2.4551    5.0354    0.0000 C   0  0  0  0  0  0  0  0  0  0  0  0
   -6.7306    3.3903    0.0000 C   0  0  0  0  0  0  0  0  0  0  0  0
   -6.0124    2.1545    0.0000 C   0  0  0  0  0  0  0  0  0  0  0  0
   -5.3068    3.4028    0.0000 C   0  0  0  0  0  0  0  0  0  0  0  0
   -6.7264    0.9144    0.0000 C   0  0  0  0  0  0  0  0  0  0  0  0
   -1.0229    5.0396    0.0000 Cl  0  0  0  0  0  0  0  0  0  0  0  0
   -9.5865    2.5678    0.0000 C   0  0  0  0  0  0  0  0  0  0  0  0
   -5.2985    2.5678    0.0000 C   0  0  0  0  0  0  0  0  0  0  0  0
   -6.0166    3.8079    0.0000 C   0  0  0  0  0  0  0  0  0  0  0  0
  -10.2880    1.3152    0.0000 C   0  0  0  0  0  0  0  0  0  0  0  0
  -10.2963    2.1502    0.0000 C   0  0  0  0  0  0  0  0  0  0  0  0
  2  1  1  0  0  0  0
  3  4  2  0  0  0  0
  4  1  1  0  0  0  0
  5  2  1  0  0  0  0
  6  8  1  0  0  0  0
  7  3  1  0  0  0  0
  8 10  1  0  0  0  0
  9 12  1  0  0  0  0
 10 11  2  0  0  0  0
 11  9  1  0  0  0  0
 12 24  1  0  0  0  0
 13  1  1  0  0  0  0
 14 21  1  0  0  0  0
 15  7  1  0  0  0  0
 16  2  2  0  0  0  0
 17  6  1  0  0  0  0
 18  6  2  0  0  0  0
 19  9  2  0  0  0  0
 20 11  1  0  0  0  0
 21 20  2  0  0  0  0
 22 13  1  0  0  0  0
 23 13  2  0  0  0  0
 24 28  2  0  0  0  0
 25  4  1  0  0  0  0
 26 14  1  0  0  0  0
 27  5  1  0  0  0  0
 28 23  1  0  0  0  0
 29 22  2  0  0  0  0
 30 15  2  0  0  0  0
 31 27  2  0  0  0  0
 24 29  1  0  0  0  0
  5  7  2  0  0  0  0
 31 30  1  0  0  0  0
  8 14  2  0  0  0  0
M  CHG  2   6   1  17  -1
M  END
>  <IDNUMBER>
F2224-0019

>  <Chemical_Name>
4-chloro-N-(4-{2-methyl-4-oxo-3H,4H-pyrido[2,3-d]pyrimidin-3-yl}phenyl)-3-nitrobenzamide

>  <PriceCoeff>
1.00

>  <CAS>
1005304-34-6

>  <MW>
435.82

>  <Description>
solid

>  <FSP3>
0.05

>  <clogP>
3.42

>  <TPSA>
117.80

>  <Acceptor>
6

>  <Donor>
2

>  <RotBonds>
4

>  <HAC>
31

>  <Collection>
General

>  <PPDS>
+

$$$$
F2224-0099
  Mrv2219 10102508112D          

 32 35  0  0  0  0            999 V2000
   -7.4321    2.1545    0.0000 N   0  0  0  0  0  0  0  0  0  0  0  0
   -8.1460    2.5678    0.0000 C   0  0  0  0  0  0  0  0  0  0  0  0
   -8.1460    0.9144    0.0000 N   0  0  0  0  0  0  0  0  0  0  0  0
   -7.4321    1.3277    0.0000 C   0  0  0  0  0  0  0  0  0  0  0  0
   -8.8600    2.1502    0.0000 C   0  0  0  0  0  0  0  0  0  0  0  0
   -8.8600    1.3235    0.0000 C   0  0  0  0  0  0  0  0  0  0  0  0
   -1.0229    5.0396    0.0000 N   0  3  0  0  0  0  0  0  0  0  0  0
   -3.1648    3.8079    0.0000 C   0  0  0  0  0  0  0  0  0  0  0  0
   -3.8705    3.4028    0.0000 C   0  0  0  0  0  0  0  0  0  0  0  0
   -6.7181    2.5678    0.0000 C   0  0  0  0  0  0  0  0  0  0  0  0
   -4.5928    3.8079    0.0000 N   0  0  0  0  0  0  0  0  0  0  0  0
   -2.4551    3.3903    0.0000 C   0  0  0  0  0  0  0  0  0  0  0  0
   -1.7369    4.6263    0.0000 C   0  0  0  0  0  0  0  0  0  0  0  0
   -1.7369    3.8037    0.0000 C   0  0  0  0  0  0  0  0  0  0  0  0
   -5.3068    3.4028    0.0000 C   0  0  0  0  0  0  0  0  0  0  0  0
   -6.7264    3.3903    0.0000 C   0  0  0  0  0  0  0  0  0  0  0  0
   -3.1691    4.6137    0.0000 C   0  0  0  0  0  0  0  0  0  0  0  0
   -9.5740    0.9144    0.0000 N   0  0  0  0  0  0  0  0  0  0  0  0
   -6.0124    3.8079    0.0000 C   0  0  0  0  0  0  0  0  0  0  0  0
   -8.1586    3.4028    0.0000 O   0  0  0  0  0  0  0  0  0  0  0  0
   -0.3089    4.6263    0.0000 O   0  5  0  0  0  0  0  0  0  0  0  0
   -1.0229    5.8663    0.0000 O   0  0  0  0  0  0  0  0  0  0  0  0
   -3.8705    2.5678    0.0000 O   0  0  0  0  0  0  0  0  0  0  0  0
   -6.0124    2.1545    0.0000 C   0  0  0  0  0  0  0  0  0  0  0  0
   -2.4551    5.0354    0.0000 C   0  0  0  0  0  0  0  0  0  0  0  0
   -5.2985    2.5678    0.0000 C   0  0  0  0  0  0  0  0  0  0  0  0
   -2.4551    2.5636    0.0000 Cl  0  0  0  0  0  0  0  0  0  0  0  0
   -6.7181    0.9144    0.0000 C   0  0  0  0  0  0  0  0  0  0  0  0
   -9.5823    2.5678    0.0000 C   0  0  0  0  0  0  0  0  0  0  0  0
  -10.2880    1.3152    0.0000 C   0  0  0  0  0  0  0  0  0  0  0  0
   -6.0124    4.6263    0.0000 C   0  0  0  0  0  0  0  0  0  0  0  0
  -10.2880    2.1502    0.0000 C   0  0  0  0  0  0  0  0  0  0  0  0
  2  1  1  0  0  0  0
  3  4  2  0  0  0  0
  4  1  1  0  0  0  0
  5  2  1  0  0  0  0
  6  3  1  0  0  0  0
  7 13  1  0  0  0  0
  8  9  1  0  0  0  0
  9 11  1  0  0  0  0
 10  1  1  0  0  0  0
 11 15  1  0  0  0  0
 12  8  2  0  0  0  0
 13 25  1  0  0  0  0
 14 12  1  0  0  0  0
 15 26  2  0  0  0  0
 16 10  1  0  0  0  0
 17  8  1  0  0  0  0
 18  6  1  0  0  0  0
 19 16  2  0  0  0  0
 20  2  2  0  0  0  0
 21  7  1  0  0  0  0
 22  7  2  0  0  0  0
 23  9  2  0  0  0  0
 24 10  2  0  0  0  0
 25 17  2  0  0  0  0
 26 24  1  0  0  0  0
 27 12  1  0  0  0  0
 28  4  1  0  0  0  0
 29  5  1  0  0  0  0
 30 18  2  0  0  0  0
 31 19  1  0  0  0  0
 32 29  2  0  0  0  0
 15 19  1  0  0  0  0
  5  6  2  0  0  0  0
 32 30  1  0  0  0  0
 14 13  2  0  0  0  0
M  CHG  2   7   1  21  -1
M  END
>  <IDNUMBER>
F2224-0099

>  <Chemical_Name>
2-chloro-N-(2-methyl-4-{2-methyl-4-oxo-3H,4H-pyrido[2,3-d]pyrimidin-3-yl}phenyl)-4-nitrobenzamide

>  <PriceCoeff>
1.00

>  <CAS>
1005304-51-7

>  <MW>
449.85

>  <Description>
solid

>  <FSP3>
0.09

>  <clogP>
2.58

>  <TPSA>
117.80

>  <Acceptor>
6

>  <Donor>
2

>  <RotBonds>
4

>  <HAC>
32

>  <Collection>
General

>  <PPDS>
+

$$$$
F2224-0100
  Mrv2219 10102508112D          

 32 35  0  0  0  0            999 V2000
   -7.4329    2.1547    0.0000 N   0  0  0  0  0  0  0  0  0  0  0  0
   -8.1469    2.5681    0.0000 C   0  0  0  0  0  0  0  0  0  0  0  0
   -8.1469    0.9145    0.0000 N   0  0  0  0  0  0  0  0  0  0  0  0
   -7.4329    1.3279    0.0000 C   0  0  0  0  0  0  0  0  0  0  0  0
   -8.8610    2.1504    0.0000 C   0  0  0  0  0  0  0  0  0  0  0  0
   -1.0230    3.3907    0.0000 N   0  3  0  0  0  0  0  0  0  0  0  0
   -8.8610    1.3237    0.0000 C   0  0  0  0  0  0  0  0  0  0  0  0
   -1.7371    3.8041    0.0000 C   0  0  0  0  0  0  0  0  0  0  0  0
   -6.7189    2.5681    0.0000 C   0  0  0  0  0  0  0  0  0  0  0  0
   -3.8709    3.4032    0.0000 C   0  0  0  0  0  0  0  0  0  0  0  0
   -2.4554    3.4032    0.0000 C   0  0  0  0  0  0  0  0  0  0  0  0
   -4.5933    3.8083    0.0000 N   0  0  0  0  0  0  0  0  0  0  0  0
   -3.1652    3.8083    0.0000 C   0  0  0  0  0  0  0  0  0  0  0  0
   -5.3074    3.4032    0.0000 C   0  0  0  0  0  0  0  0  0  0  0  0
   -6.7272    3.3907    0.0000 C   0  0  0  0  0  0  0  0  0  0  0  0
   -1.7371    4.6268    0.0000 C   0  0  0  0  0  0  0  0  0  0  0  0
   -9.5751    0.9145    0.0000 N   0  0  0  0  0  0  0  0  0  0  0  0
   -6.0131    3.8083    0.0000 C   0  0  0  0  0  0  0  0  0  0  0  0
   -8.1595    3.4032    0.0000 O   0  0  0  0  0  0  0  0  0  0  0  0
   -1.0230    2.5639    0.0000 O   0  5  0  0  0  0  0  0  0  0  0  0
   -0.3089    3.8041    0.0000 O   0  0  0  0  0  0  0  0  0  0  0  0
   -6.0131    2.1547    0.0000 C   0  0  0  0  0  0  0  0  0  0  0  0
   -3.8709    2.5681    0.0000 O   0  0  0  0  0  0  0  0  0  0  0  0
   -5.2991    2.5681    0.0000 C   0  0  0  0  0  0  0  0  0  0  0  0
   -3.1695    4.6142    0.0000 C   0  0  0  0  0  0  0  0  0  0  0  0
   -2.4554    5.0360    0.0000 C   0  0  0  0  0  0  0  0  0  0  0  0
   -6.7189    0.9145    0.0000 C   0  0  0  0  0  0  0  0  0  0  0  0
   -1.0230    5.0402    0.0000 Cl  0  0  0  0  0  0  0  0  0  0  0  0
   -9.5834    2.5681    0.0000 C   0  0  0  0  0  0  0  0  0  0  0  0
  -10.2892    1.3153    0.0000 C   0  0  0  0  0  0  0  0  0  0  0  0
   -6.0131    4.6268    0.0000 C   0  0  0  0  0  0  0  0  0  0  0  0
  -10.2892    2.1504    0.0000 C   0  0  0  0  0  0  0  0  0  0  0  0
  2  1  1  0  0  0  0
  3  4  2  0  0  0  0
  4  1  1  0  0  0  0
  5  2  1  0  0  0  0
  6  8  1  0  0  0  0
  7  3  1  0  0  0  0
  8 11  1  0  0  0  0
  9  1  1  0  0  0  0
 10 12  1  0  0  0  0
 11 13  2  0  0  0  0
 12 14  1  0  0  0  0
 13 10  1  0  0  0  0
 14 24  2  0  0  0  0
 15  9  1  0  0  0  0
 16 26  1  0  0  0  0
 17  7  1  0  0  0  0
 18 15  2  0  0  0  0
 19  2  2  0  0  0  0
 20  6  1  0  0  0  0
 21  6  2  0  0  0  0
 22  9  2  0  0  0  0
 23 10  2  0  0  0  0
 24 22  1  0  0  0  0
 25 13  1  0  0  0  0
 26 25  2  0  0  0  0
 27  4  1  0  0  0  0
 28 16  1  0  0  0  0
 29  5  1  0  0  0  0
 30 17  2  0  0  0  0
 31 18  1  0  0  0  0
 32 29  2  0  0  0  0
 14 18  1  0  0  0  0
  5  7  2  0  0  0  0
 32 30  1  0  0  0  0
  8 16  2  0  0  0  0
M  CHG  2   6   1  20  -1
M  END
>  <IDNUMBER>
F2224-0100

>  <Chemical_Name>
4-chloro-N-(2-methyl-4-{2-methyl-4-oxo-3H,4H-pyrido[2,3-d]pyrimidin-3-yl}phenyl)-3-nitrobenzamide

>  <PriceCoeff>
1.00

>  <CAS>
1005298-05-4

>  <MW>
449.85

>  <Description>
solid

>  <FSP3>
0.09

>  <clogP>
3.26

>  <TPSA>
117.80

>  <Acceptor>
6

>  <Donor>
2

>  <RotBonds>
4

>  <HAC>
32

>  <Collection>
General

>  <PPDS>
+

$$$$
F2224-0181
  Mrv2219 10102508112D          

 31 34  0  0  0  0            999 V2000
   -7.4537    3.8273    0.0000 N   0  0  0  0  0  0  0  0  0  0  0  0
   -7.4537    4.6523    0.0000 C   0  0  0  0  0  0  0  0  0  0  0  0
   -8.8859    3.8315    0.0000 N   0  0  0  0  0  0  0  0  0  0  0  0
   -8.1698    3.4128    0.0000 C   0  0  0  0  0  0  0  0  0  0  0  0
   -8.1698    5.0669    0.0000 C   0  0  0  0  0  0  0  0  0  0  0  0
   -1.0259    3.4002    0.0000 N   0  3  0  0  0  0  0  0  0  0  0  0
   -8.8859    4.6523    0.0000 C   0  0  0  0  0  0  0  0  0  0  0  0
   -1.7420    3.8148    0.0000 C   0  0  0  0  0  0  0  0  0  0  0  0
   -6.7460    3.4128    0.0000 C   0  0  0  0  0  0  0  0  0  0  0  0
   -3.8818    3.4128    0.0000 C   0  0  0  0  0  0  0  0  0  0  0  0
   -2.4622    3.4128    0.0000 C   0  0  0  0  0  0  0  0  0  0  0  0
   -3.1741    3.8190    0.0000 C   0  0  0  0  0  0  0  0  0  0  0  0
   -4.6062    3.8190    0.0000 N   0  0  0  0  0  0  0  0  0  0  0  0
   -6.0300    3.8190    0.0000 C   0  0  0  0  0  0  0  0  0  0  0  0
   -1.7420    4.6398    0.0000 C   0  0  0  0  0  0  0  0  0  0  0  0
   -9.6019    5.0669    0.0000 N   0  0  0  0  0  0  0  0  0  0  0  0
   -6.7377    5.0543    0.0000 O   0  0  0  0  0  0  0  0  0  0  0  0
   -1.0259    2.5711    0.0000 O   0  5  0  0  0  0  0  0  0  0  0  0
   -0.3098    3.8148    0.0000 O   0  0  0  0  0  0  0  0  0  0  0  0
   -5.3222    3.4128    0.0000 C   0  0  0  0  0  0  0  0  0  0  0  0
   -3.8818    2.5753    0.0000 O   0  0  0  0  0  0  0  0  0  0  0  0
   -3.1783    4.6272    0.0000 C   0  0  0  0  0  0  0  0  0  0  0  0
   -2.4622    5.0501    0.0000 C   0  0  0  0  0  0  0  0  0  0  0  0
   -8.1824    2.5962    0.0000 C   0  0  0  0  0  0  0  0  0  0  0  0
   -1.0259    5.0543    0.0000 Cl  0  0  0  0  0  0  0  0  0  0  0  0
   -8.1656    5.8960    0.0000 C   0  0  0  0  0  0  0  0  0  0  0  0
   -6.7502    2.5836    0.0000 C   0  0  0  0  0  0  0  0  0  0  0  0
   -6.0342    2.1607    0.0000 C   0  0  0  0  0  0  0  0  0  0  0  0
   -9.6019    5.8834    0.0000 C   0  0  0  0  0  0  0  0  0  0  0  0
   -5.3222    2.5711    0.0000 C   0  0  0  0  0  0  0  0  0  0  0  0
   -8.8859    6.2980    0.0000 C   0  0  0  0  0  0  0  0  0  0  0  0
  2  1  1  0  0  0  0
  3  4  2  0  0  0  0
  4  1  1  0  0  0  0
  5  2  1  0  0  0  0
  6  8  1  0  0  0  0
  7  3  1  0  0  0  0
  8 11  1  0  0  0  0
  9  1  1  0  0  0  0
 10 13  1  0  0  0  0
 11 12  2  0  0  0  0
 12 10  1  0  0  0  0
 13 20  1  0  0  0  0
 14  9  1  0  0  0  0
 15 23  1  0  0  0  0
 16  7  1  0  0  0  0
 17  2  2  0  0  0  0
 18  6  1  0  0  0  0
 19  6  2  0  0  0  0
 20 14  2  0  0  0  0
 21 10  2  0  0  0  0
 22 12  1  0  0  0  0
 23 22  2  0  0  0  0
 24  4  1  0  0  0  0
 25 15  1  0  0  0  0
 26  5  1  0  0  0  0
 27  9  2  0  0  0  0
 28 27  1  0  0  0  0
 29 16  2  0  0  0  0
 30 28  2  0  0  0  0
 31 26  2  0  0  0  0
  5  7  2  0  0  0  0
 30 20  1  0  0  0  0
 31 29  1  0  0  0  0
  8 15  2  0  0  0  0
M  CHG  2   6   1  18  -1
M  END
>  <IDNUMBER>
F2224-0181

>  <Chemical_Name>
4-chloro-N-(3-{2-methyl-4-oxo-3H,4H-pyrido[2,3-d]pyrimidin-3-yl}phenyl)-3-nitrobenzamide

>  <PriceCoeff>
1.00

>  <CAS>
1005298-21-4

>  <MW>
435.82

>  <Description>
solid

>  <FSP3>
0.05

>  <clogP>
3.42

>  <TPSA>
117.80

>  <Acceptor>
6

>  <Donor>
2

>  <RotBonds>
4

>  <HAC>
31

>  <Collection>
General

>  <PPDS>
+

$$$$
F2224-0261
  Mrv2219 10102508112D          

 32 35  0  0  0  0            999 V2000
   -7.4327    3.8165    0.0000 N   0  0  0  0  0  0  0  0  0  0  0  0
   -7.4327    4.6392    0.0000 C   0  0  0  0  0  0  0  0  0  0  0  0
   -8.8607    3.8207    0.0000 N   0  0  0  0  0  0  0  0  0  0  0  0
   -8.1467    3.4031    0.0000 C   0  0  0  0  0  0  0  0  0  0  0  0
   -8.1467    5.0525    0.0000 C   0  0  0  0  0  0  0  0  0  0  0  0
   -8.8607    4.6392    0.0000 C   0  0  0  0  0  0  0  0  0  0  0  0
   -1.0230    5.0400    0.0000 N   0  3  0  0  0  0  0  0  0  0  0  0
   -6.7270    3.4031    0.0000 C   0  0  0  0  0  0  0  0  0  0  0  0
   -3.1651    3.8082    0.0000 C   0  0  0  0  0  0  0  0  0  0  0  0
   -3.8708    3.4031    0.0000 C   0  0  0  0  0  0  0  0  0  0  0  0
   -4.5932    3.8082    0.0000 N   0  0  0  0  0  0  0  0  0  0  0  0
   -2.4553    3.3906    0.0000 C   0  0  0  0  0  0  0  0  0  0  0  0
   -5.3072    3.4031    0.0000 C   0  0  0  0  0  0  0  0  0  0  0  0
   -6.0129    3.8082    0.0000 C   0  0  0  0  0  0  0  0  0  0  0  0
   -1.7370    4.6267    0.0000 C   0  0  0  0  0  0  0  0  0  0  0  0
   -1.7370    3.8040    0.0000 C   0  0  0  0  0  0  0  0  0  0  0  0
   -3.1694    4.6141    0.0000 C   0  0  0  0  0  0  0  0  0  0  0  0
   -9.5748    5.0525    0.0000 N   0  0  0  0  0  0  0  0  0  0  0  0
   -6.7187    5.0400    0.0000 O   0  0  0  0  0  0  0  0  0  0  0  0
   -0.3089    4.6267    0.0000 O   0  5  0  0  0  0  0  0  0  0  0  0
   -1.0230    5.8668    0.0000 O   0  0  0  0  0  0  0  0  0  0  0  0
   -5.3072    2.5680    0.0000 C   0  0  0  0  0  0  0  0  0  0  0  0
   -3.8708    2.5680    0.0000 O   0  0  0  0  0  0  0  0  0  0  0  0
   -6.7312    2.5763    0.0000 C   0  0  0  0  0  0  0  0  0  0  0  0
   -2.4553    5.0358    0.0000 C   0  0  0  0  0  0  0  0  0  0  0  0
   -6.0171    2.1630    0.0000 C   0  0  0  0  0  0  0  0  0  0  0  0
   -2.4553    2.5638    0.0000 Cl  0  0  0  0  0  0  0  0  0  0  0  0
   -8.1593    2.5889    0.0000 C   0  0  0  0  0  0  0  0  0  0  0  0
   -4.5932    2.1504    0.0000 F   0  0  0  0  0  0  0  0  0  0  0  0
   -8.1425    5.8794    0.0000 C   0  0  0  0  0  0  0  0  0  0  0  0
   -9.5748    5.8668    0.0000 C   0  0  0  0  0  0  0  0  0  0  0  0
   -8.8607    6.2802    0.0000 C   0  0  0  0  0  0  0  0  0  0  0  0
  2  1  1  0  0  0  0
  3  4  2  0  0  0  0
  4  1  1  0  0  0  0
  5  2  1  0  0  0  0
  6  3  1  0  0  0  0
  7 15  1  0  0  0  0
  8  1  1  0  0  0  0
  9 10  1  0  0  0  0
 10 11  1  0  0  0  0
 11 13  1  0  0  0  0
 12  9  2  0  0  0  0
 13 14  2  0  0  0  0
 14  8  1  0  0  0  0
 15 25  1  0  0  0  0
 16 12  1  0  0  0  0
 17  9  1  0  0  0  0
 18  6  1  0  0  0  0
 19  2  2  0  0  0  0
 20  7  1  0  0  0  0
 21  7  2  0  0  0  0
 22 26  2  0  0  0  0
 23 10  2  0  0  0  0
 24  8  2  0  0  0  0
 25 17  2  0  0  0  0
 26 24  1  0  0  0  0
 27 12  1  0  0  0  0
 28  4  1  0  0  0  0
 29 22  1  0  0  0  0
 30  5  1  0  0  0  0
 31 18  2  0  0  0  0
 32 30  2  0  0  0  0
  5  6  2  0  0  0  0
 22 13  1  0  0  0  0
 32 31  1  0  0  0  0
 16 15  2  0  0  0  0
M  CHG  2   7   1  20  -1
M  END
>  <IDNUMBER>
F2224-0261

>  <Chemical_Name>
2-chloro-N-(2-fluoro-5-{2-methyl-4-oxo-3H,4H-pyrido[2,3-d]pyrimidin-3-yl}phenyl)-4-nitrobenzamide

>  <PriceCoeff>
1.00

>  <MW>
453.81

>  <Description>
solid

>  <FSP3>
0.05

>  <clogP>
2.29

>  <TPSA>
117.80

>  <Acceptor>
6

>  <Donor>
2

>  <RotBonds>
4

>  <HAC>
32

>  <Collection>
General

$$$$
F2224-0262
  Mrv2219 10102508112D          

 32 35  0  0  0  0            999 V2000
   -7.4429    3.8217    0.0000 N   0  0  0  0  0  0  0  0  0  0  0  0
   -7.4429    4.6455    0.0000 C   0  0  0  0  0  0  0  0  0  0  0  0
   -8.8729    3.8260    0.0000 N   0  0  0  0  0  0  0  0  0  0  0  0
   -8.1579    3.4078    0.0000 C   0  0  0  0  0  0  0  0  0  0  0  0
   -8.1579    5.0595    0.0000 C   0  0  0  0  0  0  0  0  0  0  0  0
   -1.0244    3.3952    0.0000 N   0  3  0  0  0  0  0  0  0  0  0  0
   -8.8729    4.6455    0.0000 C   0  0  0  0  0  0  0  0  0  0  0  0
   -1.7394    3.8092    0.0000 C   0  0  0  0  0  0  0  0  0  0  0  0
   -6.7362    3.4078    0.0000 C   0  0  0  0  0  0  0  0  0  0  0  0
   -3.8761    3.4078    0.0000 C   0  0  0  0  0  0  0  0  0  0  0  0
   -4.5995    3.8134    0.0000 N   0  0  0  0  0  0  0  0  0  0  0  0
   -2.4587    3.4078    0.0000 C   0  0  0  0  0  0  0  0  0  0  0  0
   -5.3145    3.4078    0.0000 C   0  0  0  0  0  0  0  0  0  0  0  0
   -6.0212    3.8134    0.0000 C   0  0  0  0  0  0  0  0  0  0  0  0
   -3.1695    3.8134    0.0000 C   0  0  0  0  0  0  0  0  0  0  0  0
   -1.7394    4.6330    0.0000 C   0  0  0  0  0  0  0  0  0  0  0  0
   -9.5879    5.0595    0.0000 N   0  0  0  0  0  0  0  0  0  0  0  0
   -6.7279    5.0470    0.0000 O   0  0  0  0  0  0  0  0  0  0  0  0
   -1.0244    2.5673    0.0000 O   0  5  0  0  0  0  0  0  0  0  0  0
   -0.3094    3.8092    0.0000 O   0  0  0  0  0  0  0  0  0  0  0  0
   -5.3145    2.5715    0.0000 C   0  0  0  0  0  0  0  0  0  0  0  0
   -6.7404    2.5799    0.0000 C   0  0  0  0  0  0  0  0  0  0  0  0
   -3.8761    2.5715    0.0000 O   0  0  0  0  0  0  0  0  0  0  0  0
   -3.1737    4.6205    0.0000 C   0  0  0  0  0  0  0  0  0  0  0  0
   -2.4587    5.0427    0.0000 C   0  0  0  0  0  0  0  0  0  0  0  0
   -6.0254    2.1659    0.0000 C   0  0  0  0  0  0  0  0  0  0  0  0
   -8.1705    2.5924    0.0000 C   0  0  0  0  0  0  0  0  0  0  0  0
   -1.0244    5.0470    0.0000 Cl  0  0  0  0  0  0  0  0  0  0  0  0
   -4.5995    2.1534    0.0000 F   0  0  0  0  0  0  0  0  0  0  0  0
   -8.1537    5.8874    0.0000 C   0  0  0  0  0  0  0  0  0  0  0  0
   -9.5879    5.8749    0.0000 C   0  0  0  0  0  0  0  0  0  0  0  0
   -8.8729    6.2888    0.0000 C   0  0  0  0  0  0  0  0  0  0  0  0
  2  1  1  0  0  0  0
  3  4  2  0  0  0  0
  4  1  1  0  0  0  0
  5  2  1  0  0  0  0
  6  8  1  0  0  0  0
  7  3  1  0  0  0  0
  8 12  1  0  0  0  0
  9  1  1  0  0  0  0
 10 11  1  0  0  0  0
 11 13  1  0  0  0  0
 12 15  2  0  0  0  0
 13 14  2  0  0  0  0
 14  9  1  0  0  0  0
 15 10  1  0  0  0  0
 16 25  1  0  0  0  0
 17  7  1  0  0  0  0
 18  2  2  0  0  0  0
 19  6  1  0  0  0  0
 20  6  2  0  0  0  0
 21 26  2  0  0  0  0
 22  9  2  0  0  0  0
 23 10  2  0  0  0  0
 24 15  1  0  0  0  0
 25 24  2  0  0  0  0
 26 22  1  0  0  0  0
 27  4  1  0  0  0  0
 28 16  1  0  0  0  0
 29 21  1  0  0  0  0
 30  5  1  0  0  0  0
 31 17  2  0  0  0  0
 32 30  2  0  0  0  0
  5  7  2  0  0  0  0
 21 13  1  0  0  0  0
 32 31  1  0  0  0  0
  8 16  2  0  0  0  0
M  CHG  2   6   1  19  -1
M  END
>  <IDNUMBER>
F2224-0262

>  <Chemical_Name>
4-chloro-N-(2-fluoro-5-{2-methyl-4-oxo-3H,4H-pyrido[2,3-d]pyrimidin-3-yl}phenyl)-3-nitrobenzamide

>  <PriceCoeff>
1.00

>  <MW>
453.81

>  <Description>
solid

>  <FSP3>
0.05

>  <clogP>
2.97

>  <TPSA>
118.86

>  <Acceptor>
6

>  <Donor>
2

>  <RotBonds>
4

>  <HAC>
32

>  <Collection>
General

$$$$
F2231-0026
  Mrv2219 10102508112D          

 31 34  0  0  0  0            999 V2000
   -3.2333    2.8958    0.0000 S   0  0  0  0  0  0  0  0  0  0  0  0
    0.2750    3.1708    0.0000 C   0  0  0  0  0  0  0  0  0  0  0  0
    4.4542    2.2500    0.0000 N   0  0  0  0  0  0  0  0  0  0  0  0
    0.0250    2.3833    0.0000 N   0  0  0  0  0  0  0  0  0  0  0  0
    1.0625    3.4208    0.0000 N   0  0  0  0  0  0  0  0  0  0  0  0
   -0.3833    3.6458    0.0000 S   0  0  0  0  0  0  0  0  0  0  0  0
   -2.4125    2.7250    0.0000 C   0  0  0  0  0  0  0  0  0  0  0  0
    3.8500    2.8083    0.0000 C   0  0  0  0  0  0  0  0  0  0  0  0
    1.6667    2.8625    0.0000 C   0  0  0  0  0  0  0  0  0  0  0  0
   -1.0583    3.1708    0.0000 C   0  0  0  0  0  0  0  0  0  0  0  0
    5.2667    2.3958    0.0000 C   0  0  0  0  0  0  0  0  0  0  0  0
    4.3250    1.4458    0.0000 C   0  0  0  0  0  0  0  0  0  0  0  0
   -0.8000    2.3833    0.0000 C   0  0  0  0  0  0  0  0  0  0  0  0
   -1.8583    3.3375    0.0000 C   0  0  0  0  0  0  0  0  0  0  0  0
   -4.0458    3.0583    0.0000 N   0  0  0  0  0  0  0  0  0  0  0  0
    3.0625    2.5625    0.0000 C   0  0  0  0  0  0  0  0  0  0  0  0
    2.4542    3.1125    0.0000 C   0  0  0  0  0  0  0  0  0  0  0  0
   -3.3958    2.0833    0.0000 O   0  0  0  0  0  0  0  0  0  0  0  0
   -3.0708    3.7083    0.0000 O   0  0  0  0  0  0  0  0  0  0  0  0
    1.4917    2.0625    0.0000 O   0  0  0  0  0  0  0  0  0  0  0  0
    5.6500    1.6583    0.0000 C   0  0  0  0  0  0  0  0  0  0  0  0
    5.0792    1.0708    0.0000 C   0  0  0  0  0  0  0  0  0  0  0  0
    5.6417    3.1125    0.0000 O   0  0  0  0  0  0  0  0  0  0  0  0
    3.5917    1.0708    0.0000 O   0  0  0  0  0  0  0  0  0  0  0  0
   -2.1583    1.9458    0.0000 C   0  0  0  0  0  0  0  0  0  0  0  0
   -1.3583    1.7708    0.0000 C   0  0  0  0  0  0  0  0  0  0  0  0
    4.0292    3.6083    0.0000 C   0  0  0  0  0  0  0  0  0  0  0  0
    2.6292    3.9208    0.0000 C   0  0  0  0  0  0  0  0  0  0  0  0
    3.4167    4.1667    0.0000 C   0  0  0  0  0  0  0  0  0  0  0  0
   -4.5833    2.4333    0.0000 C   0  0  0  0  0  0  0  0  0  0  0  0
   -4.3083    3.8333    0.0000 C   0  0  0  0  0  0  0  0  0  0  0  0
  2  6  1  0  0  0  0
  3  8  1  0  0  0  0
  4 13  1  0  0  0  0
  5  2  1  0  0  0  0
  6 10  1  0  0  0  0
  7  1  1  0  0  0  0
  8 16  1  0  0  0  0
  9  5  1  0  0  0  0
 10 14  1  0  0  0  0
 11  3  1  0  0  0  0
 12  3  1  0  0  0  0
 13 26  1  0  0  0  0
 14  7  2  0  0  0  0
 15  1  1  0  0  0  0
 16 17  2  0  0  0  0
 17  9  1  0  0  0  0
 18  1  2  0  0  0  0
 19  1  2  0  0  0  0
 20  9  2  0  0  0  0
 21 11  1  0  0  0  0
 22 12  1  0  0  0  0
 23 11  2  0  0  0  0
 24 12  2  0  0  0  0
 25  7  1  0  0  0  0
 26 25  2  0  0  0  0
 27 29  1  0  0  0  0
 28 17  1  0  0  0  0
 29 28  2  0  0  0  0
 30 15  1  0  0  0  0
 31 15  1  0  0  0  0
 10 13  2  0  0  0  0
  4  2  2  0  0  0  0
 27  8  2  0  0  0  0
 21 22  1  0  0  0  0
M  END
>  <IDNUMBER>
F2231-0026

>  <Chemical_Name>
N-[6-(dimethylsulfamoyl)-1,3-benzothiazol-2-yl]-3-(2,5-dioxopyrrolidin-1-yl)benzamide

>  <PriceCoeff>
1.00

>  <CAS>
923193-23-1

>  <MW>
458.51

>  <Description>
solid

>  <FSP3>
0.20

>  <clogP>
0.89

>  <TPSA>
153.37

>  <Acceptor>
6

>  <Donor>
1

>  <RotBonds>
5

>  <HAC>
31

>  <Collection>
General

>  <PPDS>
+

$$$$
F2252-0059
  Mrv2219 10102508112D          

 32 36  0  0  0  0            999 V2000
    0.8159   -2.8763    0.0000 N   0  0  0  0  0  0  0  0  0  0  0  0
   -1.3694    2.4225    0.0000 C   0  0  0  0  0  0  0  0  0  0  0  0
   -0.5869    2.1686    0.0000 C   0  0  0  0  0  0  0  0  0  0  0  0
    0.4912    1.3819    0.0000 C   0  0  0  0  0  0  0  0  0  0  0  0
   -0.3329    1.3819    0.0000 N   0  0  0  0  0  0  0  0  0  0  0  0
   -2.0354    2.0063    0.0000 O   0  0  0  0  0  0  0  0  0  0  0  0
    0.9740    0.7201    0.0000 N   0  0  0  0  0  0  0  0  0  0  0  0
    1.1863   -2.1395    0.0000 C   0  0  0  0  0  0  0  0  0  0  0  0
   -2.7056    2.4225    0.0000 C   0  0  0  0  0  0  0  0  0  0  0  0
    0.6369   -0.0292    0.0000 C   0  0  0  0  0  0  0  0  0  0  0  0
   -1.6234    3.2092    0.0000 C   0  0  0  0  0  0  0  0  0  0  0  0
    1.1738   -3.6213    0.0000 C   0  0  0  0  0  0  0  0  0  0  0  0
    0.0042   -2.9762    0.0000 C   0  0  0  0  0  0  0  0  0  0  0  0
    0.7410    2.1686    0.0000 S   0  0  0  0  0  0  0  0  0  0  0  0
   -2.4475    3.2175    0.0000 C   0  0  0  0  0  0  0  0  0  0  0  0
    0.0791    2.6556    0.0000 C   0  0  0  0  0  0  0  0  0  0  0  0
    0.7285   -1.4527    0.0000 C   0  0  0  0  0  0  0  0  0  0  0  0
    1.0906   -0.7160    0.0000 C   0  0  0  0  0  0  0  0  0  0  0  0
   -0.1831   -0.0624    0.0000 O   0  0  0  0  0  0  0  0  0  0  0  0
   -3.5172    2.2560    0.0000 C   0  0  0  0  0  0  0  0  0  0  0  0
    0.5787   -4.1874    0.0000 C   0  0  0  0  0  0  0  0  0  0  0  0
   -0.1456   -3.8004    0.0000 C   0  0  0  0  0  0  0  0  0  0  0  0
    1.9730   -3.7837    0.0000 O   0  0  0  0  0  0  0  0  0  0  0  0
   -0.5578   -2.3767    0.0000 O   0  0  0  0  0  0  0  0  0  0  0  0
    2.0022   -2.0896    0.0000 C   0  0  0  0  0  0  0  0  0  0  0  0
   -3.7670    1.4693    0.0000 O   0  0  0  0  0  0  0  0  0  0  0  0
   -3.0052    3.8294    0.0000 C   0  0  0  0  0  0  0  0  0  0  0  0
    1.9148   -0.6661    0.0000 C   0  0  0  0  0  0  0  0  0  0  0  0
    2.3726   -1.3528    0.0000 C   0  0  0  0  0  0  0  0  0  0  0  0
   -3.8169    3.6671    0.0000 C   0  0  0  0  0  0  0  0  0  0  0  0
   -4.0667    2.8679    0.0000 C   0  0  0  0  0  0  0  0  0  0  0  0
   -4.5786    1.2987    0.0000 C   0  0  0  0  0  0  0  0  0  0  0  0
  2  3  1  0  0  0  0
  3  5  1  0  0  0  0
  4  7  1  0  0  0  0
  5  4  2  0  0  0  0
  6  2  1  0  0  0  0
  7 10  1  0  0  0  0
  8  1  1  0  0  0  0
  9  6  1  0  0  0  0
 10 18  1  0  0  0  0
 11  2  2  0  0  0  0
 12  1  1  0  0  0  0
 13  1  1  0  0  0  0
 14  4  1  0  0  0  0
 15 11  1  0  0  0  0
 16 14  1  0  0  0  0
 17  8  1  0  0  0  0
 18 17  2  0  0  0  0
 19 10  2  0  0  0  0
 20  9  1  0  0  0  0
 21 12  1  0  0  0  0
 22 13  1  0  0  0  0
 23 12  2  0  0  0  0
 24 13  2  0  0  0  0
 25  8  2  0  0  0  0
 26 20  1  0  0  0  0
 27 15  1  0  0  0  0
 28 29  2  0  0  0  0
 29 25  1  0  0  0  0
 30 27  2  0  0  0  0
 31 20  2  0  0  0  0
 32 26  1  0  0  0  0
 21 22  1  0  0  0  0
 18 28  1  0  0  0  0
 16  3  2  0  0  0  0
  9 15  2  0  0  0  0
 30 31  1  0  0  0  0
M  END
>  <IDNUMBER>
F2252-0059

>  <Chemical_Name>
3-(2,5-dioxopyrrolidin-1-yl)-N-[4-(7-methoxy-1-benzofuran-2-yl)-1,3-thiazol-2-yl]benzamide

>  <PriceCoeff>
1.00

>  <CAS>
921869-68-3

>  <MW>
447.46

>  <Description>
solid

>  <FSP3>
0.13

>  <clogP>
2.81

>  <TPSA>
129.98

>  <Acceptor>
6

>  <Donor>
1

>  <RotBonds>
5

>  <HAC>
32

>  <Collection>
General

>  <PPDS>
+

$$$$
F2252-0237
  Mrv2219 10102508112D          

 33 37  0  0  0  0            999 V2000
    0.8162   -2.8776    0.0000 N   0  0  0  0  0  0  0  0  0  0  0  0
   -1.3700    2.4236    0.0000 C   0  0  0  0  0  0  0  0  0  0  0  0
   -0.5872    2.1696    0.0000 C   0  0  0  0  0  0  0  0  0  0  0  0
    0.4914    1.3825    0.0000 C   0  0  0  0  0  0  0  0  0  0  0  0
   -0.3331    1.3825    0.0000 N   0  0  0  0  0  0  0  0  0  0  0  0
   -2.0363    2.0072    0.0000 O   0  0  0  0  0  0  0  0  0  0  0  0
    0.9744    0.7204    0.0000 N   0  0  0  0  0  0  0  0  0  0  0  0
    1.1868   -2.1405    0.0000 C   0  0  0  0  0  0  0  0  0  0  0  0
   -2.7068    2.4236    0.0000 C   0  0  0  0  0  0  0  0  0  0  0  0
    0.6371   -0.0292    0.0000 C   0  0  0  0  0  0  0  0  0  0  0  0
   -1.6241    3.2107    0.0000 C   0  0  0  0  0  0  0  0  0  0  0  0
    1.1743   -3.6229    0.0000 C   0  0  0  0  0  0  0  0  0  0  0  0
    0.0042   -2.9775    0.0000 C   0  0  0  0  0  0  0  0  0  0  0  0
    0.7413    2.1696    0.0000 S   0  0  0  0  0  0  0  0  0  0  0  0
   -2.4486    3.2190    0.0000 C   0  0  0  0  0  0  0  0  0  0  0  0
    0.0792    2.6568    0.0000 C   0  0  0  0  0  0  0  0  0  0  0  0
    0.7288   -1.4534    0.0000 C   0  0  0  0  0  0  0  0  0  0  0  0
    1.0911   -0.7163    0.0000 C   0  0  0  0  0  0  0  0  0  0  0  0
   -0.1832   -0.0625    0.0000 O   0  0  0  0  0  0  0  0  0  0  0  0
   -3.5188    2.2570    0.0000 C   0  0  0  0  0  0  0  0  0  0  0  0
    0.5789   -4.1893    0.0000 C   0  0  0  0  0  0  0  0  0  0  0  0
   -0.1457   -3.8020    0.0000 C   0  0  0  0  0  0  0  0  0  0  0  0
    1.9739   -3.7853    0.0000 O   0  0  0  0  0  0  0  0  0  0  0  0
   -0.5580   -2.3778    0.0000 O   0  0  0  0  0  0  0  0  0  0  0  0
    2.0031   -2.0905    0.0000 C   0  0  0  0  0  0  0  0  0  0  0  0
   -3.7687    1.4700    0.0000 O   0  0  0  0  0  0  0  0  0  0  0  0
   -3.0066    3.8311    0.0000 C   0  0  0  0  0  0  0  0  0  0  0  0
    1.9156   -0.6663    0.0000 C   0  0  0  0  0  0  0  0  0  0  0  0
    2.3737   -1.3534    0.0000 C   0  0  0  0  0  0  0  0  0  0  0  0
   -3.8186    3.6687    0.0000 C   0  0  0  0  0  0  0  0  0  0  0  0
   -4.0685    2.8692    0.0000 C   0  0  0  0  0  0  0  0  0  0  0  0
   -4.5807    1.2993    0.0000 C   0  0  0  0  0  0  0  0  0  0  0  0
   -5.1221    1.9072    0.0000 C   0  0  0  0  0  0  0  0  0  0  0  0
  2  3  1  0  0  0  0
  3  5  1  0  0  0  0
  4  7  1  0  0  0  0
  5  4  2  0  0  0  0
  6  2  1  0  0  0  0
  7 10  1  0  0  0  0
  8  1  1  0  0  0  0
  9  6  1  0  0  0  0
 10 18  1  0  0  0  0
 11  2  2  0  0  0  0
 12  1  1  0  0  0  0
 13  1  1  0  0  0  0
 14  4  1  0  0  0  0
 15 11  1  0  0  0  0
 16 14  1  0  0  0  0
 17  8  1  0  0  0  0
 18 17  2  0  0  0  0
 19 10  2  0  0  0  0
 20  9  1  0  0  0  0
 21 12  1  0  0  0  0
 22 13  1  0  0  0  0
 23 12  2  0  0  0  0
 24 13  2  0  0  0  0
 25  8  2  0  0  0  0
 26 20  1  0  0  0  0
 27 15  1  0  0  0  0
 28 29  2  0  0  0  0
 29 25  1  0  0  0  0
 30 27  2  0  0  0  0
 31 20  2  0  0  0  0
 32 26  1  0  0  0  0
 33 32  1  0  0  0  0
 21 22  1  0  0  0  0
 18 28  1  0  0  0  0
 16  3  2  0  0  0  0
  9 15  2  0  0  0  0
 30 31  1  0  0  0  0
M  END
>  <IDNUMBER>
F2252-0237

>  <Chemical_Name>
3-(2,5-dioxopyrrolidin-1-yl)-N-[4-(7-ethoxy-1-benzofuran-2-yl)-1,3-thiazol-2-yl]benzamide

>  <PriceCoeff>
1.00

>  <CAS>
921570-18-5

>  <MW>
461.49

>  <Description>
solid

>  <FSP3>
0.17

>  <clogP>
3.34

>  <TPSA>
129.98

>  <Acceptor>
6

>  <Donor>
1

>  <RotBonds>
6

>  <HAC>
33

>  <Collection>
General

>  <PPDS>
+

$$$$
F2257-0230
  Mrv2219 10102508112D          

 16 17  0  0  0  0            999 V2000
   -2.8524    7.4762    0.0000 N   0  0  0  0  0  0  0  0  0  0  0  0
   -2.0291    7.5635    0.0000 C   0  0  0  0  0  0  0  0  0  0  0  0
   -3.0312    6.6737    0.0000 C   0  0  0  0  0  0  0  0  0  0  0  0
   -2.3160    6.2537    0.0000 C   0  0  0  0  0  0  0  0  0  0  0  0
   -1.7048    6.8026    0.0000 C   0  0  0  0  0  0  0  0  0  0  0  0
   -3.7422    3.7921    0.0000 C   0  0  0  0  0  0  0  0  0  0  0  0
   -3.0312    4.2038    0.0000 N   0  0  0  0  0  0  0  0  0  0  0  0
   -2.3202    5.4304    0.0000 C   0  0  0  0  0  0  0  0  0  0  0  0
   -3.0312    5.0188    0.0000 C   0  0  0  0  0  0  0  0  0  0  0  0
   -1.6174    8.2746    0.0000 O   0  0  0  0  0  0  0  0  0  0  0  0
   -4.4491    4.2038    0.0000 O   0  0  0  0  0  0  0  0  0  0  0  0
   -3.7505    6.2662    0.0000 C   0  0  0  0  0  0  0  0  0  0  0  0
   -3.7505    5.4387    0.0000 C   0  0  0  0  0  0  0  0  0  0  0  0
   -3.7381    2.9813    0.0000 C   0  0  0  0  0  0  0  0  0  0  0  0
   -4.4616    2.5655    0.0000 C   0  0  0  0  0  0  0  0  0  0  0  0
   -4.4616    1.7422    0.0000 C   0  0  0  0  0  0  0  0  0  0  0  0
  2  1  1  0  0  0  0
  3  1  1  0  0  0  0
  4  3  2  0  0  0  0
  5  2  1  0  0  0  0
  6  7  1  0  0  0  0
  7  9  1  0  0  0  0
  8  4  1  0  0  0  0
  9 13  1  0  0  0  0
 10  2  2  0  0  0  0
 11  6  2  0  0  0  0
 12  3  1  0  0  0  0
 13 12  2  0  0  0  0
 14  6  1  0  0  0  0
 15 14  1  0  0  0  0
 16 15  1  0  0  0  0
  4  5  1  0  0  0  0
  9  8  2  0  0  0  0
M  END
>  <IDNUMBER>
F2257-0230

>  <Chemical_Name>
N-(2-oxo-2,3-dihydro-1H-indol-5-yl)butanamide

>  <PriceCoeff>
1.50

>  <CAS>
117100-83-1

>  <MW>
218.25

>  <Description>
solid

>  <FSP3>
0.33

>  <clogP>
0.78

>  <TPSA>
58.20

>  <Acceptor>
2

>  <Donor>
2

>  <RotBonds>
3

>  <HAC>
16

>  <Collection>
Advanced

>  <PPDS>
+

$$$$
F2257-0235
  Mrv2219 10102508112D          

 21 23  0  0  0  0            999 V2000
   -2.8481    7.4649    0.0000 N   0  0  0  0  0  0  0  0  0  0  0  0
   -2.0261    7.5521    0.0000 C   0  0  0  0  0  0  0  0  0  0  0  0
   -3.0266    6.6636    0.0000 C   0  0  0  0  0  0  0  0  0  0  0  0
   -2.3125    6.2443    0.0000 C   0  0  0  0  0  0  0  0  0  0  0  0
   -3.7366    3.7864    0.0000 C   0  0  0  0  0  0  0  0  0  0  0  0
   -1.7022    6.7923    0.0000 C   0  0  0  0  0  0  0  0  0  0  0  0
   -3.0266    4.1974    0.0000 N   0  0  0  0  0  0  0  0  0  0  0  0
   -2.3167    5.4222    0.0000 C   0  0  0  0  0  0  0  0  0  0  0  0
   -3.0266    5.0112    0.0000 C   0  0  0  0  0  0  0  0  0  0  0  0
   -1.6150    8.2620    0.0000 O   0  0  0  0  0  0  0  0  0  0  0  0
   -4.4548    4.1891    0.0000 O   0  0  0  0  0  0  0  0  0  0  0  0
   -3.7449    6.2568    0.0000 C   0  0  0  0  0  0  0  0  0  0  0  0
   -3.7449    2.9726    0.0000 C   0  0  0  0  0  0  0  0  0  0  0  0
   -4.4672    2.5741    0.0000 C   0  0  0  0  0  0  0  0  0  0  0  0
   -3.7449    5.4305    0.0000 C   0  0  0  0  0  0  0  0  0  0  0  0
   -5.8872    1.7395    0.0000 C   0  0  0  0  0  0  0  0  0  0  0  0
   -6.5806    1.3203    0.0000 Cl  0  0  0  0  0  0  0  0  0  0  0  0
   -5.1772    1.3285    0.0000 C   0  0  0  0  0  0  0  0  0  0  0  0
   -5.8872    2.5533    0.0000 C   0  0  0  0  0  0  0  0  0  0  0  0
   -4.4548    1.7313    0.0000 C   0  0  0  0  0  0  0  0  0  0  0  0
   -5.1690    2.9768    0.0000 C   0  0  0  0  0  0  0  0  0  0  0  0
  2  1  1  0  0  0  0
  3  1  1  0  0  0  0
  4  3  2  0  0  0  0
  5  7  1  0  0  0  0
  6  2  1  0  0  0  0
  7  9  1  0  0  0  0
  8  4  1  0  0  0  0
  9 15  1  0  0  0  0
 10  2  2  0  0  0  0
 11  5  2  0  0  0  0
 12  3  1  0  0  0  0
 13  5  1  0  0  0  0
 14 13  1  0  0  0  0
 15 12  2  0  0  0  0
 16 19  1  0  0  0  0
 17 16  1  0  0  0  0
 18 20  1  0  0  0  0
 19 21  2  0  0  0  0
 20 14  2  0  0  0  0
 21 14  1  0  0  0  0
  4  6  1  0  0  0  0
  9  8  2  0  0  0  0
 18 16  2  0  0  0  0
M  END
>  <IDNUMBER>
F2257-0235

>  <Chemical_Name>
2-(4-chlorophenyl)-N-(2-oxo-2,3-dihydro-1H-indol-5-yl)acetamide

>  <PriceCoeff>
1.00

>  <CAS>
921544-79-8

>  <MW>
300.74

>  <Description>
solid

>  <FSP3>
0.12

>  <clogP>
1.98

>  <TPSA>
58.20

>  <Acceptor>
2

>  <Donor>
2

>  <RotBonds>
3

>  <HAC>
21

>  <Collection>
General

>  <PPDS>
+

$$$$
F2257-0257
  Mrv2219 10102508112D          

 21 23  0  0  0  0            999 V2000
   -2.8465    7.4609    0.0000 N   0  0  0  0  0  0  0  0  0  0  0  0
   -2.0249    7.5480    0.0000 C   0  0  0  0  0  0  0  0  0  0  0  0
   -3.0250    6.6600    0.0000 C   0  0  0  0  0  0  0  0  0  0  0  0
   -2.3112    6.2409    0.0000 C   0  0  0  0  0  0  0  0  0  0  0  0
   -3.7346    3.7844    0.0000 C   0  0  0  0  0  0  0  0  0  0  0  0
   -1.7013    6.7886    0.0000 C   0  0  0  0  0  0  0  0  0  0  0  0
   -3.0250    4.1952    0.0000 N   0  0  0  0  0  0  0  0  0  0  0  0
   -2.3154    5.4193    0.0000 C   0  0  0  0  0  0  0  0  0  0  0  0
   -3.0250    5.0085    0.0000 C   0  0  0  0  0  0  0  0  0  0  0  0
   -1.6141    8.2576    0.0000 O   0  0  0  0  0  0  0  0  0  0  0  0
   -4.4649    4.1952    0.0000 O   0  0  0  0  0  0  0  0  0  0  0  0
   -3.7428    6.2534    0.0000 C   0  0  0  0  0  0  0  0  0  0  0  0
   -3.7428    2.9752    0.0000 C   0  0  0  0  0  0  0  0  0  0  0  0
   -4.4566    2.5602    0.0000 C   0  0  0  0  0  0  0  0  0  0  0  0
   -3.7428    5.4276    0.0000 C   0  0  0  0  0  0  0  0  0  0  0  0
   -5.8466    1.7137    0.0000 C   0  0  0  0  0  0  0  0  0  0  0  0
   -6.5646    1.3029    0.0000 F   0  0  0  0  0  0  0  0  0  0  0  0
   -5.8715    2.5395    0.0000 C   0  0  0  0  0  0  0  0  0  0  0  0
   -5.1495    1.3195    0.0000 C   0  0  0  0  0  0  0  0  0  0  0  0
   -4.4400    1.7428    0.0000 C   0  0  0  0  0  0  0  0  0  0  0  0
   -5.1537    2.9710    0.0000 C   0  0  0  0  0  0  0  0  0  0  0  0
  2  1  1  0  0  0  0
  3  1  1  0  0  0  0
  4  3  2  0  0  0  0
  5  7  1  0  0  0  0
  6  2  1  0  0  0  0
  7  9  1  0  0  0  0
  8  4  1  0  0  0  0
  9 15  1  0  0  0  0
 10  2  2  0  0  0  0
 11  5  2  0  0  0  0
 12  3  1  0  0  0  0
 13  5  1  0  0  0  0
 14 13  1  0  0  0  0
 15 12  2  0  0  0  0
 16 18  1  0  0  0  0
 17 16  1  0  0  0  0
 18 21  2  0  0  0  0
 19 20  1  0  0  0  0
 20 14  2  0  0  0  0
 21 14  1  0  0  0  0
  4  6  1  0  0  0  0
  9  8  2  0  0  0  0
 19 16  2  0  0  0  0
M  END
>  <IDNUMBER>
F2257-0257

>  <Chemical_Name>
2-(4-fluorophenyl)-N-(2-oxo-2,3-dihydro-1H-indol-5-yl)acetamide

>  <PriceCoeff>
1.00

>  <CAS>
921838-61-1

>  <MW>
284.29

>  <Description>
solid

>  <FSP3>
0.12

>  <clogP>
1.41

>  <TPSA>
58.20

>  <Acceptor>
2

>  <Donor>
2

>  <RotBonds>
3

>  <HAC>
21

>  <Collection>
General

>  <PPDS>
+

$$$$
F2257-0267
  Mrv2219 10102508112D          

 21 23  0  0  0  0            999 V2000
   -2.8457    7.4588    0.0000 N   0  0  0  0  0  0  0  0  0  0  0  0
   -2.0244    7.5459    0.0000 C   0  0  0  0  0  0  0  0  0  0  0  0
   -3.0242    6.6581    0.0000 C   0  0  0  0  0  0  0  0  0  0  0  0
   -2.3106    6.2392    0.0000 C   0  0  0  0  0  0  0  0  0  0  0  0
   -3.7335    3.7833    0.0000 C   0  0  0  0  0  0  0  0  0  0  0  0
   -1.7008    6.7867    0.0000 C   0  0  0  0  0  0  0  0  0  0  0  0
   -3.0242    4.1940    0.0000 N   0  0  0  0  0  0  0  0  0  0  0  0
   -2.3148    5.4178    0.0000 C   0  0  0  0  0  0  0  0  0  0  0  0
   -3.0242    5.0071    0.0000 C   0  0  0  0  0  0  0  0  0  0  0  0
   -1.6137    8.2553    0.0000 O   0  0  0  0  0  0  0  0  0  0  0  0
   -4.4387    4.1982    0.0000 O   0  0  0  0  0  0  0  0  0  0  0  0
   -3.7418    6.2516    0.0000 C   0  0  0  0  0  0  0  0  0  0  0  0
   -3.7293    2.9577    0.0000 C   0  0  0  0  0  0  0  0  0  0  0  0
   -3.7418    5.4261    0.0000 C   0  0  0  0  0  0  0  0  0  0  0  0
   -4.4263    2.5222    0.0000 C   0  0  0  0  0  0  0  0  0  0  0  0
   -4.4263    1.7132    0.0000 C   0  0  0  0  0  0  0  0  0  0  0  0
   -5.1398    1.3026    0.0000 C   0  0  0  0  0  0  0  0  0  0  0  0
   -3.7086    1.2943    0.0000 C   0  0  0  0  0  0  0  0  0  0  0  0
   -3.7044    0.4687    0.0000 C   0  0  0  0  0  0  0  0  0  0  0  0
   -5.1356    0.4563    0.0000 C   0  0  0  0  0  0  0  0  0  0  0  0
   -4.4387    0.0580    0.0000 C   0  0  0  0  0  0  0  0  0  0  0  0
  2  1  1  0  0  0  0
  3  1  1  0  0  0  0
  4  3  2  0  0  0  0
  5  7  1  0  0  0  0
  6  2  1  0  0  0  0
  7  9  1  0  0  0  0
  8  4  1  0  0  0  0
  9 14  1  0  0  0  0
 10  2  2  0  0  0  0
 11  5  2  0  0  0  0
 12  3  1  0  0  0  0
 13  5  1  0  0  0  0
 14 12  2  0  0  0  0
 15 13  1  0  0  0  0
 16 15  1  0  0  0  0
 17 16  2  0  0  0  0
 18 16  1  0  0  0  0
 19 18  2  0  0  0  0
 20 17  1  0  0  0  0
 21 19  1  0  0  0  0
  4  6  1  0  0  0  0
  9  8  2  0  0  0  0
 21 20  2  0  0  0  0
M  END
>  <IDNUMBER>
F2257-0267

>  <Chemical_Name>
N-(2-oxo-2,3-dihydro-1H-indol-5-yl)-3-phenylpropanamide

>  <PriceCoeff>
1.00

>  <CAS>
921774-73-4

>  <MW>
280.32

>  <Description>
solid

>  <FSP3>
0.18

>  <clogP>
1.82

>  <TPSA>
58.20

>  <Acceptor>
2

>  <Donor>
2

>  <RotBonds>
4

>  <HAC>
21

>  <Collection>
General

>  <PPDS>
+

$$$$
F2257-0292
  Mrv2219 10102508112D          

 14 15  0  0  0  0            999 V2000
   -2.8465    7.4609    0.0000 N   0  0  0  0  0  0  0  0  0  0  0  0
   -2.0249    7.5480    0.0000 C   0  0  0  0  0  0  0  0  0  0  0  0
   -3.0250    6.6600    0.0000 C   0  0  0  0  0  0  0  0  0  0  0  0
   -2.3112    6.2409    0.0000 C   0  0  0  0  0  0  0  0  0  0  0  0
   -1.7013    6.7886    0.0000 C   0  0  0  0  0  0  0  0  0  0  0  0
   -3.7346    3.7844    0.0000 C   0  0  0  0  0  0  0  0  0  0  0  0
   -3.0250    4.1952    0.0000 N   0  0  0  0  0  0  0  0  0  0  0  0
   -2.3154    5.4193    0.0000 C   0  0  0  0  0  0  0  0  0  0  0  0
   -3.0250    5.0085    0.0000 C   0  0  0  0  0  0  0  0  0  0  0  0
   -1.6141    8.2576    0.0000 O   0  0  0  0  0  0  0  0  0  0  0  0
   -4.4524    4.1993    0.0000 O   0  0  0  0  0  0  0  0  0  0  0  0
   -3.7428    6.2534    0.0000 C   0  0  0  0  0  0  0  0  0  0  0  0
   -3.7428    5.4276    0.0000 C   0  0  0  0  0  0  0  0  0  0  0  0
   -3.7346    2.9710    0.0000 C   0  0  0  0  0  0  0  0  0  0  0  0
  2  1  1  0  0  0  0
  3  1  1  0  0  0  0
  4  3  2  0  0  0  0
  5  2  1  0  0  0  0
  6  7  1  0  0  0  0
  7  9  1  0  0  0  0
  8  4  1  0  0  0  0
  9 13  1  0  0  0  0
 10  2  2  0  0  0  0
 11  6  2  0  0  0  0
 12  3  1  0  0  0  0
 13 12  2  0  0  0  0
 14  6  1  0  0  0  0
  4  5  1  0  0  0  0
  9  8  2  0  0  0  0
M  END
>  <IDNUMBER>
F2257-0292

>  <Chemical_Name>
N-(2-oxo-2,3-dihydro-1H-indol-5-yl)acetamide

>  <PriceCoeff>
1.50

>  <MW>
190.20

>  <Description>
solid

>  <FSP3>
0.20

>  <clogP>
-0.27

>  <TPSA>
58.20

>  <Acceptor>
2

>  <Donor>
2

>  <RotBonds>
1

>  <HAC>
14

>  <Collection>
Advanced

$$$$
F2257-0298
  Mrv2219 10102508112D          

 24 27  0  0  0  0            999 V2000
   -2.8483    7.4655    0.0000 N   0  0  0  0  0  0  0  0  0  0  0  0
   -2.0262    7.5527    0.0000 C   0  0  0  0  0  0  0  0  0  0  0  0
   -3.0269    6.6641    0.0000 C   0  0  0  0  0  0  0  0  0  0  0  0
   -2.3127    6.2448    0.0000 C   0  0  0  0  0  0  0  0  0  0  0  0
   -3.7370    3.7868    0.0000 C   0  0  0  0  0  0  0  0  0  0  0  0
   -4.4594    2.5536    0.0000 C   0  0  0  0  0  0  0  0  0  0  0  0
   -1.7023    6.7929    0.0000 C   0  0  0  0  0  0  0  0  0  0  0  0
   -3.0269    4.1978    0.0000 N   0  0  0  0  0  0  0  0  0  0  0  0
   -3.7452    2.9729    0.0000 C   0  0  0  0  0  0  0  0  0  0  0  0
   -4.4594    1.7272    0.0000 C   0  0  0  0  0  0  0  0  0  0  0  0
   -2.3169    5.4227    0.0000 C   0  0  0  0  0  0  0  0  0  0  0  0
   -3.0269    5.0116    0.0000 C   0  0  0  0  0  0  0  0  0  0  0  0
   -1.6151    8.2628    0.0000 O   0  0  0  0  0  0  0  0  0  0  0  0
   -4.4552    4.1895    0.0000 O   0  0  0  0  0  0  0  0  0  0  0  0
   -3.7452    6.2573    0.0000 C   0  0  0  0  0  0  0  0  0  0  0  0
   -5.1776    1.3162    0.0000 C   0  0  0  0  0  0  0  0  0  0  0  0
   -3.7452    5.4310    0.0000 C   0  0  0  0  0  0  0  0  0  0  0  0
   -5.1693    2.9729    0.0000 C   0  0  0  0  0  0  0  0  0  0  0  0
   -5.8877    2.5536    0.0000 C   0  0  0  0  0  0  0  0  0  0  0  0
   -3.7494    1.3162    0.0000 C   0  0  0  0  0  0  0  0  0  0  0  0
   -5.8877    1.7272    0.0000 C   0  0  0  0  0  0  0  0  0  0  0  0
   -5.1693    0.4940    0.0000 C   0  0  0  0  0  0  0  0  0  0  0  0
   -3.7494    0.4940    0.0000 C   0  0  0  0  0  0  0  0  0  0  0  0
   -4.4801    0.0747    0.0000 C   0  0  0  0  0  0  0  0  0  0  0  0
  2  1  1  0  0  0  0
  3  1  1  0  0  0  0
  4  3  2  0  0  0  0
  5  8  1  0  0  0  0
  6  9  1  0  0  0  0
  7  2  1  0  0  0  0
  8 12  1  0  0  0  0
  9  5  1  0  0  0  0
 10  6  1  0  0  0  0
 11  4  1  0  0  0  0
 12 17  1  0  0  0  0
 13  2  2  0  0  0  0
 14  5  2  0  0  0  0
 15  3  1  0  0  0  0
 16 10  1  0  0  0  0
 17 15  2  0  0  0  0
 18  6  2  0  0  0  0
 19 18  1  0  0  0  0
 20 10  2  0  0  0  0
 21 19  2  0  0  0  0
 22 16  2  0  0  0  0
 23 20  1  0  0  0  0
 24 23  2  0  0  0  0
  4  7  1  0  0  0  0
 11 12  2  0  0  0  0
 21 16  1  0  0  0  0
 24 22  1  0  0  0  0
M  END
>  <IDNUMBER>
F2257-0298

>  <Chemical_Name>
2-(naphthalen-1-yl)-N-(2-oxo-2,3-dihydro-1H-indol-5-yl)acetamide

>  <PriceCoeff>
1.00

>  <CAS>
921814-50-8

>  <MW>
316.35

>  <Description>
solid

>  <FSP3>
0.10

>  <clogP>
2.44

>  <TPSA>
58.20

>  <Acceptor>
2

>  <Donor>
2

>  <RotBonds>
3

>  <HAC>
24

>  <Collection>
General

>  <PPDS>
+

$$$$
F2261-0203
  Mrv2219 10102508112D          

 29 31  0  0  0  0            999 V2000
   -2.9162    7.4880    0.0000 N   0  0  0  0  0  0  0  0  0  0  0  0
   -3.4777    8.0913    0.0000 C   0  0  0  0  0  0  0  0  0  0  0  0
   -3.7524    0.4950    0.0000 N   0  3  0  0  0  0  0  0  0  0  0  0
   -3.7441    2.9786    0.0000 C   0  0  0  0  0  0  0  0  0  0  0  0
   -3.7441    3.7940    0.0000 C   0  0  0  0  0  0  0  0  0  0  0  0
   -3.0410    6.6811    0.0000 C   0  0  0  0  0  0  0  0  0  0  0  0
   -4.3014    8.0289    0.0000 C   0  0  0  0  0  0  0  0  0  0  0  0
   -3.7524    6.2692    0.0000 C   0  0  0  0  0  0  0  0  0  0  0  0
   -4.4761    2.5667    0.0000 C   0  0  0  0  0  0  0  0  0  0  0  0
   -3.7524    1.3062    0.0000 C   0  0  0  0  0  0  0  0  0  0  0  0
   -4.5136    6.5562    0.0000 O   0  0  0  0  0  0  0  0  0  0  0  0
   -4.4761    1.7306    0.0000 C   0  0  0  0  0  0  0  0  0  0  0  0
   -3.0327    4.2058    0.0000 N   0  0  0  0  0  0  0  0  0  0  0  0
   -3.0285    2.5584    0.0000 C   0  0  0  0  0  0  0  0  0  0  0  0
   -3.7524    5.4455    0.0000 C   0  0  0  0  0  0  0  0  0  0  0  0
   -4.7632    7.3425    0.0000 C   0  0  0  0  0  0  0  0  0  0  0  0
   -2.3296    6.2692    0.0000 C   0  0  0  0  0  0  0  0  0  0  0  0
   -3.0327    0.0832    0.0000 O   0  5  0  0  0  0  0  0  0  0  0  0
   -3.0327    5.0212    0.0000 C   0  0  0  0  0  0  0  0  0  0  0  0
   -4.4636    0.0832    0.0000 O   0  0  0  0  0  0  0  0  0  0  0  0
   -3.1699    8.8609    0.0000 O   0  0  0  0  0  0  0  0  0  0  0  0
   -4.4636    4.1975    0.0000 O   0  0  0  0  0  0  0  0  0  0  0  0
   -3.0327    1.7348    0.0000 C   0  0  0  0  0  0  0  0  0  0  0  0
   -5.1792    2.9786    0.0000 Cl  0  0  0  0  0  0  0  0  0  0  0  0
   -2.3213    5.4455    0.0000 C   0  0  0  0  0  0  0  0  0  0  0  0
   -2.1299    7.7377    0.0000 C   0  0  0  0  0  0  0  0  0  0  0  0
   -5.1002    8.2411    0.0000 C   0  0  0  0  0  0  0  0  0  0  0  0
   -4.3056    8.8526    0.0000 C   0  0  0  0  0  0  0  0  0  0  0  0
   -1.9469    8.5406    0.0000 C   0  0  0  0  0  0  0  0  0  0  0  0
  2  1  1  0  0  0  0
  3 10  1  0  0  0  0
  4  5  1  0  0  0  0
  5 13  1  0  0  0  0
  6  1  1  0  0  0  0
  7  2  1  0  0  0  0
  8  6  2  0  0  0  0
  9  4  1  0  0  0  0
 10 23  2  0  0  0  0
 11  8  1  0  0  0  0
 12  9  2  0  0  0  0
 13 19  1  0  0  0  0
 14  4  2  0  0  0  0
 15  8  1  0  0  0  0
 16  7  1  0  0  0  0
 17  6  1  0  0  0  0
 18  3  1  0  0  0  0
 19 25  1  0  0  0  0
 20  3  2  0  0  0  0
 21  2  2  0  0  0  0
 22  5  2  0  0  0  0
 23 14  1  0  0  0  0
 24  9  1  0  0  0  0
 25 17  2  0  0  0  0
 26  1  1  0  0  0  0
 27  7  1  0  0  0  0
 28  7  1  0  0  0  0
 29 26  1  0  0  0  0
 11 16  1  0  0  0  0
 15 19  2  0  0  0  0
 10 12  1  0  0  0  0
M  CHG  2   3   1  18  -1
M  END
>  <IDNUMBER>
F2261-0203

>  <Chemical_Name>
2-chloro-N-(5-ethyl-3,3-dimethyl-4-oxo-2,3,4,5-tetrahydro-1,5-benzoxazepin-8-yl)-4-nitrobenzamide

>  <PriceCoeff>
1.00

>  <CAS>
921793-88-6

>  <MW>
417.84

>  <Description>
solid

>  <FSP3>
0.30

>  <clogP>
3.32

>  <TPSA>
101.78

>  <Acceptor>
5

>  <Donor>
1

>  <RotBonds>
4

>  <HAC>
29

>  <Collection>
General

>  <PPDS>
+

$$$$
F2261-0410
  Mrv2219 10102508112D          

 30 32  0  0  0  0            999 V2000
   -2.9536    7.5130    0.0000 N   0  0  0  0  0  0  0  0  0  0  0  0
   -3.5276    8.1038    0.0000 C   0  0  0  0  0  0  0  0  0  0  0  0
   -3.7524    0.4950    0.0000 N   0  3  0  0  0  0  0  0  0  0  0  0
   -3.7441    2.9786    0.0000 C   0  0  0  0  0  0  0  0  0  0  0  0
   -3.7441    3.7940    0.0000 C   0  0  0  0  0  0  0  0  0  0  0  0
   -3.0659    6.6894    0.0000 C   0  0  0  0  0  0  0  0  0  0  0  0
   -4.3389    8.0289    0.0000 C   0  0  0  0  0  0  0  0  0  0  0  0
   -3.7648    6.2692    0.0000 C   0  0  0  0  0  0  0  0  0  0  0  0
   -4.4761    2.5667    0.0000 C   0  0  0  0  0  0  0  0  0  0  0  0
   -3.7524    1.3062    0.0000 C   0  0  0  0  0  0  0  0  0  0  0  0
   -4.5385    6.5645    0.0000 O   0  0  0  0  0  0  0  0  0  0  0  0
   -4.4761    1.7306    0.0000 C   0  0  0  0  0  0  0  0  0  0  0  0
   -3.0327    4.2058    0.0000 N   0  0  0  0  0  0  0  0  0  0  0  0
   -3.0285    2.5584    0.0000 C   0  0  0  0  0  0  0  0  0  0  0  0
   -3.7524    5.4455    0.0000 C   0  0  0  0  0  0  0  0  0  0  0  0
   -4.8007    7.3425    0.0000 C   0  0  0  0  0  0  0  0  0  0  0  0
   -2.3420    6.2900    0.0000 C   0  0  0  0  0  0  0  0  0  0  0  0
   -3.0327    0.0832    0.0000 O   0  5  0  0  0  0  0  0  0  0  0  0
   -3.0327    5.0337    0.0000 C   0  0  0  0  0  0  0  0  0  0  0  0
   -4.4636    0.0832    0.0000 O   0  0  0  0  0  0  0  0  0  0  0  0
   -3.2281    8.8651    0.0000 O   0  0  0  0  0  0  0  0  0  0  0  0
   -4.4636    4.1975    0.0000 O   0  0  0  0  0  0  0  0  0  0  0  0
   -3.0327    1.7348    0.0000 C   0  0  0  0  0  0  0  0  0  0  0  0
   -5.1792    2.9786    0.0000 Cl  0  0  0  0  0  0  0  0  0  0  0  0
   -2.3296    5.4580    0.0000 C   0  0  0  0  0  0  0  0  0  0  0  0
   -2.1673    7.7627    0.0000 C   0  0  0  0  0  0  0  0  0  0  0  0
   -5.1501    8.2411    0.0000 C   0  0  0  0  0  0  0  0  0  0  0  0
   -4.3638    8.8526    0.0000 C   0  0  0  0  0  0  0  0  0  0  0  0
   -1.9926    8.5655    0.0000 C   0  0  0  0  0  0  0  0  0  0  0  0
   -1.2064    8.8152    0.0000 C   0  0  0  0  0  0  0  0  0  0  0  0
  2  1  1  0  0  0  0
  3 10  1  0  0  0  0
  4  5  1  0  0  0  0
  5 13  1  0  0  0  0
  6  1  1  0  0  0  0
  7  2  1  0  0  0  0
  8  6  2  0  0  0  0
  9  4  1  0  0  0  0
 10 23  2  0  0  0  0
 11  8  1  0  0  0  0
 12  9  2  0  0  0  0
 13 19  1  0  0  0  0
 14  4  2  0  0  0  0
 15  8  1  0  0  0  0
 16  7  1  0  0  0  0
 17  6  1  0  0  0  0
 18  3  1  0  0  0  0
 19 25  1  0  0  0  0
 20  3  2  0  0  0  0
 21  2  2  0  0  0  0
 22  5  2  0  0  0  0
 23 14  1  0  0  0  0
 24  9  1  0  0  0  0
 25 17  2  0  0  0  0
 26  1  1  0  0  0  0
 27  7  1  0  0  0  0
 28  7  1  0  0  0  0
 29 26  1  0  0  0  0
 30 29  1  0  0  0  0
 11 16  1  0  0  0  0
 15 19  2  0  0  0  0
 10 12  1  0  0  0  0
M  CHG  2   3   1  18  -1
M  END
>  <IDNUMBER>
F2261-0410

>  <Chemical_Name>
2-chloro-N-(3,3-dimethyl-4-oxo-5-propyl-2,3,4,5-tetrahydro-1,5-benzoxazepin-8-yl)-4-nitrobenzamide

>  <PriceCoeff>
1.00

>  <CAS>
921567-63-7

>  <MW>
431.87

>  <Description>
solid

>  <FSP3>
0.33

>  <clogP>
3.85

>  <TPSA>
101.78

>  <Acceptor>
5

>  <Donor>
1

>  <RotBonds>
5

>  <HAC>
30

>  <Collection>
General

>  <PPDS>
+

$$$$
F2266-0010
  Mrv2219 10102508112D          

 23 25  0  0  0  0            999 V2000
   -3.0443    7.5213    0.0000 N   0  0  0  0  0  0  0  0  0  0  0  0
   -3.0443    6.6967    0.0000 C   0  0  0  0  0  0  0  0  0  0  0  0
   -2.3239    7.9336    0.0000 C   0  0  0  0  0  0  0  0  0  0  0  0
   -3.7482    3.7981    0.0000 C   0  0  0  0  0  0  0  0  0  0  0  0
   -2.3322    6.2761    0.0000 C   0  0  0  0  0  0  0  0  0  0  0  0
   -3.0360    4.2104    0.0000 N   0  0  0  0  0  0  0  0  0  0  0  0
   -3.7606    6.2761    0.0000 C   0  0  0  0  0  0  0  0  0  0  0  0
   -3.7565    2.9818    0.0000 C   0  0  0  0  0  0  0  0  0  0  0  0
   -3.0360    5.0392    0.0000 C   0  0  0  0  0  0  0  0  0  0  0  0
   -2.3197    5.4515    0.0000 C   0  0  0  0  0  0  0  0  0  0  0  0
   -1.6117    7.5213    0.0000 C   0  0  0  0  0  0  0  0  0  0  0  0
   -4.4686    4.2021    0.0000 O   0  0  0  0  0  0  0  0  0  0  0  0
   -2.3239    8.7624    0.0000 O   0  0  0  0  0  0  0  0  0  0  0  0
   -1.6117    6.6967    0.0000 C   0  0  0  0  0  0  0  0  0  0  0  0
   -3.0443    2.5570    0.0000 C   0  0  0  0  0  0  0  0  0  0  0  0
   -4.4686    2.5695    0.0000 C   0  0  0  0  0  0  0  0  0  0  0  0
   -3.7565    5.4515    0.0000 C   0  0  0  0  0  0  0  0  0  0  0  0
   -3.7689    7.9378    0.0000 C   0  0  0  0  0  0  0  0  0  0  0  0
   -3.7606    1.3202    0.0000 C   0  0  0  0  0  0  0  0  0  0  0  0
   -3.0443    1.7324    0.0000 C   0  0  0  0  0  0  0  0  0  0  0  0
   -4.4728    1.7366    0.0000 C   0  0  0  0  0  0  0  0  0  0  0  0
   -3.7689    0.4956    0.0000 Cl  0  0  0  0  0  0  0  0  0  0  0  0
   -3.7689    8.7624    0.0000 C   0  0  0  0  0  0  0  0  0  0  0  0
  2  1  1  0  0  0  0
  3  1  1  0  0  0  0
  4  6  1  0  0  0  0
  5  2  2  0  0  0  0
  6  9  1  0  0  0  0
  7  2  1  0  0  0  0
  8  4  1  0  0  0  0
  9 17  1  0  0  0  0
 10  5  1  0  0  0  0
 11  3  1  0  0  0  0
 12  4  2  0  0  0  0
 13  3  2  0  0  0  0
 14 11  1  0  0  0  0
 15  8  1  0  0  0  0
 16  8  2  0  0  0  0
 17  7  2  0  0  0  0
 18  1  1  0  0  0  0
 19 21  2  0  0  0  0
 20 15  2  0  0  0  0
 21 16  1  0  0  0  0
 22 19  1  0  0  0  0
 23 18  1  0  0  0  0
  5 14  1  0  0  0  0
 10  9  2  0  0  0  0
 20 19  1  0  0  0  0
M  END
>  <IDNUMBER>
F2266-0010

>  <Chemical_Name>
4-chloro-N-(1-ethyl-2-oxo-1,2,3,4-tetrahydroquinolin-6-yl)benzamide

>  <PriceCoeff>
1.00

>  <CAS>
922129-56-4

>  <MW>
328.79

>  <Description>
solid

>  <FSP3>
0.22

>  <clogP>
3.31

>  <TPSA>
49.41

>  <Acceptor>
2

>  <Donor>
1

>  <RotBonds>
3

>  <HAC>
23

>  <Collection>
General

>  <PPDS>
+

$$$$
F2266-0069
  Mrv2219 10102508112D          

 23 25  0  0  0  0            999 V2000
   -3.0387    7.5074    0.0000 N   0  0  0  0  0  0  0  0  0  0  0  0
   -3.0387    6.6844    0.0000 C   0  0  0  0  0  0  0  0  0  0  0  0
   -2.3196    7.9190    0.0000 C   0  0  0  0  0  0  0  0  0  0  0  0
   -3.7412    3.7911    0.0000 C   0  0  0  0  0  0  0  0  0  0  0  0
   -2.3279    6.2645    0.0000 C   0  0  0  0  0  0  0  0  0  0  0  0
   -3.0304    4.2027    0.0000 N   0  0  0  0  0  0  0  0  0  0  0  0
   -3.7495    2.9763    0.0000 C   0  0  0  0  0  0  0  0  0  0  0  0
   -3.7537    6.2645    0.0000 C   0  0  0  0  0  0  0  0  0  0  0  0
   -3.0304    5.0299    0.0000 C   0  0  0  0  0  0  0  0  0  0  0  0
   -2.3154    5.4415    0.0000 C   0  0  0  0  0  0  0  0  0  0  0  0
   -4.4604    4.1944    0.0000 O   0  0  0  0  0  0  0  0  0  0  0  0
   -1.6087    7.5074    0.0000 C   0  0  0  0  0  0  0  0  0  0  0  0
   -2.3196    8.7462    0.0000 O   0  0  0  0  0  0  0  0  0  0  0  0
   -1.6087    6.6844    0.0000 C   0  0  0  0  0  0  0  0  0  0  0  0
   -4.4645    2.5565    0.0000 C   0  0  0  0  0  0  0  0  0  0  0  0
   -3.7495    5.4415    0.0000 C   0  0  0  0  0  0  0  0  0  0  0  0
   -3.7620    7.9232    0.0000 C   0  0  0  0  0  0  0  0  0  0  0  0
   -4.4728    1.7334    0.0000 C   0  0  0  0  0  0  0  0  0  0  0  0
   -5.1837    1.3302    0.0000 Cl  0  0  0  0  0  0  0  0  0  0  0  0
   -3.0387    2.5523    0.0000 C   0  0  0  0  0  0  0  0  0  0  0  0
   -3.0387    1.7210    0.0000 C   0  0  0  0  0  0  0  0  0  0  0  0
   -3.7537    1.3177    0.0000 C   0  0  0  0  0  0  0  0  0  0  0  0
   -3.7620    8.7462    0.0000 C   0  0  0  0  0  0  0  0  0  0  0  0
  2  1  1  0  0  0  0
  3  1  1  0  0  0  0
  4  6  1  0  0  0  0
  5  2  2  0  0  0  0
  6  9  1  0  0  0  0
  7  4  1  0  0  0  0
  8  2  1  0  0  0  0
  9 16  1  0  0  0  0
 10  5  1  0  0  0  0
 11  4  2  0  0  0  0
 12  3  1  0  0  0  0
 13  3  2  0  0  0  0
 14 12  1  0  0  0  0
 15  7  2  0  0  0  0
 16  8  2  0  0  0  0
 17  1  1  0  0  0  0
 18 15  1  0  0  0  0
 19 18  1  0  0  0  0
 20  7  1  0  0  0  0
 21 20  2  0  0  0  0
 22 21  1  0  0  0  0
 23 17  1  0  0  0  0
  5 14  1  0  0  0  0
 10  9  2  0  0  0  0
 22 18  2  0  0  0  0
M  END
>  <IDNUMBER>
F2266-0069

>  <Chemical_Name>
3-chloro-N-(1-ethyl-2-oxo-1,2,3,4-tetrahydroquinolin-6-yl)benzamide

>  <PriceCoeff>
1.00

>  <CAS>
922053-37-0

>  <MW>
328.79

>  <Description>
solid

>  <FSP3>
0.22

>  <clogP>
3.31

>  <TPSA>
49.41

>  <Acceptor>
2

>  <Donor>
1

>  <RotBonds>
3

>  <HAC>
23

>  <Collection>
General

>  <PPDS>
+

$$$$
F2266-0311
  Mrv2219 10102508112D          

 24 26  0  0  0  0            999 V2000
   -3.7495    0.4946    0.0000 N   0  3  0  0  0  0  0  0  0  0  0  0
   -3.7412    2.9763    0.0000 C   0  0  0  0  0  0  0  0  0  0  0  0
   -3.7412    3.7911    0.0000 C   0  0  0  0  0  0  0  0  0  0  0  0
   -3.0387    7.5074    0.0000 N   0  0  0  0  0  0  0  0  0  0  0  0
   -4.4728    2.5648    0.0000 C   0  0  0  0  0  0  0  0  0  0  0  0
   -3.7495    1.3052    0.0000 C   0  0  0  0  0  0  0  0  0  0  0  0
   -4.4728    1.7293    0.0000 C   0  0  0  0  0  0  0  0  0  0  0  0
   -3.0387    6.6761    0.0000 C   0  0  0  0  0  0  0  0  0  0  0  0
   -3.0304    4.2027    0.0000 N   0  0  0  0  0  0  0  0  0  0  0  0
   -2.3196    7.9107    0.0000 C   0  0  0  0  0  0  0  0  0  0  0  0
   -3.0262    2.5565    0.0000 C   0  0  0  0  0  0  0  0  0  0  0  0
   -2.3196    6.2645    0.0000 C   0  0  0  0  0  0  0  0  0  0  0  0
   -3.0304    0.0831    0.0000 O   0  5  0  0  0  0  0  0  0  0  0  0
   -4.4604    0.0831    0.0000 O   0  0  0  0  0  0  0  0  0  0  0  0
   -3.0304    5.0175    0.0000 C   0  0  0  0  0  0  0  0  0  0  0  0
   -4.4604    4.1944    0.0000 O   0  0  0  0  0  0  0  0  0  0  0  0
   -2.3196    5.4415    0.0000 C   0  0  0  0  0  0  0  0  0  0  0  0
   -3.0304    1.7334    0.0000 C   0  0  0  0  0  0  0  0  0  0  0  0
   -2.3196    8.7462    0.0000 O   0  0  0  0  0  0  0  0  0  0  0  0
   -3.7537    6.2645    0.0000 C   0  0  0  0  0  0  0  0  0  0  0  0
   -1.6170    6.6761    0.0000 C   0  0  0  0  0  0  0  0  0  0  0  0
   -5.1754    2.9763    0.0000 Cl  0  0  0  0  0  0  0  0  0  0  0  0
   -1.6087    7.4991    0.0000 C   0  0  0  0  0  0  0  0  0  0  0  0
   -3.7537    5.4415    0.0000 C   0  0  0  0  0  0  0  0  0  0  0  0
  2 11  2  0  0  0  0
  3  2  1  0  0  0  0
  4  8  1  0  0  0  0
  5  7  2  0  0  0  0
  6  1  1  0  0  0  0
  7  6  1  0  0  0  0
  8 20  1  0  0  0  0
  9  3  1  0  0  0  0
 10  4  1  0  0  0  0
 11 18  1  0  0  0  0
 12 17  1  0  0  0  0
 13  1  1  0  0  0  0
 14  1  2  0  0  0  0
 15  9  1  0  0  0  0
 16  3  2  0  0  0  0
 17 15  2  0  0  0  0
 18  6  2  0  0  0  0
 19 10  2  0  0  0  0
 20 24  2  0  0  0  0
 21 12  1  0  0  0  0
 22  5  1  0  0  0  0
 23 21  1  0  0  0  0
 24 15  1  0  0  0  0
  5  2  1  0  0  0  0
 12  8  2  0  0  0  0
 23 10  1  0  0  0  0
M  CHG  2   1   1  13  -1
M  END
>  <IDNUMBER>
F2266-0311

>  <Chemical_Name>
2-chloro-4-nitro-N-(2-oxo-1,2,3,4-tetrahydroquinolin-6-yl)benzamide

>  <PriceCoeff>
1.00

>  <CAS>
922000-35-9

>  <MW>
345.74

>  <Description>
solid

>  <FSP3>
0.12

>  <clogP>
1.93

>  <TPSA>
101.34

>  <Acceptor>
4

>  <Donor>
2

>  <RotBonds>
3

>  <HAC>
24

>  <Collection>
General

>  <PPDS>
+

$$$$
F2271-0010
  Mrv2219 10102508112D          

 23 25  0  0  0  0            999 V2000
   -2.3420    7.9291    0.0000 C   0  0  0  0  0  0  0  0  0  0  0  0
   -2.3587    8.7611    0.0000 N   0  0  0  0  0  0  0  0  0  0  0  0
   -1.6307    7.5172    0.0000 C   0  0  0  0  0  0  0  0  0  0  0  0
   -3.7441    3.7940    0.0000 C   0  0  0  0  0  0  0  0  0  0  0  0
   -3.0576    7.5172    0.0000 C   0  0  0  0  0  0  0  0  0  0  0  0
   -3.7524    2.9786    0.0000 C   0  0  0  0  0  0  0  0  0  0  0  0
   -1.6225    6.6936    0.0000 C   0  0  0  0  0  0  0  0  0  0  0  0
   -4.4636    4.1975    0.0000 O   0  0  0  0  0  0  0  0  0  0  0  0
   -3.0327    4.2058    0.0000 N   0  0  0  0  0  0  0  0  0  0  0  0
   -3.0410    2.5542    0.0000 C   0  0  0  0  0  0  0  0  0  0  0  0
   -4.4636    2.5667    0.0000 C   0  0  0  0  0  0  0  0  0  0  0  0
   -3.0576    6.6811    0.0000 C   0  0  0  0  0  0  0  0  0  0  0  0
   -2.3338    6.2692    0.0000 C   0  0  0  0  0  0  0  0  0  0  0  0
   -3.7565    1.3187    0.0000 C   0  0  0  0  0  0  0  0  0  0  0  0
   -3.0410    1.7306    0.0000 C   0  0  0  0  0  0  0  0  0  0  0  0
   -4.4678    1.7348    0.0000 C   0  0  0  0  0  0  0  0  0  0  0  0
   -3.7648    0.4950    0.0000 Cl  0  0  0  0  0  0  0  0  0  0  0  0
   -1.6349    9.1771    0.0000 C   0  0  0  0  0  0  0  0  0  0  0  0
   -3.0327    5.0212    0.0000 C   0  0  0  0  0  0  0  0  0  0  0  0
   -3.0784    9.1646    0.0000 C   0  0  0  0  0  0  0  0  0  0  0  0
   -0.9193    7.9416    0.0000 C   0  0  0  0  0  0  0  0  0  0  0  0
   -0.9193    8.7653    0.0000 C   0  0  0  0  0  0  0  0  0  0  0  0
   -2.3296    5.4455    0.0000 C   0  0  0  0  0  0  0  0  0  0  0  0
  2  1  1  0  0  0  0
  3  1  2  0  0  0  0
  4  9  1  0  0  0  0
  5  1  1  0  0  0  0
  6  4  1  0  0  0  0
  7  3  1  0  0  0  0
  8  4  2  0  0  0  0
  9 19  1  0  0  0  0
 10  6  1  0  0  0  0
 11  6  2  0  0  0  0
 12  5  2  0  0  0  0
 13 12  1  0  0  0  0
 14 16  2  0  0  0  0
 15 10  2  0  0  0  0
 16 11  1  0  0  0  0
 17 14  1  0  0  0  0
 18  2  1  0  0  0  0
 19 23  1  0  0  0  0
 20  2  1  0  0  0  0
 21  3  1  0  0  0  0
 22 21  1  0  0  0  0
 23 13  1  0  0  0  0
  7 13  2  0  0  0  0
 22 18  1  0  0  0  0
 15 14  1  0  0  0  0
M  END
>  <IDNUMBER>
F2271-0010

>  <Chemical_Name>
4-chloro-N-[2-(1-methyl-1,2,3,4-tetrahydroquinolin-6-yl)ethyl]benzamide

>  <PriceCoeff>
1.00

>  <CAS>
946280-65-5

>  <MW>
328.84

>  <Description>
solid

>  <FSP3>
0.32

>  <clogP>
4.70

>  <TPSA>
32.34

>  <Acceptor>
2

>  <Donor>
2

>  <RotBonds>
4

>  <HAC>
23

>  <Collection>
General

>  <PPDS>
+

$$$$
F2271-0114
  Mrv2219 10102508112D          

 25 27  0  0  0  0            999 V2000
   -2.3333    7.9292    0.0000 C   0  0  0  0  0  0  0  0  0  0  0  0
   -2.3333    8.7542    0.0000 N   0  0  0  0  0  0  0  0  0  0  0  0
   -1.6208    7.5125    0.0000 C   0  0  0  0  0  0  0  0  0  0  0  0
   -3.7500    3.8000    0.0000 C   0  0  0  0  0  0  0  0  0  0  0  0
   -3.0458    7.5125    0.0000 C   0  0  0  0  0  0  0  0  0  0  0  0
   -3.7583    2.9833    0.0000 C   0  0  0  0  0  0  0  0  0  0  0  0
   -1.6125    6.6792    0.0000 C   0  0  0  0  0  0  0  0  0  0  0  0
   -4.4708    4.2042    0.0000 O   0  0  0  0  0  0  0  0  0  0  0  0
   -3.0375    4.2125    0.0000 N   0  0  0  0  0  0  0  0  0  0  0  0
   -3.0458    2.5583    0.0000 C   0  0  0  0  0  0  0  0  0  0  0  0
   -4.4708    2.5708    0.0000 C   0  0  0  0  0  0  0  0  0  0  0  0
   -3.0500    6.6875    0.0000 C   0  0  0  0  0  0  0  0  0  0  0  0
   -2.3333    6.2667    0.0000 C   0  0  0  0  0  0  0  0  0  0  0  0
   -3.7625    1.3208    0.0000 C   0  0  0  0  0  0  0  0  0  0  0  0
   -3.0458    1.7333    0.0000 C   0  0  0  0  0  0  0  0  0  0  0  0
   -4.4750    1.7375    0.0000 C   0  0  0  0  0  0  0  0  0  0  0  0
   -3.7708    0.4958    0.0000 Cl  0  0  0  0  0  0  0  0  0  0  0  0
   -1.6208    9.1625    0.0000 C   0  0  0  0  0  0  0  0  0  0  0  0
   -3.0500    9.1542    0.0000 C   0  0  0  0  0  0  0  0  0  0  0  0
   -3.0375    5.0292    0.0000 C   0  0  0  0  0  0  0  0  0  0  0  0
   -0.9083    7.9250    0.0000 C   0  0  0  0  0  0  0  0  0  0  0  0
   -0.9083    8.7417    0.0000 C   0  0  0  0  0  0  0  0  0  0  0  0
   -2.3333    5.4417    0.0000 C   0  0  0  0  0  0  0  0  0  0  0  0
   -3.0500    9.9792    0.0000 C   0  0  0  0  0  0  0  0  0  0  0  0
   -3.7625   10.3917    0.0000 C   0  0  0  0  0  0  0  0  0  0  0  0
  2  1  1  0  0  0  0
  3  1  2  0  0  0  0
  4  9  1  0  0  0  0
  5  1  1  0  0  0  0
  6  4  1  0  0  0  0
  7  3  1  0  0  0  0
  8  4  2  0  0  0  0
  9 20  1  0  0  0  0
 10  6  1  0  0  0  0
 11  6  2  0  0  0  0
 12  5  2  0  0  0  0
 13 12  1  0  0  0  0
 14 16  2  0  0  0  0
 15 10  2  0  0  0  0
 16 11  1  0  0  0  0
 17 14  1  0  0  0  0
 18  2  1  0  0  0  0
 19  2  1  0  0  0  0
 20 23  1  0  0  0  0
 21  3  1  0  0  0  0
 22 21  1  0  0  0  0
 23 13  1  0  0  0  0
 24 19  1  0  0  0  0
 25 24  1  0  0  0  0
  7 13  2  0  0  0  0
 22 18  1  0  0  0  0
 15 14  1  0  0  0  0
M  END
>  <IDNUMBER>
F2271-0114

>  <Chemical_Name>
4-chloro-N-[2-(1-propyl-1,2,3,4-tetrahydroquinolin-6-yl)ethyl]benzamide

>  <PriceCoeff>
1.00

>  <CAS>
955527-53-4

>  <MW>
356.89

>  <Description>
solid

>  <FSP3>
0.38

>  <clogP>
5.76

>  <TPSA>
32.34

>  <Acceptor>
2

>  <Donor>
2

>  <RotBonds>
6

>  <HAC>
25

>  <Collection>
General

>  <PPDS>
+

$$$$
F2271-0197
  Mrv2219 10102508112D          

 24 26  0  0  0  0            999 V2000
   -2.3279    7.9314    0.0000 C   0  0  0  0  0  0  0  0  0  0  0  0
   -2.3320    8.7545    0.0000 N   0  0  0  0  0  0  0  0  0  0  0  0
   -1.6087    7.5116    0.0000 C   0  0  0  0  0  0  0  0  0  0  0  0
   -3.7412    3.7911    0.0000 C   0  0  0  0  0  0  0  0  0  0  0  0
   -3.0429    7.5074    0.0000 C   0  0  0  0  0  0  0  0  0  0  0  0
   -3.7495    2.9763    0.0000 C   0  0  0  0  0  0  0  0  0  0  0  0
   -1.6087    6.6761    0.0000 C   0  0  0  0  0  0  0  0  0  0  0  0
   -4.4604    4.1944    0.0000 O   0  0  0  0  0  0  0  0  0  0  0  0
   -3.0304    4.2027    0.0000 N   0  0  0  0  0  0  0  0  0  0  0  0
   -3.0387    2.5523    0.0000 C   0  0  0  0  0  0  0  0  0  0  0  0
   -4.4604    2.5648    0.0000 C   0  0  0  0  0  0  0  0  0  0  0  0
   -3.0429    6.6761    0.0000 C   0  0  0  0  0  0  0  0  0  0  0  0
   -2.3279    6.2645    0.0000 C   0  0  0  0  0  0  0  0  0  0  0  0
   -3.7537    1.3177    0.0000 C   0  0  0  0  0  0  0  0  0  0  0  0
   -3.0387    1.7293    0.0000 C   0  0  0  0  0  0  0  0  0  0  0  0
   -4.4645    1.7334    0.0000 C   0  0  0  0  0  0  0  0  0  0  0  0
   -3.7620    0.4946    0.0000 Cl  0  0  0  0  0  0  0  0  0  0  0  0
   -1.6170    9.1660    0.0000 C   0  0  0  0  0  0  0  0  0  0  0  0
   -3.0553    9.1578    0.0000 C   0  0  0  0  0  0  0  0  0  0  0  0
   -3.0304    5.0175    0.0000 C   0  0  0  0  0  0  0  0  0  0  0  0
   -0.9062    7.9314    0.0000 C   0  0  0  0  0  0  0  0  0  0  0  0
   -0.8979    8.7545    0.0000 C   0  0  0  0  0  0  0  0  0  0  0  0
   -2.3279    5.4373    0.0000 C   0  0  0  0  0  0  0  0  0  0  0  0
   -3.0553    9.9808    0.0000 C   0  0  0  0  0  0  0  0  0  0  0  0
  2  1  1  0  0  0  0
  3  1  2  0  0  0  0
  4  9  1  0  0  0  0
  5  1  1  0  0  0  0
  6  4  1  0  0  0  0
  7  3  1  0  0  0  0
  8  4  2  0  0  0  0
  9 20  1  0  0  0  0
 10  6  1  0  0  0  0
 11  6  2  0  0  0  0
 12  5  2  0  0  0  0
 13 12  1  0  0  0  0
 14 16  2  0  0  0  0
 15 10  2  0  0  0  0
 16 11  1  0  0  0  0
 17 14  1  0  0  0  0
 18  2  1  0  0  0  0
 19  2  1  0  0  0  0
 20 23  1  0  0  0  0
 21  3  1  0  0  0  0
 22 21  1  0  0  0  0
 23 13  1  0  0  0  0
 24 19  1  0  0  0  0
  7 13  2  0  0  0  0
 22 18  1  0  0  0  0
 15 14  1  0  0  0  0
M  END
>  <IDNUMBER>
F2271-0197

>  <Chemical_Name>
4-chloro-N-[2-(1-ethyl-1,2,3,4-tetrahydroquinolin-6-yl)ethyl]benzamide

>  <PriceCoeff>
1.00

>  <CAS>
955791-52-3

>  <MW>
342.86

>  <Description>
solid

>  <FSP3>
0.35

>  <clogP>
5.23

>  <TPSA>
32.34

>  <Acceptor>
2

>  <Donor>
2

>  <RotBonds>
5

>  <HAC>
24

>  <Collection>
General

>  <PPDS>
+

$$$$
F2273-0249
  Mrv2219 10102508112D          

 33 37  0  0  0  0            999 V2000
   -1.1191    3.0038    0.0000 C   0  0  0  0  0  0  0  0  0  0  0  0
    3.0996   -0.1665    0.0000 N   0  0  0  0  0  0  0  0  0  0  0  0
    0.2164    3.0163    0.0000 C   0  0  0  0  0  0  0  0  0  0  0  0
   -0.4451    2.5295    0.0000 O   0  0  0  0  0  0  0  0  0  0  0  0
   -1.8930    2.7167    0.0000 C   0  0  0  0  0  0  0  0  0  0  0  0
   -2.1551    1.9221    0.0000 O   0  0  0  0  0  0  0  0  0  0  0  0
   -0.8695    3.7901    0.0000 N   0  0  0  0  0  0  0  0  0  0  0  0
    1.0027    2.7667    0.0000 N   0  0  0  0  0  0  0  0  0  0  0  0
   -0.0374    3.7943    0.0000 N   0  0  0  0  0  0  0  0  0  0  0  0
    2.9248    0.6448    0.0000 C   0  0  0  0  0  0  0  0  0  0  0  0
   -2.9789    1.9304    0.0000 C   0  0  0  0  0  0  0  0  0  0  0  0
    1.1774    1.9554    0.0000 C   0  0  0  0  0  0  0  0  0  0  0  0
   -2.5670    3.1910    0.0000 C   0  0  0  0  0  0  0  0  0  0  0  0
    3.8360   -0.5284    0.0000 C   0  0  0  0  0  0  0  0  0  0  0  0
    2.5130   -0.7531    0.0000 C   0  0  0  0  0  0  0  0  0  0  0  0
   -3.2285    2.7085    0.0000 C   0  0  0  0  0  0  0  0  0  0  0  0
    2.1385    0.8987    0.0000 C   0  0  0  0  0  0  0  0  0  0  0  0
    1.9638    1.7058    0.0000 C   0  0  0  0  0  0  0  0  0  0  0  0
    0.5659    1.3979    0.0000 O   0  0  0  0  0  0  0  0  0  0  0  0
   -3.5280    1.3188    0.0000 C   0  0  0  0  0  0  0  0  0  0  0  0
    3.7236   -1.3480    0.0000 C   0  0  0  0  0  0  0  0  0  0  0  0
    2.9124   -1.4978    0.0000 C   0  0  0  0  0  0  0  0  0  0  0  0
    4.5599   -0.1540    0.0000 O   0  0  0  0  0  0  0  0  0  0  0  0
    1.7017   -0.6366    0.0000 O   0  0  0  0  0  0  0  0  0  0  0  0
    3.5364    1.1940    0.0000 C   0  0  0  0  0  0  0  0  0  0  0  0
   -3.2784    0.5325    0.0000 O   0  0  0  0  0  0  0  0  0  0  0  0
   -4.0315    2.8790    0.0000 C   0  0  0  0  0  0  0  0  0  0  0  0
    2.5754    2.2549    0.0000 C   0  0  0  0  0  0  0  0  0  0  0  0
    3.3617    2.0053    0.0000 C   0  0  0  0  0  0  0  0  0  0  0  0
   -4.5765    2.2674    0.0000 C   0  0  0  0  0  0  0  0  0  0  0  0
   -4.3393    1.4936    0.0000 C   0  0  0  0  0  0  0  0  0  0  0  0
   -2.4713    0.3578    0.0000 C   0  0  0  0  0  0  0  0  0  0  0  0
   -2.2175   -0.4286    0.0000 C   0  0  0  0  0  0  0  0  0  0  0  0
  2 10  1  0  0  0  0
  3  4  1  0  0  0  0
  4  1  1  0  0  0  0
  5  1  1  0  0  0  0
  6  5  1  0  0  0  0
  7  1  2  0  0  0  0
  8  3  1  0  0  0  0
  9  7  1  0  0  0  0
 10 17  1  0  0  0  0
 11  6  1  0  0  0  0
 12  8  1  0  0  0  0
 13  5  2  0  0  0  0
 14  2  1  0  0  0  0
 15  2  1  0  0  0  0
 16 13  1  0  0  0  0
 17 18  2  0  0  0  0
 18 12  1  0  0  0  0
 19 12  2  0  0  0  0
 20 11  1  0  0  0  0
 21 14  1  0  0  0  0
 22 15  1  0  0  0  0
 23 14  2  0  0  0  0
 24 15  2  0  0  0  0
 25 29  1  0  0  0  0
 26 20  1  0  0  0  0
 27 16  1  0  0  0  0
 28 18  1  0  0  0  0
 29 28  2  0  0  0  0
 30 27  2  0  0  0  0
 31 20  2  0  0  0  0
 32 26  1  0  0  0  0
 33 32  1  0  0  0  0
  3  9  2  0  0  0  0
 11 16  2  0  0  0  0
 30 31  1  0  0  0  0
 25 10  2  0  0  0  0
 21 22  1  0  0  0  0
M  END
>  <IDNUMBER>
F2273-0249

>  <Chemical_Name>
3-(2,5-dioxopyrrolidin-1-yl)-N-[5-(7-ethoxy-1-benzofuran-2-yl)-1,3,4-oxadiazol-2-yl]benzamide

>  <PriceCoeff>
1.00

>  <CAS>
922042-79-3

>  <MW>
446.41

>  <Description>
solid

>  <FSP3>
0.17

>  <clogP>
1.80

>  <TPSA>
127.77

>  <Acceptor>
8

>  <Donor>
1

>  <RotBonds>
6

>  <HAC>
33

>  <Collection>
General

>  <PPDS>
+

$$$$
F2290-0045
  Mrv2219 10102508112D          

 32 36  0  0  0  0            999 V2000
    2.4156   -3.9732    0.0000 N   0  0  0  0  0  0  0  0  0  0  0  0
    0.3415    0.1332    0.0000 C   0  0  0  0  0  0  0  0  0  0  0  0
   -0.7372    0.9204    0.0000 C   0  0  0  0  0  0  0  0  0  0  0  0
   -0.4831    0.1374    0.0000 N   0  0  0  0  0  0  0  0  0  0  0  0
   -1.5243    1.1703    0.0000 C   0  0  0  0  0  0  0  0  0  0  0  0
    0.8246   -0.5290    0.0000 N   0  0  0  0  0  0  0  0  0  0  0  0
   -2.1948    0.6872    0.0000 O   0  0  0  0  0  0  0  0  0  0  0  0
   -1.7825    1.9574    0.0000 C   0  0  0  0  0  0  0  0  0  0  0  0
    0.4873   -1.2869    0.0000 C   0  0  0  0  0  0  0  0  0  0  0  0
    3.2402   -3.9399    0.0000 C   0  0  0  0  0  0  0  0  0  0  0  0
    2.1907   -4.7603    0.0000 C   0  0  0  0  0  0  0  0  0  0  0  0
    0.5914    0.9204    0.0000 S   0  0  0  0  0  0  0  0  0  0  0  0
   -2.6071    1.9574    0.0000 C   0  0  0  0  0  0  0  0  0  0  0  0
   -0.0708    1.4077    0.0000 C   0  0  0  0  0  0  0  0  0  0  0  0
   -2.8612    1.1703    0.0000 C   0  0  0  0  0  0  0  0  0  0  0  0
    1.9283   -3.2985    0.0000 C   0  0  0  0  0  0  0  0  0  0  0  0
    0.9663   -1.9533    0.0000 C   0  0  0  0  0  0  0  0  0  0  0  0
   -3.1569    2.5696    0.0000 C   0  0  0  0  0  0  0  0  0  0  0  0
   -0.3331   -1.3661    0.0000 O   0  0  0  0  0  0  0  0  0  0  0  0
    3.5234   -4.7270    0.0000 C   0  0  0  0  0  0  0  0  0  0  0  0
    2.8737   -5.2226    0.0000 C   0  0  0  0  0  0  0  0  0  0  0  0
    3.7150   -3.2485    0.0000 O   0  0  0  0  0  0  0  0  0  0  0  0
    1.4160   -5.0477    0.0000 O   0  0  0  0  0  0  0  0  0  0  0  0
   -3.6691    0.9995    0.0000 C   0  0  0  0  0  0  0  0  0  0  0  0
    2.2782   -2.5405    0.0000 C   0  0  0  0  0  0  0  0  0  0  0  0
    1.1162   -3.3652    0.0000 C   0  0  0  0  0  0  0  0  0  0  0  0
    0.6414   -2.7030    0.0000 C   0  0  0  0  0  0  0  0  0  0  0  0
    1.8034   -1.8658    0.0000 C   0  0  0  0  0  0  0  0  0  0  0  0
   -3.9607    2.4072    0.0000 C   0  0  0  0  0  0  0  0  0  0  0  0
   -4.2189    1.6118    0.0000 C   0  0  0  0  0  0  0  0  0  0  0  0
   -4.5604    3.0319    0.0000 O   0  0  0  0  0  0  0  0  0  0  0  0
   -4.3313    3.8315    0.0000 C   0  0  0  0  0  0  0  0  0  0  0  0
  2  6  1  0  0  0  0
  3  4  1  0  0  0  0
  4  2  2  0  0  0  0
  5  3  1  0  0  0  0
  6  9  1  0  0  0  0
  7  5  1  0  0  0  0
  8  5  2  0  0  0  0
  9 17  1  0  0  0  0
 10  1  1  0  0  0  0
 11  1  1  0  0  0  0
 12  2  1  0  0  0  0
 13  8  1  0  0  0  0
 14 12  1  0  0  0  0
 15  7  1  0  0  0  0
 16  1  1  0  0  0  0
 17 27  2  0  0  0  0
 18 13  1  0  0  0  0
 19  9  2  0  0  0  0
 20 10  1  0  0  0  0
 21 11  1  0  0  0  0
 22 10  2  0  0  0  0
 23 11  2  0  0  0  0
 24 15  1  0  0  0  0
 25 16  1  0  0  0  0
 26 16  2  0  0  0  0
 27 26  1  0  0  0  0
 28 25  2  0  0  0  0
 29 18  2  0  0  0  0
 30 24  2  0  0  0  0
 31 29  1  0  0  0  0
 32 31  1  0  0  0  0
 20 21  1  0  0  0  0
 28 17  1  0  0  0  0
 14  3  2  0  0  0  0
 15 13  2  0  0  0  0
 29 30  1  0  0  0  0
M  END
>  <IDNUMBER>
F2290-0045

>  <Chemical_Name>
4-(2,5-dioxopyrrolidin-1-yl)-N-[4-(5-methoxy-1-benzofuran-2-yl)-1,3-thiazol-2-yl]benzamide

>  <PriceCoeff>
1.00

>  <CAS>
922079-24-1

>  <MW>
447.46

>  <Description>
solid

>  <FSP3>
0.13

>  <clogP>
2.81

>  <TPSA>
129.98

>  <Acceptor>
6

>  <Donor>
1

>  <RotBonds>
5

>  <HAC>
32

>  <Collection>
General

>  <PPDS>
+

$$$$
F2313-0092
  Mrv2219 10102508112D          

 26 28  0  0  0  0            999 V2000
    3.7145    2.6889    0.0000 N   0  0  0  0  0  0  0  0  0  0  0  0
    0.8547    2.3721    0.0000 C   0  0  0  0  0  0  0  0  0  0  0  0
    0.1418    1.9469    0.0000 O   0  0  0  0  0  0  0  0  0  0  0  0
   -0.4835    2.4971    0.0000 C   0  0  0  0  0  0  0  0  0  0  0  0
   -0.1459    3.2601    0.0000 N   0  0  0  0  0  0  0  0  0  0  0  0
    0.6796    3.1767    0.0000 N   0  0  0  0  0  0  0  0  0  0  0  0
    1.6175    2.0344    0.0000 N   0  0  0  0  0  0  0  0  0  0  0  0
    4.4941    2.4346    0.0000 C   0  0  0  0  0  0  0  0  0  0  0  0
    3.6937    3.5102    0.0000 C   0  0  0  0  0  0  0  0  0  0  0  0
    2.2888    2.5222    0.0000 C   0  0  0  0  0  0  0  0  0  0  0  0
    3.0433    2.1970    0.0000 C   0  0  0  0  0  0  0  0  0  0  0  0
   -1.2340    2.8348    0.0000 C   0  0  0  0  0  0  0  0  0  0  0  0
   -1.8134    2.2470    0.0000 C   0  0  0  0  0  0  0  0  0  0  0  0
    4.4774    3.7728    0.0000 C   0  0  0  0  0  0  0  0  0  0  0  0
    4.9777    3.1141    0.0000 C   0  0  0  0  0  0  0  0  0  0  0  0
    3.0308    3.9979    0.0000 O   0  0  0  0  0  0  0  0  0  0  0  0
    4.7568    1.6509    0.0000 O   0  0  0  0  0  0  0  0  0  0  0  0
   -3.2100    1.8968    0.0000 S   0  0  0  0  0  0  0  0  0  0  0  0
    2.1929    3.3476    0.0000 O   0  0  0  0  0  0  0  0  0  0  0  0
   -2.6222    2.4638    0.0000 C   0  0  0  0  0  0  0  0  0  0  0  0
   -1.4508    3.6228    0.0000 C   0  0  0  0  0  0  0  0  0  0  0  0
   -3.9979    2.1220    0.0000 C   0  0  0  0  0  0  0  0  0  0  0  0
   -2.2470    3.8354    0.0000 C   0  0  0  0  0  0  0  0  0  0  0  0
   -2.8348    3.2476    0.0000 C   0  0  0  0  0  0  0  0  0  0  0  0
   -4.1980    2.9223    0.0000 C   0  0  0  0  0  0  0  0  0  0  0  0
   -4.5858    1.5508    0.0000 C   0  0  0  0  0  0  0  0  0  0  0  0
  2  7  1  0  0  0  0
  3  2  1  0  0  0  0
  4  3  1  0  0  0  0
  5  6  1  0  0  0  0
  6  2  2  0  0  0  0
  7 10  1  0  0  0  0
  8  1  1  0  0  0  0
  9  1  1  0  0  0  0
 10 11  1  0  0  0  0
 11  1  1  0  0  0  0
 12  4  1  0  0  0  0
 13 12  2  0  0  0  0
 14  9  1  0  0  0  0
 15  8  1  0  0  0  0
 16  9  2  0  0  0  0
 17  8  2  0  0  0  0
 18 20  1  0  0  0  0
 19 10  2  0  0  0  0
 20 13  1  0  0  0  0
 21 12  1  0  0  0  0
 22 18  1  0  0  0  0
 23 21  2  0  0  0  0
 24 23  1  0  0  0  0
 25 22  1  0  0  0  0
 26 22  1  0  0  0  0
 15 14  1  0  0  0  0
  5  4  2  0  0  0  0
 24 20  2  0  0  0  0
M  END
>  <IDNUMBER>
F2313-0092

>  <Chemical_Name>
2-(2,5-dioxopyrrolidin-1-yl)-N-{5-[3-(propan-2-ylsulfanyl)phenyl]-1,3,4-oxadiazol-2-yl}acetamide

>  <PriceCoeff>
1.00

>  <CAS>
922004-13-5

>  <MW>
374.41

>  <Description>
solid

>  <FSP3>
0.35

>  <clogP>
1.85

>  <TPSA>
130.70

>  <Acceptor>
6

>  <Donor>
1

>  <RotBonds>
6

>  <HAC>
26

>  <Collection>
General

>  <PPDS>
+

$$$$
F2368-0950
  Mrv2219 10102508112D          

 29 32  0  0  0  0            999 V2000
    1.9667    4.9917    0.0000 N   0  0  0  0  0  0  0  0  0  0  0  0
   -1.7375    3.0208    0.0000 C   0  0  0  0  0  0  0  0  0  0  0  0
   -2.4083    2.5333    0.0000 O   0  0  0  0  0  0  0  0  0  0  0  0
   -0.9583    2.7583    0.0000 N   0  0  0  0  0  0  0  0  0  0  0  0
   -1.9958    3.8000    0.0000 N   0  0  0  0  0  0  0  0  0  0  0  0
   -2.8208    3.8000    0.0000 N   0  0  0  0  0  0  0  0  0  0  0  0
    1.1417    4.9042    0.0000 C   0  0  0  0  0  0  0  0  0  0  0  0
   -0.3375    3.3083    0.0000 C   0  0  0  0  0  0  0  0  0  0  0  0
   -3.0750    3.0208    0.0000 C   0  0  0  0  0  0  0  0  0  0  0  0
    2.4917    4.3417    0.0000 C   0  0  0  0  0  0  0  0  0  0  0  0
    2.4042    5.6875    0.0000 C   0  0  0  0  0  0  0  0  0  0  0  0
    0.8042    4.1417    0.0000 C   0  0  0  0  0  0  0  0  0  0  0  0
   -0.0083    4.0542    0.0000 C   0  0  0  0  0  0  0  0  0  0  0  0
   -1.1708    3.2333    0.0000 O   0  0  0  0  0  0  0  0  0  0  0  0
    3.2750    4.6667    0.0000 C   0  0  0  0  0  0  0  0  0  0  0  0
    3.2125    5.4917    0.0000 C   0  0  0  0  0  0  0  0  0  0  0  0
    2.2917    3.5583    0.0000 O   0  0  0  0  0  0  0  0  0  0  0  0
    2.1125    6.4542    0.0000 O   0  0  0  0  0  0  0  0  0  0  0  0
   -3.8583    2.7583    0.0000 C   0  0  0  0  0  0  0  0  0  0  0  0
   -4.0333    1.9583    0.0000 C   0  0  0  0  0  0  0  0  0  0  0  0
    0.6667    5.5667    0.0000 C   0  0  0  0  0  0  0  0  0  0  0  0
   -4.3708    0.3375    0.0000 C   0  0  0  0  0  0  0  0  0  0  0  0
   -4.8208    1.6958    0.0000 C   0  0  0  0  0  0  0  0  0  0  0  0
   -3.4208    1.3958    0.0000 C   0  0  0  0  0  0  0  0  0  0  0  0
   -4.9833    0.8875    0.0000 C   0  0  0  0  0  0  0  0  0  0  0  0
   -3.5875    0.5958    0.0000 C   0  0  0  0  0  0  0  0  0  0  0  0
   -0.5000    4.7167    0.0000 C   0  0  0  0  0  0  0  0  0  0  0  0
   -0.1625    5.4792    0.0000 C   0  0  0  0  0  0  0  0  0  0  0  0
   -4.5458   -0.4667    0.0000 C   0  0  0  0  0  0  0  0  0  0  0  0
  2  4  1  0  0  0  0
  3  2  1  0  0  0  0
  4  8  1  0  0  0  0
  5  2  2  0  0  0  0
  6  5  1  0  0  0  0
  7  1  1  0  0  0  0
  8 13  1  0  0  0  0
  9  3  1  0  0  0  0
 10  1  1  0  0  0  0
 11  1  1  0  0  0  0
 12  7  1  0  0  0  0
 13 12  2  0  0  0  0
 14  8  2  0  0  0  0
 15 10  1  0  0  0  0
 16 11  1  0  0  0  0
 17 10  2  0  0  0  0
 18 11  2  0  0  0  0
 19  9  1  0  0  0  0
 20 19  1  0  0  0  0
 21  7  2  0  0  0  0
 22 26  1  0  0  0  0
 23 20  2  0  0  0  0
 24 20  1  0  0  0  0
 25 23  1  0  0  0  0
 26 24  2  0  0  0  0
 27 28  2  0  0  0  0
 28 21  1  0  0  0  0
 29 22  1  0  0  0  0
 16 15  1  0  0  0  0
 13 27  1  0  0  0  0
  9  6  2  0  0  0  0
 22 25  2  0  0  0  0
M  END
>  <IDNUMBER>
F2368-0950

>  <Chemical_Name>
3-(2,5-dioxopyrrolidin-1-yl)-N-{5-[(4-methylphenyl)methyl]-1,3,4-oxadiazol-2-yl}benzamide

>  <PriceCoeff>
1.00

>  <CAS>
1170885-20-7

>  <MW>
390.39

>  <Description>
solid

>  <FSP3>
0.19

>  <clogP>
1.05

>  <TPSA>
105.40

>  <Acceptor>
6

>  <Donor>
1

>  <RotBonds>
5

>  <HAC>
29

>  <Collection>
General

>  <PPDS>
+

$$$$
F2368-3114
  Mrv2219 10102508112D          

 31 34  0  0  0  0            999 V2000
    2.1782    5.4599    0.0000 N   0  0  0  0  0  0  0  0  0  0  0  0
   -1.7367    3.0194    0.0000 C   0  0  0  0  0  0  0  0  0  0  0  0
   -2.4072    2.5321    0.0000 O   0  0  0  0  0  0  0  0  0  0  0  0
   -0.9579    2.7570    0.0000 N   0  0  0  0  0  0  0  0  0  0  0  0
   -1.9948    3.7982    0.0000 N   0  0  0  0  0  0  0  0  0  0  0  0
   -2.8195    3.7982    0.0000 N   0  0  0  0  0  0  0  0  0  0  0  0
   -3.0735    3.0194    0.0000 C   0  0  0  0  0  0  0  0  0  0  0  0
   -0.3373    3.3067    0.0000 C   0  0  0  0  0  0  0  0  0  0  0  0
    2.9861    5.3017    0.0000 C   0  0  0  0  0  0  0  0  0  0  0  0
    2.0782    6.2762    0.0000 C   0  0  0  0  0  0  0  0  0  0  0  0
    1.5535    4.9143    0.0000 C   0  0  0  0  0  0  0  0  0  0  0  0
    0.2915    3.8565    0.0000 C   0  0  0  0  0  0  0  0  0  0  0  0
   -1.1120    3.5857    0.0000 O   0  0  0  0  0  0  0  0  0  0  0  0
    3.3859    6.0263    0.0000 C   0  0  0  0  0  0  0  0  0  0  0  0
    2.8362    6.6261    0.0000 C   0  0  0  0  0  0  0  0  0  0  0  0
    3.3401    4.5520    0.0000 O   0  0  0  0  0  0  0  0  0  0  0  0
    1.3494    6.6968    0.0000 O   0  0  0  0  0  0  0  0  0  0  0  0
    1.6909    4.1023    0.0000 C   0  0  0  0  0  0  0  0  0  0  0  0
    0.7622    5.1976    0.0000 C   0  0  0  0  0  0  0  0  0  0  0  0
    0.1291    4.6645    0.0000 C   0  0  0  0  0  0  0  0  0  0  0  0
    1.0662    3.5815    0.0000 C   0  0  0  0  0  0  0  0  0  0  0  0
   -3.8565    2.7570    0.0000 C   0  0  0  0  0  0  0  0  0  0  0  0
   -4.0314    1.9573    0.0000 C   0  0  0  0  0  0  0  0  0  0  0  0
   -4.2063    0.3123    0.0000 C   0  0  0  0  0  0  0  0  0  0  0  0
   -4.2938   -0.5039    0.0000 S   0  0  0  0  0  0  0  0  0  0  0  0
   -3.4483    0.6454    0.0000 C   0  0  0  0  0  0  0  0  0  0  0  0
   -4.8684    0.7997    0.0000 C   0  0  0  0  0  0  0  0  0  0  0  0
   -3.3609    1.4618    0.0000 C   0  0  0  0  0  0  0  0  0  0  0  0
   -4.7810    1.6200    0.0000 C   0  0  0  0  0  0  0  0  0  0  0  0
   -5.0433   -0.8413    0.0000 C   0  0  0  0  0  0  0  0  0  0  0  0
   -5.1309   -1.6617    0.0000 C   0  0  0  0  0  0  0  0  0  0  0  0
  2  4  1  0  0  0  0
  3  2  1  0  0  0  0
  4  8  1  0  0  0  0
  5  2  2  0  0  0  0
  6  5  1  0  0  0  0
  7  3  1  0  0  0  0
  8 12  1  0  0  0  0
  9  1  1  0  0  0  0
 10  1  1  0  0  0  0
 11  1  1  0  0  0  0
 12 20  1  0  0  0  0
 13  8  2  0  0  0  0
 14  9  1  0  0  0  0
 15 10  1  0  0  0  0
 16  9  2  0  0  0  0
 17 10  2  0  0  0  0
 18 11  2  0  0  0  0
 19 11  1  0  0  0  0
 20 19  2  0  0  0  0
 21 18  1  0  0  0  0
 22  7  1  0  0  0  0
 23 22  1  0  0  0  0
 24 27  2  0  0  0  0
 25 24  1  0  0  0  0
 26 28  2  0  0  0  0
 27 29  1  0  0  0  0
 28 23  1  0  0  0  0
 29 23  2  0  0  0  0
 30 25  1  0  0  0  0
 31 30  1  0  0  0  0
 15 14  1  0  0  0  0
 12 21  2  0  0  0  0
  7  6  2  0  0  0  0
 26 24  1  0  0  0  0
M  END
>  <IDNUMBER>
F2368-3114

>  <Chemical_Name>
4-(2,5-dioxopyrrolidin-1-yl)-N-(5-{[4-(ethylsulfanyl)phenyl]methyl}-1,3,4-oxadiazol-2-yl)benzamide

>  <PriceCoeff>
1.00

>  <MW>
436.49

>  <Description>
solid

>  <FSP3>
0.23

>  <clogP>
1.64

>  <TPSA>
107.23

>  <Acceptor>
6

>  <Donor>
1

>  <RotBonds>
7

>  <HAC>
31

>  <Collection>
General

$$$$
F2384-0011
  Mrv2219 10102508112D          

 24 26  0  0  0  0            999 V2000
   -3.0318    7.5213    0.0000 N   0  0  0  0  0  0  0  0  0  0  0  0
   -3.0360    6.6884    0.0000 C   0  0  0  0  0  0  0  0  0  0  0  0
   -2.3072    7.9211    0.0000 C   0  0  0  0  0  0  0  0  0  0  0  0
   -3.7482    3.7981    0.0000 C   0  0  0  0  0  0  0  0  0  0  0  0
   -2.3197    6.2636    0.0000 C   0  0  0  0  0  0  0  0  0  0  0  0
   -3.0360    4.2104    0.0000 N   0  0  0  0  0  0  0  0  0  0  0  0
   -3.7565    6.2761    0.0000 C   0  0  0  0  0  0  0  0  0  0  0  0
   -3.7565    2.9818    0.0000 C   0  0  0  0  0  0  0  0  0  0  0  0
   -3.0360    5.0267    0.0000 C   0  0  0  0  0  0  0  0  0  0  0  0
   -2.3197    5.4473    0.0000 C   0  0  0  0  0  0  0  0  0  0  0  0
   -1.5950    7.5005    0.0000 C   0  0  0  0  0  0  0  0  0  0  0  0
   -4.4686    4.2021    0.0000 O   0  0  0  0  0  0  0  0  0  0  0  0
   -2.3072    8.7457    0.0000 O   0  0  0  0  0  0  0  0  0  0  0  0
   -1.6075    6.6759    0.0000 C   0  0  0  0  0  0  0  0  0  0  0  0
   -3.0443    2.5570    0.0000 C   0  0  0  0  0  0  0  0  0  0  0  0
   -4.4686    2.5695    0.0000 C   0  0  0  0  0  0  0  0  0  0  0  0
   -3.7565    5.4515    0.0000 C   0  0  0  0  0  0  0  0  0  0  0  0
   -3.7440    7.9336    0.0000 C   0  0  0  0  0  0  0  0  0  0  0  0
   -3.7606    1.3202    0.0000 C   0  0  0  0  0  0  0  0  0  0  0  0
   -3.0443    1.7324    0.0000 C   0  0  0  0  0  0  0  0  0  0  0  0
   -4.4728    1.7366    0.0000 C   0  0  0  0  0  0  0  0  0  0  0  0
   -3.7689    0.4956    0.0000 Cl  0  0  0  0  0  0  0  0  0  0  0  0
   -3.7440    8.7499    0.0000 C   0  0  0  0  0  0  0  0  0  0  0  0
   -4.4561    9.1747    0.0000 C   0  0  0  0  0  0  0  0  0  0  0  0
  2  1  1  0  0  0  0
  3  1  1  0  0  0  0
  4  6  1  0  0  0  0
  5  2  2  0  0  0  0
  6  9  1  0  0  0  0
  7  2  1  0  0  0  0
  8  4  1  0  0  0  0
  9 17  1  0  0  0  0
 10  5  1  0  0  0  0
 11  3  1  0  0  0  0
 12  4  2  0  0  0  0
 13  3  2  0  0  0  0
 14 11  1  0  0  0  0
 15  8  1  0  0  0  0
 16  8  2  0  0  0  0
 17  7  2  0  0  0  0
 18  1  1  0  0  0  0
 19 21  2  0  0  0  0
 20 15  2  0  0  0  0
 21 16  1  0  0  0  0
 22 19  1  0  0  0  0
 23 18  1  0  0  0  0
 24 23  1  0  0  0  0
  5 14  1  0  0  0  0
 10  9  2  0  0  0  0
 20 19  1  0  0  0  0
M  END
>  <IDNUMBER>
F2384-0011

>  <Chemical_Name>
4-chloro-N-(2-oxo-1-propyl-1,2,3,4-tetrahydroquinolin-6-yl)benzamide

>  <PriceCoeff>
1.00

>  <CAS>
1021280-61-4

>  <MW>
342.82

>  <Description>
solid

>  <FSP3>
0.26

>  <clogP>
3.84

>  <TPSA>
49.41

>  <Acceptor>
2

>  <Donor>
1

>  <RotBonds>
4

>  <HAC>
24

>  <Collection>
General

>  <PPDS>
+

$$$$
F2384-0077
  Mrv2219 10102508112D          

 24 26  0  0  0  0            999 V2000
   -3.0242    7.5024    0.0000 N   0  0  0  0  0  0  0  0  0  0  0  0
   -3.0284    6.6716    0.0000 C   0  0  0  0  0  0  0  0  0  0  0  0
   -2.3014    7.9012    0.0000 C   0  0  0  0  0  0  0  0  0  0  0  0
   -3.7387    3.7886    0.0000 C   0  0  0  0  0  0  0  0  0  0  0  0
   -2.3138    6.2479    0.0000 C   0  0  0  0  0  0  0  0  0  0  0  0
   -3.0284    4.1999    0.0000 N   0  0  0  0  0  0  0  0  0  0  0  0
   -3.7470    2.9743    0.0000 C   0  0  0  0  0  0  0  0  0  0  0  0
   -3.7470    6.2604    0.0000 C   0  0  0  0  0  0  0  0  0  0  0  0
   -3.0284    5.0141    0.0000 C   0  0  0  0  0  0  0  0  0  0  0  0
   -2.3138    5.4336    0.0000 C   0  0  0  0  0  0  0  0  0  0  0  0
   -4.4574    4.1916    0.0000 O   0  0  0  0  0  0  0  0  0  0  0  0
   -1.5910    7.4817    0.0000 C   0  0  0  0  0  0  0  0  0  0  0  0
   -2.3014    8.7237    0.0000 O   0  0  0  0  0  0  0  0  0  0  0  0
   -1.6035    6.6592    0.0000 C   0  0  0  0  0  0  0  0  0  0  0  0
   -4.4616    2.5548    0.0000 C   0  0  0  0  0  0  0  0  0  0  0  0
   -3.7470    5.4378    0.0000 C   0  0  0  0  0  0  0  0  0  0  0  0
   -3.7346    7.9137    0.0000 C   0  0  0  0  0  0  0  0  0  0  0  0
   -4.4698    1.7323    0.0000 C   0  0  0  0  0  0  0  0  0  0  0  0
   -5.1802    1.3293    0.0000 Cl  0  0  0  0  0  0  0  0  0  0  0  0
   -3.0367    2.5506    0.0000 C   0  0  0  0  0  0  0  0  0  0  0  0
   -3.0367    1.7198    0.0000 C   0  0  0  0  0  0  0  0  0  0  0  0
   -3.7512    1.3168    0.0000 C   0  0  0  0  0  0  0  0  0  0  0  0
   -3.7346    8.7279    0.0000 C   0  0  0  0  0  0  0  0  0  0  0  0
   -4.4449    9.1517    0.0000 C   0  0  0  0  0  0  0  0  0  0  0  0
  2  1  1  0  0  0  0
  3  1  1  0  0  0  0
  4  6  1  0  0  0  0
  5  2  2  0  0  0  0
  6  9  1  0  0  0  0
  7  4  1  0  0  0  0
  8  2  1  0  0  0  0
  9 16  1  0  0  0  0
 10  5  1  0  0  0  0
 11  4  2  0  0  0  0
 12  3  1  0  0  0  0
 13  3  2  0  0  0  0
 14 12  1  0  0  0  0
 15  7  2  0  0  0  0
 16  8  2  0  0  0  0
 17  1  1  0  0  0  0
 18 15  1  0  0  0  0
 19 18  1  0  0  0  0
 20  7  1  0  0  0  0
 21 20  2  0  0  0  0
 22 21  1  0  0  0  0
 23 17  1  0  0  0  0
 24 23  1  0  0  0  0
  5 14  1  0  0  0  0
 10  9  2  0  0  0  0
 22 18  2  0  0  0  0
M  END
>  <IDNUMBER>
F2384-0077

>  <Chemical_Name>
3-chloro-N-(2-oxo-1-propyl-1,2,3,4-tetrahydroquinolin-6-yl)benzamide

>  <PriceCoeff>
1.00

>  <CAS>
954660-17-4

>  <MW>
342.82

>  <Description>
solid

>  <FSP3>
0.26

>  <clogP>
3.84

>  <TPSA>
49.41

>  <Acceptor>
2

>  <Donor>
1

>  <RotBonds>
4

>  <HAC>
24

>  <Collection>
General

>  <PPDS>
+

$$$$
F2384-0143
  Mrv2219 10102508112D          

 28 31  0  0  0  0            999 V2000
   -3.0455    7.5158    0.0000 N   0  0  0  0  0  0  0  0  0  0  0  0
   -3.0455    6.6909    0.0000 C   0  0  0  0  0  0  0  0  0  0  0  0
   -2.3247    7.9283    0.0000 C   0  0  0  0  0  0  0  0  0  0  0  0
   -3.7496    3.7996    0.0000 C   0  0  0  0  0  0  0  0  0  0  0  0
   -2.3247    6.2660    0.0000 C   0  0  0  0  0  0  0  0  0  0  0  0
   -3.0372    4.2120    0.0000 N   0  0  0  0  0  0  0  0  0  0  0  0
   -3.7621    7.9366    0.0000 C   0  0  0  0  0  0  0  0  0  0  0  0
   -3.7579    6.2785    0.0000 C   0  0  0  0  0  0  0  0  0  0  0  0
   -3.7579    2.9830    0.0000 C   0  0  0  0  0  0  0  0  0  0  0  0
   -3.0372    5.0286    0.0000 C   0  0  0  0  0  0  0  0  0  0  0  0
   -2.3247    5.4536    0.0000 C   0  0  0  0  0  0  0  0  0  0  0  0
   -1.6081    7.5116    0.0000 C   0  0  0  0  0  0  0  0  0  0  0  0
   -4.4703    4.2037    0.0000 O   0  0  0  0  0  0  0  0  0  0  0  0
   -2.3205    8.7532    0.0000 O   0  0  0  0  0  0  0  0  0  0  0  0
   -1.6206    6.6867    0.0000 C   0  0  0  0  0  0  0  0  0  0  0  0
   -3.0455    2.5580    0.0000 C   0  0  0  0  0  0  0  0  0  0  0  0
   -4.4703    2.5705    0.0000 C   0  0  0  0  0  0  0  0  0  0  0  0
   -3.7579    5.4536    0.0000 C   0  0  0  0  0  0  0  0  0  0  0  0
   -3.7621    1.3206    0.0000 C   0  0  0  0  0  0  0  0  0  0  0  0
   -3.7579    8.7532    0.0000 C   0  0  0  0  0  0  0  0  0  0  0  0
   -3.0455    1.7331    0.0000 C   0  0  0  0  0  0  0  0  0  0  0  0
   -4.4745    1.7373    0.0000 C   0  0  0  0  0  0  0  0  0  0  0  0
   -3.7704    0.4957    0.0000 Cl  0  0  0  0  0  0  0  0  0  0  0  0
   -4.4745    9.1656    0.0000 C   0  0  0  0  0  0  0  0  0  0  0  0
   -3.0455    9.1656    0.0000 C   0  0  0  0  0  0  0  0  0  0  0  0
   -3.0455    9.9906    0.0000 C   0  0  0  0  0  0  0  0  0  0  0  0
   -4.4828    9.9906    0.0000 C   0  0  0  0  0  0  0  0  0  0  0  0
   -3.7579   10.4113    0.0000 C   0  0  0  0  0  0  0  0  0  0  0  0
  2  1  1  0  0  0  0
  3  1  1  0  0  0  0
  4  6  1  0  0  0  0
  5  2  2  0  0  0  0
  6 10  1  0  0  0  0
  7  1  1  0  0  0  0
  8  2  1  0  0  0  0
  9  4  1  0  0  0  0
 10 18  1  0  0  0  0
 11  5  1  0  0  0  0
 12  3  1  0  0  0  0
 13  4  2  0  0  0  0
 14  3  2  0  0  0  0
 15 12  1  0  0  0  0
 16  9  1  0  0  0  0
 17  9  2  0  0  0  0
 18  8  2  0  0  0  0
 19 22  2  0  0  0  0
 20  7  1  0  0  0  0
 21 16  2  0  0  0  0
 22 17  1  0  0  0  0
 23 19  1  0  0  0  0
 24 20  1  0  0  0  0
 25 20  2  0  0  0  0
 26 25  1  0  0  0  0
 27 24  2  0  0  0  0
 28 26  2  0  0  0  0
  5 15  1  0  0  0  0
 10 11  2  0  0  0  0
 27 28  1  0  0  0  0
 21 19  1  0  0  0  0
M  END
>  <IDNUMBER>
F2384-0143

>  <Chemical_Name>
N-(1-benzyl-2-oxo-1,2,3,4-tetrahydroquinolin-6-yl)-4-chlorobenzamide

>  <PriceCoeff>
1.00

>  <CAS>
955219-99-5

>  <MW>
390.86

>  <Description>
solid

>  <FSP3>
0.13

>  <clogP>
4.55

>  <TPSA>
49.41

>  <Acceptor>
2

>  <Donor>
1

>  <RotBonds>
4

>  <HAC>
28

>  <Collection>
General

>  <PPDS>
+

$$$$
F2384-0258
  Mrv2219 10102508112D          

 25 27  0  0  0  0            999 V2000
   -3.0443    7.5130    0.0000 N   0  0  0  0  0  0  0  0  0  0  0  0
   -3.0443    6.6884    0.0000 C   0  0  0  0  0  0  0  0  0  0  0  0
   -2.3239    7.9253    0.0000 C   0  0  0  0  0  0  0  0  0  0  0  0
   -3.7482    3.7981    0.0000 C   0  0  0  0  0  0  0  0  0  0  0  0
   -2.3239    6.2636    0.0000 C   0  0  0  0  0  0  0  0  0  0  0  0
   -3.0360    4.2104    0.0000 N   0  0  0  0  0  0  0  0  0  0  0  0
   -3.7565    6.2761    0.0000 C   0  0  0  0  0  0  0  0  0  0  0  0
   -3.7565    2.9818    0.0000 C   0  0  0  0  0  0  0  0  0  0  0  0
   -3.0360    5.0267    0.0000 C   0  0  0  0  0  0  0  0  0  0  0  0
   -2.3239    5.4515    0.0000 C   0  0  0  0  0  0  0  0  0  0  0  0
   -1.6075    7.5088    0.0000 C   0  0  0  0  0  0  0  0  0  0  0  0
   -4.4686    4.2021    0.0000 O   0  0  0  0  0  0  0  0  0  0  0  0
   -2.3197    8.7499    0.0000 O   0  0  0  0  0  0  0  0  0  0  0  0
   -1.6200    6.6842    0.0000 C   0  0  0  0  0  0  0  0  0  0  0  0
   -3.0443    2.5570    0.0000 C   0  0  0  0  0  0  0  0  0  0  0  0
   -4.4686    2.5695    0.0000 C   0  0  0  0  0  0  0  0  0  0  0  0
   -3.7565    5.4515    0.0000 C   0  0  0  0  0  0  0  0  0  0  0  0
   -3.7606    7.9336    0.0000 C   0  0  0  0  0  0  0  0  0  0  0  0
   -3.7606    1.3202    0.0000 C   0  0  0  0  0  0  0  0  0  0  0  0
   -3.0443    1.7324    0.0000 C   0  0  0  0  0  0  0  0  0  0  0  0
   -4.4728    1.7366    0.0000 C   0  0  0  0  0  0  0  0  0  0  0  0
   -3.7689    0.4956    0.0000 Cl  0  0  0  0  0  0  0  0  0  0  0  0
   -3.7565    8.7499    0.0000 C   0  0  0  0  0  0  0  0  0  0  0  0
   -4.4686    9.1705    0.0000 C   0  0  0  0  0  0  0  0  0  0  0  0
   -4.4686    9.9993    0.0000 C   0  0  0  0  0  0  0  0  0  0  0  0
  2  1  1  0  0  0  0
  3  1  1  0  0  0  0
  4  6  1  0  0  0  0
  5  2  2  0  0  0  0
  6  9  1  0  0  0  0
  7  2  1  0  0  0  0
  8  4  1  0  0  0  0
  9 17  1  0  0  0  0
 10  5  1  0  0  0  0
 11  3  1  0  0  0  0
 12  4  2  0  0  0  0
 13  3  2  0  0  0  0
 14 11  1  0  0  0  0
 15  8  1  0  0  0  0
 16  8  2  0  0  0  0
 17  7  2  0  0  0  0
 18  1  1  0  0  0  0
 19 21  2  0  0  0  0
 20 15  2  0  0  0  0
 21 16  1  0  0  0  0
 22 19  1  0  0  0  0
 23 18  1  0  0  0  0
 24 23  1  0  0  0  0
 25 24  1  0  0  0  0
  5 14  1  0  0  0  0
 10  9  2  0  0  0  0
 20 19  1  0  0  0  0
M  END
>  <IDNUMBER>
F2384-0258

>  <Chemical_Name>
N-(1-butyl-2-oxo-1,2,3,4-tetrahydroquinolin-6-yl)-4-chlorobenzamide

>  <PriceCoeff>
1.00

>  <CAS>
1021280-71-6

>  <MW>
356.85

>  <Description>
solid

>  <FSP3>
0.30

>  <clogP>
4.37

>  <TPSA>
49.41

>  <Acceptor>
2

>  <Donor>
1

>  <RotBonds>
5

>  <HAC>
25

>  <Collection>
General

>  <PPDS>
+

$$$$
F2384-0320
  Mrv2219 10102508112D          

 25 27  0  0  0  0            999 V2000
   -3.0387    7.4991    0.0000 N   0  0  0  0  0  0  0  0  0  0  0  0
   -3.0387    6.6760    0.0000 C   0  0  0  0  0  0  0  0  0  0  0  0
   -2.3195    7.9106    0.0000 C   0  0  0  0  0  0  0  0  0  0  0  0
   -3.7412    3.7911    0.0000 C   0  0  0  0  0  0  0  0  0  0  0  0
   -2.3195    6.2520    0.0000 C   0  0  0  0  0  0  0  0  0  0  0  0
   -3.0304    4.2026    0.0000 N   0  0  0  0  0  0  0  0  0  0  0  0
   -3.7495    2.9763    0.0000 C   0  0  0  0  0  0  0  0  0  0  0  0
   -3.7495    6.2645    0.0000 C   0  0  0  0  0  0  0  0  0  0  0  0
   -3.0304    5.0174    0.0000 C   0  0  0  0  0  0  0  0  0  0  0  0
   -2.3195    5.4414    0.0000 C   0  0  0  0  0  0  0  0  0  0  0  0
   -4.4603    4.1943    0.0000 O   0  0  0  0  0  0  0  0  0  0  0  0
   -1.6045    7.4949    0.0000 C   0  0  0  0  0  0  0  0  0  0  0  0
   -2.3154    8.7337    0.0000 O   0  0  0  0  0  0  0  0  0  0  0  0
   -1.6170    6.6718    0.0000 C   0  0  0  0  0  0  0  0  0  0  0  0
   -4.4645    2.5565    0.0000 C   0  0  0  0  0  0  0  0  0  0  0  0
   -3.7495    5.4414    0.0000 C   0  0  0  0  0  0  0  0  0  0  0  0
   -3.7537    7.9189    0.0000 C   0  0  0  0  0  0  0  0  0  0  0  0
   -4.4728    1.7334    0.0000 C   0  0  0  0  0  0  0  0  0  0  0  0
   -5.1836    1.3302    0.0000 Cl  0  0  0  0  0  0  0  0  0  0  0  0
   -3.0387    2.5523    0.0000 C   0  0  0  0  0  0  0  0  0  0  0  0
   -3.0387    1.7210    0.0000 C   0  0  0  0  0  0  0  0  0  0  0  0
   -3.7537    1.3177    0.0000 C   0  0  0  0  0  0  0  0  0  0  0  0
   -3.7495    8.7337    0.0000 C   0  0  0  0  0  0  0  0  0  0  0  0
   -4.4603    9.1535    0.0000 C   0  0  0  0  0  0  0  0  0  0  0  0
   -4.4603    9.9807    0.0000 C   0  0  0  0  0  0  0  0  0  0  0  0
  2  1  1  0  0  0  0
  3  1  1  0  0  0  0
  4  6  1  0  0  0  0
  5  2  2  0  0  0  0
  6  9  1  0  0  0  0
  7  4  1  0  0  0  0
  8  2  1  0  0  0  0
  9 16  1  0  0  0  0
 10  5  1  0  0  0  0
 11  4  2  0  0  0  0
 12  3  1  0  0  0  0
 13  3  2  0  0  0  0
 14 12  1  0  0  0  0
 15  7  2  0  0  0  0
 16  8  2  0  0  0  0
 17  1  1  0  0  0  0
 18 15  1  0  0  0  0
 19 18  1  0  0  0  0
 20  7  1  0  0  0  0
 21 20  2  0  0  0  0
 22 21  1  0  0  0  0
 23 17  1  0  0  0  0
 24 23  1  0  0  0  0
 25 24  1  0  0  0  0
  5 14  1  0  0  0  0
 10  9  2  0  0  0  0
 22 18  2  0  0  0  0
M  END
>  <IDNUMBER>
F2384-0320

>  <Chemical_Name>
N-(1-butyl-2-oxo-1,2,3,4-tetrahydroquinolin-6-yl)-3-chlorobenzamide

>  <PriceCoeff>
1.00

>  <CAS>
955221-64-4

>  <MW>
356.85

>  <Description>
solid

>  <FSP3>
0.30

>  <clogP>
4.37

>  <TPSA>
49.41

>  <Acceptor>
2

>  <Donor>
1

>  <RotBonds>
5

>  <HAC>
25

>  <Collection>
General

>  <PPDS>
+

$$$$
F2384-0386
  Mrv2219 10102508112D          

 25 27  0  0  0  0            999 V2000
   -3.0262    7.5074    0.0000 N   0  0  0  0  0  0  0  0  0  0  0  0
   -3.0304    6.6761    0.0000 C   0  0  0  0  0  0  0  0  0  0  0  0
   -2.3029    7.9065    0.0000 C   0  0  0  0  0  0  0  0  0  0  0  0
   -3.7412    3.7911    0.0000 C   0  0  0  0  0  0  0  0  0  0  0  0
   -2.3154    6.2521    0.0000 C   0  0  0  0  0  0  0  0  0  0  0  0
   -3.0304    4.2027    0.0000 N   0  0  0  0  0  0  0  0  0  0  0  0
   -3.7495    6.2645    0.0000 C   0  0  0  0  0  0  0  0  0  0  0  0
   -3.7371    7.9190    0.0000 C   0  0  0  0  0  0  0  0  0  0  0  0
   -3.7495    2.9763    0.0000 C   0  0  0  0  0  0  0  0  0  0  0  0
   -3.0304    5.0175    0.0000 C   0  0  0  0  0  0  0  0  0  0  0  0
   -2.3154    5.4373    0.0000 C   0  0  0  0  0  0  0  0  0  0  0  0
   -1.5921    7.4867    0.0000 C   0  0  0  0  0  0  0  0  0  0  0  0
   -4.4604    4.1944    0.0000 O   0  0  0  0  0  0  0  0  0  0  0  0
   -2.3029    8.7338    0.0000 O   0  0  0  0  0  0  0  0  0  0  0  0
   -1.6045    6.6636    0.0000 C   0  0  0  0  0  0  0  0  0  0  0  0
   -3.0387    2.5523    0.0000 C   0  0  0  0  0  0  0  0  0  0  0  0
   -4.4604    2.5648    0.0000 C   0  0  0  0  0  0  0  0  0  0  0  0
   -3.7495    5.4415    0.0000 C   0  0  0  0  0  0  0  0  0  0  0  0
   -3.7537    1.3177    0.0000 C   0  0  0  0  0  0  0  0  0  0  0  0
   -3.0387    1.7293    0.0000 C   0  0  0  0  0  0  0  0  0  0  0  0
   -4.4645    1.7334    0.0000 C   0  0  0  0  0  0  0  0  0  0  0  0
   -3.7620    0.4946    0.0000 Cl  0  0  0  0  0  0  0  0  0  0  0  0
   -3.7371    8.7338    0.0000 C   0  0  0  0  0  0  0  0  0  0  0  0
   -3.0179    9.1536    0.0000 C   0  0  0  0  0  0  0  0  0  0  0  0
   -4.4479    9.1578    0.0000 C   0  0  0  0  0  0  0  0  0  0  0  0
  2  1  1  0  0  0  0
  3  1  1  0  0  0  0
  4  6  1  0  0  0  0
  5  2  2  0  0  0  0
  6 10  1  0  0  0  0
  7  2  1  0  0  0  0
  8  1  1  0  0  0  0
  9  4  1  0  0  0  0
 10 18  1  0  0  0  0
 11  5  1  0  0  0  0
 12  3  1  0  0  0  0
 13  4  2  0  0  0  0
 14  3  2  0  0  0  0
 15 12  1  0  0  0  0
 16  9  1  0  0  0  0
 17  9  2  0  0  0  0
 18  7  2  0  0  0  0
 19 21  2  0  0  0  0
 20 16  2  0  0  0  0
 21 17  1  0  0  0  0
 22 19  1  0  0  0  0
 23  8  1  0  0  0  0
 24 23  1  0  0  0  0
 25 23  1  0  0  0  0
  5 15  1  0  0  0  0
 11 10  2  0  0  0  0
 20 19  1  0  0  0  0
M  END
>  <IDNUMBER>
F2384-0386

>  <Chemical_Name>
4-chloro-N-[1-(2-methylpropyl)-2-oxo-1,2,3,4-tetrahydroquinolin-6-yl]benzamide

>  <PriceCoeff>
1.00

>  <CAS>
941953-78-2

>  <MW>
356.85

>  <Description>
solid

>  <FSP3>
0.30

>  <clogP>
4.24

>  <TPSA>
49.41

>  <Acceptor>
2

>  <Donor>
1

>  <RotBonds>
4

>  <HAC>
25

>  <Collection>
General

>  <PPDS>
+

$$$$
F2384-0515
  Mrv2219 10102508112D          

 26 28  0  0  0  0            999 V2000
   -3.0375    7.5167    0.0000 N   0  0  0  0  0  0  0  0  0  0  0  0
   -3.0375    6.6875    0.0000 C   0  0  0  0  0  0  0  0  0  0  0  0
   -2.3125    7.9250    0.0000 C   0  0  0  0  0  0  0  0  0  0  0  0
   -3.7500    3.8000    0.0000 C   0  0  0  0  0  0  0  0  0  0  0  0
   -2.3250    6.2667    0.0000 C   0  0  0  0  0  0  0  0  0  0  0  0
   -3.0375    4.2125    0.0000 N   0  0  0  0  0  0  0  0  0  0  0  0
   -3.7500    7.9292    0.0000 C   0  0  0  0  0  0  0  0  0  0  0  0
   -3.7583    6.2792    0.0000 C   0  0  0  0  0  0  0  0  0  0  0  0
   -3.7583    2.9833    0.0000 C   0  0  0  0  0  0  0  0  0  0  0  0
   -3.0375    5.0292    0.0000 C   0  0  0  0  0  0  0  0  0  0  0  0
   -2.3250    5.4417    0.0000 C   0  0  0  0  0  0  0  0  0  0  0  0
   -1.6000    7.5042    0.0000 C   0  0  0  0  0  0  0  0  0  0  0  0
   -4.4708    4.2042    0.0000 O   0  0  0  0  0  0  0  0  0  0  0  0
   -2.3083    8.7500    0.0000 O   0  0  0  0  0  0  0  0  0  0  0  0
   -1.6083    6.6750    0.0000 C   0  0  0  0  0  0  0  0  0  0  0  0
   -3.0458    2.5583    0.0000 C   0  0  0  0  0  0  0  0  0  0  0  0
   -4.4708    2.5708    0.0000 C   0  0  0  0  0  0  0  0  0  0  0  0
   -3.7583    5.4542    0.0000 C   0  0  0  0  0  0  0  0  0  0  0  0
   -3.7625    1.3208    0.0000 C   0  0  0  0  0  0  0  0  0  0  0  0
   -3.7458    8.7542    0.0000 C   0  0  0  0  0  0  0  0  0  0  0  0
   -3.0458    1.7333    0.0000 C   0  0  0  0  0  0  0  0  0  0  0  0
   -4.4750    1.7375    0.0000 C   0  0  0  0  0  0  0  0  0  0  0  0
   -3.7708    0.4958    0.0000 Cl  0  0  0  0  0  0  0  0  0  0  0  0
   -4.4583    9.1792    0.0000 C   0  0  0  0  0  0  0  0  0  0  0  0
   -5.1750    8.7750    0.0000 C   0  0  0  0  0  0  0  0  0  0  0  0
   -4.4583   10.0042    0.0000 C   0  0  0  0  0  0  0  0  0  0  0  0
  2  1  1  0  0  0  0
  3  1  1  0  0  0  0
  4  6  1  0  0  0  0
  5  2  2  0  0  0  0
  6 10  1  0  0  0  0
  7  1  1  0  0  0  0
  8  2  1  0  0  0  0
  9  4  1  0  0  0  0
 10 18  1  0  0  0  0
 11  5  1  0  0  0  0
 12  3  1  0  0  0  0
 13  4  2  0  0  0  0
 14  3  2  0  0  0  0
 15 12  1  0  0  0  0
 16  9  1  0  0  0  0
 17  9  2  0  0  0  0
 18  8  2  0  0  0  0
 19 22  2  0  0  0  0
 20  7  1  0  0  0  0
 21 16  2  0  0  0  0
 22 17  1  0  0  0  0
 23 19  1  0  0  0  0
 24 20  1  0  0  0  0
 25 24  1  0  0  0  0
 26 24  1  0  0  0  0
  5 15  1  0  0  0  0
 11 10  2  0  0  0  0
 21 19  1  0  0  0  0
M  END
>  <IDNUMBER>
F2384-0515

>  <Chemical_Name>
4-chloro-N-[1-(3-methylbutyl)-2-oxo-1,2,3,4-tetrahydroquinolin-6-yl]benzamide

>  <PriceCoeff>
1.00

>  <CAS>
941954-21-8

>  <MW>
370.87

>  <Description>
solid

>  <FSP3>
0.33

>  <clogP>
4.77

>  <TPSA>
49.41

>  <Acceptor>
2

>  <Donor>
1

>  <RotBonds>
5

>  <HAC>
26

>  <Collection>
General

>  <PPDS>
+

$$$$
F2409-1278
  Mrv2219 10102508112D          

 35 39  0  0  0  0            999 V2000
   -1.7499    4.2425    0.0000 C   0  0  0  0  0  0  0  0  0  0  0  0
   -2.4632    3.8271    0.0000 N   0  0  0  0  0  0  0  0  0  0  0  0
   -1.6575    5.0650    0.0000 N   0  0  0  0  0  0  0  0  0  0  0  0
   -6.0470    4.2425    0.0000 N   0  0  0  0  0  0  0  0  0  0  0  0
   -0.9903    3.9235    0.0000 S   0  0  0  0  0  0  0  0  0  0  0  0
   -3.1808    4.2341    0.0000 C   0  0  0  0  0  0  0  0  0  0  0  0
   -0.8518    5.2413    0.0000 C   0  0  0  0  0  0  0  0  0  0  0  0
   -5.3335    3.8271    0.0000 C   0  0  0  0  0  0  0  0  0  0  0  0
   -6.8149    3.9487    0.0000 C   0  0  0  0  0  0  0  0  0  0  0  0
   -6.0847    5.0650    0.0000 C   0  0  0  0  0  0  0  0  0  0  0  0
   -0.4406    4.5320    0.0000 C   0  0  0  0  0  0  0  0  0  0  0  0
   -3.8984    3.8271    0.0000 C   0  0  0  0  0  0  0  0  0  0  0  0
   -0.4532    5.9462    0.0000 C   0  0  0  0  0  0  0  0  0  0  0  0
   -4.6159    4.2341    0.0000 C   0  0  0  0  0  0  0  0  0  0  0  0
   -2.4632    3.0171    0.0000 C   0  0  0  0  0  0  0  0  0  0  0  0
   -3.1808    5.0650    0.0000 O   0  0  0  0  0  0  0  0  0  0  0  0
   -7.3436    4.5615    0.0000 C   0  0  0  0  0  0  0  0  0  0  0  0
   -6.9030    5.2664    0.0000 C   0  0  0  0  0  0  0  0  0  0  0  0
   -7.0289    3.1430    0.0000 O   0  0  0  0  0  0  0  0  0  0  0  0
   -5.4594    5.5938    0.0000 O   0  0  0  0  0  0  0  0  0  0  0  0
   -0.3273    2.5052    0.0000 N   0  0  0  0  0  0  0  0  0  0  0  0
   -1.7582    2.5639    0.0000 C   0  0  0  0  0  0  0  0  0  0  0  0
   -0.8686    6.6638    0.0000 C   0  0  0  0  0  0  0  0  0  0  0  0
   -5.3335    3.0045    0.0000 C   0  0  0  0  0  0  0  0  0  0  0  0
    0.3819    4.5237    0.0000 C   0  0  0  0  0  0  0  0  0  0  0  0
    0.3693    5.9588    0.0000 C   0  0  0  0  0  0  0  0  0  0  0  0
   -1.0281    2.9458    0.0000 C   0  0  0  0  0  0  0  0  0  0  0  0
   -3.8984    3.0045    0.0000 C   0  0  0  0  0  0  0  0  0  0  0  0
   -4.6159    2.5807    0.0000 C   0  0  0  0  0  0  0  0  0  0  0  0
    0.7847    5.2413    0.0000 C   0  0  0  0  0  0  0  0  0  0  0  0
   -0.3609    1.6701    0.0000 C   0  0  0  0  0  0  0  0  0  0  0  0
   -1.7960    1.7331    0.0000 C   0  0  0  0  0  0  0  0  0  0  0  0
   -0.4616    7.3940    0.0000 C   0  0  0  0  0  0  0  0  0  0  0  0
   -1.6953    6.6638    0.0000 C   0  0  0  0  0  0  0  0  0  0  0  0
   -1.1036    1.2798    0.0000 C   0  0  0  0  0  0  0  0  0  0  0  0
  2  1  1  0  0  0  0
  3  1  2  0  0  0  0
  4  8  1  0  0  0  0
  5  1  1  0  0  0  0
  6  2  1  0  0  0  0
  7  3  1  0  0  0  0
  8 14  1  0  0  0  0
  9  4  1  0  0  0  0
 10  4  1  0  0  0  0
 11  5  1  0  0  0  0
 12  6  1  0  0  0  0
 13  7  1  0  0  0  0
 14 12  2  0  0  0  0
 15  2  1  0  0  0  0
 16  6  2  0  0  0  0
 17  9  1  0  0  0  0
 18 10  1  0  0  0  0
 19  9  2  0  0  0  0
 20 10  2  0  0  0  0
 21 27  2  0  0  0  0
 22 15  1  0  0  0  0
 23 13  1  0  0  0  0
 24 29  1  0  0  0  0
 25 11  1  0  0  0  0
 26 13  2  0  0  0  0
 27 22  1  0  0  0  0
 28 12  1  0  0  0  0
 29 28  2  0  0  0  0
 30 25  2  0  0  0  0
 31 35  2  0  0  0  0
 32 22  2  0  0  0  0
 33 23  1  0  0  0  0
 34 23  1  0  0  0  0
 35 32  1  0  0  0  0
  7 11  2  0  0  0  0
 30 26  1  0  0  0  0
 21 31  1  0  0  0  0
 24  8  2  0  0  0  0
 17 18  1  0  0  0  0
M  END
>  <IDNUMBER>
F2409-1278

>  <Chemical_Name>
3-(2,5-dioxopyrrolidin-1-yl)-N-[4-(propan-2-yl)-1,3-benzothiazol-2-yl]-N-[(pyridin-3-yl)methyl]benzamide

>  <PriceCoeff>
1.00

>  <MW>
484.57

>  <Description>
solid

>  <FSP3>
0.22

>  <clogP>
3.23

>  <TPSA>
61.38

>  <Acceptor>
5

>  <Donor>
1

>  <RotBonds>
7

>  <HAC>
35

>  <Collection>
General

$$$$
F2416-0104
  Mrv2219 10102508112D          

 26 28  0  0  0  0            999 V2000
   -4.4604    7.4991    0.0000 N   0  0  0  0  0  0  0  0  0  0  0  0
   -5.1629    7.9232    0.0000 C   0  0  0  0  0  0  0  0  0  0  0  0
   -3.7412    6.2603    0.0000 C   0  0  0  0  0  0  0  0  0  0  0  0
   -4.4604    6.6761    0.0000 C   0  0  0  0  0  0  0  0  0  0  0  0
   -3.7246    1.3302    0.0000 C   0  0  0  0  0  0  0  0  0  0  0  0
   -3.7412    3.7911    0.0000 C   0  0  0  0  0  0  0  0  0  0  0  0
   -3.7288    0.4988    0.0000 C   0  0  0  0  0  0  0  0  0  0  0  0
   -3.0262    6.6719    0.0000 C   0  0  0  0  0  0  0  0  0  0  0  0
   -3.0304    4.2027    0.0000 N   0  0  0  0  0  0  0  0  0  0  0  0
   -4.4479    1.7459    0.0000 C   0  0  0  0  0  0  0  0  0  0  0  0
   -3.7412    7.9107    0.0000 C   0  0  0  0  0  0  0  0  0  0  0  0
   -3.7495    5.4373    0.0000 C   0  0  0  0  0  0  0  0  0  0  0  0
   -3.0304    5.0299    0.0000 C   0  0  0  0  0  0  0  0  0  0  0  0
   -4.4604    2.5565    0.0000 O   0  0  0  0  0  0  0  0  0  0  0  0
   -5.8820    7.5116    0.0000 O   0  0  0  0  0  0  0  0  0  0  0  0
   -4.4604    4.1944    0.0000 O   0  0  0  0  0  0  0  0  0  0  0  0
   -3.0262    7.4950    0.0000 C   0  0  0  0  0  0  0  0  0  0  0  0
   -2.3154    6.2645    0.0000 C   0  0  0  0  0  0  0  0  0  0  0  0
   -5.1587    1.3177    0.0000 C   0  0  0  0  0  0  0  0  0  0  0  0
   -4.4604    0.0873    0.0000 C   0  0  0  0  0  0  0  0  0  0  0  0
   -3.7495    2.9763    0.0000 C   0  0  0  0  0  0  0  0  0  0  0  0
   -3.0179    1.7417    0.0000 Cl  0  0  0  0  0  0  0  0  0  0  0  0
   -2.3196    5.4415    0.0000 C   0  0  0  0  0  0  0  0  0  0  0  0
   -5.1587    0.4864    0.0000 C   0  0  0  0  0  0  0  0  0  0  0  0
   -4.4354   -0.7482    0.0000 Cl  0  0  0  0  0  0  0  0  0  0  0  0
   -5.1587    8.7462    0.0000 C   0  0  0  0  0  0  0  0  0  0  0  0
  2  1  1  0  0  0  0
  3  4  1  0  0  0  0
  4  1  1  0  0  0  0
  5 10  1  0  0  0  0
  6  9  1  0  0  0  0
  7  5  2  0  0  0  0
  8 17  1  0  0  0  0
  9 13  1  0  0  0  0
 10 14  1  0  0  0  0
 11  1  1  0  0  0  0
 12  3  1  0  0  0  0
 13 12  2  0  0  0  0
 14 21  1  0  0  0  0
 15  2  2  0  0  0  0
 16  6  2  0  0  0  0
 17 11  1  0  0  0  0
 18  8  1  0  0  0  0
 19 10  2  0  0  0  0
 20 24  2  0  0  0  0
 21  6  1  0  0  0  0
 22  5  1  0  0  0  0
 23 18  2  0  0  0  0
 24 19  1  0  0  0  0
 25 20  1  0  0  0  0
 26  2  1  0  0  0  0
  3  8  2  0  0  0  0
 13 23  1  0  0  0  0
 20  7  1  0  0  0  0
M  END
>  <IDNUMBER>
F2416-0104

>  <Chemical_Name>
N-(2-acetyl-1,2,3,4-tetrahydroisoquinolin-7-yl)-2-(2,4-dichlorophenoxy)acetamide

>  <PriceCoeff>
1.00

>  <CAS>
955704-85-5

>  <MW>
393.26

>  <Description>
solid

>  <FSP3>
0.26

>  <clogP>
2.56

>  <TPSA>
58.64

>  <Acceptor>
3

>  <Donor>
1

>  <RotBonds>
5

>  <HAC>
26

>  <Collection>
General

$$$$
F2416-0239
  Mrv2219 10102508112D          

 27 29  0  0  0  0            999 V2000
   -4.4524    7.4858    0.0000 N   0  0  0  0  0  0  0  0  0  0  0  0
   -5.1620    7.9048    0.0000 C   0  0  0  0  0  0  0  0  0  0  0  0
   -3.7428    6.2492    0.0000 C   0  0  0  0  0  0  0  0  0  0  0  0
   -4.4649    6.6600    0.0000 C   0  0  0  0  0  0  0  0  0  0  0  0
   -3.7179    1.3278    0.0000 C   0  0  0  0  0  0  0  0  0  0  0  0
   -3.7346    3.7844    0.0000 C   0  0  0  0  0  0  0  0  0  0  0  0
   -3.7221    0.4979    0.0000 C   0  0  0  0  0  0  0  0  0  0  0  0
   -3.0333    6.6600    0.0000 C   0  0  0  0  0  0  0  0  0  0  0  0
   -3.0250    4.1952    0.0000 N   0  0  0  0  0  0  0  0  0  0  0  0
   -4.4400    1.7428    0.0000 C   0  0  0  0  0  0  0  0  0  0  0  0
   -3.7428    7.8966    0.0000 C   0  0  0  0  0  0  0  0  0  0  0  0
   -3.7428    5.4276    0.0000 C   0  0  0  0  0  0  0  0  0  0  0  0
   -3.0250    5.0085    0.0000 C   0  0  0  0  0  0  0  0  0  0  0  0
   -4.4524    2.5520    0.0000 O   0  0  0  0  0  0  0  0  0  0  0  0
   -5.8840    7.4940    0.0000 O   0  0  0  0  0  0  0  0  0  0  0  0
   -4.4524    4.1869    0.0000 O   0  0  0  0  0  0  0  0  0  0  0  0
   -3.0250    7.4816    0.0000 C   0  0  0  0  0  0  0  0  0  0  0  0
   -2.3154    6.2534    0.0000 C   0  0  0  0  0  0  0  0  0  0  0  0
   -5.1495    1.3154    0.0000 C   0  0  0  0  0  0  0  0  0  0  0  0
   -4.4524    0.0871    0.0000 C   0  0  0  0  0  0  0  0  0  0  0  0
   -3.7428    2.9710    0.0000 C   0  0  0  0  0  0  0  0  0  0  0  0
   -3.0126    1.7386    0.0000 Cl  0  0  0  0  0  0  0  0  0  0  0  0
   -2.3154    5.4318    0.0000 C   0  0  0  0  0  0  0  0  0  0  0  0
   -5.1495    0.4855    0.0000 C   0  0  0  0  0  0  0  0  0  0  0  0
   -4.4275   -0.7469    0.0000 Cl  0  0  0  0  0  0  0  0  0  0  0  0
   -5.1662    8.7182    0.0000 C   0  0  0  0  0  0  0  0  0  0  0  0
   -5.8715    9.1290    0.0000 C   0  0  0  0  0  0  0  0  0  0  0  0
  2  1  1  0  0  0  0
  3  4  1  0  0  0  0
  4  1  1  0  0  0  0
  5 10  1  0  0  0  0
  6  9  1  0  0  0  0
  7  5  2  0  0  0  0
  8 17  1  0  0  0  0
  9 13  1  0  0  0  0
 10 14  1  0  0  0  0
 11  1  1  0  0  0  0
 12  3  1  0  0  0  0
 13 12  2  0  0  0  0
 14 21  1  0  0  0  0
 15  2  2  0  0  0  0
 16  6  2  0  0  0  0
 17 11  1  0  0  0  0
 18  8  1  0  0  0  0
 19 10  2  0  0  0  0
 20 24  2  0  0  0  0
 21  6  1  0  0  0  0
 22  5  1  0  0  0  0
 23 18  2  0  0  0  0
 24 19  1  0  0  0  0
 25 20  1  0  0  0  0
 26  2  1  0  0  0  0
 27 26  1  0  0  0  0
  3  8  2  0  0  0  0
 13 23  1  0  0  0  0
 20  7  1  0  0  0  0
M  END
>  <IDNUMBER>
F2416-0239

>  <Chemical_Name>
2-(2,4-dichlorophenoxy)-N-(2-propanoyl-1,2,3,4-tetrahydroisoquinolin-7-yl)acetamide

>  <PriceCoeff>
1.00

>  <CAS>
955736-01-3

>  <MW>
407.29

>  <Description>
solid

>  <FSP3>
0.30

>  <clogP>
3.09

>  <TPSA>
58.64

>  <Acceptor>
3

>  <Donor>
1

>  <RotBonds>
6

>  <HAC>
27

>  <Collection>
General

>  <PPDS>
+

$$$$
F2468-0237
  Mrv2219 10102508112D          

 24 26  0  0  0  0            999 V2000
   -3.8750    0.5083    0.0000 N   0  0  0  0  0  0  0  0  0  0  0  0
   -3.1583    5.0417    0.0000 C   0  0  0  0  0  0  0  0  0  0  0  0
   -3.1583    4.2042    0.0000 N   0  0  0  0  0  0  0  0  0  0  0  0
   -2.4875    5.5292    0.0000 N   0  0  0  0  0  0  0  0  0  0  0  0
   -3.8708    3.8000    0.0000 C   0  0  0  0  0  0  0  0  0  0  0  0
   -3.2125    0.0208    0.0000 C   0  0  0  0  0  0  0  0  0  0  0  0
   -4.5458    0.0333    0.0000 C   0  0  0  0  0  0  0  0  0  0  0  0
   -3.8208    5.5167    0.0000 S   0  0  0  0  0  0  0  0  0  0  0  0
   -2.7458    6.2917    0.0000 C   0  0  0  0  0  0  0  0  0  0  0  0
   -3.5708    6.3000    0.0000 C   0  0  0  0  0  0  0  0  0  0  0  0
   -3.8750    1.3333    0.0000 C   0  0  0  0  0  0  0  0  0  0  0  0
   -3.8708    2.9833    0.0000 C   0  0  0  0  0  0  0  0  0  0  0  0
   -4.5833    4.2042    0.0000 O   0  0  0  0  0  0  0  0  0  0  0  0
   -3.4708   -0.7625    0.0000 C   0  0  0  0  0  0  0  0  0  0  0  0
   -4.2958   -0.7542    0.0000 C   0  0  0  0  0  0  0  0  0  0  0  0
   -5.3333    0.2958    0.0000 O   0  0  0  0  0  0  0  0  0  0  0  0
   -2.4333    0.2708    0.0000 O   0  0  0  0  0  0  0  0  0  0  0  0
   -4.5958    1.7500    0.0000 C   0  0  0  0  0  0  0  0  0  0  0  0
   -3.1583    1.7375    0.0000 C   0  0  0  0  0  0  0  0  0  0  0  0
   -4.5833    2.5708    0.0000 C   0  0  0  0  0  0  0  0  0  0  0  0
   -3.1583    2.5625    0.0000 C   0  0  0  0  0  0  0  0  0  0  0  0
   -2.5708    7.7167    0.0000 S   0  0  0  0  0  0  0  0  0  0  0  0
   -2.2458    6.9542    0.0000 C   0  0  0  0  0  0  0  0  0  0  0  0
   -2.0833    8.3750    0.0000 C   0  0  0  0  0  0  0  0  0  0  0  0
  2  3  1  0  0  0  0
  3  5  1  0  0  0  0
  4  2  2  0  0  0  0
  5 12  1  0  0  0  0
  6  1  1  0  0  0  0
  7  1  1  0  0  0  0
  8  2  1  0  0  0  0
  9  4  1  0  0  0  0
 10  8  1  0  0  0  0
 11  1  1  0  0  0  0
 12 21  1  0  0  0  0
 13  5  2  0  0  0  0
 14  6  1  0  0  0  0
 15  7  1  0  0  0  0
 16  7  2  0  0  0  0
 17  6  2  0  0  0  0
 18 11  2  0  0  0  0
 19 11  1  0  0  0  0
 20 18  1  0  0  0  0
 21 19  2  0  0  0  0
 22 23  1  0  0  0  0
 23  9  1  0  0  0  0
 24 22  1  0  0  0  0
 14 15  1  0  0  0  0
 12 20  2  0  0  0  0
 10  9  2  0  0  0  0
M  END
>  <IDNUMBER>
F2468-0237

>  <Chemical_Name>
4-(2,5-dioxopyrrolidin-1-yl)-N-{4-[(methylsulfanyl)methyl]-1,3-thiazol-2-yl}benzamide

>  <PriceCoeff>
1.50

>  <CAS>
955821-66-6

>  <MW>
361.44

>  <Description>
solid

>  <FSP3>
0.25

>  <clogP>
0.78

>  <TPSA>
132.91

>  <Acceptor>
4

>  <Donor>
1

>  <RotBonds>
5

>  <HAC>
24

>  <Collection>
Advanced

>  <PPDS>
+

$$$$
F2477-0096
  Mrv2219 10102508112D          

 19 20  0  0  0  0            999 V2000
    2.1386    1.2375    0.0000 C   0  0  0  0  0  0  0  0  0  0  0  0
    2.1386    2.0625    0.0000 C   0  0  0  0  0  0  0  0  0  0  0  0
    2.9268    0.9846    0.0000 N   0  0  0  0  0  0  0  0  0  0  0  0
    1.4290    0.8250    0.0000 N   0  0  0  0  0  0  0  0  0  0  0  0
    0.7145    2.0625    0.0000 N   0  0  0  0  0  0  0  0  0  0  0  0
    2.9268    2.3178    0.0000 N   0  0  0  0  0  0  0  0  0  0  0  0
    0.7096    1.2375    0.0000 C   0  0  0  0  0  0  0  0  0  0  0  0
    1.4241    2.4750    0.0000 C   0  0  0  0  0  0  0  0  0  0  0  0
    3.4105    1.6500    0.0000 C   0  0  0  0  0  0  0  0  0  0  0  0
    3.1821    3.1011    0.0000 C   0  0  0  0  0  0  0  0  0  0  0  0
    0.1277    0.6531    0.0000 O   0  0  0  0  0  0  0  0  0  0  0  0
    1.4290    3.2951    0.0000 O   0  0  0  0  0  0  0  0  0  0  0  0
    4.2380    1.6500    0.0000 N   0  0  0  0  0  0  0  0  0  0  0  0
    1.4241    0.0000    0.0000 C   0  0  0  0  0  0  0  0  0  0  0  0
    0.0000    2.4701    0.0000 C   0  0  0  0  0  0  0  0  0  0  0  0
    3.9875    3.2730    0.0000 C   0  0  0  0  0  0  0  0  0  0  0  0
    4.6480    0.9355    0.0000 C   0  0  0  0  0  0  0  0  0  0  0  0
    4.2429    4.0587    0.0000 C   0  0  0  0  0  0  0  0  0  0  0  0
    4.5400    2.6616    0.0000 C   0  0  0  0  0  0  0  0  0  0  0  0
  2  1  2  0  0  0  0
  3  1  1  0  0  0  0
  4  1  1  0  0  0  0
  5  7  1  0  0  0  0
  6  2  1  0  0  0  0
  7  4  1  0  0  0  0
  8  2  1  0  0  0  0
  9  3  2  0  0  0  0
 10  6  1  0  0  0  0
 11  7  2  0  0  0  0
 12  8  2  0  0  0  0
 13  9  1  0  0  0  0
 14  4  1  0  0  0  0
 15  5  1  0  0  0  0
 16 10  1  0  0  0  0
 17 13  1  0  0  0  0
 18 16  1  0  0  0  0
 19 16  1  0  0  0  0
  6  9  1  0  0  0  0
  5  8  1  0  0  0  0
M  END
>  <IDNUMBER>
F2477-0096

>  <Chemical_Name>
1,3-dimethyl-8-(methylamino)-7-(2-methylpropyl)-2,3,6,7-tetrahydro-1H-purine-2,6-dione

>  <PriceCoeff>
1.50

>  <CAS>
941993-67-5

>  <MW>
265.31

>  <Description>
solid

>  <FSP3>
0.58

>  <clogP>
1.97

>  <TPSA>
70.47

>  <Acceptor>
3

>  <Donor>
2

>  <RotBonds>
3

>  <HAC>
19

>  <Collection>
Advanced

>  <PPDS>
+

$$$$
F2477-0097
  Mrv2219 10102508112D          

 20 21  0  0  0  0            999 V2000
    2.1390    1.2377    0.0000 C   0  0  0  0  0  0  0  0  0  0  0  0
    2.1390    2.0629    0.0000 C   0  0  0  0  0  0  0  0  0  0  0  0
    2.9273    0.9848    0.0000 N   0  0  0  0  0  0  0  0  0  0  0  0
    1.4293    0.8251    0.0000 N   0  0  0  0  0  0  0  0  0  0  0  0
    2.9273    2.3182    0.0000 N   0  0  0  0  0  0  0  0  0  0  0  0
    0.7146    2.0629    0.0000 N   0  0  0  0  0  0  0  0  0  0  0  0
    3.4111    1.6503    0.0000 C   0  0  0  0  0  0  0  0  0  0  0  0
    0.7097    1.2377    0.0000 C   0  0  0  0  0  0  0  0  0  0  0  0
    1.4244    2.4754    0.0000 C   0  0  0  0  0  0  0  0  0  0  0  0
    4.2387    1.6503    0.0000 N   0  0  0  0  0  0  0  0  0  0  0  0
    3.1827    3.1017    0.0000 C   0  0  0  0  0  0  0  0  0  0  0  0
    0.1277    0.6532    0.0000 O   0  0  0  0  0  0  0  0  0  0  0  0
    1.4293    3.2957    0.0000 O   0  0  0  0  0  0  0  0  0  0  0  0
    1.4244    0.0000    0.0000 C   0  0  0  0  0  0  0  0  0  0  0  0
    0.0000    2.4705    0.0000 C   0  0  0  0  0  0  0  0  0  0  0  0
    3.9882    3.2736    0.0000 C   0  0  0  0  0  0  0  0  0  0  0  0
    4.6513    2.3600    0.0000 C   0  0  0  0  0  0  0  0  0  0  0  0
    4.6488    0.9357    0.0000 C   0  0  0  0  0  0  0  0  0  0  0  0
    4.5408    2.6621    0.0000 C   0  0  0  0  0  0  0  0  0  0  0  0
    4.2436    4.0594    0.0000 C   0  0  0  0  0  0  0  0  0  0  0  0
  2  1  2  0  0  0  0
  3  1  1  0  0  0  0
  4  1  1  0  0  0  0
  5  2  1  0  0  0  0
  6  8  1  0  0  0  0
  7  3  2  0  0  0  0
  8  4  1  0  0  0  0
  9  2  1  0  0  0  0
 10  7  1  0  0  0  0
 11  5  1  0  0  0  0
 12  8  2  0  0  0  0
 13  9  2  0  0  0  0
 14  4  1  0  0  0  0
 15  6  1  0  0  0  0
 16 11  1  0  0  0  0
 17 10  1  0  0  0  0
 18 10  1  0  0  0  0
 19 16  1  0  0  0  0
 20 16  1  0  0  0  0
  5  7  1  0  0  0  0
  6  9  1  0  0  0  0
M  END
>  <IDNUMBER>
F2477-0097

>  <Chemical_Name>
8-(dimethylamino)-1,3-dimethyl-7-(2-methylpropyl)-2,3,6,7-tetrahydro-1H-purine-2,6-dione

>  <PriceCoeff>
1.50

>  <CAS>
941886-12-0

>  <MW>
279.34

>  <Description>
solid

>  <FSP3>
0.62

>  <clogP>
2.12

>  <TPSA>
61.68

>  <Acceptor>
3

>  <Donor>
2

>  <RotBonds>
3

>  <HAC>
20

>  <Collection>
Advanced

>  <PPDS>
+

$$$$
F2477-0098
  Mrv2219 10102508112D          

 20 21  0  0  0  0            999 V2000
    2.1386    1.2375    0.0000 C   0  0  0  0  0  0  0  0  0  0  0  0
    2.1386    2.0625    0.0000 C   0  0  0  0  0  0  0  0  0  0  0  0
    2.9268    0.9846    0.0000 N   0  0  0  0  0  0  0  0  0  0  0  0
    1.4290    0.8250    0.0000 N   0  0  0  0  0  0  0  0  0  0  0  0
    0.7145    2.0625    0.0000 N   0  0  0  0  0  0  0  0  0  0  0  0
    2.9268    2.3178    0.0000 N   0  0  0  0  0  0  0  0  0  0  0  0
    0.7096    1.2375    0.0000 C   0  0  0  0  0  0  0  0  0  0  0  0
    1.4241    2.4750    0.0000 C   0  0  0  0  0  0  0  0  0  0  0  0
    3.4105    1.6500    0.0000 C   0  0  0  0  0  0  0  0  0  0  0  0
    3.1821    3.1011    0.0000 C   0  0  0  0  0  0  0  0  0  0  0  0
    0.1277    0.6531    0.0000 O   0  0  0  0  0  0  0  0  0  0  0  0
    1.4290    3.2951    0.0000 O   0  0  0  0  0  0  0  0  0  0  0  0
    4.2380    1.6500    0.0000 N   0  0  0  0  0  0  0  0  0  0  0  0
    1.4241    0.0000    0.0000 C   0  0  0  0  0  0  0  0  0  0  0  0
    0.0000    2.4701    0.0000 C   0  0  0  0  0  0  0  0  0  0  0  0
    3.9875    3.2730    0.0000 C   0  0  0  0  0  0  0  0  0  0  0  0
    4.6480    0.9355    0.0000 C   0  0  0  0  0  0  0  0  0  0  0  0
    4.2429    4.0587    0.0000 C   0  0  0  0  0  0  0  0  0  0  0  0
    4.5400    2.6616    0.0000 C   0  0  0  0  0  0  0  0  0  0  0  0
    4.2355    0.2210    0.0000 C   0  0  0  0  0  0  0  0  0  0  0  0
  2  1  2  0  0  0  0
  3  1  1  0  0  0  0
  4  1  1  0  0  0  0
  5  7  1  0  0  0  0
  6  2  1  0  0  0  0
  7  4  1  0  0  0  0
  8  2  1  0  0  0  0
  9  3  2  0  0  0  0
 10  6  1  0  0  0  0
 11  7  2  0  0  0  0
 12  8  2  0  0  0  0
 13  9  1  0  0  0  0
 14  4  1  0  0  0  0
 15  5  1  0  0  0  0
 16 10  1  0  0  0  0
 17 13  1  0  0  0  0
 18 16  1  0  0  0  0
 19 16  1  0  0  0  0
 20 17  1  0  0  0  0
  6  9  1  0  0  0  0
  5  8  1  0  0  0  0
M  END
>  <IDNUMBER>
F2477-0098

>  <Chemical_Name>
8-(ethylamino)-1,3-dimethyl-7-(2-methylpropyl)-2,3,6,7-tetrahydro-1H-purine-2,6-dione

>  <PriceCoeff>
1.50

>  <CAS>
941916-96-7

>  <MW>
279.34

>  <Description>
solid

>  <FSP3>
0.62

>  <clogP>
2.50

>  <TPSA>
70.47

>  <Acceptor>
3

>  <Donor>
2

>  <RotBonds>
4

>  <HAC>
20

>  <Collection>
Advanced

>  <PPDS>
+

$$$$
F2477-0100
  Mrv2219 10102508112D          

 21 22  0  0  0  0            999 V2000
    2.1386    1.2375    0.0000 C   0  0  0  0  0  0  0  0  0  0  0  0
    2.1386    2.0625    0.0000 C   0  0  0  0  0  0  0  0  0  0  0  0
    2.9268    0.9846    0.0000 N   0  0  0  0  0  0  0  0  0  0  0  0
    1.4290    0.8250    0.0000 N   0  0  0  0  0  0  0  0  0  0  0  0
    0.7145    2.0625    0.0000 N   0  0  0  0  0  0  0  0  0  0  0  0
    2.9268    2.3178    0.0000 N   0  0  0  0  0  0  0  0  0  0  0  0
    0.7096    1.2375    0.0000 C   0  0  0  0  0  0  0  0  0  0  0  0
    1.4241    2.4750    0.0000 C   0  0  0  0  0  0  0  0  0  0  0  0
    3.4105    1.6500    0.0000 C   0  0  0  0  0  0  0  0  0  0  0  0
    3.1821    3.1011    0.0000 C   0  0  0  0  0  0  0  0  0  0  0  0
    0.1277    0.6531    0.0000 O   0  0  0  0  0  0  0  0  0  0  0  0
    1.4290    3.2951    0.0000 O   0  0  0  0  0  0  0  0  0  0  0  0
    4.2379    1.6500    0.0000 N   0  0  0  0  0  0  0  0  0  0  0  0
    1.4241    0.0000    0.0000 C   0  0  0  0  0  0  0  0  0  0  0  0
    0.0000    2.4701    0.0000 C   0  0  0  0  0  0  0  0  0  0  0  0
    3.9875    3.2730    0.0000 C   0  0  0  0  0  0  0  0  0  0  0  0
    4.6480    0.9355    0.0000 C   0  0  0  0  0  0  0  0  0  0  0  0
    5.4730    0.9330    0.0000 C   0  0  0  0  0  0  0  0  0  0  0  0
    4.5400    2.6616    0.0000 C   0  0  0  0  0  0  0  0  0  0  0  0
    4.2428    4.0587    0.0000 C   0  0  0  0  0  0  0  0  0  0  0  0
    5.8855    0.2185    0.0000 C   0  0  0  0  0  0  0  0  0  0  0  0
  2  1  2  0  0  0  0
  3  1  1  0  0  0  0
  4  1  1  0  0  0  0
  5  7  1  0  0  0  0
  6  2  1  0  0  0  0
  7  4  1  0  0  0  0
  8  2  1  0  0  0  0
  9  3  2  0  0  0  0
 10  6  1  0  0  0  0
 11  7  2  0  0  0  0
 12  8  2  0  0  0  0
 13  9  1  0  0  0  0
 14  4  1  0  0  0  0
 15  5  1  0  0  0  0
 16 10  1  0  0  0  0
 17 13  1  0  0  0  0
 18 17  1  0  0  0  0
 19 16  1  0  0  0  0
 20 16  1  0  0  0  0
 21 18  1  0  0  0  0
  6  9  1  0  0  0  0
  5  8  1  0  0  0  0
M  END
>  <IDNUMBER>
F2477-0100

>  <Chemical_Name>
1,3-dimethyl-7-(2-methylpropyl)-8-(propylamino)-2,3,6,7-tetrahydro-1H-purine-2,6-dione

>  <PriceCoeff>
1.00

>  <CAS>
941993-70-0

>  <MW>
293.36

>  <Description>
solid

>  <FSP3>
0.64

>  <clogP>
3.03

>  <TPSA>
70.47

>  <Acceptor>
3

>  <Donor>
2

>  <RotBonds>
5

>  <HAC>
21

>  <Collection>
General

>  <PPDS>
+

$$$$
F2491-0021
  Mrv2219 10102508112D          

 21 23  0  0  0  0            999 V2000
   -4.6183    2.5904    0.0000 C   0  0  0  0  0  0  0  0  0  0  0  0
   -4.6981    1.7717    0.0000 N   0  0  0  0  0  0  0  0  0  0  0  0
   -5.3740    2.9305    0.0000 C   0  0  0  0  0  0  0  0  0  0  0  0
   -5.5126    1.5870    0.0000 N   0  0  0  0  0  0  0  0  0  0  0  0
   -3.9004    3.0061    0.0000 C   0  0  0  0  0  0  0  0  0  0  0  0
   -5.9282    2.3133    0.0000 C   0  0  0  0  0  0  0  0  0  0  0  0
   -3.1824    2.5904    0.0000 N   0  0  0  0  0  0  0  0  0  0  0  0
   -3.9004    3.8290    0.0000 O   0  0  0  0  0  0  0  0  0  0  0  0
   -2.4645    3.0061    0.0000 C   0  0  0  0  0  0  0  0  0  0  0  0
   -2.4519    3.8248    0.0000 C   0  0  0  0  0  0  0  0  0  0  0  0
   -2.4519    5.4790    0.0000 C   0  0  0  0  0  0  0  0  0  0  0  0
   -5.6386    3.7114    0.0000 C   0  0  0  0  0  0  0  0  0  0  0  0
   -3.1741    4.2489    0.0000 C   0  0  0  0  0  0  0  0  0  0  0  0
   -1.7339    4.2321    0.0000 C   0  0  0  0  0  0  0  0  0  0  0  0
   -3.1615    5.0802    0.0000 C   0  0  0  0  0  0  0  0  0  0  0  0
   -1.7339    5.0550    0.0000 C   0  0  0  0  0  0  0  0  0  0  0  0
   -2.4393    6.3103    0.0000 O   0  0  0  0  0  0  0  0  0  0  0  0
   -6.7302    2.4771    0.0000 C   0  0  0  0  0  0  0  0  0  0  0  0
   -1.7214    6.7176    0.0000 C   0  0  0  0  0  0  0  0  0  0  0  0
   -6.4363    3.8752    0.0000 C   0  0  0  0  0  0  0  0  0  0  0  0
   -6.9821    3.2622    0.0000 C   0  0  0  0  0  0  0  0  0  0  0  0
  2  1  2  0  0  0  0
  3  1  1  0  0  0  0
  4  2  1  0  0  0  0
  5  1  1  0  0  0  0
  6  3  1  0  0  0  0
  7  5  1  0  0  0  0
  8  5  2  0  0  0  0
  9  7  1  0  0  0  0
 10  9  1  0  0  0  0
 11 16  2  0  0  0  0
 12  3  2  0  0  0  0
 13 10  1  0  0  0  0
 14 10  2  0  0  0  0
 15 13  2  0  0  0  0
 16 14  1  0  0  0  0
 17 11  1  0  0  0  0
 18  6  2  0  0  0  0
 19 17  1  0  0  0  0
 20 12  1  0  0  0  0
 21 20  2  0  0  0  0
  4  6  1  0  0  0  0
 18 21  1  0  0  0  0
 11 15  1  0  0  0  0
M  END
>  <IDNUMBER>
F2491-0021

>  <Chemical_Name>
N-[(4-methoxyphenyl)methyl]-1H-indazole-3-carboxamide

>  <PriceCoeff>
1.00

>  <CAS>
930037-61-9

>  <MW>
281.31

>  <Description>
solid

>  <FSP3>
0.12

>  <clogP>
3.10

>  <TPSA>
67.01

>  <Acceptor>
4

>  <Donor>
3

>  <RotBonds>
4

>  <HAC>
21

>  <Collection>
General

>  <PPDS>
+

$$$$
F2493-3641
  Mrv2219 10102508112D          

 27 30  0  0  0  0            999 V2000
    0.0874    2.0183    0.0000 N   0  0  0  0  0  0  0  0  0  0  0  0
   -3.7787    2.4803    0.0000 C   0  0  0  0  0  0  0  0  0  0  0  0
   -2.4428    2.3928    0.0000 N   0  0  0  0  0  0  0  0  0  0  0  0
    0.8865    1.7978    0.0000 C   0  0  0  0  0  0  0  0  0  0  0  0
   -0.3703    1.3359    0.0000 C   0  0  0  0  0  0  0  0  0  0  0  0
   -3.4666    3.2419    0.0000 C   0  0  0  0  0  0  0  0  0  0  0  0
   -3.1462    1.9559    0.0000 O   0  0  0  0  0  0  0  0  0  0  0  0
   -2.6468    3.1919    0.0000 C   0  0  0  0  0  0  0  0  0  0  0  0
   -4.5778    2.2805    0.0000 C   0  0  0  0  0  0  0  0  0  0  0  0
   -0.1997    2.7800    0.0000 C   0  0  0  0  0  0  0  0  0  0  0  0
   -5.6056    1.2860    0.0000 C   0  0  0  0  0  0  0  0  0  0  0  0
   -1.0196    2.9215    0.0000 C   0  0  0  0  0  0  0  0  0  0  0  0
   -4.8067    1.4857    0.0000 C   0  0  0  0  0  0  0  0  0  0  0  0
   -6.1717    1.8810    0.0000 C   0  0  0  0  0  0  0  0  0  0  0  0
   -1.3067    3.6913    0.0000 N   0  0  0  0  0  0  0  0  0  0  0  0
   -5.8387    0.4952    0.0000 O   0  0  0  0  0  0  0  0  0  0  0  0
    0.9281    0.9739    0.0000 C   0  0  0  0  0  0  0  0  0  0  0  0
    0.1540    0.6866    0.0000 C   0  0  0  0  0  0  0  0  0  0  0  0
   -1.1944    1.2984    0.0000 O   0  0  0  0  0  0  0  0  0  0  0  0
    1.5274    2.3179    0.0000 O   0  0  0  0  0  0  0  0  0  0  0  0
   -6.9707    1.6813    0.0000 O   0  0  0  0  0  0  0  0  0  0  0  0
   -5.1520    2.8798    0.0000 C   0  0  0  0  0  0  0  0  0  0  0  0
   -1.5439    2.2847    0.0000 O   0  0  0  0  0  0  0  0  0  0  0  0
   -5.9511    2.6718    0.0000 C   0  0  0  0  0  0  0  0  0  0  0  0
   -2.1182    3.8286    0.0000 C   0  0  0  0  0  0  0  0  0  0  0  0
   -6.6336    0.2871    0.0000 C   0  0  0  0  0  0  0  0  0  0  0  0
   -7.2079    0.8823    0.0000 C   0  0  0  0  0  0  0  0  0  0  0  0
  2  6  2  0  0  0  0
  3  8  2  0  0  0  0
  4  1  1  0  0  0  0
  5  1  1  0  0  0  0
  6  8  1  0  0  0  0
  7  3  1  0  0  0  0
  8 25  1  0  0  0  0
  9  2  1  0  0  0  0
 10  1  1  0  0  0  0
 11 13  2  0  0  0  0
 12 10  1  0  0  0  0
 13  9  1  0  0  0  0
 14 24  2  0  0  0  0
 15 12  1  0  0  0  0
 16 11  1  0  0  0  0
 17  4  1  0  0  0  0
 18  5  1  0  0  0  0
 19  5  2  0  0  0  0
 20  4  2  0  0  0  0
 21 14  1  0  0  0  0
 22  9  2  0  0  0  0
 23 12  2  0  0  0  0
 24 22  1  0  0  0  0
 25 15  1  0  0  0  0
 26 16  1  0  0  0  0
 27 21  1  0  0  0  0
 18 17  1  0  0  0  0
  2  7  1  0  0  0  0
 14 11  1  0  0  0  0
 26 27  1  0  0  0  0
M  END
>  <IDNUMBER>
F2493-3641

>  <Chemical_Name>
N-{[5-(2,3-dihydro-1,4-benzodioxin-6-yl)-1,2-oxazol-3-yl]methyl}-2-(2,5-dioxopyrrolidin-1-yl)acetamide

>  <PriceCoeff>
1.00

>  <CAS>
1207040-47-8

>  <MW>
371.34

>  <Description>
solid

>  <FSP3>
0.33

>  <clogP>
0.71

>  <TPSA>
110.97

>  <Acceptor>
7

>  <Donor>
1

>  <RotBonds>
5

>  <HAC>
27

>  <Collection>
General

>  <PPDS>
+

$$$$
F2496-1556
  Mrv2219 10102508112D          

 28 31  0  0  0  0            999 V2000
   -4.5816   -0.0917    0.0000 C   0  0  0  0  0  0  0  0  0  0  0  0
   -3.7944    0.1499    0.0000 C   0  0  0  0  0  0  0  0  0  0  0  0
   -4.8440   -0.8789    0.0000 O   0  0  0  0  0  0  0  0  0  0  0  0
   -3.5320    0.9371    0.0000 C   0  0  0  0  0  0  0  0  0  0  0  0
   -2.4574    0.1582    0.0000 N   0  0  0  0  0  0  0  0  0  0  0  0
   -3.1238   -0.3374    0.0000 O   0  0  0  0  0  0  0  0  0  0  0  0
   -5.2438    0.3874    0.0000 C   0  0  0  0  0  0  0  0  0  0  0  0
   -1.3078    2.9989    0.0000 C   0  0  0  0  0  0  0  0  0  0  0  0
   -0.8455    3.6861    0.0000 C   0  0  0  0  0  0  0  0  0  0  0  0
   -2.7198    0.9454    0.0000 C   0  0  0  0  0  0  0  0  0  0  0  0
   -2.1325    3.0571    0.0000 C   0  0  0  0  0  0  0  0  0  0  0  0
   -1.2078    4.4275    0.0000 C   0  0  0  0  0  0  0  0  0  0  0  0
   -5.6604   -0.8872    0.0000 C   0  0  0  0  0  0  0  0  0  0  0  0
   -5.9103   -0.0917    0.0000 C   0  0  0  0  0  0  0  0  0  0  0  0
   -2.5990    2.3824    0.0000 O   0  0  0  0  0  0  0  0  0  0  0  0
   -2.4949    3.7986    0.0000 O   0  0  0  0  0  0  0  0  0  0  0  0
   -2.0325    4.4775    0.0000 O   0  0  0  0  0  0  0  0  0  0  0  0
   -2.2450    1.6327    0.0000 C   0  0  0  0  0  0  0  0  0  0  0  0
   -0.7455    5.1023    0.0000 O   0  0  0  0  0  0  0  0  0  0  0  0
   -0.0208    3.6236    0.0000 C   0  0  0  0  0  0  0  0  0  0  0  0
   -0.9496    2.2574    0.0000 C   0  0  0  0  0  0  0  0  0  0  0  0
   -6.2019   -1.4911    0.0000 C   0  0  0  0  0  0  0  0  0  0  0  0
   -6.7100    0.0750    0.0000 C   0  0  0  0  0  0  0  0  0  0  0  0
    0.0750    5.0523    0.0000 C   0  0  0  0  0  0  0  0  0  0  0  0
    0.3374    2.8822    0.0000 C   0  0  0  0  0  0  0  0  0  0  0  0
   -0.1332    2.2075    0.0000 C   0  0  0  0  0  0  0  0  0  0  0  0
   -7.0099   -1.3245    0.0000 C   0  0  0  0  0  0  0  0  0  0  0  0
   -7.2640   -0.5373    0.0000 C   0  0  0  0  0  0  0  0  0  0  0  0
  2  1  1  0  0  0  0
  3  1  1  0  0  0  0
  4  2  2  0  0  0  0
  5  6  1  0  0  0  0
  6  2  1  0  0  0  0
  7  1  2  0  0  0  0
  8 11  1  0  0  0  0
  9  8  1  0  0  0  0
 10  4  1  0  0  0  0
 11 15  1  0  0  0  0
 12  9  1  0  0  0  0
 13  3  1  0  0  0  0
 14  7  1  0  0  0  0
 15 18  1  0  0  0  0
 16 11  2  0  0  0  0
 17 12  2  0  0  0  0
 18 10  1  0  0  0  0
 19 12  1  0  0  0  0
 20  9  2  0  0  0  0
 21  8  2  0  0  0  0
 22 13  1  0  0  0  0
 23 14  1  0  0  0  0
 24 19  1  0  0  0  0
 25 26  2  0  0  0  0
 26 21  1  0  0  0  0
 27 22  2  0  0  0  0
 28 23  2  0  0  0  0
 14 13  2  0  0  0  0
  5 10  2  0  0  0  0
 27 28  1  0  0  0  0
 25 20  1  0  0  0  0
M  END
>  <IDNUMBER>
F2496-1556

>  <Chemical_Name>
1-[5-(1-benzofuran-2-yl)-1,2-oxazol-3-yl]methyl 2-methyl benzene-1,2-dicarboxylate

>  <PriceCoeff>
1.00

>  <CAS>
1105203-44-8

>  <MW>
377.35

>  <Description>
solid

>  <FSP3>
0.10

>  <clogP>
4.24

>  <TPSA>
91.77

>  <Acceptor>
7

>  <Donor>
0

>  <RotBonds>
7

>  <HAC>
28

>  <Collection>
General

>  <PPDS>
+

$$$$
F2496-3074
  Mrv2219 10102508112D          

 24 26  0  0  0  0            999 V2000
   -3.5718    4.5555    0.0000 N   0  0  0  0  0  0  0  0  0  0  0  0
   -3.7760    2.1464    0.0000 C   0  0  0  0  0  0  0  0  0  0  0  0
   -3.1467    2.6882    0.0000 C   0  0  0  0  0  0  0  0  0  0  0  0
   -2.6215    1.4712    0.0000 N   0  0  0  0  0  0  0  0  0  0  0  0
   -4.3970    4.5805    0.0000 C   0  0  0  0  0  0  0  0  0  0  0  0
   -3.2842    5.3181    0.0000 C   0  0  0  0  0  0  0  0  0  0  0  0
   -3.4468    1.3837    0.0000 O   0  0  0  0  0  0  0  0  0  0  0  0
   -4.5846    2.3339    0.0000 C   0  0  0  0  0  0  0  0  0  0  0  0
   -2.4465    2.2839    0.0000 C   0  0  0  0  0  0  0  0  0  0  0  0
   -3.1092    3.8843    0.0000 C   0  0  0  0  0  0  0  0  0  0  0  0
   -2.2839    3.9343    0.0000 C   0  0  0  0  0  0  0  0  0  0  0  0
   -5.2847    1.9006    0.0000 C   0  0  0  0  0  0  0  0  0  0  0  0
   -4.6263    5.3681    0.0000 C   0  0  0  0  0  0  0  0  0  0  0  0
   -3.9385    5.8308    0.0000 C   0  0  0  0  0  0  0  0  0  0  0  0
   -2.4882    5.5432    0.0000 O   0  0  0  0  0  0  0  0  0  0  0  0
   -4.8971    3.9343    0.0000 O   0  0  0  0  0  0  0  0  0  0  0  0
   -1.9214    4.6680    0.0000 O   0  0  0  0  0  0  0  0  0  0  0  0
   -1.6087    3.4593    0.0000 O   0  0  0  0  0  0  0  0  0  0  0  0
   -1.6837    2.6340    0.0000 C   0  0  0  0  0  0  0  0  0  0  0  0
   -5.2722    1.0836    0.0000 F   0  0  0  0  0  0  0  0  0  0  0  0
   -4.5971    3.1467    0.0000 C   0  0  0  0  0  0  0  0  0  0  0  0
   -6.0016    2.3089    0.0000 C   0  0  0  0  0  0  0  0  0  0  0  0
   -5.3097    3.5468    0.0000 C   0  0  0  0  0  0  0  0  0  0  0  0
   -6.0058    3.1259    0.0000 C   0  0  0  0  0  0  0  0  0  0  0  0
  2  3  2  0  0  0  0
  3  9  1  0  0  0  0
  4  9  2  0  0  0  0
  5  1  1  0  0  0  0
  6  1  1  0  0  0  0
  7  4  1  0  0  0  0
  8  2  1  0  0  0  0
  9 19  1  0  0  0  0
 10  1  1  0  0  0  0
 11 10  1  0  0  0  0
 12  8  1  0  0  0  0
 13  5  1  0  0  0  0
 14  6  1  0  0  0  0
 15  6  2  0  0  0  0
 16  5  2  0  0  0  0
 17 11  2  0  0  0  0
 18 11  1  0  0  0  0
 19 18  1  0  0  0  0
 20 12  1  0  0  0  0
 21  8  2  0  0  0  0
 22 12  2  0  0  0  0
 23 21  1  0  0  0  0
 24 23  2  0  0  0  0
 14 13  1  0  0  0  0
  2  7  1  0  0  0  0
 24 22  1  0  0  0  0
M  END
>  <IDNUMBER>
F2496-3074

>  <Chemical_Name>
[5-(2-fluorophenyl)-1,2-oxazol-3-yl]methyl 2-(2,5-dioxopyrrolidin-1-yl)acetate

>  <PriceCoeff>
1.00

>  <CAS>
1203419-71-9

>  <MW>
332.28

>  <Description>
solid

>  <FSP3>
0.25

>  <clogP>
1.58

>  <TPSA>
89.71

>  <Acceptor>
6

>  <Donor>
0

>  <RotBonds>
6

>  <HAC>
24

>  <Collection>
General

>  <PPDS>
+

$$$$
F2496-3406
  Mrv2219 10102508112D          

 27 30  0  0  0  0            999 V2000
   -3.5507    4.5285    0.0000 N   0  0  0  0  0  0  0  0  0  0  0  0
   -3.7537    2.1337    0.0000 C   0  0  0  0  0  0  0  0  0  0  0  0
   -2.6060    1.4625    0.0000 N   0  0  0  0  0  0  0  0  0  0  0  0
   -4.3710    4.5534    0.0000 C   0  0  0  0  0  0  0  0  0  0  0  0
   -3.2648    5.2868    0.0000 C   0  0  0  0  0  0  0  0  0  0  0  0
   -3.1281    2.6723    0.0000 C   0  0  0  0  0  0  0  0  0  0  0  0
   -3.4264    1.3755    0.0000 O   0  0  0  0  0  0  0  0  0  0  0  0
   -2.4320    2.2704    0.0000 C   0  0  0  0  0  0  0  0  0  0  0  0
   -4.5575    2.3201    0.0000 C   0  0  0  0  0  0  0  0  0  0  0  0
   -3.0908    3.8614    0.0000 C   0  0  0  0  0  0  0  0  0  0  0  0
   -5.9786    2.2331    0.0000 C   0  0  0  0  0  0  0  0  0  0  0  0
   -5.2535    1.8603    0.0000 C   0  0  0  0  0  0  0  0  0  0  0  0
   -2.2704    3.9112    0.0000 C   0  0  0  0  0  0  0  0  0  0  0  0
   -6.0200    3.0659    0.0000 C   0  0  0  0  0  0  0  0  0  0  0  0
   -6.6664    1.7775    0.0000 O   0  0  0  0  0  0  0  0  0  0  0  0
   -4.5989    5.3365    0.0000 C   0  0  0  0  0  0  0  0  0  0  0  0
   -3.9154    5.7963    0.0000 C   0  0  0  0  0  0  0  0  0  0  0  0
   -2.4735    5.5105    0.0000 O   0  0  0  0  0  0  0  0  0  0  0  0
   -4.8682    3.9112    0.0000 O   0  0  0  0  0  0  0  0  0  0  0  0
   -6.7658    3.4264    0.0000 O   0  0  0  0  0  0  0  0  0  0  0  0
   -4.5989    3.1405    0.0000 C   0  0  0  0  0  0  0  0  0  0  0  0
   -1.9100    4.6404    0.0000 O   0  0  0  0  0  0  0  0  0  0  0  0
   -5.3405    3.5051    0.0000 C   0  0  0  0  0  0  0  0  0  0  0  0
   -1.5992    3.4388    0.0000 O   0  0  0  0  0  0  0  0  0  0  0  0
   -1.6739    2.6184    0.0000 C   0  0  0  0  0  0  0  0  0  0  0  0
   -7.4205    2.1503    0.0000 C   0  0  0  0  0  0  0  0  0  0  0  0
   -7.4619    2.9789    0.0000 C   0  0  0  0  0  0  0  0  0  0  0  0
  2  6  2  0  0  0  0
  3  8  2  0  0  0  0
  4  1  1  0  0  0  0
  5  1  1  0  0  0  0
  6  8  1  0  0  0  0
  7  3  1  0  0  0  0
  8 25  1  0  0  0  0
  9  2  1  0  0  0  0
 10  1  1  0  0  0  0
 11 12  2  0  0  0  0
 12  9  1  0  0  0  0
 13 10  1  0  0  0  0
 14 23  2  0  0  0  0
 15 11  1  0  0  0  0
 16  4  1  0  0  0  0
 17  5  1  0  0  0  0
 18  5  2  0  0  0  0
 19  4  2  0  0  0  0
 20 14  1  0  0  0  0
 21  9  2  0  0  0  0
 22 13  2  0  0  0  0
 23 21  1  0  0  0  0
 24 13  1  0  0  0  0
 25 24  1  0  0  0  0
 26 15  1  0  0  0  0
 27 20  1  0  0  0  0
 17 16  1  0  0  0  0
  2  7  1  0  0  0  0
 14 11  1  0  0  0  0
 26 27  1  0  0  0  0
M  END
>  <IDNUMBER>
F2496-3406

>  <Chemical_Name>
[5-(2,3-dihydro-1,4-benzodioxin-6-yl)-1,2-oxazol-3-yl]methyl 2-(2,5-dioxopyrrolidin-1-yl)acetate

>  <PriceCoeff>
1.00

>  <CAS>
1203105-87-6

>  <MW>
372.33

>  <Description>
solid

>  <FSP3>
0.33

>  <clogP>
1.39

>  <TPSA>
108.17

>  <Acceptor>
8

>  <Donor>
0

>  <RotBonds>
6

>  <HAC>
27

>  <Collection>
General

>  <PPDS>
+

$$$$
F2510-0139
  Mrv2219 10102508112D          

 28 30  0  0  0  0            999 V2000
   -6.0090    5.5837    0.0000 N   0  3  0  0  0  0  0  0  0  0  0  0
   -5.8129    4.7955    0.0000 C   0  0  0  0  0  0  0  0  0  0  0  0
   -2.9857    2.5603    0.0000 C   0  0  0  0  0  0  0  0  0  0  0  0
   -2.2726    2.9857    0.0000 C   0  0  0  0  0  0  0  0  0  0  0  0
   -3.9990    3.5737    0.0000 C   0  0  0  0  0  0  0  0  0  0  0  0
   -1.5595    2.5603    0.0000 C   0  0  0  0  0  0  0  0  0  0  0  0
   -5.0123    4.5703    0.0000 C   0  0  0  0  0  0  0  0  0  0  0  0
   -3.7863    2.7772    0.0000 O   0  0  0  0  0  0  0  0  0  0  0  0
   -2.9857    1.7347    0.0000 C   0  0  0  0  0  0  0  0  0  0  0  0
    0.5296    1.7014    0.0000 C   0  0  0  0  0  0  0  0  0  0  0  0
   -4.7913    3.7863    0.0000 C   0  0  0  0  0  0  0  0  0  0  0  0
   -1.5595    1.7347    0.0000 C   0  0  0  0  0  0  0  0  0  0  0  0
   -2.2726    1.3261    0.0000 O   0  0  0  0  0  0  0  0  0  0  0  0
   -6.3843    4.1950    0.0000 C   0  0  0  0  0  0  0  0  0  0  0  0
   -5.4418    6.1716    0.0000 O   0  5  0  0  0  0  0  0  0  0  0  0
   -6.8096    5.7963    0.0000 O   0  0  0  0  0  0  0  0  0  0  0  0
    1.1134    2.2893    0.0000 N   0  0  0  0  0  0  0  0  0  0  0  0
    0.7423    0.9090    0.0000 N   0  0  0  0  0  0  0  0  0  0  0  0
   -0.2627    1.9098    0.0000 S   0  0  0  0  0  0  0  0  0  0  0  0
   -3.4110    4.1450    0.0000 O   0  0  0  0  0  0  0  0  0  0  0  0
   -2.2726    3.8030    0.0000 O   0  0  0  0  0  0  0  0  0  0  0  0
   -5.3751    3.2109    0.0000 C   0  0  0  0  0  0  0  0  0  0  0  0
   -6.1591    3.4110    0.0000 C   0  0  0  0  0  0  0  0  0  0  0  0
   -0.8465    1.3219    0.0000 C   0  0  0  0  0  0  0  0  0  0  0  0
   -7.1724    4.4077    0.0000 Cl  0  0  0  0  0  0  0  0  0  0  0  0
    2.1267    1.2843    0.0000 C   0  0  0  0  0  0  0  0  0  0  0  0
    1.5387    0.6964    0.0000 C   0  0  0  0  0  0  0  0  0  0  0  0
    1.9057    2.0850    0.0000 C   0  0  0  0  0  0  0  0  0  0  0  0
  2  1  1  0  0  0  0
  3  8  1  0  0  0  0
  4  3  1  0  0  0  0
  5 11  1  0  0  0  0
  6  4  1  0  0  0  0
  7  2  2  0  0  0  0
  8  5  1  0  0  0  0
  9  3  2  0  0  0  0
 10 19  1  0  0  0  0
 11  7  1  0  0  0  0
 12 13  1  0  0  0  0
 13  9  1  0  0  0  0
 14  2  1  0  0  0  0
 15  1  1  0  0  0  0
 16  1  2  0  0  0  0
 17 10  2  0  0  0  0
 18 10  1  0  0  0  0
 19 24  1  0  0  0  0
 20  5  2  0  0  0  0
 21  4  2  0  0  0  0
 22 23  1  0  0  0  0
 23 14  2  0  0  0  0
 24 12  1  0  0  0  0
 25 14  1  0  0  0  0
 26 27  1  0  0  0  0
 27 18  2  0  0  0  0
 28 17  1  0  0  0  0
 11 22  2  0  0  0  0
 12  6  2  0  0  0  0
 28 26  2  0  0  0  0
M  CHG  2   1   1  15  -1
M  END
>  <IDNUMBER>
F2510-0139

>  <Chemical_Name>
4-oxo-6-[(pyrimidin-2-ylsulfanyl)methyl]-4H-pyran-3-yl 4-chloro-3-nitrobenzoate

>  <PriceCoeff>
1.00

>  <CAS>
877636-57-2

>  <MW>
419.80

>  <Description>
solid

>  <FSP3>
0.06

>  <clogP>
2.14

>  <TPSA>
146.82

>  <Acceptor>
8

>  <Donor>
0

>  <RotBonds>
7

>  <HAC>
28

>  <Collection>
General

>  <PPDS>
+

$$$$
F2510-0140
  Mrv2219 10102508112D          

 29 31  0  0  0  0            999 V2000
   -6.0213    5.5951    0.0000 N   0  3  0  0  0  0  0  0  0  0  0  0
   -5.8249    4.8054    0.0000 C   0  0  0  0  0  0  0  0  0  0  0  0
   -2.9918    2.5656    0.0000 C   0  0  0  0  0  0  0  0  0  0  0  0
   -2.2773    2.9918    0.0000 C   0  0  0  0  0  0  0  0  0  0  0  0
   -4.0072    3.5810    0.0000 C   0  0  0  0  0  0  0  0  0  0  0  0
   -1.5627    2.5656    0.0000 C   0  0  0  0  0  0  0  0  0  0  0  0
   -5.0226    4.5797    0.0000 C   0  0  0  0  0  0  0  0  0  0  0  0
   -3.7941    2.7829    0.0000 O   0  0  0  0  0  0  0  0  0  0  0  0
    0.5307    1.7048    0.0000 C   0  0  0  0  0  0  0  0  0  0  0  0
   -2.9918    1.7382    0.0000 C   0  0  0  0  0  0  0  0  0  0  0  0
   -4.8011    3.7941    0.0000 C   0  0  0  0  0  0  0  0  0  0  0  0
    0.7438    0.9151    0.0000 N   0  0  0  0  0  0  0  0  0  0  0  0
   -2.2773    1.3288    0.0000 O   0  0  0  0  0  0  0  0  0  0  0  0
   -1.5627    1.7382    0.0000 C   0  0  0  0  0  0  0  0  0  0  0  0
   -6.3974    4.2036    0.0000 C   0  0  0  0  0  0  0  0  0  0  0  0
   -5.4530    6.1843    0.0000 O   0  5  0  0  0  0  0  0  0  0  0  0
    1.1157    2.2940    0.0000 N   0  0  0  0  0  0  0  0  0  0  0  0
   -6.8236    5.8082    0.0000 O   0  0  0  0  0  0  0  0  0  0  0  0
   -0.2632    1.9137    0.0000 S   0  0  0  0  0  0  0  0  0  0  0  0
   -3.4180    4.1535    0.0000 O   0  0  0  0  0  0  0  0  0  0  0  0
   -2.2773    3.8108    0.0000 O   0  0  0  0  0  0  0  0  0  0  0  0
   -5.3861    3.2174    0.0000 C   0  0  0  0  0  0  0  0  0  0  0  0
   -6.1717    3.4180    0.0000 C   0  0  0  0  0  0  0  0  0  0  0  0
    1.5419    0.7020    0.0000 C   0  0  0  0  0  0  0  0  0  0  0  0
   -0.8482    1.3246    0.0000 C   0  0  0  0  0  0  0  0  0  0  0  0
    1.9054    2.0892    0.0000 C   0  0  0  0  0  0  0  0  0  0  0  0
   -7.1871    4.4168    0.0000 Cl  0  0  0  0  0  0  0  0  0  0  0  0
    2.1227    1.2870    0.0000 C   0  0  0  0  0  0  0  0  0  0  0  0
    1.7592   -0.0920    0.0000 C   0  0  0  0  0  0  0  0  0  0  0  0
  2  1  1  0  0  0  0
  3  8  1  0  0  0  0
  4  3  1  0  0  0  0
  5 11  1  0  0  0  0
  6  4  1  0  0  0  0
  7  2  2  0  0  0  0
  8  5  1  0  0  0  0
  9 19  1  0  0  0  0
 10  3  2  0  0  0  0
 11  7  1  0  0  0  0
 12  9  1  0  0  0  0
 13 10  1  0  0  0  0
 14 13  1  0  0  0  0
 15  2  1  0  0  0  0
 16  1  1  0  0  0  0
 17  9  2  0  0  0  0
 18  1  2  0  0  0  0
 19 25  1  0  0  0  0
 20  5  2  0  0  0  0
 21  4  2  0  0  0  0
 22 23  1  0  0  0  0
 23 15  2  0  0  0  0
 24 12  2  0  0  0  0
 25 14  1  0  0  0  0
 26 17  1  0  0  0  0
 27 15  1  0  0  0  0
 28 26  2  0  0  0  0
 29 24  1  0  0  0  0
 11 22  2  0  0  0  0
  6 14  2  0  0  0  0
 24 28  1  0  0  0  0
M  CHG  2   1   1  16  -1
M  END
>  <IDNUMBER>
F2510-0140

>  <Chemical_Name>
6-{[(4-methylpyrimidin-2-yl)sulfanyl]methyl}-4-oxo-4H-pyran-3-yl 4-chloro-3-nitrobenzoate

>  <PriceCoeff>
1.00

>  <CAS>
877636-58-3

>  <MW>
433.82

>  <Description>
solid

>  <FSP3>
0.11

>  <clogP>
2.64

>  <TPSA>
146.82

>  <Acceptor>
8

>  <Donor>
0

>  <RotBonds>
7

>  <HAC>
29

>  <Collection>
General

>  <PPDS>
+

$$$$
F2510-0141
  Mrv2219 10102508112D          

 30 32  0  0  0  0            999 V2000
   -6.0152    5.5894    0.0000 N   0  3  0  0  0  0  0  0  0  0  0  0
   -5.8190    4.8005    0.0000 C   0  0  0  0  0  0  0  0  0  0  0  0
   -2.9888    2.5630    0.0000 C   0  0  0  0  0  0  0  0  0  0  0  0
    0.5302    1.7031    0.0000 C   0  0  0  0  0  0  0  0  0  0  0  0
   -2.2750    2.9888    0.0000 C   0  0  0  0  0  0  0  0  0  0  0  0
   -4.0031    3.5774    0.0000 C   0  0  0  0  0  0  0  0  0  0  0  0
   -1.5612    2.5630    0.0000 C   0  0  0  0  0  0  0  0  0  0  0  0
   -5.0175    4.5751    0.0000 C   0  0  0  0  0  0  0  0  0  0  0  0
   -3.7902    2.7801    0.0000 O   0  0  0  0  0  0  0  0  0  0  0  0
   -2.9888    1.7365    0.0000 C   0  0  0  0  0  0  0  0  0  0  0  0
    1.1062    2.2917    0.0000 N   0  0  0  0  0  0  0  0  0  0  0  0
    0.7431    0.9225    0.0000 N   0  0  0  0  0  0  0  0  0  0  0  0
   -4.7963    3.7902    0.0000 C   0  0  0  0  0  0  0  0  0  0  0  0
   -1.5612    1.7365    0.0000 C   0  0  0  0  0  0  0  0  0  0  0  0
   -2.2750    1.3274    0.0000 O   0  0  0  0  0  0  0  0  0  0  0  0
   -6.3909    4.1994    0.0000 C   0  0  0  0  0  0  0  0  0  0  0  0
   -5.4475    6.1780    0.0000 O   0  5  0  0  0  0  0  0  0  0  0  0
   -6.8167    5.8023    0.0000 O   0  0  0  0  0  0  0  0  0  0  0  0
   -0.2630    1.9118    0.0000 S   0  0  0  0  0  0  0  0  0  0  0  0
    1.5320    0.7096    0.0000 C   0  0  0  0  0  0  0  0  0  0  0  0
    1.8952    2.0871    0.0000 C   0  0  0  0  0  0  0  0  0  0  0  0
   -3.4146    4.1493    0.0000 O   0  0  0  0  0  0  0  0  0  0  0  0
    2.1206    1.2899    0.0000 C   0  0  0  0  0  0  0  0  0  0  0  0
   -2.2750    3.8070    0.0000 O   0  0  0  0  0  0  0  0  0  0  0  0
   -5.3807    3.2142    0.0000 C   0  0  0  0  0  0  0  0  0  0  0  0
   -6.1655    3.4146    0.0000 C   0  0  0  0  0  0  0  0  0  0  0  0
   -0.8474    1.3232    0.0000 C   0  0  0  0  0  0  0  0  0  0  0  0
   -7.1799    4.4123    0.0000 Cl  0  0  0  0  0  0  0  0  0  0  0  0
    2.4712    2.6757    0.0000 C   0  0  0  0  0  0  0  0  0  0  0  0
    1.7574   -0.0877    0.0000 C   0  0  0  0  0  0  0  0  0  0  0  0
  2  1  1  0  0  0  0
  3  9  1  0  0  0  0
  4 19  1  0  0  0  0
  5  3  1  0  0  0  0
  6 13  1  0  0  0  0
  7  5  1  0  0  0  0
  8  2  2  0  0  0  0
  9  6  1  0  0  0  0
 10  3  2  0  0  0  0
 11  4  2  0  0  0  0
 12  4  1  0  0  0  0
 13  8  1  0  0  0  0
 14 15  1  0  0  0  0
 15 10  1  0  0  0  0
 16  2  1  0  0  0  0
 17  1  1  0  0  0  0
 18  1  2  0  0  0  0
 19 27  1  0  0  0  0
 20 12  2  0  0  0  0
 21 11  1  0  0  0  0
 22  6  2  0  0  0  0
 23 20  1  0  0  0  0
 24  5  2  0  0  0  0
 25 26  1  0  0  0  0
 26 16  2  0  0  0  0
 27 14  1  0  0  0  0
 28 16  1  0  0  0  0
 29 21  1  0  0  0  0
 30 20  1  0  0  0  0
 13 25  2  0  0  0  0
  7 14  2  0  0  0  0
 21 23  2  0  0  0  0
M  CHG  2   1   1  17  -1
M  END
>  <IDNUMBER>
F2510-0141

>  <Chemical_Name>
6-{[(4,6-dimethylpyrimidin-2-yl)sulfanyl]methyl}-4-oxo-4H-pyran-3-yl 4-chloro-3-nitrobenzoate

>  <PriceCoeff>
1.00

>  <CAS>
877636-59-4

>  <MW>
447.85

>  <Description>
solid

>  <FSP3>
0.16

>  <clogP>
3.14

>  <TPSA>
146.82

>  <Acceptor>
8

>  <Donor>
0

>  <RotBonds>
7

>  <HAC>
30

>  <Collection>
General

>  <PPDS>
+

$$$$
F2510-0331
  Mrv2219 10102508112D          

 28 30  0  0  0  0            999 V2000
   -2.9881    2.5624    0.0000 C   0  0  0  0  0  0  0  0  0  0  0  0
   -4.0022    3.5765    0.0000 C   0  0  0  0  0  0  0  0  0  0  0  0
   -2.2744    2.9881    0.0000 C   0  0  0  0  0  0  0  0  0  0  0  0
   -1.5608    2.5624    0.0000 C   0  0  0  0  0  0  0  0  0  0  0  0
   -3.7893    2.7794    0.0000 O   0  0  0  0  0  0  0  0  0  0  0  0
   -4.8035    3.7893    0.0000 C   0  0  0  0  0  0  0  0  0  0  0  0
   -5.3919    3.2134    0.0000 C   0  0  0  0  0  0  0  0  0  0  0  0
   -2.9881    1.7361    0.0000 C   0  0  0  0  0  0  0  0  0  0  0  0
    0.5300    1.7027    0.0000 C   0  0  0  0  0  0  0  0  0  0  0  0
   -5.1791    2.4038    0.0000 C   0  0  0  0  0  0  0  0  0  0  0  0
   -2.2744    1.3271    0.0000 O   0  0  0  0  0  0  0  0  0  0  0  0
   -1.5608    1.7361    0.0000 C   0  0  0  0  0  0  0  0  0  0  0  0
    1.1143    2.2912    0.0000 N   0  0  0  0  0  0  0  0  0  0  0  0
    0.7429    0.9098    0.0000 N   0  0  0  0  0  0  0  0  0  0  0  0
   -0.2629    1.9114    0.0000 S   0  0  0  0  0  0  0  0  0  0  0  0
   -3.4137    4.1483    0.0000 O   0  0  0  0  0  0  0  0  0  0  0  0
   -2.2744    3.8061    0.0000 O   0  0  0  0  0  0  0  0  0  0  0  0
   -4.3778    2.1910    0.0000 O   0  0  0  0  0  0  0  0  0  0  0  0
   -0.8472    1.3229    0.0000 C   0  0  0  0  0  0  0  0  0  0  0  0
   -5.7592    1.8237    0.0000 O   0  0  0  0  0  0  0  0  0  0  0  0
    2.1284    1.2854    0.0000 C   0  0  0  0  0  0  0  0  0  0  0  0
   -5.0038    4.5740    0.0000 C   0  0  0  0  0  0  0  0  0  0  0  0
   -6.1766    3.4263    0.0000 C   0  0  0  0  0  0  0  0  0  0  0  0
    1.5400    0.6969    0.0000 C   0  0  0  0  0  0  0  0  0  0  0  0
    1.9072    2.0866    0.0000 C   0  0  0  0  0  0  0  0  0  0  0  0
   -6.5396    2.0491    0.0000 C   0  0  0  0  0  0  0  0  0  0  0  0
   -6.3769    4.2109    0.0000 C   0  0  0  0  0  0  0  0  0  0  0  0
   -5.7968    4.7868    0.0000 C   0  0  0  0  0  0  0  0  0  0  0  0
  2  5  1  0  0  0  0
  3  1  1  0  0  0  0
  4  3  1  0  0  0  0
  5  1  1  0  0  0  0
  6  2  1  0  0  0  0
  7  6  1  0  0  0  0
  8  1  2  0  0  0  0
  9 15  1  0  0  0  0
 10  7  1  0  0  0  0
 11  8  1  0  0  0  0
 12 11  1  0  0  0  0
 13  9  2  0  0  0  0
 14  9  1  0  0  0  0
 15 19  1  0  0  0  0
 16  2  2  0  0  0  0
 17  3  2  0  0  0  0
 18 10  2  0  0  0  0
 19 12  1  0  0  0  0
 20 10  1  0  0  0  0
 21 24  1  0  0  0  0
 22  6  2  0  0  0  0
 23  7  2  0  0  0  0
 24 14  2  0  0  0  0
 25 13  1  0  0  0  0
 26 20  1  0  0  0  0
 27 28  2  0  0  0  0
 28 22  1  0  0  0  0
 12  4  2  0  0  0  0
 23 27  1  0  0  0  0
 25 21  2  0  0  0  0
M  END
>  <IDNUMBER>
F2510-0331

>  <Chemical_Name>
1-methyl 2-{4-oxo-6-[(pyrimidin-2-ylsulfanyl)methyl]-4H-pyran-3-yl} benzene-1,2-dicarboxylate

>  <PriceCoeff>
1.00

>  <CAS>
877638-23-8

>  <MW>
398.39

>  <Description>
solid

>  <FSP3>
0.11

>  <clogP>
1.28

>  <TPSA>
129.98

>  <Acceptor>
8

>  <Donor>
0

>  <RotBonds>
8

>  <HAC>
28

>  <Collection>
General

>  <PPDS>
+

$$$$
F2510-0332
  Mrv2219 10102508112D          

 29 31  0  0  0  0            999 V2000
   -2.9940    2.5675    0.0000 C   0  0  0  0  0  0  0  0  0  0  0  0
   -4.0101    3.5836    0.0000 C   0  0  0  0  0  0  0  0  0  0  0  0
   -2.2789    2.9940    0.0000 C   0  0  0  0  0  0  0  0  0  0  0  0
   -1.5639    2.5675    0.0000 C   0  0  0  0  0  0  0  0  0  0  0  0
   -3.7968    2.7849    0.0000 O   0  0  0  0  0  0  0  0  0  0  0  0
   -4.8130    3.7968    0.0000 C   0  0  0  0  0  0  0  0  0  0  0  0
   -5.4026    3.2198    0.0000 C   0  0  0  0  0  0  0  0  0  0  0  0
    0.5311    1.7061    0.0000 C   0  0  0  0  0  0  0  0  0  0  0  0
   -2.9940    1.7395    0.0000 C   0  0  0  0  0  0  0  0  0  0  0  0
   -5.1893    2.4086    0.0000 C   0  0  0  0  0  0  0  0  0  0  0  0
    0.7444    0.9158    0.0000 N   0  0  0  0  0  0  0  0  0  0  0  0
   -1.5639    1.7395    0.0000 C   0  0  0  0  0  0  0  0  0  0  0  0
   -2.2789    1.3297    0.0000 O   0  0  0  0  0  0  0  0  0  0  0  0
    1.1165    2.2957    0.0000 N   0  0  0  0  0  0  0  0  0  0  0  0
   -0.2634    1.9151    0.0000 S   0  0  0  0  0  0  0  0  0  0  0  0
   -3.4205    4.1565    0.0000 O   0  0  0  0  0  0  0  0  0  0  0  0
   -2.2789    3.8136    0.0000 O   0  0  0  0  0  0  0  0  0  0  0  0
   -4.3864    2.1953    0.0000 O   0  0  0  0  0  0  0  0  0  0  0  0
    1.5430    0.7025    0.0000 C   0  0  0  0  0  0  0  0  0  0  0  0
   -0.8488    1.3255    0.0000 C   0  0  0  0  0  0  0  0  0  0  0  0
    1.9068    2.0908    0.0000 C   0  0  0  0  0  0  0  0  0  0  0  0
   -5.7706    1.8273    0.0000 O   0  0  0  0  0  0  0  0  0  0  0  0
    2.1243    1.2879    0.0000 C   0  0  0  0  0  0  0  0  0  0  0  0
   -5.0137    4.5830    0.0000 C   0  0  0  0  0  0  0  0  0  0  0  0
   -6.1888    3.4330    0.0000 C   0  0  0  0  0  0  0  0  0  0  0  0
    1.7605   -0.0920    0.0000 C   0  0  0  0  0  0  0  0  0  0  0  0
   -6.5526    2.0531    0.0000 C   0  0  0  0  0  0  0  0  0  0  0  0
   -5.8082    4.7963    0.0000 C   0  0  0  0  0  0  0  0  0  0  0  0
   -6.3895    4.2192    0.0000 C   0  0  0  0  0  0  0  0  0  0  0  0
  2  5  1  0  0  0  0
  3  1  1  0  0  0  0
  4  3  1  0  0  0  0
  5  1  1  0  0  0  0
  6  2  1  0  0  0  0
  7  6  1  0  0  0  0
  8 15  1  0  0  0  0
  9  1  2  0  0  0  0
 10  7  1  0  0  0  0
 11  8  1  0  0  0  0
 12 13  1  0  0  0  0
 13  9  1  0  0  0  0
 14  8  2  0  0  0  0
 15 20  1  0  0  0  0
 16  2  2  0  0  0  0
 17  3  2  0  0  0  0
 18 10  2  0  0  0  0
 19 11  2  0  0  0  0
 20 12  1  0  0  0  0
 21 14  1  0  0  0  0
 22 10  1  0  0  0  0
 23 21  2  0  0  0  0
 24  6  2  0  0  0  0
 25  7  2  0  0  0  0
 26 19  1  0  0  0  0
 27 22  1  0  0  0  0
 28 24  1  0  0  0  0
 29 28  2  0  0  0  0
  4 12  2  0  0  0  0
 25 29  1  0  0  0  0
 19 23  1  0  0  0  0
M  END
>  <IDNUMBER>
F2510-0332

>  <Chemical_Name>
1-methyl 2-(6-{[(4-methylpyrimidin-2-yl)sulfanyl]methyl}-4-oxo-4H-pyran-3-yl) benzene-1,2-dicarboxylate

>  <PriceCoeff>
1.00

>  <CAS>
877638-25-0

>  <MW>
412.42

>  <Description>
solid

>  <FSP3>
0.15

>  <clogP>
1.78

>  <TPSA>
129.98

>  <Acceptor>
8

>  <Donor>
0

>  <RotBonds>
8

>  <HAC>
29

>  <Collection>
General

>  <PPDS>
+

$$$$
F2515-0318
  Mrv2219 10102508112D          

 35 39  0  0  0  0            999 V2000
   -4.5632    2.1503    0.0000 C   0  0  0  0  0  0  0  0  0  0  0  0
   -3.8464    2.5587    0.0000 N   0  0  0  0  0  0  0  0  0  0  0  0
   -0.9834    3.3838    0.0000 N   0  0  0  0  0  0  0  0  0  0  0  0
   -4.6590    1.3252    0.0000 N   0  0  0  0  0  0  0  0  0  0  0  0
   -5.3217    2.4879    0.0000 S   0  0  0  0  0  0  0  0  0  0  0  0
   -3.8464    3.3963    0.0000 C   0  0  0  0  0  0  0  0  0  0  0  0
   -1.7003    3.8006    0.0000 C   0  0  0  0  0  0  0  0  0  0  0  0
   -5.8717    1.8710    0.0000 C   0  0  0  0  0  0  0  0  0  0  0  0
   -0.2209    3.6881    0.0000 C   0  0  0  0  0  0  0  0  0  0  0  0
   -0.9459    2.5587    0.0000 C   0  0  0  0  0  0  0  0  0  0  0  0
   -5.4592    1.1585    0.0000 C   0  0  0  0  0  0  0  0  0  0  0  0
   -3.1337    3.8006    0.0000 C   0  0  0  0  0  0  0  0  0  0  0  0
   -2.4212    3.3963    0.0000 C   0  0  0  0  0  0  0  0  0  0  0  0
   -3.1337    2.1461    0.0000 C   0  0  0  0  0  0  0  0  0  0  0  0
   -6.6928    1.8710    0.0000 C   0  0  0  0  0  0  0  0  0  0  0  0
   -4.5632    3.8006    0.0000 O   0  0  0  0  0  0  0  0  0  0  0  0
    0.3126    3.0588    0.0000 C   0  0  0  0  0  0  0  0  0  0  0  0
   -0.1208    2.3587    0.0000 C   0  0  0  0  0  0  0  0  0  0  0  0
    0.0000    4.4674    0.0000 O   0  0  0  0  0  0  0  0  0  0  0  0
   -1.5753    2.0378    0.0000 O   0  0  0  0  0  0  0  0  0  0  0  0
   -2.4212    0.0833    0.0000 N   0  0  0  0  0  0  0  0  0  0  0  0
   -5.8634    0.4459    0.0000 C   0  0  0  0  0  0  0  0  0  0  0  0
   -3.1337    1.3210    0.0000 C   0  0  0  0  0  0  0  0  0  0  0  0
   -7.1053    1.1502    0.0000 C   0  0  0  0  0  0  0  0  0  0  0  0
   -6.6803    0.4376    0.0000 C   0  0  0  0  0  0  0  0  0  0  0  0
   -1.6961    4.6174    0.0000 C   0  0  0  0  0  0  0  0  0  0  0  0
   -2.4212    0.9084    0.0000 C   0  0  0  0  0  0  0  0  0  0  0  0
   -3.1254    4.6299    0.0000 C   0  0  0  0  0  0  0  0  0  0  0  0
   -7.9180    1.1585    0.0000 O   0  0  0  0  0  0  0  0  0  0  0  0
   -2.4087    5.0300    0.0000 C   0  0  0  0  0  0  0  0  0  0  0  0
   -3.1337   -0.3293    0.0000 C   0  0  0  0  0  0  0  0  0  0  0  0
   -3.8506    0.9084    0.0000 C   0  0  0  0  0  0  0  0  0  0  0  0
   -8.3388    0.4334    0.0000 C   0  0  0  0  0  0  0  0  0  0  0  0
   -3.8506    0.0833    0.0000 C   0  0  0  0  0  0  0  0  0  0  0  0
   -7.9180   -0.2793    0.0000 C   0  0  0  0  0  0  0  0  0  0  0  0
  2  1  1  0  0  0  0
  3  7  1  0  0  0  0
  4  1  2  0  0  0  0
  5  1  1  0  0  0  0
  6  2  1  0  0  0  0
  7 13  1  0  0  0  0
  8  5  1  0  0  0  0
  9  3  1  0  0  0  0
 10  3  1  0  0  0  0
 11  4  1  0  0  0  0
 12  6  1  0  0  0  0
 13 12  2  0  0  0  0
 14  2  1  0  0  0  0
 15  8  1  0  0  0  0
 16  6  2  0  0  0  0
 17  9  1  0  0  0  0
 18 10  1  0  0  0  0
 19  9  2  0  0  0  0
 20 10  2  0  0  0  0
 21 27  2  0  0  0  0
 22 11  1  0  0  0  0
 23 14  1  0  0  0  0
 24 15  2  0  0  0  0
 25 22  2  0  0  0  0
 26 30  1  0  0  0  0
 27 23  1  0  0  0  0
 28 12  1  0  0  0  0
 29 24  1  0  0  0  0
 30 28  2  0  0  0  0
 31 34  2  0  0  0  0
 32 23  2  0  0  0  0
 33 29  1  0  0  0  0
 34 32  1  0  0  0  0
 35 33  1  0  0  0  0
  8 11  2  0  0  0  0
 25 24  1  0  0  0  0
 31 21  1  0  0  0  0
  7 26  2  0  0  0  0
 18 17  1  0  0  0  0
M  END
>  <IDNUMBER>
F2515-0318

>  <Chemical_Name>
3-(2,5-dioxopyrrolidin-1-yl)-N-(6-ethoxy-1,3-benzothiazol-2-yl)-N-[(pyridin-3-yl)methyl]benzamide

>  <PriceCoeff>
1.00

>  <CAS>
895015-86-8

>  <MW>
486.54

>  <Description>
solid

>  <FSP3>
0.19

>  <clogP>
2.63

>  <TPSA>
120.94

>  <Acceptor>
6

>  <Donor>
1

>  <RotBonds>
8

>  <HAC>
35

>  <Collection>
General

>  <PPDS>
+

$$$$
F2515-0606
  Mrv2219 10102508112D          

 28 31  0  0  0  0            999 V2000
   -4.5625    2.1500    0.0000 C   0  0  0  0  0  0  0  0  0  0  0  0
   -3.1333    4.6292    0.0000 N   0  0  0  0  0  0  0  0  0  0  0  0
   -3.8458    2.5583    0.0000 N   0  0  0  0  0  0  0  0  0  0  0  0
   -4.6583    1.3250    0.0000 N   0  0  0  0  0  0  0  0  0  0  0  0
   -5.3208    2.4875    0.0000 S   0  0  0  0  0  0  0  0  0  0  0  0
   -3.8458    3.3958    0.0000 C   0  0  0  0  0  0  0  0  0  0  0  0
   -3.1333    3.8000    0.0000 C   0  0  0  0  0  0  0  0  0  0  0  0
   -3.8000    5.1042    0.0000 C   0  0  0  0  0  0  0  0  0  0  0  0
   -2.4625    5.1042    0.0000 C   0  0  0  0  0  0  0  0  0  0  0  0
   -5.8708    1.8708    0.0000 C   0  0  0  0  0  0  0  0  0  0  0  0
   -5.4708    1.1583    0.0000 C   0  0  0  0  0  0  0  0  0  0  0  0
   -3.1333    2.1458    0.0000 C   0  0  0  0  0  0  0  0  0  0  0  0
   -6.6875    1.8833    0.0000 C   0  0  0  0  0  0  0  0  0  0  0  0
   -4.5625    3.8000    0.0000 O   0  0  0  0  0  0  0  0  0  0  0  0
   -3.5458    5.8917    0.0000 C   0  0  0  0  0  0  0  0  0  0  0  0
   -2.7208    5.8917    0.0000 C   0  0  0  0  0  0  0  0  0  0  0  0
   -4.5833    4.8667    0.0000 O   0  0  0  0  0  0  0  0  0  0  0  0
   -1.6750    4.8417    0.0000 O   0  0  0  0  0  0  0  0  0  0  0  0
   -2.4208    0.0833    0.0000 N   0  0  0  0  0  0  0  0  0  0  0  0
   -5.8750    0.4500    0.0000 C   0  0  0  0  0  0  0  0  0  0  0  0
   -3.1333    1.3208    0.0000 C   0  0  0  0  0  0  0  0  0  0  0  0
   -7.1042    1.1708    0.0000 C   0  0  0  0  0  0  0  0  0  0  0  0
   -6.6917    0.4583    0.0000 C   0  0  0  0  0  0  0  0  0  0  0  0
   -7.9292    1.1708    0.0000 Cl  0  0  0  0  0  0  0  0  0  0  0  0
   -2.4208    0.9083    0.0000 C   0  0  0  0  0  0  0  0  0  0  0  0
   -3.1333   -0.3292    0.0000 C   0  0  0  0  0  0  0  0  0  0  0  0
   -3.8500    0.9083    0.0000 C   0  0  0  0  0  0  0  0  0  0  0  0
   -3.8500    0.0833    0.0000 C   0  0  0  0  0  0  0  0  0  0  0  0
  2  7  1  0  0  0  0
  3  1  1  0  0  0  0
  4  1  2  0  0  0  0
  5  1  1  0  0  0  0
  6  3  1  0  0  0  0
  7  6  1  0  0  0  0
  8  2  1  0  0  0  0
  9  2  1  0  0  0  0
 10  5  1  0  0  0  0
 11  4  1  0  0  0  0
 12  3  1  0  0  0  0
 13 10  1  0  0  0  0
 14  6  2  0  0  0  0
 15  8  1  0  0  0  0
 16  9  1  0  0  0  0
 17  8  2  0  0  0  0
 18  9  2  0  0  0  0
 19 25  2  0  0  0  0
 20 11  1  0  0  0  0
 21 12  1  0  0  0  0
 22 13  2  0  0  0  0
 23 20  2  0  0  0  0
 24 22  1  0  0  0  0
 25 21  1  0  0  0  0
 26 28  2  0  0  0  0
 27 21  2  0  0  0  0
 28 27  1  0  0  0  0
 10 11  2  0  0  0  0
 23 22  1  0  0  0  0
 19 26  1  0  0  0  0
 15 16  1  0  0  0  0
M  END
>  <IDNUMBER>
F2515-0606

>  <Chemical_Name>
N-(6-chloro-1,3-benzothiazol-2-yl)-2-(2,5-dioxopyrrolidin-1-yl)-N-[(pyridin-3-yl)methyl]acetamide

>  <PriceCoeff>
1.00

>  <CAS>
895023-86-6

>  <MW>
414.87

>  <Description>
solid

>  <FSP3>
0.21

>  <clogP>
1.70

>  <TPSA>
111.71

>  <Acceptor>
5

>  <Donor>
1

>  <RotBonds>
6

>  <HAC>
28

>  <Collection>
General

>  <PPDS>
+

$$$$
F2515-0826
  Mrv2219 10102508112D          

 34 38  0  0  0  0            999 V2000
   -4.5631    2.1503    0.0000 C   0  0  0  0  0  0  0  0  0  0  0  0
   -3.8463    2.5586    0.0000 N   0  0  0  0  0  0  0  0  0  0  0  0
   -0.9834    3.3837    0.0000 N   0  0  0  0  0  0  0  0  0  0  0  0
   -4.6589    1.3252    0.0000 N   0  0  0  0  0  0  0  0  0  0  0  0
   -5.3215    2.4878    0.0000 S   0  0  0  0  0  0  0  0  0  0  0  0
   -3.8463    3.3962    0.0000 C   0  0  0  0  0  0  0  0  0  0  0  0
   -1.7002    3.8005    0.0000 C   0  0  0  0  0  0  0  0  0  0  0  0
   -0.2209    3.6880    0.0000 C   0  0  0  0  0  0  0  0  0  0  0  0
   -0.9459    2.5586    0.0000 C   0  0  0  0  0  0  0  0  0  0  0  0
   -5.8758    1.8710    0.0000 C   0  0  0  0  0  0  0  0  0  0  0  0
   -5.4590    1.1585    0.0000 C   0  0  0  0  0  0  0  0  0  0  0  0
   -3.1337    3.8005    0.0000 C   0  0  0  0  0  0  0  0  0  0  0  0
   -2.4211    3.3962    0.0000 C   0  0  0  0  0  0  0  0  0  0  0  0
   -3.1337    2.1461    0.0000 C   0  0  0  0  0  0  0  0  0  0  0  0
   -4.5631    3.8005    0.0000 O   0  0  0  0  0  0  0  0  0  0  0  0
   -6.6926    1.8710    0.0000 C   0  0  0  0  0  0  0  0  0  0  0  0
    0.3126    3.0587    0.0000 C   0  0  0  0  0  0  0  0  0  0  0  0
   -0.1208    2.3587    0.0000 C   0  0  0  0  0  0  0  0  0  0  0  0
    0.0000    4.4673    0.0000 O   0  0  0  0  0  0  0  0  0  0  0  0
   -1.5752    2.0378    0.0000 O   0  0  0  0  0  0  0  0  0  0  0  0
   -2.4211    0.0833    0.0000 N   0  0  0  0  0  0  0  0  0  0  0  0
   -5.8716    0.4459    0.0000 C   0  0  0  0  0  0  0  0  0  0  0  0
   -3.1337    1.3210    0.0000 C   0  0  0  0  0  0  0  0  0  0  0  0
   -7.1052    1.1502    0.0000 C   0  0  0  0  0  0  0  0  0  0  0  0
   -6.6801    0.4459    0.0000 C   0  0  0  0  0  0  0  0  0  0  0  0
   -1.6960    4.6173    0.0000 C   0  0  0  0  0  0  0  0  0  0  0  0
   -2.4211    0.9084    0.0000 C   0  0  0  0  0  0  0  0  0  0  0  0
   -3.1254    4.6298    0.0000 C   0  0  0  0  0  0  0  0  0  0  0  0
   -2.4086    5.0299    0.0000 C   0  0  0  0  0  0  0  0  0  0  0  0
   -3.1337   -0.3293    0.0000 C   0  0  0  0  0  0  0  0  0  0  0  0
   -3.8505    0.9084    0.0000 C   0  0  0  0  0  0  0  0  0  0  0  0
   -7.9303    1.1502    0.0000 C   0  0  0  0  0  0  0  0  0  0  0  0
   -3.8505    0.0833    0.0000 C   0  0  0  0  0  0  0  0  0  0  0  0
   -8.3428    1.8710    0.0000 C   0  0  0  0  0  0  0  0  0  0  0  0
  2  1  1  0  0  0  0
  3  7  1  0  0  0  0
  4  1  2  0  0  0  0
  5  1  1  0  0  0  0
  6  2  1  0  0  0  0
  7 13  1  0  0  0  0
  8  3  1  0  0  0  0
  9  3  1  0  0  0  0
 10  5  1  0  0  0  0
 11  4  1  0  0  0  0
 12  6  1  0  0  0  0
 13 12  2  0  0  0  0
 14  2  1  0  0  0  0
 15  6  2  0  0  0  0
 16 10  1  0  0  0  0
 17  8  1  0  0  0  0
 18  9  1  0  0  0  0
 19  8  2  0  0  0  0
 20  9  2  0  0  0  0
 21 27  2  0  0  0  0
 22 11  1  0  0  0  0
 23 14  1  0  0  0  0
 24 16  2  0  0  0  0
 25 22  2  0  0  0  0
 26 29  1  0  0  0  0
 27 23  1  0  0  0  0
 28 12  1  0  0  0  0
 29 28  2  0  0  0  0
 30 33  2  0  0  0  0
 31 23  2  0  0  0  0
 32 24  1  0  0  0  0
 33 31  1  0  0  0  0
 34 32  1  0  0  0  0
 10 11  2  0  0  0  0
 25 24  1  0  0  0  0
 30 21  1  0  0  0  0
  7 26  2  0  0  0  0
 18 17  1  0  0  0  0
M  END
>  <IDNUMBER>
F2515-0826

>  <Chemical_Name>
3-(2,5-dioxopyrrolidin-1-yl)-N-(6-ethyl-1,3-benzothiazol-2-yl)-N-[(pyridin-3-yl)methyl]benzamide

>  <PriceCoeff>
1.00

>  <CAS>
894996-17-9

>  <MW>
470.54

>  <Description>
solid

>  <FSP3>
0.19

>  <clogP>
2.83

>  <TPSA>
111.71

>  <Acceptor>
5

>  <Donor>
1

>  <RotBonds>
7

>  <HAC>
34

>  <Collection>
General

>  <PPDS>
+

$$$$
F2515-0860
  Mrv2219 10102508112D          

 29 32  0  0  0  0            999 V2000
   -4.5625    2.1500    0.0000 C   0  0  0  0  0  0  0  0  0  0  0  0
   -3.1333    4.6292    0.0000 N   0  0  0  0  0  0  0  0  0  0  0  0
   -3.8458    2.5583    0.0000 N   0  0  0  0  0  0  0  0  0  0  0  0
   -4.6583    1.3250    0.0000 N   0  0  0  0  0  0  0  0  0  0  0  0
   -5.3208    2.4875    0.0000 S   0  0  0  0  0  0  0  0  0  0  0  0
   -3.8458    3.3958    0.0000 C   0  0  0  0  0  0  0  0  0  0  0  0
   -3.1333    3.8000    0.0000 C   0  0  0  0  0  0  0  0  0  0  0  0
   -3.8000    5.1042    0.0000 C   0  0  0  0  0  0  0  0  0  0  0  0
   -2.4625    5.1042    0.0000 C   0  0  0  0  0  0  0  0  0  0  0  0
   -5.8750    1.8708    0.0000 C   0  0  0  0  0  0  0  0  0  0  0  0
   -5.4583    1.1583    0.0000 C   0  0  0  0  0  0  0  0  0  0  0  0
   -3.1333    2.1458    0.0000 C   0  0  0  0  0  0  0  0  0  0  0  0
   -4.5625    3.8000    0.0000 O   0  0  0  0  0  0  0  0  0  0  0  0
   -6.6917    1.8708    0.0000 C   0  0  0  0  0  0  0  0  0  0  0  0
   -3.5458    5.8917    0.0000 C   0  0  0  0  0  0  0  0  0  0  0  0
   -2.7208    5.8917    0.0000 C   0  0  0  0  0  0  0  0  0  0  0  0
   -4.5833    4.8667    0.0000 O   0  0  0  0  0  0  0  0  0  0  0  0
   -1.6750    4.8417    0.0000 O   0  0  0  0  0  0  0  0  0  0  0  0
   -2.4208    0.0833    0.0000 N   0  0  0  0  0  0  0  0  0  0  0  0
   -5.8708    0.4458    0.0000 C   0  0  0  0  0  0  0  0  0  0  0  0
   -3.1333    1.3208    0.0000 C   0  0  0  0  0  0  0  0  0  0  0  0
   -7.1042    1.1500    0.0000 C   0  0  0  0  0  0  0  0  0  0  0  0
   -6.6792    0.4458    0.0000 C   0  0  0  0  0  0  0  0  0  0  0  0
   -2.4208    0.9083    0.0000 C   0  0  0  0  0  0  0  0  0  0  0  0
   -3.1333   -0.3292    0.0000 C   0  0  0  0  0  0  0  0  0  0  0  0
   -3.8500    0.9083    0.0000 C   0  0  0  0  0  0  0  0  0  0  0  0
   -7.9292    1.1500    0.0000 C   0  0  0  0  0  0  0  0  0  0  0  0
   -3.8500    0.0833    0.0000 C   0  0  0  0  0  0  0  0  0  0  0  0
   -8.3417    1.8708    0.0000 C   0  0  0  0  0  0  0  0  0  0  0  0
  2  7  1  0  0  0  0
  3  1  1  0  0  0  0
  4  1  2  0  0  0  0
  5  1  1  0  0  0  0
  6  3  1  0  0  0  0
  7  6  1  0  0  0  0
  8  2  1  0  0  0  0
  9  2  1  0  0  0  0
 10  5  1  0  0  0  0
 11  4  1  0  0  0  0
 12  3  1  0  0  0  0
 13  6  2  0  0  0  0
 14 10  1  0  0  0  0
 15  8  1  0  0  0  0
 16  9  1  0  0  0  0
 17  8  2  0  0  0  0
 18  9  2  0  0  0  0
 19 24  2  0  0  0  0
 20 11  1  0  0  0  0
 21 12  1  0  0  0  0
 22 14  2  0  0  0  0
 23 20  2  0  0  0  0
 24 21  1  0  0  0  0
 25 28  2  0  0  0  0
 26 21  2  0  0  0  0
 27 22  1  0  0  0  0
 28 26  1  0  0  0  0
 29 27  1  0  0  0  0
 10 11  2  0  0  0  0
 23 22  1  0  0  0  0
 19 25  1  0  0  0  0
 15 16  1  0  0  0  0
M  END
>  <IDNUMBER>
F2515-0860

>  <Chemical_Name>
2-(2,5-dioxopyrrolidin-1-yl)-N-(6-ethyl-1,3-benzothiazol-2-yl)-N-[(pyridin-3-yl)methyl]acetamide

>  <PriceCoeff>
1.00

>  <CAS>
894996-65-7

>  <MW>
408.47

>  <Description>
solid

>  <FSP3>
0.29

>  <clogP>
1.99

>  <TPSA>
111.71

>  <Acceptor>
5

>  <Donor>
1

>  <RotBonds>
7

>  <HAC>
29

>  <Collection>
General

>  <PPDS>
+

$$$$
F2515-1114
  Mrv2219 10102508112D          

 29 32  0  0  0  0            999 V2000
   -4.5661    2.1517    0.0000 C   0  0  0  0  0  0  0  0  0  0  0  0
   -4.6620    1.3260    0.0000 N   0  0  0  0  0  0  0  0  0  0  0  0
   -3.1358    4.6329    0.0000 N   0  0  0  0  0  0  0  0  0  0  0  0
   -3.8488    2.5603    0.0000 N   0  0  0  0  0  0  0  0  0  0  0  0
   -5.3250    2.4895    0.0000 S   0  0  0  0  0  0  0  0  0  0  0  0
   -5.4626    1.1592    0.0000 C   0  0  0  0  0  0  0  0  0  0  0  0
   -3.8488    3.3985    0.0000 C   0  0  0  0  0  0  0  0  0  0  0  0
   -3.1358    3.8030    0.0000 C   0  0  0  0  0  0  0  0  0  0  0  0
   -3.8030    5.1082    0.0000 C   0  0  0  0  0  0  0  0  0  0  0  0
   -2.4644    5.1082    0.0000 C   0  0  0  0  0  0  0  0  0  0  0  0
   -5.8754    1.8723    0.0000 C   0  0  0  0  0  0  0  0  0  0  0  0
   -3.1358    2.1475    0.0000 C   0  0  0  0  0  0  0  0  0  0  0  0
   -5.8671    0.4462    0.0000 C   0  0  0  0  0  0  0  0  0  0  0  0
   -4.5661    3.8030    0.0000 O   0  0  0  0  0  0  0  0  0  0  0  0
   -3.5486    5.8963    0.0000 C   0  0  0  0  0  0  0  0  0  0  0  0
   -2.7229    5.8963    0.0000 C   0  0  0  0  0  0  0  0  0  0  0  0
   -4.5869    4.8705    0.0000 O   0  0  0  0  0  0  0  0  0  0  0  0
   -1.6763    4.8455    0.0000 O   0  0  0  0  0  0  0  0  0  0  0  0
   -2.4227    0.0834    0.0000 N   0  0  0  0  0  0  0  0  0  0  0  0
   -3.1358    1.3218    0.0000 C   0  0  0  0  0  0  0  0  0  0  0  0
   -5.4626   -0.2669    0.0000 O   0  0  0  0  0  0  0  0  0  0  0  0
   -6.6970    1.8723    0.0000 C   0  0  0  0  0  0  0  0  0  0  0  0
   -2.4227    0.9090    0.0000 C   0  0  0  0  0  0  0  0  0  0  0  0
   -7.0973    1.1509    0.0000 C   0  0  0  0  0  0  0  0  0  0  0  0
   -6.6845    0.4378    0.0000 C   0  0  0  0  0  0  0  0  0  0  0  0
   -3.1358   -0.3295    0.0000 C   0  0  0  0  0  0  0  0  0  0  0  0
   -3.8530    0.9090    0.0000 C   0  0  0  0  0  0  0  0  0  0  0  0
   -4.6370   -0.2669    0.0000 C   0  0  0  0  0  0  0  0  0  0  0  0
   -3.8530    0.0834    0.0000 C   0  0  0  0  0  0  0  0  0  0  0  0
  2  1  2  0  0  0  0
  3  8  1  0  0  0  0
  4  1  1  0  0  0  0
  5  1  1  0  0  0  0
  6  2  1  0  0  0  0
  7  4  1  0  0  0  0
  8  7  1  0  0  0  0
  9  3  1  0  0  0  0
 10  3  1  0  0  0  0
 11  5  1  0  0  0  0
 12  4  1  0  0  0  0
 13  6  1  0  0  0  0
 14  7  2  0  0  0  0
 15  9  1  0  0  0  0
 16 10  1  0  0  0  0
 17  9  2  0  0  0  0
 18 10  2  0  0  0  0
 19 23  2  0  0  0  0
 20 12  1  0  0  0  0
 21 13  1  0  0  0  0
 22 11  1  0  0  0  0
 23 20  1  0  0  0  0
 24 22  2  0  0  0  0
 25 13  2  0  0  0  0
 26 29  2  0  0  0  0
 27 20  2  0  0  0  0
 28 21  1  0  0  0  0
 29 27  1  0  0  0  0
 11  6  2  0  0  0  0
 25 24  1  0  0  0  0
 19 26  1  0  0  0  0
 15 16  1  0  0  0  0
M  END
>  <IDNUMBER>
F2515-1114

>  <Chemical_Name>
2-(2,5-dioxopyrrolidin-1-yl)-N-(4-methoxy-1,3-benzothiazol-2-yl)-N-[(pyridin-3-yl)methyl]acetamide

>  <PriceCoeff>
1.00

>  <CAS>
895005-78-4

>  <MW>
410.45

>  <Description>
solid

>  <FSP3>
0.25

>  <clogP>
1.26

>  <TPSA>
120.94

>  <Acceptor>
6

>  <Donor>
1

>  <RotBonds>
7

>  <HAC>
29

>  <Collection>
General

>  <PPDS>
+

$$$$
F2515-1571
  Mrv2219 10102508112D          

 35 40  0  0  0  0            999 V2000
   -4.5720    2.1545    0.0000 C   0  0  0  0  0  0  0  0  0  0  0  0
   -3.8538    2.5636    0.0000 N   0  0  0  0  0  0  0  0  0  0  0  0
   -4.6680    1.3277    0.0000 N   0  0  0  0  0  0  0  0  0  0  0  0
   -0.9728    5.0271    0.0000 N   0  0  0  0  0  0  0  0  0  0  0  0
   -5.3318    2.4927    0.0000 S   0  0  0  0  0  0  0  0  0  0  0  0
   -3.8538    3.4028    0.0000 C   0  0  0  0  0  0  0  0  0  0  0  0
   -5.4696    1.1607    0.0000 C   0  0  0  0  0  0  0  0  0  0  0  0
   -5.8872    1.8747    0.0000 C   0  0  0  0  0  0  0  0  0  0  0  0
   -0.9144    5.8538    0.0000 C   0  0  0  0  0  0  0  0  0  0  0  0
   -0.2129    4.7265    0.0000 C   0  0  0  0  0  0  0  0  0  0  0  0
   -5.8830    0.4467    0.0000 C   0  0  0  0  0  0  0  0  0  0  0  0
   -6.7056    1.8747    0.0000 C   0  0  0  0  0  0  0  0  0  0  0  0
   -7.1189    1.1482    0.0000 C   0  0  0  0  0  0  0  0  0  0  0  0
   -6.6930    0.4467    0.0000 C   0  0  0  0  0  0  0  0  0  0  0  0
   -3.1398    2.1502    0.0000 C   0  0  0  0  0  0  0  0  0  0  0  0
   -1.6993    4.6137    0.0000 C   0  0  0  0  0  0  0  0  0  0  0  0
   -3.1398    3.8079    0.0000 C   0  0  0  0  0  0  0  0  0  0  0  0
   -7.2442   -0.1796    0.0000 O   0  0  0  0  0  0  0  0  0  0  0  0
   -7.9206    0.9770    0.0000 O   0  0  0  0  0  0  0  0  0  0  0  0
   -4.5720    3.8079    0.0000 O   0  0  0  0  0  0  0  0  0  0  0  0
   -8.0083    0.1586    0.0000 C   0  0  0  0  0  0  0  0  0  0  0  0
   -0.1085    6.0542    0.0000 C   0  0  0  0  0  0  0  0  0  0  0  0
    0.3174    5.3528    0.0000 C   0  0  0  0  0  0  0  0  0  0  0  0
   -1.5615    6.4049    0.0000 O   0  0  0  0  0  0  0  0  0  0  0  0
   -0.0083    3.9289    0.0000 O   0  0  0  0  0  0  0  0  0  0  0  0
   -2.4258    0.0835    0.0000 N   0  0  0  0  0  0  0  0  0  0  0  0
   -3.1398    1.3235    0.0000 C   0  0  0  0  0  0  0  0  0  0  0  0
   -2.4175    5.0396    0.0000 C   0  0  0  0  0  0  0  0  0  0  0  0
   -1.7118    3.8079    0.0000 C   0  0  0  0  0  0  0  0  0  0  0  0
   -2.4258    3.4028    0.0000 C   0  0  0  0  0  0  0  0  0  0  0  0
   -3.1315    4.6388    0.0000 C   0  0  0  0  0  0  0  0  0  0  0  0
   -2.4258    0.9102    0.0000 C   0  0  0  0  0  0  0  0  0  0  0  0
   -3.1398   -0.3299    0.0000 C   0  0  0  0  0  0  0  0  0  0  0  0
   -3.8580    0.9102    0.0000 C   0  0  0  0  0  0  0  0  0  0  0  0
   -3.8580    0.0835    0.0000 C   0  0  0  0  0  0  0  0  0  0  0  0
  2  1  1  0  0  0  0
  3  1  2  0  0  0  0
  4 16  1  0  0  0  0
  5  1  1  0  0  0  0
  6  2  1  0  0  0  0
  7  3  1  0  0  0  0
  8  5  1  0  0  0  0
  9  4  1  0  0  0  0
 10  4  1  0  0  0  0
 11  7  1  0  0  0  0
 12  8  1  0  0  0  0
 13 12  2  0  0  0  0
 14 11  2  0  0  0  0
 15  2  1  0  0  0  0
 16 28  1  0  0  0  0
 17  6  1  0  0  0  0
 18 14  1  0  0  0  0
 19 13  1  0  0  0  0
 20  6  2  0  0  0  0
 21 19  1  0  0  0  0
 22  9  1  0  0  0  0
 23 10  1  0  0  0  0
 24  9  2  0  0  0  0
 25 10  2  0  0  0  0
 26 32  2  0  0  0  0
 27 15  1  0  0  0  0
 28 31  2  0  0  0  0
 29 30  1  0  0  0  0
 30 17  2  0  0  0  0
 31 17  1  0  0  0  0
 32 27  1  0  0  0  0
 33 35  2  0  0  0  0
 34 27  2  0  0  0  0
 35 34  1  0  0  0  0
  8  7  2  0  0  0  0
 13 14  1  0  0  0  0
 16 29  2  0  0  0  0
 18 21  1  0  0  0  0
 33 26  1  0  0  0  0
 23 22  1  0  0  0  0
M  END
>  <IDNUMBER>
F2515-1571

>  <Chemical_Name>
N-{4,6-dioxa-10-thia-12-azatricyclo[7.3.0.0?,?]dodeca-1,3(7),8,11-tetraen-11-yl}-4-(2,5-dioxopyrrolidin-1-yl)-N-[(pyridin-3-yl)methyl]benzamide

>  <PriceCoeff>
1.00

>  <CAS>
895019-73-5

>  <MW>
486.50

>  <Description>
solid

>  <FSP3>
0.16

>  <clogP>
2.36

>  <TPSA>
130.17

>  <Acceptor>
7

>  <Donor>
1

>  <RotBonds>
6

>  <HAC>
35

>  <Collection>
General

>  <PPDS>
+

$$$$
F2515-1588
  Mrv2219 10102508112D          

 35 40  0  0  0  0            999 V2000
   -4.5720    2.1545    0.0000 C   0  0  0  0  0  0  0  0  0  0  0  0
   -3.8538    2.5636    0.0000 N   0  0  0  0  0  0  0  0  0  0  0  0
   -4.6680    1.3277    0.0000 N   0  0  0  0  0  0  0  0  0  0  0  0
   -0.9853    3.3903    0.0000 N   0  0  0  0  0  0  0  0  0  0  0  0
   -5.3318    2.4927    0.0000 S   0  0  0  0  0  0  0  0  0  0  0  0
   -3.8538    3.4028    0.0000 C   0  0  0  0  0  0  0  0  0  0  0  0
   -5.4696    1.1607    0.0000 C   0  0  0  0  0  0  0  0  0  0  0  0
   -5.8872    1.8747    0.0000 C   0  0  0  0  0  0  0  0  0  0  0  0
   -1.7035    3.8079    0.0000 C   0  0  0  0  0  0  0  0  0  0  0  0
   -0.2213    3.6951    0.0000 C   0  0  0  0  0  0  0  0  0  0  0  0
   -0.9478    2.5636    0.0000 C   0  0  0  0  0  0  0  0  0  0  0  0
   -3.1398    3.8079    0.0000 C   0  0  0  0  0  0  0  0  0  0  0  0
   -5.8830    0.4467    0.0000 C   0  0  0  0  0  0  0  0  0  0  0  0
   -6.7056    1.8747    0.0000 C   0  0  0  0  0  0  0  0  0  0  0  0
   -7.1189    1.1482    0.0000 C   0  0  0  0  0  0  0  0  0  0  0  0
   -6.6930    0.4467    0.0000 C   0  0  0  0  0  0  0  0  0  0  0  0
   -2.4258    3.4028    0.0000 C   0  0  0  0  0  0  0  0  0  0  0  0
   -3.1398    2.1502    0.0000 C   0  0  0  0  0  0  0  0  0  0  0  0
   -7.9206    0.9770    0.0000 O   0  0  0  0  0  0  0  0  0  0  0  0
   -7.2442   -0.1796    0.0000 O   0  0  0  0  0  0  0  0  0  0  0  0
   -4.5720    3.8079    0.0000 O   0  0  0  0  0  0  0  0  0  0  0  0
   -8.0083    0.1586    0.0000 C   0  0  0  0  0  0  0  0  0  0  0  0
    0.3131    3.0646    0.0000 C   0  0  0  0  0  0  0  0  0  0  0  0
   -0.1211    2.3632    0.0000 C   0  0  0  0  0  0  0  0  0  0  0  0
    0.0000    4.4760    0.0000 O   0  0  0  0  0  0  0  0  0  0  0  0
   -1.5783    2.0417    0.0000 O   0  0  0  0  0  0  0  0  0  0  0  0
   -2.4258    0.0835    0.0000 N   0  0  0  0  0  0  0  0  0  0  0  0
   -3.1398    1.3235    0.0000 C   0  0  0  0  0  0  0  0  0  0  0  0
   -1.6993    4.6263    0.0000 C   0  0  0  0  0  0  0  0  0  0  0  0
   -2.4258    0.9102    0.0000 C   0  0  0  0  0  0  0  0  0  0  0  0
   -3.1315    4.6388    0.0000 C   0  0  0  0  0  0  0  0  0  0  0  0
   -2.4133    5.0396    0.0000 C   0  0  0  0  0  0  0  0  0  0  0  0
   -3.1398   -0.3299    0.0000 C   0  0  0  0  0  0  0  0  0  0  0  0
   -3.8580    0.9102    0.0000 C   0  0  0  0  0  0  0  0  0  0  0  0
   -3.8580    0.0835    0.0000 C   0  0  0  0  0  0  0  0  0  0  0  0
  2  1  1  0  0  0  0
  3  1  2  0  0  0  0
  4  9  1  0  0  0  0
  5  1  1  0  0  0  0
  6  2  1  0  0  0  0
  7  3  1  0  0  0  0
  8  5  1  0  0  0  0
  9 17  1  0  0  0  0
 10  4  1  0  0  0  0
 11  4  1  0  0  0  0
 12  6  1  0  0  0  0
 13  7  1  0  0  0  0
 14  8  1  0  0  0  0
 15 14  2  0  0  0  0
 16 13  2  0  0  0  0
 17 12  2  0  0  0  0
 18  2  1  0  0  0  0
 19 15  1  0  0  0  0
 20 16  1  0  0  0  0
 21  6  2  0  0  0  0
 22 19  1  0  0  0  0
 23 10  1  0  0  0  0
 24 11  1  0  0  0  0
 25 10  2  0  0  0  0
 26 11  2  0  0  0  0
 27 30  2  0  0  0  0
 28 18  1  0  0  0  0
 29 32  1  0  0  0  0
 30 28  1  0  0  0  0
 31 12  1  0  0  0  0
 32 31  2  0  0  0  0
 33 35  2  0  0  0  0
 34 28  2  0  0  0  0
 35 34  1  0  0  0  0
  8  7  2  0  0  0  0
 15 16  1  0  0  0  0
 20 22  1  0  0  0  0
 33 27  1  0  0  0  0
  9 29  2  0  0  0  0
 24 23  1  0  0  0  0
M  END
>  <IDNUMBER>
F2515-1588

>  <Chemical_Name>
N-{4,6-dioxa-10-thia-12-azatricyclo[7.3.0.0?,?]dodeca-1,3(7),8,11-tetraen-11-yl}-3-(2,5-dioxopyrrolidin-1-yl)-N-[(pyridin-3-yl)methyl]benzamide

>  <PriceCoeff>
1.00

>  <CAS>
895020-22-1

>  <MW>
486.50

>  <Description>
solid

>  <FSP3>
0.16

>  <clogP>
2.36

>  <TPSA>
130.17

>  <Acceptor>
7

>  <Donor>
1

>  <RotBonds>
6

>  <HAC>
35

>  <Collection>
General

>  <PPDS>
+

$$$$
F2515-1622
  Mrv2219 10102508112D          

 30 34  0  0  0  0            999 V2000
   -4.5625    2.1500    0.0000 C   0  0  0  0  0  0  0  0  0  0  0  0
   -3.1333    4.6292    0.0000 N   0  0  0  0  0  0  0  0  0  0  0  0
   -3.8458    2.5583    0.0000 N   0  0  0  0  0  0  0  0  0  0  0  0
   -4.6583    1.3250    0.0000 N   0  0  0  0  0  0  0  0  0  0  0  0
   -5.3208    2.4875    0.0000 S   0  0  0  0  0  0  0  0  0  0  0  0
   -3.8458    3.3958    0.0000 C   0  0  0  0  0  0  0  0  0  0  0  0
   -5.4583    1.1583    0.0000 C   0  0  0  0  0  0  0  0  0  0  0  0
   -3.1333    3.8000    0.0000 C   0  0  0  0  0  0  0  0  0  0  0  0
   -5.8750    1.8708    0.0000 C   0  0  0  0  0  0  0  0  0  0  0  0
   -3.8000    5.1042    0.0000 C   0  0  0  0  0  0  0  0  0  0  0  0
   -2.4625    5.1042    0.0000 C   0  0  0  0  0  0  0  0  0  0  0  0
   -5.8708    0.4458    0.0000 C   0  0  0  0  0  0  0  0  0  0  0  0
   -6.6917    1.8708    0.0000 C   0  0  0  0  0  0  0  0  0  0  0  0
   -6.6792    0.4458    0.0000 C   0  0  0  0  0  0  0  0  0  0  0  0
   -7.1042    1.1458    0.0000 C   0  0  0  0  0  0  0  0  0  0  0  0
   -3.1333    2.1458    0.0000 C   0  0  0  0  0  0  0  0  0  0  0  0
   -7.9042    0.9750    0.0000 O   0  0  0  0  0  0  0  0  0  0  0  0
   -7.2292   -0.1792    0.0000 O   0  0  0  0  0  0  0  0  0  0  0  0
   -4.5625    3.8000    0.0000 O   0  0  0  0  0  0  0  0  0  0  0  0
   -7.9917    0.1583    0.0000 C   0  0  0  0  0  0  0  0  0  0  0  0
   -3.5458    5.8917    0.0000 C   0  0  0  0  0  0  0  0  0  0  0  0
   -2.7208    5.8917    0.0000 C   0  0  0  0  0  0  0  0  0  0  0  0
   -4.5833    4.8667    0.0000 O   0  0  0  0  0  0  0  0  0  0  0  0
   -1.6750    4.8417    0.0000 O   0  0  0  0  0  0  0  0  0  0  0  0
   -2.4208    0.0833    0.0000 N   0  0  0  0  0  0  0  0  0  0  0  0
   -3.1333    1.3208    0.0000 C   0  0  0  0  0  0  0  0  0  0  0  0
   -2.4208    0.9083    0.0000 C   0  0  0  0  0  0  0  0  0  0  0  0
   -3.1333   -0.3292    0.0000 C   0  0  0  0  0  0  0  0  0  0  0  0
   -3.8500    0.9083    0.0000 C   0  0  0  0  0  0  0  0  0  0  0  0
   -3.8500    0.0833    0.0000 C   0  0  0  0  0  0  0  0  0  0  0  0
  2  8  1  0  0  0  0
  3  1  1  0  0  0  0
  4  1  2  0  0  0  0
  5  1  1  0  0  0  0
  6  3  1  0  0  0  0
  7  4  1  0  0  0  0
  8  6  1  0  0  0  0
  9  5  1  0  0  0  0
 10  2  1  0  0  0  0
 11  2  1  0  0  0  0
 12  7  1  0  0  0  0
 13  9  1  0  0  0  0
 14 12  2  0  0  0  0
 15 13  2  0  0  0  0
 16  3  1  0  0  0  0
 17 15  1  0  0  0  0
 18 14  1  0  0  0  0
 19  6  2  0  0  0  0
 20 17  1  0  0  0  0
 21 10  1  0  0  0  0
 22 11  1  0  0  0  0
 23 10  2  0  0  0  0
 24 11  2  0  0  0  0
 25 27  2  0  0  0  0
 26 16  1  0  0  0  0
 27 26  1  0  0  0  0
 28 30  2  0  0  0  0
 29 26  2  0  0  0  0
 30 29  1  0  0  0  0
  9  7  2  0  0  0  0
 15 14  1  0  0  0  0
 18 20  1  0  0  0  0
 25 28  1  0  0  0  0
 21 22  1  0  0  0  0
M  END
>  <IDNUMBER>
F2515-1622

>  <Chemical_Name>
N-{4,6-dioxa-10-thia-12-azatricyclo[7.3.0.0?,?]dodeca-1,3(7),8,11-tetraen-11-yl}-2-(2,5-dioxopyrrolidin-1-yl)-N-[(pyridin-3-yl)methyl]acetamide

>  <PriceCoeff>
1.00

>  <MW>
424.43

>  <Description>
solid

>  <FSP3>
0.25

>  <clogP>
1.52

>  <TPSA>
130.17

>  <Acceptor>
7

>  <Donor>
1

>  <RotBonds>
6

>  <HAC>
30

>  <Collection>
General

$$$$
F2515-2096
  Mrv2219 10102508112D          

 34 38  0  0  0  0            999 V2000
   -4.5720    2.1545    0.0000 C   0  0  0  0  0  0  0  0  0  0  0  0
   -3.8538    2.5636    0.0000 N   0  0  0  0  0  0  0  0  0  0  0  0
   -4.6680    1.3361    0.0000 N   0  0  0  0  0  0  0  0  0  0  0  0
   -0.9853    3.3903    0.0000 N   0  0  0  0  0  0  0  0  0  0  0  0
   -5.3318    2.4927    0.0000 S   0  0  0  0  0  0  0  0  0  0  0  0
   -3.8538    3.4028    0.0000 C   0  0  0  0  0  0  0  0  0  0  0  0
   -5.4696    1.1607    0.0000 C   0  0  0  0  0  0  0  0  0  0  0  0
   -1.7035    3.8079    0.0000 C   0  0  0  0  0  0  0  0  0  0  0  0
   -5.8830    1.8747    0.0000 C   0  0  0  0  0  0  0  0  0  0  0  0
   -0.2213    3.6951    0.0000 C   0  0  0  0  0  0  0  0  0  0  0  0
   -0.9478    2.5636    0.0000 C   0  0  0  0  0  0  0  0  0  0  0  0
   -3.1398    3.8079    0.0000 C   0  0  0  0  0  0  0  0  0  0  0  0
   -5.8830    0.4467    0.0000 C   0  0  0  0  0  0  0  0  0  0  0  0
   -2.4258    3.4028    0.0000 C   0  0  0  0  0  0  0  0  0  0  0  0
   -3.1398    2.1502    0.0000 C   0  0  0  0  0  0  0  0  0  0  0  0
   -4.5720    3.8079    0.0000 O   0  0  0  0  0  0  0  0  0  0  0  0
   -6.6930    0.4467    0.0000 C   0  0  0  0  0  0  0  0  0  0  0  0
    0.3131    3.0646    0.0000 C   0  0  0  0  0  0  0  0  0  0  0  0
   -0.1211    2.3632    0.0000 C   0  0  0  0  0  0  0  0  0  0  0  0
    0.0000    4.4760    0.0000 O   0  0  0  0  0  0  0  0  0  0  0  0
   -1.5783    2.0417    0.0000 O   0  0  0  0  0  0  0  0  0  0  0  0
   -6.7056    1.8747    0.0000 C   0  0  0  0  0  0  0  0  0  0  0  0
   -2.4258    0.0835    0.0000 N   0  0  0  0  0  0  0  0  0  0  0  0
   -3.1398    1.3235    0.0000 C   0  0  0  0  0  0  0  0  0  0  0  0
   -7.1189    1.1524    0.0000 C   0  0  0  0  0  0  0  0  0  0  0  0
   -1.6993    4.6263    0.0000 C   0  0  0  0  0  0  0  0  0  0  0  0
   -2.4258    0.9102    0.0000 C   0  0  0  0  0  0  0  0  0  0  0  0
   -3.1315    4.6388    0.0000 C   0  0  0  0  0  0  0  0  0  0  0  0
   -5.4696   -0.2673    0.0000 C   0  0  0  0  0  0  0  0  0  0  0  0
   -2.4133    5.0396    0.0000 C   0  0  0  0  0  0  0  0  0  0  0  0
   -3.1398   -0.3299    0.0000 C   0  0  0  0  0  0  0  0  0  0  0  0
   -7.1064   -0.2798    0.0000 C   0  0  0  0  0  0  0  0  0  0  0  0
   -3.8580    0.9102    0.0000 C   0  0  0  0  0  0  0  0  0  0  0  0
   -3.8580    0.0835    0.0000 C   0  0  0  0  0  0  0  0  0  0  0  0
  2  1  1  0  0  0  0
  3  1  2  0  0  0  0
  4  8  1  0  0  0  0
  5  1  1  0  0  0  0
  6  2  1  0  0  0  0
  7  3  1  0  0  0  0
  8 14  1  0  0  0  0
  9  5  1  0  0  0  0
 10  4  1  0  0  0  0
 11  4  1  0  0  0  0
 12  6  1  0  0  0  0
 13  7  1  0  0  0  0
 14 12  2  0  0  0  0
 15  2  1  0  0  0  0
 16  6  2  0  0  0  0
 17 13  2  0  0  0  0
 18 10  1  0  0  0  0
 19 11  1  0  0  0  0
 20 10  2  0  0  0  0
 21 11  2  0  0  0  0
 22  9  1  0  0  0  0
 23 27  2  0  0  0  0
 24 15  1  0  0  0  0
 25 22  2  0  0  0  0
 26 30  1  0  0  0  0
 27 24  1  0  0  0  0
 28 12  1  0  0  0  0
 29 13  1  0  0  0  0
 30 28  2  0  0  0  0
 31 34  2  0  0  0  0
 32 17  1  0  0  0  0
 33 24  2  0  0  0  0
 34 33  1  0  0  0  0
  9  7  2  0  0  0  0
 17 25  1  0  0  0  0
 31 23  1  0  0  0  0
  8 26  2  0  0  0  0
 19 18  1  0  0  0  0
M  END
>  <IDNUMBER>
F2515-2096

>  <Chemical_Name>
N-(4,5-dimethyl-1,3-benzothiazol-2-yl)-3-(2,5-dioxopyrrolidin-1-yl)-N-[(pyridin-3-yl)methyl]benzamide

>  <PriceCoeff>
1.00

>  <CAS>
895417-71-7

>  <MW>
470.54

>  <Description>
solid

>  <FSP3>
0.19

>  <clogP>
2.75

>  <TPSA>
111.71

>  <Acceptor>
5

>  <Donor>
1

>  <RotBonds>
6

>  <HAC>
34

>  <Collection>
General

>  <PPDS>
+

$$$$
F2515-2223
  Mrv2219 10102508112D          

 34 38  0  0  0  0            999 V2000
   -4.5720    2.1545    0.0000 C   0  0  0  0  0  0  0  0  0  0  0  0
   -3.8538    2.5636    0.0000 N   0  0  0  0  0  0  0  0  0  0  0  0
   -4.6680    1.3277    0.0000 N   0  0  0  0  0  0  0  0  0  0  0  0
   -0.9853    3.3903    0.0000 N   0  0  0  0  0  0  0  0  0  0  0  0
   -5.3318    2.4927    0.0000 S   0  0  0  0  0  0  0  0  0  0  0  0
   -3.8538    3.4028    0.0000 C   0  0  0  0  0  0  0  0  0  0  0  0
   -5.4696    1.1607    0.0000 C   0  0  0  0  0  0  0  0  0  0  0  0
   -5.8830    1.8747    0.0000 C   0  0  0  0  0  0  0  0  0  0  0  0
   -1.7035    3.8079    0.0000 C   0  0  0  0  0  0  0  0  0  0  0  0
   -0.2213    3.6951    0.0000 C   0  0  0  0  0  0  0  0  0  0  0  0
   -0.9478    2.5636    0.0000 C   0  0  0  0  0  0  0  0  0  0  0  0
   -3.1398    3.8079    0.0000 C   0  0  0  0  0  0  0  0  0  0  0  0
   -5.8747    0.4467    0.0000 C   0  0  0  0  0  0  0  0  0  0  0  0
   -2.4258    3.4028    0.0000 C   0  0  0  0  0  0  0  0  0  0  0  0
   -3.1398    2.1502    0.0000 C   0  0  0  0  0  0  0  0  0  0  0  0
   -6.7056    1.8747    0.0000 C   0  0  0  0  0  0  0  0  0  0  0  0
   -4.5720    3.8079    0.0000 O   0  0  0  0  0  0  0  0  0  0  0  0
   -6.6930    0.4384    0.0000 C   0  0  0  0  0  0  0  0  0  0  0  0
    0.3131    3.0646    0.0000 C   0  0  0  0  0  0  0  0  0  0  0  0
   -0.1211    2.3632    0.0000 C   0  0  0  0  0  0  0  0  0  0  0  0
    0.0000    4.4760    0.0000 O   0  0  0  0  0  0  0  0  0  0  0  0
   -1.5783    2.0417    0.0000 O   0  0  0  0  0  0  0  0  0  0  0  0
   -7.1189    1.1524    0.0000 C   0  0  0  0  0  0  0  0  0  0  0  0
   -2.4258    0.0835    0.0000 N   0  0  0  0  0  0  0  0  0  0  0  0
   -3.1398    1.3235    0.0000 C   0  0  0  0  0  0  0  0  0  0  0  0
   -1.6993    4.6263    0.0000 C   0  0  0  0  0  0  0  0  0  0  0  0
   -2.4258    0.9102    0.0000 C   0  0  0  0  0  0  0  0  0  0  0  0
   -3.1315    4.6388    0.0000 C   0  0  0  0  0  0  0  0  0  0  0  0
   -5.4696   -0.2673    0.0000 C   0  0  0  0  0  0  0  0  0  0  0  0
   -2.4133    5.0396    0.0000 C   0  0  0  0  0  0  0  0  0  0  0  0
   -3.1398   -0.3299    0.0000 C   0  0  0  0  0  0  0  0  0  0  0  0
   -3.8580    0.9102    0.0000 C   0  0  0  0  0  0  0  0  0  0  0  0
   -7.9456    1.1524    0.0000 C   0  0  0  0  0  0  0  0  0  0  0  0
   -3.8580    0.0835    0.0000 C   0  0  0  0  0  0  0  0  0  0  0  0
  2  1  1  0  0  0  0
  3  1  2  0  0  0  0
  4  9  1  0  0  0  0
  5  1  1  0  0  0  0
  6  2  1  0  0  0  0
  7  3  1  0  0  0  0
  8  5  1  0  0  0  0
  9 14  1  0  0  0  0
 10  4  1  0  0  0  0
 11  4  1  0  0  0  0
 12  6  1  0  0  0  0
 13  7  1  0  0  0  0
 14 12  2  0  0  0  0
 15  2  1  0  0  0  0
 16  8  1  0  0  0  0
 17  6  2  0  0  0  0
 18 13  2  0  0  0  0
 19 10  1  0  0  0  0
 20 11  1  0  0  0  0
 21 10  2  0  0  0  0
 22 11  2  0  0  0  0
 23 16  2  0  0  0  0
 24 27  2  0  0  0  0
 25 15  1  0  0  0  0
 26 30  1  0  0  0  0
 27 25  1  0  0  0  0
 28 12  1  0  0  0  0
 29 13  1  0  0  0  0
 30 28  2  0  0  0  0
 31 34  2  0  0  0  0
 32 25  2  0  0  0  0
 33 23  1  0  0  0  0
 34 32  1  0  0  0  0
  8  7  2  0  0  0  0
 18 23  1  0  0  0  0
 31 24  1  0  0  0  0
  9 26  2  0  0  0  0
 20 19  1  0  0  0  0
M  END
>  <IDNUMBER>
F2515-2223

>  <Chemical_Name>
N-(4,6-dimethyl-1,3-benzothiazol-2-yl)-3-(2,5-dioxopyrrolidin-1-yl)-N-[(pyridin-3-yl)methyl]benzamide

>  <PriceCoeff>
1.00

>  <CAS>
895420-76-5

>  <MW>
470.54

>  <Description>
solid

>  <FSP3>
0.19

>  <clogP>
2.80

>  <TPSA>
111.71

>  <Acceptor>
5

>  <Donor>
1

>  <RotBonds>
6

>  <HAC>
34

>  <Collection>
General

>  <PPDS>
+

$$$$
F2515-2511
  Mrv2219 10102508112D          

 30 33  0  0  0  0            999 V2000
   -4.5625    2.1500    0.0000 C   0  0  0  0  0  0  0  0  0  0  0  0
   -4.6583    1.3333    0.0000 N   0  0  0  0  0  0  0  0  0  0  0  0
   -3.1333    4.6292    0.0000 N   0  0  0  0  0  0  0  0  0  0  0  0
   -3.8458    2.5583    0.0000 N   0  0  0  0  0  0  0  0  0  0  0  0
   -5.3208    2.4875    0.0000 S   0  0  0  0  0  0  0  0  0  0  0  0
   -5.4583    1.1583    0.0000 C   0  0  0  0  0  0  0  0  0  0  0  0
   -5.8750    1.8708    0.0000 C   0  0  0  0  0  0  0  0  0  0  0  0
   -3.8458    3.3958    0.0000 C   0  0  0  0  0  0  0  0  0  0  0  0
   -3.1333    3.8000    0.0000 C   0  0  0  0  0  0  0  0  0  0  0  0
   -3.8000    5.1042    0.0000 C   0  0  0  0  0  0  0  0  0  0  0  0
   -2.4625    5.1042    0.0000 C   0  0  0  0  0  0  0  0  0  0  0  0
   -3.1333    2.1458    0.0000 C   0  0  0  0  0  0  0  0  0  0  0  0
   -5.8708    0.4458    0.0000 C   0  0  0  0  0  0  0  0  0  0  0  0
   -6.6917    1.8708    0.0000 C   0  0  0  0  0  0  0  0  0  0  0  0
   -4.5625    3.8000    0.0000 O   0  0  0  0  0  0  0  0  0  0  0  0
   -3.5458    5.8917    0.0000 C   0  0  0  0  0  0  0  0  0  0  0  0
   -2.7208    5.8917    0.0000 C   0  0  0  0  0  0  0  0  0  0  0  0
   -4.5833    4.8667    0.0000 O   0  0  0  0  0  0  0  0  0  0  0  0
   -1.6750    4.8417    0.0000 O   0  0  0  0  0  0  0  0  0  0  0  0
   -2.4208    0.0833    0.0000 N   0  0  0  0  0  0  0  0  0  0  0  0
   -3.1333    1.3208    0.0000 C   0  0  0  0  0  0  0  0  0  0  0  0
   -6.6792    0.4458    0.0000 C   0  0  0  0  0  0  0  0  0  0  0  0
   -7.1042    1.1500    0.0000 C   0  0  0  0  0  0  0  0  0  0  0  0
   -5.4583   -0.2667    0.0000 O   0  0  0  0  0  0  0  0  0  0  0  0
   -2.4208    0.9083    0.0000 C   0  0  0  0  0  0  0  0  0  0  0  0
   -3.1333   -0.3292    0.0000 C   0  0  0  0  0  0  0  0  0  0  0  0
   -7.1042    2.5833    0.0000 C   0  0  0  0  0  0  0  0  0  0  0  0
   -3.8500    0.9083    0.0000 C   0  0  0  0  0  0  0  0  0  0  0  0
   -4.6333   -0.2625    0.0000 C   0  0  0  0  0  0  0  0  0  0  0  0
   -3.8500    0.0833    0.0000 C   0  0  0  0  0  0  0  0  0  0  0  0
  2  1  2  0  0  0  0
  3  9  1  0  0  0  0
  4  1  1  0  0  0  0
  5  1  1  0  0  0  0
  6  2  1  0  0  0  0
  7  5  1  0  0  0  0
  8  4  1  0  0  0  0
  9  8  1  0  0  0  0
 10  3  1  0  0  0  0
 11  3  1  0  0  0  0
 12  4  1  0  0  0  0
 13  6  1  0  0  0  0
 14  7  1  0  0  0  0
 15  8  2  0  0  0  0
 16 10  1  0  0  0  0
 17 11  1  0  0  0  0
 18 10  2  0  0  0  0
 19 11  2  0  0  0  0
 20 25  2  0  0  0  0
 21 12  1  0  0  0  0
 22 13  2  0  0  0  0
 23 14  2  0  0  0  0
 24 13  1  0  0  0  0
 25 21  1  0  0  0  0
 26 30  2  0  0  0  0
 27 14  1  0  0  0  0
 28 21  2  0  0  0  0
 29 24  1  0  0  0  0
 30 28  1  0  0  0  0
  7  6  2  0  0  0  0
 22 23  1  0  0  0  0
 20 26  1  0  0  0  0
 16 17  1  0  0  0  0
M  END
>  <IDNUMBER>
F2515-2511

>  <Chemical_Name>
2-(2,5-dioxopyrrolidin-1-yl)-N-(4-methoxy-7-methyl-1,3-benzothiazol-2-yl)-N-[(pyridin-3-yl)methyl]acetamide

>  <PriceCoeff>
1.00

>  <CAS>
895428-47-4

>  <MW>
424.47

>  <Description>
solid

>  <FSP3>
0.29

>  <clogP>
1.76

>  <TPSA>
120.94

>  <Acceptor>
6

>  <Donor>
1

>  <RotBonds>
7

>  <HAC>
30

>  <Collection>
General

>  <PPDS>
+

$$$$
F2515-2731
  Mrv2219 10102508112D          

 34 38  0  0  0  0            999 V2000
   -4.5720    2.1545    0.0000 C   0  0  0  0  0  0  0  0  0  0  0  0
   -4.6680    1.3277    0.0000 N   0  0  0  0  0  0  0  0  0  0  0  0
   -3.8538    2.5636    0.0000 N   0  0  0  0  0  0  0  0  0  0  0  0
   -0.9853    3.3903    0.0000 N   0  0  0  0  0  0  0  0  0  0  0  0
   -5.4696    1.1607    0.0000 C   0  0  0  0  0  0  0  0  0  0  0  0
   -5.3318    2.4927    0.0000 S   0  0  0  0  0  0  0  0  0  0  0  0
   -3.8538    3.4028    0.0000 C   0  0  0  0  0  0  0  0  0  0  0  0
   -5.8830    1.8747    0.0000 C   0  0  0  0  0  0  0  0  0  0  0  0
   -1.7035    3.8079    0.0000 C   0  0  0  0  0  0  0  0  0  0  0  0
   -0.2213    3.6951    0.0000 C   0  0  0  0  0  0  0  0  0  0  0  0
   -0.9478    2.5636    0.0000 C   0  0  0  0  0  0  0  0  0  0  0  0
   -5.8747    0.4467    0.0000 C   0  0  0  0  0  0  0  0  0  0  0  0
   -3.1398    3.8079    0.0000 C   0  0  0  0  0  0  0  0  0  0  0  0
   -2.4258    3.4028    0.0000 C   0  0  0  0  0  0  0  0  0  0  0  0
   -6.7056    1.8747    0.0000 C   0  0  0  0  0  0  0  0  0  0  0  0
   -3.1398    2.1502    0.0000 C   0  0  0  0  0  0  0  0  0  0  0  0
   -6.6930    0.4384    0.0000 C   0  0  0  0  0  0  0  0  0  0  0  0
   -7.1189    1.1524    0.0000 C   0  0  0  0  0  0  0  0  0  0  0  0
   -4.5720    3.8079    0.0000 O   0  0  0  0  0  0  0  0  0  0  0  0
    0.3131    3.0646    0.0000 C   0  0  0  0  0  0  0  0  0  0  0  0
   -0.1211    2.3632    0.0000 C   0  0  0  0  0  0  0  0  0  0  0  0
    0.0000    4.4760    0.0000 O   0  0  0  0  0  0  0  0  0  0  0  0
   -1.5783    2.0417    0.0000 O   0  0  0  0  0  0  0  0  0  0  0  0
   -2.4258    0.0835    0.0000 N   0  0  0  0  0  0  0  0  0  0  0  0
   -3.1398    1.3235    0.0000 C   0  0  0  0  0  0  0  0  0  0  0  0
   -5.4696   -0.2673    0.0000 F   0  0  0  0  0  0  0  0  0  0  0  0
   -7.9456    1.1524    0.0000 F   0  0  0  0  0  0  0  0  0  0  0  0
   -1.6993    4.6263    0.0000 C   0  0  0  0  0  0  0  0  0  0  0  0
   -2.4258    0.9102    0.0000 C   0  0  0  0  0  0  0  0  0  0  0  0
   -3.1315    4.6388    0.0000 C   0  0  0  0  0  0  0  0  0  0  0  0
   -2.4133    5.0396    0.0000 C   0  0  0  0  0  0  0  0  0  0  0  0
   -3.1398   -0.3299    0.0000 C   0  0  0  0  0  0  0  0  0  0  0  0
   -3.8580    0.9102    0.0000 C   0  0  0  0  0  0  0  0  0  0  0  0
   -3.8580    0.0835    0.0000 C   0  0  0  0  0  0  0  0  0  0  0  0
  2  1  2  0  0  0  0
  3  1  1  0  0  0  0
  4  9  1  0  0  0  0
  5  2  1  0  0  0  0
  6  1  1  0  0  0  0
  7  3  1  0  0  0  0
  8  6  1  0  0  0  0
  9 14  1  0  0  0  0
 10  4  1  0  0  0  0
 11  4  1  0  0  0  0
 12  5  1  0  0  0  0
 13  7  1  0  0  0  0
 14 13  2  0  0  0  0
 15  8  1  0  0  0  0
 16  3  1  0  0  0  0
 17 12  2  0  0  0  0
 18 15  2  0  0  0  0
 19  7  2  0  0  0  0
 20 10  1  0  0  0  0
 21 11  1  0  0  0  0
 22 10  2  0  0  0  0
 23 11  2  0  0  0  0
 24 29  2  0  0  0  0
 25 16  1  0  0  0  0
 26 12  1  0  0  0  0
 27 18  1  0  0  0  0
 28 31  1  0  0  0  0
 29 25  1  0  0  0  0
 30 13  1  0  0  0  0
 31 30  2  0  0  0  0
 32 34  2  0  0  0  0
 33 25  2  0  0  0  0
 34 33  1  0  0  0  0
  8  5  2  0  0  0  0
 17 18  1  0  0  0  0
 32 24  1  0  0  0  0
  9 28  2  0  0  0  0
 21 20  1  0  0  0  0
M  END
>  <IDNUMBER>
F2515-2731

>  <Chemical_Name>
N-(4,6-difluoro-1,3-benzothiazol-2-yl)-3-(2,5-dioxopyrrolidin-1-yl)-N-[(pyridin-3-yl)methyl]benzamide

>  <PriceCoeff>
1.00

>  <CAS>
895436-69-8

>  <MW>
478.47

>  <Description>
solid

>  <FSP3>
0.12

>  <clogP>
2.13

>  <TPSA>
111.71

>  <Acceptor>
5

>  <Donor>
1

>  <RotBonds>
6

>  <HAC>
34

>  <Collection>
General

>  <PPDS>
+

$$$$
F2517-0143
  Mrv2219 10102508112D          

 36 39  0  0  0  0            999 V2000
   -3.1808    5.0608    0.0000 C   0  0  0  0  0  0  0  0  0  0  0  0
   -3.8984    0.5119    0.0000 N   0  0  0  0  0  0  0  0  0  0  0  0
   -3.8522    5.5434    0.0000 O   0  0  0  0  0  0  0  0  0  0  0  0
   -3.6005    6.3239    0.0000 C   0  0  0  0  0  0  0  0  0  0  0  0
   -2.7779    6.3239    0.0000 N   0  0  0  0  0  0  0  0  0  0  0  0
   -3.1808    4.2341    0.0000 N   0  0  0  0  0  0  0  0  0  0  0  0
   -2.5010    5.5434    0.0000 N   0  0  0  0  0  0  0  0  0  0  0  0
   -3.8984    3.8271    0.0000 C   0  0  0  0  0  0  0  0  0  0  0  0
   -4.5404   -0.0042    0.0000 C   0  0  0  0  0  0  0  0  0  0  0  0
   -3.2060    0.0461    0.0000 C   0  0  0  0  0  0  0  0  0  0  0  0
   -4.0872    6.9785    0.0000 C   0  0  0  0  0  0  0  0  0  0  0  0
   -5.0566    8.3130    0.0000 C   0  0  0  0  0  0  0  0  0  0  0  0
   -4.2383    8.4095    0.0000 C   0  0  0  0  0  0  0  0  0  0  0  0
   -5.3839    7.5576    0.0000 C   0  0  0  0  0  0  0  0  0  0  0  0
   -3.7473    7.7422    0.0000 C   0  0  0  0  0  0  0  0  0  0  0  0
   -4.8929    6.8904    0.0000 C   0  0  0  0  0  0  0  0  0  0  0  0
   -3.8984    1.3428    0.0000 C   0  0  0  0  0  0  0  0  0  0  0  0
   -3.8984    3.0045    0.0000 C   0  0  0  0  0  0  0  0  0  0  0  0
   -4.6159    4.2341    0.0000 O   0  0  0  0  0  0  0  0  0  0  0  0
   -4.2551   -0.7722    0.0000 C   0  0  0  0  0  0  0  0  0  0  0  0
   -3.4368   -0.7553    0.0000 C   0  0  0  0  0  0  0  0  0  0  0  0
   -5.3461    0.2224    0.0000 O   0  0  0  0  0  0  0  0  0  0  0  0
   -2.4129    0.3357    0.0000 O   0  0  0  0  0  0  0  0  0  0  0  0
   -3.1724    1.7582    0.0000 C   0  0  0  0  0  0  0  0  0  0  0  0
   -4.6159    1.7582    0.0000 C   0  0  0  0  0  0  0  0  0  0  0  0
   -4.6033    2.5891    0.0000 C   0  0  0  0  0  0  0  0  0  0  0  0
   -3.1682    2.5807    0.0000 C   0  0  0  0  0  0  0  0  0  0  0  0
   -5.5392    8.9802    0.0000 O   0  0  0  0  0  0  0  0  0  0  0  0
   -6.1980    7.4695    0.0000 O   0  0  0  0  0  0  0  0  0  0  0  0
   -3.8984    9.1564    0.0000 O   0  0  0  0  0  0  0  0  0  0  0  0
   -6.3491    8.8921    0.0000 C   0  0  0  0  0  0  0  0  0  0  0  0
   -6.5128    6.7142    0.0000 C   0  0  0  0  0  0  0  0  0  0  0  0
   -4.3893    9.8194    0.0000 C   0  0  0  0  0  0  0  0  0  0  0  0
   -3.8606   10.7301    0.0000 C   0  0  0  0  0  0  0  0  0  0  0  0
   -6.8401    9.5593    0.0000 C   0  0  0  0  0  0  0  0  0  0  0  0
   -7.1926    6.6722    0.0000 C   0  0  0  0  0  0  0  0  0  0  0  0
  2 17  1  0  0  0  0
  3  1  1  0  0  0  0
  4  3  1  0  0  0  0
  5  7  1  0  0  0  0
  6  1  1  0  0  0  0
  7  1  2  0  0  0  0
  8  6  1  0  0  0  0
  9  2  1  0  0  0  0
 10  2  1  0  0  0  0
 11  4  1  0  0  0  0
 12 14  1  0  0  0  0
 13 15  1  0  0  0  0
 14 16  2  0  0  0  0
 15 11  2  0  0  0  0
 16 11  1  0  0  0  0
 17 24  1  0  0  0  0
 18  8  1  0  0  0  0
 19  8  2  0  0  0  0
 20  9  1  0  0  0  0
 21 10  1  0  0  0  0
 22  9  2  0  0  0  0
 23 10  2  0  0  0  0
 24 27  2  0  0  0  0
 25 26  1  0  0  0  0
 26 18  2  0  0  0  0
 27 18  1  0  0  0  0
 28 12  1  0  0  0  0
 29 14  1  0  0  0  0
 30 13  1  0  0  0  0
 31 28  1  0  0  0  0
 32 29  1  0  0  0  0
 33 30  1  0  0  0  0
 34 33  1  0  0  0  0
 35 31  1  0  0  0  0
 36 32  1  0  0  0  0
  5  4  2  0  0  0  0
 25 17  2  0  0  0  0
 13 12  2  0  0  0  0
 21 20  1  0  0  0  0
M  END
>  <IDNUMBER>
F2517-0143

>  <Chemical_Name>
4-(2,5-dioxopyrrolidin-1-yl)-N-[5-(3,4,5-triethoxyphenyl)-1,3,4-oxadiazol-2-yl]benzamide

>  <PriceCoeff>
1.00

>  <CAS>
891126-45-7

>  <MW>
494.50

>  <Description>
solid

>  <FSP3>
0.32

>  <clogP>
1.66

>  <TPSA>
133.09

>  <Acceptor>
9

>  <Donor>
1

>  <RotBonds>
10

>  <HAC>
36

>  <Collection>
General

>  <PPDS>
+

$$$$
F2517-0155
  Mrv2219 10102508112D          

 36 39  0  0  0  0            999 V2000
   -5.3117    1.3373    0.0000 N   0  0  0  0  0  0  0  0  0  0  0  0
   -3.1678    5.0401    0.0000 C   0  0  0  0  0  0  0  0  0  0  0  0
   -3.8365    5.5207    0.0000 O   0  0  0  0  0  0  0  0  0  0  0  0
   -3.5857    6.2980    0.0000 C   0  0  0  0  0  0  0  0  0  0  0  0
   -2.7666    6.2980    0.0000 N   0  0  0  0  0  0  0  0  0  0  0  0
   -3.1678    4.2168    0.0000 N   0  0  0  0  0  0  0  0  0  0  0  0
   -2.4907    5.5207    0.0000 N   0  0  0  0  0  0  0  0  0  0  0  0
   -4.5970    1.7510    0.0000 C   0  0  0  0  0  0  0  0  0  0  0  0
   -3.8824    3.8114    0.0000 C   0  0  0  0  0  0  0  0  0  0  0  0
   -6.0347    1.7134    0.0000 C   0  0  0  0  0  0  0  0  0  0  0  0
   -5.4245    0.5224    0.0000 C   0  0  0  0  0  0  0  0  0  0  0  0
   -4.0705    6.9500    0.0000 C   0  0  0  0  0  0  0  0  0  0  0  0
   -5.0359    8.2789    0.0000 C   0  0  0  0  0  0  0  0  0  0  0  0
   -5.3618    7.5267    0.0000 C   0  0  0  0  0  0  0  0  0  0  0  0
   -4.2209    8.3750    0.0000 C   0  0  0  0  0  0  0  0  0  0  0  0
   -4.5970    2.5785    0.0000 C   0  0  0  0  0  0  0  0  0  0  0  0
   -3.7320    7.7105    0.0000 C   0  0  0  0  0  0  0  0  0  0  0  0
   -4.8729    6.8622    0.0000 C   0  0  0  0  0  0  0  0  0  0  0  0
   -3.8824    2.9922    0.0000 C   0  0  0  0  0  0  0  0  0  0  0  0
   -4.5970    4.2168    0.0000 O   0  0  0  0  0  0  0  0  0  0  0  0
   -6.6115    1.0991    0.0000 C   0  0  0  0  0  0  0  0  0  0  0  0
   -6.2311    0.3761    0.0000 C   0  0  0  0  0  0  0  0  0  0  0  0
   -6.1726    2.5284    0.0000 O   0  0  0  0  0  0  0  0  0  0  0  0
   -4.8478   -0.0544    0.0000 O   0  0  0  0  0  0  0  0  0  0  0  0
   -5.5165    8.9434    0.0000 O   0  0  0  0  0  0  0  0  0  0  0  0
   -3.8824    9.1190    0.0000 O   0  0  0  0  0  0  0  0  0  0  0  0
   -6.1726    7.4389    0.0000 O   0  0  0  0  0  0  0  0  0  0  0  0
   -3.8824    1.3373    0.0000 C   0  0  0  0  0  0  0  0  0  0  0  0
   -3.1594    2.5910    0.0000 C   0  0  0  0  0  0  0  0  0  0  0  0
   -3.1594    1.7552    0.0000 C   0  0  0  0  0  0  0  0  0  0  0  0
   -6.3231    8.8557    0.0000 C   0  0  0  0  0  0  0  0  0  0  0  0
   -6.4861    6.6867    0.0000 C   0  0  0  0  0  0  0  0  0  0  0  0
   -4.3714    9.7792    0.0000 C   0  0  0  0  0  0  0  0  0  0  0  0
   -3.8448   10.6861    0.0000 C   0  0  0  0  0  0  0  0  0  0  0  0
   -6.8121    9.5202    0.0000 C   0  0  0  0  0  0  0  0  0  0  0  0
   -7.1631    6.6449    0.0000 C   0  0  0  0  0  0  0  0  0  0  0  0
  2  6  1  0  0  0  0
  3  2  1  0  0  0  0
  4  3  1  0  0  0  0
  5  7  1  0  0  0  0
  6  9  1  0  0  0  0
  7  2  2  0  0  0  0
  8  1  1  0  0  0  0
  9 19  1  0  0  0  0
 10  1  1  0  0  0  0
 11  1  1  0  0  0  0
 12  4  1  0  0  0  0
 13 14  1  0  0  0  0
 14 18  2  0  0  0  0
 15 17  1  0  0  0  0
 16  8  1  0  0  0  0
 17 12  2  0  0  0  0
 18 12  1  0  0  0  0
 19 16  2  0  0  0  0
 20  9  2  0  0  0  0
 21 10  1  0  0  0  0
 22 11  1  0  0  0  0
 23 10  2  0  0  0  0
 24 11  2  0  0  0  0
 25 13  1  0  0  0  0
 26 15  1  0  0  0  0
 27 14  1  0  0  0  0
 28  8  2  0  0  0  0
 29 30  2  0  0  0  0
 30 28  1  0  0  0  0
 31 25  1  0  0  0  0
 32 27  1  0  0  0  0
 33 26  1  0  0  0  0
 34 33  1  0  0  0  0
 35 31  1  0  0  0  0
 36 32  1  0  0  0  0
 22 21  1  0  0  0  0
 19 29  1  0  0  0  0
  5  4  2  0  0  0  0
 15 13  2  0  0  0  0
M  END
>  <IDNUMBER>
F2517-0155

>  <Chemical_Name>
3-(2,5-dioxopyrrolidin-1-yl)-N-[5-(3,4,5-triethoxyphenyl)-1,3,4-oxadiazol-2-yl]benzamide

>  <PriceCoeff>
1.00

>  <CAS>
891127-41-6

>  <MW>
494.50

>  <Description>
solid

>  <FSP3>
0.32

>  <clogP>
1.66

>  <TPSA>
133.09

>  <Acceptor>
9

>  <Donor>
1

>  <RotBonds>
10

>  <HAC>
36

>  <Collection>
General

>  <PPDS>
+

$$$$
F2517-1310
  Mrv2219 10102508112D          

 27 29  0  0  0  0            999 V2000
    1.9137   -5.7535    0.0000 N   0  0  0  0  0  0  0  0  0  0  0  0
    4.8050   -5.7410    0.0000 C   0  0  0  0  0  0  0  0  0  0  0  0
    5.5455   -6.0697    0.0000 O   0  0  0  0  0  0  0  0  0  0  0  0
    6.1030   -5.4582    0.0000 C   0  0  0  0  0  0  0  0  0  0  0  0
    5.6911   -4.7468    0.0000 N   0  0  0  0  0  0  0  0  0  0  0  0
    4.8841   -4.9215    0.0000 N   0  0  0  0  0  0  0  0  0  0  0  0
    4.0853   -6.1571    0.0000 N   0  0  0  0  0  0  0  0  0  0  0  0
    1.8264   -4.9215    0.0000 C   0  0  0  0  0  0  0  0  0  0  0  0
    1.1524   -6.0905    0.0000 C   0  0  0  0  0  0  0  0  0  0  0  0
    9.6641   -6.7187    0.0000 C   0  0  0  0  0  0  0  0  0  0  0  0
    3.3615   -5.7452    0.0000 C   0  0  0  0  0  0  0  0  0  0  0  0
    2.6376   -6.1696    0.0000 C   0  0  0  0  0  0  0  0  0  0  0  0
    6.9184   -5.5830    0.0000 C   0  0  0  0  0  0  0  0  0  0  0  0
    9.3646   -5.9532    0.0000 O   0  0  0  0  0  0  0  0  0  0  0  0
    1.0151   -4.7551    0.0000 C   0  0  0  0  0  0  0  0  0  0  0  0
    0.6033   -5.4665    0.0000 C   0  0  0  0  0  0  0  0  0  0  0  0
    2.4420   -4.3599    0.0000 O   0  0  0  0  0  0  0  0  0  0  0  0
    0.9777   -6.9142    0.0000 O   0  0  0  0  0  0  0  0  0  0  0  0
    3.3490   -4.9090    0.0000 O   0  0  0  0  0  0  0  0  0  0  0  0
    7.2179   -6.3443    0.0000 C   0  0  0  0  0  0  0  0  0  0  0  0
    7.4301   -4.9423    0.0000 C   0  0  0  0  0  0  0  0  0  0  0  0
    8.9236   -7.0682    0.0000 F   0  0  0  0  0  0  0  0  0  0  0  0
   10.4130   -6.3693    0.0000 F   0  0  0  0  0  0  0  0  0  0  0  0
   10.0635   -7.4301    0.0000 F   0  0  0  0  0  0  0  0  0  0  0  0
    8.5492   -5.8326    0.0000 C   0  0  0  0  0  0  0  0  0  0  0  0
    8.0292   -6.4774    0.0000 C   0  0  0  0  0  0  0  0  0  0  0  0
    8.2413   -5.0671    0.0000 C   0  0  0  0  0  0  0  0  0  0  0  0
  2  7  1  0  0  0  0
  3  2  1  0  0  0  0
  4  3  1  0  0  0  0
  5  6  1  0  0  0  0
  6  2  2  0  0  0  0
  7 11  1  0  0  0  0
  8  1  1  0  0  0  0
  9  1  1  0  0  0  0
 10 14  1  0  0  0  0
 11 12  1  0  0  0  0
 12  1  1  0  0  0  0
 13  4  1  0  0  0  0
 14 25  1  0  0  0  0
 15  8  1  0  0  0  0
 16  9  1  0  0  0  0
 17  8  2  0  0  0  0
 18  9  2  0  0  0  0
 19 11  2  0  0  0  0
 20 13  2  0  0  0  0
 21 13  1  0  0  0  0
 22 10  1  0  0  0  0
 23 10  1  0  0  0  0
 24 10  1  0  0  0  0
 25 27  1  0  0  0  0
 26 20  1  0  0  0  0
 27 21  2  0  0  0  0
 15 16  1  0  0  0  0
  4  5  2  0  0  0  0
 26 25  2  0  0  0  0
M  END
>  <IDNUMBER>
F2517-1310

>  <Chemical_Name>
2-(2,5-dioxopyrrolidin-1-yl)-N-{5-[4-(trifluoromethoxy)phenyl]-1,3,4-oxadiazol-2-yl}acetamide

>  <PriceCoeff>
1.00

>  <CAS>
1286713-86-7

>  <MW>
384.27

>  <Description>
solid

>  <FSP3>
0.27

>  <clogP>
1.58

>  <TPSA>
114.63

>  <Acceptor>
7

>  <Donor>
1

>  <RotBonds>
5

>  <HAC>
27

>  <Collection>
General

>  <PPDS>
+

$$$$
F2518-0108
  Mrv2219 10102508112D          

 24 26  0  0  0  0            999 V2000
   -3.5861    6.3238    0.0000 C   0  0  0  0  0  0  0  0  0  0  0  0
   -5.3248    3.8118    0.0000 N   0  0  0  0  0  0  0  0  0  0  0  0
   -3.8452    5.5339    0.0000 O   0  0  0  0  0  0  0  0  0  0  0  0
   -3.1681    5.0449    0.0000 C   0  0  0  0  0  0  0  0  0  0  0  0
   -2.7543    6.3196    0.0000 N   0  0  0  0  0  0  0  0  0  0  0  0
   -4.0709    6.9842    0.0000 C   0  0  0  0  0  0  0  0  0  0  0  0
   -2.4952    5.5339    0.0000 N   0  0  0  0  0  0  0  0  0  0  0  0
   -3.1681    4.2173    0.0000 N   0  0  0  0  0  0  0  0  0  0  0  0
   -6.0605    4.1421    0.0000 C   0  0  0  0  0  0  0  0  0  0  0  0
   -5.4001    2.9926    0.0000 C   0  0  0  0  0  0  0  0  0  0  0  0
   -3.8829    3.8118    0.0000 C   0  0  0  0  0  0  0  0  0  0  0  0
   -4.6101    4.2256    0.0000 C   0  0  0  0  0  0  0  0  0  0  0  0
   -3.7324    7.7407    0.0000 C   0  0  0  0  0  0  0  0  0  0  0  0
   -4.8860    6.9006    0.0000 C   0  0  0  0  0  0  0  0  0  0  0  0
   -6.1984    2.8170    0.0000 C   0  0  0  0  0  0  0  0  0  0  0  0
   -6.6122    3.5318    0.0000 C   0  0  0  0  0  0  0  0  0  0  0  0
   -4.7982    2.4409    0.0000 O   0  0  0  0  0  0  0  0  0  0  0  0
   -6.2361    4.9529    0.0000 O   0  0  0  0  0  0  0  0  0  0  0  0
   -3.8829    2.9926    0.0000 O   0  0  0  0  0  0  0  0  0  0  0  0
   -4.2089    8.4053    0.0000 C   0  0  0  0  0  0  0  0  0  0  0  0
   -5.3750    7.5652    0.0000 C   0  0  0  0  0  0  0  0  0  0  0  0
   -2.9174    7.8160    0.0000 Cl  0  0  0  0  0  0  0  0  0  0  0  0
   -5.0364    8.3175    0.0000 C   0  0  0  0  0  0  0  0  0  0  0  0
   -6.1734    7.4649    0.0000 Cl  0  0  0  0  0  0  0  0  0  0  0  0
  2 12  1  0  0  0  0
  3  1  1  0  0  0  0
  4  3  1  0  0  0  0
  5  1  2  0  0  0  0
  6  1  1  0  0  0  0
  7  5  1  0  0  0  0
  8  4  1  0  0  0  0
  9  2  1  0  0  0  0
 10  2  1  0  0  0  0
 11  8  1  0  0  0  0
 12 11  1  0  0  0  0
 13  6  2  0  0  0  0
 14  6  1  0  0  0  0
 15 10  1  0  0  0  0
 16  9  1  0  0  0  0
 17 10  2  0  0  0  0
 18  9  2  0  0  0  0
 19 11  2  0  0  0  0
 20 13  1  0  0  0  0
 21 14  2  0  0  0  0
 22 13  1  0  0  0  0
 23 21  1  0  0  0  0
 24 21  1  0  0  0  0
  4  7  2  0  0  0  0
 20 23  2  0  0  0  0
 16 15  1  0  0  0  0
M  END
>  <IDNUMBER>
F2518-0108

>  <Chemical_Name>
N-[5-(2,5-dichlorophenyl)-1,3,4-oxadiazol-2-yl]-2-(2,5-dioxopyrrolidin-1-yl)acetamide

>  <PriceCoeff>
1.00

>  <CAS>
891139-79-0

>  <MW>
369.16

>  <Description>
solid

>  <FSP3>
0.21

>  <clogP>
1.60

>  <TPSA>
105.40

>  <Acceptor>
6

>  <Donor>
1

>  <RotBonds>
4

>  <HAC>
24

>  <Collection>
General

>  <PPDS>
+

$$$$
F2518-0252
  Mrv2219 10102508112D          

 24 26  0  0  0  0            999 V2000
   -5.3251    3.8120    0.0000 N   0  0  0  0  0  0  0  0  0  0  0  0
   -3.5947    6.3200    0.0000 C   0  0  0  0  0  0  0  0  0  0  0  0
   -3.8454    5.5301    0.0000 O   0  0  0  0  0  0  0  0  0  0  0  0
   -3.1683    5.0452    0.0000 C   0  0  0  0  0  0  0  0  0  0  0  0
   -2.7671    6.3117    0.0000 N   0  0  0  0  0  0  0  0  0  0  0  0
   -2.5038    5.5343    0.0000 N   0  0  0  0  0  0  0  0  0  0  0  0
   -3.1683    4.2176    0.0000 N   0  0  0  0  0  0  0  0  0  0  0  0
   -6.0609    4.1424    0.0000 C   0  0  0  0  0  0  0  0  0  0  0  0
   -5.4004    2.9928    0.0000 C   0  0  0  0  0  0  0  0  0  0  0  0
   -4.0838    6.9637    0.0000 C   0  0  0  0  0  0  0  0  0  0  0  0
   -3.8831    3.8120    0.0000 C   0  0  0  0  0  0  0  0  0  0  0  0
   -4.6104    4.2259    0.0000 C   0  0  0  0  0  0  0  0  0  0  0  0
   -4.8863    6.8759    0.0000 C   0  0  0  0  0  0  0  0  0  0  0  0
   -3.7451    7.7287    0.0000 C   0  0  0  0  0  0  0  0  0  0  0  0
   -6.1988    2.8172    0.0000 C   0  0  0  0  0  0  0  0  0  0  0  0
   -6.6126    3.5320    0.0000 C   0  0  0  0  0  0  0  0  0  0  0  0
   -5.3795    7.5406    0.0000 C   0  0  0  0  0  0  0  0  0  0  0  0
   -4.7985    2.4411    0.0000 O   0  0  0  0  0  0  0  0  0  0  0  0
   -6.2365    4.9532    0.0000 O   0  0  0  0  0  0  0  0  0  0  0  0
   -3.8831    2.9928    0.0000 O   0  0  0  0  0  0  0  0  0  0  0  0
   -4.2217    8.3890    0.0000 C   0  0  0  0  0  0  0  0  0  0  0  0
   -5.0493    8.3055    0.0000 C   0  0  0  0  0  0  0  0  0  0  0  0
   -5.2248    6.1236    0.0000 C   0  0  0  0  0  0  0  0  0  0  0  0
   -5.5384    8.9659    0.0000 C   0  0  0  0  0  0  0  0  0  0  0  0
  2  3  1  0  0  0  0
  3  4  1  0  0  0  0
  4  7  1  0  0  0  0
  5  6  1  0  0  0  0
  6  4  2  0  0  0  0
  7 11  1  0  0  0  0
  8  1  1  0  0  0  0
  9  1  1  0  0  0  0
 10  2  1  0  0  0  0
 11 12  1  0  0  0  0
 12  1  1  0  0  0  0
 13 10  1  0  0  0  0
 14 10  2  0  0  0  0
 15  9  1  0  0  0  0
 16  8  1  0  0  0  0
 17 13  2  0  0  0  0
 18  9  2  0  0  0  0
 19  8  2  0  0  0  0
 20 11  2  0  0  0  0
 21 14  1  0  0  0  0
 22 21  2  0  0  0  0
 23 13  1  0  0  0  0
 24 22  1  0  0  0  0
 16 15  1  0  0  0  0
  5  2  2  0  0  0  0
 22 17  1  0  0  0  0
M  END
>  <IDNUMBER>
F2518-0252

>  <Chemical_Name>
N-[5-(2,4-dimethylphenyl)-1,3,4-oxadiazol-2-yl]-2-(2,5-dioxopyrrolidin-1-yl)acetamide

>  <PriceCoeff>
1.00

>  <CAS>
891114-40-2

>  <MW>
328.32

>  <Description>
solid

>  <FSP3>
0.31

>  <clogP>
1.10

>  <TPSA>
105.40

>  <Acceptor>
6

>  <Donor>
1

>  <RotBonds>
4

>  <HAC>
24

>  <Collection>
General

>  <PPDS>
+

$$$$
F2518-0396
  Mrv2219 10102508112D          

 24 26  0  0  0  0            999 V2000
   -5.3193    3.8079    0.0000 N   0  0  0  0  0  0  0  0  0  0  0  0
   -3.5824    6.3047    0.0000 C   0  0  0  0  0  0  0  0  0  0  0  0
   -3.8329    5.5281    0.0000 O   0  0  0  0  0  0  0  0  0  0  0  0
   -3.1648    5.0396    0.0000 C   0  0  0  0  0  0  0  0  0  0  0  0
   -2.7515    6.3047    0.0000 N   0  0  0  0  0  0  0  0  0  0  0  0
   -2.4884    5.5156    0.0000 N   0  0  0  0  0  0  0  0  0  0  0  0
   -3.1648    4.2129    0.0000 N   0  0  0  0  0  0  0  0  0  0  0  0
   -6.0542    4.1378    0.0000 C   0  0  0  0  0  0  0  0  0  0  0  0
   -5.3945    2.9895    0.0000 C   0  0  0  0  0  0  0  0  0  0  0  0
   -4.0667    6.9686    0.0000 C   0  0  0  0  0  0  0  0  0  0  0  0
   -3.8788    3.8079    0.0000 C   0  0  0  0  0  0  0  0  0  0  0  0
   -4.6053    4.2212    0.0000 C   0  0  0  0  0  0  0  0  0  0  0  0
   -3.7202    7.7202    0.0000 C   0  0  0  0  0  0  0  0  0  0  0  0
   -4.8684    6.8809    0.0000 C   0  0  0  0  0  0  0  0  0  0  0  0
   -6.1920    2.8141    0.0000 C   0  0  0  0  0  0  0  0  0  0  0  0
   -6.6054    3.5281    0.0000 C   0  0  0  0  0  0  0  0  0  0  0  0
   -4.7932    2.4383    0.0000 O   0  0  0  0  0  0  0  0  0  0  0  0
   -6.2296    4.9477    0.0000 O   0  0  0  0  0  0  0  0  0  0  0  0
   -3.8788    2.9895    0.0000 O   0  0  0  0  0  0  0  0  0  0  0  0
   -4.2045    8.3924    0.0000 C   0  0  0  0  0  0  0  0  0  0  0  0
   -5.3611    7.5448    0.0000 C   0  0  0  0  0  0  0  0  0  0  0  0
   -5.0312    8.3047    0.0000 C   0  0  0  0  0  0  0  0  0  0  0  0
   -2.9060    7.8078    0.0000 C   0  0  0  0  0  0  0  0  0  0  0  0
   -6.1670    7.4529    0.0000 C   0  0  0  0  0  0  0  0  0  0  0  0
  2  3  1  0  0  0  0
  3  4  1  0  0  0  0
  4  7  1  0  0  0  0
  5  6  1  0  0  0  0
  6  4  2  0  0  0  0
  7 11  1  0  0  0  0
  8  1  1  0  0  0  0
  9  1  1  0  0  0  0
 10  2  1  0  0  0  0
 11 12  1  0  0  0  0
 12  1  1  0  0  0  0
 13 10  2  0  0  0  0
 14 10  1  0  0  0  0
 15  9  1  0  0  0  0
 16  8  1  0  0  0  0
 17  9  2  0  0  0  0
 18  8  2  0  0  0  0
 19 11  2  0  0  0  0
 20 13  1  0  0  0  0
 21 14  2  0  0  0  0
 22 21  1  0  0  0  0
 23 13  1  0  0  0  0
 24 21  1  0  0  0  0
 16 15  1  0  0  0  0
  5  2  2  0  0  0  0
 20 22  2  0  0  0  0
M  END
>  <IDNUMBER>
F2518-0396

>  <Chemical_Name>
N-[5-(2,5-dimethylphenyl)-1,3,4-oxadiazol-2-yl]-2-(2,5-dioxopyrrolidin-1-yl)acetamide

>  <PriceCoeff>
1.00

>  <CAS>
891124-17-7

>  <MW>
328.32

>  <Description>
solid

>  <FSP3>
0.31

>  <clogP>
1.10

>  <TPSA>
105.40

>  <Acceptor>
6

>  <Donor>
1

>  <RotBonds>
4

>  <HAC>
24

>  <Collection>
General

>  <PPDS>
+

$$$$
F2518-0480
  Mrv2219 10102508112D          

 28 31  0  0  0  0            999 V2000
   -3.1583    5.0292    0.0000 C   0  0  0  0  0  0  0  0  0  0  0  0
   -3.8708    0.5083    0.0000 N   0  0  0  0  0  0  0  0  0  0  0  0
   -3.8250    5.5167    0.0000 O   0  0  0  0  0  0  0  0  0  0  0  0
   -3.5750    6.2917    0.0000 C   0  0  0  0  0  0  0  0  0  0  0  0
   -2.7458    6.2917    0.0000 N   0  0  0  0  0  0  0  0  0  0  0  0
   -3.1583    4.2042    0.0000 N   0  0  0  0  0  0  0  0  0  0  0  0
   -2.4833    5.5042    0.0000 N   0  0  0  0  0  0  0  0  0  0  0  0
   -3.8708    3.8000    0.0000 C   0  0  0  0  0  0  0  0  0  0  0  0
   -4.5083   -0.0042    0.0000 C   0  0  0  0  0  0  0  0  0  0  0  0
   -3.1833    0.0458    0.0000 C   0  0  0  0  0  0  0  0  0  0  0  0
   -3.8708    1.3333    0.0000 C   0  0  0  0  0  0  0  0  0  0  0  0
   -4.0583    6.9542    0.0000 C   0  0  0  0  0  0  0  0  0  0  0  0
   -3.8708    2.9833    0.0000 C   0  0  0  0  0  0  0  0  0  0  0  0
   -4.5833    4.2042    0.0000 O   0  0  0  0  0  0  0  0  0  0  0  0
   -4.2250   -0.7667    0.0000 C   0  0  0  0  0  0  0  0  0  0  0  0
   -3.4125   -0.7500    0.0000 C   0  0  0  0  0  0  0  0  0  0  0  0
   -5.3083    0.2208    0.0000 O   0  0  0  0  0  0  0  0  0  0  0  0
   -2.3958    0.3333    0.0000 O   0  0  0  0  0  0  0  0  0  0  0  0
   -3.1500    1.7458    0.0000 C   0  0  0  0  0  0  0  0  0  0  0  0
   -4.5833    1.7458    0.0000 C   0  0  0  0  0  0  0  0  0  0  0  0
   -4.5708    2.5708    0.0000 C   0  0  0  0  0  0  0  0  0  0  0  0
   -3.1458    2.5625    0.0000 C   0  0  0  0  0  0  0  0  0  0  0  0
   -4.8583    6.8667    0.0000 C   0  0  0  0  0  0  0  0  0  0  0  0
   -3.7125    7.7042    0.0000 C   0  0  0  0  0  0  0  0  0  0  0  0
   -5.0208    8.2875    0.0000 C   0  0  0  0  0  0  0  0  0  0  0  0
   -4.1958    8.3750    0.0000 C   0  0  0  0  0  0  0  0  0  0  0  0
   -5.3500    7.5292    0.0000 C   0  0  0  0  0  0  0  0  0  0  0  0
   -5.5000    8.9542    0.0000 Br  0  0  0  0  0  0  0  0  0  0  0  0
  2 11  1  0  0  0  0
  3  1  1  0  0  0  0
  4  3  1  0  0  0  0
  5  7  1  0  0  0  0
  6  1  1  0  0  0  0
  7  1  2  0  0  0  0
  8  6  1  0  0  0  0
  9  2  1  0  0  0  0
 10  2  1  0  0  0  0
 11 19  1  0  0  0  0
 12  4  1  0  0  0  0
 13  8  1  0  0  0  0
 14  8  2  0  0  0  0
 15  9  1  0  0  0  0
 16 10  1  0  0  0  0
 17  9  2  0  0  0  0
 18 10  2  0  0  0  0
 19 22  2  0  0  0  0
 20 21  1  0  0  0  0
 21 13  2  0  0  0  0
 22 13  1  0  0  0  0
 23 12  1  0  0  0  0
 24 12  2  0  0  0  0
 25 26  2  0  0  0  0
 26 24  1  0  0  0  0
 27 23  2  0  0  0  0
 28 25  1  0  0  0  0
  5  4  2  0  0  0  0
 20 11  2  0  0  0  0
 27 25  1  0  0  0  0
 16 15  1  0  0  0  0
M  END
>  <IDNUMBER>
F2518-0480

>  <Chemical_Name>
N-[5-(4-bromophenyl)-1,3,4-oxadiazol-2-yl]-4-(2,5-dioxopyrrolidin-1-yl)benzamide

>  <PriceCoeff>
1.00

>  <CAS>
905677-58-9

>  <MW>
441.23

>  <Description>
solid

>  <FSP3>
0.11

>  <clogP>
1.46

>  <TPSA>
105.40

>  <Acceptor>
6

>  <Donor>
1

>  <RotBonds>
4

>  <HAC>
28

>  <Collection>
General

>  <PPDS>
+

$$$$
F2518-0498
  Mrv2219 10102508112D          

 28 31  0  0  0  0            999 V2000
   -5.2979    1.3338    0.0000 N   0  0  0  0  0  0  0  0  0  0  0  0
   -3.1595    5.0312    0.0000 C   0  0  0  0  0  0  0  0  0  0  0  0
   -3.8265    5.5189    0.0000 O   0  0  0  0  0  0  0  0  0  0  0  0
   -3.5764    6.2942    0.0000 C   0  0  0  0  0  0  0  0  0  0  0  0
   -2.7469    6.2942    0.0000 N   0  0  0  0  0  0  0  0  0  0  0  0
   -3.1595    4.2059    0.0000 N   0  0  0  0  0  0  0  0  0  0  0  0
   -2.4843    5.5064    0.0000 N   0  0  0  0  0  0  0  0  0  0  0  0
   -4.5851    1.7465    0.0000 C   0  0  0  0  0  0  0  0  0  0  0  0
   -3.8723    3.8015    0.0000 C   0  0  0  0  0  0  0  0  0  0  0  0
   -6.0191    1.7090    0.0000 C   0  0  0  0  0  0  0  0  0  0  0  0
   -5.4104    0.5210    0.0000 C   0  0  0  0  0  0  0  0  0  0  0  0
   -4.5851    2.5718    0.0000 C   0  0  0  0  0  0  0  0  0  0  0  0
   -3.8723    2.9845    0.0000 C   0  0  0  0  0  0  0  0  0  0  0  0
   -4.0599    6.9569    0.0000 C   0  0  0  0  0  0  0  0  0  0  0  0
   -4.5851    4.2059    0.0000 O   0  0  0  0  0  0  0  0  0  0  0  0
   -6.5943    1.0962    0.0000 C   0  0  0  0  0  0  0  0  0  0  0  0
   -6.2149    0.3751    0.0000 C   0  0  0  0  0  0  0  0  0  0  0  0
   -6.1566    2.5218    0.0000 O   0  0  0  0  0  0  0  0  0  0  0  0
   -4.8352   -0.0542    0.0000 O   0  0  0  0  0  0  0  0  0  0  0  0
   -3.7140    7.7072    0.0000 C   0  0  0  0  0  0  0  0  0  0  0  0
   -4.8602    6.8694    0.0000 C   0  0  0  0  0  0  0  0  0  0  0  0
   -5.0228    8.2908    0.0000 C   0  0  0  0  0  0  0  0  0  0  0  0
   -5.3521    7.5322    0.0000 C   0  0  0  0  0  0  0  0  0  0  0  0
   -4.1975    8.3783    0.0000 C   0  0  0  0  0  0  0  0  0  0  0  0
   -3.8723    1.3338    0.0000 C   0  0  0  0  0  0  0  0  0  0  0  0
   -5.5022    8.9577    0.0000 Br  0  0  0  0  0  0  0  0  0  0  0  0
   -3.1512    2.5843    0.0000 C   0  0  0  0  0  0  0  0  0  0  0  0
   -3.1512    1.7507    0.0000 C   0  0  0  0  0  0  0  0  0  0  0  0
  2  6  1  0  0  0  0
  3  2  1  0  0  0  0
  4  3  1  0  0  0  0
  5  7  1  0  0  0  0
  6  9  1  0  0  0  0
  7  2  2  0  0  0  0
  8  1  1  0  0  0  0
  9 13  1  0  0  0  0
 10  1  1  0  0  0  0
 11  1  1  0  0  0  0
 12  8  1  0  0  0  0
 13 12  2  0  0  0  0
 14  4  1  0  0  0  0
 15  9  2  0  0  0  0
 16 10  1  0  0  0  0
 17 11  1  0  0  0  0
 18 10  2  0  0  0  0
 19 11  2  0  0  0  0
 20 14  2  0  0  0  0
 21 14  1  0  0  0  0
 22 23  1  0  0  0  0
 23 21  2  0  0  0  0
 24 20  1  0  0  0  0
 25  8  2  0  0  0  0
 26 22  1  0  0  0  0
 27 28  2  0  0  0  0
 28 25  1  0  0  0  0
 17 16  1  0  0  0  0
 13 27  1  0  0  0  0
  5  4  2  0  0  0  0
 24 22  2  0  0  0  0
M  END
>  <IDNUMBER>
F2518-0498

>  <Chemical_Name>
N-[5-(4-bromophenyl)-1,3,4-oxadiazol-2-yl]-3-(2,5-dioxopyrrolidin-1-yl)benzamide

>  <PriceCoeff>
1.00

>  <CAS>
897735-64-7

>  <MW>
441.23

>  <Description>
solid

>  <FSP3>
0.11

>  <clogP>
1.46

>  <TPSA>
105.40

>  <Acceptor>
6

>  <Donor>
1

>  <RotBonds>
4

>  <HAC>
28

>  <Collection>
General

>  <PPDS>
+

$$$$
F2524-0807
  Mrv2219 10102508112D          

 32 36  0  0  0  0            999 V2000
   -0.5471    2.1926    0.0000 C   0  0  0  0  0  0  0  0  0  0  0  0
    0.2423    2.4515    0.0000 N   0  0  0  0  0  0  0  0  0  0  0  0
   -0.8018    1.4033    0.0000 N   0  0  0  0  0  0  0  0  0  0  0  0
    3.2117    2.6520    0.0000 N   0  0  0  0  0  0  0  0  0  0  0  0
   -1.2153    2.6770    0.0000 S   0  0  0  0  0  0  0  0  0  0  0  0
   -1.6288    1.4033    0.0000 C   0  0  0  0  0  0  0  0  0  0  0  0
   -1.8794    2.1884    0.0000 C   0  0  0  0  0  0  0  0  0  0  0  0
    0.4177    3.2534    0.0000 C   0  0  0  0  0  0  0  0  0  0  0  0
    2.5977    3.2158    0.0000 C   0  0  0  0  0  0  0  0  0  0  0  0
   -2.1758    0.7976    0.0000 C   0  0  0  0  0  0  0  0  0  0  0  0
    4.0219    2.7898    0.0000 C   0  0  0  0  0  0  0  0  0  0  0  0
    3.0822    1.8376    0.0000 C   0  0  0  0  0  0  0  0  0  0  0  0
   -2.6896    2.3638    0.0000 C   0  0  0  0  0  0  0  0  0  0  0  0
   -2.9777    0.9647    0.0000 C   0  0  0  0  0  0  0  0  0  0  0  0
   -3.2326    1.7499    0.0000 C   0  0  0  0  0  0  0  0  0  0  0  0
    1.8084    2.9652    0.0000 C   0  0  0  0  0  0  0  0  0  0  0  0
    1.1945    3.5081    0.0000 C   0  0  0  0  0  0  0  0  0  0  0  0
   -3.5290    0.3508    0.0000 O   0  0  0  0  0  0  0  0  0  0  0  0
   -0.1963    3.8088    0.0000 O   0  0  0  0  0  0  0  0  0  0  0  0
   -4.0427    1.9253    0.0000 O   0  0  0  0  0  0  0  0  0  0  0  0
    4.4103    2.0632    0.0000 C   0  0  0  0  0  0  0  0  0  0  0  0
    3.8381    1.4742    0.0000 C   0  0  0  0  0  0  0  0  0  0  0  0
    4.3978    3.5290    0.0000 O   0  0  0  0  0  0  0  0  0  0  0  0
    2.3471    1.4617    0.0000 O   0  0  0  0  0  0  0  0  0  0  0  0
   -0.3216    0.7392    0.0000 C   0  0  0  0  0  0  0  0  0  0  0  0
    0.4929    0.8227    0.0000 C   0  0  0  0  0  0  0  0  0  0  0  0
    0.8311    1.5870    0.0000 C   0  0  0  0  0  0  0  0  0  0  0  0
    2.7732    4.0093    0.0000 C   0  0  0  0  0  0  0  0  0  0  0  0
    1.3699    4.3143    0.0000 C   0  0  0  0  0  0  0  0  0  0  0  0
    2.1592    4.5649    0.0000 C   0  0  0  0  0  0  0  0  0  0  0  0
   -4.3434    0.5221    0.0000 C   0  0  0  0  0  0  0  0  0  0  0  0
   -4.5940    1.3113    0.0000 C   0  0  0  0  0  0  0  0  0  0  0  0
  2  1  2  0  0  0  0
  3  1  1  0  0  0  0
  4  9  1  0  0  0  0
  5  1  1  0  0  0  0
  6  3  1  0  0  0  0
  7  5  1  0  0  0  0
  8  2  1  0  0  0  0
  9 16  1  0  0  0  0
 10  6  1  0  0  0  0
 11  4  1  0  0  0  0
 12  4  1  0  0  0  0
 13  7  1  0  0  0  0
 14 10  2  0  0  0  0
 15 13  2  0  0  0  0
 16 17  2  0  0  0  0
 17  8  1  0  0  0  0
 18 14  1  0  0  0  0
 19  8  2  0  0  0  0
 20 15  1  0  0  0  0
 21 11  1  0  0  0  0
 22 12  1  0  0  0  0
 23 11  2  0  0  0  0
 24 12  2  0  0  0  0
 25  3  1  0  0  0  0
 26 25  1  0  0  0  0
 27 26  2  0  0  0  0
 28 30  1  0  0  0  0
 29 17  1  0  0  0  0
 30 29  2  0  0  0  0
 31 18  1  0  0  0  0
 32 20  1  0  0  0  0
  6  7  2  0  0  0  0
 14 15  1  0  0  0  0
 32 31  1  0  0  0  0
 28  9  2  0  0  0  0
 21 22  1  0  0  0  0
M  END
>  <IDNUMBER>
F2524-0807

>  <Chemical_Name>
3-(2,5-dioxopyrrolidin-1-yl)-N-[(5Z)-6-(prop-2-en-1-yl)-10,13-dioxa-4-thia-6-azatricyclo[7.4.0.0?,?]trideca-1(9),2,7-trien-5-ylidene]benzamide

>  <PriceCoeff>
1.00

>  <CAS>
905659-67-8

>  <MW>
449.48

>  <Description>
solid

>  <FSP3>
0.22

>  <clogP>
3.65

>  <TPSA>
113.81

>  <Acceptor>
5

>  <Donor>
0

>  <RotBonds>
5

>  <HAC>
32

>  <Collection>
General

>  <PPDS>
+

$$$$
F2524-0973
  Mrv2219 10102508112D          

 29 32  0  0  0  0            999 V2000
   -0.5470    2.1923    0.0000 C   0  0  0  0  0  0  0  0  0  0  0  0
   -0.8018    1.4031    0.0000 N   0  0  0  0  0  0  0  0  0  0  0  0
    1.3697    4.3136    0.0000 N   0  0  0  0  0  0  0  0  0  0  0  0
    0.2422    2.4512    0.0000 N   0  0  0  0  0  0  0  0  0  0  0  0
   -1.6286    1.4031    0.0000 C   0  0  0  0  0  0  0  0  0  0  0  0
   -1.2152    2.6766    0.0000 S   0  0  0  0  0  0  0  0  0  0  0  0
   -1.8791    2.1881    0.0000 C   0  0  0  0  0  0  0  0  0  0  0  0
   -2.1755    0.7975    0.0000 C   0  0  0  0  0  0  0  0  0  0  0  0
    2.1296    4.6393    0.0000 C   0  0  0  0  0  0  0  0  0  0  0  0
    0.8185    4.9149    0.0000 C   0  0  0  0  0  0  0  0  0  0  0  0
    0.4176    3.2529    0.0000 C   0  0  0  0  0  0  0  0  0  0  0  0
   -2.6892    2.3635    0.0000 C   0  0  0  0  0  0  0  0  0  0  0  0
   -2.9773    0.9646    0.0000 C   0  0  0  0  0  0  0  0  0  0  0  0
   -3.2321    1.7496    0.0000 C   0  0  0  0  0  0  0  0  0  0  0  0
    1.1943    3.5077    0.0000 C   0  0  0  0  0  0  0  0  0  0  0  0
   -0.3215    0.7391    0.0000 C   0  0  0  0  0  0  0  0  0  0  0  0
    0.4928    0.8226    0.0000 C   0  0  0  0  0  0  0  0  0  0  0  0
   -3.5285    0.3508    0.0000 O   0  0  0  0  0  0  0  0  0  0  0  0
   -4.0421    1.9250    0.0000 O   0  0  0  0  0  0  0  0  0  0  0  0
    1.2319    5.6290    0.0000 C   0  0  0  0  0  0  0  0  0  0  0  0
    2.0462    5.4619    0.0000 C   0  0  0  0  0  0  0  0  0  0  0  0
    0.0042    4.8481    0.0000 O   0  0  0  0  0  0  0  0  0  0  0  0
    2.8354    4.2217    0.0000 O   0  0  0  0  0  0  0  0  0  0  0  0
   -0.1962    3.8083    0.0000 O   0  0  0  0  0  0  0  0  0  0  0  0
    0.8310    1.5784    0.0000 O   0  0  0  0  0  0  0  0  0  0  0  0
    0.9813    0.1586    0.0000 O   0  0  0  0  0  0  0  0  0  0  0  0
   -4.3428    0.5219    0.0000 C   0  0  0  0  0  0  0  0  0  0  0  0
   -4.5933    1.3112    0.0000 C   0  0  0  0  0  0  0  0  0  0  0  0
    1.7956    0.2589    0.0000 C   0  0  0  0  0  0  0  0  0  0  0  0
  2  1  1  0  0  0  0
  3 15  1  0  0  0  0
  4  1  2  0  0  0  0
  5  2  1  0  0  0  0
  6  1  1  0  0  0  0
  7  6  1  0  0  0  0
  8  5  1  0  0  0  0
  9  3  1  0  0  0  0
 10  3  1  0  0  0  0
 11  4  1  0  0  0  0
 12  7  1  0  0  0  0
 13  8  2  0  0  0  0
 14 12  2  0  0  0  0
 15 11  1  0  0  0  0
 16  2  1  0  0  0  0
 17 16  1  0  0  0  0
 18 13  1  0  0  0  0
 19 14  1  0  0  0  0
 20 10  1  0  0  0  0
 21  9  1  0  0  0  0
 22 10  2  0  0  0  0
 23  9  2  0  0  0  0
 24 11  2  0  0  0  0
 25 17  2  0  0  0  0
 26 17  1  0  0  0  0
 27 18  1  0  0  0  0
 28 19  1  0  0  0  0
 29 26  1  0  0  0  0
  5  7  2  0  0  0  0
 13 14  1  0  0  0  0
 28 27  1  0  0  0  0
 21 20  1  0  0  0  0
M  END
>  <IDNUMBER>
F2524-0973

>  <Chemical_Name>
methyl 2-[(5Z)-5-{[2-(2,5-dioxopyrrolidin-1-yl)acetyl]imino}-10,13-dioxa-4-thia-6-azatricyclo[7.4.0.0?,?]trideca-1(9),2,7-trien-6-yl]acetate

>  <PriceCoeff>
1.00

>  <CAS>
905660-46-0

>  <MW>
419.41

>  <Description>
solid

>  <FSP3>
0.39

>  <clogP>
2.26

>  <TPSA>
140.11

>  <Acceptor>
7

>  <Donor>
0

>  <RotBonds>
6

>  <HAC>
29

>  <Collection>
General

>  <PPDS>
+

$$$$
F2524-0976
  Mrv2219 10102508112D          

 27 30  0  0  0  0            999 V2000
   -0.5470    2.1922    0.0000 C   0  0  0  0  0  0  0  0  0  0  0  0
    1.3697    4.3136    0.0000 N   0  0  0  0  0  0  0  0  0  0  0  0
   -0.8018    1.4031    0.0000 N   0  0  0  0  0  0  0  0  0  0  0  0
    0.2422    2.4512    0.0000 N   0  0  0  0  0  0  0  0  0  0  0  0
   -1.2151    2.6766    0.0000 S   0  0  0  0  0  0  0  0  0  0  0  0
   -1.6286    1.4031    0.0000 C   0  0  0  0  0  0  0  0  0  0  0  0
   -1.8791    2.1880    0.0000 C   0  0  0  0  0  0  0  0  0  0  0  0
   -2.1755    0.7975    0.0000 C   0  0  0  0  0  0  0  0  0  0  0  0
    2.1296    4.6393    0.0000 C   0  0  0  0  0  0  0  0  0  0  0  0
    0.8185    4.9150    0.0000 C   0  0  0  0  0  0  0  0  0  0  0  0
    0.4176    3.2529    0.0000 C   0  0  0  0  0  0  0  0  0  0  0  0
   -2.6892    2.3635    0.0000 C   0  0  0  0  0  0  0  0  0  0  0  0
   -2.9773    0.9646    0.0000 C   0  0  0  0  0  0  0  0  0  0  0  0
   -3.2321    1.7496    0.0000 C   0  0  0  0  0  0  0  0  0  0  0  0
    1.1943    3.5077    0.0000 C   0  0  0  0  0  0  0  0  0  0  0  0
    0.4928    0.8226    0.0000 C   0  0  0  0  0  0  0  0  0  0  0  0
    0.8393    1.5743    0.0000 C   0  0  0  0  0  0  0  0  0  0  0  0
   -3.5285    0.3507    0.0000 O   0  0  0  0  0  0  0  0  0  0  0  0
   -4.0422    1.9250    0.0000 O   0  0  0  0  0  0  0  0  0  0  0  0
    1.2318    5.6289    0.0000 C   0  0  0  0  0  0  0  0  0  0  0  0
    2.0461    5.4619    0.0000 C   0  0  0  0  0  0  0  0  0  0  0  0
    0.0042    4.8481    0.0000 O   0  0  0  0  0  0  0  0  0  0  0  0
    2.8354    4.2217    0.0000 O   0  0  0  0  0  0  0  0  0  0  0  0
   -0.1962    3.8083    0.0000 O   0  0  0  0  0  0  0  0  0  0  0  0
   -0.3215    0.7391    0.0000 C   0  0  0  0  0  0  0  0  0  0  0  0
   -4.5933    1.3111    0.0000 C   0  0  0  0  0  0  0  0  0  0  0  0
   -4.3428    0.5220    0.0000 C   0  0  0  0  0  0  0  0  0  0  0  0
  2 15  1  0  0  0  0
  3  1  1  0  0  0  0
  4  1  2  0  0  0  0
  5  1  1  0  0  0  0
  6  3  1  0  0  0  0
  7  5  1  0  0  0  0
  8  6  1  0  0  0  0
  9  2  1  0  0  0  0
 10  2  1  0  0  0  0
 11  4  1  0  0  0  0
 12  7  1  0  0  0  0
 13  8  2  0  0  0  0
 14 12  2  0  0  0  0
 15 11  1  0  0  0  0
 16 25  1  0  0  0  0
 17 16  3  0  0  0  0
 18 13  1  0  0  0  0
 19 14  1  0  0  0  0
 20 10  1  0  0  0  0
 21  9  1  0  0  0  0
 22 10  2  0  0  0  0
 23  9  2  0  0  0  0
 24 11  2  0  0  0  0
 25  3  1  0  0  0  0
 26 19  1  0  0  0  0
 27 18  1  0  0  0  0
  6  7  2  0  0  0  0
 13 14  1  0  0  0  0
 21 20  1  0  0  0  0
 26 27  1  0  0  0  0
M  END
>  <IDNUMBER>
F2524-0976

>  <Chemical_Name>
2-(2,5-dioxopyrrolidin-1-yl)-N-[(5Z)-6-(prop-2-yn-1-yl)-10,13-dioxa-4-thia-6-azatricyclo[7.4.0.0?,?]trideca-1(9),2,7-trien-5-ylidene]acetamide

>  <PriceCoeff>
1.00

>  <CAS>
905660-62-0

>  <MW>
385.39

>  <Description>
solid

>  <FSP3>
0.33

>  <clogP>
2.80

>  <TPSA>
113.81

>  <Acceptor>
5

>  <Donor>
0

>  <RotBonds>
5

>  <HAC>
27

>  <Collection>
General

>  <PPDS>
+

$$$$
F2527-0077
  Mrv2219 10102508112D          

 24 25  0  0  0  0            999 V2000
   -2.8263    2.8126    0.0000 N   0  0  0  0  0  0  0  0  0  0  0  0
   -3.5409    3.2248    0.0000 C   0  0  0  0  0  0  0  0  0  0  0  0
   -2.8263    1.9880    0.0000 C   0  0  0  0  0  0  0  0  0  0  0  0
    0.0321    6.9445    0.0000 N   0  3  0  0  0  0  0  0  0  0  0  0
   -0.6825    6.5276    0.0000 C   0  0  0  0  0  0  0  0  0  0  0  0
   -3.5409    1.5758    0.0000 N   0  0  0  0  0  0  0  0  0  0  0  0
   -4.2555    1.9880    0.0000 N   0  0  0  0  0  0  0  0  0  0  0  0
   -4.2555    2.8126    0.0000 C   0  0  0  0  0  0  0  0  0  0  0  0
   -2.1117    3.2295    0.0000 C   0  0  0  0  0  0  0  0  0  0  0  0
   -0.6825    5.7031    0.0000 C   0  0  0  0  0  0  0  0  0  0  0  0
   -1.3971    4.4663    0.0000 C   0  0  0  0  0  0  0  0  0  0  0  0
   -2.1117    4.0540    0.0000 O   0  0  0  0  0  0  0  0  0  0  0  0
   -1.3971    5.2908    0.0000 C   0  0  0  0  0  0  0  0  0  0  0  0
   -1.3971    6.9399    0.0000 C   0  0  0  0  0  0  0  0  0  0  0  0
    0.7467    6.5322    0.0000 O   0  5  0  0  0  0  0  0  0  0  0  0
    0.0321    7.7691    0.0000 O   0  0  0  0  0  0  0  0  0  0  0  0
   -3.5409    4.0494    0.0000 O   0  0  0  0  0  0  0  0  0  0  0  0
   -0.6825    4.0540    0.0000 O   0  0  0  0  0  0  0  0  0  0  0  0
   -2.1117    1.5758    0.0000 S   0  0  0  0  0  0  0  0  0  0  0  0
   -2.1117    5.7031    0.0000 C   0  0  0  0  0  0  0  0  0  0  0  0
   -2.1117    6.5276    0.0000 C   0  0  0  0  0  0  0  0  0  0  0  0
   -1.3971    7.7644    0.0000 Cl  0  0  0  0  0  0  0  0  0  0  0  0
   -4.9701    3.2386    0.0000 C   0  0  0  0  0  0  0  0  0  0  0  0
   -2.1117    0.7512    0.0000 C   0  0  0  0  0  0  0  0  0  0  0  0
  2  1  1  0  0  0  0
  3  1  1  0  0  0  0
  4  5  1  0  0  0  0
  5 10  2  0  0  0  0
  6  3  2  0  0  0  0
  7  6  1  0  0  0  0
  8  2  1  0  0  0  0
  9  1  1  0  0  0  0
 10 13  1  0  0  0  0
 11 12  1  0  0  0  0
 12  9  1  0  0  0  0
 13 11  1  0  0  0  0
 14 21  2  0  0  0  0
 15  4  1  0  0  0  0
 16  4  2  0  0  0  0
 17  2  2  0  0  0  0
 18 11  2  0  0  0  0
 19  3  1  0  0  0  0
 20 13  2  0  0  0  0
 21 20  1  0  0  0  0
 22 14  1  0  0  0  0
 23  8  1  0  0  0  0
 24 19  1  0  0  0  0
  7  8  2  0  0  0  0
  5 14  1  0  0  0  0
M  CHG  2   4   1  15  -1
M  END
>  <IDNUMBER>
F2527-0077

>  <Chemical_Name>
[6-methyl-3-(methylsulfanyl)-5-oxo-4,5-dihydro-1,2,4-triazin-4-yl]methyl 4-chloro-3-nitrobenzoate

>  <PriceCoeff>
1.00

>  <CAS>
877643-22-6

>  <MW>
370.77

>  <Description>
solid

>  <FSP3>
0.23

>  <clogP>
1.53

>  <TPSA>
139.77

>  <Acceptor>
7

>  <Donor>
1

>  <RotBonds>
6

>  <HAC>
24

>  <Collection>
General

>  <PPDS>
+

$$$$
F2532-0077
  Mrv2219 10102508112D          

 31 33  0  0  0  0            999 V2000
    2.0828    1.7169    0.0000 C   0  0  0  0  0  0  0  0  0  0  0  0
   -5.2091    6.2651    0.0000 N   0  3  0  0  0  0  0  0  0  0  0  0
   -5.2091    5.4503    0.0000 C   0  0  0  0  0  0  0  0  0  0  0  0
    1.4135    1.2347    0.0000 S   0  0  0  0  0  0  0  0  0  0  0  0
   -3.0307    2.5526    0.0000 C   0  0  0  0  0  0  0  0  0  0  0  0
    0.7483    1.7169    0.0000 C   0  0  0  0  0  0  0  0  0  0  0  0
    1.8251    2.5027    0.0000 N   0  0  0  0  0  0  0  0  0  0  0  0
    1.0020    2.5027    0.0000 N   0  0  0  0  0  0  0  0  0  0  0  0
    2.9060    1.7169    0.0000 N   0  0  0  0  0  0  0  0  0  0  0  0
   -2.3281    2.9766    0.0000 C   0  0  0  0  0  0  0  0  0  0  0  0
   -3.7499    3.7915    0.0000 C   0  0  0  0  0  0  0  0  0  0  0  0
   -1.6172    2.5526    0.0000 C   0  0  0  0  0  0  0  0  0  0  0  0
   -4.4775    5.0179    0.0000 C   0  0  0  0  0  0  0  0  0  0  0  0
   -3.7499    2.9641    0.0000 O   0  0  0  0  0  0  0  0  0  0  0  0
   -3.0307    1.7294    0.0000 C   0  0  0  0  0  0  0  0  0  0  0  0
   -4.4733    4.2031    0.0000 C   0  0  0  0  0  0  0  0  0  0  0  0
   -2.3281    1.3220    0.0000 O   0  0  0  0  0  0  0  0  0  0  0  0
   -1.6172    1.7294    0.0000 C   0  0  0  0  0  0  0  0  0  0  0  0
    3.7291    1.7169    0.0000 C   0  0  0  0  0  0  0  0  0  0  0  0
   -5.9200    5.0137    0.0000 C   0  0  0  0  0  0  0  0  0  0  0  0
   -4.4899    6.6975    0.0000 O   0  5  0  0  0  0  0  0  0  0  0  0
   -5.9242    6.6767    0.0000 O   0  0  0  0  0  0  0  0  0  0  0  0
   -0.1954    1.7336    0.0000 S   0  0  0  0  0  0  0  0  0  0  0  0
   -3.0307    4.2031    0.0000 O   0  0  0  0  0  0  0  0  0  0  0  0
   -2.3281    3.7915    0.0000 O   0  0  0  0  0  0  0  0  0  0  0  0
   -5.1842    3.7873    0.0000 C   0  0  0  0  0  0  0  0  0  0  0  0
    3.7208    2.5401    0.0000 O   0  0  0  0  0  0  0  0  0  0  0  0
   -5.9117    4.1823    0.0000 C   0  0  0  0  0  0  0  0  0  0  0  0
   -0.9063    1.3178    0.0000 C   0  0  0  0  0  0  0  0  0  0  0  0
   -6.6268    5.4253    0.0000 Cl  0  0  0  0  0  0  0  0  0  0  0  0
    4.3153    1.1350    0.0000 C   0  0  0  0  0  0  0  0  0  0  0  0
  2  3  1  0  0  0  0
  3 13  2  0  0  0  0
  4  1  1  0  0  0  0
  5 15  2  0  0  0  0
  6  4  1  0  0  0  0
  7  1  2  0  0  0  0
  8  7  1  0  0  0  0
  9  1  1  0  0  0  0
 10 12  1  0  0  0  0
 11 14  1  0  0  0  0
 12 18  2  0  0  0  0
 13 16  1  0  0  0  0
 14  5  1  0  0  0  0
 15 17  1  0  0  0  0
 16 11  1  0  0  0  0
 17 18  1  0  0  0  0
 18 29  1  0  0  0  0
 19  9  1  0  0  0  0
 20 28  2  0  0  0  0
 21  2  1  0  0  0  0
 22  2  2  0  0  0  0
 23  6  1  0  0  0  0
 24 11  2  0  0  0  0
 25 10  2  0  0  0  0
 26 16  2  0  0  0  0
 27 19  2  0  0  0  0
 28 26  1  0  0  0  0
 29 23  1  0  0  0  0
 30 20  1  0  0  0  0
 31 19  1  0  0  0  0
  6  8  2  0  0  0  0
  5 10  1  0  0  0  0
  3 20  1  0  0  0  0
M  CHG  2   2   1  21  -1
M  END
>  <IDNUMBER>
F2532-0077

>  <Chemical_Name>
6-{[(5-acetamido-1,3,4-thiadiazol-2-yl)sulfanyl]methyl}-4-oxo-4H-pyran-3-yl 4-chloro-3-nitrobenzoate

>  <PriceCoeff>
1.00

>  <CAS>
896016-49-2

>  <MW>
482.87

>  <Description>
solid

>  <FSP3>
0.12

>  <clogP>
1.76

>  <TPSA>
204.16

>  <Acceptor>
9

>  <Donor>
1

>  <RotBonds>
8

>  <HAC>
31

>  <Collection>
General

>  <PPDS>
+

$$$$
F2532-0231
  Mrv2219 10102508112D          

 32 34  0  0  0  0            999 V2000
    2.0807    1.7152    0.0000 C   0  0  0  0  0  0  0  0  0  0  0  0
   -5.2038    6.2587    0.0000 N   0  3  0  0  0  0  0  0  0  0  0  0
   -5.2038    5.4447    0.0000 C   0  0  0  0  0  0  0  0  0  0  0  0
    1.4121    1.2335    0.0000 S   0  0  0  0  0  0  0  0  0  0  0  0
   -3.0276    2.5500    0.0000 C   0  0  0  0  0  0  0  0  0  0  0  0
    0.7476    1.7152    0.0000 C   0  0  0  0  0  0  0  0  0  0  0  0
    1.8232    2.5001    0.0000 N   0  0  0  0  0  0  0  0  0  0  0  0
    1.0009    2.5001    0.0000 N   0  0  0  0  0  0  0  0  0  0  0  0
    2.9030    1.7152    0.0000 N   0  0  0  0  0  0  0  0  0  0  0  0
   -2.3257    2.9736    0.0000 C   0  0  0  0  0  0  0  0  0  0  0  0
   -3.7460    3.7876    0.0000 C   0  0  0  0  0  0  0  0  0  0  0  0
   -1.6155    2.5500    0.0000 C   0  0  0  0  0  0  0  0  0  0  0  0
   -4.4729    5.0128    0.0000 C   0  0  0  0  0  0  0  0  0  0  0  0
   -3.7460    2.9611    0.0000 O   0  0  0  0  0  0  0  0  0  0  0  0
   -3.0276    1.7276    0.0000 C   0  0  0  0  0  0  0  0  0  0  0  0
   -4.4687    4.1988    0.0000 C   0  0  0  0  0  0  0  0  0  0  0  0
   -2.3257    1.3207    0.0000 O   0  0  0  0  0  0  0  0  0  0  0  0
   -1.6155    1.7276    0.0000 C   0  0  0  0  0  0  0  0  0  0  0  0
    3.7253    1.7152    0.0000 C   0  0  0  0  0  0  0  0  0  0  0  0
   -5.9140    5.0086    0.0000 C   0  0  0  0  0  0  0  0  0  0  0  0
   -4.4853    6.6906    0.0000 O   0  5  0  0  0  0  0  0  0  0  0  0
   -5.9181    6.6699    0.0000 O   0  0  0  0  0  0  0  0  0  0  0  0
   -0.1952    1.7318    0.0000 S   0  0  0  0  0  0  0  0  0  0  0  0
   -3.0276    4.1988    0.0000 O   0  0  0  0  0  0  0  0  0  0  0  0
   -2.3257    3.7876    0.0000 O   0  0  0  0  0  0  0  0  0  0  0  0
   -5.1789    3.7834    0.0000 C   0  0  0  0  0  0  0  0  0  0  0  0
    3.7170    2.5375    0.0000 O   0  0  0  0  0  0  0  0  0  0  0  0
   -5.9057    4.1780    0.0000 C   0  0  0  0  0  0  0  0  0  0  0  0
   -0.9053    1.3165    0.0000 C   0  0  0  0  0  0  0  0  0  0  0  0
   -6.6200    5.4198    0.0000 Cl  0  0  0  0  0  0  0  0  0  0  0  0
    4.3109    1.1338    0.0000 C   0  0  0  0  0  0  0  0  0  0  0  0
    5.1083    1.3539    0.0000 C   0  0  0  0  0  0  0  0  0  0  0  0
  2  3  1  0  0  0  0
  3 13  2  0  0  0  0
  4  1  1  0  0  0  0
  5 15  2  0  0  0  0
  6  4  1  0  0  0  0
  7  1  2  0  0  0  0
  8  7  1  0  0  0  0
  9  1  1  0  0  0  0
 10 12  1  0  0  0  0
 11 14  1  0  0  0  0
 12 18  2  0  0  0  0
 13 16  1  0  0  0  0
 14  5  1  0  0  0  0
 15 17  1  0  0  0  0
 16 11  1  0  0  0  0
 17 18  1  0  0  0  0
 18 29  1  0  0  0  0
 19  9  1  0  0  0  0
 20 28  2  0  0  0  0
 21  2  1  0  0  0  0
 22  2  2  0  0  0  0
 23  6  1  0  0  0  0
 24 11  2  0  0  0  0
 25 10  2  0  0  0  0
 26 16  2  0  0  0  0
 27 19  2  0  0  0  0
 28 26  1  0  0  0  0
 29 23  1  0  0  0  0
 30 20  1  0  0  0  0
 31 19  1  0  0  0  0
 32 31  1  0  0  0  0
  6  8  2  0  0  0  0
  5 10  1  0  0  0  0
  3 20  1  0  0  0  0
M  CHG  2   2   1  21  -1
M  END
>  <IDNUMBER>
F2532-0231

>  <Chemical_Name>
4-oxo-6-{[(5-propanamido-1,3,4-thiadiazol-2-yl)sulfanyl]methyl}-4H-pyran-3-yl 4-chloro-3-nitrobenzoate

>  <PriceCoeff>
1.00

>  <CAS>
896006-39-6

>  <MW>
496.90

>  <Description>
solid

>  <FSP3>
0.17

>  <clogP>
2.29

>  <TPSA>
204.16

>  <Acceptor>
9

>  <Donor>
1

>  <RotBonds>
9

>  <HAC>
32

>  <Collection>
General

>  <PPDS>
+

$$$$
F2532-0448
  Mrv2219 10102508112D          

 33 36  0  0  0  0            999 V2000
    2.0830    1.7171    0.0000 C   0  0  0  0  0  0  0  0  0  0  0  0
    1.4137    1.2348    0.0000 S   0  0  0  0  0  0  0  0  0  0  0  0
    2.9063    1.7171    0.0000 N   0  0  0  0  0  0  0  0  0  0  0  0
   -3.0310    2.5528    0.0000 C   0  0  0  0  0  0  0  0  0  0  0  0
    0.7484    1.7171    0.0000 C   0  0  0  0  0  0  0  0  0  0  0  0
    1.8253    2.5029    0.0000 N   0  0  0  0  0  0  0  0  0  0  0  0
    1.0020    2.5029    0.0000 N   0  0  0  0  0  0  0  0  0  0  0  0
   -3.7502    3.7919    0.0000 C   0  0  0  0  0  0  0  0  0  0  0  0
    3.7295    1.7171    0.0000 C   0  0  0  0  0  0  0  0  0  0  0  0
   -2.3283    2.9769    0.0000 C   0  0  0  0  0  0  0  0  0  0  0  0
   -1.6173    2.5528    0.0000 C   0  0  0  0  0  0  0  0  0  0  0  0
   -3.7502    2.9644    0.0000 O   0  0  0  0  0  0  0  0  0  0  0  0
   -4.4737    4.2035    0.0000 C   0  0  0  0  0  0  0  0  0  0  0  0
    4.3157    1.1351    0.0000 C   0  0  0  0  0  0  0  0  0  0  0  0
   -5.1971    3.7919    0.0000 C   0  0  0  0  0  0  0  0  0  0  0  0
   -3.0310    1.7296    0.0000 C   0  0  0  0  0  0  0  0  0  0  0  0
   -5.1971    2.9562    0.0000 C   0  0  0  0  0  0  0  0  0  0  0  0
   -1.6173    1.7296    0.0000 C   0  0  0  0  0  0  0  0  0  0  0  0
   -2.3283    1.3222    0.0000 O   0  0  0  0  0  0  0  0  0  0  0  0
    5.1140    0.9313    0.0000 C   0  0  0  0  0  0  0  0  0  0  0  0
    4.5278    0.3326    0.0000 C   0  0  0  0  0  0  0  0  0  0  0  0
   -0.1954    1.7338    0.0000 S   0  0  0  0  0  0  0  0  0  0  0  0
   -3.0310    4.1952    0.0000 O   0  0  0  0  0  0  0  0  0  0  0  0
    3.7212    2.5403    0.0000 O   0  0  0  0  0  0  0  0  0  0  0  0
   -2.3283    3.7919    0.0000 O   0  0  0  0  0  0  0  0  0  0  0  0
   -4.4737    2.5403    0.0000 O   0  0  0  0  0  0  0  0  0  0  0  0
   -0.9064    1.3180    0.0000 C   0  0  0  0  0  0  0  0  0  0  0  0
   -5.9123    2.5403    0.0000 O   0  0  0  0  0  0  0  0  0  0  0  0
   -4.4737    5.0184    0.0000 C   0  0  0  0  0  0  0  0  0  0  0  0
   -5.9123    4.1952    0.0000 C   0  0  0  0  0  0  0  0  0  0  0  0
   -6.6233    2.9562    0.0000 C   0  0  0  0  0  0  0  0  0  0  0  0
   -5.9081    5.0184    0.0000 C   0  0  0  0  0  0  0  0  0  0  0  0
   -5.1971    5.4383    0.0000 C   0  0  0  0  0  0  0  0  0  0  0  0
  2  1  1  0  0  0  0
  3  1  1  0  0  0  0
  4 16  2  0  0  0  0
  5  2  1  0  0  0  0
  6  1  2  0  0  0  0
  7  6  1  0  0  0  0
  8 12  1  0  0  0  0
  9  3  1  0  0  0  0
 10 11  1  0  0  0  0
 11 18  2  0  0  0  0
 12  4  1  0  0  0  0
 13  8  1  0  0  0  0
 14  9  1  0  0  0  0
 15 13  1  0  0  0  0
 16 19  1  0  0  0  0
 17 15  1  0  0  0  0
 18 27  1  0  0  0  0
 19 18  1  0  0  0  0
 20 14  1  0  0  0  0
 21 14  1  0  0  0  0
 22  5  1  0  0  0  0
 23  8  2  0  0  0  0
 24  9  2  0  0  0  0
 25 10  2  0  0  0  0
 26 17  2  0  0  0  0
 27 22  1  0  0  0  0
 28 17  1  0  0  0  0
 29 13  2  0  0  0  0
 30 15  2  0  0  0  0
 31 28  1  0  0  0  0
 32 33  2  0  0  0  0
 33 29  1  0  0  0  0
  5  7  2  0  0  0  0
 21 20  1  0  0  0  0
  4 10  1  0  0  0  0
 32 30  1  0  0  0  0
M  END
>  <IDNUMBER>
F2532-0448

>  <Chemical_Name>
1-(6-{[(5-cyclopropaneamido-1,3,4-thiadiazol-2-yl)sulfanyl]methyl}-4-oxo-4H-pyran-3-yl) 2-methyl benzene-1,2-dicarboxylate

>  <PriceCoeff>
1.00

>  <CAS>
877651-63-3

>  <MW>
487.51

>  <Description>
solid

>  <FSP3>
0.24

>  <clogP>
1.49

>  <TPSA>
187.32

>  <Acceptor>
9

>  <Donor>
1

>  <RotBonds>
10

>  <HAC>
33

>  <Collection>
General

>  <PPDS>
+

$$$$
F2545-0216
  Mrv2219 10102508112D          

 22 23  0  0  0  0            999 V2000
   -3.9068    1.2607    0.0000 S   0  0  0  0  0  0  0  0  0  0  0  0
    0.9278    3.0580    0.0000 N   0  3  0  0  0  0  0  0  0  0  0  0
    0.1623    3.3659    0.0000 C   0  0  0  0  0  0  0  0  0  0  0  0
   -1.9097    2.6586    0.0000 C   0  0  0  0  0  0  0  0  0  0  0  0
   -3.2577    1.6351    0.0000 C   0  0  0  0  0  0  0  0  0  0  0  0
   -2.6794    2.9789    0.0000 N   0  0  0  0  0  0  0  0  0  0  0  0
   -0.4951    2.8583    0.0000 C   0  0  0  0  0  0  0  0  0  0  0  0
   -1.2565    3.1662    0.0000 C   0  0  0  0  0  0  0  0  0  0  0  0
   -3.2577    2.3923    0.0000 C   0  0  0  0  0  0  0  0  0  0  0  0
    0.0374    4.1856    0.0000 C   0  0  0  0  0  0  0  0  0  0  0  0
   -3.3783    0.7322    0.0000 O   0  0  0  0  0  0  0  0  0  0  0  0
   -4.5558    0.8945    0.0000 O   0  0  0  0  0  0  0  0  0  0  0  0
    1.0485    2.2467    0.0000 O   0  5  0  0  0  0  0  0  0  0  0  0
   -4.5516    2.3923    0.0000 C   0  0  0  0  0  0  0  0  0  0  0  0
    1.5769    3.5780    0.0000 O   0  0  0  0  0  0  0  0  0  0  0  0
   -4.5516    1.6351    0.0000 C   0  0  0  0  0  0  0  0  0  0  0  0
   -1.8057    1.8431    0.0000 O   0  0  0  0  0  0  0  0  0  0  0  0
   -1.3813    3.9817    0.0000 C   0  0  0  0  0  0  0  0  0  0  0  0
   -0.7322    4.4934    0.0000 C   0  0  0  0  0  0  0  0  0  0  0  0
    0.6782    4.6931    0.0000 Cl  0  0  0  0  0  0  0  0  0  0  0  0
   -2.8416    3.7778    0.0000 C   0  0  0  0  0  0  0  0  0  0  0  0
   -3.6197    4.0358    0.0000 C   0  0  0  0  0  0  0  0  0  0  0  0
  2  3  1  0  0  0  0
  3  7  2  0  0  0  0
  4  6  1  0  0  0  0
  5  1  1  0  0  0  0
  6  9  1  0  0  0  0
  7  8  1  0  0  0  0
  8  4  1  0  0  0  0
  9  5  1  0  0  0  0
 10 19  2  0  0  0  0
 11  1  2  0  0  0  0
 12  1  2  0  0  0  0
 13  2  1  0  0  0  0
 14 16  1  0  0  0  0
 15  2  2  0  0  0  0
 16  1  1  0  0  0  0
 17  4  2  0  0  0  0
 18  8  2  0  0  0  0
 19 18  1  0  0  0  0
 20 10  1  0  0  0  0
 21  6  1  0  0  0  0
 22 21  1  0  0  0  0
  9 14  1  0  0  0  0
  3 10  1  0  0  0  0
M  CHG  2   2   1  13  -1
M  END
>  <IDNUMBER>
F2545-0216

>  <Chemical_Name>
4-chloro-N-(1,1-dioxo-1??-thiolan-3-yl)-N-ethyl-3-nitrobenzamide

>  <PriceCoeff>
1.00

>  <CAS>
898425-62-2

>  <MW>
346.79

>  <Description>
solid

>  <FSP3>
0.46

>  <clogP>
0.69

>  <TPSA>
105.97

>  <Acceptor>
5

>  <Donor>
0

>  <RotBonds>
5

>  <HAC>
22

>  <Collection>
General

>  <PPDS>
+

$$$$
F2545-0217
  Mrv2219 10102508112D          

 24 25  0  0  0  0            999 V2000
   -3.9068    1.2607    0.0000 S   0  0  0  0  0  0  0  0  0  0  0  0
    0.9278    3.0580    0.0000 N   0  3  0  0  0  0  0  0  0  0  0  0
    0.1623    3.3659    0.0000 C   0  0  0  0  0  0  0  0  0  0  0  0
   -1.9097    2.6586    0.0000 C   0  0  0  0  0  0  0  0  0  0  0  0
   -3.2577    1.6351    0.0000 C   0  0  0  0  0  0  0  0  0  0  0  0
   -2.6794    2.9789    0.0000 N   0  0  0  0  0  0  0  0  0  0  0  0
   -0.4951    2.8583    0.0000 C   0  0  0  0  0  0  0  0  0  0  0  0
   -1.2565    3.1662    0.0000 C   0  0  0  0  0  0  0  0  0  0  0  0
   -3.2577    2.3923    0.0000 C   0  0  0  0  0  0  0  0  0  0  0  0
    0.0374    4.1856    0.0000 C   0  0  0  0  0  0  0  0  0  0  0  0
   -3.3783    0.7322    0.0000 O   0  0  0  0  0  0  0  0  0  0  0  0
   -4.5558    0.8945    0.0000 O   0  0  0  0  0  0  0  0  0  0  0  0
    1.0485    2.2467    0.0000 O   0  5  0  0  0  0  0  0  0  0  0  0
   -4.5516    2.3923    0.0000 C   0  0  0  0  0  0  0  0  0  0  0  0
    1.5769    3.5780    0.0000 O   0  0  0  0  0  0  0  0  0  0  0  0
   -4.5516    1.6351    0.0000 C   0  0  0  0  0  0  0  0  0  0  0  0
   -1.8057    1.8431    0.0000 O   0  0  0  0  0  0  0  0  0  0  0  0
   -1.3813    3.9817    0.0000 C   0  0  0  0  0  0  0  0  0  0  0  0
   -0.7322    4.4934    0.0000 C   0  0  0  0  0  0  0  0  0  0  0  0
    0.6782    4.6931    0.0000 Cl  0  0  0  0  0  0  0  0  0  0  0  0
   -2.8416    3.7778    0.0000 C   0  0  0  0  0  0  0  0  0  0  0  0
   -3.6197    4.0358    0.0000 C   0  0  0  0  0  0  0  0  0  0  0  0
   -4.2396    3.5032    0.0000 C   0  0  0  0  0  0  0  0  0  0  0  0
   -5.0259    3.7695    0.0000 C   0  0  0  0  0  0  0  0  0  0  0  0
  2  3  1  0  0  0  0
  3  7  2  0  0  0  0
  4  6  1  0  0  0  0
  5  1  1  0  0  0  0
  6  9  1  0  0  0  0
  7  8  1  0  0  0  0
  8  4  1  0  0  0  0
  9  5  1  0  0  0  0
 10 19  2  0  0  0  0
 11  1  2  0  0  0  0
 12  1  2  0  0  0  0
 13  2  1  0  0  0  0
 14 16  1  0  0  0  0
 15  2  2  0  0  0  0
 16  1  1  0  0  0  0
 17  4  2  0  0  0  0
 18  8  2  0  0  0  0
 19 18  1  0  0  0  0
 20 10  1  0  0  0  0
 21  6  1  0  0  0  0
 22 21  1  0  0  0  0
 23 22  1  0  0  0  0
 24 23  1  0  0  0  0
  9 14  1  0  0  0  0
  3 10  1  0  0  0  0
M  CHG  2   2   1  13  -1
M  END
>  <IDNUMBER>
F2545-0217

>  <Chemical_Name>
N-butyl-4-chloro-N-(1,1-dioxo-1??-thiolan-3-yl)-3-nitrobenzamide

>  <PriceCoeff>
1.00

>  <CAS>
898405-36-2

>  <MW>
374.84

>  <Description>
solid

>  <FSP3>
0.53

>  <clogP>
1.75

>  <TPSA>
105.97

>  <Acceptor>
5

>  <Donor>
0

>  <RotBonds>
7

>  <HAC>
24

>  <Collection>
General

>  <PPDS>
+

$$$$
F2545-0218
  Mrv2219 10102508112D          

 24 25  0  0  0  0            999 V2000
   -3.9068    1.2607    0.0000 S   0  0  0  0  0  0  0  0  0  0  0  0
    0.9278    3.0580    0.0000 N   0  3  0  0  0  0  0  0  0  0  0  0
    0.1623    3.3659    0.0000 C   0  0  0  0  0  0  0  0  0  0  0  0
   -1.9097    2.6586    0.0000 C   0  0  0  0  0  0  0  0  0  0  0  0
   -2.6794    2.9789    0.0000 N   0  0  0  0  0  0  0  0  0  0  0  0
   -3.2577    1.6351    0.0000 C   0  0  0  0  0  0  0  0  0  0  0  0
   -0.4951    2.8583    0.0000 C   0  0  0  0  0  0  0  0  0  0  0  0
   -1.2565    3.1662    0.0000 C   0  0  0  0  0  0  0  0  0  0  0  0
   -3.2577    2.3923    0.0000 C   0  0  0  0  0  0  0  0  0  0  0  0
    0.0374    4.1856    0.0000 C   0  0  0  0  0  0  0  0  0  0  0  0
   -3.3783    0.7322    0.0000 O   0  0  0  0  0  0  0  0  0  0  0  0
   -4.5558    0.8945    0.0000 O   0  0  0  0  0  0  0  0  0  0  0  0
    1.0485    2.2467    0.0000 O   0  5  0  0  0  0  0  0  0  0  0  0
   -4.5516    2.3923    0.0000 C   0  0  0  0  0  0  0  0  0  0  0  0
    1.5769    3.5780    0.0000 O   0  0  0  0  0  0  0  0  0  0  0  0
   -4.5516    1.6351    0.0000 C   0  0  0  0  0  0  0  0  0  0  0  0
   -2.8416    3.7778    0.0000 C   0  0  0  0  0  0  0  0  0  0  0  0
   -1.8057    1.8431    0.0000 O   0  0  0  0  0  0  0  0  0  0  0  0
   -1.3813    3.9817    0.0000 C   0  0  0  0  0  0  0  0  0  0  0  0
   -0.7322    4.4934    0.0000 C   0  0  0  0  0  0  0  0  0  0  0  0
    0.6782    4.6931    0.0000 Cl  0  0  0  0  0  0  0  0  0  0  0  0
   -3.6322    4.0358    0.0000 C   0  0  0  0  0  0  0  0  0  0  0  0
   -3.9068    4.8054    0.0000 C   0  0  0  0  0  0  0  0  0  0  0  0
   -4.3644    3.6654    0.0000 C   0  0  0  0  0  0  0  0  0  0  0  0
  2  3  1  0  0  0  0
  3  7  2  0  0  0  0
  4  5  1  0  0  0  0
  5  9  1  0  0  0  0
  6  1  1  0  0  0  0
  7  8  1  0  0  0  0
  8  4  1  0  0  0  0
  9  6  1  0  0  0  0
 10 20  2  0  0  0  0
 11  1  2  0  0  0  0
 12  1  2  0  0  0  0
 13  2  1  0  0  0  0
 14 16  1  0  0  0  0
 15  2  2  0  0  0  0
 16  1  1  0  0  0  0
 17  5  1  0  0  0  0
 18  4  2  0  0  0  0
 19  8  2  0  0  0  0
 20 19  1  0  0  0  0
 21 10  1  0  0  0  0
 22 17  1  0  0  0  0
 23 22  1  0  0  0  0
 24 22  1  0  0  0  0
  9 14  1  0  0  0  0
  3 10  1  0  0  0  0
M  CHG  2   2   1  13  -1
M  END
>  <IDNUMBER>
F2545-0218

>  <Chemical_Name>
4-chloro-N-(1,1-dioxo-1??-thiolan-3-yl)-N-(2-methylpropyl)-3-nitrobenzamide

>  <PriceCoeff>
1.00

>  <CAS>
874787-74-3

>  <MW>
374.84

>  <Description>
solid

>  <FSP3>
0.53

>  <clogP>
1.62

>  <TPSA>
105.97

>  <Acceptor>
5

>  <Donor>
0

>  <RotBonds>
6

>  <HAC>
24

>  <Collection>
General

>  <PPDS>
+

$$$$
F2545-0219
  Mrv2219 10102508112D          

 21 22  0  0  0  0            999 V2000
   -3.9028    1.2594    0.0000 S   0  0  0  0  0  0  0  0  0  0  0  0
    0.9269    3.0549    0.0000 N   0  3  0  0  0  0  0  0  0  0  0  0
    0.1621    3.3624    0.0000 C   0  0  0  0  0  0  0  0  0  0  0  0
   -1.9078    2.6559    0.0000 C   0  0  0  0  0  0  0  0  0  0  0  0
   -0.4946    2.8554    0.0000 C   0  0  0  0  0  0  0  0  0  0  0  0
   -3.2544    1.6334    0.0000 C   0  0  0  0  0  0  0  0  0  0  0  0
   -1.2552    3.1629    0.0000 C   0  0  0  0  0  0  0  0  0  0  0  0
   -2.6766    2.9759    0.0000 N   0  0  0  0  0  0  0  0  0  0  0  0
    0.0374    4.1813    0.0000 C   0  0  0  0  0  0  0  0  0  0  0  0
   -3.3749    0.7315    0.0000 O   0  0  0  0  0  0  0  0  0  0  0  0
   -4.5512    0.8936    0.0000 O   0  0  0  0  0  0  0  0  0  0  0  0
    1.0474    2.2444    0.0000 O   0  5  0  0  0  0  0  0  0  0  0  0
    1.5753    3.5744    0.0000 O   0  0  0  0  0  0  0  0  0  0  0  0
   -3.2544    2.3899    0.0000 C   0  0  0  0  0  0  0  0  0  0  0  0
   -4.5470    1.6334    0.0000 C   0  0  0  0  0  0  0  0  0  0  0  0
   -1.8038    1.8412    0.0000 O   0  0  0  0  0  0  0  0  0  0  0  0
   -1.3799    3.9776    0.0000 C   0  0  0  0  0  0  0  0  0  0  0  0
   -0.7315    4.4888    0.0000 C   0  0  0  0  0  0  0  0  0  0  0  0
   -4.5470    2.3899    0.0000 C   0  0  0  0  0  0  0  0  0  0  0  0
    0.6775    4.6883    0.0000 Cl  0  0  0  0  0  0  0  0  0  0  0  0
   -2.8387    3.7739    0.0000 H   0  0  0  0  0  0  0  0  0  0  0  0
  2  3  1  0  0  0  0
  3  5  2  0  0  0  0
  4  8  1  0  0  0  0
  5  7  1  0  0  0  0
  6  1  1  0  0  0  0
  7  4  1  0  0  0  0
  8 14  1  0  0  0  0
  9 18  2  0  0  0  0
 10  1  2  0  0  0  0
 11  1  2  0  0  0  0
 12  2  1  0  0  0  0
 13  2  2  0  0  0  0
 14  6  1  0  0  0  0
 15  1  1  0  0  0  0
 16  4  2  0  0  0  0
 17  7  2  0  0  0  0
 18 17  1  0  0  0  0
 19 15  1  0  0  0  0
 20  9  1  0  0  0  0
 21  8  1  0  0  0  0
 14 19  1  0  0  0  0
  3  9  1  0  0  0  0
M  CHG  2   2   1  12  -1
M  END
>  <IDNUMBER>
F2545-0219

>  <Chemical_Name>
4-chloro-N-(1,1-dioxo-1??-thiolan-3-yl)-3-nitrobenzamide

>  <PriceCoeff>
1.00

>  <CAS>
303018-90-8

>  <MW>
318.73

>  <Description>
solid

>  <FSP3>
0.36

>  <clogP>
0.50

>  <TPSA>
114.76

>  <Acceptor>
5

>  <Donor>
1

>  <RotBonds>
3

>  <HAC>
20

>  <Collection>
General

>  <PPDS>
+

$$$$
F2545-0439
  Mrv2219 10102508112D          

 22 23  0  0  0  0            999 V2000
   -3.9403    1.7763    0.0000 S   0  0  0  0  0  0  0  0  0  0  0  0
    0.2877    4.2197    0.0000 N   0  3  0  0  0  0  0  0  0  0  0  0
   -0.0333    3.4608    0.0000 C   0  0  0  0  0  0  0  0  0  0  0  0
   -1.9889    2.4726    0.0000 C   0  0  0  0  0  0  0  0  0  0  0  0
   -3.2898    2.9021    0.0000 C   0  0  0  0  0  0  0  0  0  0  0  0
   -3.2898    2.1515    0.0000 C   0  0  0  0  0  0  0  0  0  0  0  0
   -2.4976    3.1230    0.0000 N   0  0  0  0  0  0  0  0  0  0  0  0
   -0.8506    3.3482    0.0000 C   0  0  0  0  0  0  0  0  0  0  0  0
   -1.1716    2.5851    0.0000 C   0  0  0  0  0  0  0  0  0  0  0  0
   -4.5866    2.9021    0.0000 C   0  0  0  0  0  0  0  0  0  0  0  0
    0.4795    2.8020    0.0000 C   0  0  0  0  0  0  0  0  0  0  0  0
   -3.2982    1.4093    0.0000 O   0  0  0  0  0  0  0  0  0  0  0  0
   -4.4740    1.2467    0.0000 O   0  0  0  0  0  0  0  0  0  0  0  0
    1.1050    4.3323    0.0000 O   0  5  0  0  0  0  0  0  0  0  0  0
   -0.2210    4.8702    0.0000 O   0  0  0  0  0  0  0  0  0  0  0  0
   -4.5866    2.1515    0.0000 C   0  0  0  0  0  0  0  0  0  0  0  0
   -2.3099    1.7012    0.0000 O   0  0  0  0  0  0  0  0  0  0  0  0
   -0.6630    1.9264    0.0000 C   0  0  0  0  0  0  0  0  0  0  0  0
    0.1543    2.0348    0.0000 C   0  0  0  0  0  0  0  0  0  0  0  0
    1.2926    2.9104    0.0000 Cl  0  0  0  0  0  0  0  0  0  0  0  0
   -3.7109    3.6234    0.0000 C   0  0  0  0  0  0  0  0  0  0  0  0
   -2.0848    3.8360    0.0000 C   0  0  0  0  0  0  0  0  0  0  0  0
  2  3  1  0  0  0  0
  3  8  1  0  0  0  0
  4  7  1  0  0  0  0
  5  6  1  0  0  0  0
  6  1  1  0  0  0  0
  7  5  1  0  0  0  0
  8  9  2  0  0  0  0
  9  4  1  0  0  0  0
 10 16  1  0  0  0  0
 11 19  1  0  0  0  0
 12  1  2  0  0  0  0
 13  1  2  0  0  0  0
 14  2  1  0  0  0  0
 15  2  2  0  0  0  0
 16  1  1  0  0  0  0
 17  4  2  0  0  0  0
 18  9  1  0  0  0  0
 19 18  2  0  0  0  0
 20 11  1  0  0  0  0
 21  5  1  0  0  0  0
 22  7  1  0  0  0  0
  5 10  1  0  0  0  0
  3 11  2  0  0  0  0
M  CHG  2   2   1  14  -1
M  END
>  <IDNUMBER>
F2545-0439

>  <Chemical_Name>
4-chloro-N-methyl-N-(3-methyl-1,1-dioxo-1??-thiolan-3-yl)-3-nitrobenzamide

>  <PriceCoeff>
1.00

>  <CAS>
874788-67-7

>  <MW>
346.79

>  <Description>
solid

>  <FSP3>
0.46

>  <clogP>
0.68

>  <TPSA>
105.97

>  <Acceptor>
5

>  <Donor>
0

>  <RotBonds>
4

>  <HAC>
22

>  <Collection>
General

>  <PPDS>
+

$$$$
F2547-0087
  Mrv2219 10102508112D          

 23 24  0  0  0  0            999 V2000
   -0.2632    1.4052    0.0000 S   0  0  0  0  0  0  0  0  0  0  0  0
   -3.2480    2.4275    0.0000 S   0  0  0  0  0  0  0  0  0  0  0  0
    1.9010    1.2069    0.0000 C   0  0  0  0  0  0  0  0  0  0  0  0
    2.5780    1.6822    0.0000 N   0  3  0  0  0  0  0  0  0  0  0  0
   -1.2171    1.8463    0.0000 N   0  0  0  0  0  0  0  0  0  0  0  0
    0.4855    1.0667    0.0000 C   0  0  0  0  0  0  0  0  0  0  0  0
    1.1522    1.5556    0.0000 C   0  0  0  0  0  0  0  0  0  0  0  0
   -2.8890    1.9659    0.0000 C   0  0  0  0  0  0  0  0  0  0  0  0
   -2.2941    2.1198    0.0000 C   0  0  0  0  0  0  0  0  0  0  0  0
    0.2188    2.2360    0.0000 O   0  0  0  0  0  0  0  0  0  0  0  0
   -0.9299    0.6462    0.0000 O   0  0  0  0  0  0  0  0  0  0  0  0
    1.9831    0.3795    0.0000 C   0  0  0  0  0  0  0  0  0  0  0  0
   -3.4156    1.8360    0.0000 O   0  0  0  0  0  0  0  0  0  0  0  0
   -3.7438    2.8583    0.0000 O   0  0  0  0  0  0  0  0  0  0  0  0
   -2.5506    3.1455    0.0000 C   0  0  0  0  0  0  0  0  0  0  0  0
    3.3335    1.3402    0.0000 O   0  5  0  0  0  0  0  0  0  0  0  0
    2.5027    2.5027    0.0000 O   0  0  0  0  0  0  0  0  0  0  0  0
   -3.1489    2.9951    0.0000 C   0  0  0  0  0  0  0  0  0  0  0  0
    0.5641    0.2530    0.0000 C   0  0  0  0  0  0  0  0  0  0  0  0
    1.3163   -0.0958    0.0000 C   0  0  0  0  0  0  0  0  0  0  0  0
    2.7318    0.0376    0.0000 Cl  0  0  0  0  0  0  0  0  0  0  0  0
   -0.9402    2.6326    0.0000 C   0  0  0  0  0  0  0  0  0  0  0  0
   -1.4770    3.2515    0.0000 C   0  0  0  0  0  0  0  0  0  0  0  0
  2  8  1  0  0  0  0
  3  7  1  0  0  0  0
  4  3  1  0  0  0  0
  5  1  1  0  0  0  0
  6  1  1  0  0  0  0
  7  6  2  0  0  0  0
  8  9  1  0  0  0  0
  9  5  1  0  0  0  0
 10  1  2  0  0  0  0
 11  1  2  0  0  0  0
 12 20  1  0  0  0  0
 13  2  2  0  0  0  0
 14  2  2  0  0  0  0
 15  9  1  0  0  0  0
 16  4  1  0  0  0  0
 17  4  2  0  0  0  0
 18 15  1  0  0  0  0
 19  6  1  0  0  0  0
 20 19  2  0  0  0  0
 21 12  1  0  0  0  0
 22  5  1  0  0  0  0
 23 22  1  0  0  0  0
  3 12  2  0  0  0  0
  2 18  1  0  0  0  0
M  CHG  2   4   1  16  -1
M  END
>  <IDNUMBER>
F2547-0087

>  <Chemical_Name>
4-chloro-N-(1,1-dioxo-1??-thiolan-3-yl)-N-ethyl-3-nitrobenzene-1-sulfonamide

>  <PriceCoeff>
1.00

>  <CAS>
874623-25-3

>  <MW>
382.84

>  <Description>
solid

>  <FSP3>
0.50

>  <clogP>
1.07

>  <TPSA>
131.42

>  <Acceptor>
6

>  <Donor>
0

>  <RotBonds>
5

>  <HAC>
23

>  <Collection>
General

>  <PPDS>
+

$$$$
F2547-0088
  Mrv2219 10102508112D          

 25 26  0  0  0  0            999 V2000
   -0.2634    1.4061    0.0000 S   0  0  0  0  0  0  0  0  0  0  0  0
   -3.2500    2.4290    0.0000 S   0  0  0  0  0  0  0  0  0  0  0  0
    1.9022    1.2076    0.0000 C   0  0  0  0  0  0  0  0  0  0  0  0
    2.5795    1.6832    0.0000 N   0  3  0  0  0  0  0  0  0  0  0  0
   -1.2179    1.8474    0.0000 N   0  0  0  0  0  0  0  0  0  0  0  0
    0.4858    1.0674    0.0000 C   0  0  0  0  0  0  0  0  0  0  0  0
    1.1529    1.5566    0.0000 C   0  0  0  0  0  0  0  0  0  0  0  0
   -2.8908    1.9671    0.0000 C   0  0  0  0  0  0  0  0  0  0  0  0
   -2.2955    2.1211    0.0000 C   0  0  0  0  0  0  0  0  0  0  0  0
    0.2190    2.2374    0.0000 O   0  0  0  0  0  0  0  0  0  0  0  0
   -0.9305    0.6466    0.0000 O   0  0  0  0  0  0  0  0  0  0  0  0
    1.9843    0.3797    0.0000 C   0  0  0  0  0  0  0  0  0  0  0  0
   -3.4177    1.8371    0.0000 O   0  0  0  0  0  0  0  0  0  0  0  0
   -3.7461    2.8600    0.0000 O   0  0  0  0  0  0  0  0  0  0  0  0
   -2.5521    3.1474    0.0000 C   0  0  0  0  0  0  0  0  0  0  0  0
    3.3356    1.3410    0.0000 O   0  5  0  0  0  0  0  0  0  0  0  0
    2.5043    2.5043    0.0000 O   0  0  0  0  0  0  0  0  0  0  0  0
   -3.1508    2.9969    0.0000 C   0  0  0  0  0  0  0  0  0  0  0  0
    0.5645    0.2531    0.0000 C   0  0  0  0  0  0  0  0  0  0  0  0
    1.3172   -0.0958    0.0000 C   0  0  0  0  0  0  0  0  0  0  0  0
    2.7335    0.0376    0.0000 Cl  0  0  0  0  0  0  0  0  0  0  0  0
   -0.9408    2.6342    0.0000 C   0  0  0  0  0  0  0  0  0  0  0  0
   -1.4745    3.2500    0.0000 C   0  0  0  0  0  0  0  0  0  0  0  0
   -1.2008    4.0267    0.0000 C   0  0  0  0  0  0  0  0  0  0  0  0
   -1.8850    4.4885    0.0000 C   0  0  0  0  0  0  0  0  0  0  0  0
  2  8  1  0  0  0  0
  3  7  1  0  0  0  0
  4  3  1  0  0  0  0
  5  1  1  0  0  0  0
  6  1  1  0  0  0  0
  7  6  2  0  0  0  0
  8  9  1  0  0  0  0
  9  5  1  0  0  0  0
 10  1  2  0  0  0  0
 11  1  2  0  0  0  0
 12 20  1  0  0  0  0
 13  2  2  0  0  0  0
 14  2  2  0  0  0  0
 15  9  1  0  0  0  0
 16  4  1  0  0  0  0
 17  4  2  0  0  0  0
 18 15  1  0  0  0  0
 19  6  1  0  0  0  0
 20 19  2  0  0  0  0
 21 12  1  0  0  0  0
 22  5  1  0  0  0  0
 23 22  1  0  0  0  0
 24 23  1  0  0  0  0
 25 24  1  0  0  0  0
  3 12  2  0  0  0  0
  2 18  1  0  0  0  0
M  CHG  2   4   1  16  -1
M  END
>  <IDNUMBER>
F2547-0088

>  <Chemical_Name>
N-butyl-4-chloro-N-(1,1-dioxo-1??-thiolan-3-yl)-3-nitrobenzene-1-sulfonamide

>  <PriceCoeff>
1.00

>  <CAS>
874787-98-1

>  <MW>
410.89

>  <Description>
solid

>  <FSP3>
0.57

>  <clogP>
2.12

>  <TPSA>
131.42

>  <Acceptor>
6

>  <Donor>
0

>  <RotBonds>
7

>  <HAC>
25

>  <Collection>
General

>  <PPDS>
+

$$$$
F2547-0089
  Mrv2219 10102508112D          

 25 26  0  0  0  0            999 V2000
    4.8949   -3.5028    0.0000 S   0  0  0  0  0  0  0  0  0  0  0  0
    1.9136   -2.4927    0.0000 S   0  0  0  0  0  0  0  0  0  0  0  0
    3.9463   -3.0675    0.0000 N   0  0  0  0  0  0  0  0  0  0  0  0
    7.0631   -3.7081    0.0000 C   0  0  0  0  0  0  0  0  0  0  0  0
    7.7366   -3.2318    0.0000 N   0  3  0  0  0  0  0  0  0  0  0  0
    5.6423   -3.8436    0.0000 C   0  0  0  0  0  0  0  0  0  0  0  0
    6.3117   -3.3632    0.0000 C   0  0  0  0  0  0  0  0  0  0  0  0
    2.8704   -2.8006    0.0000 C   0  0  0  0  0  0  0  0  0  0  0  0
    2.2709   -2.9485    0.0000 C   0  0  0  0  0  0  0  0  0  0  0  0
    5.3836   -2.6774    0.0000 O   0  0  0  0  0  0  0  0  0  0  0  0
    4.2297   -4.2666    0.0000 O   0  0  0  0  0  0  0  0  0  0  0  0
    7.1452   -4.5335    0.0000 C   0  0  0  0  0  0  0  0  0  0  0  0
    1.7412   -3.0717    0.0000 O   0  0  0  0  0  0  0  0  0  0  0  0
    1.4167   -2.0615    0.0000 O   0  0  0  0  0  0  0  0  0  0  0  0
    2.6117   -1.7658    0.0000 C   0  0  0  0  0  0  0  0  0  0  0  0
    8.4880   -3.5726    0.0000 O   0  5  0  0  0  0  0  0  0  0  0  0
    7.6545   -2.4064    0.0000 O   0  0  0  0  0  0  0  0  0  0  0  0
    2.0122   -1.9136    0.0000 C   0  0  0  0  0  0  0  0  0  0  0  0
    4.2174   -2.2832    0.0000 C   0  0  0  0  0  0  0  0  0  0  0  0
    5.7203   -4.6609    0.0000 C   0  0  0  0  0  0  0  0  0  0  0  0
    6.4718   -5.0058    0.0000 C   0  0  0  0  0  0  0  0  0  0  0  0
    7.8885   -4.8703    0.0000 Cl  0  0  0  0  0  0  0  0  0  0  0  0
    3.6876   -1.6673    0.0000 C   0  0  0  0  0  0  0  0  0  0  0  0
    3.7451   -0.8419    0.0000 C   0  0  0  0  0  0  0  0  0  0  0  0
    2.8499   -1.1375    0.0000 C   0  0  0  0  0  0  0  0  0  0  0  0
  2  9  1  0  0  0  0
  3  1  1  0  0  0  0
  4  7  1  0  0  0  0
  5  4  1  0  0  0  0
  6  1  1  0  0  0  0
  7  6  2  0  0  0  0
  8  3  1  0  0  0  0
  9  8  1  0  0  0  0
 10  1  2  0  0  0  0
 11  1  2  0  0  0  0
 12 21  1  0  0  0  0
 13  2  2  0  0  0  0
 14  2  2  0  0  0  0
 15  8  1  0  0  0  0
 16  5  1  0  0  0  0
 17  5  2  0  0  0  0
 18 15  1  0  0  0  0
 19  3  1  0  0  0  0
 20  6  1  0  0  0  0
 21 20  2  0  0  0  0
 22 12  1  0  0  0  0
 23 19  1  0  0  0  0
 24 23  1  0  0  0  0
 25 23  1  0  0  0  0
  4 12  2  0  0  0  0
  2 18  1  0  0  0  0
M  CHG  2   5   1  16  -1
M  END
>  <IDNUMBER>
F2547-0089

>  <Chemical_Name>
4-chloro-N-(1,1-dioxo-1??-thiolan-3-yl)-N-(2-methylpropyl)-3-nitrobenzene-1-sulfonamide

>  <PriceCoeff>
1.00

>  <CAS>
874623-20-8

>  <MW>
410.89

>  <Description>
solid

>  <FSP3>
0.57

>  <clogP>
1.99

>  <TPSA>
131.42

>  <Acceptor>
6

>  <Donor>
0

>  <RotBonds>
6

>  <HAC>
25

>  <Collection>
General

>  <PPDS>
+

$$$$
F2548-0070
  Mrv2219 10102508112D          

 28 31  0  0  0  0            999 V2000
   -0.9083   -2.0792    0.0000 N   0  3  0  0  0  0  0  0  0  0  0  0
   -0.1958   -1.6750    0.0000 C   0  0  0  0  0  0  0  0  0  0  0  0
    0.5292    0.3833    0.0000 C   0  0  0  0  0  0  0  0  0  0  0  0
   -0.1875    0.7958    0.0000 N   0  0  0  0  0  0  0  0  0  0  0  0
   -2.3250    2.8625    0.0000 C   0  0  0  0  0  0  0  0  0  0  0  0
   -0.1833   -0.8417    0.0000 C   0  0  0  0  0  0  0  0  0  0  0  0
   -2.3250    1.2125    0.0000 O   0  0  0  0  0  0  0  0  0  0  0  0
   -1.6083    1.6208    0.0000 C   0  0  0  0  0  0  0  0  0  0  0  0
   -3.0333    2.4458    0.0000 C   0  0  0  0  0  0  0  0  0  0  0  0
    0.5250   -0.4375    0.0000 C   0  0  0  0  0  0  0  0  0  0  0  0
   -3.0333    1.6208    0.0000 C   0  0  0  0  0  0  0  0  0  0  0  0
   -1.6125    2.4458    0.0000 C   0  0  0  0  0  0  0  0  0  0  0  0
    0.5292   -2.0917    0.0000 C   0  0  0  0  0  0  0  0  0  0  0  0
   -1.6208   -1.6667    0.0000 O   0  5  0  0  0  0  0  0  0  0  0  0
   -0.9083   -2.9042    0.0000 O   0  0  0  0  0  0  0  0  0  0  0  0
   -0.1875    1.6208    0.0000 C   0  0  0  0  0  0  0  0  0  0  0  0
   -0.9000    0.3875    0.0000 C   0  0  0  0  0  0  0  0  0  0  0  0
    1.2417    0.7958    0.0000 O   0  0  0  0  0  0  0  0  0  0  0  0
   -1.6083    0.7958    0.0000 C   0  0  0  0  0  0  0  0  0  0  0  0
   -0.9000    2.0375    0.0000 C   0  0  0  0  0  0  0  0  0  0  0  0
   -2.3250    3.6875    0.0000 O   0  0  0  0  0  0  0  0  0  0  0  0
    1.2417   -0.8500    0.0000 C   0  0  0  0  0  0  0  0  0  0  0  0
    1.2417   -1.6750    0.0000 C   0  0  0  0  0  0  0  0  0  0  0  0
    0.5250   -2.9042    0.0000 Cl  0  0  0  0  0  0  0  0  0  0  0  0
   -3.7458    2.8583    0.0000 C   0  0  0  0  0  0  0  0  0  0  0  0
   -3.7458    1.2125    0.0000 C   0  0  0  0  0  0  0  0  0  0  0  0
   -4.4583    2.4583    0.0000 C   0  0  0  0  0  0  0  0  0  0  0  0
   -4.4583    1.6208    0.0000 C   0  0  0  0  0  0  0  0  0  0  0  0
  2  1  1  0  0  0  0
  3 10  1  0  0  0  0
  4  3  1  0  0  0  0
  5 12  1  0  0  0  0
  6  2  2  0  0  0  0
  7  8  1  0  0  0  0
  8 19  1  0  0  0  0
  9  5  1  0  0  0  0
 10  6  1  0  0  0  0
 11  7  1  0  0  0  0
 12  8  1  0  0  0  0
 13  2  1  0  0  0  0
 14  1  1  0  0  0  0
 15  1  2  0  0  0  0
 16  4  1  0  0  0  0
 17  4  1  0  0  0  0
 18  3  2  0  0  0  0
 19 17  1  0  0  0  0
 20 16  1  0  0  0  0
 21  5  2  0  0  0  0
 22 23  1  0  0  0  0
 23 13  2  0  0  0  0
 24 13  1  0  0  0  0
 25  9  1  0  0  0  0
 26 11  1  0  0  0  0
 27 25  2  0  0  0  0
 28 26  2  0  0  0  0
 10 22  2  0  0  0  0
  8 20  1  0  0  0  0
  9 11  2  0  0  0  0
 28 27  1  0  0  0  0
M  CHG  2   1   1  14  -1
M  END
>  <IDNUMBER>
F2548-0070

>  <Chemical_Name>
1'-(4-chloro-3-nitrobenzoyl)-3,4-dihydrospiro[1-benzopyran-2,4'-piperidin]-4-one

>  <PriceCoeff>
1.00

>  <CAS>
877811-06-8

>  <MW>
400.81

>  <Description>
solid

>  <FSP3>
0.30

>  <clogP>
2.65

>  <TPSA>
89.75

>  <Acceptor>
5

>  <Donor>
0

>  <RotBonds>
3

>  <HAC>
28

>  <Collection>
General

>  <PPDS>
+

$$$$
F2548-0187
  Mrv2219 10102508112D          

 27 30  0  0  0  0            999 V2000
    2.1118   -1.8623    0.0000 C   0  0  0  0  0  0  0  0  0  0  0  0
    1.4009   -1.4508    0.0000 N   0  0  0  0  0  0  0  0  0  0  0  0
   -0.7441    0.6194    0.0000 C   0  0  0  0  0  0  0  0  0  0  0  0
   -0.7441   -1.0351    0.0000 O   0  0  0  0  0  0  0  0  0  0  0  0
   -0.0249   -0.6277    0.0000 C   0  0  0  0  0  0  0  0  0  0  0  0
   -1.4549    0.1995    0.0000 C   0  0  0  0  0  0  0  0  0  0  0  0
   -1.4549   -0.6277    0.0000 C   0  0  0  0  0  0  0  0  0  0  0  0
    2.1076   -2.6854    0.0000 N   0  0  0  0  0  0  0  0  0  0  0  0
   -0.0332    0.1995    0.0000 C   0  0  0  0  0  0  0  0  0  0  0  0
    4.2401   -3.0970    0.0000 C   0  0  0  0  0  0  0  0  0  0  0  0
    3.5292   -2.6854    0.0000 C   0  0  0  0  0  0  0  0  0  0  0  0
    2.8184   -3.0970    0.0000 C   0  0  0  0  0  0  0  0  0  0  0  0
    2.8226   -1.4508    0.0000 O   0  0  0  0  0  0  0  0  0  0  0  0
    1.4009   -0.6277    0.0000 C   0  0  0  0  0  0  0  0  0  0  0  0
    0.6859   -1.8623    0.0000 C   0  0  0  0  0  0  0  0  0  0  0  0
    4.2401   -3.9283    0.0000 C   0  0  0  0  0  0  0  0  0  0  0  0
    0.6859   -0.2037    0.0000 C   0  0  0  0  0  0  0  0  0  0  0  0
   -0.0249   -1.4508    0.0000 C   0  0  0  0  0  0  0  0  0  0  0  0
   -0.7441    1.4466    0.0000 O   0  0  0  0  0  0  0  0  0  0  0  0
    3.5210   -4.3316    0.0000 C   0  0  0  0  0  0  0  0  0  0  0  0
    4.9551   -2.6854    0.0000 Cl  0  0  0  0  0  0  0  0  0  0  0  0
    2.8101   -3.9200    0.0000 C   0  0  0  0  0  0  0  0  0  0  0  0
    4.9551   -4.3398    0.0000 Cl  0  0  0  0  0  0  0  0  0  0  0  0
   -2.1657    0.6194    0.0000 C   0  0  0  0  0  0  0  0  0  0  0  0
   -2.1699   -1.0351    0.0000 C   0  0  0  0  0  0  0  0  0  0  0  0
   -2.8890    0.2078    0.0000 C   0  0  0  0  0  0  0  0  0  0  0  0
   -2.8808   -0.6277    0.0000 C   0  0  0  0  0  0  0  0  0  0  0  0
  2  1  1  0  0  0  0
  3  9  1  0  0  0  0
  4  5  1  0  0  0  0
  5 18  1  0  0  0  0
  6  3  1  0  0  0  0
  7  4  1  0  0  0  0
  8  1  1  0  0  0  0
  9  5  1  0  0  0  0
 10 11  2  0  0  0  0
 11 12  1  0  0  0  0
 12  8  1  0  0  0  0
 13  1  2  0  0  0  0
 14  2  1  0  0  0  0
 15  2  1  0  0  0  0
 16 20  2  0  0  0  0
 17 14  1  0  0  0  0
 18 15  1  0  0  0  0
 19  3  2  0  0  0  0
 20 22  1  0  0  0  0
 21 10  1  0  0  0  0
 22 12  2  0  0  0  0
 23 16  1  0  0  0  0
 24  6  1  0  0  0  0
 25  7  1  0  0  0  0
 26 24  2  0  0  0  0
 27 25  2  0  0  0  0
  5 17  1  0  0  0  0
 10 16  1  0  0  0  0
  6  7  2  0  0  0  0
 27 26  1  0  0  0  0
M  END
>  <IDNUMBER>
F2548-0187

>  <Chemical_Name>
N-(3,4-dichlorophenyl)-4-oxo-3,4-dihydrospiro[1-benzopyran-2,4'-piperidine]-1'-carboxamide

>  <PriceCoeff>
1.00

>  <CAS>
869464-93-7

>  <MW>
405.27

>  <Description>
solid

>  <FSP3>
0.30

>  <clogP>
3.92

>  <TPSA>
58.64

>  <Acceptor>
3

>  <Donor>
1

>  <RotBonds>
2

>  <HAC>
27

>  <Collection>
General

$$$$
F2566-0077
  Mrv2219 10102508112D          

 28 30  0  0  0  0            999 V2000
   -5.2028    6.2633    0.0000 N   0  3  0  0  0  0  0  0  0  0  0  0
   -5.1904    5.4349    0.0000 C   0  0  0  0  0  0  0  0  0  0  0  0
   -3.0198    2.5434    0.0000 C   0  0  0  0  0  0  0  0  0  0  0  0
    0.5219    2.1085    0.0000 C   0  0  0  0  0  0  0  0  0  0  0  0
    0.5219    2.8541    0.0000 N   0  0  0  0  0  0  0  0  0  0  0  0
   -2.3198    2.9660    0.0000 C   0  0  0  0  0  0  0  0  0  0  0  0
   -3.7364    3.7861    0.0000 C   0  0  0  0  0  0  0  0  0  0  0  0
   -1.6113    2.5434    0.0000 C   0  0  0  0  0  0  0  0  0  0  0  0
   -4.4696    5.0124    0.0000 C   0  0  0  0  0  0  0  0  0  0  0  0
   -3.7364    2.9535    0.0000 O   0  0  0  0  0  0  0  0  0  0  0  0
    1.1599    1.7356    0.0000 S   0  0  0  0  0  0  0  0  0  0  0  0
   -3.0198    1.7232    0.0000 C   0  0  0  0  0  0  0  0  0  0  0  0
   -4.4572    4.1922    0.0000 C   0  0  0  0  0  0  0  0  0  0  0  0
   -1.6113    1.7232    0.0000 C   0  0  0  0  0  0  0  0  0  0  0  0
   -2.3198    1.3173    0.0000 O   0  0  0  0  0  0  0  0  0  0  0  0
    1.8061    2.8541    0.0000 C   0  0  0  0  0  0  0  0  0  0  0  0
    1.8061    2.1085    0.0000 C   0  0  0  0  0  0  0  0  0  0  0  0
   -5.9237    5.0000    0.0000 C   0  0  0  0  0  0  0  0  0  0  0  0
   -4.4945    6.6901    0.0000 O   0  5  0  0  0  0  0  0  0  0  0  0
   -5.9237    6.6652    0.0000 O   0  0  0  0  0  0  0  0  0  0  0  0
   -0.1574    1.7108    0.0000 S   0  0  0  0  0  0  0  0  0  0  0  0
   -3.0198    4.1922    0.0000 O   0  0  0  0  0  0  0  0  0  0  0  0
   -2.3198    3.7779    0.0000 O   0  0  0  0  0  0  0  0  0  0  0  0
   -5.1779    3.7737    0.0000 C   0  0  0  0  0  0  0  0  0  0  0  0
   -5.9030    4.1674    0.0000 C   0  0  0  0  0  0  0  0  0  0  0  0
   -0.8657    2.1209    0.0000 C   0  0  0  0  0  0  0  0  0  0  0  0
   -6.6155    5.4058    0.0000 Cl  0  0  0  0  0  0  0  0  0  0  0  0
    2.3902    3.4381    0.0000 C   0  0  0  0  0  0  0  0  0  0  0  0
  2  1  1  0  0  0  0
  3 10  1  0  0  0  0
  4 21  1  0  0  0  0
  5  4  2  0  0  0  0
  6  3  1  0  0  0  0
  7 13  1  0  0  0  0
  8  6  1  0  0  0  0
  9  2  2  0  0  0  0
 10  7  1  0  0  0  0
 11  4  1  0  0  0  0
 12  3  2  0  0  0  0
 13  9  1  0  0  0  0
 14 15  1  0  0  0  0
 15 12  1  0  0  0  0
 16  5  1  0  0  0  0
 17 11  1  0  0  0  0
 18  2  1  0  0  0  0
 19  1  1  0  0  0  0
 20  1  2  0  0  0  0
 21 26  1  0  0  0  0
 22  7  2  0  0  0  0
 23  6  2  0  0  0  0
 24 25  1  0  0  0  0
 25 18  2  0  0  0  0
 26 14  1  0  0  0  0
 27 18  1  0  0  0  0
 28 16  1  0  0  0  0
 13 24  2  0  0  0  0
  8 14  2  0  0  0  0
 17 16  2  0  0  0  0
M  CHG  2   1   1  19  -1
M  END
>  <IDNUMBER>
F2566-0077

>  <Chemical_Name>
6-{[(4-methyl-1,3-thiazol-2-yl)sulfanyl]methyl}-4-oxo-4H-pyran-3-yl 4-chloro-3-nitrobenzoate

>  <PriceCoeff>
1.00

>  <CAS>
896305-03-6

>  <MW>
438.86

>  <Description>
solid

>  <FSP3>
0.12

>  <clogP>
3.39

>  <TPSA>
162.17

>  <Acceptor>
7

>  <Donor>
0

>  <RotBonds>
7

>  <HAC>
28

>  <Collection>
General

>  <PPDS>
+

$$$$
F2567-0077
  Mrv2219 10102508112D          

 28 30  0  0  0  0            999 V2000
   -5.2208    6.2792    0.0000 N   0  3  0  0  0  0  0  0  0  0  0  0
   -5.2208    5.4542    0.0000 C   0  0  0  0  0  0  0  0  0  0  0  0
    0.6792    1.8750    0.0000 C   0  0  0  0  0  0  0  0  0  0  0  0
   -3.0375    2.5583    0.0000 C   0  0  0  0  0  0  0  0  0  0  0  0
   -2.3333    2.9833    0.0000 C   0  0  0  0  0  0  0  0  0  0  0  0
    1.3250    1.5000    0.0000 N   0  0  0  0  0  0  0  0  0  0  0  0
   -3.7583    3.8000    0.0000 C   0  0  0  0  0  0  0  0  0  0  0  0
   -1.6208    2.5583    0.0000 C   0  0  0  0  0  0  0  0  0  0  0  0
    0.6792    2.6250    0.0000 N   0  0  0  0  0  0  0  0  0  0  0  0
   -4.4875    5.0292    0.0000 C   0  0  0  0  0  0  0  0  0  0  0  0
   -3.7583    2.9708    0.0000 O   0  0  0  0  0  0  0  0  0  0  0  0
   -3.0375    1.7333    0.0000 C   0  0  0  0  0  0  0  0  0  0  0  0
   -4.4833    4.2042    0.0000 C   0  0  0  0  0  0  0  0  0  0  0  0
   -1.6208    1.7333    0.0000 C   0  0  0  0  0  0  0  0  0  0  0  0
   -2.3333    1.3250    0.0000 O   0  0  0  0  0  0  0  0  0  0  0  0
   -0.0083    1.4708    0.0000 S   0  0  0  0  0  0  0  0  0  0  0  0
   -5.9333    5.0167    0.0000 C   0  0  0  0  0  0  0  0  0  0  0  0
    1.9750    2.6250    0.0000 C   0  0  0  0  0  0  0  0  0  0  0  0
   -4.5083    6.7042    0.0000 O   0  5  0  0  0  0  0  0  0  0  0  0
   -5.9458    6.6917    0.0000 O   0  0  0  0  0  0  0  0  0  0  0  0
    1.9750    1.8750    0.0000 C   0  0  0  0  0  0  0  0  0  0  0  0
   -3.0458    4.2125    0.0000 O   0  0  0  0  0  0  0  0  0  0  0  0
   -2.3333    3.8000    0.0000 O   0  0  0  0  0  0  0  0  0  0  0  0
   -5.1958    3.7958    0.0000 C   0  0  0  0  0  0  0  0  0  0  0  0
   -5.9250    4.1875    0.0000 C   0  0  0  0  0  0  0  0  0  0  0  0
   -0.7208    1.8833    0.0000 C   0  0  0  0  0  0  0  0  0  0  0  0
   -6.6417    5.4292    0.0000 Cl  0  0  0  0  0  0  0  0  0  0  0  0
    1.3250    0.7500    0.0000 C   0  0  0  0  0  0  0  0  0  0  0  0
  2  1  1  0  0  0  0
  3 16  1  0  0  0  0
  4 11  1  0  0  0  0
  5  4  1  0  0  0  0
  6  3  1  0  0  0  0
  7 13  1  0  0  0  0
  8  5  1  0  0  0  0
  9  3  2  0  0  0  0
 10  2  2  0  0  0  0
 11  7  1  0  0  0  0
 12  4  2  0  0  0  0
 13 10  1  0  0  0  0
 14 15  1  0  0  0  0
 15 12  1  0  0  0  0
 16 26  1  0  0  0  0
 17  2  1  0  0  0  0
 18  9  1  0  0  0  0
 19  1  1  0  0  0  0
 20  1  2  0  0  0  0
 21  6  1  0  0  0  0
 22  7  2  0  0  0  0
 23  5  2  0  0  0  0
 24 25  1  0  0  0  0
 25 17  2  0  0  0  0
 26 14  1  0  0  0  0
 27 17  1  0  0  0  0
 28  6  1  0  0  0  0
 13 24  2  0  0  0  0
  8 14  2  0  0  0  0
 21 18  2  0  0  0  0
M  CHG  2   1   1  19  -1
M  END
>  <IDNUMBER>
F2567-0077

>  <Chemical_Name>
6-{[(1-methyl-1H-imidazol-2-yl)sulfanyl]methyl}-4-oxo-4H-pyran-3-yl 4-chloro-3-nitrobenzoate

>  <PriceCoeff>
1.00

>  <CAS>
896310-01-3

>  <MW>
421.81

>  <Description>
solid

>  <FSP3>
0.12

>  <clogP>
2.38

>  <TPSA>
138.86

>  <Acceptor>
7

>  <Donor>
1

>  <RotBonds>
7

>  <HAC>
28

>  <Collection>
General

>  <PPDS>
+

$$$$
F2582-0313
  Mrv2219 10102508112D          

 17 19  0  0  0  0            999 V2000
    5.5192   -3.9865    0.0000 C   0  0  0  0  0  0  0  0  0  0  0  0
    5.5066   -3.1574    0.0000 C   0  0  0  0  0  0  0  0  0  0  0  0
    6.3064   -4.2461    0.0000 N   0  0  0  0  0  0  0  0  0  0  0  0
    6.3064   -2.8936    0.0000 N   0  0  0  0  0  0  0  0  0  0  0  0
    6.7963   -3.5552    0.0000 C   0  0  0  0  0  0  0  0  0  0  0  0
    4.7905   -4.4220    0.0000 N   0  0  0  0  0  0  0  0  0  0  0  0
    4.0828   -3.1574    0.0000 N   0  0  0  0  0  0  0  0  0  0  0  0
    4.0702   -3.9865    0.0000 C   0  0  0  0  0  0  0  0  0  0  0  0
    4.8157   -2.7428    0.0000 C   0  0  0  0  0  0  0  0  0  0  0  0
    7.5794   -3.2956    0.0000 N   0  0  0  0  0  0  0  0  0  0  0  0
    6.7880   -2.2236    0.0000 C   0  0  0  0  0  0  0  0  0  0  0  0
    7.5752   -2.4665    0.0000 C   0  0  0  0  0  0  0  0  0  0  0  0
    3.3207   -4.3843    0.0000 O   0  0  0  0  0  0  0  0  0  0  0  0
    4.7905   -1.9346    0.0000 O   0  0  0  0  0  0  0  0  0  0  0  0
    4.7905   -5.2428    0.0000 C   0  0  0  0  0  0  0  0  0  0  0  0
    3.3667   -2.7303    0.0000 C   0  0  0  0  0  0  0  0  0  0  0  0
    8.2326   -1.9849    0.0000 C   0  0  0  0  0  0  0  0  0  0  0  0
  2  1  2  0  0  0  0
  3  1  1  0  0  0  0
  4  2  1  0  0  0  0
  5  3  2  0  0  0  0
  6  1  1  0  0  0  0
  7  8  1  0  0  0  0
  8  6  1  0  0  0  0
  9  2  1  0  0  0  0
 10  5  1  0  0  0  0
 11  4  1  0  0  0  0
 12 10  1  0  0  0  0
 13  8  2  0  0  0  0
 14  9  2  0  0  0  0
 15  6  1  0  0  0  0
 16  7  1  0  0  0  0
 17 12  1  0  0  0  0
  5  4  1  0  0  0  0
  9  7  1  0  0  0  0
 11 12  2  0  0  0  0
M  END
>  <IDNUMBER>
F2582-0313

>  <Chemical_Name>
1,3,7-trimethyl-1H,2H,3H,4H,8H-imidazo[1,2-g]purine-2,4-dione

>  <PriceCoeff>
1.50

>  <CAS>
19977-26-5

>  <MW>
233.23

>  <Description>
solid

>  <FSP3>
0.30

>  <clogP>
0.77

>  <TPSA>
73.71

>  <Acceptor>
3

>  <Donor>
1

>  <RotBonds>
0

>  <HAC>
17

>  <Collection>
Advanced

$$$$
F2582-0341
  Mrv2219 10102508112D          

 18 20  0  0  0  0            999 V2000
    5.4792   -3.3792    0.0000 C   0  0  0  0  0  0  0  0  0  0  0  0
    5.4917   -4.2042    0.0000 C   0  0  0  0  0  0  0  0  0  0  0  0
    6.2792   -3.1167    0.0000 N   0  0  0  0  0  0  0  0  0  0  0  0
    6.2792   -4.4542    0.0000 N   0  0  0  0  0  0  0  0  0  0  0  0
    6.7667   -3.7750    0.0000 C   0  0  0  0  0  0  0  0  0  0  0  0
    4.7750   -4.6375    0.0000 N   0  0  0  0  0  0  0  0  0  0  0  0
    4.0667   -3.3792    0.0000 N   0  0  0  0  0  0  0  0  0  0  0  0
    4.0542   -4.2042    0.0000 C   0  0  0  0  0  0  0  0  0  0  0  0
    4.8000   -2.9667    0.0000 C   0  0  0  0  0  0  0  0  0  0  0  0
    7.5417   -3.5167    0.0000 N   0  0  0  0  0  0  0  0  0  0  0  0
    6.7542   -2.4500    0.0000 C   0  0  0  0  0  0  0  0  0  0  0  0
    7.5417   -2.6917    0.0000 C   0  0  0  0  0  0  0  0  0  0  0  0
    3.3042   -4.6000    0.0000 O   0  0  0  0  0  0  0  0  0  0  0  0
    4.7750   -2.1625    0.0000 O   0  0  0  0  0  0  0  0  0  0  0  0
    4.7750   -5.4542    0.0000 C   0  0  0  0  0  0  0  0  0  0  0  0
    3.3542   -2.9542    0.0000 C   0  0  0  0  0  0  0  0  0  0  0  0
    6.4917   -1.6667    0.0000 C   0  0  0  0  0  0  0  0  0  0  0  0
    8.2000   -2.2125    0.0000 C   0  0  0  0  0  0  0  0  0  0  0  0
  2  1  2  0  0  0  0
  3  1  1  0  0  0  0
  4  2  1  0  0  0  0
  5  3  1  0  0  0  0
  6  2  1  0  0  0  0
  7  9  1  0  0  0  0
  8  7  1  0  0  0  0
  9  1  1  0  0  0  0
 10  5  1  0  0  0  0
 11  3  1  0  0  0  0
 12 11  2  0  0  0  0
 13  8  2  0  0  0  0
 14  9  2  0  0  0  0
 15  6  1  0  0  0  0
 16  7  1  0  0  0  0
 17 11  1  0  0  0  0
 18 12  1  0  0  0  0
  5  4  2  0  0  0  0
  6  8  1  0  0  0  0
 12 10  1  0  0  0  0
M  END
>  <IDNUMBER>
F2582-0341

>  <Chemical_Name>
1,3,6,7-tetramethyl-1H,2H,3H,4H,8H-imidazo[1,2-g]purine-2,4-dione

>  <PriceCoeff>
1.50

>  <CAS>
19977-27-6

>  <MW>
247.25

>  <Description>
solid

>  <FSP3>
0.36

>  <clogP>
0.99

>  <TPSA>
73.71

>  <Acceptor>
3

>  <Donor>
1

>  <RotBonds>
0

>  <HAC>
18

>  <Collection>
Advanced

>  <PPDS>
+

$$$$
F2590-0037
  Mrv2219 10102508112D          

 25 27  0  0  0  0            999 V2000
   -3.8500    2.9833    0.0000 C   0  0  0  0  0  0  0  0  0  0  0  0
   -4.5208    2.4958    0.0000 C   0  0  0  0  0  0  0  0  0  0  0  0
   -3.1333    7.4917    0.0000 N   0  0  0  0  0  0  0  0  0  0  0  0
   -3.1833    2.4958    0.0000 S   0  0  0  0  0  0  0  0  0  0  0  0
   -4.2583    1.7125    0.0000 C   0  0  0  0  0  0  0  0  0  0  0  0
   -3.8500    3.8000    0.0000 N   0  0  0  0  0  0  0  0  0  0  0  0
   -3.4458    1.7208    0.0000 C   0  0  0  0  0  0  0  0  0  0  0  0
   -3.1375    4.2042    0.0000 C   0  0  0  0  0  0  0  0  0  0  0  0
   -2.5000    8.0042    0.0000 C   0  0  0  0  0  0  0  0  0  0  0  0
   -3.8208    7.9500    0.0000 C   0  0  0  0  0  0  0  0  0  0  0  0
   -5.3083    2.7583    0.0000 C   0  0  0  0  0  0  0  0  0  0  0  0
   -6.0792    3.0083    0.0000 N   0  0  0  0  0  0  0  0  0  0  0  0
   -3.1333    6.6750    0.0000 C   0  0  0  0  0  0  0  0  0  0  0  0
   -3.1375    5.0292    0.0000 C   0  0  0  0  0  0  0  0  0  0  0  0
   -2.4333    3.8083    0.0000 O   0  0  0  0  0  0  0  0  0  0  0  0
   -2.7833    8.7667    0.0000 C   0  0  0  0  0  0  0  0  0  0  0  0
   -3.5958    8.7417    0.0000 C   0  0  0  0  0  0  0  0  0  0  0  0
   -1.7083    7.7792    0.0000 O   0  0  0  0  0  0  0  0  0  0  0  0
   -4.6000    7.6667    0.0000 O   0  0  0  0  0  0  0  0  0  0  0  0
   -3.8583    6.2625    0.0000 C   0  0  0  0  0  0  0  0  0  0  0  0
   -2.4333    6.2625    0.0000 C   0  0  0  0  0  0  0  0  0  0  0  0
   -2.4375    5.4375    0.0000 C   0  0  0  0  0  0  0  0  0  0  0  0
   -3.8583    5.4375    0.0000 C   0  0  0  0  0  0  0  0  0  0  0  0
   -4.7458    1.0458    0.0000 C   0  0  0  0  0  0  0  0  0  0  0  0
   -2.9583    1.0500    0.0000 C   0  0  0  0  0  0  0  0  0  0  0  0
  2  1  2  0  0  0  0
  3 13  1  0  0  0  0
  4  1  1  0  0  0  0
  5  2  1  0  0  0  0
  6  1  1  0  0  0  0
  7  4  1  0  0  0  0
  8  6  1  0  0  0  0
  9  3  1  0  0  0  0
 10  3  1  0  0  0  0
 11  2  1  0  0  0  0
 12 11  3  0  0  0  0
 13 20  1  0  0  0  0
 14  8  1  0  0  0  0
 15  8  2  0  0  0  0
 16  9  1  0  0  0  0
 17 10  1  0  0  0  0
 18  9  2  0  0  0  0
 19 10  2  0  0  0  0
 20 23  2  0  0  0  0
 21 22  1  0  0  0  0
 22 14  2  0  0  0  0
 23 14  1  0  0  0  0
 24  5  1  0  0  0  0
 25  7  1  0  0  0  0
  5  7  2  0  0  0  0
 21 13  2  0  0  0  0
 17 16  1  0  0  0  0
M  END
>  <IDNUMBER>
F2590-0037

>  <Chemical_Name>
N-(3-cyano-4,5-dimethylthiophen-2-yl)-4-(2,5-dioxopyrrolidin-1-yl)benzamide

>  <PriceCoeff>
1.00

>  <CAS>
896302-31-1

>  <MW>
353.40

>  <Description>
solid

>  <FSP3>
0.22

>  <clogP>
0.95

>  <TPSA>
118.51

>  <Acceptor>
4

>  <Donor>
1

>  <RotBonds>
3

>  <HAC>
25

>  <Collection>
General

>  <PPDS>
+

$$$$
F2590-0085
  Mrv2219 10102508112D          

 20 21  0  0  0  0            999 V2000
   -3.8580    2.9895    0.0000 C   0  0  0  0  0  0  0  0  0  0  0  0
   -4.5302    2.5010    0.0000 C   0  0  0  0  0  0  0  0  0  0  0  0
   -1.7118    4.2212    0.0000 N   0  0  0  0  0  0  0  0  0  0  0  0
   -3.1899    2.5010    0.0000 S   0  0  0  0  0  0  0  0  0  0  0  0
   -4.2671    1.7160    0.0000 C   0  0  0  0  0  0  0  0  0  0  0  0
   -3.4529    1.7244    0.0000 C   0  0  0  0  0  0  0  0  0  0  0  0
   -3.8580    3.8079    0.0000 N   0  0  0  0  0  0  0  0  0  0  0  0
   -0.9645    3.8913    0.0000 C   0  0  0  0  0  0  0  0  0  0  0  0
   -1.6367    5.0396    0.0000 C   0  0  0  0  0  0  0  0  0  0  0  0
   -5.3193    2.7640    0.0000 C   0  0  0  0  0  0  0  0  0  0  0  0
   -3.1440    4.2129    0.0000 C   0  0  0  0  0  0  0  0  0  0  0  0
   -2.4258    3.8079    0.0000 C   0  0  0  0  0  0  0  0  0  0  0  0
   -6.0918    3.0145    0.0000 N   0  0  0  0  0  0  0  0  0  0  0  0
   -0.8350    5.2150    0.0000 C   0  0  0  0  0  0  0  0  0  0  0  0
   -0.4134    4.5010    0.0000 C   0  0  0  0  0  0  0  0  0  0  0  0
   -2.2421    5.5782    0.0000 O   0  0  0  0  0  0  0  0  0  0  0  0
   -0.7891    3.0897    0.0000 O   0  0  0  0  0  0  0  0  0  0  0  0
   -3.1440    5.0271    0.0000 O   0  0  0  0  0  0  0  0  0  0  0  0
   -4.7556    1.0480    0.0000 C   0  0  0  0  0  0  0  0  0  0  0  0
   -2.9644    1.0522    0.0000 C   0  0  0  0  0  0  0  0  0  0  0  0
  2  1  2  0  0  0  0
  3 12  1  0  0  0  0
  4  1  1  0  0  0  0
  5  2  1  0  0  0  0
  6  4  1  0  0  0  0
  7  1  1  0  0  0  0
  8  3  1  0  0  0  0
  9  3  1  0  0  0  0
 10  2  1  0  0  0  0
 11  7  1  0  0  0  0
 12 11  1  0  0  0  0
 13 10  3  0  0  0  0
 14  9  1  0  0  0  0
 15  8  1  0  0  0  0
 16  9  2  0  0  0  0
 17  8  2  0  0  0  0
 18 11  2  0  0  0  0
 19  5  1  0  0  0  0
 20  6  1  0  0  0  0
  5  6  2  0  0  0  0
 15 14  1  0  0  0  0
M  END
>  <IDNUMBER>
F2590-0085

>  <Chemical_Name>
N-(3-cyano-4,5-dimethylthiophen-2-yl)-2-(2,5-dioxopyrrolidin-1-yl)acetamide

>  <PriceCoeff>
1.00

>  <CAS>
896304-32-8

>  <MW>
291.33

>  <Description>
solid

>  <FSP3>
0.38

>  <clogP>
0.77

>  <TPSA>
118.51

>  <Acceptor>
4

>  <Donor>
1

>  <RotBonds>
3

>  <HAC>
20

>  <Collection>
General

>  <PPDS>
+

$$$$
F2590-0186
  Mrv2219 10102508112D          

 26 28  0  0  0  0            999 V2000
   -3.8774    3.0045    0.0000 C   0  0  0  0  0  0  0  0  0  0  0  0
   -4.5530    2.5178    0.0000 C   0  0  0  0  0  0  0  0  0  0  0  0
   -1.7247    6.7142    0.0000 N   0  0  0  0  0  0  0  0  0  0  0  0
   -3.2186    2.5178    0.0000 S   0  0  0  0  0  0  0  0  0  0  0  0
   -4.3012    1.7331    0.0000 C   0  0  0  0  0  0  0  0  0  0  0  0
   -3.8774    3.8271    0.0000 N   0  0  0  0  0  0  0  0  0  0  0  0
   -3.4703    1.7331    0.0000 C   0  0  0  0  0  0  0  0  0  0  0  0
   -2.4506    6.2987    0.0000 C   0  0  0  0  0  0  0  0  0  0  0  0
   -3.1598    4.2341    0.0000 C   0  0  0  0  0  0  0  0  0  0  0  0
   -0.9903    6.3365    0.0000 C   0  0  0  0  0  0  0  0  0  0  0  0
   -1.6114    7.5199    0.0000 C   0  0  0  0  0  0  0  0  0  0  0  0
   -5.3335    2.7779    0.0000 C   0  0  0  0  0  0  0  0  0  0  0  0
   -2.4506    5.4679    0.0000 C   0  0  0  0  0  0  0  0  0  0  0  0
   -3.1598    5.0608    0.0000 C   0  0  0  0  0  0  0  0  0  0  0  0
   -2.4506    3.8354    0.0000 O   0  0  0  0  0  0  0  0  0  0  0  0
   -0.7931    7.6709    0.0000 C   0  0  0  0  0  0  0  0  0  0  0  0
   -0.4112    6.9491    0.0000 C   0  0  0  0  0  0  0  0  0  0  0  0
   -2.1863    8.1116    0.0000 O   0  0  0  0  0  0  0  0  0  0  0  0
   -0.8561    5.5182    0.0000 O   0  0  0  0  0  0  0  0  0  0  0  0
   -5.9546    2.2240    0.0000 O   0  0  0  0  0  0  0  0  0  0  0  0
   -5.5098    3.5879    0.0000 N   0  0  0  0  0  0  0  0  0  0  0  0
   -4.7796    1.0658    0.0000 C   0  0  0  0  0  0  0  0  0  0  0  0
   -3.1556    6.7142    0.0000 C   0  0  0  0  0  0  0  0  0  0  0  0
   -2.9920    1.0658    0.0000 C   0  0  0  0  0  0  0  0  0  0  0  0
   -3.8774    5.4679    0.0000 C   0  0  0  0  0  0  0  0  0  0  0  0
   -3.8774    6.2987    0.0000 C   0  0  0  0  0  0  0  0  0  0  0  0
  2  1  2  0  0  0  0
  3  8  1  0  0  0  0
  4  1  1  0  0  0  0
  5  2  1  0  0  0  0
  6  1  1  0  0  0  0
  7  4  1  0  0  0  0
  8 13  1  0  0  0  0
  9  6  1  0  0  0  0
 10  3  1  0  0  0  0
 11  3  1  0  0  0  0
 12  2  1  0  0  0  0
 13 14  2  0  0  0  0
 14  9  1  0  0  0  0
 15  9  2  0  0  0  0
 16 11  1  0  0  0  0
 17 10  1  0  0  0  0
 18 11  2  0  0  0  0
 19 10  2  0  0  0  0
 20 12  2  0  0  0  0
 21 12  1  0  0  0  0
 22  5  1  0  0  0  0
 23 26  1  0  0  0  0
 24  7  1  0  0  0  0
 25 14  1  0  0  0  0
 26 25  2  0  0  0  0
  5  7  2  0  0  0  0
  8 23  2  0  0  0  0
 16 17  1  0  0  0  0
M  END
>  <IDNUMBER>
F2590-0186

>  <Chemical_Name>
2-[3-(2,5-dioxopyrrolidin-1-yl)benzamido]-4,5-dimethylthiophene-3-carboxamide

>  <PriceCoeff>
1.00

>  <CAS>
896308-52-4

>  <MW>
371.41

>  <Description>
solid

>  <FSP3>
0.22

>  <clogP>
0.35

>  <TPSA>
137.81

>  <Acceptor>
4

>  <Donor>
2

>  <RotBonds>
4

>  <HAC>
26

>  <Collection>
General

>  <PPDS>
+

$$$$
F2590-0321
  Mrv2219 10102508112D          

 27 29  0  0  0  0            999 V2000
   -3.8774    3.0045    0.0000 C   0  0  0  0  0  0  0  0  0  0  0  0
   -4.5530    2.5136    0.0000 C   0  0  0  0  0  0  0  0  0  0  0  0
   -1.7247    6.7142    0.0000 N   0  0  0  0  0  0  0  0  0  0  0  0
   -3.2102    2.5136    0.0000 S   0  0  0  0  0  0  0  0  0  0  0  0
   -4.2886    1.7247    0.0000 C   0  0  0  0  0  0  0  0  0  0  0  0
   -3.8774    3.8271    0.0000 N   0  0  0  0  0  0  0  0  0  0  0  0
   -3.4703    1.7331    0.0000 C   0  0  0  0  0  0  0  0  0  0  0  0
   -2.4506    6.2987    0.0000 C   0  0  0  0  0  0  0  0  0  0  0  0
   -3.1598    4.2341    0.0000 C   0  0  0  0  0  0  0  0  0  0  0  0
   -0.9903    6.3365    0.0000 C   0  0  0  0  0  0  0  0  0  0  0  0
   -1.6114    7.5199    0.0000 C   0  0  0  0  0  0  0  0  0  0  0  0
   -5.3377    2.7654    0.0000 C   0  0  0  0  0  0  0  0  0  0  0  0
   -2.4506    5.4679    0.0000 C   0  0  0  0  0  0  0  0  0  0  0  0
   -3.1598    5.0608    0.0000 C   0  0  0  0  0  0  0  0  0  0  0  0
   -2.4506    3.8354    0.0000 O   0  0  0  0  0  0  0  0  0  0  0  0
   -0.7931    7.6709    0.0000 C   0  0  0  0  0  0  0  0  0  0  0  0
   -0.4112    6.9491    0.0000 C   0  0  0  0  0  0  0  0  0  0  0  0
   -2.1863    8.1116    0.0000 O   0  0  0  0  0  0  0  0  0  0  0  0
   -0.8561    5.5182    0.0000 O   0  0  0  0  0  0  0  0  0  0  0  0
   -5.9546    2.2240    0.0000 O   0  0  0  0  0  0  0  0  0  0  0  0
   -5.5098    3.5836    0.0000 N   0  0  0  0  0  0  0  0  0  0  0  0
   -4.7712    1.0575    0.0000 C   0  0  0  0  0  0  0  0  0  0  0  0
   -3.1556    6.7142    0.0000 C   0  0  0  0  0  0  0  0  0  0  0  0
   -2.9920    1.0658    0.0000 C   0  0  0  0  0  0  0  0  0  0  0  0
   -3.8774    5.4679    0.0000 C   0  0  0  0  0  0  0  0  0  0  0  0
   -3.8774    6.2987    0.0000 C   0  0  0  0  0  0  0  0  0  0  0  0
   -6.2736    3.8732    0.0000 C   0  0  0  0  0  0  0  0  0  0  0  0
  2  1  2  0  0  0  0
  3  8  1  0  0  0  0
  4  1  1  0  0  0  0
  5  2  1  0  0  0  0
  6  1  1  0  0  0  0
  7  4  1  0  0  0  0
  8 13  1  0  0  0  0
  9  6  1  0  0  0  0
 10  3  1  0  0  0  0
 11  3  1  0  0  0  0
 12  2  1  0  0  0  0
 13 14  2  0  0  0  0
 14  9  1  0  0  0  0
 15  9  2  0  0  0  0
 16 11  1  0  0  0  0
 17 10  1  0  0  0  0
 18 11  2  0  0  0  0
 19 10  2  0  0  0  0
 20 12  2  0  0  0  0
 21 12  1  0  0  0  0
 22  5  1  0  0  0  0
 23 26  1  0  0  0  0
 24  7  1  0  0  0  0
 25 14  1  0  0  0  0
 26 25  2  0  0  0  0
 27 21  1  0  0  0  0
  5  7  2  0  0  0  0
  8 23  2  0  0  0  0
 16 17  1  0  0  0  0
M  END
>  <IDNUMBER>
F2590-0321

>  <Chemical_Name>
2-[3-(2,5-dioxopyrrolidin-1-yl)benzamido]-N,4,5-trimethylthiophene-3-carboxamide

>  <PriceCoeff>
1.00

>  <CAS>
896296-15-4

>  <MW>
385.44

>  <Description>
solid

>  <FSP3>
0.26

>  <clogP>
0.58

>  <TPSA>
123.82

>  <Acceptor>
4

>  <Donor>
2

>  <RotBonds>
4

>  <HAC>
27

>  <Collection>
General

>  <PPDS>
+

$$$$
F2590-0359
  Mrv2219 10102508112D          

 22 23  0  0  0  0            999 V2000
   -3.8786    3.0055    0.0000 C   0  0  0  0  0  0  0  0  0  0  0  0
   -4.5544    2.5143    0.0000 C   0  0  0  0  0  0  0  0  0  0  0  0
   -1.7210    4.2438    0.0000 N   0  0  0  0  0  0  0  0  0  0  0  0
   -3.2112    2.5143    0.0000 S   0  0  0  0  0  0  0  0  0  0  0  0
   -4.2899    1.7252    0.0000 C   0  0  0  0  0  0  0  0  0  0  0  0
   -3.4714    1.7336    0.0000 C   0  0  0  0  0  0  0  0  0  0  0  0
   -3.8786    3.8282    0.0000 N   0  0  0  0  0  0  0  0  0  0  0  0
   -0.9696    3.9121    0.0000 C   0  0  0  0  0  0  0  0  0  0  0  0
   -1.6454    5.0666    0.0000 C   0  0  0  0  0  0  0  0  0  0  0  0
   -5.3394    2.7662    0.0000 C   0  0  0  0  0  0  0  0  0  0  0  0
   -3.1608    4.2354    0.0000 C   0  0  0  0  0  0  0  0  0  0  0  0
   -2.4388    3.8282    0.0000 C   0  0  0  0  0  0  0  0  0  0  0  0
   -0.4156    4.5251    0.0000 C   0  0  0  0  0  0  0  0  0  0  0  0
   -0.8395    5.2429    0.0000 C   0  0  0  0  0  0  0  0  0  0  0  0
   -0.7933    3.1062    0.0000 O   0  0  0  0  0  0  0  0  0  0  0  0
   -2.2541    5.6081    0.0000 O   0  0  0  0  0  0  0  0  0  0  0  0
   -5.9564    2.2247    0.0000 O   0  0  0  0  0  0  0  0  0  0  0  0
   -3.1608    5.0540    0.0000 O   0  0  0  0  0  0  0  0  0  0  0  0
   -5.5114    3.5847    0.0000 N   0  0  0  0  0  0  0  0  0  0  0  0
   -4.7727    1.0578    0.0000 C   0  0  0  0  0  0  0  0  0  0  0  0
   -2.9929    1.0662    0.0000 C   0  0  0  0  0  0  0  0  0  0  0  0
   -6.2755    3.8744    0.0000 C   0  0  0  0  0  0  0  0  0  0  0  0
  2  1  2  0  0  0  0
  3 12  1  0  0  0  0
  4  1  1  0  0  0  0
  5  2  1  0  0  0  0
  6  4  1  0  0  0  0
  7  1  1  0  0  0  0
  8  3  1  0  0  0  0
  9  3  1  0  0  0  0
 10  2  1  0  0  0  0
 11  7  1  0  0  0  0
 12 11  1  0  0  0  0
 13  8  1  0  0  0  0
 14  9  1  0  0  0  0
 15  8  2  0  0  0  0
 16  9  2  0  0  0  0
 17 10  2  0  0  0  0
 18 11  2  0  0  0  0
 19 10  1  0  0  0  0
 20  5  1  0  0  0  0
 21  6  1  0  0  0  0
 22 19  1  0  0  0  0
  5  6  2  0  0  0  0
 13 14  1  0  0  0  0
M  END
>  <IDNUMBER>
F2590-0359

>  <Chemical_Name>
2-[2-(2,5-dioxopyrrolidin-1-yl)acetamido]-N,4,5-trimethylthiophene-3-carboxamide

>  <PriceCoeff>
1.00

>  <CAS>
896299-03-9

>  <MW>
323.37

>  <Description>
solid

>  <FSP3>
0.43

>  <clogP>
0.40

>  <TPSA>
123.82

>  <Acceptor>
4

>  <Donor>
2

>  <RotBonds>
4

>  <HAC>
22

>  <Collection>
General

>  <PPDS>
+

$$$$
F2590-0745
  Mrv2219 10102508112D          

 29 31  0  0  0  0            999 V2000
   -3.8636    2.9938    0.0000 C   0  0  0  0  0  0  0  0  0  0  0  0
   -4.5368    2.5088    0.0000 C   0  0  0  0  0  0  0  0  0  0  0  0
   -3.2071    2.5046    0.0000 S   0  0  0  0  0  0  0  0  0  0  0  0
   -3.4705    1.7269    0.0000 C   0  0  0  0  0  0  0  0  0  0  0  0
   -4.2859    1.7269    0.0000 C   0  0  0  0  0  0  0  0  0  0  0  0
   -3.1444    7.5181    0.0000 N   0  0  0  0  0  0  0  0  0  0  0  0
   -3.8636    3.8134    0.0000 N   0  0  0  0  0  0  0  0  0  0  0  0
   -3.1486    4.2190    0.0000 C   0  0  0  0  0  0  0  0  0  0  0  0
   -2.5088    8.0325    0.0000 C   0  0  0  0  0  0  0  0  0  0  0  0
   -3.8343    7.9781    0.0000 C   0  0  0  0  0  0  0  0  0  0  0  0
   -2.9938    1.0620    0.0000 C   0  0  0  0  0  0  0  0  0  0  0  0
   -5.3270    2.7806    0.0000 C   0  0  0  0  0  0  0  0  0  0  0  0
   -6.1007    3.0357    0.0000 N   0  0  0  0  0  0  0  0  0  0  0  0
   -3.1444    6.6986    0.0000 C   0  0  0  0  0  0  0  0  0  0  0  0
   -3.1486    5.0470    0.0000 C   0  0  0  0  0  0  0  0  0  0  0  0
   -2.4419    3.8217    0.0000 O   0  0  0  0  0  0  0  0  0  0  0  0
   -3.6085    8.7726    0.0000 C   0  0  0  0  0  0  0  0  0  0  0  0
   -2.7931    8.7976    0.0000 C   0  0  0  0  0  0  0  0  0  0  0  0
   -4.6162    7.6938    0.0000 O   0  0  0  0  0  0  0  0  0  0  0  0
   -1.7143    7.8067    0.0000 O   0  0  0  0  0  0  0  0  0  0  0  0
   -2.1659    1.1373    0.0000 O   0  0  0  0  0  0  0  0  0  0  0  0
   -3.8719    6.2846    0.0000 C   0  0  0  0  0  0  0  0  0  0  0  0
   -2.4419    6.2846    0.0000 C   0  0  0  0  0  0  0  0  0  0  0  0
   -2.4461    5.4567    0.0000 C   0  0  0  0  0  0  0  0  0  0  0  0
   -3.8719    5.4567    0.0000 C   0  0  0  0  0  0  0  0  0  0  0  0
   -3.3200    0.3011    0.0000 O   0  0  0  0  0  0  0  0  0  0  0  0
   -4.7751    1.0620    0.0000 C   0  0  0  0  0  0  0  0  0  0  0  0
   -2.6594   -0.1924    0.0000 C   0  0  0  0  0  0  0  0  0  0  0  0
   -2.7555   -1.0077    0.0000 C   0  0  0  0  0  0  0  0  0  0  0  0
  2  1  2  0  0  0  0
  3  1  1  0  0  0  0
  4  3  1  0  0  0  0
  5  2  1  0  0  0  0
  6 14  1  0  0  0  0
  7  1  1  0  0  0  0
  8  7  1  0  0  0  0
  9  6  1  0  0  0  0
 10  6  1  0  0  0  0
 11  4  1  0  0  0  0
 12  2  1  0  0  0  0
 13 12  3  0  0  0  0
 14 22  1  0  0  0  0
 15  8  1  0  0  0  0
 16  8  2  0  0  0  0
 17 10  1  0  0  0  0
 18  9  1  0  0  0  0
 19 10  2  0  0  0  0
 20  9  2  0  0  0  0
 21 11  2  0  0  0  0
 22 25  2  0  0  0  0
 23 24  1  0  0  0  0
 24 15  2  0  0  0  0
 25 15  1  0  0  0  0
 26 11  1  0  0  0  0
 27  5  1  0  0  0  0
 28 26  1  0  0  0  0
 29 28  1  0  0  0  0
  5  4  2  0  0  0  0
 23 14  2  0  0  0  0
 17 18  1  0  0  0  0
M  END
>  <IDNUMBER>
F2590-0745

>  <Chemical_Name>
ethyl 4-cyano-5-[4-(2,5-dioxopyrrolidin-1-yl)benzamido]-3-methylthiophene-2-carboxylate

>  <PriceCoeff>
1.00

>  <CAS>
896322-09-1

>  <MW>
411.43

>  <Description>
solid

>  <FSP3>
0.25

>  <clogP>
1.13

>  <TPSA>
144.81

>  <Acceptor>
6

>  <Donor>
1

>  <RotBonds>
6

>  <HAC>
29

>  <Collection>
General

>  <PPDS>
+

$$$$
F2590-0758
  Mrv2219 10102508112D          

 29 31  0  0  0  0            999 V2000
   -3.8716    3.0001    0.0000 C   0  0  0  0  0  0  0  0  0  0  0  0
   -4.5462    2.5141    0.0000 C   0  0  0  0  0  0  0  0  0  0  0  0
   -3.2138    2.5098    0.0000 S   0  0  0  0  0  0  0  0  0  0  0  0
   -3.4777    1.7305    0.0000 C   0  0  0  0  0  0  0  0  0  0  0  0
   -1.7221    6.7042    0.0000 N   0  0  0  0  0  0  0  0  0  0  0  0
   -4.2948    1.7305    0.0000 C   0  0  0  0  0  0  0  0  0  0  0  0
   -3.8716    3.8214    0.0000 N   0  0  0  0  0  0  0  0  0  0  0  0
   -2.4470    6.2894    0.0000 C   0  0  0  0  0  0  0  0  0  0  0  0
   -3.1551    4.2278    0.0000 C   0  0  0  0  0  0  0  0  0  0  0  0
   -0.9888    6.3271    0.0000 C   0  0  0  0  0  0  0  0  0  0  0  0
   -1.6090    7.5087    0.0000 C   0  0  0  0  0  0  0  0  0  0  0  0
   -3.0001    1.0643    0.0000 C   0  0  0  0  0  0  0  0  0  0  0  0
   -5.3381    2.7864    0.0000 C   0  0  0  0  0  0  0  0  0  0  0  0
   -6.1134    3.0420    0.0000 N   0  0  0  0  0  0  0  0  0  0  0  0
   -2.4470    5.4597    0.0000 C   0  0  0  0  0  0  0  0  0  0  0  0
   -3.1551    5.0533    0.0000 C   0  0  0  0  0  0  0  0  0  0  0  0
   -2.4470    3.8297    0.0000 O   0  0  0  0  0  0  0  0  0  0  0  0
   -0.7919    7.6595    0.0000 C   0  0  0  0  0  0  0  0  0  0  0  0
   -0.4106    6.9388    0.0000 C   0  0  0  0  0  0  0  0  0  0  0  0
   -2.1830    8.0995    0.0000 O   0  0  0  0  0  0  0  0  0  0  0  0
   -0.8548    5.5100    0.0000 O   0  0  0  0  0  0  0  0  0  0  0  0
   -2.1704    1.1397    0.0000 O   0  0  0  0  0  0  0  0  0  0  0  0
   -3.3269    0.3017    0.0000 O   0  0  0  0  0  0  0  0  0  0  0  0
   -4.7851    1.0643    0.0000 C   0  0  0  0  0  0  0  0  0  0  0  0
   -3.1509    6.7042    0.0000 C   0  0  0  0  0  0  0  0  0  0  0  0
   -3.8716    5.4597    0.0000 C   0  0  0  0  0  0  0  0  0  0  0  0
   -3.8716    6.2894    0.0000 C   0  0  0  0  0  0  0  0  0  0  0  0
   -2.6649   -0.1928    0.0000 C   0  0  0  0  0  0  0  0  0  0  0  0
   -2.7612   -1.0098    0.0000 C   0  0  0  0  0  0  0  0  0  0  0  0
  2  1  2  0  0  0  0
  3  1  1  0  0  0  0
  4  3  1  0  0  0  0
  5  8  1  0  0  0  0
  6  2  1  0  0  0  0
  7  1  1  0  0  0  0
  8 15  1  0  0  0  0
  9  7  1  0  0  0  0
 10  5  1  0  0  0  0
 11  5  1  0  0  0  0
 12  4  1  0  0  0  0
 13  2  1  0  0  0  0
 14 13  3  0  0  0  0
 15 16  2  0  0  0  0
 16  9  1  0  0  0  0
 17  9  2  0  0  0  0
 18 11  1  0  0  0  0
 19 10  1  0  0  0  0
 20 11  2  0  0  0  0
 21 10  2  0  0  0  0
 22 12  2  0  0  0  0
 23 12  1  0  0  0  0
 24  6  1  0  0  0  0
 25 27  1  0  0  0  0
 26 16  1  0  0  0  0
 27 26  2  0  0  0  0
 28 23  1  0  0  0  0
 29 28  1  0  0  0  0
  6  4  2  0  0  0  0
  8 25  2  0  0  0  0
 18 19  1  0  0  0  0
M  END
>  <IDNUMBER>
F2590-0758

>  <Chemical_Name>
ethyl 4-cyano-5-[3-(2,5-dioxopyrrolidin-1-yl)benzamido]-3-methylthiophene-2-carboxylate

>  <PriceCoeff>
1.00

>  <CAS>
896322-37-5

>  <MW>
411.43

>  <Description>
solid

>  <FSP3>
0.25

>  <clogP>
1.13

>  <TPSA>
144.81

>  <Acceptor>
6

>  <Donor>
1

>  <RotBonds>
6

>  <HAC>
29

>  <Collection>
General

>  <PPDS>
+

$$$$
F2590-0796
  Mrv2219 10102508112D          

 24 25  0  0  0  0            999 V2000
   -3.8751    3.0028    0.0000 C   0  0  0  0  0  0  0  0  0  0  0  0
   -4.5503    2.5163    0.0000 C   0  0  0  0  0  0  0  0  0  0  0  0
   -3.2167    2.5121    0.0000 S   0  0  0  0  0  0  0  0  0  0  0  0
   -3.4809    1.7320    0.0000 C   0  0  0  0  0  0  0  0  0  0  0  0
   -1.7194    4.2400    0.0000 N   0  0  0  0  0  0  0  0  0  0  0  0
   -4.2987    1.7320    0.0000 C   0  0  0  0  0  0  0  0  0  0  0  0
   -3.8751    3.8248    0.0000 N   0  0  0  0  0  0  0  0  0  0  0  0
   -0.9688    3.9086    0.0000 C   0  0  0  0  0  0  0  0  0  0  0  0
   -1.6440    5.0620    0.0000 C   0  0  0  0  0  0  0  0  0  0  0  0
   -3.0028    1.0652    0.0000 C   0  0  0  0  0  0  0  0  0  0  0  0
   -5.3429    2.7889    0.0000 C   0  0  0  0  0  0  0  0  0  0  0  0
   -3.1580    4.2316    0.0000 C   0  0  0  0  0  0  0  0  0  0  0  0
   -2.4366    3.8248    0.0000 C   0  0  0  0  0  0  0  0  0  0  0  0
   -6.1189    3.0447    0.0000 N   0  0  0  0  0  0  0  0  0  0  0  0
   -0.4152    4.5210    0.0000 C   0  0  0  0  0  0  0  0  0  0  0  0
   -0.8387    5.2382    0.0000 C   0  0  0  0  0  0  0  0  0  0  0  0
   -0.7926    3.1034    0.0000 O   0  0  0  0  0  0  0  0  0  0  0  0
   -2.2521    5.6030    0.0000 O   0  0  0  0  0  0  0  0  0  0  0  0
   -2.1724    1.1407    0.0000 O   0  0  0  0  0  0  0  0  0  0  0  0
   -3.1580    5.0494    0.0000 O   0  0  0  0  0  0  0  0  0  0  0  0
   -3.3299    0.3020    0.0000 O   0  0  0  0  0  0  0  0  0  0  0  0
   -4.7893    1.0652    0.0000 C   0  0  0  0  0  0  0  0  0  0  0  0
   -2.6673   -0.1930    0.0000 C   0  0  0  0  0  0  0  0  0  0  0  0
   -2.7637   -1.0108    0.0000 C   0  0  0  0  0  0  0  0  0  0  0  0
  2  1  2  0  0  0  0
  3  1  1  0  0  0  0
  4  3  1  0  0  0  0
  5 13  1  0  0  0  0
  6  2  1  0  0  0  0
  7  1  1  0  0  0  0
  8  5  1  0  0  0  0
  9  5  1  0  0  0  0
 10  4  1  0  0  0  0
 11  2  1  0  0  0  0
 12  7  1  0  0  0  0
 13 12  1  0  0  0  0
 14 11  3  0  0  0  0
 15  8  1  0  0  0  0
 16  9  1  0  0  0  0
 17  8  2  0  0  0  0
 18  9  2  0  0  0  0
 19 10  2  0  0  0  0
 20 12  2  0  0  0  0
 21 10  1  0  0  0  0
 22  6  1  0  0  0  0
 23 21  1  0  0  0  0
 24 23  1  0  0  0  0
  6  4  2  0  0  0  0
 15 16  1  0  0  0  0
M  END
>  <IDNUMBER>
F2590-0796

>  <Chemical_Name>
ethyl 4-cyano-5-[2-(2,5-dioxopyrrolidin-1-yl)acetamido]-3-methylthiophene-2-carboxylate

>  <PriceCoeff>
1.00

>  <CAS>
896323-68-5

>  <MW>
349.36

>  <Description>
solid

>  <FSP3>
0.40

>  <clogP>
0.95

>  <TPSA>
144.81

>  <Acceptor>
6

>  <Donor>
1

>  <RotBonds>
6

>  <HAC>
24

>  <Collection>
General

>  <PPDS>
+

$$$$
F2590-1466
  Mrv2219 10102508112D          

 27 29  0  0  0  0            999 V2000
   -3.8643    2.9944    0.0000 C   0  0  0  0  0  0  0  0  0  0  0  0
   -4.5376    2.5176    0.0000 C   0  0  0  0  0  0  0  0  0  0  0  0
   -3.1449    7.5195    0.0000 N   0  0  0  0  0  0  0  0  0  0  0  0
   -3.2077    2.5093    0.0000 S   0  0  0  0  0  0  0  0  0  0  0  0
   -4.2867    1.7272    0.0000 C   0  0  0  0  0  0  0  0  0  0  0  0
   -3.8643    3.8141    0.0000 N   0  0  0  0  0  0  0  0  0  0  0  0
   -3.4586    1.7314    0.0000 C   0  0  0  0  0  0  0  0  0  0  0  0
   -3.1492    4.2198    0.0000 C   0  0  0  0  0  0  0  0  0  0  0  0
   -2.5093    8.0339    0.0000 C   0  0  0  0  0  0  0  0  0  0  0  0
   -3.8350    7.9795    0.0000 C   0  0  0  0  0  0  0  0  0  0  0  0
   -5.3197    2.7685    0.0000 C   0  0  0  0  0  0  0  0  0  0  0  0
   -3.1449    6.6998    0.0000 C   0  0  0  0  0  0  0  0  0  0  0  0
   -3.1492    5.0479    0.0000 C   0  0  0  0  0  0  0  0  0  0  0  0
   -2.4423    3.8224    0.0000 O   0  0  0  0  0  0  0  0  0  0  0  0
   -3.6092    8.7742    0.0000 C   0  0  0  0  0  0  0  0  0  0  0  0
   -2.7936    8.7993    0.0000 C   0  0  0  0  0  0  0  0  0  0  0  0
   -4.6171    7.6952    0.0000 O   0  0  0  0  0  0  0  0  0  0  0  0
   -1.7146    7.8081    0.0000 O   0  0  0  0  0  0  0  0  0  0  0  0
   -5.9428    2.2165    0.0000 O   0  0  0  0  0  0  0  0  0  0  0  0
   -3.8726    6.2858    0.0000 C   0  0  0  0  0  0  0  0  0  0  0  0
   -2.4423    6.2858    0.0000 C   0  0  0  0  0  0  0  0  0  0  0  0
   -2.4466    5.4577    0.0000 C   0  0  0  0  0  0  0  0  0  0  0  0
   -3.8726    5.4577    0.0000 C   0  0  0  0  0  0  0  0  0  0  0  0
   -5.4911    3.5757    0.0000 O   0  0  0  0  0  0  0  0  0  0  0  0
   -4.7676    1.0622    0.0000 C   0  0  0  0  0  0  0  0  0  0  0  0
   -2.9818    1.0622    0.0000 C   0  0  0  0  0  0  0  0  0  0  0  0
   -6.2649    3.8350    0.0000 C   0  0  0  0  0  0  0  0  0  0  0  0
  2  1  2  0  0  0  0
  3 12  1  0  0  0  0
  4  1  1  0  0  0  0
  5  2  1  0  0  0  0
  6  1  1  0  0  0  0
  7  4  1  0  0  0  0
  8  6  1  0  0  0  0
  9  3  1  0  0  0  0
 10  3  1  0  0  0  0
 11  2  1  0  0  0  0
 12 20  1  0  0  0  0
 13  8  1  0  0  0  0
 14  8  2  0  0  0  0
 15 10  1  0  0  0  0
 16  9  1  0  0  0  0
 17 10  2  0  0  0  0
 18  9  2  0  0  0  0
 19 11  2  0  0  0  0
 20 23  2  0  0  0  0
 21 22  1  0  0  0  0
 22 13  2  0  0  0  0
 23 13  1  0  0  0  0
 24 11  1  0  0  0  0
 25  5  1  0  0  0  0
 26  7  1  0  0  0  0
 27 24  1  0  0  0  0
  5  7  2  0  0  0  0
 21 12  2  0  0  0  0
 15 16  1  0  0  0  0
M  END
>  <IDNUMBER>
F2590-1466

>  <Chemical_Name>
methyl 2-[4-(2,5-dioxopyrrolidin-1-yl)benzamido]-4,5-dimethylthiophene-3-carboxylate

>  <PriceCoeff>
1.00

>  <CAS>
896615-50-2

>  <MW>
386.42

>  <Description>
solid

>  <FSP3>
0.26

>  <clogP>
1.91

>  <TPSA>
121.02

>  <Acceptor>
5

>  <Donor>
1

>  <RotBonds>
5

>  <HAC>
27

>  <Collection>
General

>  <PPDS>
+

$$$$
F2593-0414
  Mrv2219 10102508112D          

 25 27  0  0  0  0            999 V2000
   -2.2922    3.7940    0.0000 C   0  0  0  0  0  0  0  0  0  0  0  0
   -2.4586    2.9910    0.0000 N   0  0  0  0  0  0  0  0  0  0  0  0
   -3.2449    2.7414    0.0000 C   0  0  0  0  0  0  0  0  0  0  0  0
   -1.5060    4.0353    0.0000 N   0  0  0  0  0  0  0  0  0  0  0  0
   -3.5028    1.9552    0.0000 N   0  0  0  0  0  0  0  0  0  0  0  0
   -1.8553    2.4420    0.0000 C   0  0  0  0  0  0  0  0  0  0  0  0
   -0.3702    5.8949    0.0000 C   0  0  0  0  0  0  0  0  0  0  0  0
   -0.5449    5.0961    0.0000 C   0  0  0  0  0  0  0  0  0  0  0  0
   -2.9037    4.3348    0.0000 O   0  0  0  0  0  0  0  0  0  0  0  0
   -1.3312    4.8466    0.0000 C   0  0  0  0  0  0  0  0  0  0  0  0
   -0.9817    6.4565    0.0000 C   0  0  0  0  0  0  0  0  0  0  0  0
   -2.0301    1.6349    0.0000 C   0  0  0  0  0  0  0  0  0  0  0  0
   -1.0691    2.7041    0.0000 C   0  0  0  0  0  0  0  0  0  0  0  0
   -1.7680    6.2068    0.0000 C   0  0  0  0  0  0  0  0  0  0  0  0
    0.4161    6.1569    0.0000 Cl  0  0  0  0  0  0  0  0  0  0  0  0
   -1.9427    5.3957    0.0000 C   0  0  0  0  0  0  0  0  0  0  0  0
   -0.8070    7.2552    0.0000 Cl  0  0  0  0  0  0  0  0  0  0  0  0
   -0.6323    1.3437    0.0000 C   0  0  0  0  0  0  0  0  0  0  0  0
   -0.4618    2.1549    0.0000 C   0  0  0  0  0  0  0  0  0  0  0  0
   -1.4103    1.0858    0.0000 C   0  0  0  0  0  0  0  0  0  0  0  0
   -3.9146    3.2282    0.0000 C   0  0  0  0  0  0  0  0  0  0  0  0
   -4.3264    1.9552    0.0000 C   0  0  0  0  0  0  0  0  0  0  0  0
   -0.0125    0.7862    0.0000 O   0  0  0  0  0  0  0  0  0  0  0  0
   -0.1747   -0.0167    0.0000 C   0  0  0  0  0  0  0  0  0  0  0  0
   -4.5761    2.7414    0.0000 C   0  0  0  0  0  0  0  0  0  0  0  0
  2  1  1  0  0  0  0
  3  2  1  0  0  0  0
  4  1  1  0  0  0  0
  5  3  2  0  0  0  0
  6  2  1  0  0  0  0
  7  8  2  0  0  0  0
  8 10  1  0  0  0  0
  9  1  2  0  0  0  0
 10  4  1  0  0  0  0
 11 14  2  0  0  0  0
 12  6  2  0  0  0  0
 13  6  1  0  0  0  0
 14 16  1  0  0  0  0
 15  7  1  0  0  0  0
 16 10  2  0  0  0  0
 17 11  1  0  0  0  0
 18 19  1  0  0  0  0
 19 13  2  0  0  0  0
 20 12  1  0  0  0  0
 21  3  1  0  0  0  0
 22  5  1  0  0  0  0
 23 18  1  0  0  0  0
 24 23  1  0  0  0  0
 25 21  1  0  0  0  0
 20 18  2  0  0  0  0
 22 25  1  0  0  0  0
 11  7  1  0  0  0  0
M  END
>  <IDNUMBER>
F2593-0414

>  <Chemical_Name>
1-(3,4-dichlorophenyl)-3-(3,4-dihydro-2H-pyrrol-5-yl)-3-(4-methoxyphenyl)urea

>  <PriceCoeff>
1.00

>  <CAS>
634164-39-9

>  <MW>
378.25

>  <Description>
solid

>  <FSP3>
0.22

>  <clogP>
4.50

>  <TPSA>
53.93

>  <Acceptor>
3

>  <Donor>
1

>  <RotBonds>
5

>  <HAC>
25

>  <Collection>
General

$$$$
F2604-0411
  Mrv2219 10102508112D          

 30 33  0  0  0  0            999 V2000
    1.6407    3.6438    0.0000 C   0  0  0  0  0  0  0  0  0  0  0  0
    1.2035    2.9441    0.0000 C   0  0  0  0  0  0  0  0  0  0  0  0
    2.9359    5.7593    0.0000 N   0  3  0  0  0  0  0  0  0  0  0  0
    0.3790    2.9691    0.0000 N   0  0  0  0  0  0  0  0  0  0  0  0
   -2.4862    3.7729    0.0000 N   0  0  0  0  0  0  0  0  0  0  0  0
   -3.3107    3.7979    0.0000 N   0  0  0  0  0  0  0  0  0  0  0  0
   -1.2701    3.0233    0.0000 N   0  0  0  0  0  0  0  0  0  0  0  0
    2.4737    3.6313    0.0000 C   0  0  0  0  0  0  0  0  0  0  0  0
   -2.0988    3.0483    0.0000 C   0  0  0  0  0  0  0  0  0  0  0  0
   -3.7562    3.0941    0.0000 C   0  0  0  0  0  0  0  0  0  0  0  0
    2.5029    5.0597    0.0000 C   0  0  0  0  0  0  0  0  0  0  0  0
   -4.5808    3.1191    0.0000 N   0  0  0  0  0  0  0  0  0  0  0  0
    2.9109    4.3226    0.0000 C   0  0  0  0  0  0  0  0  0  0  0  0
    1.2535    4.3643    0.0000 C   0  0  0  0  0  0  0  0  0  0  0  0
    3.7521    5.7386    0.0000 O   0  5  0  0  0  0  0  0  0  0  0  0
    2.5403    6.4839    0.0000 O   0  0  0  0  0  0  0  0  0  0  0  0
    1.5908    2.2113    0.0000 O   0  0  0  0  0  0  0  0  0  0  0  0
   -0.0083    3.7062    0.0000 C   0  0  0  0  0  0  0  0  0  0  0  0
   -0.0583    2.2696    0.0000 C   0  0  0  0  0  0  0  0  0  0  0  0
   -0.8370    3.7312    0.0000 C   0  0  0  0  0  0  0  0  0  0  0  0
   -0.8828    2.2863    0.0000 C   0  0  0  0  0  0  0  0  0  0  0  0
    1.6657    5.0639    0.0000 C   0  0  0  0  0  0  0  0  0  0  0  0
   -3.3565    2.3695    0.0000 C   0  0  0  0  0  0  0  0  0  0  0  0
   -2.5319    2.3445    0.0000 C   0  0  0  0  0  0  0  0  0  0  0  0
    3.1774    3.1815    0.0000 Cl  0  0  0  0  0  0  0  0  0  0  0  0
   -5.0180    2.4195    0.0000 C   0  0  0  0  0  0  0  0  0  0  0  0
   -4.9680    3.8436    0.0000 C   0  0  0  0  0  0  0  0  0  0  0  0
   -5.8425    2.4445    0.0000 C   0  0  0  0  0  0  0  0  0  0  0  0
   -5.7925    3.8686    0.0000 C   0  0  0  0  0  0  0  0  0  0  0  0
   -6.2257    3.1690    0.0000 C   0  0  0  0  0  0  0  0  0  0  0  0
  2  1  1  0  0  0  0
  3 11  1  0  0  0  0
  4  2  1  0  0  0  0
  5  9  2  0  0  0  0
  6  5  1  0  0  0  0
  7 21  1  0  0  0  0
  8  1  1  0  0  0  0
  9  7  1  0  0  0  0
 10 23  1  0  0  0  0
 11 22  2  0  0  0  0
 12 10  1  0  0  0  0
 13  8  2  0  0  0  0
 14  1  2  0  0  0  0
 15  3  1  0  0  0  0
 16  3  2  0  0  0  0
 17  2  2  0  0  0  0
 18  4  1  0  0  0  0
 19  4  1  0  0  0  0
 20 18  1  0  0  0  0
 21 19  1  0  0  0  0
 22 14  1  0  0  0  0
 23 24  2  0  0  0  0
 24  9  1  0  0  0  0
 25  8  1  0  0  0  0
 26 12  1  0  0  0  0
 27 12  1  0  0  0  0
 28 26  1  0  0  0  0
 29 27  1  0  0  0  0
 30 29  1  0  0  0  0
 13 11  1  0  0  0  0
 20  7  1  0  0  0  0
  6 10  2  0  0  0  0
 28 30  1  0  0  0  0
M  CHG  2   3   1  15  -1
M  END
>  <IDNUMBER>
F2604-0411

>  <Chemical_Name>
3-[4-(2-chloro-4-nitrobenzoyl)piperazin-1-yl]-6-(piperidin-1-yl)pyridazine

>  <PriceCoeff>
1.00

>  <CAS>
898459-69-3

>  <MW>
430.89

>  <Description>
solid

>  <FSP3>
0.45

>  <clogP>
3.17

>  <TPSA>
95.71

>  <Acceptor>
5

>  <Donor>
2

>  <RotBonds>
5

>  <HAC>
30

>  <Collection>
General

>  <PPDS>
+

$$$$
F2604-0480
  Mrv2219 10102508112D          

 31 34  0  0  0  0            999 V2000
    1.6381    3.6377    0.0000 C   0  0  0  0  0  0  0  0  0  0  0  0
    1.2015    2.9393    0.0000 C   0  0  0  0  0  0  0  0  0  0  0  0
    2.9310    5.7498    0.0000 N   0  3  0  0  0  0  0  0  0  0  0  0
    0.3784    2.9642    0.0000 N   0  0  0  0  0  0  0  0  0  0  0  0
   -2.4820    3.7666    0.0000 N   0  0  0  0  0  0  0  0  0  0  0  0
   -3.3052    3.7916    0.0000 N   0  0  0  0  0  0  0  0  0  0  0  0
   -1.2680    3.0183    0.0000 N   0  0  0  0  0  0  0  0  0  0  0  0
    2.4695    3.6253    0.0000 C   0  0  0  0  0  0  0  0  0  0  0  0
   -2.0954    3.0433    0.0000 C   0  0  0  0  0  0  0  0  0  0  0  0
   -3.7500    3.0890    0.0000 C   0  0  0  0  0  0  0  0  0  0  0  0
    2.4987    5.0513    0.0000 C   0  0  0  0  0  0  0  0  0  0  0  0
   -4.5732    3.1139    0.0000 N   0  0  0  0  0  0  0  0  0  0  0  0
    2.9061    4.3154    0.0000 C   0  0  0  0  0  0  0  0  0  0  0  0
    1.2514    4.3570    0.0000 C   0  0  0  0  0  0  0  0  0  0  0  0
    3.7459    5.7290    0.0000 O   0  5  0  0  0  0  0  0  0  0  0  0
    2.5361    6.4731    0.0000 O   0  0  0  0  0  0  0  0  0  0  0  0
    1.5882    2.2076    0.0000 O   0  0  0  0  0  0  0  0  0  0  0  0
   -0.0083    3.7001    0.0000 C   0  0  0  0  0  0  0  0  0  0  0  0
   -0.0582    2.2658    0.0000 C   0  0  0  0  0  0  0  0  0  0  0  0
   -0.8356    3.7250    0.0000 C   0  0  0  0  0  0  0  0  0  0  0  0
   -0.8813    2.2824    0.0000 C   0  0  0  0  0  0  0  0  0  0  0  0
    1.6630    5.0555    0.0000 C   0  0  0  0  0  0  0  0  0  0  0  0
   -3.3509    2.3656    0.0000 C   0  0  0  0  0  0  0  0  0  0  0  0
   -2.5277    2.3406    0.0000 C   0  0  0  0  0  0  0  0  0  0  0  0
    3.1722    3.1763    0.0000 Cl  0  0  0  0  0  0  0  0  0  0  0  0
   -4.9723    2.3406    0.0000 C   0  0  0  0  0  0  0  0  0  0  0  0
   -4.9349    3.9246    0.0000 C   0  0  0  0  0  0  0  0  0  0  0  0
   -5.8079    2.2159    0.0000 C   0  0  0  0  0  0  0  0  0  0  0  0
   -5.7705    4.0826    0.0000 C   0  0  0  0  0  0  0  0  0  0  0  0
   -6.3110    2.7273    0.0000 C   0  0  0  0  0  0  0  0  0  0  0  0
   -6.3027    3.5796    0.0000 C   0  0  0  0  0  0  0  0  0  0  0  0
  2  1  1  0  0  0  0
  3 11  1  0  0  0  0
  4  2  1  0  0  0  0
  5  9  2  0  0  0  0
  6  5  1  0  0  0  0
  7 21  1  0  0  0  0
  8  1  1  0  0  0  0
  9  7  1  0  0  0  0
 10 23  1  0  0  0  0
 11 22  2  0  0  0  0
 12 10  1  0  0  0  0
 13  8  2  0  0  0  0
 14  1  2  0  0  0  0
 15  3  1  0  0  0  0
 16  3  2  0  0  0  0
 17  2  2  0  0  0  0
 18  4  1  0  0  0  0
 19  4  1  0  0  0  0
 20 18  1  0  0  0  0
 21 19  1  0  0  0  0
 22 14  1  0  0  0  0
 23 24  2  0  0  0  0
 24  9  1  0  0  0  0
 25  8  1  0  0  0  0
 26 12  1  0  0  0  0
 27 12  1  0  0  0  0
 28 26  1  0  0  0  0
 29 27  1  0  0  0  0
 30 28  1  0  0  0  0
 31 29  1  0  0  0  0
 13 11  1  0  0  0  0
 20  7  1  0  0  0  0
  6 10  2  0  0  0  0
 31 30  1  0  0  0  0
M  CHG  2   3   1  15  -1
M  END
>  <IDNUMBER>
F2604-0480

>  <Chemical_Name>
1-{6-[4-(2-chloro-4-nitrobenzoyl)piperazin-1-yl]pyridazin-3-yl}azepane

>  <PriceCoeff>
1.00

>  <CAS>
898434-97-4

>  <MW>
444.91

>  <Description>
solid

>  <FSP3>
0.48

>  <clogP>
3.73

>  <TPSA>
95.71

>  <Acceptor>
5

>  <Donor>
2

>  <RotBonds>
5

>  <HAC>
31

>  <Collection>
General

>  <PPDS>
+

$$$$
F2607-0311
  Mrv2219 10102508112D          

 33 37  0  0  0  0            999 V2000
   -0.0083    2.6766    0.0000 C   0  0  0  0  0  0  0  0  0  0  0  0
   -5.8836    5.1028    0.0000 N   0  0  0  0  0  0  0  0  0  0  0  0
   -0.2631    1.8874    0.0000 N   0  0  0  0  0  0  0  0  0  0  0  0
   -0.6765    3.1652    0.0000 S   0  0  0  0  0  0  0  0  0  0  0  0
    0.7809    2.9272    0.0000 N   0  0  0  0  0  0  0  0  0  0  0  0
   -5.6331    4.3136    0.0000 C   0  0  0  0  0  0  0  0  0  0  0  0
   -1.3404    2.6766    0.0000 C   0  0  0  0  0  0  0  0  0  0  0  0
   -5.3700    5.7417    0.0000 C   0  0  0  0  0  0  0  0  0  0  0  0
   -6.6520    5.3868    0.0000 C   0  0  0  0  0  0  0  0  0  0  0  0
   -3.7665    3.1945    0.0000 C   0  0  0  0  0  0  0  0  0  0  0  0
   -1.0899    1.8874    0.0000 C   0  0  0  0  0  0  0  0  0  0  0  0
   -4.8230    4.1382    0.0000 C   0  0  0  0  0  0  0  0  0  0  0  0
   -4.5683    3.3656    0.0000 C   0  0  0  0  0  0  0  0  0  0  0  0
   -2.1505    2.8520    0.0000 C   0  0  0  0  0  0  0  0  0  0  0  0
   -3.5077    2.4053    0.0000 O   0  0  0  0  0  0  0  0  0  0  0  0
    2.3468    3.4408    0.0000 N   0  0  0  0  0  0  0  0  0  0  0  0
   -2.7017    2.2382    0.0000 C   0  0  0  0  0  0  0  0  0  0  0  0
   -6.6187    6.2052    0.0000 C   0  0  0  0  0  0  0  0  0  0  0  0
   -5.8461    6.4391    0.0000 C   0  0  0  0  0  0  0  0  0  0  0  0
   -3.2070    3.8083    0.0000 O   0  0  0  0  0  0  0  0  0  0  0  0
    1.3905    2.3760    0.0000 C   0  0  0  0  0  0  0  0  0  0  0  0
    0.9521    3.7415    0.0000 C   0  0  0  0  0  0  0  0  0  0  0  0
   -7.3410    4.9400    0.0000 O   0  0  0  0  0  0  0  0  0  0  0  0
   -4.5432    5.7042    0.0000 O   0  0  0  0  0  0  0  0  0  0  0  0
   -1.6369    1.2778    0.0000 C   0  0  0  0  0  0  0  0  0  0  0  0
    2.1714    2.6307    0.0000 C   0  0  0  0  0  0  0  0  0  0  0  0
    1.7330    3.9920    0.0000 C   0  0  0  0  0  0  0  0  0  0  0  0
   -2.4386    1.4490    0.0000 C   0  0  0  0  0  0  0  0  0  0  0  0
   -6.1802    3.7164    0.0000 C   0  0  0  0  0  0  0  0  0  0  0  0
    3.1360    3.6914    0.0000 C   0  0  0  0  0  0  0  0  0  0  0  0
   -5.1237    2.7518    0.0000 C   0  0  0  0  0  0  0  0  0  0  0  0
   -5.9338    2.9272    0.0000 C   0  0  0  0  0  0  0  0  0  0  0  0
    3.7457    3.1402    0.0000 C   0  0  0  0  0  0  0  0  0  0  0  0
  2  6  1  0  0  0  0
  3  1  2  0  0  0  0
  4  1  1  0  0  0  0
  5  1  1  0  0  0  0
  6 12  1  0  0  0  0
  7  4  1  0  0  0  0
  8  2  1  0  0  0  0
  9  2  1  0  0  0  0
 10 15  1  0  0  0  0
 11  3  1  0  0  0  0
 12 13  2  0  0  0  0
 13 10  1  0  0  0  0
 14  7  1  0  0  0  0
 15 17  1  0  0  0  0
 16 27  1  0  0  0  0
 17 14  2  0  0  0  0
 18  9  1  0  0  0  0
 19  8  1  0  0  0  0
 20 10  2  0  0  0  0
 21  5  1  0  0  0  0
 22  5  1  0  0  0  0
 23  9  2  0  0  0  0
 24  8  2  0  0  0  0
 25 11  1  0  0  0  0
 26 21  1  0  0  0  0
 27 22  1  0  0  0  0
 28 25  2  0  0  0  0
 29 32  1  0  0  0  0
 30 16  1  0  0  0  0
 31 13  1  0  0  0  0
 32 31  2  0  0  0  0
 33 30  1  0  0  0  0
  7 11  2  0  0  0  0
 16 26  1  0  0  0  0
 28 17  1  0  0  0  0
  6 29  2  0  0  0  0
 19 18  1  0  0  0  0
M  END
>  <IDNUMBER>
F2607-0311

>  <Chemical_Name>
2-(4-ethylpiperazin-1-yl)-1,3-benzothiazol-6-yl 3-(2,5-dioxopyrrolidin-1-yl)benzoate

>  <PriceCoeff>
1.00

>  <CAS>
941995-25-1

>  <MW>
464.54

>  <Description>
solid

>  <FSP3>
0.33

>  <clogP>
3.39

>  <TPSA>
111.29

>  <Acceptor>
6

>  <Donor>
2

>  <RotBonds>
6

>  <HAC>
33

>  <Collection>
General

>  <PPDS>
+

$$$$
F2609-0840
  Mrv2219 10102508112D          

 26 29  0  0  0  0            999 V2000
   -4.5911    1.3429    0.0000 C   0  0  0  0  0  0  0  0  0  0  0  0
   -0.2853    3.0047    0.0000 N   0  0  0  0  0  0  0  0  0  0  0  0
   -4.6792    0.5245    0.0000 N   0  0  0  0  0  0  0  0  0  0  0  0
   -5.3464    1.6702    0.0000 S   0  0  0  0  0  0  0  0  0  0  0  0
   -3.8735    1.7500    0.0000 N   0  0  0  0  0  0  0  0  0  0  0  0
   -1.7206    3.0047    0.0000 C   0  0  0  0  0  0  0  0  0  0  0  0
   -1.0072    2.5809    0.0000 C   0  0  0  0  0  0  0  0  0  0  0  0
   -0.1972    3.8230    0.0000 C   0  0  0  0  0  0  0  0  0  0  0  0
    0.4658    2.6523    0.0000 C   0  0  0  0  0  0  0  0  0  0  0  0
   -5.8878    1.0576    0.0000 C   0  0  0  0  0  0  0  0  0  0  0  0
   -2.4425    2.5809    0.0000 N   0  0  0  0  0  0  0  0  0  0  0  0
   -5.4766    0.3483    0.0000 C   0  0  0  0  0  0  0  0  0  0  0  0
   -6.7020    1.0576    0.0000 C   0  0  0  0  0  0  0  0  0  0  0  0
   -3.8735    2.5809    0.0000 C   0  0  0  0  0  0  0  0  0  0  0  0
   -3.1600    1.3429    0.0000 C   0  0  0  0  0  0  0  0  0  0  0  0
   -3.1600    3.0047    0.0000 C   0  0  0  0  0  0  0  0  0  0  0  0
   -2.4425    1.7500    0.0000 C   0  0  0  0  0  0  0  0  0  0  0  0
   -1.7206    3.8273    0.0000 O   0  0  0  0  0  0  0  0  0  0  0  0
    0.6085    3.9868    0.0000 C   0  0  0  0  0  0  0  0  0  0  0  0
    1.0240    3.2691    0.0000 C   0  0  0  0  0  0  0  0  0  0  0  0
   -0.8016    4.3729    0.0000 O   0  0  0  0  0  0  0  0  0  0  0  0
    0.6337    1.8381    0.0000 O   0  0  0  0  0  0  0  0  0  0  0  0
   -5.8878   -0.3651    0.0000 C   0  0  0  0  0  0  0  0  0  0  0  0
   -7.1175    0.3483    0.0000 C   0  0  0  0  0  0  0  0  0  0  0  0
   -6.7020   -0.3693    0.0000 C   0  0  0  0  0  0  0  0  0  0  0  0
   -7.9568    0.1217    0.0000 F   0  0  0  0  0  0  0  0  0  0  0  0
  2  7  1  0  0  0  0
  3  1  2  0  0  0  0
  4  1  1  0  0  0  0
  5  1  1  0  0  0  0
  6 11  1  0  0  0  0
  7  6  1  0  0  0  0
  8  2  1  0  0  0  0
  9  2  1  0  0  0  0
 10  4  1  0  0  0  0
 11 17  1  0  0  0  0
 12  3  1  0  0  0  0
 13 10  1  0  0  0  0
 14  5  1  0  0  0  0
 15  5  1  0  0  0  0
 16 14  1  0  0  0  0
 17 15  1  0  0  0  0
 18  6  2  0  0  0  0
 19  8  1  0  0  0  0
 20  9  1  0  0  0  0
 21  8  2  0  0  0  0
 22  9  2  0  0  0  0
 23 12  1  0  0  0  0
 24 13  2  0  0  0  0
 25 23  2  0  0  0  0
 26 24  1  0  0  0  0
 10 12  2  0  0  0  0
 16 11  1  0  0  0  0
 25 24  1  0  0  0  0
 19 20  1  0  0  0  0
M  END
>  <IDNUMBER>
F2609-0840

>  <Chemical_Name>
1-{2-[4-(6-fluoro-1,3-benzothiazol-2-yl)piperazin-1-yl]-2-oxoethyl}pyrrolidine-2,5-dione

>  <PriceCoeff>
1.50

>  <CAS>
897472-30-9

>  <MW>
376.41

>  <Description>
solid

>  <FSP3>
0.41

>  <clogP>
1.97

>  <TPSA>
102.06

>  <Acceptor>
4

>  <Donor>
1

>  <RotBonds>
4

>  <HAC>
26

>  <Collection>
Advanced

>  <PPDS>
+

$$$$
F2609-2014
  Mrv2219 10102508112D          

 26 29  0  0  0  0            999 V2000
   -4.5677    1.3361    0.0000 C   0  0  0  0  0  0  0  0  0  0  0  0
   -4.6554    0.5136    0.0000 N   0  0  0  0  0  0  0  0  0  0  0  0
   -0.2839    2.9895    0.0000 N   0  0  0  0  0  0  0  0  0  0  0  0
   -5.3318    1.6659    0.0000 S   0  0  0  0  0  0  0  0  0  0  0  0
   -5.4571    0.3382    0.0000 C   0  0  0  0  0  0  0  0  0  0  0  0
   -3.8538    1.7411    0.0000 N   0  0  0  0  0  0  0  0  0  0  0  0
   -1.7118    2.9895    0.0000 C   0  0  0  0  0  0  0  0  0  0  0  0
   -1.0021    2.5678    0.0000 C   0  0  0  0  0  0  0  0  0  0  0  0
   -0.1962    3.8037    0.0000 C   0  0  0  0  0  0  0  0  0  0  0  0
    0.4635    2.6388    0.0000 C   0  0  0  0  0  0  0  0  0  0  0  0
   -2.4300    2.5678    0.0000 N   0  0  0  0  0  0  0  0  0  0  0  0
   -5.8704    1.0522    0.0000 C   0  0  0  0  0  0  0  0  0  0  0  0
   -5.8621   -0.3675    0.0000 C   0  0  0  0  0  0  0  0  0  0  0  0
   -3.8538    2.5678    0.0000 C   0  0  0  0  0  0  0  0  0  0  0  0
   -3.1440    1.3361    0.0000 C   0  0  0  0  0  0  0  0  0  0  0  0
   -3.1440    2.9895    0.0000 C   0  0  0  0  0  0  0  0  0  0  0  0
   -2.4300    1.7411    0.0000 C   0  0  0  0  0  0  0  0  0  0  0  0
   -1.7118    3.8079    0.0000 O   0  0  0  0  0  0  0  0  0  0  0  0
    0.6055    3.9665    0.0000 C   0  0  0  0  0  0  0  0  0  0  0  0
    1.0188    3.2525    0.0000 C   0  0  0  0  0  0  0  0  0  0  0  0
   -0.7974    4.3507    0.0000 O   0  0  0  0  0  0  0  0  0  0  0  0
    0.6305    1.8288    0.0000 O   0  0  0  0  0  0  0  0  0  0  0  0
   -5.4488   -1.0814    0.0000 F   0  0  0  0  0  0  0  0  0  0  0  0
   -6.6805    1.0522    0.0000 C   0  0  0  0  0  0  0  0  0  0  0  0
   -7.0939    0.3382    0.0000 C   0  0  0  0  0  0  0  0  0  0  0  0
   -6.6805   -0.3758    0.0000 C   0  0  0  0  0  0  0  0  0  0  0  0
  2  1  2  0  0  0  0
  3  8  1  0  0  0  0
  4  1  1  0  0  0  0
  5  2  1  0  0  0  0
  6  1  1  0  0  0  0
  7 11  1  0  0  0  0
  8  7  1  0  0  0  0
  9  3  1  0  0  0  0
 10  3  1  0  0  0  0
 11 17  1  0  0  0  0
 12  4  1  0  0  0  0
 13  5  1  0  0  0  0
 14  6  1  0  0  0  0
 15  6  1  0  0  0  0
 16 14  1  0  0  0  0
 17 15  1  0  0  0  0
 18  7  2  0  0  0  0
 19  9  1  0  0  0  0
 20 10  1  0  0  0  0
 21  9  2  0  0  0  0
 22 10  2  0  0  0  0
 23 13  1  0  0  0  0
 24 12  1  0  0  0  0
 25 24  2  0  0  0  0
 26 13  2  0  0  0  0
 12  5  2  0  0  0  0
 11 16  1  0  0  0  0
 26 25  1  0  0  0  0
 19 20  1  0  0  0  0
M  END
>  <IDNUMBER>
F2609-2014

>  <Chemical_Name>
1-{2-[4-(4-fluoro-1,3-benzothiazol-2-yl)piperazin-1-yl]-2-oxoethyl}pyrrolidine-2,5-dione

>  <PriceCoeff>
1.50

>  <CAS>
897481-17-3

>  <MW>
376.41

>  <Description>
solid

>  <FSP3>
0.41

>  <clogP>
1.97

>  <TPSA>
102.06

>  <Acceptor>
4

>  <Donor>
1

>  <RotBonds>
4

>  <HAC>
26

>  <Collection>
Advanced

>  <PPDS>
+

$$$$
F2610-0316
  Mrv2219 10102508112D          

 24 26  0  0  0  0            999 V2000
   -1.2951    2.3238    0.0000 C   0  0  0  0  0  0  0  0  0  0  0  0
    0.6338    4.4547    0.0000 N   0  0  0  0  0  0  0  0  0  0  0  0
   -1.5431    1.5384    0.0000 N   0  0  0  0  0  0  0  0  0  0  0  0
   -0.5052    2.5855    0.0000 N   0  0  0  0  0  0  0  0  0  0  0  0
   -1.9426    2.8106    0.0000 S   0  0  0  0  0  0  0  0  0  0  0  0
    1.3410    4.8681    0.0000 C   0  0  0  0  0  0  0  0  0  0  0  0
    0.0184    5.0059    0.0000 C   0  0  0  0  0  0  0  0  0  0  0  0
   -2.3698    1.5431    0.0000 C   0  0  0  0  0  0  0  0  0  0  0  0
   -0.3261    3.3984    0.0000 C   0  0  0  0  0  0  0  0  0  0  0  0
   -2.6268    2.3284    0.0000 C   0  0  0  0  0  0  0  0  0  0  0  0
    0.4593    3.6511    0.0000 C   0  0  0  0  0  0  0  0  0  0  0  0
    0.3582    5.7498    0.0000 C   0  0  0  0  0  0  0  0  0  0  0  0
    1.1711    5.6809    0.0000 C   0  0  0  0  0  0  0  0  0  0  0  0
   -0.7945    4.8405    0.0000 O   0  0  0  0  0  0  0  0  0  0  0  0
    2.1080    4.5236    0.0000 O   0  0  0  0  0  0  0  0  0  0  0  0
   -0.9460    3.9496    0.0000 O   0  0  0  0  0  0  0  0  0  0  0  0
   -1.0608    0.8633    0.0000 C   0  0  0  0  0  0  0  0  0  0  0  0
   -2.9300    0.9322    0.0000 C   0  0  0  0  0  0  0  0  0  0  0  0
   -3.4260    2.5075    0.0000 C   0  0  0  0  0  0  0  0  0  0  0  0
   -1.4007    0.1102    0.0000 C   0  0  0  0  0  0  0  0  0  0  0  0
   -3.7291    1.1113    0.0000 C   0  0  0  0  0  0  0  0  0  0  0  0
   -3.9817    1.8967    0.0000 C   0  0  0  0  0  0  0  0  0  0  0  0
   -0.9184   -0.5558    0.0000 C   0  0  0  0  0  0  0  0  0  0  0  0
   -4.7946    2.0896    0.0000 H   0  0  0  0  0  0  0  0  0  0  0  0
  2 11  1  0  0  0  0
  3  1  1  0  0  0  0
  4  1  2  0  0  0  0
  5  1  1  0  0  0  0
  6  2  1  0  0  0  0
  7  2  1  0  0  0  0
  8  3  1  0  0  0  0
  9  4  1  0  0  0  0
 10  5  1  0  0  0  0
 11  9  1  0  0  0  0
 12  7  1  0  0  0  0
 13  6  1  0  0  0  0
 14  7  2  0  0  0  0
 15  6  2  0  0  0  0
 16  9  2  0  0  0  0
 17  3  1  0  0  0  0
 18  8  1  0  0  0  0
 19 10  1  0  0  0  0
 20 17  1  0  0  0  0
 21 18  2  0  0  0  0
 22 19  2  0  0  0  0
 23 20  1  0  0  0  0
 24 22  1  0  0  0  0
 10  8  2  0  0  0  0
 21 22  1  0  0  0  0
 12 13  1  0  0  0  0
M  END
>  <IDNUMBER>
F2610-0316

>  <Chemical_Name>
2-(2,5-dioxopyrrolidin-1-yl)-N-[(2Z)-3-propyl-2,3-dihydro-1,3-benzothiazol-2-ylidene]acetamide

>  <PriceCoeff>
1.00

>  <CAS>
897492-06-7

>  <MW>
331.39

>  <Description>
solid

>  <FSP3>
0.38

>  <clogP>
3.84

>  <TPSA>
95.35

>  <Acceptor>
3

>  <Donor>
0

>  <RotBonds>
5

>  <HAC>
23

>  <Collection>
General

>  <PPDS>
+

$$$$
F2610-3868
  Mrv2219 10102508112D          

 24 26  0  0  0  0            999 V2000
   -1.2951    2.3238    0.0000 C   0  0  0  0  0  0  0  0  0  0  0  0
    0.6338    4.4547    0.0000 N   0  0  0  0  0  0  0  0  0  0  0  0
   -1.5431    1.5384    0.0000 N   0  0  0  0  0  0  0  0  0  0  0  0
   -0.5052    2.5855    0.0000 N   0  0  0  0  0  0  0  0  0  0  0  0
   -1.9426    2.8106    0.0000 S   0  0  0  0  0  0  0  0  0  0  0  0
   -2.6268    2.3284    0.0000 C   0  0  0  0  0  0  0  0  0  0  0  0
   -2.3698    1.5431    0.0000 C   0  0  0  0  0  0  0  0  0  0  0  0
    1.3410    4.8681    0.0000 C   0  0  0  0  0  0  0  0  0  0  0  0
    0.0184    5.0059    0.0000 C   0  0  0  0  0  0  0  0  0  0  0  0
   -0.3261    3.3984    0.0000 C   0  0  0  0  0  0  0  0  0  0  0  0
    0.4593    3.6511    0.0000 C   0  0  0  0  0  0  0  0  0  0  0  0
   -3.4260    2.5075    0.0000 C   0  0  0  0  0  0  0  0  0  0  0  0
   -2.9300    0.9322    0.0000 C   0  0  0  0  0  0  0  0  0  0  0  0
    0.3582    5.7498    0.0000 C   0  0  0  0  0  0  0  0  0  0  0  0
    1.1711    5.6809    0.0000 C   0  0  0  0  0  0  0  0  0  0  0  0
   -0.7945    4.8405    0.0000 O   0  0  0  0  0  0  0  0  0  0  0  0
    2.1080    4.5236    0.0000 O   0  0  0  0  0  0  0  0  0  0  0  0
   -0.9460    3.9496    0.0000 O   0  0  0  0  0  0  0  0  0  0  0  0
   -3.9817    1.8967    0.0000 C   0  0  0  0  0  0  0  0  0  0  0  0
   -1.0608    0.8633    0.0000 C   0  0  0  0  0  0  0  0  0  0  0  0
   -3.7291    1.1113    0.0000 C   0  0  0  0  0  0  0  0  0  0  0  0
   -4.7946    2.0896    0.0000 F   0  0  0  0  0  0  0  0  0  0  0  0
   -1.4007    0.1102    0.0000 C   0  0  0  0  0  0  0  0  0  0  0  0
   -0.9184   -0.5558    0.0000 C   0  0  0  0  0  0  0  0  0  0  0  0
  2 11  1  0  0  0  0
  3  1  1  0  0  0  0
  4  1  2  0  0  0  0
  5  1  1  0  0  0  0
  6  5  1  0  0  0  0
  7  3  1  0  0  0  0
  8  2  1  0  0  0  0
  9  2  1  0  0  0  0
 10  4  1  0  0  0  0
 11 10  1  0  0  0  0
 12  6  1  0  0  0  0
 13  7  1  0  0  0  0
 14  9  1  0  0  0  0
 15  8  1  0  0  0  0
 16  9  2  0  0  0  0
 17  8  2  0  0  0  0
 18 10  2  0  0  0  0
 19 12  2  0  0  0  0
 20  3  1  0  0  0  0
 21 13  2  0  0  0  0
 22 19  1  0  0  0  0
 23 20  1  0  0  0  0
 24 23  1  0  0  0  0
  6  7  2  0  0  0  0
 21 19  1  0  0  0  0
 14 15  1  0  0  0  0
M  END
>  <IDNUMBER>
F2610-3868

>  <Chemical_Name>
2-(2,5-dioxopyrrolidin-1-yl)-N-[(2Z)-6-fluoro-3-propyl-2,3-dihydro-1,3-benzothiazol-2-ylidene]acetamide

>  <PriceCoeff>
1.00

>  <CAS>
897499-62-6

>  <MW>
349.38

>  <Description>
solid

>  <FSP3>
0.38

>  <clogP>
3.98

>  <TPSA>
95.35

>  <Acceptor>
3

>  <Donor>
0

>  <RotBonds>
5

>  <HAC>
24

>  <Collection>
General

>  <PPDS>
+

$$$$
F2614-0760
  Mrv2219 10102508112D          

 27 29  0  0  0  0            999 V2000
   -1.6533    2.3238    0.0000 C   0  0  0  0  0  0  0  0  0  0  0  0
   -2.3009    2.8106    0.0000 S   0  0  0  0  0  0  0  0  0  0  0  0
   -2.9851    2.3284    0.0000 C   0  0  0  0  0  0  0  0  0  0  0  0
   -1.9013    1.5384    0.0000 N   0  0  0  0  0  0  0  0  0  0  0  0
    0.2756    4.4547    0.0000 N   0  0  0  0  0  0  0  0  0  0  0  0
   -2.7279    1.5431    0.0000 C   0  0  0  0  0  0  0  0  0  0  0  0
   -0.8633    2.5855    0.0000 N   0  0  0  0  0  0  0  0  0  0  0  0
    0.9828    4.8681    0.0000 C   0  0  0  0  0  0  0  0  0  0  0  0
   -0.3398    5.0059    0.0000 C   0  0  0  0  0  0  0  0  0  0  0  0
   -0.6843    3.3984    0.0000 C   0  0  0  0  0  0  0  0  0  0  0  0
    0.1011    3.6511    0.0000 C   0  0  0  0  0  0  0  0  0  0  0  0
   -3.7842    2.5075    0.0000 C   0  0  0  0  0  0  0  0  0  0  0  0
   -3.2882    0.9322    0.0000 C   0  0  0  0  0  0  0  0  0  0  0  0
    0.0000    5.7498    0.0000 C   0  0  0  0  0  0  0  0  0  0  0  0
    0.8128    5.6809    0.0000 C   0  0  0  0  0  0  0  0  0  0  0  0
   -1.1527    4.8405    0.0000 O   0  0  0  0  0  0  0  0  0  0  0  0
    1.7497    4.5236    0.0000 O   0  0  0  0  0  0  0  0  0  0  0  0
   -1.3042    3.9496    0.0000 O   0  0  0  0  0  0  0  0  0  0  0  0
   -4.3399    1.8967    0.0000 C   0  0  0  0  0  0  0  0  0  0  0  0
   -4.0872    1.1113    0.0000 C   0  0  0  0  0  0  0  0  0  0  0  0
   -1.4191    0.8633    0.0000 C   0  0  0  0  0  0  0  0  0  0  0  0
   -4.0321    3.3020    0.0000 O   0  0  0  0  0  0  0  0  0  0  0  0
   -3.0402    0.1378    0.0000 O   0  0  0  0  0  0  0  0  0  0  0  0
   -4.8450    3.4949    0.0000 C   0  0  0  0  0  0  0  0  0  0  0  0
   -3.5959   -0.4685    0.0000 C   0  0  0  0  0  0  0  0  0  0  0  0
   -1.7589    0.1102    0.0000 C   0  0  0  0  0  0  0  0  0  0  0  0
   -1.2767   -0.5558    0.0000 C   0  0  0  0  0  0  0  0  0  0  0  0
  2  1  1  0  0  0  0
  3  2  1  0  0  0  0
  4  1  1  0  0  0  0
  5 11  1  0  0  0  0
  6  4  1  0  0  0  0
  7  1  2  0  0  0  0
  8  5  1  0  0  0  0
  9  5  1  0  0  0  0
 10  7  1  0  0  0  0
 11 10  1  0  0  0  0
 12  3  1  0  0  0  0
 13  6  1  0  0  0  0
 14  9  1  0  0  0  0
 15  8  1  0  0  0  0
 16  9  2  0  0  0  0
 17  8  2  0  0  0  0
 18 10  2  0  0  0  0
 19 12  2  0  0  0  0
 20 13  2  0  0  0  0
 21  4  1  0  0  0  0
 22 12  1  0  0  0  0
 23 13  1  0  0  0  0
 24 22  1  0  0  0  0
 25 23  1  0  0  0  0
 26 21  1  0  0  0  0
 27 26  1  0  0  0  0
  3  6  2  0  0  0  0
 20 19  1  0  0  0  0
 14 15  1  0  0  0  0
M  END
>  <IDNUMBER>
F2614-0760

>  <Chemical_Name>
N-[(2Z)-4,7-dimethoxy-3-propyl-2,3-dihydro-1,3-benzothiazol-2-ylidene]-2-(2,5-dioxopyrrolidin-1-yl)acetamide

>  <PriceCoeff>
1.00

>  <CAS>
898375-95-6

>  <MW>
391.44

>  <Description>
solid

>  <FSP3>
0.44

>  <clogP>
3.84

>  <TPSA>
113.81

>  <Acceptor>
5

>  <Donor>
0

>  <RotBonds>
7

>  <HAC>
27

>  <Collection>
General

>  <PPDS>
+

$$$$
F2615-1251
  Mrv2219 10102508112D          

 24 26  0  0  0  0            999 V2000
   -2.2136    2.3238    0.0000 C   0  0  0  0  0  0  0  0  0  0  0  0
   -0.2847    4.4547    0.0000 N   0  0  0  0  0  0  0  0  0  0  0  0
   -2.4615    1.5384    0.0000 N   0  0  0  0  0  0  0  0  0  0  0  0
   -1.4144    2.5855    0.0000 N   0  0  0  0  0  0  0  0  0  0  0  0
   -2.8611    2.8106    0.0000 S   0  0  0  0  0  0  0  0  0  0  0  0
   -3.2790    1.5431    0.0000 C   0  0  0  0  0  0  0  0  0  0  0  0
   -3.5362    2.3284    0.0000 C   0  0  0  0  0  0  0  0  0  0  0  0
    0.4318    4.8681    0.0000 C   0  0  0  0  0  0  0  0  0  0  0  0
   -0.8909    5.0059    0.0000 C   0  0  0  0  0  0  0  0  0  0  0  0
   -1.2400    3.3984    0.0000 C   0  0  0  0  0  0  0  0  0  0  0  0
   -0.4547    3.6511    0.0000 C   0  0  0  0  0  0  0  0  0  0  0  0
   -3.8393    0.9322    0.0000 C   0  0  0  0  0  0  0  0  0  0  0  0
   -0.5603    5.7498    0.0000 C   0  0  0  0  0  0  0  0  0  0  0  0
    0.2526    5.6809    0.0000 C   0  0  0  0  0  0  0  0  0  0  0  0
   -1.7084    4.8405    0.0000 O   0  0  0  0  0  0  0  0  0  0  0  0
    1.1895    4.5236    0.0000 O   0  0  0  0  0  0  0  0  0  0  0  0
   -1.8553    3.9496    0.0000 O   0  0  0  0  0  0  0  0  0  0  0  0
   -1.9794    0.8633    0.0000 C   0  0  0  0  0  0  0  0  0  0  0  0
   -3.5913    0.1378    0.0000 F   0  0  0  0  0  0  0  0  0  0  0  0
   -4.3399    2.5075    0.0000 C   0  0  0  0  0  0  0  0  0  0  0  0
   -4.9002    1.8967    0.0000 C   0  0  0  0  0  0  0  0  0  0  0  0
   -4.6521    1.1113    0.0000 C   0  0  0  0  0  0  0  0  0  0  0  0
   -2.3147    0.1102    0.0000 C   0  0  0  0  0  0  0  0  0  0  0  0
   -1.8324   -0.5558    0.0000 C   0  0  0  0  0  0  0  0  0  0  0  0
  2 11  1  0  0  0  0
  3  1  1  0  0  0  0
  4  1  2  0  0  0  0
  5  1  1  0  0  0  0
  6  3  1  0  0  0  0
  7  5  1  0  0  0  0
  8  2  1  0  0  0  0
  9  2  1  0  0  0  0
 10  4  1  0  0  0  0
 11 10  1  0  0  0  0
 12  6  1  0  0  0  0
 13  9  1  0  0  0  0
 14  8  1  0  0  0  0
 15  9  2  0  0  0  0
 16  8  2  0  0  0  0
 17 10  2  0  0  0  0
 18  3  1  0  0  0  0
 19 12  1  0  0  0  0
 20  7  1  0  0  0  0
 21 20  2  0  0  0  0
 22 12  2  0  0  0  0
 23 18  1  0  0  0  0
 24 23  1  0  0  0  0
  7  6  2  0  0  0  0
 22 21  1  0  0  0  0
 13 14  1  0  0  0  0
M  END
>  <IDNUMBER>
F2615-1251

>  <Chemical_Name>
2-(2,5-dioxopyrrolidin-1-yl)-N-[(2Z)-4-fluoro-3-propyl-2,3-dihydro-1,3-benzothiazol-2-ylidene]acetamide

>  <PriceCoeff>
1.00

>  <CAS>
898370-96-2

>  <MW>
349.38

>  <Description>
solid

>  <FSP3>
0.38

>  <clogP>
3.98

>  <TPSA>
95.35

>  <Acceptor>
3

>  <Donor>
0

>  <RotBonds>
5

>  <HAC>
24

>  <Collection>
General

>  <PPDS>
+

$$$$
F2630-0142
  Mrv2219 10102508112D          

 19 20  0  0  0  0            999 V2000
    3.3503   -1.8478    0.0000 C   0  0  0  0  0  0  0  0  0  0  0  0
    7.5330   -2.7468    0.0000 N   0  3  0  0  0  0  0  0  0  0  0  0
    6.9211   -2.1974    0.0000 C   0  0  0  0  0  0  0  0  0  0  0  0
    4.1369   -1.5899    0.0000 C   0  0  0  0  0  0  0  0  0  0  0  0
    2.0226   -1.8478    0.0000 N   0  0  0  0  0  0  0  0  0  0  0  0
    3.0964   -2.6345    0.0000 C   0  0  0  0  0  0  0  0  0  0  0  0
    2.2723   -2.6345    0.0000 N   0  0  0  0  0  0  0  0  0  0  0  0
    2.6844   -1.3651    0.0000 S   0  0  0  0  0  0  0  0  0  0  0  0
    4.7487   -2.1475    0.0000 N   0  0  0  0  0  0  0  0  0  0  0  0
    6.1429   -2.4472    0.0000 C   0  0  0  0  0  0  0  0  0  0  0  0
    7.0959   -1.3901    0.0000 C   0  0  0  0  0  0  0  0  0  0  0  0
    7.3582   -3.5501    0.0000 O   0  5  0  0  0  0  0  0  0  0  0  0
    8.3195   -2.4971    0.0000 O   0  0  0  0  0  0  0  0  0  0  0  0
    5.5352   -1.8895    0.0000 C   0  0  0  0  0  0  0  0  0  0  0  0
    4.3117   -0.7907    0.0000 O   0  0  0  0  0  0  0  0  0  0  0  0
    6.4842   -0.8366    0.0000 C   0  0  0  0  0  0  0  0  0  0  0  0
    5.6976   -1.0905    0.0000 C   0  0  0  0  0  0  0  0  0  0  0  0
    7.8825   -1.1362    0.0000 Cl  0  0  0  0  0  0  0  0  0  0  0  0
    3.5833   -3.3004    0.0000 C   0  0  0  0  0  0  0  0  0  0  0  0
  2  3  1  0  0  0  0
  3 10  1  0  0  0  0
  4  1  1  0  0  0  0
  5  8  1  0  0  0  0
  6  1  2  0  0  0  0
  7  6  1  0  0  0  0
  8  1  1  0  0  0  0
  9  4  1  0  0  0  0
 10 14  2  0  0  0  0
 11 16  1  0  0  0  0
 12  2  1  0  0  0  0
 13  2  2  0  0  0  0
 14  9  1  0  0  0  0
 15  4  2  0  0  0  0
 16 17  2  0  0  0  0
 17 14  1  0  0  0  0
 18 11  1  0  0  0  0
 19  6  1  0  0  0  0
  5  7  2  0  0  0  0
  3 11  2  0  0  0  0
M  CHG  2   2   1  12  -1
M  END
>  <IDNUMBER>
F2630-0142

>  <Chemical_Name>
N-(4-chloro-3-nitrophenyl)-4-methyl-1,2,3-thiadiazole-5-carboxamide

>  <PriceCoeff>
1.00

>  <CAS>
881444-12-8

>  <MW>
298.71

>  <Description>
solid

>  <FSP3>
0.10

>  <clogP>
1.74

>  <TPSA>
126.26

>  <Acceptor>
5

>  <Donor>
1

>  <RotBonds>
3

>  <HAC>
19

>  <Collection>
General

>  <PPDS>
+

$$$$
F2635-0515
  Mrv2219 10102508112D          

 32 36  0  0  0  0            999 V2000
   -1.8949    0.8579    0.0000 C   0  0  0  0  0  0  0  0  0  0  0  0
   -1.1078    1.1120    0.0000 N   0  0  0  0  0  0  0  0  0  0  0  0
   -2.1490    0.0708    0.0000 N   0  0  0  0  0  0  0  0  0  0  0  0
    2.6363    1.5576    0.0000 N   0  0  0  0  0  0  0  0  0  0  0  0
   -2.5613    1.3452    0.0000 S   0  0  0  0  0  0  0  0  0  0  0  0
   -0.4998    0.5580    0.0000 C   0  0  0  0  0  0  0  0  0  0  0  0
    2.8654    2.3572    0.0000 C   0  0  0  0  0  0  0  0  0  0  0  0
    3.3152    1.1078    0.0000 C   0  0  0  0  0  0  0  0  0  0  0  0
   -2.9736    0.0708    0.0000 C   0  0  0  0  0  0  0  0  0  0  0  0
   -3.2318    0.8579    0.0000 C   0  0  0  0  0  0  0  0  0  0  0  0
    1.8492    1.3077    0.0000 C   0  0  0  0  0  0  0  0  0  0  0  0
   -0.9371    1.9199    0.0000 C   0  0  0  0  0  0  0  0  0  0  0  0
    0.2791    0.8121    0.0000 C   0  0  0  0  0  0  0  0  0  0  0  0
   -0.6705   -0.2499    0.0000 O   0  0  0  0  0  0  0  0  0  0  0  0
    3.6900    2.3822    0.0000 C   0  0  0  0  0  0  0  0  0  0  0  0
    3.9607    1.6118    0.0000 C   0  0  0  0  0  0  0  0  0  0  0  0
    2.3531    3.0194    0.0000 O   0  0  0  0  0  0  0  0  0  0  0  0
    3.3485    0.2832    0.0000 O   0  0  0  0  0  0  0  0  0  0  0  0
   -2.3322    2.2198    0.0000 N   0  0  0  0  0  0  0  0  0  0  0  0
    1.2411    1.8699    0.0000 C   0  0  0  0  0  0  0  0  0  0  0  0
    1.6659    0.5123    0.0000 C   0  0  0  0  0  0  0  0  0  0  0  0
    0.8871    0.2624    0.0000 C   0  0  0  0  0  0  0  0  0  0  0  0
    0.4540    1.6201    0.0000 C   0  0  0  0  0  0  0  0  0  0  0  0
   -1.5493    2.4697    0.0000 C   0  0  0  0  0  0  0  0  0  0  0  0
   -3.5234   -0.5373    0.0000 C   0  0  0  0  0  0  0  0  0  0  0  0
   -4.0314    1.0328    0.0000 C   0  0  0  0  0  0  0  0  0  0  0  0
   -2.9444    2.7695    0.0000 C   0  0  0  0  0  0  0  0  0  0  0  0
   -1.3702    3.2818    0.0000 C   0  0  0  0  0  0  0  0  0  0  0  0
   -2.7695    3.5817    0.0000 C   0  0  0  0  0  0  0  0  0  0  0  0
   -4.3313   -0.3665    0.0000 C   0  0  0  0  0  0  0  0  0  0  0  0
   -4.5812    0.4206    0.0000 C   0  0  0  0  0  0  0  0  0  0  0  0
   -1.9824    3.8315    0.0000 C   0  0  0  0  0  0  0  0  0  0  0  0
  2  1  1  0  0  0  0
  3  1  2  0  0  0  0
  4 11  1  0  0  0  0
  5  1  1  0  0  0  0
  6  2  1  0  0  0  0
  7  4  1  0  0  0  0
  8  4  1  0  0  0  0
  9  3  1  0  0  0  0
 10  5  1  0  0  0  0
 11 20  1  0  0  0  0
 12  2  1  0  0  0  0
 13  6  1  0  0  0  0
 14  6  2  0  0  0  0
 15  7  1  0  0  0  0
 16  8  1  0  0  0  0
 17  7  2  0  0  0  0
 18  8  2  0  0  0  0
 19 24  1  0  0  0  0
 20 23  2  0  0  0  0
 21 22  1  0  0  0  0
 22 13  2  0  0  0  0
 23 13  1  0  0  0  0
 24 12  1  0  0  0  0
 25  9  1  0  0  0  0
 26 10  1  0  0  0  0
 27 19  2  0  0  0  0
 28 24  2  0  0  0  0
 29 32  2  0  0  0  0
 30 25  2  0  0  0  0
 31 26  2  0  0  0  0
 32 28  1  0  0  0  0
  9 10  2  0  0  0  0
 31 30  1  0  0  0  0
 21 11  2  0  0  0  0
 29 27  1  0  0  0  0
 16 15  1  0  0  0  0
M  END
>  <IDNUMBER>
F2635-0515

>  <Chemical_Name>
N-(1,3-benzothiazol-2-yl)-4-(2,5-dioxopyrrolidin-1-yl)-N-[(pyridin-2-yl)methyl]benzamide

>  <PriceCoeff>
1.00

>  <CAS>
886902-99-4

>  <MW>
442.49

>  <Description>
solid

>  <FSP3>
0.12

>  <clogP>
1.81

>  <TPSA>
111.71

>  <Acceptor>
5

>  <Donor>
1

>  <RotBonds>
6

>  <HAC>
32

>  <Collection>
General

>  <PPDS>
+

$$$$
F2635-0575
  Mrv2219 10102508112D          

 27 30  0  0  0  0            999 V2000
    1.8589   -1.5080    0.0000 C   0  0  0  0  0  0  0  0  0  0  0  0
    3.6969   -3.1622    0.0000 N   0  0  0  0  0  0  0  0  0  0  0  0
    2.6484   -1.2532    0.0000 N   0  0  0  0  0  0  0  0  0  0  0  0
    1.6041   -2.2933    0.0000 N   0  0  0  0  0  0  0  0  0  0  0  0
    1.1947   -1.0193    0.0000 S   0  0  0  0  0  0  0  0  0  0  0  0
    3.2583   -1.8088    0.0000 C   0  0  0  0  0  0  0  0  0  0  0  0
    3.0828   -2.6108    0.0000 C   0  0  0  0  0  0  0  0  0  0  0  0
    4.5157   -3.0828    0.0000 C   0  0  0  0  0  0  0  0  0  0  0  0
    3.5215   -3.9726    0.0000 C   0  0  0  0  0  0  0  0  0  0  0  0
    0.7812   -2.2933    0.0000 C   0  0  0  0  0  0  0  0  0  0  0  0
    0.5263   -1.5080    0.0000 C   0  0  0  0  0  0  0  0  0  0  0  0
    2.8239   -0.4511    0.0000 C   0  0  0  0  0  0  0  0  0  0  0  0
    4.0478   -1.5540    0.0000 O   0  0  0  0  0  0  0  0  0  0  0  0
    4.8498   -3.8390    0.0000 C   0  0  0  0  0  0  0  0  0  0  0  0
    4.2400   -4.3778    0.0000 C   0  0  0  0  0  0  0  0  0  0  0  0
    4.9292   -2.3602    0.0000 O   0  0  0  0  0  0  0  0  0  0  0  0
    2.7612   -4.3110    0.0000 O   0  0  0  0  0  0  0  0  0  0  0  0
    3.7888    0.6099    0.0000 N   0  0  0  0  0  0  0  0  0  0  0  0
    3.6134   -0.1922    0.0000 C   0  0  0  0  0  0  0  0  0  0  0  0
    0.2256   -2.8991    0.0000 C   0  0  0  0  0  0  0  0  0  0  0  0
   -0.2840   -1.3326    0.0000 C   0  0  0  0  0  0  0  0  0  0  0  0
    4.5783    0.8605    0.0000 C   0  0  0  0  0  0  0  0  0  0  0  0
    4.2232   -0.7519    0.0000 C   0  0  0  0  0  0  0  0  0  0  0  0
    5.1882    0.3091    0.0000 C   0  0  0  0  0  0  0  0  0  0  0  0
   -0.8354   -1.9467    0.0000 C   0  0  0  0  0  0  0  0  0  0  0  0
   -0.5765   -2.7236    0.0000 C   0  0  0  0  0  0  0  0  0  0  0  0
    5.0044   -0.5013    0.0000 C   0  0  0  0  0  0  0  0  0  0  0  0
  2  7  1  0  0  0  0
  3  1  1  0  0  0  0
  4  1  2  0  0  0  0
  5  1  1  0  0  0  0
  6  3  1  0  0  0  0
  7  6  1  0  0  0  0
  8  2  1  0  0  0  0
  9  2  1  0  0  0  0
 10  4  1  0  0  0  0
 11  5  1  0  0  0  0
 12  3  1  0  0  0  0
 13  6  2  0  0  0  0
 14  8  1  0  0  0  0
 15  9  1  0  0  0  0
 16  8  2  0  0  0  0
 17  9  2  0  0  0  0
 18 19  1  0  0  0  0
 19 12  1  0  0  0  0
 20 10  1  0  0  0  0
 21 11  1  0  0  0  0
 22 18  2  0  0  0  0
 23 19  2  0  0  0  0
 24 27  2  0  0  0  0
 25 21  2  0  0  0  0
 26 20  2  0  0  0  0
 27 23  1  0  0  0  0
 10 11  2  0  0  0  0
 25 26  1  0  0  0  0
 22 24  1  0  0  0  0
 14 15  1  0  0  0  0
M  END
>  <IDNUMBER>
F2635-0575

>  <Chemical_Name>
N-(1,3-benzothiazol-2-yl)-2-(2,5-dioxopyrrolidin-1-yl)-N-[(pyridin-2-yl)methyl]acetamide

>  <PriceCoeff>
1.00

>  <CAS>
886904-54-7

>  <MW>
380.42

>  <Description>
solid

>  <FSP3>
0.21

>  <clogP>
0.96

>  <TPSA>
111.71

>  <Acceptor>
5

>  <Donor>
1

>  <RotBonds>
6

>  <HAC>
27

>  <Collection>
General

>  <PPDS>
+

$$$$
F2638-0065
  Mrv2219 10102508112D          

 31 34  0  0  0  0            999 V2000
   -2.9953    0.5472    0.0000 N   0  0  0  0  0  0  0  0  0  0  0  0
   -3.3796   -0.2047    0.0000 C   0  0  0  0  0  0  0  0  0  0  0  0
   -2.1640    0.5848    0.0000 C   0  0  0  0  0  0  0  0  0  0  0  0
   -1.7127   -0.1170    0.0000 N   0  0  0  0  0  0  0  0  0  0  0  0
   -2.9201   -0.8941    0.0000 C   0  0  0  0  0  0  0  0  0  0  0  0
   -0.3885    5.9655    0.0000 N   0  3  0  0  0  0  0  0  0  0  0  0
   -2.4689    4.6538    0.0000 C   0  0  0  0  0  0  0  0  0  0  0  0
   -3.1665    4.2152    0.0000 C   0  0  0  0  0  0  0  0  0  0  0  0
   -3.4423    1.2407    0.0000 C   0  0  0  0  0  0  0  0  0  0  0  0
   -2.0888   -0.8523    0.0000 C   0  0  0  0  0  0  0  0  0  0  0  0
   -1.7503    4.2653    0.0000 C   0  0  0  0  0  0  0  0  0  0  0  0
   -1.0861    5.5269    0.0000 C   0  0  0  0  0  0  0  0  0  0  0  0
   -1.0486    4.7040    0.0000 C   0  0  0  0  0  0  0  0  0  0  0  0
   -3.1331    3.4047    0.0000 N   0  0  0  0  0  0  0  0  0  0  0  0
   -3.0663    1.9759    0.0000 C   0  0  0  0  0  0  0  0  0  0  0  0
   -2.5023    5.4684    0.0000 C   0  0  0  0  0  0  0  0  0  0  0  0
   -4.2067   -0.2423    0.0000 O   0  0  0  0  0  0  0  0  0  0  0  0
    0.3426    5.5812    0.0000 O   0  5  0  0  0  0  0  0  0  0  0  0
   -0.4135    6.7927    0.0000 O   0  0  0  0  0  0  0  0  0  0  0  0
   -3.5092    2.6652    0.0000 C   0  0  0  0  0  0  0  0  0  0  0  0
   -3.8934    4.5994    0.0000 O   0  0  0  0  0  0  0  0  0  0  0  0
   -1.8130    5.9070    0.0000 C   0  0  0  0  0  0  0  0  0  0  0  0
   -1.7127    3.4548    0.0000 Cl  0  0  0  0  0  0  0  0  0  0  0  0
   -1.7879    1.3242    0.0000 C   0  0  0  0  0  0  0  0  0  0  0  0
   -3.3044   -1.6334    0.0000 C   0  0  0  0  0  0  0  0  0  0  0  0
   -4.2611    1.1989    0.0000 C   0  0  0  0  0  0  0  0  0  0  0  0
   -1.6418   -1.5540    0.0000 C   0  0  0  0  0  0  0  0  0  0  0  0
   -4.7081    1.8882    0.0000 C   0  0  0  0  0  0  0  0  0  0  0  0
   -4.3446    2.6193    0.0000 C   0  0  0  0  0  0  0  0  0  0  0  0
   -2.8532   -2.3228    0.0000 C   0  0  0  0  0  0  0  0  0  0  0  0
   -2.0261   -2.2852    0.0000 C   0  0  0  0  0  0  0  0  0  0  0  0
  2  1  1  0  0  0  0
  3  1  1  0  0  0  0
  4  3  2  0  0  0  0
  5  2  1  0  0  0  0
  6 12  1  0  0  0  0
  7  8  1  0  0  0  0
  8 14  1  0  0  0  0
  9  1  1  0  0  0  0
 10  4  1  0  0  0  0
 11  7  2  0  0  0  0
 12 22  1  0  0  0  0
 13 11  1  0  0  0  0
 14 20  1  0  0  0  0
 15  9  2  0  0  0  0
 16  7  1  0  0  0  0
 17  2  2  0  0  0  0
 18  6  1  0  0  0  0
 19  6  2  0  0  0  0
 20 15  1  0  0  0  0
 21  8  2  0  0  0  0
 22 16  2  0  0  0  0
 23 11  1  0  0  0  0
 24  3  1  0  0  0  0
 25  5  2  0  0  0  0
 26  9  1  0  0  0  0
 27 10  2  0  0  0  0
 28 26  2  0  0  0  0
 29 28  1  0  0  0  0
 30 25  1  0  0  0  0
 31 27  1  0  0  0  0
 10  5  1  0  0  0  0
 29 20  2  0  0  0  0
 31 30  2  0  0  0  0
 12 13  2  0  0  0  0
M  CHG  2   6   1  18  -1
M  END
>  <IDNUMBER>
F2638-0065

>  <Chemical_Name>
2-chloro-N-[3-(2-methyl-4-oxo-3,4-dihydroquinazolin-3-yl)phenyl]-4-nitrobenzamide

>  <PriceCoeff>
1.00

>  <CAS>
898420-17-2

>  <MW>
434.83

>  <Description>
solid

>  <FSP3>
0.05

>  <clogP>
3.82

>  <TPSA>
104.91

>  <Acceptor>
5

>  <Donor>
1

>  <RotBonds>
4

>  <HAC>
31

>  <Collection>
General

>  <PPDS>
+

$$$$
F2638-0066
  Mrv2219 10102508112D          

 31 34  0  0  0  0            999 V2000
   -2.8314    0.1213    0.0000 N   0  0  0  0  0  0  0  0  0  0  0  0
   -3.5089   -0.3555    0.0000 C   0  0  0  0  0  0  0  0  0  0  0  0
   -2.0702   -0.2175    0.0000 C   0  0  0  0  0  0  0  0  0  0  0  0
   -1.9950   -1.0456    0.0000 N   0  0  0  0  0  0  0  0  0  0  0  0
   -3.4211   -1.1836    0.0000 C   0  0  0  0  0  0  0  0  0  0  0  0
   -0.3890    5.9723    0.0000 N   0  3  0  0  0  0  0  0  0  0  0  0
   -2.4717    4.6591    0.0000 C   0  0  0  0  0  0  0  0  0  0  0  0
   -3.1702    4.2200    0.0000 C   0  0  0  0  0  0  0  0  0  0  0  0
   -2.6683   -1.5307    0.0000 C   0  0  0  0  0  0  0  0  0  0  0  0
   -1.7524    4.2702    0.0000 C   0  0  0  0  0  0  0  0  0  0  0  0
   -1.0874    5.5332    0.0000 C   0  0  0  0  0  0  0  0  0  0  0  0
   -1.0497    4.7093    0.0000 C   0  0  0  0  0  0  0  0  0  0  0  0
   -3.1367    3.4085    0.0000 N   0  0  0  0  0  0  0  0  0  0  0  0
   -2.8983    0.9494    0.0000 C   0  0  0  0  0  0  0  0  0  0  0  0
   -2.5052    5.4747    0.0000 C   0  0  0  0  0  0  0  0  0  0  0  0
   -4.2617   -0.0168    0.0000 O   0  0  0  0  0  0  0  0  0  0  0  0
    0.3430    5.5876    0.0000 O   0  5  0  0  0  0  0  0  0  0  0  0
   -0.4140    6.8004    0.0000 O   0  0  0  0  0  0  0  0  0  0  0  0
   -3.8979    4.6047    0.0000 O   0  0  0  0  0  0  0  0  0  0  0  0
   -1.8151    5.9138    0.0000 C   0  0  0  0  0  0  0  0  0  0  0  0
   -3.6469    1.2881    0.0000 C   0  0  0  0  0  0  0  0  0  0  0  0
   -2.2291    1.4178    0.0000 C   0  0  0  0  0  0  0  0  0  0  0  0
   -3.0572    2.5805    0.0000 C   0  0  0  0  0  0  0  0  0  0  0  0
   -1.7147    3.4587    0.0000 Cl  0  0  0  0  0  0  0  0  0  0  0  0
   -1.4010    0.2593    0.0000 C   0  0  0  0  0  0  0  0  0  0  0  0
   -4.0986   -1.6604    0.0000 C   0  0  0  0  0  0  0  0  0  0  0  0
   -3.7348    2.1037    0.0000 C   0  0  0  0  0  0  0  0  0  0  0  0
   -2.3044    2.2417    0.0000 C   0  0  0  0  0  0  0  0  0  0  0  0
   -2.5972   -2.3505    0.0000 C   0  0  0  0  0  0  0  0  0  0  0  0
   -4.0233   -2.4760    0.0000 C   0  0  0  0  0  0  0  0  0  0  0  0
   -3.2705   -2.8273    0.0000 C   0  0  0  0  0  0  0  0  0  0  0  0
  2  1  1  0  0  0  0
  3  1  1  0  0  0  0
  4  3  2  0  0  0  0
  5  2  1  0  0  0  0
  6 11  1  0  0  0  0
  7  8  1  0  0  0  0
  8 13  1  0  0  0  0
  9  4  1  0  0  0  0
 10  7  2  0  0  0  0
 11 20  1  0  0  0  0
 12 10  1  0  0  0  0
 13 23  1  0  0  0  0
 14  1  1  0  0  0  0
 15  7  1  0  0  0  0
 16  2  2  0  0  0  0
 17  6  1  0  0  0  0
 18  6  2  0  0  0  0
 19  8  2  0  0  0  0
 20 15  2  0  0  0  0
 21 14  1  0  0  0  0
 22 14  2  0  0  0  0
 23 28  2  0  0  0  0
 24 10  1  0  0  0  0
 25  3  1  0  0  0  0
 26  5  2  0  0  0  0
 27 21  2  0  0  0  0
 28 22  1  0  0  0  0
 29  9  2  0  0  0  0
 30 26  1  0  0  0  0
 31 29  1  0  0  0  0
 23 27  1  0  0  0  0
  9  5  1  0  0  0  0
 31 30  2  0  0  0  0
 11 12  2  0  0  0  0
M  CHG  2   6   1  17  -1
M  END
>  <IDNUMBER>
F2638-0066

>  <Chemical_Name>
2-chloro-N-[4-(2-methyl-4-oxo-3,4-dihydroquinazolin-3-yl)phenyl]-4-nitrobenzamide

>  <PriceCoeff>
1.00

>  <CAS>
904279-34-1

>  <MW>
434.83

>  <Description>
solid

>  <FSP3>
0.05

>  <clogP>
3.82

>  <TPSA>
104.91

>  <Acceptor>
5

>  <Donor>
1

>  <RotBonds>
4

>  <HAC>
31

>  <Collection>
General

>  <PPDS>
+

$$$$
F2638-0069
  Mrv2219 10102508112D          

 31 34  0  0  0  0            999 V2000
   -2.3760    0.6222    0.0000 N   0  0  0  0  0  0  0  0  0  0  0  0
   -2.6182   -0.1796    0.0000 C   0  0  0  0  0  0  0  0  0  0  0  0
   -1.5617    0.8101    0.0000 C   0  0  0  0  0  0  0  0  0  0  0  0
   -0.9897    0.1879    0.0000 N   0  0  0  0  0  0  0  0  0  0  0  0
   -0.3841    4.7897    0.0000 N   0  3  0  0  0  0  0  0  0  0  0  0
   -1.1650    5.0527    0.0000 C   0  0  0  0  0  0  0  0  0  0  0  0
   -2.0503   -0.7809    0.0000 C   0  0  0  0  0  0  0  0  0  0  0  0
   -2.9272    1.2360    0.0000 C   0  0  0  0  0  0  0  0  0  0  0  0
   -1.2360   -0.6013    0.0000 C   0  0  0  0  0  0  0  0  0  0  0  0
   -3.1652    4.2134    0.0000 C   0  0  0  0  0  0  0  0  0  0  0  0
   -1.7747    4.5015    0.0000 C   0  0  0  0  0  0  0  0  0  0  0  0
   -2.5514    4.7646    0.0000 C   0  0  0  0  0  0  0  0  0  0  0  0
   -2.9940    3.4158    0.0000 N   0  0  0  0  0  0  0  0  0  0  0  0
   -2.6809    2.0252    0.0000 C   0  0  0  0  0  0  0  0  0  0  0  0
   -1.3362    5.8545    0.0000 C   0  0  0  0  0  0  0  0  0  0  0  0
   -3.4283   -0.3633    0.0000 O   0  0  0  0  0  0  0  0  0  0  0  0
   -0.2213    4.0045    0.0000 O   0  5  0  0  0  0  0  0  0  0  0  0
    0.2255    5.3492    0.0000 O   0  0  0  0  0  0  0  0  0  0  0  0
   -3.2404    2.6265    0.0000 C   0  0  0  0  0  0  0  0  0  0  0  0
   -3.9419    4.4639    0.0000 O   0  0  0  0  0  0  0  0  0  0  0  0
   -2.7268    5.5538    0.0000 C   0  0  0  0  0  0  0  0  0  0  0  0
   -2.1171    6.1050    0.0000 C   0  0  0  0  0  0  0  0  0  0  0  0
   -1.3112    1.5993    0.0000 C   0  0  0  0  0  0  0  0  0  0  0  0
   -0.7224    6.4057    0.0000 Cl  0  0  0  0  0  0  0  0  0  0  0  0
   -2.3008   -1.5701    0.0000 C   0  0  0  0  0  0  0  0  0  0  0  0
   -3.7289    1.0523    0.0000 C   0  0  0  0  0  0  0  0  0  0  0  0
   -0.6848   -1.2194    0.0000 C   0  0  0  0  0  0  0  0  0  0  0  0
   -4.2927    1.6619    0.0000 C   0  0  0  0  0  0  0  0  0  0  0  0
   -4.0463    2.4428    0.0000 C   0  0  0  0  0  0  0  0  0  0  0  0
   -1.7413   -2.1840    0.0000 C   0  0  0  0  0  0  0  0  0  0  0  0
   -0.9353   -2.0086    0.0000 C   0  0  0  0  0  0  0  0  0  0  0  0
  2  1  1  0  0  0  0
  3  1  1  0  0  0  0
  4  3  2  0  0  0  0
  5  6  1  0  0  0  0
  6 11  1  0  0  0  0
  7  2  1  0  0  0  0
  8  1  1  0  0  0  0
  9  4  1  0  0  0  0
 10 13  1  0  0  0  0
 11 12  2  0  0  0  0
 12 10  1  0  0  0  0
 13 19  1  0  0  0  0
 14  8  2  0  0  0  0
 15 22  1  0  0  0  0
 16  2  2  0  0  0  0
 17  5  1  0  0  0  0
 18  5  2  0  0  0  0
 19 14  1  0  0  0  0
 20 10  2  0  0  0  0
 21 12  1  0  0  0  0
 22 21  2  0  0  0  0
 23  3  1  0  0  0  0
 24 15  1  0  0  0  0
 25  7  2  0  0  0  0
 26  8  1  0  0  0  0
 27  9  2  0  0  0  0
 28 26  2  0  0  0  0
 29 28  1  0  0  0  0
 30 25  1  0  0  0  0
 31 27  1  0  0  0  0
  9  7  1  0  0  0  0
 29 19  2  0  0  0  0
 31 30  2  0  0  0  0
 15  6  2  0  0  0  0
M  CHG  2   5   1  17  -1
M  END
>  <IDNUMBER>
F2638-0069

>  <Chemical_Name>
4-chloro-N-[3-(2-methyl-4-oxo-3,4-dihydroquinazolin-3-yl)phenyl]-3-nitrobenzamide

>  <PriceCoeff>
1.00

>  <CAS>
898454-96-1

>  <MW>
434.83

>  <Description>
solid

>  <FSP3>
0.05

>  <clogP>
4.50

>  <TPSA>
104.91

>  <Acceptor>
5

>  <Donor>
1

>  <RotBonds>
4

>  <HAC>
31

>  <Collection>
General

>  <PPDS>
+

$$$$
F2644-0496
  Mrv2219 10102508112D          

 19 20  0  0  0  0            999 V2000
    4.0875   -4.5042    0.0000 C   0  0  0  0  0  0  0  0  0  0  0  0
    4.0875   -3.6792    0.0000 C   0  0  0  0  0  0  0  0  0  0  0  0
    4.8667   -4.7542    0.0000 N   0  0  0  0  0  0  0  0  0  0  0  0
    3.3750   -4.9250    0.0000 N   0  0  0  0  0  0  0  0  0  0  0  0
    2.6542   -3.6750    0.0000 N   0  0  0  0  0  0  0  0  0  0  0  0
    2.6542   -4.5167    0.0000 C   0  0  0  0  0  0  0  0  0  0  0  0
    3.3750   -3.2667    0.0000 C   0  0  0  0  0  0  0  0  0  0  0  0
    4.8667   -3.4375    0.0000 N   0  0  0  0  0  0  0  0  0  0  0  0
    5.3417   -4.0792    0.0000 C   0  0  0  0  0  0  0  0  0  0  0  0
    5.1375   -2.6292    0.0000 C   0  0  0  0  0  0  0  0  0  0  0  0
    1.9417   -4.9542    0.0000 O   0  0  0  0  0  0  0  0  0  0  0  0
    3.3750   -2.4417    0.0000 O   0  0  0  0  0  0  0  0  0  0  0  0
    6.1667   -4.0542    0.0000 N   0  0  0  0  0  0  0  0  0  0  0  0
    3.3750   -5.7417    0.0000 C   0  0  0  0  0  0  0  0  0  0  0  0
    1.9417   -3.2542    0.0000 C   0  0  0  0  0  0  0  0  0  0  0  0
    4.6042   -2.0125    0.0000 C   0  0  0  0  0  0  0  0  0  0  0  0
    4.8750   -1.2292    0.0000 C   0  0  0  0  0  0  0  0  0  0  0  0
    5.6792   -1.0792    0.0000 C   0  0  0  0  0  0  0  0  0  0  0  0
    4.3292   -0.6042    0.0000 C   0  0  0  0  0  0  0  0  0  0  0  0
  2  1  2  0  0  0  0
  3  1  1  0  0  0  0
  4  1  1  0  0  0  0
  5  6  1  0  0  0  0
  6  4  1  0  0  0  0
  7  2  1  0  0  0  0
  8  2  1  0  0  0  0
  9  3  2  0  0  0  0
 10  8  1  0  0  0  0
 11  6  2  0  0  0  0
 12  7  2  0  0  0  0
 13  9  1  0  0  0  0
 14  4  1  0  0  0  0
 15  5  1  0  0  0  0
 16 10  1  0  0  0  0
 17 16  1  0  0  0  0
 18 17  1  0  0  0  0
 19 17  1  0  0  0  0
  9  8  1  0  0  0  0
  5  7  1  0  0  0  0
M  END
>  <IDNUMBER>
F2644-0496

>  <Chemical_Name>
8-amino-1,3-dimethyl-7-(3-methylbutyl)-2,3,6,7-tetrahydro-1H-purine-2,6-dione

>  <PriceCoeff>
1.00

>  <CAS>
1370596-54-5

>  <MW>
265.31

>  <Description>
solid

>  <FSP3>
0.58

>  <clogP>
1.68

>  <TPSA>
84.46

>  <Acceptor>
3

>  <Donor>
2

>  <RotBonds>
3

>  <HAC>
19

>  <Collection>
General

>  <PPDS>
+

$$$$
F2644-0507
  Mrv2219 10102508112D          

 18 20  0  0  0  0            999 V2000
    1.2042   -3.3042    0.0000 N   0  0  0  0  0  0  0  0  0  0  0  0
    1.9167   -2.8917    0.0000 C   0  0  0  0  0  0  0  0  0  0  0  0
    1.9167   -2.0667    0.0000 C   0  0  0  0  0  0  0  0  0  0  0  0
    0.4917   -2.8917    0.0000 C   0  0  0  0  0  0  0  0  0  0  0  0
    0.4917   -2.0667    0.0000 N   0  0  0  0  0  0  0  0  0  0  0  0
    1.2042   -1.6500    0.0000 C   0  0  0  0  0  0  0  0  0  0  0  0
    2.6292   -3.3125    0.0000 N   0  0  0  0  0  0  0  0  0  0  0  0
    3.3542   -2.0667    0.0000 N   0  0  0  0  0  0  0  0  0  0  0  0
    3.3500   -2.9000    0.0000 C   0  0  0  0  0  0  0  0  0  0  0  0
    1.4125   -4.1000    0.0000 C   0  0  0  0  0  0  0  0  0  0  0  0
   -0.2250   -3.3042    0.0000 O   0  0  0  0  0  0  0  0  0  0  0  0
    1.2042   -0.8167    0.0000 O   0  0  0  0  0  0  0  0  0  0  0  0
    0.8250   -4.6792    0.0000 C   0  0  0  0  0  0  0  0  0  0  0  0
    1.0375   -5.4750    0.0000 C   0  0  0  0  0  0  0  0  0  0  0  0
    0.0292   -4.4625    0.0000 C   0  0  0  0  0  0  0  0  0  0  0  0
   -0.5583   -5.0417    0.0000 C   0  0  0  0  0  0  0  0  0  0  0  0
    0.4542   -6.0542    0.0000 C   0  0  0  0  0  0  0  0  0  0  0  0
   -0.3458   -5.8417    0.0000 C   0  0  0  0  0  0  0  0  0  0  0  0
  2  1  1  0  0  0  0
  3  2  2  0  0  0  0
  4  1  1  0  0  0  0
  5  4  1  0  0  0  0
  6  5  1  0  0  0  0
  7  2  1  0  0  0  0
  8  3  1  0  0  0  0
  9  7  2  0  0  0  0
 10  1  1  0  0  0  0
 11  4  2  0  0  0  0
 12  6  2  0  0  0  0
 13 10  1  0  0  0  0
 14 13  1  0  0  0  0
 15 13  2  0  0  0  0
 16 15  1  0  0  0  0
 17 14  2  0  0  0  0
 18 16  2  0  0  0  0
  6  3  1  0  0  0  0
  9  8  1  0  0  0  0
 18 17  1  0  0  0  0
M  END
>  <IDNUMBER>
F2644-0507

>  <Chemical_Name>
3-benzyl-2,3,6,7-tetrahydro-1H-purine-2,6-dione

>  <PriceCoeff>
1.00

>  <CAS>
19844-93-0

>  <MW>
242.23

>  <Description>
solid

>  <FSP3>
0.08

>  <clogP>
1.11

>  <TPSA>
120.56

>  <Acceptor>
4

>  <Donor>
3

>  <RotBonds>
2

>  <HAC>
18

>  <Collection>
General

>  <PPDS>
+

$$$$
F2645-0211
  Mrv2219 10102508112D          

 29 32  0  0  0  0            999 V2000
    0.4916    0.5082    0.0000 N   0  0  0  0  0  0  0  0  0  0  0  0
   -2.4575    2.8116    0.0000 C   0  0  0  0  0  0  0  0  0  0  0  0
   -3.1241    2.3325    0.0000 O   0  0  0  0  0  0  0  0  0  0  0  0
   -3.7946    2.8116    0.0000 C   0  0  0  0  0  0  0  0  0  0  0  0
   -3.5365    3.6071    0.0000 N   0  0  0  0  0  0  0  0  0  0  0  0
   -1.6745    2.5575    0.0000 N   0  0  0  0  0  0  0  0  0  0  0  0
   -2.7117    3.6071    0.0000 N   0  0  0  0  0  0  0  0  0  0  0  0
    0.4791    1.3454    0.0000 C   0  0  0  0  0  0  0  0  0  0  0  0
   -0.9622    2.9824    0.0000 C   0  0  0  0  0  0  0  0  0  0  0  0
    1.1413    0.0083    0.0000 C   0  0  0  0  0  0  0  0  0  0  0  0
   -0.2000    0.0583    0.0000 C   0  0  0  0  0  0  0  0  0  0  0  0
   -0.2332    1.7495    0.0000 C   0  0  0  0  0  0  0  0  0  0  0  0
   -0.2457    2.5700    0.0000 C   0  0  0  0  0  0  0  0  0  0  0  0
   -4.5819    2.5575    0.0000 C   0  0  0  0  0  0  0  0  0  0  0  0
   -0.9747    3.7988    0.0000 O   0  0  0  0  0  0  0  0  0  0  0  0
    0.8664   -0.7747    0.0000 C   0  0  0  0  0  0  0  0  0  0  0  0
    0.0417   -0.7539    0.0000 C   0  0  0  0  0  0  0  0  0  0  0  0
    1.9286    0.2207    0.0000 O   0  0  0  0  0  0  0  0  0  0  0  0
   -0.9705    0.3332    0.0000 O   0  0  0  0  0  0  0  0  0  0  0  0
   -4.7569    1.7453    0.0000 C   0  0  0  0  0  0  0  0  0  0  0  0
   -5.5358    1.4953    0.0000 C   0  0  0  0  0  0  0  0  0  0  0  0
   -5.7065    0.6873    0.0000 S   0  0  0  0  0  0  0  0  0  0  0  0
    1.1913    1.7578    0.0000 C   0  0  0  0  0  0  0  0  0  0  0  0
    0.4666    2.9949    0.0000 C   0  0  0  0  0  0  0  0  0  0  0  0
   -5.1942    3.1074    0.0000 C   0  0  0  0  0  0  0  0  0  0  0  0
    1.1913    2.5867    0.0000 C   0  0  0  0  0  0  0  0  0  0  0  0
   -5.9690    2.8449    0.0000 C   0  0  0  0  0  0  0  0  0  0  0  0
   -6.1273    2.0452    0.0000 C   0  0  0  0  0  0  0  0  0  0  0  0
   -6.4897    0.4457    0.0000 C   0  0  0  0  0  0  0  0  0  0  0  0
  2  6  1  0  0  0  0
  3  2  1  0  0  0  0
  4  3  1  0  0  0  0
  5  7  1  0  0  0  0
  6  9  1  0  0  0  0
  7  2  2  0  0  0  0
  8  1  1  0  0  0  0
  9 13  1  0  0  0  0
 10  1  1  0  0  0  0
 11  1  1  0  0  0  0
 12  8  1  0  0  0  0
 13 12  2  0  0  0  0
 14  4  1  0  0  0  0
 15  9  2  0  0  0  0
 16 10  1  0  0  0  0
 17 11  1  0  0  0  0
 18 10  2  0  0  0  0
 19 11  2  0  0  0  0
 20 14  1  0  0  0  0
 21 20  2  0  0  0  0
 22 21  1  0  0  0  0
 23  8  2  0  0  0  0
 24 26  2  0  0  0  0
 25 14  2  0  0  0  0
 26 23  1  0  0  0  0
 27 25  1  0  0  0  0
 28 27  2  0  0  0  0
 29 22  1  0  0  0  0
 16 17  1  0  0  0  0
 13 24  1  0  0  0  0
  4  5  2  0  0  0  0
 21 28  1  0  0  0  0
M  END
>  <IDNUMBER>
F2645-0211

>  <Chemical_Name>
3-(2,5-dioxopyrrolidin-1-yl)-N-{5-[3-(methylsulfanyl)phenyl]-1,3,4-oxadiazol-2-yl}benzamide

>  <PriceCoeff>
1.00

>  <CAS>
886914-03-0

>  <MW>
408.43

>  <Description>
solid

>  <FSP3>
0.15

>  <clogP>
1.20

>  <TPSA>
130.70

>  <Acceptor>
6

>  <Donor>
1

>  <RotBonds>
5

>  <HAC>
29

>  <Collection>
General

>  <PPDS>
+

$$$$
F2659-0054
  Mrv2219 10102508112D          

 29 32  0  0  0  0            999 V2000
   -5.9432    5.4442    0.0000 N   0  0  0  0  0  0  0  0  0  0  0  0
   -0.9432    5.6456    0.0000 N   0  3  0  0  0  0  0  0  0  0  0  0
   -3.1319    4.4917    0.0000 C   0  0  0  0  0  0  0  0  0  0  0  0
   -5.2014    5.8288    0.0000 C   0  0  0  0  0  0  0  0  0  0  0  0
   -6.6621    5.8150    0.0000 C   0  0  0  0  0  0  0  0  0  0  0  0
   -3.8553    4.1071    0.0000 C   0  0  0  0  0  0  0  0  0  0  0  0
   -3.0998    5.3159    0.0000 C   0  0  0  0  0  0  0  0  0  0  0  0
   -1.6758    5.2519    0.0000 C   0  0  0  0  0  0  0  0  0  0  0  0
   -5.1602    6.6529    0.0000 C   0  0  0  0  0  0  0  0  0  0  0  0
   -2.3764    5.7005    0.0000 C   0  0  0  0  0  0  0  0  0  0  0  0
   -6.0531    4.6475    0.0000 C   0  0  0  0  0  0  0  0  0  0  0  0
   -4.5558    4.5513    0.0000 N   0  0  0  0  0  0  0  0  0  0  0  0
   -4.5055    5.3755    0.0000 C   0  0  0  0  0  0  0  0  0  0  0  0
   -2.4404    4.0522    0.0000 C   0  0  0  0  0  0  0  0  0  0  0  0
   -0.2426    5.1969    0.0000 O   0  5  0  0  0  0  0  0  0  0  0  0
   -5.8607    7.0925    0.0000 O   0  0  0  0  0  0  0  0  0  0  0  0
   -0.9020    6.4744    0.0000 O   0  0  0  0  0  0  0  0  0  0  0  0
   -7.2436    5.2381    0.0000 C   0  0  0  0  0  0  0  0  0  0  0  0
   -4.5192    7.1749    0.0000 C   0  0  0  0  0  0  0  0  0  0  0  0
   -1.7033    4.4277    0.0000 C   0  0  0  0  0  0  0  0  0  0  0  0
   -3.8965    3.2783    0.0000 O   0  0  0  0  0  0  0  0  0  0  0  0
   -6.8727    4.5101    0.0000 C   0  0  0  0  0  0  0  0  0  0  0  0
   -5.6410    7.8983    0.0000 C   0  0  0  0  0  0  0  0  0  0  0  0
   -4.8305    7.9441    0.0000 C   0  0  0  0  0  0  0  0  0  0  0  0
   -3.8003    5.7601    0.0000 Cl  0  0  0  0  0  0  0  0  0  0  0  0
   -6.8727    6.6071    0.0000 C   0  0  0  0  0  0  0  0  0  0  0  0
   -8.0266    5.4442    0.0000 C   0  0  0  0  0  0  0  0  0  0  0  0
   -7.6557    6.8269    0.0000 C   0  0  0  0  0  0  0  0  0  0  0  0
   -8.2463    6.2409    0.0000 C   0  0  0  0  0  0  0  0  0  0  0  0
  2  8  1  0  0  0  0
  3  6  1  0  0  0  0
  4  1  1  0  0  0  0
  5  1  1  0  0  0  0
  6 12  1  0  0  0  0
  7  3  1  0  0  0  0
  8 20  2  0  0  0  0
  9  4  1  0  0  0  0
 10  7  2  0  0  0  0
 11  1  1  0  0  0  0
 12 13  1  0  0  0  0
 13  4  1  0  0  0  0
 14  3  2  0  0  0  0
 15  2  1  0  0  0  0
 16  9  1  0  0  0  0
 17  2  2  0  0  0  0
 18  5  2  0  0  0  0
 19  9  2  0  0  0  0
 20 14  1  0  0  0  0
 21  6  2  0  0  0  0
 22 11  1  0  0  0  0
 23 16  1  0  0  0  0
 24 19  1  0  0  0  0
 25  7  1  0  0  0  0
 26  5  1  0  0  0  0
 27 18  1  0  0  0  0
 28 26  2  0  0  0  0
 29 28  1  0  0  0  0
 18 22  1  0  0  0  0
 29 27  2  0  0  0  0
 24 23  2  0  0  0  0
 10  8  1  0  0  0  0
M  CHG  2   2   1  15  -1
M  END
>  <IDNUMBER>
F2659-0054

>  <Chemical_Name>
2-chloro-N-[2-(2,3-dihydro-1H-indol-1-yl)-2-(furan-2-yl)ethyl]-4-nitrobenzamide

>  <PriceCoeff>
1.00

>  <CAS>
898458-20-3

>  <MW>
411.84

>  <Description>
solid

>  <FSP3>
0.19

>  <clogP>
4.21

>  <TPSA>
88.62

>  <Acceptor>
5

>  <Donor>
2

>  <RotBonds>
6

>  <HAC>
29

>  <Collection>
General

>  <PPDS>
+

$$$$
F2660-0054
  Mrv2219 10102508112D          

 30 33  0  0  0  0            999 V2000
   -0.2704    7.1134    0.0000 N   0  3  0  0  0  0  0  0  0  0  0  0
   -5.9904    5.4588    0.0000 N   0  0  0  0  0  0  0  0  0  0  0  0
   -2.4154    5.8759    0.0000 C   0  0  0  0  0  0  0  0  0  0  0  0
   -5.2662    5.8759    0.0000 C   0  0  0  0  0  0  0  0  0  0  0  0
   -3.1166    5.4634    0.0000 C   0  0  0  0  0  0  0  0  0  0  0  0
   -2.4154    6.7009    0.0000 C   0  0  0  0  0  0  0  0  0  0  0  0
   -0.9854    6.7009    0.0000 C   0  0  0  0  0  0  0  0  0  0  0  0
   -1.7004    7.1134    0.0000 C   0  0  0  0  0  0  0  0  0  0  0  0
   -5.2662    6.7009    0.0000 C   0  0  0  0  0  0  0  0  0  0  0  0
   -6.7009    5.8712    0.0000 C   0  0  0  0  0  0  0  0  0  0  0  0
   -3.8362    5.8759    0.0000 N   0  0  0  0  0  0  0  0  0  0  0  0
   -4.5604    5.4634    0.0000 C   0  0  0  0  0  0  0  0  0  0  0  0
   -1.7004    5.4634    0.0000 C   0  0  0  0  0  0  0  0  0  0  0  0
   -7.4021    5.4588    0.0000 C   0  0  0  0  0  0  0  0  0  0  0  0
    0.4446    6.7009    0.0000 O   0  5  0  0  0  0  0  0  0  0  0  0
   -5.9766    7.1134    0.0000 O   0  0  0  0  0  0  0  0  0  0  0  0
   -0.2704    7.9384    0.0000 O   0  0  0  0  0  0  0  0  0  0  0  0
   -5.9904    4.6338    0.0000 C   0  0  0  0  0  0  0  0  0  0  0  0
   -0.9854    5.8759    0.0000 C   0  0  0  0  0  0  0  0  0  0  0  0
   -4.6566    7.2509    0.0000 C   0  0  0  0  0  0  0  0  0  0  0  0
   -7.4021    4.6338    0.0000 C   0  0  0  0  0  0  0  0  0  0  0  0
   -3.1212    4.6384    0.0000 O   0  0  0  0  0  0  0  0  0  0  0  0
   -5.8116    7.9246    0.0000 C   0  0  0  0  0  0  0  0  0  0  0  0
   -4.9912    8.0071    0.0000 C   0  0  0  0  0  0  0  0  0  0  0  0
   -6.7009    4.2212    0.0000 C   0  0  0  0  0  0  0  0  0  0  0  0
   -3.1304    7.1134    0.0000 Cl  0  0  0  0  0  0  0  0  0  0  0  0
   -8.1171    5.8712    0.0000 C   0  0  0  0  0  0  0  0  0  0  0  0
   -8.1263    4.2212    0.0000 C   0  0  0  0  0  0  0  0  0  0  0  0
   -8.8321    5.4588    0.0000 C   0  0  0  0  0  0  0  0  0  0  0  0
   -8.8321    4.6338    0.0000 C   0  0  0  0  0  0  0  0  0  0  0  0
  2  4  1  0  0  0  0
  3 13  2  0  0  0  0
  4 12  1  0  0  0  0
  5  3  1  0  0  0  0
  6  8  2  0  0  0  0
  7  1  1  0  0  0  0
  8  7  1  0  0  0  0
  9  4  1  0  0  0  0
 10  2  1  0  0  0  0
 11  5  1  0  0  0  0
 12 11  1  0  0  0  0
 13 19  1  0  0  0  0
 14 10  1  0  0  0  0
 15  1  1  0  0  0  0
 16  9  1  0  0  0  0
 17  1  2  0  0  0  0
 18  2  1  0  0  0  0
 19  7  2  0  0  0  0
 20  9  2  0  0  0  0
 21 25  1  0  0  0  0
 22  5  2  0  0  0  0
 23 16  1  0  0  0  0
 24 20  1  0  0  0  0
 25 18  1  0  0  0  0
 26  6  1  0  0  0  0
 27 14  1  0  0  0  0
 28 21  1  0  0  0  0
 29 27  2  0  0  0  0
 30 28  2  0  0  0  0
  3  6  1  0  0  0  0
 23 24  2  0  0  0  0
 14 21  2  0  0  0  0
 30 29  1  0  0  0  0
M  CHG  2   1   1  15  -1
M  END
>  <IDNUMBER>
F2660-0054

>  <Chemical_Name>
2-chloro-N-[2-(furan-2-yl)-2-(1,2,3,4-tetrahydroisoquinolin-2-yl)ethyl]-4-nitrobenzamide

>  <PriceCoeff>
1.00

>  <CAS>
898458-66-7

>  <MW>
425.86

>  <Description>
solid

>  <FSP3>
0.23

>  <clogP>
4.11

>  <TPSA>
88.62

>  <Acceptor>
4

>  <Donor>
2

>  <RotBonds>
6

>  <HAC>
30

>  <Collection>
General

>  <PPDS>
+

$$$$
F2663-0042
  Mrv2219 10102508112D          

 32 35  0  0  0  0            999 V2000
   -2.9561    6.4175    0.0000 S   0  0  0  0  0  0  0  0  0  0  0  0
   -2.3423    5.8663    0.0000 N   0  0  0  0  0  0  0  0  0  0  0  0
   -2.4300    5.0396    0.0000 C   0  0  0  0  0  0  0  0  0  0  0  0
   -5.9832    1.2985    0.0000 N   0  3  0  0  0  0  0  0  0  0  0  0
   -5.2817    1.7369    0.0000 C   0  0  0  0  0  0  0  0  0  0  0  0
   -4.5803    3.8079    0.0000 C   0  0  0  0  0  0  0  0  0  0  0  0
   -3.8663    4.2212    0.0000 N   0  0  0  0  0  0  0  0  0  0  0  0
   -5.2817    2.5511    0.0000 C   0  0  0  0  0  0  0  0  0  0  0  0
   -4.5928    2.9895    0.0000 C   0  0  0  0  0  0  0  0  0  0  0  0
   -3.1523    5.4530    0.0000 C   0  0  0  0  0  0  0  0  0  0  0  0
   -2.4383    4.2212    0.0000 C   0  0  0  0  0  0  0  0  0  0  0  0
   -3.5406    7.0187    0.0000 C   0  0  0  0  0  0  0  0  0  0  0  0
   -2.3882    7.0187    0.0000 O   0  0  0  0  0  0  0  0  0  0  0  0
   -3.5323    5.8162    0.0000 O   0  0  0  0  0  0  0  0  0  0  0  0
   -4.5469    1.3361    0.0000 C   0  0  0  0  0  0  0  0  0  0  0  0
   -5.9706    0.4718    0.0000 O   0  5  0  0  0  0  0  0  0  0  0  0
   -1.6743    4.7139    0.0000 O   0  0  0  0  0  0  0  0  0  0  0  0
   -3.8663    5.0396    0.0000 C   0  0  0  0  0  0  0  0  0  0  0  0
   -3.1523    3.8162    0.0000 C   0  0  0  0  0  0  0  0  0  0  0  0
   -6.7014    1.7160    0.0000 O   0  0  0  0  0  0  0  0  0  0  0  0
   -1.5365    6.0417    0.0000 C   0  0  0  0  0  0  0  0  0  0  0  0
   -5.3193    4.2129    0.0000 O   0  0  0  0  0  0  0  0  0  0  0  0
   -3.8538    2.5887    0.0000 C   0  0  0  0  0  0  0  0  0  0  0  0
   -3.8329    1.7745    0.0000 C   0  0  0  0  0  0  0  0  0  0  0  0
   -4.3548    6.8058    0.0000 C   0  0  0  0  0  0  0  0  0  0  0  0
   -3.3277    7.8204    0.0000 C   0  0  0  0  0  0  0  0  0  0  0  0
   -1.1231    5.3277    0.0000 C   0  0  0  0  0  0  0  0  0  0  0  0
   -4.5427    0.4968    0.0000 Cl  0  0  0  0  0  0  0  0  0  0  0  0
   -4.9352    7.3903    0.0000 C   0  0  0  0  0  0  0  0  0  0  0  0
   -3.9164    8.4091    0.0000 C   0  0  0  0  0  0  0  0  0  0  0  0
   -4.7306    8.1962    0.0000 C   0  0  0  0  0  0  0  0  0  0  0  0
   -5.3068    8.7849    0.0000 C   0  0  0  0  0  0  0  0  0  0  0  0
  2  1  1  0  0  0  0
  3  2  1  0  0  0  0
  4  5  1  0  0  0  0
  5  8  1  0  0  0  0
  6  7  1  0  0  0  0
  7 19  1  0  0  0  0
  8  9  2  0  0  0  0
  9  6  1  0  0  0  0
 10  3  1  0  0  0  0
 11  3  1  0  0  0  0
 12  1  1  0  0  0  0
 13  1  2  0  0  0  0
 14  1  2  0  0  0  0
 15 24  1  0  0  0  0
 16  4  1  0  0  0  0
 17  3  1  0  0  0  0
 18 10  1  0  0  0  0
 19 11  1  0  0  0  0
 20  4  2  0  0  0  0
 21  2  1  0  0  0  0
 22  6  2  0  0  0  0
 23  9  1  0  0  0  0
 24 23  2  0  0  0  0
 25 12  1  0  0  0  0
 26 12  2  0  0  0  0
 27 21  1  0  0  0  0
 28 15  1  0  0  0  0
 29 25  2  0  0  0  0
 30 26  1  0  0  0  0
 31 30  2  0  0  0  0
 32 31  1  0  0  0  0
 17 27  1  0  0  0  0
 29 31  1  0  0  0  0
  7 18  1  0  0  0  0
  5 15  2  0  0  0  0
M  CHG  2   4   1  16  -1
M  END
>  <IDNUMBER>
F2663-0042

>  <Chemical_Name>
8-(4-chloro-3-nitrobenzoyl)-4-(4-methylbenzenesulfonyl)-1-oxa-4,8-diazaspiro[4.5]decane

>  <PriceCoeff>
1.00

>  <CAS>
896379-41-2

>  <MW>
479.93

>  <Description>
solid

>  <FSP3>
0.38

>  <clogP>
2.94

>  <TPSA>
118.44

>  <Acceptor>
6

>  <Donor>
0

>  <RotBonds>
5

>  <HAC>
32

>  <Collection>
General

>  <PPDS>
+

$$$$
F2663-0278
  Mrv2219 10102508112D          

 30 33  0  0  0  0            999 V2000
   -2.9309    6.3842    0.0000 S   0  0  0  0  0  0  0  0  0  0  0  0
   -2.3215    5.8245    0.0000 N   0  0  0  0  0  0  0  0  0  0  0  0
   -2.4085    5.0162    0.0000 C   0  0  0  0  0  0  0  0  0  0  0  0
   -4.5601    2.9682    0.0000 C   0  0  0  0  0  0  0  0  0  0  0  0
   -4.5476    3.7808    0.0000 C   0  0  0  0  0  0  0  0  0  0  0  0
   -3.5527    6.9314    0.0000 C   0  0  0  0  0  0  0  0  0  0  0  0
   -4.5601    0.4933    0.0000 N   0  3  0  0  0  0  0  0  0  0  0  0
   -3.8388    4.1912    0.0000 N   0  0  0  0  0  0  0  0  0  0  0  0
   -3.8305    2.5495    0.0000 C   0  0  0  0  0  0  0  0  0  0  0  0
   -4.5601    1.3141    0.0000 C   0  0  0  0  0  0  0  0  0  0  0  0
   -2.4127    4.1912    0.0000 C   0  0  0  0  0  0  0  0  0  0  0  0
   -3.1216    5.4224    0.0000 C   0  0  0  0  0  0  0  0  0  0  0  0
   -3.8305    1.7245    0.0000 C   0  0  0  0  0  0  0  0  0  0  0  0
   -4.3528    6.7656    0.0000 S   0  0  0  0  0  0  0  0  0  0  0  0
   -5.2690    2.5578    0.0000 C   0  0  0  0  0  0  0  0  0  0  0  0
   -2.3588    6.9770    0.0000 O   0  0  0  0  0  0  0  0  0  0  0  0
   -3.5030    5.7872    0.0000 O   0  0  0  0  0  0  0  0  0  0  0  0
   -1.6623    4.6804    0.0000 O   0  0  0  0  0  0  0  0  0  0  0  0
   -5.2690    0.0871    0.0000 O   0  5  0  0  0  0  0  0  0  0  0  0
   -3.8388    5.0037    0.0000 C   0  0  0  0  0  0  0  0  0  0  0  0
   -3.1299    3.7890    0.0000 C   0  0  0  0  0  0  0  0  0  0  0  0
   -3.8429    0.0829    0.0000 O   0  0  0  0  0  0  0  0  0  0  0  0
   -1.5131    6.0111    0.0000 C   0  0  0  0  0  0  0  0  0  0  0  0
   -3.4657    7.7522    0.0000 C   0  0  0  0  0  0  0  0  0  0  0  0
   -5.2690    4.1829    0.0000 O   0  0  0  0  0  0  0  0  0  0  0  0
   -5.2690    1.7287    0.0000 C   0  0  0  0  0  0  0  0  0  0  0  0
   -4.7715    7.4786    0.0000 C   0  0  0  0  0  0  0  0  0  0  0  0
   -4.2160    8.0880    0.0000 C   0  0  0  0  0  0  0  0  0  0  0  0
   -3.1174    2.9558    0.0000 Cl  0  0  0  0  0  0  0  0  0  0  0  0
   -1.1027    5.2898    0.0000 C   0  0  0  0  0  0  0  0  0  0  0  0
  2  1  1  0  0  0  0
  3  2  1  0  0  0  0
  4  5  1  0  0  0  0
  5  8  1  0  0  0  0
  6  1  1  0  0  0  0
  7 10  1  0  0  0  0
  8 20  1  0  0  0  0
  9  4  1  0  0  0  0
 10 26  2  0  0  0  0
 11  3  1  0  0  0  0
 12  3  1  0  0  0  0
 13  9  2  0  0  0  0
 14  6  1  0  0  0  0
 15  4  2  0  0  0  0
 16  1  2  0  0  0  0
 17  1  2  0  0  0  0
 18  3  1  0  0  0  0
 19  7  1  0  0  0  0
 20 12  1  0  0  0  0
 21 11  1  0  0  0  0
 22  7  2  0  0  0  0
 23  2  1  0  0  0  0
 24  6  2  0  0  0  0
 25  5  2  0  0  0  0
 26 15  1  0  0  0  0
 27 14  1  0  0  0  0
 28 24  1  0  0  0  0
 29  9  1  0  0  0  0
 30 23  1  0  0  0  0
 27 28  2  0  0  0  0
 18 30  1  0  0  0  0
  8 21  1  0  0  0  0
 10 13  1  0  0  0  0
M  CHG  2   7   1  19  -1
M  END
>  <IDNUMBER>
F2663-0278

>  <Chemical_Name>
8-(2-chloro-4-nitrobenzoyl)-4-(thiophene-2-sulfonyl)-1-oxa-4,8-diazaspiro[4.5]decane

>  <PriceCoeff>
1.00

>  <CAS>
903306-14-9

>  <MW>
471.94

>  <Description>
solid

>  <FSP3>
0.39

>  <clogP>
2.31

>  <TPSA>
146.68

>  <Acceptor>
6

>  <Donor>
0

>  <RotBonds>
5

>  <HAC>
30

>  <Collection>
General

>  <PPDS>
+

$$$$
F2664-0047
  Mrv2219 10102508112D          

 26 29  0  0  0  0            999 V2000
   -4.0654    8.0759    0.0000 N   0  0  0  0  0  0  0  0  0  0  0  0
   -6.3891    1.8975    0.0000 N   0  3  0  0  0  0  0  0  0  0  0  0
   -5.6741    2.3191    0.0000 C   0  0  0  0  0  0  0  0  0  0  0  0
   -4.2441    7.2646    0.0000 C   0  0  0  0  0  0  0  0  0  0  0  0
   -3.5291    6.8521    0.0000 C   0  0  0  0  0  0  0  0  0  0  0  0
   -4.9500    6.8521    0.0000 C   0  0  0  0  0  0  0  0  0  0  0  0
   -4.6841    8.6259    0.0000 C   0  0  0  0  0  0  0  0  0  0  0  0
   -4.9454    4.3816    0.0000 C   0  0  0  0  0  0  0  0  0  0  0  0
   -5.6741    3.1441    0.0000 C   0  0  0  0  0  0  0  0  0  0  0  0
   -4.2441    4.7896    0.0000 N   0  0  0  0  0  0  0  0  0  0  0  0
   -4.9500    3.5566    0.0000 C   0  0  0  0  0  0  0  0  0  0  0  0
   -3.2450    8.1584    0.0000 C   0  0  0  0  0  0  0  0  0  0  0  0
   -4.2441    5.6146    0.0000 C   0  0  0  0  0  0  0  0  0  0  0  0
   -4.9500    1.9066    0.0000 C   0  0  0  0  0  0  0  0  0  0  0  0
   -6.3891    1.0725    0.0000 O   0  5  0  0  0  0  0  0  0  0  0  0
   -4.9500    6.0271    0.0000 C   0  0  0  0  0  0  0  0  0  0  0  0
   -3.5291    6.0271    0.0000 C   0  0  0  0  0  0  0  0  0  0  0  0
   -7.0996    2.3100    0.0000 O   0  0  0  0  0  0  0  0  0  0  0  0
   -2.9104    7.4021    0.0000 C   0  0  0  0  0  0  0  0  0  0  0  0
   -5.6741    7.2646    0.0000 C   0  0  0  0  0  0  0  0  0  0  0  0
   -5.6741    8.0896    0.0000 C   0  0  0  0  0  0  0  0  0  0  0  0
   -5.6741    4.7896    0.0000 O   0  0  0  0  0  0  0  0  0  0  0  0
   -4.4229    9.4096    0.0000 O   0  0  0  0  0  0  0  0  0  0  0  0
   -4.2441    3.1441    0.0000 C   0  0  0  0  0  0  0  0  0  0  0  0
   -4.2441    2.3191    0.0000 C   0  0  0  0  0  0  0  0  0  0  0  0
   -4.9500    1.0816    0.0000 Cl  0  0  0  0  0  0  0  0  0  0  0  0
  2  3  1  0  0  0  0
  3  9  1  0  0  0  0
  4  1  1  0  0  0  0
  5  4  2  0  0  0  0
  6  4  1  0  0  0  0
  7  1  1  0  0  0  0
  8 10  1  0  0  0  0
  9 11  2  0  0  0  0
 10 13  1  0  0  0  0
 11  8  1  0  0  0  0
 12  1  1  0  0  0  0
 13 16  1  0  0  0  0
 14 25  1  0  0  0  0
 15  2  1  0  0  0  0
 16  6  2  0  0  0  0
 17  5  1  0  0  0  0
 18  2  2  0  0  0  0
 19 12  1  0  0  0  0
 20 21  1  0  0  0  0
 21  7  1  0  0  0  0
 22  8  2  0  0  0  0
 23  7  2  0  0  0  0
 24 11  1  0  0  0  0
 25 24  2  0  0  0  0
 26 14  1  0  0  0  0
 19  5  1  0  0  0  0
 20  6  1  0  0  0  0
 13 17  2  0  0  0  0
 14  3  2  0  0  0  0
M  CHG  2   2   1  15  -1
M  END
>  <IDNUMBER>
F2664-0047

>  <Chemical_Name>
4-chloro-3-nitro-N-{11-oxo-1-azatricyclo[6.3.1.0?,??]dodeca-4(12),5,7-trien-6-yl}benzamide

>  <PriceCoeff>
1.00

>  <CAS>
898435-28-4

>  <MW>
371.77

>  <Description>
solid

>  <FSP3>
0.22

>  <clogP>
2.81

>  <TPSA>
92.55

>  <Acceptor>
4

>  <Donor>
1

>  <RotBonds>
3

>  <HAC>
26

>  <Collection>
General

>  <PPDS>
+

$$$$
F2664-0051
  Mrv2219 10102508112D          

 26 29  0  0  0  0            999 V2000
   -4.0653    8.0757    0.0000 N   0  0  0  0  0  0  0  0  0  0  0  0
   -4.9499    1.0816    0.0000 N   0  3  0  0  0  0  0  0  0  0  0  0
   -4.2441    7.2645    0.0000 C   0  0  0  0  0  0  0  0  0  0  0  0
   -4.9499    3.5566    0.0000 C   0  0  0  0  0  0  0  0  0  0  0  0
   -4.9453    4.3816    0.0000 C   0  0  0  0  0  0  0  0  0  0  0  0
   -3.5291    6.8520    0.0000 C   0  0  0  0  0  0  0  0  0  0  0  0
   -4.9499    6.8520    0.0000 C   0  0  0  0  0  0  0  0  0  0  0  0
   -4.6841    8.6257    0.0000 C   0  0  0  0  0  0  0  0  0  0  0  0
   -4.2441    3.1441    0.0000 C   0  0  0  0  0  0  0  0  0  0  0  0
   -4.9499    1.9066    0.0000 C   0  0  0  0  0  0  0  0  0  0  0  0
   -4.2441    4.7895    0.0000 N   0  0  0  0  0  0  0  0  0  0  0  0
   -4.2441    2.3191    0.0000 C   0  0  0  0  0  0  0  0  0  0  0  0
   -3.2449    8.1582    0.0000 C   0  0  0  0  0  0  0  0  0  0  0  0
   -4.2441    5.6145    0.0000 C   0  0  0  0  0  0  0  0  0  0  0  0
   -5.6740    3.1441    0.0000 C   0  0  0  0  0  0  0  0  0  0  0  0
   -4.9499    6.0270    0.0000 C   0  0  0  0  0  0  0  0  0  0  0  0
   -3.5291    6.0270    0.0000 C   0  0  0  0  0  0  0  0  0  0  0  0
   -5.6603    0.6691    0.0000 O   0  5  0  0  0  0  0  0  0  0  0  0
   -4.2349    0.6691    0.0000 O   0  0  0  0  0  0  0  0  0  0  0  0
   -2.9103    7.4020    0.0000 C   0  0  0  0  0  0  0  0  0  0  0  0
   -5.6740    4.7895    0.0000 O   0  0  0  0  0  0  0  0  0  0  0  0
   -5.6740    7.2645    0.0000 C   0  0  0  0  0  0  0  0  0  0  0  0
   -5.6740    2.3191    0.0000 C   0  0  0  0  0  0  0  0  0  0  0  0
   -5.6740    8.0895    0.0000 C   0  0  0  0  0  0  0  0  0  0  0  0
   -4.4228    9.4095    0.0000 O   0  0  0  0  0  0  0  0  0  0  0  0
   -3.5199    3.5612    0.0000 Cl  0  0  0  0  0  0  0  0  0  0  0  0
  2 10  1  0  0  0  0
  3  1  1  0  0  0  0
  4  5  1  0  0  0  0
  5 11  1  0  0  0  0
  6  3  2  0  0  0  0
  7  3  1  0  0  0  0
  8  1  1  0  0  0  0
  9  4  1  0  0  0  0
 10 23  2  0  0  0  0
 11 14  1  0  0  0  0
 12  9  2  0  0  0  0
 13  1  1  0  0  0  0
 14 16  1  0  0  0  0
 15  4  2  0  0  0  0
 16  7  2  0  0  0  0
 17  6  1  0  0  0  0
 18  2  1  0  0  0  0
 19  2  2  0  0  0  0
 20 13  1  0  0  0  0
 21  5  2  0  0  0  0
 22 24  1  0  0  0  0
 23 15  1  0  0  0  0
 24  8  1  0  0  0  0
 25  8  2  0  0  0  0
 26  9  1  0  0  0  0
 20  6  1  0  0  0  0
 22  7  1  0  0  0  0
 14 17  2  0  0  0  0
 12 10  1  0  0  0  0
M  CHG  2   2   1  18  -1
M  END
>  <IDNUMBER>
F2664-0051

>  <Chemical_Name>
2-chloro-4-nitro-N-{11-oxo-1-azatricyclo[6.3.1.0?,??]dodeca-4(12),5,7-trien-6-yl}benzamide

>  <PriceCoeff>
1.00

>  <CAS>
903273-86-9

>  <MW>
371.77

>  <Description>
solid

>  <FSP3>
0.22

>  <clogP>
2.13

>  <TPSA>
92.55

>  <Acceptor>
4

>  <Donor>
1

>  <RotBonds>
3

>  <HAC>
26

>  <Collection>
General

>  <PPDS>
+

$$$$
F2666-0047
  Mrv2219 10102508112D          

 26 29  0  0  0  0            999 V2000
   -4.2280    8.1355    0.0000 N   0  0  0  0  0  0  0  0  0  0  0  0
   -6.3718    1.9468    0.0000 N   0  3  0  0  0  0  0  0  0  0  0  0
   -5.6572    2.3637    0.0000 C   0  0  0  0  0  0  0  0  0  0  0  0
   -5.0113    8.3875    0.0000 C   0  0  0  0  0  0  0  0  0  0  0  0
   -4.2280    7.3109    0.0000 C   0  0  0  0  0  0  0  0  0  0  0  0
   -4.9426    6.8987    0.0000 C   0  0  0  0  0  0  0  0  0  0  0  0
   -4.9335    4.4250    0.0000 C   0  0  0  0  0  0  0  0  0  0  0  0
   -3.5180    6.8987    0.0000 C   0  0  0  0  0  0  0  0  0  0  0  0
   -5.6572    3.1882    0.0000 C   0  0  0  0  0  0  0  0  0  0  0  0
   -5.5610    7.4530    0.0000 C   0  0  0  0  0  0  0  0  0  0  0  0
   -4.2280    4.8373    0.0000 N   0  0  0  0  0  0  0  0  0  0  0  0
   -4.9426    3.6005    0.0000 C   0  0  0  0  0  0  0  0  0  0  0  0
   -4.2280    5.6619    0.0000 C   0  0  0  0  0  0  0  0  0  0  0  0
   -4.9426    1.9514    0.0000 C   0  0  0  0  0  0  0  0  0  0  0  0
   -6.3718    1.1223    0.0000 O   0  5  0  0  0  0  0  0  0  0  0  0
   -4.9426    6.0741    0.0000 C   0  0  0  0  0  0  0  0  0  0  0  0
   -3.5180    6.0741    0.0000 C   0  0  0  0  0  0  0  0  0  0  0  0
   -7.0819    2.3591    0.0000 O   0  0  0  0  0  0  0  0  0  0  0  0
   -5.1763    9.1983    0.0000 O   0  0  0  0  0  0  0  0  0  0  0  0
   -5.6572    4.8373    0.0000 O   0  0  0  0  0  0  0  0  0  0  0  0
   -4.2280    3.1882    0.0000 C   0  0  0  0  0  0  0  0  0  0  0  0
   -4.2280    2.3637    0.0000 C   0  0  0  0  0  0  0  0  0  0  0  0
   -3.5180    8.5478    0.0000 C   0  0  0  0  0  0  0  0  0  0  0  0
   -4.9426    1.1269    0.0000 Cl  0  0  0  0  0  0  0  0  0  0  0  0
   -2.8034    7.3109    0.0000 C   0  0  0  0  0  0  0  0  0  0  0  0
   -2.8034    8.1355    0.0000 C   0  0  0  0  0  0  0  0  0  0  0  0
  2  3  1  0  0  0  0
  3  9  1  0  0  0  0
  4  1  1  0  0  0  0
  5  1  1  0  0  0  0
  6  5  1  0  0  0  0
  7 11  1  0  0  0  0
  8  5  2  0  0  0  0
  9 12  2  0  0  0  0
 10  4  1  0  0  0  0
 11 13  1  0  0  0  0
 12  7  1  0  0  0  0
 13 17  2  0  0  0  0
 14 22  1  0  0  0  0
 15  2  1  0  0  0  0
 16  6  2  0  0  0  0
 17  8  1  0  0  0  0
 18  2  2  0  0  0  0
 19  4  2  0  0  0  0
 20  7  2  0  0  0  0
 21 12  1  0  0  0  0
 22 21  2  0  0  0  0
 23  1  1  0  0  0  0
 24 14  1  0  0  0  0
 25 26  1  0  0  0  0
 26 23  1  0  0  0  0
 10  6  1  0  0  0  0
 25  8  1  0  0  0  0
 13 16  1  0  0  0  0
  3 14  2  0  0  0  0
M  CHG  2   2   1  15  -1
M  END
>  <IDNUMBER>
F2666-0047

>  <Chemical_Name>
4-chloro-3-nitro-N-{2-oxo-1-azatricyclo[6.3.1.0?,??]dodeca-4(12),5,7-trien-6-yl}benzamide

>  <PriceCoeff>
1.00

>  <CAS>
898410-81-6

>  <MW>
371.77

>  <Description>
solid

>  <FSP3>
0.22

>  <clogP>
2.74

>  <TPSA>
92.55

>  <Acceptor>
4

>  <Donor>
1

>  <RotBonds>
3

>  <HAC>
26

>  <Collection>
General

>  <PPDS>
+

$$$$
F2666-0051
  Mrv2219 10102508112D          

 26 29  0  0  0  0            999 V2000
   -4.2280    8.1355    0.0000 N   0  0  0  0  0  0  0  0  0  0  0  0
   -5.0113    8.3875    0.0000 C   0  0  0  0  0  0  0  0  0  0  0  0
   -4.9426    1.1269    0.0000 N   0  3  0  0  0  0  0  0  0  0  0  0
   -4.2280    7.3109    0.0000 C   0  0  0  0  0  0  0  0  0  0  0  0
   -4.9426    3.6005    0.0000 C   0  0  0  0  0  0  0  0  0  0  0  0
   -4.9335    4.4250    0.0000 C   0  0  0  0  0  0  0  0  0  0  0  0
   -4.9426    6.8987    0.0000 C   0  0  0  0  0  0  0  0  0  0  0  0
   -3.5180    6.8987    0.0000 C   0  0  0  0  0  0  0  0  0  0  0  0
   -4.2280    3.1882    0.0000 C   0  0  0  0  0  0  0  0  0  0  0  0
   -4.9426    1.9514    0.0000 C   0  0  0  0  0  0  0  0  0  0  0  0
   -4.2280    4.8373    0.0000 N   0  0  0  0  0  0  0  0  0  0  0  0
   -5.5610    7.4530    0.0000 C   0  0  0  0  0  0  0  0  0  0  0  0
   -4.2280    2.3637    0.0000 C   0  0  0  0  0  0  0  0  0  0  0  0
   -4.2280    5.6619    0.0000 C   0  0  0  0  0  0  0  0  0  0  0  0
   -5.6572    3.1882    0.0000 C   0  0  0  0  0  0  0  0  0  0  0  0
   -4.9426    6.0741    0.0000 C   0  0  0  0  0  0  0  0  0  0  0  0
   -5.6572    0.7146    0.0000 O   0  5  0  0  0  0  0  0  0  0  0  0
   -3.5180    6.0741    0.0000 C   0  0  0  0  0  0  0  0  0  0  0  0
   -4.2280    0.7146    0.0000 O   0  0  0  0  0  0  0  0  0  0  0  0
   -5.1763    9.1983    0.0000 O   0  0  0  0  0  0  0  0  0  0  0  0
   -5.6572    4.8373    0.0000 O   0  0  0  0  0  0  0  0  0  0  0  0
   -5.6572    2.3637    0.0000 C   0  0  0  0  0  0  0  0  0  0  0  0
   -3.5134    3.6096    0.0000 Cl  0  0  0  0  0  0  0  0  0  0  0  0
   -3.5180    8.5478    0.0000 C   0  0  0  0  0  0  0  0  0  0  0  0
   -2.8034    7.3109    0.0000 C   0  0  0  0  0  0  0  0  0  0  0  0
   -2.8034    8.1355    0.0000 C   0  0  0  0  0  0  0  0  0  0  0  0
  2  1  1  0  0  0  0
  3 10  1  0  0  0  0
  4  1  1  0  0  0  0
  5  6  1  0  0  0  0
  6 11  1  0  0  0  0
  7  4  1  0  0  0  0
  8  4  2  0  0  0  0
  9  5  1  0  0  0  0
 10 22  2  0  0  0  0
 11 14  1  0  0  0  0
 12  2  1  0  0  0  0
 13  9  2  0  0  0  0
 14 18  2  0  0  0  0
 15  5  2  0  0  0  0
 16  7  2  0  0  0  0
 17  3  1  0  0  0  0
 18  8  1  0  0  0  0
 19  3  2  0  0  0  0
 20  2  2  0  0  0  0
 21  6  2  0  0  0  0
 22 15  1  0  0  0  0
 23  9  1  0  0  0  0
 24  1  1  0  0  0  0
 25 26  1  0  0  0  0
 26 24  1  0  0  0  0
 12  7  1  0  0  0  0
 25  8  1  0  0  0  0
 14 16  1  0  0  0  0
 10 13  1  0  0  0  0
M  CHG  2   3   1  17  -1
M  END
>  <IDNUMBER>
F2666-0051

>  <Chemical_Name>
2-chloro-4-nitro-N-{2-oxo-1-azatricyclo[6.3.1.0?,??]dodeca-4(12),5,7-trien-6-yl}benzamide

>  <PriceCoeff>
1.00

>  <CAS>
898454-35-8

>  <MW>
371.77

>  <Description>
solid

>  <FSP3>
0.22

>  <clogP>
2.06

>  <TPSA>
92.55

>  <Acceptor>
4

>  <Donor>
1

>  <RotBonds>
3

>  <HAC>
26

>  <Collection>
General

>  <PPDS>
+

$$$$
F2666-0117
  Mrv2219 10102508112D          

 27 30  0  0  0  0            999 V2000
   -4.2350    8.1446    0.0000 N   0  0  0  0  0  0  0  0  0  0  0  0
   -5.0187    8.3921    0.0000 C   0  0  0  0  0  0  0  0  0  0  0  0
   -4.2350    7.3196    0.0000 C   0  0  0  0  0  0  0  0  0  0  0  0
   -6.3800    1.9525    0.0000 N   0  3  0  0  0  0  0  0  0  0  0  0
   -5.6604    2.3741    0.0000 C   0  0  0  0  0  0  0  0  0  0  0  0
   -4.9500    6.9071    0.0000 C   0  0  0  0  0  0  0  0  0  0  0  0
   -5.5641    7.4571    0.0000 C   0  0  0  0  0  0  0  0  0  0  0  0
   -3.5291    6.9071    0.0000 C   0  0  0  0  0  0  0  0  0  0  0  0
   -4.9454    4.4321    0.0000 C   0  0  0  0  0  0  0  0  0  0  0  0
   -5.6604    3.1991    0.0000 C   0  0  0  0  0  0  0  0  0  0  0  0
   -4.2350    4.8446    0.0000 N   0  0  0  0  0  0  0  0  0  0  0  0
   -4.9454    3.6116    0.0000 C   0  0  0  0  0  0  0  0  0  0  0  0
   -4.2350    5.6696    0.0000 C   0  0  0  0  0  0  0  0  0  0  0  0
   -4.9500    6.0821    0.0000 C   0  0  0  0  0  0  0  0  0  0  0  0
   -4.9454    1.9616    0.0000 C   0  0  0  0  0  0  0  0  0  0  0  0
   -6.3800    1.1275    0.0000 O   0  5  0  0  0  0  0  0  0  0  0  0
   -3.5291    6.0821    0.0000 C   0  0  0  0  0  0  0  0  0  0  0  0
   -5.1791    9.2034    0.0000 O   0  0  0  0  0  0  0  0  0  0  0  0
   -7.0950    2.3650    0.0000 O   0  0  0  0  0  0  0  0  0  0  0  0
   -5.6604    4.8446    0.0000 O   0  0  0  0  0  0  0  0  0  0  0  0
   -4.2350    3.1991    0.0000 C   0  0  0  0  0  0  0  0  0  0  0  0
   -4.2350    2.3741    0.0000 C   0  0  0  0  0  0  0  0  0  0  0  0
   -3.5291    8.5571    0.0000 C   0  0  0  0  0  0  0  0  0  0  0  0
   -4.9454    1.1366    0.0000 Cl  0  0  0  0  0  0  0  0  0  0  0  0
   -2.8141    7.3196    0.0000 C   0  0  0  0  0  0  0  0  0  0  0  0
   -6.3616    7.2096    0.0000 C   0  0  0  0  0  0  0  0  0  0  0  0
   -2.8141    8.1446    0.0000 C   0  0  0  0  0  0  0  0  0  0  0  0
  2  1  1  0  0  0  0
  3  1  1  0  0  0  0
  4  5  1  0  0  0  0
  5 10  1  0  0  0  0
  6  3  1  0  0  0  0
  7  2  1  0  0  0  0
  8  3  2  0  0  0  0
  9 11  1  0  0  0  0
 10 12  2  0  0  0  0
 11 13  1  0  0  0  0
 12  9  1  0  0  0  0
 13 17  2  0  0  0  0
 14  6  2  0  0  0  0
 15 22  1  0  0  0  0
 16  4  1  0  0  0  0
 17  8  1  0  0  0  0
 18  2  2  0  0  0  0
 19  4  2  0  0  0  0
 20  9  2  0  0  0  0
 21 12  1  0  0  0  0
 22 21  2  0  0  0  0
 23  1  1  0  0  0  0
 24 15  1  0  0  0  0
 25 27  1  0  0  0  0
 26  7  1  0  0  0  0
 27 23  1  0  0  0  0
  7  6  1  0  0  0  0
 25  8  1  0  0  0  0
 13 14  1  0  0  0  0
  5 15  2  0  0  0  0
M  CHG  2   4   1  16  -1
M  END
>  <IDNUMBER>
F2666-0117

>  <Chemical_Name>
4-chloro-N-{3-methyl-2-oxo-1-azatricyclo[6.3.1.0?,??]dodeca-4(12),5,7-trien-6-yl}-3-nitrobenzamide

>  <PriceCoeff>
1.00

>  <CAS>
898411-01-3

>  <MW>
385.80

>  <Description>
solid

>  <FSP3>
0.26

>  <clogP>
3.26

>  <TPSA>
92.55

>  <Acceptor>
4

>  <Donor>
1

>  <RotBonds>
3

>  <HAC>
27

>  <Collection>
General

>  <PPDS>
+

$$$$
F2666-0121
  Mrv2219 10102508112D          

 27 30  0  0  0  0            999 V2000
   -4.2350    8.1446    0.0000 N   0  0  0  0  0  0  0  0  0  0  0  0
   -5.0187    8.3921    0.0000 C   0  0  0  0  0  0  0  0  0  0  0  0
   -4.2350    7.3196    0.0000 C   0  0  0  0  0  0  0  0  0  0  0  0
   -4.9500    6.9071    0.0000 C   0  0  0  0  0  0  0  0  0  0  0  0
   -4.9454    1.1366    0.0000 N   0  3  0  0  0  0  0  0  0  0  0  0
   -4.9454    3.6116    0.0000 C   0  0  0  0  0  0  0  0  0  0  0  0
   -4.9454    4.4321    0.0000 C   0  0  0  0  0  0  0  0  0  0  0  0
   -5.5641    7.4571    0.0000 C   0  0  0  0  0  0  0  0  0  0  0  0
   -3.5291    6.9071    0.0000 C   0  0  0  0  0  0  0  0  0  0  0  0
   -4.2350    3.1991    0.0000 C   0  0  0  0  0  0  0  0  0  0  0  0
   -4.9454    1.9616    0.0000 C   0  0  0  0  0  0  0  0  0  0  0  0
   -4.2350    4.8446    0.0000 N   0  0  0  0  0  0  0  0  0  0  0  0
   -4.2350    2.3741    0.0000 C   0  0  0  0  0  0  0  0  0  0  0  0
   -4.2350    5.6696    0.0000 C   0  0  0  0  0  0  0  0  0  0  0  0
   -5.6604    3.1991    0.0000 C   0  0  0  0  0  0  0  0  0  0  0  0
   -4.9500    6.0821    0.0000 C   0  0  0  0  0  0  0  0  0  0  0  0
   -3.5291    6.0821    0.0000 C   0  0  0  0  0  0  0  0  0  0  0  0
   -5.6604    0.7241    0.0000 O   0  5  0  0  0  0  0  0  0  0  0  0
   -5.1791    9.2034    0.0000 O   0  0  0  0  0  0  0  0  0  0  0  0
   -4.2304    0.7241    0.0000 O   0  0  0  0  0  0  0  0  0  0  0  0
   -5.6604    4.8446    0.0000 O   0  0  0  0  0  0  0  0  0  0  0  0
   -5.6604    2.3741    0.0000 C   0  0  0  0  0  0  0  0  0  0  0  0
   -3.5291    8.5571    0.0000 C   0  0  0  0  0  0  0  0  0  0  0  0
   -3.5154    3.6254    0.0000 Cl  0  0  0  0  0  0  0  0  0  0  0  0
   -2.8141    7.3196    0.0000 C   0  0  0  0  0  0  0  0  0  0  0  0
   -6.3616    7.2096    0.0000 C   0  0  0  0  0  0  0  0  0  0  0  0
   -2.8141    8.1446    0.0000 C   0  0  0  0  0  0  0  0  0  0  0  0
  2  1  1  0  0  0  0
  3  1  1  0  0  0  0
  4  3  1  0  0  0  0
  5 11  1  0  0  0  0
  6  7  1  0  0  0  0
  7 12  1  0  0  0  0
  8  2  1  0  0  0  0
  9  3  2  0  0  0  0
 10  6  1  0  0  0  0
 11 22  2  0  0  0  0
 12 14  1  0  0  0  0
 13 10  2  0  0  0  0
 14 17  2  0  0  0  0
 15  6  2  0  0  0  0
 16  4  2  0  0  0  0
 17  9  1  0  0  0  0
 18  5  1  0  0  0  0
 19  2  2  0  0  0  0
 20  5  2  0  0  0  0
 21  7  2  0  0  0  0
 22 15  1  0  0  0  0
 23  1  1  0  0  0  0
 24 10  1  0  0  0  0
 25 27  1  0  0  0  0
 26  8  1  0  0  0  0
 27 23  1  0  0  0  0
  8  4  1  0  0  0  0
 25  9  1  0  0  0  0
 14 16  1  0  0  0  0
 11 13  1  0  0  0  0
M  CHG  2   5   1  18  -1
M  END
>  <IDNUMBER>
F2666-0121

>  <Chemical_Name>
2-chloro-N-{3-methyl-2-oxo-1-azatricyclo[6.3.1.0?,??]dodeca-4(12),5,7-trien-6-yl}-4-nitrobenzamide

>  <PriceCoeff>
1.00

>  <CAS>
903334-80-5

>  <MW>
385.80

>  <Description>
solid

>  <FSP3>
0.26

>  <clogP>
2.58

>  <TPSA>
92.55

>  <Acceptor>
4

>  <Donor>
1

>  <RotBonds>
3

>  <HAC>
27

>  <Collection>
General

>  <PPDS>
+

$$$$
F2668-0038
  Mrv2219 10102508112D          

 24 27  0  0  0  0            999 V2000
   -4.2487    8.1859    0.0000 N   0  0  0  0  0  0  0  0  0  0  0  0
   -4.2487    7.3609    0.0000 C   0  0  0  0  0  0  0  0  0  0  0  0
   -4.9729    6.9484    0.0000 C   0  0  0  0  0  0  0  0  0  0  0  0
   -4.9591    8.5984    0.0000 C   0  0  0  0  0  0  0  0  0  0  0  0
   -3.5429    6.9484    0.0000 C   0  0  0  0  0  0  0  0  0  0  0  0
   -4.9591    4.4734    0.0000 C   0  0  0  0  0  0  0  0  0  0  0  0
   -4.2487    4.8859    0.0000 N   0  0  0  0  0  0  0  0  0  0  0  0
   -4.2487    5.7109    0.0000 C   0  0  0  0  0  0  0  0  0  0  0  0
   -4.9729    6.1234    0.0000 C   0  0  0  0  0  0  0  0  0  0  0  0
   -3.5429    6.1234    0.0000 C   0  0  0  0  0  0  0  0  0  0  0  0
   -4.9591    3.6529    0.0000 C   0  0  0  0  0  0  0  0  0  0  0  0
   -5.6787    7.3609    0.0000 C   0  0  0  0  0  0  0  0  0  0  0  0
   -5.6787    8.1859    0.0000 C   0  0  0  0  0  0  0  0  0  0  0  0
   -5.6741    4.8859    0.0000 O   0  0  0  0  0  0  0  0  0  0  0  0
   -4.9500    9.4234    0.0000 O   0  0  0  0  0  0  0  0  0  0  0  0
   -4.2487    3.2404    0.0000 C   0  0  0  0  0  0  0  0  0  0  0  0
   -5.6741    3.2404    0.0000 C   0  0  0  0  0  0  0  0  0  0  0  0
   -3.5429    8.5984    0.0000 C   0  0  0  0  0  0  0  0  0  0  0  0
   -4.9591    2.0029    0.0000 C   0  0  0  0  0  0  0  0  0  0  0  0
   -5.6741    2.4154    0.0000 C   0  0  0  0  0  0  0  0  0  0  0  0
   -4.2487    2.4154    0.0000 C   0  0  0  0  0  0  0  0  0  0  0  0
   -2.8279    7.3609    0.0000 C   0  0  0  0  0  0  0  0  0  0  0  0
   -4.9591    1.1779    0.0000 Cl  0  0  0  0  0  0  0  0  0  0  0  0
   -2.8279    8.1859    0.0000 C   0  0  0  0  0  0  0  0  0  0  0  0
  2  1  1  0  0  0  0
  3  2  1  0  0  0  0
  4  1  1  0  0  0  0
  5  2  2  0  0  0  0
  6  7  1  0  0  0  0
  7  8  1  0  0  0  0
  8 10  2  0  0  0  0
  9  3  2  0  0  0  0
 10  5  1  0  0  0  0
 11  6  1  0  0  0  0
 12 13  1  0  0  0  0
 13  4  1  0  0  0  0
 14  6  2  0  0  0  0
 15  4  2  0  0  0  0
 16 11  1  0  0  0  0
 17 11  2  0  0  0  0
 18  1  1  0  0  0  0
 19 20  2  0  0  0  0
 20 17  1  0  0  0  0
 21 16  2  0  0  0  0
 22 24  1  0  0  0  0
 23 19  1  0  0  0  0
 24 18  1  0  0  0  0
 22  5  1  0  0  0  0
 12  3  1  0  0  0  0
  8  9  1  0  0  0  0
 19 21  1  0  0  0  0
M  END
>  <IDNUMBER>
F2668-0038

>  <Chemical_Name>
4-chloro-N-{12-oxo-1-azatricyclo[7.3.1.0?,??]trideca-5,7,9(13)-trien-7-yl}benzamide

>  <PriceCoeff>
1.00

>  <CAS>
898411-92-2

>  <MW>
340.80

>  <Description>
solid

>  <FSP3>
0.26

>  <clogP>
3.48

>  <TPSA>
49.41

>  <Acceptor>
2

>  <Donor>
1

>  <RotBonds>
2

>  <HAC>
24

>  <Collection>
General

>  <PPDS>
+

$$$$
F2668-0047
  Mrv2219 10102508112D          

 27 30  0  0  0  0            999 V2000
   -6.3937    1.9938    0.0000 N   0  3  0  0  0  0  0  0  0  0  0  0
   -5.6741    2.4154    0.0000 C   0  0  0  0  0  0  0  0  0  0  0  0
   -4.2487    8.1859    0.0000 N   0  0  0  0  0  0  0  0  0  0  0  0
   -4.2487    7.3609    0.0000 C   0  0  0  0  0  0  0  0  0  0  0  0
   -4.9729    6.9484    0.0000 C   0  0  0  0  0  0  0  0  0  0  0  0
   -4.9591    8.5984    0.0000 C   0  0  0  0  0  0  0  0  0  0  0  0
   -4.9591    4.4734    0.0000 C   0  0  0  0  0  0  0  0  0  0  0  0
   -3.5429    6.9484    0.0000 C   0  0  0  0  0  0  0  0  0  0  0  0
   -5.6741    3.2404    0.0000 C   0  0  0  0  0  0  0  0  0  0  0  0
   -4.2487    4.8859    0.0000 N   0  0  0  0  0  0  0  0  0  0  0  0
   -4.9591    3.6529    0.0000 C   0  0  0  0  0  0  0  0  0  0  0  0
   -4.2487    5.7109    0.0000 C   0  0  0  0  0  0  0  0  0  0  0  0
   -4.9591    2.0029    0.0000 C   0  0  0  0  0  0  0  0  0  0  0  0
   -6.3937    1.1687    0.0000 O   0  5  0  0  0  0  0  0  0  0  0  0
   -4.9729    6.1234    0.0000 C   0  0  0  0  0  0  0  0  0  0  0  0
   -3.5429    6.1234    0.0000 C   0  0  0  0  0  0  0  0  0  0  0  0
   -7.1088    2.4062    0.0000 O   0  0  0  0  0  0  0  0  0  0  0  0
   -5.6787    7.3609    0.0000 C   0  0  0  0  0  0  0  0  0  0  0  0
   -5.6741    8.1859    0.0000 C   0  0  0  0  0  0  0  0  0  0  0  0
   -5.6741    4.8859    0.0000 O   0  0  0  0  0  0  0  0  0  0  0  0
   -4.9591    9.4234    0.0000 O   0  0  0  0  0  0  0  0  0  0  0  0
   -4.2487    3.2404    0.0000 C   0  0  0  0  0  0  0  0  0  0  0  0
   -4.2487    2.4154    0.0000 C   0  0  0  0  0  0  0  0  0  0  0  0
   -3.5429    8.5984    0.0000 C   0  0  0  0  0  0  0  0  0  0  0  0
   -4.9591    1.1779    0.0000 Cl  0  0  0  0  0  0  0  0  0  0  0  0
   -2.8279    7.3609    0.0000 C   0  0  0  0  0  0  0  0  0  0  0  0
   -2.8279    8.1859    0.0000 C   0  0  0  0  0  0  0  0  0  0  0  0
  2  1  1  0  0  0  0
  3  4  1  0  0  0  0
  4  8  2  0  0  0  0
  5 15  2  0  0  0  0
  6  3  1  0  0  0  0
  7 11  1  0  0  0  0
  8 16  1  0  0  0  0
  9  2  1  0  0  0  0
 10  7  1  0  0  0  0
 11  9  2  0  0  0  0
 12 10  1  0  0  0  0
 13  2  2  0  0  0  0
 14  1  1  0  0  0  0
 15 12  1  0  0  0  0
 16 12  2  0  0  0  0
 17  1  2  0  0  0  0
 18  5  1  0  0  0  0
 19 18  1  0  0  0  0
 20  7  2  0  0  0  0
 21  6  2  0  0  0  0
 22 23  2  0  0  0  0
 23 13  1  0  0  0  0
 24 27  1  0  0  0  0
 25 13  1  0  0  0  0
 26  8  1  0  0  0  0
 27 26  1  0  0  0  0
 11 22  1  0  0  0  0
  4  5  1  0  0  0  0
 19  6  1  0  0  0  0
 24  3  1  0  0  0  0
M  CHG  2   1   1  14  -1
M  END
>  <IDNUMBER>
F2668-0047

>  <Chemical_Name>
4-chloro-3-nitro-N-{2-oxo-1-azatricyclo[7.3.1.0?,??]trideca-5,7,9(13)-trien-7-yl}benzamide

>  <PriceCoeff>
1.00

>  <CAS>
898455-50-0

>  <MW>
385.80

>  <Description>
solid

>  <FSP3>
0.26

>  <clogP>
3.37

>  <TPSA>
92.55

>  <Acceptor>
4

>  <Donor>
1

>  <RotBonds>
3

>  <HAC>
27

>  <Collection>
General

>  <PPDS>
+

$$$$
F2668-0051
  Mrv2219 10102508112D          

 27 30  0  0  0  0            999 V2000
   -4.2487    8.1859    0.0000 N   0  0  0  0  0  0  0  0  0  0  0  0
   -4.9591    1.1779    0.0000 N   0  3  0  0  0  0  0  0  0  0  0  0
   -4.2487    7.3609    0.0000 C   0  0  0  0  0  0  0  0  0  0  0  0
   -4.9591    3.6529    0.0000 C   0  0  0  0  0  0  0  0  0  0  0  0
   -4.9591    4.4734    0.0000 C   0  0  0  0  0  0  0  0  0  0  0  0
   -4.9729    6.9484    0.0000 C   0  0  0  0  0  0  0  0  0  0  0  0
   -4.9591    8.5984    0.0000 C   0  0  0  0  0  0  0  0  0  0  0  0
   -3.5429    6.9484    0.0000 C   0  0  0  0  0  0  0  0  0  0  0  0
   -4.2487    3.2404    0.0000 C   0  0  0  0  0  0  0  0  0  0  0  0
   -4.9591    2.0029    0.0000 C   0  0  0  0  0  0  0  0  0  0  0  0
   -4.2487    4.8859    0.0000 N   0  0  0  0  0  0  0  0  0  0  0  0
   -4.2487    2.4154    0.0000 C   0  0  0  0  0  0  0  0  0  0  0  0
   -4.2487    5.7109    0.0000 C   0  0  0  0  0  0  0  0  0  0  0  0
   -5.6741    3.2404    0.0000 C   0  0  0  0  0  0  0  0  0  0  0  0
   -4.9729    6.1234    0.0000 C   0  0  0  0  0  0  0  0  0  0  0  0
   -5.6741    0.7654    0.0000 O   0  5  0  0  0  0  0  0  0  0  0  0
   -3.5429    6.1234    0.0000 C   0  0  0  0  0  0  0  0  0  0  0  0
   -4.2441    0.7654    0.0000 O   0  0  0  0  0  0  0  0  0  0  0  0
   -5.6741    4.8859    0.0000 O   0  0  0  0  0  0  0  0  0  0  0  0
   -5.6787    7.3609    0.0000 C   0  0  0  0  0  0  0  0  0  0  0  0
   -5.6741    2.4154    0.0000 C   0  0  0  0  0  0  0  0  0  0  0  0
   -5.6741    8.1859    0.0000 C   0  0  0  0  0  0  0  0  0  0  0  0
   -4.9591    9.4234    0.0000 O   0  0  0  0  0  0  0  0  0  0  0  0
   -3.5291    3.6666    0.0000 Cl  0  0  0  0  0  0  0  0  0  0  0  0
   -3.5429    8.5984    0.0000 C   0  0  0  0  0  0  0  0  0  0  0  0
   -2.8279    7.3609    0.0000 C   0  0  0  0  0  0  0  0  0  0  0  0
   -2.8279    8.1859    0.0000 C   0  0  0  0  0  0  0  0  0  0  0  0
  2 10  1  0  0  0  0
  3  1  1  0  0  0  0
  4  5  1  0  0  0  0
  5 11  1  0  0  0  0
  6  3  1  0  0  0  0
  7  1  1  0  0  0  0
  8  3  2  0  0  0  0
  9  4  1  0  0  0  0
 10 21  2  0  0  0  0
 11 13  1  0  0  0  0
 12  9  2  0  0  0  0
 13 17  2  0  0  0  0
 14  4  2  0  0  0  0
 15  6  2  0  0  0  0
 16  2  1  0  0  0  0
 17  8  1  0  0  0  0
 18  2  2  0  0  0  0
 19  5  2  0  0  0  0
 20 22  1  0  0  0  0
 21 14  1  0  0  0  0
 22  7  1  0  0  0  0
 23  7  2  0  0  0  0
 24  9  1  0  0  0  0
 25  1  1  0  0  0  0
 26 27  1  0  0  0  0
 27 25  1  0  0  0  0
 26  8  1  0  0  0  0
 20  6  1  0  0  0  0
 13 15  1  0  0  0  0
 10 12  1  0  0  0  0
M  CHG  2   2   1  16  -1
M  END
>  <IDNUMBER>
F2668-0051

>  <Chemical_Name>
2-chloro-4-nitro-N-{12-oxo-1-azatricyclo[7.3.1.0?,??]trideca-5,7,9(13)-trien-7-yl}benzamide

>  <PriceCoeff>
1.00

>  <CAS>
903300-04-9

>  <MW>
385.80

>  <Description>
solid

>  <FSP3>
0.26

>  <clogP>
2.69

>  <TPSA>
92.55

>  <Acceptor>
4

>  <Donor>
1

>  <RotBonds>
3

>  <HAC>
27

>  <Collection>
General

>  <PPDS>
+

$$$$
F2670-0026
  Mrv2219 10102508112D          

 23 25  0  0  0  0            999 V2000
   -5.2795    6.6794    0.0000 N   0  0  0  0  0  0  0  0  0  0  0  0
   -4.5691    6.2599    0.0000 C   0  0  0  0  0  0  0  0  0  0  0  0
   -4.5567    3.7883    0.0000 C   0  0  0  0  0  0  0  0  0  0  0  0
   -5.9857    6.2599    0.0000 C   0  0  0  0  0  0  0  0  0  0  0  0
   -3.8464    4.1996    0.0000 N   0  0  0  0  0  0  0  0  0  0  0  0
   -4.5691    5.4374    0.0000 C   0  0  0  0  0  0  0  0  0  0  0  0
   -4.5691    2.9741    0.0000 C   0  0  0  0  0  0  0  0  0  0  0  0
   -3.8464    5.0262    0.0000 C   0  0  0  0  0  0  0  0  0  0  0  0
   -3.8464    6.6711    0.0000 C   0  0  0  0  0  0  0  0  0  0  0  0
   -5.2795    4.1913    0.0000 O   0  0  0  0  0  0  0  0  0  0  0  0
   -5.9857    5.4374    0.0000 O   0  0  0  0  0  0  0  0  0  0  0  0
   -5.2795    2.5753    0.0000 C   0  0  0  0  0  0  0  0  0  0  0  0
   -3.1279    6.2599    0.0000 C   0  0  0  0  0  0  0  0  0  0  0  0
   -5.2712    7.5060    0.0000 C   0  0  0  0  0  0  0  0  0  0  0  0
   -5.2920    1.7405    0.0000 C   0  0  0  0  0  0  0  0  0  0  0  0
   -3.1362    5.4374    0.0000 C   0  0  0  0  0  0  0  0  0  0  0  0
   -5.9940    1.3292    0.0000 Cl  0  0  0  0  0  0  0  0  0  0  0  0
   -6.6960    6.6836    0.0000 C   0  0  0  0  0  0  0  0  0  0  0  0
   -3.8506    2.5504    0.0000 C   0  0  0  0  0  0  0  0  0  0  0  0
   -4.5567    7.9131    0.0000 C   0  0  0  0  0  0  0  0  0  0  0  0
   -3.8589    1.7280    0.0000 C   0  0  0  0  0  0  0  0  0  0  0  0
   -3.8464    7.5018    0.0000 C   0  0  0  0  0  0  0  0  0  0  0  0
   -4.5816    1.3209    0.0000 C   0  0  0  0  0  0  0  0  0  0  0  0
  2  1  1  0  0  0  0
  3  5  1  0  0  0  0
  4  1  1  0  0  0  0
  5  8  1  0  0  0  0
  6  2  1  0  0  0  0
  7  3  1  0  0  0  0
  8  6  2  0  0  0  0
  9  2  2  0  0  0  0
 10  3  2  0  0  0  0
 11  4  2  0  0  0  0
 12  7  2  0  0  0  0
 13  9  1  0  0  0  0
 14  1  1  0  0  0  0
 15 12  1  0  0  0  0
 16 13  2  0  0  0  0
 17 15  1  0  0  0  0
 18  4  1  0  0  0  0
 19  7  1  0  0  0  0
 20 14  1  0  0  0  0
 21 19  2  0  0  0  0
 22 20  1  0  0  0  0
 23 21  1  0  0  0  0
  9 22  1  0  0  0  0
  8 16  1  0  0  0  0
 23 15  2  0  0  0  0
M  END
>  <IDNUMBER>
F2670-0026

>  <Chemical_Name>
N-(1-acetyl-1,2,3,4-tetrahydroquinolin-7-yl)-3-chlorobenzamide

>  <PriceCoeff>
1.00

>  <CAS>
898423-63-7

>  <MW>
328.79

>  <Description>
solid

>  <FSP3>
0.22

>  <clogP>
3.19

>  <TPSA>
49.41

>  <Acceptor>
2

>  <Donor>
1

>  <RotBonds>
3

>  <HAC>
23

>  <Collection>
General

>  <PPDS>
+

$$$$
F2670-0038
  Mrv2219 10102508112D          

 23 25  0  0  0  0            999 V2000
   -5.2952    6.6992    0.0000 N   0  0  0  0  0  0  0  0  0  0  0  0
   -4.5828    6.2785    0.0000 C   0  0  0  0  0  0  0  0  0  0  0  0
   -4.5703    3.7996    0.0000 C   0  0  0  0  0  0  0  0  0  0  0  0
   -6.0035    6.2785    0.0000 C   0  0  0  0  0  0  0  0  0  0  0  0
   -3.8579    4.2120    0.0000 N   0  0  0  0  0  0  0  0  0  0  0  0
   -4.5828    5.4536    0.0000 C   0  0  0  0  0  0  0  0  0  0  0  0
   -4.5703    2.9622    0.0000 C   0  0  0  0  0  0  0  0  0  0  0  0
   -3.8579    5.0411    0.0000 C   0  0  0  0  0  0  0  0  0  0  0  0
   -3.8579    6.6909    0.0000 C   0  0  0  0  0  0  0  0  0  0  0  0
   -5.2827    4.2037    0.0000 O   0  0  0  0  0  0  0  0  0  0  0  0
   -6.0035    5.4536    0.0000 O   0  0  0  0  0  0  0  0  0  0  0  0
   -3.1371    6.2785    0.0000 C   0  0  0  0  0  0  0  0  0  0  0  0
   -3.8329    2.5622    0.0000 C   0  0  0  0  0  0  0  0  0  0  0  0
   -5.2702    2.5580    0.0000 C   0  0  0  0  0  0  0  0  0  0  0  0
   -5.2869    7.5283    0.0000 C   0  0  0  0  0  0  0  0  0  0  0  0
   -3.1454    5.4536    0.0000 C   0  0  0  0  0  0  0  0  0  0  0  0
   -4.5495    1.3206    0.0000 C   0  0  0  0  0  0  0  0  0  0  0  0
   -5.2577    1.7331    0.0000 C   0  0  0  0  0  0  0  0  0  0  0  0
   -3.8246    1.7581    0.0000 C   0  0  0  0  0  0  0  0  0  0  0  0
   -4.5495    0.4874    0.0000 Cl  0  0  0  0  0  0  0  0  0  0  0  0
   -6.7159    6.7034    0.0000 C   0  0  0  0  0  0  0  0  0  0  0  0
   -4.5703    7.9366    0.0000 C   0  0  0  0  0  0  0  0  0  0  0  0
   -3.8579    7.5241    0.0000 C   0  0  0  0  0  0  0  0  0  0  0  0
  2  1  1  0  0  0  0
  3  5  1  0  0  0  0
  4  1  1  0  0  0  0
  5  8  1  0  0  0  0
  6  2  1  0  0  0  0
  7  3  1  0  0  0  0
  8  6  2  0  0  0  0
  9  2  2  0  0  0  0
 10  3  2  0  0  0  0
 11  4  2  0  0  0  0
 12  9  1  0  0  0  0
 13  7  1  0  0  0  0
 14  7  2  0  0  0  0
 15  1  1  0  0  0  0
 16 12  2  0  0  0  0
 17 18  2  0  0  0  0
 18 14  1  0  0  0  0
 19 13  2  0  0  0  0
 20 17  1  0  0  0  0
 21  4  1  0  0  0  0
 22 15  1  0  0  0  0
 23 22  1  0  0  0  0
  9 23  1  0  0  0  0
  8 16  1  0  0  0  0
 19 17  1  0  0  0  0
M  END
>  <IDNUMBER>
F2670-0038

>  <Chemical_Name>
N-(1-acetyl-1,2,3,4-tetrahydroquinolin-7-yl)-4-chlorobenzamide

>  <PriceCoeff>
1.00

>  <CAS>
898465-05-9

>  <MW>
328.79

>  <Description>
solid

>  <FSP3>
0.22

>  <clogP>
3.19

>  <TPSA>
49.41

>  <Acceptor>
2

>  <Donor>
1

>  <RotBonds>
3

>  <HAC>
23

>  <Collection>
General

>  <PPDS>
+

$$$$
F2670-0047
  Mrv2219 10102508112D          

 26 28  0  0  0  0            999 V2000
   -5.9694    1.2956    0.0000 N   0  3  0  0  0  0  0  0  0  0  0  0
   -5.2696    1.7329    0.0000 C   0  0  0  0  0  0  0  0  0  0  0  0
   -5.2946    6.6984    0.0000 N   0  0  0  0  0  0  0  0  0  0  0  0
   -4.5823    6.2778    0.0000 C   0  0  0  0  0  0  0  0  0  0  0  0
   -4.5698    3.7992    0.0000 C   0  0  0  0  0  0  0  0  0  0  0  0
   -5.2696    2.5452    0.0000 C   0  0  0  0  0  0  0  0  0  0  0  0
   -6.0028    6.2778    0.0000 C   0  0  0  0  0  0  0  0  0  0  0  0
   -4.5823    2.9827    0.0000 C   0  0  0  0  0  0  0  0  0  0  0  0
   -3.8575    4.2115    0.0000 N   0  0  0  0  0  0  0  0  0  0  0  0
   -4.5823    5.4530    0.0000 C   0  0  0  0  0  0  0  0  0  0  0  0
   -4.5365    1.3329    0.0000 C   0  0  0  0  0  0  0  0  0  0  0  0
   -5.9569    0.4706    0.0000 O   0  5  0  0  0  0  0  0  0  0  0  0
   -6.6859    1.7121    0.0000 O   0  0  0  0  0  0  0  0  0  0  0  0
   -3.8575    5.0405    0.0000 C   0  0  0  0  0  0  0  0  0  0  0  0
   -3.8575    6.6901    0.0000 C   0  0  0  0  0  0  0  0  0  0  0  0
   -5.3071    4.2032    0.0000 O   0  0  0  0  0  0  0  0  0  0  0  0
   -6.0028    5.4530    0.0000 O   0  0  0  0  0  0  0  0  0  0  0  0
   -3.8450    2.5827    0.0000 C   0  0  0  0  0  0  0  0  0  0  0  0
   -3.8242    1.7704    0.0000 C   0  0  0  0  0  0  0  0  0  0  0  0
   -3.1367    6.2778    0.0000 C   0  0  0  0  0  0  0  0  0  0  0  0
   -5.2863    7.5274    0.0000 C   0  0  0  0  0  0  0  0  0  0  0  0
   -3.1450    5.4530    0.0000 C   0  0  0  0  0  0  0  0  0  0  0  0
   -4.5323    0.4956    0.0000 Cl  0  0  0  0  0  0  0  0  0  0  0  0
   -6.7151    6.7026    0.0000 C   0  0  0  0  0  0  0  0  0  0  0  0
   -4.5698    7.9357    0.0000 C   0  0  0  0  0  0  0  0  0  0  0  0
   -3.8575    7.5232    0.0000 C   0  0  0  0  0  0  0  0  0  0  0  0
  2  1  1  0  0  0  0
  3  4  1  0  0  0  0
  4 10  1  0  0  0  0
  5  8  1  0  0  0  0
  6  2  1  0  0  0  0
  7  3  1  0  0  0  0
  8  6  2  0  0  0  0
  9  5  1  0  0  0  0
 10 14  2  0  0  0  0
 11  2  2  0  0  0  0
 12  1  1  0  0  0  0
 13  1  2  0  0  0  0
 14  9  1  0  0  0  0
 15 20  1  0  0  0  0
 16  5  2  0  0  0  0
 17  7  2  0  0  0  0
 18 19  2  0  0  0  0
 19 11  1  0  0  0  0
 20 22  2  0  0  0  0
 21  3  1  0  0  0  0
 22 14  1  0  0  0  0
 23 11  1  0  0  0  0
 24  7  1  0  0  0  0
 25 26  1  0  0  0  0
 26 15  1  0  0  0  0
 18  8  1  0  0  0  0
  4 15  2  0  0  0  0
 25 21  1  0  0  0  0
M  CHG  2   1   1  12  -1
M  END
>  <IDNUMBER>
F2670-0047

>  <Chemical_Name>
N-(1-acetyl-1,2,3,4-tetrahydroquinolin-7-yl)-4-chloro-3-nitrobenzamide

>  <PriceCoeff>
1.00

>  <CAS>
898423-68-2

>  <MW>
373.79

>  <Description>
solid

>  <FSP3>
0.22

>  <clogP>
3.09

>  <TPSA>
92.55

>  <Acceptor>
4

>  <Donor>
1

>  <RotBonds>
4

>  <HAC>
26

>  <Collection>
General

>  <PPDS>
+

$$$$
F2670-0050
  Mrv2219 10102508112D          

 23 25  0  0  0  0            999 V2000
   -5.2690    6.6661    0.0000 N   0  0  0  0  0  0  0  0  0  0  0  0
   -4.5601    6.2474    0.0000 C   0  0  0  0  0  0  0  0  0  0  0  0
   -4.5476    3.7808    0.0000 C   0  0  0  0  0  0  0  0  0  0  0  0
   -5.9738    6.2474    0.0000 C   0  0  0  0  0  0  0  0  0  0  0  0
   -3.8388    4.1912    0.0000 N   0  0  0  0  0  0  0  0  0  0  0  0
   -4.5601    5.4266    0.0000 C   0  0  0  0  0  0  0  0  0  0  0  0
   -4.5601    2.9558    0.0000 C   0  0  0  0  0  0  0  0  0  0  0  0
   -3.8388    5.0162    0.0000 C   0  0  0  0  0  0  0  0  0  0  0  0
   -3.8388    6.6578    0.0000 C   0  0  0  0  0  0  0  0  0  0  0  0
   -5.2732    4.1829    0.0000 O   0  0  0  0  0  0  0  0  0  0  0  0
   -5.9738    5.4266    0.0000 O   0  0  0  0  0  0  0  0  0  0  0  0
   -5.2565    2.5495    0.0000 C   0  0  0  0  0  0  0  0  0  0  0  0
   -3.1216    6.2474    0.0000 C   0  0  0  0  0  0  0  0  0  0  0  0
   -5.2607    7.4911    0.0000 C   0  0  0  0  0  0  0  0  0  0  0  0
   -3.1299    5.4266    0.0000 C   0  0  0  0  0  0  0  0  0  0  0  0
   -5.2565    1.7163    0.0000 C   0  0  0  0  0  0  0  0  0  0  0  0
   -6.6827    6.6702    0.0000 C   0  0  0  0  0  0  0  0  0  0  0  0
   -3.8388    2.5495    0.0000 C   0  0  0  0  0  0  0  0  0  0  0  0
   -4.5476    7.8973    0.0000 C   0  0  0  0  0  0  0  0  0  0  0  0
   -3.8388    1.7245    0.0000 C   0  0  0  0  0  0  0  0  0  0  0  0
   -3.8388    7.4869    0.0000 C   0  0  0  0  0  0  0  0  0  0  0  0
   -4.5476    1.3141    0.0000 C   0  0  0  0  0  0  0  0  0  0  0  0
   -5.9696    1.2934    0.0000 C   0  0  0  0  0  0  0  0  0  0  0  0
  2  1  1  0  0  0  0
  3  5  1  0  0  0  0
  4  1  1  0  0  0  0
  5  8  1  0  0  0  0
  6  2  1  0  0  0  0
  7  3  1  0  0  0  0
  8  6  2  0  0  0  0
  9  2  2  0  0  0  0
 10  3  2  0  0  0  0
 11  4  2  0  0  0  0
 12  7  2  0  0  0  0
 13  9  1  0  0  0  0
 14  1  1  0  0  0  0
 15 13  2  0  0  0  0
 16 12  1  0  0  0  0
 17  4  1  0  0  0  0
 18  7  1  0  0  0  0
 19 14  1  0  0  0  0
 20 18  2  0  0  0  0
 21 19  1  0  0  0  0
 22 20  1  0  0  0  0
 23 16  1  0  0  0  0
  9 21  1  0  0  0  0
  8 15  1  0  0  0  0
 22 16  2  0  0  0  0
M  END
>  <IDNUMBER>
F2670-0050

>  <Chemical_Name>
N-(1-acetyl-1,2,3,4-tetrahydroquinolin-7-yl)-3-methylbenzamide

>  <PriceCoeff>
1.00

>  <CAS>
898465-11-7

>  <MW>
308.37

>  <Description>
solid

>  <FSP3>
0.26

>  <clogP>
2.78

>  <TPSA>
49.41

>  <Acceptor>
2

>  <Donor>
1

>  <RotBonds>
3

>  <HAC>
23

>  <Collection>
General

>  <PPDS>
+

$$$$
F2671-0110
  Mrv2219 10102508112D          

 31 34  0  0  0  0            999 V2000
   -5.9985    6.2645    0.0000 S   0  0  0  0  0  0  0  0  0  0  0  0
   -5.2834    6.6844    0.0000 N   0  0  0  0  0  0  0  0  0  0  0  0
   -5.9569    1.2928    0.0000 N   0  3  0  0  0  0  0  0  0  0  0  0
   -5.2585    1.7293    0.0000 C   0  0  0  0  0  0  0  0  0  0  0  0
   -6.7135    5.8613    0.0000 C   0  0  0  0  0  0  0  0  0  0  0  0
   -4.5726    6.2645    0.0000 C   0  0  0  0  0  0  0  0  0  0  0  0
   -4.5601    3.7911    0.0000 C   0  0  0  0  0  0  0  0  0  0  0  0
   -5.2585    2.5399    0.0000 C   0  0  0  0  0  0  0  0  0  0  0  0
   -4.5726    2.9763    0.0000 C   0  0  0  0  0  0  0  0  0  0  0  0
   -3.8493    4.2027    0.0000 N   0  0  0  0  0  0  0  0  0  0  0  0
   -6.8091    5.0424    0.0000 S   0  0  0  0  0  0  0  0  0  0  0  0
   -4.5726    5.4415    0.0000 C   0  0  0  0  0  0  0  0  0  0  0  0
   -5.5952    5.5537    0.0000 O   0  0  0  0  0  0  0  0  0  0  0  0
   -6.4017    6.9878    0.0000 O   0  0  0  0  0  0  0  0  0  0  0  0
   -4.5269    1.3302    0.0000 C   0  0  0  0  0  0  0  0  0  0  0  0
   -5.9444    0.4697    0.0000 O   0  5  0  0  0  0  0  0  0  0  0  0
   -6.6719    1.7085    0.0000 O   0  0  0  0  0  0  0  0  0  0  0  0
   -3.8493    6.6761    0.0000 C   0  0  0  0  0  0  0  0  0  0  0  0
   -3.8493    5.0299    0.0000 C   0  0  0  0  0  0  0  0  0  0  0  0
   -7.4617    6.2022    0.0000 C   0  0  0  0  0  0  0  0  0  0  0  0
   -5.2959    4.1944    0.0000 O   0  0  0  0  0  0  0  0  0  0  0  0
   -7.6114    4.8761    0.0000 C   0  0  0  0  0  0  0  0  0  0  0  0
   -3.8368    2.5773    0.0000 C   0  0  0  0  0  0  0  0  0  0  0  0
   -8.0229    5.5911    0.0000 C   0  0  0  0  0  0  0  0  0  0  0  0
   -3.8161    1.7667    0.0000 C   0  0  0  0  0  0  0  0  0  0  0  0
   -3.1302    6.2645    0.0000 C   0  0  0  0  0  0  0  0  0  0  0  0
   -5.2752    7.5116    0.0000 C   0  0  0  0  0  0  0  0  0  0  0  0
   -3.1385    5.4415    0.0000 C   0  0  0  0  0  0  0  0  0  0  0  0
   -4.5227    0.4946    0.0000 Cl  0  0  0  0  0  0  0  0  0  0  0  0
   -4.5601    7.9232    0.0000 C   0  0  0  0  0  0  0  0  0  0  0  0
   -3.8493    7.5074    0.0000 C   0  0  0  0  0  0  0  0  0  0  0  0
  2  1  1  0  0  0  0
  3  4  1  0  0  0  0
  4  8  1  0  0  0  0
  5  1  1  0  0  0  0
  6  2  1  0  0  0  0
  7 10  1  0  0  0  0
  8  9  2  0  0  0  0
  9  7  1  0  0  0  0
 10 19  1  0  0  0  0
 11  5  1  0  0  0  0
 12  6  1  0  0  0  0
 13  1  2  0  0  0  0
 14  1  2  0  0  0  0
 15 25  1  0  0  0  0
 16  3  1  0  0  0  0
 17  3  2  0  0  0  0
 18  6  2  0  0  0  0
 19 12  2  0  0  0  0
 20  5  2  0  0  0  0
 21  7  2  0  0  0  0
 22 11  1  0  0  0  0
 23  9  1  0  0  0  0
 24 20  1  0  0  0  0
 25 23  2  0  0  0  0
 26 18  1  0  0  0  0
 27  2  1  0  0  0  0
 28 26  2  0  0  0  0
 29 15  1  0  0  0  0
 30 27  1  0  0  0  0
 31 30  1  0  0  0  0
 24 22  2  0  0  0  0
 18 31  1  0  0  0  0
 19 28  1  0  0  0  0
 15  4  2  0  0  0  0
M  CHG  2   3   1  16  -1
M  END
>  <IDNUMBER>
F2671-0110

>  <Chemical_Name>
4-chloro-3-nitro-N-[1-(thiophene-2-sulfonyl)-1,2,3,4-tetrahydroquinolin-7-yl]benzamide

>  <PriceCoeff>
1.00

>  <CAS>
898429-84-0

>  <MW>
477.94

>  <Description>
solid

>  <FSP3>
0.15

>  <clogP>
4.50

>  <TPSA>
146.24

>  <Acceptor>
6

>  <Donor>
1

>  <RotBonds>
5

>  <HAC>
31

>  <Collection>
General

>  <PPDS>
+

$$$$
F2671-0114
  Mrv2219 10102508112D          

 31 34  0  0  0  0            999 V2000
   -5.9978    6.2638    0.0000 S   0  0  0  0  0  0  0  0  0  0  0  0
   -5.2828    6.6836    0.0000 N   0  0  0  0  0  0  0  0  0  0  0  0
   -6.7127    5.8606    0.0000 C   0  0  0  0  0  0  0  0  0  0  0  0
   -4.5721    0.4945    0.0000 N   0  3  0  0  0  0  0  0  0  0  0  0
   -4.5721    2.9760    0.0000 C   0  0  0  0  0  0  0  0  0  0  0  0
   -4.5721    6.2638    0.0000 C   0  0  0  0  0  0  0  0  0  0  0  0
   -4.5596    3.7907    0.0000 C   0  0  0  0  0  0  0  0  0  0  0  0
   -3.8406    2.5562    0.0000 C   0  0  0  0  0  0  0  0  0  0  0  0
   -4.5721    1.3175    0.0000 C   0  0  0  0  0  0  0  0  0  0  0  0
   -3.8406    1.7291    0.0000 C   0  0  0  0  0  0  0  0  0  0  0  0
   -3.8489    4.2022    0.0000 N   0  0  0  0  0  0  0  0  0  0  0  0
   -6.8083    5.0418    0.0000 S   0  0  0  0  0  0  0  0  0  0  0  0
   -4.5721    5.4409    0.0000 C   0  0  0  0  0  0  0  0  0  0  0  0
   -6.4010    6.9870    0.0000 O   0  0  0  0  0  0  0  0  0  0  0  0
   -5.5946    5.5531    0.0000 O   0  0  0  0  0  0  0  0  0  0  0  0
   -5.2828    2.5645    0.0000 C   0  0  0  0  0  0  0  0  0  0  0  0
   -5.2828    0.0873    0.0000 O   0  5  0  0  0  0  0  0  0  0  0  0
   -3.8489    5.0293    0.0000 C   0  0  0  0  0  0  0  0  0  0  0  0
   -3.8489    6.6753    0.0000 C   0  0  0  0  0  0  0  0  0  0  0  0
   -3.8531    0.0831    0.0000 O   0  0  0  0  0  0  0  0  0  0  0  0
   -7.4608    6.2015    0.0000 C   0  0  0  0  0  0  0  0  0  0  0  0
   -5.2828    4.1939    0.0000 O   0  0  0  0  0  0  0  0  0  0  0  0
   -5.2828    1.7332    0.0000 C   0  0  0  0  0  0  0  0  0  0  0  0
   -7.6105    4.8755    0.0000 C   0  0  0  0  0  0  0  0  0  0  0  0
   -8.0220    5.5905    0.0000 C   0  0  0  0  0  0  0  0  0  0  0  0
   -3.1298    6.2638    0.0000 C   0  0  0  0  0  0  0  0  0  0  0  0
   -5.2746    7.5107    0.0000 C   0  0  0  0  0  0  0  0  0  0  0  0
   -3.1256    2.9636    0.0000 Cl  0  0  0  0  0  0  0  0  0  0  0  0
   -3.1381    5.4409    0.0000 C   0  0  0  0  0  0  0  0  0  0  0  0
   -4.5596    7.9223    0.0000 C   0  0  0  0  0  0  0  0  0  0  0  0
   -3.8489    7.5065    0.0000 C   0  0  0  0  0  0  0  0  0  0  0  0
  2  1  1  0  0  0  0
  3  1  1  0  0  0  0
  4  9  1  0  0  0  0
  5  7  1  0  0  0  0
  6  2  1  0  0  0  0
  7 11  1  0  0  0  0
  8  5  1  0  0  0  0
  9 23  2  0  0  0  0
 10  8  2  0  0  0  0
 11 18  1  0  0  0  0
 12  3  1  0  0  0  0
 13  6  1  0  0  0  0
 14  1  2  0  0  0  0
 15  1  2  0  0  0  0
 16  5  2  0  0  0  0
 17  4  1  0  0  0  0
 18 13  2  0  0  0  0
 19  6  2  0  0  0  0
 20  4  2  0  0  0  0
 21  3  2  0  0  0  0
 22  7  2  0  0  0  0
 23 16  1  0  0  0  0
 24 12  1  0  0  0  0
 25 21  1  0  0  0  0
 26 19  1  0  0  0  0
 27  2  1  0  0  0  0
 28  8  1  0  0  0  0
 29 26  2  0  0  0  0
 30 27  1  0  0  0  0
 31 30  1  0  0  0  0
 25 24  2  0  0  0  0
 19 31  1  0  0  0  0
 18 29  1  0  0  0  0
 10  9  1  0  0  0  0
M  CHG  2   4   1  17  -1
M  END
>  <IDNUMBER>
F2671-0114

>  <Chemical_Name>
2-chloro-4-nitro-N-[1-(thiophene-2-sulfonyl)-1,2,3,4-tetrahydroquinolin-7-yl]benzamide

>  <PriceCoeff>
1.00

>  <CAS>
898429-85-1

>  <MW>
477.94

>  <Description>
solid

>  <FSP3>
0.15

>  <clogP>
3.82

>  <TPSA>
146.24

>  <Acceptor>
6

>  <Donor>
1

>  <RotBonds>
5

>  <HAC>
31

>  <Collection>
General

>  <PPDS>
+

$$$$
F2688-0046
  Mrv2219 10102508112D          

 25 27  0  0  0  0            999 V2000
   -1.6948    1.9270    0.0000 C   0  0  0  0  0  0  0  0  0  0  0  0
   -1.6948    2.7336    0.0000 C   0  0  0  0  0  0  0  0  0  0  0  0
   -2.3914    1.5237    0.0000 O   0  0  0  0  0  0  0  0  0  0  0  0
    2.5096    3.8947    0.0000 N   0  3  0  0  0  0  0  0  0  0  0  0
    1.6989    4.0985    0.0000 C   0  0  0  0  0  0  0  0  0  0  0  0
   -1.1244    3.3081    0.0000 N   0  0  0  0  0  0  0  0  0  0  0  0
   -3.0922    2.7336    0.0000 C   0  0  0  0  0  0  0  0  0  0  0  0
   -0.3137    3.1003    0.0000 C   0  0  0  0  0  0  0  0  0  0  0  0
   -3.0881    1.9270    0.0000 C   0  0  0  0  0  0  0  0  0  0  0  0
   -1.1244    1.3567    0.0000 C   0  0  0  0  0  0  0  0  0  0  0  0
    1.0919    3.5036    0.0000 C   0  0  0  0  0  0  0  0  0  0  0  0
    0.2852    3.7114    0.0000 C   0  0  0  0  0  0  0  0  0  0  0  0
    1.4585    4.9174    0.0000 C   0  0  0  0  0  0  0  0  0  0  0  0
    2.7500    3.0881    0.0000 O   0  5  0  0  0  0  0  0  0  0  0  0
    3.1044    4.4896    0.0000 O   0  0  0  0  0  0  0  0  0  0  0  0
   -0.0856    2.2855    0.0000 O   0  0  0  0  0  0  0  0  0  0  0  0
   -1.6989    0.7903    0.0000 O   0  0  0  0  0  0  0  0  0  0  0  0
    0.0489    4.5018    0.0000 C   0  0  0  0  0  0  0  0  0  0  0  0
    0.6355    5.1252    0.0000 C   0  0  0  0  0  0  0  0  0  0  0  0
   -0.5581    0.7903    0.0000 N   0  0  0  0  0  0  0  0  0  0  0  0
    2.0411    5.5163    0.0000 Cl  0  0  0  0  0  0  0  0  0  0  0  0
   -3.7888    3.1370    0.0000 C   0  0  0  0  0  0  0  0  0  0  0  0
   -3.7888    1.5237    0.0000 C   0  0  0  0  0  0  0  0  0  0  0  0
   -4.4814    2.7336    0.0000 C   0  0  0  0  0  0  0  0  0  0  0  0
   -4.4814    1.9270    0.0000 C   0  0  0  0  0  0  0  0  0  0  0  0
  2  1  2  0  0  0  0
  3  1  1  0  0  0  0
  4  5  1  0  0  0  0
  5 11  2  0  0  0  0
  6  2  1  0  0  0  0
  7  2  1  0  0  0  0
  8  6  1  0  0  0  0
  9  3  1  0  0  0  0
 10  1  1  0  0  0  0
 11 12  1  0  0  0  0
 12  8  1  0  0  0  0
 13 19  2  0  0  0  0
 14  4  1  0  0  0  0
 15  4  2  0  0  0  0
 16  8  2  0  0  0  0
 17 10  2  0  0  0  0
 18 12  2  0  0  0  0
 19 18  1  0  0  0  0
 20 10  1  0  0  0  0
 21 13  1  0  0  0  0
 22  7  1  0  0  0  0
 23  9  1  0  0  0  0
 24 22  2  0  0  0  0
 25 23  2  0  0  0  0
  9  7  2  0  0  0  0
 25 24  1  0  0  0  0
  5 13  1  0  0  0  0
M  CHG  2   4   1  14  -1
M  END
>  <IDNUMBER>
F2688-0046

>  <Chemical_Name>
3-(4-chloro-3-nitrobenzamido)-1-benzofuran-2-carboxamide

>  <PriceCoeff>
1.00

>  <CAS>
898373-42-7

>  <MW>
359.72

>  <Description>
solid

>  <FSP3>
0.00

>  <clogP>
2.89

>  <TPSA>
128.47

>  <Acceptor>
5

>  <Donor>
2

>  <RotBonds>
4

>  <HAC>
25

>  <Collection>
General

>  <PPDS>
+

$$$$
F2693-0113
  Mrv2219 10102508112D          

 16 18  0  0  0  0            999 V2000
    7.4281   -5.5981    0.0000 C   0  0  0  0  0  0  0  0  0  0  0  0
    7.9992   -5.0227    0.0000 N   0  0  0  0  0  0  0  0  0  0  0  0
    7.9948   -4.1965    0.0000 C   0  0  0  0  0  0  0  0  0  0  0  0
    6.5802   -3.6340    0.0000 C   0  0  0  0  0  0  0  0  0  0  0  0
    7.4108   -3.6254    0.0000 N   0  0  0  0  0  0  0  0  0  0  0  0
    6.0005   -4.2181    0.0000 C   0  0  0  0  0  0  0  0  0  0  0  0
    6.5975   -5.6111    0.0000 O   0  0  0  0  0  0  0  0  0  0  0  0
    7.3243   -4.4301    0.0000 C   0  0  0  0  0  0  0  0  0  0  0  0
    6.0135   -5.0401    0.0000 C   0  0  0  0  0  0  0  0  0  0  0  0
    5.2953   -3.8071    0.0000 C   0  0  0  0  0  0  0  0  0  0  0  0
    8.7520   -3.8720    0.0000 O   0  0  0  0  0  0  0  0  0  0  0  0
    5.2953   -5.4554    0.0000 C   0  0  0  0  0  0  0  0  0  0  0  0
    4.5858   -4.2181    0.0000 C   0  0  0  0  0  0  0  0  0  0  0  0
    7.5925   -6.4158    0.0000 C   0  0  0  0  0  0  0  0  0  0  0  0
    4.5858   -5.0487    0.0000 C   0  0  0  0  0  0  0  0  0  0  0  0
    3.8417   -3.7811    0.0000 Cl  0  0  0  0  0  0  0  0  0  0  0  0
  2  1  1  0  0  0  0
  3  2  1  0  0  0  0
  4  8  1  0  0  0  0
  5  4  1  0  0  0  0
  6  4  1  0  0  0  0
  7  1  1  0  0  0  0
  8  1  1  0  0  0  0
  9  7  1  0  0  0  0
 10  6  2  0  0  0  0
 11  3  2  0  0  0  0
 12  9  2  0  0  0  0
 13 10  1  0  0  0  0
 14  1  1  0  0  0  0
 15 12  1  0  0  0  0
 16 13  1  0  0  0  0
  9  6  1  0  0  0  0
  5  3  1  0  0  0  0
 13 15  2  0  0  0  0
M  END
>  <IDNUMBER>
F2693-0113

>  <Chemical_Name>
4-chloro-9-methyl-8-oxa-10,12-diazatricyclo[7.3.1.0?,?]trideca-2,4,6-trien-11-one

>  <PriceCoeff>
1.00

>  <CAS>
899742-77-9

>  <MW>
238.67

>  <Description>
solid

>  <FSP3>
0.36

>  <clogP>
2.08

>  <TPSA>
50.36

>  <Acceptor>
2

>  <Donor>
2

>  <RotBonds>
0

>  <HAC>
16

>  <Collection>
General

>  <PPDS>
+

$$$$
F2701-0046
  Mrv2219 10102508112D          

 33 36  0  0  0  0            999 V2000
   -0.4524    1.3572    0.0000 C   0  0  0  0  0  0  0  0  0  0  0  0
   -0.6860    2.0469    0.0000 C   0  0  0  0  0  0  0  0  0  0  0  0
   -1.6427    1.3534    0.0000 C   0  0  0  0  0  0  0  0  0  0  0  0
   -1.4202    2.0469    0.0000 C   0  0  0  0  0  0  0  0  0  0  0  0
   -1.0457    0.9196    0.0000 S   0  0  0  0  0  0  0  0  0  0  0  0
    4.1753   -2.1507    0.0000 N   0  0  0  0  0  0  0  0  0  0  0  0
    1.3905    0.4895    0.0000 N   0  0  0  0  0  0  0  0  0  0  0  0
   -2.8552    1.7428    0.0000 N   0  0  0  0  0  0  0  0  0  0  0  0
   -3.5783    1.5908    0.0000 C   0  0  0  0  0  0  0  0  0  0  0  0
    1.3609   -0.3708    0.0000 C   0  0  0  0  0  0  0  0  0  0  0  0
    4.9429   -1.8059    0.0000 C   0  0  0  0  0  0  0  0  0  0  0  0
    4.2717   -2.9702    0.0000 C   0  0  0  0  0  0  0  0  0  0  0  0
   -0.2521    2.6550    0.0000 C   0  0  0  0  0  0  0  0  0  0  0  0
   -2.3583    1.1977    0.0000 C   0  0  0  0  0  0  0  0  0  0  0  0
   -1.9096    2.5882    0.0000 C   0  0  0  0  0  0  0  0  0  0  0  0
    3.4745   -1.7020    0.0000 C   0  0  0  0  0  0  0  0  0  0  0  0
    2.0617   -0.8121    0.0000 C   0  0  0  0  0  0  0  0  0  0  0  0
   -2.6216    2.4325    0.0000 C   0  0  0  0  0  0  0  0  0  0  0  0
   -3.8156    0.9011    0.0000 O   0  0  0  0  0  0  0  0  0  0  0  0
    0.6044   -0.7713    0.0000 O   0  0  0  0  0  0  0  0  0  0  0  0
    5.4991   -2.4288    0.0000 C   0  0  0  0  0  0  0  0  0  0  0  0
    5.0838   -3.1408    0.0000 C   0  0  0  0  0  0  0  0  0  0  0  0
    5.1209   -0.9789    0.0000 O   0  0  0  0  0  0  0  0  0  0  0  0
    3.6488   -3.5301    0.0000 O   0  0  0  0  0  0  0  0  0  0  0  0
   -0.9752    3.3818    0.0000 O   0  0  0  0  0  0  0  0  0  0  0  0
    3.5079   -0.8603    0.0000 C   0  0  0  0  0  0  0  0  0  0  0  0
    2.7366   -2.0802    0.0000 C   0  0  0  0  0  0  0  0  0  0  0  0
    2.0395   -1.6390    0.0000 C   0  0  0  0  0  0  0  0  0  0  0  0
    2.8071   -0.4153    0.0000 C   0  0  0  0  0  0  0  0  0  0  0  0
   -4.0604    2.1432    0.0000 O   0  0  0  0  0  0  0  0  0  0  0  0
    0.5785    2.7106    0.0000 O   0  0  0  0  0  0  0  0  0  0  0  0
   -3.8230    2.8330    0.0000 C   0  0  0  0  0  0  0  0  0  0  0  0
    0.9382    3.4559    0.0000 C   0  0  0  0  0  0  0  0  0  0  0  0
  2  1  2  0  0  0  0
  3  5  1  0  0  0  0
  4  2  1  0  0  0  0
  5  1  1  0  0  0  0
  6 16  1  0  0  0  0
  7  1  1  0  0  0  0
  8 14  1  0  0  0  0
  9  8  1  0  0  0  0
 10  7  1  0  0  0  0
 11  6  1  0  0  0  0
 12  6  1  0  0  0  0
 13  2  1  0  0  0  0
 14  3  1  0  0  0  0
 15  4  1  0  0  0  0
 16 26  1  0  0  0  0
 17 10  1  0  0  0  0
 18 15  1  0  0  0  0
 19  9  2  0  0  0  0
 20 10  2  0  0  0  0
 21 11  1  0  0  0  0
 22 12  1  0  0  0  0
 23 11  2  0  0  0  0
 24 12  2  0  0  0  0
 25 13  2  0  0  0  0
 26 29  2  0  0  0  0
 27 28  1  0  0  0  0
 28 17  2  0  0  0  0
 29 17  1  0  0  0  0
 30  9  1  0  0  0  0
 31 13  1  0  0  0  0
 32 30  1  0  0  0  0
 33 31  1  0  0  0  0
  4  3  2  0  0  0  0
  8 18  1  0  0  0  0
 16 27  2  0  0  0  0
 22 21  1  0  0  0  0
M  END
>  <IDNUMBER>
F2701-0046

>  <Chemical_Name>
3,6-dimethyl 2-[4-(2,5-dioxopyrrolidin-1-yl)benzamido]-4H,5H,6H,7H-thieno[2,3-c]pyridine-3,6-dicarboxylate

>  <PriceCoeff>
1.00

>  <CAS>
886939-16-8

>  <MW>
471.48

>  <Description>
solid

>  <FSP3>
0.32

>  <clogP>
1.31

>  <TPSA>
150.56

>  <Acceptor>
7

>  <Donor>
1

>  <RotBonds>
7

>  <HAC>
33

>  <Collection>
General

>  <PPDS>
+

$$$$
F2701-0060
  Mrv2219 10102508112D          

 33 36  0  0  0  0            999 V2000
   -0.4509    1.3529    0.0000 C   0  0  0  0  0  0  0  0  0  0  0  0
   -0.6838    2.0404    0.0000 C   0  0  0  0  0  0  0  0  0  0  0  0
   -1.6375    1.3491    0.0000 C   0  0  0  0  0  0  0  0  0  0  0  0
    2.6984   -2.9091    0.0000 N   0  0  0  0  0  0  0  0  0  0  0  0
   -1.4157    2.0404    0.0000 C   0  0  0  0  0  0  0  0  0  0  0  0
   -1.0424    0.9167    0.0000 S   0  0  0  0  0  0  0  0  0  0  0  0
    1.3861    0.4879    0.0000 N   0  0  0  0  0  0  0  0  0  0  0  0
   -2.8462    1.7373    0.0000 N   0  0  0  0  0  0  0  0  0  0  0  0
    2.7316   -2.0774    0.0000 C   0  0  0  0  0  0  0  0  0  0  0  0
    1.3566   -0.3697    0.0000 C   0  0  0  0  0  0  0  0  0  0  0  0
   -3.5670    1.5857    0.0000 C   0  0  0  0  0  0  0  0  0  0  0  0
    3.3305   -3.4487    0.0000 C   0  0  0  0  0  0  0  0  0  0  0  0
    1.9887   -3.3378    0.0000 C   0  0  0  0  0  0  0  0  0  0  0  0
   -0.2513    2.6466    0.0000 C   0  0  0  0  0  0  0  0  0  0  0  0
   -2.3509    1.1939    0.0000 C   0  0  0  0  0  0  0  0  0  0  0  0
   -1.9036    2.5800    0.0000 C   0  0  0  0  0  0  0  0  0  0  0  0
    2.0330   -1.6338    0.0000 C   0  0  0  0  0  0  0  0  0  0  0  0
    2.0552   -0.8095    0.0000 C   0  0  0  0  0  0  0  0  0  0  0  0
   -2.6133    2.4248    0.0000 C   0  0  0  0  0  0  0  0  0  0  0  0
   -3.8036    0.8982    0.0000 O   0  0  0  0  0  0  0  0  0  0  0  0
    0.6025   -0.7689    0.0000 O   0  0  0  0  0  0  0  0  0  0  0  0
    3.0200   -4.2139    0.0000 C   0  0  0  0  0  0  0  0  0  0  0  0
    2.1956   -4.1621    0.0000 C   0  0  0  0  0  0  0  0  0  0  0  0
    4.1400   -3.2639    0.0000 O   0  0  0  0  0  0  0  0  0  0  0  0
    1.2235   -3.0200    0.0000 O   0  0  0  0  0  0  0  0  0  0  0  0
   -0.9721    3.3711    0.0000 O   0  0  0  0  0  0  0  0  0  0  0  0
   -4.0475    2.1365    0.0000 O   0  0  0  0  0  0  0  0  0  0  0  0
    0.5766    2.7020    0.0000 O   0  0  0  0  0  0  0  0  0  0  0  0
    3.4635   -1.6966    0.0000 C   0  0  0  0  0  0  0  0  0  0  0  0
    2.7982   -0.4140    0.0000 C   0  0  0  0  0  0  0  0  0  0  0  0
    3.4968   -0.8576    0.0000 C   0  0  0  0  0  0  0  0  0  0  0  0
   -3.8109    2.8240    0.0000 C   0  0  0  0  0  0  0  0  0  0  0  0
    0.9352    3.4450    0.0000 C   0  0  0  0  0  0  0  0  0  0  0  0
  2  1  2  0  0  0  0
  3  6  1  0  0  0  0
  4  9  1  0  0  0  0
  5  2  1  0  0  0  0
  6  1  1  0  0  0  0
  7  1  1  0  0  0  0
  8 15  1  0  0  0  0
  9 17  1  0  0  0  0
 10  7  1  0  0  0  0
 11  8  1  0  0  0  0
 12  4  1  0  0  0  0
 13  4  1  0  0  0  0
 14  2  1  0  0  0  0
 15  3  1  0  0  0  0
 16  5  1  0  0  0  0
 17 18  2  0  0  0  0
 18 10  1  0  0  0  0
 19 16  1  0  0  0  0
 20 11  2  0  0  0  0
 21 10  2  0  0  0  0
 22 12  1  0  0  0  0
 23 13  1  0  0  0  0
 24 12  2  0  0  0  0
 25 13  2  0  0  0  0
 26 14  2  0  0  0  0
 27 11  1  0  0  0  0
 28 14  1  0  0  0  0
 29 31  1  0  0  0  0
 30 18  1  0  0  0  0
 31 30  2  0  0  0  0
 32 27  1  0  0  0  0
 33 28  1  0  0  0  0
  5  3  2  0  0  0  0
  8 19  1  0  0  0  0
  9 29  2  0  0  0  0
 23 22  1  0  0  0  0
M  END
>  <IDNUMBER>
F2701-0060

>  <Chemical_Name>
3,6-dimethyl 2-[3-(2,5-dioxopyrrolidin-1-yl)benzamido]-4H,5H,6H,7H-thieno[2,3-c]pyridine-3,6-dicarboxylate

>  <PriceCoeff>
1.00

>  <CAS>
886939-77-1

>  <MW>
471.48

>  <Description>
solid

>  <FSP3>
0.32

>  <clogP>
1.31

>  <TPSA>
150.56

>  <Acceptor>
7

>  <Donor>
1

>  <RotBonds>
7

>  <HAC>
33

>  <Collection>
General

>  <PPDS>
+

$$$$
F2701-0561
  Mrv2219 10102508112D          

 33 36  0  0  0  0            999 V2000
   -0.4509    1.3529    0.0000 C   0  0  0  0  0  0  0  0  0  0  0  0
   -0.6838    2.0404    0.0000 C   0  0  0  0  0  0  0  0  0  0  0  0
   -1.6375    1.3491    0.0000 C   0  0  0  0  0  0  0  0  0  0  0  0
    2.6984   -2.9091    0.0000 N   0  0  0  0  0  0  0  0  0  0  0  0
   -1.4157    2.0404    0.0000 C   0  0  0  0  0  0  0  0  0  0  0  0
   -1.0424    0.9167    0.0000 S   0  0  0  0  0  0  0  0  0  0  0  0
    1.3861    0.4879    0.0000 N   0  0  0  0  0  0  0  0  0  0  0  0
   -2.8462    1.7373    0.0000 N   0  0  0  0  0  0  0  0  0  0  0  0
    2.7316   -2.0774    0.0000 C   0  0  0  0  0  0  0  0  0  0  0  0
    1.3566   -0.3697    0.0000 C   0  0  0  0  0  0  0  0  0  0  0  0
   -3.5670    1.5857    0.0000 C   0  0  0  0  0  0  0  0  0  0  0  0
    3.3305   -3.4487    0.0000 C   0  0  0  0  0  0  0  0  0  0  0  0
    1.9887   -3.3378    0.0000 C   0  0  0  0  0  0  0  0  0  0  0  0
   -0.2513    2.6466    0.0000 C   0  0  0  0  0  0  0  0  0  0  0  0
   -2.3509    1.1939    0.0000 C   0  0  0  0  0  0  0  0  0  0  0  0
   -1.9036    2.5800    0.0000 C   0  0  0  0  0  0  0  0  0  0  0  0
    2.0330   -1.6338    0.0000 C   0  0  0  0  0  0  0  0  0  0  0  0
    2.0552   -0.8095    0.0000 C   0  0  0  0  0  0  0  0  0  0  0  0
   -2.6133    2.4248    0.0000 C   0  0  0  0  0  0  0  0  0  0  0  0
   -3.8036    0.8982    0.0000 O   0  0  0  0  0  0  0  0  0  0  0  0
    0.6025   -0.7689    0.0000 O   0  0  0  0  0  0  0  0  0  0  0  0
    3.0200   -4.2139    0.0000 C   0  0  0  0  0  0  0  0  0  0  0  0
    2.1956   -4.1621    0.0000 C   0  0  0  0  0  0  0  0  0  0  0  0
    4.1400   -3.2639    0.0000 O   0  0  0  0  0  0  0  0  0  0  0  0
    1.2235   -3.0200    0.0000 O   0  0  0  0  0  0  0  0  0  0  0  0
   -0.9721    3.3711    0.0000 O   0  0  0  0  0  0  0  0  0  0  0  0
    0.5766    2.7020    0.0000 N   0  0  0  0  0  0  0  0  0  0  0  0
   -4.0475    2.1365    0.0000 O   0  0  0  0  0  0  0  0  0  0  0  0
    3.4635   -1.6966    0.0000 C   0  0  0  0  0  0  0  0  0  0  0  0
    2.7982   -0.4140    0.0000 C   0  0  0  0  0  0  0  0  0  0  0  0
    3.4968   -0.8576    0.0000 C   0  0  0  0  0  0  0  0  0  0  0  0
    0.9352    3.4561    0.0000 C   0  0  0  0  0  0  0  0  0  0  0  0
   -3.8109    2.8240    0.0000 C   0  0  0  0  0  0  0  0  0  0  0  0
  2  1  2  0  0  0  0
  3  6  1  0  0  0  0
  4  9  1  0  0  0  0
  5  2  1  0  0  0  0
  6  1  1  0  0  0  0
  7  1  1  0  0  0  0
  8 15  1  0  0  0  0
  9 17  1  0  0  0  0
 10  7  1  0  0  0  0
 11  8  1  0  0  0  0
 12  4  1  0  0  0  0
 13  4  1  0  0  0  0
 14  2  1  0  0  0  0
 15  3  1  0  0  0  0
 16  5  1  0  0  0  0
 17 18  2  0  0  0  0
 18 10  1  0  0  0  0
 19 16  1  0  0  0  0
 20 11  2  0  0  0  0
 21 10  2  0  0  0  0
 22 12  1  0  0  0  0
 23 13  1  0  0  0  0
 24 12  2  0  0  0  0
 25 13  2  0  0  0  0
 26 14  2  0  0  0  0
 27 14  1  0  0  0  0
 28 11  1  0  0  0  0
 29 31  1  0  0  0  0
 30 18  1  0  0  0  0
 31 30  2  0  0  0  0
 32 27  1  0  0  0  0
 33 28  1  0  0  0  0
  5  3  2  0  0  0  0
  8 19  1  0  0  0  0
  9 29  2  0  0  0  0
 23 22  1  0  0  0  0
M  END
>  <IDNUMBER>
F2701-0561

>  <Chemical_Name>
methyl 2-[3-(2,5-dioxopyrrolidin-1-yl)benzamido]-3-(methylcarbamoyl)-4H,5H,6H,7H-thieno[2,3-c]pyridine-6-carboxylate

>  <PriceCoeff>
1.00

>  <CAS>
886957-45-5

>  <MW>
470.50

>  <Description>
solid

>  <FSP3>
0.32

>  <clogP>
0.32

>  <TPSA>
153.36

>  <Acceptor>
6

>  <Donor>
2

>  <RotBonds>
6

>  <HAC>
33

>  <Collection>
General

>  <PPDS>
+

$$$$
F2707-0314
  Mrv2219 10102508112D          

 30 33  0  0  0  0            999 V2000
   -2.4283    1.9017    0.0000 N   0  0  0  0  0  0  0  0  0  0  0  0
   -1.6677    1.5632    0.0000 C   0  0  0  0  0  0  0  0  0  0  0  0
   -2.5036    2.7293    0.0000 C   0  0  0  0  0  0  0  0  0  0  0  0
   -3.2559    3.0553    0.0000 C   0  0  0  0  0  0  0  0  0  0  0  0
   -3.9247    2.5788    0.0000 N   0  0  0  0  0  0  0  0  0  0  0  0
   -1.8390    3.2058    0.0000 C   0  0  0  0  0  0  0  0  0  0  0  0
   -1.5882    0.7398    0.0000 N   0  0  0  0  0  0  0  0  0  0  0  0
   -3.0929    1.4252    0.0000 C   0  0  0  0  0  0  0  0  0  0  0  0
   -1.0867    2.8672    0.0000 C   0  0  0  0  0  0  0  0  0  0  0  0
   -3.6822    0.1212    0.0000 C   0  0  0  0  0  0  0  0  0  0  0  0
   -3.0177    0.5977    0.0000 C   0  0  0  0  0  0  0  0  0  0  0  0
   -0.4221    3.3479    0.0000 C   0  0  0  0  0  0  0  0  0  0  0  0
   -3.5109    3.8452    0.0000 C   0  0  0  0  0  0  0  0  0  0  0  0
   -0.9989    2.0438    0.0000 O   0  0  0  0  0  0  0  0  0  0  0  0
   -4.5976    3.0553    0.0000 C   0  0  0  0  0  0  0  0  0  0  0  0
   -2.2570    0.2591    0.0000 C   0  0  0  0  0  0  0  0  0  0  0  0
   -3.8452    1.7638    0.0000 C   0  0  0  0  0  0  0  0  0  0  0  0
   -4.3468    3.8452    0.0000 C   0  0  0  0  0  0  0  0  0  0  0  0
   -3.5945   -0.7064    0.0000 C   0  0  0  0  0  0  0  0  0  0  0  0
   -1.9268    4.0167    0.0000 C   0  0  0  0  0  0  0  0  0  0  0  0
   -0.5016    4.1629    0.0000 C   0  0  0  0  0  0  0  0  0  0  0  0
   -1.2497    4.5057    0.0000 C   0  0  0  0  0  0  0  0  0  0  0  0
   -2.8547   -1.0449    0.0000 C   0  0  0  0  0  0  0  0  0  0  0  0
   -4.4346    0.4597    0.0000 Cl  0  0  0  0  0  0  0  0  0  0  0  0
   -2.1776   -0.5685    0.0000 C   0  0  0  0  0  0  0  0  0  0  0  0
   -4.2716   -1.1829    0.0000 Cl  0  0  0  0  0  0  0  0  0  0  0  0
    0.3260    3.0093    0.0000 O   0  0  0  0  0  0  0  0  0  0  0  0
    0.1672    4.6394    0.0000 O   0  0  0  0  0  0  0  0  0  0  0  0
    0.9948    3.4941    0.0000 C   0  0  0  0  0  0  0  0  0  0  0  0
    0.0794    5.4586    0.0000 C   0  0  0  0  0  0  0  0  0  0  0  0
  2  1  1  0  0  0  0
  3  1  1  0  0  0  0
  4  3  1  0  0  0  0
  5 17  1  0  0  0  0
  6  3  1  0  0  0  0
  7  2  1  0  0  0  0
  8  1  1  0  0  0  0
  9  6  2  0  0  0  0
 10 11  1  0  0  0  0
 11 16  2  0  0  0  0
 12  9  1  0  0  0  0
 13  4  2  0  0  0  0
 14  2  2  0  0  0  0
 15  5  1  0  0  0  0
 16  7  1  0  0  0  0
 17  8  1  0  0  0  0
 18 13  1  0  0  0  0
 19 23  1  0  0  0  0
 20  6  1  0  0  0  0
 21 22  1  0  0  0  0
 22 20  2  0  0  0  0
 23 25  2  0  0  0  0
 24 10  1  0  0  0  0
 25 16  1  0  0  0  0
 26 19  1  0  0  0  0
 27 12  1  0  0  0  0
 28 21  1  0  0  0  0
 29 27  1  0  0  0  0
 30 28  1  0  0  0  0
  5  4  1  0  0  0  0
 15 18  2  0  0  0  0
 21 12  2  0  0  0  0
 19 10  2  0  0  0  0
M  END
>  <IDNUMBER>
F2707-0314

>  <Chemical_Name>
N-(3,4-dichlorophenyl)-1-(3,4-dimethoxyphenyl)-1H,2H,3H,4H-pyrrolo[1,2-a]pyrazine-2-carboxamide

>  <PriceCoeff>
1.00

>  <CAS>
899960-78-2

>  <MW>
446.33

>  <Description>
solid

>  <FSP3>
0.23

>  <clogP>
4.44

>  <TPSA>
55.73

>  <Acceptor>
3

>  <Donor>
1

>  <RotBonds>
5

>  <HAC>
30

>  <Collection>
General

>  <PPDS>
+

$$$$
F2707-0450
  Mrv2219 10102508112D          

 26 29  0  0  0  0            999 V2000
   -2.4283    1.9017    0.0000 N   0  0  0  0  0  0  0  0  0  0  0  0
   -1.6677    1.5632    0.0000 C   0  0  0  0  0  0  0  0  0  0  0  0
   -3.2559    3.0553    0.0000 C   0  0  0  0  0  0  0  0  0  0  0  0
   -2.5036    2.7293    0.0000 C   0  0  0  0  0  0  0  0  0  0  0  0
   -3.9247    2.5788    0.0000 N   0  0  0  0  0  0  0  0  0  0  0  0
   -1.5882    0.7398    0.0000 N   0  0  0  0  0  0  0  0  0  0  0  0
   -3.0929    1.4252    0.0000 C   0  0  0  0  0  0  0  0  0  0  0  0
   -3.6822    0.1212    0.0000 C   0  0  0  0  0  0  0  0  0  0  0  0
   -3.0177    0.5977    0.0000 C   0  0  0  0  0  0  0  0  0  0  0  0
   -1.8390    3.2058    0.0000 C   0  0  0  0  0  0  0  0  0  0  0  0
   -3.5109    3.8452    0.0000 C   0  0  0  0  0  0  0  0  0  0  0  0
   -0.9989    2.0438    0.0000 O   0  0  0  0  0  0  0  0  0  0  0  0
   -4.5976    3.0553    0.0000 C   0  0  0  0  0  0  0  0  0  0  0  0
   -2.2570    0.2591    0.0000 C   0  0  0  0  0  0  0  0  0  0  0  0
   -3.8452    1.7638    0.0000 C   0  0  0  0  0  0  0  0  0  0  0  0
   -4.3468    3.8452    0.0000 C   0  0  0  0  0  0  0  0  0  0  0  0
   -3.5945   -0.7064    0.0000 C   0  0  0  0  0  0  0  0  0  0  0  0
   -1.2497    4.5057    0.0000 N   0  0  0  0  0  0  0  0  0  0  0  0
   -2.8547   -1.0449    0.0000 C   0  0  0  0  0  0  0  0  0  0  0  0
   -4.4346    0.4597    0.0000 Cl  0  0  0  0  0  0  0  0  0  0  0  0
   -2.1776   -0.5685    0.0000 C   0  0  0  0  0  0  0  0  0  0  0  0
   -4.2716   -1.1829    0.0000 Cl  0  0  0  0  0  0  0  0  0  0  0  0
   -1.9268    4.0167    0.0000 C   0  0  0  0  0  0  0  0  0  0  0  0
   -1.0867    2.8672    0.0000 C   0  0  0  0  0  0  0  0  0  0  0  0
   -0.5016    4.1629    0.0000 C   0  0  0  0  0  0  0  0  0  0  0  0
   -0.4221    3.3479    0.0000 C   0  0  0  0  0  0  0  0  0  0  0  0
  2  1  1  0  0  0  0
  3  4  1  0  0  0  0
  4  1  1  0  0  0  0
  5 15  1  0  0  0  0
  6  2  1  0  0  0  0
  7  1  1  0  0  0  0
  8  9  1  0  0  0  0
  9 14  2  0  0  0  0
 10  4  1  0  0  0  0
 11  3  2  0  0  0  0
 12  2  2  0  0  0  0
 13  5  1  0  0  0  0
 14  6  1  0  0  0  0
 15  7  1  0  0  0  0
 16 11  1  0  0  0  0
 17 19  1  0  0  0  0
 18 23  2  0  0  0  0
 19 21  2  0  0  0  0
 20  8  1  0  0  0  0
 21 14  1  0  0  0  0
 22 17  1  0  0  0  0
 23 10  1  0  0  0  0
 24 10  2  0  0  0  0
 25 26  2  0  0  0  0
 26 24  1  0  0  0  0
  5  3  1  0  0  0  0
 13 16  2  0  0  0  0
 18 25  1  0  0  0  0
 17  8  2  0  0  0  0
M  END
>  <IDNUMBER>
F2707-0450

>  <Chemical_Name>
N-(3,4-dichlorophenyl)-1-(pyridin-3-yl)-1H,2H,3H,4H-pyrrolo[1,2-a]pyrazine-2-carboxamide

>  <PriceCoeff>
1.00

>  <CAS>
899961-23-0

>  <MW>
387.26

>  <Description>
solid

>  <FSP3>
0.16

>  <clogP>
3.29

>  <TPSA>
50.16

>  <Acceptor>
2

>  <Donor>
2

>  <RotBonds>
3

>  <HAC>
26

>  <Collection>
General

>  <PPDS>
+

$$$$
F2707-0484
  Mrv2219 10102508112D          

 26 29  0  0  0  0            999 V2000
   -2.4283    1.9017    0.0000 N   0  0  0  0  0  0  0  0  0  0  0  0
   -1.6677    1.5632    0.0000 C   0  0  0  0  0  0  0  0  0  0  0  0
   -3.2559    3.0553    0.0000 C   0  0  0  0  0  0  0  0  0  0  0  0
   -2.5036    2.7293    0.0000 C   0  0  0  0  0  0  0  0  0  0  0  0
   -3.9247    2.5788    0.0000 N   0  0  0  0  0  0  0  0  0  0  0  0
   -1.5882    0.7398    0.0000 N   0  0  0  0  0  0  0  0  0  0  0  0
   -3.0929    1.4252    0.0000 C   0  0  0  0  0  0  0  0  0  0  0  0
   -3.6822    0.1212    0.0000 C   0  0  0  0  0  0  0  0  0  0  0  0
   -3.0177    0.5977    0.0000 C   0  0  0  0  0  0  0  0  0  0  0  0
   -3.5109    3.8452    0.0000 C   0  0  0  0  0  0  0  0  0  0  0  0
   -0.9989    2.0438    0.0000 O   0  0  0  0  0  0  0  0  0  0  0  0
   -4.5976    3.0553    0.0000 C   0  0  0  0  0  0  0  0  0  0  0  0
   -2.2570    0.2591    0.0000 C   0  0  0  0  0  0  0  0  0  0  0  0
   -3.8452    1.7638    0.0000 C   0  0  0  0  0  0  0  0  0  0  0  0
   -4.3468    3.8452    0.0000 C   0  0  0  0  0  0  0  0  0  0  0  0
   -3.5945   -0.7064    0.0000 C   0  0  0  0  0  0  0  0  0  0  0  0
   -1.8390    3.2058    0.0000 C   0  0  0  0  0  0  0  0  0  0  0  0
   -0.5016    4.1629    0.0000 N   0  0  0  0  0  0  0  0  0  0  0  0
   -2.8547   -1.0449    0.0000 C   0  0  0  0  0  0  0  0  0  0  0  0
   -4.4346    0.4597    0.0000 Cl  0  0  0  0  0  0  0  0  0  0  0  0
   -2.1776   -0.5685    0.0000 C   0  0  0  0  0  0  0  0  0  0  0  0
   -4.2716   -1.1829    0.0000 Cl  0  0  0  0  0  0  0  0  0  0  0  0
   -1.2497    4.5057    0.0000 C   0  0  0  0  0  0  0  0  0  0  0  0
   -0.4221    3.3479    0.0000 C   0  0  0  0  0  0  0  0  0  0  0  0
   -1.9268    4.0167    0.0000 C   0  0  0  0  0  0  0  0  0  0  0  0
   -1.0867    2.8672    0.0000 C   0  0  0  0  0  0  0  0  0  0  0  0
  2  1  1  0  0  0  0
  3  4  1  0  0  0  0
  4  1  1  0  0  0  0
  5 14  1  0  0  0  0
  6  2  1  0  0  0  0
  7  1  1  0  0  0  0
  8  9  1  0  0  0  0
  9 13  2  0  0  0  0
 10  3  2  0  0  0  0
 11  2  2  0  0  0  0
 12  5  1  0  0  0  0
 13  6  1  0  0  0  0
 14  7  1  0  0  0  0
 15 10  1  0  0  0  0
 16 19  1  0  0  0  0
 17  4  1  0  0  0  0
 18 24  2  0  0  0  0
 19 21  2  0  0  0  0
 20  8  1  0  0  0  0
 21 13  1  0  0  0  0
 22 16  1  0  0  0  0
 23 25  2  0  0  0  0
 24 26  1  0  0  0  0
 25 17  1  0  0  0  0
 26 17  2  0  0  0  0
  5  3  1  0  0  0  0
 23 18  1  0  0  0  0
 12 15  2  0  0  0  0
 16  8  2  0  0  0  0
M  END
>  <IDNUMBER>
F2707-0484

>  <Chemical_Name>
N-(3,4-dichlorophenyl)-1-(pyridin-4-yl)-1H,2H,3H,4H-pyrrolo[1,2-a]pyrazine-2-carboxamide

>  <PriceCoeff>
1.00

>  <CAS>
899751-08-7

>  <MW>
387.26

>  <Description>
solid

>  <FSP3>
0.16

>  <clogP>
3.29

>  <TPSA>
50.16

>  <Acceptor>
2

>  <Donor>
2

>  <RotBonds>
3

>  <HAC>
26

>  <Collection>
General

$$$$
F2707-0518
  Mrv2219 10102508112D          

 25 28  0  0  0  0            999 V2000
   -2.4283    1.9017    0.0000 N   0  0  0  0  0  0  0  0  0  0  0  0
   -1.6677    1.5632    0.0000 C   0  0  0  0  0  0  0  0  0  0  0  0
   -2.5036    2.7293    0.0000 C   0  0  0  0  0  0  0  0  0  0  0  0
   -3.2559    3.0553    0.0000 C   0  0  0  0  0  0  0  0  0  0  0  0
   -3.9247    2.5788    0.0000 N   0  0  0  0  0  0  0  0  0  0  0  0
   -1.8390    3.2058    0.0000 C   0  0  0  0  0  0  0  0  0  0  0  0
   -1.5882    0.7398    0.0000 N   0  0  0  0  0  0  0  0  0  0  0  0
   -3.0929    1.4252    0.0000 C   0  0  0  0  0  0  0  0  0  0  0  0
   -1.8307    4.0250    0.0000 S   0  0  0  0  0  0  0  0  0  0  0  0
   -3.6822    0.1212    0.0000 C   0  0  0  0  0  0  0  0  0  0  0  0
   -3.0177    0.5977    0.0000 C   0  0  0  0  0  0  0  0  0  0  0  0
   -3.5109    3.8452    0.0000 C   0  0  0  0  0  0  0  0  0  0  0  0
   -0.9989    2.0438    0.0000 O   0  0  0  0  0  0  0  0  0  0  0  0
   -4.5976    3.0553    0.0000 C   0  0  0  0  0  0  0  0  0  0  0  0
   -2.2570    0.2591    0.0000 C   0  0  0  0  0  0  0  0  0  0  0  0
   -3.8452    1.7638    0.0000 C   0  0  0  0  0  0  0  0  0  0  0  0
   -4.3468    3.8452    0.0000 C   0  0  0  0  0  0  0  0  0  0  0  0
   -3.5945   -0.7064    0.0000 C   0  0  0  0  0  0  0  0  0  0  0  0
   -1.0491    2.9550    0.0000 C   0  0  0  0  0  0  0  0  0  0  0  0
   -1.0533    4.2800    0.0000 C   0  0  0  0  0  0  0  0  0  0  0  0
   -0.5643    3.6195    0.0000 C   0  0  0  0  0  0  0  0  0  0  0  0
   -2.8547   -1.0449    0.0000 C   0  0  0  0  0  0  0  0  0  0  0  0
   -4.4346    0.4597    0.0000 Cl  0  0  0  0  0  0  0  0  0  0  0  0
   -2.1776   -0.5685    0.0000 C   0  0  0  0  0  0  0  0  0  0  0  0
   -4.2716   -1.1829    0.0000 Cl  0  0  0  0  0  0  0  0  0  0  0  0
  2  1  1  0  0  0  0
  3  1  1  0  0  0  0
  4  3  1  0  0  0  0
  5 16  1  0  0  0  0
  6  3  1  0  0  0  0
  7  2  1  0  0  0  0
  8  1  1  0  0  0  0
  9  6  1  0  0  0  0
 10 11  1  0  0  0  0
 11 15  2  0  0  0  0
 12  4  2  0  0  0  0
 13  2  2  0  0  0  0
 14  5  1  0  0  0  0
 15  7  1  0  0  0  0
 16  8  1  0  0  0  0
 17 12  1  0  0  0  0
 18 22  1  0  0  0  0
 19  6  2  0  0  0  0
 20  9  1  0  0  0  0
 21 19  1  0  0  0  0
 22 24  2  0  0  0  0
 23 10  1  0  0  0  0
 24 15  1  0  0  0  0
 25 18  1  0  0  0  0
  5  4  1  0  0  0  0
 20 21  2  0  0  0  0
 14 17  2  0  0  0  0
 18 10  2  0  0  0  0
M  END
>  <IDNUMBER>
F2707-0518

>  <Chemical_Name>
N-(3,4-dichlorophenyl)-1-(thiophen-2-yl)-1H,2H,3H,4H-pyrrolo[1,2-a]pyrazine-2-carboxamide

>  <PriceCoeff>
1.00

>  <CAS>
900003-58-9

>  <MW>
392.30

>  <Description>
solid

>  <FSP3>
0.17

>  <clogP>
4.43

>  <TPSA>
65.51

>  <Acceptor>
1

>  <Donor>
1

>  <RotBonds>
3

>  <HAC>
25

>  <Collection>
General

>  <PPDS>
+

$$$$
F2707-0552
  Mrv2219 10102508112D          

 32 35  0  0  0  0            999 V2000
   -2.4283    1.9017    0.0000 N   0  0  0  0  0  0  0  0  0  0  0  0
   -1.6677    1.5632    0.0000 C   0  0  0  0  0  0  0  0  0  0  0  0
   -2.5036    2.7293    0.0000 C   0  0  0  0  0  0  0  0  0  0  0  0
   -3.2559    3.0553    0.0000 C   0  0  0  0  0  0  0  0  0  0  0  0
   -1.8390    3.2058    0.0000 C   0  0  0  0  0  0  0  0  0  0  0  0
   -3.9247    2.5788    0.0000 N   0  0  0  0  0  0  0  0  0  0  0  0
   -0.5016    4.1629    0.0000 C   0  0  0  0  0  0  0  0  0  0  0  0
   -1.5882    0.7398    0.0000 N   0  0  0  0  0  0  0  0  0  0  0  0
   -1.2497    4.5057    0.0000 C   0  0  0  0  0  0  0  0  0  0  0  0
   -0.4221    3.3479    0.0000 C   0  0  0  0  0  0  0  0  0  0  0  0
   -3.0929    1.4252    0.0000 C   0  0  0  0  0  0  0  0  0  0  0  0
   -1.9268    4.0167    0.0000 C   0  0  0  0  0  0  0  0  0  0  0  0
   -1.0867    2.8672    0.0000 C   0  0  0  0  0  0  0  0  0  0  0  0
   -3.6822    0.1212    0.0000 C   0  0  0  0  0  0  0  0  0  0  0  0
   -3.0177    0.5977    0.0000 C   0  0  0  0  0  0  0  0  0  0  0  0
   -3.5109    3.8452    0.0000 C   0  0  0  0  0  0  0  0  0  0  0  0
   -0.9989    2.0438    0.0000 O   0  0  0  0  0  0  0  0  0  0  0  0
   -4.5976    3.0553    0.0000 C   0  0  0  0  0  0  0  0  0  0  0  0
   -2.2570    0.2591    0.0000 C   0  0  0  0  0  0  0  0  0  0  0  0
   -3.8452    1.7638    0.0000 C   0  0  0  0  0  0  0  0  0  0  0  0
   -4.3468    3.8452    0.0000 C   0  0  0  0  0  0  0  0  0  0  0  0
   -3.5945   -0.7064    0.0000 C   0  0  0  0  0  0  0  0  0  0  0  0
   -2.8547   -1.0449    0.0000 C   0  0  0  0  0  0  0  0  0  0  0  0
   -4.4346    0.4597    0.0000 Cl  0  0  0  0  0  0  0  0  0  0  0  0
    0.1672    4.6394    0.0000 O   0  0  0  0  0  0  0  0  0  0  0  0
   -2.1776   -0.5685    0.0000 C   0  0  0  0  0  0  0  0  0  0  0  0
   -1.3249    5.3207    0.0000 O   0  0  0  0  0  0  0  0  0  0  0  0
    0.3302    3.0051    0.0000 O   0  0  0  0  0  0  0  0  0  0  0  0
   -4.2716   -1.1829    0.0000 Cl  0  0  0  0  0  0  0  0  0  0  0  0
    0.0794    5.4586    0.0000 C   0  0  0  0  0  0  0  0  0  0  0  0
    0.9948    3.4941    0.0000 C   0  0  0  0  0  0  0  0  0  0  0  0
   -2.0815    5.6593    0.0000 C   0  0  0  0  0  0  0  0  0  0  0  0
  2  1  1  0  0  0  0
  3  1  1  0  0  0  0
  4  3  1  0  0  0  0
  5  3  1  0  0  0  0
  6 20  1  0  0  0  0
  7 10  2  0  0  0  0
  8  2  1  0  0  0  0
  9 12  2  0  0  0  0
 10 13  1  0  0  0  0
 11  1  1  0  0  0  0
 12  5  1  0  0  0  0
 13  5  2  0  0  0  0
 14 15  1  0  0  0  0
 15 19  2  0  0  0  0
 16  4  2  0  0  0  0
 17  2  2  0  0  0  0
 18  6  1  0  0  0  0
 19  8  1  0  0  0  0
 20 11  1  0  0  0  0
 21 16  1  0  0  0  0
 22 23  1  0  0  0  0
 23 26  2  0  0  0  0
 24 14  1  0  0  0  0
 25  7  1  0  0  0  0
 26 19  1  0  0  0  0
 27  9  1  0  0  0  0
 28 10  1  0  0  0  0
 29 22  1  0  0  0  0
 30 25  1  0  0  0  0
 31 28  1  0  0  0  0
 32 27  1  0  0  0  0
  6  4  1  0  0  0  0
  9  7  1  0  0  0  0
 18 21  2  0  0  0  0
 22 14  2  0  0  0  0
M  END
>  <IDNUMBER>
F2707-0552

>  <Chemical_Name>
N-(3,4-dichlorophenyl)-1-(3,4,5-trimethoxyphenyl)-1H,2H,3H,4H-pyrrolo[1,2-a]pyrazine-2-carboxamide

>  <PriceCoeff>
1.00

>  <CAS>
899942-66-6

>  <MW>
476.35

>  <Description>
solid

>  <FSP3>
0.26

>  <clogP>
4.08

>  <TPSA>
64.96

>  <Acceptor>
4

>  <Donor>
1

>  <RotBonds>
6

>  <HAC>
32

>  <Collection>
General

>  <PPDS>
+

$$$$
F2708-0061
  Mrv2219 10102508112D          

 28 31  0  0  0  0            999 V2000
   -1.7499    4.2425    0.0000 C   0  0  0  0  0  0  0  0  0  0  0  0
   -6.0470    4.2425    0.0000 N   0  0  0  0  0  0  0  0  0  0  0  0
   -1.6701    5.0650    0.0000 N   0  0  0  0  0  0  0  0  0  0  0  0
   -0.8644    5.2413    0.0000 C   0  0  0  0  0  0  0  0  0  0  0  0
   -0.4490    4.5237    0.0000 C   0  0  0  0  0  0  0  0  0  0  0  0
   -2.4632    3.8271    0.0000 N   0  0  0  0  0  0  0  0  0  0  0  0
   -0.9903    3.9235    0.0000 S   0  0  0  0  0  0  0  0  0  0  0  0
   -5.3335    3.8271    0.0000 C   0  0  0  0  0  0  0  0  0  0  0  0
   -3.1808    4.2341    0.0000 C   0  0  0  0  0  0  0  0  0  0  0  0
   -6.8149    3.9487    0.0000 C   0  0  0  0  0  0  0  0  0  0  0  0
   -6.0847    5.0650    0.0000 C   0  0  0  0  0  0  0  0  0  0  0  0
   -4.6159    4.2341    0.0000 C   0  0  0  0  0  0  0  0  0  0  0  0
   -3.8984    3.8271    0.0000 C   0  0  0  0  0  0  0  0  0  0  0  0
    0.3693    4.5237    0.0000 C   0  0  0  0  0  0  0  0  0  0  0  0
   -0.4532    5.9462    0.0000 C   0  0  0  0  0  0  0  0  0  0  0  0
   -3.1808    5.0608    0.0000 O   0  0  0  0  0  0  0  0  0  0  0  0
   -7.3436    4.5615    0.0000 C   0  0  0  0  0  0  0  0  0  0  0  0
   -6.9030    5.2664    0.0000 C   0  0  0  0  0  0  0  0  0  0  0  0
   -7.0289    3.1430    0.0000 O   0  0  0  0  0  0  0  0  0  0  0  0
   -5.4594    5.5938    0.0000 O   0  0  0  0  0  0  0  0  0  0  0  0
    0.7847    5.2413    0.0000 C   0  0  0  0  0  0  0  0  0  0  0  0
    0.3651    5.9462    0.0000 C   0  0  0  0  0  0  0  0  0  0  0  0
    0.8477    3.7012    0.0000 Cl  0  0  0  0  0  0  0  0  0  0  0  0
   -5.3335    3.0045    0.0000 C   0  0  0  0  0  0  0  0  0  0  0  0
   -0.8770    6.6596    0.0000 O   0  0  0  0  0  0  0  0  0  0  0  0
   -3.8984    3.0045    0.0000 C   0  0  0  0  0  0  0  0  0  0  0  0
   -4.6159    2.5807    0.0000 C   0  0  0  0  0  0  0  0  0  0  0  0
   -0.7259    7.4149    0.0000 C   0  0  0  0  0  0  0  0  0  0  0  0
  2  8  1  0  0  0  0
  3  1  2  0  0  0  0
  4  3  1  0  0  0  0
  5  7  1  0  0  0  0
  6  1  1  0  0  0  0
  7  1  1  0  0  0  0
  8 12  1  0  0  0  0
  9  6  1  0  0  0  0
 10  2  1  0  0  0  0
 11  2  1  0  0  0  0
 12 13  2  0  0  0  0
 13  9  1  0  0  0  0
 14  5  1  0  0  0  0
 15  4  1  0  0  0  0
 16  9  2  0  0  0  0
 17 10  1  0  0  0  0
 18 11  1  0  0  0  0
 19 10  2  0  0  0  0
 20 11  2  0  0  0  0
 21 14  2  0  0  0  0
 22 15  2  0  0  0  0
 23 14  1  0  0  0  0
 24 27  1  0  0  0  0
 25 15  1  0  0  0  0
 26 13  1  0  0  0  0
 27 26  2  0  0  0  0
 28 25  1  0  0  0  0
  5  4  2  0  0  0  0
 22 21  1  0  0  0  0
  8 24  2  0  0  0  0
 17 18  1  0  0  0  0
M  END
>  <IDNUMBER>
F2708-0061

>  <Chemical_Name>
N-(7-chloro-4-methoxy-1,3-benzothiazol-2-yl)-3-(2,5-dioxopyrrolidin-1-yl)benzamide

>  <PriceCoeff>
1.00

>  <CAS>
886948-70-5

>  <MW>
415.85

>  <Description>
solid

>  <FSP3>
0.16

>  <clogP>
2.61

>  <TPSA>
116.84

>  <Acceptor>
5

>  <Donor>
1

>  <RotBonds>
4

>  <HAC>
28

>  <Collection>
General

>  <PPDS>
+

$$$$
F2708-0385
  Mrv2219 10102508112D          

 33 37  0  0  0  0            999 V2000
   -0.3231    2.5639    0.0000 C   0  0  0  0  0  0  0  0  0  0  0  0
    0.4197    2.9290    0.0000 N   0  0  0  0  0  0  0  0  0  0  0  0
   -0.2098    1.7456    0.0000 S   0  0  0  0  0  0  0  0  0  0  0  0
   -6.0470    4.2425    0.0000 N   0  0  0  0  0  0  0  0  0  0  0  0
    0.9945    2.3373    0.0000 C   0  0  0  0  0  0  0  0  0  0  0  0
    0.6085    1.6072    0.0000 C   0  0  0  0  0  0  0  0  0  0  0  0
   -1.0407    2.9920    0.0000 N   0  0  0  0  0  0  0  0  0  0  0  0
   -3.1808    4.2341    0.0000 C   0  0  0  0  0  0  0  0  0  0  0  0
   -5.3335    3.8271    0.0000 C   0  0  0  0  0  0  0  0  0  0  0  0
   -2.4632    3.8228    0.0000 N   0  0  0  0  0  0  0  0  0  0  0  0
   -6.8149    3.9487    0.0000 C   0  0  0  0  0  0  0  0  0  0  0  0
   -6.0847    5.0650    0.0000 C   0  0  0  0  0  0  0  0  0  0  0  0
   -3.8984    3.8271    0.0000 C   0  0  0  0  0  0  0  0  0  0  0  0
   -4.6159    4.2341    0.0000 C   0  0  0  0  0  0  0  0  0  0  0  0
    1.0365    0.9022    0.0000 C   0  0  0  0  0  0  0  0  0  0  0  0
    1.8170    2.3625    0.0000 C   0  0  0  0  0  0  0  0  0  0  0  0
   -1.7625    2.5807    0.0000 C   0  0  0  0  0  0  0  0  0  0  0  0
   -1.0197    3.8228    0.0000 C   0  0  0  0  0  0  0  0  0  0  0  0
   -1.7247    4.2215    0.0000 C   0  0  0  0  0  0  0  0  0  0  0  0
   -2.4674    3.0045    0.0000 C   0  0  0  0  0  0  0  0  0  0  0  0
   -3.1808    5.0650    0.0000 O   0  0  0  0  0  0  0  0  0  0  0  0
   -7.3436    4.5615    0.0000 C   0  0  0  0  0  0  0  0  0  0  0  0
   -6.9030    5.2664    0.0000 C   0  0  0  0  0  0  0  0  0  0  0  0
   -7.0289    3.1430    0.0000 O   0  0  0  0  0  0  0  0  0  0  0  0
   -5.4594    5.5938    0.0000 O   0  0  0  0  0  0  0  0  0  0  0  0
    1.8674    0.9274    0.0000 C   0  0  0  0  0  0  0  0  0  0  0  0
    2.2451    1.6617    0.0000 C   0  0  0  0  0  0  0  0  0  0  0  0
    0.6463    0.1720    0.0000 Cl  0  0  0  0  0  0  0  0  0  0  0  0
   -5.3335    3.0045    0.0000 C   0  0  0  0  0  0  0  0  0  0  0  0
    2.2199    3.0927    0.0000 O   0  0  0  0  0  0  0  0  0  0  0  0
   -3.8984    3.0045    0.0000 C   0  0  0  0  0  0  0  0  0  0  0  0
   -4.6159    2.5807    0.0000 C   0  0  0  0  0  0  0  0  0  0  0  0
    3.0508    3.1095    0.0000 C   0  0  0  0  0  0  0  0  0  0  0  0
  2  1  2  0  0  0  0
  3  1  1  0  0  0  0
  4  9  1  0  0  0  0
  5  2  1  0  0  0  0
  6  3  1  0  0  0  0
  7  1  1  0  0  0  0
  8 10  1  0  0  0  0
  9 14  1  0  0  0  0
 10 19  1  0  0  0  0
 11  4  1  0  0  0  0
 12  4  1  0  0  0  0
 13  8  1  0  0  0  0
 14 13  2  0  0  0  0
 15  6  1  0  0  0  0
 16  5  1  0  0  0  0
 17  7  1  0  0  0  0
 18  7  1  0  0  0  0
 19 18  1  0  0  0  0
 20 17  1  0  0  0  0
 21  8  2  0  0  0  0
 22 11  1  0  0  0  0
 23 12  1  0  0  0  0
 24 11  2  0  0  0  0
 25 12  2  0  0  0  0
 26 15  2  0  0  0  0
 27 16  2  0  0  0  0
 28 15  1  0  0  0  0
 29 32  1  0  0  0  0
 30 16  1  0  0  0  0
 31 13  1  0  0  0  0
 32 31  2  0  0  0  0
 33 30  1  0  0  0  0
  6  5  2  0  0  0  0
 20 10  1  0  0  0  0
 27 26  1  0  0  0  0
  9 29  2  0  0  0  0
 22 23  1  0  0  0  0
M  END
>  <IDNUMBER>
F2708-0385

>  <Chemical_Name>
1-{3-[4-(7-chloro-4-methoxy-1,3-benzothiazol-2-yl)piperazine-1-carbonyl]phenyl}pyrrolidine-2,5-dione

>  <PriceCoeff>
1.00

>  <CAS>
886954-15-0

>  <MW>
484.96

>  <Description>
solid

>  <FSP3>
0.30

>  <clogP>
2.61

>  <TPSA>
111.29

>  <Acceptor>
5

>  <Donor>
1

>  <RotBonds>
5

>  <HAC>
33

>  <Collection>
General

>  <PPDS>
+

$$$$
F2710-0582
  Mrv2219 10102508112D          

 30 33  0  0  0  0            999 V2000
   -2.2175    2.3279    0.0000 C   0  0  0  0  0  0  0  0  0  0  0  0
   -2.4659    1.5412    0.0000 N   0  0  0  0  0  0  0  0  0  0  0  0
   -0.3036    4.4626    0.0000 N   0  0  0  0  0  0  0  0  0  0  0  0
   -1.4170    2.5901    0.0000 N   0  0  0  0  0  0  0  0  0  0  0  0
   -2.8661    2.8156    0.0000 S   0  0  0  0  0  0  0  0  0  0  0  0
   -3.2848    1.5458    0.0000 C   0  0  0  0  0  0  0  0  0  0  0  0
   -3.5424    2.3325    0.0000 C   0  0  0  0  0  0  0  0  0  0  0  0
   -1.2513    3.4044    0.0000 C   0  0  0  0  0  0  0  0  0  0  0  0
   -0.4693    3.6667    0.0000 C   0  0  0  0  0  0  0  0  0  0  0  0
   -0.9201    5.0147    0.0000 C   0  0  0  0  0  0  0  0  0  0  0  0
    0.4049    4.8905    0.0000 C   0  0  0  0  0  0  0  0  0  0  0  0
   -0.8005    2.0380    0.0000 C   0  0  0  0  0  0  0  0  0  0  0  0
   -4.3476    2.5119    0.0000 C   0  0  0  0  0  0  0  0  0  0  0  0
   -3.8461    0.9339    0.0000 C   0  0  0  0  0  0  0  0  0  0  0  0
   -1.8724    3.9565    0.0000 O   0  0  0  0  0  0  0  0  0  0  0  0
   -0.5888    5.7600    0.0000 C   0  0  0  0  0  0  0  0  0  0  0  0
    0.2255    5.6910    0.0000 C   0  0  0  0  0  0  0  0  0  0  0  0
   -1.7344    4.8491    0.0000 O   0  0  0  0  0  0  0  0  0  0  0  0
    1.1732    4.5592    0.0000 O   0  0  0  0  0  0  0  0  0  0  0  0
   -1.9138    0.1610    0.0000 N   0  0  0  0  0  0  0  0  0  0  0  0
   -0.9661    1.2284    0.0000 C   0  0  0  0  0  0  0  0  0  0  0  0
   -4.9088    1.9000    0.0000 C   0  0  0  0  0  0  0  0  0  0  0  0
   -4.6604    1.1133    0.0000 C   0  0  0  0  0  0  0  0  0  0  0  0
   -4.5960    3.3078    0.0000 Cl  0  0  0  0  0  0  0  0  0  0  0  0
   -3.5976    0.1380    0.0000 O   0  0  0  0  0  0  0  0  0  0  0  0
   -1.7482    0.9661    0.0000 C   0  0  0  0  0  0  0  0  0  0  0  0
   -1.2974   -0.3865    0.0000 C   0  0  0  0  0  0  0  0  0  0  0  0
   -0.3542    0.6855    0.0000 C   0  0  0  0  0  0  0  0  0  0  0  0
   -4.1635   -0.4693    0.0000 C   0  0  0  0  0  0  0  0  0  0  0  0
   -0.5198   -0.1242    0.0000 C   0  0  0  0  0  0  0  0  0  0  0  0
  2  1  2  0  0  0  0
  3  9  1  0  0  0  0
  4  1  1  0  0  0  0
  5  1  1  0  0  0  0
  6  2  1  0  0  0  0
  7  5  1  0  0  0  0
  8  4  1  0  0  0  0
  9  8  1  0  0  0  0
 10  3  1  0  0  0  0
 11  3  1  0  0  0  0
 12  4  1  0  0  0  0
 13  7  1  0  0  0  0
 14  6  1  0  0  0  0
 15  8  2  0  0  0  0
 16 10  1  0  0  0  0
 17 11  1  0  0  0  0
 18 10  2  0  0  0  0
 19 11  2  0  0  0  0
 20 26  1  0  0  0  0
 21 12  1  0  0  0  0
 22 13  2  0  0  0  0
 23 14  2  0  0  0  0
 24 13  1  0  0  0  0
 25 14  1  0  0  0  0
 26 21  2  0  0  0  0
 27 30  1  0  0  0  0
 28 21  1  0  0  0  0
 29 25  1  0  0  0  0
 30 28  2  0  0  0  0
  7  6  2  0  0  0  0
 23 22  1  0  0  0  0
 27 20  2  0  0  0  0
 17 16  1  0  0  0  0
M  END
>  <IDNUMBER>
F2710-0582

>  <Chemical_Name>
N-(7-chloro-4-methoxy-1,3-benzothiazol-2-yl)-2-(2,5-dioxopyrrolidin-1-yl)-N-[(pyridin-3-yl)methyl]acetamide

>  <PriceCoeff>
1.00

>  <CAS>
886965-55-5

>  <MW>
444.89

>  <Description>
solid

>  <FSP3>
0.25

>  <clogP>
1.98

>  <TPSA>
120.94

>  <Acceptor>
6

>  <Donor>
1

>  <RotBonds>
7

>  <HAC>
30

>  <Collection>
General

>  <PPDS>
+

$$$$
F2721-0443
  Mrv2219 10102508112D          

 24 24  0  0  0  0            999 V2000
    2.9553   -4.1647    0.0000 N   0  3  0  0  0  0  0  0  0  0  0  0
    3.6702   -3.7575    0.0000 C   0  0  0  0  0  0  0  0  0  0  0  0
    6.5132   -3.7575    0.0000 C   0  0  0  0  0  0  0  0  0  0  0  0
    7.2198   -4.1814    0.0000 C   0  0  0  0  0  0  0  0  0  0  0  0
    4.3809   -4.1772    0.0000 C   0  0  0  0  0  0  0  0  0  0  0  0
    7.9305   -2.9345    0.0000 C   0  0  0  0  0  0  0  0  0  0  0  0
    7.9305   -3.7700    0.0000 C   0  0  0  0  0  0  0  0  0  0  0  0
    3.6785   -2.9221    0.0000 C   0  0  0  0  0  0  0  0  0  0  0  0
    2.2486   -3.7450    0.0000 O   0  5  0  0  0  0  0  0  0  0  0  0
    5.8024   -4.1689    0.0000 N   0  0  0  0  0  0  0  0  0  0  0  0
    2.9470   -4.9794    0.0000 O   0  0  0  0  0  0  0  0  0  0  0  0
    5.1000   -3.7575    0.0000 C   0  0  0  0  0  0  0  0  0  0  0  0
    6.5132   -2.9345    0.0000 O   0  0  0  0  0  0  0  0  0  0  0  0
    7.2240   -2.5230    0.0000 O   0  0  0  0  0  0  0  0  0  0  0  0
    4.3892   -2.5105    0.0000 C   0  0  0  0  0  0  0  0  0  0  0  0
    8.6330   -4.1814    0.0000 N   0  0  0  0  0  0  0  0  0  0  0  0
    8.6537   -2.5230    0.0000 O   0  0  0  0  0  0  0  0  0  0  0  0
    5.1042   -2.9221    0.0000 C   0  0  0  0  0  0  0  0  0  0  0  0
    2.9595   -2.5105    0.0000 Cl  0  0  0  0  0  0  0  0  0  0  0  0
    8.6330   -5.0169    0.0000 C   0  0  0  0  0  0  0  0  0  0  0  0
    7.9181   -5.4159    0.0000 C   0  0  0  0  0  0  0  0  0  0  0  0
    5.7899   -5.0044    0.0000 H   0  0  0  0  0  0  0  0  0  0  0  0
    9.3437   -3.7700    0.0000 H   0  0  0  0  0  0  0  0  0  0  0  0
    9.3562   -2.9428    0.0000 H   0  0  0  0  0  0  0  0  0  0  0  0
  2  1  1  0  0  0  0
  3 10  1  0  0  0  0
  4  3  1  0  0  0  0
  5  2  2  0  0  0  0
  6  7  1  0  0  0  0
  7  4  1  0  0  0  0
  8  2  1  0  0  0  0
  9  1  1  0  0  0  0
 10 12  1  0  0  0  0
 11  1  2  0  0  0  0
 12  5  1  0  0  0  0
 13  3  2  0  0  0  0
 14  6  2  0  0  0  0
 15  8  2  0  0  0  0
 16  7  1  0  0  0  0
 17  6  1  0  0  0  0
 18 15  1  0  0  0  0
 19  8  1  0  0  0  0
 20 16  1  0  0  0  0
 21 20  1  0  0  0  0
 22 10  1  0  0  0  0
 23 16  1  0  0  0  0
 24 17  1  0  0  0  0
 12 18  2  0  0  0  0
M  CHG  2   1   1   9  -1
M  END
>  <IDNUMBER>
F2721-0443

>  <Chemical_Name>
3-[(4-chloro-3-nitrophenyl)carbamoyl]-2-(ethylamino)propanoic acid

>  <PriceCoeff>
1.00

>  <MW>
315.71

>  <Description>
solid

>  <FSP3>
0.33

>  <clogP>
0.81

>  <TPSA>
121.57

>  <Acceptor>
5

>  <Donor>
2

>  <RotBonds>
7

>  <HAC>
21

>  <Collection>
General

>  <PPDS>
+

$$$$
F2722-0119
  Mrv2219 10102508112D          

 32 35  0  0  0  0            999 V2000
    1.1638   -0.9601    0.0000 N   0  0  0  0  0  0  0  0  0  0  0  0
    0.3658   -0.7856    0.0000 C   0  0  0  0  0  0  0  0  0  0  0  0
    1.4215   -1.7374    0.0000 C   0  0  0  0  0  0  0  0  0  0  0  0
    0.8646   -2.3484    0.0000 N   0  0  0  0  0  0  0  0  0  0  0  0
    6.7210   -0.9726    0.0000 N   0  3  0  0  0  0  0  0  0  0  0  0
    6.2097   -0.3159    0.0000 C   0  0  0  0  0  0  0  0  0  0  0  0
   -0.1870   -1.3883    0.0000 C   0  0  0  0  0  0  0  0  0  0  0  0
    1.6127   -0.2743    0.0000 C   0  0  0  0  0  0  0  0  0  0  0  0
    0.0665   -2.1739    0.0000 C   0  0  0  0  0  0  0  0  0  0  0  0
    4.0650    0.0956    0.0000 C   0  0  0  0  0  0  0  0  0  0  0  0
    3.5538    0.7440    0.0000 N   0  0  0  0  0  0  0  0  0  0  0  0
    5.3910   -0.4364    0.0000 C   0  0  0  0  0  0  0  0  0  0  0  0
    2.7308    0.6193    0.0000 C   0  0  0  0  0  0  0  0  0  0  0  0
    2.4315   -0.1414    0.0000 C   0  0  0  0  0  0  0  0  0  0  0  0
    4.8797    0.2120    0.0000 C   0  0  0  0  0  0  0  0  0  0  0  0
    6.5132    0.4447    0.0000 C   0  0  0  0  0  0  0  0  0  0  0  0
    0.1164    0.0083    0.0000 O   0  0  0  0  0  0  0  0  0  0  0  0
    6.4134   -1.7374    0.0000 O   0  5  0  0  0  0  0  0  0  0  0  0
    7.5357   -0.8521    0.0000 O   0  0  0  0  0  0  0  0  0  0  0  0
    2.2113    1.2677    0.0000 C   0  0  0  0  0  0  0  0  0  0  0  0
    1.0973    0.3699    0.0000 C   0  0  0  0  0  0  0  0  0  0  0  0
    3.7575   -0.6651    0.0000 O   0  0  0  0  0  0  0  0  0  0  0  0
    5.1914    0.9809    0.0000 C   0  0  0  0  0  0  0  0  0  0  0  0
    6.0102    1.0931    0.0000 C   0  0  0  0  0  0  0  0  0  0  0  0
    1.3966    1.1430    0.0000 C   0  0  0  0  0  0  0  0  0  0  0  0
    2.2362   -1.8995    0.0000 C   0  0  0  0  0  0  0  0  0  0  0  0
    7.3362    0.5611    0.0000 Cl  0  0  0  0  0  0  0  0  0  0  0  0
    2.5105    2.0408    0.0000 F   0  0  0  0  0  0  0  0  0  0  0  0
   -0.9934   -1.2137    0.0000 C   0  0  0  0  0  0  0  0  0  0  0  0
   -0.4863   -2.7807    0.0000 C   0  0  0  0  0  0  0  0  0  0  0  0
   -1.5420   -1.8247    0.0000 C   0  0  0  0  0  0  0  0  0  0  0  0
   -1.2843   -2.6061    0.0000 C   0  0  0  0  0  0  0  0  0  0  0  0
  2  1  1  0  0  0  0
  3  1  1  0  0  0  0
  4  3  2  0  0  0  0
  5  6  1  0  0  0  0
  6 12  1  0  0  0  0
  7  2  1  0  0  0  0
  8  1  1  0  0  0  0
  9  4  1  0  0  0  0
 10 11  1  0  0  0  0
 11 13  1  0  0  0  0
 12 15  2  0  0  0  0
 13 14  1  0  0  0  0
 14  8  2  0  0  0  0
 15 10  1  0  0  0  0
 16 24  1  0  0  0  0
 17  2  2  0  0  0  0
 18  5  1  0  0  0  0
 19  5  2  0  0  0  0
 20 25  1  0  0  0  0
 21  8  1  0  0  0  0
 22 10  2  0  0  0  0
 23 15  1  0  0  0  0
 24 23  2  0  0  0  0
 25 21  2  0  0  0  0
 26  3  1  0  0  0  0
 27 16  1  0  0  0  0
 28 20  1  0  0  0  0
 29  7  2  0  0  0  0
 30  9  2  0  0  0  0
 31 29  1  0  0  0  0
 32 30  1  0  0  0  0
  7  9  1  0  0  0  0
 20 13  2  0  0  0  0
 31 32  2  0  0  0  0
 16  6  2  0  0  0  0
M  CHG  2   5   1  18  -1
M  END
>  <IDNUMBER>
F2722-0119

>  <Chemical_Name>
4-chloro-N-[2-fluoro-5-(2-methyl-4-oxo-3,4-dihydroquinazolin-3-yl)phenyl]-3-nitrobenzamide

>  <PriceCoeff>
1.00

>  <CAS>
922632-59-5

>  <MW>
452.82

>  <Description>
solid

>  <FSP3>
0.05

>  <clogP>
4.05

>  <TPSA>
104.91

>  <Acceptor>
5

>  <Donor>
1

>  <RotBonds>
4

>  <HAC>
32

>  <Collection>
General

>  <PPDS>
+

$$$$
F2724-0268
  Mrv2219 10102508112D          

 31 34  0  0  0  0            999 V2000
   -2.6904    1.1229    0.0000 N   0  3  0  0  0  0  0  0  0  0  0  0
   -2.6904    3.5979    0.0000 C   0  0  0  0  0  0  0  0  0  0  0  0
   -2.6904    4.4184    0.0000 C   0  0  0  0  0  0  0  0  0  0  0  0
   -6.2516    7.3059    0.0000 N   0  0  0  0  0  0  0  0  0  0  0  0
   -3.3962    3.1854    0.0000 C   0  0  0  0  0  0  0  0  0  0  0  0
   -5.5366    6.8934    0.0000 N   0  0  0  0  0  0  0  0  0  0  0  0
   -6.2516    8.1309    0.0000 C   0  0  0  0  0  0  0  0  0  0  0  0
   -2.6904    1.9479    0.0000 C   0  0  0  0  0  0  0  0  0  0  0  0
   -6.9575    8.5434    0.0000 N   0  0  0  0  0  0  0  0  0  0  0  0
   -3.3962    2.3604    0.0000 C   0  0  0  0  0  0  0  0  0  0  0  0
   -3.3962    4.8309    0.0000 N   0  0  0  0  0  0  0  0  0  0  0  0
   -1.9754    3.1854    0.0000 C   0  0  0  0  0  0  0  0  0  0  0  0
   -4.8216    7.3059    0.0000 C   0  0  0  0  0  0  0  0  0  0  0  0
   -3.3962    0.7104    0.0000 O   0  5  0  0  0  0  0  0  0  0  0  0
   -4.1112    6.8934    0.0000 C   0  0  0  0  0  0  0  0  0  0  0  0
   -1.9754    0.7104    0.0000 O   0  0  0  0  0  0  0  0  0  0  0  0
   -1.9754    4.8309    0.0000 O   0  0  0  0  0  0  0  0  0  0  0  0
   -3.3962    5.6559    0.0000 C   0  0  0  0  0  0  0  0  0  0  0  0
   -1.9754    2.3604    0.0000 C   0  0  0  0  0  0  0  0  0  0  0  0
   -4.1112    6.0684    0.0000 C   0  0  0  0  0  0  0  0  0  0  0  0
   -5.5366    8.5434    0.0000 C   0  0  0  0  0  0  0  0  0  0  0  0
   -4.8216    8.1309    0.0000 C   0  0  0  0  0  0  0  0  0  0  0  0
   -8.3784    9.3684    0.0000 O   0  0  0  0  0  0  0  0  0  0  0  0
   -4.1204    3.5979    0.0000 Cl  0  0  0  0  0  0  0  0  0  0  0  0
   -7.6634    8.1309    0.0000 C   0  0  0  0  0  0  0  0  0  0  0  0
   -6.9575    9.3684    0.0000 C   0  0  0  0  0  0  0  0  0  0  0  0
   -3.3962    7.3059    0.0000 C   0  0  0  0  0  0  0  0  0  0  0  0
   -2.6904    6.8934    0.0000 C   0  0  0  0  0  0  0  0  0  0  0  0
   -2.6904    6.0684    0.0000 C   0  0  0  0  0  0  0  0  0  0  0  0
   -7.6634    9.7809    0.0000 C   0  0  0  0  0  0  0  0  0  0  0  0
   -8.3784    8.5434    0.0000 C   0  0  0  0  0  0  0  0  0  0  0  0
  2 12  1  0  0  0  0
  3  2  1  0  0  0  0
  4  6  2  0  0  0  0
  5 10  1  0  0  0  0
  6 13  1  0  0  0  0
  7 21  2  0  0  0  0
  8  1  1  0  0  0  0
  9  7  1  0  0  0  0
 10  8  2  0  0  0  0
 11  3  1  0  0  0  0
 12 19  2  0  0  0  0
 13 15  1  0  0  0  0
 14  1  1  0  0  0  0
 15 20  2  0  0  0  0
 16  1  2  0  0  0  0
 17  3  2  0  0  0  0
 18 11  1  0  0  0  0
 19  8  1  0  0  0  0
 20 18  1  0  0  0  0
 21 22  1  0  0  0  0
 22 13  2  0  0  0  0
 23 30  1  0  0  0  0
 24  5  1  0  0  0  0
 25  9  1  0  0  0  0
 26  9  1  0  0  0  0
 27 28  2  0  0  0  0
 28 29  1  0  0  0  0
 29 18  2  0  0  0  0
 30 26  1  0  0  0  0
 31 25  1  0  0  0  0
  5  2  2  0  0  0  0
 15 27  1  0  0  0  0
  4  7  1  0  0  0  0
 31 23  1  0  0  0  0
M  CHG  2   1   1  14  -1
M  END
>  <IDNUMBER>
F2724-0268

>  <Chemical_Name>
2-chloro-N-{3-[6-(morpholin-4-yl)pyridazin-3-yl]phenyl}-4-nitrobenzamide

>  <PriceCoeff>
1.00

>  <CAS>
899985-54-7

>  <MW>
439.85

>  <Description>
solid

>  <FSP3>
0.19

>  <clogP>
2.46

>  <TPSA>
110.49

>  <Acceptor>
6

>  <Donor>
2

>  <RotBonds>
5

>  <HAC>
31

>  <Collection>
General

>  <PPDS>
+

$$$$
F2724-0269
  Mrv2219 10102508112D          

 31 34  0  0  0  0            999 V2000
   -4.1204    1.9387    0.0000 N   0  3  0  0  0  0  0  0  0  0  0  0
   -3.3962    2.3604    0.0000 C   0  0  0  0  0  0  0  0  0  0  0  0
   -2.6904    4.4184    0.0000 C   0  0  0  0  0  0  0  0  0  0  0  0
   -6.2516    7.3059    0.0000 N   0  0  0  0  0  0  0  0  0  0  0  0
   -3.3962    3.1854    0.0000 C   0  0  0  0  0  0  0  0  0  0  0  0
   -5.5366    6.8934    0.0000 N   0  0  0  0  0  0  0  0  0  0  0  0
   -6.2516    8.1309    0.0000 C   0  0  0  0  0  0  0  0  0  0  0  0
   -6.9575    8.5434    0.0000 N   0  0  0  0  0  0  0  0  0  0  0  0
   -2.6904    3.5979    0.0000 C   0  0  0  0  0  0  0  0  0  0  0  0
   -3.3962    4.8309    0.0000 N   0  0  0  0  0  0  0  0  0  0  0  0
   -2.6904    1.9479    0.0000 C   0  0  0  0  0  0  0  0  0  0  0  0
   -4.8216    7.3059    0.0000 C   0  0  0  0  0  0  0  0  0  0  0  0
   -4.8354    2.3604    0.0000 O   0  5  0  0  0  0  0  0  0  0  0  0
   -4.1112    6.8934    0.0000 C   0  0  0  0  0  0  0  0  0  0  0  0
   -4.1204    1.1137    0.0000 O   0  0  0  0  0  0  0  0  0  0  0  0
   -3.3962    5.6559    0.0000 C   0  0  0  0  0  0  0  0  0  0  0  0
   -1.9754    4.8309    0.0000 O   0  0  0  0  0  0  0  0  0  0  0  0
   -4.1112    6.0684    0.0000 C   0  0  0  0  0  0  0  0  0  0  0  0
   -5.5366    8.5434    0.0000 C   0  0  0  0  0  0  0  0  0  0  0  0
   -1.9754    3.1854    0.0000 C   0  0  0  0  0  0  0  0  0  0  0  0
   -4.8216    8.1309    0.0000 C   0  0  0  0  0  0  0  0  0  0  0  0
   -1.9754    2.3604    0.0000 C   0  0  0  0  0  0  0  0  0  0  0  0
   -8.3784    9.3684    0.0000 O   0  0  0  0  0  0  0  0  0  0  0  0
   -2.6904    1.1229    0.0000 Cl  0  0  0  0  0  0  0  0  0  0  0  0
   -7.6634    8.1309    0.0000 C   0  0  0  0  0  0  0  0  0  0  0  0
   -6.9575    9.3684    0.0000 C   0  0  0  0  0  0  0  0  0  0  0  0
   -3.3962    7.3059    0.0000 C   0  0  0  0  0  0  0  0  0  0  0  0
   -2.6904    6.8934    0.0000 C   0  0  0  0  0  0  0  0  0  0  0  0
   -2.6904    6.0684    0.0000 C   0  0  0  0  0  0  0  0  0  0  0  0
   -7.6634    9.7809    0.0000 C   0  0  0  0  0  0  0  0  0  0  0  0
   -8.3784    8.5434    0.0000 C   0  0  0  0  0  0  0  0  0  0  0  0
  2  1  1  0  0  0  0
  3  9  1  0  0  0  0
  4  6  2  0  0  0  0
  5  2  1  0  0  0  0
  6 12  1  0  0  0  0
  7 19  2  0  0  0  0
  8  7  1  0  0  0  0
  9  5  2  0  0  0  0
 10  3  1  0  0  0  0
 11  2  2  0  0  0  0
 12 14  1  0  0  0  0
 13  1  1  0  0  0  0
 14 18  2  0  0  0  0
 15  1  2  0  0  0  0
 16 10  1  0  0  0  0
 17  3  2  0  0  0  0
 18 16  1  0  0  0  0
 19 21  1  0  0  0  0
 20 22  2  0  0  0  0
 21 12  2  0  0  0  0
 22 11  1  0  0  0  0
 23 30  1  0  0  0  0
 24 11  1  0  0  0  0
 25  8  1  0  0  0  0
 26  8  1  0  0  0  0
 27 28  2  0  0  0  0
 28 29  1  0  0  0  0
 29 16  2  0  0  0  0
 30 26  1  0  0  0  0
 31 25  1  0  0  0  0
 20  9  1  0  0  0  0
 14 27  1  0  0  0  0
  4  7  1  0  0  0  0
 31 23  1  0  0  0  0
M  CHG  2   1   1  13  -1
M  END
>  <IDNUMBER>
F2724-0269

>  <Chemical_Name>
4-chloro-N-{3-[6-(morpholin-4-yl)pyridazin-3-yl]phenyl}-3-nitrobenzamide

>  <PriceCoeff>
1.00

>  <CAS>
899745-41-6

>  <MW>
439.85

>  <Description>
solid

>  <FSP3>
0.19

>  <clogP>
3.14

>  <TPSA>
110.49

>  <Acceptor>
6

>  <Donor>
2

>  <RotBonds>
5

>  <HAC>
31

>  <Collection>
General

>  <PPDS>
+

$$$$
F2724-0678
  Mrv2219 10102508112D          

 31 34  0  0  0  0            999 V2000
    0.6485   -2.4193    0.0000 N   0  3  0  0  0  0  0  0  0  0  0  0
    2.7935   -3.6581    0.0000 C   0  0  0  0  0  0  0  0  0  0  0  0
    3.5085   -4.0780    0.0000 C   0  0  0  0  0  0  0  0  0  0  0  0
    8.5051   -5.3168    0.0000 N   0  0  0  0  0  0  0  0  0  0  0  0
    2.7935   -2.8351    0.0000 C   0  0  0  0  0  0  0  0  0  0  0  0
    7.7860   -4.9052    0.0000 N   0  0  0  0  0  0  0  0  0  0  0  0
    8.5051   -6.1398    0.0000 C   0  0  0  0  0  0  0  0  0  0  0  0
    1.3635   -2.8351    0.0000 C   0  0  0  0  0  0  0  0  0  0  0  0
    9.2201   -6.5514    0.0000 N   0  0  0  0  0  0  0  0  0  0  0  0
    2.0826   -2.4235    0.0000 C   0  0  0  0  0  0  0  0  0  0  0  0
    4.2193   -3.6664    0.0000 N   0  0  0  0  0  0  0  0  0  0  0  0
    2.0826   -4.0697    0.0000 C   0  0  0  0  0  0  0  0  0  0  0  0
    0.6527   -1.5880    0.0000 O   0  5  0  0  0  0  0  0  0  0  0  0
    7.0751   -5.3168    0.0000 C   0  0  0  0  0  0  0  0  0  0  0  0
   -0.0624   -2.8309    0.0000 O   0  0  0  0  0  0  0  0  0  0  0  0
    3.5085   -4.9052    0.0000 O   0  0  0  0  0  0  0  0  0  0  0  0
    6.3643   -4.9052    0.0000 C   0  0  0  0  0  0  0  0  0  0  0  0
    1.3635   -3.6581    0.0000 C   0  0  0  0  0  0  0  0  0  0  0  0
    7.7860   -6.5514    0.0000 C   0  0  0  0  0  0  0  0  0  0  0  0
    7.0751   -6.1398    0.0000 C   0  0  0  0  0  0  0  0  0  0  0  0
   10.6501   -7.3827    0.0000 O   0  0  0  0  0  0  0  0  0  0  0  0
    4.9384   -4.0780    0.0000 C   0  0  0  0  0  0  0  0  0  0  0  0
    6.3643   -4.0780    0.0000 C   0  0  0  0  0  0  0  0  0  0  0  0
    5.6493   -5.3168    0.0000 C   0  0  0  0  0  0  0  0  0  0  0  0
    3.5085   -2.4111    0.0000 Cl  0  0  0  0  0  0  0  0  0  0  0  0
    4.9384   -4.9052    0.0000 C   0  0  0  0  0  0  0  0  0  0  0  0
    5.6535   -3.6664    0.0000 C   0  0  0  0  0  0  0  0  0  0  0  0
    9.2201   -7.3827    0.0000 C   0  0  0  0  0  0  0  0  0  0  0  0
    9.9310   -6.1398    0.0000 C   0  0  0  0  0  0  0  0  0  0  0  0
   10.6501   -6.5514    0.0000 C   0  0  0  0  0  0  0  0  0  0  0  0
    9.9310   -7.7943    0.0000 C   0  0  0  0  0  0  0  0  0  0  0  0
  2 12  1  0  0  0  0
  3  2  1  0  0  0  0
  4  6  2  0  0  0  0
  5 10  1  0  0  0  0
  6 14  1  0  0  0  0
  7 19  2  0  0  0  0
  8  1  1  0  0  0  0
  9  7  1  0  0  0  0
 10  8  2  0  0  0  0
 11  3  1  0  0  0  0
 12 18  2  0  0  0  0
 13  1  1  0  0  0  0
 14 17  1  0  0  0  0
 15  1  2  0  0  0  0
 16  3  2  0  0  0  0
 17 23  2  0  0  0  0
 18  8  1  0  0  0  0
 19 20  1  0  0  0  0
 20 14  2  0  0  0  0
 21 30  1  0  0  0  0
 22 11  1  0  0  0  0
 23 27  1  0  0  0  0
 24 26  2  0  0  0  0
 25  5  1  0  0  0  0
 26 22  1  0  0  0  0
 27 22  2  0  0  0  0
 28  9  1  0  0  0  0
 29  9  1  0  0  0  0
 30 29  1  0  0  0  0
 31 28  1  0  0  0  0
  5  2  2  0  0  0  0
 17 24  1  0  0  0  0
  7  4  1  0  0  0  0
 21 31  1  0  0  0  0
M  CHG  2   1   1  13  -1
M  END
>  <IDNUMBER>
F2724-0678

>  <Chemical_Name>
2-chloro-N-{4-[6-(morpholin-4-yl)pyridazin-3-yl]phenyl}-4-nitrobenzamide

>  <PriceCoeff>
1.00

>  <CAS>
899985-97-8

>  <MW>
439.85

>  <Description>
solid

>  <FSP3>
0.19

>  <clogP>
2.46

>  <TPSA>
110.49

>  <Acceptor>
6

>  <Donor>
2

>  <RotBonds>
5

>  <HAC>
31

>  <Collection>
General

>  <PPDS>
+

$$$$
F2724-0679
  Mrv2219 10102508112D          

 31 34  0  0  0  0            999 V2000
   -5.5359    6.8054    0.0000 N   0  3  0  0  0  0  0  0  0  0  0  0
   -5.5359    5.9805    0.0000 C   0  0  0  0  0  0  0  0  0  0  0  0
   -4.1061    4.3307    0.0000 C   0  0  0  0  0  0  0  0  0  0  0  0
   -4.1061    9.2802    0.0000 N   0  0  0  0  0  0  0  0  0  0  0  0
   -4.8210    5.5680    0.0000 C   0  0  0  0  0  0  0  0  0  0  0  0
   -4.1061    8.4552    0.0000 N   0  0  0  0  0  0  0  0  0  0  0  0
   -3.3958    9.6925    0.0000 C   0  0  0  0  0  0  0  0  0  0  0  0
   -3.3958   10.5174    0.0000 N   0  0  0  0  0  0  0  0  0  0  0  0
   -4.8210    4.7432    0.0000 C   0  0  0  0  0  0  0  0  0  0  0  0
   -3.3958    4.7432    0.0000 N   0  0  0  0  0  0  0  0  0  0  0  0
   -6.2508    5.5680    0.0000 C   0  0  0  0  0  0  0  0  0  0  0  0
   -4.8210    7.2179    0.0000 O   0  5  0  0  0  0  0  0  0  0  0  0
   -3.3958    8.0427    0.0000 C   0  0  0  0  0  0  0  0  0  0  0  0
   -6.2508    7.2179    0.0000 O   0  0  0  0  0  0  0  0  0  0  0  0
   -3.3958    7.2179    0.0000 C   0  0  0  0  0  0  0  0  0  0  0  0
   -4.1061    3.5012    0.0000 O   0  0  0  0  0  0  0  0  0  0  0  0
   -2.6809    9.2802    0.0000 C   0  0  0  0  0  0  0  0  0  0  0  0
   -5.5359    4.3307    0.0000 C   0  0  0  0  0  0  0  0  0  0  0  0
   -6.2508    4.7432    0.0000 C   0  0  0  0  0  0  0  0  0  0  0  0
   -2.6809    8.4552    0.0000 C   0  0  0  0  0  0  0  0  0  0  0  0
   -3.3958   12.1672    0.0000 O   0  0  0  0  0  0  0  0  0  0  0  0
   -3.3958    5.5680    0.0000 C   0  0  0  0  0  0  0  0  0  0  0  0
   -4.1107    6.8054    0.0000 C   0  0  0  0  0  0  0  0  0  0  0  0
   -2.6901    6.8054    0.0000 C   0  0  0  0  0  0  0  0  0  0  0  0
   -6.9613    5.9852    0.0000 Cl  0  0  0  0  0  0  0  0  0  0  0  0
   -2.6901    5.9805    0.0000 C   0  0  0  0  0  0  0  0  0  0  0  0
   -4.1107    5.9805    0.0000 C   0  0  0  0  0  0  0  0  0  0  0  0
   -2.6901   10.9299    0.0000 C   0  0  0  0  0  0  0  0  0  0  0  0
   -4.1107   10.9299    0.0000 C   0  0  0  0  0  0  0  0  0  0  0  0
   -4.1107   11.7548    0.0000 C   0  0  0  0  0  0  0  0  0  0  0  0
   -2.6901   11.7548    0.0000 C   0  0  0  0  0  0  0  0  0  0  0  0
  2  1  1  0  0  0  0
  3  9  1  0  0  0  0
  4  6  2  0  0  0  0
  5  2  1  0  0  0  0
  6 13  1  0  0  0  0
  7 17  2  0  0  0  0
  8  7  1  0  0  0  0
  9  5  2  0  0  0  0
 10  3  1  0  0  0  0
 11  2  2  0  0  0  0
 12  1  1  0  0  0  0
 13 15  1  0  0  0  0
 14  1  2  0  0  0  0
 15 23  2  0  0  0  0
 16  3  2  0  0  0  0
 17 20  1  0  0  0  0
 18 19  2  0  0  0  0
 19 11  1  0  0  0  0
 20 13  2  0  0  0  0
 21 30  1  0  0  0  0
 22 10  1  0  0  0  0
 23 27  1  0  0  0  0
 24 26  2  0  0  0  0
 25 11  1  0  0  0  0
 26 22  1  0  0  0  0
 27 22  2  0  0  0  0
 28  8  1  0  0  0  0
 29  8  1  0  0  0  0
 30 29  1  0  0  0  0
 31 28  1  0  0  0  0
 18  9  1  0  0  0  0
 15 24  1  0  0  0  0
  7  4  1  0  0  0  0
 21 31  1  0  0  0  0
M  CHG  2   1   1  12  -1
M  END
>  <IDNUMBER>
F2724-0679

>  <Chemical_Name>
4-chloro-N-{4-[6-(morpholin-4-yl)pyridazin-3-yl]phenyl}-3-nitrobenzamide

>  <PriceCoeff>
1.00

>  <CAS>
899745-97-2

>  <MW>
439.85

>  <Description>
solid

>  <FSP3>
0.19

>  <clogP>
3.14

>  <TPSA>
110.49

>  <Acceptor>
6

>  <Donor>
2

>  <RotBonds>
5

>  <HAC>
31

>  <Collection>
General

>  <PPDS>
+

$$$$
F2724-1006
  Mrv2219 10102508112D          

 27 29  0  0  0  0            999 V2000
   -2.9225    1.2185    0.0000 N   0  3  0  0  0  0  0  0  0  0  0  0
   -2.9225    3.6921    0.0000 C   0  0  0  0  0  0  0  0  0  0  0  0
   -2.9225    4.5259    0.0000 C   0  0  0  0  0  0  0  0  0  0  0  0
   -3.6371    3.2798    0.0000 C   0  0  0  0  0  0  0  0  0  0  0  0
   -5.7443    6.9995    0.0000 N   0  0  0  0  0  0  0  0  0  0  0  0
   -2.9225    2.0430    0.0000 C   0  0  0  0  0  0  0  0  0  0  0  0
   -3.6371    2.4553    0.0000 C   0  0  0  0  0  0  0  0  0  0  0  0
   -6.4589    7.4118    0.0000 N   0  0  0  0  0  0  0  0  0  0  0  0
   -3.6234    4.9381    0.0000 N   0  0  0  0  0  0  0  0  0  0  0  0
   -2.2079    3.2798    0.0000 C   0  0  0  0  0  0  0  0  0  0  0  0
   -5.0388    7.4118    0.0000 C   0  0  0  0  0  0  0  0  0  0  0  0
   -3.6371    0.8062    0.0000 O   0  5  0  0  0  0  0  0  0  0  0  0
   -4.3242    6.9995    0.0000 C   0  0  0  0  0  0  0  0  0  0  0  0
   -2.2079    0.8062    0.0000 O   0  0  0  0  0  0  0  0  0  0  0  0
   -6.4589    8.2363    0.0000 C   0  0  0  0  0  0  0  0  0  0  0  0
   -2.2079    4.9381    0.0000 O   0  0  0  0  0  0  0  0  0  0  0  0
   -3.6142    5.7627    0.0000 C   0  0  0  0  0  0  0  0  0  0  0  0
   -2.2079    2.4553    0.0000 C   0  0  0  0  0  0  0  0  0  0  0  0
   -4.3242    6.1749    0.0000 C   0  0  0  0  0  0  0  0  0  0  0  0
   -5.0388    8.2363    0.0000 C   0  0  0  0  0  0  0  0  0  0  0  0
   -4.3517    3.7058    0.0000 Cl  0  0  0  0  0  0  0  0  0  0  0  0
   -5.7443    8.6486    0.0000 C   0  0  0  0  0  0  0  0  0  0  0  0
   -7.1781    8.6486    0.0000 O   0  0  0  0  0  0  0  0  0  0  0  0
   -3.6096    7.4118    0.0000 C   0  0  0  0  0  0  0  0  0  0  0  0
   -2.8950    6.9995    0.0000 C   0  0  0  0  0  0  0  0  0  0  0  0
   -2.8950    6.1749    0.0000 C   0  0  0  0  0  0  0  0  0  0  0  0
   -7.8927    8.2363    0.0000 C   0  0  0  0  0  0  0  0  0  0  0  0
  2 10  1  0  0  0  0
  3  2  1  0  0  0  0
  4  7  1  0  0  0  0
  5 11  2  0  0  0  0
  6  1  1  0  0  0  0
  7  6  2  0  0  0  0
  8  5  1  0  0  0  0
  9  3  1  0  0  0  0
 10 18  2  0  0  0  0
 11 13  1  0  0  0  0
 12  1  1  0  0  0  0
 13 19  2  0  0  0  0
 14  1  2  0  0  0  0
 15 22  1  0  0  0  0
 16  3  2  0  0  0  0
 17  9  1  0  0  0  0
 18  6  1  0  0  0  0
 19 17  1  0  0  0  0
 20 11  1  0  0  0  0
 21  4  1  0  0  0  0
 22 20  2  0  0  0  0
 23 15  1  0  0  0  0
 24 25  2  0  0  0  0
 25 26  1  0  0  0  0
 26 17  2  0  0  0  0
 27 23  1  0  0  0  0
  4  2  2  0  0  0  0
 13 24  1  0  0  0  0
  8 15  2  0  0  0  0
M  CHG  2   1   1  12  -1
M  END
>  <IDNUMBER>
F2724-1006

>  <Chemical_Name>
2-chloro-N-[3-(6-methoxypyridazin-3-yl)phenyl]-4-nitrobenzamide

>  <PriceCoeff>
1.00

>  <CAS>
899986-29-9

>  <MW>
384.77

>  <Description>
solid

>  <FSP3>
0.06

>  <clogP>
2.87

>  <TPSA>
107.25

>  <Acceptor>
6

>  <Donor>
1

>  <RotBonds>
5

>  <HAC>
27

>  <Collection>
General

>  <PPDS>
+

$$$$
F2724-1089
  Mrv2219 10102508112D          

 27 29  0  0  0  0            999 V2000
   -5.5366    7.0446    0.0000 N   0  3  0  0  0  0  0  0  0  0  0  0
   -5.5366    6.2196    0.0000 C   0  0  0  0  0  0  0  0  0  0  0  0
   -4.1066    4.5696    0.0000 C   0  0  0  0  0  0  0  0  0  0  0  0
   -4.8216    5.8071    0.0000 C   0  0  0  0  0  0  0  0  0  0  0  0
   -4.1066    8.6946    0.0000 N   0  0  0  0  0  0  0  0  0  0  0  0
   -4.1066    9.5196    0.0000 N   0  0  0  0  0  0  0  0  0  0  0  0
   -4.8216    4.9821    0.0000 C   0  0  0  0  0  0  0  0  0  0  0  0
   -3.3916    4.9821    0.0000 N   0  0  0  0  0  0  0  0  0  0  0  0
   -6.2425    5.8071    0.0000 C   0  0  0  0  0  0  0  0  0  0  0  0
   -4.8216    7.4571    0.0000 O   0  5  0  0  0  0  0  0  0  0  0  0
   -3.3916    8.2821    0.0000 C   0  0  0  0  0  0  0  0  0  0  0  0
   -6.2425    7.4571    0.0000 O   0  0  0  0  0  0  0  0  0  0  0  0
   -3.3916    9.9321    0.0000 C   0  0  0  0  0  0  0  0  0  0  0  0
   -3.3916    7.4571    0.0000 C   0  0  0  0  0  0  0  0  0  0  0  0
   -4.1066    3.7400    0.0000 O   0  0  0  0  0  0  0  0  0  0  0  0
   -5.5366    4.5696    0.0000 C   0  0  0  0  0  0  0  0  0  0  0  0
   -6.2425    4.9821    0.0000 C   0  0  0  0  0  0  0  0  0  0  0  0
   -2.6812    8.6946    0.0000 C   0  0  0  0  0  0  0  0  0  0  0  0
   -3.3916    5.8071    0.0000 C   0  0  0  0  0  0  0  0  0  0  0  0
   -4.1066    7.0446    0.0000 C   0  0  0  0  0  0  0  0  0  0  0  0
   -2.6812    7.0446    0.0000 C   0  0  0  0  0  0  0  0  0  0  0  0
   -2.6812    9.5196    0.0000 C   0  0  0  0  0  0  0  0  0  0  0  0
   -6.9621    6.2196    0.0000 Cl  0  0  0  0  0  0  0  0  0  0  0  0
   -4.1066    6.2196    0.0000 C   0  0  0  0  0  0  0  0  0  0  0  0
   -2.6812    6.2196    0.0000 C   0  0  0  0  0  0  0  0  0  0  0  0
   -3.3916   10.7571    0.0000 O   0  0  0  0  0  0  0  0  0  0  0  0
   -4.1066   11.1696    0.0000 C   0  0  0  0  0  0  0  0  0  0  0  0
  2  1  1  0  0  0  0
  3  7  1  0  0  0  0
  4  2  1  0  0  0  0
  5 11  2  0  0  0  0
  6  5  1  0  0  0  0
  7  4  2  0  0  0  0
  8  3  1  0  0  0  0
  9  2  2  0  0  0  0
 10  1  1  0  0  0  0
 11 14  1  0  0  0  0
 12  1  2  0  0  0  0
 13 22  1  0  0  0  0
 14 21  1  0  0  0  0
 15  3  2  0  0  0  0
 16 17  2  0  0  0  0
 17  9  1  0  0  0  0
 18 11  1  0  0  0  0
 19  8  1  0  0  0  0
 20 24  1  0  0  0  0
 21 25  2  0  0  0  0
 22 18  2  0  0  0  0
 23  9  1  0  0  0  0
 24 19  2  0  0  0  0
 25 19  1  0  0  0  0
 26 13  1  0  0  0  0
 27 26  1  0  0  0  0
 16  7  1  0  0  0  0
 20 14  2  0  0  0  0
  6 13  2  0  0  0  0
M  CHG  2   1   1  10  -1
M  END
>  <IDNUMBER>
F2724-1089

>  <Chemical_Name>
4-chloro-N-[4-(6-methoxypyridazin-3-yl)phenyl]-3-nitrobenzamide

>  <PriceCoeff>
1.00

>  <CAS>
941941-08-8

>  <MW>
384.77

>  <Description>
solid

>  <FSP3>
0.06

>  <clogP>
3.55

>  <TPSA>
107.25

>  <Acceptor>
6

>  <Donor>
1

>  <RotBonds>
5

>  <HAC>
27

>  <Collection>
General

>  <PPDS>
+

$$$$
F2733-0046
  Mrv2219 10102508112D          

 25 28  0  0  0  0            999 V2000
    0.8789    5.7482    0.0000 N   0  0  0  0  0  0  0  0  0  0  0  0
   -2.4825    2.6075    0.0000 C   0  0  0  0  0  0  0  0  0  0  0  0
   -3.2947    2.7199    0.0000 C   0  0  0  0  0  0  0  0  0  0  0  0
   -1.9827    3.2573    0.0000 N   0  0  0  0  0  0  0  0  0  0  0  0
   -1.1579    3.1490    0.0000 C   0  0  0  0  0  0  0  0  0  0  0  0
    0.6165    6.5271    0.0000 C   0  0  0  0  0  0  0  0  0  0  0  0
    1.6912    5.7524    0.0000 C   0  0  0  0  0  0  0  0  0  0  0  0
   -3.8071    2.0701    0.0000 C   0  0  0  0  0  0  0  0  0  0  0  0
   -2.1701    1.8452    0.0000 N   0  0  0  0  0  0  0  0  0  0  0  0
   -3.4947    1.3079    0.0000 N   0  0  0  0  0  0  0  0  0  0  0  0
   -4.5818    2.3493    0.0000 S   0  0  0  0  0  0  0  0  0  0  0  0
    0.3666    5.0901    0.0000 C   0  0  0  0  0  0  0  0  0  0  0  0
   -2.6824    1.1954    0.0000 C   0  0  0  0  0  0  0  0  0  0  0  0
   -0.6581    3.7988    0.0000 C   0  0  0  0  0  0  0  0  0  0  0  0
   -4.5568    3.1740    0.0000 C   0  0  0  0  0  0  0  0  0  0  0  0
   -3.7571    3.4072    0.0000 C   0  0  0  0  0  0  0  0  0  0  0  0
   -0.8497    2.3825    0.0000 O   0  0  0  0  0  0  0  0  0  0  0  0
    1.2871    7.0270    0.0000 C   0  0  0  0  0  0  0  0  0  0  0  0
    1.9411    6.5396    0.0000 C   0  0  0  0  0  0  0  0  0  0  0  0
   -0.1832    6.7978    0.0000 O   0  0  0  0  0  0  0  0  0  0  0  0
    2.1868    5.0901    0.0000 O   0  0  0  0  0  0  0  0  0  0  0  0
   -0.4624    5.2150    0.0000 C   0  0  0  0  0  0  0  0  0  0  0  0
    0.6623    4.3278    0.0000 C   0  0  0  0  0  0  0  0  0  0  0  0
    0.1542    3.6946    0.0000 C   0  0  0  0  0  0  0  0  0  0  0  0
   -0.9705    4.5652    0.0000 C   0  0  0  0  0  0  0  0  0  0  0  0
  2  4  1  0  0  0  0
  3  2  1  0  0  0  0
  4  5  1  0  0  0  0
  5 14  1  0  0  0  0
  6  1  1  0  0  0  0
  7  1  1  0  0  0  0
  8  3  2  0  0  0  0
  9  2  2  0  0  0  0
 10 13  2  0  0  0  0
 11  8  1  0  0  0  0
 12  1  1  0  0  0  0
 13  9  1  0  0  0  0
 14 24  2  0  0  0  0
 15 16  2  0  0  0  0
 16  3  1  0  0  0  0
 17  5  2  0  0  0  0
 18  6  1  0  0  0  0
 19  7  1  0  0  0  0
 20  6  2  0  0  0  0
 21  7  2  0  0  0  0
 22 12  1  0  0  0  0
 23 12  2  0  0  0  0
 24 23  1  0  0  0  0
 25 22  2  0  0  0  0
 18 19  1  0  0  0  0
 25 14  1  0  0  0  0
 10  8  1  0  0  0  0
 11 15  1  0  0  0  0
M  END
>  <IDNUMBER>
F2733-0046

>  <Chemical_Name>
4-(2,5-dioxopyrrolidin-1-yl)-N-{thieno[2,3-d]pyrimidin-4-yl}benzamide

>  <PriceCoeff>
1.00

>  <CAS>
1004052-97-4

>  <MW>
352.37

>  <Description>
solid

>  <FSP3>
0.12

>  <clogP>
0.67

>  <TPSA>
120.50

>  <Acceptor>
5

>  <Donor>
1

>  <RotBonds>
3

>  <HAC>
25

>  <Collection>
General

>  <PPDS>
+

$$$$
F2733-0061
  Mrv2219 10102508112D          

 25 28  0  0  0  0            999 V2000
    1.4903    4.2128    0.0000 N   0  0  0  0  0  0  0  0  0  0  0  0
   -2.4810    2.6059    0.0000 C   0  0  0  0  0  0  0  0  0  0  0  0
   -3.2927    2.7183    0.0000 C   0  0  0  0  0  0  0  0  0  0  0  0
   -1.9815    3.2553    0.0000 N   0  0  0  0  0  0  0  0  0  0  0  0
    0.6661    4.3335    0.0000 C   0  0  0  0  0  0  0  0  0  0  0  0
   -1.1572    3.1471    0.0000 C   0  0  0  0  0  0  0  0  0  0  0  0
    2.0856    4.7873    0.0000 C   0  0  0  0  0  0  0  0  0  0  0  0
    1.8400    3.4801    0.0000 C   0  0  0  0  0  0  0  0  0  0  0  0
   -3.8048    2.0689    0.0000 C   0  0  0  0  0  0  0  0  0  0  0  0
   -2.1688    1.8441    0.0000 N   0  0  0  0  0  0  0  0  0  0  0  0
   -3.4926    1.3071    0.0000 N   0  0  0  0  0  0  0  0  0  0  0  0
    0.1541    3.6924    0.0000 C   0  0  0  0  0  0  0  0  0  0  0  0
   -0.6577    3.7965    0.0000 C   0  0  0  0  0  0  0  0  0  0  0  0
   -4.5791    2.3478    0.0000 S   0  0  0  0  0  0  0  0  0  0  0  0
   -2.6808    1.1947    0.0000 C   0  0  0  0  0  0  0  0  0  0  0  0
   -4.5541    3.1721    0.0000 C   0  0  0  0  0  0  0  0  0  0  0  0
   -3.7548    3.4051    0.0000 C   0  0  0  0  0  0  0  0  0  0  0  0
   -0.8492    2.3811    0.0000 O   0  0  0  0  0  0  0  0  0  0  0  0
    2.8141    4.4001    0.0000 C   0  0  0  0  0  0  0  0  0  0  0  0
    2.6767    3.6050    0.0000 C   0  0  0  0  0  0  0  0  0  0  0  0
    1.9857    5.5990    0.0000 O   0  0  0  0  0  0  0  0  0  0  0  0
    1.4529    2.7557    0.0000 O   0  0  0  0  0  0  0  0  0  0  0  0
    0.3664    5.0995    0.0000 C   0  0  0  0  0  0  0  0  0  0  0  0
   -0.9699    4.5625    0.0000 C   0  0  0  0  0  0  0  0  0  0  0  0
   -0.4579    5.2119    0.0000 C   0  0  0  0  0  0  0  0  0  0  0  0
  2  4  1  0  0  0  0
  3  2  1  0  0  0  0
  4  6  1  0  0  0  0
  5  1  1  0  0  0  0
  6 13  1  0  0  0  0
  7  1  1  0  0  0  0
  8  1  1  0  0  0  0
  9  3  2  0  0  0  0
 10  2  2  0  0  0  0
 11 15  2  0  0  0  0
 12  5  1  0  0  0  0
 13 12  2  0  0  0  0
 14  9  1  0  0  0  0
 15 10  1  0  0  0  0
 16 17  2  0  0  0  0
 17  3  1  0  0  0  0
 18  6  2  0  0  0  0
 19  7  1  0  0  0  0
 20  8  1  0  0  0  0
 21  7  2  0  0  0  0
 22  8  2  0  0  0  0
 23  5  2  0  0  0  0
 24 25  2  0  0  0  0
 25 23  1  0  0  0  0
 19 20  1  0  0  0  0
 13 24  1  0  0  0  0
 11  9  1  0  0  0  0
 14 16  1  0  0  0  0
M  END
>  <IDNUMBER>
F2733-0061

>  <Chemical_Name>
3-(2,5-dioxopyrrolidin-1-yl)-N-{thieno[2,3-d]pyrimidin-4-yl}benzamide

>  <PriceCoeff>
1.00

>  <MW>
352.37

>  <Description>
solid

>  <FSP3>
0.12

>  <clogP>
0.67

>  <TPSA>
111.81

>  <Acceptor>
5

>  <Donor>
1

>  <RotBonds>
3

>  <HAC>
25

>  <Collection>
General

$$$$
F2736-1116
  Mrv2219 10102508112D          

 36 39  0  0  0  0            999 V2000
   -2.4129    3.7640    0.0000 C   0  0  0  0  0  0  0  0  0  0  0  0
   -3.1318    4.1690    0.0000 N   0  0  0  0  0  0  0  0  0  0  0  0
   -1.6568    4.1028    0.0000 N   0  0  0  0  0  0  0  0  0  0  0  0
   -3.8508    0.5082    0.0000 N   0  0  0  0  0  0  0  0  0  0  0  0
   -2.3385    2.9459    0.0000 S   0  0  0  0  0  0  0  0  0  0  0  0
   -3.8384    3.7682    0.0000 C   0  0  0  0  0  0  0  0  0  0  0  0
   -4.4705    0.0082    0.0000 C   0  0  0  0  0  0  0  0  0  0  0  0
   -3.1690    0.0578    0.0000 C   0  0  0  0  0  0  0  0  0  0  0  0
   -1.5122    2.7724    0.0000 C   0  0  0  0  0  0  0  0  0  0  0  0
   -1.1032    3.4913    0.0000 C   0  0  0  0  0  0  0  0  0  0  0  0
   -3.8425    1.3263    0.0000 C   0  0  0  0  0  0  0  0  0  0  0  0
   -3.8384    2.9583    0.0000 C   0  0  0  0  0  0  0  0  0  0  0  0
   -1.6982    6.3464    0.0000 N   0  0  0  0  0  0  0  0  0  0  0  0
   -4.5449    4.1690    0.0000 O   0  0  0  0  0  0  0  0  0  0  0  0
   -1.0990    2.0534    0.0000 C   0  0  0  0  0  0  0  0  0  0  0  0
   -4.1978   -0.7561    0.0000 C   0  0  0  0  0  0  0  0  0  0  0  0
   -3.3921   -0.7313    0.0000 C   0  0  0  0  0  0  0  0  0  0  0  0
   -5.2638    0.2313    0.0000 O   0  0  0  0  0  0  0  0  0  0  0  0
   -2.3881    0.3347    0.0000 O   0  0  0  0  0  0  0  0  0  0  0  0
   -0.2727    3.4955    0.0000 C   0  0  0  0  0  0  0  0  0  0  0  0
   -3.1236    1.7312    0.0000 C   0  0  0  0  0  0  0  0  0  0  0  0
   -4.5449    1.7353    0.0000 C   0  0  0  0  0  0  0  0  0  0  0  0
   -4.5325    2.5617    0.0000 C   0  0  0  0  0  0  0  0  0  0  0  0
   -3.1194    2.5493    0.0000 C   0  0  0  0  0  0  0  0  0  0  0  0
   -0.2685    7.1686    0.0000 O   0  0  0  0  0  0  0  0  0  0  0  0
   -3.1318    4.6896    0.0000 C   0  0  0  0  0  0  0  0  0  0  0  0
   -2.4129    5.1068    0.0000 C   0  0  0  0  0  0  0  0  0  0  0  0
   -0.2727    2.0534    0.0000 C   0  0  0  0  0  0  0  0  0  0  0  0
    0.1281    2.7765    0.0000 C   0  0  0  0  0  0  0  0  0  0  0  0
   -2.4171    5.9291    0.0000 C   0  0  0  0  0  0  0  0  0  0  0  0
   -1.7064    7.1686    0.0000 C   0  0  0  0  0  0  0  0  0  0  0  0
   -0.9875    5.9291    0.0000 C   0  0  0  0  0  0  0  0  0  0  0  0
   -0.2727    6.3381    0.0000 C   0  0  0  0  0  0  0  0  0  0  0  0
   -0.9875    7.5859    0.0000 C   0  0  0  0  0  0  0  0  0  0  0  0
    0.1405    1.3387    0.0000 C   0  0  0  0  0  0  0  0  0  0  0  0
    1.5164    3.5079    0.0000 Cl  0  0  0  0  0  0  0  0  0  0  0  0
  3  1  2  0  0  0  0
  4 11  1  0  0  0  0
  5  1  1  0  0  0  0
  6  2  1  0  0  0  0
  7  4  1  0  0  0  0
  8  4  1  0  0  0  0
  9  5  1  0  0  0  0
 10  3  1  0  0  0  0
 11 21  1  0  0  0  0
 12  6  1  0  0  0  0
 13 30  1  0  0  0  0
 14  6  2  0  0  0  0
 15  9  1  0  0  0  0
 16  7  1  0  0  0  0
 17  8  1  0  0  0  0
 18  7  2  0  0  0  0
 19  8  2  0  0  0  0
 20 10  1  0  0  0  0
 21 24  2  0  0  0  0
 22 23  1  0  0  0  0
 23 12  2  0  0  0  0
 24 12  1  0  0  0  0
 25 33  1  0  0  0  0
 26  2  1  0  0  0  0
 27 26  1  0  0  0  0
 28 15  2  0  0  0  0
 29 20  2  0  0  0  0
 30 27  1  0  0  0  0
 31 13  1  0  0  0  0
 32 13  1  0  0  0  0
 33 32  1  0  0  0  0
 34 31  1  0  0  0  0
 35 28  1  0  0  0  0
  9 10  2  0  0  0  0
 29 28  1  0  0  0  0
 11 22  2  0  0  0  0
 25 34  1  0  0  0  0
 17 16  1  0  0  0  0
  2  1  1  0  0  0  0
M  END
>  <IDNUMBER>
F2736-1116

>  <Chemical_Name>
4-(2,5-dioxopyrrolidin-1-yl)-N-(6-methyl-1,3-benzothiazol-2-yl)-N-[3-(morpholin-4-yl)propyl]benzamide hydrochloride

>  <PriceCoeff>
1.00

>  <CAS>
1330286-35-5

>  <MW>
492.59

>  <Description>
solid

>  <FSP3>
0.38

>  <clogP>
1.79

>  <TPSA>
111.29

>  <Acceptor>
5

>  <Donor>
1

>  <RotBonds>
8

>  <HAC>
35

>  <Collection>
General

>  <PPDS>
+

$$$$
F2736-1881
  Mrv2219 10102508112D          

 36 39  0  0  0  0            999 V2000
   -2.4210    3.7766    0.0000 C   0  0  0  0  0  0  0  0  0  0  0  0
   -3.1423    4.1829    0.0000 N   0  0  0  0  0  0  0  0  0  0  0  0
   -1.6748    4.1207    0.0000 N   0  0  0  0  0  0  0  0  0  0  0  0
   -3.8636    0.5099    0.0000 N   0  0  0  0  0  0  0  0  0  0  0  0
   -2.3381    2.9682    0.0000 S   0  0  0  0  0  0  0  0  0  0  0  0
   -3.8512    3.7808    0.0000 C   0  0  0  0  0  0  0  0  0  0  0  0
   -1.5255    2.7941    0.0000 C   0  0  0  0  0  0  0  0  0  0  0  0
   -4.4855    0.0083    0.0000 C   0  0  0  0  0  0  0  0  0  0  0  0
   -3.1796    0.0580    0.0000 C   0  0  0  0  0  0  0  0  0  0  0  0
   -1.1151    3.5154    0.0000 C   0  0  0  0  0  0  0  0  0  0  0  0
   -3.8554    1.3307    0.0000 C   0  0  0  0  0  0  0  0  0  0  0  0
   -1.1069    2.0769    0.0000 C   0  0  0  0  0  0  0  0  0  0  0  0
   -3.8512    2.9682    0.0000 C   0  0  0  0  0  0  0  0  0  0  0  0
   -1.7121    6.3593    0.0000 N   0  0  0  0  0  0  0  0  0  0  0  0
   -4.5601    4.1829    0.0000 O   0  0  0  0  0  0  0  0  0  0  0  0
   -4.2119   -0.7586    0.0000 C   0  0  0  0  0  0  0  0  0  0  0  0
   -3.4035   -0.7338    0.0000 C   0  0  0  0  0  0  0  0  0  0  0  0
   -5.2814    0.2321    0.0000 O   0  0  0  0  0  0  0  0  0  0  0  0
   -2.3961    0.3358    0.0000 O   0  0  0  0  0  0  0  0  0  0  0  0
   -0.2819    3.5154    0.0000 C   0  0  0  0  0  0  0  0  0  0  0  0
   -3.1340    1.7370    0.0000 C   0  0  0  0  0  0  0  0  0  0  0  0
   -4.5601    1.7411    0.0000 C   0  0  0  0  0  0  0  0  0  0  0  0
   -4.5476    2.5702    0.0000 C   0  0  0  0  0  0  0  0  0  0  0  0
   -3.1299    2.5578    0.0000 C   0  0  0  0  0  0  0  0  0  0  0  0
   -0.2736    7.1926    0.0000 O   0  0  0  0  0  0  0  0  0  0  0  0
   -3.1423    4.7052    0.0000 C   0  0  0  0  0  0  0  0  0  0  0  0
   -0.2819    2.0769    0.0000 C   0  0  0  0  0  0  0  0  0  0  0  0
   -2.4252    5.1157    0.0000 C   0  0  0  0  0  0  0  0  0  0  0  0
    0.1161    2.7983    0.0000 C   0  0  0  0  0  0  0  0  0  0  0  0
    0.2156    1.3265    0.0000 F   0  0  0  0  0  0  0  0  0  0  0  0
   -2.4334    5.9489    0.0000 C   0  0  0  0  0  0  0  0  0  0  0  0
   -0.9949    5.9365    0.0000 C   0  0  0  0  0  0  0  0  0  0  0  0
   -1.7163    7.1801    0.0000 C   0  0  0  0  0  0  0  0  0  0  0  0
   -1.0032    7.6030    0.0000 C   0  0  0  0  0  0  0  0  0  0  0  0
   -0.2819    6.3593    0.0000 C   0  0  0  0  0  0  0  0  0  0  0  0
    1.6624    3.5154    0.0000 Cl  0  0  0  0  0  0  0  0  0  0  0  0
  3  1  2  0  0  0  0
  4 11  1  0  0  0  0
  5  1  1  0  0  0  0
  6  2  1  0  0  0  0
  7  5  1  0  0  0  0
  8  4  1  0  0  0  0
  9  4  1  0  0  0  0
 10  3  1  0  0  0  0
 11 21  1  0  0  0  0
 12  7  1  0  0  0  0
 13  6  1  0  0  0  0
 14 31  1  0  0  0  0
 15  6  2  0  0  0  0
 16  8  1  0  0  0  0
 17  9  1  0  0  0  0
 18  8  2  0  0  0  0
 19  9  2  0  0  0  0
 20 10  1  0  0  0  0
 21 24  2  0  0  0  0
 22 23  1  0  0  0  0
 23 13  2  0  0  0  0
 24 13  1  0  0  0  0
 25 34  1  0  0  0  0
 26  2  1  0  0  0  0
 27 12  2  0  0  0  0
 28 26  1  0  0  0  0
 29 20  2  0  0  0  0
 30 27  1  0  0  0  0
 31 28  1  0  0  0  0
 32 14  1  0  0  0  0
 33 14  1  0  0  0  0
 34 33  1  0  0  0  0
 35 32  1  0  0  0  0
  7 10  2  0  0  0  0
 29 27  1  0  0  0  0
 11 22  2  0  0  0  0
 25 35  1  0  0  0  0
 17 16  1  0  0  0  0
  2  1  1  0  0  0  0
M  END
>  <IDNUMBER>
F2736-1881

>  <Chemical_Name>
4-(2,5-dioxopyrrolidin-1-yl)-N-(6-fluoro-1,3-benzothiazol-2-yl)-N-[3-(morpholin-4-yl)propyl]benzamide hydrochloride

>  <PriceCoeff>
1.00

>  <CAS>
1330393-26-4

>  <MW>
496.55

>  <Description>
solid

>  <FSP3>
0.36

>  <clogP>
1.46

>  <TPSA>
111.29

>  <Acceptor>
5

>  <Donor>
1

>  <RotBonds>
8

>  <HAC>
35

>  <Collection>
General

>  <PPDS>
+

$$$$
F2738-0188
  Mrv2219 10102508112D          

 34 38  0  0  0  0            999 V2000
   -3.1648    3.4028    0.0000 C   0  0  0  0  0  0  0  0  0  0  0  0
   -3.8788    3.8079    0.0000 N   0  0  0  0  0  0  0  0  0  0  0  0
   -2.4133    3.7410    0.0000 N   0  0  0  0  0  0  0  0  0  0  0  0
   -6.0124    0.9352    0.0000 N   0  0  0  0  0  0  0  0  0  0  0  0
   -3.0814    2.5887    0.0000 S   0  0  0  0  0  0  0  0  0  0  0  0
   -4.5928    3.4028    0.0000 C   0  0  0  0  0  0  0  0  0  0  0  0
   -1.8622    3.1315    0.0000 C   0  0  0  0  0  0  0  0  0  0  0  0
   -5.3068    1.3486    0.0000 C   0  0  0  0  0  0  0  0  0  0  0  0
   -6.7431    1.3027    0.0000 C   0  0  0  0  0  0  0  0  0  0  0  0
   -6.1294    0.1211    0.0000 C   0  0  0  0  0  0  0  0  0  0  0  0
   -2.2630    2.4133    0.0000 C   0  0  0  0  0  0  0  0  0  0  0  0
   -4.5928    2.5761    0.0000 C   0  0  0  0  0  0  0  0  0  0  0  0
   -5.3068    2.1670    0.0000 C   0  0  0  0  0  0  0  0  0  0  0  0
   -3.8788    4.6137    0.0000 C   0  0  0  0  0  0  0  0  0  0  0  0
   -5.3068    3.8079    0.0000 O   0  0  0  0  0  0  0  0  0  0  0  0
   -7.3277    0.7015    0.0000 C   0  0  0  0  0  0  0  0  0  0  0  0
   -6.9436   -0.0293    0.0000 C   0  0  0  0  0  0  0  0  0  0  0  0
   -6.8809    2.1169    0.0000 O   0  0  0  0  0  0  0  0  0  0  0  0
   -5.5573   -0.4551    0.0000 O   0  0  0  0  0  0  0  0  0  0  0  0
   -2.4551    4.6137    0.0000 N   0  0  0  0  0  0  0  0  0  0  0  0
   -1.0354    3.1273    0.0000 C   0  0  0  0  0  0  0  0  0  0  0  0
   -3.1648    5.0271    0.0000 C   0  0  0  0  0  0  0  0  0  0  0  0
   -4.5928    0.9269    0.0000 C   0  0  0  0  0  0  0  0  0  0  0  0
   -1.8496    1.6993    0.0000 C   0  0  0  0  0  0  0  0  0  0  0  0
   -3.8788    2.1628    0.0000 C   0  0  0  0  0  0  0  0  0  0  0  0
   -3.8788    1.3403    0.0000 C   0  0  0  0  0  0  0  0  0  0  0  0
   -1.0354    1.6993    0.0000 C   0  0  0  0  0  0  0  0  0  0  0  0
   -1.7494    5.0271    0.0000 C   0  0  0  0  0  0  0  0  0  0  0  0
   -0.6263    2.4133    0.0000 C   0  0  0  0  0  0  0  0  0  0  0  0
   -0.6221    3.8412    0.0000 C   0  0  0  0  0  0  0  0  0  0  0  0
   -3.1691    5.8538    0.0000 C   0  0  0  0  0  0  0  0  0  0  0  0
    0.2004    3.8412    0.0000 C   0  0  0  0  0  0  0  0  0  0  0  0
   -1.7411    5.8538    0.0000 C   0  0  0  0  0  0  0  0  0  0  0  0
   -2.4634    6.2672    0.0000 C   0  0  0  0  0  0  0  0  0  0  0  0
  2  1  1  0  0  0  0
  3  1  2  0  0  0  0
  4  8  1  0  0  0  0
  5  1  1  0  0  0  0
  6  2  1  0  0  0  0
  7  3  1  0  0  0  0
  8 13  1  0  0  0  0
  9  4  1  0  0  0  0
 10  4  1  0  0  0  0
 11  5  1  0  0  0  0
 12  6  1  0  0  0  0
 13 12  2  0  0  0  0
 14  2  1  0  0  0  0
 15  6  2  0  0  0  0
 16  9  1  0  0  0  0
 17 10  1  0  0  0  0
 18  9  2  0  0  0  0
 19 10  2  0  0  0  0
 20 22  2  0  0  0  0
 21  7  1  0  0  0  0
 22 14  1  0  0  0  0
 23 26  1  0  0  0  0
 24 11  1  0  0  0  0
 25 12  1  0  0  0  0
 26 25  2  0  0  0  0
 27 24  2  0  0  0  0
 28 20  1  0  0  0  0
 29 21  2  0  0  0  0
 30 21  1  0  0  0  0
 31 22  1  0  0  0  0
 32 30  1  0  0  0  0
 33 34  1  0  0  0  0
 34 31  2  0  0  0  0
 11  7  2  0  0  0  0
 29 27  1  0  0  0  0
 33 28  2  0  0  0  0
  8 23  2  0  0  0  0
 17 16  1  0  0  0  0
M  END
>  <IDNUMBER>
F2738-0188

>  <Chemical_Name>
3-(2,5-dioxopyrrolidin-1-yl)-N-(4-ethyl-1,3-benzothiazol-2-yl)-N-[(pyridin-2-yl)methyl]benzamide

>  <PriceCoeff>
1.00

>  <CAS>
922665-57-4

>  <MW>
470.54

>  <Description>
solid

>  <FSP3>
0.19

>  <clogP>
2.83

>  <TPSA>
111.71

>  <Acceptor>
5

>  <Donor>
1

>  <RotBonds>
7

>  <HAC>
34

>  <Collection>
General

>  <PPDS>
+

$$$$
F2738-0218
  Mrv2219 10102508112D          

 29 32  0  0  0  0            999 V2000
   -3.1652    3.4032    0.0000 C   0  0  0  0  0  0  0  0  0  0  0  0
   -2.4136    3.7414    0.0000 N   0  0  0  0  0  0  0  0  0  0  0  0
   -6.0173    3.4032    0.0000 N   0  0  0  0  0  0  0  0  0  0  0  0
   -3.8792    3.8083    0.0000 N   0  0  0  0  0  0  0  0  0  0  0  0
   -3.0818    2.5890    0.0000 S   0  0  0  0  0  0  0  0  0  0  0  0
   -4.5933    3.4032    0.0000 C   0  0  0  0  0  0  0  0  0  0  0  0
   -1.8624    3.1319    0.0000 C   0  0  0  0  0  0  0  0  0  0  0  0
   -5.3199    3.8166    0.0000 C   0  0  0  0  0  0  0  0  0  0  0  0
   -6.7690    3.7414    0.0000 C   0  0  0  0  0  0  0  0  0  0  0  0
   -6.0925    2.5764    0.0000 C   0  0  0  0  0  0  0  0  0  0  0  0
   -2.2633    2.4136    0.0000 C   0  0  0  0  0  0  0  0  0  0  0  0
   -3.8792    4.6142    0.0000 C   0  0  0  0  0  0  0  0  0  0  0  0
   -4.5933    2.5764    0.0000 O   0  0  0  0  0  0  0  0  0  0  0  0
   -7.3201    3.1151    0.0000 C   0  0  0  0  0  0  0  0  0  0  0  0
   -6.9068    2.4011    0.0000 C   0  0  0  0  0  0  0  0  0  0  0  0
   -6.9444    4.5224    0.0000 O   0  0  0  0  0  0  0  0  0  0  0  0
   -5.4953    2.0294    0.0000 O   0  0  0  0  0  0  0  0  0  0  0  0
   -2.4554    4.6142    0.0000 N   0  0  0  0  0  0  0  0  0  0  0  0
   -1.0355    3.1277    0.0000 C   0  0  0  0  0  0  0  0  0  0  0  0
   -3.1652    5.0277    0.0000 C   0  0  0  0  0  0  0  0  0  0  0  0
   -1.8498    1.6995    0.0000 C   0  0  0  0  0  0  0  0  0  0  0  0
   -1.0355    1.6995    0.0000 C   0  0  0  0  0  0  0  0  0  0  0  0
   -1.7496    5.0277    0.0000 C   0  0  0  0  0  0  0  0  0  0  0  0
   -0.6264    2.4136    0.0000 C   0  0  0  0  0  0  0  0  0  0  0  0
   -0.6222    3.8416    0.0000 C   0  0  0  0  0  0  0  0  0  0  0  0
   -3.1695    5.8545    0.0000 C   0  0  0  0  0  0  0  0  0  0  0  0
    0.2004    3.8416    0.0000 C   0  0  0  0  0  0  0  0  0  0  0  0
   -1.7413    5.8545    0.0000 C   0  0  0  0  0  0  0  0  0  0  0  0
   -2.4637    6.2679    0.0000 C   0  0  0  0  0  0  0  0  0  0  0  0
  2  1  2  0  0  0  0
  3  8  1  0  0  0  0
  4  1  1  0  0  0  0
  5  1  1  0  0  0  0
  6  4  1  0  0  0  0
  7  2  1  0  0  0  0
  8  6  1  0  0  0  0
  9  3  1  0  0  0  0
 10  3  1  0  0  0  0
 11  5  1  0  0  0  0
 12  4  1  0  0  0  0
 13  6  2  0  0  0  0
 14  9  1  0  0  0  0
 15 10  1  0  0  0  0
 16  9  2  0  0  0  0
 17 10  2  0  0  0  0
 18 20  2  0  0  0  0
 19  7  1  0  0  0  0
 20 12  1  0  0  0  0
 21 11  1  0  0  0  0
 22 21  2  0  0  0  0
 23 18  1  0  0  0  0
 24 19  2  0  0  0  0
 25 19  1  0  0  0  0
 26 20  1  0  0  0  0
 27 25  1  0  0  0  0
 28 29  1  0  0  0  0
 29 26  2  0  0  0  0
 11  7  2  0  0  0  0
 24 22  1  0  0  0  0
 28 23  2  0  0  0  0
 14 15  1  0  0  0  0
M  END
>  <IDNUMBER>
F2738-0218

>  <Chemical_Name>
2-(2,5-dioxopyrrolidin-1-yl)-N-(4-ethyl-1,3-benzothiazol-2-yl)-N-[(pyridin-2-yl)methyl]acetamide

>  <PriceCoeff>
1.00

>  <CAS>
922665-87-0

>  <MW>
408.47

>  <Description>
solid

>  <FSP3>
0.29

>  <clogP>
1.99

>  <TPSA>
111.71

>  <Acceptor>
5

>  <Donor>
1

>  <RotBonds>
7

>  <HAC>
29

>  <Collection>
General

>  <PPDS>
+

$$$$
F2738-0339
  Mrv2219 10102508112D          

 30 33  0  0  0  0            999 V2000
   -3.1503    3.3836    0.0000 C   0  0  0  0  0  0  0  0  0  0  0  0
   -2.3961    3.7337    0.0000 N   0  0  0  0  0  0  0  0  0  0  0  0
   -6.0048    3.3961    0.0000 N   0  0  0  0  0  0  0  0  0  0  0  0
   -3.8712    3.8004    0.0000 N   0  0  0  0  0  0  0  0  0  0  0  0
   -3.0711    2.5711    0.0000 S   0  0  0  0  0  0  0  0  0  0  0  0
   -1.8459    3.1086    0.0000 C   0  0  0  0  0  0  0  0  0  0  0  0
   -4.5838    3.3961    0.0000 C   0  0  0  0  0  0  0  0  0  0  0  0
   -5.3089    3.8087    0.0000 C   0  0  0  0  0  0  0  0  0  0  0  0
   -6.7549    3.7337    0.0000 C   0  0  0  0  0  0  0  0  0  0  0  0
   -6.0798    2.5711    0.0000 C   0  0  0  0  0  0  0  0  0  0  0  0
   -2.2585    2.3961    0.0000 C   0  0  0  0  0  0  0  0  0  0  0  0
   -3.8712    4.6047    0.0000 C   0  0  0  0  0  0  0  0  0  0  0  0
   -1.0084    3.1128    0.0000 C   0  0  0  0  0  0  0  0  0  0  0  0
   -4.5838    2.5711    0.0000 O   0  0  0  0  0  0  0  0  0  0  0  0
   -7.3050    3.1086    0.0000 C   0  0  0  0  0  0  0  0  0  0  0  0
   -6.8924    2.3961    0.0000 C   0  0  0  0  0  0  0  0  0  0  0  0
   -6.9299    4.5130    0.0000 O   0  0  0  0  0  0  0  0  0  0  0  0
   -5.4839    2.0252    0.0000 O   0  0  0  0  0  0  0  0  0  0  0  0
   -2.4586    4.6047    0.0000 N   0  0  0  0  0  0  0  0  0  0  0  0
   -3.1628    5.0255    0.0000 C   0  0  0  0  0  0  0  0  0  0  0  0
   -0.5959    3.8212    0.0000 O   0  0  0  0  0  0  0  0  0  0  0  0
   -1.8459    1.6710    0.0000 C   0  0  0  0  0  0  0  0  0  0  0  0
   -1.0209    1.6710    0.0000 C   0  0  0  0  0  0  0  0  0  0  0  0
   -0.6084    2.3961    0.0000 C   0  0  0  0  0  0  0  0  0  0  0  0
   -1.7502    5.0172    0.0000 C   0  0  0  0  0  0  0  0  0  0  0  0
   -3.1711    5.8381    0.0000 C   0  0  0  0  0  0  0  0  0  0  0  0
    0.2876    3.8587    0.0000 C   0  0  0  0  0  0  0  0  0  0  0  0
    0.5168    4.4921    0.0000 C   0  0  0  0  0  0  0  0  0  0  0  0
   -1.7460    5.8423    0.0000 C   0  0  0  0  0  0  0  0  0  0  0  0
   -2.4628    6.2507    0.0000 C   0  0  0  0  0  0  0  0  0  0  0  0
  2  1  2  0  0  0  0
  3  8  1  0  0  0  0
  4  1  1  0  0  0  0
  5  1  1  0  0  0  0
  6  2  1  0  0  0  0
  7  4  1  0  0  0  0
  8  7  1  0  0  0  0
  9  3  1  0  0  0  0
 10  3  1  0  0  0  0
 11  5  1  0  0  0  0
 12  4  1  0  0  0  0
 13  6  1  0  0  0  0
 14  7  2  0  0  0  0
 15  9  1  0  0  0  0
 16 10  1  0  0  0  0
 17  9  2  0  0  0  0
 18 10  2  0  0  0  0
 19 20  2  0  0  0  0
 20 12  1  0  0  0  0
 21 13  1  0  0  0  0
 22 11  1  0  0  0  0
 23 22  2  0  0  0  0
 24 13  2  0  0  0  0
 25 19  1  0  0  0  0
 26 20  1  0  0  0  0
 27 21  1  0  0  0  0
 28 27  1  0  0  0  0
 29 30  1  0  0  0  0
 30 26  2  0  0  0  0
 11  6  2  0  0  0  0
 24 23  1  0  0  0  0
 29 25  2  0  0  0  0
 15 16  1  0  0  0  0
M  END
>  <IDNUMBER>
F2738-0339

>  <Chemical_Name>
2-(2,5-dioxopyrrolidin-1-yl)-N-(4-ethoxy-1,3-benzothiazol-2-yl)-N-[(pyridin-2-yl)methyl]acetamide

>  <PriceCoeff>
1.00

>  <CAS>
922586-79-6

>  <MW>
424.47

>  <Description>
solid

>  <FSP3>
0.29

>  <clogP>
1.79

>  <TPSA>
120.94

>  <Acceptor>
6

>  <Donor>
1

>  <RotBonds>
8

>  <HAC>
30

>  <Collection>
General

>  <PPDS>
+

$$$$
F2738-0702
  Mrv2219 10102508112D          

 29 32  0  0  0  0            999 V2000
   -3.1648    3.4028    0.0000 C   0  0  0  0  0  0  0  0  0  0  0  0
   -6.0166    3.4028    0.0000 N   0  0  0  0  0  0  0  0  0  0  0  0
   -3.8788    3.8079    0.0000 N   0  0  0  0  0  0  0  0  0  0  0  0
   -2.4133    3.7410    0.0000 N   0  0  0  0  0  0  0  0  0  0  0  0
   -3.0814    2.5887    0.0000 S   0  0  0  0  0  0  0  0  0  0  0  0
   -4.5928    3.4028    0.0000 C   0  0  0  0  0  0  0  0  0  0  0  0
   -5.3193    3.8162    0.0000 C   0  0  0  0  0  0  0  0  0  0  0  0
   -1.8622    3.1315    0.0000 C   0  0  0  0  0  0  0  0  0  0  0  0
   -6.7682    3.7410    0.0000 C   0  0  0  0  0  0  0  0  0  0  0  0
   -6.0918    2.5761    0.0000 C   0  0  0  0  0  0  0  0  0  0  0  0
   -2.2672    2.4133    0.0000 C   0  0  0  0  0  0  0  0  0  0  0  0
   -1.0354    3.1273    0.0000 C   0  0  0  0  0  0  0  0  0  0  0  0
   -3.8788    4.6137    0.0000 C   0  0  0  0  0  0  0  0  0  0  0  0
   -4.5928    2.5761    0.0000 O   0  0  0  0  0  0  0  0  0  0  0  0
   -7.3193    3.1147    0.0000 C   0  0  0  0  0  0  0  0  0  0  0  0
   -6.9060    2.4008    0.0000 C   0  0  0  0  0  0  0  0  0  0  0  0
   -6.9436    4.5219    0.0000 O   0  0  0  0  0  0  0  0  0  0  0  0
   -5.4947    2.0292    0.0000 O   0  0  0  0  0  0  0  0  0  0  0  0
   -2.4551    4.6137    0.0000 N   0  0  0  0  0  0  0  0  0  0  0  0
   -1.8538    1.6993    0.0000 C   0  0  0  0  0  0  0  0  0  0  0  0
   -3.1648    5.0271    0.0000 C   0  0  0  0  0  0  0  0  0  0  0  0
   -0.6263    2.4133    0.0000 C   0  0  0  0  0  0  0  0  0  0  0  0
   -1.0354    1.6993    0.0000 C   0  0  0  0  0  0  0  0  0  0  0  0
    0.1921    2.4133    0.0000 O   0  0  0  0  0  0  0  0  0  0  0  0
   -1.7494    5.0271    0.0000 C   0  0  0  0  0  0  0  0  0  0  0  0
   -3.1691    5.8538    0.0000 C   0  0  0  0  0  0  0  0  0  0  0  0
    0.6055    3.1273    0.0000 C   0  0  0  0  0  0  0  0  0  0  0  0
   -1.7494    5.8538    0.0000 C   0  0  0  0  0  0  0  0  0  0  0  0
   -2.4634    6.2672    0.0000 C   0  0  0  0  0  0  0  0  0  0  0  0
  2  7  1  0  0  0  0
  3  1  1  0  0  0  0
  4  1  2  0  0  0  0
  5  1  1  0  0  0  0
  6  3  1  0  0  0  0
  7  6  1  0  0  0  0
  8  4  1  0  0  0  0
  9  2  1  0  0  0  0
 10  2  1  0  0  0  0
 11  5  1  0  0  0  0
 12  8  1  0  0  0  0
 13  3  1  0  0  0  0
 14  6  2  0  0  0  0
 15  9  1  0  0  0  0
 16 10  1  0  0  0  0
 17  9  2  0  0  0  0
 18 10  2  0  0  0  0
 19 21  2  0  0  0  0
 20 11  1  0  0  0  0
 21 13  1  0  0  0  0
 22 12  2  0  0  0  0
 23 20  2  0  0  0  0
 24 22  1  0  0  0  0
 25 19  1  0  0  0  0
 26 21  1  0  0  0  0
 27 24  1  0  0  0  0
 28 29  1  0  0  0  0
 29 26  2  0  0  0  0
 11  8  2  0  0  0  0
 22 23  1  0  0  0  0
 28 25  2  0  0  0  0
 15 16  1  0  0  0  0
M  END
>  <IDNUMBER>
F2738-0702

>  <Chemical_Name>
2-(2,5-dioxopyrrolidin-1-yl)-N-(5-methoxy-1,3-benzothiazol-2-yl)-N-[(pyridin-2-yl)methyl]acetamide

>  <PriceCoeff>
1.00

>  <CAS>
922639-28-9

>  <MW>
410.45

>  <Description>
solid

>  <FSP3>
0.25

>  <clogP>
1.26

>  <TPSA>
120.94

>  <Acceptor>
6

>  <Donor>
1

>  <RotBonds>
7

>  <HAC>
29

>  <Collection>
General

>  <PPDS>
+

$$$$
F2738-0976
  Mrv2219 10102508112D          

 29 32  0  0  0  0            999 V2000
   -3.1683    3.4066    0.0000 C   0  0  0  0  0  0  0  0  0  0  0  0
   -6.0233    3.4066    0.0000 N   0  0  0  0  0  0  0  0  0  0  0  0
   -3.8831    3.8120    0.0000 N   0  0  0  0  0  0  0  0  0  0  0  0
   -2.4202    3.7451    0.0000 N   0  0  0  0  0  0  0  0  0  0  0  0
   -3.0931    2.5915    0.0000 S   0  0  0  0  0  0  0  0  0  0  0  0
   -4.5979    3.4066    0.0000 C   0  0  0  0  0  0  0  0  0  0  0  0
   -5.3251    3.8204    0.0000 C   0  0  0  0  0  0  0  0  0  0  0  0
   -6.7756    3.7451    0.0000 C   0  0  0  0  0  0  0  0  0  0  0  0
   -6.0985    2.5790    0.0000 C   0  0  0  0  0  0  0  0  0  0  0  0
   -2.2780    2.4160    0.0000 C   0  0  0  0  0  0  0  0  0  0  0  0
   -1.8642    3.1307    0.0000 C   0  0  0  0  0  0  0  0  0  0  0  0
   -3.8831    4.6188    0.0000 C   0  0  0  0  0  0  0  0  0  0  0  0
   -4.5979    2.5790    0.0000 O   0  0  0  0  0  0  0  0  0  0  0  0
   -1.8642    1.7012    0.0000 C   0  0  0  0  0  0  0  0  0  0  0  0
   -7.3274    3.1182    0.0000 C   0  0  0  0  0  0  0  0  0  0  0  0
   -6.9136    2.4035    0.0000 C   0  0  0  0  0  0  0  0  0  0  0  0
   -6.9512    4.5269    0.0000 O   0  0  0  0  0  0  0  0  0  0  0  0
   -5.5008    2.0314    0.0000 O   0  0  0  0  0  0  0  0  0  0  0  0
   -2.5414    4.5812    0.0000 N   0  0  0  0  0  0  0  0  0  0  0  0
   -1.0408    3.1349    0.0000 C   0  0  0  0  0  0  0  0  0  0  0  0
   -3.1725    5.0326    0.0000 C   0  0  0  0  0  0  0  0  0  0  0  0
   -1.0408    1.7012    0.0000 C   0  0  0  0  0  0  0  0  0  0  0  0
   -0.6353    2.4160    0.0000 C   0  0  0  0  0  0  0  0  0  0  0  0
   -1.7555    5.0326    0.0000 C   0  0  0  0  0  0  0  0  0  0  0  0
   -0.6353    0.9865    0.0000 C   0  0  0  0  0  0  0  0  0  0  0  0
   -3.1725    5.8603    0.0000 C   0  0  0  0  0  0  0  0  0  0  0  0
   -1.0408    0.2759    0.0000 C   0  0  0  0  0  0  0  0  0  0  0  0
   -1.7513    5.8603    0.0000 C   0  0  0  0  0  0  0  0  0  0  0  0
   -2.4662    6.2699    0.0000 C   0  0  0  0  0  0  0  0  0  0  0  0
  2  7  1  0  0  0  0
  3  1  1  0  0  0  0
  4  1  2  0  0  0  0
  5  1  1  0  0  0  0
  6  3  1  0  0  0  0
  7  6  1  0  0  0  0
  8  2  1  0  0  0  0
  9  2  1  0  0  0  0
 10  5  1  0  0  0  0
 11  4  1  0  0  0  0
 12  3  1  0  0  0  0
 13  6  2  0  0  0  0
 14 10  1  0  0  0  0
 15  8  1  0  0  0  0
 16  9  1  0  0  0  0
 17  8  2  0  0  0  0
 18  9  2  0  0  0  0
 19 21  2  0  0  0  0
 20 11  1  0  0  0  0
 21 12  1  0  0  0  0
 22 14  2  0  0  0  0
 23 20  2  0  0  0  0
 24 19  1  0  0  0  0
 25 22  1  0  0  0  0
 26 21  1  0  0  0  0
 27 25  1  0  0  0  0
 28 29  1  0  0  0  0
 29 26  2  0  0  0  0
 10 11  2  0  0  0  0
 23 22  1  0  0  0  0
 28 24  2  0  0  0  0
 15 16  1  0  0  0  0
M  END
>  <IDNUMBER>
F2738-0976

>  <Chemical_Name>
2-(2,5-dioxopyrrolidin-1-yl)-N-(6-ethyl-1,3-benzothiazol-2-yl)-N-[(pyridin-2-yl)methyl]acetamide

>  <PriceCoeff>
1.00

>  <CAS>
922837-32-9

>  <MW>
408.47

>  <Description>
solid

>  <FSP3>
0.29

>  <clogP>
1.99

>  <TPSA>
111.71

>  <Acceptor>
5

>  <Donor>
1

>  <RotBonds>
7

>  <HAC>
29

>  <Collection>
General

>  <PPDS>
+

$$$$
F2738-1170
  Mrv2219 10102508112D          

 35 39  0  0  0  0            999 V2000
   -3.1648    3.4028    0.0000 C   0  0  0  0  0  0  0  0  0  0  0  0
   -3.8788    3.8079    0.0000 N   0  0  0  0  0  0  0  0  0  0  0  0
   -2.4133    3.7410    0.0000 N   0  0  0  0  0  0  0  0  0  0  0  0
   -4.6053    0.1002    0.0000 N   0  0  0  0  0  0  0  0  0  0  0  0
   -3.0814    2.5887    0.0000 S   0  0  0  0  0  0  0  0  0  0  0  0
   -4.5928    3.4028    0.0000 C   0  0  0  0  0  0  0  0  0  0  0  0
   -2.2672    2.4133    0.0000 C   0  0  0  0  0  0  0  0  0  0  0  0
   -5.2358   -0.4050    0.0000 C   0  0  0  0  0  0  0  0  0  0  0  0
   -3.9164   -0.3549    0.0000 C   0  0  0  0  0  0  0  0  0  0  0  0
   -1.8622    3.1273    0.0000 C   0  0  0  0  0  0  0  0  0  0  0  0
   -4.6053    0.9269    0.0000 C   0  0  0  0  0  0  0  0  0  0  0  0
   -3.8788    4.6263    0.0000 C   0  0  0  0  0  0  0  0  0  0  0  0
   -1.8538    1.6993    0.0000 C   0  0  0  0  0  0  0  0  0  0  0  0
   -4.5928    2.5761    0.0000 C   0  0  0  0  0  0  0  0  0  0  0  0
   -5.3068    3.8037    0.0000 O   0  0  0  0  0  0  0  0  0  0  0  0
   -4.9561   -1.1774    0.0000 C   0  0  0  0  0  0  0  0  0  0  0  0
   -4.1544   -1.1524    0.0000 C   0  0  0  0  0  0  0  0  0  0  0  0
   -6.0292   -0.1796    0.0000 O   0  0  0  0  0  0  0  0  0  0  0  0
   -3.1315   -0.0752    0.0000 O   0  0  0  0  0  0  0  0  0  0  0  0
   -2.4634    4.6137    0.0000 N   0  0  0  0  0  0  0  0  0  0  0  0
   -1.0354    3.1315    0.0000 C   0  0  0  0  0  0  0  0  0  0  0  0
   -3.8705    1.3361    0.0000 C   0  0  0  0  0  0  0  0  0  0  0  0
   -5.2985    1.3403    0.0000 C   0  0  0  0  0  0  0  0  0  0  0  0
   -5.2985    2.1670    0.0000 C   0  0  0  0  0  0  0  0  0  0  0  0
   -3.8705    2.1628    0.0000 C   0  0  0  0  0  0  0  0  0  0  0  0
   -3.1648    5.0354    0.0000 C   0  0  0  0  0  0  0  0  0  0  0  0
   -1.0354    1.6910    0.0000 C   0  0  0  0  0  0  0  0  0  0  0  0
   -0.6346    2.4133    0.0000 C   0  0  0  0  0  0  0  0  0  0  0  0
   -0.6221    0.9853    0.0000 O   0  0  0  0  0  0  0  0  0  0  0  0
   -1.7494    5.0271    0.0000 C   0  0  0  0  0  0  0  0  0  0  0  0
   -3.1691    5.8538    0.0000 C   0  0  0  0  0  0  0  0  0  0  0  0
    0.1921    0.9895    0.0000 C   0  0  0  0  0  0  0  0  0  0  0  0
    0.6055    1.7035    0.0000 C   0  0  0  0  0  0  0  0  0  0  0  0
   -1.7411    5.8538    0.0000 C   0  0  0  0  0  0  0  0  0  0  0  0
   -2.4634    6.2672    0.0000 C   0  0  0  0  0  0  0  0  0  0  0  0
  2  1  1  0  0  0  0
  3  1  2  0  0  0  0
  4 11  1  0  0  0  0
  5  1  1  0  0  0  0
  6  2  1  0  0  0  0
  7  5  1  0  0  0  0
  8  4  1  0  0  0  0
  9  4  1  0  0  0  0
 10  3  1  0  0  0  0
 11 22  1  0  0  0  0
 12  2  1  0  0  0  0
 13  7  1  0  0  0  0
 14  6  1  0  0  0  0
 15  6  2  0  0  0  0
 16  8  1  0  0  0  0
 17  9  1  0  0  0  0
 18  8  2  0  0  0  0
 19  9  2  0  0  0  0
 20 26  2  0  0  0  0
 21 10  1  0  0  0  0
 22 25  2  0  0  0  0
 23 24  1  0  0  0  0
 24 14  2  0  0  0  0
 25 14  1  0  0  0  0
 26 12  1  0  0  0  0
 27 13  2  0  0  0  0
 28 21  2  0  0  0  0
 29 27  1  0  0  0  0
 30 20  1  0  0  0  0
 31 26  1  0  0  0  0
 32 29  1  0  0  0  0
 33 32  1  0  0  0  0
 34 35  1  0  0  0  0
 35 31  2  0  0  0  0
  7 10  2  0  0  0  0
 28 27  1  0  0  0  0
 11 23  2  0  0  0  0
 34 30  2  0  0  0  0
 17 16  1  0  0  0  0
M  END
>  <IDNUMBER>
F2738-1170

>  <Chemical_Name>
4-(2,5-dioxopyrrolidin-1-yl)-N-(6-ethoxy-1,3-benzothiazol-2-yl)-N-[(pyridin-2-yl)methyl]benzamide

>  <PriceCoeff>
1.00

>  <CAS>
922617-83-2

>  <MW>
486.54

>  <Description>
solid

>  <FSP3>
0.19

>  <clogP>
2.63

>  <TPSA>
120.94

>  <Acceptor>
6

>  <Donor>
1

>  <RotBonds>
8

>  <HAC>
35

>  <Collection>
General

>  <PPDS>
+

$$$$
F2738-1339
  Mrv2219 10102508112D          

 28 31  0  0  0  0            999 V2000
   -3.1648    3.4028    0.0000 C   0  0  0  0  0  0  0  0  0  0  0  0
   -6.0166    3.4028    0.0000 N   0  0  0  0  0  0  0  0  0  0  0  0
   -3.8788    3.8079    0.0000 N   0  0  0  0  0  0  0  0  0  0  0  0
   -2.4133    3.7410    0.0000 N   0  0  0  0  0  0  0  0  0  0  0  0
   -3.0897    2.5887    0.0000 S   0  0  0  0  0  0  0  0  0  0  0  0
   -4.5928    3.4028    0.0000 C   0  0  0  0  0  0  0  0  0  0  0  0
   -5.3193    3.8162    0.0000 C   0  0  0  0  0  0  0  0  0  0  0  0
   -6.7682    3.7410    0.0000 C   0  0  0  0  0  0  0  0  0  0  0  0
   -6.0918    2.5761    0.0000 C   0  0  0  0  0  0  0  0  0  0  0  0
   -2.2755    2.4133    0.0000 C   0  0  0  0  0  0  0  0  0  0  0  0
   -1.8622    3.1273    0.0000 C   0  0  0  0  0  0  0  0  0  0  0  0
   -1.8622    1.6910    0.0000 C   0  0  0  0  0  0  0  0  0  0  0  0
   -3.8788    4.6263    0.0000 C   0  0  0  0  0  0  0  0  0  0  0  0
   -4.5928    2.5761    0.0000 O   0  0  0  0  0  0  0  0  0  0  0  0
   -7.3193    3.1147    0.0000 C   0  0  0  0  0  0  0  0  0  0  0  0
   -6.9060    2.4008    0.0000 C   0  0  0  0  0  0  0  0  0  0  0  0
   -6.9436    4.5219    0.0000 O   0  0  0  0  0  0  0  0  0  0  0  0
   -5.4947    2.0292    0.0000 O   0  0  0  0  0  0  0  0  0  0  0  0
   -2.5929    4.6471    0.0000 N   0  0  0  0  0  0  0  0  0  0  0  0
   -1.0354    3.1273    0.0000 C   0  0  0  0  0  0  0  0  0  0  0  0
   -1.0354    1.6868    0.0000 C   0  0  0  0  0  0  0  0  0  0  0  0
   -3.1648    5.0396    0.0000 C   0  0  0  0  0  0  0  0  0  0  0  0
   -0.6346    2.4050    0.0000 C   0  0  0  0  0  0  0  0  0  0  0  0
   -0.6221    0.9728    0.0000 Cl  0  0  0  0  0  0  0  0  0  0  0  0
   -1.7494    5.0271    0.0000 C   0  0  0  0  0  0  0  0  0  0  0  0
   -3.1648    5.8538    0.0000 C   0  0  0  0  0  0  0  0  0  0  0  0
   -1.7411    5.8538    0.0000 C   0  0  0  0  0  0  0  0  0  0  0  0
   -2.4551    6.2672    0.0000 C   0  0  0  0  0  0  0  0  0  0  0  0
  2  7  1  0  0  0  0
  3  1  1  0  0  0  0
  4  1  2  0  0  0  0
  5  1  1  0  0  0  0
  6  3  1  0  0  0  0
  7  6  1  0  0  0  0
  8  2  1  0  0  0  0
  9  2  1  0  0  0  0
 10  5  1  0  0  0  0
 11  4  1  0  0  0  0
 12 10  1  0  0  0  0
 13  3  1  0  0  0  0
 14  6  2  0  0  0  0
 15  8  1  0  0  0  0
 16  9  1  0  0  0  0
 17  8  2  0  0  0  0
 18  9  2  0  0  0  0
 19 22  2  0  0  0  0
 20 11  1  0  0  0  0
 21 12  2  0  0  0  0
 22 13  1  0  0  0  0
 23 20  2  0  0  0  0
 24 21  1  0  0  0  0
 25 19  1  0  0  0  0
 26 22  1  0  0  0  0
 27 28  1  0  0  0  0
 28 26  2  0  0  0  0
 10 11  2  0  0  0  0
 23 21  1  0  0  0  0
 27 25  2  0  0  0  0
 15 16  1  0  0  0  0
M  END
>  <IDNUMBER>
F2738-1339

>  <Chemical_Name>
N-(6-chloro-1,3-benzothiazol-2-yl)-2-(2,5-dioxopyrrolidin-1-yl)-N-[(pyridin-2-yl)methyl]acetamide

>  <PriceCoeff>
1.00

>  <CAS>
922673-95-8

>  <MW>
414.87

>  <Description>
solid

>  <FSP3>
0.21

>  <clogP>
1.70

>  <TPSA>
111.71

>  <Acceptor>
5

>  <Donor>
1

>  <RotBonds>
6

>  <HAC>
28

>  <Collection>
General

>  <PPDS>
+

$$$$
F2738-1654
  Mrv2219 10102508112D          

 34 38  0  0  0  0            999 V2000
   -3.1648    3.4028    0.0000 C   0  0  0  0  0  0  0  0  0  0  0  0
   -2.4133    3.7410    0.0000 N   0  0  0  0  0  0  0  0  0  0  0  0
   -3.8788    3.8079    0.0000 N   0  0  0  0  0  0  0  0  0  0  0  0
   -4.6053    0.1002    0.0000 N   0  0  0  0  0  0  0  0  0  0  0  0
   -1.8622    3.1273    0.0000 C   0  0  0  0  0  0  0  0  0  0  0  0
   -3.0814    2.5887    0.0000 S   0  0  0  0  0  0  0  0  0  0  0  0
   -4.5928    3.4028    0.0000 C   0  0  0  0  0  0  0  0  0  0  0  0
   -2.2672    2.4133    0.0000 C   0  0  0  0  0  0  0  0  0  0  0  0
   -5.2358   -0.4050    0.0000 C   0  0  0  0  0  0  0  0  0  0  0  0
   -3.9164   -0.3549    0.0000 C   0  0  0  0  0  0  0  0  0  0  0  0
   -1.0354    3.1273    0.0000 C   0  0  0  0  0  0  0  0  0  0  0  0
   -1.8538    1.6993    0.0000 C   0  0  0  0  0  0  0  0  0  0  0  0
   -4.6053    0.9269    0.0000 C   0  0  0  0  0  0  0  0  0  0  0  0
   -0.6346    2.4133    0.0000 C   0  0  0  0  0  0  0  0  0  0  0  0
   -3.8788    4.6137    0.0000 C   0  0  0  0  0  0  0  0  0  0  0  0
   -4.5928    2.5761    0.0000 C   0  0  0  0  0  0  0  0  0  0  0  0
   -1.0354    1.6993    0.0000 C   0  0  0  0  0  0  0  0  0  0  0  0
   -5.3068    3.8037    0.0000 O   0  0  0  0  0  0  0  0  0  0  0  0
   -4.9561   -1.1774    0.0000 C   0  0  0  0  0  0  0  0  0  0  0  0
   -4.1544   -1.1524    0.0000 C   0  0  0  0  0  0  0  0  0  0  0  0
   -6.0292   -0.1796    0.0000 O   0  0  0  0  0  0  0  0  0  0  0  0
   -3.1315   -0.0752    0.0000 O   0  0  0  0  0  0  0  0  0  0  0  0
   -2.4634    4.6137    0.0000 N   0  0  0  0  0  0  0  0  0  0  0  0
   -3.8705    1.3361    0.0000 C   0  0  0  0  0  0  0  0  0  0  0  0
   -5.2985    1.3403    0.0000 C   0  0  0  0  0  0  0  0  0  0  0  0
   -5.2985    2.1670    0.0000 C   0  0  0  0  0  0  0  0  0  0  0  0
   -3.8705    2.1628    0.0000 C   0  0  0  0  0  0  0  0  0  0  0  0
   -3.1648    5.0271    0.0000 C   0  0  0  0  0  0  0  0  0  0  0  0
   -0.6138    3.8455    0.0000 F   0  0  0  0  0  0  0  0  0  0  0  0
   -0.6263    0.9853    0.0000 F   0  0  0  0  0  0  0  0  0  0  0  0
   -1.7494    5.0271    0.0000 C   0  0  0  0  0  0  0  0  0  0  0  0
   -3.1691    5.8538    0.0000 C   0  0  0  0  0  0  0  0  0  0  0  0
   -1.7411    5.8538    0.0000 C   0  0  0  0  0  0  0  0  0  0  0  0
   -2.4634    6.2672    0.0000 C   0  0  0  0  0  0  0  0  0  0  0  0
  2  1  2  0  0  0  0
  3  1  1  0  0  0  0
  4 13  1  0  0  0  0
  5  2  1  0  0  0  0
  6  1  1  0  0  0  0
  7  3  1  0  0  0  0
  8  6  1  0  0  0  0
  9  4  1  0  0  0  0
 10  4  1  0  0  0  0
 11  5  1  0  0  0  0
 12  8  1  0  0  0  0
 13 24  1  0  0  0  0
 14 11  2  0  0  0  0
 15  3  1  0  0  0  0
 16  7  1  0  0  0  0
 17 12  2  0  0  0  0
 18  7  2  0  0  0  0
 19  9  1  0  0  0  0
 20 10  1  0  0  0  0
 21  9  2  0  0  0  0
 22 10  2  0  0  0  0
 23 28  2  0  0  0  0
 24 27  2  0  0  0  0
 25 26  1  0  0  0  0
 26 16  2  0  0  0  0
 27 16  1  0  0  0  0
 28 15  1  0  0  0  0
 29 11  1  0  0  0  0
 30 17  1  0  0  0  0
 31 23  1  0  0  0  0
 32 28  1  0  0  0  0
 33 34  1  0  0  0  0
 34 32  2  0  0  0  0
  8  5  2  0  0  0  0
 14 17  1  0  0  0  0
 13 25  2  0  0  0  0
 33 31  2  0  0  0  0
 20 19  1  0  0  0  0
M  END
>  <IDNUMBER>
F2738-1654

>  <Chemical_Name>
N-(4,6-difluoro-1,3-benzothiazol-2-yl)-4-(2,5-dioxopyrrolidin-1-yl)-N-[(pyridin-2-yl)methyl]benzamide

>  <PriceCoeff>
1.00

>  <CAS>
922939-99-9

>  <MW>
478.47

>  <Description>
solid

>  <FSP3>
0.12

>  <clogP>
2.13

>  <TPSA>
111.71

>  <Acceptor>
5

>  <Donor>
1

>  <RotBonds>
6

>  <HAC>
34

>  <Collection>
General

>  <PPDS>
+

$$$$
F2738-1702
  Mrv2219 10102508112D          

 29 32  0  0  0  0            999 V2000
   -3.1648    3.4028    0.0000 C   0  0  0  0  0  0  0  0  0  0  0  0
   -2.4133    3.7410    0.0000 N   0  0  0  0  0  0  0  0  0  0  0  0
   -6.0166    3.4028    0.0000 N   0  0  0  0  0  0  0  0  0  0  0  0
   -3.8788    3.8079    0.0000 N   0  0  0  0  0  0  0  0  0  0  0  0
   -1.8622    3.1273    0.0000 C   0  0  0  0  0  0  0  0  0  0  0  0
   -3.0814    2.5887    0.0000 S   0  0  0  0  0  0  0  0  0  0  0  0
   -4.5928    3.4028    0.0000 C   0  0  0  0  0  0  0  0  0  0  0  0
   -2.2672    2.4133    0.0000 C   0  0  0  0  0  0  0  0  0  0  0  0
   -5.3193    3.8162    0.0000 C   0  0  0  0  0  0  0  0  0  0  0  0
   -6.7682    3.7410    0.0000 C   0  0  0  0  0  0  0  0  0  0  0  0
   -6.0918    2.5761    0.0000 C   0  0  0  0  0  0  0  0  0  0  0  0
   -1.0354    3.1273    0.0000 C   0  0  0  0  0  0  0  0  0  0  0  0
   -1.8538    1.6993    0.0000 C   0  0  0  0  0  0  0  0  0  0  0  0
   -0.6346    2.4133    0.0000 C   0  0  0  0  0  0  0  0  0  0  0  0
   -3.8788    4.6137    0.0000 C   0  0  0  0  0  0  0  0  0  0  0  0
   -1.0354    1.6993    0.0000 C   0  0  0  0  0  0  0  0  0  0  0  0
   -4.5928    2.5761    0.0000 O   0  0  0  0  0  0  0  0  0  0  0  0
   -7.3193    3.1147    0.0000 C   0  0  0  0  0  0  0  0  0  0  0  0
   -6.9060    2.4008    0.0000 C   0  0  0  0  0  0  0  0  0  0  0  0
   -6.9436    4.5219    0.0000 O   0  0  0  0  0  0  0  0  0  0  0  0
   -5.4947    2.0292    0.0000 O   0  0  0  0  0  0  0  0  0  0  0  0
   -2.4634    4.6137    0.0000 N   0  0  0  0  0  0  0  0  0  0  0  0
   -3.1648    5.0271    0.0000 C   0  0  0  0  0  0  0  0  0  0  0  0
   -0.6138    3.8455    0.0000 F   0  0  0  0  0  0  0  0  0  0  0  0
   -0.6263    0.9853    0.0000 F   0  0  0  0  0  0  0  0  0  0  0  0
   -1.7494    5.0271    0.0000 C   0  0  0  0  0  0  0  0  0  0  0  0
   -3.1691    5.8538    0.0000 C   0  0  0  0  0  0  0  0  0  0  0  0
   -1.7411    5.8538    0.0000 C   0  0  0  0  0  0  0  0  0  0  0  0
   -2.4634    6.2672    0.0000 C   0  0  0  0  0  0  0  0  0  0  0  0
  2  1  2  0  0  0  0
  3  9  1  0  0  0  0
  4  1  1  0  0  0  0
  5  2  1  0  0  0  0
  6  1  1  0  0  0  0
  7  4  1  0  0  0  0
  8  6  1  0  0  0  0
  9  7  1  0  0  0  0
 10  3  1  0  0  0  0
 11  3  1  0  0  0  0
 12  5  1  0  0  0  0
 13  8  1  0  0  0  0
 14 12  2  0  0  0  0
 15  4  1  0  0  0  0
 16 13  2  0  0  0  0
 17  7  2  0  0  0  0
 18 10  1  0  0  0  0
 19 11  1  0  0  0  0
 20 10  2  0  0  0  0
 21 11  2  0  0  0  0
 22 23  2  0  0  0  0
 23 15  1  0  0  0  0
 24 12  1  0  0  0  0
 25 16  1  0  0  0  0
 26 22  1  0  0  0  0
 27 23  1  0  0  0  0
 28 29  1  0  0  0  0
 29 27  2  0  0  0  0
  8  5  2  0  0  0  0
 14 16  1  0  0  0  0
 28 26  2  0  0  0  0
 18 19  1  0  0  0  0
M  END
>  <IDNUMBER>
F2738-1702

>  <Chemical_Name>
N-(4,6-difluoro-1,3-benzothiazol-2-yl)-2-(2,5-dioxopyrrolidin-1-yl)-N-[(pyridin-2-yl)methyl]acetamide

>  <PriceCoeff>
1.00

>  <CAS>
923070-02-4

>  <MW>
416.40

>  <Description>
solid

>  <FSP3>
0.21

>  <clogP>
1.28

>  <TPSA>
111.71

>  <Acceptor>
5

>  <Donor>
1

>  <RotBonds>
6

>  <HAC>
29

>  <Collection>
General

>  <PPDS>
+

$$$$
F2738-1944
  Mrv2219 10102508112D          

 29 32  0  0  0  0            999 V2000
   -3.1648    3.4028    0.0000 C   0  0  0  0  0  0  0  0  0  0  0  0
   -2.4133    3.7410    0.0000 N   0  0  0  0  0  0  0  0  0  0  0  0
   -6.0166    3.4028    0.0000 N   0  0  0  0  0  0  0  0  0  0  0  0
   -3.8788    3.8079    0.0000 N   0  0  0  0  0  0  0  0  0  0  0  0
   -3.0897    2.5887    0.0000 S   0  0  0  0  0  0  0  0  0  0  0  0
   -4.5928    3.4028    0.0000 C   0  0  0  0  0  0  0  0  0  0  0  0
   -1.8622    3.1273    0.0000 C   0  0  0  0  0  0  0  0  0  0  0  0
   -2.2755    2.4133    0.0000 C   0  0  0  0  0  0  0  0  0  0  0  0
   -5.3193    3.8162    0.0000 C   0  0  0  0  0  0  0  0  0  0  0  0
   -6.7682    3.7410    0.0000 C   0  0  0  0  0  0  0  0  0  0  0  0
   -6.0918    2.5761    0.0000 C   0  0  0  0  0  0  0  0  0  0  0  0
   -1.0354    3.1273    0.0000 C   0  0  0  0  0  0  0  0  0  0  0  0
   -3.8788    4.6263    0.0000 C   0  0  0  0  0  0  0  0  0  0  0  0
   -1.8622    1.6993    0.0000 C   0  0  0  0  0  0  0  0  0  0  0  0
   -4.5928    2.5761    0.0000 O   0  0  0  0  0  0  0  0  0  0  0  0
   -0.6346    2.4050    0.0000 C   0  0  0  0  0  0  0  0  0  0  0  0
   -7.3193    3.1147    0.0000 C   0  0  0  0  0  0  0  0  0  0  0  0
   -6.9060    2.4008    0.0000 C   0  0  0  0  0  0  0  0  0  0  0  0
   -6.9436    4.5219    0.0000 O   0  0  0  0  0  0  0  0  0  0  0  0
   -5.4947    2.0292    0.0000 O   0  0  0  0  0  0  0  0  0  0  0  0
   -2.4551    4.6137    0.0000 N   0  0  0  0  0  0  0  0  0  0  0  0
   -1.0397    1.6910    0.0000 C   0  0  0  0  0  0  0  0  0  0  0  0
   -3.1648    5.0354    0.0000 C   0  0  0  0  0  0  0  0  0  0  0  0
   -0.6263    3.8287    0.0000 C   0  0  0  0  0  0  0  0  0  0  0  0
   -1.7494    5.0271    0.0000 C   0  0  0  0  0  0  0  0  0  0  0  0
   -0.6263    0.9770    0.0000 C   0  0  0  0  0  0  0  0  0  0  0  0
   -3.1691    5.8538    0.0000 C   0  0  0  0  0  0  0  0  0  0  0  0
   -1.7411    5.8538    0.0000 C   0  0  0  0  0  0  0  0  0  0  0  0
   -2.4634    6.2672    0.0000 C   0  0  0  0  0  0  0  0  0  0  0  0
  2  1  2  0  0  0  0
  3  9  1  0  0  0  0
  4  1  1  0  0  0  0
  5  1  1  0  0  0  0
  6  4  1  0  0  0  0
  7  2  1  0  0  0  0
  8  5  1  0  0  0  0
  9  6  1  0  0  0  0
 10  3  1  0  0  0  0
 11  3  1  0  0  0  0
 12  7  1  0  0  0  0
 13  4  1  0  0  0  0
 14  8  1  0  0  0  0
 15  6  2  0  0  0  0
 16 12  2  0  0  0  0
 17 10  1  0  0  0  0
 18 11  1  0  0  0  0
 19 10  2  0  0  0  0
 20 11  2  0  0  0  0
 21 23  2  0  0  0  0
 22 14  2  0  0  0  0
 23 13  1  0  0  0  0
 24 12  1  0  0  0  0
 25 21  1  0  0  0  0
 26 22  1  0  0  0  0
 27 23  1  0  0  0  0
 28 29  1  0  0  0  0
 29 27  2  0  0  0  0
  8  7  2  0  0  0  0
 16 22  1  0  0  0  0
 28 25  2  0  0  0  0
 17 18  1  0  0  0  0
M  END
>  <IDNUMBER>
F2738-1944

>  <Chemical_Name>
N-(4,6-dimethyl-1,3-benzothiazol-2-yl)-2-(2,5-dioxopyrrolidin-1-yl)-N-[(pyridin-2-yl)methyl]acetamide

>  <PriceCoeff>
1.00

>  <CAS>
922941-61-5

>  <MW>
408.47

>  <Description>
solid

>  <FSP3>
0.29

>  <clogP>
1.96

>  <TPSA>
111.71

>  <Acceptor>
5

>  <Donor>
1

>  <RotBonds>
6

>  <HAC>
29

>  <Collection>
General

>  <PPDS>
+

$$$$
F2738-2186
  Mrv2219 10102508112D          

 31 34  0  0  0  0            999 V2000
   -3.1652    3.4032    0.0000 C   0  0  0  0  0  0  0  0  0  0  0  0
   -2.4053    3.7414    0.0000 N   0  0  0  0  0  0  0  0  0  0  0  0
   -6.0173    3.4032    0.0000 N   0  0  0  0  0  0  0  0  0  0  0  0
   -3.8792    3.8083    0.0000 N   0  0  0  0  0  0  0  0  0  0  0  0
   -3.0818    2.5890    0.0000 S   0  0  0  0  0  0  0  0  0  0  0  0
   -1.8624    3.1277    0.0000 C   0  0  0  0  0  0  0  0  0  0  0  0
   -2.2675    2.4136    0.0000 C   0  0  0  0  0  0  0  0  0  0  0  0
   -4.5933    3.4032    0.0000 C   0  0  0  0  0  0  0  0  0  0  0  0
   -5.3199    3.8166    0.0000 C   0  0  0  0  0  0  0  0  0  0  0  0
   -6.7690    3.7414    0.0000 C   0  0  0  0  0  0  0  0  0  0  0  0
   -6.0925    2.5764    0.0000 C   0  0  0  0  0  0  0  0  0  0  0  0
   -3.8792    4.6268    0.0000 C   0  0  0  0  0  0  0  0  0  0  0  0
   -1.0355    3.1277    0.0000 C   0  0  0  0  0  0  0  0  0  0  0  0
   -1.8624    1.6995    0.0000 C   0  0  0  0  0  0  0  0  0  0  0  0
   -4.5933    2.5764    0.0000 O   0  0  0  0  0  0  0  0  0  0  0  0
   -7.3201    3.1151    0.0000 C   0  0  0  0  0  0  0  0  0  0  0  0
   -6.9068    2.4011    0.0000 C   0  0  0  0  0  0  0  0  0  0  0  0
   -6.9444    4.5224    0.0000 O   0  0  0  0  0  0  0  0  0  0  0  0
   -5.4953    2.0294    0.0000 O   0  0  0  0  0  0  0  0  0  0  0  0
   -2.4512    4.6142    0.0000 N   0  0  0  0  0  0  0  0  0  0  0  0
   -0.6264    2.4053    0.0000 C   0  0  0  0  0  0  0  0  0  0  0  0
   -1.0355    1.6912    0.0000 C   0  0  0  0  0  0  0  0  0  0  0  0
   -3.1652    5.0360    0.0000 C   0  0  0  0  0  0  0  0  0  0  0  0
   -2.2758    0.9854    0.0000 O   0  0  0  0  0  0  0  0  0  0  0  0
   -0.6222    3.8291    0.0000 O   0  0  0  0  0  0  0  0  0  0  0  0
   -1.7413    5.0277    0.0000 C   0  0  0  0  0  0  0  0  0  0  0  0
   -3.1652    5.8545    0.0000 C   0  0  0  0  0  0  0  0  0  0  0  0
   -1.8666    0.2714    0.0000 C   0  0  0  0  0  0  0  0  0  0  0  0
    0.1796    3.9670    0.0000 C   0  0  0  0  0  0  0  0  0  0  0  0
   -1.7371    5.8545    0.0000 C   0  0  0  0  0  0  0  0  0  0  0  0
   -2.4554    6.2679    0.0000 C   0  0  0  0  0  0  0  0  0  0  0  0
  2  1  2  0  0  0  0
  3  9  1  0  0  0  0
  4  1  1  0  0  0  0
  5  1  1  0  0  0  0
  6  2  1  0  0  0  0
  7  5  1  0  0  0  0
  8  4  1  0  0  0  0
  9  8  1  0  0  0  0
 10  3  1  0  0  0  0
 11  3  1  0  0  0  0
 12  4  1  0  0  0  0
 13  6  1  0  0  0  0
 14  7  1  0  0  0  0
 15  8  2  0  0  0  0
 16 10  1  0  0  0  0
 17 11  1  0  0  0  0
 18 10  2  0  0  0  0
 19 11  2  0  0  0  0
 20 23  2  0  0  0  0
 21 13  2  0  0  0  0
 22 14  2  0  0  0  0
 23 12  1  0  0  0  0
 24 14  1  0  0  0  0
 25 13  1  0  0  0  0
 26 20  1  0  0  0  0
 27 23  1  0  0  0  0
 28 24  1  0  0  0  0
 29 25  1  0  0  0  0
 30 31  1  0  0  0  0
 31 27  2  0  0  0  0
  7  6  2  0  0  0  0
 21 22  1  0  0  0  0
 30 26  2  0  0  0  0
 16 17  1  0  0  0  0
M  END
>  <IDNUMBER>
F2738-2186

>  <Chemical_Name>
N-(4,7-dimethoxy-1,3-benzothiazol-2-yl)-2-(2,5-dioxopyrrolidin-1-yl)-N-[(pyridin-2-yl)methyl]acetamide

>  <PriceCoeff>
1.00

>  <CAS>
922911-33-9

>  <MW>
440.47

>  <Description>
solid

>  <FSP3>
0.29

>  <clogP>
1.56

>  <TPSA>
130.17

>  <Acceptor>
7

>  <Donor>
1

>  <RotBonds>
8

>  <HAC>
31

>  <Collection>
General

>  <PPDS>
+

$$$$
F2738-2307
  Mrv2219 10102508112D          

 30 33  0  0  0  0            999 V2000
   -3.1569    3.4032    0.0000 C   0  0  0  0  0  0  0  0  0  0  0  0
   -2.4136    3.7414    0.0000 N   0  0  0  0  0  0  0  0  0  0  0  0
   -6.0173    3.4032    0.0000 N   0  0  0  0  0  0  0  0  0  0  0  0
   -3.8792    3.8083    0.0000 N   0  0  0  0  0  0  0  0  0  0  0  0
   -3.0776    2.5890    0.0000 S   0  0  0  0  0  0  0  0  0  0  0  0
   -1.8624    3.1319    0.0000 C   0  0  0  0  0  0  0  0  0  0  0  0
   -2.2633    2.4136    0.0000 C   0  0  0  0  0  0  0  0  0  0  0  0
   -4.5933    3.4032    0.0000 C   0  0  0  0  0  0  0  0  0  0  0  0
   -5.3199    3.8166    0.0000 C   0  0  0  0  0  0  0  0  0  0  0  0
   -6.7690    3.7414    0.0000 C   0  0  0  0  0  0  0  0  0  0  0  0
   -6.0925    2.5764    0.0000 C   0  0  0  0  0  0  0  0  0  0  0  0
   -3.8792    4.6268    0.0000 C   0  0  0  0  0  0  0  0  0  0  0  0
   -1.0355    3.1277    0.0000 C   0  0  0  0  0  0  0  0  0  0  0  0
   -1.8498    1.6995    0.0000 C   0  0  0  0  0  0  0  0  0  0  0  0
   -4.5933    2.5764    0.0000 O   0  0  0  0  0  0  0  0  0  0  0  0
   -7.3201    3.1151    0.0000 C   0  0  0  0  0  0  0  0  0  0  0  0
   -6.9068    2.4011    0.0000 C   0  0  0  0  0  0  0  0  0  0  0  0
   -6.9444    4.5224    0.0000 O   0  0  0  0  0  0  0  0  0  0  0  0
   -5.4953    2.0294    0.0000 O   0  0  0  0  0  0  0  0  0  0  0  0
   -2.4554    4.6142    0.0000 N   0  0  0  0  0  0  0  0  0  0  0  0
   -0.6264    2.4136    0.0000 C   0  0  0  0  0  0  0  0  0  0  0  0
   -1.0272    1.6912    0.0000 C   0  0  0  0  0  0  0  0  0  0  0  0
   -3.1652    5.0360    0.0000 C   0  0  0  0  0  0  0  0  0  0  0  0
   -0.6222    3.8291    0.0000 O   0  0  0  0  0  0  0  0  0  0  0  0
   -1.7413    5.0277    0.0000 C   0  0  0  0  0  0  0  0  0  0  0  0
   -2.2633    0.9896    0.0000 C   0  0  0  0  0  0  0  0  0  0  0  0
   -3.1652    5.8545    0.0000 C   0  0  0  0  0  0  0  0  0  0  0  0
   -1.0272    4.5391    0.0000 C   0  0  0  0  0  0  0  0  0  0  0  0
   -1.7413    5.8545    0.0000 C   0  0  0  0  0  0  0  0  0  0  0  0
   -2.4554    6.2679    0.0000 C   0  0  0  0  0  0  0  0  0  0  0  0
  2  1  2  0  0  0  0
  3  9  1  0  0  0  0
  4  1  1  0  0  0  0
  5  1  1  0  0  0  0
  6  2  1  0  0  0  0
  7  5  1  0  0  0  0
  8  4  1  0  0  0  0
  9  8  1  0  0  0  0
 10  3  1  0  0  0  0
 11  3  1  0  0  0  0
 12  4  1  0  0  0  0
 13  6  1  0  0  0  0
 14  7  1  0  0  0  0
 15  8  2  0  0  0  0
 16 10  1  0  0  0  0
 17 11  1  0  0  0  0
 18 10  2  0  0  0  0
 19 11  2  0  0  0  0
 20 23  2  0  0  0  0
 21 13  2  0  0  0  0
 22 14  2  0  0  0  0
 23 12  1  0  0  0  0
 24 13  1  0  0  0  0
 25 20  1  0  0  0  0
 26 14  1  0  0  0  0
 27 23  1  0  0  0  0
 28 24  1  0  0  0  0
 29 30  1  0  0  0  0
 30 27  2  0  0  0  0
  7  6  2  0  0  0  0
 21 22  1  0  0  0  0
 29 25  2  0  0  0  0
 16 17  1  0  0  0  0
M  END
>  <IDNUMBER>
F2738-2307

>  <Chemical_Name>
2-(2,5-dioxopyrrolidin-1-yl)-N-(4-methoxy-7-methyl-1,3-benzothiazol-2-yl)-N-[(pyridin-2-yl)methyl]acetamide

>  <PriceCoeff>
1.00

>  <CAS>
922911-84-0

>  <MW>
424.47

>  <Description>
solid

>  <FSP3>
0.29

>  <clogP>
1.76

>  <TPSA>
120.94

>  <Acceptor>
6

>  <Donor>
1

>  <RotBonds>
7

>  <HAC>
30

>  <Collection>
General

>  <PPDS>
+

$$$$
F2738-2428
  Mrv2219 10102508112D          

 29 32  0  0  0  0            999 V2000
   -3.1651    3.4031    0.0000 C   0  0  0  0  0  0  0  0  0  0  0  0
   -2.4177    3.7413    0.0000 N   0  0  0  0  0  0  0  0  0  0  0  0
   -6.0171    3.4031    0.0000 N   0  0  0  0  0  0  0  0  0  0  0  0
   -3.8791    3.8082    0.0000 N   0  0  0  0  0  0  0  0  0  0  0  0
   -3.0900    2.5889    0.0000 S   0  0  0  0  0  0  0  0  0  0  0  0
   -2.2799    2.4177    0.0000 C   0  0  0  0  0  0  0  0  0  0  0  0
   -1.8749    3.1318    0.0000 C   0  0  0  0  0  0  0  0  0  0  0  0
   -4.5932    3.4031    0.0000 C   0  0  0  0  0  0  0  0  0  0  0  0
   -5.3197    3.8165    0.0000 C   0  0  0  0  0  0  0  0  0  0  0  0
   -6.7688    3.7413    0.0000 C   0  0  0  0  0  0  0  0  0  0  0  0
   -6.0923    2.5763    0.0000 C   0  0  0  0  0  0  0  0  0  0  0  0
   -1.8749    1.7119    0.0000 C   0  0  0  0  0  0  0  0  0  0  0  0
   -3.8791    4.6141    0.0000 C   0  0  0  0  0  0  0  0  0  0  0  0
   -1.0523    3.1276    0.0000 C   0  0  0  0  0  0  0  0  0  0  0  0
   -4.5932    2.5763    0.0000 O   0  0  0  0  0  0  0  0  0  0  0  0
   -7.3199    3.1150    0.0000 C   0  0  0  0  0  0  0  0  0  0  0  0
   -6.9066    2.4010    0.0000 C   0  0  0  0  0  0  0  0  0  0  0  0
   -6.9442    4.5223    0.0000 O   0  0  0  0  0  0  0  0  0  0  0  0
   -5.4952    2.0294    0.0000 O   0  0  0  0  0  0  0  0  0  0  0  0
   -2.4553    4.6141    0.0000 N   0  0  0  0  0  0  0  0  0  0  0  0
   -1.0481    1.6994    0.0000 C   0  0  0  0  0  0  0  0  0  0  0  0
   -0.6514    2.4177    0.0000 C   0  0  0  0  0  0  0  0  0  0  0  0
   -3.1651    5.0275    0.0000 C   0  0  0  0  0  0  0  0  0  0  0  0
   -2.2882    0.9270    0.0000 Cl  0  0  0  0  0  0  0  0  0  0  0  0
   -1.7495    5.0275    0.0000 C   0  0  0  0  0  0  0  0  0  0  0  0
   -0.6389    3.8415    0.0000 C   0  0  0  0  0  0  0  0  0  0  0  0
   -3.1651    5.8543    0.0000 C   0  0  0  0  0  0  0  0  0  0  0  0
   -1.7412    5.8543    0.0000 C   0  0  0  0  0  0  0  0  0  0  0  0
   -2.4553    6.2677    0.0000 C   0  0  0  0  0  0  0  0  0  0  0  0
  2  1  2  0  0  0  0
  3  9  1  0  0  0  0
  4  1  1  0  0  0  0
  5  1  1  0  0  0  0
  6  5  1  0  0  0  0
  7  2  1  0  0  0  0
  8  4  1  0  0  0  0
  9  8  1  0  0  0  0
 10  3  1  0  0  0  0
 11  3  1  0  0  0  0
 12  6  1  0  0  0  0
 13  4  1  0  0  0  0
 14  7  1  0  0  0  0
 15  8  2  0  0  0  0
 16 10  1  0  0  0  0
 17 11  1  0  0  0  0
 18 10  2  0  0  0  0
 19 11  2  0  0  0  0
 20 23  2  0  0  0  0
 21 12  2  0  0  0  0
 22 14  2  0  0  0  0
 23 13  1  0  0  0  0
 24 12  1  0  0  0  0
 25 20  1  0  0  0  0
 26 14  1  0  0  0  0
 27 23  1  0  0  0  0
 28 29  1  0  0  0  0
 29 27  2  0  0  0  0
  6  7  2  0  0  0  0
 22 21  1  0  0  0  0
 28 25  2  0  0  0  0
 16 17  1  0  0  0  0
M  END
>  <IDNUMBER>
F2738-2428

>  <Chemical_Name>
N-(7-chloro-4-methyl-1,3-benzothiazol-2-yl)-2-(2,5-dioxopyrrolidin-1-yl)-N-[(pyridin-2-yl)methyl]acetamide

>  <PriceCoeff>
1.00

>  <CAS>
922870-13-1

>  <MW>
428.89

>  <Description>
solid

>  <FSP3>
0.25

>  <clogP>
2.20

>  <TPSA>
111.71

>  <Acceptor>
5

>  <Donor>
1

>  <RotBonds>
6

>  <HAC>
29

>  <Collection>
General

>  <PPDS>
+

$$$$
F2738-2549
  Mrv2219 10102508112D          

 29 32  0  0  0  0            999 V2000
   -3.1652    3.4032    0.0000 C   0  0  0  0  0  0  0  0  0  0  0  0
   -2.4136    3.7414    0.0000 N   0  0  0  0  0  0  0  0  0  0  0  0
   -6.0173    3.4032    0.0000 N   0  0  0  0  0  0  0  0  0  0  0  0
   -3.8792    3.8083    0.0000 N   0  0  0  0  0  0  0  0  0  0  0  0
   -3.0776    2.5890    0.0000 S   0  0  0  0  0  0  0  0  0  0  0  0
   -1.8624    3.1319    0.0000 C   0  0  0  0  0  0  0  0  0  0  0  0
   -4.5933    3.4032    0.0000 C   0  0  0  0  0  0  0  0  0  0  0  0
   -5.3199    3.8166    0.0000 C   0  0  0  0  0  0  0  0  0  0  0  0
   -2.2633    2.4136    0.0000 C   0  0  0  0  0  0  0  0  0  0  0  0
   -6.7690    3.7414    0.0000 C   0  0  0  0  0  0  0  0  0  0  0  0
   -6.0925    2.5764    0.0000 C   0  0  0  0  0  0  0  0  0  0  0  0
   -1.0272    3.1319    0.0000 C   0  0  0  0  0  0  0  0  0  0  0  0
   -3.8792    4.6142    0.0000 C   0  0  0  0  0  0  0  0  0  0  0  0
   -4.5933    2.5764    0.0000 O   0  0  0  0  0  0  0  0  0  0  0  0
   -0.6264    2.4178    0.0000 C   0  0  0  0  0  0  0  0  0  0  0  0
   -7.3201    3.1151    0.0000 C   0  0  0  0  0  0  0  0  0  0  0  0
   -6.9068    2.4011    0.0000 C   0  0  0  0  0  0  0  0  0  0  0  0
   -6.9444    4.5224    0.0000 O   0  0  0  0  0  0  0  0  0  0  0  0
   -5.4953    2.0294    0.0000 O   0  0  0  0  0  0  0  0  0  0  0  0
   -2.4554    4.6142    0.0000 N   0  0  0  0  0  0  0  0  0  0  0  0
   -1.8498    1.6995    0.0000 C   0  0  0  0  0  0  0  0  0  0  0  0
   -1.0230    1.6995    0.0000 C   0  0  0  0  0  0  0  0  0  0  0  0
   -3.1695    5.0277    0.0000 C   0  0  0  0  0  0  0  0  0  0  0  0
   -0.6222    3.8416    0.0000 C   0  0  0  0  0  0  0  0  0  0  0  0
   -1.7496    5.0360    0.0000 C   0  0  0  0  0  0  0  0  0  0  0  0
    0.2046    2.4178    0.0000 C   0  0  0  0  0  0  0  0  0  0  0  0
   -3.1695    5.8545    0.0000 C   0  0  0  0  0  0  0  0  0  0  0  0
   -1.7496    5.8545    0.0000 C   0  0  0  0  0  0  0  0  0  0  0  0
   -2.4637    6.2679    0.0000 C   0  0  0  0  0  0  0  0  0  0  0  0
  2  1  2  0  0  0  0
  3  8  1  0  0  0  0
  4  1  1  0  0  0  0
  5  1  1  0  0  0  0
  6  2  1  0  0  0  0
  7  4  1  0  0  0  0
  8  7  1  0  0  0  0
  9  5  1  0  0  0  0
 10  3  1  0  0  0  0
 11  3  1  0  0  0  0
 12  6  1  0  0  0  0
 13  4  1  0  0  0  0
 14  7  2  0  0  0  0
 15 12  2  0  0  0  0
 16 10  1  0  0  0  0
 17 11  1  0  0  0  0
 18 10  2  0  0  0  0
 19 11  2  0  0  0  0
 20 23  2  0  0  0  0
 21  9  1  0  0  0  0
 22 21  2  0  0  0  0
 23 13  1  0  0  0  0
 24 12  1  0  0  0  0
 25 20  1  0  0  0  0
 26 15  1  0  0  0  0
 27 23  1  0  0  0  0
 28 29  1  0  0  0  0
 29 27  2  0  0  0  0
  9  6  2  0  0  0  0
 15 22  1  0  0  0  0
 28 25  2  0  0  0  0
 16 17  1  0  0  0  0
M  END
>  <IDNUMBER>
F2738-2549

>  <Chemical_Name>
N-(4,5-dimethyl-1,3-benzothiazol-2-yl)-2-(2,5-dioxopyrrolidin-1-yl)-N-[(pyridin-2-yl)methyl]acetamide

>  <PriceCoeff>
1.00

>  <CAS>
922870-81-3

>  <MW>
408.47

>  <Description>
solid

>  <FSP3>
0.29

>  <clogP>
1.91

>  <TPSA>
111.71

>  <Acceptor>
5

>  <Donor>
1

>  <RotBonds>
6

>  <HAC>
29

>  <Collection>
General

>  <PPDS>
+

$$$$
F2738-2640
  Mrv2219 10102508112D          

 34 38  0  0  0  0            999 V2000
   -3.1744    3.4131    0.0000 C   0  0  0  0  0  0  0  0  0  0  0  0
   -2.4248    3.7524    0.0000 N   0  0  0  0  0  0  0  0  0  0  0  0
   -3.8906    3.8194    0.0000 N   0  0  0  0  0  0  0  0  0  0  0  0
   -6.0306    0.9381    0.0000 N   0  0  0  0  0  0  0  0  0  0  0  0
   -1.8678    3.1367    0.0000 C   0  0  0  0  0  0  0  0  0  0  0  0
   -3.0990    2.5965    0.0000 S   0  0  0  0  0  0  0  0  0  0  0  0
   -4.6067    3.4131    0.0000 C   0  0  0  0  0  0  0  0  0  0  0  0
   -5.3228    1.3527    0.0000 C   0  0  0  0  0  0  0  0  0  0  0  0
   -2.2740    2.4248    0.0000 C   0  0  0  0  0  0  0  0  0  0  0  0
   -1.0428    3.1409    0.0000 C   0  0  0  0  0  0  0  0  0  0  0  0
   -6.7635    1.3066    0.0000 C   0  0  0  0  0  0  0  0  0  0  0  0
   -6.1479    0.1214    0.0000 C   0  0  0  0  0  0  0  0  0  0  0  0
   -4.6067    2.5839    0.0000 C   0  0  0  0  0  0  0  0  0  0  0  0
   -5.3228    2.1735    0.0000 C   0  0  0  0  0  0  0  0  0  0  0  0
   -3.8906    4.6277    0.0000 C   0  0  0  0  0  0  0  0  0  0  0  0
   -0.6408    2.4332    0.0000 C   0  0  0  0  0  0  0  0  0  0  0  0
   -5.3228    3.8194    0.0000 O   0  0  0  0  0  0  0  0  0  0  0  0
   -7.3498    0.7036    0.0000 C   0  0  0  0  0  0  0  0  0  0  0  0
   -6.9646   -0.0293    0.0000 C   0  0  0  0  0  0  0  0  0  0  0  0
   -6.9017    2.1233    0.0000 O   0  0  0  0  0  0  0  0  0  0  0  0
   -5.5741   -0.4565    0.0000 O   0  0  0  0  0  0  0  0  0  0  0  0
   -2.5714    4.5649    0.0000 N   0  0  0  0  0  0  0  0  0  0  0  0
   -1.8678    1.7087    0.0000 C   0  0  0  0  0  0  0  0  0  0  0  0
   -1.0428    1.7045    0.0000 C   0  0  0  0  0  0  0  0  0  0  0  0
   -3.1786    5.0423    0.0000 C   0  0  0  0  0  0  0  0  0  0  0  0
    0.1885    2.4332    0.0000 Cl  0  0  0  0  0  0  0  0  0  0  0  0
   -4.6067    0.9297    0.0000 C   0  0  0  0  0  0  0  0  0  0  0  0
   -0.6365    3.8529    0.0000 C   0  0  0  0  0  0  0  0  0  0  0  0
   -3.8906    2.1693    0.0000 C   0  0  0  0  0  0  0  0  0  0  0  0
   -3.8906    1.3443    0.0000 C   0  0  0  0  0  0  0  0  0  0  0  0
   -1.7589    5.0423    0.0000 C   0  0  0  0  0  0  0  0  0  0  0  0
   -3.1870    5.8673    0.0000 C   0  0  0  0  0  0  0  0  0  0  0  0
   -1.7589    5.8715    0.0000 C   0  0  0  0  0  0  0  0  0  0  0  0
   -2.4751    6.2736    0.0000 C   0  0  0  0  0  0  0  0  0  0  0  0
  2  1  2  0  0  0  0
  3  1  1  0  0  0  0
  4  8  1  0  0  0  0
  5  2  1  0  0  0  0
  6  1  1  0  0  0  0
  7  3  1  0  0  0  0
  8 14  1  0  0  0  0
  9  6  1  0  0  0  0
 10  5  1  0  0  0  0
 11  4  1  0  0  0  0
 12  4  1  0  0  0  0
 13  7  1  0  0  0  0
 14 13  2  0  0  0  0
 15  3  1  0  0  0  0
 16 10  2  0  0  0  0
 17  7  2  0  0  0  0
 18 11  1  0  0  0  0
 19 12  1  0  0  0  0
 20 11  2  0  0  0  0
 21 12  2  0  0  0  0
 22 25  2  0  0  0  0
 23  9  1  0  0  0  0
 24 23  2  0  0  0  0
 25 15  1  0  0  0  0
 26 16  1  0  0  0  0
 27 30  1  0  0  0  0
 28 10  1  0  0  0  0
 29 13  1  0  0  0  0
 30 29  2  0  0  0  0
 31 22  1  0  0  0  0
 32 25  1  0  0  0  0
 33 34  1  0  0  0  0
 34 32  2  0  0  0  0
  9  5  2  0  0  0  0
 16 24  1  0  0  0  0
 33 31  2  0  0  0  0
  8 27  2  0  0  0  0
 19 18  1  0  0  0  0
M  END
>  <IDNUMBER>
F2738-2640

>  <Chemical_Name>
N-(5-chloro-4-methyl-1,3-benzothiazol-2-yl)-3-(2,5-dioxopyrrolidin-1-yl)-N-[(pyridin-2-yl)methyl]benzamide

>  <PriceCoeff>
1.00

>  <CAS>
922871-27-0

>  <MW>
490.96

>  <Description>
solid

>  <FSP3>
0.16

>  <clogP>
3.05

>  <TPSA>
111.71

>  <Acceptor>
5

>  <Donor>
1

>  <RotBonds>
6

>  <HAC>
34

>  <Collection>
General

>  <PPDS>
+

$$$$
F2738-2670
  Mrv2219 10102508112D          

 29 32  0  0  0  0            999 V2000
   -3.1744    3.4131    0.0000 C   0  0  0  0  0  0  0  0  0  0  0  0
   -2.4248    3.7524    0.0000 N   0  0  0  0  0  0  0  0  0  0  0  0
   -6.0348    3.4131    0.0000 N   0  0  0  0  0  0  0  0  0  0  0  0
   -3.8906    3.8194    0.0000 N   0  0  0  0  0  0  0  0  0  0  0  0
   -1.8678    3.1367    0.0000 C   0  0  0  0  0  0  0  0  0  0  0  0
   -3.0990    2.5965    0.0000 S   0  0  0  0  0  0  0  0  0  0  0  0
   -4.6067    3.4131    0.0000 C   0  0  0  0  0  0  0  0  0  0  0  0
   -5.3354    3.8277    0.0000 C   0  0  0  0  0  0  0  0  0  0  0  0
   -2.2740    2.4248    0.0000 C   0  0  0  0  0  0  0  0  0  0  0  0
   -6.7887    3.7524    0.0000 C   0  0  0  0  0  0  0  0  0  0  0  0
   -6.1102    2.5839    0.0000 C   0  0  0  0  0  0  0  0  0  0  0  0
   -1.0428    3.1409    0.0000 C   0  0  0  0  0  0  0  0  0  0  0  0
   -3.8906    4.6277    0.0000 C   0  0  0  0  0  0  0  0  0  0  0  0
   -0.6408    2.4332    0.0000 C   0  0  0  0  0  0  0  0  0  0  0  0
   -4.6067    2.5839    0.0000 O   0  0  0  0  0  0  0  0  0  0  0  0
   -7.3415    3.1242    0.0000 C   0  0  0  0  0  0  0  0  0  0  0  0
   -6.9269    2.4080    0.0000 C   0  0  0  0  0  0  0  0  0  0  0  0
   -6.9646    4.5355    0.0000 O   0  0  0  0  0  0  0  0  0  0  0  0
   -5.5113    2.0353    0.0000 O   0  0  0  0  0  0  0  0  0  0  0  0
   -2.5714    4.5649    0.0000 N   0  0  0  0  0  0  0  0  0  0  0  0
   -1.8678    1.7087    0.0000 C   0  0  0  0  0  0  0  0  0  0  0  0
   -1.0428    1.7045    0.0000 C   0  0  0  0  0  0  0  0  0  0  0  0
   -3.1786    5.0423    0.0000 C   0  0  0  0  0  0  0  0  0  0  0  0
    0.1885    2.4332    0.0000 Cl  0  0  0  0  0  0  0  0  0  0  0  0
   -0.6365    3.8529    0.0000 C   0  0  0  0  0  0  0  0  0  0  0  0
   -1.7589    5.0423    0.0000 C   0  0  0  0  0  0  0  0  0  0  0  0
   -3.1870    5.8673    0.0000 C   0  0  0  0  0  0  0  0  0  0  0  0
   -1.7589    5.8715    0.0000 C   0  0  0  0  0  0  0  0  0  0  0  0
   -2.4751    6.2736    0.0000 C   0  0  0  0  0  0  0  0  0  0  0  0
  2  1  2  0  0  0  0
  3  8  1  0  0  0  0
  4  1  1  0  0  0  0
  5  2  1  0  0  0  0
  6  1  1  0  0  0  0
  7  4  1  0  0  0  0
  8  7  1  0  0  0  0
  9  6  1  0  0  0  0
 10  3  1  0  0  0  0
 11  3  1  0  0  0  0
 12  5  1  0  0  0  0
 13  4  1  0  0  0  0
 14 12  2  0  0  0  0
 15  7  2  0  0  0  0
 16 10  1  0  0  0  0
 17 11  1  0  0  0  0
 18 10  2  0  0  0  0
 19 11  2  0  0  0  0
 20 23  2  0  0  0  0
 21  9  1  0  0  0  0
 22 21  2  0  0  0  0
 23 13  1  0  0  0  0
 24 14  1  0  0  0  0
 25 12  1  0  0  0  0
 26 20  1  0  0  0  0
 27 23  1  0  0  0  0
 28 29  1  0  0  0  0
 29 27  2  0  0  0  0
  9  5  2  0  0  0  0
 14 22  1  0  0  0  0
 28 26  2  0  0  0  0
 16 17  1  0  0  0  0
M  END
>  <IDNUMBER>
F2738-2670

>  <Chemical_Name>
N-(5-chloro-4-methyl-1,3-benzothiazol-2-yl)-2-(2,5-dioxopyrrolidin-1-yl)-N-[(pyridin-2-yl)methyl]acetamide

>  <PriceCoeff>
1.00

>  <CAS>
923066-72-2

>  <MW>
428.89

>  <Description>
solid

>  <FSP3>
0.25

>  <clogP>
2.20

>  <TPSA>
111.71

>  <Acceptor>
5

>  <Donor>
1

>  <RotBonds>
6

>  <HAC>
29

>  <Collection>
General

>  <PPDS>
+

$$$$
F2738-2743
  Mrv2219 10102508112D          

 34 38  0  0  0  0            999 V2000
   -3.1525    3.3985    0.0000 C   0  0  0  0  0  0  0  0  0  0  0  0
   -3.8739    3.8030    0.0000 N   0  0  0  0  0  0  0  0  0  0  0  0
   -2.4102    3.7362    0.0000 N   0  0  0  0  0  0  0  0  0  0  0  0
   -4.5994    0.1001    0.0000 N   0  0  0  0  0  0  0  0  0  0  0  0
   -3.0649    2.5853    0.0000 S   0  0  0  0  0  0  0  0  0  0  0  0
   -4.5869    3.3985    0.0000 C   0  0  0  0  0  0  0  0  0  0  0  0
   -1.8515    3.1275    0.0000 C   0  0  0  0  0  0  0  0  0  0  0  0
   -2.2601    2.4102    0.0000 C   0  0  0  0  0  0  0  0  0  0  0  0
   -5.2291   -0.4045    0.0000 C   0  0  0  0  0  0  0  0  0  0  0  0
   -3.9114   -0.3545    0.0000 C   0  0  0  0  0  0  0  0  0  0  0  0
   -4.5994    0.9257    0.0000 C   0  0  0  0  0  0  0  0  0  0  0  0
   -1.0258    3.1358    0.0000 C   0  0  0  0  0  0  0  0  0  0  0  0
   -1.8473    1.7013    0.0000 C   0  0  0  0  0  0  0  0  0  0  0  0
   -3.8739    4.6078    0.0000 C   0  0  0  0  0  0  0  0  0  0  0  0
   -4.5869    2.5728    0.0000 C   0  0  0  0  0  0  0  0  0  0  0  0
   -1.0216    1.7013    0.0000 C   0  0  0  0  0  0  0  0  0  0  0  0
   -0.6213    2.4227    0.0000 C   0  0  0  0  0  0  0  0  0  0  0  0
   -5.3000    3.7988    0.0000 O   0  0  0  0  0  0  0  0  0  0  0  0
   -4.9497   -1.1759    0.0000 C   0  0  0  0  0  0  0  0  0  0  0  0
   -4.1491   -1.1509    0.0000 C   0  0  0  0  0  0  0  0  0  0  0  0
   -6.0214   -0.1793    0.0000 O   0  0  0  0  0  0  0  0  0  0  0  0
   -3.1275   -0.0751    0.0000 O   0  0  0  0  0  0  0  0  0  0  0  0
   -2.3977    4.6203    0.0000 N   0  0  0  0  0  0  0  0  0  0  0  0
   -3.8655    1.3344    0.0000 C   0  0  0  0  0  0  0  0  0  0  0  0
   -5.2917    1.3386    0.0000 C   0  0  0  0  0  0  0  0  0  0  0  0
   -5.2917    2.1642    0.0000 C   0  0  0  0  0  0  0  0  0  0  0  0
   -3.8655    2.1600    0.0000 C   0  0  0  0  0  0  0  0  0  0  0  0
   -3.1608    5.0290    0.0000 C   0  0  0  0  0  0  0  0  0  0  0  0
    0.2044    2.4227    0.0000 C   0  0  0  0  0  0  0  0  0  0  0  0
   -0.6463    0.9716    0.0000 C   0  0  0  0  0  0  0  0  0  0  0  0
   -1.7472    5.0332    0.0000 C   0  0  0  0  0  0  0  0  0  0  0  0
   -3.1733    5.8463    0.0000 C   0  0  0  0  0  0  0  0  0  0  0  0
   -1.7472    5.8463    0.0000 C   0  0  0  0  0  0  0  0  0  0  0  0
   -2.4644    6.2591    0.0000 C   0  0  0  0  0  0  0  0  0  0  0  0
  2  1  1  0  0  0  0
  3  1  2  0  0  0  0
  4 11  1  0  0  0  0
  5  1  1  0  0  0  0
  6  2  1  0  0  0  0
  7  3  1  0  0  0  0
  8  5  1  0  0  0  0
  9  4  1  0  0  0  0
 10  4  1  0  0  0  0
 11 24  1  0  0  0  0
 12  7  1  0  0  0  0
 13  8  1  0  0  0  0
 14  2  1  0  0  0  0
 15  6  1  0  0  0  0
 16 13  2  0  0  0  0
 17 12  2  0  0  0  0
 18  6  2  0  0  0  0
 19  9  1  0  0  0  0
 20 10  1  0  0  0  0
 21  9  2  0  0  0  0
 22 10  2  0  0  0  0
 23 28  2  0  0  0  0
 24 27  2  0  0  0  0
 25 26  1  0  0  0  0
 26 15  2  0  0  0  0
 27 15  1  0  0  0  0
 28 14  1  0  0  0  0
 29 17  1  0  0  0  0
 30 16  1  0  0  0  0
 31 23  1  0  0  0  0
 32 28  1  0  0  0  0
 33 34  1  0  0  0  0
 34 32  2  0  0  0  0
  8  7  2  0  0  0  0
 17 16  1  0  0  0  0
 11 25  2  0  0  0  0
 33 31  2  0  0  0  0
 20 19  1  0  0  0  0
M  END
>  <IDNUMBER>
F2738-2743

>  <Chemical_Name>
N-(5,6-dimethyl-1,3-benzothiazol-2-yl)-4-(2,5-dioxopyrrolidin-1-yl)-N-[(pyridin-2-yl)methyl]benzamide

>  <PriceCoeff>
1.00

>  <CAS>
923067-00-9

>  <MW>
470.54

>  <Description>
solid

>  <FSP3>
0.19

>  <clogP>
2.75

>  <TPSA>
111.71

>  <Acceptor>
5

>  <Donor>
1

>  <RotBonds>
6

>  <HAC>
34

>  <Collection>
General

$$$$
F2743-0102
  Mrv2219 10102508112D          

 27 29  0  0  0  0            999 V2000
   -2.4084    1.8882    0.0000 C   0  0  0  0  0  0  0  0  0  0  0  0
   -2.4084    1.1678    0.0000 C   0  0  0  0  0  0  0  0  0  0  0  0
   -0.7276    5.2499    0.0000 N   0  3  0  0  0  0  0  0  0  0  0  0
   -0.4111    4.4858    0.0000 C   0  0  0  0  0  0  0  0  0  0  0  0
   -3.0305    0.8149    0.0000 N   0  0  0  0  0  0  0  0  0  0  0  0
   -1.9282    2.5284    0.0000 C   0  0  0  0  0  0  0  0  0  0  0  0
   -1.1132    2.4193    0.0000 N   0  0  0  0  0  0  0  0  0  0  0  0
   -0.9240    3.8310    0.0000 C   0  0  0  0  0  0  0  0  0  0  0  0
   -3.0305    2.2557    0.0000 C   0  0  0  0  0  0  0  0  0  0  0  0
    0.4075    4.3767    0.0000 C   0  0  0  0  0  0  0  0  0  0  0  0
   -3.6455    1.1678    0.0000 C   0  0  0  0  0  0  0  0  0  0  0  0
   -0.2256    5.9047    0.0000 O   0  5  0  0  0  0  0  0  0  0  0  0
   -3.0305   -0.0146    0.0000 C   0  0  0  0  0  0  0  0  0  0  0  0
   -1.5462    5.3627    0.0000 O   0  0  0  0  0  0  0  0  0  0  0  0
   -0.6076    3.0742    0.0000 C   0  0  0  0  0  0  0  0  0  0  0  0
   -1.6008    1.2988    0.0000 O   0  0  0  0  0  0  0  0  0  0  0  0
   -3.6455    1.8882    0.0000 C   0  0  0  0  0  0  0  0  0  0  0  0
   -2.2266    3.3180    0.0000 O   0  0  0  0  0  0  0  0  0  0  0  0
    0.7132    3.6055    0.0000 C   0  0  0  0  0  0  0  0  0  0  0  0
    0.2111    2.9541    0.0000 C   0  0  0  0  0  0  0  0  0  0  0  0
    0.9095    5.0316    0.0000 Cl  0  0  0  0  0  0  0  0  0  0  0  0
   -2.3102   -0.4257    0.0000 C   0  0  0  0  0  0  0  0  0  0  0  0
   -2.2993   -1.2479    0.0000 C   0  0  0  0  0  0  0  0  0  0  0  0
   -1.5898    0.0000    0.0000 C   0  0  0  0  0  0  0  0  0  0  0  0
   -1.5826   -1.6481    0.0000 C   0  0  0  0  0  0  0  0  0  0  0  0
   -0.8694   -0.4075    0.0000 C   0  0  0  0  0  0  0  0  0  0  0  0
   -0.8694   -1.2333    0.0000 C   0  0  0  0  0  0  0  0  0  0  0  0
  2  1  1  0  0  0  0
  3  4  1  0  0  0  0
  4  8  2  0  0  0  0
  5  2  1  0  0  0  0
  6  1  1  0  0  0  0
  7  6  1  0  0  0  0
  8 15  1  0  0  0  0
  9  1  2  0  0  0  0
 10 19  2  0  0  0  0
 11 17  2  0  0  0  0
 12  3  1  0  0  0  0
 13  5  1  0  0  0  0
 14  3  2  0  0  0  0
 15  7  1  0  0  0  0
 16  2  2  0  0  0  0
 17  9  1  0  0  0  0
 18  6  2  0  0  0  0
 19 20  1  0  0  0  0
 20 15  2  0  0  0  0
 21 10  1  0  0  0  0
 22 13  1  0  0  0  0
 23 22  2  0  0  0  0
 24 22  1  0  0  0  0
 25 23  1  0  0  0  0
 26 24  2  0  0  0  0
 27 26  1  0  0  0  0
  5 11  1  0  0  0  0
 10  4  1  0  0  0  0
 27 25  2  0  0  0  0
M  CHG  2   3   1  12  -1
M  END
>  <IDNUMBER>
F2743-0102

>  <Chemical_Name>
1-benzyl-N-(4-chloro-3-nitrophenyl)-2-oxo-1,2-dihydropyridine-3-carboxamide

>  <PriceCoeff>
1.00

>  <CAS>
946301-32-2

>  <MW>
383.79

>  <Description>
solid

>  <FSP3>
0.05

>  <clogP>
3.35

>  <TPSA>
92.55

>  <Acceptor>
4

>  <Donor>
1

>  <RotBonds>
5

>  <HAC>
27

>  <Collection>
General

>  <PPDS>
+

$$$$
F2743-0220
  Mrv2219 10102508112D          

 28 30  0  0  0  0            999 V2000
   -2.4060    1.8863    0.0000 C   0  0  0  0  0  0  0  0  0  0  0  0
   -2.4060    1.1667    0.0000 C   0  0  0  0  0  0  0  0  0  0  0  0
   -0.7269    5.2446    0.0000 N   0  3  0  0  0  0  0  0  0  0  0  0
   -0.4107    4.4813    0.0000 C   0  0  0  0  0  0  0  0  0  0  0  0
   -3.0275    0.8141    0.0000 N   0  0  0  0  0  0  0  0  0  0  0  0
   -1.9263    2.5260    0.0000 C   0  0  0  0  0  0  0  0  0  0  0  0
   -1.1122    2.4169    0.0000 N   0  0  0  0  0  0  0  0  0  0  0  0
   -0.9231    3.8271    0.0000 C   0  0  0  0  0  0  0  0  0  0  0  0
   -3.0275    2.2534    0.0000 C   0  0  0  0  0  0  0  0  0  0  0  0
    0.4071    4.3723    0.0000 C   0  0  0  0  0  0  0  0  0  0  0  0
   -3.0275   -0.0146    0.0000 C   0  0  0  0  0  0  0  0  0  0  0  0
   -3.6418    1.1667    0.0000 C   0  0  0  0  0  0  0  0  0  0  0  0
   -0.2253    5.8988    0.0000 O   0  5  0  0  0  0  0  0  0  0  0  0
   -1.5446    5.3573    0.0000 O   0  0  0  0  0  0  0  0  0  0  0  0
   -0.6069    3.0711    0.0000 C   0  0  0  0  0  0  0  0  0  0  0  0
   -1.5992    1.2975    0.0000 O   0  0  0  0  0  0  0  0  0  0  0  0
   -3.6418    1.8863    0.0000 C   0  0  0  0  0  0  0  0  0  0  0  0
   -2.2243    3.3147    0.0000 O   0  0  0  0  0  0  0  0  0  0  0  0
   -2.3079   -0.4252    0.0000 C   0  0  0  0  0  0  0  0  0  0  0  0
    0.7124    3.6018    0.0000 C   0  0  0  0  0  0  0  0  0  0  0  0
   -1.5919   -0.0109    0.0000 C   0  0  0  0  0  0  0  0  0  0  0  0
    0.2108    2.9512    0.0000 C   0  0  0  0  0  0  0  0  0  0  0  0
    0.9087    5.0265    0.0000 Cl  0  0  0  0  0  0  0  0  0  0  0  0
   -0.8723   -0.4180    0.0000 C   0  0  0  0  0  0  0  0  0  0  0  0
   -0.1636   -0.0037    0.0000 F   0  0  0  0  0  0  0  0  0  0  0  0
   -1.5882   -1.6573    0.0000 C   0  0  0  0  0  0  0  0  0  0  0  0
   -2.3079   -1.2467    0.0000 C   0  0  0  0  0  0  0  0  0  0  0  0
   -0.8723   -1.2430    0.0000 C   0  0  0  0  0  0  0  0  0  0  0  0
  2  1  1  0  0  0  0
  3  4  1  0  0  0  0
  4  8  2  0  0  0  0
  5  2  1  0  0  0  0
  6  1  1  0  0  0  0
  7  6  1  0  0  0  0
  8 15  1  0  0  0  0
  9  1  2  0  0  0  0
 10 20  2  0  0  0  0
 11  5  1  0  0  0  0
 12 17  2  0  0  0  0
 13  3  1  0  0  0  0
 14  3  2  0  0  0  0
 15  7  1  0  0  0  0
 16  2  2  0  0  0  0
 17  9  1  0  0  0  0
 18  6  2  0  0  0  0
 19 11  1  0  0  0  0
 20 22  1  0  0  0  0
 21 19  1  0  0  0  0
 22 15  2  0  0  0  0
 23 10  1  0  0  0  0
 24 21  2  0  0  0  0
 25 24  1  0  0  0  0
 26 27  1  0  0  0  0
 27 19  2  0  0  0  0
 28 26  2  0  0  0  0
  5 12  1  0  0  0  0
 10  4  1  0  0  0  0
 24 28  1  0  0  0  0
M  CHG  2   3   1  13  -1
M  END
>  <IDNUMBER>
F2743-0220

>  <Chemical_Name>
N-(4-chloro-3-nitrophenyl)-1-[(3-fluorophenyl)methyl]-2-oxo-1,2-dihydropyridine-3-carboxamide

>  <PriceCoeff>
1.00

>  <CAS>
941952-06-3

>  <MW>
401.78

>  <Description>
solid

>  <FSP3>
0.05

>  <clogP>
3.49

>  <TPSA>
92.55

>  <Acceptor>
4

>  <Donor>
1

>  <RotBonds>
5

>  <HAC>
28

>  <Collection>
General

>  <PPDS>
+

$$$$
F2743-0338
  Mrv2219 10102508112D          

 28 30  0  0  0  0            999 V2000
   -2.4070    1.8870    0.0000 C   0  0  0  0  0  0  0  0  0  0  0  0
   -2.4070    1.1671    0.0000 C   0  0  0  0  0  0  0  0  0  0  0  0
   -0.7272    5.2466    0.0000 N   0  3  0  0  0  0  0  0  0  0  0  0
   -0.4108    4.4831    0.0000 C   0  0  0  0  0  0  0  0  0  0  0  0
   -3.0287    0.8144    0.0000 N   0  0  0  0  0  0  0  0  0  0  0  0
   -1.9270    2.5269    0.0000 C   0  0  0  0  0  0  0  0  0  0  0  0
   -1.1126    2.4179    0.0000 N   0  0  0  0  0  0  0  0  0  0  0  0
   -0.9235    3.8286    0.0000 C   0  0  0  0  0  0  0  0  0  0  0  0
   -3.0287    2.2542    0.0000 C   0  0  0  0  0  0  0  0  0  0  0  0
    0.4073    4.3740    0.0000 C   0  0  0  0  0  0  0  0  0  0  0  0
   -3.6432    1.1671    0.0000 C   0  0  0  0  0  0  0  0  0  0  0  0
   -0.2254    5.9011    0.0000 O   0  5  0  0  0  0  0  0  0  0  0  0
   -3.0287   -0.0146    0.0000 C   0  0  0  0  0  0  0  0  0  0  0  0
   -1.5452    5.3594    0.0000 O   0  0  0  0  0  0  0  0  0  0  0  0
   -0.6072    3.0723    0.0000 C   0  0  0  0  0  0  0  0  0  0  0  0
   -1.5998    1.2980    0.0000 O   0  0  0  0  0  0  0  0  0  0  0  0
   -3.6432    1.8870    0.0000 C   0  0  0  0  0  0  0  0  0  0  0  0
   -2.2252    3.3160    0.0000 O   0  0  0  0  0  0  0  0  0  0  0  0
    0.7127    3.6032    0.0000 C   0  0  0  0  0  0  0  0  0  0  0  0
   -2.3088   -0.4291    0.0000 C   0  0  0  0  0  0  0  0  0  0  0  0
    0.2109    2.9523    0.0000 C   0  0  0  0  0  0  0  0  0  0  0  0
    0.9090    5.0285    0.0000 Cl  0  0  0  0  0  0  0  0  0  0  0  0
   -0.8726   -1.2362    0.0000 C   0  0  0  0  0  0  0  0  0  0  0  0
   -0.1490   -1.6616    0.0000 F   0  0  0  0  0  0  0  0  0  0  0  0
   -2.3088   -1.2472    0.0000 C   0  0  0  0  0  0  0  0  0  0  0  0
   -1.5889   -0.0109    0.0000 C   0  0  0  0  0  0  0  0  0  0  0  0
   -1.5889   -1.6580    0.0000 C   0  0  0  0  0  0  0  0  0  0  0  0
   -0.8690   -0.4182    0.0000 C   0  0  0  0  0  0  0  0  0  0  0  0
  2  1  1  0  0  0  0
  3  4  1  0  0  0  0
  4  8  2  0  0  0  0
  5  2  1  0  0  0  0
  6  1  1  0  0  0  0
  7  6  1  0  0  0  0
  8 15  1  0  0  0  0
  9  1  2  0  0  0  0
 10 19  2  0  0  0  0
 11 17  2  0  0  0  0
 12  3  1  0  0  0  0
 13  5  1  0  0  0  0
 14  3  2  0  0  0  0
 15  7  1  0  0  0  0
 16  2  2  0  0  0  0
 17  9  1  0  0  0  0
 18  6  2  0  0  0  0
 19 21  1  0  0  0  0
 20 13  1  0  0  0  0
 21 15  2  0  0  0  0
 22 10  1  0  0  0  0
 23 28  1  0  0  0  0
 24 23  1  0  0  0  0
 25 20  2  0  0  0  0
 26 20  1  0  0  0  0
 27 25  1  0  0  0  0
 28 26  2  0  0  0  0
  5 11  1  0  0  0  0
 10  4  1  0  0  0  0
 23 27  2  0  0  0  0
M  CHG  2   3   1  12  -1
M  END
>  <IDNUMBER>
F2743-0338

>  <Chemical_Name>
N-(4-chloro-3-nitrophenyl)-1-[(4-fluorophenyl)methyl]-2-oxo-1,2-dihydropyridine-3-carboxamide

>  <PriceCoeff>
1.00

>  <CAS>
941952-10-9

>  <MW>
401.78

>  <Description>
solid

>  <FSP3>
0.05

>  <clogP>
3.49

>  <TPSA>
92.55

>  <Acceptor>
4

>  <Donor>
1

>  <RotBonds>
5

>  <HAC>
28

>  <Collection>
General

>  <PPDS>
+

$$$$
F2743-0456
  Mrv2219 10102508112D          

 28 30  0  0  0  0            999 V2000
   -2.4071    1.8871    0.0000 C   0  0  0  0  0  0  0  0  0  0  0  0
   -2.4071    1.1672    0.0000 C   0  0  0  0  0  0  0  0  0  0  0  0
   -0.7272    5.2469    0.0000 N   0  3  0  0  0  0  0  0  0  0  0  0
   -3.0289    0.8145    0.0000 N   0  0  0  0  0  0  0  0  0  0  0  0
   -0.4109    4.4833    0.0000 C   0  0  0  0  0  0  0  0  0  0  0  0
   -1.9271    2.5271    0.0000 C   0  0  0  0  0  0  0  0  0  0  0  0
   -1.1127    2.4180    0.0000 N   0  0  0  0  0  0  0  0  0  0  0  0
   -3.0289   -0.0146    0.0000 C   0  0  0  0  0  0  0  0  0  0  0  0
   -0.9235    3.8288    0.0000 C   0  0  0  0  0  0  0  0  0  0  0  0
   -3.0289    2.2544    0.0000 C   0  0  0  0  0  0  0  0  0  0  0  0
    0.4073    4.3743    0.0000 C   0  0  0  0  0  0  0  0  0  0  0  0
   -3.6434    1.1672    0.0000 C   0  0  0  0  0  0  0  0  0  0  0  0
   -0.2254    5.9014    0.0000 O   0  5  0  0  0  0  0  0  0  0  0  0
   -2.3126   -0.4182    0.0000 C   0  0  0  0  0  0  0  0  0  0  0  0
   -1.5453    5.3597    0.0000 O   0  0  0  0  0  0  0  0  0  0  0  0
   -0.6072    3.0725    0.0000 C   0  0  0  0  0  0  0  0  0  0  0  0
   -1.5999    1.2981    0.0000 O   0  0  0  0  0  0  0  0  0  0  0  0
   -3.6434    1.8871    0.0000 C   0  0  0  0  0  0  0  0  0  0  0  0
   -2.2253    3.3161    0.0000 O   0  0  0  0  0  0  0  0  0  0  0  0
   -2.3017   -1.2472    0.0000 C   0  0  0  0  0  0  0  0  0  0  0  0
    0.7127    3.6034    0.0000 C   0  0  0  0  0  0  0  0  0  0  0  0
    0.2109    2.9525    0.0000 C   0  0  0  0  0  0  0  0  0  0  0  0
    0.9091    5.0288    0.0000 Cl  0  0  0  0  0  0  0  0  0  0  0  0
   -1.5890    0.0000    0.0000 C   0  0  0  0  0  0  0  0  0  0  0  0
   -3.0180   -1.6690    0.0000 C   0  0  0  0  0  0  0  0  0  0  0  0
   -1.5780   -1.6581    0.0000 C   0  0  0  0  0  0  0  0  0  0  0  0
   -0.8690   -0.4145    0.0000 C   0  0  0  0  0  0  0  0  0  0  0  0
   -0.8690   -1.2363    0.0000 C   0  0  0  0  0  0  0  0  0  0  0  0
  2  1  1  0  0  0  0
  3  5  1  0  0  0  0
  4  2  1  0  0  0  0
  5  9  2  0  0  0  0
  6  1  1  0  0  0  0
  7  6  1  0  0  0  0
  8  4  1  0  0  0  0
  9 16  1  0  0  0  0
 10  1  2  0  0  0  0
 11 21  2  0  0  0  0
 12 18  2  0  0  0  0
 13  3  1  0  0  0  0
 14  8  1  0  0  0  0
 15  3  2  0  0  0  0
 16  7  1  0  0  0  0
 17  2  2  0  0  0  0
 18 10  1  0  0  0  0
 19  6  2  0  0  0  0
 20 14  2  0  0  0  0
 21 22  1  0  0  0  0
 22 16  2  0  0  0  0
 23 11  1  0  0  0  0
 24 14  1  0  0  0  0
 25 20  1  0  0  0  0
 26 20  1  0  0  0  0
 27 24  2  0  0  0  0
 28 27  1  0  0  0  0
  4 12  1  0  0  0  0
 11  5  1  0  0  0  0
 28 26  2  0  0  0  0
M  CHG  2   3   1  13  -1
M  END
>  <IDNUMBER>
F2743-0456

>  <Chemical_Name>
N-(4-chloro-3-nitrophenyl)-1-[(2-methylphenyl)methyl]-2-oxo-1,2-dihydropyridine-3-carboxamide

>  <PriceCoeff>
1.00

>  <CAS>
899991-30-1

>  <MW>
397.81

>  <Description>
solid

>  <FSP3>
0.10

>  <clogP>
3.80

>  <TPSA>
92.55

>  <Acceptor>
4

>  <Donor>
1

>  <RotBonds>
5

>  <HAC>
28

>  <Collection>
General

>  <PPDS>
+

$$$$
F2743-0574
  Mrv2219 10102508112D          

 28 30  0  0  0  0            999 V2000
   -2.4162    1.8943    0.0000 C   0  0  0  0  0  0  0  0  0  0  0  0
   -2.4162    1.1716    0.0000 C   0  0  0  0  0  0  0  0  0  0  0  0
   -0.7300    5.2668    0.0000 N   0  3  0  0  0  0  0  0  0  0  0  0
   -0.4124    4.5003    0.0000 C   0  0  0  0  0  0  0  0  0  0  0  0
   -3.0404    0.8176    0.0000 N   0  0  0  0  0  0  0  0  0  0  0  0
   -1.9344    2.5367    0.0000 C   0  0  0  0  0  0  0  0  0  0  0  0
   -1.1169    2.4272    0.0000 N   0  0  0  0  0  0  0  0  0  0  0  0
   -0.9270    3.8434    0.0000 C   0  0  0  0  0  0  0  0  0  0  0  0
   -3.0404    2.2629    0.0000 C   0  0  0  0  0  0  0  0  0  0  0  0
    0.4088    4.3908    0.0000 C   0  0  0  0  0  0  0  0  0  0  0  0
   -3.6572    1.1716    0.0000 C   0  0  0  0  0  0  0  0  0  0  0  0
   -0.2263    5.9238    0.0000 O   0  5  0  0  0  0  0  0  0  0  0  0
   -3.0404   -0.0146    0.0000 C   0  0  0  0  0  0  0  0  0  0  0  0
   -1.5512    5.3800    0.0000 O   0  0  0  0  0  0  0  0  0  0  0  0
   -0.6095    3.0842    0.0000 C   0  0  0  0  0  0  0  0  0  0  0  0
   -1.6059    1.3030    0.0000 O   0  0  0  0  0  0  0  0  0  0  0  0
   -3.6572    1.8943    0.0000 C   0  0  0  0  0  0  0  0  0  0  0  0
   -2.2337    3.3287    0.0000 O   0  0  0  0  0  0  0  0  0  0  0  0
    0.7154    3.6171    0.0000 C   0  0  0  0  0  0  0  0  0  0  0  0
   -2.3177   -0.4307    0.0000 C   0  0  0  0  0  0  0  0  0  0  0  0
    0.2117    2.9637    0.0000 C   0  0  0  0  0  0  0  0  0  0  0  0
    0.9125    5.0478    0.0000 Cl  0  0  0  0  0  0  0  0  0  0  0  0
   -0.8760   -1.2410    0.0000 C   0  0  0  0  0  0  0  0  0  0  0  0
   -0.1496   -1.6753    0.0000 Cl  0  0  0  0  0  0  0  0  0  0  0  0
   -2.3177   -1.2520    0.0000 C   0  0  0  0  0  0  0  0  0  0  0  0
   -1.5950   -0.0109    0.0000 C   0  0  0  0  0  0  0  0  0  0  0  0
   -1.5950   -1.6644    0.0000 C   0  0  0  0  0  0  0  0  0  0  0  0
   -0.8833   -0.4161    0.0000 C   0  0  0  0  0  0  0  0  0  0  0  0
  2  1  1  0  0  0  0
  3  4  1  0  0  0  0
  4  8  2  0  0  0  0
  5  2  1  0  0  0  0
  6  1  1  0  0  0  0
  7  6  1  0  0  0  0
  8 15  1  0  0  0  0
  9  1  2  0  0  0  0
 10 19  2  0  0  0  0
 11 17  2  0  0  0  0
 12  3  1  0  0  0  0
 13  5  1  0  0  0  0
 14  3  2  0  0  0  0
 15  7  1  0  0  0  0
 16  2  2  0  0  0  0
 17  9  1  0  0  0  0
 18  6  2  0  0  0  0
 19 21  1  0  0  0  0
 20 13  1  0  0  0  0
 21 15  2  0  0  0  0
 22 10  1  0  0  0  0
 23 28  1  0  0  0  0
 24 23  1  0  0  0  0
 25 20  2  0  0  0  0
 26 20  1  0  0  0  0
 27 25  1  0  0  0  0
 28 26  2  0  0  0  0
  5 11  1  0  0  0  0
 10  4  1  0  0  0  0
 23 27  2  0  0  0  0
M  CHG  2   3   1  12  -1
M  END
>  <IDNUMBER>
F2743-0574

>  <Chemical_Name>
N-(4-chloro-3-nitrophenyl)-1-[(4-chlorophenyl)methyl]-2-oxo-1,2-dihydropyridine-3-carboxamide

>  <PriceCoeff>
1.00

>  <CAS>
941952-28-9

>  <MW>
418.23

>  <Description>
solid

>  <FSP3>
0.05

>  <clogP>
4.06

>  <TPSA>
92.55

>  <Acceptor>
4

>  <Donor>
1

>  <RotBonds>
5

>  <HAC>
28

>  <Collection>
General

>  <PPDS>
+

$$$$
F2743-0692
  Mrv2219 10102508112D          

 29 31  0  0  0  0            999 V2000
   -2.4060    1.8863    0.0000 C   0  0  0  0  0  0  0  0  0  0  0  0
   -2.4060    1.1667    0.0000 C   0  0  0  0  0  0  0  0  0  0  0  0
   -3.0275    0.8141    0.0000 N   0  0  0  0  0  0  0  0  0  0  0  0
   -0.7269    5.2446    0.0000 N   0  3  0  0  0  0  0  0  0  0  0  0
   -0.4107    4.4813    0.0000 C   0  0  0  0  0  0  0  0  0  0  0  0
   -1.9263    2.5260    0.0000 C   0  0  0  0  0  0  0  0  0  0  0  0
   -2.3079   -0.4252    0.0000 C   0  0  0  0  0  0  0  0  0  0  0  0
   -3.0275   -0.0146    0.0000 C   0  0  0  0  0  0  0  0  0  0  0  0
   -1.1122    2.4169    0.0000 N   0  0  0  0  0  0  0  0  0  0  0  0
   -0.9231    3.8271    0.0000 C   0  0  0  0  0  0  0  0  0  0  0  0
   -3.0275    2.2534    0.0000 C   0  0  0  0  0  0  0  0  0  0  0  0
    0.4071    4.3723    0.0000 C   0  0  0  0  0  0  0  0  0  0  0  0
   -3.6418    1.1667    0.0000 C   0  0  0  0  0  0  0  0  0  0  0  0
   -0.2253    5.8988    0.0000 O   0  5  0  0  0  0  0  0  0  0  0  0
   -1.5446    5.3573    0.0000 O   0  0  0  0  0  0  0  0  0  0  0  0
   -0.6069    3.0711    0.0000 C   0  0  0  0  0  0  0  0  0  0  0  0
   -2.3115   -1.2539    0.0000 C   0  0  0  0  0  0  0  0  0  0  0  0
   -1.5882   -0.0218    0.0000 C   0  0  0  0  0  0  0  0  0  0  0  0
   -1.5992    1.2975    0.0000 O   0  0  0  0  0  0  0  0  0  0  0  0
   -3.6418    1.8863    0.0000 C   0  0  0  0  0  0  0  0  0  0  0  0
   -2.2243    3.3147    0.0000 O   0  0  0  0  0  0  0  0  0  0  0  0
    0.7124    3.6018    0.0000 C   0  0  0  0  0  0  0  0  0  0  0  0
    0.2108    2.9512    0.0000 C   0  0  0  0  0  0  0  0  0  0  0  0
    0.9087    5.0265    0.0000 Cl  0  0  0  0  0  0  0  0  0  0  0  0
   -3.0312   -1.6610    0.0000 Cl  0  0  0  0  0  0  0  0  0  0  0  0
   -1.5773    0.8032    0.0000 F   0  0  0  0  0  0  0  0  0  0  0  0
   -0.8795   -1.2685    0.0000 C   0  0  0  0  0  0  0  0  0  0  0  0
   -1.6101   -1.6791    0.0000 C   0  0  0  0  0  0  0  0  0  0  0  0
   -0.8723   -0.4470    0.0000 C   0  0  0  0  0  0  0  0  0  0  0  0
  2  1  1  0  0  0  0
  3  2  1  0  0  0  0
  4  5  1  0  0  0  0
  5 10  2  0  0  0  0
  6  1  1  0  0  0  0
  7  8  1  0  0  0  0
  8  3  1  0  0  0  0
  9  6  1  0  0  0  0
 10 16  1  0  0  0  0
 11  1  2  0  0  0  0
 12 22  2  0  0  0  0
 13 20  2  0  0  0  0
 14  4  1  0  0  0  0
 15  4  2  0  0  0  0
 16  9  1  0  0  0  0
 17  7  2  0  0  0  0
 18  7  1  0  0  0  0
 19  2  2  0  0  0  0
 20 11  1  0  0  0  0
 21  6  2  0  0  0  0
 22 23  1  0  0  0  0
 23 16  2  0  0  0  0
 24 12  1  0  0  0  0
 25 17  1  0  0  0  0
 26 18  1  0  0  0  0
 27 29  1  0  0  0  0
 28 17  1  0  0  0  0
 29 18  2  0  0  0  0
  3 13  1  0  0  0  0
 12  5  1  0  0  0  0
 28 27  2  0  0  0  0
M  CHG  2   4   1  14  -1
M  END
>  <IDNUMBER>
F2743-0692

>  <Chemical_Name>
N-(4-chloro-3-nitrophenyl)-1-[(2-chloro-6-fluorophenyl)methyl]-2-oxo-1,2-dihydropyridine-3-carboxamide

>  <PriceCoeff>
1.00

>  <CAS>
941989-24-8

>  <MW>
436.22

>  <Description>
solid

>  <FSP3>
0.05

>  <clogP>
4.20

>  <TPSA>
92.55

>  <Acceptor>
4

>  <Donor>
1

>  <RotBonds>
5

>  <HAC>
29

>  <Collection>
General

>  <PPDS>
+

$$$$
F2743-0810
  Mrv2219 10102508112D          

 28 30  0  0  0  0            999 V2000
   -2.4060    1.8863    0.0000 C   0  0  0  0  0  0  0  0  0  0  0  0
   -2.4060    1.1667    0.0000 C   0  0  0  0  0  0  0  0  0  0  0  0
   -0.7269    5.2446    0.0000 N   0  3  0  0  0  0  0  0  0  0  0  0
   -0.4107    4.4813    0.0000 C   0  0  0  0  0  0  0  0  0  0  0  0
   -3.0275    0.8141    0.0000 N   0  0  0  0  0  0  0  0  0  0  0  0
   -1.9263    2.5260    0.0000 C   0  0  0  0  0  0  0  0  0  0  0  0
   -1.1122    2.4169    0.0000 N   0  0  0  0  0  0  0  0  0  0  0  0
   -0.9231    3.8271    0.0000 C   0  0  0  0  0  0  0  0  0  0  0  0
   -3.0275    2.2534    0.0000 C   0  0  0  0  0  0  0  0  0  0  0  0
    0.4071    4.3723    0.0000 C   0  0  0  0  0  0  0  0  0  0  0  0
   -3.0275   -0.0146    0.0000 C   0  0  0  0  0  0  0  0  0  0  0  0
   -3.6418    1.1667    0.0000 C   0  0  0  0  0  0  0  0  0  0  0  0
   -0.2253    5.8988    0.0000 O   0  5  0  0  0  0  0  0  0  0  0  0
   -1.5446    5.3573    0.0000 O   0  0  0  0  0  0  0  0  0  0  0  0
   -0.6069    3.0711    0.0000 C   0  0  0  0  0  0  0  0  0  0  0  0
   -1.5992    1.2975    0.0000 O   0  0  0  0  0  0  0  0  0  0  0  0
   -3.6418    1.8863    0.0000 C   0  0  0  0  0  0  0  0  0  0  0  0
   -2.2243    3.3147    0.0000 O   0  0  0  0  0  0  0  0  0  0  0  0
   -2.3079   -0.4252    0.0000 C   0  0  0  0  0  0  0  0  0  0  0  0
    0.7124    3.6018    0.0000 C   0  0  0  0  0  0  0  0  0  0  0  0
   -2.3188   -1.2576    0.0000 C   0  0  0  0  0  0  0  0  0  0  0  0
    0.2108    2.9512    0.0000 C   0  0  0  0  0  0  0  0  0  0  0  0
    0.9087    5.0265    0.0000 Cl  0  0  0  0  0  0  0  0  0  0  0  0
   -1.6101   -1.6719    0.0000 C   0  0  0  0  0  0  0  0  0  0  0  0
   -0.8686   -0.4398    0.0000 C   0  0  0  0  0  0  0  0  0  0  0  0
   -1.5810   -0.0146    0.0000 C   0  0  0  0  0  0  0  0  0  0  0  0
   -0.8795   -1.2576    0.0000 C   0  0  0  0  0  0  0  0  0  0  0  0
   -1.6101   -2.5006    0.0000 C   0  0  0  0  0  0  0  0  0  0  0  0
  2  1  1  0  0  0  0
  3  4  1  0  0  0  0
  4  8  2  0  0  0  0
  5  2  1  0  0  0  0
  6  1  1  0  0  0  0
  7  6  1  0  0  0  0
  8 15  1  0  0  0  0
  9  1  2  0  0  0  0
 10 20  2  0  0  0  0
 11  5  1  0  0  0  0
 12 17  2  0  0  0  0
 13  3  1  0  0  0  0
 14  3  2  0  0  0  0
 15  7  1  0  0  0  0
 16  2  2  0  0  0  0
 17  9  1  0  0  0  0
 18  6  2  0  0  0  0
 19 11  1  0  0  0  0
 20 22  1  0  0  0  0
 21 19  2  0  0  0  0
 22 15  2  0  0  0  0
 23 10  1  0  0  0  0
 24 21  1  0  0  0  0
 25 26  2  0  0  0  0
 26 19  1  0  0  0  0
 27 25  1  0  0  0  0
 28 24  1  0  0  0  0
  5 12  1  0  0  0  0
 10  4  1  0  0  0  0
 27 24  2  0  0  0  0
M  CHG  2   3   1  13  -1
M  END
>  <IDNUMBER>
F2743-0810

>  <Chemical_Name>
N-(4-chloro-3-nitrophenyl)-1-[(3-methylphenyl)methyl]-2-oxo-1,2-dihydropyridine-3-carboxamide

>  <PriceCoeff>
1.00

>  <CAS>
899754-12-2

>  <MW>
397.81

>  <Description>
solid

>  <FSP3>
0.10

>  <clogP>
3.85

>  <TPSA>
92.55

>  <Acceptor>
4

>  <Donor>
1

>  <RotBonds>
5

>  <HAC>
28

>  <Collection>
General

>  <PPDS>
+

$$$$
F2743-0928
  Mrv2219 10102508112D          

 28 30  0  0  0  0            999 V2000
   -2.4070    1.8870    0.0000 C   0  0  0  0  0  0  0  0  0  0  0  0
   -2.4070    1.1671    0.0000 C   0  0  0  0  0  0  0  0  0  0  0  0
   -0.7272    5.2466    0.0000 N   0  3  0  0  0  0  0  0  0  0  0  0
   -3.0287    0.8144    0.0000 N   0  0  0  0  0  0  0  0  0  0  0  0
   -0.4108    4.4831    0.0000 C   0  0  0  0  0  0  0  0  0  0  0  0
   -1.9270    2.5269    0.0000 C   0  0  0  0  0  0  0  0  0  0  0  0
   -3.0287   -0.0146    0.0000 C   0  0  0  0  0  0  0  0  0  0  0  0
   -1.1126    2.4179    0.0000 N   0  0  0  0  0  0  0  0  0  0  0  0
   -0.9235    3.8286    0.0000 C   0  0  0  0  0  0  0  0  0  0  0  0
   -2.3088   -0.4254    0.0000 C   0  0  0  0  0  0  0  0  0  0  0  0
   -3.0287    2.2542    0.0000 C   0  0  0  0  0  0  0  0  0  0  0  0
    0.4073    4.3740    0.0000 C   0  0  0  0  0  0  0  0  0  0  0  0
   -3.6432    1.1671    0.0000 C   0  0  0  0  0  0  0  0  0  0  0  0
   -0.2254    5.9011    0.0000 O   0  5  0  0  0  0  0  0  0  0  0  0
   -1.5452    5.3594    0.0000 O   0  0  0  0  0  0  0  0  0  0  0  0
   -0.6072    3.0723    0.0000 C   0  0  0  0  0  0  0  0  0  0  0  0
   -1.5998    1.2980    0.0000 O   0  0  0  0  0  0  0  0  0  0  0  0
   -3.6432    1.8870    0.0000 C   0  0  0  0  0  0  0  0  0  0  0  0
   -2.2252    3.3160    0.0000 O   0  0  0  0  0  0  0  0  0  0  0  0
   -2.3088   -1.2544    0.0000 C   0  0  0  0  0  0  0  0  0  0  0  0
    0.7127    3.6032    0.0000 C   0  0  0  0  0  0  0  0  0  0  0  0
    0.2109    2.9523    0.0000 C   0  0  0  0  0  0  0  0  0  0  0  0
    0.9090    5.0285    0.0000 Cl  0  0  0  0  0  0  0  0  0  0  0  0
   -3.0287   -1.6616    0.0000 Cl  0  0  0  0  0  0  0  0  0  0  0  0
   -1.5889   -0.0146    0.0000 C   0  0  0  0  0  0  0  0  0  0  0  0
   -1.5998   -1.6726    0.0000 C   0  0  0  0  0  0  0  0  0  0  0  0
   -0.8726   -0.4363    0.0000 C   0  0  0  0  0  0  0  0  0  0  0  0
   -0.8799   -1.2581    0.0000 C   0  0  0  0  0  0  0  0  0  0  0  0
  2  1  1  0  0  0  0
  3  5  1  0  0  0  0
  4  2  1  0  0  0  0
  5  9  2  0  0  0  0
  6  1  1  0  0  0  0
  7  4  1  0  0  0  0
  8  6  1  0  0  0  0
  9 16  1  0  0  0  0
 10  7  1  0  0  0  0
 11  1  2  0  0  0  0
 12 21  2  0  0  0  0
 13 18  2  0  0  0  0
 14  3  1  0  0  0  0
 15  3  2  0  0  0  0
 16  8  1  0  0  0  0
 17  2  2  0  0  0  0
 18 11  1  0  0  0  0
 19  6  2  0  0  0  0
 20 10  2  0  0  0  0
 21 22  1  0  0  0  0
 22 16  2  0  0  0  0
 23 12  1  0  0  0  0
 24 20  1  0  0  0  0
 25 10  1  0  0  0  0
 26 20  1  0  0  0  0
 27 25  2  0  0  0  0
 28 27  1  0  0  0  0
  4 13  1  0  0  0  0
 12  5  1  0  0  0  0
 28 26  2  0  0  0  0
M  CHG  2   3   1  14  -1
M  END
>  <IDNUMBER>
F2743-0928

>  <Chemical_Name>
N-(4-chloro-3-nitrophenyl)-1-[(2-chlorophenyl)methyl]-2-oxo-1,2-dihydropyridine-3-carboxamide

>  <PriceCoeff>
1.00

>  <CAS>
941989-39-5

>  <MW>
418.23

>  <Description>
solid

>  <FSP3>
0.05

>  <clogP>
4.06

>  <TPSA>
92.55

>  <Acceptor>
4

>  <Donor>
1

>  <RotBonds>
5

>  <HAC>
28

>  <Collection>
General

>  <PPDS>
+

$$$$
F2743-1046
  Mrv2219 10102508112D          

 29 31  0  0  0  0            999 V2000
   -2.4060    1.8863    0.0000 C   0  0  0  0  0  0  0  0  0  0  0  0
   -2.4060    1.1667    0.0000 C   0  0  0  0  0  0  0  0  0  0  0  0
   -0.7269    5.2446    0.0000 N   0  3  0  0  0  0  0  0  0  0  0  0
   -3.0275    0.8141    0.0000 N   0  0  0  0  0  0  0  0  0  0  0  0
   -0.4107    4.4813    0.0000 C   0  0  0  0  0  0  0  0  0  0  0  0
   -1.9263    2.5260    0.0000 C   0  0  0  0  0  0  0  0  0  0  0  0
   -3.0275   -0.0146    0.0000 C   0  0  0  0  0  0  0  0  0  0  0  0
   -1.1122    2.4169    0.0000 N   0  0  0  0  0  0  0  0  0  0  0  0
   -2.3079   -0.4252    0.0000 C   0  0  0  0  0  0  0  0  0  0  0  0
   -0.9231    3.8271    0.0000 C   0  0  0  0  0  0  0  0  0  0  0  0
   -3.0275    2.2534    0.0000 C   0  0  0  0  0  0  0  0  0  0  0  0
    0.4071    4.3723    0.0000 C   0  0  0  0  0  0  0  0  0  0  0  0
   -3.6418    1.1667    0.0000 C   0  0  0  0  0  0  0  0  0  0  0  0
   -0.2253    5.8988    0.0000 O   0  5  0  0  0  0  0  0  0  0  0  0
   -1.5446    5.3573    0.0000 O   0  0  0  0  0  0  0  0  0  0  0  0
   -0.6069    3.0711    0.0000 C   0  0  0  0  0  0  0  0  0  0  0  0
   -1.5992    1.2975    0.0000 O   0  0  0  0  0  0  0  0  0  0  0  0
   -3.6418    1.8863    0.0000 C   0  0  0  0  0  0  0  0  0  0  0  0
   -2.2243    3.3147    0.0000 O   0  0  0  0  0  0  0  0  0  0  0  0
   -2.3115   -1.2576    0.0000 C   0  0  0  0  0  0  0  0  0  0  0  0
   -1.5882   -0.0146    0.0000 C   0  0  0  0  0  0  0  0  0  0  0  0
    0.7124    3.6018    0.0000 C   0  0  0  0  0  0  0  0  0  0  0  0
   -1.5992   -1.6719    0.0000 C   0  0  0  0  0  0  0  0  0  0  0  0
   -0.8686   -0.4361    0.0000 C   0  0  0  0  0  0  0  0  0  0  0  0
    0.2108    2.9512    0.0000 C   0  0  0  0  0  0  0  0  0  0  0  0
    0.9087    5.0265    0.0000 Cl  0  0  0  0  0  0  0  0  0  0  0  0
   -0.8795   -1.2576    0.0000 C   0  0  0  0  0  0  0  0  0  0  0  0
   -3.0275   -1.6682    0.0000 C   0  0  0  0  0  0  0  0  0  0  0  0
   -0.1526   -0.0255    0.0000 C   0  0  0  0  0  0  0  0  0  0  0  0
  2  1  1  0  0  0  0
  3  5  1  0  0  0  0
  4  2  1  0  0  0  0
  5 10  2  0  0  0  0
  6  1  1  0  0  0  0
  7  4  1  0  0  0  0
  8  6  1  0  0  0  0
  9  7  1  0  0  0  0
 10 16  1  0  0  0  0
 11  1  2  0  0  0  0
 12 22  2  0  0  0  0
 13 18  2  0  0  0  0
 14  3  1  0  0  0  0
 15  3  2  0  0  0  0
 16  8  1  0  0  0  0
 17  2  2  0  0  0  0
 18 11  1  0  0  0  0
 19  6  2  0  0  0  0
 20  9  2  0  0  0  0
 21  9  1  0  0  0  0
 22 25  1  0  0  0  0
 23 20  1  0  0  0  0
 24 21  2  0  0  0  0
 25 16  2  0  0  0  0
 26 12  1  0  0  0  0
 27 24  1  0  0  0  0
 28 20  1  0  0  0  0
 29 24  1  0  0  0  0
  4 13  1  0  0  0  0
 12  5  1  0  0  0  0
 27 23  2  0  0  0  0
M  CHG  2   3   1  14  -1
M  END
>  <IDNUMBER>
F2743-1046

>  <Chemical_Name>
N-(4-chloro-3-nitrophenyl)-1-[(2,5-dimethylphenyl)methyl]-2-oxo-1,2-dihydropyridine-3-carboxamide

>  <PriceCoeff>
1.00

>  <CAS>
941952-82-5

>  <MW>
411.84

>  <Description>
solid

>  <FSP3>
0.14

>  <clogP>
4.29

>  <TPSA>
92.55

>  <Acceptor>
4

>  <Donor>
1

>  <RotBonds>
5

>  <HAC>
29

>  <Collection>
General

>  <PPDS>
+

$$$$
F2743-1164
  Mrv2219 10102508112D          

 28 30  0  0  0  0            999 V2000
   -2.4162    1.8943    0.0000 C   0  0  0  0  0  0  0  0  0  0  0  0
   -2.4162    1.1716    0.0000 C   0  0  0  0  0  0  0  0  0  0  0  0
   -0.7300    5.2668    0.0000 N   0  3  0  0  0  0  0  0  0  0  0  0
   -0.4124    4.5003    0.0000 C   0  0  0  0  0  0  0  0  0  0  0  0
   -3.0404    0.8176    0.0000 N   0  0  0  0  0  0  0  0  0  0  0  0
   -1.9344    2.5367    0.0000 C   0  0  0  0  0  0  0  0  0  0  0  0
   -1.1169    2.4272    0.0000 N   0  0  0  0  0  0  0  0  0  0  0  0
   -0.9270    3.8434    0.0000 C   0  0  0  0  0  0  0  0  0  0  0  0
   -3.0404    2.2629    0.0000 C   0  0  0  0  0  0  0  0  0  0  0  0
    0.4088    4.3908    0.0000 C   0  0  0  0  0  0  0  0  0  0  0  0
   -3.6572    1.1716    0.0000 C   0  0  0  0  0  0  0  0  0  0  0  0
   -0.2263    5.9238    0.0000 O   0  5  0  0  0  0  0  0  0  0  0  0
   -3.0404   -0.0146    0.0000 C   0  0  0  0  0  0  0  0  0  0  0  0
   -1.5512    5.3800    0.0000 O   0  0  0  0  0  0  0  0  0  0  0  0
   -0.6095    3.0842    0.0000 C   0  0  0  0  0  0  0  0  0  0  0  0
   -1.6059    1.3030    0.0000 O   0  0  0  0  0  0  0  0  0  0  0  0
   -3.6572    1.8943    0.0000 C   0  0  0  0  0  0  0  0  0  0  0  0
   -2.2337    3.3287    0.0000 O   0  0  0  0  0  0  0  0  0  0  0  0
    0.7154    3.6171    0.0000 C   0  0  0  0  0  0  0  0  0  0  0  0
   -2.3104   -0.4307    0.0000 C   0  0  0  0  0  0  0  0  0  0  0  0
    0.2117    2.9637    0.0000 C   0  0  0  0  0  0  0  0  0  0  0  0
    0.9125    5.0478    0.0000 Cl  0  0  0  0  0  0  0  0  0  0  0  0
   -0.8833   -1.2520    0.0000 C   0  0  0  0  0  0  0  0  0  0  0  0
   -1.5877   -0.0219    0.0000 C   0  0  0  0  0  0  0  0  0  0  0  0
   -2.3213   -1.2520    0.0000 C   0  0  0  0  0  0  0  0  0  0  0  0
   -0.8760   -0.4307    0.0000 C   0  0  0  0  0  0  0  0  0  0  0  0
   -1.6059   -1.6680    0.0000 C   0  0  0  0  0  0  0  0  0  0  0  0
   -0.1606   -1.6899    0.0000 C   0  0  0  0  0  0  0  0  0  0  0  0
  2  1  1  0  0  0  0
  3  4  1  0  0  0  0
  4  8  2  0  0  0  0
  5  2  1  0  0  0  0
  6  1  1  0  0  0  0
  7  6  1  0  0  0  0
  8 15  1  0  0  0  0
  9  1  2  0  0  0  0
 10 19  2  0  0  0  0
 11 17  2  0  0  0  0
 12  3  1  0  0  0  0
 13  5  1  0  0  0  0
 14  3  2  0  0  0  0
 15  7  1  0  0  0  0
 16  2  2  0  0  0  0
 17  9  1  0  0  0  0
 18  6  2  0  0  0  0
 19 21  1  0  0  0  0
 20 13  1  0  0  0  0
 21 15  2  0  0  0  0
 22 10  1  0  0  0  0
 23 27  2  0  0  0  0
 24 20  1  0  0  0  0
 25 20  2  0  0  0  0
 26 24  2  0  0  0  0
 27 25  1  0  0  0  0
 28 23  1  0  0  0  0
  5 11  1  0  0  0  0
 10  4  1  0  0  0  0
 23 26  1  0  0  0  0
M  CHG  2   3   1  12  -1
M  END
>  <IDNUMBER>
F2743-1164

>  <Chemical_Name>
N-(4-chloro-3-nitrophenyl)-1-[(4-methylphenyl)methyl]-2-oxo-1,2-dihydropyridine-3-carboxamide

>  <PriceCoeff>
1.00

>  <CAS>
946378-43-4

>  <MW>
397.81

>  <Description>
solid

>  <FSP3>
0.10

>  <clogP>
3.85

>  <TPSA>
92.55

>  <Acceptor>
4

>  <Donor>
1

>  <RotBonds>
5

>  <HAC>
28

>  <Collection>
General

>  <PPDS>
+

$$$$
F2743-1400
  Mrv2219 10102508112D          

 28 30  0  0  0  0            999 V2000
   -2.4070    1.8870    0.0000 C   0  0  0  0  0  0  0  0  0  0  0  0
   -2.4070    1.1671    0.0000 C   0  0  0  0  0  0  0  0  0  0  0  0
   -0.7272    5.2466    0.0000 N   0  3  0  0  0  0  0  0  0  0  0  0
   -3.0287    0.8144    0.0000 N   0  0  0  0  0  0  0  0  0  0  0  0
   -0.4108    4.4831    0.0000 C   0  0  0  0  0  0  0  0  0  0  0  0
   -1.9270    2.5269    0.0000 C   0  0  0  0  0  0  0  0  0  0  0  0
   -3.0287   -0.0146    0.0000 C   0  0  0  0  0  0  0  0  0  0  0  0
   -1.1126    2.4179    0.0000 N   0  0  0  0  0  0  0  0  0  0  0  0
   -0.9235    3.8286    0.0000 C   0  0  0  0  0  0  0  0  0  0  0  0
   -2.3088   -0.4254    0.0000 C   0  0  0  0  0  0  0  0  0  0  0  0
   -3.0287    2.2542    0.0000 C   0  0  0  0  0  0  0  0  0  0  0  0
    0.4073    4.3740    0.0000 C   0  0  0  0  0  0  0  0  0  0  0  0
   -3.6432    1.1671    0.0000 C   0  0  0  0  0  0  0  0  0  0  0  0
   -0.2254    5.9011    0.0000 O   0  5  0  0  0  0  0  0  0  0  0  0
   -1.5452    5.3594    0.0000 O   0  0  0  0  0  0  0  0  0  0  0  0
   -0.6072    3.0723    0.0000 C   0  0  0  0  0  0  0  0  0  0  0  0
   -1.5998    1.2980    0.0000 O   0  0  0  0  0  0  0  0  0  0  0  0
   -3.6432    1.8870    0.0000 C   0  0  0  0  0  0  0  0  0  0  0  0
   -2.2252    3.3160    0.0000 O   0  0  0  0  0  0  0  0  0  0  0  0
   -2.3088   -1.2544    0.0000 C   0  0  0  0  0  0  0  0  0  0  0  0
    0.7127    3.6032    0.0000 C   0  0  0  0  0  0  0  0  0  0  0  0
    0.2109    2.9523    0.0000 C   0  0  0  0  0  0  0  0  0  0  0  0
    0.9090    5.0285    0.0000 Cl  0  0  0  0  0  0  0  0  0  0  0  0
   -3.0287   -1.6616    0.0000 F   0  0  0  0  0  0  0  0  0  0  0  0
   -1.5889   -0.0146    0.0000 C   0  0  0  0  0  0  0  0  0  0  0  0
   -1.5998   -1.6726    0.0000 C   0  0  0  0  0  0  0  0  0  0  0  0
   -0.8726   -0.4363    0.0000 C   0  0  0  0  0  0  0  0  0  0  0  0
   -0.8799   -1.2581    0.0000 C   0  0  0  0  0  0  0  0  0  0  0  0
  2  1  1  0  0  0  0
  3  5  1  0  0  0  0
  4  2  1  0  0  0  0
  5  9  2  0  0  0  0
  6  1  1  0  0  0  0
  7  4  1  0  0  0  0
  8  6  1  0  0  0  0
  9 16  1  0  0  0  0
 10  7  1  0  0  0  0
 11  1  2  0  0  0  0
 12 21  2  0  0  0  0
 13 18  2  0  0  0  0
 14  3  1  0  0  0  0
 15  3  2  0  0  0  0
 16  8  1  0  0  0  0
 17  2  2  0  0  0  0
 18 11  1  0  0  0  0
 19  6  2  0  0  0  0
 20 10  2  0  0  0  0
 21 22  1  0  0  0  0
 22 16  2  0  0  0  0
 23 12  1  0  0  0  0
 24 20  1  0  0  0  0
 25 10  1  0  0  0  0
 26 20  1  0  0  0  0
 27 25  2  0  0  0  0
 28 27  1  0  0  0  0
  4 13  1  0  0  0  0
 12  5  1  0  0  0  0
 28 26  2  0  0  0  0
M  CHG  2   3   1  14  -1
M  END
>  <IDNUMBER>
F2743-1400

>  <Chemical_Name>
N-(4-chloro-3-nitrophenyl)-1-[(2-fluorophenyl)methyl]-2-oxo-1,2-dihydropyridine-3-carboxamide

>  <PriceCoeff>
1.00

>  <CAS>
941904-08-1

>  <MW>
401.78

>  <Description>
solid

>  <FSP3>
0.05

>  <clogP>
3.49

>  <TPSA>
92.55

>  <Acceptor>
4

>  <Donor>
1

>  <RotBonds>
5

>  <HAC>
28

>  <Collection>
General

>  <PPDS>
+

$$$$
F2743-1636
  Mrv2219 10102508112D          

 30 32  0  0  0  0            999 V2000
   -2.4060    1.8863    0.0000 C   0  0  0  0  0  0  0  0  0  0  0  0
   -2.4060    1.1667    0.0000 C   0  0  0  0  0  0  0  0  0  0  0  0
   -0.7269    5.2446    0.0000 N   0  3  0  0  0  0  0  0  0  0  0  0
   -0.4107    4.4813    0.0000 C   0  0  0  0  0  0  0  0  0  0  0  0
   -3.0275    0.8141    0.0000 N   0  0  0  0  0  0  0  0  0  0  0  0
   -1.9262    2.5259    0.0000 C   0  0  0  0  0  0  0  0  0  0  0  0
   -1.5919   -2.4969    0.0000 N   0  3  0  0  0  0  0  0  0  0  0  0
   -1.1122    2.4169    0.0000 N   0  0  0  0  0  0  0  0  0  0  0  0
   -0.9231    3.8271    0.0000 C   0  0  0  0  0  0  0  0  0  0  0  0
   -1.5882   -1.6719    0.0000 C   0  0  0  0  0  0  0  0  0  0  0  0
   -3.0275    2.2533    0.0000 C   0  0  0  0  0  0  0  0  0  0  0  0
    0.4071    4.3723    0.0000 C   0  0  0  0  0  0  0  0  0  0  0  0
   -3.0275   -0.0146    0.0000 C   0  0  0  0  0  0  0  0  0  0  0  0
   -3.6417    1.1667    0.0000 C   0  0  0  0  0  0  0  0  0  0  0  0
   -0.2253    5.8988    0.0000 O   0  5  0  0  0  0  0  0  0  0  0  0
   -2.3115   -2.9149    0.0000 O   0  5  0  0  0  0  0  0  0  0  0  0
   -1.5446    5.3572    0.0000 O   0  0  0  0  0  0  0  0  0  0  0  0
   -0.6069    3.0711    0.0000 C   0  0  0  0  0  0  0  0  0  0  0  0
   -0.8795   -2.9112    0.0000 O   0  0  0  0  0  0  0  0  0  0  0  0
   -1.5991    1.2975    0.0000 O   0  0  0  0  0  0  0  0  0  0  0  0
   -3.6417    1.8863    0.0000 C   0  0  0  0  0  0  0  0  0  0  0  0
   -2.2243    3.3146    0.0000 O   0  0  0  0  0  0  0  0  0  0  0  0
   -2.3006   -1.2539    0.0000 C   0  0  0  0  0  0  0  0  0  0  0  0
   -2.3079   -0.4252    0.0000 C   0  0  0  0  0  0  0  0  0  0  0  0
    0.7124    3.6018    0.0000 C   0  0  0  0  0  0  0  0  0  0  0  0
    0.2108    2.9512    0.0000 C   0  0  0  0  0  0  0  0  0  0  0  0
    0.9086    5.0265    0.0000 Cl  0  0  0  0  0  0  0  0  0  0  0  0
   -0.8723   -1.2576    0.0000 C   0  0  0  0  0  0  0  0  0  0  0  0
   -0.8686   -0.4398    0.0000 C   0  0  0  0  0  0  0  0  0  0  0  0
   -1.5919   -0.0146    0.0000 C   0  0  0  0  0  0  0  0  0  0  0  0
  2  1  1  0  0  0  0
  3  4  1  0  0  0  0
  4  9  2  0  0  0  0
  5  2  1  0  0  0  0
  6  1  1  0  0  0  0
  7 10  1  0  0  0  0
  8  6  1  0  0  0  0
  9 18  1  0  0  0  0
 10 23  2  0  0  0  0
 11  1  2  0  0  0  0
 12 25  2  0  0  0  0
 13  5  1  0  0  0  0
 14 21  2  0  0  0  0
 15  3  1  0  0  0  0
 16  7  1  0  0  0  0
 17  3  2  0  0  0  0
 18  8  1  0  0  0  0
 19  7  2  0  0  0  0
 20  2  2  0  0  0  0
 21 11  1  0  0  0  0
 22  6  2  0  0  0  0
 23 24  1  0  0  0  0
 24 13  1  0  0  0  0
 25 26  1  0  0  0  0
 26 18  2  0  0  0  0
 27 12  1  0  0  0  0
 28 29  2  0  0  0  0
 29 30  1  0  0  0  0
 30 24  2  0  0  0  0
  5 14  1  0  0  0  0
 12  4  1  0  0  0  0
 10 28  1  0  0  0  0
M  CHG  4   3   1   7   1  15  -1  16  -1
M  END
>  <IDNUMBER>
F2743-1636

>  <Chemical_Name>
N-(4-chloro-3-nitrophenyl)-1-[(3-nitrophenyl)methyl]-2-oxo-1,2-dihydropyridine-3-carboxamide

>  <PriceCoeff>
1.00

>  <CAS>
941953-37-3

>  <MW>
428.78

>  <Description>
solid

>  <FSP3>
0.05

>  <clogP>
3.09

>  <TPSA>
135.69

>  <Acceptor>
6

>  <Donor>
1

>  <RotBonds>
6

>  <HAC>
30

>  <Collection>
General

>  <PPDS>
+

$$$$
F2744-0102
  Mrv2219 10102508112D          

 27 29  0  0  0  0            999 V2000
   -2.4115    2.6200    0.0000 C   0  0  0  0  0  0  0  0  0  0  0  0
   -0.1798    5.5957    0.0000 N   0  3  0  0  0  0  0  0  0  0  0  0
   -3.1105    1.4060    0.0000 N   0  0  0  0  0  0  0  0  0  0  0  0
    0.0409    4.7864    0.0000 C   0  0  0  0  0  0  0  0  0  0  0  0
   -2.4115    1.8107    0.0000 C   0  0  0  0  0  0  0  0  0  0  0  0
   -1.7126    3.0246    0.0000 C   0  0  0  0  0  0  0  0  0  0  0  0
   -3.8013    1.8107    0.0000 C   0  0  0  0  0  0  0  0  0  0  0  0
   -3.1105    3.0246    0.0000 C   0  0  0  0  0  0  0  0  0  0  0  0
   -3.8013    2.6200    0.0000 C   0  0  0  0  0  0  0  0  0  0  0  0
   -0.9074    2.8162    0.0000 N   0  0  0  0  0  0  0  0  0  0  0  0
   -0.5477    4.1978    0.0000 C   0  0  0  0  0  0  0  0  0  0  0  0
    0.8379    4.5779    0.0000 C   0  0  0  0  0  0  0  0  0  0  0  0
    0.3965    6.1843    0.0000 O   0  5  0  0  0  0  0  0  0  0  0  0
   -3.1105    0.5763    0.0000 C   0  0  0  0  0  0  0  0  0  0  0  0
   -0.9891    5.8041    0.0000 O   0  0  0  0  0  0  0  0  0  0  0  0
   -0.3270    3.4048    0.0000 C   0  0  0  0  0  0  0  0  0  0  0  0
   -2.1172    3.7277    0.0000 O   0  0  0  0  0  0  0  0  0  0  0  0
   -4.4757    1.8597    0.0000 O   0  0  0  0  0  0  0  0  0  0  0  0
    1.0587    3.7972    0.0000 C   0  0  0  0  0  0  0  0  0  0  0  0
    0.4782    3.1963    0.0000 C   0  0  0  0  0  0  0  0  0  0  0  0
    1.4224    5.1788    0.0000 Cl  0  0  0  0  0  0  0  0  0  0  0  0
   -2.3870    0.1676    0.0000 C   0  0  0  0  0  0  0  0  0  0  0  0
   -2.3789   -0.6622    0.0000 C   0  0  0  0  0  0  0  0  0  0  0  0
   -1.6635    0.5967    0.0000 C   0  0  0  0  0  0  0  0  0  0  0  0
   -1.6554   -1.0587    0.0000 C   0  0  0  0  0  0  0  0  0  0  0  0
   -0.9401    0.1798    0.0000 C   0  0  0  0  0  0  0  0  0  0  0  0
   -0.9401   -0.6418    0.0000 C   0  0  0  0  0  0  0  0  0  0  0  0
  2  4  1  0  0  0  0
  3  5  1  0  0  0  0
  4 11  2  0  0  0  0
  5  1  2  0  0  0  0
  6  1  1  0  0  0  0
  7  9  1  0  0  0  0
  8  1  1  0  0  0  0
  9  8  2  0  0  0  0
 10  6  1  0  0  0  0
 11 16  1  0  0  0  0
 12 19  2  0  0  0  0
 13  2  1  0  0  0  0
 14  3  1  0  0  0  0
 15  2  2  0  0  0  0
 16 10  1  0  0  0  0
 17  6  2  0  0  0  0
 18  7  2  0  0  0  0
 19 20  1  0  0  0  0
 20 16  2  0  0  0  0
 21 12  1  0  0  0  0
 22 14  1  0  0  0  0
 23 22  2  0  0  0  0
 24 22  1  0  0  0  0
 25 23  1  0  0  0  0
 26 24  2  0  0  0  0
 27 26  1  0  0  0  0
  3  7  1  0  0  0  0
 12  4  1  0  0  0  0
 27 25  2  0  0  0  0
M  CHG  2   2   1  13  -1
M  END
>  <IDNUMBER>
F2744-0102

>  <Chemical_Name>
1-benzyl-N-(4-chloro-3-nitrophenyl)-6-oxo-1,6-dihydropyridine-3-carboxamide

>  <PriceCoeff>
1.00

>  <CAS>
942009-00-9

>  <MW>
383.79

>  <Description>
solid

>  <FSP3>
0.05

>  <clogP>
3.35

>  <TPSA>
92.55

>  <Acceptor>
4

>  <Donor>
1

>  <RotBonds>
5

>  <HAC>
27

>  <Collection>
General

>  <PPDS>
+

$$$$
F2744-0338
  Mrv2219 10102508112D          

 28 30  0  0  0  0            999 V2000
   -2.4095    2.6178    0.0000 C   0  0  0  0  0  0  0  0  0  0  0  0
   -0.1797    5.5910    0.0000 N   0  3  0  0  0  0  0  0  0  0  0  0
   -3.1079    1.4049    0.0000 N   0  0  0  0  0  0  0  0  0  0  0  0
    0.0409    4.7824    0.0000 C   0  0  0  0  0  0  0  0  0  0  0  0
   -2.4095    1.8092    0.0000 C   0  0  0  0  0  0  0  0  0  0  0  0
   -1.7112    3.0221    0.0000 C   0  0  0  0  0  0  0  0  0  0  0  0
   -3.7981    1.8092    0.0000 C   0  0  0  0  0  0  0  0  0  0  0  0
   -3.1079    3.0221    0.0000 C   0  0  0  0  0  0  0  0  0  0  0  0
   -3.7981    2.6178    0.0000 C   0  0  0  0  0  0  0  0  0  0  0  0
   -0.9066    2.8138    0.0000 N   0  0  0  0  0  0  0  0  0  0  0  0
   -0.5472    4.1943    0.0000 C   0  0  0  0  0  0  0  0  0  0  0  0
    0.8373    4.5741    0.0000 C   0  0  0  0  0  0  0  0  0  0  0  0
    0.3962    6.1791    0.0000 O   0  5  0  0  0  0  0  0  0  0  0  0
   -3.1079    0.5758    0.0000 C   0  0  0  0  0  0  0  0  0  0  0  0
   -0.9883    5.7993    0.0000 O   0  0  0  0  0  0  0  0  0  0  0  0
   -0.3267    3.4019    0.0000 C   0  0  0  0  0  0  0  0  0  0  0  0
   -2.1155    3.7246    0.0000 O   0  0  0  0  0  0  0  0  0  0  0  0
   -4.4720    1.8582    0.0000 O   0  0  0  0  0  0  0  0  0  0  0  0
    1.0578    3.7940    0.0000 C   0  0  0  0  0  0  0  0  0  0  0  0
   -2.3850    0.1593    0.0000 C   0  0  0  0  0  0  0  0  0  0  0  0
    0.4778    3.1937    0.0000 C   0  0  0  0  0  0  0  0  0  0  0  0
    1.4212    5.1745    0.0000 Cl  0  0  0  0  0  0  0  0  0  0  0  0
   -0.9393   -0.6535    0.0000 C   0  0  0  0  0  0  0  0  0  0  0  0
   -0.2164   -1.0823    0.0000 F   0  0  0  0  0  0  0  0  0  0  0  0
   -2.3850   -0.6657    0.0000 C   0  0  0  0  0  0  0  0  0  0  0  0
   -1.6540    0.5840    0.0000 C   0  0  0  0  0  0  0  0  0  0  0  0
   -1.6622   -1.0700    0.0000 C   0  0  0  0  0  0  0  0  0  0  0  0
   -0.9393    0.1715    0.0000 C   0  0  0  0  0  0  0  0  0  0  0  0
  2  4  1  0  0  0  0
  3  5  1  0  0  0  0
  4 11  2  0  0  0  0
  5  1  2  0  0  0  0
  6  1  1  0  0  0  0
  7  9  1  0  0  0  0
  8  1  1  0  0  0  0
  9  8  2  0  0  0  0
 10  6  1  0  0  0  0
 11 16  1  0  0  0  0
 12 19  2  0  0  0  0
 13  2  1  0  0  0  0
 14  3  1  0  0  0  0
 15  2  2  0  0  0  0
 16 10  1  0  0  0  0
 17  6  2  0  0  0  0
 18  7  2  0  0  0  0
 19 21  1  0  0  0  0
 20 14  1  0  0  0  0
 21 16  2  0  0  0  0
 22 12  1  0  0  0  0
 23 28  1  0  0  0  0
 24 23  1  0  0  0  0
 25 20  2  0  0  0  0
 26 20  1  0  0  0  0
 27 25  1  0  0  0  0
 28 26  2  0  0  0  0
  3  7  1  0  0  0  0
 12  4  1  0  0  0  0
 23 27  2  0  0  0  0
M  CHG  2   2   1  13  -1
M  END
>  <IDNUMBER>
F2744-0338

>  <Chemical_Name>
N-(4-chloro-3-nitrophenyl)-1-[(4-fluorophenyl)methyl]-6-oxo-1,6-dihydropyridine-3-carboxamide

>  <PriceCoeff>
1.00

>  <CAS>
941904-89-8

>  <MW>
401.78

>  <Description>
solid

>  <FSP3>
0.05

>  <clogP>
3.49

>  <TPSA>
92.55

>  <Acceptor>
4

>  <Donor>
1

>  <RotBonds>
5

>  <HAC>
28

>  <Collection>
General

>  <PPDS>
+

$$$$
F2744-0456
  Mrv2219 10102508112D          

 28 30  0  0  0  0            999 V2000
   -2.3977    2.6050    0.0000 C   0  0  0  0  0  0  0  0  0  0  0  0
   -3.0927    1.3980    0.0000 N   0  0  0  0  0  0  0  0  0  0  0  0
   -0.1788    5.5637    0.0000 N   0  3  0  0  0  0  0  0  0  0  0  0
    0.0407    4.7590    0.0000 C   0  0  0  0  0  0  0  0  0  0  0  0
   -2.3977    1.8003    0.0000 C   0  0  0  0  0  0  0  0  0  0  0  0
   -1.7028    3.0073    0.0000 C   0  0  0  0  0  0  0  0  0  0  0  0
   -3.7795    1.8003    0.0000 C   0  0  0  0  0  0  0  0  0  0  0  0
   -3.0927    3.0073    0.0000 C   0  0  0  0  0  0  0  0  0  0  0  0
   -3.7795    2.6050    0.0000 C   0  0  0  0  0  0  0  0  0  0  0  0
   -3.0927    0.5730    0.0000 C   0  0  0  0  0  0  0  0  0  0  0  0
   -0.9022    2.8001    0.0000 N   0  0  0  0  0  0  0  0  0  0  0  0
   -0.5445    4.1738    0.0000 C   0  0  0  0  0  0  0  0  0  0  0  0
    0.8332    4.5517    0.0000 C   0  0  0  0  0  0  0  0  0  0  0  0
    0.3942    6.1489    0.0000 O   0  5  0  0  0  0  0  0  0  0  0  0
   -2.3733    0.1666    0.0000 C   0  0  0  0  0  0  0  0  0  0  0  0
   -0.9835    5.7709    0.0000 O   0  0  0  0  0  0  0  0  0  0  0  0
   -0.3251    3.3853    0.0000 C   0  0  0  0  0  0  0  0  0  0  0  0
   -2.1051    3.7064    0.0000 O   0  0  0  0  0  0  0  0  0  0  0  0
   -4.4501    1.8491    0.0000 O   0  0  0  0  0  0  0  0  0  0  0  0
   -2.3653   -0.6584    0.0000 C   0  0  0  0  0  0  0  0  0  0  0  0
    1.0526    3.7754    0.0000 C   0  0  0  0  0  0  0  0  0  0  0  0
    0.4755    3.1780    0.0000 C   0  0  0  0  0  0  0  0  0  0  0  0
    1.4143    5.1491    0.0000 Cl  0  0  0  0  0  0  0  0  0  0  0  0
   -1.6540    0.5933    0.0000 C   0  0  0  0  0  0  0  0  0  0  0  0
   -3.0724   -1.0770    0.0000 C   0  0  0  0  0  0  0  0  0  0  0  0
   -1.6418   -1.0607    0.0000 C   0  0  0  0  0  0  0  0  0  0  0  0
   -0.9347    0.1829    0.0000 C   0  0  0  0  0  0  0  0  0  0  0  0
   -0.9266   -0.6462    0.0000 C   0  0  0  0  0  0  0  0  0  0  0  0
  2  5  1  0  0  0  0
  3  4  1  0  0  0  0
  4 12  2  0  0  0  0
  5  1  2  0  0  0  0
  6  1  1  0  0  0  0
  7  9  1  0  0  0  0
  8  1  1  0  0  0  0
  9  8  2  0  0  0  0
 10  2  1  0  0  0  0
 11  6  1  0  0  0  0
 12 17  1  0  0  0  0
 13 21  2  0  0  0  0
 14  3  1  0  0  0  0
 15 10  1  0  0  0  0
 16  3  2  0  0  0  0
 17 11  1  0  0  0  0
 18  6  2  0  0  0  0
 19  7  2  0  0  0  0
 20 15  2  0  0  0  0
 21 22  1  0  0  0  0
 22 17  2  0  0  0  0
 23 13  1  0  0  0  0
 24 15  1  0  0  0  0
 25 20  1  0  0  0  0
 26 20  1  0  0  0  0
 27 24  2  0  0  0  0
 28 27  1  0  0  0  0
  2  7  1  0  0  0  0
 13  4  1  0  0  0  0
 28 26  2  0  0  0  0
M  CHG  2   3   1  14  -1
M  END
>  <IDNUMBER>
F2744-0456

>  <Chemical_Name>
N-(4-chloro-3-nitrophenyl)-1-[(2-methylphenyl)methyl]-6-oxo-1,6-dihydropyridine-3-carboxamide

>  <PriceCoeff>
1.00

>  <CAS>
899970-25-3

>  <MW>
397.81

>  <Description>
solid

>  <FSP3>
0.10

>  <clogP>
3.80

>  <TPSA>
92.55

>  <Acceptor>
4

>  <Donor>
1

>  <RotBonds>
5

>  <HAC>
28

>  <Collection>
General

>  <PPDS>
+

$$$$
F2744-0574
  Mrv2219 10102508112D          

 28 30  0  0  0  0            999 V2000
   -2.4151    2.6238    0.0000 C   0  0  0  0  0  0  0  0  0  0  0  0
   -0.1801    5.6039    0.0000 N   0  3  0  0  0  0  0  0  0  0  0  0
   -3.1150    1.4081    0.0000 N   0  0  0  0  0  0  0  0  0  0  0  0
    0.0410    4.7934    0.0000 C   0  0  0  0  0  0  0  0  0  0  0  0
   -2.4151    1.8133    0.0000 C   0  0  0  0  0  0  0  0  0  0  0  0
   -1.7151    3.0291    0.0000 C   0  0  0  0  0  0  0  0  0  0  0  0
   -3.8069    1.8133    0.0000 C   0  0  0  0  0  0  0  0  0  0  0  0
   -3.1150    3.0291    0.0000 C   0  0  0  0  0  0  0  0  0  0  0  0
   -3.8069    2.6238    0.0000 C   0  0  0  0  0  0  0  0  0  0  0  0
   -0.9088    2.8203    0.0000 N   0  0  0  0  0  0  0  0  0  0  0  0
   -0.5484    4.2039    0.0000 C   0  0  0  0  0  0  0  0  0  0  0  0
    0.8392    4.5847    0.0000 C   0  0  0  0  0  0  0  0  0  0  0  0
    0.3971    6.1934    0.0000 O   0  5  0  0  0  0  0  0  0  0  0  0
   -3.1150    0.5771    0.0000 C   0  0  0  0  0  0  0  0  0  0  0  0
   -0.9906    5.8127    0.0000 O   0  0  0  0  0  0  0  0  0  0  0  0
   -0.3274    3.4098    0.0000 C   0  0  0  0  0  0  0  0  0  0  0  0
   -2.1204    3.7332    0.0000 O   0  0  0  0  0  0  0  0  0  0  0  0
   -4.4822    1.8624    0.0000 O   0  0  0  0  0  0  0  0  0  0  0  0
    1.0602    3.8028    0.0000 C   0  0  0  0  0  0  0  0  0  0  0  0
   -2.3905    0.1596    0.0000 C   0  0  0  0  0  0  0  0  0  0  0  0
    0.4789    3.2010    0.0000 C   0  0  0  0  0  0  0  0  0  0  0  0
    1.4245    5.1864    0.0000 Cl  0  0  0  0  0  0  0  0  0  0  0  0
   -0.9415   -0.6550    0.0000 C   0  0  0  0  0  0  0  0  0  0  0  0
   -0.2169   -1.0848    0.0000 Cl  0  0  0  0  0  0  0  0  0  0  0  0
   -2.3905   -0.6632    0.0000 C   0  0  0  0  0  0  0  0  0  0  0  0
   -1.6578    0.5853    0.0000 C   0  0  0  0  0  0  0  0  0  0  0  0
   -1.6660   -1.0725    0.0000 C   0  0  0  0  0  0  0  0  0  0  0  0
   -0.9456    0.1719    0.0000 C   0  0  0  0  0  0  0  0  0  0  0  0
  2  4  1  0  0  0  0
  3  5  1  0  0  0  0
  4 11  2  0  0  0  0
  5  1  2  0  0  0  0
  6  1  1  0  0  0  0
  7  9  1  0  0  0  0
  8  1  1  0  0  0  0
  9  8  2  0  0  0  0
 10  6  1  0  0  0  0
 11 16  1  0  0  0  0
 12 19  2  0  0  0  0
 13  2  1  0  0  0  0
 14  3  1  0  0  0  0
 15  2  2  0  0  0  0
 16 10  1  0  0  0  0
 17  6  2  0  0  0  0
 18  7  2  0  0  0  0
 19 21  1  0  0  0  0
 20 14  1  0  0  0  0
 21 16  2  0  0  0  0
 22 12  1  0  0  0  0
 23 28  1  0  0  0  0
 24 23  1  0  0  0  0
 25 20  2  0  0  0  0
 26 20  1  0  0  0  0
 27 25  1  0  0  0  0
 28 26  2  0  0  0  0
  3  7  1  0  0  0  0
 12  4  1  0  0  0  0
 23 27  2  0  0  0  0
M  CHG  2   2   1  13  -1
M  END
>  <IDNUMBER>
F2744-0574

>  <Chemical_Name>
N-(4-chloro-3-nitrophenyl)-1-[(4-chlorophenyl)methyl]-6-oxo-1,6-dihydropyridine-3-carboxamide

>  <PriceCoeff>
1.00

>  <CAS>
941973-25-7

>  <MW>
418.23

>  <Description>
solid

>  <FSP3>
0.05

>  <clogP>
4.06

>  <TPSA>
92.55

>  <Acceptor>
4

>  <Donor>
1

>  <RotBonds>
5

>  <HAC>
28

>  <Collection>
General

>  <PPDS>
+

$$$$
F2744-0692
  Mrv2219 10102508112D          

 29 31  0  0  0  0            999 V2000
   -3.1075    1.4047    0.0000 N   0  0  0  0  0  0  0  0  0  0  0  0
   -2.4093    2.6175    0.0000 C   0  0  0  0  0  0  0  0  0  0  0  0
   -0.1796    5.5904    0.0000 N   0  3  0  0  0  0  0  0  0  0  0  0
    0.0409    4.7819    0.0000 C   0  0  0  0  0  0  0  0  0  0  0  0
   -2.3848    0.1593    0.0000 C   0  0  0  0  0  0  0  0  0  0  0  0
   -2.4093    1.8090    0.0000 C   0  0  0  0  0  0  0  0  0  0  0  0
   -1.7110    3.0218    0.0000 C   0  0  0  0  0  0  0  0  0  0  0  0
   -3.1075    0.5758    0.0000 C   0  0  0  0  0  0  0  0  0  0  0  0
   -3.7977    1.8090    0.0000 C   0  0  0  0  0  0  0  0  0  0  0  0
   -3.1075    3.0218    0.0000 C   0  0  0  0  0  0  0  0  0  0  0  0
   -3.7977    2.6175    0.0000 C   0  0  0  0  0  0  0  0  0  0  0  0
   -0.9065    2.8135    0.0000 N   0  0  0  0  0  0  0  0  0  0  0  0
   -0.5472    4.1938    0.0000 C   0  0  0  0  0  0  0  0  0  0  0  0
    0.8372    4.5736    0.0000 C   0  0  0  0  0  0  0  0  0  0  0  0
    0.3961    6.1784    0.0000 O   0  5  0  0  0  0  0  0  0  0  0  0
   -0.9882    5.7987    0.0000 O   0  0  0  0  0  0  0  0  0  0  0  0
   -1.6538    0.5717    0.0000 C   0  0  0  0  0  0  0  0  0  0  0  0
   -2.3848   -0.6657    0.0000 C   0  0  0  0  0  0  0  0  0  0  0  0
   -0.3267    3.4016    0.0000 C   0  0  0  0  0  0  0  0  0  0  0  0
   -2.1152    3.7242    0.0000 O   0  0  0  0  0  0  0  0  0  0  0  0
   -4.4715    1.8580    0.0000 O   0  0  0  0  0  0  0  0  0  0  0  0
    1.0577    3.7936    0.0000 C   0  0  0  0  0  0  0  0  0  0  0  0
    0.4778    3.1933    0.0000 C   0  0  0  0  0  0  0  0  0  0  0  0
    1.4211    5.1739    0.0000 Cl  0  0  0  0  0  0  0  0  0  0  0  0
   -3.1075   -1.0822    0.0000 Cl  0  0  0  0  0  0  0  0  0  0  0  0
   -1.6497    1.3966    0.0000 F   0  0  0  0  0  0  0  0  0  0  0  0
   -0.9514   -0.6779    0.0000 C   0  0  0  0  0  0  0  0  0  0  0  0
   -1.6742   -1.0903    0.0000 C   0  0  0  0  0  0  0  0  0  0  0  0
   -0.9392    0.1470    0.0000 C   0  0  0  0  0  0  0  0  0  0  0  0
  2  6  2  0  0  0  0
  3  4  1  0  0  0  0
  4 13  2  0  0  0  0
  5  8  1  0  0  0  0
  6  1  1  0  0  0  0
  7  2  1  0  0  0  0
  8  1  1  0  0  0  0
  9  1  1  0  0  0  0
 10 11  2  0  0  0  0
 11  9  1  0  0  0  0
 12  7  1  0  0  0  0
 13 19  1  0  0  0  0
 14 22  2  0  0  0  0
 15  3  1  0  0  0  0
 16  3  2  0  0  0  0
 17  5  1  0  0  0  0
 18  5  2  0  0  0  0
 19 12  1  0  0  0  0
 20  7  2  0  0  0  0
 21  9  2  0  0  0  0
 22 23  1  0  0  0  0
 23 19  2  0  0  0  0
 24 14  1  0  0  0  0
 25 18  1  0  0  0  0
 26 17  1  0  0  0  0
 27 28  2  0  0  0  0
 28 18  1  0  0  0  0
 29 17  2  0  0  0  0
 10  2  1  0  0  0  0
 27 29  1  0  0  0  0
 14  4  1  0  0  0  0
M  CHG  2   3   1  15  -1
M  END
>  <IDNUMBER>
F2744-0692

>  <Chemical_Name>
N-(4-chloro-3-nitrophenyl)-1-[(2-chloro-6-fluorophenyl)methyl]-6-oxo-1,6-dihydropyridine-3-carboxamide

>  <PriceCoeff>
1.00

>  <CAS>
900009-78-1

>  <MW>
436.22

>  <Description>
solid

>  <FSP3>
0.05

>  <clogP>
4.20

>  <TPSA>
92.55

>  <Acceptor>
4

>  <Donor>
1

>  <RotBonds>
5

>  <HAC>
29

>  <Collection>
General

>  <PPDS>
+

$$$$
F2744-0810
  Mrv2219 10102508112D          

 28 30  0  0  0  0            999 V2000
   -2.4093    2.6175    0.0000 C   0  0  0  0  0  0  0  0  0  0  0  0
   -0.1796    5.5904    0.0000 N   0  3  0  0  0  0  0  0  0  0  0  0
   -3.1075    1.4047    0.0000 N   0  0  0  0  0  0  0  0  0  0  0  0
    0.0409    4.7819    0.0000 C   0  0  0  0  0  0  0  0  0  0  0  0
   -2.4093    1.8090    0.0000 C   0  0  0  0  0  0  0  0  0  0  0  0
   -1.7110    3.0218    0.0000 C   0  0  0  0  0  0  0  0  0  0  0  0
   -3.7977    1.8090    0.0000 C   0  0  0  0  0  0  0  0  0  0  0  0
   -3.1075    3.0218    0.0000 C   0  0  0  0  0  0  0  0  0  0  0  0
   -3.7977    2.6175    0.0000 C   0  0  0  0  0  0  0  0  0  0  0  0
   -0.9065    2.8135    0.0000 N   0  0  0  0  0  0  0  0  0  0  0  0
   -0.5472    4.1938    0.0000 C   0  0  0  0  0  0  0  0  0  0  0  0
    0.8372    4.5736    0.0000 C   0  0  0  0  0  0  0  0  0  0  0  0
   -3.1075    0.5758    0.0000 C   0  0  0  0  0  0  0  0  0  0  0  0
    0.3961    6.1784    0.0000 O   0  5  0  0  0  0  0  0  0  0  0  0
   -0.9882    5.7987    0.0000 O   0  0  0  0  0  0  0  0  0  0  0  0
   -0.3267    3.4016    0.0000 C   0  0  0  0  0  0  0  0  0  0  0  0
   -2.1152    3.7242    0.0000 O   0  0  0  0  0  0  0  0  0  0  0  0
   -4.4715    1.8580    0.0000 O   0  0  0  0  0  0  0  0  0  0  0  0
   -2.3848    0.1593    0.0000 C   0  0  0  0  0  0  0  0  0  0  0  0
    1.0577    3.7936    0.0000 C   0  0  0  0  0  0  0  0  0  0  0  0
   -2.3889   -0.6657    0.0000 C   0  0  0  0  0  0  0  0  0  0  0  0
    0.4778    3.1933    0.0000 C   0  0  0  0  0  0  0  0  0  0  0  0
    1.4211    5.1739    0.0000 Cl  0  0  0  0  0  0  0  0  0  0  0  0
   -1.6742   -1.0822    0.0000 C   0  0  0  0  0  0  0  0  0  0  0  0
   -0.9392    0.1470    0.0000 C   0  0  0  0  0  0  0  0  0  0  0  0
   -1.6497    0.5717    0.0000 C   0  0  0  0  0  0  0  0  0  0  0  0
   -0.9514   -0.6779    0.0000 C   0  0  0  0  0  0  0  0  0  0  0  0
   -1.6865   -1.9152    0.0000 C   0  0  0  0  0  0  0  0  0  0  0  0
  2  4  1  0  0  0  0
  3  5  1  0  0  0  0
  4 11  2  0  0  0  0
  5  1  2  0  0  0  0
  6  1  1  0  0  0  0
  7  9  1  0  0  0  0
  8  1  1  0  0  0  0
  9  8  2  0  0  0  0
 10  6  1  0  0  0  0
 11 16  1  0  0  0  0
 12 20  2  0  0  0  0
 13  3  1  0  0  0  0
 14  2  1  0  0  0  0
 15  2  2  0  0  0  0
 16 10  1  0  0  0  0
 17  6  2  0  0  0  0
 18  7  2  0  0  0  0
 19 13  1  0  0  0  0
 20 22  1  0  0  0  0
 21 19  2  0  0  0  0
 22 16  2  0  0  0  0
 23 12  1  0  0  0  0
 24 21  1  0  0  0  0
 25 26  2  0  0  0  0
 26 19  1  0  0  0  0
 27 25  1  0  0  0  0
 28 24  1  0  0  0  0
  3  7  1  0  0  0  0
 12  4  1  0  0  0  0
 27 24  2  0  0  0  0
M  CHG  2   2   1  14  -1
M  END
>  <IDNUMBER>
F2744-0810

>  <Chemical_Name>
N-(4-chloro-3-nitrophenyl)-1-[(3-methylphenyl)methyl]-6-oxo-1,6-dihydropyridine-3-carboxamide

>  <PriceCoeff>
1.00

>  <CAS>
899741-27-6

>  <MW>
397.81

>  <Description>
solid

>  <FSP3>
0.10

>  <clogP>
3.85

>  <TPSA>
92.55

>  <Acceptor>
4

>  <Donor>
1

>  <RotBonds>
5

>  <HAC>
28

>  <Collection>
General

>  <PPDS>
+

$$$$
F2744-0928
  Mrv2219 10102508112D          

 28 30  0  0  0  0            999 V2000
   -2.4023    2.6099    0.0000 C   0  0  0  0  0  0  0  0  0  0  0  0
   -3.0985    1.4006    0.0000 N   0  0  0  0  0  0  0  0  0  0  0  0
   -0.1791    5.5742    0.0000 N   0  3  0  0  0  0  0  0  0  0  0  0
    0.0407    4.7680    0.0000 C   0  0  0  0  0  0  0  0  0  0  0  0
   -2.4023    1.8037    0.0000 C   0  0  0  0  0  0  0  0  0  0  0  0
   -1.7060    3.0130    0.0000 C   0  0  0  0  0  0  0  0  0  0  0  0
   -3.7867    1.8037    0.0000 C   0  0  0  0  0  0  0  0  0  0  0  0
   -3.0985    3.0130    0.0000 C   0  0  0  0  0  0  0  0  0  0  0  0
   -3.0985    0.5741    0.0000 C   0  0  0  0  0  0  0  0  0  0  0  0
   -3.7867    2.6099    0.0000 C   0  0  0  0  0  0  0  0  0  0  0  0
   -0.9039    2.8054    0.0000 N   0  0  0  0  0  0  0  0  0  0  0  0
   -0.5456    4.1817    0.0000 C   0  0  0  0  0  0  0  0  0  0  0  0
   -2.3778    0.1669    0.0000 C   0  0  0  0  0  0  0  0  0  0  0  0
    0.8347    4.5603    0.0000 C   0  0  0  0  0  0  0  0  0  0  0  0
    0.3950    6.1605    0.0000 O   0  5  0  0  0  0  0  0  0  0  0  0
   -0.9853    5.7819    0.0000 O   0  0  0  0  0  0  0  0  0  0  0  0
   -0.3257    3.3917    0.0000 C   0  0  0  0  0  0  0  0  0  0  0  0
   -2.1091    3.7134    0.0000 O   0  0  0  0  0  0  0  0  0  0  0  0
   -4.4585    1.8526    0.0000 O   0  0  0  0  0  0  0  0  0  0  0  0
   -2.3778   -0.6637    0.0000 C   0  0  0  0  0  0  0  0  0  0  0  0
    1.0546    3.7826    0.0000 C   0  0  0  0  0  0  0  0  0  0  0  0
    0.4764    3.1840    0.0000 C   0  0  0  0  0  0  0  0  0  0  0  0
    1.4170    5.1589    0.0000 Cl  0  0  0  0  0  0  0  0  0  0  0  0
   -3.0985   -1.0790    0.0000 Cl  0  0  0  0  0  0  0  0  0  0  0  0
   -1.6490    0.5741    0.0000 C   0  0  0  0  0  0  0  0  0  0  0  0
   -1.6694   -1.0790    0.0000 C   0  0  0  0  0  0  0  0  0  0  0  0
   -0.9365    0.1547    0.0000 C   0  0  0  0  0  0  0  0  0  0  0  0
   -0.9406   -0.6718    0.0000 C   0  0  0  0  0  0  0  0  0  0  0  0
  2  5  1  0  0  0  0
  3  4  1  0  0  0  0
  4 12  2  0  0  0  0
  5  1  2  0  0  0  0
  6  1  1  0  0  0  0
  7 10  1  0  0  0  0
  8  1  1  0  0  0  0
  9  2  1  0  0  0  0
 10  8  2  0  0  0  0
 11  6  1  0  0  0  0
 12 17  1  0  0  0  0
 13  9  1  0  0  0  0
 14 21  2  0  0  0  0
 15  3  1  0  0  0  0
 16  3  2  0  0  0  0
 17 11  1  0  0  0  0
 18  6  2  0  0  0  0
 19  7  2  0  0  0  0
 20 13  2  0  0  0  0
 21 22  1  0  0  0  0
 22 17  2  0  0  0  0
 23 14  1  0  0  0  0
 24 20  1  0  0  0  0
 25 13  1  0  0  0  0
 26 20  1  0  0  0  0
 27 25  2  0  0  0  0
 28 27  1  0  0  0  0
  2  7  1  0  0  0  0
 14  4  1  0  0  0  0
 28 26  2  0  0  0  0
M  CHG  2   3   1  15  -1
M  END
>  <IDNUMBER>
F2744-0928

>  <Chemical_Name>
N-(4-chloro-3-nitrophenyl)-1-[(2-chlorophenyl)methyl]-6-oxo-1,6-dihydropyridine-3-carboxamide

>  <PriceCoeff>
1.00

>  <CAS>
941973-40-6

>  <MW>
418.23

>  <Description>
solid

>  <FSP3>
0.05

>  <clogP>
4.06

>  <TPSA>
92.55

>  <Acceptor>
4

>  <Donor>
1

>  <RotBonds>
5

>  <HAC>
28

>  <Collection>
General

>  <PPDS>
+

$$$$
F2744-1046
  Mrv2219 10102508112D          

 29 31  0  0  0  0            999 V2000
   -2.4029    2.6106    0.0000 C   0  0  0  0  0  0  0  0  0  0  0  0
   -3.0994    1.4010    0.0000 N   0  0  0  0  0  0  0  0  0  0  0  0
   -0.1792    5.5757    0.0000 N   0  3  0  0  0  0  0  0  0  0  0  0
    0.0408    4.7693    0.0000 C   0  0  0  0  0  0  0  0  0  0  0  0
   -2.4029    1.8042    0.0000 C   0  0  0  0  0  0  0  0  0  0  0  0
   -1.7065    3.0138    0.0000 C   0  0  0  0  0  0  0  0  0  0  0  0
   -3.7877    1.8042    0.0000 C   0  0  0  0  0  0  0  0  0  0  0  0
   -3.0994    3.0138    0.0000 C   0  0  0  0  0  0  0  0  0  0  0  0
   -3.0994    0.5743    0.0000 C   0  0  0  0  0  0  0  0  0  0  0  0
   -3.7877    2.6106    0.0000 C   0  0  0  0  0  0  0  0  0  0  0  0
   -2.3785    0.1670    0.0000 C   0  0  0  0  0  0  0  0  0  0  0  0
   -0.9042    2.8061    0.0000 N   0  0  0  0  0  0  0  0  0  0  0  0
   -0.5457    4.1828    0.0000 C   0  0  0  0  0  0  0  0  0  0  0  0
    0.8350    4.5616    0.0000 C   0  0  0  0  0  0  0  0  0  0  0  0
    0.3951    6.1622    0.0000 O   0  5  0  0  0  0  0  0  0  0  0  0
   -0.9856    5.7834    0.0000 O   0  0  0  0  0  0  0  0  0  0  0  0
   -0.3258    3.3926    0.0000 C   0  0  0  0  0  0  0  0  0  0  0  0
   -2.1097    3.7144    0.0000 O   0  0  0  0  0  0  0  0  0  0  0  0
   -2.3826   -0.6639    0.0000 C   0  0  0  0  0  0  0  0  0  0  0  0
   -1.6495    0.5743    0.0000 C   0  0  0  0  0  0  0  0  0  0  0  0
   -4.4597    1.8531    0.0000 O   0  0  0  0  0  0  0  0  0  0  0  0
    1.0549    3.7836    0.0000 C   0  0  0  0  0  0  0  0  0  0  0  0
   -1.6698   -1.0793    0.0000 C   0  0  0  0  0  0  0  0  0  0  0  0
   -0.9367    0.1588    0.0000 C   0  0  0  0  0  0  0  0  0  0  0  0
    0.4765    3.1849    0.0000 C   0  0  0  0  0  0  0  0  0  0  0  0
    1.4173    5.1603    0.0000 Cl  0  0  0  0  0  0  0  0  0  0  0  0
   -0.9408   -0.6720    0.0000 C   0  0  0  0  0  0  0  0  0  0  0  0
   -3.0994   -1.0793    0.0000 C   0  0  0  0  0  0  0  0  0  0  0  0
   -0.2199    0.5620    0.0000 C   0  0  0  0  0  0  0  0  0  0  0  0
  2  5  1  0  0  0  0
  3  4  1  0  0  0  0
  4 13  2  0  0  0  0
  5  1  2  0  0  0  0
  6  1  1  0  0  0  0
  7 10  1  0  0  0  0
  8  1  1  0  0  0  0
  9  2  1  0  0  0  0
 10  8  2  0  0  0  0
 11  9  1  0  0  0  0
 12  6  1  0  0  0  0
 13 17  1  0  0  0  0
 14 22  2  0  0  0  0
 15  3  1  0  0  0  0
 16  3  2  0  0  0  0
 17 12  1  0  0  0  0
 18  6  2  0  0  0  0
 19 11  2  0  0  0  0
 20 11  1  0  0  0  0
 21  7  2  0  0  0  0
 22 25  1  0  0  0  0
 23 19  1  0  0  0  0
 24 20  2  0  0  0  0
 25 17  2  0  0  0  0
 26 14  1  0  0  0  0
 27 24  1  0  0  0  0
 28 19  1  0  0  0  0
 29 24  1  0  0  0  0
  2  7  1  0  0  0  0
 14  4  1  0  0  0  0
 27 23  2  0  0  0  0
M  CHG  2   3   1  15  -1
M  END
>  <IDNUMBER>
F2744-1046

>  <Chemical_Name>
N-(4-chloro-3-nitrophenyl)-1-[(2,5-dimethylphenyl)methyl]-6-oxo-1,6-dihydropyridine-3-carboxamide

>  <PriceCoeff>
1.00

>  <CAS>
941884-86-2

>  <MW>
411.84

>  <Description>
solid

>  <FSP3>
0.14

>  <clogP>
4.29

>  <TPSA>
92.55

>  <Acceptor>
4

>  <Donor>
1

>  <RotBonds>
5

>  <HAC>
29

>  <Collection>
General

>  <PPDS>
+

$$$$
F2744-1400
  Mrv2219 10102508112D          

 28 30  0  0  0  0            999 V2000
   -2.4023    2.6099    0.0000 C   0  0  0  0  0  0  0  0  0  0  0  0
   -3.0985    1.4006    0.0000 N   0  0  0  0  0  0  0  0  0  0  0  0
   -0.1791    5.5742    0.0000 N   0  3  0  0  0  0  0  0  0  0  0  0
    0.0407    4.7680    0.0000 C   0  0  0  0  0  0  0  0  0  0  0  0
   -2.4023    1.8037    0.0000 C   0  0  0  0  0  0  0  0  0  0  0  0
   -1.7060    3.0130    0.0000 C   0  0  0  0  0  0  0  0  0  0  0  0
   -3.7867    1.8037    0.0000 C   0  0  0  0  0  0  0  0  0  0  0  0
   -3.0985    3.0130    0.0000 C   0  0  0  0  0  0  0  0  0  0  0  0
   -3.0985    0.5741    0.0000 C   0  0  0  0  0  0  0  0  0  0  0  0
   -3.7867    2.6099    0.0000 C   0  0  0  0  0  0  0  0  0  0  0  0
   -0.9039    2.8054    0.0000 N   0  0  0  0  0  0  0  0  0  0  0  0
   -0.5456    4.1817    0.0000 C   0  0  0  0  0  0  0  0  0  0  0  0
   -2.3778    0.1669    0.0000 C   0  0  0  0  0  0  0  0  0  0  0  0
    0.8347    4.5603    0.0000 C   0  0  0  0  0  0  0  0  0  0  0  0
    0.3950    6.1605    0.0000 O   0  5  0  0  0  0  0  0  0  0  0  0
   -0.9853    5.7819    0.0000 O   0  0  0  0  0  0  0  0  0  0  0  0
   -0.3257    3.3917    0.0000 C   0  0  0  0  0  0  0  0  0  0  0  0
   -2.1091    3.7134    0.0000 O   0  0  0  0  0  0  0  0  0  0  0  0
   -4.4585    1.8526    0.0000 O   0  0  0  0  0  0  0  0  0  0  0  0
   -2.3778   -0.6637    0.0000 C   0  0  0  0  0  0  0  0  0  0  0  0
    1.0546    3.7826    0.0000 C   0  0  0  0  0  0  0  0  0  0  0  0
    0.4764    3.1840    0.0000 C   0  0  0  0  0  0  0  0  0  0  0  0
    1.4170    5.1589    0.0000 Cl  0  0  0  0  0  0  0  0  0  0  0  0
   -3.0985   -1.0790    0.0000 F   0  0  0  0  0  0  0  0  0  0  0  0
   -1.6490    0.5741    0.0000 C   0  0  0  0  0  0  0  0  0  0  0  0
   -1.6694   -1.0790    0.0000 C   0  0  0  0  0  0  0  0  0  0  0  0
   -0.9365    0.1547    0.0000 C   0  0  0  0  0  0  0  0  0  0  0  0
   -0.9406   -0.6718    0.0000 C   0  0  0  0  0  0  0  0  0  0  0  0
  2  5  1  0  0  0  0
  3  4  1  0  0  0  0
  4 12  2  0  0  0  0
  5  1  2  0  0  0  0
  6  1  1  0  0  0  0
  7 10  1  0  0  0  0
  8  1  1  0  0  0  0
  9  2  1  0  0  0  0
 10  8  2  0  0  0  0
 11  6  1  0  0  0  0
 12 17  1  0  0  0  0
 13  9  1  0  0  0  0
 14 21  2  0  0  0  0
 15  3  1  0  0  0  0
 16  3  2  0  0  0  0
 17 11  1  0  0  0  0
 18  6  2  0  0  0  0
 19  7  2  0  0  0  0
 20 13  2  0  0  0  0
 21 22  1  0  0  0  0
 22 17  2  0  0  0  0
 23 14  1  0  0  0  0
 24 20  1  0  0  0  0
 25 13  1  0  0  0  0
 26 20  1  0  0  0  0
 27 25  2  0  0  0  0
 28 27  1  0  0  0  0
  2  7  1  0  0  0  0
 14  4  1  0  0  0  0
 28 26  2  0  0  0  0
M  CHG  2   3   1  15  -1
M  END
>  <IDNUMBER>
F2744-1400

>  <Chemical_Name>
N-(4-chloro-3-nitrophenyl)-1-[(2-fluorophenyl)methyl]-6-oxo-1,6-dihydropyridine-3-carboxamide

>  <PriceCoeff>
1.00

>  <CAS>
941973-67-7

>  <MW>
401.78

>  <Description>
solid

>  <FSP3>
0.05

>  <clogP>
3.49

>  <TPSA>
92.55

>  <Acceptor>
4

>  <Donor>
1

>  <RotBonds>
5

>  <HAC>
28

>  <Collection>
General

>  <PPDS>
+

$$$$
F2744-1518
  Mrv2219 10102508112D          

 28 30  0  0  0  0            999 V2000
   -2.4090    2.6172    0.0000 C   0  0  0  0  0  0  0  0  0  0  0  0
   -0.1796    5.5898    0.0000 N   0  3  0  0  0  0  0  0  0  0  0  0
   -3.1072    1.4045    0.0000 N   0  0  0  0  0  0  0  0  0  0  0  0
    0.0409    4.7814    0.0000 C   0  0  0  0  0  0  0  0  0  0  0  0
   -2.4090    1.8088    0.0000 C   0  0  0  0  0  0  0  0  0  0  0  0
   -1.7108    3.0215    0.0000 C   0  0  0  0  0  0  0  0  0  0  0  0
   -3.7973    1.8088    0.0000 C   0  0  0  0  0  0  0  0  0  0  0  0
   -3.1072    3.0215    0.0000 C   0  0  0  0  0  0  0  0  0  0  0  0
   -3.7973    2.6172    0.0000 C   0  0  0  0  0  0  0  0  0  0  0  0
   -0.9064    2.8132    0.0000 N   0  0  0  0  0  0  0  0  0  0  0  0
   -0.5471    4.1933    0.0000 C   0  0  0  0  0  0  0  0  0  0  0  0
    0.8371    4.5731    0.0000 C   0  0  0  0  0  0  0  0  0  0  0  0
   -3.1072    0.5757    0.0000 C   0  0  0  0  0  0  0  0  0  0  0  0
    0.3961    6.1777    0.0000 O   0  5  0  0  0  0  0  0  0  0  0  0
   -0.9881    5.7981    0.0000 O   0  0  0  0  0  0  0  0  0  0  0  0
   -0.3267    3.4012    0.0000 C   0  0  0  0  0  0  0  0  0  0  0  0
   -2.1150    3.7238    0.0000 O   0  0  0  0  0  0  0  0  0  0  0  0
   -4.4710    1.8578    0.0000 O   0  0  0  0  0  0  0  0  0  0  0  0
   -2.3845    0.1674    0.0000 C   0  0  0  0  0  0  0  0  0  0  0  0
    1.0576    3.7932    0.0000 C   0  0  0  0  0  0  0  0  0  0  0  0
   -2.3886   -0.6656    0.0000 C   0  0  0  0  0  0  0  0  0  0  0  0
    0.4777    3.1930    0.0000 C   0  0  0  0  0  0  0  0  0  0  0  0
    1.4209    5.1733    0.0000 Cl  0  0  0  0  0  0  0  0  0  0  0  0
   -1.6740   -1.0943    0.0000 C   0  0  0  0  0  0  0  0  0  0  0  0
   -1.6863   -1.9273    0.0000 Cl  0  0  0  0  0  0  0  0  0  0  0  0
   -0.9391    0.1348    0.0000 C   0  0  0  0  0  0  0  0  0  0  0  0
   -1.6659    0.5716    0.0000 C   0  0  0  0  0  0  0  0  0  0  0  0
   -0.9513   -0.6901    0.0000 C   0  0  0  0  0  0  0  0  0  0  0  0
  2  4  1  0  0  0  0
  3  5  1  0  0  0  0
  4 11  2  0  0  0  0
  5  1  2  0  0  0  0
  6  1  1  0  0  0  0
  7  9  1  0  0  0  0
  8  1  1  0  0  0  0
  9  8  2  0  0  0  0
 10  6  1  0  0  0  0
 11 16  1  0  0  0  0
 12 20  2  0  0  0  0
 13  3  1  0  0  0  0
 14  2  1  0  0  0  0
 15  2  2  0  0  0  0
 16 10  1  0  0  0  0
 17  6  2  0  0  0  0
 18  7  2  0  0  0  0
 19 13  1  0  0  0  0
 20 22  1  0  0  0  0
 21 19  1  0  0  0  0
 22 16  2  0  0  0  0
 23 12  1  0  0  0  0
 24 21  2  0  0  0  0
 25 24  1  0  0  0  0
 26 27  1  0  0  0  0
 27 19  2  0  0  0  0
 28 26  2  0  0  0  0
  3  7  1  0  0  0  0
 12  4  1  0  0  0  0
 24 28  1  0  0  0  0
M  CHG  2   2   1  14  -1
M  END
>  <IDNUMBER>
F2744-1518

>  <Chemical_Name>
N-(4-chloro-3-nitrophenyl)-1-[(3-chlorophenyl)methyl]-6-oxo-1,6-dihydropyridine-3-carboxamide

>  <PriceCoeff>
1.00

>  <CAS>
942009-95-2

>  <MW>
418.23

>  <Description>
solid

>  <FSP3>
0.05

>  <clogP>
4.06

>  <TPSA>
92.55

>  <Acceptor>
4

>  <Donor>
1

>  <RotBonds>
5

>  <HAC>
28

>  <Collection>
General

>  <PPDS>
+

$$$$
F2744-1636
  Mrv2219 10102508112D          

 30 32  0  0  0  0            999 V2000
   -2.4048    2.6127    0.0000 C   0  0  0  0  0  0  0  0  0  0  0  0
   -0.1793    5.5801    0.0000 N   0  3  0  0  0  0  0  0  0  0  0  0
   -3.1018    1.4021    0.0000 N   0  0  0  0  0  0  0  0  0  0  0  0
    0.0408    4.7731    0.0000 C   0  0  0  0  0  0  0  0  0  0  0  0
   -1.6630   -1.9117    0.0000 N   0  3  0  0  0  0  0  0  0  0  0  0
   -2.4048    1.8056    0.0000 C   0  0  0  0  0  0  0  0  0  0  0  0
   -1.7078    3.0162    0.0000 C   0  0  0  0  0  0  0  0  0  0  0  0
   -3.7907    1.8056    0.0000 C   0  0  0  0  0  0  0  0  0  0  0  0
   -3.1018    3.0162    0.0000 C   0  0  0  0  0  0  0  0  0  0  0  0
   -3.7907    2.6127    0.0000 C   0  0  0  0  0  0  0  0  0  0  0  0
   -0.9049    2.8083    0.0000 N   0  0  0  0  0  0  0  0  0  0  0  0
   -0.5462    4.1861    0.0000 C   0  0  0  0  0  0  0  0  0  0  0  0
   -1.6589   -1.0883    0.0000 C   0  0  0  0  0  0  0  0  0  0  0  0
    0.8356    4.5652    0.0000 C   0  0  0  0  0  0  0  0  0  0  0  0
   -3.1018    0.5747    0.0000 C   0  0  0  0  0  0  0  0  0  0  0  0
    0.3954    6.1671    0.0000 O   0  5  0  0  0  0  0  0  0  0  0  0
   -2.3845   -2.3274    0.0000 O   0  5  0  0  0  0  0  0  0  0  0  0
   -0.9864    5.7880    0.0000 O   0  0  0  0  0  0  0  0  0  0  0  0
   -0.3260    3.3953    0.0000 C   0  0  0  0  0  0  0  0  0  0  0  0
   -0.9497   -2.3356    0.0000 O   0  0  0  0  0  0  0  0  0  0  0  0
   -2.1113    3.7173    0.0000 O   0  0  0  0  0  0  0  0  0  0  0  0
   -2.3722   -0.6725    0.0000 C   0  0  0  0  0  0  0  0  0  0  0  0
   -4.4632    1.8546    0.0000 O   0  0  0  0  0  0  0  0  0  0  0  0
   -2.3804    0.1671    0.0000 C   0  0  0  0  0  0  0  0  0  0  0  0
    1.0557    3.7866    0.0000 C   0  0  0  0  0  0  0  0  0  0  0  0
    0.4769    3.1874    0.0000 C   0  0  0  0  0  0  0  0  0  0  0  0
    1.4185    5.1644    0.0000 Cl  0  0  0  0  0  0  0  0  0  0  0  0
   -0.9416   -0.6767    0.0000 C   0  0  0  0  0  0  0  0  0  0  0  0
   -0.9375    0.1467    0.0000 C   0  0  0  0  0  0  0  0  0  0  0  0
   -1.6589    0.5706    0.0000 C   0  0  0  0  0  0  0  0  0  0  0  0
  2  4  1  0  0  0  0
  3  6  1  0  0  0  0
  4 12  2  0  0  0  0
  5 13  1  0  0  0  0
  6  1  2  0  0  0  0
  7  1  1  0  0  0  0
  8 10  1  0  0  0  0
  9  1  1  0  0  0  0
 10  9  2  0  0  0  0
 11  7  1  0  0  0  0
 12 19  1  0  0  0  0
 13 22  2  0  0  0  0
 14 25  2  0  0  0  0
 15  3  1  0  0  0  0
 16  2  1  0  0  0  0
 17  5  1  0  0  0  0
 18  2  2  0  0  0  0
 19 11  1  0  0  0  0
 20  5  2  0  0  0  0
 21  7  2  0  0  0  0
 22 24  1  0  0  0  0
 23  8  2  0  0  0  0
 24 15  1  0  0  0  0
 25 26  1  0  0  0  0
 26 19  2  0  0  0  0
 27 14  1  0  0  0  0
 28 29  2  0  0  0  0
 29 30  1  0  0  0  0
 30 24  2  0  0  0  0
  3  8  1  0  0  0  0
 14  4  1  0  0  0  0
 13 28  1  0  0  0  0
M  CHG  4   2   1   5   1  16  -1  17  -1
M  END
>  <IDNUMBER>
F2744-1636

>  <Chemical_Name>
N-(4-chloro-3-nitrophenyl)-1-[(3-nitrophenyl)methyl]-6-oxo-1,6-dihydropyridine-3-carboxamide

>  <PriceCoeff>
1.00

>  <CAS>
941931-31-3

>  <MW>
428.78

>  <Description>
solid

>  <FSP3>
0.05

>  <clogP>
3.09

>  <TPSA>
135.69

>  <Acceptor>
6

>  <Donor>
1

>  <RotBonds>
6

>  <HAC>
30

>  <Collection>
General

>  <PPDS>
+

$$$$
F2748-0183
  Mrv2219 10102508112D          

 24 26  0  0  0  0            999 V2000
   -2.3746    1.6986    0.0000 S   0  0  0  0  0  0  0  0  0  0  0  0
   -1.8905    2.3663    0.0000 N   0  0  0  0  0  0  0  0  0  0  0  0
   -2.3871    3.0382    0.0000 C   0  0  0  0  0  0  0  0  0  0  0  0
   -3.1675    2.7753    0.0000 C   0  0  0  0  0  0  0  0  0  0  0  0
   -3.1633    1.9489    0.0000 C   0  0  0  0  0  0  0  0  0  0  0  0
   -1.0892    2.9297    0.0000 C   0  0  0  0  0  0  0  0  0  0  0  0
   -0.3506    2.7878    0.0000 C   0  0  0  0  0  0  0  0  0  0  0  0
    1.0183    2.3871    0.0000 C   0  0  0  0  0  0  0  0  0  0  0  0
   -2.0616    0.9265    0.0000 O   0  0  0  0  0  0  0  0  0  0  0  0
   -3.0632    1.1769    0.0000 O   0  0  0  0  0  0  0  0  0  0  0  0
    0.2171    2.1910    0.0000 N   0  0  0  0  0  0  0  0  0  0  0  0
    1.5901    1.7862    0.0000 C   0  0  0  0  0  0  0  0  0  0  0  0
   -2.3370    3.8061    0.0000 O   0  0  0  0  0  0  0  0  0  0  0  0
    1.2562    3.1800    0.0000 C   0  0  0  0  0  0  0  0  0  0  0  0
   -0.4633    3.5264    0.0000 O   0  0  0  0  0  0  0  0  0  0  0  0
    2.0575    3.3762    0.0000 C   0  0  0  0  0  0  0  0  0  0  0  0
    2.3830    1.9781    0.0000 C   0  0  0  0  0  0  0  0  0  0  0  0
   -3.8812    3.1884    0.0000 C   0  0  0  0  0  0  0  0  0  0  0  0
    2.6209    2.7753    0.0000 C   0  0  0  0  0  0  0  0  0  0  0  0
   -3.8812    1.5358    0.0000 C   0  0  0  0  0  0  0  0  0  0  0  0
    2.9590    1.3855    0.0000 Cl  0  0  0  0  0  0  0  0  0  0  0  0
    0.6886    3.7811    0.0000 O   0  0  0  0  0  0  0  0  0  0  0  0
   -4.5906    2.7753    0.0000 C   0  0  0  0  0  0  0  0  0  0  0  0
   -4.5906    1.9489    0.0000 C   0  0  0  0  0  0  0  0  0  0  0  0
  2  1  1  0  0  0  0
  3  2  1  0  0  0  0
  4  5  2  0  0  0  0
  5  1  1  0  0  0  0
  6  2  1  0  0  0  0
  7  6  1  0  0  0  0
  8 11  1  0  0  0  0
  9  1  2  0  0  0  0
 10  1  2  0  0  0  0
 11  7  1  0  0  0  0
 12  8  2  0  0  0  0
 13  3  2  0  0  0  0
 14  8  1  0  0  0  0
 15  7  2  0  0  0  0
 16 14  2  0  0  0  0
 17 12  1  0  0  0  0
 18  4  1  0  0  0  0
 19 16  1  0  0  0  0
 20  5  1  0  0  0  0
 21 17  1  0  0  0  0
 22 14  1  0  0  0  0
 23 24  1  0  0  0  0
 24 20  2  0  0  0  0
  4  3  1  0  0  0  0
 23 18  2  0  0  0  0
 17 19  2  0  0  0  0
M  END
>  <IDNUMBER>
F2748-0183

>  <Chemical_Name>
N-(5-chloro-2-hydroxyphenyl)-2-(1,1,3-trioxo-2,3-dihydro-1??,2-benzothiazol-2-yl)acetamide

>  <PriceCoeff>
1.00

>  <CAS>
899954-23-5

>  <MW>
366.78

>  <Description>
solid

>  <FSP3>
0.07

>  <clogP>
2.26

>  <TPSA>
112.16

>  <Acceptor>
5

>  <Donor>
2

>  <RotBonds>
3

>  <HAC>
24

>  <Collection>
General

>  <PPDS>
+

$$$$
F2748-0227
  Mrv2219 10102508112D          

 26 28  0  0  0  0            999 V2000
   -2.3708    1.6958    0.0000 S   0  0  0  0  0  0  0  0  0  0  0  0
   -1.8875    2.3625    0.0000 N   0  0  0  0  0  0  0  0  0  0  0  0
   -2.3833    3.0333    0.0000 C   0  0  0  0  0  0  0  0  0  0  0  0
   -3.1625    2.7708    0.0000 C   0  0  0  0  0  0  0  0  0  0  0  0
   -3.1583    1.9458    0.0000 C   0  0  0  0  0  0  0  0  0  0  0  0
    2.2792    4.1542    0.0000 N   0  3  0  0  0  0  0  0  0  0  0  0
    2.0500    3.3750    0.0000 C   0  0  0  0  0  0  0  0  0  0  0  0
   -1.0875    2.9250    0.0000 C   0  0  0  0  0  0  0  0  0  0  0  0
   -0.3500    2.7833    0.0000 C   0  0  0  0  0  0  0  0  0  0  0  0
   -3.0583    1.1750    0.0000 O   0  0  0  0  0  0  0  0  0  0  0  0
   -2.0583    0.9250    0.0000 O   0  0  0  0  0  0  0  0  0  0  0  0
    1.2417    3.1833    0.0000 C   0  0  0  0  0  0  0  0  0  0  0  0
    2.6250    2.7833    0.0000 C   0  0  0  0  0  0  0  0  0  0  0  0
    3.0792    4.3542    0.0000 O   0  5  0  0  0  0  0  0  0  0  0  0
    0.2167    2.1875    0.0000 N   0  0  0  0  0  0  0  0  0  0  0  0
   -2.3333    3.8000    0.0000 O   0  0  0  0  0  0  0  0  0  0  0  0
    1.7125    4.7542    0.0000 O   0  0  0  0  0  0  0  0  0  0  0  0
    1.0167    2.3833    0.0000 C   0  0  0  0  0  0  0  0  0  0  0  0
   -0.4625    3.5208    0.0000 O   0  0  0  0  0  0  0  0  0  0  0  0
    2.3917    1.9875    0.0000 C   0  0  0  0  0  0  0  0  0  0  0  0
   -3.8750    3.1833    0.0000 C   0  0  0  0  0  0  0  0  0  0  0  0
    1.5875    1.7875    0.0000 C   0  0  0  0  0  0  0  0  0  0  0  0
    3.4167    2.9833    0.0000 Cl  0  0  0  0  0  0  0  0  0  0  0  0
   -3.8750    1.5333    0.0000 C   0  0  0  0  0  0  0  0  0  0  0  0
   -4.5833    2.7708    0.0000 C   0  0  0  0  0  0  0  0  0  0  0  0
   -4.5833    1.9458    0.0000 C   0  0  0  0  0  0  0  0  0  0  0  0
  2  1  1  0  0  0  0
  3  2  1  0  0  0  0
  4  5  2  0  0  0  0
  5  1  1  0  0  0  0
  6  7  1  0  0  0  0
  7 12  2  0  0  0  0
  8  2  1  0  0  0  0
  9  8  1  0  0  0  0
 10  1  2  0  0  0  0
 11  1  2  0  0  0  0
 12 18  1  0  0  0  0
 13 20  2  0  0  0  0
 14  6  1  0  0  0  0
 15  9  1  0  0  0  0
 16  3  2  0  0  0  0
 17  6  2  0  0  0  0
 18 15  1  0  0  0  0
 19  9  2  0  0  0  0
 20 22  1  0  0  0  0
 21  4  1  0  0  0  0
 22 18  2  0  0  0  0
 23 13  1  0  0  0  0
 24  5  1  0  0  0  0
 25 26  1  0  0  0  0
 26 24  2  0  0  0  0
  4  3  1  0  0  0  0
 25 21  2  0  0  0  0
 13  7  1  0  0  0  0
M  CHG  2   6   1  14  -1
M  END
>  <IDNUMBER>
F2748-0227

>  <Chemical_Name>
N-(4-chloro-3-nitrophenyl)-2-(1,1,3-trioxo-2,3-dihydro-1??,2-benzothiazol-2-yl)acetamide

>  <PriceCoeff>
1.00

>  <CAS>
485355-27-9

>  <MW>
395.77

>  <Description>
solid

>  <FSP3>
0.07

>  <clogP>
2.56

>  <TPSA>
135.07

>  <Acceptor>
6

>  <Donor>
1

>  <RotBonds>
4

>  <HAC>
26

>  <Collection>
General

>  <PPDS>
+

$$$$
F2749-0202
  Mrv2219 10102508112D          

 25 27  0  0  0  0            999 V2000
   -2.3781    1.8371    0.0000 S   0  0  0  0  0  0  0  0  0  0  0  0
   -1.8874    2.5166    0.0000 N   0  0  0  0  0  0  0  0  0  0  0  0
   -2.3865    3.1918    0.0000 C   0  0  0  0  0  0  0  0  0  0  0  0
   -3.1792    2.9318    0.0000 C   0  0  0  0  0  0  0  0  0  0  0  0
   -3.1792    2.0971    0.0000 C   0  0  0  0  0  0  0  0  0  0  0  0
   -1.3715    3.1289    0.0000 C   0  0  0  0  0  0  0  0  0  0  0  0
    1.1115    1.8832    0.0000 C   0  0  0  0  0  0  0  0  0  0  0  0
   -2.0593    1.0653    0.0000 O   0  0  0  0  0  0  0  0  0  0  0  0
   -3.0786    1.3170    0.0000 O   0  0  0  0  0  0  0  0  0  0  0  0
    0.3062    2.0593    0.0000 N   0  0  0  0  0  0  0  0  0  0  0  0
    0.0671    2.8395    0.0000 C   0  0  0  0  0  0  0  0  0  0  0  0
   -0.5620    3.2170    0.0000 C   0  0  0  0  0  0  0  0  0  0  0  0
    1.3589    1.1031    0.0000 C   0  0  0  0  0  0  0  0  0  0  0  0
   -2.0845    3.8252    0.0000 O   0  0  0  0  0  0  0  0  0  0  0  0
    1.6735    2.4872    0.0000 C   0  0  0  0  0  0  0  0  0  0  0  0
    0.3817    3.5315    0.0000 O   0  0  0  0  0  0  0  0  0  0  0  0
    2.4705    2.3110    0.0000 C   0  0  0  0  0  0  0  0  0  0  0  0
    2.1559    0.9185    0.0000 C   0  0  0  0  0  0  0  0  0  0  0  0
   -3.9007    3.3554    0.0000 C   0  0  0  0  0  0  0  0  0  0  0  0
    2.7095    1.5225    0.0000 C   0  0  0  0  0  0  0  0  0  0  0  0
   -3.9007    1.6819    0.0000 C   0  0  0  0  0  0  0  0  0  0  0  0
    2.3950    0.1342    0.0000 Cl  0  0  0  0  0  0  0  0  0  0  0  0
    1.4261    3.2715    0.0000 O   0  0  0  0  0  0  0  0  0  0  0  0
   -4.6137    2.9318    0.0000 C   0  0  0  0  0  0  0  0  0  0  0  0
   -4.6137    2.0971    0.0000 C   0  0  0  0  0  0  0  0  0  0  0  0
  2  1  1  0  0  0  0
  3  2  1  0  0  0  0
  4  5  2  0  0  0  0
  5  1  1  0  0  0  0
  6  2  1  0  0  0  0
  7 10  1  0  0  0  0
  8  1  2  0  0  0  0
  9  1  2  0  0  0  0
 10 11  1  0  0  0  0
 11 12  1  0  0  0  0
 12  6  1  0  0  0  0
 13  7  2  0  0  0  0
 14  3  2  0  0  0  0
 15  7  1  0  0  0  0
 16 11  2  0  0  0  0
 17 15  2  0  0  0  0
 18 13  1  0  0  0  0
 19  4  1  0  0  0  0
 20 17  1  0  0  0  0
 21  5  1  0  0  0  0
 22 18  1  0  0  0  0
 23 15  1  0  0  0  0
 24 25  1  0  0  0  0
 25 21  2  0  0  0  0
  3  4  1  0  0  0  0
 24 19  2  0  0  0  0
 18 20  2  0  0  0  0
M  END
>  <IDNUMBER>
F2749-0202

>  <Chemical_Name>
N-(5-chloro-2-hydroxyphenyl)-3-(1,1,3-trioxo-2,3-dihydro-1??,2-benzothiazol-2-yl)propanamide

>  <PriceCoeff>
1.00

>  <CAS>
899757-48-3

>  <MW>
380.80

>  <Description>
solid

>  <FSP3>
0.12

>  <clogP>
2.47

>  <TPSA>
112.16

>  <Acceptor>
5

>  <Donor>
2

>  <RotBonds>
4

>  <HAC>
25

>  <Collection>
General

>  <PPDS>
+

$$$$
F2749-0247
  Mrv2219 10102508112D          

 27 29  0  0  0  0            999 V2000
   -2.3715    1.8319    0.0000 S   0  0  0  0  0  0  0  0  0  0  0  0
   -1.8821    2.5095    0.0000 N   0  0  0  0  0  0  0  0  0  0  0  0
   -2.3798    3.1829    0.0000 C   0  0  0  0  0  0  0  0  0  0  0  0
   -3.1703    2.9236    0.0000 C   0  0  0  0  0  0  0  0  0  0  0  0
   -3.1703    2.0912    0.0000 C   0  0  0  0  0  0  0  0  0  0  0  0
    3.0156    2.9068    0.0000 N   0  3  0  0  0  0  0  0  0  0  0  0
    2.4635    2.3087    0.0000 C   0  0  0  0  0  0  0  0  0  0  0  0
   -1.3677    3.1201    0.0000 C   0  0  0  0  0  0  0  0  0  0  0  0
   -3.0699    1.3133    0.0000 O   0  0  0  0  0  0  0  0  0  0  0  0
   -2.0536    1.0623    0.0000 O   0  0  0  0  0  0  0  0  0  0  0  0
    1.6605    2.4927    0.0000 C   0  0  0  0  0  0  0  0  0  0  0  0
    0.0670    2.8315    0.0000 C   0  0  0  0  0  0  0  0  0  0  0  0
   -0.5604    3.2079    0.0000 C   0  0  0  0  0  0  0  0  0  0  0  0
    2.7145    1.5266    0.0000 C   0  0  0  0  0  0  0  0  0  0  0  0
    3.8144    2.7354    0.0000 O   0  5  0  0  0  0  0  0  0  0  0  0
   -2.0787    3.8144    0.0000 O   0  0  0  0  0  0  0  0  0  0  0  0
    0.3054    2.0536    0.0000 N   0  0  0  0  0  0  0  0  0  0  0  0
    2.7730    3.6890    0.0000 O   0  0  0  0  0  0  0  0  0  0  0  0
    1.1084    1.8779    0.0000 C   0  0  0  0  0  0  0  0  0  0  0  0
    0.3806    3.5216    0.0000 O   0  0  0  0  0  0  0  0  0  0  0  0
    2.1624    0.9243    0.0000 C   0  0  0  0  0  0  0  0  0  0  0  0
   -3.8897    3.3460    0.0000 C   0  0  0  0  0  0  0  0  0  0  0  0
    1.3551    1.1000    0.0000 C   0  0  0  0  0  0  0  0  0  0  0  0
    3.5133    1.3551    0.0000 Cl  0  0  0  0  0  0  0  0  0  0  0  0
   -3.8897    1.6772    0.0000 C   0  0  0  0  0  0  0  0  0  0  0  0
   -4.6007    2.9236    0.0000 C   0  0  0  0  0  0  0  0  0  0  0  0
   -4.6007    2.0912    0.0000 C   0  0  0  0  0  0  0  0  0  0  0  0
  2  1  1  0  0  0  0
  3  2  1  0  0  0  0
  4  5  2  0  0  0  0
  5  1  1  0  0  0  0
  6  7  1  0  0  0  0
  7 11  2  0  0  0  0
  8  2  1  0  0  0  0
  9  1  2  0  0  0  0
 10  1  2  0  0  0  0
 11 19  1  0  0  0  0
 12 13  1  0  0  0  0
 13  8  1  0  0  0  0
 14 21  2  0  0  0  0
 15  6  1  0  0  0  0
 16  3  2  0  0  0  0
 17 12  1  0  0  0  0
 18  6  2  0  0  0  0
 19 17  1  0  0  0  0
 20 12  2  0  0  0  0
 21 23  1  0  0  0  0
 22  4  1  0  0  0  0
 23 19  2  0  0  0  0
 24 14  1  0  0  0  0
 25  5  1  0  0  0  0
 26 27  1  0  0  0  0
 27 25  2  0  0  0  0
  3  4  1  0  0  0  0
 26 22  2  0  0  0  0
 14  7  1  0  0  0  0
M  CHG  2   6   1  15  -1
M  END
>  <IDNUMBER>
F2749-0247

>  <Chemical_Name>
N-(4-chloro-3-nitrophenyl)-3-(1,1,3-trioxo-2,3-dihydro-1??,2-benzothiazol-2-yl)propanamide

>  <PriceCoeff>
1.00

>  <CAS>
899996-46-4

>  <MW>
409.80

>  <Description>
solid

>  <FSP3>
0.12

>  <clogP>
2.77

>  <TPSA>
135.07

>  <Acceptor>
6

>  <Donor>
1

>  <RotBonds>
5

>  <HAC>
27

>  <Collection>
General

>  <PPDS>
+

$$$$
F2750-0071
  Mrv2219 10102508112D          

 25 27  0  0  0  0            999 V2000
   -2.3567    1.8039    0.0000 S   0  0  0  0  0  0  0  0  0  0  0  0
   -1.8704    2.4772    0.0000 N   0  0  0  0  0  0  0  0  0  0  0  0
   -2.5146    3.1048    0.0000 C   0  0  0  0  0  0  0  0  0  0  0  0
   -3.1505    2.8887    0.0000 C   0  0  0  0  0  0  0  0  0  0  0  0
   -3.1505    2.0533    0.0000 C   0  0  0  0  0  0  0  0  0  0  0  0
   -1.0682    3.0383    0.0000 C   0  0  0  0  0  0  0  0  0  0  0  0
   -0.3325    2.9012    0.0000 C   0  0  0  0  0  0  0  0  0  0  0  0
    0.1621    2.2403    0.0000 N   0  0  0  0  0  0  0  0  0  0  0  0
    0.9768    2.3317    0.0000 C   0  0  0  0  0  0  0  0  0  0  0  0
   -3.0508    1.2844    0.0000 O   0  0  0  0  0  0  0  0  0  0  0  0
   -2.0408    1.0308    0.0000 O   0  0  0  0  0  0  0  0  0  0  0  0
   -2.7017    3.7907    0.0000 O   0  0  0  0  0  0  0  0  0  0  0  0
    1.4714    1.6709    0.0000 C   0  0  0  0  0  0  0  0  0  0  0  0
    1.3134    3.1006    0.0000 C   0  0  0  0  0  0  0  0  0  0  0  0
   -0.2452    3.7284    0.0000 O   0  0  0  0  0  0  0  0  0  0  0  0
    2.1240    3.1879    0.0000 C   0  0  0  0  0  0  0  0  0  0  0  0
    2.2860    1.7665    0.0000 C   0  0  0  0  0  0  0  0  0  0  0  0
   -3.8656    3.3002    0.0000 C   0  0  0  0  0  0  0  0  0  0  0  0
    2.6228    2.5188    0.0000 C   0  0  0  0  0  0  0  0  0  0  0  0
   -1.7332    3.6660    0.0000 C   0  0  0  0  0  0  0  0  0  0  0  0
   -3.8656    1.6418    0.0000 C   0  0  0  0  0  0  0  0  0  0  0  0
    2.7849    1.0973    0.0000 Cl  0  0  0  0  0  0  0  0  0  0  0  0
    0.8230    3.7616    0.0000 O   0  0  0  0  0  0  0  0  0  0  0  0
   -4.5721    2.8887    0.0000 C   0  0  0  0  0  0  0  0  0  0  0  0
   -4.5721    2.0575    0.0000 C   0  0  0  0  0  0  0  0  0  0  0  0
  2  1  1  0  0  0  0
  3  2  1  0  0  0  0
  4  5  2  0  0  0  0
  5  1  1  0  0  0  0
  6  2  1  0  0  0  0
  7  6  1  0  0  0  0
  8  7  1  0  0  0  0
  9  8  1  0  0  0  0
 10  1  2  0  0  0  0
 11  1  2  0  0  0  0
 12  3  2  0  0  0  0
 13  9  2  0  0  0  0
 14  9  1  0  0  0  0
 15  7  2  0  0  0  0
 16 14  2  0  0  0  0
 17 13  1  0  0  0  0
 18  4  1  0  0  0  0
 19 16  1  0  0  0  0
 20  6  1  0  0  0  0
 21  5  1  0  0  0  0
 22 17  1  0  0  0  0
 23 14  1  0  0  0  0
 24 25  1  0  0  0  0
 25 21  2  0  0  0  0
  3  4  1  0  0  0  0
 24 18  2  0  0  0  0
 17 19  2  0  0  0  0
M  END
>  <IDNUMBER>
F2750-0071

>  <Chemical_Name>
N-(5-chloro-2-hydroxyphenyl)-2-(1,1,3-trioxo-2,3-dihydro-1??,2-benzothiazol-2-yl)propanamide

>  <PriceCoeff>
1.00

>  <CAS>
899955-50-1

>  <MW>
380.80

>  <Description>
solid

>  <FSP3>
0.12

>  <clogP>
2.57

>  <TPSA>
112.16

>  <Acceptor>
5

>  <Donor>
2

>  <RotBonds>
3

>  <HAC>
25

>  <Collection>
General

>  <PPDS>
+

$$$$
F2750-0113
  Mrv2219 10102508112D          

 27 29  0  0  0  0            999 V2000
   -2.3453    1.7952    0.0000 S   0  0  0  0  0  0  0  0  0  0  0  0
   -1.8614    2.4653    0.0000 N   0  0  0  0  0  0  0  0  0  0  0  0
   -2.5025    3.0899    0.0000 C   0  0  0  0  0  0  0  0  0  0  0  0
   -3.1354    2.8748    0.0000 C   0  0  0  0  0  0  0  0  0  0  0  0
   -3.1354    2.0433    0.0000 C   0  0  0  0  0  0  0  0  0  0  0  0
   -1.0630    3.0237    0.0000 C   0  0  0  0  0  0  0  0  0  0  0  0
    2.4446    3.9295    0.0000 N   0  3  0  0  0  0  0  0  0  0  0  0
    2.1137    3.1726    0.0000 C   0  0  0  0  0  0  0  0  0  0  0  0
   -0.3309    2.8872    0.0000 C   0  0  0  0  0  0  0  0  0  0  0  0
   -3.0361    1.2781    0.0000 O   0  0  0  0  0  0  0  0  0  0  0  0
   -2.0309    1.0258    0.0000 O   0  0  0  0  0  0  0  0  0  0  0  0
    0.1613    2.2295    0.0000 N   0  0  0  0  0  0  0  0  0  0  0  0
    1.2947    3.0857    0.0000 C   0  0  0  0  0  0  0  0  0  0  0  0
   -2.6886    3.7724    0.0000 O   0  0  0  0  0  0  0  0  0  0  0  0
    2.6183    2.5149    0.0000 C   0  0  0  0  0  0  0  0  0  0  0  0
    3.2554    4.0123    0.0000 O   0  5  0  0  0  0  0  0  0  0  0  0
    1.9606    4.5832    0.0000 O   0  0  0  0  0  0  0  0  0  0  0  0
    0.9721    2.3205    0.0000 C   0  0  0  0  0  0  0  0  0  0  0  0
   -0.2440    3.7103    0.0000 O   0  0  0  0  0  0  0  0  0  0  0  0
    2.2875    1.7579    0.0000 C   0  0  0  0  0  0  0  0  0  0  0  0
   -3.8468    3.2843    0.0000 C   0  0  0  0  0  0  0  0  0  0  0  0
    1.4685    1.6587    0.0000 C   0  0  0  0  0  0  0  0  0  0  0  0
    3.4291    2.6142    0.0000 Cl  0  0  0  0  0  0  0  0  0  0  0  0
   -1.7249    3.6483    0.0000 C   0  0  0  0  0  0  0  0  0  0  0  0
   -3.8468    1.6338    0.0000 C   0  0  0  0  0  0  0  0  0  0  0  0
   -4.5500    2.8748    0.0000 C   0  0  0  0  0  0  0  0  0  0  0  0
   -4.5500    2.0475    0.0000 C   0  0  0  0  0  0  0  0  0  0  0  0
  2  1  1  0  0  0  0
  3  2  1  0  0  0  0
  4  5  2  0  0  0  0
  5  1  1  0  0  0  0
  6  2  1  0  0  0  0
  7  8  1  0  0  0  0
  8 13  2  0  0  0  0
  9  6  1  0  0  0  0
 10  1  2  0  0  0  0
 11  1  2  0  0  0  0
 12  9  1  0  0  0  0
 13 18  1  0  0  0  0
 14  3  2  0  0  0  0
 15 20  2  0  0  0  0
 16  7  1  0  0  0  0
 17  7  2  0  0  0  0
 18 12  1  0  0  0  0
 19  9  2  0  0  0  0
 20 22  1  0  0  0  0
 21  4  1  0  0  0  0
 22 18  2  0  0  0  0
 23 15  1  0  0  0  0
 24  6  1  0  0  0  0
 25  5  1  0  0  0  0
 26 27  1  0  0  0  0
 27 25  2  0  0  0  0
  3  4  1  0  0  0  0
 26 21  2  0  0  0  0
 15  8  1  0  0  0  0
M  CHG  2   7   1  16  -1
M  END
>  <IDNUMBER>
F2750-0113

>  <Chemical_Name>
N-(4-chloro-3-nitrophenyl)-2-(1,1,3-trioxo-2,3-dihydro-1??,2-benzothiazol-2-yl)propanamide

>  <PriceCoeff>
1.00

>  <CAS>
899758-40-8

>  <MW>
409.80

>  <Description>
solid

>  <FSP3>
0.12

>  <clogP>
2.87

>  <TPSA>
135.07

>  <Acceptor>
6

>  <Donor>
1

>  <RotBonds>
4

>  <HAC>
27

>  <Collection>
General

>  <PPDS>
+

$$$$
F2756-0037
  Mrv2219 10102508112D          

 34 37  0  0  0  0            999 V2000
   -3.1648    5.0396    0.0000 C   0  0  0  0  0  0  0  0  0  0  0  0
   -3.1648    4.2129    0.0000 N   0  0  0  0  0  0  0  0  0  0  0  0
   -3.8329    5.5281    0.0000 N   0  0  0  0  0  0  0  0  0  0  0  0
   -3.8913    0.5136    0.0000 N   0  0  0  0  0  0  0  0  0  0  0  0
   -2.5010    5.5281    0.0000 S   0  0  0  0  0  0  0  0  0  0  0  0
   -3.8788    3.8079    0.0000 C   0  0  0  0  0  0  0  0  0  0  0  0
   -4.5176    0.0083    0.0000 C   0  0  0  0  0  0  0  0  0  0  0  0
   -3.2024    0.0584    0.0000 C   0  0  0  0  0  0  0  0  0  0  0  0
   -3.5824    6.3131    0.0000 C   0  0  0  0  0  0  0  0  0  0  0  0
   -2.7557    6.3131    0.0000 C   0  0  0  0  0  0  0  0  0  0  0  0
   -2.4509    3.8079    0.0000 C   0  0  0  0  0  0  0  0  0  0  0  0
   -3.8830    1.3403    0.0000 C   0  0  0  0  0  0  0  0  0  0  0  0
   -3.8788    2.9895    0.0000 C   0  0  0  0  0  0  0  0  0  0  0  0
   -1.7369    2.5636    0.0000 N   0  0  0  0  0  0  0  0  0  0  0  0
   -4.5928    4.2129    0.0000 O   0  0  0  0  0  0  0  0  0  0  0  0
   -4.2421   -0.7641    0.0000 C   0  0  0  0  0  0  0  0  0  0  0  0
   -3.4279   -0.7390    0.0000 C   0  0  0  0  0  0  0  0  0  0  0  0
   -5.3193    0.2338    0.0000 O   0  0  0  0  0  0  0  0  0  0  0  0
   -2.4133    0.3382    0.0000 O   0  0  0  0  0  0  0  0  0  0  0  0
   -3.1565    1.7494    0.0000 C   0  0  0  0  0  0  0  0  0  0  0  0
   -4.5928    1.7536    0.0000 C   0  0  0  0  0  0  0  0  0  0  0  0
   -2.4509    2.9770    0.0000 C   0  0  0  0  0  0  0  0  0  0  0  0
   -4.5803    2.5887    0.0000 C   0  0  0  0  0  0  0  0  0  0  0  0
   -3.1523    2.5761    0.0000 C   0  0  0  0  0  0  0  0  0  0  0  0
   -0.3089    1.7369    0.0000 O   0  0  0  0  0  0  0  0  0  0  0  0
   -1.0229    2.9895    0.0000 C   0  0  0  0  0  0  0  0  0  0  0  0
   -1.7369    1.7411    0.0000 C   0  0  0  0  0  0  0  0  0  0  0  0
   -3.9916    7.0270    0.0000 C   0  0  0  0  0  0  0  0  0  0  0  0
   -2.3423    7.0270    0.0000 C   0  0  0  0  0  0  0  0  0  0  0  0
   -1.0229    1.3277    0.0000 C   0  0  0  0  0  0  0  0  0  0  0  0
   -0.3089    2.5678    0.0000 C   0  0  0  0  0  0  0  0  0  0  0  0
   -2.7557    7.7452    0.0000 C   0  0  0  0  0  0  0  0  0  0  0  0
   -3.5782    7.7327    0.0000 C   0  0  0  0  0  0  0  0  0  0  0  0
    1.2109    3.5866    0.0000 Cl  0  0  0  0  0  0  0  0  0  0  0  0
  3  1  2  0  0  0  0
  4 12  1  0  0  0  0
  5  1  1  0  0  0  0
  6  2  1  0  0  0  0
  7  4  1  0  0  0  0
  8  4  1  0  0  0  0
  9  3  1  0  0  0  0
 10  5  1  0  0  0  0
 11  2  1  0  0  0  0
 12 20  1  0  0  0  0
 13  6  1  0  0  0  0
 14 22  1  0  0  0  0
 15  6  2  0  0  0  0
 16  7  1  0  0  0  0
 17  8  1  0  0  0  0
 18  7  2  0  0  0  0
 19  8  2  0  0  0  0
 20 24  2  0  0  0  0
 21 23  1  0  0  0  0
 22 11  1  0  0  0  0
 23 13  2  0  0  0  0
 24 13  1  0  0  0  0
 25 30  1  0  0  0  0
 26 14  1  0  0  0  0
 27 14  1  0  0  0  0
 28  9  1  0  0  0  0
 29 10  1  0  0  0  0
 30 27  1  0  0  0  0
 31 26  1  0  0  0  0
 32 29  2  0  0  0  0
 33 28  2  0  0  0  0
 10  9  2  0  0  0  0
 33 32  1  0  0  0  0
 12 21  2  0  0  0  0
 31 25  1  0  0  0  0
 17 16  1  0  0  0  0
  2  1  1  0  0  0  0
M  END
>  <IDNUMBER>
F2756-0037

>  <Chemical_Name>
N-(1,3-benzothiazol-2-yl)-4-(2,5-dioxopyrrolidin-1-yl)-N-[2-(morpholin-4-yl)ethyl]benzamide hydrochloride

>  <PriceCoeff>
1.00

>  <CAS>
1329982-96-8

>  <MW>
464.54

>  <Description>
solid

>  <FSP3>
0.33

>  <clogP>
1.10

>  <TPSA>
111.29

>  <Acceptor>
5

>  <Donor>
1

>  <RotBonds>
7

>  <HAC>
33

>  <Collection>
General

>  <PPDS>
+

$$$$
F2756-0460
  Mrv2219 10102508112D          

 35 38  0  0  0  0            999 V2000
   -3.1648    5.0396    0.0000 C   0  0  0  0  0  0  0  0  0  0  0  0
   -3.8329    5.5281    0.0000 N   0  0  0  0  0  0  0  0  0  0  0  0
   -3.1648    4.2129    0.0000 N   0  0  0  0  0  0  0  0  0  0  0  0
   -5.3068    1.3486    0.0000 N   0  0  0  0  0  0  0  0  0  0  0  0
   -2.5010    5.5281    0.0000 S   0  0  0  0  0  0  0  0  0  0  0  0
   -3.8788    3.8079    0.0000 C   0  0  0  0  0  0  0  0  0  0  0  0
   -3.5824    6.3131    0.0000 C   0  0  0  0  0  0  0  0  0  0  0  0
   -4.5928    1.7619    0.0000 C   0  0  0  0  0  0  0  0  0  0  0  0
   -6.0292    1.7160    0.0000 C   0  0  0  0  0  0  0  0  0  0  0  0
   -5.4195    0.5344    0.0000 C   0  0  0  0  0  0  0  0  0  0  0  0
   -2.7557    6.3131    0.0000 C   0  0  0  0  0  0  0  0  0  0  0  0
   -3.8788    2.9895    0.0000 C   0  0  0  0  0  0  0  0  0  0  0  0
   -4.5928    2.5887    0.0000 C   0  0  0  0  0  0  0  0  0  0  0  0
   -2.4509    3.8079    0.0000 C   0  0  0  0  0  0  0  0  0  0  0  0
   -1.7369    2.5636    0.0000 N   0  0  0  0  0  0  0  0  0  0  0  0
   -3.9916    7.0270    0.0000 C   0  0  0  0  0  0  0  0  0  0  0  0
   -4.5928    4.2129    0.0000 O   0  0  0  0  0  0  0  0  0  0  0  0
   -6.6054    1.1148    0.0000 C   0  0  0  0  0  0  0  0  0  0  0  0
   -6.2254    0.3841    0.0000 C   0  0  0  0  0  0  0  0  0  0  0  0
   -6.1670    2.5302    0.0000 O   0  0  0  0  0  0  0  0  0  0  0  0
   -4.8433   -0.0418    0.0000 O   0  0  0  0  0  0  0  0  0  0  0  0
   -2.4509    2.9770    0.0000 C   0  0  0  0  0  0  0  0  0  0  0  0
   -0.3089    1.7369    0.0000 O   0  0  0  0  0  0  0  0  0  0  0  0
   -4.8308    7.0312    0.0000 Cl  0  0  0  0  0  0  0  0  0  0  0  0
   -3.8788    1.3403    0.0000 C   0  0  0  0  0  0  0  0  0  0  0  0
   -2.3423    7.0270    0.0000 C   0  0  0  0  0  0  0  0  0  0  0  0
   -3.1565    2.5761    0.0000 C   0  0  0  0  0  0  0  0  0  0  0  0
   -1.0229    2.9895    0.0000 C   0  0  0  0  0  0  0  0  0  0  0  0
   -1.7369    1.7411    0.0000 C   0  0  0  0  0  0  0  0  0  0  0  0
   -3.1648    1.7536    0.0000 C   0  0  0  0  0  0  0  0  0  0  0  0
   -2.7557    7.7452    0.0000 C   0  0  0  0  0  0  0  0  0  0  0  0
   -3.5782    7.7327    0.0000 C   0  0  0  0  0  0  0  0  0  0  0  0
   -0.3089    2.5678    0.0000 C   0  0  0  0  0  0  0  0  0  0  0  0
   -1.0229    1.3277    0.0000 C   0  0  0  0  0  0  0  0  0  0  0  0
    1.2109    3.7953    0.0000 Cl  0  0  0  0  0  0  0  0  0  0  0  0
  3  1  1  0  0  0  0
  4  8  1  0  0  0  0
  5  1  1  0  0  0  0
  6  3  1  0  0  0  0
  7  2  1  0  0  0  0
  8 13  1  0  0  0  0
  9  4  1  0  0  0  0
 10  4  1  0  0  0  0
 11  5  1  0  0  0  0
 12  6  1  0  0  0  0
 13 12  2  0  0  0  0
 14  3  1  0  0  0  0
 15 22  1  0  0  0  0
 16  7  1  0  0  0  0
 17  6  2  0  0  0  0
 18  9  1  0  0  0  0
 19 10  1  0  0  0  0
 20  9  2  0  0  0  0
 21 10  2  0  0  0  0
 22 14  1  0  0  0  0
 23 34  1  0  0  0  0
 24 16  1  0  0  0  0
 25 30  1  0  0  0  0
 26 11  1  0  0  0  0
 27 12  1  0  0  0  0
 28 15  1  0  0  0  0
 29 15  1  0  0  0  0
 30 27  2  0  0  0  0
 31 26  2  0  0  0  0
 32 16  2  0  0  0  0
 33 28  1  0  0  0  0
 34 29  1  0  0  0  0
 11  7  2  0  0  0  0
 32 31  1  0  0  0  0
 23 33  1  0  0  0  0
  8 25  2  0  0  0  0
 19 18  1  0  0  0  0
  2  1  2  0  0  0  0
M  END
>  <IDNUMBER>
F2756-0460

>  <Chemical_Name>
N-(4-chloro-1,3-benzothiazol-2-yl)-3-(2,5-dioxopyrrolidin-1-yl)-N-[2-(morpholin-4-yl)ethyl]benzamide hydrochloride

>  <PriceCoeff>
1.00

>  <CAS>
1330289-96-7

>  <MW>
498.98

>  <Description>
solid

>  <FSP3>
0.33

>  <clogP>
1.85

>  <TPSA>
111.29

>  <Acceptor>
5

>  <Donor>
1

>  <RotBonds>
7

>  <HAC>
34

>  <Collection>
General

>  <PPDS>
+

$$$$
F2756-0879
  Mrv2219 10102508112D          

 36 39  0  0  0  0            999 V2000
   -3.1602    5.0323    0.0000 C   0  0  0  0  0  0  0  0  0  0  0  0
   -3.1602    4.2068    0.0000 N   0  0  0  0  0  0  0  0  0  0  0  0
   -3.8274    5.5201    0.0000 N   0  0  0  0  0  0  0  0  0  0  0  0
   -3.8857    0.5128    0.0000 N   0  0  0  0  0  0  0  0  0  0  0  0
   -2.4973    5.5201    0.0000 S   0  0  0  0  0  0  0  0  0  0  0  0
   -3.8732    3.8023    0.0000 C   0  0  0  0  0  0  0  0  0  0  0  0
   -4.5111    0.0083    0.0000 C   0  0  0  0  0  0  0  0  0  0  0  0
   -3.1978    0.0583    0.0000 C   0  0  0  0  0  0  0  0  0  0  0  0
   -2.7517    6.3039    0.0000 C   0  0  0  0  0  0  0  0  0  0  0  0
   -3.5772    6.3039    0.0000 C   0  0  0  0  0  0  0  0  0  0  0  0
   -2.4473    3.8023    0.0000 C   0  0  0  0  0  0  0  0  0  0  0  0
   -3.8774    1.3383    0.0000 C   0  0  0  0  0  0  0  0  0  0  0  0
   -3.8732    2.9851    0.0000 C   0  0  0  0  0  0  0  0  0  0  0  0
   -1.7344    2.5599    0.0000 N   0  0  0  0  0  0  0  0  0  0  0  0
   -4.5861    4.2068    0.0000 O   0  0  0  0  0  0  0  0  0  0  0  0
   -2.3389    7.0168    0.0000 C   0  0  0  0  0  0  0  0  0  0  0  0
   -4.2359   -0.7630    0.0000 C   0  0  0  0  0  0  0  0  0  0  0  0
   -3.4229   -0.7380    0.0000 C   0  0  0  0  0  0  0  0  0  0  0  0
   -5.3116    0.2334    0.0000 O   0  0  0  0  0  0  0  0  0  0  0  0
   -2.4098    0.3377    0.0000 O   0  0  0  0  0  0  0  0  0  0  0  0
   -3.9857    7.0168    0.0000 C   0  0  0  0  0  0  0  0  0  0  0  0
   -3.1519    1.7469    0.0000 C   0  0  0  0  0  0  0  0  0  0  0  0
   -4.5861    1.7511    0.0000 C   0  0  0  0  0  0  0  0  0  0  0  0
   -2.4473    2.9726    0.0000 C   0  0  0  0  0  0  0  0  0  0  0  0
   -4.5736    2.5849    0.0000 C   0  0  0  0  0  0  0  0  0  0  0  0
   -3.1477    2.5724    0.0000 C   0  0  0  0  0  0  0  0  0  0  0  0
   -0.3085    1.7344    0.0000 O   0  0  0  0  0  0  0  0  0  0  0  0
   -2.7517    7.7340    0.0000 C   0  0  0  0  0  0  0  0  0  0  0  0
   -3.5730    7.7214    0.0000 C   0  0  0  0  0  0  0  0  0  0  0  0
   -1.0214    2.9851    0.0000 C   0  0  0  0  0  0  0  0  0  0  0  0
   -1.7344    1.7386    0.0000 C   0  0  0  0  0  0  0  0  0  0  0  0
   -1.0214    1.3258    0.0000 C   0  0  0  0  0  0  0  0  0  0  0  0
   -0.3085    2.5641    0.0000 C   0  0  0  0  0  0  0  0  0  0  0  0
   -2.3472    8.4594    0.0000 C   0  0  0  0  0  0  0  0  0  0  0  0
   -1.5217    8.4719    0.0000 C   0  0  0  0  0  0  0  0  0  0  0  0
    1.2091    3.9482    0.0000 Cl  0  0  0  0  0  0  0  0  0  0  0  0
  3  1  2  0  0  0  0
  4 12  1  0  0  0  0
  5  1  1  0  0  0  0
  6  2  1  0  0  0  0
  7  4  1  0  0  0  0
  8  4  1  0  0  0  0
  9  5  1  0  0  0  0
 10  3  1  0  0  0  0
 11  2  1  0  0  0  0
 12 22  1  0  0  0  0
 13  6  1  0  0  0  0
 14 24  1  0  0  0  0
 15  6  2  0  0  0  0
 16  9  1  0  0  0  0
 17  7  1  0  0  0  0
 18  8  1  0  0  0  0
 19  7  2  0  0  0  0
 20  8  2  0  0  0  0
 21 10  1  0  0  0  0
 22 26  2  0  0  0  0
 23 25  1  0  0  0  0
 24 11  1  0  0  0  0
 25 13  2  0  0  0  0
 26 13  1  0  0  0  0
 27 32  1  0  0  0  0
 28 16  2  0  0  0  0
 29 21  2  0  0  0  0
 30 14  1  0  0  0  0
 31 14  1  0  0  0  0
 32 31  1  0  0  0  0
 33 30  1  0  0  0  0
 34 28  1  0  0  0  0
 35 34  1  0  0  0  0
  9 10  2  0  0  0  0
 29 28  1  0  0  0  0
 12 23  2  0  0  0  0
 27 33  1  0  0  0  0
 18 17  1  0  0  0  0
  2  1  1  0  0  0  0
M  END
>  <IDNUMBER>
F2756-0879

>  <Chemical_Name>
4-(2,5-dioxopyrrolidin-1-yl)-N-(6-ethyl-1,3-benzothiazol-2-yl)-N-[2-(morpholin-4-yl)ethyl]benzamide hydrochloride

>  <PriceCoeff>
1.00

>  <CAS>
1330285-94-3

>  <MW>
492.59

>  <Description>
solid

>  <FSP3>
0.38

>  <clogP>
2.13

>  <TPSA>
111.29

>  <Acceptor>
5

>  <Donor>
1

>  <RotBonds>
8

>  <HAC>
35

>  <Collection>
General

>  <PPDS>
+

$$$$
F2756-0977
  Mrv2219 10102508112D          

 36 39  0  0  0  0            999 V2000
   -3.1648    5.0396    0.0000 C   0  0  0  0  0  0  0  0  0  0  0  0
   -3.1648    4.2129    0.0000 N   0  0  0  0  0  0  0  0  0  0  0  0
   -3.8329    5.5281    0.0000 N   0  0  0  0  0  0  0  0  0  0  0  0
   -3.8913    0.5136    0.0000 N   0  0  0  0  0  0  0  0  0  0  0  0
   -2.5010    5.5281    0.0000 S   0  0  0  0  0  0  0  0  0  0  0  0
   -3.8788    3.8079    0.0000 C   0  0  0  0  0  0  0  0  0  0  0  0
   -2.7557    6.3131    0.0000 C   0  0  0  0  0  0  0  0  0  0  0  0
   -4.5176    0.0083    0.0000 C   0  0  0  0  0  0  0  0  0  0  0  0
   -3.2024    0.0584    0.0000 C   0  0  0  0  0  0  0  0  0  0  0  0
   -3.5824    6.3131    0.0000 C   0  0  0  0  0  0  0  0  0  0  0  0
   -2.4509    3.8079    0.0000 C   0  0  0  0  0  0  0  0  0  0  0  0
   -3.8830    1.3403    0.0000 C   0  0  0  0  0  0  0  0  0  0  0  0
   -2.3423    7.0270    0.0000 C   0  0  0  0  0  0  0  0  0  0  0  0
   -3.8788    2.9895    0.0000 C   0  0  0  0  0  0  0  0  0  0  0  0
   -1.7369    2.5636    0.0000 N   0  0  0  0  0  0  0  0  0  0  0  0
   -4.5928    4.2129    0.0000 O   0  0  0  0  0  0  0  0  0  0  0  0
   -4.2421   -0.7641    0.0000 C   0  0  0  0  0  0  0  0  0  0  0  0
   -3.4279   -0.7390    0.0000 C   0  0  0  0  0  0  0  0  0  0  0  0
   -5.3193    0.2338    0.0000 O   0  0  0  0  0  0  0  0  0  0  0  0
   -2.4133    0.3382    0.0000 O   0  0  0  0  0  0  0  0  0  0  0  0
   -3.9916    7.0270    0.0000 C   0  0  0  0  0  0  0  0  0  0  0  0
   -3.1565    1.7494    0.0000 C   0  0  0  0  0  0  0  0  0  0  0  0
   -4.5928    1.7536    0.0000 C   0  0  0  0  0  0  0  0  0  0  0  0
   -2.4509    2.9770    0.0000 C   0  0  0  0  0  0  0  0  0  0  0  0
   -4.5803    2.5887    0.0000 C   0  0  0  0  0  0  0  0  0  0  0  0
   -3.1523    2.5761    0.0000 C   0  0  0  0  0  0  0  0  0  0  0  0
   -0.3089    1.7369    0.0000 O   0  0  0  0  0  0  0  0  0  0  0  0
   -2.7557    7.7452    0.0000 C   0  0  0  0  0  0  0  0  0  0  0  0
   -3.5782    7.7327    0.0000 C   0  0  0  0  0  0  0  0  0  0  0  0
   -2.3507    8.4717    0.0000 O   0  0  0  0  0  0  0  0  0  0  0  0
   -1.7369    1.7411    0.0000 C   0  0  0  0  0  0  0  0  0  0  0  0
   -1.0229    2.9895    0.0000 C   0  0  0  0  0  0  0  0  0  0  0  0
   -0.3089    2.5678    0.0000 C   0  0  0  0  0  0  0  0  0  0  0  0
   -1.0229    1.3277    0.0000 C   0  0  0  0  0  0  0  0  0  0  0  0
   -1.5240    8.4842    0.0000 C   0  0  0  0  0  0  0  0  0  0  0  0
    1.2109    4.0041    0.0000 Cl  0  0  0  0  0  0  0  0  0  0  0  0
  3  1  2  0  0  0  0
  4 12  1  0  0  0  0
  5  1  1  0  0  0  0
  6  2  1  0  0  0  0
  7  5  1  0  0  0  0
  8  4  1  0  0  0  0
  9  4  1  0  0  0  0
 10  3  1  0  0  0  0
 11  2  1  0  0  0  0
 12 22  1  0  0  0  0
 13  7  1  0  0  0  0
 14  6  1  0  0  0  0
 15 24  1  0  0  0  0
 16  6  2  0  0  0  0
 17  8  1  0  0  0  0
 18  9  1  0  0  0  0
 19  8  2  0  0  0  0
 20  9  2  0  0  0  0
 21 10  1  0  0  0  0
 22 26  2  0  0  0  0
 23 25  1  0  0  0  0
 24 11  1  0  0  0  0
 25 14  2  0  0  0  0
 26 14  1  0  0  0  0
 27 33  1  0  0  0  0
 28 13  2  0  0  0  0
 29 21  2  0  0  0  0
 30 28  1  0  0  0  0
 31 15  1  0  0  0  0
 32 15  1  0  0  0  0
 33 32  1  0  0  0  0
 34 31  1  0  0  0  0
 35 30  1  0  0  0  0
  7 10  2  0  0  0  0
 29 28  1  0  0  0  0
 12 23  2  0  0  0  0
 27 34  1  0  0  0  0
 18 17  1  0  0  0  0
  2  1  1  0  0  0  0
M  END
>  <IDNUMBER>
F2756-0977

>  <Chemical_Name>
4-(2,5-dioxopyrrolidin-1-yl)-N-(6-methoxy-1,3-benzothiazol-2-yl)-N-[2-(morpholin-4-yl)ethyl]benzamide hydrochloride

>  <PriceCoeff>
1.00

>  <CAS>
1329927-50-5

>  <MW>
494.56

>  <Description>
solid

>  <FSP3>
0.36

>  <clogP>
1.40

>  <TPSA>
120.52

>  <Acceptor>
6

>  <Donor>
1

>  <RotBonds>
8

>  <HAC>
35

>  <Collection>
General

>  <PPDS>
+

$$$$
F2756-1735
  Mrv2219 10102508112D          

 36 39  0  0  0  0            999 V2000
   -3.1648    5.0396    0.0000 C   0  0  0  0  0  0  0  0  0  0  0  0
   -3.8329    5.5281    0.0000 N   0  0  0  0  0  0  0  0  0  0  0  0
   -3.1648    4.2129    0.0000 N   0  0  0  0  0  0  0  0  0  0  0  0
   -2.5010    5.5281    0.0000 S   0  0  0  0  0  0  0  0  0  0  0  0
   -5.3068    1.3486    0.0000 N   0  0  0  0  0  0  0  0  0  0  0  0
   -3.8788    3.8079    0.0000 C   0  0  0  0  0  0  0  0  0  0  0  0
   -3.5824    6.3131    0.0000 C   0  0  0  0  0  0  0  0  0  0  0  0
   -2.7557    6.3131    0.0000 C   0  0  0  0  0  0  0  0  0  0  0  0
   -4.5928    1.7619    0.0000 C   0  0  0  0  0  0  0  0  0  0  0  0
   -6.0292    1.7160    0.0000 C   0  0  0  0  0  0  0  0  0  0  0  0
   -5.4195    0.5344    0.0000 C   0  0  0  0  0  0  0  0  0  0  0  0
   -3.8788    2.9895    0.0000 C   0  0  0  0  0  0  0  0  0  0  0  0
   -4.5928    2.5887    0.0000 C   0  0  0  0  0  0  0  0  0  0  0  0
   -2.4509    3.8079    0.0000 C   0  0  0  0  0  0  0  0  0  0  0  0
   -1.7369    2.5636    0.0000 N   0  0  0  0  0  0  0  0  0  0  0  0
   -3.9916    7.0270    0.0000 C   0  0  0  0  0  0  0  0  0  0  0  0
   -2.3423    7.0270    0.0000 C   0  0  0  0  0  0  0  0  0  0  0  0
   -4.5928    4.2129    0.0000 O   0  0  0  0  0  0  0  0  0  0  0  0
   -6.6054    1.1148    0.0000 C   0  0  0  0  0  0  0  0  0  0  0  0
   -6.2254    0.3841    0.0000 C   0  0  0  0  0  0  0  0  0  0  0  0
   -6.1670    2.5302    0.0000 O   0  0  0  0  0  0  0  0  0  0  0  0
   -4.8433   -0.0418    0.0000 O   0  0  0  0  0  0  0  0  0  0  0  0
   -2.4509    2.9770    0.0000 C   0  0  0  0  0  0  0  0  0  0  0  0
   -3.5782    7.7327    0.0000 C   0  0  0  0  0  0  0  0  0  0  0  0
   -2.7557    7.7452    0.0000 C   0  0  0  0  0  0  0  0  0  0  0  0
   -0.3089    1.7369    0.0000 O   0  0  0  0  0  0  0  0  0  0  0  0
   -3.8788    1.3403    0.0000 C   0  0  0  0  0  0  0  0  0  0  0  0
   -3.1565    2.5761    0.0000 C   0  0  0  0  0  0  0  0  0  0  0  0
   -1.7369    1.7411    0.0000 C   0  0  0  0  0  0  0  0  0  0  0  0
   -1.0229    2.9895    0.0000 C   0  0  0  0  0  0  0  0  0  0  0  0
   -3.1648    1.7536    0.0000 C   0  0  0  0  0  0  0  0  0  0  0  0
   -1.0229    1.3277    0.0000 C   0  0  0  0  0  0  0  0  0  0  0  0
   -0.3089    2.5678    0.0000 C   0  0  0  0  0  0  0  0  0  0  0  0
   -1.5114    7.0187    0.0000 C   0  0  0  0  0  0  0  0  0  0  0  0
   -4.8308    7.0312    0.0000 C   0  0  0  0  0  0  0  0  0  0  0  0
    1.2109    3.7953    0.0000 Cl  0  0  0  0  0  0  0  0  0  0  0  0
  3  1  1  0  0  0  0
  4  1  1  0  0  0  0
  5  9  1  0  0  0  0
  6  3  1  0  0  0  0
  7  2  1  0  0  0  0
  8  4  1  0  0  0  0
  9 13  1  0  0  0  0
 10  5  1  0  0  0  0
 11  5  1  0  0  0  0
 12  6  1  0  0  0  0
 13 12  2  0  0  0  0
 14  3  1  0  0  0  0
 15 23  1  0  0  0  0
 16  7  1  0  0  0  0
 17  8  1  0  0  0  0
 18  6  2  0  0  0  0
 19 10  1  0  0  0  0
 20 11  1  0  0  0  0
 21 10  2  0  0  0  0
 22 11  2  0  0  0  0
 23 14  1  0  0  0  0
 24 16  2  0  0  0  0
 25 17  2  0  0  0  0
 26 33  1  0  0  0  0
 27 31  1  0  0  0  0
 28 12  1  0  0  0  0
 29 15  1  0  0  0  0
 30 15  1  0  0  0  0
 31 28  2  0  0  0  0
 32 29  1  0  0  0  0
 33 30  1  0  0  0  0
 34 17  1  0  0  0  0
 35 16  1  0  0  0  0
  8  7  2  0  0  0  0
 24 25  1  0  0  0  0
 26 32  1  0  0  0  0
  9 27  2  0  0  0  0
 20 19  1  0  0  0  0
  2  1  2  0  0  0  0
M  END
>  <IDNUMBER>
F2756-1735

>  <Chemical_Name>
N-(4,7-dimethyl-1,3-benzothiazol-2-yl)-3-(2,5-dioxopyrrolidin-1-yl)-N-[2-(morpholin-4-yl)ethyl]benzamide hydrochloride

>  <PriceCoeff>
1.00

>  <CAS>
1330397-25-5

>  <MW>
492.59

>  <Description>
solid

>  <FSP3>
0.38

>  <clogP>
2.10

>  <TPSA>
111.29

>  <Acceptor>
5

>  <Donor>
1

>  <RotBonds>
7

>  <HAC>
35

>  <Collection>
General

>  <PPDS>
+

$$$$
F2756-2235
  Mrv2219 10102508112D          

 36 39  0  0  0  0            999 V2000
   -3.1602    5.0323    0.0000 C   0  0  0  0  0  0  0  0  0  0  0  0
   -3.1602    4.2068    0.0000 N   0  0  0  0  0  0  0  0  0  0  0  0
   -3.8274    5.5201    0.0000 N   0  0  0  0  0  0  0  0  0  0  0  0
   -3.8857    0.5128    0.0000 N   0  0  0  0  0  0  0  0  0  0  0  0
   -2.4973    5.5201    0.0000 S   0  0  0  0  0  0  0  0  0  0  0  0
   -3.8732    3.8023    0.0000 C   0  0  0  0  0  0  0  0  0  0  0  0
   -3.5772    6.3039    0.0000 C   0  0  0  0  0  0  0  0  0  0  0  0
   -2.7517    6.3039    0.0000 C   0  0  0  0  0  0  0  0  0  0  0  0
   -4.5111    0.0083    0.0000 C   0  0  0  0  0  0  0  0  0  0  0  0
   -3.1978    0.0583    0.0000 C   0  0  0  0  0  0  0  0  0  0  0  0
   -2.4473    3.8023    0.0000 C   0  0  0  0  0  0  0  0  0  0  0  0
   -3.8774    1.3383    0.0000 C   0  0  0  0  0  0  0  0  0  0  0  0
   -3.9857    7.0168    0.0000 C   0  0  0  0  0  0  0  0  0  0  0  0
   -2.3389    7.0168    0.0000 C   0  0  0  0  0  0  0  0  0  0  0  0
   -3.8732    2.9851    0.0000 C   0  0  0  0  0  0  0  0  0  0  0  0
   -3.5730    7.7214    0.0000 C   0  0  0  0  0  0  0  0  0  0  0  0
   -2.7517    7.7340    0.0000 C   0  0  0  0  0  0  0  0  0  0  0  0
   -1.7344    2.5599    0.0000 N   0  0  0  0  0  0  0  0  0  0  0  0
   -4.5861    4.2068    0.0000 O   0  0  0  0  0  0  0  0  0  0  0  0
   -4.2359   -0.7630    0.0000 C   0  0  0  0  0  0  0  0  0  0  0  0
   -3.4229   -0.7380    0.0000 C   0  0  0  0  0  0  0  0  0  0  0  0
   -5.3116    0.2334    0.0000 O   0  0  0  0  0  0  0  0  0  0  0  0
   -2.4098    0.3377    0.0000 O   0  0  0  0  0  0  0  0  0  0  0  0
   -3.1519    1.7469    0.0000 C   0  0  0  0  0  0  0  0  0  0  0  0
   -4.5861    1.7511    0.0000 C   0  0  0  0  0  0  0  0  0  0  0  0
   -2.4473    2.9726    0.0000 C   0  0  0  0  0  0  0  0  0  0  0  0
   -4.5736    2.5849    0.0000 C   0  0  0  0  0  0  0  0  0  0  0  0
   -3.1477    2.5724    0.0000 C   0  0  0  0  0  0  0  0  0  0  0  0
   -0.3085    1.7344    0.0000 O   0  0  0  0  0  0  0  0  0  0  0  0
   -1.0214    2.9851    0.0000 C   0  0  0  0  0  0  0  0  0  0  0  0
   -1.7344    1.7386    0.0000 C   0  0  0  0  0  0  0  0  0  0  0  0
   -2.3472    8.4594    0.0000 C   0  0  0  0  0  0  0  0  0  0  0  0
   -3.9983    8.4344    0.0000 C   0  0  0  0  0  0  0  0  0  0  0  0
   -1.0214    1.3258    0.0000 C   0  0  0  0  0  0  0  0  0  0  0  0
   -0.3085    2.5641    0.0000 C   0  0  0  0  0  0  0  0  0  0  0  0
    1.2091    3.9441    0.0000 Cl  0  0  0  0  0  0  0  0  0  0  0  0
  3  1  2  0  0  0  0
  4 12  1  0  0  0  0
  5  1  1  0  0  0  0
  6  2  1  0  0  0  0
  7  3  1  0  0  0  0
  8  5  1  0  0  0  0
  9  4  1  0  0  0  0
 10  4  1  0  0  0  0
 11  2  1  0  0  0  0
 12 24  1  0  0  0  0
 13  7  1  0  0  0  0
 14  8  1  0  0  0  0
 15  6  1  0  0  0  0
 16 13  2  0  0  0  0
 17 14  2  0  0  0  0
 18 26  1  0  0  0  0
 19  6  2  0  0  0  0
 20  9  1  0  0  0  0
 21 10  1  0  0  0  0
 22  9  2  0  0  0  0
 23 10  2  0  0  0  0
 24 28  2  0  0  0  0
 25 27  1  0  0  0  0
 26 11  1  0  0  0  0
 27 15  2  0  0  0  0
 28 15  1  0  0  0  0
 29 34  1  0  0  0  0
 30 18  1  0  0  0  0
 31 18  1  0  0  0  0
 32 17  1  0  0  0  0
 33 16  1  0  0  0  0
 34 31  1  0  0  0  0
 35 30  1  0  0  0  0
  8  7  2  0  0  0  0
 16 17  1  0  0  0  0
 12 25  2  0  0  0  0
 29 35  1  0  0  0  0
 21 20  1  0  0  0  0
  2  1  1  0  0  0  0
M  END
>  <IDNUMBER>
F2756-2235

>  <Chemical_Name>
N-(5,6-dimethyl-1,3-benzothiazol-2-yl)-4-(2,5-dioxopyrrolidin-1-yl)-N-[2-(morpholin-4-yl)ethyl]benzamide hydrochloride

>  <PriceCoeff>
1.00

>  <CAS>
1329985-36-5

>  <MW>
492.59

>  <Description>
solid

>  <FSP3>
0.38

>  <clogP>
2.05

>  <TPSA>
111.29

>  <Acceptor>
5

>  <Donor>
1

>  <RotBonds>
7

>  <HAC>
35

>  <Collection>
General

>  <PPDS>
+

$$$$
F2758-0250
  Mrv2219 10102508112D          

 29 32  0  0  0  0            999 V2000
   -1.0229    3.8162    0.0000 C   0  0  0  0  0  0  0  0  0  0  0  0
   -0.3089    5.0396    0.0000 C   0  0  0  0  0  0  0  0  0  0  0  0
    0.4050    4.6388    0.0000 C   0  0  0  0  0  0  0  0  0  0  0  0
   -1.0229    4.6263    0.0000 C   0  0  0  0  0  0  0  0  0  0  0  0
    0.4176    3.8079    0.0000 N   0  0  0  0  0  0  0  0  0  0  0  0
   -0.3089    3.4028    0.0000 C   0  0  0  0  0  0  0  0  0  0  0  0
   -1.7286    0.9102    0.0000 N   0  0  0  0  0  0  0  0  0  0  0  0
   -1.7286    0.0835    0.0000 N   0  0  0  0  0  0  0  0  0  0  0  0
   -1.7369    3.4028    0.0000 C   0  0  0  0  0  0  0  0  0  0  0  0
    1.1399    5.0521    0.0000 N   0  0  0  0  0  0  0  0  0  0  0  0
   -2.4509   -0.3299    0.0000 C   0  0  0  0  0  0  0  0  0  0  0  0
   -2.4509    1.3235    0.0000 C   0  0  0  0  0  0  0  0  0  0  0  0
   -3.1648    0.0835    0.0000 C   0  0  0  0  0  0  0  0  0  0  0  0
   -3.1648    0.9102    0.0000 C   0  0  0  0  0  0  0  0  0  0  0  0
   -0.3006    5.8789    0.0000 C   0  0  0  0  0  0  0  0  0  0  0  0
   -1.7369    2.5636    0.0000 N   0  0  0  0  0  0  0  0  0  0  0  0
   -1.7369    5.0396    0.0000 O   0  0  0  0  0  0  0  0  0  0  0  0
   -2.4509    2.1502    0.0000 C   0  0  0  0  0  0  0  0  0  0  0  0
   -2.4509   -1.1566    0.0000 O   0  0  0  0  0  0  0  0  0  0  0  0
   -2.4509    3.8079    0.0000 O   0  0  0  0  0  0  0  0  0  0  0  0
    1.1273    5.8872    0.0000 C   0  0  0  0  0  0  0  0  0  0  0  0
    0.4134    6.2922    0.0000 C   0  0  0  0  0  0  0  0  0  0  0  0
    1.1315    3.4028    0.0000 C   0  0  0  0  0  0  0  0  0  0  0  0
   -3.8788   -0.3299    0.0000 C   0  0  0  0  0  0  0  0  0  0  0  0
   -3.8788    1.3235    0.0000 C   0  0  0  0  0  0  0  0  0  0  0  0
    1.8664    6.2922    0.0000 C   0  0  0  0  0  0  0  0  0  0  0  0
    1.1315    2.5761    0.0000 C   0  0  0  0  0  0  0  0  0  0  0  0
   -4.5928    0.9102    0.0000 C   0  0  0  0  0  0  0  0  0  0  0  0
   -4.5928    0.0835    0.0000 C   0  0  0  0  0  0  0  0  0  0  0  0
  2  4  1  0  0  0  0
  3  5  1  0  0  0  0
  4  1  1  0  0  0  0
  5  6  1  0  0  0  0
  6  1  2  0  0  0  0
  7 12  2  0  0  0  0
  8  7  1  0  0  0  0
  9  1  1  0  0  0  0
 10  3  2  0  0  0  0
 11 13  1  0  0  0  0
 12 18  1  0  0  0  0
 13 14  2  0  0  0  0
 14 12  1  0  0  0  0
 15  2  2  0  0  0  0
 16  9  1  0  0  0  0
 17  4  2  0  0  0  0
 18 16  1  0  0  0  0
 19 11  2  0  0  0  0
 20  9  2  0  0  0  0
 21 10  1  0  0  0  0
 22 15  1  0  0  0  0
 23  5  1  0  0  0  0
 24 13  1  0  0  0  0
 25 14  1  0  0  0  0
 26 21  1  0  0  0  0
 27 23  1  0  0  0  0
 28 25  2  0  0  0  0
 29 28  1  0  0  0  0
  3  2  1  0  0  0  0
 21 22  2  0  0  0  0
  8 11  1  0  0  0  0
 24 29  2  0  0  0  0
M  END
>  <IDNUMBER>
F2758-0250

>  <Chemical_Name>
1-ethyl-7-methyl-4-oxo-N-[(4-oxo-3,4-dihydrophthalazin-1-yl)methyl]-1,4-dihydro-1,8-naphthyridine-3-carboxamide

>  <PriceCoeff>
1.00

>  <CAS>
1226449-80-4

>  <MW>
389.41

>  <Description>
solid

>  <FSP3>
0.19

>  <clogP>
-0.09

>  <TPSA>
103.76

>  <Acceptor>
5

>  <Donor>
5

>  <RotBonds>
4

>  <HAC>
29

>  <Collection>
General

>  <PPDS>
+

$$$$
F2763-0082
  Mrv2219 10102508112D          

 24 26  0  0  0  0            999 V2000
    0.8963    6.3149    0.0000 N   0  3  0  0  0  0  0  0  0  0  0  0
    0.1372    6.6578    0.0000 C   0  0  0  0  0  0  0  0  0  0  0  0
   -0.5304    6.1640    0.0000 C   0  0  0  0  0  0  0  0  0  0  0  0
   -1.9433    6.0131    0.0000 C   0  0  0  0  0  0  0  0  0  0  0  0
   -5.1259    7.0785    0.0000 C   0  0  0  0  0  0  0  0  0  0  0  0
   -1.2849    6.4932    0.0000 C   0  0  0  0  0  0  0  0  0  0  0  0
   -4.3028    6.9962    0.0000 O   0  0  0  0  0  0  0  0  0  0  0  0
   -5.4552    6.3240    0.0000 O   0  0  0  0  0  0  0  0  0  0  0  0
    0.0458    7.4809    0.0000 C   0  0  0  0  0  0  0  0  0  0  0  0
   -2.7024    6.3423    0.0000 N   0  0  0  0  0  0  0  0  0  0  0  0
    1.5639    6.8041    0.0000 O   0  5  0  0  0  0  0  0  0  0  0  0
    0.9786    5.4918    0.0000 O   0  0  0  0  0  0  0  0  0  0  0  0
   -4.1291    6.1914    0.0000 C   0  0  0  0  0  0  0  0  0  0  0  0
   -1.8610    5.1900    0.0000 O   0  0  0  0  0  0  0  0  0  0  0  0
   -1.3809    7.3254    0.0000 C   0  0  0  0  0  0  0  0  0  0  0  0
   -0.7133    7.8101    0.0000 C   0  0  0  0  0  0  0  0  0  0  0  0
   -4.8378    5.7753    0.0000 C   0  0  0  0  0  0  0  0  0  0  0  0
   -3.3700    5.8576    0.0000 C   0  0  0  0  0  0  0  0  0  0  0  0
    0.7133    7.9885    0.0000 Cl  0  0  0  0  0  0  0  0  0  0  0  0
   -5.9353    7.2019    0.0000 C   0  0  0  0  0  0  0  0  0  0  0  0
   -4.6184    7.7141    0.0000 C   0  0  0  0  0  0  0  0  0  0  0  0
   -6.2371    7.9610    0.0000 C   0  0  0  0  0  0  0  0  0  0  0  0
   -4.9110    8.4823    0.0000 C   0  0  0  0  0  0  0  0  0  0  0  0
   -5.7295    8.6058    0.0000 C   0  0  0  0  0  0  0  0  0  0  0  0
  2  1  1  0  0  0  0
  3  2  1  0  0  0  0
  4  6  1  0  0  0  0
  5  7  1  0  0  0  0
  6  3  2  0  0  0  0
  7 13  1  0  0  0  0
  8 17  1  0  0  0  0
  9  2  2  0  0  0  0
 10  4  1  0  0  0  0
 11  1  1  0  0  0  0
 12  1  2  0  0  0  0
 13 18  1  0  0  0  0
 14  4  2  0  0  0  0
 15 16  2  0  0  0  0
 16  9  1  0  0  0  0
 17 13  1  0  0  0  0
 18 10  1  0  0  0  0
 19  9  1  0  0  0  0
 20  5  1  0  0  0  0
 21  5  1  0  0  0  0
 22 20  1  0  0  0  0
 23 21  1  0  0  0  0
 24 23  1  0  0  0  0
  6 15  1  0  0  0  0
  8  5  1  0  0  0  0
 24 22  1  0  0  0  0
M  CHG  2   1   1  11  -1
M  END
>  <IDNUMBER>
F2763-0082

>  <Chemical_Name>
4-chloro-N-({1,4-dioxaspiro[4.5]decan-2-yl}methyl)-3-nitrobenzamide

>  <PriceCoeff>
1.00

>  <CAS>
900006-53-3

>  <MW>
354.79

>  <Description>
solid

>  <FSP3>
0.56

>  <clogP>
3.68

>  <TPSA>
90.70

>  <Acceptor>
5

>  <Donor>
1

>  <RotBonds>
4

>  <HAC>
24

>  <Collection>
General

>  <PPDS>
+

$$$$
F2763-0086
  Mrv2219 10102508112D          

 24 26  0  0  0  0            999 V2000
    0.7133    7.9885    0.0000 N   0  3  0  0  0  0  0  0  0  0  0  0
   -1.2849    6.4932    0.0000 C   0  0  0  0  0  0  0  0  0  0  0  0
   -1.9433    6.0131    0.0000 C   0  0  0  0  0  0  0  0  0  0  0  0
   -1.3809    7.3254    0.0000 C   0  0  0  0  0  0  0  0  0  0  0  0
    0.0458    7.4809    0.0000 C   0  0  0  0  0  0  0  0  0  0  0  0
   -0.7133    7.8101    0.0000 C   0  0  0  0  0  0  0  0  0  0  0  0
   -5.1259    7.0785    0.0000 C   0  0  0  0  0  0  0  0  0  0  0  0
   -4.3028    6.9962    0.0000 O   0  0  0  0  0  0  0  0  0  0  0  0
   -0.5304    6.1640    0.0000 C   0  0  0  0  0  0  0  0  0  0  0  0
   -5.4552    6.3240    0.0000 O   0  0  0  0  0  0  0  0  0  0  0  0
   -2.7024    6.3423    0.0000 N   0  0  0  0  0  0  0  0  0  0  0  0
    1.4724    7.6593    0.0000 O   0  5  0  0  0  0  0  0  0  0  0  0
    0.6082    8.7978    0.0000 O   0  0  0  0  0  0  0  0  0  0  0  0
    0.1372    6.6578    0.0000 C   0  0  0  0  0  0  0  0  0  0  0  0
   -4.1291    6.1914    0.0000 C   0  0  0  0  0  0  0  0  0  0  0  0
   -1.8610    5.1900    0.0000 O   0  0  0  0  0  0  0  0  0  0  0  0
   -2.1354    7.6593    0.0000 Cl  0  0  0  0  0  0  0  0  0  0  0  0
   -4.8378    5.7753    0.0000 C   0  0  0  0  0  0  0  0  0  0  0  0
   -3.3700    5.8576    0.0000 C   0  0  0  0  0  0  0  0  0  0  0  0
   -5.9353    7.2019    0.0000 C   0  0  0  0  0  0  0  0  0  0  0  0
   -4.6184    7.7141    0.0000 C   0  0  0  0  0  0  0  0  0  0  0  0
   -6.2371    7.9610    0.0000 C   0  0  0  0  0  0  0  0  0  0  0  0
   -4.9110    8.4823    0.0000 C   0  0  0  0  0  0  0  0  0  0  0  0
   -5.7295    8.6058    0.0000 C   0  0  0  0  0  0  0  0  0  0  0  0
  2  9  2  0  0  0  0
  3  2  1  0  0  0  0
  4  6  2  0  0  0  0
  5  1  1  0  0  0  0
  6  5  1  0  0  0  0
  7  8  1  0  0  0  0
  8 15  1  0  0  0  0
  9 14  1  0  0  0  0
 10 18  1  0  0  0  0
 11  3  1  0  0  0  0
 12  1  1  0  0  0  0
 13  1  2  0  0  0  0
 14  5  2  0  0  0  0
 15 19  1  0  0  0  0
 16  3  2  0  0  0  0
 17  4  1  0  0  0  0
 18 15  1  0  0  0  0
 19 11  1  0  0  0  0
 20  7  1  0  0  0  0
 21  7  1  0  0  0  0
 22 20  1  0  0  0  0
 23 21  1  0  0  0  0
 24 23  1  0  0  0  0
  4  2  1  0  0  0  0
 10  7  1  0  0  0  0
 24 22  1  0  0  0  0
M  CHG  2   1   1  12  -1
M  END
>  <IDNUMBER>
F2763-0086

>  <Chemical_Name>
2-chloro-N-({1,4-dioxaspiro[4.5]decan-2-yl}methyl)-4-nitrobenzamide

>  <PriceCoeff>
1.00

>  <CAS>
899957-72-3

>  <MW>
354.79

>  <Description>
solid

>  <FSP3>
0.56

>  <clogP>
3.00

>  <TPSA>
90.70

>  <Acceptor>
5

>  <Donor>
1

>  <RotBonds>
4

>  <HAC>
24

>  <Collection>
General

>  <PPDS>
+

$$$$
F2764-0083
  Mrv2219 10102508112D          

 23 25  0  0  0  0            999 V2000
    0.7883    5.6413    0.0000 N   0  3  0  0  0  0  0  0  0  0  0  0
    0.0687    6.0538    0.0000 C   0  0  0  0  0  0  0  0  0  0  0  0
   -0.6462    5.6413    0.0000 C   0  0  0  0  0  0  0  0  0  0  0  0
   -2.0622    5.6413    0.0000 C   0  0  0  0  0  0  0  0  0  0  0  0
   -5.1234    7.0803    0.0000 C   0  0  0  0  0  0  0  0  0  0  0  0
   -1.3564    6.0538    0.0000 C   0  0  0  0  0  0  0  0  0  0  0  0
   -4.3123    6.9062    0.0000 O   0  0  0  0  0  0  0  0  0  0  0  0
   -5.5359    6.3700    0.0000 O   0  0  0  0  0  0  0  0  0  0  0  0
    0.0687    6.8787    0.0000 C   0  0  0  0  0  0  0  0  0  0  0  0
   -2.7862    6.0675    0.0000 N   0  0  0  0  0  0  0  0  0  0  0  0
    1.4985    6.0538    0.0000 O   0  5  0  0  0  0  0  0  0  0  0  0
    0.7883    4.8165    0.0000 O   0  0  0  0  0  0  0  0  0  0  0  0
   -4.2298    6.0813    0.0000 C   0  0  0  0  0  0  0  0  0  0  0  0
   -2.0713    4.8165    0.0000 O   0  0  0  0  0  0  0  0  0  0  0  0
   -1.3564    6.8787    0.0000 C   0  0  0  0  0  0  0  0  0  0  0  0
   -0.6462    7.2911    0.0000 C   0  0  0  0  0  0  0  0  0  0  0  0
   -4.9859    5.7513    0.0000 C   0  0  0  0  0  0  0  0  0  0  0  0
   -3.5058    5.6551    0.0000 C   0  0  0  0  0  0  0  0  0  0  0  0
    0.7883    7.3002    0.0000 Cl  0  0  0  0  0  0  0  0  0  0  0  0
   -4.7110    7.7998    0.0000 C   0  0  0  0  0  0  0  0  0  0  0  0
   -5.9346    7.2499    0.0000 C   0  0  0  0  0  0  0  0  0  0  0  0
   -6.0170    8.0747    0.0000 C   0  0  0  0  0  0  0  0  0  0  0  0
   -5.2655    8.4047    0.0000 C   0  0  0  0  0  0  0  0  0  0  0  0
  2  1  1  0  0  0  0
  3  2  1  0  0  0  0
  4  6  1  0  0  0  0
  5  7  1  0  0  0  0
  6  3  2  0  0  0  0
  7 13  1  0  0  0  0
  8 17  1  0  0  0  0
  9  2  2  0  0  0  0
 10  4  1  0  0  0  0
 11  1  1  0  0  0  0
 12  1  2  0  0  0  0
 13 18  1  0  0  0  0
 14  4  2  0  0  0  0
 15 16  2  0  0  0  0
 16  9  1  0  0  0  0
 17 13  1  0  0  0  0
 18 10  1  0  0  0  0
 19  9  1  0  0  0  0
 20  5  1  0  0  0  0
 21  5  1  0  0  0  0
 22 21  1  0  0  0  0
 23 20  1  0  0  0  0
  6 15  1  0  0  0  0
  8  5  1  0  0  0  0
 23 22  1  0  0  0  0
M  CHG  2   1   1  11  -1
M  END
>  <IDNUMBER>
F2764-0083

>  <Chemical_Name>
4-chloro-N-({1,4-dioxaspiro[4.4]nonan-2-yl}methyl)-3-nitrobenzamide

>  <PriceCoeff>
1.00

>  <CAS>
899962-85-7

>  <MW>
340.76

>  <Description>
solid

>  <FSP3>
0.53

>  <clogP>
2.86

>  <TPSA>
90.70

>  <Acceptor>
5

>  <Donor>
1

>  <RotBonds>
4

>  <HAC>
23

>  <Collection>
General

>  <PPDS>
+

$$$$
F2764-0087
  Mrv2219 10102508112D          

 23 25  0  0  0  0            999 V2000
    0.7883    7.3002    0.0000 N   0  3  0  0  0  0  0  0  0  0  0  0
   -1.3564    6.0538    0.0000 C   0  0  0  0  0  0  0  0  0  0  0  0
   -2.0622    5.6413    0.0000 C   0  0  0  0  0  0  0  0  0  0  0  0
   -1.3564    6.8787    0.0000 C   0  0  0  0  0  0  0  0  0  0  0  0
    0.0687    6.8787    0.0000 C   0  0  0  0  0  0  0  0  0  0  0  0
   -0.6462    7.2911    0.0000 C   0  0  0  0  0  0  0  0  0  0  0  0
   -5.1234    7.0803    0.0000 C   0  0  0  0  0  0  0  0  0  0  0  0
   -4.3123    6.9062    0.0000 O   0  0  0  0  0  0  0  0  0  0  0  0
   -0.6462    5.6413    0.0000 C   0  0  0  0  0  0  0  0  0  0  0  0
   -5.5359    6.3700    0.0000 O   0  0  0  0  0  0  0  0  0  0  0  0
   -2.7862    6.0675    0.0000 N   0  0  0  0  0  0  0  0  0  0  0  0
    1.5032    6.8878    0.0000 O   0  5  0  0  0  0  0  0  0  0  0  0
    0.7883    8.1251    0.0000 O   0  0  0  0  0  0  0  0  0  0  0  0
    0.0687    6.0538    0.0000 C   0  0  0  0  0  0  0  0  0  0  0  0
   -4.2298    6.0813    0.0000 C   0  0  0  0  0  0  0  0  0  0  0  0
   -2.0713    4.8165    0.0000 O   0  0  0  0  0  0  0  0  0  0  0  0
   -2.0760    7.3049    0.0000 Cl  0  0  0  0  0  0  0  0  0  0  0  0
   -4.9859    5.7513    0.0000 C   0  0  0  0  0  0  0  0  0  0  0  0
   -3.5058    5.6551    0.0000 C   0  0  0  0  0  0  0  0  0  0  0  0
   -4.7110    7.7998    0.0000 C   0  0  0  0  0  0  0  0  0  0  0  0
   -5.9346    7.2499    0.0000 C   0  0  0  0  0  0  0  0  0  0  0  0
   -6.0170    8.0747    0.0000 C   0  0  0  0  0  0  0  0  0  0  0  0
   -5.2655    8.4047    0.0000 C   0  0  0  0  0  0  0  0  0  0  0  0
  2  9  2  0  0  0  0
  3  2  1  0  0  0  0
  4  6  2  0  0  0  0
  5  1  1  0  0  0  0
  6  5  1  0  0  0  0
  7  8  1  0  0  0  0
  8 15  1  0  0  0  0
  9 14  1  0  0  0  0
 10 18  1  0  0  0  0
 11  3  1  0  0  0  0
 12  1  1  0  0  0  0
 13  1  2  0  0  0  0
 14  5  2  0  0  0  0
 15 19  1  0  0  0  0
 16  3  2  0  0  0  0
 17  4  1  0  0  0  0
 18 15  1  0  0  0  0
 19 11  1  0  0  0  0
 20  7  1  0  0  0  0
 21  7  1  0  0  0  0
 22 21  1  0  0  0  0
 23 20  1  0  0  0  0
  4  2  1  0  0  0  0
 10  7  1  0  0  0  0
 23 22  1  0  0  0  0
M  CHG  2   1   1  12  -1
M  END
>  <IDNUMBER>
F2764-0087

>  <Chemical_Name>
2-chloro-N-({1,4-dioxaspiro[4.4]nonan-2-yl}methyl)-4-nitrobenzamide

>  <PriceCoeff>
1.00

>  <CAS>
899733-77-8

>  <MW>
340.76

>  <Description>
solid

>  <FSP3>
0.53

>  <clogP>
2.18

>  <TPSA>
90.70

>  <Acceptor>
5

>  <Donor>
1

>  <RotBonds>
4

>  <HAC>
23

>  <Collection>
General

>  <PPDS>
+

$$$$
F2767-0093
  Mrv2219 10102508112D          

 24 26  0  0  0  0            999 V2000
    0.7933    4.0834    0.0000 N   0  0  0  0  0  0  0  0  0  0  0  0
   -1.5615    3.3277    0.0000 C   0  0  0  0  0  0  0  0  0  0  0  0
   -1.8163    2.5386    0.0000 O   0  0  0  0  0  0  0  0  0  0  0  0
   -2.6430    2.5386    0.0000 C   0  0  0  0  0  0  0  0  0  0  0  0
   -2.9018    3.3277    0.0000 N   0  0  0  0  0  0  0  0  0  0  0  0
   -2.2296    3.8079    0.0000 N   0  0  0  0  0  0  0  0  0  0  0  0
   -0.7724    3.5782    0.0000 N   0  0  0  0  0  0  0  0  0  0  0  0
    1.5532    4.4008    0.0000 C   0  0  0  0  0  0  0  0  0  0  0  0
    0.2422    4.6889    0.0000 C   0  0  0  0  0  0  0  0  0  0  0  0
   -0.1628    3.0271    0.0000 C   0  0  0  0  0  0  0  0  0  0  0  0
   -3.1315    1.8747    0.0000 C   0  0  0  0  0  0  0  0  0  0  0  0
    0.6180    3.2776    0.0000 C   0  0  0  0  0  0  0  0  0  0  0  0
   -2.8016    1.1231    0.0000 C   0  0  0  0  0  0  0  0  0  0  0  0
   -3.2776    0.4509    0.0000 C   0  0  0  0  0  0  0  0  0  0  0  0
    0.6556    5.4029    0.0000 C   0  0  0  0  0  0  0  0  0  0  0  0
    1.4697    5.2275    0.0000 C   0  0  0  0  0  0  0  0  0  0  0  0
   -0.5720    4.6137    0.0000 O   0  0  0  0  0  0  0  0  0  0  0  0
    2.2589    3.9958    0.0000 O   0  0  0  0  0  0  0  0  0  0  0  0
   -4.1043    0.5344    0.0000 C   0  0  0  0  0  0  0  0  0  0  0  0
   -0.3340    2.2129    0.0000 O   0  0  0  0  0  0  0  0  0  0  0  0
   -3.9540    1.9624    0.0000 C   0  0  0  0  0  0  0  0  0  0  0  0
   -4.4425    1.2985    0.0000 C   0  0  0  0  0  0  0  0  0  0  0  0
   -2.9394   -0.3048    0.0000 C   0  0  0  0  0  0  0  0  0  0  0  0
   -4.5928   -0.1295    0.0000 C   0  0  0  0  0  0  0  0  0  0  0  0
  2  7  1  0  0  0  0
  3  2  1  0  0  0  0
  4  3  1  0  0  0  0
  5  6  1  0  0  0  0
  6  2  2  0  0  0  0
  7 10  1  0  0  0  0
  8  1  1  0  0  0  0
  9  1  1  0  0  0  0
 10 12  1  0  0  0  0
 11  4  1  0  0  0  0
 12  1  1  0  0  0  0
 13 11  1  0  0  0  0
 14 13  2  0  0  0  0
 15  9  1  0  0  0  0
 16  8  1  0  0  0  0
 17  9  2  0  0  0  0
 18  8  2  0  0  0  0
 19 22  2  0  0  0  0
 20 10  2  0  0  0  0
 21 11  2  0  0  0  0
 22 21  1  0  0  0  0
 23 14  1  0  0  0  0
 24 19  1  0  0  0  0
 15 16  1  0  0  0  0
  5  4  2  0  0  0  0
 14 19  1  0  0  0  0
M  END
>  <IDNUMBER>
F2767-0093

>  <Chemical_Name>
N-[5-(3,4-dimethylphenyl)-1,3,4-oxadiazol-2-yl]-2-(2,5-dioxopyrrolidin-1-yl)acetamide

>  <PriceCoeff>
1.00

>  <CAS>
922873-96-9

>  <MW>
328.32

>  <Description>
solid

>  <FSP3>
0.31

>  <clogP>
1.35

>  <TPSA>
105.40

>  <Acceptor>
6

>  <Donor>
1

>  <RotBonds>
4

>  <HAC>
24

>  <Collection>
General

>  <PPDS>
+

$$$$
F2769-0037
  Mrv2219 10102508112D          

 23 25  0  0  0  0            999 V2000
   -3.0227    7.4884    0.0000 N   0  0  0  0  0  0  0  0  0  0  0  0
   -3.0310    6.6591    0.0000 C   0  0  0  0  0  0  0  0  0  0  0  0
   -3.7400    3.7815    0.0000 C   0  0  0  0  0  0  0  0  0  0  0  0
   -3.7400    7.9031    0.0000 C   0  0  0  0  0  0  0  0  0  0  0  0
   -2.3137    6.2445    0.0000 C   0  0  0  0  0  0  0  0  0  0  0  0
   -3.0310    4.1920    0.0000 N   0  0  0  0  0  0  0  0  0  0  0  0
   -3.7442    2.9688    0.0000 C   0  0  0  0  0  0  0  0  0  0  0  0
   -3.7442    6.2486    0.0000 C   0  0  0  0  0  0  0  0  0  0  0  0
   -3.0310    5.0047    0.0000 C   0  0  0  0  0  0  0  0  0  0  0  0
   -2.3137    5.4235    0.0000 C   0  0  0  0  0  0  0  0  0  0  0  0
   -4.4615    4.1837    0.0000 O   0  0  0  0  0  0  0  0  0  0  0  0
   -4.4615    7.4926    0.0000 O   0  0  0  0  0  0  0  0  0  0  0  0
   -4.4615    2.5583    0.0000 C   0  0  0  0  0  0  0  0  0  0  0  0
   -3.7400    5.4277    0.0000 C   0  0  0  0  0  0  0  0  0  0  0  0
   -2.3012    7.8906    0.0000 C   0  0  0  0  0  0  0  0  0  0  0  0
   -4.4657    1.7290    0.0000 C   0  0  0  0  0  0  0  0  0  0  0  0
   -5.1830    1.3268    0.0000 Cl  0  0  0  0  0  0  0  0  0  0  0  0
   -1.6005    6.6550    0.0000 C   0  0  0  0  0  0  0  0  0  0  0  0
   -3.7276    8.7323    0.0000 C   0  0  0  0  0  0  0  0  0  0  0  0
   -3.0310    2.5459    0.0000 C   0  0  0  0  0  0  0  0  0  0  0  0
   -1.5922    7.4759    0.0000 C   0  0  0  0  0  0  0  0  0  0  0  0
   -3.0352    1.7166    0.0000 C   0  0  0  0  0  0  0  0  0  0  0  0
   -3.7525    1.3144    0.0000 C   0  0  0  0  0  0  0  0  0  0  0  0
  2  1  1  0  0  0  0
  3  6  1  0  0  0  0
  4  1  1  0  0  0  0
  5  2  2  0  0  0  0
  6  9  1  0  0  0  0
  7  3  1  0  0  0  0
  8  2  1  0  0  0  0
  9 14  1  0  0  0  0
 10  5  1  0  0  0  0
 11  3  2  0  0  0  0
 12  4  2  0  0  0  0
 13  7  2  0  0  0  0
 14  8  2  0  0  0  0
 15  1  1  0  0  0  0
 16 13  1  0  0  0  0
 17 16  1  0  0  0  0
 18 21  1  0  0  0  0
 19  4  1  0  0  0  0
 20  7  1  0  0  0  0
 21 15  1  0  0  0  0
 22 20  2  0  0  0  0
 23 22  1  0  0  0  0
  5 18  1  0  0  0  0
  9 10  2  0  0  0  0
 23 16  2  0  0  0  0
M  END
>  <IDNUMBER>
F2769-0037

>  <Chemical_Name>
N-(1-acetyl-1,2,3,4-tetrahydroquinolin-6-yl)-3-chlorobenzamide

>  <PriceCoeff>
1.00

>  <CAS>
941996-82-3

>  <MW>
328.79

>  <Description>
solid

>  <FSP3>
0.22

>  <clogP>
3.19

>  <TPSA>
49.41

>  <Acceptor>
2

>  <Donor>
1

>  <RotBonds>
3

>  <HAC>
23

>  <Collection>
General

>  <PPDS>
+

$$$$
F2769-0049
  Mrv2219 10102508112D          

 23 25  0  0  0  0            999 V2000
   -3.0304    7.5074    0.0000 N   0  0  0  0  0  0  0  0  0  0  0  0
   -3.0387    6.6761    0.0000 C   0  0  0  0  0  0  0  0  0  0  0  0
   -3.7495    3.7911    0.0000 C   0  0  0  0  0  0  0  0  0  0  0  0
   -3.7495    7.9232    0.0000 C   0  0  0  0  0  0  0  0  0  0  0  0
   -2.3196    6.2603    0.0000 C   0  0  0  0  0  0  0  0  0  0  0  0
   -3.0387    4.2027    0.0000 N   0  0  0  0  0  0  0  0  0  0  0  0
   -3.7537    6.2645    0.0000 C   0  0  0  0  0  0  0  0  0  0  0  0
   -3.7412    2.9556    0.0000 C   0  0  0  0  0  0  0  0  0  0  0  0
   -3.0387    5.0175    0.0000 C   0  0  0  0  0  0  0  0  0  0  0  0
   -2.3196    5.4373    0.0000 C   0  0  0  0  0  0  0  0  0  0  0  0
   -4.4604    4.1944    0.0000 O   0  0  0  0  0  0  0  0  0  0  0  0
   -4.4728    7.5116    0.0000 O   0  0  0  0  0  0  0  0  0  0  0  0
   -3.0137    2.5565    0.0000 C   0  0  0  0  0  0  0  0  0  0  0  0
   -4.4479    2.5523    0.0000 C   0  0  0  0  0  0  0  0  0  0  0  0
   -3.7495    5.4415    0.0000 C   0  0  0  0  0  0  0  0  0  0  0  0
   -2.3071    7.9107    0.0000 C   0  0  0  0  0  0  0  0  0  0  0  0
   -3.7412    1.3177    0.0000 C   0  0  0  0  0  0  0  0  0  0  0  0
   -4.4479    1.7334    0.0000 C   0  0  0  0  0  0  0  0  0  0  0  0
   -3.0137    1.7417    0.0000 C   0  0  0  0  0  0  0  0  0  0  0  0
   -3.7371    0.4822    0.0000 Cl  0  0  0  0  0  0  0  0  0  0  0  0
   -1.6045    6.6719    0.0000 C   0  0  0  0  0  0  0  0  0  0  0  0
   -3.7371    8.7545    0.0000 C   0  0  0  0  0  0  0  0  0  0  0  0
   -1.5963    7.4950    0.0000 C   0  0  0  0  0  0  0  0  0  0  0  0
  2  1  1  0  0  0  0
  3  6  1  0  0  0  0
  4  1  1  0  0  0  0
  5  2  2  0  0  0  0
  6  9  1  0  0  0  0
  7  2  1  0  0  0  0
  8  3  1  0  0  0  0
  9 15  1  0  0  0  0
 10  5  1  0  0  0  0
 11  3  2  0  0  0  0
 12  4  2  0  0  0  0
 13  8  1  0  0  0  0
 14  8  2  0  0  0  0
 15  7  2  0  0  0  0
 16  1  1  0  0  0  0
 17 18  2  0  0  0  0
 18 14  1  0  0  0  0
 19 13  2  0  0  0  0
 20 17  1  0  0  0  0
 21 23  1  0  0  0  0
 22  4  1  0  0  0  0
 23 16  1  0  0  0  0
  5 21  1  0  0  0  0
  9 10  2  0  0  0  0
 17 19  1  0  0  0  0
M  END
>  <IDNUMBER>
F2769-0049

>  <Chemical_Name>
N-(1-acetyl-1,2,3,4-tetrahydroquinolin-6-yl)-4-chlorobenzamide

>  <PriceCoeff>
1.00

>  <CAS>
941960-19-6

>  <MW>
328.79

>  <Description>
solid

>  <FSP3>
0.22

>  <clogP>
3.19

>  <TPSA>
49.41

>  <Acceptor>
2

>  <Donor>
1

>  <RotBonds>
3

>  <HAC>
23

>  <Collection>
General

>  <PPDS>
+

$$$$
F2769-0191
  Mrv2219 10102508112D          

 25 27  0  0  0  0            999 V2000
   -3.0208    7.5167    0.0000 N   0  0  0  0  0  0  0  0  0  0  0  0
   -3.7333    7.9417    0.0000 C   0  0  0  0  0  0  0  0  0  0  0  0
   -3.0333    6.6917    0.0000 C   0  0  0  0  0  0  0  0  0  0  0  0
   -3.7583    3.8000    0.0000 C   0  0  0  0  0  0  0  0  0  0  0  0
   -2.3208    6.2667    0.0000 C   0  0  0  0  0  0  0  0  0  0  0  0
   -3.0458    4.2125    0.0000 N   0  0  0  0  0  0  0  0  0  0  0  0
   -3.7458    6.2792    0.0000 C   0  0  0  0  0  0  0  0  0  0  0  0
   -3.7500    2.9625    0.0000 C   0  0  0  0  0  0  0  0  0  0  0  0
   -4.4458    7.5292    0.0000 O   0  0  0  0  0  0  0  0  0  0  0  0
   -3.0458    5.0292    0.0000 C   0  0  0  0  0  0  0  0  0  0  0  0
   -2.3208    5.4417    0.0000 C   0  0  0  0  0  0  0  0  0  0  0  0
   -4.4708    4.2042    0.0000 O   0  0  0  0  0  0  0  0  0  0  0  0
   -3.7208    8.7542    0.0000 C   0  0  0  0  0  0  0  0  0  0  0  0
   -3.0208    2.5625    0.0000 C   0  0  0  0  0  0  0  0  0  0  0  0
   -4.4583    2.5583    0.0000 C   0  0  0  0  0  0  0  0  0  0  0  0
   -2.2875    7.9167    0.0000 C   0  0  0  0  0  0  0  0  0  0  0  0
   -3.7583    5.4542    0.0000 C   0  0  0  0  0  0  0  0  0  0  0  0
   -3.7500    1.3208    0.0000 C   0  0  0  0  0  0  0  0  0  0  0  0
   -4.4583    1.7375    0.0000 C   0  0  0  0  0  0  0  0  0  0  0  0
   -3.0208    1.7458    0.0000 C   0  0  0  0  0  0  0  0  0  0  0  0
   -3.7458    0.4833    0.0000 Cl  0  0  0  0  0  0  0  0  0  0  0  0
   -1.6000    6.6667    0.0000 C   0  0  0  0  0  0  0  0  0  0  0  0
   -1.5833    7.4917    0.0000 C   0  0  0  0  0  0  0  0  0  0  0  0
   -4.4250    9.1792    0.0000 C   0  0  0  0  0  0  0  0  0  0  0  0
   -3.0000    9.1667    0.0000 C   0  0  0  0  0  0  0  0  0  0  0  0
  2  1  1  0  0  0  0
  3  1  1  0  0  0  0
  4  6  1  0  0  0  0
  5  3  2  0  0  0  0
  6 10  1  0  0  0  0
  7  3  1  0  0  0  0
  8  4  1  0  0  0  0
  9  2  2  0  0  0  0
 10 17  1  0  0  0  0
 11  5  1  0  0  0  0
 12  4  2  0  0  0  0
 13  2  1  0  0  0  0
 14  8  1  0  0  0  0
 15  8  2  0  0  0  0
 16  1  1  0  0  0  0
 17  7  2  0  0  0  0
 18 19  2  0  0  0  0
 19 15  1  0  0  0  0
 20 14  2  0  0  0  0
 21 18  1  0  0  0  0
 22 23  1  0  0  0  0
 23 16  1  0  0  0  0
 24 13  1  0  0  0  0
 25 13  1  0  0  0  0
  5 22  1  0  0  0  0
 10 11  2  0  0  0  0
 18 20  1  0  0  0  0
M  END
>  <IDNUMBER>
F2769-0191

>  <Chemical_Name>
4-chloro-N-[1-(2-methylpropanoyl)-1,2,3,4-tetrahydroquinolin-6-yl]benzamide

>  <PriceCoeff>
1.00

>  <CAS>
942005-91-6

>  <MW>
356.85

>  <Description>
solid

>  <FSP3>
0.30

>  <clogP>
4.03

>  <TPSA>
49.41

>  <Acceptor>
2

>  <Donor>
1

>  <RotBonds>
4

>  <HAC>
25

>  <Collection>
General

>  <PPDS>
+

$$$$
F2770-0240
  Mrv2219 10102508112D          

 27 29  0  0  0  0            999 V2000
   -3.7268    7.9139    0.0000 S   0  0  0  0  0  0  0  0  0  0  0  0
   -3.0097    7.4911    0.0000 N   0  0  0  0  0  0  0  0  0  0  0  0
   -3.7517    0.4850    0.0000 N   0  3  0  0  0  0  0  0  0  0  0  0
   -3.7517    2.9682    0.0000 C   0  0  0  0  0  0  0  0  0  0  0  0
   -3.7393    3.7808    0.0000 C   0  0  0  0  0  0  0  0  0  0  0  0
   -3.0179    6.6661    0.0000 C   0  0  0  0  0  0  0  0  0  0  0  0
   -3.0221    2.5453    0.0000 C   0  0  0  0  0  0  0  0  0  0  0  0
   -3.7434    1.3059    0.0000 C   0  0  0  0  0  0  0  0  0  0  0  0
   -3.0221    1.7163    0.0000 C   0  0  0  0  0  0  0  0  0  0  0  0
   -3.0304    4.1912    0.0000 N   0  0  0  0  0  0  0  0  0  0  0  0
   -2.3090    6.2432    0.0000 C   0  0  0  0  0  0  0  0  0  0  0  0
   -4.4606    2.5495    0.0000 C   0  0  0  0  0  0  0  0  0  0  0  0
   -4.1414    7.2050    0.0000 O   0  0  0  0  0  0  0  0  0  0  0  0
   -3.3082    8.6228    0.0000 O   0  0  0  0  0  0  0  0  0  0  0  0
   -3.7393    6.2598    0.0000 C   0  0  0  0  0  0  0  0  0  0  0  0
   -4.4606    0.0829    0.0000 O   0  5  0  0  0  0  0  0  0  0  0  0
   -3.0428    0.0746    0.0000 O   0  0  0  0  0  0  0  0  0  0  0  0
   -3.0304    5.0162    0.0000 C   0  0  0  0  0  0  0  0  0  0  0  0
   -2.3132    5.4224    0.0000 C   0  0  0  0  0  0  0  0  0  0  0  0
   -4.4523    4.1829    0.0000 O   0  0  0  0  0  0  0  0  0  0  0  0
   -4.4606    1.7245    0.0000 C   0  0  0  0  0  0  0  0  0  0  0  0
   -4.4357    8.3326    0.0000 C   0  0  0  0  0  0  0  0  0  0  0  0
   -2.3090    2.9475    0.0000 Cl  0  0  0  0  0  0  0  0  0  0  0  0
   -3.7393    5.4348    0.0000 C   0  0  0  0  0  0  0  0  0  0  0  0
   -2.2842    7.8890    0.0000 C   0  0  0  0  0  0  0  0  0  0  0  0
   -1.5919    6.6454    0.0000 C   0  0  0  0  0  0  0  0  0  0  0  0
   -1.5753    7.4662    0.0000 C   0  0  0  0  0  0  0  0  0  0  0  0
  2  1  1  0  0  0  0
  3  8  1  0  0  0  0
  4  5  1  0  0  0  0
  5 10  1  0  0  0  0
  6  2  1  0  0  0  0
  7  4  1  0  0  0  0
  8 21  2  0  0  0  0
  9  7  2  0  0  0  0
 10 18  1  0  0  0  0
 11  6  2  0  0  0  0
 12  4  2  0  0  0  0
 13  1  2  0  0  0  0
 14  1  2  0  0  0  0
 15  6  1  0  0  0  0
 16  3  1  0  0  0  0
 17  3  2  0  0  0  0
 18 24  1  0  0  0  0
 19 11  1  0  0  0  0
 20  5  2  0  0  0  0
 21 12  1  0  0  0  0
 22  1  1  0  0  0  0
 23  7  1  0  0  0  0
 24 15  2  0  0  0  0
 25  2  1  0  0  0  0
 26 27  1  0  0  0  0
 27 25  1  0  0  0  0
 26 11  1  0  0  0  0
 19 18  2  0  0  0  0
  9  8  1  0  0  0  0
M  CHG  2   3   1  16  -1
M  END
>  <IDNUMBER>
F2770-0240

>  <Chemical_Name>
2-chloro-N-(1-methanesulfonyl-1,2,3,4-tetrahydroquinolin-6-yl)-4-nitrobenzamide

>  <PriceCoeff>
1.00

>  <CAS>
941882-70-8

>  <MW>
409.84

>  <Description>
solid

>  <FSP3>
0.24

>  <clogP>
2.32

>  <TPSA>
118.00

>  <Acceptor>
6

>  <Donor>
1

>  <RotBonds>
4

>  <HAC>
27

>  <Collection>
General

>  <PPDS>
+

$$$$
F2779-0189
  Mrv2219 10102508112D          

 30 33  0  0  0  0            999 V2000
   -1.8848    0.2002    0.0000 C   0  0  0  0  0  0  0  0  0  0  0  0
   -2.1517    0.9758    0.0000 C   0  0  0  0  0  0  0  0  0  0  0  0
    2.2560   -1.9015    0.0000 N   0  0  0  0  0  0  0  0  0  0  0  0
   -2.5604   -0.2919    0.0000 S   0  0  0  0  0  0  0  0  0  0  0  0
   -1.0592    0.0250    0.0000 N   0  0  0  0  0  0  0  0  0  0  0  0
   -2.9732    0.9758    0.0000 C   0  0  0  0  0  0  0  0  0  0  0  0
   -0.8965   -0.8424    0.0000 C   0  0  0  0  0  0  0  0  0  0  0  0
    2.9190   -1.3886    0.0000 C   0  0  0  0  0  0  0  0  0  0  0  0
    2.5437   -2.6688    0.0000 C   0  0  0  0  0  0  0  0  0  0  0  0
   -3.2276    0.1960    0.0000 C   0  0  0  0  0  0  0  0  0  0  0  0
   -1.6638    1.6513    0.0000 C   0  0  0  0  0  0  0  0  0  0  0  0
    1.4679   -1.6305    0.0000 C   0  0  0  0  0  0  0  0  0  0  0  0
   -0.1084   -1.1009    0.0000 C   0  0  0  0  0  0  0  0  0  0  0  0
   -1.4970   -1.4053    0.0000 O   0  0  0  0  0  0  0  0  0  0  0  0
    3.6071   -1.8557    0.0000 C   0  0  0  0  0  0  0  0  0  0  0  0
    3.3694   -2.6438    0.0000 C   0  0  0  0  0  0  0  0  0  0  0  0
    2.8940   -0.5379    0.0000 O   0  0  0  0  0  0  0  0  0  0  0  0
    2.0684   -3.3652    0.0000 O   0  0  0  0  0  0  0  0  0  0  0  0
   -0.8382    1.5721    0.0000 O   0  0  0  0  0  0  0  0  0  0  0  0
    1.3052   -0.8048    0.0000 C   0  0  0  0  0  0  0  0  0  0  0  0
    0.8424   -2.1684    0.0000 C   0  0  0  0  0  0  0  0  0  0  0  0
    0.0668   -1.9057    0.0000 C   0  0  0  0  0  0  0  0  0  0  0  0
    0.5254   -0.5421    0.0000 C   0  0  0  0  0  0  0  0  0  0  0  0
   -2.0099    2.4102    0.0000 O   0  0  0  0  0  0  0  0  0  0  0  0
   -3.5278    1.5846    0.0000 C   0  0  0  0  0  0  0  0  0  0  0  0
   -4.0365    0.0208    0.0000 C   0  0  0  0  0  0  0  0  0  0  0  0
   -1.5220    3.0858    0.0000 C   0  0  0  0  0  0  0  0  0  0  0  0
   -4.3368    1.4094    0.0000 C   0  0  0  0  0  0  0  0  0  0  0  0
   -4.5870    0.6338    0.0000 C   0  0  0  0  0  0  0  0  0  0  0  0
   -1.8640    3.8364    0.0000 C   0  0  0  0  0  0  0  0  0  0  0  0
  2  1  2  0  0  0  0
  3 12  1  0  0  0  0
  4  1  1  0  0  0  0
  5  1  1  0  0  0  0
  6  2  1  0  0  0  0
  7  5  1  0  0  0  0
  8  3  1  0  0  0  0
  9  3  1  0  0  0  0
 10  4  1  0  0  0  0
 11  2  1  0  0  0  0
 12 20  1  0  0  0  0
 13  7  1  0  0  0  0
 14  7  2  0  0  0  0
 15  8  1  0  0  0  0
 16  9  1  0  0  0  0
 17  8  2  0  0  0  0
 18  9  2  0  0  0  0
 19 11  2  0  0  0  0
 20 23  2  0  0  0  0
 21 22  1  0  0  0  0
 22 13  2  0  0  0  0
 23 13  1  0  0  0  0
 24 11  1  0  0  0  0
 25  6  1  0  0  0  0
 26 10  1  0  0  0  0
 27 24  1  0  0  0  0
 28 25  2  0  0  0  0
 29 26  2  0  0  0  0
 30 27  1  0  0  0  0
 10  6  2  0  0  0  0
 28 29  1  0  0  0  0
 21 12  2  0  0  0  0
 15 16  1  0  0  0  0
M  END
>  <IDNUMBER>
F2779-0189

>  <Chemical_Name>
ethyl 2-[4-(2,5-dioxopyrrolidin-1-yl)benzamido]-1-benzothiophene-3-carboxylate

>  <PriceCoeff>
1.00

>  <CAS>
923061-65-8

>  <MW>
422.45

>  <Description>
solid

>  <FSP3>
0.18

>  <clogP>
2.88

>  <TPSA>
121.02

>  <Acceptor>
5

>  <Donor>
1

>  <RotBonds>
6

>  <HAC>
30

>  <Collection>
General

>  <PPDS>
+

$$$$
F2783-0088
  Mrv2219 10102508112D          

 25 27  0  0  0  0            999 V2000
   -3.7598    0.4860    0.0000 N   0  3  0  0  0  0  0  0  0  0  0  0
   -3.7598    2.9746    0.0000 C   0  0  0  0  0  0  0  0  0  0  0  0
   -3.7473    3.7889    0.0000 C   0  0  0  0  0  0  0  0  0  0  0  0
   -3.0370    7.4824    0.0000 N   0  0  0  0  0  0  0  0  0  0  0  0
   -3.0287    2.5508    0.0000 C   0  0  0  0  0  0  0  0  0  0  0  0
   -2.3681    7.9684    0.0000 C   0  0  0  0  0  0  0  0  0  0  0  0
   -3.7515    1.3087    0.0000 C   0  0  0  0  0  0  0  0  0  0  0  0
   -3.0287    1.7199    0.0000 C   0  0  0  0  0  0  0  0  0  0  0  0
   -3.0370    4.2003    0.0000 N   0  0  0  0  0  0  0  0  0  0  0  0
   -4.4702    2.5550    0.0000 C   0  0  0  0  0  0  0  0  0  0  0  0
   -3.0370    6.6680    0.0000 C   0  0  0  0  0  0  0  0  0  0  0  0
   -4.4702    0.0830    0.0000 O   0  5  0  0  0  0  0  0  0  0  0  0
   -3.0494    0.0748    0.0000 O   0  0  0  0  0  0  0  0  0  0  0  0
   -4.4620    4.1920    0.0000 O   0  0  0  0  0  0  0  0  0  0  0  0
   -4.4702    1.7283    0.0000 C   0  0  0  0  0  0  0  0  0  0  0  0
   -1.5786    7.7192    0.0000 O   0  0  0  0  0  0  0  0  0  0  0  0
   -3.7473    6.2567    0.0000 C   0  0  0  0  0  0  0  0  0  0  0  0
   -2.3265    6.2484    0.0000 C   0  0  0  0  0  0  0  0  0  0  0  0
   -3.0370    5.0145    0.0000 C   0  0  0  0  0  0  0  0  0  0  0  0
   -2.3140    2.9539    0.0000 Cl  0  0  0  0  0  0  0  0  0  0  0  0
   -3.6975    7.9767    0.0000 C   0  0  0  0  0  0  0  0  0  0  0  0
   -2.3265    5.4341    0.0000 C   0  0  0  0  0  0  0  0  0  0  0  0
   -3.7473    5.4341    0.0000 C   0  0  0  0  0  0  0  0  0  0  0  0
   -2.6173    8.7537    0.0000 C   0  0  0  0  0  0  0  0  0  0  0  0
   -3.4399    8.7537    0.0000 C   0  0  0  0  0  0  0  0  0  0  0  0
  2 10  2  0  0  0  0
  3  2  1  0  0  0  0
  4 11  1  0  0  0  0
  5  8  2  0  0  0  0
  6  4  1  0  0  0  0
  7  1  1  0  0  0  0
  8  7  1  0  0  0  0
  9  3  1  0  0  0  0
 10 15  1  0  0  0  0
 11 17  2  0  0  0  0
 12  1  1  0  0  0  0
 13  1  2  0  0  0  0
 14  3  2  0  0  0  0
 15  7  2  0  0  0  0
 16  6  2  0  0  0  0
 17 23  1  0  0  0  0
 18 22  2  0  0  0  0
 19  9  1  0  0  0  0
 20  5  1  0  0  0  0
 21  4  1  0  0  0  0
 22 19  1  0  0  0  0
 23 19  2  0  0  0  0
 24  6  1  0  0  0  0
 25 21  1  0  0  0  0
  2  5  1  0  0  0  0
 18 11  1  0  0  0  0
 24 25  1  0  0  0  0
M  CHG  2   1   1  12  -1
M  END
>  <IDNUMBER>
F2783-0088

>  <Chemical_Name>
2-chloro-4-nitro-N-[4-(2-oxopyrrolidin-1-yl)phenyl]benzamide

>  <PriceCoeff>
1.00

>  <CAS>
941992-74-1

>  <MW>
359.76

>  <Description>
solid

>  <FSP3>
0.18

>  <clogP>
2.74

>  <TPSA>
92.55

>  <Acceptor>
4

>  <Donor>
1

>  <RotBonds>
4

>  <HAC>
25

>  <Collection>
General

>  <PPDS>
+

$$$$
F2783-0322
  Mrv2219 10102508112D          

 27 29  0  0  0  0            999 V2000
   -3.0346    7.4869    0.0000 N   0  0  0  0  0  0  0  0  0  0  0  0
   -3.7517    0.4850    0.0000 N   0  3  0  0  0  0  0  0  0  0  0  0
   -3.7517    2.9682    0.0000 C   0  0  0  0  0  0  0  0  0  0  0  0
   -3.7393    3.7808    0.0000 C   0  0  0  0  0  0  0  0  0  0  0  0
   -3.0346    6.6661    0.0000 C   0  0  0  0  0  0  0  0  0  0  0  0
   -2.3754    7.9761    0.0000 C   0  0  0  0  0  0  0  0  0  0  0  0
   -3.0221    2.5453    0.0000 C   0  0  0  0  0  0  0  0  0  0  0  0
   -3.7434    1.3059    0.0000 C   0  0  0  0  0  0  0  0  0  0  0  0
   -3.7517    6.2474    0.0000 C   0  0  0  0  0  0  0  0  0  0  0  0
   -3.0221    1.7163    0.0000 C   0  0  0  0  0  0  0  0  0  0  0  0
   -3.0304    4.1912    0.0000 N   0  0  0  0  0  0  0  0  0  0  0  0
   -4.4606    2.5495    0.0000 C   0  0  0  0  0  0  0  0  0  0  0  0
   -3.7434    5.4224    0.0000 C   0  0  0  0  0  0  0  0  0  0  0  0
   -2.3215    6.2474    0.0000 C   0  0  0  0  0  0  0  0  0  0  0  0
   -4.4606    0.0829    0.0000 O   0  5  0  0  0  0  0  0  0  0  0  0
   -3.0304    5.0162    0.0000 C   0  0  0  0  0  0  0  0  0  0  0  0
   -3.0428    0.0746    0.0000 O   0  0  0  0  0  0  0  0  0  0  0  0
   -4.4523    4.1829    0.0000 O   0  0  0  0  0  0  0  0  0  0  0  0
   -4.4606    1.7245    0.0000 C   0  0  0  0  0  0  0  0  0  0  0  0
   -1.6002    7.7274    0.0000 O   0  0  0  0  0  0  0  0  0  0  0  0
   -2.3090    2.9475    0.0000 Cl  0  0  0  0  0  0  0  0  0  0  0  0
   -2.3215    5.4266    0.0000 C   0  0  0  0  0  0  0  0  0  0  0  0
   -3.7061    7.9637    0.0000 C   0  0  0  0  0  0  0  0  0  0  0  0
   -4.4648    6.6578    0.0000 O   0  0  0  0  0  0  0  0  0  0  0  0
   -2.6324    8.7596    0.0000 C   0  0  0  0  0  0  0  0  0  0  0  0
   -3.4574    8.7554    0.0000 C   0  0  0  0  0  0  0  0  0  0  0  0
   -4.4730    7.4786    0.0000 C   0  0  0  0  0  0  0  0  0  0  0  0
  2  8  1  0  0  0  0
  3  4  1  0  0  0  0
  4 11  1  0  0  0  0
  5  1  1  0  0  0  0
  6  1  1  0  0  0  0
  7  3  1  0  0  0  0
  8 19  2  0  0  0  0
  9  5  2  0  0  0  0
 10  7  2  0  0  0  0
 11 16  1  0  0  0  0
 12  3  2  0  0  0  0
 13  9  1  0  0  0  0
 14  5  1  0  0  0  0
 15  2  1  0  0  0  0
 16 22  1  0  0  0  0
 17  2  2  0  0  0  0
 18  4  2  0  0  0  0
 19 12  1  0  0  0  0
 20  6  2  0  0  0  0
 21  7  1  0  0  0  0
 22 14  2  0  0  0  0
 23  1  1  0  0  0  0
 24  9  1  0  0  0  0
 25  6  1  0  0  0  0
 26 23  1  0  0  0  0
 27 24  1  0  0  0  0
 25 26  1  0  0  0  0
 13 16  2  0  0  0  0
 10  8  1  0  0  0  0
M  CHG  2   2   1  15  -1
M  END
>  <IDNUMBER>
F2783-0322

>  <Chemical_Name>
2-chloro-N-[3-methoxy-4-(2-oxopyrrolidin-1-yl)phenyl]-4-nitrobenzamide

>  <PriceCoeff>
1.00

>  <CAS>
941889-50-5

>  <MW>
389.79

>  <Description>
solid

>  <FSP3>
0.22

>  <clogP>
2.68

>  <TPSA>
101.78

>  <Acceptor>
5

>  <Donor>
1

>  <RotBonds>
5

>  <HAC>
27

>  <Collection>
General

>  <PPDS>
+

$$$$
F2783-0439
  Mrv2219 10102508112D          

 25 27  0  0  0  0            999 V2000
   -3.7598    0.4860    0.0000 N   0  3  0  0  0  0  0  0  0  0  0  0
   -3.7598    2.9746    0.0000 C   0  0  0  0  0  0  0  0  0  0  0  0
   -3.7473    3.7889    0.0000 C   0  0  0  0  0  0  0  0  0  0  0  0
   -1.6160    6.6680    0.0000 N   0  0  0  0  0  0  0  0  0  0  0  0
   -3.0287    2.5508    0.0000 C   0  0  0  0  0  0  0  0  0  0  0  0
   -1.5205    7.4824    0.0000 C   0  0  0  0  0  0  0  0  0  0  0  0
   -3.7515    1.3087    0.0000 C   0  0  0  0  0  0  0  0  0  0  0  0
   -2.3182    6.2484    0.0000 C   0  0  0  0  0  0  0  0  0  0  0  0
   -3.0287    1.7199    0.0000 C   0  0  0  0  0  0  0  0  0  0  0  0
   -3.0370    4.2003    0.0000 N   0  0  0  0  0  0  0  0  0  0  0  0
   -4.4702    2.5550    0.0000 C   0  0  0  0  0  0  0  0  0  0  0  0
   -2.3182    5.4259    0.0000 C   0  0  0  0  0  0  0  0  0  0  0  0
   -4.4702    0.0830    0.0000 O   0  5  0  0  0  0  0  0  0  0  0  0
   -3.0494    0.0748    0.0000 O   0  0  0  0  0  0  0  0  0  0  0  0
   -3.0370    5.0145    0.0000 C   0  0  0  0  0  0  0  0  0  0  0  0
   -4.4620    4.1920    0.0000 O   0  0  0  0  0  0  0  0  0  0  0  0
   -4.4702    1.7283    0.0000 C   0  0  0  0  0  0  0  0  0  0  0  0
   -2.1271    8.0390    0.0000 O   0  0  0  0  0  0  0  0  0  0  0  0
   -2.3140    2.9539    0.0000 Cl  0  0  0  0  0  0  0  0  0  0  0  0
   -0.8558    6.3233    0.0000 C   0  0  0  0  0  0  0  0  0  0  0  0
   -0.7187    7.6569    0.0000 C   0  0  0  0  0  0  0  0  0  0  0  0
   -3.0370    6.6598    0.0000 C   0  0  0  0  0  0  0  0  0  0  0  0
   -0.3074    6.9422    0.0000 C   0  0  0  0  0  0  0  0  0  0  0  0
   -3.7473    6.2567    0.0000 C   0  0  0  0  0  0  0  0  0  0  0  0
   -3.7473    5.4341    0.0000 C   0  0  0  0  0  0  0  0  0  0  0  0
  2 11  2  0  0  0  0
  3  2  1  0  0  0  0
  4  8  1  0  0  0  0
  5  9  2  0  0  0  0
  6  4  1  0  0  0  0
  7  1  1  0  0  0  0
  8 12  2  0  0  0  0
  9  7  1  0  0  0  0
 10  3  1  0  0  0  0
 11 17  1  0  0  0  0
 12 15  1  0  0  0  0
 13  1  1  0  0  0  0
 14  1  2  0  0  0  0
 15 10  1  0  0  0  0
 16  3  2  0  0  0  0
 17  7  2  0  0  0  0
 18  6  2  0  0  0  0
 19  5  1  0  0  0  0
 20  4  1  0  0  0  0
 21  6  1  0  0  0  0
 22 24  2  0  0  0  0
 23 20  1  0  0  0  0
 24 25  1  0  0  0  0
 25 15  2  0  0  0  0
  2  5  1  0  0  0  0
  8 22  1  0  0  0  0
 23 21  1  0  0  0  0
M  CHG  2   1   1  13  -1
M  END
>  <IDNUMBER>
F2783-0439

>  <Chemical_Name>
2-chloro-4-nitro-N-[3-(2-oxopyrrolidin-1-yl)phenyl]benzamide

>  <PriceCoeff>
1.00

>  <CAS>
941957-11-5

>  <MW>
359.76

>  <Description>
solid

>  <FSP3>
0.18

>  <clogP>
2.74

>  <TPSA>
92.55

>  <Acceptor>
4

>  <Donor>
1

>  <RotBonds>
4

>  <HAC>
25

>  <Collection>
General

>  <PPDS>
+

$$$$
F2783-0556
  Mrv2219 10102508112D          

 26 28  0  0  0  0            999 V2000
   -1.6159    6.6799    0.0000 N   0  0  0  0  0  0  0  0  0  0  0  0
   -3.7595    0.4860    0.0000 N   0  3  0  0  0  0  0  0  0  0  0  0
   -3.7595    2.9743    0.0000 C   0  0  0  0  0  0  0  0  0  0  0  0
   -3.7470    3.7886    0.0000 C   0  0  0  0  0  0  0  0  0  0  0  0
   -2.3263    6.2604    0.0000 C   0  0  0  0  0  0  0  0  0  0  0  0
   -0.8557    6.3559    0.0000 C   0  0  0  0  0  0  0  0  0  0  0  0
   -3.0284    2.5506    0.0000 C   0  0  0  0  0  0  0  0  0  0  0  0
   -3.7512    1.3086    0.0000 C   0  0  0  0  0  0  0  0  0  0  0  0
   -3.0284    1.7198    0.0000 C   0  0  0  0  0  0  0  0  0  0  0  0
   -3.0367    4.1999    0.0000 N   0  0  0  0  0  0  0  0  0  0  0  0
   -2.3263    5.4378    0.0000 C   0  0  0  0  0  0  0  0  0  0  0  0
   -4.4698    2.5548    0.0000 C   0  0  0  0  0  0  0  0  0  0  0  0
   -4.4698    0.0830    0.0000 O   0  5  0  0  0  0  0  0  0  0  0  0
   -3.0367    5.0141    0.0000 C   0  0  0  0  0  0  0  0  0  0  0  0
   -3.0491    0.0748    0.0000 O   0  0  0  0  0  0  0  0  0  0  0  0
   -3.0491    6.6716    0.0000 C   0  0  0  0  0  0  0  0  0  0  0  0
   -4.4616    4.1916    0.0000 O   0  0  0  0  0  0  0  0  0  0  0  0
   -4.4698    1.7281    0.0000 C   0  0  0  0  0  0  0  0  0  0  0  0
   -0.6730    5.5458    0.0000 O   0  0  0  0  0  0  0  0  0  0  0  0
   -3.7512    6.2604    0.0000 C   0  0  0  0  0  0  0  0  0  0  0  0
   -2.3138    2.9536    0.0000 Cl  0  0  0  0  0  0  0  0  0  0  0  0
   -1.5287    7.5066    0.0000 C   0  0  0  0  0  0  0  0  0  0  0  0
   -3.7512    5.4336    0.0000 C   0  0  0  0  0  0  0  0  0  0  0  0
   -0.3074    6.9707    0.0000 C   0  0  0  0  0  0  0  0  0  0  0  0
   -0.7228    7.6811    0.0000 C   0  0  0  0  0  0  0  0  0  0  0  0
   -3.0491    7.4941    0.0000 C   0  0  0  0  0  0  0  0  0  0  0  0
  2  8  1  0  0  0  0
  3  4  1  0  0  0  0
  4 10  1  0  0  0  0
  5  1  1  0  0  0  0
  6  1  1  0  0  0  0
  7  3  1  0  0  0  0
  8 18  2  0  0  0  0
  9  7  2  0  0  0  0
 10 14  1  0  0  0  0
 11  5  2  0  0  0  0
 12  3  2  0  0  0  0
 13  2  1  0  0  0  0
 14 11  1  0  0  0  0
 15  2  2  0  0  0  0
 16  5  1  0  0  0  0
 17  4  2  0  0  0  0
 18 12  1  0  0  0  0
 19  6  2  0  0  0  0
 20 16  2  0  0  0  0
 21  7  1  0  0  0  0
 22  1  1  0  0  0  0
 23 20  1  0  0  0  0
 24  6  1  0  0  0  0
 25 22  1  0  0  0  0
 26 16  1  0  0  0  0
 24 25  1  0  0  0  0
 14 23  2  0  0  0  0
  9  8  1  0  0  0  0
M  CHG  2   2   1  13  -1
M  END
>  <IDNUMBER>
F2783-0556

>  <Chemical_Name>
2-chloro-N-[4-methyl-3-(2-oxopyrrolidin-1-yl)phenyl]-4-nitrobenzamide

>  <PriceCoeff>
1.00

>  <CAS>
941993-74-4

>  <MW>
373.79

>  <Description>
solid

>  <FSP3>
0.22

>  <clogP>
2.84

>  <TPSA>
92.55

>  <Acceptor>
4

>  <Donor>
1

>  <RotBonds>
4

>  <HAC>
26

>  <Collection>
General

>  <PPDS>
+

$$$$
F2783-0673
  Mrv2219 10102508112D          

 27 29  0  0  0  0            999 V2000
   -4.4629    6.6571    0.0000 N   0  0  0  0  0  0  0  0  0  0  0  0
   -3.7537    0.4853    0.0000 N   0  3  0  0  0  0  0  0  0  0  0  0
   -3.7537    2.9697    0.0000 C   0  0  0  0  0  0  0  0  0  0  0  0
   -3.7412    3.7827    0.0000 C   0  0  0  0  0  0  0  0  0  0  0  0
   -3.7454    6.2507    0.0000 C   0  0  0  0  0  0  0  0  0  0  0  0
   -5.2137    6.3129    0.0000 C   0  0  0  0  0  0  0  0  0  0  0  0
   -3.0237    2.5467    0.0000 C   0  0  0  0  0  0  0  0  0  0  0  0
   -3.7454    1.3065    0.0000 C   0  0  0  0  0  0  0  0  0  0  0  0
   -3.0237    1.7172    0.0000 C   0  0  0  0  0  0  0  0  0  0  0  0
   -3.0320    4.1934    0.0000 N   0  0  0  0  0  0  0  0  0  0  0  0
   -3.7412    5.4252    0.0000 C   0  0  0  0  0  0  0  0  0  0  0  0
   -4.4629    2.5509    0.0000 C   0  0  0  0  0  0  0  0  0  0  0  0
   -4.4629    0.0829    0.0000 O   0  5  0  0  0  0  0  0  0  0  0  0
   -3.0320    6.6613    0.0000 C   0  0  0  0  0  0  0  0  0  0  0  0
   -3.0320    5.0188    0.0000 C   0  0  0  0  0  0  0  0  0  0  0  0
   -3.0444    0.0747    0.0000 O   0  0  0  0  0  0  0  0  0  0  0  0
   -4.4547    4.1851    0.0000 O   0  0  0  0  0  0  0  0  0  0  0  0
   -4.4629    1.7254    0.0000 C   0  0  0  0  0  0  0  0  0  0  0  0
   -5.3837    5.5041    0.0000 O   0  0  0  0  0  0  0  0  0  0  0  0
   -2.3227    6.2507    0.0000 C   0  0  0  0  0  0  0  0  0  0  0  0
   -2.3103    2.9490    0.0000 Cl  0  0  0  0  0  0  0  0  0  0  0  0
   -4.5625    7.4701    0.0000 C   0  0  0  0  0  0  0  0  0  0  0  0
   -2.3103    5.4294    0.0000 C   0  0  0  0  0  0  0  0  0  0  0  0
   -3.0361    7.4908    0.0000 O   0  0  0  0  0  0  0  0  0  0  0  0
   -5.7695    6.9226    0.0000 C   0  0  0  0  0  0  0  0  0  0  0  0
   -5.3588    7.6401    0.0000 C   0  0  0  0  0  0  0  0  0  0  0  0
   -2.3227    7.9056    0.0000 C   0  0  0  0  0  0  0  0  0  0  0  0
  2  8  1  0  0  0  0
  3  4  1  0  0  0  0
  4 10  1  0  0  0  0
  5  1  1  0  0  0  0
  6  1  1  0  0  0  0
  7  3  1  0  0  0  0
  8 18  2  0  0  0  0
  9  7  2  0  0  0  0
 10 15  1  0  0  0  0
 11  5  1  0  0  0  0
 12  3  2  0  0  0  0
 13  2  1  0  0  0  0
 14  5  2  0  0  0  0
 15 11  2  0  0  0  0
 16  2  2  0  0  0  0
 17  4  2  0  0  0  0
 18 12  1  0  0  0  0
 19  6  2  0  0  0  0
 20 14  1  0  0  0  0
 21  7  1  0  0  0  0
 22  1  1  0  0  0  0
 23 20  2  0  0  0  0
 24 14  1  0  0  0  0
 25  6  1  0  0  0  0
 26 22  1  0  0  0  0
 27 24  1  0  0  0  0
 26 25  1  0  0  0  0
 15 23  1  0  0  0  0
  9  8  1  0  0  0  0
M  CHG  2   2   1  13  -1
M  END
>  <IDNUMBER>
F2783-0673

>  <Chemical_Name>
2-chloro-N-[4-methoxy-3-(2-oxopyrrolidin-1-yl)phenyl]-4-nitrobenzamide

>  <PriceCoeff>
1.00

>  <CAS>
941934-48-1

>  <MW>
389.79

>  <Description>
solid

>  <FSP3>
0.22

>  <clogP>
2.68

>  <TPSA>
101.78

>  <Acceptor>
5

>  <Donor>
1

>  <RotBonds>
5

>  <HAC>
27

>  <Collection>
General

>  <PPDS>
+

$$$$
F2784-0088
  Mrv2219 10102508112D          

 26 28  0  0  0  0            999 V2000
   -3.7595    0.4860    0.0000 N   0  3  0  0  0  0  0  0  0  0  0  0
   -3.7595    2.9743    0.0000 C   0  0  0  0  0  0  0  0  0  0  0  0
   -3.7470    3.7886    0.0000 C   0  0  0  0  0  0  0  0  0  0  0  0
   -3.0491    7.5024    0.0000 N   0  0  0  0  0  0  0  0  0  0  0  0
   -3.0284    2.5506    0.0000 C   0  0  0  0  0  0  0  0  0  0  0  0
   -2.3305    7.9179    0.0000 C   0  0  0  0  0  0  0  0  0  0  0  0
   -3.7512    1.3086    0.0000 C   0  0  0  0  0  0  0  0  0  0  0  0
   -3.0284    1.7198    0.0000 C   0  0  0  0  0  0  0  0  0  0  0  0
   -3.0367    4.1999    0.0000 N   0  0  0  0  0  0  0  0  0  0  0  0
   -4.4698    2.5548    0.0000 C   0  0  0  0  0  0  0  0  0  0  0  0
   -3.0408    6.6799    0.0000 C   0  0  0  0  0  0  0  0  0  0  0  0
   -4.4698    0.0830    0.0000 O   0  5  0  0  0  0  0  0  0  0  0  0
   -3.0491    0.0748    0.0000 O   0  0  0  0  0  0  0  0  0  0  0  0
   -4.4616    4.1916    0.0000 O   0  0  0  0  0  0  0  0  0  0  0  0
   -4.4698    1.7281    0.0000 C   0  0  0  0  0  0  0  0  0  0  0  0
   -1.6159    7.5066    0.0000 O   0  0  0  0  0  0  0  0  0  0  0  0
   -2.3263    6.2604    0.0000 C   0  0  0  0  0  0  0  0  0  0  0  0
   -3.7595    6.2604    0.0000 C   0  0  0  0  0  0  0  0  0  0  0  0
   -3.0367    5.0266    0.0000 C   0  0  0  0  0  0  0  0  0  0  0  0
   -2.3138    2.9536    0.0000 Cl  0  0  0  0  0  0  0  0  0  0  0  0
   -2.3263    5.4378    0.0000 C   0  0  0  0  0  0  0  0  0  0  0  0
   -3.7512    5.4336    0.0000 C   0  0  0  0  0  0  0  0  0  0  0  0
   -3.7637    7.9179    0.0000 C   0  0  0  0  0  0  0  0  0  0  0  0
   -2.3388    8.7487    0.0000 C   0  0  0  0  0  0  0  0  0  0  0  0
   -3.7637    8.7404    0.0000 C   0  0  0  0  0  0  0  0  0  0  0  0
   -3.0533    9.1599    0.0000 C   0  0  0  0  0  0  0  0  0  0  0  0
  2 10  2  0  0  0  0
  3  2  1  0  0  0  0
  4 11  1  0  0  0  0
  5  8  2  0  0  0  0
  6  4  1  0  0  0  0
  7  1  1  0  0  0  0
  8  7  1  0  0  0  0
  9  3  1  0  0  0  0
 10 15  1  0  0  0  0
 11 18  2  0  0  0  0
 12  1  1  0  0  0  0
 13  1  2  0  0  0  0
 14  3  2  0  0  0  0
 15  7  2  0  0  0  0
 16  6  2  0  0  0  0
 17 21  2  0  0  0  0
 18 22  1  0  0  0  0
 19  9  1  0  0  0  0
 20  5  1  0  0  0  0
 21 19  1  0  0  0  0
 22 19  2  0  0  0  0
 23  4  1  0  0  0  0
 24  6  1  0  0  0  0
 25 23  1  0  0  0  0
 26 25  1  0  0  0  0
  2  5  1  0  0  0  0
 17 11  1  0  0  0  0
 26 24  1  0  0  0  0
M  CHG  2   1   1  12  -1
M  END
>  <IDNUMBER>
F2784-0088

>  <Chemical_Name>
2-chloro-4-nitro-N-[4-(2-oxopiperidin-1-yl)phenyl]benzamide

>  <PriceCoeff>
1.00

>  <CAS>
942013-45-8

>  <MW>
373.79

>  <Description>
solid

>  <FSP3>
0.22

>  <clogP>
3.30

>  <TPSA>
92.55

>  <Acceptor>
4

>  <Donor>
1

>  <RotBonds>
4

>  <HAC>
26

>  <Collection>
General

>  <PPDS>
+

$$$$
F2784-0320
  Mrv2219 10102508112D          

 28 30  0  0  0  0            999 V2000
   -3.0428    7.4911    0.0000 N   0  0  0  0  0  0  0  0  0  0  0  0
   -3.7517    0.4850    0.0000 N   0  3  0  0  0  0  0  0  0  0  0  0
   -3.7517    2.9682    0.0000 C   0  0  0  0  0  0  0  0  0  0  0  0
   -3.7393    3.7808    0.0000 C   0  0  0  0  0  0  0  0  0  0  0  0
   -3.0346    6.6661    0.0000 C   0  0  0  0  0  0  0  0  0  0  0  0
   -3.0221    2.5453    0.0000 C   0  0  0  0  0  0  0  0  0  0  0  0
   -2.3257    7.9015    0.0000 C   0  0  0  0  0  0  0  0  0  0  0  0
   -3.7434    1.3059    0.0000 C   0  0  0  0  0  0  0  0  0  0  0  0
   -3.7517    6.2474    0.0000 C   0  0  0  0  0  0  0  0  0  0  0  0
   -3.0221    1.7163    0.0000 C   0  0  0  0  0  0  0  0  0  0  0  0
   -3.0304    4.1912    0.0000 N   0  0  0  0  0  0  0  0  0  0  0  0
   -4.4606    2.5495    0.0000 C   0  0  0  0  0  0  0  0  0  0  0  0
   -3.7434    5.4224    0.0000 C   0  0  0  0  0  0  0  0  0  0  0  0
   -2.3215    6.2474    0.0000 C   0  0  0  0  0  0  0  0  0  0  0  0
   -4.4606    0.0829    0.0000 O   0  5  0  0  0  0  0  0  0  0  0  0
   -3.0304    5.0162    0.0000 C   0  0  0  0  0  0  0  0  0  0  0  0
   -3.0428    0.0746    0.0000 O   0  0  0  0  0  0  0  0  0  0  0  0
   -4.4523    4.1829    0.0000 O   0  0  0  0  0  0  0  0  0  0  0  0
   -4.4606    1.7245    0.0000 C   0  0  0  0  0  0  0  0  0  0  0  0
   -1.6126    7.4911    0.0000 O   0  0  0  0  0  0  0  0  0  0  0  0
   -2.3090    2.9475    0.0000 Cl  0  0  0  0  0  0  0  0  0  0  0  0
   -2.3215    5.4266    0.0000 C   0  0  0  0  0  0  0  0  0  0  0  0
   -3.7559    7.8973    0.0000 C   0  0  0  0  0  0  0  0  0  0  0  0
   -4.4648    6.6578    0.0000 O   0  0  0  0  0  0  0  0  0  0  0  0
   -2.3339    8.7306    0.0000 C   0  0  0  0  0  0  0  0  0  0  0  0
   -4.4730    7.4786    0.0000 C   0  0  0  0  0  0  0  0  0  0  0  0
   -3.7559    8.7223    0.0000 C   0  0  0  0  0  0  0  0  0  0  0  0
   -3.0470    9.1410    0.0000 C   0  0  0  0  0  0  0  0  0  0  0  0
  2  8  1  0  0  0  0
  3  4  1  0  0  0  0
  4 11  1  0  0  0  0
  5  1  1  0  0  0  0
  6  3  1  0  0  0  0
  7  1  1  0  0  0  0
  8 19  2  0  0  0  0
  9  5  2  0  0  0  0
 10  6  2  0  0  0  0
 11 16  1  0  0  0  0
 12  3  2  0  0  0  0
 13  9  1  0  0  0  0
 14  5  1  0  0  0  0
 15  2  1  0  0  0  0
 16 22  1  0  0  0  0
 17  2  2  0  0  0  0
 18  4  2  0  0  0  0
 19 12  1  0  0  0  0
 20  7  2  0  0  0  0
 21  6  1  0  0  0  0
 22 14  2  0  0  0  0
 23  1  1  0  0  0  0
 24  9  1  0  0  0  0
 25  7  1  0  0  0  0
 26 24  1  0  0  0  0
 27 23  1  0  0  0  0
 28 27  1  0  0  0  0
 28 25  1  0  0  0  0
 13 16  2  0  0  0  0
 10  8  1  0  0  0  0
M  CHG  2   2   1  15  -1
M  END
>  <IDNUMBER>
F2784-0320

>  <Chemical_Name>
2-chloro-N-[3-methoxy-4-(2-oxopiperidin-1-yl)phenyl]-4-nitrobenzamide

>  <PriceCoeff>
1.00

>  <CAS>
941978-83-2

>  <MW>
403.82

>  <Description>
solid

>  <FSP3>
0.26

>  <clogP>
3.24

>  <TPSA>
101.78

>  <Acceptor>
5

>  <Donor>
1

>  <RotBonds>
5

>  <HAC>
28

>  <Collection>
General

>  <PPDS>
+

$$$$
F2784-0437
  Mrv2219 10102508112D          

 26 28  0  0  0  0            999 V2000
   -3.7598    0.4860    0.0000 N   0  3  0  0  0  0  0  0  0  0  0  0
   -3.7598    2.9746    0.0000 C   0  0  0  0  0  0  0  0  0  0  0  0
   -3.7473    3.7889    0.0000 C   0  0  0  0  0  0  0  0  0  0  0  0
   -1.6160    6.6598    0.0000 N   0  0  0  0  0  0  0  0  0  0  0  0
   -3.0287    2.5508    0.0000 C   0  0  0  0  0  0  0  0  0  0  0  0
   -1.6078    7.4948    0.0000 C   0  0  0  0  0  0  0  0  0  0  0  0
   -3.7515    1.3087    0.0000 C   0  0  0  0  0  0  0  0  0  0  0  0
   -2.3182    6.2484    0.0000 C   0  0  0  0  0  0  0  0  0  0  0  0
   -3.0287    1.7199    0.0000 C   0  0  0  0  0  0  0  0  0  0  0  0
   -3.0370    4.2003    0.0000 N   0  0  0  0  0  0  0  0  0  0  0  0
   -4.4702    2.5550    0.0000 C   0  0  0  0  0  0  0  0  0  0  0  0
   -2.3182    5.4259    0.0000 C   0  0  0  0  0  0  0  0  0  0  0  0
   -4.4702    0.0830    0.0000 O   0  5  0  0  0  0  0  0  0  0  0  0
   -3.0494    0.0748    0.0000 O   0  0  0  0  0  0  0  0  0  0  0  0
   -3.0370    5.0145    0.0000 C   0  0  0  0  0  0  0  0  0  0  0  0
   -4.4620    4.1920    0.0000 O   0  0  0  0  0  0  0  0  0  0  0  0
   -4.4702    1.7283    0.0000 C   0  0  0  0  0  0  0  0  0  0  0  0
   -2.3182    7.9061    0.0000 O   0  0  0  0  0  0  0  0  0  0  0  0
   -2.3140    2.9539    0.0000 Cl  0  0  0  0  0  0  0  0  0  0  0  0
   -0.8932    6.2484    0.0000 C   0  0  0  0  0  0  0  0  0  0  0  0
   -3.0370    6.6598    0.0000 C   0  0  0  0  0  0  0  0  0  0  0  0
   -0.8932    7.9061    0.0000 C   0  0  0  0  0  0  0  0  0  0  0  0
   -3.7473    6.2567    0.0000 C   0  0  0  0  0  0  0  0  0  0  0  0
   -3.7473    5.4341    0.0000 C   0  0  0  0  0  0  0  0  0  0  0  0
   -0.1827    6.6680    0.0000 C   0  0  0  0  0  0  0  0  0  0  0  0
   -0.1827    7.4907    0.0000 C   0  0  0  0  0  0  0  0  0  0  0  0
  2 11  2  0  0  0  0
  3  2  1  0  0  0  0
  4  8  1  0  0  0  0
  5  9  2  0  0  0  0
  6  4  1  0  0  0  0
  7  1  1  0  0  0  0
  8 12  2  0  0  0  0
  9  7  1  0  0  0  0
 10  3  1  0  0  0  0
 11 17  1  0  0  0  0
 12 15  1  0  0  0  0
 13  1  1  0  0  0  0
 14  1  2  0  0  0  0
 15 10  1  0  0  0  0
 16  3  2  0  0  0  0
 17  7  2  0  0  0  0
 18  6  2  0  0  0  0
 19  5  1  0  0  0  0
 20  4  1  0  0  0  0
 21 23  2  0  0  0  0
 22  6  1  0  0  0  0
 23 24  1  0  0  0  0
 24 15  2  0  0  0  0
 25 20  1  0  0  0  0
 26 25  1  0  0  0  0
  2  5  1  0  0  0  0
 21  8  1  0  0  0  0
 26 22  1  0  0  0  0
M  CHG  2   1   1  13  -1
M  END
>  <IDNUMBER>
F2784-0437

>  <Chemical_Name>
2-chloro-4-nitro-N-[3-(2-oxopiperidin-1-yl)phenyl]benzamide

>  <PriceCoeff>
1.00

>  <CAS>
941979-19-7

>  <MW>
373.79

>  <Description>
solid

>  <FSP3>
0.22

>  <clogP>
3.30

>  <TPSA>
92.55

>  <Acceptor>
4

>  <Donor>
1

>  <RotBonds>
4

>  <HAC>
26

>  <Collection>
General

>  <PPDS>
+

$$$$
F2784-0548
  Mrv2219 10102508112D          

 27 29  0  0  0  0            999 V2000
   -5.1583    1.2958    0.0000 N   0  3  0  0  0  0  0  0  0  0  0  0
   -4.4583    1.7333    0.0000 C   0  0  0  0  0  0  0  0  0  0  0  0
   -1.6125    6.6792    0.0000 N   0  0  0  0  0  0  0  0  0  0  0  0
   -2.3250    6.2667    0.0000 C   0  0  0  0  0  0  0  0  0  0  0  0
   -3.7583    3.8000    0.0000 C   0  0  0  0  0  0  0  0  0  0  0  0
   -4.4583    2.5458    0.0000 C   0  0  0  0  0  0  0  0  0  0  0  0
   -1.6125    7.5167    0.0000 C   0  0  0  0  0  0  0  0  0  0  0  0
   -3.7625    2.9833    0.0000 C   0  0  0  0  0  0  0  0  0  0  0  0
   -3.0458    4.2125    0.0000 N   0  0  0  0  0  0  0  0  0  0  0  0
   -2.3250    5.4417    0.0000 C   0  0  0  0  0  0  0  0  0  0  0  0
   -3.7250    1.3333    0.0000 C   0  0  0  0  0  0  0  0  0  0  0  0
   -5.1458    0.4708    0.0000 O   0  5  0  0  0  0  0  0  0  0  0  0
   -5.8833    1.7125    0.0000 O   0  0  0  0  0  0  0  0  0  0  0  0
   -3.0458    5.0292    0.0000 C   0  0  0  0  0  0  0  0  0  0  0  0
   -3.0458    6.6792    0.0000 C   0  0  0  0  0  0  0  0  0  0  0  0
   -4.4833    4.2042    0.0000 O   0  0  0  0  0  0  0  0  0  0  0  0
   -2.3250    7.9292    0.0000 O   0  0  0  0  0  0  0  0  0  0  0  0
   -3.0333    2.5708    0.0000 C   0  0  0  0  0  0  0  0  0  0  0  0
   -3.0125    1.7583    0.0000 C   0  0  0  0  0  0  0  0  0  0  0  0
   -3.7583    6.2750    0.0000 C   0  0  0  0  0  0  0  0  0  0  0  0
   -0.8958    6.2792    0.0000 C   0  0  0  0  0  0  0  0  0  0  0  0
   -3.7583    5.4500    0.0000 C   0  0  0  0  0  0  0  0  0  0  0  0
   -3.7208    0.4875    0.0000 Cl  0  0  0  0  0  0  0  0  0  0  0  0
   -0.8958    7.9250    0.0000 C   0  0  0  0  0  0  0  0  0  0  0  0
   -3.0375    7.5125    0.0000 C   0  0  0  0  0  0  0  0  0  0  0  0
   -0.1833    6.6917    0.0000 C   0  0  0  0  0  0  0  0  0  0  0  0
   -0.1833    7.5042    0.0000 C   0  0  0  0  0  0  0  0  0  0  0  0
  2  1  1  0  0  0  0
  3  4  1  0  0  0  0
  4 10  2  0  0  0  0
  5  8  1  0  0  0  0
  6  2  1  0  0  0  0
  7  3  1  0  0  0  0
  8  6  2  0  0  0  0
  9  5  1  0  0  0  0
 10 14  1  0  0  0  0
 11  2  2  0  0  0  0
 12  1  1  0  0  0  0
 13  1  2  0  0  0  0
 14  9  1  0  0  0  0
 15 20  2  0  0  0  0
 16  5  2  0  0  0  0
 17  7  2  0  0  0  0
 18 19  2  0  0  0  0
 19 11  1  0  0  0  0
 20 22  1  0  0  0  0
 21  3  1  0  0  0  0
 22 14  2  0  0  0  0
 23 11  1  0  0  0  0
 24  7  1  0  0  0  0
 25 15  1  0  0  0  0
 26 21  1  0  0  0  0
 27 26  1  0  0  0  0
 18  8  1  0  0  0  0
 15  4  1  0  0  0  0
 27 24  1  0  0  0  0
M  CHG  2   1   1  12  -1
M  END
>  <IDNUMBER>
F2784-0548

>  <Chemical_Name>
4-chloro-N-[4-methyl-3-(2-oxopiperidin-1-yl)phenyl]-3-nitrobenzamide

>  <PriceCoeff>
1.00

>  <CAS>
922931-97-3

>  <MW>
387.82

>  <Description>
solid

>  <FSP3>
0.26

>  <clogP>
4.08

>  <TPSA>
92.55

>  <Acceptor>
4

>  <Donor>
1

>  <RotBonds>
4

>  <HAC>
27

>  <Collection>
General

>  <PPDS>
+

$$$$
F2784-0552
  Mrv2219 10102508112D          

 27 29  0  0  0  0            999 V2000
   -1.6078    6.6598    0.0000 N   0  0  0  0  0  0  0  0  0  0  0  0
   -3.7598    0.4860    0.0000 N   0  3  0  0  0  0  0  0  0  0  0  0
   -3.7598    2.9746    0.0000 C   0  0  0  0  0  0  0  0  0  0  0  0
   -3.7473    3.7889    0.0000 C   0  0  0  0  0  0  0  0  0  0  0  0
   -2.3182    6.2484    0.0000 C   0  0  0  0  0  0  0  0  0  0  0  0
   -1.6078    7.4948    0.0000 C   0  0  0  0  0  0  0  0  0  0  0  0
   -3.0287    2.5508    0.0000 C   0  0  0  0  0  0  0  0  0  0  0  0
   -3.7515    1.3087    0.0000 C   0  0  0  0  0  0  0  0  0  0  0  0
   -3.0287    1.7199    0.0000 C   0  0  0  0  0  0  0  0  0  0  0  0
   -3.0370    4.2003    0.0000 N   0  0  0  0  0  0  0  0  0  0  0  0
   -2.3182    5.4259    0.0000 C   0  0  0  0  0  0  0  0  0  0  0  0
   -4.4702    2.5550    0.0000 C   0  0  0  0  0  0  0  0  0  0  0  0
   -4.4702    0.0830    0.0000 O   0  5  0  0  0  0  0  0  0  0  0  0
   -3.0370    5.0145    0.0000 C   0  0  0  0  0  0  0  0  0  0  0  0
   -3.0494    0.0748    0.0000 O   0  0  0  0  0  0  0  0  0  0  0  0
   -3.0370    6.6598    0.0000 C   0  0  0  0  0  0  0  0  0  0  0  0
   -4.4620    4.1920    0.0000 O   0  0  0  0  0  0  0  0  0  0  0  0
   -4.4702    1.7283    0.0000 C   0  0  0  0  0  0  0  0  0  0  0  0
   -2.3182    7.9061    0.0000 O   0  0  0  0  0  0  0  0  0  0  0  0
   -3.7473    6.2567    0.0000 C   0  0  0  0  0  0  0  0  0  0  0  0
   -2.3140    2.9539    0.0000 Cl  0  0  0  0  0  0  0  0  0  0  0  0
   -0.8932    6.2609    0.0000 C   0  0  0  0  0  0  0  0  0  0  0  0
   -3.7473    5.4341    0.0000 C   0  0  0  0  0  0  0  0  0  0  0  0
   -0.8932    7.9019    0.0000 C   0  0  0  0  0  0  0  0  0  0  0  0
   -3.0287    7.4907    0.0000 C   0  0  0  0  0  0  0  0  0  0  0  0
   -0.1827    6.6722    0.0000 C   0  0  0  0  0  0  0  0  0  0  0  0
   -0.1827    7.4824    0.0000 C   0  0  0  0  0  0  0  0  0  0  0  0
  2  8  1  0  0  0  0
  3  4  1  0  0  0  0
  4 10  1  0  0  0  0
  5  1  1  0  0  0  0
  6  1  1  0  0  0  0
  7  3  1  0  0  0  0
  8 18  2  0  0  0  0
  9  7  2  0  0  0  0
 10 14  1  0  0  0  0
 11  5  2  0  0  0  0
 12  3  2  0  0  0  0
 13  2  1  0  0  0  0
 14 11  1  0  0  0  0
 15  2  2  0  0  0  0
 16  5  1  0  0  0  0
 17  4  2  0  0  0  0
 18 12  1  0  0  0  0
 19  6  2  0  0  0  0
 20 16  2  0  0  0  0
 21  7  1  0  0  0  0
 22  1  1  0  0  0  0
 23 20  1  0  0  0  0
 24  6  1  0  0  0  0
 25 16  1  0  0  0  0
 26 22  1  0  0  0  0
 27 26  1  0  0  0  0
 27 24  1  0  0  0  0
 14 23  2  0  0  0  0
  9  8  1  0  0  0  0
M  CHG  2   2   1  13  -1
M  END
>  <IDNUMBER>
F2784-0552

>  <Chemical_Name>
2-chloro-N-[4-methyl-3-(2-oxopiperidin-1-yl)phenyl]-4-nitrobenzamide

>  <PriceCoeff>
1.00

>  <CAS>
941873-25-2

>  <MW>
387.82

>  <Description>
solid

>  <FSP3>
0.26

>  <clogP>
3.40

>  <TPSA>
92.55

>  <Acceptor>
4

>  <Donor>
1

>  <RotBonds>
4

>  <HAC>
27

>  <Collection>
General

>  <PPDS>
+

$$$$
F2784-0669
  Mrv2219 10102508112D          

 28 30  0  0  0  0            999 V2000
   -4.4750    6.6750    0.0000 N   0  0  0  0  0  0  0  0  0  0  0  0
   -3.7708    0.4875    0.0000 N   0  3  0  0  0  0  0  0  0  0  0  0
   -3.7708    2.9833    0.0000 C   0  0  0  0  0  0  0  0  0  0  0  0
   -3.7583    3.8000    0.0000 C   0  0  0  0  0  0  0  0  0  0  0  0
   -3.7625    6.2667    0.0000 C   0  0  0  0  0  0  0  0  0  0  0  0
   -5.1958    6.2542    0.0000 C   0  0  0  0  0  0  0  0  0  0  0  0
   -3.0375    2.5583    0.0000 C   0  0  0  0  0  0  0  0  0  0  0  0
   -3.7625    1.3125    0.0000 C   0  0  0  0  0  0  0  0  0  0  0  0
   -3.0375    1.7250    0.0000 C   0  0  0  0  0  0  0  0  0  0  0  0
   -3.0458    4.2125    0.0000 N   0  0  0  0  0  0  0  0  0  0  0  0
   -3.7583    5.4417    0.0000 C   0  0  0  0  0  0  0  0  0  0  0  0
   -4.4833    2.5625    0.0000 C   0  0  0  0  0  0  0  0  0  0  0  0
   -4.4833    0.0833    0.0000 O   0  5  0  0  0  0  0  0  0  0  0  0
   -3.0500    6.6875    0.0000 C   0  0  0  0  0  0  0  0  0  0  0  0
   -3.0458    5.0292    0.0000 C   0  0  0  0  0  0  0  0  0  0  0  0
   -3.0583    0.0750    0.0000 O   0  0  0  0  0  0  0  0  0  0  0  0
   -4.4750    4.2042    0.0000 O   0  0  0  0  0  0  0  0  0  0  0  0
   -4.4833    1.7333    0.0000 C   0  0  0  0  0  0  0  0  0  0  0  0
   -5.1875    5.4292    0.0000 O   0  0  0  0  0  0  0  0  0  0  0  0
   -2.3333    6.2792    0.0000 C   0  0  0  0  0  0  0  0  0  0  0  0
   -2.3208    2.9625    0.0000 Cl  0  0  0  0  0  0  0  0  0  0  0  0
   -4.4875    7.5042    0.0000 C   0  0  0  0  0  0  0  0  0  0  0  0
   -2.3250    5.4542    0.0000 C   0  0  0  0  0  0  0  0  0  0  0  0
   -3.0583    7.5125    0.0000 O   0  0  0  0  0  0  0  0  0  0  0  0
   -5.9125    6.6667    0.0000 C   0  0  0  0  0  0  0  0  0  0  0  0
   -2.3458    7.9292    0.0000 C   0  0  0  0  0  0  0  0  0  0  0  0
   -5.2083    7.9042    0.0000 C   0  0  0  0  0  0  0  0  0  0  0  0
   -5.9125    7.4875    0.0000 C   0  0  0  0  0  0  0  0  0  0  0  0
  2  8  1  0  0  0  0
  3  4  1  0  0  0  0
  4 10  1  0  0  0  0
  5  1  1  0  0  0  0
  6  1  1  0  0  0  0
  7  3  1  0  0  0  0
  8 18  2  0  0  0  0
  9  7  2  0  0  0  0
 10 15  1  0  0  0  0
 11  5  1  0  0  0  0
 12  3  2  0  0  0  0
 13  2  1  0  0  0  0
 14  5  2  0  0  0  0
 15 11  2  0  0  0  0
 16  2  2  0  0  0  0
 17  4  2  0  0  0  0
 18 12  1  0  0  0  0
 19  6  2  0  0  0  0
 20 14  1  0  0  0  0
 21  7  1  0  0  0  0
 22  1  1  0  0  0  0
 23 20  2  0  0  0  0
 24 14  1  0  0  0  0
 25  6  1  0  0  0  0
 26 24  1  0  0  0  0
 27 22  1  0  0  0  0
 28 27  1  0  0  0  0
 28 25  1  0  0  0  0
 15 23  1  0  0  0  0
  9  8  1  0  0  0  0
M  CHG  2   2   1  13  -1
M  END
>  <IDNUMBER>
F2784-0669

>  <Chemical_Name>
2-chloro-N-[4-methoxy-3-(2-oxopiperidin-1-yl)phenyl]-4-nitrobenzamide

>  <PriceCoeff>
1.00

>  <CAS>
941919-87-5

>  <MW>
403.82

>  <Description>
solid

>  <FSP3>
0.26

>  <clogP>
3.24

>  <TPSA>
101.78

>  <Acceptor>
5

>  <Donor>
1

>  <RotBonds>
5

>  <HAC>
28

>  <Collection>
General

>  <PPDS>
+

$$$$
F2791-0178
  Mrv2219 10102508112D          

 31 34  0  0  0  0            999 V2000
    1.6917    6.2750    0.0000 N   0  3  0  0  0  0  0  0  0  0  0  0
    0.9792    5.8542    0.0000 C   0  0  0  0  0  0  0  0  0  0  0  0
    0.2667    3.7958    0.0000 C   0  0  0  0  0  0  0  0  0  0  0  0
   -0.4500    3.3833    0.0000 N   0  0  0  0  0  0  0  0  0  0  0  0
   -3.9250    1.9083    0.0000 N   0  0  0  0  0  0  0  0  0  0  0  0
   -3.2333    2.3625    0.0000 N   0  0  0  0  0  0  0  0  0  0  0  0
    0.9792    5.0292    0.0000 C   0  0  0  0  0  0  0  0  0  0  0  0
   -1.8833    2.5500    0.0000 N   0  0  0  0  0  0  0  0  0  0  0  0
   -4.5625    0.6375    0.0000 N   0  0  0  0  0  0  0  0  0  0  0  0
    0.2667    4.6167    0.0000 C   0  0  0  0  0  0  0  0  0  0  0  0
   -2.4958    1.9958    0.0000 C   0  0  0  0  0  0  0  0  0  0  0  0
   -3.8750    1.0958    0.0000 C   0  0  0  0  0  0  0  0  0  0  0  0
    0.2625    6.2667    0.0000 C   0  0  0  0  0  0  0  0  0  0  0  0
    2.4125    5.8667    0.0000 O   0  5  0  0  0  0  0  0  0  0  0  0
    1.6917    7.1042    0.0000 O   0  0  0  0  0  0  0  0  0  0  0  0
   -1.1708    3.7958    0.0000 C   0  0  0  0  0  0  0  0  0  0  0  0
   -0.4500    2.5500    0.0000 C   0  0  0  0  0  0  0  0  0  0  0  0
   -1.8833    3.3833    0.0000 C   0  0  0  0  0  0  0  0  0  0  0  0
   -1.1708    2.1458    0.0000 C   0  0  0  0  0  0  0  0  0  0  0  0
    0.9792    3.3833    0.0000 O   0  0  0  0  0  0  0  0  0  0  0  0
   -5.2958    1.0083    0.0000 C   0  0  0  0  0  0  0  0  0  0  0  0
   -4.5083   -0.1875    0.0000 C   0  0  0  0  0  0  0  0  0  0  0  0
   -0.4500    5.0292    0.0000 C   0  0  0  0  0  0  0  0  0  0  0  0
   -2.4458    1.1750    0.0000 C   0  0  0  0  0  0  0  0  0  0  0  0
   -3.1333    0.7208    0.0000 C   0  0  0  0  0  0  0  0  0  0  0  0
   -0.4500    5.8542    0.0000 C   0  0  0  0  0  0  0  0  0  0  0  0
    0.2542    7.1042    0.0000 Cl  0  0  0  0  0  0  0  0  0  0  0  0
   -5.9875    0.5500    0.0000 C   0  0  0  0  0  0  0  0  0  0  0  0
   -5.2083   -0.6417    0.0000 C   0  0  0  0  0  0  0  0  0  0  0  0
   -5.9458   -0.2750    0.0000 C   0  0  0  0  0  0  0  0  0  0  0  0
   -6.6292   -0.7250    0.0000 C   0  0  0  0  0  0  0  0  0  0  0  0
  2  1  1  0  0  0  0
  3 10  1  0  0  0  0
  4  3  1  0  0  0  0
  5  6  1  0  0  0  0
  6 11  2  0  0  0  0
  7  2  2  0  0  0  0
  8 19  1  0  0  0  0
  9 12  1  0  0  0  0
 10  7  1  0  0  0  0
 11  8  1  0  0  0  0
 12 25  1  0  0  0  0
 13  2  1  0  0  0  0
 14  1  1  0  0  0  0
 15  1  2  0  0  0  0
 16  4  1  0  0  0  0
 17  4  1  0  0  0  0
 18 16  1  0  0  0  0
 19 17  1  0  0  0  0
 20  3  2  0  0  0  0
 21  9  1  0  0  0  0
 22  9  1  0  0  0  0
 23 26  1  0  0  0  0
 24 11  1  0  0  0  0
 25 24  2  0  0  0  0
 26 13  2  0  0  0  0
 27 13  1  0  0  0  0
 28 21  1  0  0  0  0
 29 22  1  0  0  0  0
 30 29  1  0  0  0  0
 31 30  1  0  0  0  0
 10 23  2  0  0  0  0
  8 18  1  0  0  0  0
 12  5  2  0  0  0  0
 30 28  1  0  0  0  0
M  CHG  2   1   1  14  -1
M  END
>  <IDNUMBER>
F2791-0178

>  <Chemical_Name>
3-[4-(4-chloro-3-nitrobenzoyl)piperazin-1-yl]-6-(4-methylpiperidin-1-yl)pyridazine

>  <PriceCoeff>
1.00

>  <CAS>
899953-54-9

>  <MW>
444.91

>  <Description>
solid

>  <FSP3>
0.48

>  <clogP>
3.54

>  <TPSA>
95.71

>  <Acceptor>
5

>  <Donor>
2

>  <RotBonds>
5

>  <HAC>
31

>  <Collection>
General

>  <PPDS>
+

$$$$
F2794-0084
  Mrv2219 10102508112D          

 27 29  0  0  0  0            999 V2000
   -3.7366    7.9091    0.0000 S   0  0  0  0  0  0  0  0  0  0  0  0
   -5.1399    1.2912    0.0000 N   0  3  0  0  0  0  0  0  0  0  0  0
   -4.4423    1.7271    0.0000 C   0  0  0  0  0  0  0  0  0  0  0  0
   -3.0266    7.5023    0.0000 N   0  0  0  0  0  0  0  0  0  0  0  0
   -3.7449    3.7864    0.0000 C   0  0  0  0  0  0  0  0  0  0  0  0
   -4.4423    2.5367    0.0000 C   0  0  0  0  0  0  0  0  0  0  0  0
   -3.7491    2.9726    0.0000 C   0  0  0  0  0  0  0  0  0  0  0  0
   -3.0349    4.1974    0.0000 N   0  0  0  0  0  0  0  0  0  0  0  0
   -3.7324    7.0787    0.0000 O   0  0  0  0  0  0  0  0  0  0  0  0
   -4.4423    8.3326    0.0000 O   0  0  0  0  0  0  0  0  0  0  0  0
   -3.0349    6.6678    0.0000 C   0  0  0  0  0  0  0  0  0  0  0  0
   -3.7117    1.3285    0.0000 C   0  0  0  0  0  0  0  0  0  0  0  0
   -5.1274    0.4691    0.0000 O   0  5  0  0  0  0  0  0  0  0  0  0
   -5.8623    1.7063    0.0000 O   0  0  0  0  0  0  0  0  0  0  0  0
   -4.4672    4.1891    0.0000 O   0  0  0  0  0  0  0  0  0  0  0  0
   -3.0224    2.5616    0.0000 C   0  0  0  0  0  0  0  0  0  0  0  0
   -3.7241    8.7354    0.0000 C   0  0  0  0  0  0  0  0  0  0  0  0
   -3.0017    1.7520    0.0000 C   0  0  0  0  0  0  0  0  0  0  0  0
   -3.7491    6.2568    0.0000 C   0  0  0  0  0  0  0  0  0  0  0  0
   -2.3125    6.2568    0.0000 C   0  0  0  0  0  0  0  0  0  0  0  0
   -3.0349    5.0112    0.0000 C   0  0  0  0  0  0  0  0  0  0  0  0
   -3.7075    0.4857    0.0000 Cl  0  0  0  0  0  0  0  0  0  0  0  0
   -2.3043    7.9008    0.0000 C   0  0  0  0  0  0  0  0  0  0  0  0
   -2.3167    5.4305    0.0000 C   0  0  0  0  0  0  0  0  0  0  0  0
   -3.7491    5.4347    0.0000 C   0  0  0  0  0  0  0  0  0  0  0  0
   -3.0100    9.1464    0.0000 C   0  0  0  0  0  0  0  0  0  0  0  0
   -2.3001    8.7229    0.0000 C   0  0  0  0  0  0  0  0  0  0  0  0
  2  3  1  0  0  0  0
  3  6  1  0  0  0  0
  4  1  1  0  0  0  0
  5  8  1  0  0  0  0
  6  7  2  0  0  0  0
  7  5  1  0  0  0  0
  8 21  1  0  0  0  0
  9  1  2  0  0  0  0
 10  1  2  0  0  0  0
 11  4  1  0  0  0  0
 12 18  1  0  0  0  0
 13  2  1  0  0  0  0
 14  2  2  0  0  0  0
 15  5  2  0  0  0  0
 16  7  1  0  0  0  0
 17  1  1  0  0  0  0
 18 16  2  0  0  0  0
 19 11  1  0  0  0  0
 20 11  2  0  0  0  0
 21 24  2  0  0  0  0
 22 12  1  0  0  0  0
 23  4  1  0  0  0  0
 24 20  1  0  0  0  0
 25 19  2  0  0  0  0
 26 17  1  0  0  0  0
 27 26  1  0  0  0  0
 23 27  1  0  0  0  0
 25 21  1  0  0  0  0
 12  3  2  0  0  0  0
M  CHG  2   2   1  13  -1
M  END
>  <IDNUMBER>
F2794-0084

>  <Chemical_Name>
4-chloro-N-[4-(1,1-dioxo-1??,2-thiazinan-2-yl)phenyl]-3-nitrobenzamide

>  <PriceCoeff>
1.00

>  <CAS>
899976-24-0

>  <MW>
409.84

>  <Description>
solid

>  <FSP3>
0.24

>  <clogP>
2.97

>  <TPSA>
118.00

>  <Acceptor>
6

>  <Donor>
1

>  <RotBonds>
4

>  <HAC>
27

>  <Collection>
General

>  <PPDS>
+

$$$$
F2794-0088
  Mrv2219 10102508112D          

 27 29  0  0  0  0            999 V2000
   -3.7310    7.8972    0.0000 S   0  0  0  0  0  0  0  0  0  0  0  0
   -3.0221    7.4910    0.0000 N   0  0  0  0  0  0  0  0  0  0  0  0
   -3.7517    0.4850    0.0000 N   0  3  0  0  0  0  0  0  0  0  0  0
   -3.7517    2.9682    0.0000 C   0  0  0  0  0  0  0  0  0  0  0  0
   -3.7392    3.7807    0.0000 C   0  0  0  0  0  0  0  0  0  0  0  0
   -3.0221    2.5453    0.0000 C   0  0  0  0  0  0  0  0  0  0  0  0
   -3.7434    1.3058    0.0000 C   0  0  0  0  0  0  0  0  0  0  0  0
   -3.0221    1.7162    0.0000 C   0  0  0  0  0  0  0  0  0  0  0  0
   -3.0303    4.1911    0.0000 N   0  0  0  0  0  0  0  0  0  0  0  0
   -4.4357    8.3200    0.0000 O   0  0  0  0  0  0  0  0  0  0  0  0
   -3.7268    7.0681    0.0000 O   0  0  0  0  0  0  0  0  0  0  0  0
   -4.4605    2.5495    0.0000 C   0  0  0  0  0  0  0  0  0  0  0  0
   -3.0303    6.6577    0.0000 C   0  0  0  0  0  0  0  0  0  0  0  0
   -4.4605    0.0829    0.0000 O   0  5  0  0  0  0  0  0  0  0  0  0
   -3.0428    0.0746    0.0000 O   0  0  0  0  0  0  0  0  0  0  0  0
   -4.4523    4.1829    0.0000 O   0  0  0  0  0  0  0  0  0  0  0  0
   -4.4605    1.7245    0.0000 C   0  0  0  0  0  0  0  0  0  0  0  0
   -3.7185    8.7222    0.0000 C   0  0  0  0  0  0  0  0  0  0  0  0
   -3.7434    6.2473    0.0000 C   0  0  0  0  0  0  0  0  0  0  0  0
   -2.3090    6.2473    0.0000 C   0  0  0  0  0  0  0  0  0  0  0  0
   -3.0303    5.0037    0.0000 C   0  0  0  0  0  0  0  0  0  0  0  0
   -2.3090    2.9475    0.0000 Cl  0  0  0  0  0  0  0  0  0  0  0  0
   -2.3008    7.8889    0.0000 C   0  0  0  0  0  0  0  0  0  0  0  0
   -2.3132    5.4223    0.0000 C   0  0  0  0  0  0  0  0  0  0  0  0
   -3.7434    5.4265    0.0000 C   0  0  0  0  0  0  0  0  0  0  0  0
   -3.0055    9.1326    0.0000 C   0  0  0  0  0  0  0  0  0  0  0  0
   -2.2966    8.7097    0.0000 C   0  0  0  0  0  0  0  0  0  0  0  0
  2  1  1  0  0  0  0
  3  7  1  0  0  0  0
  4  5  1  0  0  0  0
  5  9  1  0  0  0  0
  6  4  1  0  0  0  0
  7 17  2  0  0  0  0
  8  6  2  0  0  0  0
  9 21  1  0  0  0  0
 10  1  2  0  0  0  0
 11  1  2  0  0  0  0
 12  4  2  0  0  0  0
 13  2  1  0  0  0  0
 14  3  1  0  0  0  0
 15  3  2  0  0  0  0
 16  5  2  0  0  0  0
 17 12  1  0  0  0  0
 18  1  1  0  0  0  0
 19 13  1  0  0  0  0
 20 13  2  0  0  0  0
 21 24  2  0  0  0  0
 22  6  1  0  0  0  0
 23  2  1  0  0  0  0
 24 20  1  0  0  0  0
 25 19  2  0  0  0  0
 26 18  1  0  0  0  0
 27 26  1  0  0  0  0
 23 27  1  0  0  0  0
 25 21  1  0  0  0  0
  8  7  1  0  0  0  0
M  CHG  2   3   1  14  -1
M  END
>  <IDNUMBER>
F2794-0088

>  <Chemical_Name>
2-chloro-N-[4-(1,1-dioxo-1??,2-thiazinan-2-yl)phenyl]-4-nitrobenzamide

>  <PriceCoeff>
1.00

>  <CAS>
899731-85-2

>  <MW>
409.84

>  <Description>
solid

>  <FSP3>
0.24

>  <clogP>
2.29

>  <TPSA>
118.00

>  <Acceptor>
6

>  <Donor>
1

>  <RotBonds>
4

>  <HAC>
27

>  <Collection>
General

>  <PPDS>
+

$$$$
F2806-0037
  Mrv2219 10102508112D          

 25 28  0  0  0  0            999 V2000
    2.6562    3.1156    0.0000 N   0  0  0  0  0  0  0  0  0  0  0  0
    2.9611    3.8798    0.0000 C   0  0  0  0  0  0  0  0  0  0  0  0
    3.2869    2.5893    0.0000 C   0  0  0  0  0  0  0  0  0  0  0  0
   -0.5764    2.4390    0.0000 C   0  0  0  0  0  0  0  0  0  0  0  0
   -4.3727    2.5392    0.0000 N   0  0  0  0  0  0  0  0  0  0  0  0
   -1.1276    3.0529    0.0000 N   0  0  0  0  0  0  0  0  0  0  0  0
   -3.2910    3.3286    0.0000 C   0  0  0  0  0  0  0  0  0  0  0  0
   -4.5940    3.3411    0.0000 C   0  0  0  0  0  0  0  0  0  0  0  0
   -3.9675    3.8088    0.0000 S   0  0  0  0  0  0  0  0  0  0  0  0
    1.8460    2.9444    0.0000 C   0  0  0  0  0  0  0  0  0  0  0  0
   -3.5540    2.5392    0.0000 C   0  0  0  0  0  0  0  0  0  0  0  0
   -2.4891    3.4914    0.0000 C   0  0  0  0  0  0  0  0  0  0  0  0
    0.2298    2.6144    0.0000 C   0  0  0  0  0  0  0  0  0  0  0  0
   -1.9379    2.8817    0.0000 C   0  0  0  0  0  0  0  0  0  0  0  0
    3.7880    3.8172    0.0000 C   0  0  0  0  0  0  0  0  0  0  0  0
    3.9759    3.0279    0.0000 C   0  0  0  0  0  0  0  0  0  0  0  0
   -0.8352    1.6539    0.0000 O   0  0  0  0  0  0  0  0  0  0  0  0
    2.5226    4.5899    0.0000 O   0  0  0  0  0  0  0  0  0  0  0  0
    3.2326    1.7624    0.0000 O   0  0  0  0  0  0  0  0  0  0  0  0
    1.2947    3.5666    0.0000 C   0  0  0  0  0  0  0  0  0  0  0  0
    1.5829    2.1675    0.0000 C   0  0  0  0  0  0  0  0  0  0  0  0
    0.7768    2.0005    0.0000 C   0  0  0  0  0  0  0  0  0  0  0  0
    0.4887    3.4038    0.0000 C   0  0  0  0  0  0  0  0  0  0  0  0
   -3.0028    1.9253    0.0000 C   0  0  0  0  0  0  0  0  0  0  0  0
   -2.1926    2.0923    0.0000 C   0  0  0  0  0  0  0  0  0  0  0  0
  2  1  1  0  0  0  0
  3  1  1  0  0  0  0
  4 13  1  0  0  0  0
  5 11  1  0  0  0  0
  6  4  1  0  0  0  0
  7 12  1  0  0  0  0
  8  9  1  0  0  0  0
  9  7  1  0  0  0  0
 10  1  1  0  0  0  0
 11 24  1  0  0  0  0
 12 14  2  0  0  0  0
 13 22  2  0  0  0  0
 14  6  1  0  0  0  0
 15  2  1  0  0  0  0
 16  3  1  0  0  0  0
 17  4  2  0  0  0  0
 18  2  2  0  0  0  0
 19  3  2  0  0  0  0
 20 10  1  0  0  0  0
 21 10  2  0  0  0  0
 22 21  1  0  0  0  0
 23 20  2  0  0  0  0
 24 25  2  0  0  0  0
 25 14  1  0  0  0  0
 15 16  1  0  0  0  0
 23 13  1  0  0  0  0
 11  7  2  0  0  0  0
  8  5  2  0  0  0  0
M  END
>  <IDNUMBER>
F2806-0037

>  <Chemical_Name>
N-(1,3-benzothiazol-6-yl)-4-(2,5-dioxopyrrolidin-1-yl)benzamide

>  <PriceCoeff>
1.00

>  <MW>
351.38

>  <Description>
solid

>  <FSP3>
0.11

>  <clogP>
1.40

>  <TPSA>
110.02

>  <Acceptor>
4

>  <Donor>
1

>  <RotBonds>
3

>  <HAC>
25

>  <Collection>
General

$$$$
F2823-0077
  Mrv2219 10102508112D          

 27 29  0  0  0  0            999 V2000
   -2.8151    1.5449    0.0000 C   0  0  0  0  0  0  0  0  0  0  0  0
   -2.8151    2.2803    0.0000 C   0  0  0  0  0  0  0  0  0  0  0  0
   -3.4501    1.1773    0.0000 N   0  0  0  0  0  0  0  0  0  0  0  0
   -1.5449    2.2803    0.0000 N   0  0  0  0  0  0  0  0  0  0  0  0
   -2.1800    1.1810    0.0000 N   0  0  0  0  0  0  0  0  0  0  0  0
   -2.1800    2.6591    0.0000 C   0  0  0  0  0  0  0  0  0  0  0  0
   -4.0852    1.5449    0.0000 N   0  0  0  0  0  0  0  0  0  0  0  0
    2.4177    0.6796    0.0000 N   0  3  0  0  0  0  0  0  0  0  0  0
    1.9089    1.3221    0.0000 C   0  0  0  0  0  0  0  0  0  0  0  0
   -1.5449    1.5449    0.0000 C   0  0  0  0  0  0  0  0  0  0  0  0
   -4.0852    2.2803    0.0000 C   0  0  0  0  0  0  0  0  0  0  0  0
   -0.7539    2.3917    0.0000 N   0  0  0  0  0  0  0  0  0  0  0  0
   -0.2525    1.7455    0.0000 C   0  0  0  0  0  0  0  0  0  0  0  0
    1.0807    1.2107    0.0000 C   0  0  0  0  0  0  0  0  0  0  0  0
    0.5720    1.8569    0.0000 C   0  0  0  0  0  0  0  0  0  0  0  0
   -3.4501    0.3528    0.0000 C   0  0  0  0  0  0  0  0  0  0  0  0
    2.2098    2.1057    0.0000 C   0  0  0  0  0  0  0  0  0  0  0  0
    2.1206   -0.0817    0.0000 O   0  5  0  0  0  0  0  0  0  0  0  0
    3.2348    0.7984    0.0000 O   0  0  0  0  0  0  0  0  0  0  0  0
   -2.1800    3.3870    0.0000 O   0  0  0  0  0  0  0  0  0  0  0  0
   -0.5571    0.9767    0.0000 O   0  0  0  0  0  0  0  0  0  0  0  0
    0.8728    2.6257    0.0000 C   0  0  0  0  0  0  0  0  0  0  0  0
    1.6935    2.7594    0.0000 C   0  0  0  0  0  0  0  0  0  0  0  0
    3.0194    2.2246    0.0000 Cl  0  0  0  0  0  0  0  0  0  0  0  0
   -3.4501   -0.4717    0.0000 C   0  0  0  0  0  0  0  0  0  0  0  0
   -4.2746    0.3528    0.0000 C   0  0  0  0  0  0  0  0  0  0  0  0
   -2.6183    0.3528    0.0000 C   0  0  0  0  0  0  0  0  0  0  0  0
  2  1  2  0  0  0  0
  3  1  1  0  0  0  0
  4 10  1  0  0  0  0
  5  1  1  0  0  0  0
  6  2  1  0  0  0  0
  7  3  1  0  0  0  0
  8  9  1  0  0  0  0
  9 14  2  0  0  0  0
 10  5  2  0  0  0  0
 11  2  1  0  0  0  0
 12  4  1  0  0  0  0
 13 12  1  0  0  0  0
 14 15  1  0  0  0  0
 15 13  1  0  0  0  0
 16  3  1  0  0  0  0
 17 23  2  0  0  0  0
 18  8  1  0  0  0  0
 19  8  2  0  0  0  0
 20  6  2  0  0  0  0
 21 13  2  0  0  0  0
 22 15  2  0  0  0  0
 23 22  1  0  0  0  0
 24 17  1  0  0  0  0
 25 16  1  0  0  0  0
 26 16  1  0  0  0  0
 27 16  1  0  0  0  0
 11  7  2  0  0  0  0
  4  6  1  0  0  0  0
 17  9  1  0  0  0  0
M  CHG  2   8   1  18  -1
M  END
>  <IDNUMBER>
F2823-0077

>  <Chemical_Name>
N-{1-tert-butyl-4-oxo-1H,4H,5H-pyrazolo[3,4-d]pyrimidin-5-yl}-4-chloro-3-nitrobenzamide

>  <PriceCoeff>
1.00

>  <CAS>
899945-34-7

>  <MW>
390.78

>  <Description>
solid

>  <FSP3>
0.25

>  <clogP>
0.97

>  <TPSA>
122.73

>  <Acceptor>
6

>  <Donor>
1

>  <RotBonds>
3

>  <HAC>
27

>  <Collection>
General

>  <PPDS>
+

$$$$
F2823-0236
  Mrv2219 10102508112D          

 29 32  0  0  0  0            999 V2000
   -2.8169    1.5459    0.0000 C   0  0  0  0  0  0  0  0  0  0  0  0
   -2.8169    2.2817    0.0000 C   0  0  0  0  0  0  0  0  0  0  0  0
   -1.5459    2.2817    0.0000 N   0  0  0  0  0  0  0  0  0  0  0  0
   -2.1814    1.1818    0.0000 N   0  0  0  0  0  0  0  0  0  0  0  0
   -3.4523    1.1780    0.0000 N   0  0  0  0  0  0  0  0  0  0  0  0
   -2.1814    2.6608    0.0000 C   0  0  0  0  0  0  0  0  0  0  0  0
   -4.0878    1.5459    0.0000 N   0  0  0  0  0  0  0  0  0  0  0  0
    2.4193    0.6801    0.0000 N   0  3  0  0  0  0  0  0  0  0  0  0
    1.9102    1.3229    0.0000 C   0  0  0  0  0  0  0  0  0  0  0  0
   -1.5459    1.5459    0.0000 C   0  0  0  0  0  0  0  0  0  0  0  0
   -4.0878    2.2817    0.0000 C   0  0  0  0  0  0  0  0  0  0  0  0
   -0.7544    2.3932    0.0000 N   0  0  0  0  0  0  0  0  0  0  0  0
   -0.2527    1.7466    0.0000 C   0  0  0  0  0  0  0  0  0  0  0  0
    1.0814    1.2115    0.0000 C   0  0  0  0  0  0  0  0  0  0  0  0
    0.5723    1.8581    0.0000 C   0  0  0  0  0  0  0  0  0  0  0  0
    2.2112    2.1071    0.0000 C   0  0  0  0  0  0  0  0  0  0  0  0
    2.1220   -0.0818    0.0000 O   0  5  0  0  0  0  0  0  0  0  0  0
    3.2369    0.7990    0.0000 O   0  0  0  0  0  0  0  0  0  0  0  0
   -3.4523    0.3530    0.0000 C   0  0  0  0  0  0  0  0  0  0  0  0
   -2.1814    3.3892    0.0000 O   0  0  0  0  0  0  0  0  0  0  0  0
   -0.5574    0.9773    0.0000 O   0  0  0  0  0  0  0  0  0  0  0  0
    0.8733    2.6273    0.0000 C   0  0  0  0  0  0  0  0  0  0  0  0
    1.6946    2.7611    0.0000 C   0  0  0  0  0  0  0  0  0  0  0  0
    3.0213    2.2260    0.0000 Cl  0  0  0  0  0  0  0  0  0  0  0  0
   -4.1658   -0.0595    0.0000 C   0  0  0  0  0  0  0  0  0  0  0  0
   -2.7388   -0.0557    0.0000 C   0  0  0  0  0  0  0  0  0  0  0  0
   -2.7277   -0.8733    0.0000 C   0  0  0  0  0  0  0  0  0  0  0  0
   -4.1658   -0.8845    0.0000 C   0  0  0  0  0  0  0  0  0  0  0  0
   -3.4412   -1.2970    0.0000 C   0  0  0  0  0  0  0  0  0  0  0  0
  2  1  2  0  0  0  0
  3 10  1  0  0  0  0
  4  1  1  0  0  0  0
  5  1  1  0  0  0  0
  6  2  1  0  0  0  0
  7  5  1  0  0  0  0
  8  9  1  0  0  0  0
  9 14  2  0  0  0  0
 10  4  2  0  0  0  0
 11  2  1  0  0  0  0
 12  3  1  0  0  0  0
 13 12  1  0  0  0  0
 14 15  1  0  0  0  0
 15 13  1  0  0  0  0
 16 23  2  0  0  0  0
 17  8  1  0  0  0  0
 18  8  2  0  0  0  0
 19  5  1  0  0  0  0
 20  6  2  0  0  0  0
 21 13  2  0  0  0  0
 22 15  2  0  0  0  0
 23 22  1  0  0  0  0
 24 16  1  0  0  0  0
 25 19  2  0  0  0  0
 26 19  1  0  0  0  0
 27 26  2  0  0  0  0
 28 25  1  0  0  0  0
 29 27  1  0  0  0  0
 11  7  2  0  0  0  0
  3  6  1  0  0  0  0
 28 29  2  0  0  0  0
 16  9  1  0  0  0  0
M  CHG  2   8   1  17  -1
M  END
>  <IDNUMBER>
F2823-0236

>  <Chemical_Name>
4-chloro-3-nitro-N-{4-oxo-1-phenyl-1H,4H,5H-pyrazolo[3,4-d]pyrimidin-5-yl}benzamide

>  <PriceCoeff>
1.00

>  <CAS>
899996-45-3

>  <MW>
410.77

>  <Description>
solid

>  <FSP3>
0.00

>  <clogP>
1.67

>  <TPSA>
122.73

>  <Acceptor>
6

>  <Donor>
1

>  <RotBonds>
4

>  <HAC>
29

>  <Collection>
General

>  <PPDS>
+

$$$$
F2823-0395
  Mrv2219 10102508112D          

 30 33  0  0  0  0            999 V2000
   -2.8168    1.5459    0.0000 C   0  0  0  0  0  0  0  0  0  0  0  0
   -2.8168    2.2817    0.0000 C   0  0  0  0  0  0  0  0  0  0  0  0
   -1.5459    2.2817    0.0000 N   0  0  0  0  0  0  0  0  0  0  0  0
   -2.1813    1.1817    0.0000 N   0  0  0  0  0  0  0  0  0  0  0  0
   -3.4523    1.1780    0.0000 N   0  0  0  0  0  0  0  0  0  0  0  0
   -2.1813    2.6607    0.0000 C   0  0  0  0  0  0  0  0  0  0  0  0
   -4.0877    1.5459    0.0000 N   0  0  0  0  0  0  0  0  0  0  0  0
    2.4192    0.6801    0.0000 N   0  3  0  0  0  0  0  0  0  0  0  0
    1.9101    1.3229    0.0000 C   0  0  0  0  0  0  0  0  0  0  0  0
   -1.5459    1.5459    0.0000 C   0  0  0  0  0  0  0  0  0  0  0  0
   -4.0877    2.2817    0.0000 C   0  0  0  0  0  0  0  0  0  0  0  0
   -0.7543    2.3932    0.0000 N   0  0  0  0  0  0  0  0  0  0  0  0
   -0.2527    1.7466    0.0000 C   0  0  0  0  0  0  0  0  0  0  0  0
    1.0814    1.2114    0.0000 C   0  0  0  0  0  0  0  0  0  0  0  0
    0.5723    1.8580    0.0000 C   0  0  0  0  0  0  0  0  0  0  0  0
   -3.4523    0.3530    0.0000 C   0  0  0  0  0  0  0  0  0  0  0  0
    2.2111    2.1071    0.0000 C   0  0  0  0  0  0  0  0  0  0  0  0
    2.1219   -0.0818    0.0000 O   0  5  0  0  0  0  0  0  0  0  0  0
    3.2368    0.7989    0.0000 O   0  0  0  0  0  0  0  0  0  0  0  0
   -2.1813    3.3891    0.0000 O   0  0  0  0  0  0  0  0  0  0  0  0
   -0.5574    0.9773    0.0000 O   0  0  0  0  0  0  0  0  0  0  0  0
    0.8733    2.6273    0.0000 C   0  0  0  0  0  0  0  0  0  0  0  0
    1.6946    2.7611    0.0000 C   0  0  0  0  0  0  0  0  0  0  0  0
   -2.7388   -0.0557    0.0000 C   0  0  0  0  0  0  0  0  0  0  0  0
   -4.1658   -0.0595    0.0000 C   0  0  0  0  0  0  0  0  0  0  0  0
    3.0212    2.2259    0.0000 Cl  0  0  0  0  0  0  0  0  0  0  0  0
   -2.7276   -0.8733    0.0000 C   0  0  0  0  0  0  0  0  0  0  0  0
   -4.1658   -0.8845    0.0000 C   0  0  0  0  0  0  0  0  0  0  0  0
   -3.4411   -1.2970    0.0000 C   0  0  0  0  0  0  0  0  0  0  0  0
   -3.4337   -2.1219    0.0000 C   0  0  0  0  0  0  0  0  0  0  0  0
  2  1  2  0  0  0  0
  3 10  1  0  0  0  0
  4  1  1  0  0  0  0
  5  1  1  0  0  0  0
  6  2  1  0  0  0  0
  7  5  1  0  0  0  0
  8  9  1  0  0  0  0
  9 14  2  0  0  0  0
 10  4  2  0  0  0  0
 11  2  1  0  0  0  0
 12  3  1  0  0  0  0
 13 12  1  0  0  0  0
 14 15  1  0  0  0  0
 15 13  1  0  0  0  0
 16  5  1  0  0  0  0
 17 23  2  0  0  0  0
 18  8  1  0  0  0  0
 19  8  2  0  0  0  0
 20  6  2  0  0  0  0
 21 13  2  0  0  0  0
 22 15  2  0  0  0  0
 23 22  1  0  0  0  0
 24 16  1  0  0  0  0
 25 16  2  0  0  0  0
 26 17  1  0  0  0  0
 27 24  2  0  0  0  0
 28 25  1  0  0  0  0
 29 28  2  0  0  0  0
 30 29  1  0  0  0  0
 11  7  2  0  0  0  0
  3  6  1  0  0  0  0
 27 29  1  0  0  0  0
 17  9  1  0  0  0  0
M  CHG  2   8   1  18  -1
M  END
>  <IDNUMBER>
F2823-0395

>  <Chemical_Name>
4-chloro-N-[1-(4-methylphenyl)-4-oxo-1H,4H,5H-pyrazolo[3,4-d]pyrimidin-5-yl]-3-nitrobenzamide

>  <PriceCoeff>
1.00

>  <CAS>
899966-69-9

>  <MW>
424.80

>  <Description>
solid

>  <FSP3>
0.05

>  <clogP>
2.17

>  <TPSA>
122.73

>  <Acceptor>
6

>  <Donor>
1

>  <RotBonds>
4

>  <HAC>
30

>  <Collection>
General

>  <PPDS>
+

$$$$
F2823-0872
  Mrv2219 10102508112D          

 31 34  0  0  0  0            999 V2000
   -2.8167    1.5459    0.0000 C   0  0  0  0  0  0  0  0  0  0  0  0
   -2.8167    2.2816    0.0000 C   0  0  0  0  0  0  0  0  0  0  0  0
   -3.4522    1.1780    0.0000 N   0  0  0  0  0  0  0  0  0  0  0  0
   -1.5459    2.2816    0.0000 N   0  0  0  0  0  0  0  0  0  0  0  0
   -2.1813    1.1817    0.0000 N   0  0  0  0  0  0  0  0  0  0  0  0
   -2.1813    2.6607    0.0000 C   0  0  0  0  0  0  0  0  0  0  0  0
   -4.0876    1.5459    0.0000 N   0  0  0  0  0  0  0  0  0  0  0  0
    2.4192    0.6800    0.0000 N   0  3  0  0  0  0  0  0  0  0  0  0
    1.9101    1.3229    0.0000 C   0  0  0  0  0  0  0  0  0  0  0  0
   -1.5459    1.5459    0.0000 C   0  0  0  0  0  0  0  0  0  0  0  0
   -4.0876    2.2816    0.0000 C   0  0  0  0  0  0  0  0  0  0  0  0
   -0.7543    2.3931    0.0000 N   0  0  0  0  0  0  0  0  0  0  0  0
   -0.2527    1.7465    0.0000 C   0  0  0  0  0  0  0  0  0  0  0  0
   -3.4522    0.3530    0.0000 C   0  0  0  0  0  0  0  0  0  0  0  0
    1.0814    1.2114    0.0000 C   0  0  0  0  0  0  0  0  0  0  0  0
    0.5723    1.8580    0.0000 C   0  0  0  0  0  0  0  0  0  0  0  0
   -2.7387   -0.0557    0.0000 C   0  0  0  0  0  0  0  0  0  0  0  0
    2.2111    2.1070    0.0000 C   0  0  0  0  0  0  0  0  0  0  0  0
    2.1219   -0.0818    0.0000 O   0  5  0  0  0  0  0  0  0  0  0  0
   -2.7276   -0.8733    0.0000 C   0  0  0  0  0  0  0  0  0  0  0  0
    3.2367    0.7989    0.0000 O   0  0  0  0  0  0  0  0  0  0  0  0
   -2.1813    3.3891    0.0000 O   0  0  0  0  0  0  0  0  0  0  0  0
   -0.5574    0.9773    0.0000 O   0  0  0  0  0  0  0  0  0  0  0  0
   -4.1657   -0.0595    0.0000 C   0  0  0  0  0  0  0  0  0  0  0  0
   -3.4410   -1.2969    0.0000 C   0  0  0  0  0  0  0  0  0  0  0  0
    0.8733    2.6272    0.0000 C   0  0  0  0  0  0  0  0  0  0  0  0
    1.6945    2.7610    0.0000 C   0  0  0  0  0  0  0  0  0  0  0  0
   -4.1657   -0.8845    0.0000 C   0  0  0  0  0  0  0  0  0  0  0  0
    3.0212    2.2259    0.0000 Cl  0  0  0  0  0  0  0  0  0  0  0  0
   -2.0029   -1.2820    0.0000 C   0  0  0  0  0  0  0  0  0  0  0  0
   -3.4336   -2.1219    0.0000 C   0  0  0  0  0  0  0  0  0  0  0  0
  2  1  2  0  0  0  0
  3  1  1  0  0  0  0
  4 10  1  0  0  0  0
  5  1  1  0  0  0  0
  6  2  1  0  0  0  0
  7  3  1  0  0  0  0
  8  9  1  0  0  0  0
  9 15  2  0  0  0  0
 10  5  2  0  0  0  0
 11  2  1  0  0  0  0
 12  4  1  0  0  0  0
 13 12  1  0  0  0  0
 14  3  1  0  0  0  0
 15 16  1  0  0  0  0
 16 13  1  0  0  0  0
 17 14  1  0  0  0  0
 18 27  2  0  0  0  0
 19  8  1  0  0  0  0
 20 17  2  0  0  0  0
 21  8  2  0  0  0  0
 22  6  2  0  0  0  0
 23 13  2  0  0  0  0
 24 14  2  0  0  0  0
 25 28  2  0  0  0  0
 26 16  2  0  0  0  0
 27 26  1  0  0  0  0
 28 24  1  0  0  0  0
 29 18  1  0  0  0  0
 30 20  1  0  0  0  0
 31 25  1  0  0  0  0
 11  7  2  0  0  0  0
  4  6  1  0  0  0  0
 20 25  1  0  0  0  0
 18  9  1  0  0  0  0
M  CHG  2   8   1  19  -1
M  END
>  <IDNUMBER>
F2823-0872

>  <Chemical_Name>
4-chloro-N-[1-(3,4-dimethylphenyl)-4-oxo-1H,4H,5H-pyrazolo[3,4-d]pyrimidin-5-yl]-3-nitrobenzamide

>  <PriceCoeff>
1.00

>  <CAS>
900008-97-1

>  <MW>
438.82

>  <Description>
solid

>  <FSP3>
0.10

>  <clogP>
2.62

>  <TPSA>
122.73

>  <Acceptor>
6

>  <Donor>
1

>  <RotBonds>
4

>  <HAC>
31

>  <Collection>
General

>  <PPDS>
+

$$$$
F2843-0109
  Mrv2219 10102508112D          

 25 27  0  0  0  0            999 V2000
    2.8042   -0.9125    0.0000 N   0  0  0  0  0  0  0  0  0  0  0  0
    3.5167   -0.4917    0.0000 C   0  0  0  0  0  0  0  0  0  0  0  0
    2.0875   -0.5000    0.0000 C   0  0  0  0  0  0  0  0  0  0  0  0
    3.5167    0.3458    0.0000 C   0  0  0  0  0  0  0  0  0  0  0  0
    1.3667   -0.9167    0.0000 N   0  0  0  0  0  0  0  0  0  0  0  0
    4.2375   -0.9000    0.0000 O   0  0  0  0  0  0  0  0  0  0  0  0
    2.8125   -1.7375    0.0000 C   0  0  0  0  0  0  0  0  0  0  0  0
    2.4292    0.1250    0.0000 O   0  0  0  0  0  0  0  0  0  0  0  0
    2.8000    0.7500    0.0000 C   0  0  0  0  0  0  0  0  0  0  0  0
    4.2292    0.7500    0.0000 C   0  0  0  0  0  0  0  0  0  0  0  0
    4.9500    0.3375    0.0000 F   0  0  0  0  0  0  0  0  0  0  0  0
    2.0792    0.3333    0.0000 F   0  0  0  0  0  0  0  0  0  0  0  0
    0.6500   -0.5042    0.0000 C   0  0  0  0  0  0  0  0  0  0  0  0
    1.3667   -1.7500    0.0000 C   0  0  0  0  0  0  0  0  0  0  0  0
    3.5042    1.9833    0.0000 C   0  0  0  0  0  0  0  0  0  0  0  0
    2.7875    1.5708    0.0000 C   0  0  0  0  0  0  0  0  0  0  0  0
    4.2292    1.5750    0.0000 C   0  0  0  0  0  0  0  0  0  0  0  0
    3.5292   -2.1417    0.0000 C   0  0  0  0  0  0  0  0  0  0  0  0
    2.1000   -2.1500    0.0000 C   0  0  0  0  0  0  0  0  0  0  0  0
    0.6500   -2.1625    0.0000 C   0  0  0  0  0  0  0  0  0  0  0  0
   -0.0625   -0.9167    0.0000 C   0  0  0  0  0  0  0  0  0  0  0  0
    2.1000   -2.9750    0.0000 C   0  0  0  0  0  0  0  0  0  0  0  0
    3.5292   -2.9667    0.0000 C   0  0  0  0  0  0  0  0  0  0  0  0
    2.8167   -3.3875    0.0000 C   0  0  0  0  0  0  0  0  0  0  0  0
   -0.0625   -1.7500    0.0000 C   0  0  0  0  0  0  0  0  0  0  0  0
  2  1  1  0  0  0  0
  3  1  1  0  0  0  0
  4  2  1  0  0  0  0
  5  3  1  0  0  0  0
  6  2  2  0  0  0  0
  7  1  1  0  0  0  0
  8  3  2  0  0  0  0
  9  4  2  0  0  0  0
 10  4  1  0  0  0  0
 11 10  1  0  0  0  0
 12  9  1  0  0  0  0
 13  5  1  0  0  0  0
 14  5  1  0  0  0  0
 15 17  1  0  0  0  0
 16  9  1  0  0  0  0
 17 10  2  0  0  0  0
 18  7  2  0  0  0  0
 19  7  1  0  0  0  0
 20 14  1  0  0  0  0
 21 13  1  0  0  0  0
 22 19  2  0  0  0  0
 23 18  1  0  0  0  0
 24 22  1  0  0  0  0
 25 20  1  0  0  0  0
 24 23  2  0  0  0  0
 15 16  2  0  0  0  0
 25 21  1  0  0  0  0
M  END
>  <IDNUMBER>
F2843-0109

>  <Chemical_Name>
N-(2,6-difluorobenzoyl)-N-phenylpiperidine-1-carboxamide

>  <PriceCoeff>
1.00

>  <CAS>
899992-39-3

>  <MW>
344.36

>  <Description>
solid

>  <FSP3>
0.26

>  <clogP>
3.85

>  <TPSA>
40.62

>  <Acceptor>
2

>  <Donor>
0

>  <RotBonds>
5

>  <HAC>
25

>  <Collection>
General

>  <PPDS>
+

$$$$
F2843-0123
  Mrv2219 10102508112D          

 27 29  0  0  0  0            999 V2000
   -1.7125    2.5625    0.0000 N   0  0  0  0  0  0  0  0  0  0  0  0
   -2.4333    2.9833    0.0000 C   0  0  0  0  0  0  0  0  0  0  0  0
    0.4042    5.4792    0.0000 N   0  3  0  0  0  0  0  0  0  0  0  0
   -0.2958    5.0542    0.0000 C   0  0  0  0  0  0  0  0  0  0  0  0
   -1.0000    2.9833    0.0000 C   0  0  0  0  0  0  0  0  0  0  0  0
   -3.1583    2.5583    0.0000 N   0  0  0  0  0  0  0  0  0  0  0  0
   -1.0083    3.8083    0.0000 C   0  0  0  0  0  0  0  0  0  0  0  0
   -0.2958    4.2167    0.0000 C   0  0  0  0  0  0  0  0  0  0  0  0
   -1.0333    5.4625    0.0000 C   0  0  0  0  0  0  0  0  0  0  0  0
    1.1292    5.0792    0.0000 O   0  5  0  0  0  0  0  0  0  0  0  0
   -1.7083    1.7375    0.0000 C   0  0  0  0  0  0  0  0  0  0  0  0
   -2.4375    3.8000    0.0000 O   0  0  0  0  0  0  0  0  0  0  0  0
    0.4000    6.3042    0.0000 O   0  0  0  0  0  0  0  0  0  0  0  0
   -0.2833    2.5708    0.0000 O   0  0  0  0  0  0  0  0  0  0  0  0
   -1.7250    4.2042    0.0000 C   0  0  0  0  0  0  0  0  0  0  0  0
   -1.7458    5.0292    0.0000 C   0  0  0  0  0  0  0  0  0  0  0  0
   -1.0458    6.2792    0.0000 Cl  0  0  0  0  0  0  0  0  0  0  0  0
   -3.1583    1.7250    0.0000 C   0  0  0  0  0  0  0  0  0  0  0  0
   -3.8708    2.9708    0.0000 C   0  0  0  0  0  0  0  0  0  0  0  0
   -0.9958    1.3333    0.0000 C   0  0  0  0  0  0  0  0  0  0  0  0
   -2.4208    1.3250    0.0000 C   0  0  0  0  0  0  0  0  0  0  0  0
   -3.8708    1.3125    0.0000 C   0  0  0  0  0  0  0  0  0  0  0  0
   -4.5833    2.5583    0.0000 C   0  0  0  0  0  0  0  0  0  0  0  0
   -2.4208    0.5000    0.0000 C   0  0  0  0  0  0  0  0  0  0  0  0
   -0.9875    0.5083    0.0000 C   0  0  0  0  0  0  0  0  0  0  0  0
   -1.7000    0.0875    0.0000 C   0  0  0  0  0  0  0  0  0  0  0  0
   -4.5833    1.7250    0.0000 C   0  0  0  0  0  0  0  0  0  0  0  0
  2  1  1  0  0  0  0
  3  4  1  0  0  0  0
  4  8  2  0  0  0  0
  5  1  1  0  0  0  0
  6  2  1  0  0  0  0
  7  5  1  0  0  0  0
  8  7  1  0  0  0  0
  9 16  2  0  0  0  0
 10  3  1  0  0  0  0
 11  1  1  0  0  0  0
 12  2  2  0  0  0  0
 13  3  2  0  0  0  0
 14  5  2  0  0  0  0
 15  7  2  0  0  0  0
 16 15  1  0  0  0  0
 17  9  1  0  0  0  0
 18  6  1  0  0  0  0
 19  6  1  0  0  0  0
 20 11  2  0  0  0  0
 21 11  1  0  0  0  0
 22 18  1  0  0  0  0
 23 19  1  0  0  0  0
 24 21  2  0  0  0  0
 25 20  1  0  0  0  0
 26 24  1  0  0  0  0
 27 23  1  0  0  0  0
 26 25  2  0  0  0  0
  4  9  1  0  0  0  0
 22 27  1  0  0  0  0
M  CHG  2   3   1  10  -1
M  END
>  <IDNUMBER>
F2843-0123

>  <Chemical_Name>
4-chloro-3-nitro-N-phenyl-N-(piperidine-1-carbonyl)benzamide

>  <PriceCoeff>
1.00

>  <CAS>
899992-45-1

>  <MW>
387.82

>  <Description>
solid

>  <FSP3>
0.26

>  <clogP>
3.87

>  <TPSA>
83.76

>  <Acceptor>
4

>  <Donor>
0

>  <RotBonds>
6

>  <HAC>
27

>  <Collection>
General

$$$$
F2843-0251
  Mrv2219 10102508112D          

 25 27  0  0  0  0            999 V2000
   -1.7125    2.5625    0.0000 N   0  0  0  0  0  0  0  0  0  0  0  0
   -1.0000    2.9833    0.0000 C   0  0  0  0  0  0  0  0  0  0  0  0
   -2.4333    2.9833    0.0000 C   0  0  0  0  0  0  0  0  0  0  0  0
   -1.0083    3.8125    0.0000 C   0  0  0  0  0  0  0  0  0  0  0  0
   -3.1583    2.5583    0.0000 N   0  0  0  0  0  0  0  0  0  0  0  0
   -1.7083    1.7375    0.0000 C   0  0  0  0  0  0  0  0  0  0  0  0
   -0.2833    2.5708    0.0000 O   0  0  0  0  0  0  0  0  0  0  0  0
   -2.4375    3.8000    0.0000 O   0  0  0  0  0  0  0  0  0  0  0  0
   -0.2958    4.2167    0.0000 C   0  0  0  0  0  0  0  0  0  0  0  0
   -0.9875    1.3333    0.0000 C   0  0  0  0  0  0  0  0  0  0  0  0
   -2.4208    1.3333    0.0000 C   0  0  0  0  0  0  0  0  0  0  0  0
   -1.6958    0.0958    0.0000 C   0  0  0  0  0  0  0  0  0  0  0  0
    0.4250    3.8208    0.0000 F   0  0  0  0  0  0  0  0  0  0  0  0
   -1.7250    4.2125    0.0000 C   0  0  0  0  0  0  0  0  0  0  0  0
   -2.4208    0.5000    0.0000 C   0  0  0  0  0  0  0  0  0  0  0  0
   -0.9833    0.5083    0.0000 C   0  0  0  0  0  0  0  0  0  0  0  0
   -1.6875   -0.7292    0.0000 Cl  0  0  0  0  0  0  0  0  0  0  0  0
   -3.1583    1.7250    0.0000 C   0  0  0  0  0  0  0  0  0  0  0  0
   -3.8708    2.9708    0.0000 C   0  0  0  0  0  0  0  0  0  0  0  0
   -0.3000    5.0417    0.0000 C   0  0  0  0  0  0  0  0  0  0  0  0
   -1.7375    5.0292    0.0000 C   0  0  0  0  0  0  0  0  0  0  0  0
   -3.8708    1.3125    0.0000 C   0  0  0  0  0  0  0  0  0  0  0  0
   -4.5833    2.5583    0.0000 C   0  0  0  0  0  0  0  0  0  0  0  0
   -1.0250    5.4542    0.0000 C   0  0  0  0  0  0  0  0  0  0  0  0
   -4.5833    1.7250    0.0000 C   0  0  0  0  0  0  0  0  0  0  0  0
  2  1  1  0  0  0  0
  3  1  1  0  0  0  0
  4  2  1  0  0  0  0
  5  3  1  0  0  0  0
  6  1  1  0  0  0  0
  7  2  2  0  0  0  0
  8  3  2  0  0  0  0
  9  4  1  0  0  0  0
 10  6  2  0  0  0  0
 11  6  1  0  0  0  0
 12 15  1  0  0  0  0
 13  9  1  0  0  0  0
 14  4  2  0  0  0  0
 15 11  2  0  0  0  0
 16 10  1  0  0  0  0
 17 12  1  0  0  0  0
 18  5  1  0  0  0  0
 19  5  1  0  0  0  0
 20  9  2  0  0  0  0
 21 14  1  0  0  0  0
 22 18  1  0  0  0  0
 23 19  1  0  0  0  0
 24 21  2  0  0  0  0
 25 23  1  0  0  0  0
 12 16  2  0  0  0  0
 22 25  1  0  0  0  0
 20 24  1  0  0  0  0
M  END
>  <IDNUMBER>
F2843-0251

>  <Chemical_Name>
N-(4-chlorophenyl)-N-(2-fluorobenzoyl)piperidine-1-carboxamide

>  <PriceCoeff>
1.00

>  <CAS>
899951-21-4

>  <MW>
360.81

>  <Description>
solid

>  <FSP3>
0.26

>  <clogP>
4.42

>  <TPSA>
40.62

>  <Acceptor>
2

>  <Donor>
0

>  <RotBonds>
5

>  <HAC>
25

>  <Collection>
General

>  <PPDS>
+

$$$$
F2843-0261
  Mrv2219 10102508112D          

 26 28  0  0  0  0            999 V2000
    2.8028   -0.4290    0.0000 N   0  0  0  0  0  0  0  0  0  0  0  0
    3.5150   -0.0167    0.0000 C   0  0  0  0  0  0  0  0  0  0  0  0
    2.0865   -0.0167    0.0000 C   0  0  0  0  0  0  0  0  0  0  0  0
    3.5150    0.8204    0.0000 C   0  0  0  0  0  0  0  0  0  0  0  0
    1.3660   -0.4373    0.0000 N   0  0  0  0  0  0  0  0  0  0  0  0
    2.8111   -1.2536    0.0000 C   0  0  0  0  0  0  0  0  0  0  0  0
    4.2354   -0.4165    0.0000 O   0  0  0  0  0  0  0  0  0  0  0  0
    2.0782    0.7204    0.0000 O   0  0  0  0  0  0  0  0  0  0  0  0
    2.7986    1.2327    0.0000 C   0  0  0  0  0  0  0  0  0  0  0  0
    4.2271    1.2327    0.0000 C   0  0  0  0  0  0  0  0  0  0  0  0
    2.1032   -1.6659    0.0000 C   0  0  0  0  0  0  0  0  0  0  0  0
    3.5275   -1.6659    0.0000 C   0  0  0  0  0  0  0  0  0  0  0  0
    2.8236   -2.9028    0.0000 C   0  0  0  0  0  0  0  0  0  0  0  0
    4.9476    0.8204    0.0000 F   0  0  0  0  0  0  0  0  0  0  0  0
    1.6784    1.2494    0.0000 F   0  0  0  0  0  0  0  0  0  0  0  0
    3.5358   -2.4863    0.0000 C   0  0  0  0  0  0  0  0  0  0  0  0
    2.1032   -2.4905    0.0000 C   0  0  0  0  0  0  0  0  0  0  0  0
    2.8278   -3.7274    0.0000 Cl  0  0  0  0  0  0  0  0  0  0  0  0
    0.6497   -0.0250    0.0000 C   0  0  0  0  0  0  0  0  0  0  0  0
    1.3660   -1.2661    0.0000 C   0  0  0  0  0  0  0  0  0  0  0  0
    3.5025    2.4613    0.0000 C   0  0  0  0  0  0  0  0  0  0  0  0
    2.7861    2.0448    0.0000 C   0  0  0  0  0  0  0  0  0  0  0  0
    4.2271    2.0573    0.0000 C   0  0  0  0  0  0  0  0  0  0  0  0
    0.6497   -1.6784    0.0000 C   0  0  0  0  0  0  0  0  0  0  0  0
   -0.0625   -0.4373    0.0000 C   0  0  0  0  0  0  0  0  0  0  0  0
   -0.0625   -1.2661    0.0000 C   0  0  0  0  0  0  0  0  0  0  0  0
  2  1  1  0  0  0  0
  3  1  1  0  0  0  0
  4  2  1  0  0  0  0
  5  3  1  0  0  0  0
  6  1  1  0  0  0  0
  7  2  2  0  0  0  0
  8  3  2  0  0  0  0
  9  4  2  0  0  0  0
 10  4  1  0  0  0  0
 11  6  1  0  0  0  0
 12  6  2  0  0  0  0
 13 16  2  0  0  0  0
 14 10  1  0  0  0  0
 15  9  1  0  0  0  0
 16 12  1  0  0  0  0
 17 11  2  0  0  0  0
 18 13  1  0  0  0  0
 19  5  1  0  0  0  0
 20  5  1  0  0  0  0
 21 23  1  0  0  0  0
 22  9  1  0  0  0  0
 23 10  2  0  0  0  0
 24 20  1  0  0  0  0
 25 19  1  0  0  0  0
 26 24  1  0  0  0  0
 13 17  1  0  0  0  0
 21 22  2  0  0  0  0
 26 25  1  0  0  0  0
M  END
>  <IDNUMBER>
F2843-0261

>  <Chemical_Name>
N-(4-chlorophenyl)-N-(2,6-difluorobenzoyl)piperidine-1-carboxamide

>  <PriceCoeff>
1.00

>  <CAS>
923145-89-5

>  <MW>
378.80

>  <Description>
solid

>  <FSP3>
0.26

>  <clogP>
4.56

>  <TPSA>
40.62

>  <Acceptor>
2

>  <Donor>
0

>  <RotBonds>
5

>  <HAC>
26

>  <Collection>
General

>  <PPDS>
+

$$$$
F2843-0327
  Mrv2219 10102508112D          

 25 27  0  0  0  0            999 V2000
   -1.7125    2.5625    0.0000 N   0  0  0  0  0  0  0  0  0  0  0  0
   -1.0000    2.9833    0.0000 C   0  0  0  0  0  0  0  0  0  0  0  0
   -2.4333    2.9833    0.0000 C   0  0  0  0  0  0  0  0  0  0  0  0
   -1.0083    3.8125    0.0000 C   0  0  0  0  0  0  0  0  0  0  0  0
   -1.7083    1.7375    0.0000 C   0  0  0  0  0  0  0  0  0  0  0  0
   -3.1583    2.5583    0.0000 N   0  0  0  0  0  0  0  0  0  0  0  0
   -2.4208    1.3333    0.0000 C   0  0  0  0  0  0  0  0  0  0  0  0
   -0.2833    2.5708    0.0000 O   0  0  0  0  0  0  0  0  0  0  0  0
   -2.4375    3.8000    0.0000 O   0  0  0  0  0  0  0  0  0  0  0  0
   -0.2958    4.2167    0.0000 C   0  0  0  0  0  0  0  0  0  0  0  0
   -2.4208    0.5000    0.0000 C   0  0  0  0  0  0  0  0  0  0  0  0
    0.4250    3.8208    0.0000 F   0  0  0  0  0  0  0  0  0  0  0  0
   -1.7250    4.2125    0.0000 C   0  0  0  0  0  0  0  0  0  0  0  0
   -0.9875    1.3333    0.0000 C   0  0  0  0  0  0  0  0  0  0  0  0
   -3.1333    0.0833    0.0000 Cl  0  0  0  0  0  0  0  0  0  0  0  0
   -3.1583    1.7250    0.0000 C   0  0  0  0  0  0  0  0  0  0  0  0
   -3.8708    2.9708    0.0000 C   0  0  0  0  0  0  0  0  0  0  0  0
   -0.9833    0.5083    0.0000 C   0  0  0  0  0  0  0  0  0  0  0  0
   -0.3000    5.0417    0.0000 C   0  0  0  0  0  0  0  0  0  0  0  0
   -1.6958    0.0958    0.0000 C   0  0  0  0  0  0  0  0  0  0  0  0
   -1.7375    5.0292    0.0000 C   0  0  0  0  0  0  0  0  0  0  0  0
   -3.8708    1.3125    0.0000 C   0  0  0  0  0  0  0  0  0  0  0  0
   -4.5833    2.5583    0.0000 C   0  0  0  0  0  0  0  0  0  0  0  0
   -1.0250    5.4542    0.0000 C   0  0  0  0  0  0  0  0  0  0  0  0
   -4.5833    1.7250    0.0000 C   0  0  0  0  0  0  0  0  0  0  0  0
  2  1  1  0  0  0  0
  3  1  1  0  0  0  0
  4  2  1  0  0  0  0
  5  1  1  0  0  0  0
  6  3  1  0  0  0  0
  7  5  1  0  0  0  0
  8  2  2  0  0  0  0
  9  3  2  0  0  0  0
 10  4  1  0  0  0  0
 11  7  2  0  0  0  0
 12 10  1  0  0  0  0
 13  4  2  0  0  0  0
 14  5  2  0  0  0  0
 15 11  1  0  0  0  0
 16  6  1  0  0  0  0
 17  6  1  0  0  0  0
 18 14  1  0  0  0  0
 19 10  2  0  0  0  0
 20 18  2  0  0  0  0
 21 13  1  0  0  0  0
 22 16  1  0  0  0  0
 23 17  1  0  0  0  0
 24 21  2  0  0  0  0
 25 23  1  0  0  0  0
 20 11  1  0  0  0  0
 22 25  1  0  0  0  0
 19 24  1  0  0  0  0
M  END
>  <IDNUMBER>
F2843-0327

>  <Chemical_Name>
N-(3-chlorophenyl)-N-(2-fluorobenzoyl)piperidine-1-carboxamide

>  <PriceCoeff>
1.00

>  <CAS>
899951-27-0

>  <MW>
360.81

>  <Description>
solid

>  <FSP3>
0.26

>  <clogP>
4.42

>  <TPSA>
40.62

>  <Acceptor>
2

>  <Donor>
0

>  <RotBonds>
5

>  <HAC>
25

>  <Collection>
General

>  <PPDS>
+

$$$$
F2843-0337
  Mrv2219 10102508112D          

 26 28  0  0  0  0            999 V2000
    2.7998   -0.8404    0.0000 N   0  0  0  0  0  0  0  0  0  0  0  0
    3.5111   -0.4243    0.0000 C   0  0  0  0  0  0  0  0  0  0  0  0
    2.0842   -0.4285    0.0000 C   0  0  0  0  0  0  0  0  0  0  0  0
    3.5111    0.4118    0.0000 C   0  0  0  0  0  0  0  0  0  0  0  0
    2.8080   -1.6641    0.0000 C   0  0  0  0  0  0  0  0  0  0  0  0
    1.3645   -0.8404    0.0000 N   0  0  0  0  0  0  0  0  0  0  0  0
    2.1008   -2.0717    0.0000 C   0  0  0  0  0  0  0  0  0  0  0  0
    4.2307   -0.8279    0.0000 O   0  0  0  0  0  0  0  0  0  0  0  0
    1.3021    0.1580    0.0000 O   0  0  0  0  0  0  0  0  0  0  0  0
    2.7956    0.8195    0.0000 C   0  0  0  0  0  0  0  0  0  0  0  0
    4.2225    0.8195    0.0000 C   0  0  0  0  0  0  0  0  0  0  0  0
    2.1008   -2.8996    0.0000 C   0  0  0  0  0  0  0  0  0  0  0  0
    4.9421    0.4076    0.0000 F   0  0  0  0  0  0  0  0  0  0  0  0
    2.0759    0.4076    0.0000 F   0  0  0  0  0  0  0  0  0  0  0  0
    3.5235   -2.0717    0.0000 C   0  0  0  0  0  0  0  0  0  0  0  0
    1.3894   -3.3114    0.0000 Cl  0  0  0  0  0  0  0  0  0  0  0  0
    0.6490   -0.4285    0.0000 C   0  0  0  0  0  0  0  0  0  0  0  0
    1.3645   -1.6766    0.0000 C   0  0  0  0  0  0  0  0  0  0  0  0
    3.5318   -2.8871    0.0000 C   0  0  0  0  0  0  0  0  0  0  0  0
    3.4986    2.0550    0.0000 C   0  0  0  0  0  0  0  0  0  0  0  0
    2.7831    1.6349    0.0000 C   0  0  0  0  0  0  0  0  0  0  0  0
    4.2225    1.6432    0.0000 C   0  0  0  0  0  0  0  0  0  0  0  0
    2.8205   -3.3072    0.0000 C   0  0  0  0  0  0  0  0  0  0  0  0
    0.6490   -2.0884    0.0000 C   0  0  0  0  0  0  0  0  0  0  0  0
   -0.0624   -0.8404    0.0000 C   0  0  0  0  0  0  0  0  0  0  0  0
   -0.0624   -1.6766    0.0000 C   0  0  0  0  0  0  0  0  0  0  0  0
  2  1  1  0  0  0  0
  3  1  1  0  0  0  0
  4  2  1  0  0  0  0
  5  1  1  0  0  0  0
  6  3  1  0  0  0  0
  7  5  1  0  0  0  0
  8  2  2  0  0  0  0
  9  3  2  0  0  0  0
 10  4  2  0  0  0  0
 11  4  1  0  0  0  0
 12  7  2  0  0  0  0
 13 11  1  0  0  0  0
 14 10  1  0  0  0  0
 15  5  2  0  0  0  0
 16 12  1  0  0  0  0
 17  6  1  0  0  0  0
 18  6  1  0  0  0  0
 19 15  1  0  0  0  0
 20 22  1  0  0  0  0
 21 10  1  0  0  0  0
 22 11  2  0  0  0  0
 23 19  2  0  0  0  0
 24 18  1  0  0  0  0
 25 17  1  0  0  0  0
 26 24  1  0  0  0  0
 23 12  1  0  0  0  0
 20 21  2  0  0  0  0
 26 25  1  0  0  0  0
M  END
>  <IDNUMBER>
F2843-0337

>  <Chemical_Name>
N-(3-chlorophenyl)-N-(2,6-difluorobenzoyl)piperidine-1-carboxamide

>  <PriceCoeff>
1.00

>  <CAS>
899951-28-1

>  <MW>
378.80

>  <Description>
solid

>  <FSP3>
0.26

>  <clogP>
4.56

>  <TPSA>
40.62

>  <Acceptor>
2

>  <Donor>
0

>  <RotBonds>
5

>  <HAC>
26

>  <Collection>
General

>  <PPDS>
+

$$$$
F2862-0070
  Mrv2219 10102508112D          

 24 26  0  0  0  0            999 V2000
   -2.4294    1.8221    0.0000 N   0  0  0  0  0  0  0  0  0  0  0  0
   -1.7597    2.3046    0.0000 C   0  0  0  0  0  0  0  0  0  0  0  0
   -5.2873    1.0067    0.0000 N   0  3  0  0  0  0  0  0  0  0  0  0
   -2.4294    0.9984    0.0000 C   0  0  0  0  0  0  0  0  0  0  0  0
   -4.5760    0.5948    0.0000 C   0  0  0  0  0  0  0  0  0  0  0  0
   -3.0951    2.3046    0.0000 C   0  0  0  0  0  0  0  0  0  0  0  0
   -3.1408    0.5865    0.0000 C   0  0  0  0  0  0  0  0  0  0  0  0
   -3.8522    0.9984    0.0000 C   0  0  0  0  0  0  0  0  0  0  0  0
   -2.0176    3.0909    0.0000 C   0  0  0  0  0  0  0  0  0  0  0  0
   -0.9734    2.0550    0.0000 C   0  0  0  0  0  0  0  0  0  0  0  0
   -2.8413    3.0909    0.0000 C   0  0  0  0  0  0  0  0  0  0  0  0
   -4.5760   -0.2413    0.0000 C   0  0  0  0  0  0  0  0  0  0  0  0
   -5.2915    1.8304    0.0000 O   0  5  0  0  0  0  0  0  0  0  0  0
   -5.9946    0.5948    0.0000 O   0  0  0  0  0  0  0  0  0  0  0  0
   -1.7180    0.5865    0.0000 O   0  0  0  0  0  0  0  0  0  0  0  0
   -3.1408   -0.2413    0.0000 C   0  0  0  0  0  0  0  0  0  0  0  0
   -0.8070    1.2438    0.0000 O   0  0  0  0  0  0  0  0  0  0  0  0
   -3.8522   -0.6531    0.0000 C   0  0  0  0  0  0  0  0  0  0  0  0
   -0.3620    2.6041    0.0000 N   0  0  0  0  0  0  0  0  0  0  0  0
   -5.2873   -0.6531    0.0000 Cl  0  0  0  0  0  0  0  0  0  0  0  0
   -3.9021    2.1424    0.0000 C   0  0  0  0  0  0  0  0  0  0  0  0
   -3.3903    3.7024    0.0000 C   0  0  0  0  0  0  0  0  0  0  0  0
   -4.4512    2.7456    0.0000 C   0  0  0  0  0  0  0  0  0  0  0  0
   -4.2015    3.5401    0.0000 C   0  0  0  0  0  0  0  0  0  0  0  0
  2  1  1  0  0  0  0
  3  5  1  0  0  0  0
  4  1  1  0  0  0  0
  5  8  2  0  0  0  0
  6  1  1  0  0  0  0
  7  4  1  0  0  0  0
  8  7  1  0  0  0  0
  9  2  1  0  0  0  0
 10  2  1  0  0  0  0
 11  6  2  0  0  0  0
 12 18  2  0  0  0  0
 13  3  1  0  0  0  0
 14  3  2  0  0  0  0
 15  4  2  0  0  0  0
 16  7  2  0  0  0  0
 17 10  2  0  0  0  0
 18 16  1  0  0  0  0
 19 10  1  0  0  0  0
 20 12  1  0  0  0  0
 21  6  1  0  0  0  0
 22 11  1  0  0  0  0
 23 21  2  0  0  0  0
 24 23  1  0  0  0  0
 11  9  1  0  0  0  0
 24 22  2  0  0  0  0
  5 12  1  0  0  0  0
M  CHG  2   3   1  13  -1
M  END
>  <IDNUMBER>
F2862-0070

>  <Chemical_Name>
1-(4-chloro-3-nitrobenzoyl)-2,3-dihydro-1H-indole-2-carboxamide

>  <PriceCoeff>
1.00

>  <CAS>
1105639-07-3

>  <MW>
345.74

>  <Description>
solid

>  <FSP3>
0.12

>  <clogP>
1.84

>  <TPSA>
106.54

>  <Acceptor>
4

>  <Donor>
1

>  <RotBonds>
4

>  <HAC>
24

>  <Collection>
General

>  <PPDS>
+

$$$$
F2865-0381
  Mrv2219 10102508112D          

 34 38  0  0  0  0            999 V2000
   -3.9818   -1.5036    0.0000 N   0  0  0  0  0  0  0  0  0  0  0  0
   -4.4566   -0.8289    0.0000 N   0  0  0  0  0  0  0  0  0  0  0  0
   -3.1821   -0.4290    0.0000 C   0  0  0  0  0  0  0  0  0  0  0  0
   -3.1946   -1.2537    0.0000 C   0  0  0  0  0  0  0  0  0  0  0  0
   -3.9693   -0.1666    0.0000 N   0  0  0  0  0  0  0  0  0  0  0  0
    0.3791    3.2821    0.0000 N   0  3  0  0  0  0  0  0  0  0  0  0
   -2.4741   -0.0125    0.0000 C   0  0  0  0  0  0  0  0  0  0  0  0
   -0.3332    3.6944    0.0000 C   0  0  0  0  0  0  0  0  0  0  0  0
   -2.4866    3.2821    0.0000 C   0  0  0  0  0  0  0  0  0  0  0  0
   -2.4824    0.8080    0.0000 N   0  0  0  0  0  0  0  0  0  0  0  0
   -2.4824    2.4574    0.0000 N   0  0  0  0  0  0  0  0  0  0  0  0
   -1.0579    3.2821    0.0000 C   0  0  0  0  0  0  0  0  0  0  0  0
   -2.4741   -1.6661    0.0000 N   0  0  0  0  0  0  0  0  0  0  0  0
   -1.7701    3.6944    0.0000 C   0  0  0  0  0  0  0  0  0  0  0  0
   -1.7576   -0.4248    0.0000 N   0  0  0  0  0  0  0  0  0  0  0  0
   -4.2359   -2.2866    0.0000 C   0  0  0  0  0  0  0  0  0  0  0  0
   -0.3457    4.5275    0.0000 C   0  0  0  0  0  0  0  0  0  0  0  0
   -1.7576   -1.2537    0.0000 C   0  0  0  0  0  0  0  0  0  0  0  0
    0.3791    2.4574    0.0000 O   0  5  0  0  0  0  0  0  0  0  0  0
    1.0913    3.6944    0.0000 O   0  0  0  0  0  0  0  0  0  0  0  0
   -3.1988    1.2120    0.0000 C   0  0  0  0  0  0  0  0  0  0  0  0
   -1.7701    1.2203    0.0000 C   0  0  0  0  0  0  0  0  0  0  0  0
   -1.7701    2.0450    0.0000 C   0  0  0  0  0  0  0  0  0  0  0  0
   -3.1988    2.0450    0.0000 C   0  0  0  0  0  0  0  0  0  0  0  0
   -3.1988    3.6944    0.0000 O   0  0  0  0  0  0  0  0  0  0  0  0
   -1.7826    4.5150    0.0000 C   0  0  0  0  0  0  0  0  0  0  0  0
   -1.0621    4.9356    0.0000 C   0  0  0  0  0  0  0  0  0  0  0  0
   -5.0439   -2.4533    0.0000 C   0  0  0  0  0  0  0  0  0  0  0  0
   -3.6861   -2.9031    0.0000 C   0  0  0  0  0  0  0  0  0  0  0  0
   -4.7690   -3.8527    0.0000 C   0  0  0  0  0  0  0  0  0  0  0  0
    0.3666    4.9356    0.0000 Cl  0  0  0  0  0  0  0  0  0  0  0  0
   -3.9568   -3.6903    0.0000 C   0  0  0  0  0  0  0  0  0  0  0  0
   -5.3063   -3.2280    0.0000 C   0  0  0  0  0  0  0  0  0  0  0  0
   -5.0314   -4.6358    0.0000 F   0  0  0  0  0  0  0  0  0  0  0  0
  2  1  1  0  0  0  0
  3  4  2  0  0  0  0
  4  1  1  0  0  0  0
  5  2  2  0  0  0  0
  6  8  1  0  0  0  0
  7  3  1  0  0  0  0
  8 12  2  0  0  0  0
  9 11  1  0  0  0  0
 10  7  1  0  0  0  0
 11 23  1  0  0  0  0
 12 14  1  0  0  0  0
 13  4  1  0  0  0  0
 14  9  1  0  0  0  0
 15 18  1  0  0  0  0
 16  1  1  0  0  0  0
 17 27  2  0  0  0  0
 18 13  2  0  0  0  0
 19  6  1  0  0  0  0
 20  6  2  0  0  0  0
 21 10  1  0  0  0  0
 22 10  1  0  0  0  0
 23 22  1  0  0  0  0
 24 21  1  0  0  0  0
 25  9  2  0  0  0  0
 26 14  2  0  0  0  0
 27 26  1  0  0  0  0
 28 16  2  0  0  0  0
 29 16  1  0  0  0  0
 30 32  1  0  0  0  0
 31 17  1  0  0  0  0
 32 29  2  0  0  0  0
 33 28  1  0  0  0  0
 34 30  1  0  0  0  0
  5  3  1  0  0  0  0
 30 33  2  0  0  0  0
  7 15  2  0  0  0  0
 11 24  1  0  0  0  0
  8 17  1  0  0  0  0
M  CHG  2   6   1  19  -1
M  END
>  <IDNUMBER>
F2865-0381

>  <Chemical_Name>
1-(4-chloro-3-nitrobenzoyl)-4-[3-(4-fluorophenyl)-3H-[1,2,3]triazolo[4,5-d]pyrimidin-7-yl]piperazine

>  <PriceCoeff>
1.00

>  <CAS>
941887-56-5

>  <MW>
482.85

>  <Description>
solid

>  <FSP3>
0.19

>  <clogP>
3.47

>  <TPSA>
123.18

>  <Acceptor>
7

>  <Donor>
1

>  <RotBonds>
5

>  <HAC>
34

>  <Collection>
General

>  <PPDS>
+

$$$$
F2865-0536
  Mrv2219 10102508112D          

 34 38  0  0  0  0            999 V2000
   -3.9828   -1.5040    0.0000 N   0  0  0  0  0  0  0  0  0  0  0  0
   -4.4578   -0.8291    0.0000 N   0  0  0  0  0  0  0  0  0  0  0  0
   -3.1829   -0.4292    0.0000 C   0  0  0  0  0  0  0  0  0  0  0  0
   -3.1954   -1.2541    0.0000 C   0  0  0  0  0  0  0  0  0  0  0  0
   -3.9703   -0.1667    0.0000 N   0  0  0  0  0  0  0  0  0  0  0  0
    0.3792    3.2829    0.0000 N   0  3  0  0  0  0  0  0  0  0  0  0
   -2.4747   -0.0125    0.0000 C   0  0  0  0  0  0  0  0  0  0  0  0
   -0.3333    3.6954    0.0000 C   0  0  0  0  0  0  0  0  0  0  0  0
   -2.4872    3.2829    0.0000 C   0  0  0  0  0  0  0  0  0  0  0  0
   -2.4830    0.8082    0.0000 N   0  0  0  0  0  0  0  0  0  0  0  0
   -2.4830    2.4580    0.0000 N   0  0  0  0  0  0  0  0  0  0  0  0
   -1.0582    3.2829    0.0000 C   0  0  0  0  0  0  0  0  0  0  0  0
   -4.2370   -2.2872    0.0000 C   0  0  0  0  0  0  0  0  0  0  0  0
   -2.4747   -1.6665    0.0000 N   0  0  0  0  0  0  0  0  0  0  0  0
   -1.7706    3.6954    0.0000 C   0  0  0  0  0  0  0  0  0  0  0  0
   -1.7581   -0.4250    0.0000 N   0  0  0  0  0  0  0  0  0  0  0  0
   -0.3458    4.5287    0.0000 C   0  0  0  0  0  0  0  0  0  0  0  0
   -5.0452   -2.4539    0.0000 C   0  0  0  0  0  0  0  0  0  0  0  0
   -1.7581   -1.2541    0.0000 C   0  0  0  0  0  0  0  0  0  0  0  0
    0.3792    2.4580    0.0000 O   0  5  0  0  0  0  0  0  0  0  0  0
    1.0916    3.6954    0.0000 O   0  0  0  0  0  0  0  0  0  0  0  0
   -1.7706    1.2207    0.0000 C   0  0  0  0  0  0  0  0  0  0  0  0
   -3.1996    1.2124    0.0000 C   0  0  0  0  0  0  0  0  0  0  0  0
   -3.1996    2.0456    0.0000 C   0  0  0  0  0  0  0  0  0  0  0  0
   -1.7706    2.0456    0.0000 C   0  0  0  0  0  0  0  0  0  0  0  0
   -3.1996    3.6954    0.0000 O   0  0  0  0  0  0  0  0  0  0  0  0
   -1.7831    4.5162    0.0000 C   0  0  0  0  0  0  0  0  0  0  0  0
   -1.0624    4.9369    0.0000 C   0  0  0  0  0  0  0  0  0  0  0  0
   -5.3077   -3.2288    0.0000 C   0  0  0  0  0  0  0  0  0  0  0  0
    0.3667    4.9369    0.0000 Cl  0  0  0  0  0  0  0  0  0  0  0  0
   -6.1035   -3.3913    0.0000 F   0  0  0  0  0  0  0  0  0  0  0  0
   -3.6871   -2.9039    0.0000 C   0  0  0  0  0  0  0  0  0  0  0  0
   -3.9578   -3.6913    0.0000 C   0  0  0  0  0  0  0  0  0  0  0  0
   -4.7703   -3.8538    0.0000 C   0  0  0  0  0  0  0  0  0  0  0  0
  2  1  1  0  0  0  0
  3  4  2  0  0  0  0
  4  1  1  0  0  0  0
  5  2  2  0  0  0  0
  6  8  1  0  0  0  0
  7  3  1  0  0  0  0
  8 12  2  0  0  0  0
  9 11  1  0  0  0  0
 10  7  1  0  0  0  0
 11 24  1  0  0  0  0
 12 15  1  0  0  0  0
 13  1  1  0  0  0  0
 14  4  1  0  0  0  0
 15  9  1  0  0  0  0
 16 19  1  0  0  0  0
 17 28  2  0  0  0  0
 18 13  2  0  0  0  0
 19 14  2  0  0  0  0
 20  6  1  0  0  0  0
 21  6  2  0  0  0  0
 22 10  1  0  0  0  0
 23 10  1  0  0  0  0
 24 23  1  0  0  0  0
 25 22  1  0  0  0  0
 26  9  2  0  0  0  0
 27 15  2  0  0  0  0
 28 27  1  0  0  0  0
 29 18  1  0  0  0  0
 30 17  1  0  0  0  0
 31 29  1  0  0  0  0
 32 13  1  0  0  0  0
 33 32  2  0  0  0  0
 34 33  1  0  0  0  0
  5  3  1  0  0  0  0
 34 29  2  0  0  0  0
  7 16  2  0  0  0  0
 11 25  1  0  0  0  0
  8 17  1  0  0  0  0
M  CHG  2   6   1  20  -1
M  END
>  <IDNUMBER>
F2865-0536

>  <Chemical_Name>
1-(4-chloro-3-nitrobenzoyl)-4-[3-(3-fluorophenyl)-3H-[1,2,3]triazolo[4,5-d]pyrimidin-7-yl]piperazine

>  <PriceCoeff>
1.00

>  <CAS>
941887-62-3

>  <MW>
482.85

>  <Description>
solid

>  <FSP3>
0.19

>  <clogP>
3.47

>  <TPSA>
123.18

>  <Acceptor>
7

>  <Donor>
1

>  <RotBonds>
5

>  <HAC>
34

>  <Collection>
General

>  <PPDS>
+

$$$$
F2874-0017
  Mrv2219 10102508112D          

 27 29  0  0  0  0            999 V2000
   -1.2748    6.4573    0.0000 N   0  0  0  0  0  0  0  0  0  0  0  0
   -5.5548    6.4573    0.0000 N   0  3  0  0  0  0  0  0  0  0  0  0
   -5.5548    5.6294    0.0000 C   0  0  0  0  0  0  0  0  0  0  0  0
   -0.5652    6.8779    0.0000 N   0  0  0  0  0  0  0  0  0  0  0  0
   -1.9933    6.8779    0.0000 C   0  0  0  0  0  0  0  0  0  0  0  0
   -0.5652    7.7015    0.0000 C   0  0  0  0  0  0  0  0  0  0  0  0
   -4.1267    3.9953    0.0000 C   0  0  0  0  0  0  0  0  0  0  0  0
   -4.8365    5.2219    0.0000 C   0  0  0  0  0  0  0  0  0  0  0  0
   -1.2748    8.1088    0.0000 C   0  0  0  0  0  0  0  0  0  0  0  0
   -4.8452    4.4027    0.0000 C   0  0  0  0  0  0  0  0  0  0  0  0
   -1.9933    7.7015    0.0000 C   0  0  0  0  0  0  0  0  0  0  0  0
   -3.4127    4.4071    0.0000 N   0  0  0  0  0  0  0  0  0  0  0  0
   -2.7029    6.4704    0.0000 C   0  0  0  0  0  0  0  0  0  0  0  0
   -6.2777    5.2219    0.0000 C   0  0  0  0  0  0  0  0  0  0  0  0
   -4.8452    6.8779    0.0000 O   0  5  0  0  0  0  0  0  0  0  0  0
   -6.2777    6.8647    0.0000 O   0  0  0  0  0  0  0  0  0  0  0  0
   -3.4127    5.2219    0.0000 C   0  0  0  0  0  0  0  0  0  0  0  0
   -2.7029    5.6425    0.0000 C   0  0  0  0  0  0  0  0  0  0  0  0
   -4.1267    3.1761    0.0000 O   0  0  0  0  0  0  0  0  0  0  0  0
    0.1490    8.1133    0.0000 O   0  0  0  0  0  0  0  0  0  0  0  0
   -5.5548    3.9909    0.0000 C   0  0  0  0  0  0  0  0  0  0  0  0
   -6.2646    4.3940    0.0000 C   0  0  0  0  0  0  0  0  0  0  0  0
   -6.9786    5.6294    0.0000 Cl  0  0  0  0  0  0  0  0  0  0  0  0
    0.1490    6.4660    0.0000 C   0  0  0  0  0  0  0  0  0  0  0  0
   -3.4127    6.8779    0.0000 C   0  0  0  0  0  0  0  0  0  0  0  0
   -4.1354    6.4704    0.0000 C   0  0  0  0  0  0  0  0  0  0  0  0
   -4.1354    5.6425    0.0000 C   0  0  0  0  0  0  0  0  0  0  0  0
  2  3  1  0  0  0  0
  3  8  1  0  0  0  0
  4  1  1  0  0  0  0
  5  1  2  0  0  0  0
  6  4  1  0  0  0  0
  7 12  1  0  0  0  0
  8 10  2  0  0  0  0
  9 11  2  0  0  0  0
 10  7  1  0  0  0  0
 11  5  1  0  0  0  0
 12 17  1  0  0  0  0
 13  5  1  0  0  0  0
 14 22  1  0  0  0  0
 15  2  1  0  0  0  0
 16  2  2  0  0  0  0
 17 18  2  0  0  0  0
 18 13  1  0  0  0  0
 19  7  2  0  0  0  0
 20  6  2  0  0  0  0
 21 10  1  0  0  0  0
 22 21  2  0  0  0  0
 23 14  1  0  0  0  0
 24  4  1  0  0  0  0
 25 13  2  0  0  0  0
 26 25  1  0  0  0  0
 27 26  2  0  0  0  0
  9  6  1  0  0  0  0
 27 17  1  0  0  0  0
 14  3  2  0  0  0  0
M  CHG  2   2   1  15  -1
M  END
>  <IDNUMBER>
F2874-0017

>  <Chemical_Name>
4-chloro-N-[3-(1-methyl-6-oxo-1,6-dihydropyridazin-3-yl)phenyl]-3-nitrobenzamide

>  <PriceCoeff>
1.00

>  <CAS>
941920-65-6

>  <MW>
384.77

>  <Description>
solid

>  <FSP3>
0.06

>  <clogP>
2.66

>  <TPSA>
104.91

>  <Acceptor>
5

>  <Donor>
2

>  <RotBonds>
4

>  <HAC>
27

>  <Collection>
General

>  <PPDS>
+

$$$$
F2874-0131
  Mrv2219 10102508112D          

 27 29  0  0  0  0            999 V2000
    4.6167    0.7958    0.0000 N   0  0  0  0  0  0  0  0  0  0  0  0
    4.5917   -6.6417    0.0000 N   0  3  0  0  0  0  0  0  0  0  0  0
    4.6167    1.6250    0.0000 N   0  0  0  0  0  0  0  0  0  0  0  0
    4.6042   -4.1667    0.0000 C   0  0  0  0  0  0  0  0  0  0  0  0
    4.6042   -3.3417    0.0000 C   0  0  0  0  0  0  0  0  0  0  0  0
    3.9042    2.0375    0.0000 C   0  0  0  0  0  0  0  0  0  0  0  0
    3.9042    0.3833    0.0000 C   0  0  0  0  0  0  0  0  0  0  0  0
    3.8917   -4.5792    0.0000 C   0  0  0  0  0  0  0  0  0  0  0  0
    4.6042   -5.8167    0.0000 C   0  0  0  0  0  0  0  0  0  0  0  0
    3.8917   -5.4042    0.0000 C   0  0  0  0  0  0  0  0  0  0  0  0
    3.1875    1.6250    0.0000 C   0  0  0  0  0  0  0  0  0  0  0  0
    3.1875    0.7958    0.0000 C   0  0  0  0  0  0  0  0  0  0  0  0
    3.8917   -2.9250    0.0000 N   0  0  0  0  0  0  0  0  0  0  0  0
    5.3167   -4.5792    0.0000 C   0  0  0  0  0  0  0  0  0  0  0  0
    3.8792   -7.0542    0.0000 O   0  5  0  0  0  0  0  0  0  0  0  0
    5.3042   -7.0625    0.0000 O   0  0  0  0  0  0  0  0  0  0  0  0
    3.9042   -0.4417    0.0000 C   0  0  0  0  0  0  0  0  0  0  0  0
    5.3167   -2.9292    0.0000 O   0  0  0  0  0  0  0  0  0  0  0  0
    5.3167   -5.4042    0.0000 C   0  0  0  0  0  0  0  0  0  0  0  0
    3.9042    2.8625    0.0000 O   0  0  0  0  0  0  0  0  0  0  0  0
    3.9042   -2.1000    0.0000 C   0  0  0  0  0  0  0  0  0  0  0  0
    4.6167   -0.8542    0.0000 C   0  0  0  0  0  0  0  0  0  0  0  0
    3.1917   -0.8542    0.0000 C   0  0  0  0  0  0  0  0  0  0  0  0
    3.1667   -4.1542    0.0000 Cl  0  0  0  0  0  0  0  0  0  0  0  0
    4.6167   -1.6875    0.0000 C   0  0  0  0  0  0  0  0  0  0  0  0
    5.3375    2.0500    0.0000 C   0  0  0  0  0  0  0  0  0  0  0  0
    3.1917   -1.6875    0.0000 C   0  0  0  0  0  0  0  0  0  0  0  0
  2  9  1  0  0  0  0
  3  1  1  0  0  0  0
  4  5  1  0  0  0  0
  5 13  1  0  0  0  0
  6  3  1  0  0  0  0
  7  1  2  0  0  0  0
  8  4  2  0  0  0  0
  9 19  1  0  0  0  0
 10  8  1  0  0  0  0
 11 12  2  0  0  0  0
 12  7  1  0  0  0  0
 13 21  1  0  0  0  0
 14  4  1  0  0  0  0
 15  2  1  0  0  0  0
 16  2  2  0  0  0  0
 17  7  1  0  0  0  0
 18  5  2  0  0  0  0
 19 14  2  0  0  0  0
 20  6  2  0  0  0  0
 21 27  2  0  0  0  0
 22 17  1  0  0  0  0
 23 17  2  0  0  0  0
 24  8  1  0  0  0  0
 25 22  2  0  0  0  0
 26  3  1  0  0  0  0
 27 23  1  0  0  0  0
 11  6  1  0  0  0  0
 21 25  1  0  0  0  0
  9 10  2  0  0  0  0
M  CHG  2   2   1  15  -1
M  END
>  <IDNUMBER>
F2874-0131

>  <Chemical_Name>
2-chloro-N-[4-(1-methyl-6-oxo-1,6-dihydropyridazin-3-yl)phenyl]-4-nitrobenzamide

>  <PriceCoeff>
1.00

>  <CAS>
899977-88-9

>  <MW>
384.77

>  <Description>
solid

>  <FSP3>
0.06

>  <clogP>
1.98

>  <TPSA>
104.91

>  <Acceptor>
5

>  <Donor>
2

>  <RotBonds>
4

>  <HAC>
27

>  <Collection>
General

>  <PPDS>
+

$$$$
F2874-0132
  Mrv2219 10102508112D          

 27 29  0  0  0  0            999 V2000
   -2.6954    8.1168    0.0000 N   0  0  0  0  0  0  0  0  0  0  0  0
   -5.5572    6.4601    0.0000 N   0  3  0  0  0  0  0  0  0  0  0  0
   -5.5572    5.6318    0.0000 C   0  0  0  0  0  0  0  0  0  0  0  0
   -2.7172    8.9451    0.0000 N   0  0  0  0  0  0  0  0  0  0  0  0
   -3.4272    9.3527    0.0000 C   0  0  0  0  0  0  0  0  0  0  0  0
   -3.4272    7.7092    0.0000 C   0  0  0  0  0  0  0  0  0  0  0  0
   -4.1285    3.9970    0.0000 C   0  0  0  0  0  0  0  0  0  0  0  0
   -4.8385    5.2242    0.0000 C   0  0  0  0  0  0  0  0  0  0  0  0
   -4.1372    8.9407    0.0000 C   0  0  0  0  0  0  0  0  0  0  0  0
   -4.8472    4.4046    0.0000 C   0  0  0  0  0  0  0  0  0  0  0  0
   -4.1372    8.1168    0.0000 C   0  0  0  0  0  0  0  0  0  0  0  0
   -3.4141    4.4090    0.0000 N   0  0  0  0  0  0  0  0  0  0  0  0
   -6.2804    5.2242    0.0000 C   0  0  0  0  0  0  0  0  0  0  0  0
   -4.8472    6.8809    0.0000 O   0  5  0  0  0  0  0  0  0  0  0  0
   -6.2804    6.8677    0.0000 O   0  0  0  0  0  0  0  0  0  0  0  0
   -3.4185    6.8809    0.0000 C   0  0  0  0  0  0  0  0  0  0  0  0
   -4.1285    3.1774    0.0000 O   0  0  0  0  0  0  0  0  0  0  0  0
   -3.4316   10.1810    0.0000 O   0  0  0  0  0  0  0  0  0  0  0  0
   -5.5572    3.9926    0.0000 C   0  0  0  0  0  0  0  0  0  0  0  0
   -6.2672    4.3959    0.0000 C   0  0  0  0  0  0  0  0  0  0  0  0
   -3.4141    5.2373    0.0000 C   0  0  0  0  0  0  0  0  0  0  0  0
   -2.7041    6.4733    0.0000 C   0  0  0  0  0  0  0  0  0  0  0  0
   -4.1372    6.4688    0.0000 C   0  0  0  0  0  0  0  0  0  0  0  0
   -6.9816    5.6318    0.0000 Cl  0  0  0  0  0  0  0  0  0  0  0  0
   -2.7041    5.6449    0.0000 C   0  0  0  0  0  0  0  0  0  0  0  0
   -1.9941    9.3614    0.0000 C   0  0  0  0  0  0  0  0  0  0  0  0
   -4.1372    5.6449    0.0000 C   0  0  0  0  0  0  0  0  0  0  0  0
  2  3  1  0  0  0  0
  3  8  1  0  0  0  0
  4  1  1  0  0  0  0
  5  4  1  0  0  0  0
  6  1  2  0  0  0  0
  7 12  1  0  0  0  0
  8 10  2  0  0  0  0
  9 11  2  0  0  0  0
 10  7  1  0  0  0  0
 11  6  1  0  0  0  0
 12 21  1  0  0  0  0
 13 20  1  0  0  0  0
 14  2  1  0  0  0  0
 15  2  2  0  0  0  0
 16  6  1  0  0  0  0
 17  7  2  0  0  0  0
 18  5  2  0  0  0  0
 19 10  1  0  0  0  0
 20 19  2  0  0  0  0
 21 27  2  0  0  0  0
 22 16  1  0  0  0  0
 23 16  2  0  0  0  0
 24 13  1  0  0  0  0
 25 22  2  0  0  0  0
 26  4  1  0  0  0  0
 27 23  1  0  0  0  0
  9  5  1  0  0  0  0
 21 25  1  0  0  0  0
 13  3  2  0  0  0  0
M  CHG  2   2   1  14  -1
M  END
>  <IDNUMBER>
F2874-0132

>  <Chemical_Name>
4-chloro-N-[4-(1-methyl-6-oxo-1,6-dihydropyridazin-3-yl)phenyl]-3-nitrobenzamide

>  <PriceCoeff>
1.00

>  <CAS>
941998-06-7

>  <MW>
384.77

>  <Description>
solid

>  <FSP3>
0.06

>  <clogP>
2.66

>  <TPSA>
104.91

>  <Acceptor>
5

>  <Donor>
2

>  <RotBonds>
4

>  <HAC>
27

>  <Collection>
General

>  <PPDS>
+

$$$$
F2879-8737
  Mrv2219 10102508112D          

 28 31  0  0  0  0            999 V2000
   -0.5460   -0.3166    0.0000 N   0  0  0  0  0  0  0  0  0  0  0  0
   -6.4382    5.9886    0.0000 N   0  0  0  0  0  0  0  0  0  0  0  0
   -1.0554    0.3166    0.0000 C   0  0  0  0  0  0  0  0  0  0  0  0
   -5.9702    5.3048    0.0000 C   0  0  0  0  0  0  0  0  0  0  0  0
   -3.1342    2.5835    0.0000 C   0  0  0  0  0  0  0  0  0  0  0  0
   -3.8363    3.0241    0.0000 C   0  0  0  0  0  0  0  0  0  0  0  0
   -1.8264    0.0229    0.0000 C   0  0  0  0  0  0  0  0  0  0  0  0
   -5.1855    5.5389    0.0000 C   0  0  0  0  0  0  0  0  0  0  0  0
   -1.7759   -0.7985    0.0000 C   0  0  0  0  0  0  0  0  0  0  0  0
   -5.1579    6.3786    0.0000 C   0  0  0  0  0  0  0  0  0  0  0  0
   -0.9866   -1.0096    0.0000 C   0  0  0  0  0  0  0  0  0  0  0  0
   -5.9426    6.6402    0.0000 C   0  0  0  0  0  0  0  0  0  0  0  0
   -2.4092    2.9690    0.0000 O   0  0  0  0  0  0  0  0  0  0  0  0
   -4.5659    2.6386    0.0000 O   0  0  0  0  0  0  0  0  0  0  0  0
   -3.1755    1.7484    0.0000 N   0  0  0  0  0  0  0  0  0  0  0  0
   -3.8088    3.8501    0.0000 N   0  0  0  0  0  0  0  0  0  0  0  0
   -2.4780    1.3032    0.0000 C   0  0  0  0  0  0  0  0  0  0  0  0
   -4.5109    4.2906    0.0000 C   0  0  0  0  0  0  0  0  0  0  0  0
   -4.4742    5.1121    0.0000 C   0  0  0  0  0  0  0  0  0  0  0  0
   -2.5193    0.4772    0.0000 C   0  0  0  0  0  0  0  0  0  0  0  0
   -2.3541   -1.3813    0.0000 C   0  0  0  0  0  0  0  0  0  0  0  0
   -4.5384    6.9156    0.0000 C   0  0  0  0  0  0  0  0  0  0  0  0
   -0.7663   -1.8034    0.0000 C   0  0  0  0  0  0  0  0  0  0  0  0
   -6.0941    7.4525    0.0000 C   0  0  0  0  0  0  0  0  0  0  0  0
   -2.1430   -2.1660    0.0000 C   0  0  0  0  0  0  0  0  0  0  0  0
   -4.7036    7.7278    0.0000 C   0  0  0  0  0  0  0  0  0  0  0  0
   -1.3445   -2.3863    0.0000 C   0  0  0  0  0  0  0  0  0  0  0  0
   -5.4746    7.9985    0.0000 C   0  0  0  0  0  0  0  0  0  0  0  0
  2  4  1  0  0  0  0
  3  1  1  0  0  0  0
  4  8  2  0  0  0  0
  5 15  1  0  0  0  0
  6  5  1  0  0  0  0
  7  3  2  0  0  0  0
  8 19  1  0  0  0  0
  9 11  1  0  0  0  0
 10  8  1  0  0  0  0
 11  1  1  0  0  0  0
 12 10  1  0  0  0  0
 13  5  2  0  0  0  0
 14  6  2  0  0  0  0
 15 17  1  0  0  0  0
 16  6  1  0  0  0  0
 17 20  1  0  0  0  0
 18 16  1  0  0  0  0
 19 18  1  0  0  0  0
 20  7  1  0  0  0  0
 21  9  2  0  0  0  0
 22 10  2  0  0  0  0
 23 11  2  0  0  0  0
 24 12  2  0  0  0  0
 25 27  2  0  0  0  0
 26 22  1  0  0  0  0
 27 23  1  0  0  0  0
 28 26  2  0  0  0  0
  9  7  1  0  0  0  0
 25 21  1  0  0  0  0
 12  2  1  0  0  0  0
 28 24  1  0  0  0  0
M  END
>  <IDNUMBER>
F2879-8737

>  <Chemical_Name>
N,N'-bis[2-(1H-indol-3-yl)ethyl]ethanediamide

>  <PriceCoeff>
1.00

>  <CAS>
220061-08-5

>  <MW>
374.44

>  <Description>
solid

>  <FSP3>
0.18

>  <clogP>
2.41

>  <TPSA>
89.78

>  <Acceptor>
2

>  <Donor>
4

>  <RotBonds>
7

>  <HAC>
28

>  <Collection>
General

>  <PPDS>
+

$$$$
F2880-0243
  Mrv2219 10102508112D          

 23 24  0  0  0  0            999 V2000
   -5.0416    0.8066    0.0000 N   0  3  0  0  0  0  0  0  0  0  0  0
   -5.0416    3.2816    0.0000 C   0  0  0  0  0  0  0  0  0  0  0  0
   -5.0416    4.1066    0.0000 C   0  0  0  0  0  0  0  0  0  0  0  0
   -4.3313    2.8691    0.0000 C   0  0  0  0  0  0  0  0  0  0  0  0
   -5.0416    1.6316    0.0000 C   0  0  0  0  0  0  0  0  0  0  0  0
   -2.1863    4.1066    0.0000 C   0  0  0  0  0  0  0  0  0  0  0  0
   -2.9013    4.5146    0.0000 C   0  0  0  0  0  0  0  0  0  0  0  0
   -4.3313    2.0441    0.0000 C   0  0  0  0  0  0  0  0  0  0  0  0
   -4.3313    4.5146    0.0000 N   0  0  0  0  0  0  0  0  0  0  0  0
   -5.7566    2.8691    0.0000 C   0  0  0  0  0  0  0  0  0  0  0  0
   -3.6163    4.1066    0.0000 C   0  0  0  0  0  0  0  0  0  0  0  0
   -1.4713    4.5146    0.0000 S   0  0  0  0  0  0  0  0  0  0  0  0
   -5.7566    0.3941    0.0000 O   0  5  0  0  0  0  0  0  0  0  0  0
   -4.3266    0.3941    0.0000 O   0  0  0  0  0  0  0  0  0  0  0  0
   -2.9013    5.3396    0.0000 N   0  0  0  0  0  0  0  0  0  0  0  0
   -5.7566    2.0441    0.0000 C   0  0  0  0  0  0  0  0  0  0  0  0
   -2.0166    3.2954    0.0000 C   0  0  0  0  0  0  0  0  0  0  0  0
   -0.8616    3.9691    0.0000 C   0  0  0  0  0  0  0  0  0  0  0  0
   -5.7566    4.5146    0.0000 O   0  0  0  0  0  0  0  0  0  0  0  0
   -1.1916    3.2129    0.0000 C   0  0  0  0  0  0  0  0  0  0  0  0
   -3.6116    3.2816    0.0000 Cl  0  0  0  0  0  0  0  0  0  0  0  0
   -3.6163    5.7521    0.0000 C   0  0  0  0  0  0  0  0  0  0  0  0
   -2.1954    5.7521    0.0000 C   0  0  0  0  0  0  0  0  0  0  0  0
  2 10  2  0  0  0  0
  3  2  1  0  0  0  0
  4  8  2  0  0  0  0
  5  1  1  0  0  0  0
  6  7  1  0  0  0  0
  7 11  1  0  0  0  0
  8  5  1  0  0  0  0
  9  3  1  0  0  0  0
 10 16  1  0  0  0  0
 11  9  1  0  0  0  0
 12  6  1  0  0  0  0
 13  1  1  0  0  0  0
 14  1  2  0  0  0  0
 15  7  1  0  0  0  0
 16  5  2  0  0  0  0
 17  6  2  0  0  0  0
 18 12  1  0  0  0  0
 19  3  2  0  0  0  0
 20 17  1  0  0  0  0
 21  4  1  0  0  0  0
 22 15  1  0  0  0  0
 23 15  1  0  0  0  0
  2  4  1  0  0  0  0
 20 18  2  0  0  0  0
M  CHG  2   1   1  13  -1
M  END
>  <IDNUMBER>
F2880-0243

>  <Chemical_Name>
2-chloro-N-[2-(dimethylamino)-2-(thiophen-2-yl)ethyl]-4-nitrobenzamide

>  <PriceCoeff>
1.00

>  <CAS>
942010-18-6

>  <MW>
353.82

>  <Description>
solid

>  <FSP3>
0.27

>  <clogP>
2.68

>  <TPSA>
103.72

>  <Acceptor>
3

>  <Donor>
2

>  <RotBonds>
6

>  <HAC>
23

>  <Collection>
General

>  <PPDS>
+

$$$$
F2880-0498
  Mrv2219 10102508112D          

 28 30  0  0  0  0            999 V2000
   -0.0366    7.4805    0.0000 N   0  3  0  0  0  0  0  0  0  0  0  0
   -2.1804    6.2299    0.0000 C   0  0  0  0  0  0  0  0  0  0  0  0
   -2.8813    5.8176    0.0000 C   0  0  0  0  0  0  0  0  0  0  0  0
   -2.1804    7.0636    0.0000 C   0  0  0  0  0  0  0  0  0  0  0  0
   -0.7512    7.0636    0.0000 C   0  0  0  0  0  0  0  0  0  0  0  0
   -1.4658    7.4758    0.0000 C   0  0  0  0  0  0  0  0  0  0  0  0
   -5.7397    5.8176    0.0000 N   0  0  0  0  0  0  0  0  0  0  0  0
   -3.6005    6.2299    0.0000 N   0  0  0  0  0  0  0  0  0  0  0  0
   -5.0388    6.2299    0.0000 C   0  0  0  0  0  0  0  0  0  0  0  0
   -1.4658    5.8176    0.0000 C   0  0  0  0  0  0  0  0  0  0  0  0
   -4.3151    5.8176    0.0000 C   0  0  0  0  0  0  0  0  0  0  0  0
    0.6780    7.0682    0.0000 O   0  5  0  0  0  0  0  0  0  0  0  0
   -0.0366    8.3050    0.0000 O   0  0  0  0  0  0  0  0  0  0  0  0
   -5.0388    7.0636    0.0000 C   0  0  0  0  0  0  0  0  0  0  0  0
   -0.7512    6.2299    0.0000 C   0  0  0  0  0  0  0  0  0  0  0  0
   -2.8859    4.9931    0.0000 O   0  0  0  0  0  0  0  0  0  0  0  0
   -7.1644    4.9931    0.0000 O   0  0  0  0  0  0  0  0  0  0  0  0
   -5.7397    7.4758    0.0000 C   0  0  0  0  0  0  0  0  0  0  0  0
   -4.3151    7.4758    0.0000 C   0  0  0  0  0  0  0  0  0  0  0  0
   -2.8950    7.4805    0.0000 Cl  0  0  0  0  0  0  0  0  0  0  0  0
   -4.3151    8.3004    0.0000 C   0  0  0  0  0  0  0  0  0  0  0  0
   -5.7397    8.3004    0.0000 C   0  0  0  0  0  0  0  0  0  0  0  0
   -5.0388    8.7127    0.0000 C   0  0  0  0  0  0  0  0  0  0  0  0
   -6.4543    6.2299    0.0000 C   0  0  0  0  0  0  0  0  0  0  0  0
   -5.7397    4.9931    0.0000 C   0  0  0  0  0  0  0  0  0  0  0  0
   -6.4543    4.5808    0.0000 C   0  0  0  0  0  0  0  0  0  0  0  0
   -7.1644    5.8176    0.0000 C   0  0  0  0  0  0  0  0  0  0  0  0
   -5.0388    9.5372    0.0000 C   0  0  0  0  0  0  0  0  0  0  0  0
  2 10  2  0  0  0  0
  3  2  1  0  0  0  0
  4  6  2  0  0  0  0
  5  1  1  0  0  0  0
  6  5  1  0  0  0  0
  7  9  1  0  0  0  0
  8  3  1  0  0  0  0
  9 11  1  0  0  0  0
 10 15  1  0  0  0  0
 11  8  1  0  0  0  0
 12  1  1  0  0  0  0
 13  1  2  0  0  0  0
 14  9  1  0  0  0  0
 15  5  2  0  0  0  0
 16  3  2  0  0  0  0
 17 26  1  0  0  0  0
 18 14  2  0  0  0  0
 19 14  1  0  0  0  0
 20  4  1  0  0  0  0
 21 19  2  0  0  0  0
 22 18  1  0  0  0  0
 23 21  1  0  0  0  0
 24  7  1  0  0  0  0
 25  7  1  0  0  0  0
 26 25  1  0  0  0  0
 27 24  1  0  0  0  0
 28 23  1  0  0  0  0
  2  4  1  0  0  0  0
 27 17  1  0  0  0  0
 23 22  2  0  0  0  0
M  CHG  2   1   1  12  -1
M  END
>  <IDNUMBER>
F2880-0498

>  <Chemical_Name>
2-chloro-N-[2-(4-methylphenyl)-2-(morpholin-4-yl)ethyl]-4-nitrobenzamide

>  <PriceCoeff>
1.00

>  <CAS>
899975-52-1

>  <MW>
403.86

>  <Description>
solid

>  <FSP3>
0.35

>  <clogP>
3.34

>  <TPSA>
84.71

>  <Acceptor>
4

>  <Donor>
2

>  <RotBonds>
6

>  <HAC>
28

>  <Collection>
General

>  <PPDS>
+

$$$$
F2880-0668
  Mrv2219 10102508112D          

 29 31  0  0  0  0            999 V2000
   -0.0366    7.4846    0.0000 N   0  3  0  0  0  0  0  0  0  0  0  0
   -2.1816    6.2334    0.0000 C   0  0  0  0  0  0  0  0  0  0  0  0
   -2.8875    5.8209    0.0000 C   0  0  0  0  0  0  0  0  0  0  0  0
   -2.1816    7.0675    0.0000 C   0  0  0  0  0  0  0  0  0  0  0  0
   -0.7563    7.0675    0.0000 C   0  0  0  0  0  0  0  0  0  0  0  0
   -1.4712    7.4800    0.0000 C   0  0  0  0  0  0  0  0  0  0  0  0
   -5.7475    5.8209    0.0000 N   0  0  0  0  0  0  0  0  0  0  0  0
   -5.0416    6.2334    0.0000 C   0  0  0  0  0  0  0  0  0  0  0  0
   -3.6116    6.2334    0.0000 N   0  0  0  0  0  0  0  0  0  0  0  0
   -5.0416    7.0675    0.0000 C   0  0  0  0  0  0  0  0  0  0  0  0
   -1.4712    5.8209    0.0000 C   0  0  0  0  0  0  0  0  0  0  0  0
   -4.3266    5.8209    0.0000 C   0  0  0  0  0  0  0  0  0  0  0  0
    0.6784    7.0721    0.0000 O   0  5  0  0  0  0  0  0  0  0  0  0
   -0.0366    8.3096    0.0000 O   0  0  0  0  0  0  0  0  0  0  0  0
   -0.7563    6.2334    0.0000 C   0  0  0  0  0  0  0  0  0  0  0  0
   -4.3266    7.4800    0.0000 C   0  0  0  0  0  0  0  0  0  0  0  0
   -2.8966    4.9959    0.0000 O   0  0  0  0  0  0  0  0  0  0  0  0
   -7.1684    4.9959    0.0000 O   0  0  0  0  0  0  0  0  0  0  0  0
   -2.9013    7.4846    0.0000 Cl  0  0  0  0  0  0  0  0  0  0  0  0
   -4.3266    8.3050    0.0000 C   0  0  0  0  0  0  0  0  0  0  0  0
   -6.4579    6.2334    0.0000 C   0  0  0  0  0  0  0  0  0  0  0  0
   -5.7475    4.9959    0.0000 C   0  0  0  0  0  0  0  0  0  0  0  0
   -5.7475    7.4800    0.0000 C   0  0  0  0  0  0  0  0  0  0  0  0
   -3.6025    8.7221    0.0000 O   0  0  0  0  0  0  0  0  0  0  0  0
   -5.7475    8.3050    0.0000 C   0  0  0  0  0  0  0  0  0  0  0  0
   -7.1684    5.8209    0.0000 C   0  0  0  0  0  0  0  0  0  0  0  0
   -6.4579    4.5834    0.0000 C   0  0  0  0  0  0  0  0  0  0  0  0
   -5.0416    8.7175    0.0000 C   0  0  0  0  0  0  0  0  0  0  0  0
   -2.8875    8.3096    0.0000 C   0  0  0  0  0  0  0  0  0  0  0  0
  2 11  2  0  0  0  0
  3  2  1  0  0  0  0
  4  6  2  0  0  0  0
  5  1  1  0  0  0  0
  6  5  1  0  0  0  0
  7  8  1  0  0  0  0
  8 12  1  0  0  0  0
  9  3  1  0  0  0  0
 10  8  1  0  0  0  0
 11 15  1  0  0  0  0
 12  9  1  0  0  0  0
 13  1  1  0  0  0  0
 14  1  2  0  0  0  0
 15  5  2  0  0  0  0
 16 10  1  0  0  0  0
 17  3  2  0  0  0  0
 18 27  1  0  0  0  0
 19  4  1  0  0  0  0
 20 16  2  0  0  0  0
 21  7  1  0  0  0  0
 22  7  1  0  0  0  0
 23 10  2  0  0  0  0
 24 20  1  0  0  0  0
 25 23  1  0  0  0  0
 26 21  1  0  0  0  0
 27 22  1  0  0  0  0
 28 25  2  0  0  0  0
 29 24  1  0  0  0  0
  2  4  1  0  0  0  0
 26 18  1  0  0  0  0
 20 28  1  0  0  0  0
M  CHG  2   1   1  13  -1
M  END
>  <IDNUMBER>
F2880-0668

>  <Chemical_Name>
2-chloro-N-[2-(3-methoxyphenyl)-2-(morpholin-4-yl)ethyl]-4-nitrobenzamide

>  <PriceCoeff>
1.00

>  <CAS>
942010-65-3

>  <MW>
419.86

>  <Description>
solid

>  <FSP3>
0.35

>  <clogP>
2.76

>  <TPSA>
93.94

>  <Acceptor>
5

>  <Donor>
2

>  <RotBonds>
7

>  <HAC>
29

>  <Collection>
General

>  <PPDS>
+

$$$$
F2880-0923
  Mrv2219 10102508112D          

 25 26  0  0  0  0            999 V2000
   -0.0366    7.4805    0.0000 N   0  3  0  0  0  0  0  0  0  0  0  0
   -2.1804    6.2299    0.0000 C   0  0  0  0  0  0  0  0  0  0  0  0
   -2.8813    5.8176    0.0000 C   0  0  0  0  0  0  0  0  0  0  0  0
   -2.1804    7.0636    0.0000 C   0  0  0  0  0  0  0  0  0  0  0  0
   -0.7512    7.0636    0.0000 C   0  0  0  0  0  0  0  0  0  0  0  0
   -1.4658    7.4758    0.0000 C   0  0  0  0  0  0  0  0  0  0  0  0
   -3.6005    6.2299    0.0000 N   0  0  0  0  0  0  0  0  0  0  0  0
   -1.4658    5.8176    0.0000 C   0  0  0  0  0  0  0  0  0  0  0  0
   -4.3151    5.8176    0.0000 C   0  0  0  0  0  0  0  0  0  0  0  0
   -5.0388    6.2299    0.0000 C   0  0  0  0  0  0  0  0  0  0  0  0
    0.6780    7.0682    0.0000 O   0  5  0  0  0  0  0  0  0  0  0  0
   -0.0366    8.3050    0.0000 O   0  0  0  0  0  0  0  0  0  0  0  0
   -5.0388    7.0636    0.0000 C   0  0  0  0  0  0  0  0  0  0  0  0
   -5.7397    5.8176    0.0000 N   0  0  0  0  0  0  0  0  0  0  0  0
   -0.7512    6.2299    0.0000 C   0  0  0  0  0  0  0  0  0  0  0  0
   -2.8859    4.9931    0.0000 O   0  0  0  0  0  0  0  0  0  0  0  0
   -4.3242    7.4758    0.0000 C   0  0  0  0  0  0  0  0  0  0  0  0
   -5.7443    7.4758    0.0000 C   0  0  0  0  0  0  0  0  0  0  0  0
   -2.8950    7.4805    0.0000 Cl  0  0  0  0  0  0  0  0  0  0  0  0
   -5.0388    8.7127    0.0000 C   0  0  0  0  0  0  0  0  0  0  0  0
   -5.7443    8.3004    0.0000 C   0  0  0  0  0  0  0  0  0  0  0  0
   -4.3242    8.3004    0.0000 C   0  0  0  0  0  0  0  0  0  0  0  0
   -5.0388    9.5372    0.0000 F   0  0  0  0  0  0  0  0  0  0  0  0
   -5.7397    4.9931    0.0000 C   0  0  0  0  0  0  0  0  0  0  0  0
   -6.4543    6.2299    0.0000 C   0  0  0  0  0  0  0  0  0  0  0  0
  2  8  2  0  0  0  0
  3  2  1  0  0  0  0
  4  6  2  0  0  0  0
  5  1  1  0  0  0  0
  6  5  1  0  0  0  0
  7  3  1  0  0  0  0
  8 15  1  0  0  0  0
  9  7  1  0  0  0  0
 10  9  1  0  0  0  0
 11  1  1  0  0  0  0
 12  1  2  0  0  0  0
 13 10  1  0  0  0  0
 14 10  1  0  0  0  0
 15  5  2  0  0  0  0
 16  3  2  0  0  0  0
 17 13  1  0  0  0  0
 18 13  2  0  0  0  0
 19  4  1  0  0  0  0
 20 21  2  0  0  0  0
 21 18  1  0  0  0  0
 22 17  2  0  0  0  0
 23 20  1  0  0  0  0
 24 14  1  0  0  0  0
 25 14  1  0  0  0  0
  2  4  1  0  0  0  0
 22 20  1  0  0  0  0
M  CHG  2   1   1  11  -1
M  END
>  <IDNUMBER>
F2880-0923

>  <Chemical_Name>
2-chloro-N-[2-(dimethylamino)-2-(4-fluorophenyl)ethyl]-4-nitrobenzamide

>  <PriceCoeff>
1.00

>  <CAS>
899744-96-8

>  <MW>
365.79

>  <Description>
solid

>  <FSP3>
0.24

>  <clogP>
3.18

>  <TPSA>
75.48

>  <Acceptor>
3

>  <Donor>
2

>  <RotBonds>
6

>  <HAC>
25

>  <Collection>
General

>  <PPDS>
+

$$$$
F2880-1008
  Mrv2219 10102508112D          

 28 30  0  0  0  0            999 V2000
   -0.0366    7.4805    0.0000 N   0  3  0  0  0  0  0  0  0  0  0  0
   -2.1804    6.2299    0.0000 C   0  0  0  0  0  0  0  0  0  0  0  0
   -2.8813    5.8176    0.0000 C   0  0  0  0  0  0  0  0  0  0  0  0
   -2.1804    7.0636    0.0000 C   0  0  0  0  0  0  0  0  0  0  0  0
   -0.7512    7.0636    0.0000 C   0  0  0  0  0  0  0  0  0  0  0  0
   -1.4658    7.4758    0.0000 C   0  0  0  0  0  0  0  0  0  0  0  0
   -5.7397    5.8176    0.0000 N   0  0  0  0  0  0  0  0  0  0  0  0
   -3.6005    6.2299    0.0000 N   0  0  0  0  0  0  0  0  0  0  0  0
   -5.0388    6.2299    0.0000 C   0  0  0  0  0  0  0  0  0  0  0  0
   -1.4658    5.8176    0.0000 C   0  0  0  0  0  0  0  0  0  0  0  0
   -4.3151    5.8176    0.0000 C   0  0  0  0  0  0  0  0  0  0  0  0
    0.6780    7.0682    0.0000 O   0  5  0  0  0  0  0  0  0  0  0  0
   -0.0366    8.3050    0.0000 O   0  0  0  0  0  0  0  0  0  0  0  0
   -5.0388    7.0636    0.0000 C   0  0  0  0  0  0  0  0  0  0  0  0
   -0.7512    6.2299    0.0000 C   0  0  0  0  0  0  0  0  0  0  0  0
   -2.8859    4.9931    0.0000 O   0  0  0  0  0  0  0  0  0  0  0  0
   -7.1644    4.9931    0.0000 O   0  0  0  0  0  0  0  0  0  0  0  0
   -5.7397    7.4758    0.0000 C   0  0  0  0  0  0  0  0  0  0  0  0
   -4.3151    7.4758    0.0000 C   0  0  0  0  0  0  0  0  0  0  0  0
   -2.8950    7.4805    0.0000 Cl  0  0  0  0  0  0  0  0  0  0  0  0
   -5.0388    8.7127    0.0000 C   0  0  0  0  0  0  0  0  0  0  0  0
   -4.3151    8.3004    0.0000 C   0  0  0  0  0  0  0  0  0  0  0  0
   -5.7397    8.3004    0.0000 C   0  0  0  0  0  0  0  0  0  0  0  0
   -5.0388    9.5372    0.0000 F   0  0  0  0  0  0  0  0  0  0  0  0
   -5.7397    4.9931    0.0000 C   0  0  0  0  0  0  0  0  0  0  0  0
   -6.4543    6.2299    0.0000 C   0  0  0  0  0  0  0  0  0  0  0  0
   -7.1644    5.8176    0.0000 C   0  0  0  0  0  0  0  0  0  0  0  0
   -6.4543    4.5808    0.0000 C   0  0  0  0  0  0  0  0  0  0  0  0
  2 10  2  0  0  0  0
  3  2  1  0  0  0  0
  4  6  2  0  0  0  0
  5  1  1  0  0  0  0
  6  5  1  0  0  0  0
  7  9  1  0  0  0  0
  8  3  1  0  0  0  0
  9 11  1  0  0  0  0
 10 15  1  0  0  0  0
 11  8  1  0  0  0  0
 12  1  1  0  0  0  0
 13  1  2  0  0  0  0
 14  9  1  0  0  0  0
 15  5  2  0  0  0  0
 16  3  2  0  0  0  0
 17 27  1  0  0  0  0
 18 14  2  0  0  0  0
 19 14  1  0  0  0  0
 20  4  1  0  0  0  0
 21 22  1  0  0  0  0
 22 19  2  0  0  0  0
 23 18  1  0  0  0  0
 24 21  1  0  0  0  0
 25  7  1  0  0  0  0
 26  7  1  0  0  0  0
 27 26  1  0  0  0  0
 28 25  1  0  0  0  0
  2  4  1  0  0  0  0
 21 23  2  0  0  0  0
 28 17  1  0  0  0  0
M  CHG  2   1   1  12  -1
M  END
>  <IDNUMBER>
F2880-1008

>  <Chemical_Name>
2-chloro-N-[2-(4-fluorophenyl)-2-(morpholin-4-yl)ethyl]-4-nitrobenzamide

>  <PriceCoeff>
1.00

>  <CAS>
941896-76-0

>  <MW>
407.82

>  <Description>
solid

>  <FSP3>
0.32

>  <clogP>
2.98

>  <TPSA>
84.71

>  <Acceptor>
4

>  <Donor>
2

>  <RotBonds>
6

>  <HAC>
28

>  <Collection>
General

>  <PPDS>
+

$$$$
F2895-0253
  Mrv2219 10102508112D          

 29 32  0  0  0  0            999 V2000
   -1.0145    1.9731    0.0000 C   0  0  0  0  0  0  0  0  0  0  0  0
   -1.2582    1.2222    0.0000 N   0  0  0  0  0  0  0  0  0  0  0  0
    1.8134    0.0799    0.0000 N   0  0  0  0  0  0  0  0  0  0  0  0
   -0.2596    2.2168    0.0000 N   0  0  0  0  0  0  0  0  0  0  0  0
   -1.6416    2.4404    0.0000 S   0  0  0  0  0  0  0  0  0  0  0  0
    1.0825    1.3380    0.0000 C   0  0  0  0  0  0  0  0  0  0  0  0
   -2.0450    1.2222    0.0000 C   0  0  0  0  0  0  0  0  0  0  0  0
   -2.2887    1.9731    0.0000 C   0  0  0  0  0  0  0  0  0  0  0  0
    1.0825    0.4992    0.0000 C   0  0  0  0  0  0  0  0  0  0  0  0
    2.5683    0.4274    0.0000 C   0  0  0  0  0  0  0  0  0  0  0  0
    1.8973   -0.7470    0.0000 C   0  0  0  0  0  0  0  0  0  0  0  0
   -2.5763    0.6430    0.0000 C   0  0  0  0  0  0  0  0  0  0  0  0
   -3.0635    2.1409    0.0000 C   0  0  0  0  0  0  0  0  0  0  0  0
   -0.0918    2.9837    0.0000 C   0  0  0  0  0  0  0  0  0  0  0  0
   -3.5908    1.5537    0.0000 C   0  0  0  0  0  0  0  0  0  0  0  0
    1.6816    1.7255    0.0000 O   0  0  0  0  0  0  0  0  0  0  0  0
   -3.3432    0.8108    0.0000 C   0  0  0  0  0  0  0  0  0  0  0  0
    3.1315   -0.1838    0.0000 C   0  0  0  0  0  0  0  0  0  0  0  0
    2.7241   -0.9147    0.0000 C   0  0  0  0  0  0  0  0  0  0  0  0
    2.7481    1.2422    0.0000 O   0  0  0  0  0  0  0  0  0  0  0  0
    1.2742   -1.3061    0.0000 O   0  0  0  0  0  0  0  0  0  0  0  0
    1.3181    2.6801    0.0000 N   0  0  0  0  0  0  0  0  0  0  0  0
    0.6990    3.2353    0.0000 C   0  0  0  0  0  0  0  0  0  0  0  0
   -4.3737    1.7135    0.0000 Cl  0  0  0  0  0  0  0  0  0  0  0  0
   -2.3446   -0.1239    0.0000 C   0  0  0  0  0  0  0  0  0  0  0  0
    2.1130    2.9317    0.0000 C   0  0  0  0  0  0  0  0  0  0  0  0
    0.8788    4.0422    0.0000 C   0  0  0  0  0  0  0  0  0  0  0  0
    2.2927    3.7466    0.0000 C   0  0  0  0  0  0  0  0  0  0  0  0
    1.6776    4.2938    0.0000 C   0  0  0  0  0  0  0  0  0  0  0  0
  2  1  2  0  0  0  0
  3  9  1  0  0  0  0
  4  1  1  0  0  0  0
  5  1  1  0  0  0  0
  6  4  1  0  0  0  0
  7  2  1  0  0  0  0
  8  5  1  0  0  0  0
  9  6  1  0  0  0  0
 10  3  1  0  0  0  0
 11  3  1  0  0  0  0
 12  7  1  0  0  0  0
 13  8  1  0  0  0  0
 14  4  1  0  0  0  0
 15 13  2  0  0  0  0
 16  6  2  0  0  0  0
 17 12  2  0  0  0  0
 18 10  1  0  0  0  0
 19 11  1  0  0  0  0
 20 10  2  0  0  0  0
 21 11  2  0  0  0  0
 22 23  1  0  0  0  0
 23 14  1  0  0  0  0
 24 15  1  0  0  0  0
 25 12  1  0  0  0  0
 26 22  2  0  0  0  0
 27 23  2  0  0  0  0
 28 29  2  0  0  0  0
 29 27  1  0  0  0  0
  7  8  2  0  0  0  0
 15 17  1  0  0  0  0
 26 28  1  0  0  0  0
 19 18  1  0  0  0  0
M  END
>  <IDNUMBER>
F2895-0253

>  <Chemical_Name>
N-(6-chloro-4-methyl-1,3-benzothiazol-2-yl)-2-(2,5-dioxopyrrolidin-1-yl)-N-[(pyridin-2-yl)methyl]acetamide

>  <PriceCoeff>
1.00

>  <CAS>
920398-57-8

>  <MW>
428.89

>  <Description>
solid

>  <FSP3>
0.25

>  <clogP>
2.20

>  <TPSA>
111.71

>  <Acceptor>
5

>  <Donor>
1

>  <RotBonds>
6

>  <HAC>
29

>  <Collection>
General

>  <PPDS>
+

$$$$
F2895-0387
  Mrv2219 10102508112D          

 34 38  0  0  0  0            999 V2000
   -1.0067    1.9580    0.0000 C   0  0  0  0  0  0  0  0  0  0  0  0
   -0.2576    2.1998    0.0000 N   0  0  0  0  0  0  0  0  0  0  0  0
   -1.2485    1.2129    0.0000 N   0  0  0  0  0  0  0  0  0  0  0  0
   -0.3646   -1.1693    0.0000 N   0  0  0  0  0  0  0  0  0  0  0  0
   -1.6290    2.4217    0.0000 S   0  0  0  0  0  0  0  0  0  0  0  0
    1.0742    1.3278    0.0000 C   0  0  0  0  0  0  0  0  0  0  0  0
   -2.0293    1.2129    0.0000 C   0  0  0  0  0  0  0  0  0  0  0  0
   -2.2711    1.9580    0.0000 C   0  0  0  0  0  0  0  0  0  0  0  0
    0.3607   -0.7531    0.0000 C   0  0  0  0  0  0  0  0  0  0  0  0
   -0.4835   -1.9898    0.0000 C   0  0  0  0  0  0  0  0  0  0  0  0
   -1.1018   -0.7888    0.0000 C   0  0  0  0  0  0  0  0  0  0  0  0
    1.0742    0.4954    0.0000 C   0  0  0  0  0  0  0  0  0  0  0  0
   -2.5565    0.6381    0.0000 C   0  0  0  0  0  0  0  0  0  0  0  0
    0.3607    0.0792    0.0000 C   0  0  0  0  0  0  0  0  0  0  0  0
   -3.0400    2.1245    0.0000 C   0  0  0  0  0  0  0  0  0  0  0  0
   -0.0911    2.9608    0.0000 C   0  0  0  0  0  0  0  0  0  0  0  0
    1.6687    1.7123    0.0000 O   0  0  0  0  0  0  0  0  0  0  0  0
   -3.5632    1.5418    0.0000 C   0  0  0  0  0  0  0  0  0  0  0  0
   -3.3175    0.8046    0.0000 C   0  0  0  0  0  0  0  0  0  0  0  0
   -1.2961   -2.1324    0.0000 C   0  0  0  0  0  0  0  0  0  0  0  0
   -1.6964   -1.4031    0.0000 C   0  0  0  0  0  0  0  0  0  0  0  0
    0.0991   -2.5724    0.0000 O   0  0  0  0  0  0  0  0  0  0  0  0
   -1.2366    0.0238    0.0000 O   0  0  0  0  0  0  0  0  0  0  0  0
    2.0968    2.9092    0.0000 N   0  0  0  0  0  0  0  0  0  0  0  0
    0.6937    3.2105    0.0000 C   0  0  0  0  0  0  0  0  0  0  0  0
   -4.3401    1.7004    0.0000 Cl  0  0  0  0  0  0  0  0  0  0  0  0
    1.0742   -1.1693    0.0000 C   0  0  0  0  0  0  0  0  0  0  0  0
    1.3080    2.6595    0.0000 C   0  0  0  0  0  0  0  0  0  0  0  0
    1.7995    0.0792    0.0000 C   0  0  0  0  0  0  0  0  0  0  0  0
   -2.3266   -0.1229    0.0000 C   0  0  0  0  0  0  0  0  0  0  0  0
    1.7995   -0.7531    0.0000 C   0  0  0  0  0  0  0  0  0  0  0  0
    2.2751    3.7178    0.0000 C   0  0  0  0  0  0  0  0  0  0  0  0
    0.8720    4.0112    0.0000 C   0  0  0  0  0  0  0  0  0  0  0  0
    1.6647    4.2609    0.0000 C   0  0  0  0  0  0  0  0  0  0  0  0
  2  1  1  0  0  0  0
  3  1  2  0  0  0  0
  4  9  1  0  0  0  0
  5  1  1  0  0  0  0
  6  2  1  0  0  0  0
  7  3  1  0  0  0  0
  8  5  1  0  0  0  0
  9 14  1  0  0  0  0
 10  4  1  0  0  0  0
 11  4  1  0  0  0  0
 12  6  1  0  0  0  0
 13  7  1  0  0  0  0
 14 12  2  0  0  0  0
 15  8  1  0  0  0  0
 16  2  1  0  0  0  0
 17  6  2  0  0  0  0
 18 15  2  0  0  0  0
 19 13  2  0  0  0  0
 20 10  1  0  0  0  0
 21 11  1  0  0  0  0
 22 10  2  0  0  0  0
 23 11  2  0  0  0  0
 24 28  2  0  0  0  0
 25 16  1  0  0  0  0
 26 18  1  0  0  0  0
 27 31  1  0  0  0  0
 28 25  1  0  0  0  0
 29 12  1  0  0  0  0
 30 13  1  0  0  0  0
 31 29  2  0  0  0  0
 32 34  2  0  0  0  0
 33 25  2  0  0  0  0
 34 33  1  0  0  0  0
  7  8  2  0  0  0  0
 18 19  1  0  0  0  0
 24 32  1  0  0  0  0
 27  9  2  0  0  0  0
 20 21  1  0  0  0  0
M  END
>  <IDNUMBER>
F2895-0387

>  <Chemical_Name>
N-(6-chloro-4-methyl-1,3-benzothiazol-2-yl)-3-(2,5-dioxopyrrolidin-1-yl)-N-[(pyridin-3-yl)methyl]benzamide

>  <PriceCoeff>
1.00

>  <CAS>
920214-71-7

>  <MW>
490.96

>  <Description>
solid

>  <FSP3>
0.16

>  <clogP>
3.05

>  <TPSA>
111.71

>  <Acceptor>
5

>  <Donor>
1

>  <RotBonds>
6

>  <HAC>
34

>  <Collection>
General

>  <PPDS>
+

$$$$
F2895-0419
  Mrv2219 10102508112D          

 29 32  0  0  0  0            999 V2000
   -1.0145    1.9731    0.0000 C   0  0  0  0  0  0  0  0  0  0  0  0
   -1.2582    1.2222    0.0000 N   0  0  0  0  0  0  0  0  0  0  0  0
    1.8134    0.0799    0.0000 N   0  0  0  0  0  0  0  0  0  0  0  0
   -0.2596    2.2168    0.0000 N   0  0  0  0  0  0  0  0  0  0  0  0
   -1.6416    2.4404    0.0000 S   0  0  0  0  0  0  0  0  0  0  0  0
    1.0825    1.3380    0.0000 C   0  0  0  0  0  0  0  0  0  0  0  0
   -2.0450    1.2222    0.0000 C   0  0  0  0  0  0  0  0  0  0  0  0
   -2.2887    1.9731    0.0000 C   0  0  0  0  0  0  0  0  0  0  0  0
    1.0825    0.4992    0.0000 C   0  0  0  0  0  0  0  0  0  0  0  0
    2.5683    0.4274    0.0000 C   0  0  0  0  0  0  0  0  0  0  0  0
    1.8973   -0.7470    0.0000 C   0  0  0  0  0  0  0  0  0  0  0  0
   -2.5763    0.6430    0.0000 C   0  0  0  0  0  0  0  0  0  0  0  0
   -3.0635    2.1409    0.0000 C   0  0  0  0  0  0  0  0  0  0  0  0
   -0.0918    2.9837    0.0000 C   0  0  0  0  0  0  0  0  0  0  0  0
   -3.5908    1.5537    0.0000 C   0  0  0  0  0  0  0  0  0  0  0  0
    1.6816    1.7255    0.0000 O   0  0  0  0  0  0  0  0  0  0  0  0
   -3.3432    0.8108    0.0000 C   0  0  0  0  0  0  0  0  0  0  0  0
    3.1315   -0.1838    0.0000 C   0  0  0  0  0  0  0  0  0  0  0  0
    2.7241   -0.9147    0.0000 C   0  0  0  0  0  0  0  0  0  0  0  0
    2.7481    1.2422    0.0000 O   0  0  0  0  0  0  0  0  0  0  0  0
    1.2742   -1.3061    0.0000 O   0  0  0  0  0  0  0  0  0  0  0  0
    2.1130    2.9317    0.0000 N   0  0  0  0  0  0  0  0  0  0  0  0
    0.6990    3.2353    0.0000 C   0  0  0  0  0  0  0  0  0  0  0  0
   -4.3737    1.7135    0.0000 Cl  0  0  0  0  0  0  0  0  0  0  0  0
    1.3181    2.6801    0.0000 C   0  0  0  0  0  0  0  0  0  0  0  0
   -2.3446   -0.1239    0.0000 C   0  0  0  0  0  0  0  0  0  0  0  0
    2.2927    3.7466    0.0000 C   0  0  0  0  0  0  0  0  0  0  0  0
    0.8788    4.0422    0.0000 C   0  0  0  0  0  0  0  0  0  0  0  0
    1.6776    4.2938    0.0000 C   0  0  0  0  0  0  0  0  0  0  0  0
  2  1  2  0  0  0  0
  3  9  1  0  0  0  0
  4  1  1  0  0  0  0
  5  1  1  0  0  0  0
  6  4  1  0  0  0  0
  7  2  1  0  0  0  0
  8  5  1  0  0  0  0
  9  6  1  0  0  0  0
 10  3  1  0  0  0  0
 11  3  1  0  0  0  0
 12  7  1  0  0  0  0
 13  8  1  0  0  0  0
 14  4  1  0  0  0  0
 15 13  2  0  0  0  0
 16  6  2  0  0  0  0
 17 12  2  0  0  0  0
 18 10  1  0  0  0  0
 19 11  1  0  0  0  0
 20 10  2  0  0  0  0
 21 11  2  0  0  0  0
 22 25  2  0  0  0  0
 23 14  1  0  0  0  0
 24 15  1  0  0  0  0
 25 23  1  0  0  0  0
 26 12  1  0  0  0  0
 27 29  2  0  0  0  0
 28 23  2  0  0  0  0
 29 28  1  0  0  0  0
  7  8  2  0  0  0  0
 15 17  1  0  0  0  0
 22 27  1  0  0  0  0
 19 18  1  0  0  0  0
M  END
>  <IDNUMBER>
F2895-0419

>  <Chemical_Name>
N-(6-chloro-4-methyl-1,3-benzothiazol-2-yl)-2-(2,5-dioxopyrrolidin-1-yl)-N-[(pyridin-3-yl)methyl]acetamide

>  <PriceCoeff>
1.00

>  <CAS>
920174-72-7

>  <MW>
428.89

>  <Description>
solid

>  <FSP3>
0.25

>  <clogP>
2.20

>  <TPSA>
111.71

>  <Acceptor>
5

>  <Donor>
1

>  <RotBonds>
6

>  <HAC>
29

>  <Collection>
General

>  <PPDS>
+

$$$$
F2898-4411
  Mrv2219 10102508112D          

 33 37  0  0  0  0            999 V2000
   -5.3134    2.9909    0.0000 C   0  0  0  0  0  0  0  0  0  0  0  0
   -4.5949    2.5648    0.0000 N   0  0  0  0  0  0  0  0  0  0  0  0
   -6.0570    2.6525    0.0000 N   0  0  0  0  0  0  0  0  0  0  0  0
   -1.0109    1.3116    0.0000 N   0  0  0  0  0  0  0  0  0  0  0  0
   -5.4095    3.8054    0.0000 S   0  0  0  0  0  0  0  0  0  0  0  0
   -3.8806    2.9783    0.0000 C   0  0  0  0  0  0  0  0  0  0  0  0
   -6.6084    3.2540    0.0000 C   0  0  0  0  0  0  0  0  0  0  0  0
   -6.2032    3.9683    0.0000 C   0  0  0  0  0  0  0  0  0  0  0  0
   -0.2632    1.6750    0.0000 C   0  0  0  0  0  0  0  0  0  0  0  0
   -0.8897    0.4971    0.0000 C   0  0  0  0  0  0  0  0  0  0  0  0
   -7.4480    3.2415    0.0000 C   0  0  0  0  0  0  0  0  0  0  0  0
   -6.6084    4.7537    0.0000 C   0  0  0  0  0  0  0  0  0  0  0  0
   -1.7294    1.7294    0.0000 C   0  0  0  0  0  0  0  0  0  0  0  0
   -4.5949    1.7377    0.0000 C   0  0  0  0  0  0  0  0  0  0  0  0
   -3.1580    2.5690    0.0000 C   0  0  0  0  0  0  0  0  0  0  0  0
   -3.8806    3.8096    0.0000 O   0  0  0  0  0  0  0  0  0  0  0  0
   -7.4480    4.6660    0.0000 C   0  0  0  0  0  0  0  0  0  0  0  0
   -7.8240    4.0519    0.0000 C   0  0  0  0  0  0  0  0  0  0  0  0
    0.3133    1.0777    0.0000 C   0  0  0  0  0  0  0  0  0  0  0  0
   -0.0835    0.3592    0.0000 C   0  0  0  0  0  0  0  0  0  0  0  0
   -0.1128    2.5063    0.0000 O   0  0  0  0  0  0  0  0  0  0  0  0
   -1.4871   -0.0794    0.0000 O   0  0  0  0  0  0  0  0  0  0  0  0
   -1.7252    2.5690    0.0000 C   0  0  0  0  0  0  0  0  0  0  0  0
   -2.4437    1.3367    0.0000 C   0  0  0  0  0  0  0  0  0  0  0  0
   -5.2967    0.5013    0.0000 O   0  0  0  0  0  0  0  0  0  0  0  0
   -3.1580    1.7502    0.0000 C   0  0  0  0  0  0  0  0  0  0  0  0
   -2.4311    2.9909    0.0000 C   0  0  0  0  0  0  0  0  0  0  0  0
   -5.2967    1.3284    0.0000 C   0  0  0  0  0  0  0  0  0  0  0  0
   -7.8992    5.3385    0.0000 Cl  0  0  0  0  0  0  0  0  0  0  0  0
   -7.8866    2.5523    0.0000 C   0  0  0  0  0  0  0  0  0  0  0  0
   -6.0821    0.2464    0.0000 C   0  0  0  0  0  0  0  0  0  0  0  0
   -6.0779    1.5790    0.0000 C   0  0  0  0  0  0  0  0  0  0  0  0
   -6.5708    0.9106    0.0000 C   0  0  0  0  0  0  0  0  0  0  0  0
  2  1  1  0  0  0  0
  3  1  2  0  0  0  0
  4 13  1  0  0  0  0
  5  1  1  0  0  0  0
  6  2  1  0  0  0  0
  7  3  1  0  0  0  0
  8  5  1  0  0  0  0
  9  4  1  0  0  0  0
 10  4  1  0  0  0  0
 11  7  1  0  0  0  0
 12  8  1  0  0  0  0
 13 23  1  0  0  0  0
 14  2  1  0  0  0  0
 15  6  1  0  0  0  0
 16  6  2  0  0  0  0
 17 12  2  0  0  0  0
 18 11  2  0  0  0  0
 19  9  1  0  0  0  0
 20 10  1  0  0  0  0
 21  9  2  0  0  0  0
 22 10  2  0  0  0  0
 23 27  2  0  0  0  0
 24 26  1  0  0  0  0
 25 28  1  0  0  0  0
 26 15  2  0  0  0  0
 27 15  1  0  0  0  0
 28 14  1  0  0  0  0
 29 17  1  0  0  0  0
 30 11  1  0  0  0  0
 31 25  1  0  0  0  0
 32 28  1  0  0  0  0
 33 32  1  0  0  0  0
  8  7  2  0  0  0  0
 18 17  1  0  0  0  0
 33 31  1  0  0  0  0
 24 13  2  0  0  0  0
 19 20  1  0  0  0  0
M  END
>  <IDNUMBER>
F2898-4411

>  <Chemical_Name>
N-(6-chloro-4-methyl-1,3-benzothiazol-2-yl)-4-(2,5-dioxopyrrolidin-1-yl)-N-[(oxolan-2-yl)methyl]benzamide

>  <PriceCoeff>
1.00

>  <CAS>
922394-98-7

>  <MW>
483.97

>  <Description>
solid

>  <FSP3>
0.33

>  <clogP>
2.59

>  <TPSA>
108.05

>  <Acceptor>
5

>  <Donor>
0

>  <RotBonds>
6

>  <HAC>
33

>  <Collection>
General

>  <PPDS>
+

$$$$
F2898-5747
  Mrv2219 10102508112D          

 30 33  0  0  0  0            999 V2000
    6.6605   -5.5138    0.0000 C   0  0  0  0  0  0  0  0  0  0  0  0
    6.7474   -4.6942    0.0000 N   0  0  0  0  0  0  0  0  0  0  0  0
    3.8042   -5.5014    0.0000 N   0  0  0  0  0  0  0  0  0  0  0  0
    5.9402   -5.9278    0.0000 N   0  0  0  0  0  0  0  0  0  0  0  0
    7.5546   -4.5203    0.0000 C   0  0  0  0  0  0  0  0  0  0  0  0
    7.4180   -5.8533    0.0000 S   0  0  0  0  0  0  0  0  0  0  0  0
    7.9644   -3.8042    0.0000 C   0  0  0  0  0  0  0  0  0  0  0  0
    5.2323   -5.5056    0.0000 C   0  0  0  0  0  0  0  0  0  0  0  0
    7.5546   -3.0964    0.0000 C   0  0  0  0  0  0  0  0  0  0  0  0
    4.5121   -5.9154    0.0000 C   0  0  0  0  0  0  0  0  0  0  0  0
    3.0467   -5.8243    0.0000 C   0  0  0  0  0  0  0  0  0  0  0  0
    3.7255   -4.6818    0.0000 C   0  0  0  0  0  0  0  0  0  0  0  0
    7.9644   -5.2323    0.0000 C   0  0  0  0  0  0  0  0  0  0  0  0
    5.9402   -6.7474    0.0000 C   0  0  0  0  0  0  0  0  0  0  0  0
    5.2323   -4.6818    0.0000 O   0  0  0  0  0  0  0  0  0  0  0  0
    2.9225   -4.4997    0.0000 C   0  0  0  0  0  0  0  0  0  0  0  0
    2.5085   -5.2033    0.0000 C   0  0  0  0  0  0  0  0  0  0  0  0
    4.3382   -4.1271    0.0000 O   0  0  0  0  0  0  0  0  0  0  0  0
    2.8728   -6.6357    0.0000 O   0  0  0  0  0  0  0  0  0  0  0  0
    7.8651   -2.2892    0.0000 F   0  0  0  0  0  0  0  0  0  0  0  0
    6.7060   -2.9597    0.0000 F   0  0  0  0  0  0  0  0  0  0  0  0
    7.1820   -2.4464    0.0000 F   0  0  0  0  0  0  0  0  0  0  0  0
    6.7474   -7.9851    0.0000 O   0  0  0  0  0  0  0  0  0  0  0  0
    6.6605   -7.1654    0.0000 C   0  0  0  0  0  0  0  0  0  0  0  0
    8.7922   -3.8042    0.0000 C   0  0  0  0  0  0  0  0  0  0  0  0
    8.7964   -5.2405    0.0000 C   0  0  0  0  0  0  0  0  0  0  0  0
    9.2063   -4.5245    0.0000 C   0  0  0  0  0  0  0  0  0  0  0  0
    7.5546   -8.1589    0.0000 C   0  0  0  0  0  0  0  0  0  0  0  0
    7.4180   -6.8302    0.0000 C   0  0  0  0  0  0  0  0  0  0  0  0
    7.9644   -7.4428    0.0000 C   0  0  0  0  0  0  0  0  0  0  0  0
  2  1  2  0  0  0  0
  3 10  1  0  0  0  0
  4  1  1  0  0  0  0
  5  2  1  0  0  0  0
  6  1  1  0  0  0  0
  7  5  1  0  0  0  0
  8  4  1  0  0  0  0
  9  7  1  0  0  0  0
 10  8  1  0  0  0  0
 11  3  1  0  0  0  0
 12  3  1  0  0  0  0
 13  6  1  0  0  0  0
 14  4  1  0  0  0  0
 15  8  2  0  0  0  0
 16 12  1  0  0  0  0
 17 11  1  0  0  0  0
 18 12  2  0  0  0  0
 19 11  2  0  0  0  0
 20  9  1  0  0  0  0
 21  9  1  0  0  0  0
 22  9  1  0  0  0  0
 23 24  1  0  0  0  0
 24 14  1  0  0  0  0
 25  7  2  0  0  0  0
 26 13  1  0  0  0  0
 27 26  2  0  0  0  0
 28 23  1  0  0  0  0
 29 24  1  0  0  0  0
 30 29  1  0  0  0  0
  5 13  2  0  0  0  0
 27 25  1  0  0  0  0
 28 30  1  0  0  0  0
 16 17  1  0  0  0  0
M  END
>  <IDNUMBER>
F2898-5747

>  <Chemical_Name>
2-(2,5-dioxopyrrolidin-1-yl)-N-[(oxolan-2-yl)methyl]-N-[4-(trifluoromethyl)-1,3-benzothiazol-2-yl]acetamide

>  <PriceCoeff>
1.00

>  <CAS>
1396867-38-1

>  <MW>
441.42

>  <Description>
solid

>  <FSP3>
0.47

>  <clogP>
2.47

>  <TPSA>
108.05

>  <Acceptor>
5

>  <Donor>
0

>  <RotBonds>
6

>  <HAC>
30

>  <Collection>
General

>  <PPDS>
+

$$$$
F2899-2239
  Mrv2219 10102508112D          

 32 36  0  0  0  0            999 V2000
   -5.3120    2.9846    0.0000 C   0  0  0  0  0  0  0  0  0  0  0  0
   -4.6045    2.5701    0.0000 N   0  0  0  0  0  0  0  0  0  0  0  0
   -2.4488    0.4981    0.0000 N   0  0  0  0  0  0  0  0  0  0  0  0
   -6.0446    2.6372    0.0000 N   0  0  0  0  0  0  0  0  0  0  0  0
   -5.3999    3.7757    0.0000 S   0  0  0  0  0  0  0  0  0  0  0  0
   -3.8887    2.9846    0.0000 C   0  0  0  0  0  0  0  0  0  0  0  0
   -2.4446    1.3311    0.0000 C   0  0  0  0  0  0  0  0  0  0  0  0
   -6.1953    3.9432    0.0000 C   0  0  0  0  0  0  0  0  0  0  0  0
   -1.8041   -0.0168    0.0000 C   0  0  0  0  0  0  0  0  0  0  0  0
   -3.1478    0.0460    0.0000 C   0  0  0  0  0  0  0  0  0  0  0  0
   -6.5929    3.2357    0.0000 C   0  0  0  0  0  0  0  0  0  0  0  0
   -3.1646    2.5744    0.0000 C   0  0  0  0  0  0  0  0  0  0  0  0
   -3.1646    1.7455    0.0000 C   0  0  0  0  0  0  0  0  0  0  0  0
   -4.6045    1.7581    0.0000 C   0  0  0  0  0  0  0  0  0  0  0  0
   -6.6097    4.6255    0.0000 C   0  0  0  0  0  0  0  0  0  0  0  0
   -5.3078    1.3520    0.0000 C   0  0  0  0  0  0  0  0  0  0  0  0
   -5.2952    0.5358    0.0000 O   0  0  0  0  0  0  0  0  0  0  0  0
   -3.8887    3.8176    0.0000 O   0  0  0  0  0  0  0  0  0  0  0  0
   -2.0804   -0.7954    0.0000 C   0  0  0  0  0  0  0  0  0  0  0  0
   -2.9092   -0.7703    0.0000 C   0  0  0  0  0  0  0  0  0  0  0  0
   -1.0004    0.1967    0.0000 O   0  0  0  0  0  0  0  0  0  0  0  0
   -3.9181    0.3348    0.0000 O   0  0  0  0  0  0  0  0  0  0  0  0
   -6.0697    1.6032    0.0000 C   0  0  0  0  0  0  0  0  0  0  0  0
   -6.0571    0.2763    0.0000 C   0  0  0  0  0  0  0  0  0  0  0  0
   -6.5469    0.9293    0.0000 C   0  0  0  0  0  0  0  0  0  0  0  0
   -7.4134    3.2274    0.0000 C   0  0  0  0  0  0  0  0  0  0  0  0
   -7.4259    4.6255    0.0000 C   0  0  0  0  0  0  0  0  0  0  0  0
   -7.8152    3.9390    0.0000 C   0  0  0  0  0  0  0  0  0  0  0  0
   -8.0664    5.5799    0.0000 F   0  0  0  0  0  0  0  0  0  0  0  0
   -1.7288    1.7413    0.0000 C   0  0  0  0  0  0  0  0  0  0  0  0
   -2.4446    2.9971    0.0000 C   0  0  0  0  0  0  0  0  0  0  0  0
   -1.7288    2.5701    0.0000 C   0  0  0  0  0  0  0  0  0  0  0  0
  2  1  1  0  0  0  0
  3  7  1  0  0  0  0
  4  1  2  0  0  0  0
  5  1  1  0  0  0  0
  6  2  1  0  0  0  0
  7 13  1  0  0  0  0
  8  5  1  0  0  0  0
  9  3  1  0  0  0  0
 10  3  1  0  0  0  0
 11  4  1  0  0  0  0
 12  6  1  0  0  0  0
 13 12  2  0  0  0  0
 14  2  1  0  0  0  0
 15  8  1  0  0  0  0
 16 14  1  0  0  0  0
 17 16  1  0  0  0  0
 18  6  2  0  0  0  0
 19  9  1  0  0  0  0
 20 10  1  0  0  0  0
 21  9  2  0  0  0  0
 22 10  2  0  0  0  0
 23 16  2  0  0  0  0
 24 17  1  0  0  0  0
 25 23  1  0  0  0  0
 26 11  1  0  0  0  0
 27 15  2  0  0  0  0
 28 26  2  0  0  0  0
 29 27  1  0  0  0  0
 30 32  1  0  0  0  0
 31 12  1  0  0  0  0
 32 31  2  0  0  0  0
 11  8  2  0  0  0  0
 27 28  1  0  0  0  0
 24 25  2  0  0  0  0
  7 30  2  0  0  0  0
 20 19  1  0  0  0  0
M  END
>  <IDNUMBER>
F2899-2239

>  <Chemical_Name>
3-(2,5-dioxopyrrolidin-1-yl)-N-(6-fluoro-1,3-benzothiazol-2-yl)-N-[(furan-2-yl)methyl]benzamide

>  <PriceCoeff>
1.00

>  <CAS>
922389-87-5

>  <MW>
449.45

>  <Description>
solid

>  <FSP3>
0.13

>  <clogP>
2.65

>  <TPSA>
111.96

>  <Acceptor>
5

>  <Donor>
0

>  <RotBonds>
6

>  <HAC>
32

>  <Collection>
General

>  <PPDS>
+

$$$$
F2966-0198
  Mrv2219 10102508112D          

 34 38  0  0  0  0            999 V2000
   -3.6219    2.8988    0.0000 C   0  0  0  0  0  0  0  0  0  0  0  0
   -4.3740    2.5518    0.0000 N   0  0  0  0  0  0  0  0  0  0  0  0
   -2.8988    2.4939    0.0000 N   0  0  0  0  0  0  0  0  0  0  0  0
   -5.6113    0.7487    0.0000 N   0  0  0  0  0  0  0  0  0  0  0  0
   -3.7183    3.7151    0.0000 S   0  0  0  0  0  0  0  0  0  0  0  0
   -2.7639    1.0284    0.0000 C   0  0  0  0  0  0  0  0  0  0  0  0
   -4.9300    3.1463    0.0000 C   0  0  0  0  0  0  0  0  0  0  0  0
   -4.8528    0.4017    0.0000 C   0  0  0  0  0  0  0  0  0  0  0  0
   -6.3472    0.3663    0.0000 C   0  0  0  0  0  0  0  0  0  0  0  0
   -5.7366    1.5683    0.0000 C   0  0  0  0  0  0  0  0  0  0  0  0
   -4.5314    3.8758    0.0000 C   0  0  0  0  0  0  0  0  0  0  0  0
   -3.4387    0.5463    0.0000 C   0  0  0  0  0  0  0  0  0  0  0  0
   -4.1844    0.8838    0.0000 C   0  0  0  0  0  0  0  0  0  0  0  0
   -2.2528    2.8121    0.0000 C   0  0  0  0  0  0  0  0  0  0  0  0
   -5.7559    3.1463    0.0000 C   0  0  0  0  0  0  0  0  0  0  0  0
   -2.1114    0.7391    0.0000 O   0  0  0  0  0  0  0  0  0  0  0  0
   -6.9353    0.9449    0.0000 C   0  0  0  0  0  0  0  0  0  0  0  0
   -6.5690    1.6872    0.0000 C   0  0  0  0  0  0  0  0  0  0  0  0
   -6.4822   -0.4435    0.0000 O   0  0  0  0  0  0  0  0  0  0  0  0
   -5.1517    2.1467    0.0000 O   0  0  0  0  0  0  0  0  0  0  0  0
   -1.4044    4.8239    0.0000 N   0  0  0  0  0  0  0  0  0  0  0  0
   -2.1982    3.6348    0.0000 C   0  0  0  0  0  0  0  0  0  0  0  0
   -6.1737    2.4264    0.0000 S   0  0  0  0  0  0  0  0  0  0  0  0
   -4.7757   -0.4178    0.0000 C   0  0  0  0  0  0  0  0  0  0  0  0
   -4.9396    4.5829    0.0000 C   0  0  0  0  0  0  0  0  0  0  0  0
   -1.4623    3.9948    0.0000 C   0  0  0  0  0  0  0  0  0  0  0  0
   -3.3519   -0.2828    0.0000 C   0  0  0  0  0  0  0  0  0  0  0  0
   -4.0269   -0.7649    0.0000 C   0  0  0  0  0  0  0  0  0  0  0  0
   -5.7784    4.5732    0.0000 C   0  0  0  0  0  0  0  0  0  0  0  0
   -6.1705    3.8501    0.0000 C   0  0  0  0  0  0  0  0  0  0  0  0
   -2.0889    5.2770    0.0000 C   0  0  0  0  0  0  0  0  0  0  0  0
   -2.8892    4.0976    0.0000 C   0  0  0  0  0  0  0  0  0  0  0  0
   -7.0029    2.4168    0.0000 C   0  0  0  0  0  0  0  0  0  0  0  0
   -2.8313    4.9171    0.0000 C   0  0  0  0  0  0  0  0  0  0  0  0
  2  1  2  0  0  0  0
  3  1  1  0  0  0  0
  4  8  1  0  0  0  0
  5  1  1  0  0  0  0
  6  3  1  0  0  0  0
  7  2  1  0  0  0  0
  8 13  1  0  0  0  0
  9  4  1  0  0  0  0
 10  4  1  0  0  0  0
 11  5  1  0  0  0  0
 12  6  1  0  0  0  0
 13 12  2  0  0  0  0
 14  3  1  0  0  0  0
 15  7  1  0  0  0  0
 16  6  2  0  0  0  0
 17  9  1  0  0  0  0
 18 10  1  0  0  0  0
 19  9  2  0  0  0  0
 20 10  2  0  0  0  0
 21 26  2  0  0  0  0
 22 14  1  0  0  0  0
 23 15  1  0  0  0  0
 24 28  1  0  0  0  0
 25 11  1  0  0  0  0
 26 22  1  0  0  0  0
 27 12  1  0  0  0  0
 28 27  2  0  0  0  0
 29 25  2  0  0  0  0
 30 15  2  0  0  0  0
 31 34  2  0  0  0  0
 32 22  2  0  0  0  0
 33 23  1  0  0  0  0
 34 32  1  0  0  0  0
  7 11  2  0  0  0  0
 29 30  1  0  0  0  0
 21 31  1  0  0  0  0
 24  8  2  0  0  0  0
 17 18  1  0  0  0  0
M  END
>  <IDNUMBER>
F2966-0198

>  <Chemical_Name>
3-(2,5-dioxopyrrolidin-1-yl)-N-[4-(methylsulfanyl)-1,3-benzothiazol-2-yl]-N-[(pyridin-3-yl)methyl]benzamide

>  <PriceCoeff>
1.00

>  <CAS>
923488-66-8

>  <MW>
488.58

>  <Description>
solid

>  <FSP3>
0.16

>  <clogP>
2.51

>  <TPSA>
137.01

>  <Acceptor>
5

>  <Donor>
1

>  <RotBonds>
7

>  <HAC>
34

>  <Collection>
General

>  <PPDS>
+

$$$$
F2978-0030
  Mrv2219 10102508112D          

 23 25  0  0  0  0            999 V2000
   -2.4845    3.3393    0.0000 C   0  0  0  0  0  0  0  0  0  0  0  0
    2.0782    4.0222    0.0000 N   0  0  0  0  0  0  0  0  0  0  0  0
   -2.7401    2.5474    0.0000 N   0  0  0  0  0  0  0  0  0  0  0  0
   -1.6927    3.5906    0.0000 N   0  0  0  0  0  0  0  0  0  0  0  0
   -3.1424    3.8211    0.0000 S   0  0  0  0  0  0  0  0  0  0  0  0
   -3.5655    2.5474    0.0000 C   0  0  0  0  0  0  0  0  0  0  0  0
   -1.0810    3.0376    0.0000 C   0  0  0  0  0  0  0  0  0  0  0  0
   -3.8211    3.3393    0.0000 C   0  0  0  0  0  0  0  0  0  0  0  0
    2.3044    4.8183    0.0000 C   0  0  0  0  0  0  0  0  0  0  0  0
    2.7569    3.5697    0.0000 C   0  0  0  0  0  0  0  0  0  0  0  0
    1.2863    3.7792    0.0000 C   0  0  0  0  0  0  0  0  0  0  0  0
   -0.2974    3.2890    0.0000 C   0  0  0  0  0  0  0  0  0  0  0  0
   -1.2569    2.2331    0.0000 O   0  0  0  0  0  0  0  0  0  0  0  0
    3.1424    4.8435    0.0000 C   0  0  0  0  0  0  0  0  0  0  0  0
    3.4106    4.0642    0.0000 C   0  0  0  0  0  0  0  0  0  0  0  0
    1.7974    5.4929    0.0000 O   0  0  0  0  0  0  0  0  0  0  0  0
    2.7904    2.7401    0.0000 O   0  0  0  0  0  0  0  0  0  0  0  0
    0.6704    4.3407    0.0000 C   0  0  0  0  0  0  0  0  0  0  0  0
    1.0978    2.9790    0.0000 C   0  0  0  0  0  0  0  0  0  0  0  0
    0.3142    2.7359    0.0000 C   0  0  0  0  0  0  0  0  0  0  0  0
   -0.1131    4.0977    0.0000 C   0  0  0  0  0  0  0  0  0  0  0  0
   -4.0557    1.8729    0.0000 C   0  0  0  0  0  0  0  0  0  0  0  0
   -4.6088    3.5906    0.0000 C   0  0  0  0  0  0  0  0  0  0  0  0
  2 11  1  0  0  0  0
  3  1  2  0  0  0  0
  4  1  1  0  0  0  0
  5  1  1  0  0  0  0
  6  3  1  0  0  0  0
  7  4  1  0  0  0  0
  8  5  1  0  0  0  0
  9  2  1  0  0  0  0
 10  2  1  0  0  0  0
 11 18  1  0  0  0  0
 12  7  1  0  0  0  0
 13  7  2  0  0  0  0
 14  9  1  0  0  0  0
 15 10  1  0  0  0  0
 16  9  2  0  0  0  0
 17 10  2  0  0  0  0
 18 21  2  0  0  0  0
 19 20  1  0  0  0  0
 20 12  2  0  0  0  0
 21 12  1  0  0  0  0
 22  6  1  0  0  0  0
 23  8  1  0  0  0  0
  8  6  2  0  0  0  0
 19 11  2  0  0  0  0
 14 15  1  0  0  0  0
M  END
>  <IDNUMBER>
F2978-0030

>  <Chemical_Name>
N-(4,5-dimethyl-1,3-thiazol-2-yl)-4-(2,5-dioxopyrrolidin-1-yl)benzamide

>  <PriceCoeff>
1.50

>  <CAS>
923443-96-3

>  <MW>
329.37

>  <Description>
solid

>  <FSP3>
0.25

>  <clogP>
0.98

>  <TPSA>
107.61

>  <Acceptor>
4

>  <Donor>
1

>  <RotBonds>
3

>  <HAC>
23

>  <Collection>
Advanced

>  <PPDS>
+

$$$$
F2992-0058
  Mrv2219 10102508112D          

 30 34  0  0  0  0            999 V2000
   -2.1583    1.9083    0.0000 C   0  0  0  0  0  0  0  0  0  0  0  0
   -1.4958    1.4208    0.0000 C   0  0  0  0  0  0  0  0  0  0  0  0
   -0.7000    1.6833    0.0000 C   0  0  0  0  0  0  0  0  0  0  0  0
    2.7542    4.1375    0.0000 N   0  0  0  0  0  0  0  0  0  0  0  0
   -2.1583    2.7333    0.0000 N   0  0  0  0  0  0  0  0  0  0  0  0
   -2.9458    1.6500    0.0000 S   0  0  0  0  0  0  0  0  0  0  0  0
   -0.4458    2.4625    0.0000 N   0  0  0  0  0  0  0  0  0  0  0  0
    1.9375    4.1042    0.0000 C   0  0  0  0  0  0  0  0  0  0  0  0
    0.3625    2.6333    0.0000 C   0  0  0  0  0  0  0  0  0  0  0  0
    3.2417    4.7917    0.0000 C   0  0  0  0  0  0  0  0  0  0  0  0
    3.2292    3.4833    0.0000 C   0  0  0  0  0  0  0  0  0  0  0  0
   -0.2208    1.0083    0.0000 S   0  0  0  0  0  0  0  0  0  0  0  0
   -2.9375    2.9875    0.0000 C   0  0  0  0  0  0  0  0  0  0  0  0
   -3.4250    2.3208    0.0000 C   0  0  0  0  0  0  0  0  0  0  0  0
    1.5542    3.3958    0.0000 C   0  0  0  0  0  0  0  0  0  0  0  0
    0.7417    3.3583    0.0000 C   0  0  0  0  0  0  0  0  0  0  0  0
   -1.4958    0.5958    0.0000 C   0  0  0  0  0  0  0  0  0  0  0  0
   -0.7083    0.3458    0.0000 C   0  0  0  0  0  0  0  0  0  0  0  0
    0.6042    2.0458    0.0000 O   0  0  0  0  0  0  0  0  0  0  0  0
    4.0167    4.5417    0.0000 C   0  0  0  0  0  0  0  0  0  0  0  0
    4.0250    3.7458    0.0000 C   0  0  0  0  0  0  0  0  0  0  0  0
    3.0000    5.5792    0.0000 O   0  0  0  0  0  0  0  0  0  0  0  0
    2.9792    2.7083    0.0000 O   0  0  0  0  0  0  0  0  0  0  0  0
    1.5042    4.7917    0.0000 C   0  0  0  0  0  0  0  0  0  0  0  0
    0.3000    4.0417    0.0000 C   0  0  0  0  0  0  0  0  0  0  0  0
    0.6792    4.7750    0.0000 C   0  0  0  0  0  0  0  0  0  0  0  0
   -3.2708    3.7458    0.0000 C   0  0  0  0  0  0  0  0  0  0  0  0
   -4.2458    2.4083    0.0000 C   0  0  0  0  0  0  0  0  0  0  0  0
   -4.5833    3.1583    0.0000 C   0  0  0  0  0  0  0  0  0  0  0  0
   -4.0958    3.8333    0.0000 C   0  0  0  0  0  0  0  0  0  0  0  0
  2  1  1  0  0  0  0
  3  2  2  0  0  0  0
  4  8  1  0  0  0  0
  5  1  2  0  0  0  0
  6  1  1  0  0  0  0
  7  3  1  0  0  0  0
  8 15  1  0  0  0  0
  9  7  1  0  0  0  0
 10  4  1  0  0  0  0
 11  4  1  0  0  0  0
 12  3  1  0  0  0  0
 13  5  1  0  0  0  0
 14  6  1  0  0  0  0
 15 16  2  0  0  0  0
 16  9  1  0  0  0  0
 17  2  1  0  0  0  0
 18 17  2  0  0  0  0
 19  9  2  0  0  0  0
 20 10  1  0  0  0  0
 21 11  1  0  0  0  0
 22 10  2  0  0  0  0
 23 11  2  0  0  0  0
 24 26  1  0  0  0  0
 25 16  1  0  0  0  0
 26 25  2  0  0  0  0
 27 13  1  0  0  0  0
 28 14  1  0  0  0  0
 29 28  2  0  0  0  0
 30 27  2  0  0  0  0
 14 13  2  0  0  0  0
 18 12  1  0  0  0  0
 30 29  1  0  0  0  0
 24  8  2  0  0  0  0
 20 21  1  0  0  0  0
M  END
>  <IDNUMBER>
F2992-0058

>  <Chemical_Name>
N-[3-(1,3-benzothiazol-2-yl)thiophen-2-yl]-3-(2,5-dioxopyrrolidin-1-yl)benzamide

>  <PriceCoeff>
1.00

>  <CAS>
923441-82-1

>  <MW>
433.50

>  <Description>
solid

>  <FSP3>
0.09

>  <clogP>
1.72

>  <TPSA>
135.85

>  <Acceptor>
4

>  <Donor>
1

>  <RotBonds>
4

>  <HAC>
30

>  <Collection>
General

>  <PPDS>
+

$$$$
F2992-0095
  Mrv2219 10102508112D          

 25 28  0  0  0  0            999 V2000
   -2.1577    1.9078    0.0000 C   0  0  0  0  0  0  0  0  0  0  0  0
   -1.4954    1.4204    0.0000 C   0  0  0  0  0  0  0  0  0  0  0  0
    0.2999    4.0406    0.0000 N   0  0  0  0  0  0  0  0  0  0  0  0
   -0.6998    1.6828    0.0000 C   0  0  0  0  0  0  0  0  0  0  0  0
   -2.1577    2.7326    0.0000 N   0  0  0  0  0  0  0  0  0  0  0  0
   -2.9450    1.6495    0.0000 S   0  0  0  0  0  0  0  0  0  0  0  0
   -0.4457    2.4618    0.0000 N   0  0  0  0  0  0  0  0  0  0  0  0
    0.6040    4.7904    0.0000 C   0  0  0  0  0  0  0  0  0  0  0  0
   -0.5124    4.0906    0.0000 C   0  0  0  0  0  0  0  0  0  0  0  0
    0.3624    2.6326    0.0000 C   0  0  0  0  0  0  0  0  0  0  0  0
   -0.2207    1.0080    0.0000 S   0  0  0  0  0  0  0  0  0  0  0  0
   -2.9367    2.9867    0.0000 C   0  0  0  0  0  0  0  0  0  0  0  0
   -3.4241    2.3202    0.0000 C   0  0  0  0  0  0  0  0  0  0  0  0
    0.7415    3.3574    0.0000 C   0  0  0  0  0  0  0  0  0  0  0  0
   -1.4954    0.5956    0.0000 C   0  0  0  0  0  0  0  0  0  0  0  0
   -0.7081    0.3457    0.0000 C   0  0  0  0  0  0  0  0  0  0  0  0
   -0.7206    4.8779    0.0000 C   0  0  0  0  0  0  0  0  0  0  0  0
   -0.0333    5.3235    0.0000 C   0  0  0  0  0  0  0  0  0  0  0  0
   -1.0330    3.4823    0.0000 O   0  0  0  0  0  0  0  0  0  0  0  0
    1.3996    4.9986    0.0000 O   0  0  0  0  0  0  0  0  0  0  0  0
    0.6040    2.0452    0.0000 O   0  0  0  0  0  0  0  0  0  0  0  0
   -3.2699    3.7448    0.0000 C   0  0  0  0  0  0  0  0  0  0  0  0
   -4.2446    2.4076    0.0000 C   0  0  0  0  0  0  0  0  0  0  0  0
   -4.0947    3.8323    0.0000 C   0  0  0  0  0  0  0  0  0  0  0  0
   -4.5820    3.1574    0.0000 C   0  0  0  0  0  0  0  0  0  0  0  0
  2  1  1  0  0  0  0
  3 14  1  0  0  0  0
  4  2  2  0  0  0  0
  5  1  2  0  0  0  0
  6  1  1  0  0  0  0
  7  4  1  0  0  0  0
  8  3  1  0  0  0  0
  9  3  1  0  0  0  0
 10  7  1  0  0  0  0
 11  4  1  0  0  0  0
 12  5  1  0  0  0  0
 13  6  1  0  0  0  0
 14 10  1  0  0  0  0
 15  2  1  0  0  0  0
 16 15  2  0  0  0  0
 17  9  1  0  0  0  0
 18  8  1  0  0  0  0
 19  9  2  0  0  0  0
 20  8  2  0  0  0  0
 21 10  2  0  0  0  0
 22 12  1  0  0  0  0
 23 13  1  0  0  0  0
 24 22  2  0  0  0  0
 25 23  2  0  0  0  0
 13 12  2  0  0  0  0
 16 11  1  0  0  0  0
 24 25  1  0  0  0  0
 18 17  1  0  0  0  0
M  END
>  <IDNUMBER>
F2992-0095

>  <Chemical_Name>
N-[3-(1,3-benzothiazol-2-yl)thiophen-2-yl]-2-(2,5-dioxopyrrolidin-1-yl)acetamide

>  <PriceCoeff>
1.00

>  <CAS>
923465-37-6

>  <MW>
371.43

>  <Description>
solid

>  <FSP3>
0.18

>  <clogP>
1.55

>  <TPSA>
135.85

>  <Acceptor>
4

>  <Donor>
1

>  <RotBonds>
4

>  <HAC>
25

>  <Collection>
General

>  <PPDS>
+

$$$$
F2995-0094
  Mrv2219 10102508112D          

 19 20  0  0  0  0            999 V2000
    3.5042    0.4958    0.0000 C   0  0  0  0  0  0  0  0  0  0  0  0
    2.7875    0.9083    0.0000 N   0  0  0  0  0  0  0  0  0  0  0  0
    3.5042   -1.1792    0.0000 N   0  0  0  0  0  0  0  0  0  0  0  0
    2.7875   -0.7542    0.0000 C   0  0  0  0  0  0  0  0  0  0  0  0
    2.0667    0.4958    0.0000 C   0  0  0  0  0  0  0  0  0  0  0  0
    2.0667   -0.3292    0.0000 C   0  0  0  0  0  0  0  0  0  0  0  0
    3.5042   -0.3292    0.0000 O   0  0  0  0  0  0  0  0  0  0  0  0
    4.2167    0.9083    0.0000 C   0  0  0  0  0  0  0  0  0  0  0  0
    4.2167    1.7375    0.0000 C   0  0  0  0  0  0  0  0  0  0  0  0
    4.2167    3.3958    0.0000 C   0  0  0  0  0  0  0  0  0  0  0  0
    4.9292    2.1500    0.0000 C   0  0  0  0  0  0  0  0  0  0  0  0
    3.5042    2.1500    0.0000 C   0  0  0  0  0  0  0  0  0  0  0  0
    4.9292    2.9833    0.0000 C   0  0  0  0  0  0  0  0  0  0  0  0
    3.5042    2.9833    0.0000 C   0  0  0  0  0  0  0  0  0  0  0  0
    1.3542   -0.7417    0.0000 C   0  0  0  0  0  0  0  0  0  0  0  0
    1.3542    0.9083    0.0000 C   0  0  0  0  0  0  0  0  0  0  0  0
    4.2167    4.2167    0.0000 C   0  0  0  0  0  0  0  0  0  0  0  0
    0.6375   -0.3292    0.0000 C   0  0  0  0  0  0  0  0  0  0  0  0
    0.6375    0.4958    0.0000 C   0  0  0  0  0  0  0  0  0  0  0  0
  2  1  1  0  0  0  0
  3  4  3  0  0  0  0
  4  6  1  0  0  0  0
  5  2  1  0  0  0  0
  6  5  1  0  0  0  0
  7  1  2  0  0  0  0
  8  1  1  0  0  0  0
  9  8  1  0  0  0  0
 10 14  1  0  0  0  0
 11  9  2  0  0  0  0
 12  9  1  0  0  0  0
 13 11  1  0  0  0  0
 14 12  2  0  0  0  0
 15  6  2  0  0  0  0
 16  5  2  0  0  0  0
 17 10  1  0  0  0  0
 18 19  2  0  0  0  0
 19 16  1  0  0  0  0
 13 10  2  0  0  0  0
 18 15  1  0  0  0  0
M  END
>  <IDNUMBER>
F2995-0094

>  <Chemical_Name>
N-(2-cyanophenyl)-2-(4-methylphenyl)acetamide

>  <PriceCoeff>
1.00

>  <CAS>
599162-84-2

>  <MW>
250.30

>  <Description>
solid

>  <FSP3>
0.12

>  <clogP>
2.53

>  <TPSA>
52.89

>  <Acceptor>
2

>  <Donor>
1

>  <RotBonds>
3

>  <HAC>
19

>  <Collection>
General

>  <PPDS>
+

$$$$
F3007-0187
  Mrv2219 10102508112D          

 33 38  0  0  0  0            999 V2000
    1.9217   -1.0249    0.0000 C   0  0  0  0  0  0  0  0  0  0  0  0
    1.9388   -1.8363    0.0000 C   0  0  0  0  0  0  0  0  0  0  0  0
    3.2712   -1.0292    0.0000 N   0  0  0  0  0  0  0  0  0  0  0  0
    3.2712   -1.8235    0.0000 C   0  0  0  0  0  0  0  0  0  0  0  0
    2.5922   -2.2164    0.0000 N   0  0  0  0  0  0  0  0  0  0  0  0
    2.6007   -0.6321    0.0000 C   0  0  0  0  0  0  0  0  0  0  0  0
    4.7061   -4.3174    0.0000 N   0  0  0  0  0  0  0  0  0  0  0  0
    1.2427   -2.2463    0.0000 S   0  0  0  0  0  0  0  0  0  0  0  0
    0.5296   -1.0420    0.0000 C   0  0  0  0  0  0  0  0  0  0  0  0
    0.5424   -1.8320    0.0000 C   0  0  0  0  0  0  0  0  0  0  0  0
    5.3808   -4.8086    0.0000 C   0  0  0  0  0  0  0  0  0  0  0  0
    4.7061   -3.4890    0.0000 C   0  0  0  0  0  0  0  0  0  0  0  0
    3.9886   -2.2335    0.0000 S   0  0  0  0  0  0  0  0  0  0  0  0
    3.9886   -0.6149    0.0000 C   0  0  0  0  0  0  0  0  0  0  0  0
    4.0399   -4.8043    0.0000 C   0  0  0  0  0  0  0  0  0  0  0  0
    2.6007    0.1751    0.0000 O   0  0  0  0  0  0  0  0  0  0  0  0
    3.9843   -3.0662    0.0000 C   0  0  0  0  0  0  0  0  0  0  0  0
    5.1160   -5.5901    0.0000 C   0  0  0  0  0  0  0  0  0  0  0  0
    5.4235   -3.0662    0.0000 O   0  0  0  0  0  0  0  0  0  0  0  0
    4.2918   -5.5901    0.0000 C   0  0  0  0  0  0  0  0  0  0  0  0
    4.7061   -1.0292    0.0000 C   0  0  0  0  0  0  0  0  0  0  0  0
    3.9886    0.2050    0.0000 C   0  0  0  0  0  0  0  0  0  0  0  0
   -0.1622   -0.6577    0.0000 C   0  0  0  0  0  0  0  0  0  0  0  0
    5.4235    0.2050    0.0000 C   0  0  0  0  0  0  0  0  0  0  0  0
   -0.8284   -1.8620    0.0000 C   0  0  0  0  0  0  0  0  0  0  0  0
    4.7061    0.6235    0.0000 C   0  0  0  0  0  0  0  0  0  0  0  0
    5.4235   -0.6192    0.0000 C   0  0  0  0  0  0  0  0  0  0  0  0
    6.1409    0.6235    0.0000 Cl  0  0  0  0  0  0  0  0  0  0  0  0
    6.1794   -4.6377    0.0000 C   0  0  0  0  0  0  0  0  0  0  0  0
   -0.8412   -1.0676    0.0000 C   0  0  0  0  0  0  0  0  0  0  0  0
    5.6669   -6.2050    0.0000 C   0  0  0  0  0  0  0  0  0  0  0  0
    6.7303   -5.2441    0.0000 C   0  0  0  0  0  0  0  0  0  0  0  0
    6.4740   -6.0341    0.0000 C   0  0  0  0  0  0  0  0  0  0  0  0
  2  1  2  0  0  0  0
  3  6  1  0  0  0  0
  4  3  1  0  0  0  0
  5  2  1  0  0  0  0
  6  1  1  0  0  0  0
  7 12  1  0  0  0  0
  8  2  1  0  0  0  0
  9  1  1  0  0  0  0
 10  9  2  0  0  0  0
 11  7  1  0  0  0  0
 12 17  1  0  0  0  0
 13  4  1  0  0  0  0
 14  3  1  0  0  0  0
 15  7  1  0  0  0  0
 16  6  2  0  0  0  0
 17 13  1  0  0  0  0
 18 11  2  0  0  0  0
 19 12  2  0  0  0  0
 20 15  1  0  0  0  0
 21 14  2  0  0  0  0
 22 14  1  0  0  0  0
 23  9  1  0  0  0  0
 24 26  1  0  0  0  0
 25 10  1  0  0  0  0
 26 22  2  0  0  0  0
 27 21  1  0  0  0  0
 28 24  1  0  0  0  0
 29 11  1  0  0  0  0
 30 23  1  0  0  0  0
 31 18  1  0  0  0  0
 32 29  2  0  0  0  0
 33 32  1  0  0  0  0
 10  8  1  0  0  0  0
  5  4  2  0  0  0  0
 30 25  1  0  0  0  0
 27 24  2  0  0  0  0
 20 18  1  0  0  0  0
 31 33  2  0  0  0  0
M  END
>  <IDNUMBER>
F3007-0187

>  <Chemical_Name>
11-(4-chlorophenyl)-10-{[2-(2,3-dihydro-1H-indol-1-yl)-2-oxoethyl]sulfanyl}-7-thia-9,11-diazatricyclo[6.4.0.0?,?]dodeca-1(8),2(6),9-trien-12-one

>  <PriceCoeff>
1.00

>  <CAS>
710289-42-2

>  <MW>
494.03

>  <Description>
solid

>  <FSP3>
0.24

>  <clogP>
6.17

>  <TPSA>
106.52

>  <Acceptor>
3

>  <Donor>
0

>  <RotBonds>
5

>  <HAC>
33

>  <Collection>
General

>  <PPDS>
+

$$$$
F3007-0202
  Mrv2219 10102508112D          

 26 29  0  0  0  0            999 V2000
    1.9534   -1.0418    0.0000 C   0  0  0  0  0  0  0  0  0  0  0  0
    1.9708   -1.8666    0.0000 C   0  0  0  0  0  0  0  0  0  0  0  0
    3.3252   -1.0462    0.0000 N   0  0  0  0  0  0  0  0  0  0  0  0
    3.3252   -1.8536    0.0000 C   0  0  0  0  0  0  0  0  0  0  0  0
    2.6350   -2.2530    0.0000 N   0  0  0  0  0  0  0  0  0  0  0  0
    2.6436   -0.6425    0.0000 C   0  0  0  0  0  0  0  0  0  0  0  0
    1.2632   -2.2834    0.0000 S   0  0  0  0  0  0  0  0  0  0  0  0
    0.5383   -1.0592    0.0000 C   0  0  0  0  0  0  0  0  0  0  0  0
    0.5644   -1.8666    0.0000 C   0  0  0  0  0  0  0  0  0  0  0  0
    4.0545   -2.2704    0.0000 S   0  0  0  0  0  0  0  0  0  0  0  0
    4.0545   -0.6251    0.0000 C   0  0  0  0  0  0  0  0  0  0  0  0
    2.6436    0.1779    0.0000 O   0  0  0  0  0  0  0  0  0  0  0  0
    4.7838   -3.5466    0.0000 C   0  0  0  0  0  0  0  0  0  0  0  0
    5.5347   -3.1168    0.0000 O   0  0  0  0  0  0  0  0  0  0  0  0
    4.0501   -3.1168    0.0000 C   0  0  0  0  0  0  0  0  0  0  0  0
    4.0545    0.2084    0.0000 C   0  0  0  0  0  0  0  0  0  0  0  0
    4.7838   -1.0462    0.0000 C   0  0  0  0  0  0  0  0  0  0  0  0
    4.7838   -4.4061    0.0000 N   0  0  0  0  0  0  0  0  0  0  0  0
    5.5130    0.2084    0.0000 C   0  0  0  0  0  0  0  0  0  0  0  0
   -0.1779   -0.6816    0.0000 C   0  0  0  0  0  0  0  0  0  0  0  0
    5.5130   -0.6295    0.0000 C   0  0  0  0  0  0  0  0  0  0  0  0
    4.7838    0.6337    0.0000 C   0  0  0  0  0  0  0  0  0  0  0  0
   -0.1259   -2.2964    0.0000 C   0  0  0  0  0  0  0  0  0  0  0  0
    6.2554    0.6381    0.0000 Cl  0  0  0  0  0  0  0  0  0  0  0  0
   -0.8682   -1.1069    0.0000 C   0  0  0  0  0  0  0  0  0  0  0  0
   -0.8421   -1.9187    0.0000 C   0  0  0  0  0  0  0  0  0  0  0  0
  2  1  2  0  0  0  0
  3  6  1  0  0  0  0
  4  3  1  0  0  0  0
  5  2  1  0  0  0  0
  6  1  1  0  0  0  0
  7  2  1  0  0  0  0
  8  1  1  0  0  0  0
  9  8  2  0  0  0  0
 10  4  1  0  0  0  0
 11  3  1  0  0  0  0
 12  6  2  0  0  0  0
 13 15  1  0  0  0  0
 14 13  2  0  0  0  0
 15 10  1  0  0  0  0
 16 11  1  0  0  0  0
 17 11  2  0  0  0  0
 18 13  1  0  0  0  0
 19 21  2  0  0  0  0
 20  8  1  0  0  0  0
 21 17  1  0  0  0  0
 22 16  2  0  0  0  0
 23  9  1  0  0  0  0
 24 19  1  0  0  0  0
 25 20  1  0  0  0  0
 26 25  1  0  0  0  0
  9  7  1  0  0  0  0
  5  4  2  0  0  0  0
 26 23  1  0  0  0  0
 22 19  1  0  0  0  0
M  END
>  <IDNUMBER>
F3007-0202

>  <Chemical_Name>
2-{[4-(4-chlorophenyl)-3-oxo-8-thia-4,6-diazatricyclo[7.4.0.0?,?]trideca-1(9),2(7),5-trien-5-yl]sulfanyl}acetamide

>  <PriceCoeff>
1.00

>  <CAS>
353460-95-4

>  <MW>
405.92

>  <Description>
solid

>  <FSP3>
0.28

>  <clogP>
4.15

>  <TPSA>
129.30

>  <Acceptor>
3

>  <Donor>
1

>  <RotBonds>
4

>  <HAC>
26

>  <Collection>
General

>  <PPDS>
+

$$$$
F3016-0044
  Mrv2219 10102508112D          

 28 30  0  0  0  0            999 V2000
   -0.6990    2.2221    0.0000 S   0  0  0  0  0  0  0  0  0  0  0  0
   -2.1305    2.2678    0.0000 C   0  0  0  0  0  0  0  0  0  0  0  0
    3.6619    4.5858    0.0000 N   0  0  0  0  0  0  0  0  0  0  0  0
   -1.4315    1.8310    0.0000 N   0  0  0  0  0  0  0  0  0  0  0  0
   -2.9170    2.0473    0.0000 S   0  0  0  0  0  0  0  0  0  0  0  0
   -2.1055    3.0918    0.0000 N   0  0  0  0  0  0  0  0  0  0  0  0
   -2.8796    3.3664    0.0000 N   0  0  0  0  0  0  0  0  0  0  0  0
    4.3361    5.0477    0.0000 C   0  0  0  0  0  0  0  0  0  0  0  0
    3.0003    5.0809    0.0000 C   0  0  0  0  0  0  0  0  0  0  0  0
   -3.3789    2.7298    0.0000 C   0  0  0  0  0  0  0  0  0  0  0  0
    2.9212    3.3706    0.0000 C   0  0  0  0  0  0  0  0  0  0  0  0
    0.0292    2.6091    0.0000 C   0  0  0  0  0  0  0  0  0  0  0  0
    3.6453    3.7659    0.0000 C   0  0  0  0  0  0  0  0  0  0  0  0
   -0.3079    1.4939    0.0000 O   0  0  0  0  0  0  0  0  0  0  0  0
   -1.0861    2.9545    0.0000 O   0  0  0  0  0  0  0  0  0  0  0  0
    2.2096    3.7951    0.0000 N   0  0  0  0  0  0  0  0  0  0  0  0
    3.2750    5.8592    0.0000 C   0  0  0  0  0  0  0  0  0  0  0  0
    4.0989    5.8467    0.0000 C   0  0  0  0  0  0  0  0  0  0  0  0
    2.2138    4.8479    0.0000 O   0  0  0  0  0  0  0  0  0  0  0  0
    5.1184    4.7730    0.0000 O   0  0  0  0  0  0  0  0  0  0  0  0
    2.9005    2.5467    0.0000 O   0  0  0  0  0  0  0  0  0  0  0  0
    0.0541    3.4330    0.0000 C   0  0  0  0  0  0  0  0  0  0  0  0
    0.7282    2.1722    0.0000 C   0  0  0  0  0  0  0  0  0  0  0  0
    1.4773    3.3956    0.0000 C   0  0  0  0  0  0  0  0  0  0  0  0
    1.4606    2.5675    0.0000 C   0  0  0  0  0  0  0  0  0  0  0  0
    0.7782    3.8283    0.0000 C   0  0  0  0  0  0  0  0  0  0  0  0
   -4.2029    2.7797    0.0000 C   0  0  0  0  0  0  0  0  0  0  0  0
   -4.5774    3.5162    0.0000 C   0  0  0  0  0  0  0  0  0  0  0  0
  2  4  1  0  0  0  0
  3 13  1  0  0  0  0
  4  1  1  0  0  0  0
  5  2  1  0  0  0  0
  6  2  2  0  0  0  0
  7  6  1  0  0  0  0
  8  3  1  0  0  0  0
  9  3  1  0  0  0  0
 10  5  1  0  0  0  0
 11 16  1  0  0  0  0
 12  1  1  0  0  0  0
 13 11  1  0  0  0  0
 14  1  2  0  0  0  0
 15  1  2  0  0  0  0
 16 24  1  0  0  0  0
 17  9  1  0  0  0  0
 18  8  1  0  0  0  0
 19  9  2  0  0  0  0
 20  8  2  0  0  0  0
 21 11  2  0  0  0  0
 22 12  1  0  0  0  0
 23 12  2  0  0  0  0
 24 25  2  0  0  0  0
 25 23  1  0  0  0  0
 26 22  2  0  0  0  0
 27 10  1  0  0  0  0
 28 27  1  0  0  0  0
 24 26  1  0  0  0  0
  7 10  2  0  0  0  0
 18 17  1  0  0  0  0
M  END
>  <IDNUMBER>
F3016-0044

>  <Chemical_Name>
2-(2,5-dioxopyrrolidin-1-yl)-N-{4-[(5-ethyl-1,3,4-thiadiazol-2-yl)sulfamoyl]phenyl}acetamide

>  <PriceCoeff>
1.00

>  <CAS>
898369-19-2

>  <MW>
423.47

>  <Description>
solid

>  <FSP3>
0.31

>  <clogP>
0.62

>  <TPSA>
175.05

>  <Acceptor>
7

>  <Donor>
2

>  <RotBonds>
7

>  <HAC>
28

>  <Collection>
General

>  <PPDS>
+

$$$$
F3019-0012
  Mrv2219 10102508112D          

 30 32  0  0  0  0            999 V2000
    1.4136    0.2627    0.0000 N   0  0  0  0  0  0  0  0  0  0  0  0
    2.1641   -0.0668    0.0000 C   0  0  0  0  0  0  0  0  0  0  0  0
    1.4928    1.0841    0.0000 C   0  0  0  0  0  0  0  0  0  0  0  0
    2.7145    0.5462    0.0000 C   0  0  0  0  0  0  0  0  0  0  0  0
    7.1596   -0.6172    0.0000 N   0  3  0  0  0  0  0  0  0  0  0  0
    2.3017    1.2592    0.0000 C   0  0  0  0  0  0  0  0  0  0  0  0
    3.5318    0.4586    0.0000 N   0  0  0  0  0  0  0  0  0  0  0  0
    0.7005   -0.1501    0.0000 C   0  0  0  0  0  0  0  0  0  0  0  0
    6.3339   -0.5421    0.0000 C   0  0  0  0  0  0  0  0  0  0  0  0
    7.4973   -1.3760    0.0000 O   0  5  0  0  0  0  0  0  0  0  0  0
   -2.1599   -0.1543    0.0000 C   0  0  0  0  0  0  0  0  0  0  0  0
    7.6432    0.0458    0.0000 O   0  0  0  0  0  0  0  0  0  0  0  0
    2.3393   -0.8799    0.0000 O   0  0  0  0  0  0  0  0  0  0  0  0
    0.8757    1.6345    0.0000 O   0  0  0  0  0  0  0  0  0  0  0  0
    3.8696   -0.2919    0.0000 N   0  0  0  0  0  0  0  0  0  0  0  0
   -2.1599   -0.9882    0.0000 C   0  0  0  0  0  0  0  0  0  0  0  0
   -1.4469    0.2585    0.0000 C   0  0  0  0  0  0  0  0  0  0  0  0
    5.9962    0.2127    0.0000 C   0  0  0  0  0  0  0  0  0  0  0  0
    5.8544   -1.2134    0.0000 C   0  0  0  0  0  0  0  0  0  0  0  0
   -1.4469   -1.4010    0.0000 C   0  0  0  0  0  0  0  0  0  0  0  0
    4.6952   -0.3753    0.0000 C   0  0  0  0  0  0  0  0  0  0  0  0
   -0.7338   -0.1543    0.0000 C   0  0  0  0  0  0  0  0  0  0  0  0
   -0.0208    0.2585    0.0000 C   0  0  0  0  0  0  0  0  0  0  0  0
    5.1706    0.2960    0.0000 C   0  0  0  0  0  0  0  0  0  0  0  0
    5.0330   -1.1300    0.0000 C   0  0  0  0  0  0  0  0  0  0  0  0
   -0.7338   -0.9882    0.0000 C   0  0  0  0  0  0  0  0  0  0  0  0
   -2.8855    0.2585    0.0000 O   0  0  0  0  0  0  0  0  0  0  0  0
   -2.8730   -1.4010    0.0000 O   0  0  0  0  0  0  0  0  0  0  0  0
   -3.5985   -0.1543    0.0000 C   0  0  0  0  0  0  0  0  0  0  0  0
   -2.8730   -2.2267    0.0000 C   0  0  0  0  0  0  0  0  0  0  0  0
  2  1  1  0  0  0  0
  3  1  1  0  0  0  0
  4  2  1  0  0  0  0
  5  9  1  0  0  0  0
  6  3  1  0  0  0  0
  7  4  1  0  0  0  0
  8  1  1  0  0  0  0
  9 19  2  0  0  0  0
 10  5  1  0  0  0  0
 11 17  1  0  0  0  0
 12  5  2  0  0  0  0
 13  2  2  0  0  0  0
 14  3  2  0  0  0  0
 15  7  1  0  0  0  0
 16 20  1  0  0  0  0
 17 22  2  0  0  0  0
 18 24  2  0  0  0  0
 19 25  1  0  0  0  0
 20 26  2  0  0  0  0
 21 15  1  0  0  0  0
 22 23  1  0  0  0  0
 23  8  1  0  0  0  0
 24 21  1  0  0  0  0
 25 21  2  0  0  0  0
 26 22  1  0  0  0  0
 27 11  1  0  0  0  0
 28 16  1  0  0  0  0
 29 27  1  0  0  0  0
 30 28  1  0  0  0  0
  6  4  1  0  0  0  0
 16 11  2  0  0  0  0
  9 18  1  0  0  0  0
M  CHG  2   5   1  10  -1
M  END
>  <IDNUMBER>
F3019-0012

>  <Chemical_Name>
1-[2-(3,4-dimethoxyphenyl)ethyl]-3-[2-(4-nitrophenyl)hydrazin-1-yl]pyrrolidine-2,5-dione

>  <PriceCoeff>
1.00

>  <CAS>
957006-83-6

>  <MW>
414.41

>  <Description>
solid

>  <FSP3>
0.30

>  <clogP>
3.36

>  <TPSA>
123.04

>  <Acceptor>
7

>  <Donor>
2

>  <RotBonds>
9

>  <HAC>
30

>  <Collection>
General

>  <PPDS>
+

$$$$
F3019-0019
  Mrv2219 10102508112D          

 24 26  0  0  0  0            999 V2000
    1.0008   -0.9011    0.0000 N   0  0  0  0  0  0  0  0  0  0  0  0
    1.6693   -0.4236    0.0000 C   0  0  0  0  0  0  0  0  0  0  0  0
    1.2582   -1.6942    0.0000 C   0  0  0  0  0  0  0  0  0  0  0  0
    2.0804   -1.6942    0.0000 C   0  0  0  0  0  0  0  0  0  0  0  0
    2.3338   -0.9011    0.0000 C   0  0  0  0  0  0  0  0  0  0  0  0
    0.2160   -0.6520    0.0000 C   0  0  0  0  0  0  0  0  0  0  0  0
    2.5663   -2.3587    0.0000 N   0  0  0  0  0  0  0  0  0  0  0  0
    1.6611    0.4069    0.0000 O   0  0  0  0  0  0  0  0  0  0  0  0
    0.7641   -2.3587    0.0000 O   0  0  0  0  0  0  0  0  0  0  0  0
    0.0416    0.1578    0.0000 C   0  0  0  0  0  0  0  0  0  0  0  0
    3.3885   -2.2715    0.0000 C   0  0  0  0  0  0  0  0  0  0  0  0
    5.0246   -2.1053    0.0000 C   0  0  0  0  0  0  0  0  0  0  0  0
    3.8661   -2.9442    0.0000 C   0  0  0  0  0  0  0  0  0  0  0  0
    3.7166   -1.5240    0.0000 C   0  0  0  0  0  0  0  0  0  0  0  0
    0.6644    0.7059    0.0000 O   0  0  0  0  0  0  0  0  0  0  0  0
    4.6883   -2.8570    0.0000 C   0  0  0  0  0  0  0  0  0  0  0  0
    4.5388   -1.4368    0.0000 C   0  0  0  0  0  0  0  0  0  0  0  0
   -0.3945   -1.2084    0.0000 C   0  0  0  0  0  0  0  0  0  0  0  0
   -0.7433    0.4069    0.0000 C   0  0  0  0  0  0  0  0  0  0  0  0
    5.8426   -2.0223    0.0000 C   0  0  0  0  0  0  0  0  0  0  0  0
    0.4900    1.5157    0.0000 C   0  0  0  0  0  0  0  0  0  0  0  0
   -1.1793   -0.9510    0.0000 C   0  0  0  0  0  0  0  0  0  0  0  0
    6.3285   -2.6826    0.0000 C   0  0  0  0  0  0  0  0  0  0  0  0
   -1.3537   -0.1412    0.0000 C   0  0  0  0  0  0  0  0  0  0  0  0
  2  1  1  0  0  0  0
  3  1  1  0  0  0  0
  4  3  1  0  0  0  0
  5  2  1  0  0  0  0
  6  1  1  0  0  0  0
  7  4  1  0  0  0  0
  8  2  2  0  0  0  0
  9  3  2  0  0  0  0
 10  6  2  0  0  0  0
 11  7  1  0  0  0  0
 12 17  1  0  0  0  0
 13 11  2  0  0  0  0
 14 11  1  0  0  0  0
 15 10  1  0  0  0  0
 16 13  1  0  0  0  0
 17 14  2  0  0  0  0
 18  6  1  0  0  0  0
 19 10  1  0  0  0  0
 20 12  1  0  0  0  0
 21 15  1  0  0  0  0
 22 18  2  0  0  0  0
 23 20  1  0  0  0  0
 24 22  1  0  0  0  0
  5  4  1  0  0  0  0
 24 19  2  0  0  0  0
 12 16  2  0  0  0  0
M  END
>  <IDNUMBER>
F3019-0019

>  <Chemical_Name>
3-[(4-ethylphenyl)amino]-1-(2-methoxyphenyl)pyrrolidine-2,5-dione

>  <PriceCoeff>
1.00

>  <CAS>
1009689-36-4

>  <MW>
324.37

>  <Description>
solid

>  <FSP3>
0.26

>  <clogP>
3.60

>  <TPSA>
58.64

>  <Acceptor>
4

>  <Donor>
1

>  <RotBonds>
5

>  <HAC>
24

>  <Collection>
General

>  <PPDS>
+

$$$$
F3019-0021
  Mrv2219 10102508112D          

 25 27  0  0  0  0            999 V2000
    0.9996   -0.9001    0.0000 N   0  0  0  0  0  0  0  0  0  0  0  0
    1.6674   -0.4231    0.0000 C   0  0  0  0  0  0  0  0  0  0  0  0
    1.2567   -1.6922    0.0000 C   0  0  0  0  0  0  0  0  0  0  0  0
    0.2157   -0.6512    0.0000 C   0  0  0  0  0  0  0  0  0  0  0  0
    2.0780   -1.6922    0.0000 C   0  0  0  0  0  0  0  0  0  0  0  0
    2.3310   -0.9001    0.0000 C   0  0  0  0  0  0  0  0  0  0  0  0
    3.8615   -2.9407    0.0000 C   0  0  0  0  0  0  0  0  0  0  0  0
    2.5633   -2.3559    0.0000 S   0  0  0  0  0  0  0  0  0  0  0  0
    3.3845   -2.2688    0.0000 C   0  0  0  0  0  0  0  0  0  0  0  0
    3.5255   -3.6956    0.0000 C   0  0  0  0  0  0  0  0  0  0  0  0
   -0.3940   -1.2070    0.0000 C   0  0  0  0  0  0  0  0  0  0  0  0
    0.0415    0.1576    0.0000 C   0  0  0  0  0  0  0  0  0  0  0  0
    1.6591    0.4064    0.0000 O   0  0  0  0  0  0  0  0  0  0  0  0
    0.7632   -2.3559    0.0000 O   0  0  0  0  0  0  0  0  0  0  0  0
    4.0066   -4.3592    0.0000 O   0  0  0  0  0  0  0  0  0  0  0  0
   -0.7424    0.4064    0.0000 C   0  0  0  0  0  0  0  0  0  0  0  0
   -1.1779   -0.9498    0.0000 C   0  0  0  0  0  0  0  0  0  0  0  0
    2.7043   -3.7744    0.0000 O   0  0  0  0  0  0  0  0  0  0  0  0
    0.6346    0.8586    0.0000 Cl  0  0  0  0  0  0  0  0  0  0  0  0
   -1.3521   -0.1411    0.0000 C   0  0  0  0  0  0  0  0  0  0  0  0
   -1.7876   -1.5056    0.0000 Cl  0  0  0  0  0  0  0  0  0  0  0  0
    4.6827   -2.8536    0.0000 C   0  0  0  0  0  0  0  0  0  0  0  0
    3.7122   -1.5222    0.0000 C   0  0  0  0  0  0  0  0  0  0  0  0
    5.0187   -2.1029    0.0000 C   0  0  0  0  0  0  0  0  0  0  0  0
    4.5334   -1.4351    0.0000 C   0  0  0  0  0  0  0  0  0  0  0  0
  2  1  1  0  0  0  0
  3  1  1  0  0  0  0
  4  1  1  0  0  0  0
  5  3  1  0  0  0  0
  6  2  1  0  0  0  0
  7  9  2  0  0  0  0
  8  5  1  0  0  0  0
  9  8  1  0  0  0  0
 10  7  1  0  0  0  0
 11  4  1  0  0  0  0
 12  4  2  0  0  0  0
 13  2  2  0  0  0  0
 14  3  2  0  0  0  0
 15 10  2  0  0  0  0
 16 12  1  0  0  0  0
 17 11  2  0  0  0  0
 18 10  1  0  0  0  0
 19 12  1  0  0  0  0
 20 16  2  0  0  0  0
 21 17  1  0  0  0  0
 22  7  1  0  0  0  0
 23  9  1  0  0  0  0
 24 25  1  0  0  0  0
 25 23  2  0  0  0  0
  6  5  1  0  0  0  0
 20 17  1  0  0  0  0
 24 22  2  0  0  0  0
M  END
>  <IDNUMBER>
F3019-0021

>  <Chemical_Name>
2-{[1-(2,5-dichlorophenyl)-2,5-dioxopyrrolidin-3-yl]sulfanyl}benzoic acid

>  <PriceCoeff>
1.00

>  <CAS>
831205-98-2

>  <MW>
396.24

>  <Description>
solid

>  <FSP3>
0.12

>  <clogP>
3.47

>  <TPSA>
99.98

>  <Acceptor>
4

>  <Donor>
0

>  <RotBonds>
4

>  <HAC>
25

>  <Collection>
General

>  <PPDS>
+

$$$$
F3019-0029
  Mrv2219 10102508112D          

 27 31  0  0  0  0            999 V2000
    1.2778    0.5387    0.0000 N   0  0  0  0  0  0  0  0  0  0  0  0
    1.9417    1.0230    0.0000 C   0  0  0  0  0  0  0  0  0  0  0  0
    1.5283   -0.2505    0.0000 C   0  0  0  0  0  0  0  0  0  0  0  0
    2.3551   -0.2505    0.0000 C   0  0  0  0  0  0  0  0  0  0  0  0
    2.6099    0.5387    0.0000 C   0  0  0  0  0  0  0  0  0  0  0  0
    3.6705   -0.8310    0.0000 C   0  0  0  0  0  0  0  0  0  0  0  0
    2.8437   -0.9187    0.0000 N   0  0  0  0  0  0  0  0  0  0  0  0
    0.4928    0.7892    0.0000 C   0  0  0  0  0  0  0  0  0  0  0  0
    1.9417    1.8498    0.0000 O   0  0  0  0  0  0  0  0  0  0  0  0
    3.9503   -1.3780    0.0000 C   0  0  0  0  0  0  0  0  0  0  0  0
    5.0402   -0.8310    0.0000 C   0  0  0  0  0  0  0  0  0  0  0  0
    4.3512    0.3591    0.0000 C   0  0  0  0  0  0  0  0  0  0  0  0
    1.0440   -0.9187    0.0000 O   0  0  0  0  0  0  0  0  0  0  0  0
   -1.0774    1.3028    0.0000 C   0  0  0  0  0  0  0  0  0  0  0  0
    3.6705   -0.0293    0.0000 C   0  0  0  0  0  0  0  0  0  0  0  0
    3.2112   -1.5451    0.0000 C   0  0  0  0  0  0  0  0  0  0  0  0
    4.3512   -1.2277    0.0000 C   0  0  0  0  0  0  0  0  0  0  0  0
   -1.8666    1.5534    0.0000 N   0  0  0  0  0  0  0  0  0  0  0  0
    0.3174    1.5993    0.0000 C   0  0  0  0  0  0  0  0  0  0  0  0
   -0.1211    0.2380    0.0000 C   0  0  0  0  0  0  0  0  0  0  0  0
   -0.9020    0.4886    0.0000 C   0  0  0  0  0  0  0  0  0  0  0  0
   -0.4635    1.8540    0.0000 C   0  0  0  0  0  0  0  0  0  0  0  0
    3.9503   -0.3174    0.0000 C   0  0  0  0  0  0  0  0  0  0  0  0
    5.0402   -0.0293    0.0000 C   0  0  0  0  0  0  0  0  0  0  0  0
    4.5141   -1.7205    0.0000 C   0  0  0  0  0  0  0  0  0  0  0  0
   -2.4804    1.0022    0.0000 C   0  0  0  0  0  0  0  0  0  0  0  0
   -2.0377    2.3635    0.0000 C   0  0  0  0  0  0  0  0  0  0  0  0
  2  1  1  0  0  0  0
  3  1  1  0  0  0  0
  4  3  1  0  0  0  0
  5  2  1  0  0  0  0
  6  7  1  0  0  0  0
  7  4  1  0  0  0  0
  8  1  1  0  0  0  0
  9  2  2  0  0  0  0
 10 16  1  0  0  0  0
 11 17  1  0  0  0  0
 12 15  1  0  0  0  0
 13  3  2  0  0  0  0
 14 21  1  0  0  0  0
 15  6  1  0  0  0  0
 16  6  1  0  0  0  0
 17  6  1  0  0  0  0
 18 14  1  0  0  0  0
 19  8  2  0  0  0  0
 20  8  1  0  0  0  0
 21 20  2  0  0  0  0
 22 19  1  0  0  0  0
 23 10  1  0  0  0  0
 24 11  1  0  0  0  0
 25 11  1  0  0  0  0
 26 18  1  0  0  0  0
 27 18  1  0  0  0  0
  5  4  1  0  0  0  0
 14 22  2  0  0  0  0
 25 10  1  0  0  0  0
 12 24  1  0  0  0  0
 23 12  1  0  0  0  0
M  END
>  <IDNUMBER>
F3019-0029

>  <Chemical_Name>
3-[(adamantan-1-yl)amino]-1-[4-(dimethylamino)phenyl]pyrrolidine-2,5-dione

>  <PriceCoeff>
1.00

>  <CAS>
1008189-16-9

>  <MW>
367.48

>  <Description>
solid

>  <FSP3>
0.64

>  <clogP>
3.77

>  <TPSA>
52.65

>  <Acceptor>
3

>  <Donor>
2

>  <RotBonds>
4

>  <HAC>
27

>  <Collection>
General

>  <PPDS>
+

$$$$
F3019-0032
  Mrv2219 10102508112D          

 28 32  0  0  0  0            999 V2000
    2.3005   -0.1914    0.0000 N   0  0  0  0  0  0  0  0  0  0  0  0
    2.9703    0.2954    0.0000 C   0  0  0  0  0  0  0  0  0  0  0  0
    2.5501   -0.9776    0.0000 C   0  0  0  0  0  0  0  0  0  0  0  0
    3.3821   -0.9776    0.0000 C   0  0  0  0  0  0  0  0  0  0  0  0
    3.6359   -0.1914    0.0000 C   0  0  0  0  0  0  0  0  0  0  0  0
    1.5142    0.0624    0.0000 C   0  0  0  0  0  0  0  0  0  0  0  0
    4.6967   -1.5600    0.0000 C   0  0  0  0  0  0  0  0  0  0  0  0
    3.8688   -1.6515    0.0000 N   0  0  0  0  0  0  0  0  0  0  0  0
    1.3396    0.8736    0.0000 C   0  0  0  0  0  0  0  0  0  0  0  0
    0.5533    1.1315    0.0000 C   0  0  0  0  0  0  0  0  0  0  0  0
    0.9028   -0.4909    0.0000 C   0  0  0  0  0  0  0  0  0  0  0  0
    2.9620    1.1232    0.0000 O   0  0  0  0  0  0  0  0  0  0  0  0
    2.0634   -1.6515    0.0000 O   0  0  0  0  0  0  0  0  0  0  0  0
    6.0694   -1.5600    0.0000 C   0  0  0  0  0  0  0  0  0  0  0  0
    5.3789   -0.3662    0.0000 C   0  0  0  0  0  0  0  0  0  0  0  0
    4.9713   -2.1092    0.0000 C   0  0  0  0  0  0  0  0  0  0  0  0
    5.3789   -1.9594    0.0000 C   0  0  0  0  0  0  0  0  0  0  0  0
    4.6967   -0.7655    0.0000 C   0  0  0  0  0  0  0  0  0  0  0  0
    4.2349   -2.2755    0.0000 C   0  0  0  0  0  0  0  0  0  0  0  0
    4.9713   -1.0525    0.0000 C   0  0  0  0  0  0  0  0  0  0  0  0
    6.0694   -0.7655    0.0000 C   0  0  0  0  0  0  0  0  0  0  0  0
    5.5453   -2.4502    0.0000 C   0  0  0  0  0  0  0  0  0  0  0  0
   -0.0582    0.5740    0.0000 C   0  0  0  0  0  0  0  0  0  0  0  0
    0.1165   -0.2413    0.0000 C   0  0  0  0  0  0  0  0  0  0  0  0
    1.9594    1.4227    0.0000 O   0  0  0  0  0  0  0  0  0  0  0  0
   -0.8444    0.8320    0.0000 O   0  0  0  0  0  0  0  0  0  0  0  0
    1.7846    2.2298    0.0000 C   0  0  0  0  0  0  0  0  0  0  0  0
   -1.4559    0.2746    0.0000 C   0  0  0  0  0  0  0  0  0  0  0  0
  2  1  1  0  0  0  0
  3  1  1  0  0  0  0
  4  3  1  0  0  0  0
  5  2  1  0  0  0  0
  6  1  1  0  0  0  0
  7  8  1  0  0  0  0
  8  4  1  0  0  0  0
  9  6  2  0  0  0  0
 10  9  1  0  0  0  0
 11  6  1  0  0  0  0
 12  2  2  0  0  0  0
 13  3  2  0  0  0  0
 14 17  1  0  0  0  0
 15 18  1  0  0  0  0
 16 19  1  0  0  0  0
 17  7  1  0  0  0  0
 18  7  1  0  0  0  0
 19  7  1  0  0  0  0
 20 16  1  0  0  0  0
 21 15  1  0  0  0  0
 22 16  1  0  0  0  0
 23 24  1  0  0  0  0
 24 11  2  0  0  0  0
 25  9  1  0  0  0  0
 26 23  1  0  0  0  0
 27 25  1  0  0  0  0
 28 26  1  0  0  0  0
  5  4  1  0  0  0  0
 23 10  2  0  0  0  0
 22 14  1  0  0  0  0
 20 15  1  0  0  0  0
 21 14  1  0  0  0  0
M  END
>  <IDNUMBER>
F3019-0032

>  <Chemical_Name>
3-[(adamantan-1-yl)amino]-1-(2,4-dimethoxyphenyl)pyrrolidine-2,5-dione

>  <PriceCoeff>
1.50

>  <MW>
384.47

>  <Description>
solid

>  <FSP3>
0.64

>  <clogP>
3.72

>  <TPSA>
67.87

>  <Acceptor>
4

>  <Donor>
1

>  <RotBonds>
5

>  <HAC>
28

>  <Collection>
Advanced

$$$$
F3019-0039
  Mrv2219 10102508112D          

 25 27  0  0  0  0            999 V2000
    1.5535    0.5997    0.0000 N   0  0  0  0  0  0  0  0  0  0  0  0
    2.2240    1.0828    0.0000 C   0  0  0  0  0  0  0  0  0  0  0  0
    1.8117   -0.1874    0.0000 C   0  0  0  0  0  0  0  0  0  0  0  0
    0.7746    0.8496    0.0000 C   0  0  0  0  0  0  0  0  0  0  0  0
    2.6363   -0.1874    0.0000 C   0  0  0  0  0  0  0  0  0  0  0  0
    2.8904    0.5997    0.0000 C   0  0  0  0  0  0  0  0  0  0  0  0
    3.2652   -2.2657    0.0000 C   0  0  0  0  0  0  0  0  0  0  0  0
    0.6039    1.6575    0.0000 C   0  0  0  0  0  0  0  0  0  0  0  0
    3.1153   -0.8538    0.0000 S   0  0  0  0  0  0  0  0  0  0  0  0
    2.7779   -1.6035    0.0000 C   0  0  0  0  0  0  0  0  0  0  0  0
    4.0856   -2.1782    0.0000 C   0  0  0  0  0  0  0  0  0  0  0  0
    2.2157    1.9074    0.0000 O   0  0  0  0  0  0  0  0  0  0  0  0
    1.3244   -0.8538    0.0000 O   0  0  0  0  0  0  0  0  0  0  0  0
   -0.1832    1.9116    0.0000 C   0  0  0  0  0  0  0  0  0  0  0  0
    4.4147   -1.4243    0.0000 O   0  0  0  0  0  0  0  0  0  0  0  0
    4.5729   -2.8404    0.0000 O   0  0  0  0  0  0  0  0  0  0  0  0
    0.1666    0.2999    0.0000 C   0  0  0  0  0  0  0  0  0  0  0  0
   -0.3498    2.7195    0.0000 Cl  0  0  0  0  0  0  0  0  0  0  0  0
    2.9278   -3.0153    0.0000 C   0  0  0  0  0  0  0  0  0  0  0  0
    1.2161    2.2115    0.0000 C   0  0  0  0  0  0  0  0  0  0  0  0
    1.9616   -1.6867    0.0000 C   0  0  0  0  0  0  0  0  0  0  0  0
   -0.6205    0.5497    0.0000 C   0  0  0  0  0  0  0  0  0  0  0  0
   -0.7954    1.3619    0.0000 C   0  0  0  0  0  0  0  0  0  0  0  0
    2.1032   -3.1028    0.0000 C   0  0  0  0  0  0  0  0  0  0  0  0
    1.6243   -2.4406    0.0000 C   0  0  0  0  0  0  0  0  0  0  0  0
  2  1  1  0  0  0  0
  3  1  1  0  0  0  0
  4  1  1  0  0  0  0
  5  3  1  0  0  0  0
  6  2  1  0  0  0  0
  7 10  1  0  0  0  0
  8  4  2  0  0  0  0
  9  5  1  0  0  0  0
 10  9  1  0  0  0  0
 11  7  1  0  0  0  0
 12  2  2  0  0  0  0
 13  3  2  0  0  0  0
 14  8  1  0  0  0  0
 15 11  2  0  0  0  0
 16 11  1  0  0  0  0
 17  4  1  0  0  0  0
 18 14  1  0  0  0  0
 19  7  2  0  0  0  0
 20  8  1  0  0  0  0
 21 10  2  0  0  0  0
 22 17  2  0  0  0  0
 23 22  1  0  0  0  0
 24 25  2  0  0  0  0
 25 21  1  0  0  0  0
  6  5  1  0  0  0  0
 23 14  2  0  0  0  0
 19 24  1  0  0  0  0
M  END
>  <IDNUMBER>
F3019-0039

>  <Chemical_Name>
2-{[1-(3-chloro-2-methylphenyl)-2,5-dioxopyrrolidin-3-yl]sulfanyl}benzoic acid

>  <PriceCoeff>
1.00

>  <CAS>
831209-09-7

>  <MW>
375.83

>  <Description>
solid

>  <FSP3>
0.17

>  <clogP>
3.16

>  <TPSA>
99.98

>  <Acceptor>
4

>  <Donor>
0

>  <RotBonds>
4

>  <HAC>
25

>  <Collection>
General

>  <PPDS>
+

$$$$
F3019-0040
  Mrv2219 10102508112D          

 25 27  0  0  0  0            999 V2000
    1.7179    0.9295    0.0000 N   0  0  0  0  0  0  0  0  0  0  0  0
    2.3694    1.4150    0.0000 C   0  0  0  0  0  0  0  0  0  0  0  0
    1.9669    0.1369    0.0000 C   0  0  0  0  0  0  0  0  0  0  0  0
    2.7927    0.1369    0.0000 C   0  0  0  0  0  0  0  0  0  0  0  0
    0.9336    1.1784    0.0000 C   0  0  0  0  0  0  0  0  0  0  0  0
    3.0499    0.9295    0.0000 C   0  0  0  0  0  0  0  0  0  0  0  0
    3.4276   -1.9462    0.0000 C   0  0  0  0  0  0  0  0  0  0  0  0
    3.2782   -0.5270    0.0000 S   0  0  0  0  0  0  0  0  0  0  0  0
    2.9421   -1.2864    0.0000 C   0  0  0  0  0  0  0  0  0  0  0  0
    0.7594    1.9876    0.0000 C   0  0  0  0  0  0  0  0  0  0  0  0
    4.2492   -1.8549    0.0000 C   0  0  0  0  0  0  0  0  0  0  0  0
   -0.0249    2.2408    0.0000 C   0  0  0  0  0  0  0  0  0  0  0  0
    2.3694    2.2366    0.0000 O   0  0  0  0  0  0  0  0  0  0  0  0
    1.4814   -0.5270    0.0000 O   0  0  0  0  0  0  0  0  0  0  0  0
    0.3237    0.6307    0.0000 C   0  0  0  0  0  0  0  0  0  0  0  0
   -0.6349    1.6888    0.0000 C   0  0  0  0  0  0  0  0  0  0  0  0
    4.5811   -1.0997    0.0000 O   0  0  0  0  0  0  0  0  0  0  0  0
   -0.4606    0.8797    0.0000 C   0  0  0  0  0  0  0  0  0  0  0  0
   -0.1950    3.0499    0.0000 Cl  0  0  0  0  0  0  0  0  0  0  0  0
    4.7347   -2.5188    0.0000 O   0  0  0  0  0  0  0  0  0  0  0  0
   -1.4191    1.9378    0.0000 F   0  0  0  0  0  0  0  0  0  0  0  0
    3.0915   -2.6931    0.0000 C   0  0  0  0  0  0  0  0  0  0  0  0
    2.1205   -1.3611    0.0000 C   0  0  0  0  0  0  0  0  0  0  0  0
    2.2657   -2.7885    0.0000 C   0  0  0  0  0  0  0  0  0  0  0  0
    1.7843   -2.1205    0.0000 C   0  0  0  0  0  0  0  0  0  0  0  0
  2  1  1  0  0  0  0
  3  1  1  0  0  0  0
  4  3  1  0  0  0  0
  5  1  1  0  0  0  0
  6  2  1  0  0  0  0
  7  9  1  0  0  0  0
  8  4  1  0  0  0  0
  9  8  1  0  0  0  0
 10  5  2  0  0  0  0
 11  7  1  0  0  0  0
 12 10  1  0  0  0  0
 13  2  2  0  0  0  0
 14  3  2  0  0  0  0
 15  5  1  0  0  0  0
 16 18  1  0  0  0  0
 17 11  2  0  0  0  0
 18 15  2  0  0  0  0
 19 12  1  0  0  0  0
 20 11  1  0  0  0  0
 21 16  1  0  0  0  0
 22  7  2  0  0  0  0
 23  9  2  0  0  0  0
 24 25  2  0  0  0  0
 25 23  1  0  0  0  0
  6  4  1  0  0  0  0
 16 12  2  0  0  0  0
 22 24  1  0  0  0  0
M  END
>  <IDNUMBER>
F3019-0040

>  <Chemical_Name>
2-{[1-(3-chloro-4-fluorophenyl)-2,5-dioxopyrrolidin-3-yl]sulfanyl}benzoic acid

>  <PriceCoeff>
1.00

>  <CAS>
831214-75-6

>  <MW>
379.79

>  <Description>
solid

>  <FSP3>
0.12

>  <clogP>
3.30

>  <TPSA>
99.98

>  <Acceptor>
4

>  <Donor>
0

>  <RotBonds>
4

>  <HAC>
25

>  <Collection>
General

>  <PPDS>
+

$$$$
F3019-0041
  Mrv2219 10102508112D          

 27 29  0  0  0  0            999 V2000
    0.7530    0.2954    0.0000 N   0  0  0  0  0  0  0  0  0  0  0  0
    1.4228    0.7820    0.0000 C   0  0  0  0  0  0  0  0  0  0  0  0
    1.0109   -0.4993    0.0000 C   0  0  0  0  0  0  0  0  0  0  0  0
    1.8347   -0.4993    0.0000 C   0  0  0  0  0  0  0  0  0  0  0  0
    2.0884    0.2954    0.0000 C   0  0  0  0  0  0  0  0  0  0  0  0
    2.4711   -2.5876    0.0000 C   0  0  0  0  0  0  0  0  0  0  0  0
    2.3131   -1.1649    0.0000 S   0  0  0  0  0  0  0  0  0  0  0  0
    1.9844   -1.9262    0.0000 C   0  0  0  0  0  0  0  0  0  0  0  0
    3.2949   -2.4961    0.0000 C   0  0  0  0  0  0  0  0  0  0  0  0
   -0.0333    0.5450    0.0000 C   0  0  0  0  0  0  0  0  0  0  0  0
    1.4145    1.6058    0.0000 O   0  0  0  0  0  0  0  0  0  0  0  0
   -2.5668    2.1174    0.0000 C   0  0  0  0  0  0  0  0  0  0  0  0
    0.5159   -1.1649    0.0000 O   0  0  0  0  0  0  0  0  0  0  0  0
   -2.3920    1.3063    0.0000 N   0  0  0  0  0  0  0  0  0  0  0  0
    3.6235   -1.7390    0.0000 O   0  0  0  0  0  0  0  0  0  0  0  0
   -3.3531    2.3671    0.0000 O   0  0  0  0  0  0  0  0  0  0  0  0
   -0.6448   -0.0042    0.0000 C   0  0  0  0  0  0  0  0  0  0  0  0
   -0.2080    1.3562    0.0000 C   0  0  0  0  0  0  0  0  0  0  0  0
   -1.6058    1.0566    0.0000 C   0  0  0  0  0  0  0  0  0  0  0  0
    3.7816   -3.1618    0.0000 O   0  0  0  0  0  0  0  0  0  0  0  0
   -0.9942    1.6100    0.0000 C   0  0  0  0  0  0  0  0  0  0  0  0
   -1.4311    0.2454    0.0000 C   0  0  0  0  0  0  0  0  0  0  0  0
    2.1258   -3.3365    0.0000 C   0  0  0  0  0  0  0  0  0  0  0  0
    1.1607   -2.0011    0.0000 C   0  0  0  0  0  0  0  0  0  0  0  0
   -1.9553    2.6666    0.0000 C   0  0  0  0  0  0  0  0  0  0  0  0
    1.3022   -3.4321    0.0000 C   0  0  0  0  0  0  0  0  0  0  0  0
    0.8237   -2.7624    0.0000 C   0  0  0  0  0  0  0  0  0  0  0  0
  2  1  1  0  0  0  0
  3  1  1  0  0  0  0
  4  3  1  0  0  0  0
  5  2  1  0  0  0  0
  6  8  1  0  0  0  0
  7  4  1  0  0  0  0
  8  7  1  0  0  0  0
  9  6  1  0  0  0  0
 10  1  1  0  0  0  0
 11  2  2  0  0  0  0
 12 14  1  0  0  0  0
 13  3  2  0  0  0  0
 14 19  1  0  0  0  0
 15  9  2  0  0  0  0
 16 12  2  0  0  0  0
 17 10  1  0  0  0  0
 18 10  2  0  0  0  0
 19 21  2  0  0  0  0
 20  9  1  0  0  0  0
 21 18  1  0  0  0  0
 22 17  2  0  0  0  0
 23  6  2  0  0  0  0
 24  8  2  0  0  0  0
 25 12  1  0  0  0  0
 26 27  2  0  0  0  0
 27 24  1  0  0  0  0
  5  4  1  0  0  0  0
 19 22  1  0  0  0  0
 23 26  1  0  0  0  0
M  END
>  <IDNUMBER>
F3019-0041

>  <Chemical_Name>
2-{[1-(4-acetamidophenyl)-2,5-dioxopyrrolidin-3-yl]sulfanyl}benzoic acid

>  <PriceCoeff>
1.00

>  <CAS>
831188-72-8

>  <MW>
384.41

>  <Description>
solid

>  <FSP3>
0.16

>  <clogP>
1.09

>  <TPSA>
129.08

>  <Acceptor>
5

>  <Donor>
1

>  <RotBonds>
5

>  <HAC>
27

>  <Collection>
General

>  <PPDS>
+

$$$$
F3019-0042
  Mrv2219 10102508112D          

 21 22  0  0  0  0            999 V2000
    2.1526    0.4811    0.0000 N   0  0  0  0  0  0  0  0  0  0  0  0
    2.4015   -0.3028    0.0000 C   0  0  0  0  0  0  0  0  0  0  0  0
    2.8121    0.9664    0.0000 C   0  0  0  0  0  0  0  0  0  0  0  0
    3.2269   -0.3028    0.0000 C   0  0  0  0  0  0  0  0  0  0  0  0
    3.4840    0.4811    0.0000 C   0  0  0  0  0  0  0  0  0  0  0  0
    3.8615   -2.3891    0.0000 C   0  0  0  0  0  0  0  0  0  0  0  0
    3.7122   -0.9747    0.0000 S   0  0  0  0  0  0  0  0  0  0  0  0
    3.3762   -1.7296    0.0000 C   0  0  0  0  0  0  0  0  0  0  0  0
    4.6827   -2.2937    0.0000 C   0  0  0  0  0  0  0  0  0  0  0  0
    1.3687    0.7300    0.0000 C   0  0  0  0  0  0  0  0  0  0  0  0
    1.9162   -0.9747    0.0000 O   0  0  0  0  0  0  0  0  0  0  0  0
    2.8121    1.7918    0.0000 O   0  0  0  0  0  0  0  0  0  0  0  0
    5.0145   -1.5429    0.0000 O   0  0  0  0  0  0  0  0  0  0  0  0
    5.1680   -2.9656    0.0000 O   0  0  0  0  0  0  0  0  0  0  0  0
    3.5255   -3.1398    0.0000 C   0  0  0  0  0  0  0  0  0  0  0  0
    2.5550   -1.8084    0.0000 C   0  0  0  0  0  0  0  0  0  0  0  0
    0.7590    0.1825    0.0000 C   0  0  0  0  0  0  0  0  0  0  0  0
   -0.0207    0.4355    0.0000 C   0  0  0  0  0  0  0  0  0  0  0  0
    0.9250   -0.6221    0.0000 C   0  0  0  0  0  0  0  0  0  0  0  0
    2.7001   -3.2269    0.0000 C   0  0  0  0  0  0  0  0  0  0  0  0
    2.2190   -2.5633    0.0000 C   0  0  0  0  0  0  0  0  0  0  0  0
  2  1  1  0  0  0  0
  3  1  1  0  0  0  0
  4  2  1  0  0  0  0
  5  3  1  0  0  0  0
  6  8  1  0  0  0  0
  7  4  1  0  0  0  0
  8  7  1  0  0  0  0
  9  6  1  0  0  0  0
 10  1  1  0  0  0  0
 11  2  2  0  0  0  0
 12  3  2  0  0  0  0
 13  9  2  0  0  0  0
 14  9  1  0  0  0  0
 15  6  2  0  0  0  0
 16  8  2  0  0  0  0
 17 10  1  0  0  0  0
 18 17  1  0  0  0  0
 19 17  1  0  0  0  0
 20 21  2  0  0  0  0
 21 16  1  0  0  0  0
  5  4  1  0  0  0  0
 15 20  1  0  0  0  0
M  END
>  <IDNUMBER>
F3019-0042

>  <Chemical_Name>
2-{[1-(2-methylpropyl)-2,5-dioxopyrrolidin-3-yl]sulfanyl}benzoic acid

>  <PriceCoeff>
1.00

>  <CAS>
831194-72-0

>  <MW>
307.36

>  <Description>
solid

>  <FSP3>
0.40

>  <clogP>
2.70

>  <TPSA>
99.98

>  <Acceptor>
4

>  <Donor>
0

>  <RotBonds>
5

>  <HAC>
21

>  <Collection>
General

>  <PPDS>
+

$$$$
F3019-0047
  Mrv2219 10102508112D          

 21 22  0  0  0  0            999 V2000
    1.5297   -0.2736    0.0000 N   0  0  0  0  0  0  0  0  0  0  0  0
    1.7784   -1.0571    0.0000 C   0  0  0  0  0  0  0  0  0  0  0  0
    2.1806    0.2114    0.0000 C   0  0  0  0  0  0  0  0  0  0  0  0
    2.6034   -1.0571    0.0000 C   0  0  0  0  0  0  0  0  0  0  0  0
    2.8604   -0.2736    0.0000 C   0  0  0  0  0  0  0  0  0  0  0  0
    4.3902   -2.3050    0.0000 C   0  0  0  0  0  0  0  0  0  0  0  0
    3.0885   -1.7204    0.0000 S   0  0  0  0  0  0  0  0  0  0  0  0
    3.9093   -1.6334    0.0000 C   0  0  0  0  0  0  0  0  0  0  0  0
    4.0544   -3.0594    0.0000 C   0  0  0  0  0  0  0  0  0  0  0  0
    1.2934   -1.7204    0.0000 O   0  0  0  0  0  0  0  0  0  0  0  0
    2.1806    1.0405    0.0000 O   0  0  0  0  0  0  0  0  0  0  0  0
    4.5311   -3.7227    0.0000 O   0  0  0  0  0  0  0  0  0  0  0  0
    0.7462   -0.0166    0.0000 C   0  0  0  0  0  0  0  0  0  0  0  0
    3.2377   -3.1382    0.0000 O   0  0  0  0  0  0  0  0  0  0  0  0
    5.2110   -2.2179    0.0000 C   0  0  0  0  0  0  0  0  0  0  0  0
    4.2409   -0.8872    0.0000 C   0  0  0  0  0  0  0  0  0  0  0  0
   -0.6467   -0.3151    0.0000 O   0  0  0  0  0  0  0  0  0  0  0  0
    0.1368   -0.5721    0.0000 C   0  0  0  0  0  0  0  0  0  0  0  0
   -1.2519   -0.8706    0.0000 C   0  0  0  0  0  0  0  0  0  0  0  0
    5.5509   -1.4675    0.0000 C   0  0  0  0  0  0  0  0  0  0  0  0
    5.0617   -0.8001    0.0000 C   0  0  0  0  0  0  0  0  0  0  0  0
  2  1  1  0  0  0  0
  3  1  1  0  0  0  0
  4  2  1  0  0  0  0
  5  3  1  0  0  0  0
  6  8  2  0  0  0  0
  7  4  1  0  0  0  0
  8  7  1  0  0  0  0
  9  6  1  0  0  0  0
 10  2  2  0  0  0  0
 11  3  2  0  0  0  0
 12  9  2  0  0  0  0
 13  1  1  0  0  0  0
 14  9  1  0  0  0  0
 15  6  1  0  0  0  0
 16  8  1  0  0  0  0
 17 18  1  0  0  0  0
 18 13  1  0  0  0  0
 19 17  1  0  0  0  0
 20 21  1  0  0  0  0
 21 16  2  0  0  0  0
  5  4  1  0  0  0  0
 20 15  2  0  0  0  0
M  END
>  <IDNUMBER>
F3019-0047

>  <Chemical_Name>
2-{[1-(2-methoxyethyl)-2,5-dioxopyrrolidin-3-yl]sulfanyl}benzoic acid

>  <PriceCoeff>
1.00

>  <CAS>
831207-85-3

>  <MW>
309.34

>  <Description>
solid

>  <FSP3>
0.36

>  <clogP>
1.49

>  <TPSA>
109.21

>  <Acceptor>
5

>  <Donor>
0

>  <RotBonds>
6

>  <HAC>
21

>  <Collection>
General

>  <PPDS>
+

$$$$
F3023-0014
  Mrv2219 10102508112D          

 25 27  0  0  0  0            999 V2000
    5.2417   -6.3417    0.0000 N   0  0  0  0  0  0  0  0  0  0  0  0
    5.7292   -5.6667    0.0000 C   0  0  0  0  0  0  0  0  0  0  0  0
    5.7375   -7.0042    0.0000 C   0  0  0  0  0  0  0  0  0  0  0  0
    6.5167   -6.7417    0.0000 C   0  0  0  0  0  0  0  0  0  0  0  0
    6.5167   -5.9167    0.0000 C   0  0  0  0  0  0  0  0  0  0  0  0
    4.4167   -6.3417    0.0000 C   0  0  0  0  0  0  0  0  0  0  0  0
    8.6042   -7.3750    0.0000 C   0  0  0  0  0  0  0  0  0  0  0  0
    7.1875   -7.2292    0.0000 S   0  0  0  0  0  0  0  0  0  0  0  0
    7.9417   -6.8917    0.0000 C   0  0  0  0  0  0  0  0  0  0  0  0
    4.0042   -5.6292    0.0000 C   0  0  0  0  0  0  0  0  0  0  0  0
    8.5250   -8.1917    0.0000 C   0  0  0  0  0  0  0  0  0  0  0  0
    3.1792   -5.6375    0.0000 C   0  0  0  0  0  0  0  0  0  0  0  0
    4.0167   -7.0625    0.0000 C   0  0  0  0  0  0  0  0  0  0  0  0
    5.4667   -4.8875    0.0000 O   0  0  0  0  0  0  0  0  0  0  0  0
    5.4792   -7.7917    0.0000 O   0  0  0  0  0  0  0  0  0  0  0  0
    9.1917   -8.6792    0.0000 O   0  0  0  0  0  0  0  0  0  0  0  0
    2.7750   -6.3542    0.0000 C   0  0  0  0  0  0  0  0  0  0  0  0
    4.4167   -4.9167    0.0000 Cl  0  0  0  0  0  0  0  0  0  0  0  0
    7.7667   -8.5292    0.0000 O   0  0  0  0  0  0  0  0  0  0  0  0
    3.1917   -7.0667    0.0000 C   0  0  0  0  0  0  0  0  0  0  0  0
    1.9500   -6.3542    0.0000 Cl  0  0  0  0  0  0  0  0  0  0  0  0
    9.3625   -7.0375    0.0000 C   0  0  0  0  0  0  0  0  0  0  0  0
    8.0167   -6.0750    0.0000 C   0  0  0  0  0  0  0  0  0  0  0  0
    9.4417   -6.2125    0.0000 C   0  0  0  0  0  0  0  0  0  0  0  0
    8.7667   -5.7292    0.0000 C   0  0  0  0  0  0  0  0  0  0  0  0
  2  1  1  0  0  0  0
  3  1  1  0  0  0  0
  4  3  1  0  0  0  0
  5  2  1  0  0  0  0
  6  1  1  0  0  0  0
  7  9  2  0  0  0  0
  8  4  1  0  0  0  0
  9  8  1  0  0  0  0
 10  6  2  0  0  0  0
 11  7  1  0  0  0  0
 12 10  1  0  0  0  0
 13  6  1  0  0  0  0
 14  2  2  0  0  0  0
 15  3  2  0  0  0  0
 16 11  2  0  0  0  0
 17 20  1  0  0  0  0
 18 10  1  0  0  0  0
 19 11  1  0  0  0  0
 20 13  2  0  0  0  0
 21 17  1  0  0  0  0
 22  7  1  0  0  0  0
 23  9  1  0  0  0  0
 24 25  1  0  0  0  0
 25 23  2  0  0  0  0
  5  4  1  0  0  0  0
 17 12  2  0  0  0  0
 24 22  2  0  0  0  0
M  END
>  <IDNUMBER>
F3023-0014

>  <Chemical_Name>
2-{[1-(2,4-dichlorophenyl)-2,5-dioxopyrrolidin-3-yl]sulfanyl}benzoic acid

>  <PriceCoeff>
1.00

>  <CAS>
838852-14-5

>  <MW>
396.24

>  <Description>
solid

>  <FSP3>
0.12

>  <clogP>
3.47

>  <TPSA>
99.98

>  <Acceptor>
4

>  <Donor>
0

>  <RotBonds>
4

>  <HAC>
25

>  <Collection>
General

>  <PPDS>
+

$$$$
F3023-0021
  Mrv2219 10102508112D          

 29 31  0  0  0  0            999 V2000
    6.7949   -6.6698    0.0000 N   0  0  0  0  0  0  0  0  0  0  0  0
    5.9695   -6.6781    0.0000 C   0  0  0  0  0  0  0  0  0  0  0  0
    5.4818   -6.0153    0.0000 C   0  0  0  0  0  0  0  0  0  0  0  0
    7.2826   -6.0028    0.0000 C   0  0  0  0  0  0  0  0  0  0  0  0
    7.2909   -7.3410    0.0000 C   0  0  0  0  0  0  0  0  0  0  0  0
    8.0705   -7.0783    0.0000 C   0  0  0  0  0  0  0  0  0  0  0  0
    5.4943   -7.3535    0.0000 S   0  0  0  0  0  0  0  0  0  0  0  0
    8.0705   -6.2529    0.0000 C   0  0  0  0  0  0  0  0  0  0  0  0
   10.1590   -7.7078    0.0000 C   0  0  0  0  0  0  0  0  0  0  0  0
    4.7022   -6.2780    0.0000 C   0  0  0  0  0  0  0  0  0  0  0  0
    5.7319   -5.2317    0.0000 C   0  0  0  0  0  0  0  0  0  0  0  0
    8.7416   -7.5578    0.0000 S   0  0  0  0  0  0  0  0  0  0  0  0
    9.4962   -7.2201    0.0000 C   0  0  0  0  0  0  0  0  0  0  0  0
    4.7064   -7.1033    0.0000 C   0  0  0  0  0  0  0  0  0  0  0  0
   10.0797   -8.5290    0.0000 C   0  0  0  0  0  0  0  0  0  0  0  0
    7.0200   -5.2192    0.0000 O   0  0  0  0  0  0  0  0  0  0  0  0
    7.0325   -8.1205    0.0000 O   0  0  0  0  0  0  0  0  0  0  0  0
    6.5448   -5.0524    0.0000 O   0  0  0  0  0  0  0  0  0  0  0  0
   10.7468   -9.0084    0.0000 O   0  0  0  0  0  0  0  0  0  0  0  0
    9.3211   -8.8667    0.0000 O   0  0  0  0  0  0  0  0  0  0  0  0
    5.1816   -4.6189    0.0000 O   0  0  0  0  0  0  0  0  0  0  0  0
   10.9176   -7.3702    0.0000 C   0  0  0  0  0  0  0  0  0  0  0  0
    4.0436   -7.5911    0.0000 C   0  0  0  0  0  0  0  0  0  0  0  0
    9.5712   -6.4072    0.0000 C   0  0  0  0  0  0  0  0  0  0  0  0
    5.4318   -3.8310    0.0000 C   0  0  0  0  0  0  0  0  0  0  0  0
    3.2807   -7.2576    0.0000 C   0  0  0  0  0  0  0  0  0  0  0  0
   10.9969   -6.5448    0.0000 C   0  0  0  0  0  0  0  0  0  0  0  0
   10.3216   -6.0654    0.0000 C   0  0  0  0  0  0  0  0  0  0  0  0
    2.6179   -7.7453    0.0000 C   0  0  0  0  0  0  0  0  0  0  0  0
  2  1  1  0  0  0  0
  3  2  2  0  0  0  0
  4  1  1  0  0  0  0
  5  1  1  0  0  0  0
  6  5  1  0  0  0  0
  7  2  1  0  0  0  0
  8  4  1  0  0  0  0
  9 13  2  0  0  0  0
 10  3  1  0  0  0  0
 11  3  1  0  0  0  0
 12  6  1  0  0  0  0
 13 12  1  0  0  0  0
 14  7  1  0  0  0  0
 15  9  1  0  0  0  0
 16  4  2  0  0  0  0
 17  5  2  0  0  0  0
 18 11  2  0  0  0  0
 19 15  2  0  0  0  0
 20 15  1  0  0  0  0
 21 11  1  0  0  0  0
 22  9  1  0  0  0  0
 23 14  1  0  0  0  0
 24 13  1  0  0  0  0
 25 21  1  0  0  0  0
 26 23  1  0  0  0  0
 27 28  1  0  0  0  0
 28 24  2  0  0  0  0
 29 26  1  0  0  0  0
  8  6  1  0  0  0  0
 14 10  2  0  0  0  0
 27 22  2  0  0  0  0
M  END
>  <IDNUMBER>
F3023-0021

>  <Chemical_Name>
2-({1-[3-(methoxycarbonyl)-5-propylthiophen-2-yl]-2,5-dioxopyrrolidin-3-yl}sulfanyl)benzoic acid

>  <PriceCoeff>
1.00

>  <CAS>
924861-11-0

>  <MW>
433.50

>  <Description>
solid

>  <FSP3>
0.30

>  <clogP>
3.85

>  <TPSA>
154.52

>  <Acceptor>
6

>  <Donor>
0

>  <RotBonds>
8

>  <HAC>
29

>  <Collection>
General

>  <PPDS>
+

$$$$
F3023-0022
  Mrv2219 10102508112D          

 21 22  0  0  0  0            999 V2000
    3.0903   -5.0602    0.0000 N   0  0  0  0  0  0  0  0  0  0  0  0
    3.5859   -5.7266    0.0000 C   0  0  0  0  0  0  0  0  0  0  0  0
    3.5776   -4.3897    0.0000 C   0  0  0  0  0  0  0  0  0  0  0  0
    4.3647   -5.4642    0.0000 C   0  0  0  0  0  0  0  0  0  0  0  0
    5.7890   -5.6099    0.0000 C   0  0  0  0  0  0  0  0  0  0  0  0
    4.3647   -4.6396    0.0000 C   0  0  0  0  0  0  0  0  0  0  0  0
    6.4512   -6.0889    0.0000 C   0  0  0  0  0  0  0  0  0  0  0  0
    5.0352   -5.9473    0.0000 S   0  0  0  0  0  0  0  0  0  0  0  0
    6.3721   -6.9135    0.0000 C   0  0  0  0  0  0  0  0  0  0  0  0
    5.8640   -4.7895    0.0000 N   0  0  0  0  0  0  0  0  0  0  0  0
    3.3277   -6.5095    0.0000 O   0  0  0  0  0  0  0  0  0  0  0  0
    3.3152   -3.6025    0.0000 O   0  0  0  0  0  0  0  0  0  0  0  0
    7.0385   -7.3966    0.0000 O   0  0  0  0  0  0  0  0  0  0  0  0
    2.2657   -5.0644    0.0000 C   0  0  0  0  0  0  0  0  0  0  0  0
    5.6141   -7.2509    0.0000 O   0  0  0  0  0  0  0  0  0  0  0  0
    7.2092   -5.7516    0.0000 C   0  0  0  0  0  0  0  0  0  0  0  0
    1.0287   -4.3522    0.0000 O   0  0  0  0  0  0  0  0  0  0  0  0
    6.6137   -4.4522    0.0000 C   0  0  0  0  0  0  0  0  0  0  0  0
    1.8533   -4.3522    0.0000 C   0  0  0  0  0  0  0  0  0  0  0  0
    0.6164   -3.6400    0.0000 C   0  0  0  0  0  0  0  0  0  0  0  0
    7.2884   -4.9269    0.0000 C   0  0  0  0  0  0  0  0  0  0  0  0
  2  1  1  0  0  0  0
  3  1  1  0  0  0  0
  4  2  1  0  0  0  0
  5  8  1  0  0  0  0
  6  3  1  0  0  0  0
  7  5  2  0  0  0  0
  8  4  1  0  0  0  0
  9  7  1  0  0  0  0
 10  5  1  0  0  0  0
 11  2  2  0  0  0  0
 12  3  2  0  0  0  0
 13  9  2  0  0  0  0
 14  1  1  0  0  0  0
 15  9  1  0  0  0  0
 16  7  1  0  0  0  0
 17 19  1  0  0  0  0
 18 10  2  0  0  0  0
 19 14  1  0  0  0  0
 20 17  1  0  0  0  0
 21 18  1  0  0  0  0
  6  4  1  0  0  0  0
 21 16  2  0  0  0  0
M  END
>  <IDNUMBER>
F3023-0022

>  <Chemical_Name>
2-{[1-(2-methoxyethyl)-2,5-dioxopyrrolidin-3-yl]sulfanyl}pyridine-3-carboxylic acid

>  <PriceCoeff>
1.00

>  <CAS>
857494-02-1

>  <MW>
310.33

>  <Description>
solid

>  <FSP3>
0.38

>  <clogP>
0.93

>  <TPSA>
122.10

>  <Acceptor>
6

>  <Donor>
1

>  <RotBonds>
6

>  <HAC>
21

>  <Collection>
General

>  <PPDS>
+

$$$$
F3023-0024
  Mrv2219 10102508112D          

 25 27  0  0  0  0            999 V2000
    3.1125   -5.1875    0.0000 N   0  0  0  0  0  0  0  0  0  0  0  0
    3.5917   -4.5167    0.0000 C   0  0  0  0  0  0  0  0  0  0  0  0
    3.6042   -5.8542    0.0000 C   0  0  0  0  0  0  0  0  0  0  0  0
    2.2875   -5.1917    0.0000 C   0  0  0  0  0  0  0  0  0  0  0  0
    4.3875   -5.5917    0.0000 C   0  0  0  0  0  0  0  0  0  0  0  0
    4.3792   -4.7667    0.0000 C   0  0  0  0  0  0  0  0  0  0  0  0
    5.8042   -5.7375    0.0000 C   0  0  0  0  0  0  0  0  0  0  0  0
    6.4750   -6.2167    0.0000 C   0  0  0  0  0  0  0  0  0  0  0  0
    5.0542   -6.0750    0.0000 S   0  0  0  0  0  0  0  0  0  0  0  0
    1.8750   -4.4792    0.0000 C   0  0  0  0  0  0  0  0  0  0  0  0
    6.3917   -7.0417    0.0000 C   0  0  0  0  0  0  0  0  0  0  0  0
    5.8875   -4.9167    0.0000 N   0  0  0  0  0  0  0  0  0  0  0  0
    3.3375   -3.7292    0.0000 O   0  0  0  0  0  0  0  0  0  0  0  0
    3.3500   -6.6375    0.0000 O   0  0  0  0  0  0  0  0  0  0  0  0
    7.0542   -7.5250    0.0000 O   0  0  0  0  0  0  0  0  0  0  0  0
    1.0500   -4.4792    0.0000 C   0  0  0  0  0  0  0  0  0  0  0  0
    5.6375   -7.3792    0.0000 O   0  0  0  0  0  0  0  0  0  0  0  0
    1.8792   -5.9042    0.0000 C   0  0  0  0  0  0  0  0  0  0  0  0
    7.2250   -5.8792    0.0000 C   0  0  0  0  0  0  0  0  0  0  0  0
    2.2792   -3.7625    0.0000 C   0  0  0  0  0  0  0  0  0  0  0  0
    1.0625   -5.9125    0.0000 C   0  0  0  0  0  0  0  0  0  0  0  0
    6.6292   -4.5792    0.0000 C   0  0  0  0  0  0  0  0  0  0  0  0
    0.6417   -5.2000    0.0000 C   0  0  0  0  0  0  0  0  0  0  0  0
    0.6292   -3.7667    0.0000 C   0  0  0  0  0  0  0  0  0  0  0  0
    7.3042   -5.0542    0.0000 C   0  0  0  0  0  0  0  0  0  0  0  0
  2  1  1  0  0  0  0
  3  1  1  0  0  0  0
  4  1  1  0  0  0  0
  5  3  1  0  0  0  0
  6  2  1  0  0  0  0
  7  9  1  0  0  0  0
  8  7  2  0  0  0  0
  9  5  1  0  0  0  0
 10  4  2  0  0  0  0
 11  8  1  0  0  0  0
 12  7  1  0  0  0  0
 13  2  2  0  0  0  0
 14  3  2  0  0  0  0
 15 11  2  0  0  0  0
 16 10  1  0  0  0  0
 17 11  1  0  0  0  0
 18  4  1  0  0  0  0
 19  8  1  0  0  0  0
 20 10  1  0  0  0  0
 21 18  2  0  0  0  0
 22 12  2  0  0  0  0
 23 21  1  0  0  0  0
 24 16  1  0  0  0  0
 25 22  1  0  0  0  0
  6  5  1  0  0  0  0
 23 16  2  0  0  0  0
 25 19  2  0  0  0  0
M  END
>  <IDNUMBER>
F3023-0024

>  <Chemical_Name>
2-{[1-(2,3-dimethylphenyl)-2,5-dioxopyrrolidin-3-yl]sulfanyl}pyridine-3-carboxylic acid

>  <PriceCoeff>
1.00

>  <CAS>
839685-74-4

>  <MW>
356.40

>  <Description>
solid

>  <FSP3>
0.22

>  <clogP>
2.06

>  <TPSA>
112.87

>  <Acceptor>
5

>  <Donor>
1

>  <RotBonds>
4

>  <HAC>
25

>  <Collection>
General

>  <PPDS>
+

$$$$
F3023-0025
  Mrv2219 10102508112D          

 25 27  0  0  0  0            999 V2000
    3.5000   -3.7792    0.0000 N   0  0  0  0  0  0  0  0  0  0  0  0
    3.9792   -3.1042    0.0000 C   0  0  0  0  0  0  0  0  0  0  0  0
    3.9917   -4.4417    0.0000 C   0  0  0  0  0  0  0  0  0  0  0  0
    4.7750   -4.1792    0.0000 C   0  0  0  0  0  0  0  0  0  0  0  0
    4.7667   -3.3542    0.0000 C   0  0  0  0  0  0  0  0  0  0  0  0
    6.1917   -4.3292    0.0000 C   0  0  0  0  0  0  0  0  0  0  0  0
    2.6750   -3.7792    0.0000 C   0  0  0  0  0  0  0  0  0  0  0  0
    6.8625   -4.8125    0.0000 C   0  0  0  0  0  0  0  0  0  0  0  0
    5.4417   -4.6667    0.0000 S   0  0  0  0  0  0  0  0  0  0  0  0
    6.7792   -5.6292    0.0000 C   0  0  0  0  0  0  0  0  0  0  0  0
    2.2542   -3.0667    0.0000 C   0  0  0  0  0  0  0  0  0  0  0  0
    6.2750   -3.5125    0.0000 N   0  0  0  0  0  0  0  0  0  0  0  0
    2.2667   -4.5000    0.0000 C   0  0  0  0  0  0  0  0  0  0  0  0
    3.7250   -2.3250    0.0000 O   0  0  0  0  0  0  0  0  0  0  0  0
    3.7375   -5.2292    0.0000 O   0  0  0  0  0  0  0  0  0  0  0  0
    1.4375   -3.0750    0.0000 C   0  0  0  0  0  0  0  0  0  0  0  0
    7.4417   -6.1167    0.0000 O   0  0  0  0  0  0  0  0  0  0  0  0
    6.0250   -5.9667    0.0000 O   0  0  0  0  0  0  0  0  0  0  0  0
    1.4500   -4.5042    0.0000 C   0  0  0  0  0  0  0  0  0  0  0  0
    1.0292   -3.7917    0.0000 C   0  0  0  0  0  0  0  0  0  0  0  0
    7.6125   -4.4750    0.0000 C   0  0  0  0  0  0  0  0  0  0  0  0
    2.6667   -2.3542    0.0000 C   0  0  0  0  0  0  0  0  0  0  0  0
    7.0167   -3.1667    0.0000 C   0  0  0  0  0  0  0  0  0  0  0  0
    0.2042   -3.7917    0.0000 C   0  0  0  0  0  0  0  0  0  0  0  0
    7.6917   -3.6500    0.0000 C   0  0  0  0  0  0  0  0  0  0  0  0
  2  1  1  0  0  0  0
  3  1  1  0  0  0  0
  4  3  1  0  0  0  0
  5  2  1  0  0  0  0
  6  9  1  0  0  0  0
  7  1  1  0  0  0  0
  8  6  2  0  0  0  0
  9  4  1  0  0  0  0
 10  8  1  0  0  0  0
 11  7  2  0  0  0  0
 12  6  1  0  0  0  0
 13  7  1  0  0  0  0
 14  2  2  0  0  0  0
 15  3  2  0  0  0  0
 16 11  1  0  0  0  0
 17 10  2  0  0  0  0
 18 10  1  0  0  0  0
 19 13  2  0  0  0  0
 20 19  1  0  0  0  0
 21  8  1  0  0  0  0
 22 11  1  0  0  0  0
 23 12  2  0  0  0  0
 24 20  1  0  0  0  0
 25 23  1  0  0  0  0
  5  4  1  0  0  0  0
 20 16  2  0  0  0  0
 25 21  2  0  0  0  0
M  END
>  <IDNUMBER>
F3023-0025

>  <Chemical_Name>
2-{[1-(2,4-dimethylphenyl)-2,5-dioxopyrrolidin-3-yl]sulfanyl}pyridine-3-carboxylic acid

>  <PriceCoeff>
1.00

>  <CAS>
838890-47-4

>  <MW>
356.40

>  <Description>
solid

>  <FSP3>
0.22

>  <clogP>
2.11

>  <TPSA>
112.87

>  <Acceptor>
5

>  <Donor>
1

>  <RotBonds>
4

>  <HAC>
25

>  <Collection>
General

>  <PPDS>
+

$$$$
F3023-0029
  Mrv2219 10102508112D          

 25 27  0  0  0  0            999 V2000
    3.4042   -3.2500    0.0000 N   0  0  0  0  0  0  0  0  0  0  0  0
    3.8875   -2.5792    0.0000 C   0  0  0  0  0  0  0  0  0  0  0  0
    3.8917   -3.9167    0.0000 C   0  0  0  0  0  0  0  0  0  0  0  0
    2.5792   -3.2542    0.0000 C   0  0  0  0  0  0  0  0  0  0  0  0
    4.6792   -3.6542    0.0000 C   0  0  0  0  0  0  0  0  0  0  0  0
    4.6750   -2.8292    0.0000 C   0  0  0  0  0  0  0  0  0  0  0  0
    6.1000   -3.8000    0.0000 C   0  0  0  0  0  0  0  0  0  0  0  0
    6.7667   -4.2792    0.0000 C   0  0  0  0  0  0  0  0  0  0  0  0
    2.1667   -2.5417    0.0000 C   0  0  0  0  0  0  0  0  0  0  0  0
    5.3417   -4.1292    0.0000 S   0  0  0  0  0  0  0  0  0  0  0  0
    6.6792   -5.1042    0.0000 C   0  0  0  0  0  0  0  0  0  0  0  0
    6.1792   -2.9792    0.0000 N   0  0  0  0  0  0  0  0  0  0  0  0
    3.6292   -1.7917    0.0000 O   0  0  0  0  0  0  0  0  0  0  0  0
    3.6417   -4.7000    0.0000 O   0  0  0  0  0  0  0  0  0  0  0  0
    1.3417   -2.5417    0.0000 C   0  0  0  0  0  0  0  0  0  0  0  0
    7.3500   -5.5875    0.0000 O   0  0  0  0  0  0  0  0  0  0  0  0
    2.5750   -1.8250    0.0000 Cl  0  0  0  0  0  0  0  0  0  0  0  0
    5.9292   -5.4417    0.0000 O   0  0  0  0  0  0  0  0  0  0  0  0
    2.1750   -3.9667    0.0000 C   0  0  0  0  0  0  0  0  0  0  0  0
    0.9250   -1.8292    0.0000 Cl  0  0  0  0  0  0  0  0  0  0  0  0
    7.5167   -3.9417    0.0000 C   0  0  0  0  0  0  0  0  0  0  0  0
    1.3542   -3.9750    0.0000 C   0  0  0  0  0  0  0  0  0  0  0  0
    6.9250   -2.6417    0.0000 C   0  0  0  0  0  0  0  0  0  0  0  0
    0.9292   -3.2625    0.0000 C   0  0  0  0  0  0  0  0  0  0  0  0
    7.6000   -3.1167    0.0000 C   0  0  0  0  0  0  0  0  0  0  0  0
  2  1  1  0  0  0  0
  3  1  1  0  0  0  0
  4  1  1  0  0  0  0
  5  3  1  0  0  0  0
  6  2  1  0  0  0  0
  7 10  1  0  0  0  0
  8  7  2  0  0  0  0
  9  4  2  0  0  0  0
 10  5  1  0  0  0  0
 11  8  1  0  0  0  0
 12  7  1  0  0  0  0
 13  2  2  0  0  0  0
 14  3  2  0  0  0  0
 15  9  1  0  0  0  0
 16 11  2  0  0  0  0
 17  9  1  0  0  0  0
 18 11  1  0  0  0  0
 19  4  1  0  0  0  0
 20 15  1  0  0  0  0
 21  8  1  0  0  0  0
 22 19  2  0  0  0  0
 23 12  2  0  0  0  0
 24 22  1  0  0  0  0
 25 23  1  0  0  0  0
  6  5  1  0  0  0  0
 24 15  2  0  0  0  0
 25 21  2  0  0  0  0
M  END
>  <IDNUMBER>
F3023-0029

>  <Chemical_Name>
2-{[1-(2,3-dichlorophenyl)-2,5-dioxopyrrolidin-3-yl]sulfanyl}pyridine-3-carboxylic acid

>  <PriceCoeff>
1.00

>  <CAS>
838882-67-0

>  <MW>
397.23

>  <Description>
solid

>  <FSP3>
0.12

>  <clogP>
2.79

>  <TPSA>
112.87

>  <Acceptor>
5

>  <Donor>
1

>  <RotBonds>
4

>  <HAC>
25

>  <Collection>
General

>  <PPDS>
+

$$$$
F3023-0278
  Mrv2219 10102508112D          

 24 25  0  0  0  0            999 V2000
    8.9499   -6.6477    0.0000 N   0  0  0  0  0  0  0  0  0  0  0  0
    9.4391   -7.3144    0.0000 C   0  0  0  0  0  0  0  0  0  0  0  0
    9.4295   -5.9762    0.0000 C   0  0  0  0  0  0  0  0  0  0  0  0
   10.2209   -7.0554    0.0000 C   0  0  0  0  0  0  0  0  0  0  0  0
   10.2209   -6.2304    0.0000 C   0  0  0  0  0  0  0  0  0  0  0  0
   12.3073   -7.6741    0.0000 C   0  0  0  0  0  0  0  0  0  0  0  0
   10.8924   -7.5302    0.0000 S   0  0  0  0  0  0  0  0  0  0  0  0
   11.6454   -7.1944    0.0000 C   0  0  0  0  0  0  0  0  0  0  0  0
   12.2305   -8.5038    0.0000 C   0  0  0  0  0  0  0  0  0  0  0  0
    9.1849   -8.1009    0.0000 O   0  0  0  0  0  0  0  0  0  0  0  0
    9.1705   -5.1848    0.0000 O   0  0  0  0  0  0  0  0  0  0  0  0
   12.8973   -8.9835    0.0000 O   0  0  0  0  0  0  0  0  0  0  0  0
    8.1202   -6.6525    0.0000 C   0  0  0  0  0  0  0  0  0  0  0  0
   11.4728   -8.8396    0.0000 O   0  0  0  0  0  0  0  0  0  0  0  0
   13.0651   -7.3383    0.0000 C   0  0  0  0  0  0  0  0  0  0  0  0
    7.7173   -7.3719    0.0000 C   0  0  0  0  0  0  0  0  0  0  0  0
   11.7174   -6.3791    0.0000 C   0  0  0  0  0  0  0  0  0  0  0  0
    6.4798   -8.0914    0.0000 O   0  0  0  0  0  0  0  0  0  0  0  0
    6.8923   -7.3719    0.0000 C   0  0  0  0  0  0  0  0  0  0  0  0
    5.6597   -8.0914    0.0000 C   0  0  0  0  0  0  0  0  0  0  0  0
   13.1419   -6.5182    0.0000 C   0  0  0  0  0  0  0  0  0  0  0  0
    5.2519   -8.8108    0.0000 C   0  0  0  0  0  0  0  0  0  0  0  0
    5.2424   -7.3863    0.0000 C   0  0  0  0  0  0  0  0  0  0  0  0
   12.4656   -6.0338    0.0000 C   0  0  0  0  0  0  0  0  0  0  0  0
  2  1  1  0  0  0  0
  3  1  1  0  0  0  0
  4  2  1  0  0  0  0
  5  3  1  0  0  0  0
  6  8  2  0  0  0  0
  7  4  1  0  0  0  0
  8  7  1  0  0  0  0
  9  6  1  0  0  0  0
 10  2  2  0  0  0  0
 11  3  2  0  0  0  0
 12  9  2  0  0  0  0
 13  1  1  0  0  0  0
 14  9  1  0  0  0  0
 15  6  1  0  0  0  0
 16 13  1  0  0  0  0
 17  8  1  0  0  0  0
 18 19  1  0  0  0  0
 19 16  1  0  0  0  0
 20 18  1  0  0  0  0
 21 24  1  0  0  0  0
 22 20  1  0  0  0  0
 23 20  1  0  0  0  0
 24 17  2  0  0  0  0
  5  4  1  0  0  0  0
 21 15  2  0  0  0  0
M  END
>  <IDNUMBER>
F3023-0278

>  <Chemical_Name>
2-({2,5-dioxo-1-[3-(propan-2-yloxy)propyl]pyrrolidin-3-yl}sulfanyl)benzoic acid

>  <PriceCoeff>
1.00

>  <CAS>
857493-93-7

>  <MW>
351.42

>  <Description>
solid

>  <FSP3>
0.47

>  <clogP>
2.37

>  <TPSA>
109.21

>  <Acceptor>
5

>  <Donor>
0

>  <RotBonds>
8

>  <HAC>
24

>  <Collection>
General

>  <PPDS>
+

$$$$
F3023-0282
  Mrv2219 10102508112D          

 27 29  0  0  0  0            999 V2000
    9.7747   -6.6475    0.0000 N   0  0  0  0  0  0  0  0  0  0  0  0
   10.2591   -5.9761    0.0000 C   0  0  0  0  0  0  0  0  0  0  0  0
   10.2639   -7.3143    0.0000 C   0  0  0  0  0  0  0  0  0  0  0  0
    8.9497   -6.6524    0.0000 C   0  0  0  0  0  0  0  0  0  0  0  0
   11.0505   -7.0553    0.0000 C   0  0  0  0  0  0  0  0  0  0  0  0
   11.0409   -6.2303    0.0000 C   0  0  0  0  0  0  0  0  0  0  0  0
   13.1368   -7.6740    0.0000 C   0  0  0  0  0  0  0  0  0  0  0  0
   11.7172   -7.5301    0.0000 S   0  0  0  0  0  0  0  0  0  0  0  0
   12.4654   -7.1943    0.0000 C   0  0  0  0  0  0  0  0  0  0  0  0
   13.0553   -8.5037    0.0000 C   0  0  0  0  0  0  0  0  0  0  0  0
    8.5468   -7.3670    0.0000 C   0  0  0  0  0  0  0  0  0  0  0  0
    8.5373   -5.9425    0.0000 C   0  0  0  0  0  0  0  0  0  0  0  0
   10.0001   -5.1847    0.0000 O   0  0  0  0  0  0  0  0  0  0  0  0
   10.0145   -8.1008    0.0000 O   0  0  0  0  0  0  0  0  0  0  0  0
   13.7172   -8.9833    0.0000 O   0  0  0  0  0  0  0  0  0  0  0  0
    7.7123   -5.9473    0.0000 C   0  0  0  0  0  0  0  0  0  0  0  0
    7.7267   -7.3718    0.0000 C   0  0  0  0  0  0  0  0  0  0  0  0
   12.3023   -8.8394    0.0000 O   0  0  0  0  0  0  0  0  0  0  0  0
    7.2999   -6.6619    0.0000 C   0  0  0  0  0  0  0  0  0  0  0  0
   13.8899   -7.3382    0.0000 C   0  0  0  0  0  0  0  0  0  0  0  0
    8.9402   -5.2231    0.0000 O   0  0  0  0  0  0  0  0  0  0  0  0
    7.3143   -8.0912    0.0000 O   0  0  0  0  0  0  0  0  0  0  0  0
   12.5373   -6.3790    0.0000 C   0  0  0  0  0  0  0  0  0  0  0  0
    8.5325   -4.5085    0.0000 C   0  0  0  0  0  0  0  0  0  0  0  0
    6.4941   -8.1056    0.0000 C   0  0  0  0  0  0  0  0  0  0  0  0
   13.9713   -6.5180    0.0000 C   0  0  0  0  0  0  0  0  0  0  0  0
   13.2951   -6.0337    0.0000 C   0  0  0  0  0  0  0  0  0  0  0  0
  2  1  1  0  0  0  0
  3  1  1  0  0  0  0
  4  1  1  0  0  0  0
  5  3  1  0  0  0  0
  6  2  1  0  0  0  0
  7  9  2  0  0  0  0
  8  5  1  0  0  0  0
  9  8  1  0  0  0  0
 10  7  1  0  0  0  0
 11  4  1  0  0  0  0
 12  4  2  0  0  0  0
 13  2  2  0  0  0  0
 14  3  2  0  0  0  0
 15 10  2  0  0  0  0
 16 12  1  0  0  0  0
 17 11  2  0  0  0  0
 18 10  1  0  0  0  0
 19 16  2  0  0  0  0
 20  7  1  0  0  0  0
 21 12  1  0  0  0  0
 22 17  1  0  0  0  0
 23  9  1  0  0  0  0
 24 21  1  0  0  0  0
 25 22  1  0  0  0  0
 26 27  1  0  0  0  0
 27 23  2  0  0  0  0
  6  5  1  0  0  0  0
 19 17  1  0  0  0  0
 26 20  2  0  0  0  0
M  END
>  <IDNUMBER>
F3023-0282

>  <Chemical_Name>
2-{[1-(2,5-dimethoxyphenyl)-2,5-dioxopyrrolidin-3-yl]sulfanyl}benzoic acid

>  <PriceCoeff>
1.00

>  <CAS>
831215-36-2

>  <MW>
387.41

>  <Description>
solid

>  <FSP3>
0.21

>  <clogP>
2.19

>  <TPSA>
118.44

>  <Acceptor>
6

>  <Donor>
0

>  <RotBonds>
6

>  <HAC>
27

>  <Collection>
General

>  <PPDS>
+

$$$$
F3023-0286
  Mrv2219 10102508112D          

 27 29  0  0  0  0            999 V2000
   10.6629   -7.6335    0.0000 N   0  0  0  0  0  0  0  0  0  0  0  0
    9.8371   -7.6383    0.0000 C   0  0  0  0  0  0  0  0  0  0  0  0
    9.3474   -6.9758    0.0000 C   0  0  0  0  0  0  0  0  0  0  0  0
   11.1477   -6.9614    0.0000 C   0  0  0  0  0  0  0  0  0  0  0  0
   11.1526   -8.3008    0.0000 C   0  0  0  0  0  0  0  0  0  0  0  0
    9.3522   -8.3152    0.0000 S   0  0  0  0  0  0  0  0  0  0  0  0
   11.9399   -8.0416    0.0000 C   0  0  0  0  0  0  0  0  0  0  0  0
   11.9303   -7.2158    0.0000 C   0  0  0  0  0  0  0  0  0  0  0  0
   14.0283   -8.6609    0.0000 C   0  0  0  0  0  0  0  0  0  0  0  0
    8.5696   -7.2350    0.0000 C   0  0  0  0  0  0  0  0  0  0  0  0
    9.5971   -6.1932    0.0000 C   0  0  0  0  0  0  0  0  0  0  0  0
   12.6072   -8.5169    0.0000 S   0  0  0  0  0  0  0  0  0  0  0  0
   13.3562   -8.1808    0.0000 C   0  0  0  0  0  0  0  0  0  0  0  0
    8.5696   -8.0655    0.0000 C   0  0  0  0  0  0  0  0  0  0  0  0
   13.9467   -9.4914    0.0000 C   0  0  0  0  0  0  0  0  0  0  0  0
   10.8885   -6.1788    0.0000 O   0  0  0  0  0  0  0  0  0  0  0  0
   10.9029   -9.0881    0.0000 O   0  0  0  0  0  0  0  0  0  0  0  0
   10.1683   -6.0780    0.0000 O   0  0  0  0  0  0  0  0  0  0  0  0
   14.6092   -9.9715    0.0000 O   0  0  0  0  0  0  0  0  0  0  0  0
   13.1929   -9.8275    0.0000 O   0  0  0  0  0  0  0  0  0  0  0  0
    9.0354   -5.5787    0.0000 O   0  0  0  0  0  0  0  0  0  0  0  0
   14.7821   -8.3248    0.0000 C   0  0  0  0  0  0  0  0  0  0  0  0
   13.4378   -7.3646    0.0000 C   0  0  0  0  0  0  0  0  0  0  0  0
    7.8543   -8.4737    0.0000 C   0  0  0  0  0  0  0  0  0  0  0  0
    9.2898   -4.7961    0.0000 C   0  0  0  0  0  0  0  0  0  0  0  0
   14.8636   -7.5038    0.0000 C   0  0  0  0  0  0  0  0  0  0  0  0
   14.1867   -7.0190    0.0000 C   0  0  0  0  0  0  0  0  0  0  0  0
  2  1  1  0  0  0  0
  3  2  2  0  0  0  0
  4  1  1  0  0  0  0
  5  1  1  0  0  0  0
  6  2  1  0  0  0  0
  7  5  1  0  0  0  0
  8  4  1  0  0  0  0
  9 13  2  0  0  0  0
 10  3  1  0  0  0  0
 11  3  1  0  0  0  0
 12  7  1  0  0  0  0
 13 12  1  0  0  0  0
 14  6  1  0  0  0  0
 15  9  1  0  0  0  0
 16  4  2  0  0  0  0
 17  5  2  0  0  0  0
 18 11  2  0  0  0  0
 19 15  2  0  0  0  0
 20 15  1  0  0  0  0
 21 11  1  0  0  0  0
 22  9  1  0  0  0  0
 23 13  1  0  0  0  0
 24 14  1  0  0  0  0
 25 21  1  0  0  0  0
 26 27  1  0  0  0  0
 27 23  2  0  0  0  0
  8  7  1  0  0  0  0
 10 14  2  0  0  0  0
 26 22  2  0  0  0  0
M  END
>  <IDNUMBER>
F3023-0286

>  <Chemical_Name>
2-({1-[3-(methoxycarbonyl)-5-methylthiophen-2-yl]-2,5-dioxopyrrolidin-3-yl}sulfanyl)benzoic acid

>  <PriceCoeff>
1.00

>  <CAS>
831228-85-4

>  <MW>
405.44

>  <Description>
solid

>  <FSP3>
0.22

>  <clogP>
2.79

>  <TPSA>
154.52

>  <Acceptor>
6

>  <Donor>
0

>  <RotBonds>
6

>  <HAC>
27

>  <Collection>
General

>  <PPDS>
+

$$$$
F3023-0287
  Mrv2219 10102508112D          

 31 34  0  0  0  0            999 V2000
   10.6629   -7.6335    0.0000 N   0  0  0  0  0  0  0  0  0  0  0  0
    9.8371   -7.6383    0.0000 C   0  0  0  0  0  0  0  0  0  0  0  0
    9.3474   -6.9758    0.0000 C   0  0  0  0  0  0  0  0  0  0  0  0
   11.1477   -6.9614    0.0000 C   0  0  0  0  0  0  0  0  0  0  0  0
    9.3522   -8.3152    0.0000 S   0  0  0  0  0  0  0  0  0  0  0  0
   11.1526   -8.3008    0.0000 C   0  0  0  0  0  0  0  0  0  0  0  0
    8.5696   -8.0655    0.0000 C   0  0  0  0  0  0  0  0  0  0  0  0
    8.5696   -7.2350    0.0000 C   0  0  0  0  0  0  0  0  0  0  0  0
   11.9399   -8.0416    0.0000 C   0  0  0  0  0  0  0  0  0  0  0  0
   11.9303   -7.2158    0.0000 C   0  0  0  0  0  0  0  0  0  0  0  0
   13.3562   -8.1808    0.0000 C   0  0  0  0  0  0  0  0  0  0  0  0
   14.0283   -8.6609    0.0000 C   0  0  0  0  0  0  0  0  0  0  0  0
   12.6072   -8.5169    0.0000 S   0  0  0  0  0  0  0  0  0  0  0  0
    9.5971   -6.1932    0.0000 C   0  0  0  0  0  0  0  0  0  0  0  0
   13.9467   -9.4914    0.0000 C   0  0  0  0  0  0  0  0  0  0  0  0
    7.8543   -6.8317    0.0000 C   0  0  0  0  0  0  0  0  0  0  0  0
   13.4378   -7.3646    0.0000 N   0  0  0  0  0  0  0  0  0  0  0  0
    7.8543   -8.4737    0.0000 C   0  0  0  0  0  0  0  0  0  0  0  0
   10.8885   -6.1788    0.0000 O   0  0  0  0  0  0  0  0  0  0  0  0
   10.9029   -9.0881    0.0000 O   0  0  0  0  0  0  0  0  0  0  0  0
   10.1683   -6.0780    0.0000 O   0  0  0  0  0  0  0  0  0  0  0  0
   14.6092   -9.9715    0.0000 O   0  0  0  0  0  0  0  0  0  0  0  0
   13.1929   -9.8275    0.0000 O   0  0  0  0  0  0  0  0  0  0  0  0
    9.0354   -5.5787    0.0000 O   0  0  0  0  0  0  0  0  0  0  0  0
    7.1438   -7.2350    0.0000 C   0  0  0  0  0  0  0  0  0  0  0  0
    7.1438   -8.0655    0.0000 C   0  0  0  0  0  0  0  0  0  0  0  0
   14.7821   -8.3248    0.0000 C   0  0  0  0  0  0  0  0  0  0  0  0
   14.1867   -7.0190    0.0000 C   0  0  0  0  0  0  0  0  0  0  0  0
    9.2898   -4.7961    0.0000 C   0  0  0  0  0  0  0  0  0  0  0  0
    6.4285   -8.4832    0.0000 C   0  0  0  0  0  0  0  0  0  0  0  0
   14.8636   -7.5038    0.0000 C   0  0  0  0  0  0  0  0  0  0  0  0
  2  1  1  0  0  0  0
  3  2  2  0  0  0  0
  4  1  1  0  0  0  0
  5  2  1  0  0  0  0
  6  1  1  0  0  0  0
  7  5  1  0  0  0  0
  8  3  1  0  0  0  0
  9  6  1  0  0  0  0
 10  4  1  0  0  0  0
 11 13  1  0  0  0  0
 12 11  2  0  0  0  0
 13  9  1  0  0  0  0
 14  3  1  0  0  0  0
 15 12  1  0  0  0  0
 16  8  1  0  0  0  0
 17 11  1  0  0  0  0
 18  7  1  0  0  0  0
 19  4  2  0  0  0  0
 20  6  2  0  0  0  0
 21 14  2  0  0  0  0
 22 15  2  0  0  0  0
 23 15  1  0  0  0  0
 24 14  1  0  0  0  0
 25 16  1  0  0  0  0
 26 18  1  0  0  0  0
 27 12  1  0  0  0  0
 28 17  2  0  0  0  0
 29 24  1  0  0  0  0
 30 26  1  0  0  0  0
 31 28  1  0  0  0  0
 10  9  1  0  0  0  0
  8  7  2  0  0  0  0
 26 25  1  0  0  0  0
 31 27  2  0  0  0  0
M  END
>  <IDNUMBER>
F3023-0287

>  <Chemical_Name>
2-({1-[3-(methoxycarbonyl)-6-methyl-4,5,6,7-tetrahydro-1-benzothiophen-2-yl]-2,5-dioxopyrrolidin-3-yl}sulfanyl)pyridine-3-carboxylic acid

>  <PriceCoeff>
1.00

>  <CAS>
830352-05-1

>  <MW>
460.52

>  <Description>
solid

>  <FSP3>
0.38

>  <clogP>
3.82

>  <TPSA>
167.41

>  <Acceptor>
7

>  <Donor>
1

>  <RotBonds>
6

>  <HAC>
31

>  <Collection>
General

>  <PPDS>
+

$$$$
F3023-0293
  Mrv2219 10102508112D          

 20 21  0  0  0  0            999 V2000
   10.6202   -7.2921    0.0000 N   0  0  0  0  0  0  0  0  0  0  0  0
   11.1079   -7.9615    0.0000 C   0  0  0  0  0  0  0  0  0  0  0  0
   11.1031   -6.6274    0.0000 C   0  0  0  0  0  0  0  0  0  0  0  0
   11.8921   -7.7033    0.0000 C   0  0  0  0  0  0  0  0  0  0  0  0
   13.3027   -7.8372    0.0000 C   0  0  0  0  0  0  0  0  0  0  0  0
   11.8826   -6.8761    0.0000 C   0  0  0  0  0  0  0  0  0  0  0  0
   13.9721   -8.3250    0.0000 C   0  0  0  0  0  0  0  0  0  0  0  0
   12.5568   -8.1815    0.0000 S   0  0  0  0  0  0  0  0  0  0  0  0
   13.8909   -9.1426    0.0000 C   0  0  0  0  0  0  0  0  0  0  0  0
   13.3840   -7.0291    0.0000 N   0  0  0  0  0  0  0  0  0  0  0  0
   10.8592   -8.7410    0.0000 O   0  0  0  0  0  0  0  0  0  0  0  0
   10.8449   -5.8433    0.0000 O   0  0  0  0  0  0  0  0  0  0  0  0
   14.5507   -9.6256    0.0000 O   0  0  0  0  0  0  0  0  0  0  0  0
    9.7977   -7.3016    0.0000 C   0  0  0  0  0  0  0  0  0  0  0  0
   13.1401   -9.4821    0.0000 O   0  0  0  0  0  0  0  0  0  0  0  0
   14.7229   -7.9807    0.0000 C   0  0  0  0  0  0  0  0  0  0  0  0
   14.1299   -6.6896    0.0000 C   0  0  0  0  0  0  0  0  0  0  0  0
    9.3817   -6.5892    0.0000 C   0  0  0  0  0  0  0  0  0  0  0  0
   14.8041   -7.1630    0.0000 C   0  0  0  0  0  0  0  0  0  0  0  0
    8.5545   -6.5987    0.0000 C   0  0  0  0  0  0  0  0  0  0  0  0
  2  1  1  0  0  0  0
  3  1  1  0  0  0  0
  4  2  1  0  0  0  0
  5  8  1  0  0  0  0
  6  3  1  0  0  0  0
  7  5  2  0  0  0  0
  8  4  1  0  0  0  0
  9  7  1  0  0  0  0
 10  5  1  0  0  0  0
 11  2  2  0  0  0  0
 12  3  2  0  0  0  0
 13  9  2  0  0  0  0
 14  1  1  0  0  0  0
 15  9  1  0  0  0  0
 16  7  1  0  0  0  0
 17 10  2  0  0  0  0
 18 14  1  0  0  0  0
 19 17  1  0  0  0  0
 20 18  1  0  0  0  0
  6  4  1  0  0  0  0
 19 16  2  0  0  0  0
M  END
>  <IDNUMBER>
F3023-0293

>  <Chemical_Name>
2-[(2,5-dioxo-1-propylpyrrolidin-3-yl)sulfanyl]pyridine-3-carboxylic acid

>  <PriceCoeff>
1.00

>  <CAS>
831207-41-1

>  <MW>
294.33

>  <Description>
solid

>  <FSP3>
0.38

>  <clogP>
1.73

>  <TPSA>
112.87

>  <Acceptor>
5

>  <Donor>
1

>  <RotBonds>
5

>  <HAC>
20

>  <Collection>
General

>  <PPDS>
+

$$$$
F3023-0294
  Mrv2219 10102508112D          

 25 27  0  0  0  0            999 V2000
    4.6402   -6.9459    0.0000 N   0  0  0  0  0  0  0  0  0  0  0  0
    5.1302   -7.6137    0.0000 C   0  0  0  0  0  0  0  0  0  0  0  0
    5.1206   -6.2735    0.0000 C   0  0  0  0  0  0  0  0  0  0  0  0
    5.9132   -7.3543    0.0000 C   0  0  0  0  0  0  0  0  0  0  0  0
    7.3399   -7.4936    0.0000 C   0  0  0  0  0  0  0  0  0  0  0  0
    5.9132   -6.5280    0.0000 C   0  0  0  0  0  0  0  0  0  0  0  0
    8.0028   -7.9739    0.0000 C   0  0  0  0  0  0  0  0  0  0  0  0
    6.5857   -7.8298    0.0000 S   0  0  0  0  0  0  0  0  0  0  0  0
    7.9259   -8.8049    0.0000 C   0  0  0  0  0  0  0  0  0  0  0  0
    3.8093   -6.9508    0.0000 C   0  0  0  0  0  0  0  0  0  0  0  0
    7.4119   -6.6770    0.0000 N   0  0  0  0  0  0  0  0  0  0  0  0
    4.8757   -8.4014    0.0000 O   0  0  0  0  0  0  0  0  0  0  0  0
    4.8612   -5.4905    0.0000 O   0  0  0  0  0  0  0  0  0  0  0  0
    8.5936   -9.2853    0.0000 O   0  0  0  0  0  0  0  0  0  0  0  0
    3.3914   -6.2398    0.0000 C   0  0  0  0  0  0  0  0  0  0  0  0
    7.1669   -9.1412    0.0000 O   0  0  0  0  0  0  0  0  0  0  0  0
    8.7617   -7.6377    0.0000 C   0  0  0  0  0  0  0  0  0  0  0  0
    2.5699   -6.2447    0.0000 C   0  0  0  0  0  0  0  0  0  0  0  0
    8.1613   -6.3311    0.0000 C   0  0  0  0  0  0  0  0  0  0  0  0
    2.1520   -5.5241    0.0000 C   0  0  0  0  0  0  0  0  0  0  0  0
    2.1664   -6.9604    0.0000 C   0  0  0  0  0  0  0  0  0  0  0  0
    8.8386   -6.8163    0.0000 C   0  0  0  0  0  0  0  0  0  0  0  0
    1.3450   -6.9652    0.0000 C   0  0  0  0  0  0  0  0  0  0  0  0
    1.3306   -5.5337    0.0000 C   0  0  0  0  0  0  0  0  0  0  0  0
    0.9223   -6.2447    0.0000 C   0  0  0  0  0  0  0  0  0  0  0  0
  2  1  1  0  0  0  0
  3  1  1  0  0  0  0
  4  2  1  0  0  0  0
  5  8  1  0  0  0  0
  6  3  1  0  0  0  0
  7  5  2  0  0  0  0
  8  4  1  0  0  0  0
  9  7  1  0  0  0  0
 10  1  1  0  0  0  0
 11  5  1  0  0  0  0
 12  2  2  0  0  0  0
 13  3  2  0  0  0  0
 14  9  2  0  0  0  0
 15 10  1  0  0  0  0
 16  9  1  0  0  0  0
 17  7  1  0  0  0  0
 18 15  1  0  0  0  0
 19 11  2  0  0  0  0
 20 18  2  0  0  0  0
 21 18  1  0  0  0  0
 22 19  1  0  0  0  0
 23 21  2  0  0  0  0
 24 20  1  0  0  0  0
 25 23  1  0  0  0  0
  6  4  1  0  0  0  0
 25 24  2  0  0  0  0
 22 17  2  0  0  0  0
M  END
>  <IDNUMBER>
F3023-0294

>  <Chemical_Name>
2-{[2,5-dioxo-1-(2-phenylethyl)pyrrolidin-3-yl]sulfanyl}pyridine-3-carboxylic acid

>  <PriceCoeff>
1.00

>  <CAS>
830344-72-4

>  <MW>
356.40

>  <Description>
solid

>  <FSP3>
0.22

>  <clogP>
2.77

>  <TPSA>
112.87

>  <Acceptor>
5

>  <Donor>
1

>  <RotBonds>
6

>  <HAC>
25

>  <Collection>
General

>  <PPDS>
+

$$$$
F3023-0295
  Mrv2219 10102508112D          

 24 26  0  0  0  0            999 V2000
    8.9600   -6.6552    0.0000 N   0  0  0  0  0  0  0  0  0  0  0  0
    9.4402   -5.9830    0.0000 C   0  0  0  0  0  0  0  0  0  0  0  0
    9.4498   -7.3226    0.0000 C   0  0  0  0  0  0  0  0  0  0  0  0
   10.2325   -7.0634    0.0000 C   0  0  0  0  0  0  0  0  0  0  0  0
   10.2325   -6.2374    0.0000 C   0  0  0  0  0  0  0  0  0  0  0  0
   11.6586   -7.2026    0.0000 C   0  0  0  0  0  0  0  0  0  0  0  0
   12.3212   -7.6828    0.0000 C   0  0  0  0  0  0  0  0  0  0  0  0
   10.9047   -7.5387    0.0000 S   0  0  0  0  0  0  0  0  0  0  0  0
    8.1293   -6.6600    0.0000 C   0  0  0  0  0  0  0  0  0  0  0  0
   12.2444   -8.5134    0.0000 C   0  0  0  0  0  0  0  0  0  0  0  0
   11.7306   -6.3863    0.0000 N   0  0  0  0  0  0  0  0  0  0  0  0
    9.1809   -5.1907    0.0000 O   0  0  0  0  0  0  0  0  0  0  0  0
    9.1953   -8.1101    0.0000 O   0  0  0  0  0  0  0  0  0  0  0  0
   12.9118   -8.9936    0.0000 O   0  0  0  0  0  0  0  0  0  0  0  0
    7.7211   -5.9493    0.0000 C   0  0  0  0  0  0  0  0  0  0  0  0
   11.4857   -8.8496    0.0000 O   0  0  0  0  0  0  0  0  0  0  0  0
   13.0799   -7.3466    0.0000 C   0  0  0  0  0  0  0  0  0  0  0  0
    7.7260   -7.3754    0.0000 C   0  0  0  0  0  0  0  0  0  0  0  0
   12.4797   -6.0406    0.0000 C   0  0  0  0  0  0  0  0  0  0  0  0
    8.1293   -5.2291    0.0000 C   0  0  0  0  0  0  0  0  0  0  0  0
    6.8905   -5.9542    0.0000 C   0  0  0  0  0  0  0  0  0  0  0  0
   13.1567   -6.5255    0.0000 C   0  0  0  0  0  0  0  0  0  0  0  0
    6.9049   -7.3803    0.0000 C   0  0  0  0  0  0  0  0  0  0  0  0
    6.4871   -6.6696    0.0000 C   0  0  0  0  0  0  0  0  0  0  0  0
  2  1  1  0  0  0  0
  3  1  1  0  0  0  0
  4  3  1  0  0  0  0
  5  2  1  0  0  0  0
  6  8  1  0  0  0  0
  7  6  2  0  0  0  0
  8  4  1  0  0  0  0
  9  1  1  0  0  0  0
 10  7  1  0  0  0  0
 11  6  1  0  0  0  0
 12  2  2  0  0  0  0
 13  3  2  0  0  0  0
 14 10  2  0  0  0  0
 15  9  2  0  0  0  0
 16 10  1  0  0  0  0
 17  7  1  0  0  0  0
 18  9  1  0  0  0  0
 19 11  2  0  0  0  0
 20 15  1  0  0  0  0
 21 15  1  0  0  0  0
 22 19  1  0  0  0  0
 23 18  2  0  0  0  0
 24 23  1  0  0  0  0
  5  4  1  0  0  0  0
 24 21  2  0  0  0  0
 22 17  2  0  0  0  0
M  END
>  <IDNUMBER>
F3023-0295

>  <Chemical_Name>
2-{[1-(2-methylphenyl)-2,5-dioxopyrrolidin-3-yl]sulfanyl}pyridine-3-carboxylic acid

>  <PriceCoeff>
1.00

>  <CAS>
830345-10-3

>  <MW>
342.37

>  <Description>
solid

>  <FSP3>
0.18

>  <clogP>
1.61

>  <TPSA>
112.87

>  <Acceptor>
5

>  <Donor>
1

>  <RotBonds>
4

>  <HAC>
24

>  <Collection>
General

>  <PPDS>
+

$$$$
F3023-0298
  Mrv2219 10102508112D          

 26 28  0  0  0  0            999 V2000
    9.7742   -6.6472    0.0000 N   0  0  0  0  0  0  0  0  0  0  0  0
   10.2586   -5.9758    0.0000 C   0  0  0  0  0  0  0  0  0  0  0  0
   10.2634   -7.3139    0.0000 C   0  0  0  0  0  0  0  0  0  0  0  0
   11.0499   -7.0549    0.0000 C   0  0  0  0  0  0  0  0  0  0  0  0
   11.0404   -6.2300    0.0000 C   0  0  0  0  0  0  0  0  0  0  0  0
   12.4648   -7.1940    0.0000 C   0  0  0  0  0  0  0  0  0  0  0  0
   13.1362   -7.6736    0.0000 C   0  0  0  0  0  0  0  0  0  0  0  0
   11.7166   -7.5297    0.0000 S   0  0  0  0  0  0  0  0  0  0  0  0
    8.9493   -6.6520    0.0000 C   0  0  0  0  0  0  0  0  0  0  0  0
   13.0547   -8.5032    0.0000 C   0  0  0  0  0  0  0  0  0  0  0  0
   12.5367   -6.3787    0.0000 N   0  0  0  0  0  0  0  0  0  0  0  0
    9.9996   -5.1845    0.0000 O   0  0  0  0  0  0  0  0  0  0  0  0
   10.0140   -8.1004    0.0000 O   0  0  0  0  0  0  0  0  0  0  0  0
    8.5369   -5.9422    0.0000 C   0  0  0  0  0  0  0  0  0  0  0  0
   13.7165   -8.9829    0.0000 O   0  0  0  0  0  0  0  0  0  0  0  0
   12.3017   -8.8390    0.0000 O   0  0  0  0  0  0  0  0  0  0  0  0
   13.8892   -7.3378    0.0000 C   0  0  0  0  0  0  0  0  0  0  0  0
    8.9397   -5.2228    0.0000 O   0  0  0  0  0  0  0  0  0  0  0  0
    8.5464   -7.3666    0.0000 C   0  0  0  0  0  0  0  0  0  0  0  0
   13.2944   -6.0334    0.0000 C   0  0  0  0  0  0  0  0  0  0  0  0
    7.7119   -5.9470    0.0000 C   0  0  0  0  0  0  0  0  0  0  0  0
    8.5320   -4.5082    0.0000 C   0  0  0  0  0  0  0  0  0  0  0  0
   13.9707   -6.5177    0.0000 C   0  0  0  0  0  0  0  0  0  0  0  0
    7.7263   -7.3714    0.0000 C   0  0  0  0  0  0  0  0  0  0  0  0
    8.9397   -3.7889    0.0000 C   0  0  0  0  0  0  0  0  0  0  0  0
    7.2995   -6.6616    0.0000 C   0  0  0  0  0  0  0  0  0  0  0  0
  2  1  1  0  0  0  0
  3  1  1  0  0  0  0
  4  3  1  0  0  0  0
  5  2  1  0  0  0  0
  6  8  1  0  0  0  0
  7  6  2  0  0  0  0
  8  4  1  0  0  0  0
  9  1  1  0  0  0  0
 10  7  1  0  0  0  0
 11  6  1  0  0  0  0
 12  2  2  0  0  0  0
 13  3  2  0  0  0  0
 14  9  2  0  0  0  0
 15 10  2  0  0  0  0
 16 10  1  0  0  0  0
 17  7  1  0  0  0  0
 18 14  1  0  0  0  0
 19  9  1  0  0  0  0
 20 11  2  0  0  0  0
 21 14  1  0  0  0  0
 22 18  1  0  0  0  0
 23 20  1  0  0  0  0
 24 19  2  0  0  0  0
 25 22  1  0  0  0  0
 26 24  1  0  0  0  0
  5  4  1  0  0  0  0
 26 21  2  0  0  0  0
 23 17  2  0  0  0  0
M  END
>  <IDNUMBER>
F3023-0298

>  <Chemical_Name>
2-{[1-(2-ethoxyphenyl)-2,5-dioxopyrrolidin-3-yl]sulfanyl}pyridine-3-carboxylic acid

>  <PriceCoeff>
1.00

>  <CAS>
831188-53-5

>  <MW>
372.40

>  <Description>
solid

>  <FSP3>
0.22

>  <clogP>
2.13

>  <TPSA>
122.10

>  <Acceptor>
6

>  <Donor>
1

>  <RotBonds>
6

>  <HAC>
26

>  <Collection>
General

>  <PPDS>
+

$$$$
F3023-0301
  Mrv2219 10102508112D          

 28 30  0  0  0  0            999 V2000
    6.9558   -1.9010    0.0000 N   0  0  0  0  0  0  0  0  0  0  0  0
    7.4358   -1.2289    0.0000 C   0  0  0  0  0  0  0  0  0  0  0  0
    7.4454   -2.5682    0.0000 C   0  0  0  0  0  0  0  0  0  0  0  0
    8.2279   -2.3090    0.0000 C   0  0  0  0  0  0  0  0  0  0  0  0
    8.2279   -1.4833    0.0000 C   0  0  0  0  0  0  0  0  0  0  0  0
    9.6536   -2.4482    0.0000 C   0  0  0  0  0  0  0  0  0  0  0  0
   10.3161   -2.9283    0.0000 C   0  0  0  0  0  0  0  0  0  0  0  0
    8.8999   -2.7843    0.0000 S   0  0  0  0  0  0  0  0  0  0  0  0
   10.2392   -3.7587    0.0000 C   0  0  0  0  0  0  0  0  0  0  0  0
    6.1253   -1.9058    0.0000 C   0  0  0  0  0  0  0  0  0  0  0  0
    3.6579   -1.9202    0.0000 C   0  0  0  0  0  0  0  0  0  0  0  0
    9.7256   -1.6322    0.0000 N   0  0  0  0  0  0  0  0  0  0  0  0
    7.1766   -0.4464    0.0000 O   0  0  0  0  0  0  0  0  0  0  0  0
    7.1910   -3.3555    0.0000 O   0  0  0  0  0  0  0  0  0  0  0  0
    4.4836   -1.9154    0.0000 C   0  0  0  0  0  0  0  0  0  0  0  0
   10.9065   -4.2388    0.0000 O   0  0  0  0  0  0  0  0  0  0  0  0
    3.2403   -1.2097    0.0000 O   0  0  0  0  0  0  0  0  0  0  0  0
    5.7173   -1.1953    0.0000 C   0  0  0  0  0  0  0  0  0  0  0  0
    5.7221   -2.6210    0.0000 C   0  0  0  0  0  0  0  0  0  0  0  0
    4.9012   -2.6258    0.0000 C   0  0  0  0  0  0  0  0  0  0  0  0
    4.8868   -1.2001    0.0000 C   0  0  0  0  0  0  0  0  0  0  0  0
    9.4808   -4.0948    0.0000 O   0  0  0  0  0  0  0  0  0  0  0  0
    3.2451   -2.6402    0.0000 O   0  0  0  0  0  0  0  0  0  0  0  0
   11.0745   -2.5922    0.0000 C   0  0  0  0  0  0  0  0  0  0  0  0
   10.4745   -1.2865    0.0000 C   0  0  0  0  0  0  0  0  0  0  0  0
    2.4242   -2.6402    0.0000 C   0  0  0  0  0  0  0  0  0  0  0  0
   11.1513   -1.7713    0.0000 C   0  0  0  0  0  0  0  0  0  0  0  0
    2.0162   -3.3603    0.0000 C   0  0  0  0  0  0  0  0  0  0  0  0
  2  1  1  0  0  0  0
  3  1  1  0  0  0  0
  4  3  1  0  0  0  0
  5  2  1  0  0  0  0
  6  8  1  0  0  0  0
  7  6  2  0  0  0  0
  8  4  1  0  0  0  0
  9  7  1  0  0  0  0
 10  1  1  0  0  0  0
 11 15  1  0  0  0  0
 12  6  1  0  0  0  0
 13  2  2  0  0  0  0
 14  3  2  0  0  0  0
 15 20  1  0  0  0  0
 16  9  2  0  0  0  0
 17 11  2  0  0  0  0
 18 10  2  0  0  0  0
 19 10  1  0  0  0  0
 20 19  2  0  0  0  0
 21 18  1  0  0  0  0
 22  9  1  0  0  0  0
 23 11  1  0  0  0  0
 24  7  1  0  0  0  0
 25 12  2  0  0  0  0
 26 23  1  0  0  0  0
 27 25  1  0  0  0  0
 28 26  1  0  0  0  0
  5  4  1  0  0  0  0
 15 21  2  0  0  0  0
 27 24  2  0  0  0  0
M  END
>  <IDNUMBER>
F3023-0301

>  <Chemical_Name>
2-({1-[4-(ethoxycarbonyl)phenyl]-2,5-dioxopyrrolidin-3-yl}sulfanyl)pyridine-3-carboxylic acid

>  <PriceCoeff>
1.00

>  <CAS>
831206-98-5

>  <MW>
400.41

>  <Description>
solid

>  <FSP3>
0.21

>  <clogP>
2.52

>  <TPSA>
139.17

>  <Acceptor>
7

>  <Donor>
1

>  <RotBonds>
7

>  <HAC>
28

>  <Collection>
General

>  <PPDS>
+

$$$$
F3023-0302
  Mrv2219 10102508112D          

 24 26  0  0  0  0            999 V2000
   10.2028   -6.6577    0.0000 N   0  0  0  0  0  0  0  0  0  0  0  0
   10.6832   -5.9853    0.0000 C   0  0  0  0  0  0  0  0  0  0  0  0
   10.6927   -7.3255    0.0000 C   0  0  0  0  0  0  0  0  0  0  0  0
   11.4757   -7.0661    0.0000 C   0  0  0  0  0  0  0  0  0  0  0  0
   11.4757   -6.2398    0.0000 C   0  0  0  0  0  0  0  0  0  0  0  0
   12.9024   -7.2053    0.0000 C   0  0  0  0  0  0  0  0  0  0  0  0
   13.5653   -7.6857    0.0000 C   0  0  0  0  0  0  0  0  0  0  0  0
   12.1482   -7.5416    0.0000 S   0  0  0  0  0  0  0  0  0  0  0  0
   13.4884   -8.5167    0.0000 C   0  0  0  0  0  0  0  0  0  0  0  0
    9.3718   -6.6626    0.0000 C   0  0  0  0  0  0  0  0  0  0  0  0
   12.9745   -6.3888    0.0000 N   0  0  0  0  0  0  0  0  0  0  0  0
   10.4238   -5.1927    0.0000 O   0  0  0  0  0  0  0  0  0  0  0  0
   10.4382   -8.1132    0.0000 O   0  0  0  0  0  0  0  0  0  0  0  0
   14.1561   -8.9971    0.0000 O   0  0  0  0  0  0  0  0  0  0  0  0
    8.9634   -5.9516    0.0000 C   0  0  0  0  0  0  0  0  0  0  0  0
    8.9683   -7.3783    0.0000 C   0  0  0  0  0  0  0  0  0  0  0  0
   12.7295   -8.8530    0.0000 O   0  0  0  0  0  0  0  0  0  0  0  0
    7.7290   -6.6721    0.0000 C   0  0  0  0  0  0  0  0  0  0  0  0
    8.1469   -7.3831    0.0000 C   0  0  0  0  0  0  0  0  0  0  0  0
    8.1325   -5.9565    0.0000 C   0  0  0  0  0  0  0  0  0  0  0  0
   14.3242   -7.3494    0.0000 C   0  0  0  0  0  0  0  0  0  0  0  0
    6.9027   -6.6770    0.0000 O   0  0  0  0  0  0  0  0  0  0  0  0
   13.7238   -6.0429    0.0000 C   0  0  0  0  0  0  0  0  0  0  0  0
   14.4011   -6.5280    0.0000 C   0  0  0  0  0  0  0  0  0  0  0  0
  2  1  1  0  0  0  0
  3  1  1  0  0  0  0
  4  3  1  0  0  0  0
  5  2  1  0  0  0  0
  6  8  1  0  0  0  0
  7  6  2  0  0  0  0
  8  4  1  0  0  0  0
  9  7  1  0  0  0  0
 10  1  1  0  0  0  0
 11  6  1  0  0  0  0
 12  2  2  0  0  0  0
 13  3  2  0  0  0  0
 14  9  2  0  0  0  0
 15 10  2  0  0  0  0
 16 10  1  0  0  0  0
 17  9  1  0  0  0  0
 18 19  1  0  0  0  0
 19 16  2  0  0  0  0
 20 15  1  0  0  0  0
 21  7  1  0  0  0  0
 22 18  1  0  0  0  0
 23 11  2  0  0  0  0
 24 23  1  0  0  0  0
  5  4  1  0  0  0  0
 18 20  2  0  0  0  0
 24 21  2  0  0  0  0
M  END
>  <IDNUMBER>
F3023-0302

>  <Chemical_Name>
2-{[1-(4-hydroxyphenyl)-2,5-dioxopyrrolidin-3-yl]sulfanyl}pyridine-3-carboxylic acid

>  <PriceCoeff>
1.00

>  <CAS>
924873-64-3

>  <MW>
344.34

>  <Description>
solid

>  <FSP3>
0.12

>  <clogP>
0.84

>  <TPSA>
133.10

>  <Acceptor>
6

>  <Donor>
2

>  <RotBonds>
4

>  <HAC>
24

>  <Collection>
General

>  <PPDS>
+

$$$$
F3023-0304
  Mrv2219 10102508112D          

 29 31  0  0  0  0            999 V2000
   10.2028   -6.6577    0.0000 N   0  0  0  0  0  0  0  0  0  0  0  0
    8.9971   -5.9516    0.0000 C   0  0  0  0  0  0  0  0  0  0  0  0
   10.6832   -5.9853    0.0000 C   0  0  0  0  0  0  0  0  0  0  0  0
    9.3718   -6.6626    0.0000 C   0  0  0  0  0  0  0  0  0  0  0  0
   10.6927   -7.3255    0.0000 C   0  0  0  0  0  0  0  0  0  0  0  0
    9.0403   -5.2215    0.0000 N   0  3  0  0  0  0  0  0  0  0  0  0
   11.4757   -7.0661    0.0000 C   0  0  0  0  0  0  0  0  0  0  0  0
   11.4757   -6.2398    0.0000 C   0  0  0  0  0  0  0  0  0  0  0  0
   12.9024   -7.2053    0.0000 C   0  0  0  0  0  0  0  0  0  0  0  0
   13.5653   -7.6857    0.0000 C   0  0  0  0  0  0  0  0  0  0  0  0
   12.1482   -7.5416    0.0000 S   0  0  0  0  0  0  0  0  0  0  0  0
   13.4884   -8.5167    0.0000 C   0  0  0  0  0  0  0  0  0  0  0  0
    8.1325   -5.9565    0.0000 C   0  0  0  0  0  0  0  0  0  0  0  0
    8.9683   -7.3783    0.0000 C   0  0  0  0  0  0  0  0  0  0  0  0
   12.9745   -6.3888    0.0000 N   0  0  0  0  0  0  0  0  0  0  0  0
    9.7320   -5.2215    0.0000 O   0  5  0  0  0  0  0  0  0  0  0  0
   10.4238   -5.1927    0.0000 O   0  0  0  0  0  0  0  0  0  0  0  0
    8.6896   -4.5154    0.0000 O   0  0  0  0  0  0  0  0  0  0  0  0
   10.4382   -8.1132    0.0000 O   0  0  0  0  0  0  0  0  0  0  0  0
   14.1561   -8.9971    0.0000 O   0  0  0  0  0  0  0  0  0  0  0  0
    7.7290   -6.6721    0.0000 C   0  0  0  0  0  0  0  0  0  0  0  0
    8.1469   -7.3831    0.0000 C   0  0  0  0  0  0  0  0  0  0  0  0
   12.7295   -8.8530    0.0000 O   0  0  0  0  0  0  0  0  0  0  0  0
   14.3242   -7.3494    0.0000 C   0  0  0  0  0  0  0  0  0  0  0  0
    6.9027   -6.6770    0.0000 O   0  0  0  0  0  0  0  0  0  0  0  0
   13.7238   -6.0429    0.0000 C   0  0  0  0  0  0  0  0  0  0  0  0
    6.4848   -5.9660    0.0000 C   0  0  0  0  0  0  0  0  0  0  0  0
   14.4011   -6.5280    0.0000 C   0  0  0  0  0  0  0  0  0  0  0  0
    5.6538   -5.9709    0.0000 C   0  0  0  0  0  0  0  0  0  0  0  0
  2  4  2  0  0  0  0
  3  1  1  0  0  0  0
  4  1  1  0  0  0  0
  5  1  1  0  0  0  0
  6  2  1  0  0  0  0
  7  5  1  0  0  0  0
  8  3  1  0  0  0  0
  9 11  1  0  0  0  0
 10  9  2  0  0  0  0
 11  7  1  0  0  0  0
 12 10  1  0  0  0  0
 13  2  1  0  0  0  0
 14  4  1  0  0  0  0
 15  9  1  0  0  0  0
 16  6  1  0  0  0  0
 17  3  2  0  0  0  0
 18  6  2  0  0  0  0
 19  5  2  0  0  0  0
 20 12  2  0  0  0  0
 21 22  1  0  0  0  0
 22 14  2  0  0  0  0
 23 12  1  0  0  0  0
 24 10  1  0  0  0  0
 25 21  1  0  0  0  0
 26 15  2  0  0  0  0
 27 25  1  0  0  0  0
 28 26  1  0  0  0  0
 29 27  1  0  0  0  0
  8  7  1  0  0  0  0
 21 13  2  0  0  0  0
 28 24  2  0  0  0  0
M  CHG  2   6   1  16  -1
M  END
>  <IDNUMBER>
F3023-0304

>  <Chemical_Name>
2-{[1-(4-ethoxy-2-nitrophenyl)-2,5-dioxopyrrolidin-3-yl]sulfanyl}pyridine-3-carboxylic acid

>  <PriceCoeff>
1.00

>  <CAS>
500201-80-9

>  <MW>
417.39

>  <Description>
solid

>  <FSP3>
0.22

>  <clogP>
2.45

>  <TPSA>
165.24

>  <Acceptor>
8

>  <Donor>
1

>  <RotBonds>
7

>  <HAC>
29

>  <Collection>
General

>  <PPDS>
+

$$$$
F3023-0308
  Mrv2219 10102508112D          

 27 29  0  0  0  0            999 V2000
   10.1997   -6.6558    0.0000 N   0  0  0  0  0  0  0  0  0  0  0  0
    8.9608   -5.9498    0.0000 C   0  0  0  0  0  0  0  0  0  0  0  0
   10.6799   -5.9835    0.0000 C   0  0  0  0  0  0  0  0  0  0  0  0
    9.3690   -6.6606    0.0000 C   0  0  0  0  0  0  0  0  0  0  0  0
   10.6895   -7.3232    0.0000 C   0  0  0  0  0  0  0  0  0  0  0  0
    8.9512   -5.1191    0.0000 N   0  3  0  0  0  0  0  0  0  0  0  0
   11.4723   -7.0640    0.0000 C   0  0  0  0  0  0  0  0  0  0  0  0
   11.4723   -6.2379    0.0000 C   0  0  0  0  0  0  0  0  0  0  0  0
   12.8985   -7.2032    0.0000 C   0  0  0  0  0  0  0  0  0  0  0  0
   13.5613   -7.6835    0.0000 C   0  0  0  0  0  0  0  0  0  0  0  0
   12.1445   -7.5393    0.0000 S   0  0  0  0  0  0  0  0  0  0  0  0
   13.4843   -8.5141    0.0000 C   0  0  0  0  0  0  0  0  0  0  0  0
    8.1300   -5.9547    0.0000 C   0  0  0  0  0  0  0  0  0  0  0  0
    8.9656   -7.3760    0.0000 C   0  0  0  0  0  0  0  0  0  0  0  0
   12.9706   -6.3868    0.0000 N   0  0  0  0  0  0  0  0  0  0  0  0
    9.6666   -4.7013    0.0000 O   0  5  0  0  0  0  0  0  0  0  0  0
   10.4206   -5.1911    0.0000 O   0  0  0  0  0  0  0  0  0  0  0  0
    8.2309   -4.7157    0.0000 O   0  0  0  0  0  0  0  0  0  0  0  0
   10.4351   -8.1108    0.0000 O   0  0  0  0  0  0  0  0  0  0  0  0
   14.1519   -8.9944    0.0000 O   0  0  0  0  0  0  0  0  0  0  0  0
    7.7267   -6.6702    0.0000 C   0  0  0  0  0  0  0  0  0  0  0  0
    8.1444   -7.3809    0.0000 C   0  0  0  0  0  0  0  0  0  0  0  0
   12.7257   -8.8504    0.0000 O   0  0  0  0  0  0  0  0  0  0  0  0
    6.9007   -6.6750    0.0000 Cl  0  0  0  0  0  0  0  0  0  0  0  0
   14.3199   -7.3472    0.0000 C   0  0  0  0  0  0  0  0  0  0  0  0
   13.7197   -6.0411    0.0000 C   0  0  0  0  0  0  0  0  0  0  0  0
   14.3968   -6.5261    0.0000 C   0  0  0  0  0  0  0  0  0  0  0  0
  2  4  2  0  0  0  0
  3  1  1  0  0  0  0
  4  1  1  0  0  0  0
  5  1  1  0  0  0  0
  6  2  1  0  0  0  0
  7  5  1  0  0  0  0
  8  3  1  0  0  0  0
  9 11  1  0  0  0  0
 10  9  2  0  0  0  0
 11  7  1  0  0  0  0
 12 10  1  0  0  0  0
 13  2  1  0  0  0  0
 14  4  1  0  0  0  0
 15  9  1  0  0  0  0
 16  6  1  0  0  0  0
 17  3  2  0  0  0  0
 18  6  2  0  0  0  0
 19  5  2  0  0  0  0
 20 12  2  0  0  0  0
 21 22  1  0  0  0  0
 22 14  2  0  0  0  0
 23 12  1  0  0  0  0
 24 21  1  0  0  0  0
 25 10  1  0  0  0  0
 26 15  2  0  0  0  0
 27 26  1  0  0  0  0
  8  7  1  0  0  0  0
 21 13  2  0  0  0  0
 27 25  2  0  0  0  0
M  CHG  2   6   1  16  -1
M  END
>  <IDNUMBER>
F3023-0308

>  <Chemical_Name>
2-{[1-(4-chloro-2-nitrophenyl)-2,5-dioxopyrrolidin-3-yl]sulfanyl}pyridine-3-carboxylic acid

>  <PriceCoeff>
1.00

>  <CAS>
831177-63-0

>  <MW>
407.79

>  <Description>
solid

>  <FSP3>
0.12

>  <clogP>
2.66

>  <TPSA>
156.01

>  <Acceptor>
7

>  <Donor>
1

>  <RotBonds>
5

>  <HAC>
27

>  <Collection>
General

>  <PPDS>
+

$$$$
F3023-0378
  Mrv2219 10102508112D          

 20 21  0  0  0  0            999 V2000
   14.0313   -6.7231    0.0000 N   0  0  0  0  0  0  0  0  0  0  0  0
   13.5421   -7.3944    0.0000 C   0  0  0  0  0  0  0  0  0  0  0  0
   13.5517   -6.0565    0.0000 C   0  0  0  0  0  0  0  0  0  0  0  0
   12.7605   -7.1259    0.0000 C   0  0  0  0  0  0  0  0  0  0  0  0
   12.7653   -6.3059    0.0000 C   0  0  0  0  0  0  0  0  0  0  0  0
   12.0891   -7.6151    0.0000 N   0  0  0  0  0  0  0  0  0  0  0  0
   13.7963   -8.1761    0.0000 O   0  0  0  0  0  0  0  0  0  0  0  0
   13.8106   -5.2701    0.0000 O   0  0  0  0  0  0  0  0  0  0  0  0
   11.3411   -7.2698    0.0000 C   0  0  0  0  0  0  0  0  0  0  0  0
   14.8608   -6.7327    0.0000 C   0  0  0  0  0  0  0  0  0  0  0  0
    9.8449   -6.5937    0.0000 C   0  0  0  0  0  0  0  0  0  0  0  0
   11.2643   -6.4498    0.0000 C   0  0  0  0  0  0  0  0  0  0  0  0
   10.6793   -7.7541    0.0000 C   0  0  0  0  0  0  0  0  0  0  0  0
    9.9264   -7.4137    0.0000 C   0  0  0  0  0  0  0  0  0  0  0  0
   10.5162   -6.1141    0.0000 C   0  0  0  0  0  0  0  0  0  0  0  0
    9.0920   -6.2484    0.0000 C   0  0  0  0  0  0  0  0  0  0  0  0
   15.2685   -7.4424    0.0000 C   0  0  0  0  0  0  0  0  0  0  0  0
   16.0885   -7.4520    0.0000 C   0  0  0  0  0  0  0  0  0  0  0  0
    8.4207   -6.7375    0.0000 C   0  0  0  0  0  0  0  0  0  0  0  0
   16.5008   -8.1713    0.0000 C   0  0  0  0  0  0  0  0  0  0  0  0
  2  1  1  0  0  0  0
  3  1  1  0  0  0  0
  4  2  1  0  0  0  0
  5  3  1  0  0  0  0
  6  4  1  0  0  0  0
  7  2  2  0  0  0  0
  8  3  2  0  0  0  0
  9  6  1  0  0  0  0
 10  1  1  0  0  0  0
 11 14  1  0  0  0  0
 12  9  2  0  0  0  0
 13  9  1  0  0  0  0
 14 13  2  0  0  0  0
 15 12  1  0  0  0  0
 16 11  1  0  0  0  0
 17 10  1  0  0  0  0
 18 17  1  0  0  0  0
 19 16  1  0  0  0  0
 20 18  1  0  0  0  0
  4  5  1  0  0  0  0
 11 15  2  0  0  0  0
M  END
>  <IDNUMBER>
F3023-0378

>  <Chemical_Name>
1-butyl-3-[(4-ethylphenyl)amino]pyrrolidine-2,5-dione

>  <PriceCoeff>
1.00

>  <CAS>
1008036-41-6

>  <MW>
274.36

>  <Description>
solid

>  <FSP3>
0.50

>  <clogP>
4.27

>  <TPSA>
49.41

>  <Acceptor>
3

>  <Donor>
1

>  <RotBonds>
6

>  <HAC>
20

>  <Collection>
General

>  <PPDS>
+

$$$$
F3023-0379
  Mrv2219 10102508112D          

 22 24  0  0  0  0            999 V2000
   13.0335   -7.0878    0.0000 N   0  0  0  0  0  0  0  0  0  0  0  0
   12.5441   -6.4208    0.0000 C   0  0  0  0  0  0  0  0  0  0  0  0
   12.5441   -7.7596    0.0000 C   0  0  0  0  0  0  0  0  0  0  0  0
   11.7523   -7.4909    0.0000 C   0  0  0  0  0  0  0  0  0  0  0  0
   11.7667   -6.6703    0.0000 C   0  0  0  0  0  0  0  0  0  0  0  0
   11.0900   -7.9804    0.0000 N   0  0  0  0  0  0  0  0  0  0  0  0
   13.8637   -7.0974    0.0000 C   0  0  0  0  0  0  0  0  0  0  0  0
   12.8128   -5.6338    0.0000 O   0  0  0  0  0  0  0  0  0  0  0  0
   12.7984   -8.5419    0.0000 O   0  0  0  0  0  0  0  0  0  0  0  0
   10.3414   -7.6349    0.0000 C   0  0  0  0  0  0  0  0  0  0  0  0
    8.8442   -6.9583    0.0000 C   0  0  0  0  0  0  0  0  0  0  0  0
   10.2646   -6.8143    0.0000 C   0  0  0  0  0  0  0  0  0  0  0  0
    9.6792   -8.1195    0.0000 C   0  0  0  0  0  0  0  0  0  0  0  0
    8.9257   -7.7789    0.0000 C   0  0  0  0  0  0  0  0  0  0  0  0
    9.5160   -6.4784    0.0000 C   0  0  0  0  0  0  0  0  0  0  0  0
   14.2668   -7.8172    0.0000 C   0  0  0  0  0  0  0  0  0  0  0  0
   14.2716   -6.3824    0.0000 C   0  0  0  0  0  0  0  0  0  0  0  0
    8.0907   -6.6128    0.0000 C   0  0  0  0  0  0  0  0  0  0  0  0
    7.4190   -7.1022    0.0000 C   0  0  0  0  0  0  0  0  0  0  0  0
   15.0922   -6.3824    0.0000 C   0  0  0  0  0  0  0  0  0  0  0  0
   15.0922   -7.8221    0.0000 C   0  0  0  0  0  0  0  0  0  0  0  0
   15.5097   -7.1022    0.0000 C   0  0  0  0  0  0  0  0  0  0  0  0
  2  1  1  0  0  0  0
  3  1  1  0  0  0  0
  4  3  1  0  0  0  0
  5  2  1  0  0  0  0
  6  4  1  0  0  0  0
  7  1  1  0  0  0  0
  8  2  2  0  0  0  0
  9  3  2  0  0  0  0
 10  6  1  0  0  0  0
 11 14  1  0  0  0  0
 12 10  2  0  0  0  0
 13 10  1  0  0  0  0
 14 13  2  0  0  0  0
 15 12  1  0  0  0  0
 16  7  2  0  0  0  0
 17  7  1  0  0  0  0
 18 11  1  0  0  0  0
 19 18  1  0  0  0  0
 20 17  2  0  0  0  0
 21 16  1  0  0  0  0
 22 20  1  0  0  0  0
  4  5  1  0  0  0  0
 22 21  2  0  0  0  0
 11 15  2  0  0  0  0
M  END
>  <IDNUMBER>
F3023-0379

>  <Chemical_Name>
3-[(4-ethylphenyl)amino]-1-phenylpyrrolidine-2,5-dione

>  <PriceCoeff>
1.00

>  <CAS>
1008061-39-9

>  <MW>
294.35

>  <Description>
solid

>  <FSP3>
0.22

>  <clogP>
3.51

>  <TPSA>
49.41

>  <Acceptor>
3

>  <Donor>
1

>  <RotBonds>
4

>  <HAC>
22

>  <Collection>
General

>  <PPDS>
+

$$$$
F3023-0381
  Mrv2219 10102508112D          

 28 30  0  0  0  0            999 V2000
   13.0268   -7.0842    0.0000 N   0  0  0  0  0  0  0  0  0  0  0  0
   12.5375   -7.7556    0.0000 C   0  0  0  0  0  0  0  0  0  0  0  0
   12.5375   -6.4174    0.0000 C   0  0  0  0  0  0  0  0  0  0  0  0
   11.7461   -7.4870    0.0000 C   0  0  0  0  0  0  0  0  0  0  0  0
   11.7605   -6.6669    0.0000 C   0  0  0  0  0  0  0  0  0  0  0  0
   13.8565   -7.0937    0.0000 C   0  0  0  0  0  0  0  0  0  0  0  0
   11.0843   -7.9763    0.0000 N   0  0  0  0  0  0  0  0  0  0  0  0
   16.3218   -7.0985    0.0000 C   0  0  0  0  0  0  0  0  0  0  0  0
   12.7917   -8.5374    0.0000 O   0  0  0  0  0  0  0  0  0  0  0  0
   12.8061   -5.6309    0.0000 O   0  0  0  0  0  0  0  0  0  0  0  0
   16.7343   -7.8180    0.0000 C   0  0  0  0  0  0  0  0  0  0  0  0
   15.4968   -7.0985    0.0000 C   0  0  0  0  0  0  0  0  0  0  0  0
   10.3360   -7.6309    0.0000 C   0  0  0  0  0  0  0  0  0  0  0  0
   16.3170   -8.5374    0.0000 C   0  0  0  0  0  0  0  0  0  0  0  0
   15.0844   -7.8132    0.0000 C   0  0  0  0  0  0  0  0  0  0  0  0
   14.2642   -7.8036    0.0000 C   0  0  0  0  0  0  0  0  0  0  0  0
   15.4873   -8.5326    0.0000 C   0  0  0  0  0  0  0  0  0  0  0  0
   16.7343   -6.3935    0.0000 O   0  0  0  0  0  0  0  0  0  0  0  0
    8.8396   -6.9547    0.0000 C   0  0  0  0  0  0  0  0  0  0  0  0
   10.2593   -6.8108    0.0000 C   0  0  0  0  0  0  0  0  0  0  0  0
    9.6742   -8.1153    0.0000 C   0  0  0  0  0  0  0  0  0  0  0  0
   17.5593   -7.8275    0.0000 O   0  0  0  0  0  0  0  0  0  0  0  0
    9.5110   -6.4750    0.0000 C   0  0  0  0  0  0  0  0  0  0  0  0
    8.9211   -7.7748    0.0000 C   0  0  0  0  0  0  0  0  0  0  0  0
    8.0865   -6.6093    0.0000 C   0  0  0  0  0  0  0  0  0  0  0  0
   17.5593   -6.3935    0.0000 C   0  0  0  0  0  0  0  0  0  0  0  0
   17.9621   -8.5374    0.0000 C   0  0  0  0  0  0  0  0  0  0  0  0
    7.4151   -7.0985    0.0000 C   0  0  0  0  0  0  0  0  0  0  0  0
  2  1  1  0  0  0  0
  3  1  1  0  0  0  0
  4  2  1  0  0  0  0
  5  3  1  0  0  0  0
  6  1  1  0  0  0  0
  7  4  1  0  0  0  0
  8 12  2  0  0  0  0
  9  2  2  0  0  0  0
 10  3  2  0  0  0  0
 11 14  2  0  0  0  0
 12 15  1  0  0  0  0
 13  7  1  0  0  0  0
 14 17  1  0  0  0  0
 15 16  1  0  0  0  0
 16  6  1  0  0  0  0
 17 15  2  0  0  0  0
 18  8  1  0  0  0  0
 19 24  1  0  0  0  0
 20 13  2  0  0  0  0
 21 13  1  0  0  0  0
 22 11  1  0  0  0  0
 23 20  1  0  0  0  0
 24 21  2  0  0  0  0
 25 19  1  0  0  0  0
 26 18  1  0  0  0  0
 27 22  1  0  0  0  0
 28 25  1  0  0  0  0
  4  5  1  0  0  0  0
 11  8  1  0  0  0  0
 19 23  2  0  0  0  0
M  END
>  <IDNUMBER>
F3023-0381

>  <Chemical_Name>
1-[2-(3,4-dimethoxyphenyl)ethyl]-3-[(4-ethylphenyl)amino]pyrrolidine-2,5-dione

>  <PriceCoeff>
1.00

>  <CAS>
1008185-96-3

>  <MW>
382.45

>  <Description>
solid

>  <FSP3>
0.36

>  <clogP>
4.44

>  <TPSA>
67.87

>  <Acceptor>
5

>  <Donor>
1

>  <RotBonds>
8

>  <HAC>
28

>  <Collection>
General

>  <PPDS>
+

$$$$
F3023-0383
  Mrv2219 10102508112D          

 23 25  0  0  0  0            999 V2000
    5.5282   -5.2883    0.0000 N   0  0  0  0  0  0  0  0  0  0  0  0
    5.0436   -4.6117    0.0000 C   0  0  0  0  0  0  0  0  0  0  0  0
    5.0387   -5.9601    0.0000 C   0  0  0  0  0  0  0  0  0  0  0  0
    4.2518   -5.6914    0.0000 C   0  0  0  0  0  0  0  0  0  0  0  0
    4.2518   -4.8708    0.0000 C   0  0  0  0  0  0  0  0  0  0  0  0
    6.3536   -5.2979    0.0000 C   0  0  0  0  0  0  0  0  0  0  0  0
    3.5847   -6.1809    0.0000 N   0  0  0  0  0  0  0  0  0  0  0  0
    5.3027   -3.8343    0.0000 O   0  0  0  0  0  0  0  0  0  0  0  0
    5.2883   -6.7423    0.0000 O   0  0  0  0  0  0  0  0  0  0  0  0
    6.7567   -4.5829    0.0000 C   0  0  0  0  0  0  0  0  0  0  0  0
    2.8265   -5.8354    0.0000 C   0  0  0  0  0  0  0  0  0  0  0  0
    6.3536   -3.8726    0.0000 Cl  0  0  0  0  0  0  0  0  0  0  0  0
    1.3293   -5.1587    0.0000 C   0  0  0  0  0  0  0  0  0  0  0  0
    2.7545   -5.0148    0.0000 C   0  0  0  0  0  0  0  0  0  0  0  0
    2.1643   -6.3200    0.0000 C   0  0  0  0  0  0  0  0  0  0  0  0
    1.4157   -5.9793    0.0000 C   0  0  0  0  0  0  0  0  0  0  0  0
    2.0059   -4.6788    0.0000 C   0  0  0  0  0  0  0  0  0  0  0  0
    6.7567   -6.0177    0.0000 C   0  0  0  0  0  0  0  0  0  0  0  0
    7.5869   -4.5829    0.0000 C   0  0  0  0  0  0  0  0  0  0  0  0
    0.5807   -4.8132    0.0000 C   0  0  0  0  0  0  0  0  0  0  0  0
    7.5773   -6.0225    0.0000 C   0  0  0  0  0  0  0  0  0  0  0  0
   -0.0959   -5.3027    0.0000 C   0  0  0  0  0  0  0  0  0  0  0  0
    7.9948   -5.3027    0.0000 C   0  0  0  0  0  0  0  0  0  0  0  0
  2  1  1  0  0  0  0
  3  1  1  0  0  0  0
  4  3  1  0  0  0  0
  5  2  1  0  0  0  0
  6  1  1  0  0  0  0
  7  4  1  0  0  0  0
  8  2  2  0  0  0  0
  9  3  2  0  0  0  0
 10  6  1  0  0  0  0
 11  7  1  0  0  0  0
 12 10  1  0  0  0  0
 13 16  1  0  0  0  0
 14 11  2  0  0  0  0
 15 11  1  0  0  0  0
 16 15  2  0  0  0  0
 17 14  1  0  0  0  0
 18  6  2  0  0  0  0
 19 10  2  0  0  0  0
 20 13  1  0  0  0  0
 21 18  1  0  0  0  0
 22 20  1  0  0  0  0
 23 21  2  0  0  0  0
  4  5  1  0  0  0  0
 23 19  1  0  0  0  0
 13 17  2  0  0  0  0
M  END
>  <IDNUMBER>
F3023-0383

>  <Chemical_Name>
1-(2-chlorophenyl)-3-[(4-ethylphenyl)amino]pyrrolidine-2,5-dione

>  <PriceCoeff>
1.00

>  <CAS>
1008036-47-2

>  <MW>
328.79

>  <Description>
solid

>  <FSP3>
0.22

>  <clogP>
4.11

>  <TPSA>
49.41

>  <Acceptor>
3

>  <Donor>
1

>  <RotBonds>
4

>  <HAC>
23

>  <Collection>
General

>  <PPDS>
+

$$$$
F3023-0384
  Mrv2219 10102508112D          

 25 27  0  0  0  0            999 V2000
   12.2064   -7.0840    0.0000 N   0  0  0  0  0  0  0  0  0  0  0  0
   11.7267   -6.4173    0.0000 C   0  0  0  0  0  0  0  0  0  0  0  0
   11.7172   -7.7555    0.0000 C   0  0  0  0  0  0  0  0  0  0  0  0
   10.9354   -7.4869    0.0000 C   0  0  0  0  0  0  0  0  0  0  0  0
   10.9402   -6.6668    0.0000 C   0  0  0  0  0  0  0  0  0  0  0  0
   13.0361   -7.0936    0.0000 C   0  0  0  0  0  0  0  0  0  0  0  0
   10.2639   -7.9761    0.0000 N   0  0  0  0  0  0  0  0  0  0  0  0
   11.9857   -5.6308    0.0000 O   0  0  0  0  0  0  0  0  0  0  0  0
   11.9618   -8.5373    0.0000 O   0  0  0  0  0  0  0  0  0  0  0  0
   13.4438   -6.3790    0.0000 C   0  0  0  0  0  0  0  0  0  0  0  0
    9.5157   -7.6308    0.0000 C   0  0  0  0  0  0  0  0  0  0  0  0
    8.0193   -6.9545    0.0000 C   0  0  0  0  0  0  0  0  0  0  0  0
    8.8538   -8.1152    0.0000 C   0  0  0  0  0  0  0  0  0  0  0  0
    9.4389   -6.8107    0.0000 C   0  0  0  0  0  0  0  0  0  0  0  0
   13.0361   -5.6691    0.0000 O   0  0  0  0  0  0  0  0  0  0  0  0
    8.1008   -7.7747    0.0000 C   0  0  0  0  0  0  0  0  0  0  0  0
    8.6907   -6.4749    0.0000 C   0  0  0  0  0  0  0  0  0  0  0  0
   13.4390   -7.8130    0.0000 C   0  0  0  0  0  0  0  0  0  0  0  0
   14.2640   -6.3790    0.0000 C   0  0  0  0  0  0  0  0  0  0  0  0
    7.2663   -6.6092    0.0000 C   0  0  0  0  0  0  0  0  0  0  0  0
   13.4438   -4.9545    0.0000 C   0  0  0  0  0  0  0  0  0  0  0  0
   14.2640   -7.8179    0.0000 C   0  0  0  0  0  0  0  0  0  0  0  0
    6.5948   -7.0984    0.0000 C   0  0  0  0  0  0  0  0  0  0  0  0
   13.0361   -4.2351    0.0000 C   0  0  0  0  0  0  0  0  0  0  0  0
   14.6812   -7.0984    0.0000 C   0  0  0  0  0  0  0  0  0  0  0  0
  2  1  1  0  0  0  0
  3  1  1  0  0  0  0
  4  3  1  0  0  0  0
  5  2  1  0  0  0  0
  6  1  1  0  0  0  0
  7  4  1  0  0  0  0
  8  2  2  0  0  0  0
  9  3  2  0  0  0  0
 10  6  1  0  0  0  0
 11  7  1  0  0  0  0
 12 17  2  0  0  0  0
 13 11  1  0  0  0  0
 14 11  2  0  0  0  0
 15 10  1  0  0  0  0
 16 13  2  0  0  0  0
 17 14  1  0  0  0  0
 18  6  2  0  0  0  0
 19 10  2  0  0  0  0
 20 12  1  0  0  0  0
 21 15  1  0  0  0  0
 22 18  1  0  0  0  0
 23 20  1  0  0  0  0
 24 21  1  0  0  0  0
 25 22  2  0  0  0  0
  4  5  1  0  0  0  0
 25 19  1  0  0  0  0
 16 12  1  0  0  0  0
M  END
>  <IDNUMBER>
F3023-0384

>  <Chemical_Name>
1-(2-ethoxyphenyl)-3-[(4-ethylphenyl)amino]pyrrolidine-2,5-dione

>  <PriceCoeff>
1.00

>  <CAS>
1008666-79-2

>  <MW>
338.40

>  <Description>
solid

>  <FSP3>
0.30

>  <clogP>
4.13

>  <TPSA>
58.64

>  <Acceptor>
4

>  <Donor>
1

>  <RotBonds>
6

>  <HAC>
25

>  <Collection>
General

$$$$
F3023-0390
  Mrv2219 10102508112D          

 24 26  0  0  0  0            999 V2000
   11.8050   -7.0878    0.0000 N   0  0  0  0  0  0  0  0  0  0  0  0
   11.3204   -6.4208    0.0000 C   0  0  0  0  0  0  0  0  0  0  0  0
   11.3155   -7.7596    0.0000 C   0  0  0  0  0  0  0  0  0  0  0  0
   10.5286   -7.4909    0.0000 C   0  0  0  0  0  0  0  0  0  0  0  0
   10.5286   -6.6703    0.0000 C   0  0  0  0  0  0  0  0  0  0  0  0
    9.8615   -7.9804    0.0000 N   0  0  0  0  0  0  0  0  0  0  0  0
   12.6304   -7.0974    0.0000 C   0  0  0  0  0  0  0  0  0  0  0  0
   11.5795   -5.6338    0.0000 O   0  0  0  0  0  0  0  0  0  0  0  0
   11.5651   -8.5419    0.0000 O   0  0  0  0  0  0  0  0  0  0  0  0
   13.0335   -7.8172    0.0000 C   0  0  0  0  0  0  0  0  0  0  0  0
   13.0335   -6.3824    0.0000 C   0  0  0  0  0  0  0  0  0  0  0  0
    9.1033   -7.6349    0.0000 C   0  0  0  0  0  0  0  0  0  0  0  0
   14.2716   -7.1022    0.0000 C   0  0  0  0  0  0  0  0  0  0  0  0
   13.8637   -6.3824    0.0000 C   0  0  0  0  0  0  0  0  0  0  0  0
   13.8541   -7.8221    0.0000 C   0  0  0  0  0  0  0  0  0  0  0  0
    7.6061   -6.9583    0.0000 C   0  0  0  0  0  0  0  0  0  0  0  0
    8.4411   -8.1195    0.0000 C   0  0  0  0  0  0  0  0  0  0  0  0
    9.0313   -6.8143    0.0000 C   0  0  0  0  0  0  0  0  0  0  0  0
    8.2827   -6.4784    0.0000 C   0  0  0  0  0  0  0  0  0  0  0  0
    7.6925   -7.7789    0.0000 C   0  0  0  0  0  0  0  0  0  0  0  0
   15.1018   -7.1118    0.0000 O   0  0  0  0  0  0  0  0  0  0  0  0
    6.8575   -6.6128    0.0000 C   0  0  0  0  0  0  0  0  0  0  0  0
   15.5097   -7.8221    0.0000 C   0  0  0  0  0  0  0  0  0  0  0  0
    6.1809   -7.1022    0.0000 C   0  0  0  0  0  0  0  0  0  0  0  0
  2  1  1  0  0  0  0
  3  1  1  0  0  0  0
  4  3  1  0  0  0  0
  5  2  1  0  0  0  0
  6  4  1  0  0  0  0
  7  1  1  0  0  0  0
  8  2  2  0  0  0  0
  9  3  2  0  0  0  0
 10  7  2  0  0  0  0
 11  7  1  0  0  0  0
 12  6  1  0  0  0  0
 13 14  1  0  0  0  0
 14 11  2  0  0  0  0
 15 10  1  0  0  0  0
 16 19  2  0  0  0  0
 17 12  1  0  0  0  0
 18 12  2  0  0  0  0
 19 18  1  0  0  0  0
 20 17  2  0  0  0  0
 21 13  1  0  0  0  0
 22 16  1  0  0  0  0
 23 21  1  0  0  0  0
 24 22  1  0  0  0  0
  4  5  1  0  0  0  0
 13 15  2  0  0  0  0
 20 16  1  0  0  0  0
M  END
>  <IDNUMBER>
F3023-0390

>  <Chemical_Name>
3-[(4-ethylphenyl)amino]-1-(4-methoxyphenyl)pyrrolidine-2,5-dione

>  <PriceCoeff>
1.00

>  <MW>
324.38

>  <Description>
solid

>  <FSP3>
0.26

>  <clogP>
3.60

>  <TPSA>
59.67

>  <Acceptor>
4

>  <Donor>
1

>  <RotBonds>
5

>  <HAC>
24

>  <Collection>
General

$$$$
F3023-0394
  Mrv2219 10102508112D          

 26 28  0  0  0  0            999 V2000
   11.8050   -7.0878    0.0000 N   0  0  0  0  0  0  0  0  0  0  0  0
   11.3204   -6.4208    0.0000 C   0  0  0  0  0  0  0  0  0  0  0  0
   11.3155   -7.7596    0.0000 C   0  0  0  0  0  0  0  0  0  0  0  0
   10.5286   -7.4909    0.0000 C   0  0  0  0  0  0  0  0  0  0  0  0
   10.5286   -6.6703    0.0000 C   0  0  0  0  0  0  0  0  0  0  0  0
   12.6304   -7.0974    0.0000 C   0  0  0  0  0  0  0  0  0  0  0  0
   13.0335   -7.8172    0.0000 C   0  0  0  0  0  0  0  0  0  0  0  0
    9.8615   -7.9804    0.0000 N   0  0  0  0  0  0  0  0  0  0  0  0
   13.8541   -7.8221    0.0000 C   0  0  0  0  0  0  0  0  0  0  0  0
   13.0335   -6.3824    0.0000 C   0  0  0  0  0  0  0  0  0  0  0  0
   11.5795   -5.6338    0.0000 O   0  0  0  0  0  0  0  0  0  0  0  0
   11.5651   -8.5419    0.0000 O   0  0  0  0  0  0  0  0  0  0  0  0
    9.1033   -7.6349    0.0000 C   0  0  0  0  0  0  0  0  0  0  0  0
   14.2716   -7.1022    0.0000 C   0  0  0  0  0  0  0  0  0  0  0  0
   13.8637   -6.3824    0.0000 C   0  0  0  0  0  0  0  0  0  0  0  0
   12.6160   -8.5275    0.0000 O   0  0  0  0  0  0  0  0  0  0  0  0
    7.6061   -6.9583    0.0000 C   0  0  0  0  0  0  0  0  0  0  0  0
    9.0313   -6.8143    0.0000 C   0  0  0  0  0  0  0  0  0  0  0  0
    8.4411   -8.1195    0.0000 C   0  0  0  0  0  0  0  0  0  0  0  0
    7.6925   -7.7789    0.0000 C   0  0  0  0  0  0  0  0  0  0  0  0
    8.2827   -6.4784    0.0000 C   0  0  0  0  0  0  0  0  0  0  0  0
   15.1018   -7.1118    0.0000 O   0  0  0  0  0  0  0  0  0  0  0  0
    6.8575   -6.6128    0.0000 C   0  0  0  0  0  0  0  0  0  0  0  0
   13.0191   -9.2473    0.0000 C   0  0  0  0  0  0  0  0  0  0  0  0
   15.5097   -7.8221    0.0000 C   0  0  0  0  0  0  0  0  0  0  0  0
    6.1809   -7.1022    0.0000 C   0  0  0  0  0  0  0  0  0  0  0  0
  2  1  1  0  0  0  0
  3  1  1  0  0  0  0
  4  3  1  0  0  0  0
  5  2  1  0  0  0  0
  6  1  1  0  0  0  0
  7  6  2  0  0  0  0
  8  4  1  0  0  0  0
  9  7  1  0  0  0  0
 10  6  1  0  0  0  0
 11  2  2  0  0  0  0
 12  3  2  0  0  0  0
 13  8  1  0  0  0  0
 14 15  1  0  0  0  0
 15 10  2  0  0  0  0
 16  7  1  0  0  0  0
 17 20  1  0  0  0  0
 18 13  2  0  0  0  0
 19 13  1  0  0  0  0
 20 19  2  0  0  0  0
 21 18  1  0  0  0  0
 22 14  1  0  0  0  0
 23 17  1  0  0  0  0
 24 16  1  0  0  0  0
 25 22  1  0  0  0  0
 26 23  1  0  0  0  0
  4  5  1  0  0  0  0
 14  9  2  0  0  0  0
 17 21  2  0  0  0  0
M  END
>  <IDNUMBER>
F3023-0394

>  <Chemical_Name>
1-(2,4-dimethoxyphenyl)-3-[(4-ethylphenyl)amino]pyrrolidine-2,5-dione

>  <PriceCoeff>
1.00

>  <CAS>
1008061-26-4

>  <MW>
354.40

>  <Description>
solid

>  <FSP3>
0.30

>  <clogP>
3.63

>  <TPSA>
67.87

>  <Acceptor>
5

>  <Donor>
1

>  <RotBonds>
6

>  <HAC>
26

>  <Collection>
General

>  <PPDS>
+

$$$$
F3023-0397
  Mrv2219 10102508112D          

 23 25  0  0  0  0            999 V2000
   12.7081   -7.0910    0.0000 N   0  0  0  0  0  0  0  0  0  0  0  0
   12.2184   -7.7631    0.0000 C   0  0  0  0  0  0  0  0  0  0  0  0
   12.2184   -6.4236    0.0000 C   0  0  0  0  0  0  0  0  0  0  0  0
   11.4262   -7.4943    0.0000 C   0  0  0  0  0  0  0  0  0  0  0  0
   11.4358   -6.6733    0.0000 C   0  0  0  0  0  0  0  0  0  0  0  0
   13.5290   -7.1006    0.0000 C   0  0  0  0  0  0  0  0  0  0  0  0
   10.7637   -7.9840    0.0000 N   0  0  0  0  0  0  0  0  0  0  0  0
   12.4632   -8.5457    0.0000 O   0  0  0  0  0  0  0  0  0  0  0  0
   12.4776   -5.6363    0.0000 O   0  0  0  0  0  0  0  0  0  0  0  0
   10.0099   -7.6383    0.0000 C   0  0  0  0  0  0  0  0  0  0  0  0
   13.9467   -6.3853    0.0000 C   0  0  0  0  0  0  0  0  0  0  0  0
    8.5120   -6.9614    0.0000 C   0  0  0  0  0  0  0  0  0  0  0  0
    9.3474   -8.1232    0.0000 C   0  0  0  0  0  0  0  0  0  0  0  0
    9.9283   -6.8173    0.0000 C   0  0  0  0  0  0  0  0  0  0  0  0
    9.1794   -6.4812    0.0000 C   0  0  0  0  0  0  0  0  0  0  0  0
    8.5889   -7.7823    0.0000 C   0  0  0  0  0  0  0  0  0  0  0  0
   14.7772   -6.3948    0.0000 C   0  0  0  0  0  0  0  0  0  0  0  0
    7.7535   -6.6157    0.0000 C   0  0  0  0  0  0  0  0  0  0  0  0
   15.1805   -7.1054    0.0000 C   0  0  0  0  0  0  0  0  0  0  0  0
   15.1853   -5.6795    0.0000 C   0  0  0  0  0  0  0  0  0  0  0  0
   16.0063   -5.6795    0.0000 C   0  0  0  0  0  0  0  0  0  0  0  0
   16.0063   -7.1198    0.0000 C   0  0  0  0  0  0  0  0  0  0  0  0
   16.4240   -6.3997    0.0000 C   0  0  0  0  0  0  0  0  0  0  0  0
  2  1  1  0  0  0  0
  3  1  1  0  0  0  0
  4  2  1  0  0  0  0
  5  3  1  0  0  0  0
  6  1  1  0  0  0  0
  7  4  1  0  0  0  0
  8  2  2  0  0  0  0
  9  3  2  0  0  0  0
 10  7  1  0  0  0  0
 11  6  1  0  0  0  0
 12 15  2  0  0  0  0
 13 10  1  0  0  0  0
 14 10  2  0  0  0  0
 15 14  1  0  0  0  0
 16 13  2  0  0  0  0
 17 11  1  0  0  0  0
 18 12  1  0  0  0  0
 19 17  2  0  0  0  0
 20 17  1  0  0  0  0
 21 20  2  0  0  0  0
 22 19  1  0  0  0  0
 23 21  1  0  0  0  0
  4  5  1  0  0  0  0
 23 22  2  0  0  0  0
 16 12  1  0  0  0  0
M  END
>  <IDNUMBER>
F3023-0397

>  <Chemical_Name>
3-[(4-methylphenyl)amino]-1-(2-phenylethyl)pyrrolidine-2,5-dione

>  <PriceCoeff>
1.00

>  <CAS>
1009168-09-5

>  <MW>
308.37

>  <Description>
solid

>  <FSP3>
0.26

>  <clogP>
4.25

>  <TPSA>
49.41

>  <Acceptor>
3

>  <Donor>
1

>  <RotBonds>
5

>  <HAC>
23

>  <Collection>
General

>  <PPDS>
+

$$$$
F3023-0398
  Mrv2219 10102508112D          

 22 24  0  0  0  0            999 V2000
   12.7524   -7.1157    0.0000 N   0  0  0  0  0  0  0  0  0  0  0  0
   12.2610   -7.7902    0.0000 C   0  0  0  0  0  0  0  0  0  0  0  0
   12.2610   -6.4460    0.0000 C   0  0  0  0  0  0  0  0  0  0  0  0
   11.4661   -7.5204    0.0000 C   0  0  0  0  0  0  0  0  0  0  0  0
   11.4757   -6.6966    0.0000 C   0  0  0  0  0  0  0  0  0  0  0  0
   10.8012   -8.0118    0.0000 N   0  0  0  0  0  0  0  0  0  0  0  0
   13.5762   -7.1253    0.0000 C   0  0  0  0  0  0  0  0  0  0  0  0
   12.5067   -8.5755    0.0000 O   0  0  0  0  0  0  0  0  0  0  0  0
   12.5211   -5.6560    0.0000 O   0  0  0  0  0  0  0  0  0  0  0  0
   10.0448   -7.6649    0.0000 C   0  0  0  0  0  0  0  0  0  0  0  0
   13.9905   -7.8384    0.0000 C   0  0  0  0  0  0  0  0  0  0  0  0
    8.5417   -6.9856    0.0000 C   0  0  0  0  0  0  0  0  0  0  0  0
    9.3800   -8.1515    0.0000 C   0  0  0  0  0  0  0  0  0  0  0  0
    9.9630   -6.8411    0.0000 C   0  0  0  0  0  0  0  0  0  0  0  0
    9.2114   -6.5038    0.0000 C   0  0  0  0  0  0  0  0  0  0  0  0
    8.6188   -7.8095    0.0000 C   0  0  0  0  0  0  0  0  0  0  0  0
    7.7806   -6.6388    0.0000 C   0  0  0  0  0  0  0  0  0  0  0  0
   13.5714   -8.5562    0.0000 C   0  0  0  0  0  0  0  0  0  0  0  0
   14.8143   -7.8384    0.0000 C   0  0  0  0  0  0  0  0  0  0  0  0
   15.2238   -8.5610    0.0000 C   0  0  0  0  0  0  0  0  0  0  0  0
   13.9809   -9.2692    0.0000 C   0  0  0  0  0  0  0  0  0  0  0  0
   14.8047   -9.2788    0.0000 C   0  0  0  0  0  0  0  0  0  0  0  0
  2  1  1  0  0  0  0
  3  1  1  0  0  0  0
  4  2  1  0  0  0  0
  5  3  1  0  0  0  0
  6  4  1  0  0  0  0
  7  1  1  0  0  0  0
  8  2  2  0  0  0  0
  9  3  2  0  0  0  0
 10  6  1  0  0  0  0
 11  7  1  0  0  0  0
 12 15  2  0  0  0  0
 13 10  1  0  0  0  0
 14 10  2  0  0  0  0
 15 14  1  0  0  0  0
 16 13  2  0  0  0  0
 17 12  1  0  0  0  0
 18 11  2  0  0  0  0
 19 11  1  0  0  0  0
 20 19  2  0  0  0  0
 21 18  1  0  0  0  0
 22 20  1  0  0  0  0
  4  5  1  0  0  0  0
 22 21  2  0  0  0  0
 12 16  1  0  0  0  0
M  END
>  <IDNUMBER>
F3023-0398

>  <Chemical_Name>
1-benzyl-3-[(4-methylphenyl)amino]pyrrolidine-2,5-dione

>  <PriceCoeff>
1.00

>  <CAS>
1009770-02-8

>  <MW>
294.35

>  <Description>
solid

>  <FSP3>
0.22

>  <clogP>
3.73

>  <TPSA>
49.41

>  <Acceptor>
3

>  <Donor>
1

>  <RotBonds>
4

>  <HAC>
22

>  <Collection>
General

>  <PPDS>
+

$$$$
F3023-0404
  Mrv2219 10102508112D          

 27 30  0  0  0  0            999 V2000
   11.4602   -7.0853    0.0000 N   0  0  0  0  0  0  0  0  0  0  0  0
   10.9805   -6.4185    0.0000 C   0  0  0  0  0  0  0  0  0  0  0  0
   10.9709   -7.7569    0.0000 C   0  0  0  0  0  0  0  0  0  0  0  0
   10.1890   -7.4883    0.0000 C   0  0  0  0  0  0  0  0  0  0  0  0
   10.1938   -6.6680    0.0000 C   0  0  0  0  0  0  0  0  0  0  0  0
   14.7558   -7.1093    0.0000 N   0  0  0  0  0  0  0  0  0  0  0  0
    9.5174   -7.9776    0.0000 N   0  0  0  0  0  0  0  0  0  0  0  0
   12.2901   -7.0949    0.0000 C   0  0  0  0  0  0  0  0  0  0  0  0
   13.9355   -7.0997    0.0000 C   0  0  0  0  0  0  0  0  0  0  0  0
   11.2395   -5.6318    0.0000 O   0  0  0  0  0  0  0  0  0  0  0  0
   11.2251   -8.5388    0.0000 O   0  0  0  0  0  0  0  0  0  0  0  0
   12.6979   -6.3801    0.0000 C   0  0  0  0  0  0  0  0  0  0  0  0
   12.6835   -7.8144    0.0000 C   0  0  0  0  0  0  0  0  0  0  0  0
   13.5182   -7.8193    0.0000 C   0  0  0  0  0  0  0  0  0  0  0  0
   13.5182   -6.3801    0.0000 C   0  0  0  0  0  0  0  0  0  0  0  0
    8.7691   -7.6322    0.0000 C   0  0  0  0  0  0  0  0  0  0  0  0
    7.2724   -6.9558    0.0000 C   0  0  0  0  0  0  0  0  0  0  0  0
    8.6923   -6.8119    0.0000 C   0  0  0  0  0  0  0  0  0  0  0  0
    8.1071   -8.1166    0.0000 C   0  0  0  0  0  0  0  0  0  0  0  0
    7.3539   -7.7761    0.0000 C   0  0  0  0  0  0  0  0  0  0  0  0
    7.9439   -6.4760    0.0000 C   0  0  0  0  0  0  0  0  0  0  0  0
   15.1588   -7.8288    0.0000 C   0  0  0  0  0  0  0  0  0  0  0  0
   15.1732   -6.3945    0.0000 C   0  0  0  0  0  0  0  0  0  0  0  0
    6.5192   -6.6104    0.0000 C   0  0  0  0  0  0  0  0  0  0  0  0
   15.9935   -6.4041    0.0000 C   0  0  0  0  0  0  0  0  0  0  0  0
   15.9886   -7.8337    0.0000 C   0  0  0  0  0  0  0  0  0  0  0  0
   16.4060   -7.1141    0.0000 C   0  0  0  0  0  0  0  0  0  0  0  0
  2  1  1  0  0  0  0
  3  1  1  0  0  0  0
  4  3  1  0  0  0  0
  5  2  1  0  0  0  0
  6  9  1  0  0  0  0
  7  4  1  0  0  0  0
  8  1  1  0  0  0  0
  9 14  2  0  0  0  0
 10  2  2  0  0  0  0
 11  3  2  0  0  0  0
 12  8  1  0  0  0  0
 13  8  2  0  0  0  0
 14 13  1  0  0  0  0
 15 12  2  0  0  0  0
 16  7  1  0  0  0  0
 17 20  1  0  0  0  0
 18 16  2  0  0  0  0
 19 16  1  0  0  0  0
 20 19  2  0  0  0  0
 21 18  1  0  0  0  0
 22  6  1  0  0  0  0
 23  6  1  0  0  0  0
 24 17  1  0  0  0  0
 25 23  1  0  0  0  0
 26 22  1  0  0  0  0
 27 25  1  0  0  0  0
  4  5  1  0  0  0  0
  9 15  1  0  0  0  0
 17 21  2  0  0  0  0
 27 26  1  0  0  0  0
M  END
>  <IDNUMBER>
F3023-0404

>  <Chemical_Name>
3-[(4-methylphenyl)amino]-1-[4-(piperidin-1-yl)phenyl]pyrrolidine-2,5-dione

>  <PriceCoeff>
1.00

>  <CAS>
1008061-51-5

>  <MW>
363.45

>  <Description>
solid

>  <FSP3>
0.36

>  <clogP>
3.82

>  <TPSA>
52.65

>  <Acceptor>
4

>  <Donor>
2

>  <RotBonds>
4

>  <HAC>
27

>  <Collection>
General

>  <PPDS>
+

$$$$
F3023-0406
  Mrv2219 10102508112D          

 19 20  0  0  0  0            999 V2000
   11.4702   -7.0915    0.0000 N   0  0  0  0  0  0  0  0  0  0  0  0
   10.9900   -6.4240    0.0000 C   0  0  0  0  0  0  0  0  0  0  0  0
   10.9804   -7.7636    0.0000 C   0  0  0  0  0  0  0  0  0  0  0  0
   10.1978   -7.4948    0.0000 C   0  0  0  0  0  0  0  0  0  0  0  0
   10.2027   -6.6737    0.0000 C   0  0  0  0  0  0  0  0  0  0  0  0
    9.5257   -7.9845    0.0000 N   0  0  0  0  0  0  0  0  0  0  0  0
   11.2492   -5.6367    0.0000 O   0  0  0  0  0  0  0  0  0  0  0  0
   11.2348   -8.5463    0.0000 O   0  0  0  0  0  0  0  0  0  0  0  0
   12.3008   -7.1011    0.0000 C   0  0  0  0  0  0  0  0  0  0  0  0
    8.7767   -7.6388    0.0000 C   0  0  0  0  0  0  0  0  0  0  0  0
    7.2787   -6.9619    0.0000 C   0  0  0  0  0  0  0  0  0  0  0  0
    8.6999   -6.8177    0.0000 C   0  0  0  0  0  0  0  0  0  0  0  0
    8.1141   -8.1237    0.0000 C   0  0  0  0  0  0  0  0  0  0  0  0
    7.3603   -7.7828    0.0000 C   0  0  0  0  0  0  0  0  0  0  0  0
    7.9508   -6.4816    0.0000 C   0  0  0  0  0  0  0  0  0  0  0  0
    6.5248   -6.6161    0.0000 O   0  0  0  0  0  0  0  0  0  0  0  0
   12.7184   -6.3857    0.0000 C   0  0  0  0  0  0  0  0  0  0  0  0
   12.7089   -7.8116    0.0000 C   0  0  0  0  0  0  0  0  0  0  0  0
    6.4433   -5.7951    0.0000 C   0  0  0  0  0  0  0  0  0  0  0  0
  2  1  1  0  0  0  0
  3  1  1  0  0  0  0
  4  3  1  0  0  0  0
  5  2  1  0  0  0  0
  6  4  1  0  0  0  0
  7  2  2  0  0  0  0
  8  3  2  0  0  0  0
  9  1  1  0  0  0  0
 10  6  1  0  0  0  0
 11 14  1  0  0  0  0
 12 10  2  0  0  0  0
 13 10  1  0  0  0  0
 14 13  2  0  0  0  0
 15 12  1  0  0  0  0
 16 11  1  0  0  0  0
 17  9  1  0  0  0  0
 18  9  1  0  0  0  0
 19 16  1  0  0  0  0
  4  5  1  0  0  0  0
 11 15  2  0  0  0  0
M  END
>  <IDNUMBER>
F3023-0406

>  <Chemical_Name>
3-[(4-methoxyphenyl)amino]-1-(propan-2-yl)pyrrolidine-2,5-dione

>  <PriceCoeff>
1.00

>  <CAS>
1008463-68-0

>  <MW>
262.30

>  <Description>
solid

>  <FSP3>
0.43

>  <clogP>
2.60

>  <TPSA>
58.64

>  <Acceptor>
4

>  <Donor>
1

>  <RotBonds>
4

>  <HAC>
19

>  <Collection>
General

>  <PPDS>
+

$$$$
F3023-0409
  Mrv2219 10102508112D          

 26 29  0  0  0  0            999 V2000
   12.7957   -7.1157    0.0000 N   0  0  0  0  0  0  0  0  0  0  0  0
   12.3043   -6.4460    0.0000 C   0  0  0  0  0  0  0  0  0  0  0  0
   12.3043   -7.7902    0.0000 C   0  0  0  0  0  0  0  0  0  0  0  0
   13.6196   -7.1253    0.0000 C   0  0  0  0  0  0  0  0  0  0  0  0
   11.5094   -7.5204    0.0000 C   0  0  0  0  0  0  0  0  0  0  0  0
   11.5190   -6.6966    0.0000 C   0  0  0  0  0  0  0  0  0  0  0  0
   14.0338   -7.8384    0.0000 C   0  0  0  0  0  0  0  0  0  0  0  0
   10.8446   -8.0118    0.0000 N   0  0  0  0  0  0  0  0  0  0  0  0
   12.5645   -5.6560    0.0000 O   0  0  0  0  0  0  0  0  0  0  0  0
   12.5500   -8.5755    0.0000 O   0  0  0  0  0  0  0  0  0  0  0  0
   14.8577   -7.8528    0.0000 C   0  0  0  0  0  0  0  0  0  0  0  0
   10.0882   -7.6649    0.0000 C   0  0  0  0  0  0  0  0  0  0  0  0
   14.0338   -6.4075    0.0000 C   0  0  0  0  0  0  0  0  0  0  0  0
    8.5851   -6.9856    0.0000 C   0  0  0  0  0  0  0  0  0  0  0  0
    9.4233   -8.1515    0.0000 C   0  0  0  0  0  0  0  0  0  0  0  0
   10.0063   -6.8411    0.0000 C   0  0  0  0  0  0  0  0  0  0  0  0
    9.2548   -6.5038    0.0000 C   0  0  0  0  0  0  0  0  0  0  0  0
    8.6622   -7.8095    0.0000 C   0  0  0  0  0  0  0  0  0  0  0  0
    7.8239   -6.6388    0.0000 O   0  0  0  0  0  0  0  0  0  0  0  0
   13.6147   -8.5562    0.0000 C   0  0  0  0  0  0  0  0  0  0  0  0
   14.8625   -6.4075    0.0000 C   0  0  0  0  0  0  0  0  0  0  0  0
   15.2768   -7.1302    0.0000 C   0  0  0  0  0  0  0  0  0  0  0  0
   15.2672   -8.5610    0.0000 C   0  0  0  0  0  0  0  0  0  0  0  0
    7.7468   -5.8150    0.0000 C   0  0  0  0  0  0  0  0  0  0  0  0
   14.0242   -9.2692    0.0000 C   0  0  0  0  0  0  0  0  0  0  0  0
   14.8481   -9.2692    0.0000 C   0  0  0  0  0  0  0  0  0  0  0  0
  2  1  1  0  0  0  0
  3  1  1  0  0  0  0
  4  1  1  0  0  0  0
  5  3  1  0  0  0  0
  6  2  1  0  0  0  0
  7  4  2  0  0  0  0
  8  5  1  0  0  0  0
  9  2  2  0  0  0  0
 10  3  2  0  0  0  0
 11  7  1  0  0  0  0
 12  8  1  0  0  0  0
 13  4  1  0  0  0  0
 14 17  2  0  0  0  0
 15 12  1  0  0  0  0
 16 12  2  0  0  0  0
 17 16  1  0  0  0  0
 18 15  2  0  0  0  0
 19 14  1  0  0  0  0
 20  7  1  0  0  0  0
 21 13  2  0  0  0  0
 22 21  1  0  0  0  0
 23 11  1  0  0  0  0
 24 19  1  0  0  0  0
 25 20  2  0  0  0  0
 26 25  1  0  0  0  0
  5  6  1  0  0  0  0
 22 11  2  0  0  0  0
 23 26  2  0  0  0  0
 18 14  1  0  0  0  0
M  END
>  <IDNUMBER>
F3023-0409

>  <Chemical_Name>
3-[(4-methoxyphenyl)amino]-1-(naphthalen-1-yl)pyrrolidine-2,5-dione

>  <PriceCoeff>
1.00

>  <CAS>
1009707-64-5

>  <MW>
346.38

>  <Description>
solid

>  <FSP3>
0.14

>  <clogP>
3.76

>  <TPSA>
58.64

>  <Acceptor>
4

>  <Donor>
1

>  <RotBonds>
4

>  <HAC>
26

>  <Collection>
General

>  <PPDS>
+

$$$$
F3023-0411
  Mrv2219 10102508112D          

 23 25  0  0  0  0            999 V2000
   11.9202   -7.0878    0.0000 N   0  0  0  0  0  0  0  0  0  0  0  0
   11.4355   -6.4208    0.0000 C   0  0  0  0  0  0  0  0  0  0  0  0
   11.4307   -7.7596    0.0000 C   0  0  0  0  0  0  0  0  0  0  0  0
   10.6437   -7.4909    0.0000 C   0  0  0  0  0  0  0  0  0  0  0  0
   10.6437   -6.6703    0.0000 C   0  0  0  0  0  0  0  0  0  0  0  0
   12.7456   -7.0974    0.0000 C   0  0  0  0  0  0  0  0  0  0  0  0
    9.9767   -7.9804    0.0000 N   0  0  0  0  0  0  0  0  0  0  0  0
   11.6947   -5.6338    0.0000 O   0  0  0  0  0  0  0  0  0  0  0  0
   11.6803   -8.5419    0.0000 O   0  0  0  0  0  0  0  0  0  0  0  0
   13.1487   -6.3824    0.0000 C   0  0  0  0  0  0  0  0  0  0  0  0
    9.2185   -7.6349    0.0000 C   0  0  0  0  0  0  0  0  0  0  0  0
    7.7213   -6.9583    0.0000 C   0  0  0  0  0  0  0  0  0  0  0  0
   13.9789   -6.3824    0.0000 C   0  0  0  0  0  0  0  0  0  0  0  0
   13.1487   -7.8172    0.0000 C   0  0  0  0  0  0  0  0  0  0  0  0
    8.5563   -8.1195    0.0000 C   0  0  0  0  0  0  0  0  0  0  0  0
    9.1465   -6.8143    0.0000 C   0  0  0  0  0  0  0  0  0  0  0  0
    8.3979   -6.4784    0.0000 C   0  0  0  0  0  0  0  0  0  0  0  0
    7.8077   -7.7789    0.0000 C   0  0  0  0  0  0  0  0  0  0  0  0
    6.9727   -6.6128    0.0000 O   0  0  0  0  0  0  0  0  0  0  0  0
   13.9693   -7.8221    0.0000 C   0  0  0  0  0  0  0  0  0  0  0  0
   14.3868   -7.1022    0.0000 C   0  0  0  0  0  0  0  0  0  0  0  0
   14.3868   -5.6722    0.0000 C   0  0  0  0  0  0  0  0  0  0  0  0
    6.8863   -5.7922    0.0000 C   0  0  0  0  0  0  0  0  0  0  0  0
  2  1  1  0  0  0  0
  3  1  1  0  0  0  0
  4  3  1  0  0  0  0
  5  2  1  0  0  0  0
  6  1  1  0  0  0  0
  7  4  1  0  0  0  0
  8  2  2  0  0  0  0
  9  3  2  0  0  0  0
 10  6  1  0  0  0  0
 11  7  1  0  0  0  0
 12 17  2  0  0  0  0
 13 10  2  0  0  0  0
 14  6  2  0  0  0  0
 15 11  1  0  0  0  0
 16 11  2  0  0  0  0
 17 16  1  0  0  0  0
 18 15  2  0  0  0  0
 19 12  1  0  0  0  0
 20 14  1  0  0  0  0
 21 20  2  0  0  0  0
 22 13  1  0  0  0  0
 23 19  1  0  0  0  0
  4  5  1  0  0  0  0
 21 13  1  0  0  0  0
 18 12  1  0  0  0  0
M  END
>  <IDNUMBER>
F3023-0411

>  <Chemical_Name>
3-[(4-methoxyphenyl)amino]-1-(3-methylphenyl)pyrrolidine-2,5-dione

>  <PriceCoeff>
1.00

>  <MW>
310.35

>  <Description>
solid

>  <FSP3>
0.22

>  <clogP>
3.09

>  <TPSA>
58.64

>  <Acceptor>
4

>  <Donor>
1

>  <RotBonds>
4

>  <HAC>
23

>  <Collection>
General

$$$$
F3023-0416
  Mrv2219 10102508112D          

 24 26  0  0  0  0            999 V2000
   11.5075   -7.0878    0.0000 N   0  0  0  0  0  0  0  0  0  0  0  0
   11.0180   -6.4208    0.0000 C   0  0  0  0  0  0  0  0  0  0  0  0
   11.0180   -7.7596    0.0000 C   0  0  0  0  0  0  0  0  0  0  0  0
   10.2262   -7.4909    0.0000 C   0  0  0  0  0  0  0  0  0  0  0  0
   10.2358   -6.6703    0.0000 C   0  0  0  0  0  0  0  0  0  0  0  0
   12.3281   -7.0974    0.0000 C   0  0  0  0  0  0  0  0  0  0  0  0
   12.7408   -6.3824    0.0000 C   0  0  0  0  0  0  0  0  0  0  0  0
    9.5640   -7.9804    0.0000 N   0  0  0  0  0  0  0  0  0  0  0  0
   12.7312   -7.8172    0.0000 C   0  0  0  0  0  0  0  0  0  0  0  0
   11.2772   -5.6338    0.0000 O   0  0  0  0  0  0  0  0  0  0  0  0
   11.2628   -8.5419    0.0000 O   0  0  0  0  0  0  0  0  0  0  0  0
   13.5662   -6.3824    0.0000 C   0  0  0  0  0  0  0  0  0  0  0  0
    8.8106   -7.6349    0.0000 C   0  0  0  0  0  0  0  0  0  0  0  0
   13.9789   -7.1022    0.0000 C   0  0  0  0  0  0  0  0  0  0  0  0
   13.5614   -7.8221    0.0000 C   0  0  0  0  0  0  0  0  0  0  0  0
    7.3133   -6.9583    0.0000 C   0  0  0  0  0  0  0  0  0  0  0  0
   14.8043   -7.1118    0.0000 I   0  0  0  0  0  0  0  0  0  0  0  0
    8.7290   -6.8143    0.0000 C   0  0  0  0  0  0  0  0  0  0  0  0
    8.1483   -8.1195    0.0000 C   0  0  0  0  0  0  0  0  0  0  0  0
    7.3902   -7.7789    0.0000 C   0  0  0  0  0  0  0  0  0  0  0  0
    7.9804   -6.4784    0.0000 C   0  0  0  0  0  0  0  0  0  0  0  0
    6.5552   -6.6128    0.0000 O   0  0  0  0  0  0  0  0  0  0  0  0
   12.3281   -5.6722    0.0000 C   0  0  0  0  0  0  0  0  0  0  0  0
    6.4784   -5.7922    0.0000 C   0  0  0  0  0  0  0  0  0  0  0  0
  2  1  1  0  0  0  0
  3  1  1  0  0  0  0
  4  3  1  0  0  0  0
  5  2  1  0  0  0  0
  6  1  1  0  0  0  0
  7  6  1  0  0  0  0
  8  4  1  0  0  0  0
  9  6  2  0  0  0  0
 10  2  2  0  0  0  0
 11  3  2  0  0  0  0
 12  7  2  0  0  0  0
 13  8  1  0  0  0  0
 14 15  2  0  0  0  0
 15  9  1  0  0  0  0
 16 20  1  0  0  0  0
 17 14  1  0  0  0  0
 18 13  2  0  0  0  0
 19 13  1  0  0  0  0
 20 19  2  0  0  0  0
 21 18  1  0  0  0  0
 22 16  1  0  0  0  0
 23  7  1  0  0  0  0
 24 22  1  0  0  0  0
  4  5  1  0  0  0  0
 14 12  1  0  0  0  0
 16 21  2  0  0  0  0
M  END
>  <IDNUMBER>
F3023-0416

>  <Chemical_Name>
1-(4-iodo-2-methylphenyl)-3-[(4-methoxyphenyl)amino]pyrrolidine-2,5-dione

>  <PriceCoeff>
1.00

>  <CAS>
1042697-01-7

>  <MW>
436.24

>  <Description>
solid

>  <FSP3>
0.22

>  <clogP>
4.09

>  <TPSA>
58.64

>  <Acceptor>
4

>  <Donor>
1

>  <RotBonds>
4

>  <HAC>
24

>  <Collection>
General

>  <PPDS>
+

$$$$
F3023-0417
  Mrv2219 10102508112D          

 21 22  0  0  0  0            999 V2000
   11.5190   -7.0949    0.0000 N   0  0  0  0  0  0  0  0  0  0  0  0
   11.0290   -6.4272    0.0000 C   0  0  0  0  0  0  0  0  0  0  0  0
   11.0290   -7.7674    0.0000 C   0  0  0  0  0  0  0  0  0  0  0  0
   10.2460   -6.6770    0.0000 C   0  0  0  0  0  0  0  0  0  0  0  0
   10.2364   -7.4984    0.0000 C   0  0  0  0  0  0  0  0  0  0  0  0
    5.9709   -7.9307    0.0000 C   0  0  0  0  0  0  0  0  0  0  0  0
   11.2740   -8.5504    0.0000 O   0  0  0  0  0  0  0  0  0  0  0  0
   11.2884   -5.6394    0.0000 O   0  0  0  0  0  0  0  0  0  0  0  0
    5.8940   -7.1093    0.0000 C   0  0  0  0  0  0  0  0  0  0  0  0
    6.7298   -8.2717    0.0000 C   0  0  0  0  0  0  0  0  0  0  0  0
    9.5735   -7.9884    0.0000 N   0  0  0  0  0  0  0  0  0  0  0  0
    6.5617   -6.6289    0.0000 C   0  0  0  0  0  0  0  0  0  0  0  0
   12.3404   -7.1045    0.0000 C   0  0  0  0  0  0  0  0  0  0  0  0
    7.3975   -7.7866    0.0000 C   0  0  0  0  0  0  0  0  0  0  0  0
    7.3111   -6.9652    0.0000 C   0  0  0  0  0  0  0  0  0  0  0  0
    5.3080   -8.4207    0.0000 O   0  0  0  0  0  0  0  0  0  0  0  0
    5.1350   -6.7634    0.0000 O   0  0  0  0  0  0  0  0  0  0  0  0
    8.8193   -7.6425    0.0000 C   0  0  0  0  0  0  0  0  0  0  0  0
    8.1469   -8.1276    0.0000 C   0  0  0  0  0  0  0  0  0  0  0  0
    4.5538   -8.0748    0.0000 C   0  0  0  0  0  0  0  0  0  0  0  0
    5.0581   -5.9420    0.0000 C   0  0  0  0  0  0  0  0  0  0  0  0
  2  1  1  0  0  0  0
  3  1  1  0  0  0  0
  4  2  1  0  0  0  0
  5  3  1  0  0  0  0
  6 10  2  0  0  0  0
  7  3  2  0  0  0  0
  8  2  2  0  0  0  0
  9 12  2  0  0  0  0
 10 14  1  0  0  0  0
 11  5  1  0  0  0  0
 12 15  1  0  0  0  0
 13  1  1  0  0  0  0
 14 19  1  0  0  0  0
 15 14  2  0  0  0  0
 16  6  1  0  0  0  0
 17  9  1  0  0  0  0
 18 11  1  0  0  0  0
 19 18  1  0  0  0  0
 20 16  1  0  0  0  0
 21 17  1  0  0  0  0
  5  4  1  0  0  0  0
  9  6  1  0  0  0  0
M  END
>  <IDNUMBER>
F3023-0417

>  <Chemical_Name>
3-{[2-(3,4-dimethoxyphenyl)ethyl]amino}-1-methylpyrrolidine-2,5-dione

>  <PriceCoeff>
1.50

>  <MW>
292.33

>  <Description>
solid

>  <FSP3>
0.47

>  <clogP>
1.87

>  <TPSA>
67.87

>  <Acceptor>
4

>  <Donor>
1

>  <RotBonds>
6

>  <HAC>
21

>  <Collection>
Advanced

$$$$
F3023-0420
  Mrv2219 10102508112D          

 26 28  0  0  0  0            999 V2000
   13.7179   -7.0918    0.0000 N   0  0  0  0  0  0  0  0  0  0  0  0
   13.2282   -6.4244    0.0000 C   0  0  0  0  0  0  0  0  0  0  0  0
   13.2282   -7.7640    0.0000 C   0  0  0  0  0  0  0  0  0  0  0  0
   12.4455   -6.6741    0.0000 C   0  0  0  0  0  0  0  0  0  0  0  0
   12.4359   -7.4952    0.0000 C   0  0  0  0  0  0  0  0  0  0  0  0
    8.1722   -7.9273    0.0000 C   0  0  0  0  0  0  0  0  0  0  0  0
   13.4874   -5.6370    0.0000 O   0  0  0  0  0  0  0  0  0  0  0  0
   13.4730   -8.5467    0.0000 O   0  0  0  0  0  0  0  0  0  0  0  0
   14.5390   -7.1014    0.0000 C   0  0  0  0  0  0  0  0  0  0  0  0
    8.0953   -7.1063    0.0000 C   0  0  0  0  0  0  0  0  0  0  0  0
    8.9308   -8.2682    0.0000 C   0  0  0  0  0  0  0  0  0  0  0  0
   11.7733   -7.9849    0.0000 N   0  0  0  0  0  0  0  0  0  0  0  0
    8.7628   -6.6261    0.0000 C   0  0  0  0  0  0  0  0  0  0  0  0
    9.5982   -7.7833    0.0000 C   0  0  0  0  0  0  0  0  0  0  0  0
    9.5118   -6.9622    0.0000 C   0  0  0  0  0  0  0  0  0  0  0  0
    7.5096   -8.4171    0.0000 O   0  0  0  0  0  0  0  0  0  0  0  0
    7.3367   -6.7605    0.0000 O   0  0  0  0  0  0  0  0  0  0  0  0
   11.0194   -7.6392    0.0000 C   0  0  0  0  0  0  0  0  0  0  0  0
   10.3473   -8.1241    0.0000 C   0  0  0  0  0  0  0  0  0  0  0  0
   14.9423   -7.8216    0.0000 C   0  0  0  0  0  0  0  0  0  0  0  0
   14.9567   -6.3860    0.0000 C   0  0  0  0  0  0  0  0  0  0  0  0
    6.7557   -8.0714    0.0000 C   0  0  0  0  0  0  0  0  0  0  0  0
    7.2599   -5.9395    0.0000 C   0  0  0  0  0  0  0  0  0  0  0  0
   15.7778   -6.3956    0.0000 C   0  0  0  0  0  0  0  0  0  0  0  0
   15.7634   -7.8265    0.0000 C   0  0  0  0  0  0  0  0  0  0  0  0
   16.1906   -7.1158    0.0000 C   0  0  0  0  0  0  0  0  0  0  0  0
  2  1  1  0  0  0  0
  3  1  1  0  0  0  0
  4  2  1  0  0  0  0
  5  3  1  0  0  0  0
  6 11  2  0  0  0  0
  7  2  2  0  0  0  0
  8  3  2  0  0  0  0
  9  1  1  0  0  0  0
 10 13  2  0  0  0  0
 11 14  1  0  0  0  0
 12  5  1  0  0  0  0
 13 15  1  0  0  0  0
 14 19  1  0  0  0  0
 15 14  2  0  0  0  0
 16  6  1  0  0  0  0
 17 10  1  0  0  0  0
 18 12  1  0  0  0  0
 19 18  1  0  0  0  0
 20  9  1  0  0  0  0
 21  9  1  0  0  0  0
 22 16  1  0  0  0  0
 23 17  1  0  0  0  0
 24 21  1  0  0  0  0
 25 20  1  0  0  0  0
 26 24  1  0  0  0  0
  5  4  1  0  0  0  0
 26 25  1  0  0  0  0
 10  6  1  0  0  0  0
M  END
>  <IDNUMBER>
F3023-0420

>  <Chemical_Name>
1-cyclohexyl-3-{[2-(3,4-dimethoxyphenyl)ethyl]amino}pyrrolidine-2,5-dione

>  <PriceCoeff>
1.50

>  <CAS>
1023919-61-0

>  <MW>
360.45

>  <Description>
solid

>  <FSP3>
0.60

>  <clogP>
3.81

>  <TPSA>
67.87

>  <Acceptor>
4

>  <Donor>
1

>  <RotBonds>
7

>  <HAC>
26

>  <Collection>
Advanced

>  <PPDS>
+

$$$$
F3023-0438
  Mrv2219 10102508112D          

 28 33  0  0  0  0            999 V2000
    5.4521   -2.3033    0.0000 N   0  0  0  0  0  0  0  0  0  0  0  0
    5.9520   -2.9613    0.0000 C   0  0  0  0  0  0  0  0  0  0  0  0
    5.9270   -1.6286    0.0000 C   0  0  0  0  0  0  0  0  0  0  0  0
    6.7266   -2.6907    0.0000 C   0  0  0  0  0  0  0  0  0  0  0  0
    6.7141   -1.8659    0.0000 C   0  0  0  0  0  0  0  0  0  0  0  0
    8.1511   -2.8031    0.0000 C   0  0  0  0  0  0  0  0  0  0  0  0
    7.2890   -3.2154    0.0000 N   0  0  0  0  0  0  0  0  0  0  0  0
    4.6275   -2.3241    0.0000 C   0  0  0  0  0  0  0  0  0  0  0  0
    2.9530   -0.9414    0.0000 C   0  0  0  0  0  0  0  0  0  0  0  0
    3.3488   -0.2166    0.0000 C   0  0  0  0  0  0  0  0  0  0  0  0
    2.1409   -0.7872    0.0000 O   0  0  0  0  0  0  0  0  0  0  0  0
    5.7145   -3.7528    0.0000 O   0  0  0  0  0  0  0  0  0  0  0  0
    8.9633   -1.6368    0.0000 C   0  0  0  0  0  0  0  0  0  0  0  0
    8.4760   -3.3904    0.0000 C   0  0  0  0  0  0  0  0  0  0  0  0
    9.5713   -2.9281    0.0000 C   0  0  0  0  0  0  0  0  0  0  0  0
    5.6520   -0.8497    0.0000 O   0  0  0  0  0  0  0  0  0  0  0  0
    2.7864    0.3873    0.0000 O   0  0  0  0  0  0  0  0  0  0  0  0
    2.0368    0.0333    0.0000 C   0  0  0  0  0  0  0  0  0  0  0  0
    3.3779   -1.6410    0.0000 C   0  0  0  0  0  0  0  0  0  0  0  0
    4.2026   -1.6161    0.0000 C   0  0  0  0  0  0  0  0  0  0  0  0
    8.8258   -3.2780    0.0000 C   0  0  0  0  0  0  0  0  0  0  0  0
    8.2135   -1.9868    0.0000 C   0  0  0  0  0  0  0  0  0  0  0  0
    7.7387   -3.5154    0.0000 C   0  0  0  0  0  0  0  0  0  0  0  0
    9.1590   -3.6528    0.0000 C   0  0  0  0  0  0  0  0  0  0  0  0
    9.6463   -2.1117    0.0000 C   0  0  0  0  0  0  0  0  0  0  0  0
    8.4635   -2.4033    0.0000 C   0  0  0  0  0  0  0  0  0  0  0  0
    4.1734   -0.1916    0.0000 C   0  0  0  0  0  0  0  0  0  0  0  0
    4.6025   -0.8997    0.0000 C   0  0  0  0  0  0  0  0  0  0  0  0
  2  1  1  0  0  0  0
  3  1  1  0  0  0  0
  4  2  1  0  0  0  0
  5  3  1  0  0  0  0
  6  7  1  0  0  0  0
  7  4  1  0  0  0  0
  8  1  1  0  0  0  0
  9 19  2  0  0  0  0
 10 27  2  0  0  0  0
 11  9  1  0  0  0  0
 12  2  2  0  0  0  0
 13 22  1  0  0  0  0
 14 23  1  0  0  0  0
 15 21  1  0  0  0  0
 16  3  2  0  0  0  0
 17 10  1  0  0  0  0
 18 11  1  0  0  0  0
 19 20  1  0  0  0  0
 20  8  1  0  0  0  0
 21  6  1  0  0  0  0
 22  6  1  0  0  0  0
 23  6  1  0  0  0  0
 24 14  1  0  0  0  0
 25 13  1  0  0  0  0
 26 14  1  0  0  0  0
 27 28  1  0  0  0  0
 28 20  2  0  0  0  0
  5  4  1  0  0  0  0
 10  9  1  0  0  0  0
 18 17  1  0  0  0  0
 26 13  1  0  0  0  0
 24 15  1  0  0  0  0
 25 15  1  0  0  0  0
M  END
>  <IDNUMBER>
F3023-0438

>  <Chemical_Name>
3-[(adamantan-1-yl)amino]-1-[(2H-1,3-benzodioxol-5-yl)methyl]pyrrolidine-2,5-dione

>  <PriceCoeff>
1.00

>  <MW>
382.45

>  <Description>
solid

>  <FSP3>
0.64

>  <clogP>
4.31

>  <TPSA>
67.87

>  <Acceptor>
4

>  <Donor>
1

>  <RotBonds>
4

>  <HAC>
28

>  <Collection>
General

$$$$
F3023-0448
  Mrv2219 10102508112D          

 20 21  0  0  0  0            999 V2000
    3.5375   -4.8417    0.0000 N   0  0  0  0  0  0  0  0  0  0  0  0
    4.0292   -5.5042    0.0000 C   0  0  0  0  0  0  0  0  0  0  0  0
    4.0167   -4.1667    0.0000 C   0  0  0  0  0  0  0  0  0  0  0  0
    4.8125   -5.2417    0.0000 C   0  0  0  0  0  0  0  0  0  0  0  0
    4.8042   -4.4167    0.0000 C   0  0  0  0  0  0  0  0  0  0  0  0
    6.9000   -5.8750    0.0000 C   0  0  0  0  0  0  0  0  0  0  0  0
    5.4792   -5.7292    0.0000 S   0  0  0  0  0  0  0  0  0  0  0  0
    6.2292   -5.3917    0.0000 C   0  0  0  0  0  0  0  0  0  0  0  0
    6.8167   -6.6917    0.0000 C   0  0  0  0  0  0  0  0  0  0  0  0
    3.7750   -6.2917    0.0000 O   0  0  0  0  0  0  0  0  0  0  0  0
    3.7625   -3.3875    0.0000 O   0  0  0  0  0  0  0  0  0  0  0  0
    7.4792   -7.1792    0.0000 O   0  0  0  0  0  0  0  0  0  0  0  0
    2.7125   -4.8417    0.0000 C   0  0  0  0  0  0  0  0  0  0  0  0
    6.0625   -7.0292    0.0000 O   0  0  0  0  0  0  0  0  0  0  0  0
    7.6500   -5.5375    0.0000 C   0  0  0  0  0  0  0  0  0  0  0  0
    6.3125   -4.5750    0.0000 C   0  0  0  0  0  0  0  0  0  0  0  0
    2.2917   -4.1292    0.0000 C   0  0  0  0  0  0  0  0  0  0  0  0
    7.7292   -4.7125    0.0000 C   0  0  0  0  0  0  0  0  0  0  0  0
    7.0542   -4.2292    0.0000 C   0  0  0  0  0  0  0  0  0  0  0  0
    1.4667   -4.1292    0.0000 C   0  0  0  0  0  0  0  0  0  0  0  0
  2  1  1  0  0  0  0
  3  1  1  0  0  0  0
  4  2  1  0  0  0  0
  5  3  1  0  0  0  0
  6  8  2  0  0  0  0
  7  4  1  0  0  0  0
  8  7  1  0  0  0  0
  9  6  1  0  0  0  0
 10  2  2  0  0  0  0
 11  3  2  0  0  0  0
 12  9  2  0  0  0  0
 13  1  1  0  0  0  0
 14  9  1  0  0  0  0
 15  6  1  0  0  0  0
 16  8  1  0  0  0  0
 17 13  1  0  0  0  0
 18 19  1  0  0  0  0
 19 16  2  0  0  0  0
 20 17  1  0  0  0  0
  5  4  1  0  0  0  0
 18 15  2  0  0  0  0
M  END
>  <IDNUMBER>
F3023-0448

>  <Chemical_Name>
2-[(2,5-dioxo-1-propylpyrrolidin-3-yl)sulfanyl]benzoic acid

>  <PriceCoeff>
1.00

>  <CAS>
838867-39-3

>  <MW>
293.34

>  <Description>
solid

>  <FSP3>
0.36

>  <clogP>
2.30

>  <TPSA>
99.98

>  <Acceptor>
4

>  <Donor>
0

>  <RotBonds>
5

>  <HAC>
20

>  <Collection>
General

>  <PPDS>
+

$$$$
F3023-0449
  Mrv2219 10102508112D          

 25 27  0  0  0  0            999 V2000
    3.3167   -5.2167    0.0000 N   0  0  0  0  0  0  0  0  0  0  0  0
    3.8125   -5.8792    0.0000 C   0  0  0  0  0  0  0  0  0  0  0  0
    3.8042   -4.5417    0.0000 C   0  0  0  0  0  0  0  0  0  0  0  0
    4.5917   -5.6167    0.0000 C   0  0  0  0  0  0  0  0  0  0  0  0
    4.5917   -4.7917    0.0000 C   0  0  0  0  0  0  0  0  0  0  0  0
    6.6792   -6.2500    0.0000 C   0  0  0  0  0  0  0  0  0  0  0  0
    5.2625   -6.1042    0.0000 S   0  0  0  0  0  0  0  0  0  0  0  0
    6.0167   -5.7667    0.0000 C   0  0  0  0  0  0  0  0  0  0  0  0
    6.6000   -7.0667    0.0000 C   0  0  0  0  0  0  0  0  0  0  0  0
    2.4917   -5.2167    0.0000 C   0  0  0  0  0  0  0  0  0  0  0  0
    3.5542   -6.6667    0.0000 O   0  0  0  0  0  0  0  0  0  0  0  0
    3.5417   -3.7625    0.0000 O   0  0  0  0  0  0  0  0  0  0  0  0
    7.2667   -7.5542    0.0000 O   0  0  0  0  0  0  0  0  0  0  0  0
    2.0792   -4.5042    0.0000 C   0  0  0  0  0  0  0  0  0  0  0  0
    5.8417   -7.4042    0.0000 O   0  0  0  0  0  0  0  0  0  0  0  0
    7.4375   -5.9125    0.0000 C   0  0  0  0  0  0  0  0  0  0  0  0
    1.2542   -4.5042    0.0000 C   0  0  0  0  0  0  0  0  0  0  0  0
    6.0917   -4.9500    0.0000 C   0  0  0  0  0  0  0  0  0  0  0  0
    0.8417   -3.8000    0.0000 C   0  0  0  0  0  0  0  0  0  0  0  0
    0.8500   -5.2292    0.0000 C   0  0  0  0  0  0  0  0  0  0  0  0
    7.5167   -5.0875    0.0000 C   0  0  0  0  0  0  0  0  0  0  0  0
    6.8417   -4.6042    0.0000 C   0  0  0  0  0  0  0  0  0  0  0  0
    0.0292   -5.2375    0.0000 C   0  0  0  0  0  0  0  0  0  0  0  0
    0.0167   -3.8042    0.0000 C   0  0  0  0  0  0  0  0  0  0  0  0
   -0.3958   -4.5167    0.0000 C   0  0  0  0  0  0  0  0  0  0  0  0
  2  1  1  0  0  0  0
  3  1  1  0  0  0  0
  4  2  1  0  0  0  0
  5  3  1  0  0  0  0
  6  8  2  0  0  0  0
  7  4  1  0  0  0  0
  8  7  1  0  0  0  0
  9  6  1  0  0  0  0
 10  1  1  0  0  0  0
 11  2  2  0  0  0  0
 12  3  2  0  0  0  0
 13  9  2  0  0  0  0
 14 10  1  0  0  0  0
 15  9  1  0  0  0  0
 16  6  1  0  0  0  0
 17 14  1  0  0  0  0
 18  8  1  0  0  0  0
 19 17  2  0  0  0  0
 20 17  1  0  0  0  0
 21 22  1  0  0  0  0
 22 18  2  0  0  0  0
 23 20  2  0  0  0  0
 24 19  1  0  0  0  0
 25 23  1  0  0  0  0
  5  4  1  0  0  0  0
 25 24  2  0  0  0  0
 21 16  2  0  0  0  0
M  END
>  <IDNUMBER>
F3023-0449

>  <Chemical_Name>
2-{[2,5-dioxo-1-(2-phenylethyl)pyrrolidin-3-yl]sulfanyl}benzoic acid

>  <PriceCoeff>
1.00

>  <CAS>
838884-74-5

>  <MW>
355.41

>  <Description>
solid

>  <FSP3>
0.21

>  <clogP>
3.34

>  <TPSA>
99.98

>  <Acceptor>
4

>  <Donor>
0

>  <RotBonds>
6

>  <HAC>
25

>  <Collection>
General

>  <PPDS>
+

$$$$
F3023-0450
  Mrv2219 10102508112D          

 27 29  0  0  0  0            999 V2000
    4.0417   -5.0000    0.0000 N   0  0  0  0  0  0  0  0  0  0  0  0
    4.5292   -4.3292    0.0000 C   0  0  0  0  0  0  0  0  0  0  0  0
    4.5375   -5.6667    0.0000 C   0  0  0  0  0  0  0  0  0  0  0  0
    3.2167   -5.0042    0.0000 C   0  0  0  0  0  0  0  0  0  0  0  0
    2.8042   -4.2917    0.0000 C   0  0  0  0  0  0  0  0  0  0  0  0
    5.3167   -5.4042    0.0000 C   0  0  0  0  0  0  0  0  0  0  0  0
    5.3167   -4.5792    0.0000 C   0  0  0  0  0  0  0  0  0  0  0  0
    7.4042   -6.0292    0.0000 C   0  0  0  0  0  0  0  0  0  0  0  0
    5.9875   -5.8875    0.0000 S   0  0  0  0  0  0  0  0  0  0  0  0
    6.7417   -5.5500    0.0000 C   0  0  0  0  0  0  0  0  0  0  0  0
    3.2167   -3.5750    0.0000 C   0  0  0  0  0  0  0  0  0  0  0  0
    7.3250   -6.8542    0.0000 C   0  0  0  0  0  0  0  0  0  0  0  0
    4.2667   -3.5417    0.0000 O   0  0  0  0  0  0  0  0  0  0  0  0
    4.2792   -6.4500    0.0000 O   0  0  0  0  0  0  0  0  0  0  0  0
    3.7500   -3.5667    0.0000 O   0  0  0  0  0  0  0  0  0  0  0  0
    7.9917   -7.3375    0.0000 O   0  0  0  0  0  0  0  0  0  0  0  0
    6.5667   -7.1917    0.0000 O   0  0  0  0  0  0  0  0  0  0  0  0
    2.8042   -2.8625    0.0000 O   0  0  0  0  0  0  0  0  0  0  0  0
    2.8167   -5.7167    0.0000 C   0  0  0  0  0  0  0  0  0  0  0  0
    1.9792   -4.2917    0.0000 C   0  0  0  0  0  0  0  0  0  0  0  0
    8.1625   -5.6917    0.0000 C   0  0  0  0  0  0  0  0  0  0  0  0
    6.8167   -4.7292    0.0000 C   0  0  0  0  0  0  0  0  0  0  0  0
    3.2125   -2.1417    0.0000 C   0  0  0  0  0  0  0  0  0  0  0  0
    1.5750   -5.0125    0.0000 C   0  0  0  0  0  0  0  0  0  0  0  0
    1.9917   -5.7250    0.0000 C   0  0  0  0  0  0  0  0  0  0  0  0
    8.2417   -4.8667    0.0000 C   0  0  0  0  0  0  0  0  0  0  0  0
    7.5667   -4.3917    0.0000 C   0  0  0  0  0  0  0  0  0  0  0  0
  2  1  1  0  0  0  0
  3  1  1  0  0  0  0
  4  1  1  0  0  0  0
  5  4  2  0  0  0  0
  6  3  1  0  0  0  0
  7  2  1  0  0  0  0
  8 10  2  0  0  0  0
  9  6  1  0  0  0  0
 10  9  1  0  0  0  0
 11  5  1  0  0  0  0
 12  8  1  0  0  0  0
 13  2  2  0  0  0  0
 14  3  2  0  0  0  0
 15 11  2  0  0  0  0
 16 12  2  0  0  0  0
 17 12  1  0  0  0  0
 18 11  1  0  0  0  0
 19  4  1  0  0  0  0
 20  5  1  0  0  0  0
 21  8  1  0  0  0  0
 22 10  1  0  0  0  0
 23 18  1  0  0  0  0
 24 25  1  0  0  0  0
 25 19  2  0  0  0  0
 26 27  1  0  0  0  0
 27 22  2  0  0  0  0
  7  6  1  0  0  0  0
 24 20  2  0  0  0  0
 26 21  2  0  0  0  0
M  END
>  <IDNUMBER>
F3023-0450

>  <Chemical_Name>
2-({1-[2-(methoxycarbonyl)phenyl]-2,5-dioxopyrrolidin-3-yl}sulfanyl)benzoic acid

>  <PriceCoeff>
1.00

>  <CAS>
924865-44-1

>  <MW>
385.39

>  <Description>
solid

>  <FSP3>
0.16

>  <clogP>
2.55

>  <TPSA>
126.28

>  <Acceptor>
6

>  <Donor>
0

>  <RotBonds>
6

>  <HAC>
27

>  <Collection>
General

>  <PPDS>
+

$$$$
F3023-0610
  Mrv2219 10102508112D          

 25 27  0  0  0  0            999 V2000
    5.1125   -5.9667    0.0000 N   0  0  0  0  0  0  0  0  0  0  0  0
    5.5917   -5.2917    0.0000 C   0  0  0  0  0  0  0  0  0  0  0  0
    5.6042   -6.6292    0.0000 C   0  0  0  0  0  0  0  0  0  0  0  0
    6.3875   -6.3667    0.0000 C   0  0  0  0  0  0  0  0  0  0  0  0
    6.3792   -5.5417    0.0000 C   0  0  0  0  0  0  0  0  0  0  0  0
    7.8042   -6.5167    0.0000 C   0  0  0  0  0  0  0  0  0  0  0  0
    4.2875   -5.9667    0.0000 C   0  0  0  0  0  0  0  0  0  0  0  0
    8.4750   -7.0000    0.0000 C   0  0  0  0  0  0  0  0  0  0  0  0
    7.0542   -6.8542    0.0000 S   0  0  0  0  0  0  0  0  0  0  0  0
    3.8750   -5.2542    0.0000 C   0  0  0  0  0  0  0  0  0  0  0  0
    8.3917   -7.8167    0.0000 C   0  0  0  0  0  0  0  0  0  0  0  0
    3.0500   -5.2625    0.0000 C   0  0  0  0  0  0  0  0  0  0  0  0
    7.8875   -5.7000    0.0000 N   0  0  0  0  0  0  0  0  0  0  0  0
    3.8792   -6.6875    0.0000 C   0  0  0  0  0  0  0  0  0  0  0  0
    5.3375   -4.5042    0.0000 O   0  0  0  0  0  0  0  0  0  0  0  0
    5.3500   -7.4167    0.0000 O   0  0  0  0  0  0  0  0  0  0  0  0
    9.0542   -8.3042    0.0000 O   0  0  0  0  0  0  0  0  0  0  0  0
    2.6417   -5.9792    0.0000 C   0  0  0  0  0  0  0  0  0  0  0  0
    4.2792   -4.5417    0.0000 Cl  0  0  0  0  0  0  0  0  0  0  0  0
    7.6375   -8.1542    0.0000 O   0  0  0  0  0  0  0  0  0  0  0  0
    3.0625   -6.6917    0.0000 C   0  0  0  0  0  0  0  0  0  0  0  0
    1.8167   -5.9792    0.0000 Cl  0  0  0  0  0  0  0  0  0  0  0  0
    9.2250   -6.6625    0.0000 C   0  0  0  0  0  0  0  0  0  0  0  0
    8.6292   -5.3542    0.0000 C   0  0  0  0  0  0  0  0  0  0  0  0
    9.3042   -5.8375    0.0000 C   0  0  0  0  0  0  0  0  0  0  0  0
  2  1  1  0  0  0  0
  3  1  1  0  0  0  0
  4  3  1  0  0  0  0
  5  2  1  0  0  0  0
  6  9  1  0  0  0  0
  7  1  1  0  0  0  0
  8  6  2  0  0  0  0
  9  4  1  0  0  0  0
 10  7  2  0  0  0  0
 11  8  1  0  0  0  0
 12 10  1  0  0  0  0
 13  6  1  0  0  0  0
 14  7  1  0  0  0  0
 15  2  2  0  0  0  0
 16  3  2  0  0  0  0
 17 11  2  0  0  0  0
 18 21  1  0  0  0  0
 19 10  1  0  0  0  0
 20 11  1  0  0  0  0
 21 14  2  0  0  0  0
 22 18  1  0  0  0  0
 23  8  1  0  0  0  0
 24 13  2  0  0  0  0
 25 24  1  0  0  0  0
  5  4  1  0  0  0  0
 18 12  2  0  0  0  0
 25 23  2  0  0  0  0
M  END
>  <IDNUMBER>
F3023-0610

>  <Chemical_Name>
2-{[1-(2,4-dichlorophenyl)-2,5-dioxopyrrolidin-3-yl]sulfanyl}pyridine-3-carboxylic acid

>  <PriceCoeff>
1.00

>  <CAS>
838881-48-4

>  <MW>
397.23

>  <Description>
solid

>  <FSP3>
0.12

>  <clogP>
2.91

>  <TPSA>
112.87

>  <Acceptor>
5

>  <Donor>
1

>  <RotBonds>
4

>  <HAC>
25

>  <Collection>
General

>  <PPDS>
+

$$$$
F3023-0612
  Mrv2219 10102508112D          

 25 27  0  0  0  0            999 V2000
    5.1125   -5.9667    0.0000 N   0  0  0  0  0  0  0  0  0  0  0  0
    5.5917   -5.2917    0.0000 C   0  0  0  0  0  0  0  0  0  0  0  0
    5.6042   -6.6292    0.0000 C   0  0  0  0  0  0  0  0  0  0  0  0
    6.3875   -6.3667    0.0000 C   0  0  0  0  0  0  0  0  0  0  0  0
    4.2875   -5.9667    0.0000 C   0  0  0  0  0  0  0  0  0  0  0  0
    6.3792   -5.5417    0.0000 C   0  0  0  0  0  0  0  0  0  0  0  0
    7.8042   -6.5167    0.0000 C   0  0  0  0  0  0  0  0  0  0  0  0
    8.4750   -7.0000    0.0000 C   0  0  0  0  0  0  0  0  0  0  0  0
    7.0542   -6.8542    0.0000 S   0  0  0  0  0  0  0  0  0  0  0  0
    3.8750   -5.2542    0.0000 C   0  0  0  0  0  0  0  0  0  0  0  0
    8.3917   -7.8167    0.0000 C   0  0  0  0  0  0  0  0  0  0  0  0
    3.0500   -5.2625    0.0000 C   0  0  0  0  0  0  0  0  0  0  0  0
    7.8875   -5.7000    0.0000 N   0  0  0  0  0  0  0  0  0  0  0  0
    5.3375   -4.5042    0.0000 O   0  0  0  0  0  0  0  0  0  0  0  0
    5.3500   -7.4167    0.0000 O   0  0  0  0  0  0  0  0  0  0  0  0
    3.8792   -6.6875    0.0000 C   0  0  0  0  0  0  0  0  0  0  0  0
    2.6417   -5.9792    0.0000 C   0  0  0  0  0  0  0  0  0  0  0  0
    9.0542   -8.3042    0.0000 O   0  0  0  0  0  0  0  0  0  0  0  0
    3.0625   -6.6917    0.0000 C   0  0  0  0  0  0  0  0  0  0  0  0
    2.6292   -4.5500    0.0000 Cl  0  0  0  0  0  0  0  0  0  0  0  0
    7.6375   -8.1542    0.0000 O   0  0  0  0  0  0  0  0  0  0  0  0
    1.8167   -5.9792    0.0000 Cl  0  0  0  0  0  0  0  0  0  0  0  0
    9.2250   -6.6625    0.0000 C   0  0  0  0  0  0  0  0  0  0  0  0
    8.6292   -5.3542    0.0000 C   0  0  0  0  0  0  0  0  0  0  0  0
    9.3042   -5.8375    0.0000 C   0  0  0  0  0  0  0  0  0  0  0  0
  2  1  1  0  0  0  0
  3  1  1  0  0  0  0
  4  3  1  0  0  0  0
  5  1  1  0  0  0  0
  6  2  1  0  0  0  0
  7  9  1  0  0  0  0
  8  7  2  0  0  0  0
  9  4  1  0  0  0  0
 10  5  2  0  0  0  0
 11  8  1  0  0  0  0
 12 10  1  0  0  0  0
 13  7  1  0  0  0  0
 14  2  2  0  0  0  0
 15  3  2  0  0  0  0
 16  5  1  0  0  0  0
 17 19  1  0  0  0  0
 18 11  2  0  0  0  0
 19 16  2  0  0  0  0
 20 12  1  0  0  0  0
 21 11  1  0  0  0  0
 22 17  1  0  0  0  0
 23  8  1  0  0  0  0
 24 13  2  0  0  0  0
 25 24  1  0  0  0  0
  6  4  1  0  0  0  0
 17 12  2  0  0  0  0
 25 23  2  0  0  0  0
M  END
>  <IDNUMBER>
F3023-0612

>  <Chemical_Name>
2-{[1-(3,4-dichlorophenyl)-2,5-dioxopyrrolidin-3-yl]sulfanyl}pyridine-3-carboxylic acid

>  <PriceCoeff>
1.00

>  <CAS>
838882-20-5

>  <MW>
397.23

>  <Description>
solid

>  <FSP3>
0.12

>  <clogP>
3.19

>  <TPSA>
112.87

>  <Acceptor>
5

>  <Donor>
1

>  <RotBonds>
4

>  <HAC>
25

>  <Collection>
General

>  <PPDS>
+

$$$$
F3023-0613
  Mrv2219 10102508112D          

 24 26  0  0  0  0            999 V2000
    5.1125   -5.9667    0.0000 N   0  0  0  0  0  0  0  0  0  0  0  0
    5.5917   -5.2917    0.0000 C   0  0  0  0  0  0  0  0  0  0  0  0
    5.6042   -6.6292    0.0000 C   0  0  0  0  0  0  0  0  0  0  0  0
    6.3875   -6.3667    0.0000 C   0  0  0  0  0  0  0  0  0  0  0  0
    6.3792   -5.5417    0.0000 C   0  0  0  0  0  0  0  0  0  0  0  0
    7.8042   -6.5167    0.0000 C   0  0  0  0  0  0  0  0  0  0  0  0
    8.4750   -7.0000    0.0000 C   0  0  0  0  0  0  0  0  0  0  0  0
    7.0542   -6.8542    0.0000 S   0  0  0  0  0  0  0  0  0  0  0  0
    8.3917   -7.8167    0.0000 C   0  0  0  0  0  0  0  0  0  0  0  0
    4.2875   -5.9667    0.0000 C   0  0  0  0  0  0  0  0  0  0  0  0
    7.8875   -5.7000    0.0000 N   0  0  0  0  0  0  0  0  0  0  0  0
    5.3375   -4.5042    0.0000 O   0  0  0  0  0  0  0  0  0  0  0  0
    5.3500   -7.4167    0.0000 O   0  0  0  0  0  0  0  0  0  0  0  0
    9.0542   -8.3042    0.0000 O   0  0  0  0  0  0  0  0  0  0  0  0
    3.8750   -5.2542    0.0000 C   0  0  0  0  0  0  0  0  0  0  0  0
    3.8792   -6.6875    0.0000 C   0  0  0  0  0  0  0  0  0  0  0  0
    7.6375   -8.1542    0.0000 O   0  0  0  0  0  0  0  0  0  0  0  0
    2.6417   -5.9792    0.0000 C   0  0  0  0  0  0  0  0  0  0  0  0
    3.0625   -6.6917    0.0000 C   0  0  0  0  0  0  0  0  0  0  0  0
    3.0500   -5.2625    0.0000 C   0  0  0  0  0  0  0  0  0  0  0  0
    1.8167   -5.9792    0.0000 Cl  0  0  0  0  0  0  0  0  0  0  0  0
    9.2250   -6.6625    0.0000 C   0  0  0  0  0  0  0  0  0  0  0  0
    8.6292   -5.3542    0.0000 C   0  0  0  0  0  0  0  0  0  0  0  0
    9.3042   -5.8375    0.0000 C   0  0  0  0  0  0  0  0  0  0  0  0
  2  1  1  0  0  0  0
  3  1  1  0  0  0  0
  4  3  1  0  0  0  0
  5  2  1  0  0  0  0
  6  8  1  0  0  0  0
  7  6  2  0  0  0  0
  8  4  1  0  0  0  0
  9  7  1  0  0  0  0
 10  1  1  0  0  0  0
 11  6  1  0  0  0  0
 12  2  2  0  0  0  0
 13  3  2  0  0  0  0
 14  9  2  0  0  0  0
 15 10  2  0  0  0  0
 16 10  1  0  0  0  0
 17  9  1  0  0  0  0
 18 19  1  0  0  0  0
 19 16  2  0  0  0  0
 20 15  1  0  0  0  0
 21 18  1  0  0  0  0
 22  7  1  0  0  0  0
 23 11  2  0  0  0  0
 24 23  1  0  0  0  0
  5  4  1  0  0  0  0
 18 20  2  0  0  0  0
 24 22  2  0  0  0  0
M  END
>  <IDNUMBER>
F3023-0613

>  <Chemical_Name>
2-{[1-(4-chlorophenyl)-2,5-dioxopyrrolidin-3-yl]sulfanyl}pyridine-3-carboxylic acid

>  <PriceCoeff>
1.00

>  <CAS>
838890-59-8

>  <MW>
362.79

>  <Description>
solid

>  <FSP3>
0.12

>  <clogP>
2.50

>  <TPSA>
112.87

>  <Acceptor>
5

>  <Donor>
1

>  <RotBonds>
4

>  <HAC>
24

>  <Collection>
General

>  <PPDS>
+

$$$$
F3023-0617
  Mrv2219 10102508112D          

 24 26  0  0  0  0            999 V2000
    2.3750   -4.1875    0.0000 N   0  0  0  0  0  0  0  0  0  0  0  0
    2.8542   -3.5167    0.0000 C   0  0  0  0  0  0  0  0  0  0  0  0
    2.8667   -4.8542    0.0000 C   0  0  0  0  0  0  0  0  0  0  0  0
    3.6500   -4.5917    0.0000 C   0  0  0  0  0  0  0  0  0  0  0  0
    3.6417   -3.7667    0.0000 C   0  0  0  0  0  0  0  0  0  0  0  0
    5.0667   -4.7375    0.0000 C   0  0  0  0  0  0  0  0  0  0  0  0
    5.7375   -5.2167    0.0000 C   0  0  0  0  0  0  0  0  0  0  0  0
    4.3167   -5.0750    0.0000 S   0  0  0  0  0  0  0  0  0  0  0  0
    5.6542   -6.0417    0.0000 C   0  0  0  0  0  0  0  0  0  0  0  0
    1.5500   -4.1917    0.0000 C   0  0  0  0  0  0  0  0  0  0  0  0
    5.1500   -3.9167    0.0000 N   0  0  0  0  0  0  0  0  0  0  0  0
    2.6000   -2.7292    0.0000 O   0  0  0  0  0  0  0  0  0  0  0  0
    2.6125   -5.6375    0.0000 O   0  0  0  0  0  0  0  0  0  0  0  0
    6.3167   -6.5250    0.0000 O   0  0  0  0  0  0  0  0  0  0  0  0
    1.1375   -3.4792    0.0000 C   0  0  0  0  0  0  0  0  0  0  0  0
    1.1417   -4.9042    0.0000 C   0  0  0  0  0  0  0  0  0  0  0  0
    4.9000   -6.3792    0.0000 O   0  0  0  0  0  0  0  0  0  0  0  0
    0.3250   -4.9125    0.0000 C   0  0  0  0  0  0  0  0  0  0  0  0
    0.3125   -3.4792    0.0000 C   0  0  0  0  0  0  0  0  0  0  0  0
   -0.0958   -4.1917    0.0000 C   0  0  0  0  0  0  0  0  0  0  0  0
    6.4875   -4.8792    0.0000 C   0  0  0  0  0  0  0  0  0  0  0  0
    5.8917   -3.5792    0.0000 C   0  0  0  0  0  0  0  0  0  0  0  0
   -0.9208   -4.2042    0.0000 C   0  0  0  0  0  0  0  0  0  0  0  0
    6.5667   -4.0542    0.0000 C   0  0  0  0  0  0  0  0  0  0  0  0
  2  1  1  0  0  0  0
  3  1  1  0  0  0  0
  4  3  1  0  0  0  0
  5  2  1  0  0  0  0
  6  8  1  0  0  0  0
  7  6  2  0  0  0  0
  8  4  1  0  0  0  0
  9  7  1  0  0  0  0
 10  1  1  0  0  0  0
 11  6  1  0  0  0  0
 12  2  2  0  0  0  0
 13  3  2  0  0  0  0
 14  9  2  0  0  0  0
 15 10  2  0  0  0  0
 16 10  1  0  0  0  0
 17  9  1  0  0  0  0
 18 16  2  0  0  0  0
 19 15  1  0  0  0  0
 20 18  1  0  0  0  0
 21  7  1  0  0  0  0
 22 11  2  0  0  0  0
 23 20  1  0  0  0  0
 24 22  1  0  0  0  0
  5  4  1  0  0  0  0
 20 19  2  0  0  0  0
 24 21  2  0  0  0  0
M  END
>  <IDNUMBER>
F3023-0617

>  <Chemical_Name>
2-{[1-(4-methylphenyl)-2,5-dioxopyrrolidin-3-yl]sulfanyl}pyridine-3-carboxylic acid

>  <PriceCoeff>
1.00

>  <CAS>
838874-00-3

>  <MW>
342.37

>  <Description>
solid

>  <FSP3>
0.18

>  <clogP>
2.01

>  <TPSA>
112.87

>  <Acceptor>
5

>  <Donor>
1

>  <RotBonds>
4

>  <HAC>
24

>  <Collection>
General

>  <PPDS>
+

$$$$
F3023-0618
  Mrv2219 10102508112D          

 29 32  0  0  0  0            999 V2000
    5.1125   -5.9667    0.0000 N   0  0  0  0  0  0  0  0  0  0  0  0
    5.5917   -5.2917    0.0000 C   0  0  0  0  0  0  0  0  0  0  0  0
    5.6042   -6.6292    0.0000 C   0  0  0  0  0  0  0  0  0  0  0  0
    6.3875   -6.3667    0.0000 C   0  0  0  0  0  0  0  0  0  0  0  0
    6.3792   -5.5417    0.0000 C   0  0  0  0  0  0  0  0  0  0  0  0
    7.8042   -6.5167    0.0000 C   0  0  0  0  0  0  0  0  0  0  0  0
    8.4750   -7.0000    0.0000 C   0  0  0  0  0  0  0  0  0  0  0  0
    7.0542   -6.8542    0.0000 S   0  0  0  0  0  0  0  0  0  0  0  0
    8.3917   -7.8167    0.0000 C   0  0  0  0  0  0  0  0  0  0  0  0
    1.8167   -5.9875    0.0000 N   0  0  0  0  0  0  0  0  0  0  0  0
    4.2875   -5.9667    0.0000 C   0  0  0  0  0  0  0  0  0  0  0  0
    7.8875   -5.7000    0.0000 N   0  0  0  0  0  0  0  0  0  0  0  0
    2.6417   -5.9792    0.0000 C   0  0  0  0  0  0  0  0  0  0  0  0
    5.3375   -4.5042    0.0000 O   0  0  0  0  0  0  0  0  0  0  0  0
    5.3500   -7.4167    0.0000 O   0  0  0  0  0  0  0  0  0  0  0  0
    9.0542   -8.3042    0.0000 O   0  0  0  0  0  0  0  0  0  0  0  0
    3.8792   -6.6875    0.0000 C   0  0  0  0  0  0  0  0  0  0  0  0
    3.8750   -5.2542    0.0000 C   0  0  0  0  0  0  0  0  0  0  0  0
    3.0500   -5.2625    0.0000 C   0  0  0  0  0  0  0  0  0  0  0  0
    3.0625   -6.6917    0.0000 C   0  0  0  0  0  0  0  0  0  0  0  0
    7.6375   -8.1542    0.0000 O   0  0  0  0  0  0  0  0  0  0  0  0
    9.2250   -6.6625    0.0000 C   0  0  0  0  0  0  0  0  0  0  0  0
    1.4042   -5.2667    0.0000 C   0  0  0  0  0  0  0  0  0  0  0  0
    1.4125   -6.7042    0.0000 C   0  0  0  0  0  0  0  0  0  0  0  0
    8.6292   -5.3542    0.0000 C   0  0  0  0  0  0  0  0  0  0  0  0
    9.3042   -5.8375    0.0000 C   0  0  0  0  0  0  0  0  0  0  0  0
    0.5875   -6.7042    0.0000 C   0  0  0  0  0  0  0  0  0  0  0  0
    0.5792   -5.2750    0.0000 C   0  0  0  0  0  0  0  0  0  0  0  0
    0.1667   -5.9917    0.0000 C   0  0  0  0  0  0  0  0  0  0  0  0
  2  1  1  0  0  0  0
  3  1  1  0  0  0  0
  4  3  1  0  0  0  0
  5  2  1  0  0  0  0
  6  8  1  0  0  0  0
  7  6  2  0  0  0  0
  8  4  1  0  0  0  0
  9  7  1  0  0  0  0
 10 13  1  0  0  0  0
 11  1  1  0  0  0  0
 12  6  1  0  0  0  0
 13 19  2  0  0  0  0
 14  2  2  0  0  0  0
 15  3  2  0  0  0  0
 16  9  2  0  0  0  0
 17 11  1  0  0  0  0
 18 11  2  0  0  0  0
 19 18  1  0  0  0  0
 20 17  2  0  0  0  0
 21  9  1  0  0  0  0
 22  7  1  0  0  0  0
 23 10  1  0  0  0  0
 24 10  1  0  0  0  0
 25 12  2  0  0  0  0
 26 25  1  0  0  0  0
 27 24  1  0  0  0  0
 28 23  1  0  0  0  0
 29 27  1  0  0  0  0
  5  4  1  0  0  0  0
 13 20  1  0  0  0  0
 26 22  2  0  0  0  0
 29 28  1  0  0  0  0
M  END
>  <IDNUMBER>
F3023-0618

>  <Chemical_Name>
2-({2,5-dioxo-1-[4-(piperidin-1-yl)phenyl]pyrrolidin-3-yl}sulfanyl)pyridine-3-carboxylic acid

>  <PriceCoeff>
1.00

>  <CAS>
847241-31-0

>  <MW>
411.47

>  <Description>
solid

>  <FSP3>
0.33

>  <clogP>
2.35

>  <TPSA>
116.11

>  <Acceptor>
6

>  <Donor>
2

>  <RotBonds>
5

>  <HAC>
29

>  <Collection>
General

>  <PPDS>
+

$$$$
F3023-0619
  Mrv2219 10102508112D          

 25 27  0  0  0  0            999 V2000
    5.1125   -5.9667    0.0000 N   0  0  0  0  0  0  0  0  0  0  0  0
    5.5917   -5.2917    0.0000 C   0  0  0  0  0  0  0  0  0  0  0  0
    5.6042   -6.6292    0.0000 C   0  0  0  0  0  0  0  0  0  0  0  0
    6.3875   -6.3667    0.0000 C   0  0  0  0  0  0  0  0  0  0  0  0
    4.2875   -5.9667    0.0000 C   0  0  0  0  0  0  0  0  0  0  0  0
    6.3792   -5.5417    0.0000 C   0  0  0  0  0  0  0  0  0  0  0  0
    7.8042   -6.5167    0.0000 C   0  0  0  0  0  0  0  0  0  0  0  0
    8.4750   -7.0000    0.0000 C   0  0  0  0  0  0  0  0  0  0  0  0
    7.0542   -6.8542    0.0000 S   0  0  0  0  0  0  0  0  0  0  0  0
    3.8750   -5.2542    0.0000 C   0  0  0  0  0  0  0  0  0  0  0  0
    8.3917   -7.8167    0.0000 C   0  0  0  0  0  0  0  0  0  0  0  0
    3.0500   -5.2625    0.0000 C   0  0  0  0  0  0  0  0  0  0  0  0
    7.8875   -5.7000    0.0000 N   0  0  0  0  0  0  0  0  0  0  0  0
    5.3375   -4.5042    0.0000 O   0  0  0  0  0  0  0  0  0  0  0  0
    5.3500   -7.4167    0.0000 O   0  0  0  0  0  0  0  0  0  0  0  0
    3.8792   -6.6875    0.0000 C   0  0  0  0  0  0  0  0  0  0  0  0
    2.6417   -5.9792    0.0000 C   0  0  0  0  0  0  0  0  0  0  0  0
    9.0542   -8.3042    0.0000 O   0  0  0  0  0  0  0  0  0  0  0  0
    3.0625   -6.6917    0.0000 C   0  0  0  0  0  0  0  0  0  0  0  0
    2.6292   -4.5500    0.0000 Cl  0  0  0  0  0  0  0  0  0  0  0  0
    7.6375   -8.1542    0.0000 O   0  0  0  0  0  0  0  0  0  0  0  0
    1.8167   -5.9792    0.0000 F   0  0  0  0  0  0  0  0  0  0  0  0
    9.2250   -6.6625    0.0000 C   0  0  0  0  0  0  0  0  0  0  0  0
    8.6292   -5.3542    0.0000 C   0  0  0  0  0  0  0  0  0  0  0  0
    9.3042   -5.8375    0.0000 C   0  0  0  0  0  0  0  0  0  0  0  0
  2  1  1  0  0  0  0
  3  1  1  0  0  0  0
  4  3  1  0  0  0  0
  5  1  1  0  0  0  0
  6  2  1  0  0  0  0
  7  9  1  0  0  0  0
  8  7  2  0  0  0  0
  9  4  1  0  0  0  0
 10  5  2  0  0  0  0
 11  8  1  0  0  0  0
 12 10  1  0  0  0  0
 13  7  1  0  0  0  0
 14  2  2  0  0  0  0
 15  3  2  0  0  0  0
 16  5  1  0  0  0  0
 17 19  1  0  0  0  0
 18 11  2  0  0  0  0
 19 16  2  0  0  0  0
 20 12  1  0  0  0  0
 21 11  1  0  0  0  0
 22 17  1  0  0  0  0
 23  8  1  0  0  0  0
 24 13  2  0  0  0  0
 25 24  1  0  0  0  0
  6  4  1  0  0  0  0
 17 12  2  0  0  0  0
 25 23  2  0  0  0  0
M  END
>  <IDNUMBER>
F3023-0619

>  <Chemical_Name>
2-{[1-(3-chloro-4-fluorophenyl)-2,5-dioxopyrrolidin-3-yl]sulfanyl}pyridine-3-carboxylic acid

>  <PriceCoeff>
1.00

>  <CAS>
857494-03-2

>  <MW>
380.78

>  <Description>
solid

>  <FSP3>
0.12

>  <clogP>
2.74

>  <TPSA>
112.87

>  <Acceptor>
5

>  <Donor>
1

>  <RotBonds>
4

>  <HAC>
25

>  <Collection>
General

>  <PPDS>
+

$$$$
F3023-0624
  Mrv2219 10102508112D          

 25 27  0  0  0  0            999 V2000
    5.1125   -5.9667    0.0000 N   0  0  0  0  0  0  0  0  0  0  0  0
    5.5917   -5.2917    0.0000 C   0  0  0  0  0  0  0  0  0  0  0  0
    5.6042   -6.6292    0.0000 C   0  0  0  0  0  0  0  0  0  0  0  0
    6.3875   -6.3667    0.0000 C   0  0  0  0  0  0  0  0  0  0  0  0
    6.3792   -5.5417    0.0000 C   0  0  0  0  0  0  0  0  0  0  0  0
    7.8042   -6.5167    0.0000 C   0  0  0  0  0  0  0  0  0  0  0  0
    8.4750   -7.0000    0.0000 C   0  0  0  0  0  0  0  0  0  0  0  0
    7.0542   -6.8542    0.0000 S   0  0  0  0  0  0  0  0  0  0  0  0
    8.3917   -7.8167    0.0000 C   0  0  0  0  0  0  0  0  0  0  0  0
    4.2875   -5.9667    0.0000 C   0  0  0  0  0  0  0  0  0  0  0  0
    7.8875   -5.7000    0.0000 N   0  0  0  0  0  0  0  0  0  0  0  0
    5.3375   -4.5042    0.0000 O   0  0  0  0  0  0  0  0  0  0  0  0
    5.3500   -7.4167    0.0000 O   0  0  0  0  0  0  0  0  0  0  0  0
    9.0542   -8.3042    0.0000 O   0  0  0  0  0  0  0  0  0  0  0  0
    3.8750   -5.2542    0.0000 C   0  0  0  0  0  0  0  0  0  0  0  0
    3.8792   -6.6875    0.0000 C   0  0  0  0  0  0  0  0  0  0  0  0
    7.6375   -8.1542    0.0000 O   0  0  0  0  0  0  0  0  0  0  0  0
    3.0625   -6.6917    0.0000 C   0  0  0  0  0  0  0  0  0  0  0  0
    3.0500   -5.2625    0.0000 C   0  0  0  0  0  0  0  0  0  0  0  0
    2.6417   -5.9792    0.0000 C   0  0  0  0  0  0  0  0  0  0  0  0
    9.2250   -6.6625    0.0000 C   0  0  0  0  0  0  0  0  0  0  0  0
    8.6292   -5.3542    0.0000 C   0  0  0  0  0  0  0  0  0  0  0  0
    1.8167   -5.9792    0.0000 C   0  0  0  0  0  0  0  0  0  0  0  0
    9.3042   -5.8375    0.0000 C   0  0  0  0  0  0  0  0  0  0  0  0
    1.4000   -5.2667    0.0000 C   0  0  0  0  0  0  0  0  0  0  0  0
  2  1  1  0  0  0  0
  3  1  1  0  0  0  0
  4  3  1  0  0  0  0
  5  2  1  0  0  0  0
  6  8  1  0  0  0  0
  7  6  2  0  0  0  0
  8  4  1  0  0  0  0
  9  7  1  0  0  0  0
 10  1  1  0  0  0  0
 11  6  1  0  0  0  0
 12  2  2  0  0  0  0
 13  3  2  0  0  0  0
 14  9  2  0  0  0  0
 15 10  2  0  0  0  0
 16 10  1  0  0  0  0
 17  9  1  0  0  0  0
 18 16  2  0  0  0  0
 19 15  1  0  0  0  0
 20 18  1  0  0  0  0
 21  7  1  0  0  0  0
 22 11  2  0  0  0  0
 23 20  1  0  0  0  0
 24 22  1  0  0  0  0
 25 23  1  0  0  0  0
  5  4  1  0  0  0  0
 20 19  2  0  0  0  0
 24 21  2  0  0  0  0
M  END
>  <IDNUMBER>
F3023-0624

>  <Chemical_Name>
2-{[1-(4-ethylphenyl)-2,5-dioxopyrrolidin-3-yl]sulfanyl}pyridine-3-carboxylic acid

>  <PriceCoeff>
1.00

>  <CAS>
838905-98-9

>  <MW>
356.40

>  <Description>
solid

>  <FSP3>
0.22

>  <clogP>
2.54

>  <TPSA>
112.87

>  <Acceptor>
5

>  <Donor>
1

>  <RotBonds>
5

>  <HAC>
25

>  <Collection>
General

>  <PPDS>
+

$$$$
F3023-0626
  Mrv2219 10102508112D          

 24 26  0  0  0  0            999 V2000
    5.1095   -5.9632    0.0000 N   0  0  0  0  0  0  0  0  0  0  0  0
    5.5884   -5.2886    0.0000 C   0  0  0  0  0  0  0  0  0  0  0  0
    5.6009   -6.6253    0.0000 C   0  0  0  0  0  0  0  0  0  0  0  0
    6.3838   -6.3630    0.0000 C   0  0  0  0  0  0  0  0  0  0  0  0
    6.3755   -5.5385    0.0000 C   0  0  0  0  0  0  0  0  0  0  0  0
    7.7997   -6.5129    0.0000 C   0  0  0  0  0  0  0  0  0  0  0  0
    4.2850   -5.9632    0.0000 C   0  0  0  0  0  0  0  0  0  0  0  0
    8.4701   -6.9959    0.0000 C   0  0  0  0  0  0  0  0  0  0  0  0
    7.0501   -6.8502    0.0000 S   0  0  0  0  0  0  0  0  0  0  0  0
    8.3868   -7.8121    0.0000 C   0  0  0  0  0  0  0  0  0  0  0  0
    3.8727   -5.2511    0.0000 C   0  0  0  0  0  0  0  0  0  0  0  0
    7.8829   -5.6967    0.0000 N   0  0  0  0  0  0  0  0  0  0  0  0
    5.3344   -4.5016    0.0000 O   0  0  0  0  0  0  0  0  0  0  0  0
    5.3469   -7.4124    0.0000 O   0  0  0  0  0  0  0  0  0  0  0  0
    9.0489   -8.2994    0.0000 O   0  0  0  0  0  0  0  0  0  0  0  0
    3.0482   -5.2594    0.0000 C   0  0  0  0  0  0  0  0  0  0  0  0
    7.6330   -8.1494    0.0000 O   0  0  0  0  0  0  0  0  0  0  0  0
    3.8769   -6.6836    0.0000 C   0  0  0  0  0  0  0  0  0  0  0  0
    2.6277   -4.5473    0.0000 Br  0  0  0  0  0  0  0  0  0  0  0  0
    9.2196   -6.6586    0.0000 C   0  0  0  0  0  0  0  0  0  0  0  0
    3.0607   -6.6878    0.0000 C   0  0  0  0  0  0  0  0  0  0  0  0
    8.6242   -5.3511    0.0000 C   0  0  0  0  0  0  0  0  0  0  0  0
    2.6402   -5.9757    0.0000 C   0  0  0  0  0  0  0  0  0  0  0  0
    9.2988   -5.8341    0.0000 C   0  0  0  0  0  0  0  0  0  0  0  0
  2  1  1  0  0  0  0
  3  1  1  0  0  0  0
  4  3  1  0  0  0  0
  5  2  1  0  0  0  0
  6  9  1  0  0  0  0
  7  1  1  0  0  0  0
  8  6  2  0  0  0  0
  9  4  1  0  0  0  0
 10  8  1  0  0  0  0
 11  7  2  0  0  0  0
 12  6  1  0  0  0  0
 13  2  2  0  0  0  0
 14  3  2  0  0  0  0
 15 10  2  0  0  0  0
 16 11  1  0  0  0  0
 17 10  1  0  0  0  0
 18  7  1  0  0  0  0
 19 16  1  0  0  0  0
 20  8  1  0  0  0  0
 21 18  2  0  0  0  0
 22 12  2  0  0  0  0
 23 21  1  0  0  0  0
 24 22  1  0  0  0  0
  5  4  1  0  0  0  0
 23 16  2  0  0  0  0
 24 20  2  0  0  0  0
M  END
>  <IDNUMBER>
F3023-0626

>  <Chemical_Name>
2-{[1-(3-bromophenyl)-2,5-dioxopyrrolidin-3-yl]sulfanyl}pyridine-3-carboxylic acid

>  <PriceCoeff>
1.00

>  <CAS>
838866-99-2

>  <MW>
407.24

>  <Description>
solid

>  <FSP3>
0.12

>  <clogP>
2.65

>  <TPSA>
112.87

>  <Acceptor>
5

>  <Donor>
1

>  <RotBonds>
4

>  <HAC>
24

>  <Collection>
General

>  <PPDS>
+

$$$$
F3023-0825
  Mrv2219 10102508112D          

 26 28  0  0  0  0            999 V2000
    2.5183    0.4438    0.0000 N   0  0  0  0  0  0  0  0  0  0  0  0
    3.0104   -0.2220    0.0000 C   0  0  0  0  0  0  0  0  0  0  0  0
    3.0008    1.1144    0.0000 C   0  0  0  0  0  0  0  0  0  0  0  0
    3.7968    0.0386    0.0000 C   0  0  0  0  0  0  0  0  0  0  0  0
    3.7920    0.8635    0.0000 C   0  0  0  0  0  0  0  0  0  0  0  0
    1.6934    0.4438    0.0000 C   0  0  0  0  0  0  0  0  0  0  0  0
    4.4626   -0.4391    0.0000 N   0  0  0  0  0  0  0  0  0  0  0  0
    5.7941   -1.4184    0.0000 N   0  0  0  0  0  0  0  0  0  0  0  0
    6.4695   -1.8960    0.0000 C   0  0  0  0  0  0  0  0  0  0  0  0
    1.2930   -0.2799    0.0000 C   0  0  0  0  0  0  0  0  0  0  0  0
    2.7548   -1.0035    0.0000 O   0  0  0  0  0  0  0  0  0  0  0  0
    1.2785    1.1530    0.0000 C   0  0  0  0  0  0  0  0  0  0  0  0
    2.7403    1.8911    0.0000 O   0  0  0  0  0  0  0  0  0  0  0  0
    5.8809   -0.5934    0.0000 C   0  0  0  0  0  0  0  0  0  0  0  0
    5.0415   -1.7512    0.0000 C   0  0  0  0  0  0  0  0  0  0  0  0
    5.2152   -0.1062    0.0000 C   0  0  0  0  0  0  0  0  0  0  0  0
    4.3757   -1.2640    0.0000 C   0  0  0  0  0  0  0  0  0  0  0  0
    6.3826   -2.7113    0.0000 O   0  0  0  0  0  0  0  0  0  0  0  0
    0.4680   -0.2799    0.0000 C   0  0  0  0  0  0  0  0  0  0  0  0
    0.0483    0.4293    0.0000 C   0  0  0  0  0  0  0  0  0  0  0  0
    7.2221   -1.5631    0.0000 O   0  0  0  0  0  0  0  0  0  0  0  0
    0.4535    1.1530    0.0000 C   0  0  0  0  0  0  0  0  0  0  0  0
   -0.7767    0.4197    0.0000 I   0  0  0  0  0  0  0  0  0  0  0  0
    1.7078   -0.9890    0.0000 C   0  0  0  0  0  0  0  0  0  0  0  0
    7.8878   -2.0407    0.0000 C   0  0  0  0  0  0  0  0  0  0  0  0
    8.6453   -1.7078    0.0000 C   0  0  0  0  0  0  0  0  0  0  0  0
  2  1  1  0  0  0  0
  3  1  1  0  0  0  0
  4  2  1  0  0  0  0
  5  3  1  0  0  0  0
  6  1  1  0  0  0  0
  7  4  1  0  0  0  0
  8 15  1  0  0  0  0
  9  8  1  0  0  0  0
 10  6  1  0  0  0  0
 11  2  2  0  0  0  0
 12  6  2  0  0  0  0
 13  3  2  0  0  0  0
 14 16  1  0  0  0  0
 15 17  1  0  0  0  0
 16  7  1  0  0  0  0
 17  7  1  0  0  0  0
 18  9  2  0  0  0  0
 19 10  2  0  0  0  0
 20 22  2  0  0  0  0
 21  9  1  0  0  0  0
 22 12  1  0  0  0  0
 23 20  1  0  0  0  0
 24 10  1  0  0  0  0
 25 21  1  0  0  0  0
 26 25  1  0  0  0  0
  5  4  1  0  0  0  0
 20 19  1  0  0  0  0
  8 14  1  0  0  0  0
M  END
>  <IDNUMBER>
F3023-0825

>  <Chemical_Name>
ethyl 4-[1-(4-iodo-2-methylphenyl)-2,5-dioxopyrrolidin-3-yl]piperazine-1-carboxylate

>  <PriceCoeff>
1.00

>  <CAS>
857494-11-2

>  <MW>
471.29

>  <Description>
solid

>  <FSP3>
0.50

>  <clogP>
3.88

>  <TPSA>
70.16

>  <Acceptor>
4

>  <Donor>
1

>  <RotBonds>
5

>  <HAC>
26

>  <Collection>
General

>  <PPDS>
+

$$$$
F3023-0829
  Mrv2219 10102508112D          

 20 21  0  0  0  0            999 V2000
    3.9936   -7.4403    0.0000 N   0  0  0  0  0  0  0  0  0  0  0  0
    4.4777   -6.7723    0.0000 C   0  0  0  0  0  0  0  0  0  0  0  0
    4.4777   -8.1034    0.0000 C   0  0  0  0  0  0  0  0  0  0  0  0
    5.2619   -7.8469    0.0000 C   0  0  0  0  0  0  0  0  0  0  0  0
    5.2619   -7.0191    0.0000 C   0  0  0  0  0  0  0  0  0  0  0  0
    5.9300   -8.3262    0.0000 N   0  0  0  0  0  0  0  0  0  0  0  0
    4.2163   -5.9881    0.0000 O   0  0  0  0  0  0  0  0  0  0  0  0
    4.2309   -8.8876    0.0000 O   0  0  0  0  0  0  0  0  0  0  0  0
    3.1707   -7.4403    0.0000 C   0  0  0  0  0  0  0  0  0  0  0  0
    6.6851   -7.9921    0.0000 C   0  0  0  0  0  0  0  0  0  0  0  0
    8.1809   -7.3241    0.0000 C   0  0  0  0  0  0  0  0  0  0  0  0
    7.3483   -8.4714    0.0000 C   0  0  0  0  0  0  0  0  0  0  0  0
    6.7577   -7.1740    0.0000 C   0  0  0  0  0  0  0  0  0  0  0  0
    7.5129   -6.8400    0.0000 C   0  0  0  0  0  0  0  0  0  0  0  0
    8.1034   -8.1374    0.0000 C   0  0  0  0  0  0  0  0  0  0  0  0
    8.9361   -6.9852    0.0000 O   0  0  0  0  0  0  0  0  0  0  0  0
    2.7592   -6.7287    0.0000 C   0  0  0  0  0  0  0  0  0  0  0  0
    2.7641   -8.1615    0.0000 C   0  0  0  0  0  0  0  0  0  0  0  0
    9.6041   -7.4693    0.0000 C   0  0  0  0  0  0  0  0  0  0  0  0
   10.3593   -7.1304    0.0000 C   0  0  0  0  0  0  0  0  0  0  0  0
  2  1  1  0  0  0  0
  3  1  1  0  0  0  0
  4  3  1  0  0  0  0
  5  2  1  0  0  0  0
  6  4  1  0  0  0  0
  7  2  2  0  0  0  0
  8  3  2  0  0  0  0
  9  1  1  0  0  0  0
 10  6  1  0  0  0  0
 11 14  1  0  0  0  0
 12 10  2  0  0  0  0
 13 10  1  0  0  0  0
 14 13  2  0  0  0  0
 15 12  1  0  0  0  0
 16 11  1  0  0  0  0
 17  9  1  0  0  0  0
 18  9  1  0  0  0  0
 19 16  1  0  0  0  0
 20 19  1  0  0  0  0
  5  4  1  0  0  0  0
 11 15  2  0  0  0  0
M  END
>  <IDNUMBER>
F3023-0829

>  <Chemical_Name>
3-[(4-ethoxyphenyl)amino]-1-(propan-2-yl)pyrrolidine-2,5-dione

>  <PriceCoeff>
1.00

>  <CAS>
1009672-70-1

>  <MW>
276.33

>  <Description>
solid

>  <FSP3>
0.47

>  <clogP>
3.12

>  <TPSA>
58.64

>  <Acceptor>
4

>  <Donor>
1

>  <RotBonds>
5

>  <HAC>
20

>  <Collection>
General

>  <PPDS>
+

$$$$
F3023-0833
  Mrv2219 10102508112D          

 23 25  0  0  0  0            999 V2000
    3.9936   -7.4403    0.0000 N   0  0  0  0  0  0  0  0  0  0  0  0
    4.4777   -6.7723    0.0000 C   0  0  0  0  0  0  0  0  0  0  0  0
    4.4777   -8.1034    0.0000 C   0  0  0  0  0  0  0  0  0  0  0  0
    5.2619   -7.8469    0.0000 C   0  0  0  0  0  0  0  0  0  0  0  0
    5.2619   -7.0191    0.0000 C   0  0  0  0  0  0  0  0  0  0  0  0
    5.9300   -8.3262    0.0000 N   0  0  0  0  0  0  0  0  0  0  0  0
    4.2163   -5.9881    0.0000 O   0  0  0  0  0  0  0  0  0  0  0  0
    4.2309   -8.8876    0.0000 O   0  0  0  0  0  0  0  0  0  0  0  0
    3.1707   -7.4403    0.0000 C   0  0  0  0  0  0  0  0  0  0  0  0
    6.6851   -7.9921    0.0000 C   0  0  0  0  0  0  0  0  0  0  0  0
    8.1809   -7.3241    0.0000 C   0  0  0  0  0  0  0  0  0  0  0  0
    7.3483   -8.4714    0.0000 C   0  0  0  0  0  0  0  0  0  0  0  0
    6.7577   -7.1740    0.0000 C   0  0  0  0  0  0  0  0  0  0  0  0
    7.5129   -6.8400    0.0000 C   0  0  0  0  0  0  0  0  0  0  0  0
    8.1034   -8.1374    0.0000 C   0  0  0  0  0  0  0  0  0  0  0  0
    8.9361   -6.9852    0.0000 O   0  0  0  0  0  0  0  0  0  0  0  0
    2.7641   -6.7287    0.0000 C   0  0  0  0  0  0  0  0  0  0  0  0
    2.7641   -8.1615    0.0000 C   0  0  0  0  0  0  0  0  0  0  0  0
    9.6041   -7.4693    0.0000 C   0  0  0  0  0  0  0  0  0  0  0  0
   10.3593   -7.1304    0.0000 C   0  0  0  0  0  0  0  0  0  0  0  0
    1.9460   -8.1615    0.0000 C   0  0  0  0  0  0  0  0  0  0  0  0
    1.9363   -6.7383    0.0000 C   0  0  0  0  0  0  0  0  0  0  0  0
    1.5297   -7.4499    0.0000 C   0  0  0  0  0  0  0  0  0  0  0  0
  2  1  1  0  0  0  0
  3  1  1  0  0  0  0
  4  3  1  0  0  0  0
  5  2  1  0  0  0  0
  6  4  1  0  0  0  0
  7  2  2  0  0  0  0
  8  3  2  0  0  0  0
  9  1  1  0  0  0  0
 10  6  1  0  0  0  0
 11 14  1  0  0  0  0
 12 10  2  0  0  0  0
 13 10  1  0  0  0  0
 14 13  2  0  0  0  0
 15 12  1  0  0  0  0
 16 11  1  0  0  0  0
 17  9  1  0  0  0  0
 18  9  1  0  0  0  0
 19 16  1  0  0  0  0
 20 19  1  0  0  0  0
 21 18  1  0  0  0  0
 22 17  1  0  0  0  0
 23 21  1  0  0  0  0
  5  4  1  0  0  0  0
 23 22  1  0  0  0  0
 11 15  2  0  0  0  0
M  END
>  <IDNUMBER>
F3023-0833

>  <Chemical_Name>
1-cyclohexyl-3-[(4-ethoxyphenyl)amino]pyrrolidine-2,5-dione

>  <PriceCoeff>
1.00

>  <CAS>
1008711-52-1

>  <MW>
316.39

>  <Description>
solid

>  <FSP3>
0.56

>  <clogP>
4.23

>  <TPSA>
58.64

>  <Acceptor>
4

>  <Donor>
1

>  <RotBonds>
5

>  <HAC>
23

>  <Collection>
General

>  <PPDS>
+

$$$$
F3023-0834
  Mrv2219 10102508112D          

 25 27  0  0  0  0            999 V2000
   -0.3157   -7.2426    0.0000 N   0  0  0  0  0  0  0  0  0  0  0  0
    0.1652   -6.5723    0.0000 C   0  0  0  0  0  0  0  0  0  0  0  0
    0.1749   -7.9033    0.0000 C   0  0  0  0  0  0  0  0  0  0  0  0
    0.9618   -7.6507    0.0000 C   0  0  0  0  0  0  0  0  0  0  0  0
    0.9521   -6.8249    0.0000 C   0  0  0  0  0  0  0  0  0  0  0  0
   -1.1463   -7.2475    0.0000 C   0  0  0  0  0  0  0  0  0  0  0  0
    1.6225   -8.1316    0.0000 N   0  0  0  0  0  0  0  0  0  0  0  0
   -0.0971   -5.7903    0.0000 O   0  0  0  0  0  0  0  0  0  0  0  0
   -0.0729   -8.6902    0.0000 O   0  0  0  0  0  0  0  0  0  0  0  0
   -1.5544   -7.9616    0.0000 C   0  0  0  0  0  0  0  0  0  0  0  0
    2.3802   -7.7964    0.0000 C   0  0  0  0  0  0  0  0  0  0  0  0
    3.8909   -7.1260    0.0000 C   0  0  0  0  0  0  0  0  0  0  0  0
    2.4628   -6.9803    0.0000 C   0  0  0  0  0  0  0  0  0  0  0  0
    3.0506   -8.2822    0.0000 C   0  0  0  0  0  0  0  0  0  0  0  0
    3.8084   -7.9470    0.0000 C   0  0  0  0  0  0  0  0  0  0  0  0
    3.2109   -6.6355    0.0000 C   0  0  0  0  0  0  0  0  0  0  0  0
    4.6487   -6.7812    0.0000 O   0  0  0  0  0  0  0  0  0  0  0  0
   -1.5593   -6.5335    0.0000 C   0  0  0  0  0  0  0  0  0  0  0  0
   -2.3753   -7.9713    0.0000 C   0  0  0  0  0  0  0  0  0  0  0  0
   -1.1318   -8.6757    0.0000 C   0  0  0  0  0  0  0  0  0  0  0  0
    5.3190   -7.2718    0.0000 C   0  0  0  0  0  0  0  0  0  0  0  0
    6.0671   -6.9269    0.0000 C   0  0  0  0  0  0  0  0  0  0  0  0
   -1.5398   -9.3897    0.0000 C   0  0  0  0  0  0  0  0  0  0  0  0
   -2.7834   -8.6853    0.0000 C   0  0  0  0  0  0  0  0  0  0  0  0
   -2.3705   -9.3994    0.0000 C   0  0  0  0  0  0  0  0  0  0  0  0
  2  1  1  0  0  0  0
  3  1  1  0  0  0  0
  4  3  1  0  0  0  0
  5  2  1  0  0  0  0
  6  1  1  0  0  0  0
  7  4  1  0  0  0  0
  8  2  2  0  0  0  0
  9  3  2  0  0  0  0
 10  6  1  0  0  0  0
 11  7  1  0  0  0  0
 12 15  2  0  0  0  0
 13 11  1  0  0  0  0
 14 11  2  0  0  0  0
 15 14  1  0  0  0  0
 16 13  2  0  0  0  0
 17 12  1  0  0  0  0
 18  6  1  0  0  0  0
 19 10  2  0  0  0  0
 20 10  1  0  0  0  0
 21 17  1  0  0  0  0
 22 21  1  0  0  0  0
 23 20  2  0  0  0  0
 24 19  1  0  0  0  0
 25 23  1  0  0  0  0
  5  4  1  0  0  0  0
 25 24  2  0  0  0  0
 16 12  1  0  0  0  0
M  END
>  <IDNUMBER>
F3023-0834

>  <Chemical_Name>
3-[(4-ethoxyphenyl)amino]-1-(1-phenylethyl)pyrrolidine-2,5-dione

>  <PriceCoeff>
1.00

>  <CAS>
106058-47-3

>  <MW>
338.40

>  <Description>
solid

>  <FSP3>
0.30

>  <clogP>
4.17

>  <TPSA>
58.64

>  <Acceptor>
4

>  <Donor>
1

>  <RotBonds>
6

>  <HAC>
25

>  <Collection>
General

>  <PPDS>
+

$$$$
F3023-0835
  Mrv2219 10102508112D          

 21 22  0  0  0  0            999 V2000
    0.3400   -1.1268    0.0000 N   0  0  0  0  0  0  0  0  0  0  0  0
    0.8305   -1.7922    0.0000 C   0  0  0  0  0  0  0  0  0  0  0  0
    0.8209   -0.4566    0.0000 C   0  0  0  0  0  0  0  0  0  0  0  0
    1.6174   -1.5348    0.0000 C   0  0  0  0  0  0  0  0  0  0  0  0
    1.6077   -0.7043    0.0000 C   0  0  0  0  0  0  0  0  0  0  0  0
    2.2779   -2.0157    0.0000 N   0  0  0  0  0  0  0  0  0  0  0  0
    0.5828   -2.5790    0.0000 O   0  0  0  0  0  0  0  0  0  0  0  0
    0.5586    0.3302    0.0000 O   0  0  0  0  0  0  0  0  0  0  0  0
    3.0356   -1.6805    0.0000 C   0  0  0  0  0  0  0  0  0  0  0  0
   -0.4905   -1.1268    0.0000 C   0  0  0  0  0  0  0  0  0  0  0  0
    4.5461   -1.0103    0.0000 C   0  0  0  0  0  0  0  0  0  0  0  0
    3.7059   -2.1614    0.0000 C   0  0  0  0  0  0  0  0  0  0  0  0
    3.1182   -0.8597    0.0000 C   0  0  0  0  0  0  0  0  0  0  0  0
    3.8662   -0.5245    0.0000 C   0  0  0  0  0  0  0  0  0  0  0  0
    4.4636   -1.8262    0.0000 C   0  0  0  0  0  0  0  0  0  0  0  0
    5.3038   -0.6703    0.0000 O   0  0  0  0  0  0  0  0  0  0  0  0
   -1.7290   -0.4226    0.0000 O   0  0  0  0  0  0  0  0  0  0  0  0
   -0.9034   -0.4129    0.0000 C   0  0  0  0  0  0  0  0  0  0  0  0
    5.9740   -1.1560    0.0000 C   0  0  0  0  0  0  0  0  0  0  0  0
   -2.1516    0.2865    0.0000 C   0  0  0  0  0  0  0  0  0  0  0  0
    6.7220   -0.8160    0.0000 C   0  0  0  0  0  0  0  0  0  0  0  0
  2  1  1  0  0  0  0
  3  1  1  0  0  0  0
  4  2  1  0  0  0  0
  5  3  1  0  0  0  0
  6  4  1  0  0  0  0
  7  2  2  0  0  0  0
  8  3  2  0  0  0  0
  9  6  1  0  0  0  0
 10  1  1  0  0  0  0
 11 14  1  0  0  0  0
 12  9  2  0  0  0  0
 13  9  1  0  0  0  0
 14 13  2  0  0  0  0
 15 12  1  0  0  0  0
 16 11  1  0  0  0  0
 17 18  1  0  0  0  0
 18 10  1  0  0  0  0
 19 16  1  0  0  0  0
 20 17  1  0  0  0  0
 21 19  1  0  0  0  0
  5  4  1  0  0  0  0
 11 15  2  0  0  0  0
M  END
>  <IDNUMBER>
F3023-0835

>  <Chemical_Name>
3-[(4-ethoxyphenyl)amino]-1-(2-methoxyethyl)pyrrolidine-2,5-dione

>  <PriceCoeff>
1.00

>  <CAS>
1009482-74-9

>  <MW>
292.33

>  <Description>
solid

>  <FSP3>
0.47

>  <clogP>
2.54

>  <TPSA>
67.87

>  <Acceptor>
5

>  <Donor>
1

>  <RotBonds>
7

>  <HAC>
21

>  <Collection>
General

>  <PPDS>
+

$$$$
F3023-0836
  Mrv2219 10102508112D          

 24 26  0  0  0  0            999 V2000
    3.9994   -7.4510    0.0000 N   0  0  0  0  0  0  0  0  0  0  0  0
    4.4842   -6.7820    0.0000 C   0  0  0  0  0  0  0  0  0  0  0  0
    4.4842   -8.1151    0.0000 C   0  0  0  0  0  0  0  0  0  0  0  0
    5.2695   -7.8582    0.0000 C   0  0  0  0  0  0  0  0  0  0  0  0
    5.2695   -7.0292    0.0000 C   0  0  0  0  0  0  0  0  0  0  0  0
    3.1753   -7.4510    0.0000 C   0  0  0  0  0  0  0  0  0  0  0  0
    5.9385   -8.3381    0.0000 N   0  0  0  0  0  0  0  0  0  0  0  0
    4.2224   -5.9967    0.0000 O   0  0  0  0  0  0  0  0  0  0  0  0
    4.2369   -8.9004    0.0000 O   0  0  0  0  0  0  0  0  0  0  0  0
    2.7632   -6.7384    0.0000 C   0  0  0  0  0  0  0  0  0  0  0  0
    6.6947   -8.0036    0.0000 C   0  0  0  0  0  0  0  0  0  0  0  0
    8.1927   -7.3346    0.0000 C   0  0  0  0  0  0  0  0  0  0  0  0
    6.7674   -7.1843    0.0000 C   0  0  0  0  0  0  0  0  0  0  0  0
    7.3588   -8.4835    0.0000 C   0  0  0  0  0  0  0  0  0  0  0  0
    8.1151   -8.1490    0.0000 C   0  0  0  0  0  0  0  0  0  0  0  0
    7.5237   -6.8498    0.0000 C   0  0  0  0  0  0  0  0  0  0  0  0
    2.7681   -8.1732    0.0000 C   0  0  0  0  0  0  0  0  0  0  0  0
    8.9489   -6.9953    0.0000 O   0  0  0  0  0  0  0  0  0  0  0  0
    3.1704   -6.0257    0.0000 C   0  0  0  0  0  0  0  0  0  0  0  0
    1.9391   -6.7480    0.0000 C   0  0  0  0  0  0  0  0  0  0  0  0
    9.6179   -7.4801    0.0000 C   0  0  0  0  0  0  0  0  0  0  0  0
    1.9537   -8.1781    0.0000 C   0  0  0  0  0  0  0  0  0  0  0  0
   10.3741   -7.1407    0.0000 C   0  0  0  0  0  0  0  0  0  0  0  0
    1.5319   -7.4655    0.0000 C   0  0  0  0  0  0  0  0  0  0  0  0
  2  1  1  0  0  0  0
  3  1  1  0  0  0  0
  4  3  1  0  0  0  0
  5  2  1  0  0  0  0
  6  1  1  0  0  0  0
  7  4  1  0  0  0  0
  8  2  2  0  0  0  0
  9  3  2  0  0  0  0
 10  6  2  0  0  0  0
 11  7  1  0  0  0  0
 12 15  2  0  0  0  0
 13 11  1  0  0  0  0
 14 11  2  0  0  0  0
 15 14  1  0  0  0  0
 16 13  2  0  0  0  0
 17  6  1  0  0  0  0
 18 12  1  0  0  0  0
 19 10  1  0  0  0  0
 20 10  1  0  0  0  0
 21 18  1  0  0  0  0
 22 17  2  0  0  0  0
 23 21  1  0  0  0  0
 24 22  1  0  0  0  0
  5  4  1  0  0  0  0
 24 20  2  0  0  0  0
 16 12  1  0  0  0  0
M  END
>  <IDNUMBER>
F3023-0836

>  <Chemical_Name>
3-[(4-ethoxyphenyl)amino]-1-(2-methylphenyl)pyrrolidine-2,5-dione

>  <PriceCoeff>
1.00

>  <MW>
324.37

>  <Description>
solid

>  <FSP3>
0.26

>  <clogP>
3.22

>  <TPSA>
58.64

>  <Acceptor>
4

>  <Donor>
1

>  <RotBonds>
5

>  <HAC>
24

>  <Collection>
General

$$$$
F3023-0880
  Mrv2219 10102508112D          

 27 29  0  0  0  0            999 V2000
    4.8203   -7.4535    0.0000 N   0  0  0  0  0  0  0  0  0  0  0  0
    5.3100   -6.7843    0.0000 C   0  0  0  0  0  0  0  0  0  0  0  0
    5.3149   -8.1178    0.0000 C   0  0  0  0  0  0  0  0  0  0  0  0
    6.1005   -7.8608    0.0000 C   0  0  0  0  0  0  0  0  0  0  0  0
    6.0956   -7.0316    0.0000 C   0  0  0  0  0  0  0  0  0  0  0  0
    4.0007   -7.4535    0.0000 C   0  0  0  0  0  0  0  0  0  0  0  0
    2.3471   -6.0423    0.0000 C   0  0  0  0  0  0  0  0  0  0  0  0
    6.7648   -8.3409    0.0000 N   0  0  0  0  0  0  0  0  0  0  0  0
    2.7641   -6.7503    0.0000 C   0  0  0  0  0  0  0  0  0  0  0  0
    3.5837   -6.7406    0.0000 C   0  0  0  0  0  0  0  0  0  0  0  0
    5.0482   -5.9987    0.0000 O   0  0  0  0  0  0  0  0  0  0  0  0
    5.0676   -8.9034    0.0000 O   0  0  0  0  0  0  0  0  0  0  0  0
    1.9689   -5.3973    0.0000 F   0  0  0  0  0  0  0  0  0  0  0  0
    2.6477   -5.2373    0.0000 F   0  0  0  0  0  0  0  0  0  0  0  0
    1.4888   -5.9114    0.0000 F   0  0  0  0  0  0  0  0  0  0  0  0
    7.5213   -8.0063    0.0000 C   0  0  0  0  0  0  0  0  0  0  0  0
    9.0247   -7.3371    0.0000 C   0  0  0  0  0  0  0  0  0  0  0  0
    3.5982   -8.1760    0.0000 C   0  0  0  0  0  0  0  0  0  0  0  0
    7.5989   -7.1867    0.0000 C   0  0  0  0  0  0  0  0  0  0  0  0
    8.1809   -8.4864    0.0000 C   0  0  0  0  0  0  0  0  0  0  0  0
    8.9374   -8.1518    0.0000 C   0  0  0  0  0  0  0  0  0  0  0  0
    8.3506   -6.8521    0.0000 C   0  0  0  0  0  0  0  0  0  0  0  0
    9.7811   -6.9976    0.0000 O   0  0  0  0  0  0  0  0  0  0  0  0
    2.3568   -7.4680    0.0000 C   0  0  0  0  0  0  0  0  0  0  0  0
    2.7690   -8.1809    0.0000 C   0  0  0  0  0  0  0  0  0  0  0  0
   10.4504   -7.4826    0.0000 C   0  0  0  0  0  0  0  0  0  0  0  0
   11.2020   -7.1431    0.0000 C   0  0  0  0  0  0  0  0  0  0  0  0
  2  1  1  0  0  0  0
  3  1  1  0  0  0  0
  4  3  1  0  0  0  0
  5  2  1  0  0  0  0
  6  1  1  0  0  0  0
  7  9  1  0  0  0  0
  8  4  1  0  0  0  0
  9 10  1  0  0  0  0
 10  6  2  0  0  0  0
 11  2  2  0  0  0  0
 12  3  2  0  0  0  0
 13  7  1  0  0  0  0
 14  7  1  0  0  0  0
 15  7  1  0  0  0  0
 16  8  1  0  0  0  0
 17 21  2  0  0  0  0
 18  6  1  0  0  0  0
 19 16  1  0  0  0  0
 20 16  2  0  0  0  0
 21 20  1  0  0  0  0
 22 19  2  0  0  0  0
 23 17  1  0  0  0  0
 24 25  1  0  0  0  0
 25 18  2  0  0  0  0
 26 23  1  0  0  0  0
 27 26  1  0  0  0  0
  5  4  1  0  0  0  0
 24  9  2  0  0  0  0
 22 17  1  0  0  0  0
M  END
>  <IDNUMBER>
F3023-0880

>  <Chemical_Name>
3-[(4-ethoxyphenyl)amino]-1-[3-(trifluoromethyl)phenyl]pyrrolidine-2,5-dione

>  <PriceCoeff>
1.00

>  <CAS>
1008247-60-6

>  <MW>
378.35

>  <Description>
solid

>  <FSP3>
0.26

>  <clogP>
4.49

>  <TPSA>
58.64

>  <Acceptor>
4

>  <Donor>
1

>  <RotBonds>
5

>  <HAC>
27

>  <Collection>
General

>  <PPDS>
+

$$$$
F3023-0884
  Mrv2219 10102508112D          

 29 32  0  0  0  0            999 V2000
    4.8187   -7.4510    0.0000 N   0  0  0  0  0  0  0  0  0  0  0  0
    5.3082   -6.7820    0.0000 C   0  0  0  0  0  0  0  0  0  0  0  0
    5.3131   -8.1151    0.0000 C   0  0  0  0  0  0  0  0  0  0  0  0
    6.0985   -7.8582    0.0000 C   0  0  0  0  0  0  0  0  0  0  0  0
    6.0936   -7.0292    0.0000 C   0  0  0  0  0  0  0  0  0  0  0  0
    1.5319   -7.4752    0.0000 N   0  0  0  0  0  0  0  0  0  0  0  0
    6.7626   -8.3381    0.0000 N   0  0  0  0  0  0  0  0  0  0  0  0
    3.9994   -7.4510    0.0000 C   0  0  0  0  0  0  0  0  0  0  0  0
    2.3560   -7.4655    0.0000 C   0  0  0  0  0  0  0  0  0  0  0  0
    5.0465   -5.9967    0.0000 O   0  0  0  0  0  0  0  0  0  0  0  0
    5.0659   -8.9004    0.0000 O   0  0  0  0  0  0  0  0  0  0  0  0
    3.5970   -8.1732    0.0000 C   0  0  0  0  0  0  0  0  0  0  0  0
    3.5825   -6.7384    0.0000 C   0  0  0  0  0  0  0  0  0  0  0  0
    2.7632   -6.7480    0.0000 C   0  0  0  0  0  0  0  0  0  0  0  0
    2.7681   -8.1781    0.0000 C   0  0  0  0  0  0  0  0  0  0  0  0
   -0.1163   -7.4801    0.0000 O   0  0  0  0  0  0  0  0  0  0  0  0
    7.5188   -8.0036    0.0000 C   0  0  0  0  0  0  0  0  0  0  0  0
    9.0216   -7.3346    0.0000 C   0  0  0  0  0  0  0  0  0  0  0  0
    7.5964   -7.1843    0.0000 C   0  0  0  0  0  0  0  0  0  0  0  0
    8.1781   -8.4835    0.0000 C   0  0  0  0  0  0  0  0  0  0  0  0
    8.9344   -8.1490    0.0000 C   0  0  0  0  0  0  0  0  0  0  0  0
    8.3478   -6.8498    0.0000 C   0  0  0  0  0  0  0  0  0  0  0  0
    1.1102   -6.7626    0.0000 C   0  0  0  0  0  0  0  0  0  0  0  0
    1.1247   -8.1927    0.0000 C   0  0  0  0  0  0  0  0  0  0  0  0
    9.7779   -6.9953    0.0000 O   0  0  0  0  0  0  0  0  0  0  0  0
    0.2957   -8.1927    0.0000 C   0  0  0  0  0  0  0  0  0  0  0  0
    0.2957   -6.7674    0.0000 C   0  0  0  0  0  0  0  0  0  0  0  0
   10.4469   -7.4801    0.0000 C   0  0  0  0  0  0  0  0  0  0  0  0
   11.1982   -7.1407    0.0000 C   0  0  0  0  0  0  0  0  0  0  0  0
  2  1  1  0  0  0  0
  3  1  1  0  0  0  0
  4  3  1  0  0  0  0
  5  2  1  0  0  0  0
  6  9  1  0  0  0  0
  7  4  1  0  0  0  0
  8  1  1  0  0  0  0
  9 14  2  0  0  0  0
 10  2  2  0  0  0  0
 11  3  2  0  0  0  0
 12  8  1  0  0  0  0
 13  8  2  0  0  0  0
 14 13  1  0  0  0  0
 15 12  2  0  0  0  0
 16 26  1  0  0  0  0
 17  7  1  0  0  0  0
 18 21  2  0  0  0  0
 19 17  1  0  0  0  0
 20 17  2  0  0  0  0
 21 20  1  0  0  0  0
 22 19  2  0  0  0  0
 23  6  1  0  0  0  0
 24  6  1  0  0  0  0
 25 18  1  0  0  0  0
 26 24  1  0  0  0  0
 27 23  1  0  0  0  0
 28 25  1  0  0  0  0
 29 28  1  0  0  0  0
  5  4  1  0  0  0  0
  9 15  1  0  0  0  0
 22 18  1  0  0  0  0
 16 27  1  0  0  0  0
M  END
>  <IDNUMBER>
F3023-0884

>  <Chemical_Name>
3-[(4-ethoxyphenyl)amino]-1-[4-(morpholin-4-yl)phenyl]pyrrolidine-2,5-dione

>  <PriceCoeff>
1.00

>  <CAS>
1008695-29-1

>  <MW>
395.45

>  <Description>
solid

>  <FSP3>
0.36

>  <clogP>
2.57

>  <TPSA>
71.11

>  <Acceptor>
6

>  <Donor>
2

>  <RotBonds>
6

>  <HAC>
29

>  <Collection>
General

>  <PPDS>
+

$$$$
F3023-0886
  Mrv2219 10102508112D          

 27 29  0  0  0  0            999 V2000
    4.8187   -7.4510    0.0000 N   0  0  0  0  0  0  0  0  0  0  0  0
    5.3082   -6.7820    0.0000 C   0  0  0  0  0  0  0  0  0  0  0  0
    5.3131   -8.1151    0.0000 C   0  0  0  0  0  0  0  0  0  0  0  0
    6.0985   -7.8582    0.0000 C   0  0  0  0  0  0  0  0  0  0  0  0
    6.0936   -7.0292    0.0000 C   0  0  0  0  0  0  0  0  0  0  0  0
    6.7626   -8.3381    0.0000 N   0  0  0  0  0  0  0  0  0  0  0  0
    3.9994   -7.4510    0.0000 C   0  0  0  0  0  0  0  0  0  0  0  0
    1.1102   -6.7626    0.0000 C   0  0  0  0  0  0  0  0  0  0  0  0
    5.0465   -5.9967    0.0000 O   0  0  0  0  0  0  0  0  0  0  0  0
    5.0659   -8.9004    0.0000 O   0  0  0  0  0  0  0  0  0  0  0  0
    1.5319   -7.4655    0.0000 S   0  0  0  0  0  0  0  0  0  0  0  0
    3.5825   -6.7384    0.0000 C   0  0  0  0  0  0  0  0  0  0  0  0
    3.5970   -8.1732    0.0000 C   0  0  0  0  0  0  0  0  0  0  0  0
    7.5188   -8.0036    0.0000 C   0  0  0  0  0  0  0  0  0  0  0  0
    2.3560   -7.4655    0.0000 C   0  0  0  0  0  0  0  0  0  0  0  0
    0.2812   -6.7674    0.0000 F   0  0  0  0  0  0  0  0  0  0  0  0
    1.5174   -6.0403    0.0000 F   0  0  0  0  0  0  0  0  0  0  0  0
    9.0216   -7.3346    0.0000 C   0  0  0  0  0  0  0  0  0  0  0  0
    2.7681   -8.1781    0.0000 C   0  0  0  0  0  0  0  0  0  0  0  0
    2.7632   -6.7480    0.0000 C   0  0  0  0  0  0  0  0  0  0  0  0
    7.5964   -7.1843    0.0000 C   0  0  0  0  0  0  0  0  0  0  0  0
    8.1781   -8.4835    0.0000 C   0  0  0  0  0  0  0  0  0  0  0  0
    8.9344   -8.1490    0.0000 C   0  0  0  0  0  0  0  0  0  0  0  0
    8.3478   -6.8498    0.0000 C   0  0  0  0  0  0  0  0  0  0  0  0
    9.7779   -6.9953    0.0000 O   0  0  0  0  0  0  0  0  0  0  0  0
   10.4469   -7.4801    0.0000 C   0  0  0  0  0  0  0  0  0  0  0  0
   11.1982   -7.1407    0.0000 C   0  0  0  0  0  0  0  0  0  0  0  0
  2  1  1  0  0  0  0
  3  1  1  0  0  0  0
  4  3  1  0  0  0  0
  5  2  1  0  0  0  0
  6  4  1  0  0  0  0
  7  1  1  0  0  0  0
  8 11  1  0  0  0  0
  9  2  2  0  0  0  0
 10  3  2  0  0  0  0
 11 15  1  0  0  0  0
 12  7  2  0  0  0  0
 13  7  1  0  0  0  0
 14  6  1  0  0  0  0
 15 19  1  0  0  0  0
 16  8  1  0  0  0  0
 17  8  1  0  0  0  0
 18 23  2  0  0  0  0
 19 13  2  0  0  0  0
 20 12  1  0  0  0  0
 21 14  1  0  0  0  0
 22 14  2  0  0  0  0
 23 22  1  0  0  0  0
 24 21  2  0  0  0  0
 25 18  1  0  0  0  0
 26 25  1  0  0  0  0
 27 26  1  0  0  0  0
  5  4  1  0  0  0  0
 15 20  2  0  0  0  0
 24 18  1  0  0  0  0
M  END
>  <IDNUMBER>
F3023-0886

>  <Chemical_Name>
1-{4-[(difluoromethyl)sulfanyl]phenyl}-3-[(4-ethoxyphenyl)amino]pyrrolidine-2,5-dione

>  <PriceCoeff>
1.00

>  <CAS>
1009675-11-9

>  <MW>
392.42

>  <Description>
solid

>  <FSP3>
0.26

>  <clogP>
4.12

>  <TPSA>
83.94

>  <Acceptor>
4

>  <Donor>
1

>  <RotBonds>
7

>  <HAC>
27

>  <Collection>
General

>  <PPDS>
+

$$$$
F3023-0907
  Mrv2219 10102508112D          

 23 25  0  0  0  0            999 V2000
    4.0909   -7.0136    0.0000 N   0  0  0  0  0  0  0  0  0  0  0  0
    4.5804   -7.6777    0.0000 C   0  0  0  0  0  0  0  0  0  0  0  0
    4.5707   -6.3448    0.0000 C   0  0  0  0  0  0  0  0  0  0  0  0
    5.3657   -7.4208    0.0000 C   0  0  0  0  0  0  0  0  0  0  0  0
    5.3560   -6.5920    0.0000 C   0  0  0  0  0  0  0  0  0  0  0  0
    6.0248   -7.9007    0.0000 N   0  0  0  0  0  0  0  0  0  0  0  0
    7.3626   -8.8700    0.0000 N   0  0  0  0  0  0  0  0  0  0  0  0
    4.3332   -8.4628    0.0000 O   0  0  0  0  0  0  0  0  0  0  0  0
    4.3090   -5.5595    0.0000 O   0  0  0  0  0  0  0  0  0  0  0  0
    5.9376   -8.7150    0.0000 C   0  0  0  0  0  0  0  0  0  0  0  0
    6.7809   -7.5613    0.0000 C   0  0  0  0  0  0  0  0  0  0  0  0
    8.0266   -9.3547    0.0000 C   0  0  0  0  0  0  0  0  0  0  0  0
    6.6065   -9.2044    0.0000 C   0  0  0  0  0  0  0  0  0  0  0  0
    7.4499   -8.0460    0.0000 C   0  0  0  0  0  0  0  0  0  0  0  0
    3.2620   -7.0136    0.0000 C   0  0  0  0  0  0  0  0  0  0  0  0
    8.7731   -9.0155    0.0000 C   0  0  0  0  0  0  0  0  0  0  0  0
    9.4420   -9.5001    0.0000 C   0  0  0  0  0  0  0  0  0  0  0  0
    8.8604   -8.2011    0.0000 C   0  0  0  0  0  0  0  0  0  0  0  0
    2.8550   -7.7358    0.0000 C   0  0  0  0  0  0  0  0  0  0  0  0
    2.0357   -7.7407    0.0000 C   0  0  0  0  0  0  0  0  0  0  0  0
    9.6019   -7.8571    0.0000 C   0  0  0  0  0  0  0  0  0  0  0  0
   10.1933   -9.1657    0.0000 C   0  0  0  0  0  0  0  0  0  0  0  0
   10.2805   -8.3465    0.0000 C   0  0  0  0  0  0  0  0  0  0  0  0
  2  1  1  0  0  0  0
  3  1  1  0  0  0  0
  4  2  1  0  0  0  0
  5  3  1  0  0  0  0
  6  4  1  0  0  0  0
  7 14  1  0  0  0  0
  8  2  2  0  0  0  0
  9  3  2  0  0  0  0
 10  6  1  0  0  0  0
 11  6  1  0  0  0  0
 12  7  1  0  0  0  0
 13 10  1  0  0  0  0
 14 11  1  0  0  0  0
 15  1  1  0  0  0  0
 16 12  1  0  0  0  0
 17 16  2  0  0  0  0
 18 16  1  0  0  0  0
 19 15  1  0  0  0  0
 20 19  1  0  0  0  0
 21 18  2  0  0  0  0
 22 17  1  0  0  0  0
 23 21  1  0  0  0  0
  5  4  1  0  0  0  0
  7 13  1  0  0  0  0
 23 22  2  0  0  0  0
M  END
>  <IDNUMBER>
F3023-0907

>  <Chemical_Name>
3-(4-benzylpiperazin-1-yl)-1-propylpyrrolidine-2,5-dione

>  <PriceCoeff>
1.00

>  <CAS>
857494-20-3

>  <MW>
315.41

>  <Description>
solid

>  <FSP3>
0.56

>  <clogP>
3.70

>  <TPSA>
43.86

>  <Acceptor>
4

>  <Donor>
2

>  <RotBonds>
5

>  <HAC>
23

>  <Collection>
General

>  <PPDS>
+

$$$$
F3023-0908
  Mrv2219 10102508112D          

 24 26  0  0  0  0            999 V2000
    4.0856   -7.0046    0.0000 N   0  0  0  0  0  0  0  0  0  0  0  0
    4.5745   -7.6678    0.0000 C   0  0  0  0  0  0  0  0  0  0  0  0
    4.5649   -6.3366    0.0000 C   0  0  0  0  0  0  0  0  0  0  0  0
    5.3587   -7.4112    0.0000 C   0  0  0  0  0  0  0  0  0  0  0  0
    5.3491   -6.5835    0.0000 C   0  0  0  0  0  0  0  0  0  0  0  0
    6.0171   -7.8905    0.0000 N   0  0  0  0  0  0  0  0  0  0  0  0
    7.3532   -8.8586    0.0000 N   0  0  0  0  0  0  0  0  0  0  0  0
    3.2579   -7.0046    0.0000 C   0  0  0  0  0  0  0  0  0  0  0  0
    4.3276   -8.4520    0.0000 O   0  0  0  0  0  0  0  0  0  0  0  0
    4.3035   -5.5524    0.0000 O   0  0  0  0  0  0  0  0  0  0  0  0
    5.9300   -8.7037    0.0000 C   0  0  0  0  0  0  0  0  0  0  0  0
    6.7723   -7.5516    0.0000 C   0  0  0  0  0  0  0  0  0  0  0  0
    8.0163   -9.3427    0.0000 C   0  0  0  0  0  0  0  0  0  0  0  0
    6.5980   -9.1926    0.0000 C   0  0  0  0  0  0  0  0  0  0  0  0
    7.4403   -8.0357    0.0000 C   0  0  0  0  0  0  0  0  0  0  0  0
    8.7618   -9.0038    0.0000 C   0  0  0  0  0  0  0  0  0  0  0  0
    2.8512   -7.7259    0.0000 C   0  0  0  0  0  0  0  0  0  0  0  0
    8.8490   -8.1906    0.0000 C   0  0  0  0  0  0  0  0  0  0  0  0
    9.4298   -9.4879    0.0000 C   0  0  0  0  0  0  0  0  0  0  0  0
    2.0331   -7.7307    0.0000 C   0  0  0  0  0  0  0  0  0  0  0  0
    3.2724   -8.4374    0.0000 C   0  0  0  0  0  0  0  0  0  0  0  0
   10.1801   -9.1539    0.0000 C   0  0  0  0  0  0  0  0  0  0  0  0
    9.5896   -7.8469    0.0000 C   0  0  0  0  0  0  0  0  0  0  0  0
   10.2673   -8.3358    0.0000 C   0  0  0  0  0  0  0  0  0  0  0  0
  2  1  1  0  0  0  0
  3  1  1  0  0  0  0
  4  2  1  0  0  0  0
  5  3  1  0  0  0  0
  6  4  1  0  0  0  0
  7 15  1  0  0  0  0
  8  1  1  0  0  0  0
  9  2  2  0  0  0  0
 10  3  2  0  0  0  0
 11  6  1  0  0  0  0
 12  6  1  0  0  0  0
 13  7  1  0  0  0  0
 14 11  1  0  0  0  0
 15 12  1  0  0  0  0
 16 13  1  0  0  0  0
 17  8  1  0  0  0  0
 18 16  1  0  0  0  0
 19 16  2  0  0  0  0
 20 17  1  0  0  0  0
 21 17  1  0  0  0  0
 22 19  1  0  0  0  0
 23 18  2  0  0  0  0
 24 22  2  0  0  0  0
  5  4  1  0  0  0  0
  7 14  1  0  0  0  0
 24 23  1  0  0  0  0
M  END
>  <IDNUMBER>
F3023-0908

>  <Chemical_Name>
3-(4-benzylpiperazin-1-yl)-1-(2-methylpropyl)pyrrolidine-2,5-dione

>  <PriceCoeff>
1.00

>  <CAS>
857494-21-4

>  <MW>
329.44

>  <Description>
solid

>  <FSP3>
0.58

>  <clogP>
4.10

>  <TPSA>
43.86

>  <Acceptor>
4

>  <Donor>
2

>  <RotBonds>
5

>  <HAC>
24

>  <Collection>
General

>  <PPDS>
+

$$$$
F3023-0915
  Mrv2219 10102508112D          

 21 23  0  0  0  0            999 V2000
    3.8226   -6.2998    0.0000 N   0  0  0  0  0  0  0  0  0  0  0  0
    4.3132   -6.9652    0.0000 C   0  0  0  0  0  0  0  0  0  0  0  0
    4.3035   -5.6296    0.0000 C   0  0  0  0  0  0  0  0  0  0  0  0
    5.1000   -6.7078    0.0000 C   0  0  0  0  0  0  0  0  0  0  0  0
    5.0904   -5.8773    0.0000 C   0  0  0  0  0  0  0  0  0  0  0  0
    5.7607   -7.1887    0.0000 N   0  0  0  0  0  0  0  0  0  0  0  0
    7.1013   -8.1601    0.0000 N   0  0  0  0  0  0  0  0  0  0  0  0
    7.7666   -8.6459    0.0000 C   0  0  0  0  0  0  0  0  0  0  0  0
    4.0655   -7.7521    0.0000 O   0  0  0  0  0  0  0  0  0  0  0  0
    4.0412   -4.8426    0.0000 O   0  0  0  0  0  0  0  0  0  0  0  0
    6.5184   -6.8487    0.0000 C   0  0  0  0  0  0  0  0  0  0  0  0
    5.6733   -8.0047    0.0000 C   0  0  0  0  0  0  0  0  0  0  0  0
    6.3435   -8.4953    0.0000 C   0  0  0  0  0  0  0  0  0  0  0  0
    7.1887   -7.3345    0.0000 C   0  0  0  0  0  0  0  0  0  0  0  0
    7.6792   -9.4619    0.0000 C   0  0  0  0  0  0  0  0  0  0  0  0
    8.5148   -8.3058    0.0000 C   0  0  0  0  0  0  0  0  0  0  0  0
    2.9921   -6.2998    0.0000 C   0  0  0  0  0  0  0  0  0  0  0  0
    9.0976   -9.6076    0.0000 C   0  0  0  0  0  0  0  0  0  0  0  0
    8.3496   -9.9428    0.0000 C   0  0  0  0  0  0  0  0  0  0  0  0
    9.1850   -8.7867    0.0000 C   0  0  0  0  0  0  0  0  0  0  0  0
    9.7679  -10.0885    0.0000 F   0  0  0  0  0  0  0  0  0  0  0  0
  2  1  1  0  0  0  0
  3  1  1  0  0  0  0
  4  2  1  0  0  0  0
  5  3  1  0  0  0  0
  6  4  1  0  0  0  0
  7 13  1  0  0  0  0
  8  7  1  0  0  0  0
  9  2  2  0  0  0  0
 10  3  2  0  0  0  0
 11  6  1  0  0  0  0
 12  6  1  0  0  0  0
 13 12  1  0  0  0  0
 14 11  1  0  0  0  0
 15  8  2  0  0  0  0
 16  8  1  0  0  0  0
 17  1  1  0  0  0  0
 18 20  1  0  0  0  0
 19 15  1  0  0  0  0
 20 16  2  0  0  0  0
 21 18  1  0  0  0  0
  5  4  1  0  0  0  0
 14  7  1  0  0  0  0
 18 19  2  0  0  0  0
M  END
>  <IDNUMBER>
F3023-0915

>  <Chemical_Name>
3-[4-(4-fluorophenyl)piperazin-1-yl]-1-methylpyrrolidine-2,5-dione

>  <PriceCoeff>
1.50

>  <CAS>
299949-38-5

>  <MW>
291.32

>  <Description>
solid

>  <FSP3>
0.47

>  <clogP>
2.66

>  <TPSA>
43.86

>  <Acceptor>
3

>  <Donor>
2

>  <RotBonds>
2

>  <HAC>
21

>  <Collection>
Advanced

>  <PPDS>
+

$$$$
F3023-0916
  Mrv2219 10102508112D          

 23 25  0  0  0  0            999 V2000
    4.9305   -0.1069    0.0000 N   0  0  0  0  0  0  0  0  0  0  0  0
    5.4210   -0.7724    0.0000 C   0  0  0  0  0  0  0  0  0  0  0  0
    5.4114    0.5634    0.0000 C   0  0  0  0  0  0  0  0  0  0  0  0
    6.2080   -0.5149    0.0000 C   0  0  0  0  0  0  0  0  0  0  0  0
    6.1983    0.3157    0.0000 C   0  0  0  0  0  0  0  0  0  0  0  0
    6.8686   -0.9958    0.0000 N   0  0  0  0  0  0  0  0  0  0  0  0
    8.2093   -1.9673    0.0000 N   0  0  0  0  0  0  0  0  0  0  0  0
    5.1733   -1.5593    0.0000 O   0  0  0  0  0  0  0  0  0  0  0  0
    8.8748   -2.4531    0.0000 C   0  0  0  0  0  0  0  0  0  0  0  0
    5.1491    1.3504    0.0000 O   0  0  0  0  0  0  0  0  0  0  0  0
    7.6264   -0.6558    0.0000 C   0  0  0  0  0  0  0  0  0  0  0  0
    6.7812   -1.8119    0.0000 C   0  0  0  0  0  0  0  0  0  0  0  0
    7.4515   -2.3025    0.0000 C   0  0  0  0  0  0  0  0  0  0  0  0
    8.2968   -1.1416    0.0000 C   0  0  0  0  0  0  0  0  0  0  0  0
    4.0998   -0.1069    0.0000 C   0  0  0  0  0  0  0  0  0  0  0  0
    9.6229   -2.1130    0.0000 C   0  0  0  0  0  0  0  0  0  0  0  0
    8.7873   -3.2692    0.0000 C   0  0  0  0  0  0  0  0  0  0  0  0
   10.2058   -3.4149    0.0000 C   0  0  0  0  0  0  0  0  0  0  0  0
    9.4577   -3.7501    0.0000 C   0  0  0  0  0  0  0  0  0  0  0  0
   10.2932   -2.5939    0.0000 C   0  0  0  0  0  0  0  0  0  0  0  0
   10.8761   -3.8958    0.0000 F   0  0  0  0  0  0  0  0  0  0  0  0
    3.6869    0.6072    0.0000 C   0  0  0  0  0  0  0  0  0  0  0  0
    3.6918   -0.8306    0.0000 C   0  0  0  0  0  0  0  0  0  0  0  0
  2  1  1  0  0  0  0
  3  1  1  0  0  0  0
  4  2  1  0  0  0  0
  5  3  1  0  0  0  0
  6  4  1  0  0  0  0
  7 13  1  0  0  0  0
  8  2  2  0  0  0  0
  9  7  1  0  0  0  0
 10  3  2  0  0  0  0
 11  6  1  0  0  0  0
 12  6  1  0  0  0  0
 13 12  1  0  0  0  0
 14 11  1  0  0  0  0
 15  1  1  0  0  0  0
 16  9  1  0  0  0  0
 17  9  2  0  0  0  0
 18 19  2  0  0  0  0
 19 17  1  0  0  0  0
 20 16  2  0  0  0  0
 21 18  1  0  0  0  0
 22 15  1  0  0  0  0
 23 15  1  0  0  0  0
  5  4  1  0  0  0  0
 14  7  1  0  0  0  0
 18 20  1  0  0  0  0
M  END
>  <IDNUMBER>
F3023-0916

>  <Chemical_Name>
3-[4-(4-fluorophenyl)piperazin-1-yl]-1-(propan-2-yl)pyrrolidine-2,5-dione

>  <PriceCoeff>
1.50

>  <CAS>
857494-24-7

>  <MW>
319.37

>  <Description>
solid

>  <FSP3>
0.53

>  <clogP>
3.50

>  <TPSA>
43.86

>  <Acceptor>
3

>  <Donor>
2

>  <RotBonds>
3

>  <HAC>
23

>  <Collection>
Advanced

>  <PPDS>
+

$$$$
F3023-0917
  Mrv2219 10102508112D          

 24 26  0  0  0  0            999 V2000
    4.2239   -6.2970    0.0000 N   0  0  0  0  0  0  0  0  0  0  0  0
    4.7094   -6.9621    0.0000 C   0  0  0  0  0  0  0  0  0  0  0  0
    4.7094   -5.6270    0.0000 C   0  0  0  0  0  0  0  0  0  0  0  0
    5.4960   -6.7049    0.0000 C   0  0  0  0  0  0  0  0  0  0  0  0
    5.4960   -5.8747    0.0000 C   0  0  0  0  0  0  0  0  0  0  0  0
    6.1660   -7.1855    0.0000 N   0  0  0  0  0  0  0  0  0  0  0  0
    7.5011   -8.1565    0.0000 N   0  0  0  0  0  0  0  0  0  0  0  0
    8.1614   -8.6420    0.0000 C   0  0  0  0  0  0  0  0  0  0  0  0
    4.4618   -7.7487    0.0000 O   0  0  0  0  0  0  0  0  0  0  0  0
    4.4473   -4.8405    0.0000 O   0  0  0  0  0  0  0  0  0  0  0  0
    6.9185   -6.8456    0.0000 C   0  0  0  0  0  0  0  0  0  0  0  0
    6.0786   -8.0012    0.0000 C   0  0  0  0  0  0  0  0  0  0  0  0
    6.7437   -8.4915    0.0000 C   0  0  0  0  0  0  0  0  0  0  0  0
    7.5884   -7.3312    0.0000 C   0  0  0  0  0  0  0  0  0  0  0  0
    8.0740   -9.4577    0.0000 C   0  0  0  0  0  0  0  0  0  0  0  0
    8.9139   -8.3021    0.0000 C   0  0  0  0  0  0  0  0  0  0  0  0
    3.3986   -6.2970    0.0000 C   0  0  0  0  0  0  0  0  0  0  0  0
    9.5014   -9.6033    0.0000 C   0  0  0  0  0  0  0  0  0  0  0  0
    8.7440   -9.9383    0.0000 C   0  0  0  0  0  0  0  0  0  0  0  0
    9.5839   -8.7828    0.0000 C   0  0  0  0  0  0  0  0  0  0  0  0
   10.1714  -10.0840    0.0000 F   0  0  0  0  0  0  0  0  0  0  0  0
    2.9859   -5.5834    0.0000 C   0  0  0  0  0  0  0  0  0  0  0  0
    2.1556   -5.5930    0.0000 C   0  0  0  0  0  0  0  0  0  0  0  0
    1.7381   -4.8842    0.0000 C   0  0  0  0  0  0  0  0  0  0  0  0
  2  1  1  0  0  0  0
  3  1  1  0  0  0  0
  4  2  1  0  0  0  0
  5  3  1  0  0  0  0
  6  4  1  0  0  0  0
  7 13  1  0  0  0  0
  8  7  1  0  0  0  0
  9  2  2  0  0  0  0
 10  3  2  0  0  0  0
 11  6  1  0  0  0  0
 12  6  1  0  0  0  0
 13 12  1  0  0  0  0
 14 11  1  0  0  0  0
 15  8  2  0  0  0  0
 16  8  1  0  0  0  0
 17  1  1  0  0  0  0
 18 20  1  0  0  0  0
 19 15  1  0  0  0  0
 20 16  2  0  0  0  0
 21 18  1  0  0  0  0
 22 17  1  0  0  0  0
 23 22  1  0  0  0  0
 24 23  1  0  0  0  0
  5  4  1  0  0  0  0
  7 14  1  0  0  0  0
 18 19  2  0  0  0  0
M  END
>  <IDNUMBER>
F3023-0917

>  <Chemical_Name>
1-butyl-3-[4-(4-fluorophenyl)piperazin-1-yl]pyrrolidine-2,5-dione

>  <PriceCoeff>
1.00

>  <CAS>
857494-25-8

>  <MW>
333.40

>  <Description>
solid

>  <FSP3>
0.56

>  <clogP>
4.25

>  <TPSA>
43.86

>  <Acceptor>
3

>  <Donor>
2

>  <RotBonds>
5

>  <HAC>
24

>  <Collection>
General

>  <PPDS>
+

$$$$
F3023-0918
  Mrv2219 10102508112D          

 27 30  0  0  0  0            999 V2000
    4.2203   -6.2917    0.0000 N   0  0  0  0  0  0  0  0  0  0  0  0
    4.7055   -6.9563    0.0000 C   0  0  0  0  0  0  0  0  0  0  0  0
    4.7055   -5.6223    0.0000 C   0  0  0  0  0  0  0  0  0  0  0  0
    5.4913   -6.6992    0.0000 C   0  0  0  0  0  0  0  0  0  0  0  0
    5.4913   -5.8697    0.0000 C   0  0  0  0  0  0  0  0  0  0  0  0
    6.1608   -7.1795    0.0000 N   0  0  0  0  0  0  0  0  0  0  0  0
    7.4947   -8.1496    0.0000 N   0  0  0  0  0  0  0  0  0  0  0  0
    3.3957   -6.2917    0.0000 C   0  0  0  0  0  0  0  0  0  0  0  0
    8.1545   -8.6347    0.0000 C   0  0  0  0  0  0  0  0  0  0  0  0
    4.4581   -7.7421    0.0000 O   0  0  0  0  0  0  0  0  0  0  0  0
    4.4435   -4.8364    0.0000 O   0  0  0  0  0  0  0  0  0  0  0  0
    6.0734   -7.9944    0.0000 C   0  0  0  0  0  0  0  0  0  0  0  0
    6.9126   -6.8399    0.0000 C   0  0  0  0  0  0  0  0  0  0  0  0
    7.5820   -7.3250    0.0000 C   0  0  0  0  0  0  0  0  0  0  0  0
    6.7380   -8.4843    0.0000 C   0  0  0  0  0  0  0  0  0  0  0  0
    8.9064   -8.2951    0.0000 C   0  0  0  0  0  0  0  0  0  0  0  0
    8.0672   -9.4497    0.0000 C   0  0  0  0  0  0  0  0  0  0  0  0
    9.4934   -9.5952    0.0000 C   0  0  0  0  0  0  0  0  0  0  0  0
    2.9882   -7.0145    0.0000 C   0  0  0  0  0  0  0  0  0  0  0  0
    9.5758   -8.7754    0.0000 C   0  0  0  0  0  0  0  0  0  0  0  0
    8.7366   -9.9299    0.0000 C   0  0  0  0  0  0  0  0  0  0  0  0
   10.1628  -10.0755    0.0000 F   0  0  0  0  0  0  0  0  0  0  0  0
    2.1587   -7.0194    0.0000 C   0  0  0  0  0  0  0  0  0  0  0  0
    3.4054   -7.7179    0.0000 C   0  0  0  0  0  0  0  0  0  0  0  0
    3.0028   -8.4310    0.0000 C   0  0  0  0  0  0  0  0  0  0  0  0
    1.7512   -7.7325    0.0000 C   0  0  0  0  0  0  0  0  0  0  0  0
    2.1733   -8.4456    0.0000 C   0  0  0  0  0  0  0  0  0  0  0  0
  2  1  1  0  0  0  0
  3  1  1  0  0  0  0
  4  2  1  0  0  0  0
  5  3  1  0  0  0  0
  6  4  1  0  0  0  0
  7 14  1  0  0  0  0
  8  1  1  0  0  0  0
  9  7  1  0  0  0  0
 10  2  2  0  0  0  0
 11  3  2  0  0  0  0
 12  6  1  0  0  0  0
 13  6  1  0  0  0  0
 14 13  1  0  0  0  0
 15 12  1  0  0  0  0
 16  9  1  0  0  0  0
 17  9  2  0  0  0  0
 18 21  2  0  0  0  0
 19  8  1  0  0  0  0
 20 16  2  0  0  0  0
 21 17  1  0  0  0  0
 22 18  1  0  0  0  0
 23 19  2  0  0  0  0
 24 19  1  0  0  0  0
 25 24  2  0  0  0  0
 26 23  1  0  0  0  0
 27 25  1  0  0  0  0
  5  4  1  0  0  0  0
 27 26  2  0  0  0  0
  7 15  1  0  0  0  0
 18 20  1  0  0  0  0
M  END
>  <IDNUMBER>
F3023-0918

>  <Chemical_Name>
1-benzyl-3-[4-(4-fluorophenyl)piperazin-1-yl]pyrrolidine-2,5-dione

>  <PriceCoeff>
1.00

>  <CAS>
857494-26-9

>  <MW>
367.42

>  <Description>
solid

>  <FSP3>
0.33

>  <clogP>
4.20

>  <TPSA>
43.86

>  <Acceptor>
3

>  <Donor>
2

>  <RotBonds>
4

>  <HAC>
27

>  <Collection>
General

>  <PPDS>
+

$$$$
F3023-0919
  Mrv2219 10102508112D          

 23 25  0  0  0  0            999 V2000
    4.2203   -6.2917    0.0000 N   0  0  0  0  0  0  0  0  0  0  0  0
    4.7055   -6.9563    0.0000 C   0  0  0  0  0  0  0  0  0  0  0  0
    4.7055   -5.6223    0.0000 C   0  0  0  0  0  0  0  0  0  0  0  0
    5.4913   -6.6992    0.0000 C   0  0  0  0  0  0  0  0  0  0  0  0
    5.4913   -5.8697    0.0000 C   0  0  0  0  0  0  0  0  0  0  0  0
    6.1608   -7.1795    0.0000 N   0  0  0  0  0  0  0  0  0  0  0  0
    7.4947   -8.1496    0.0000 N   0  0  0  0  0  0  0  0  0  0  0  0
    8.1545   -8.6347    0.0000 C   0  0  0  0  0  0  0  0  0  0  0  0
    4.4581   -7.7421    0.0000 O   0  0  0  0  0  0  0  0  0  0  0  0
    4.4435   -4.8364    0.0000 O   0  0  0  0  0  0  0  0  0  0  0  0
    6.9126   -6.8399    0.0000 C   0  0  0  0  0  0  0  0  0  0  0  0
    6.0734   -7.9944    0.0000 C   0  0  0  0  0  0  0  0  0  0  0  0
    6.7380   -8.4843    0.0000 C   0  0  0  0  0  0  0  0  0  0  0  0
    7.5820   -7.3250    0.0000 C   0  0  0  0  0  0  0  0  0  0  0  0
    8.0672   -9.4497    0.0000 C   0  0  0  0  0  0  0  0  0  0  0  0
    8.9064   -8.2951    0.0000 C   0  0  0  0  0  0  0  0  0  0  0  0
    3.3957   -6.2917    0.0000 C   0  0  0  0  0  0  0  0  0  0  0  0
    9.4934   -9.5952    0.0000 C   0  0  0  0  0  0  0  0  0  0  0  0
    8.7366   -9.9299    0.0000 C   0  0  0  0  0  0  0  0  0  0  0  0
    9.5758   -8.7754    0.0000 C   0  0  0  0  0  0  0  0  0  0  0  0
   10.1628  -10.0755    0.0000 F   0  0  0  0  0  0  0  0  0  0  0  0
    2.9833   -5.5786    0.0000 C   0  0  0  0  0  0  0  0  0  0  0  0
    2.1538   -5.5883    0.0000 C   0  0  0  0  0  0  0  0  0  0  0  0
  2  1  1  0  0  0  0
  3  1  1  0  0  0  0
  4  2  1  0  0  0  0
  5  3  1  0  0  0  0
  6  4  1  0  0  0  0
  7 13  1  0  0  0  0
  8  7  1  0  0  0  0
  9  2  2  0  0  0  0
 10  3  2  0  0  0  0
 11  6  1  0  0  0  0
 12  6  1  0  0  0  0
 13 12  1  0  0  0  0
 14 11  1  0  0  0  0
 15  8  2  0  0  0  0
 16  8  1  0  0  0  0
 17  1  1  0  0  0  0
 18 20  1  0  0  0  0
 19 15  1  0  0  0  0
 20 16  2  0  0  0  0
 21 18  1  0  0  0  0
 22 17  1  0  0  0  0
 23 22  1  0  0  0  0
  5  4  1  0  0  0  0
 14  7  1  0  0  0  0
 18 19  2  0  0  0  0
M  END
>  <IDNUMBER>
F3023-0919

>  <Chemical_Name>
3-[4-(4-fluorophenyl)piperazin-1-yl]-1-propylpyrrolidine-2,5-dione

>  <PriceCoeff>
1.00

>  <CAS>
857494-27-0

>  <MW>
319.37

>  <Description>
solid

>  <FSP3>
0.53

>  <clogP>
3.72

>  <TPSA>
43.86

>  <Acceptor>
3

>  <Donor>
2

>  <RotBonds>
4

>  <HAC>
23

>  <Collection>
General

>  <PPDS>
+

$$$$
F3023-0921
  Mrv2219 10102508112D          

 24 26  0  0  0  0            999 V2000
    4.2239   -6.2970    0.0000 N   0  0  0  0  0  0  0  0  0  0  0  0
    4.7094   -6.9621    0.0000 C   0  0  0  0  0  0  0  0  0  0  0  0
    4.7094   -5.6270    0.0000 C   0  0  0  0  0  0  0  0  0  0  0  0
    5.4960   -6.7049    0.0000 C   0  0  0  0  0  0  0  0  0  0  0  0
    5.4960   -5.8747    0.0000 C   0  0  0  0  0  0  0  0  0  0  0  0
    6.1660   -7.1855    0.0000 N   0  0  0  0  0  0  0  0  0  0  0  0
    7.5011   -8.1565    0.0000 N   0  0  0  0  0  0  0  0  0  0  0  0
    8.1614   -8.6420    0.0000 C   0  0  0  0  0  0  0  0  0  0  0  0
    4.4618   -7.7487    0.0000 O   0  0  0  0  0  0  0  0  0  0  0  0
    4.4473   -4.8405    0.0000 O   0  0  0  0  0  0  0  0  0  0  0  0
    6.9185   -6.8456    0.0000 C   0  0  0  0  0  0  0  0  0  0  0  0
    6.0786   -8.0012    0.0000 C   0  0  0  0  0  0  0  0  0  0  0  0
    6.7437   -8.4915    0.0000 C   0  0  0  0  0  0  0  0  0  0  0  0
    7.5884   -7.3312    0.0000 C   0  0  0  0  0  0  0  0  0  0  0  0
    8.0740   -9.4577    0.0000 C   0  0  0  0  0  0  0  0  0  0  0  0
    8.9139   -8.3021    0.0000 C   0  0  0  0  0  0  0  0  0  0  0  0
    3.3986   -6.2970    0.0000 C   0  0  0  0  0  0  0  0  0  0  0  0
    9.5014   -9.6033    0.0000 C   0  0  0  0  0  0  0  0  0  0  0  0
    8.7440   -9.9383    0.0000 C   0  0  0  0  0  0  0  0  0  0  0  0
    9.5839   -8.7828    0.0000 C   0  0  0  0  0  0  0  0  0  0  0  0
   10.1714  -10.0840    0.0000 F   0  0  0  0  0  0  0  0  0  0  0  0
    2.1556   -5.5930    0.0000 O   0  0  0  0  0  0  0  0  0  0  0  0
    2.9859   -5.5834    0.0000 C   0  0  0  0  0  0  0  0  0  0  0  0
    1.7381   -4.8842    0.0000 C   0  0  0  0  0  0  0  0  0  0  0  0
  2  1  1  0  0  0  0
  3  1  1  0  0  0  0
  4  2  1  0  0  0  0
  5  3  1  0  0  0  0
  6  4  1  0  0  0  0
  7 13  1  0  0  0  0
  8  7  1  0  0  0  0
  9  2  2  0  0  0  0
 10  3  2  0  0  0  0
 11  6  1  0  0  0  0
 12  6  1  0  0  0  0
 13 12  1  0  0  0  0
 14 11  1  0  0  0  0
 15  8  2  0  0  0  0
 16  8  1  0  0  0  0
 17  1  1  0  0  0  0
 18 20  1  0  0  0  0
 19 15  1  0  0  0  0
 20 16  2  0  0  0  0
 21 18  1  0  0  0  0
 22 23  1  0  0  0  0
 23 17  1  0  0  0  0
 24 22  1  0  0  0  0
  5  4  1  0  0  0  0
  7 14  1  0  0  0  0
 18 19  2  0  0  0  0
M  END
>  <IDNUMBER>
F3023-0921

>  <Chemical_Name>
3-[4-(4-fluorophenyl)piperazin-1-yl]-1-(2-methoxyethyl)pyrrolidine-2,5-dione

>  <PriceCoeff>
1.50

>  <CAS>
857494-28-1

>  <MW>
335.37

>  <Description>
solid

>  <FSP3>
0.53

>  <clogP>
2.92

>  <TPSA>
53.09

>  <Acceptor>
4

>  <Donor>
2

>  <RotBonds>
5

>  <HAC>
24

>  <Collection>
Advanced

>  <PPDS>
+

$$$$
F3023-0922
  Mrv2219 10102508112D          

 30 34  0  0  0  0            999 V2000
    4.2203   -6.2917    0.0000 N   0  0  0  0  0  0  0  0  0  0  0  0
    4.7055   -6.9563    0.0000 C   0  0  0  0  0  0  0  0  0  0  0  0
    4.7055   -5.6223    0.0000 C   0  0  0  0  0  0  0  0  0  0  0  0
    5.4913   -6.6992    0.0000 C   0  0  0  0  0  0  0  0  0  0  0  0
    5.4913   -5.8697    0.0000 C   0  0  0  0  0  0  0  0  0  0  0  0
    6.1608   -7.1795    0.0000 N   0  0  0  0  0  0  0  0  0  0  0  0
    7.4947   -8.1496    0.0000 N   0  0  0  0  0  0  0  0  0  0  0  0
    3.3957   -6.2917    0.0000 C   0  0  0  0  0  0  0  0  0  0  0  0
    1.7512   -7.7325    0.0000 C   0  0  0  0  0  0  0  0  0  0  0  0
    8.1545   -8.6347    0.0000 C   0  0  0  0  0  0  0  0  0  0  0  0
    4.4581   -7.7421    0.0000 O   0  0  0  0  0  0  0  0  0  0  0  0
    2.1733   -8.4456    0.0000 C   0  0  0  0  0  0  0  0  0  0  0  0
    0.9508   -7.9168    0.0000 O   0  0  0  0  0  0  0  0  0  0  0  0
    4.4435   -4.8364    0.0000 O   0  0  0  0  0  0  0  0  0  0  0  0
    1.6299   -9.0568    0.0000 O   0  0  0  0  0  0  0  0  0  0  0  0
    6.0734   -7.9944    0.0000 C   0  0  0  0  0  0  0  0  0  0  0  0
    6.9126   -6.8399    0.0000 C   0  0  0  0  0  0  0  0  0  0  0  0
    7.5820   -7.3250    0.0000 C   0  0  0  0  0  0  0  0  0  0  0  0
    6.7380   -8.4843    0.0000 C   0  0  0  0  0  0  0  0  0  0  0  0
    0.8732   -8.7317    0.0000 C   0  0  0  0  0  0  0  0  0  0  0  0
    2.1587   -7.0194    0.0000 C   0  0  0  0  0  0  0  0  0  0  0  0
    2.9882   -7.0145    0.0000 C   0  0  0  0  0  0  0  0  0  0  0  0
    3.0028   -8.4310    0.0000 C   0  0  0  0  0  0  0  0  0  0  0  0
    8.9064   -8.2951    0.0000 C   0  0  0  0  0  0  0  0  0  0  0  0
    8.0672   -9.4497    0.0000 C   0  0  0  0  0  0  0  0  0  0  0  0
    9.4934   -9.5952    0.0000 C   0  0  0  0  0  0  0  0  0  0  0  0
    3.4054   -7.7179    0.0000 C   0  0  0  0  0  0  0  0  0  0  0  0
    9.5758   -8.7754    0.0000 C   0  0  0  0  0  0  0  0  0  0  0  0
    8.7366   -9.9299    0.0000 C   0  0  0  0  0  0  0  0  0  0  0  0
   10.1628  -10.0755    0.0000 F   0  0  0  0  0  0  0  0  0  0  0  0
  2  1  1  0  0  0  0
  3  1  1  0  0  0  0
  4  2  1  0  0  0  0
  5  3  1  0  0  0  0
  6  4  1  0  0  0  0
  7 18  1  0  0  0  0
  8  1  1  0  0  0  0
  9 21  1  0  0  0  0
 10  7  1  0  0  0  0
 11  2  2  0  0  0  0
 12 23  1  0  0  0  0
 13  9  1  0  0  0  0
 14  3  2  0  0  0  0
 15 12  1  0  0  0  0
 16  6  1  0  0  0  0
 17  6  1  0  0  0  0
 18 17  1  0  0  0  0
 19 16  1  0  0  0  0
 20 13  1  0  0  0  0
 21 22  2  0  0  0  0
 22  8  1  0  0  0  0
 23 27  2  0  0  0  0
 24 10  1  0  0  0  0
 25 10  2  0  0  0  0
 26 29  2  0  0  0  0
 27 22  1  0  0  0  0
 28 24  2  0  0  0  0
 29 25  1  0  0  0  0
 30 26  1  0  0  0  0
  5  4  1  0  0  0  0
  9 12  2  0  0  0  0
  7 19  1  0  0  0  0
 15 20  1  0  0  0  0
 26 28  1  0  0  0  0
M  END
>  <IDNUMBER>
F3023-0922

>  <Chemical_Name>
1-[(2H-1,3-benzodioxol-5-yl)methyl]-3-[4-(4-fluorophenyl)piperazin-1-yl]pyrrolidine-2,5-dione

>  <PriceCoeff>
1.00

>  <CAS>
857494-29-2

>  <MW>
411.43

>  <Description>
solid

>  <FSP3>
0.36

>  <clogP>
4.17

>  <TPSA>
62.32

>  <Acceptor>
5

>  <Donor>
2

>  <RotBonds>
4

>  <HAC>
30

>  <Collection>
General

>  <PPDS>
+

$$$$
F3023-0925
  Mrv2219 10102508112D          

 19 20  0  0  0  0            999 V2000
    4.3712   -7.4403    0.0000 N   0  0  0  0  0  0  0  0  0  0  0  0
    4.8553   -8.1034    0.0000 C   0  0  0  0  0  0  0  0  0  0  0  0
    4.8553   -6.7723    0.0000 C   0  0  0  0  0  0  0  0  0  0  0  0
    5.6395   -7.8469    0.0000 C   0  0  0  0  0  0  0  0  0  0  0  0
    5.6395   -7.0191    0.0000 C   0  0  0  0  0  0  0  0  0  0  0  0
    6.3076   -8.3262    0.0000 N   0  0  0  0  0  0  0  0  0  0  0  0
    4.6084   -8.8876    0.0000 O   0  0  0  0  0  0  0  0  0  0  0  0
    4.5939   -5.9881    0.0000 O   0  0  0  0  0  0  0  0  0  0  0  0
    8.5585   -7.3241    0.0000 C   0  0  0  0  0  0  0  0  0  0  0  0
    9.3137   -6.9852    0.0000 N   0  0  0  0  0  0  0  0  0  0  0  0
    7.0627   -7.9921    0.0000 C   0  0  0  0  0  0  0  0  0  0  0  0
    7.8905   -6.8400    0.0000 C   0  0  0  0  0  0  0  0  0  0  0  0
    8.4810   -8.1374    0.0000 C   0  0  0  0  0  0  0  0  0  0  0  0
    3.5483   -7.4403    0.0000 C   0  0  0  0  0  0  0  0  0  0  0  0
    7.1353   -7.1740    0.0000 C   0  0  0  0  0  0  0  0  0  0  0  0
    7.7259   -8.4714    0.0000 C   0  0  0  0  0  0  0  0  0  0  0  0
    9.9817   -7.4693    0.0000 C   0  0  0  0  0  0  0  0  0  0  0  0
    9.4008   -6.1623    0.0000 C   0  0  0  0  0  0  0  0  0  0  0  0
    3.1368   -6.7287    0.0000 C   0  0  0  0  0  0  0  0  0  0  0  0
  2  1  1  0  0  0  0
  3  1  1  0  0  0  0
  4  2  1  0  0  0  0
  5  3  1  0  0  0  0
  6  4  1  0  0  0  0
  7  2  2  0  0  0  0
  8  3  2  0  0  0  0
  9 13  2  0  0  0  0
 10  9  1  0  0  0  0
 11  6  1  0  0  0  0
 12 15  2  0  0  0  0
 13 16  1  0  0  0  0
 14  1  1  0  0  0  0
 15 11  1  0  0  0  0
 16 11  2  0  0  0  0
 17 10  1  0  0  0  0
 18 10  1  0  0  0  0
 19 14  1  0  0  0  0
  5  4  1  0  0  0  0
  9 12  1  0  0  0  0
M  END
>  <IDNUMBER>
F3023-0925

>  <Chemical_Name>
3-{[4-(dimethylamino)phenyl]amino}-1-ethylpyrrolidine-2,5-dione

>  <PriceCoeff>
1.00

>  <CAS>
1008960-27-7

>  <MW>
261.32

>  <Description>
solid

>  <FSP3>
0.43

>  <clogP>
2.35

>  <TPSA>
52.65

>  <Acceptor>
4

>  <Donor>
2

>  <RotBonds>
4

>  <HAC>
19

>  <Collection>
General

>  <PPDS>
+

$$$$
F3023-0927
  Mrv2219 10102508112D          

 21 22  0  0  0  0            999 V2000
    4.3712   -7.4403    0.0000 N   0  0  0  0  0  0  0  0  0  0  0  0
    4.8553   -8.1034    0.0000 C   0  0  0  0  0  0  0  0  0  0  0  0
    4.8553   -6.7723    0.0000 C   0  0  0  0  0  0  0  0  0  0  0  0
    5.6395   -7.8469    0.0000 C   0  0  0  0  0  0  0  0  0  0  0  0
    5.6395   -7.0191    0.0000 C   0  0  0  0  0  0  0  0  0  0  0  0
    6.3076   -8.3262    0.0000 N   0  0  0  0  0  0  0  0  0  0  0  0
    3.5483   -7.4403    0.0000 C   0  0  0  0  0  0  0  0  0  0  0  0
    4.6084   -8.8876    0.0000 O   0  0  0  0  0  0  0  0  0  0  0  0
    4.5939   -5.9881    0.0000 O   0  0  0  0  0  0  0  0  0  0  0  0
    8.5585   -7.3241    0.0000 C   0  0  0  0  0  0  0  0  0  0  0  0
    9.3137   -6.9852    0.0000 N   0  0  0  0  0  0  0  0  0  0  0  0
    7.0627   -7.9921    0.0000 C   0  0  0  0  0  0  0  0  0  0  0  0
    7.8905   -6.8400    0.0000 C   0  0  0  0  0  0  0  0  0  0  0  0
    8.4810   -8.1374    0.0000 C   0  0  0  0  0  0  0  0  0  0  0  0
    7.1353   -7.1740    0.0000 C   0  0  0  0  0  0  0  0  0  0  0  0
    7.7259   -8.4714    0.0000 C   0  0  0  0  0  0  0  0  0  0  0  0
    3.1417   -8.1615    0.0000 C   0  0  0  0  0  0  0  0  0  0  0  0
    9.4008   -6.1623    0.0000 C   0  0  0  0  0  0  0  0  0  0  0  0
    9.9817   -7.4693    0.0000 C   0  0  0  0  0  0  0  0  0  0  0  0
    2.3139   -8.1664    0.0000 C   0  0  0  0  0  0  0  0  0  0  0  0
    3.5580   -8.8731    0.0000 C   0  0  0  0  0  0  0  0  0  0  0  0
  2  1  1  0  0  0  0
  3  1  1  0  0  0  0
  4  2  1  0  0  0  0
  5  3  1  0  0  0  0
  6  4  1  0  0  0  0
  7  1  1  0  0  0  0
  8  2  2  0  0  0  0
  9  3  2  0  0  0  0
 10 14  2  0  0  0  0
 11 10  1  0  0  0  0
 12  6  1  0  0  0  0
 13 15  2  0  0  0  0
 14 16  1  0  0  0  0
 15 12  1  0  0  0  0
 16 12  2  0  0  0  0
 17  7  1  0  0  0  0
 18 11  1  0  0  0  0
 19 11  1  0  0  0  0
 20 17  1  0  0  0  0
 21 17  1  0  0  0  0
  5  4  1  0  0  0  0
 10 13  1  0  0  0  0
M  END
>  <IDNUMBER>
F3023-0927

>  <Chemical_Name>
3-{[4-(dimethylamino)phenyl]amino}-1-(2-methylpropyl)pyrrolidine-2,5-dione

>  <PriceCoeff>
1.00

>  <CAS>
1032268-11-3

>  <MW>
289.37

>  <Description>
solid

>  <FSP3>
0.50

>  <clogP>
3.28

>  <TPSA>
52.65

>  <Acceptor>
4

>  <Donor>
2

>  <RotBonds>
5

>  <HAC>
21

>  <Collection>
General

>  <PPDS>
+

$$$$
F3023-0928
  Mrv2219 10102508112D          

 23 25  0  0  0  0            999 V2000
    4.3775   -7.4510    0.0000 N   0  0  0  0  0  0  0  0  0  0  0  0
    4.8623   -6.7820    0.0000 C   0  0  0  0  0  0  0  0  0  0  0  0
    4.8623   -8.1151    0.0000 C   0  0  0  0  0  0  0  0  0  0  0  0
    5.6476   -7.8582    0.0000 C   0  0  0  0  0  0  0  0  0  0  0  0
    5.6476   -7.0292    0.0000 C   0  0  0  0  0  0  0  0  0  0  0  0
    6.3166   -8.3381    0.0000 N   0  0  0  0  0  0  0  0  0  0  0  0
    3.5534   -7.4510    0.0000 C   0  0  0  0  0  0  0  0  0  0  0  0
    4.6005   -5.9967    0.0000 O   0  0  0  0  0  0  0  0  0  0  0  0
    4.6151   -8.9004    0.0000 O   0  0  0  0  0  0  0  0  0  0  0  0
    8.5708   -7.3346    0.0000 C   0  0  0  0  0  0  0  0  0  0  0  0
    9.3270   -6.9953    0.0000 N   0  0  0  0  0  0  0  0  0  0  0  0
    7.0729   -8.0036    0.0000 C   0  0  0  0  0  0  0  0  0  0  0  0
    7.9018   -6.8498    0.0000 C   0  0  0  0  0  0  0  0  0  0  0  0
    8.4932   -8.1490    0.0000 C   0  0  0  0  0  0  0  0  0  0  0  0
    7.1456   -7.1843    0.0000 C   0  0  0  0  0  0  0  0  0  0  0  0
    7.7370   -8.4835    0.0000 C   0  0  0  0  0  0  0  0  0  0  0  0
    9.9960   -7.4801    0.0000 C   0  0  0  0  0  0  0  0  0  0  0  0
    9.4143   -6.1712    0.0000 C   0  0  0  0  0  0  0  0  0  0  0  0
    3.1413   -6.7384    0.0000 C   0  0  0  0  0  0  0  0  0  0  0  0
    3.1462   -8.1732    0.0000 C   0  0  0  0  0  0  0  0  0  0  0  0
    2.3318   -8.1781    0.0000 C   0  0  0  0  0  0  0  0  0  0  0  0
    2.3172   -6.7480    0.0000 C   0  0  0  0  0  0  0  0  0  0  0  0
    1.9100   -7.4655    0.0000 C   0  0  0  0  0  0  0  0  0  0  0  0
  2  1  1  0  0  0  0
  3  1  1  0  0  0  0
  4  3  1  0  0  0  0
  5  2  1  0  0  0  0
  6  4  1  0  0  0  0
  7  1  1  0  0  0  0
  8  2  2  0  0  0  0
  9  3  2  0  0  0  0
 10 14  2  0  0  0  0
 11 10  1  0  0  0  0
 12  6  1  0  0  0  0
 13 15  2  0  0  0  0
 14 16  1  0  0  0  0
 15 12  1  0  0  0  0
 16 12  2  0  0  0  0
 17 11  1  0  0  0  0
 18 11  1  0  0  0  0
 19  7  2  0  0  0  0
 20  7  1  0  0  0  0
 21 20  2  0  0  0  0
 22 19  1  0  0  0  0
 23 21  1  0  0  0  0
  5  4  1  0  0  0  0
 23 22  2  0  0  0  0
 13 10  1  0  0  0  0
M  END
>  <IDNUMBER>
F3023-0928

>  <Chemical_Name>
3-{[4-(dimethylamino)phenyl]amino}-1-phenylpyrrolidine-2,5-dione

>  <PriceCoeff>
1.00

>  <CAS>
1009537-29-4

>  <MW>
309.36

>  <Description>
solid

>  <FSP3>
0.22

>  <clogP>
2.65

>  <TPSA>
52.65

>  <Acceptor>
4

>  <Donor>
2

>  <RotBonds>
4

>  <HAC>
23

>  <Collection>
General

>  <PPDS>
+

$$$$
F3023-0929
  Mrv2219 10102508112D          

 27 30  0  0  0  0            999 V2000
    4.3821   -7.4588    0.0000 N   0  0  0  0  0  0  0  0  0  0  0  0
    4.8674   -6.7892    0.0000 C   0  0  0  0  0  0  0  0  0  0  0  0
    4.8674   -8.1236    0.0000 C   0  0  0  0  0  0  0  0  0  0  0  0
    3.5572   -7.4588    0.0000 C   0  0  0  0  0  0  0  0  0  0  0  0
    5.6536   -7.8665    0.0000 C   0  0  0  0  0  0  0  0  0  0  0  0
    5.6536   -7.0367    0.0000 C   0  0  0  0  0  0  0  0  0  0  0  0
    3.1495   -8.1819    0.0000 C   0  0  0  0  0  0  0  0  0  0  0  0
    6.3233   -8.3469    0.0000 N   0  0  0  0  0  0  0  0  0  0  0  0
    4.6054   -6.0030    0.0000 O   0  0  0  0  0  0  0  0  0  0  0  0
    4.6199   -8.9098    0.0000 O   0  0  0  0  0  0  0  0  0  0  0  0
    8.5799   -7.3424    0.0000 C   0  0  0  0  0  0  0  0  0  0  0  0
    9.3369   -7.0026    0.0000 N   0  0  0  0  0  0  0  0  0  0  0  0
    7.0803   -8.0121    0.0000 C   0  0  0  0  0  0  0  0  0  0  0  0
    2.3343   -8.1868    0.0000 C   0  0  0  0  0  0  0  0  0  0  0  0
    7.9102   -6.8571    0.0000 C   0  0  0  0  0  0  0  0  0  0  0  0
    8.5022   -8.1577    0.0000 C   0  0  0  0  0  0  0  0  0  0  0  0
    3.1446   -6.7455    0.0000 C   0  0  0  0  0  0  0  0  0  0  0  0
    7.7451   -8.4925    0.0000 C   0  0  0  0  0  0  0  0  0  0  0  0
    7.1531   -7.1919    0.0000 C   0  0  0  0  0  0  0  0  0  0  0  0
    3.5717   -8.8856    0.0000 C   0  0  0  0  0  0  0  0  0  0  0  0
    2.3197   -6.7551    0.0000 C   0  0  0  0  0  0  0  0  0  0  0  0
    9.4242   -6.1777    0.0000 C   0  0  0  0  0  0  0  0  0  0  0  0
   10.0066   -7.4880    0.0000 C   0  0  0  0  0  0  0  0  0  0  0  0
    1.9121   -7.4734    0.0000 C   0  0  0  0  0  0  0  0  0  0  0  0
    1.9266   -8.9001    0.0000 C   0  0  0  0  0  0  0  0  0  0  0  0
    3.1641   -9.5989    0.0000 C   0  0  0  0  0  0  0  0  0  0  0  0
    2.3343   -9.6086    0.0000 C   0  0  0  0  0  0  0  0  0  0  0  0
  2  1  1  0  0  0  0
  3  1  1  0  0  0  0
  4  1  1  0  0  0  0
  5  3  1  0  0  0  0
  6  2  1  0  0  0  0
  7  4  1  0  0  0  0
  8  5  1  0  0  0  0
  9  2  2  0  0  0  0
 10  3  2  0  0  0  0
 11 15  1  0  0  0  0
 12 11  1  0  0  0  0
 13  8  1  0  0  0  0
 14  7  1  0  0  0  0
 15 19  2  0  0  0  0
 16 18  1  0  0  0  0
 17  4  2  0  0  0  0
 18 13  2  0  0  0  0
 19 13  1  0  0  0  0
 20  7  2  0  0  0  0
 21 17  1  0  0  0  0
 22 12  1  0  0  0  0
 23 12  1  0  0  0  0
 24 21  2  0  0  0  0
 25 14  2  0  0  0  0
 26 20  1  0  0  0  0
 27 26  2  0  0  0  0
  6  5  1  0  0  0  0
 24 14  1  0  0  0  0
 27 25  1  0  0  0  0
 11 16  2  0  0  0  0
M  END
>  <IDNUMBER>
F3023-0929

>  <Chemical_Name>
3-{[4-(dimethylamino)phenyl]amino}-1-(naphthalen-1-yl)pyrrolidine-2,5-dione

>  <PriceCoeff>
1.00

>  <CAS>
1008960-28-8

>  <MW>
359.42

>  <Description>
solid

>  <FSP3>
0.18

>  <clogP>
3.83

>  <TPSA>
52.65

>  <Acceptor>
4

>  <Donor>
2

>  <RotBonds>
4

>  <HAC>
27

>  <Collection>
General

>  <PPDS>
+

$$$$
F3023-0930
  Mrv2219 10102508112D          

 29 31  0  0  0  0            999 V2000
    4.3824   -7.4593    0.0000 N   0  0  0  0  0  0  0  0  0  0  0  0
    4.8677   -8.1241    0.0000 C   0  0  0  0  0  0  0  0  0  0  0  0
    4.8677   -6.7896    0.0000 C   0  0  0  0  0  0  0  0  0  0  0  0
    5.6539   -7.8670    0.0000 C   0  0  0  0  0  0  0  0  0  0  0  0
    5.6539   -7.0371    0.0000 C   0  0  0  0  0  0  0  0  0  0  0  0
    3.5574   -7.4593    0.0000 C   0  0  0  0  0  0  0  0  0  0  0  0
    6.3237   -8.3474    0.0000 N   0  0  0  0  0  0  0  0  0  0  0  0
    1.0774   -6.0470    0.0000 C   0  0  0  0  0  0  0  0  0  0  0  0
    4.6202   -8.9103    0.0000 O   0  0  0  0  0  0  0  0  0  0  0  0
    4.6057   -6.0034    0.0000 O   0  0  0  0  0  0  0  0  0  0  0  0
    8.5804   -7.3428    0.0000 C   0  0  0  0  0  0  0  0  0  0  0  0
    0.6697   -6.7701    0.0000 C   0  0  0  0  0  0  0  0  0  0  0  0
    9.3375   -7.0031    0.0000 N   0  0  0  0  0  0  0  0  0  0  0  0
    1.8976   -6.0470    0.0000 C   0  0  0  0  0  0  0  0  0  0  0  0
    7.0808   -8.0126    0.0000 C   0  0  0  0  0  0  0  0  0  0  0  0
    8.5027   -8.1581    0.0000 C   0  0  0  0  0  0  0  0  0  0  0  0
    7.9106   -6.8575    0.0000 C   0  0  0  0  0  0  0  0  0  0  0  0
    1.0920   -7.4835    0.0000 C   0  0  0  0  0  0  0  0  0  0  0  0
    2.3149   -6.7556    0.0000 C   0  0  0  0  0  0  0  0  0  0  0  0
    3.1448   -6.7459    0.0000 C   0  0  0  0  0  0  0  0  0  0  0  0
    7.1535   -7.1923    0.0000 C   0  0  0  0  0  0  0  0  0  0  0  0
    7.7456   -8.4930    0.0000 C   0  0  0  0  0  0  0  0  0  0  0  0
    1.9122   -7.4739    0.0000 C   0  0  0  0  0  0  0  0  0  0  0  0
    0.6601   -5.3336    0.0000 O   0  0  0  0  0  0  0  0  0  0  0  0
   -0.1553   -6.7750    0.0000 O   0  0  0  0  0  0  0  0  0  0  0  0
    9.4248   -6.1781    0.0000 C   0  0  0  0  0  0  0  0  0  0  0  0
   10.0072   -7.4884    0.0000 C   0  0  0  0  0  0  0  0  0  0  0  0
    1.0677   -4.6202    0.0000 C   0  0  0  0  0  0  0  0  0  0  0  0
   -0.5775   -6.0616    0.0000 C   0  0  0  0  0  0  0  0  0  0  0  0
  2  1  1  0  0  0  0
  3  1  1  0  0  0  0
  4  2  1  0  0  0  0
  5  3  1  0  0  0  0
  6  1  1  0  0  0  0
  7  4  1  0  0  0  0
  8 14  1  0  0  0  0
  9  2  2  0  0  0  0
 10  3  2  0  0  0  0
 11 16  2  0  0  0  0
 12 18  1  0  0  0  0
 13 11  1  0  0  0  0
 14 19  2  0  0  0  0
 15  7  1  0  0  0  0
 16 22  1  0  0  0  0
 17 21  2  0  0  0  0
 18 23  2  0  0  0  0
 19 20  1  0  0  0  0
 20  6  1  0  0  0  0
 21 15  1  0  0  0  0
 22 15  2  0  0  0  0
 23 19  1  0  0  0  0
 24  8  1  0  0  0  0
 25 12  1  0  0  0  0
 26 13  1  0  0  0  0
 27 13  1  0  0  0  0
 28 24  1  0  0  0  0
 29 25  1  0  0  0  0
  5  4  1  0  0  0  0
 12  8  2  0  0  0  0
 17 11  1  0  0  0  0
M  END
>  <IDNUMBER>
F3023-0930

>  <Chemical_Name>
1-[2-(3,4-dimethoxyphenyl)ethyl]-3-{[4-(dimethylamino)phenyl]amino}pyrrolidine-2,5-dione

>  <PriceCoeff>
1.00

>  <CAS>
1008211-38-8

>  <MW>
397.47

>  <Description>
solid

>  <FSP3>
0.36

>  <clogP>
3.57

>  <TPSA>
71.11

>  <Acceptor>
6

>  <Donor>
2

>  <RotBonds>
8

>  <HAC>
29

>  <Collection>
General

>  <PPDS>
+

$$$$
F3023-0932
  Mrv2219 10102508112D          

 21 22  0  0  0  0            999 V2000
    4.3712   -7.4403    0.0000 N   0  0  0  0  0  0  0  0  0  0  0  0
    4.8553   -8.1034    0.0000 C   0  0  0  0  0  0  0  0  0  0  0  0
    4.8553   -6.7723    0.0000 C   0  0  0  0  0  0  0  0  0  0  0  0
    5.6395   -7.8469    0.0000 C   0  0  0  0  0  0  0  0  0  0  0  0
    5.6395   -7.0191    0.0000 C   0  0  0  0  0  0  0  0  0  0  0  0
    6.3076   -8.3262    0.0000 N   0  0  0  0  0  0  0  0  0  0  0  0
    4.6084   -8.8876    0.0000 O   0  0  0  0  0  0  0  0  0  0  0  0
    4.5939   -5.9881    0.0000 O   0  0  0  0  0  0  0  0  0  0  0  0
    8.5585   -7.3241    0.0000 C   0  0  0  0  0  0  0  0  0  0  0  0
    9.3137   -6.9852    0.0000 N   0  0  0  0  0  0  0  0  0  0  0  0
    7.0627   -7.9921    0.0000 C   0  0  0  0  0  0  0  0  0  0  0  0
    7.8905   -6.8400    0.0000 C   0  0  0  0  0  0  0  0  0  0  0  0
    8.4810   -8.1374    0.0000 C   0  0  0  0  0  0  0  0  0  0  0  0
    3.5483   -7.4403    0.0000 C   0  0  0  0  0  0  0  0  0  0  0  0
    7.1353   -7.1740    0.0000 C   0  0  0  0  0  0  0  0  0  0  0  0
    7.7259   -8.4714    0.0000 C   0  0  0  0  0  0  0  0  0  0  0  0
    2.3090   -6.7383    0.0000 O   0  0  0  0  0  0  0  0  0  0  0  0
    9.4008   -6.1623    0.0000 C   0  0  0  0  0  0  0  0  0  0  0  0
    9.9817   -7.4693    0.0000 C   0  0  0  0  0  0  0  0  0  0  0  0
    3.1368   -6.7287    0.0000 C   0  0  0  0  0  0  0  0  0  0  0  0
    1.8928   -6.0316    0.0000 C   0  0  0  0  0  0  0  0  0  0  0  0
  2  1  1  0  0  0  0
  3  1  1  0  0  0  0
  4  2  1  0  0  0  0
  5  3  1  0  0  0  0
  6  4  1  0  0  0  0
  7  2  2  0  0  0  0
  8  3  2  0  0  0  0
  9 13  2  0  0  0  0
 10  9  1  0  0  0  0
 11  6  1  0  0  0  0
 12 15  2  0  0  0  0
 13 16  1  0  0  0  0
 14  1  1  0  0  0  0
 15 11  1  0  0  0  0
 16 11  2  0  0  0  0
 17 20  1  0  0  0  0
 18 10  1  0  0  0  0
 19 10  1  0  0  0  0
 20 14  1  0  0  0  0
 21 17  1  0  0  0  0
  5  4  1  0  0  0  0
  9 12  1  0  0  0  0
M  END
>  <IDNUMBER>
F3023-0932

>  <Chemical_Name>
3-{[4-(dimethylamino)phenyl]amino}-1-(2-methoxyethyl)pyrrolidine-2,5-dione

>  <PriceCoeff>
1.00

>  <CAS>
1009289-71-7

>  <MW>
291.35

>  <Description>
solid

>  <FSP3>
0.47

>  <clogP>
2.08

>  <TPSA>
61.88

>  <Acceptor>
5

>  <Donor>
2

>  <RotBonds>
6

>  <HAC>
21

>  <Collection>
General

>  <PPDS>
+

$$$$
F3023-0933
  Mrv2219 10102508112D          

 24 26  0  0  0  0            999 V2000
    4.3775   -7.4510    0.0000 N   0  0  0  0  0  0  0  0  0  0  0  0
    4.8623   -6.7820    0.0000 C   0  0  0  0  0  0  0  0  0  0  0  0
    4.8623   -8.1151    0.0000 C   0  0  0  0  0  0  0  0  0  0  0  0
    5.6476   -7.8582    0.0000 C   0  0  0  0  0  0  0  0  0  0  0  0
    5.6476   -7.0292    0.0000 C   0  0  0  0  0  0  0  0  0  0  0  0
    3.5534   -7.4510    0.0000 C   0  0  0  0  0  0  0  0  0  0  0  0
    6.3166   -8.3381    0.0000 N   0  0  0  0  0  0  0  0  0  0  0  0
    4.6005   -5.9967    0.0000 O   0  0  0  0  0  0  0  0  0  0  0  0
    4.6151   -8.9004    0.0000 O   0  0  0  0  0  0  0  0  0  0  0  0
    8.5708   -7.3346    0.0000 C   0  0  0  0  0  0  0  0  0  0  0  0
    9.3270   -6.9953    0.0000 N   0  0  0  0  0  0  0  0  0  0  0  0
    3.1413   -6.7384    0.0000 C   0  0  0  0  0  0  0  0  0  0  0  0
    7.0729   -8.0036    0.0000 C   0  0  0  0  0  0  0  0  0  0  0  0
    8.4932   -8.1490    0.0000 C   0  0  0  0  0  0  0  0  0  0  0  0
    7.9018   -6.8498    0.0000 C   0  0  0  0  0  0  0  0  0  0  0  0
    7.7370   -8.4835    0.0000 C   0  0  0  0  0  0  0  0  0  0  0  0
    7.1456   -7.1843    0.0000 C   0  0  0  0  0  0  0  0  0  0  0  0
    3.1462   -8.1732    0.0000 C   0  0  0  0  0  0  0  0  0  0  0  0
    9.9960   -7.4801    0.0000 C   0  0  0  0  0  0  0  0  0  0  0  0
    9.4143   -6.1712    0.0000 C   0  0  0  0  0  0  0  0  0  0  0  0
    3.5485   -6.0257    0.0000 C   0  0  0  0  0  0  0  0  0  0  0  0
    2.3172   -6.7480    0.0000 C   0  0  0  0  0  0  0  0  0  0  0  0
    2.3318   -8.1781    0.0000 C   0  0  0  0  0  0  0  0  0  0  0  0
    1.9100   -7.4655    0.0000 C   0  0  0  0  0  0  0  0  0  0  0  0
  2  1  1  0  0  0  0
  3  1  1  0  0  0  0
  4  3  1  0  0  0  0
  5  2  1  0  0  0  0
  6  1  1  0  0  0  0
  7  4  1  0  0  0  0
  8  2  2  0  0  0  0
  9  3  2  0  0  0  0
 10 15  1  0  0  0  0
 11 10  1  0  0  0  0
 12  6  2  0  0  0  0
 13  7  1  0  0  0  0
 14 16  1  0  0  0  0
 15 17  2  0  0  0  0
 16 13  2  0  0  0  0
 17 13  1  0  0  0  0
 18  6  1  0  0  0  0
 19 11  1  0  0  0  0
 20 11  1  0  0  0  0
 21 12  1  0  0  0  0
 22 12  1  0  0  0  0
 23 18  2  0  0  0  0
 24 23  1  0  0  0  0
  5  4  1  0  0  0  0
 24 22  2  0  0  0  0
 10 14  2  0  0  0  0
M  END
>  <IDNUMBER>
F3023-0933

>  <Chemical_Name>
3-{[4-(dimethylamino)phenyl]amino}-1-(2-methylphenyl)pyrrolidine-2,5-dione

>  <PriceCoeff>
1.00

>  <CAS>
1009289-72-8

>  <MW>
323.39

>  <Description>
solid

>  <FSP3>
0.26

>  <clogP>
2.75

>  <TPSA>
52.65

>  <Acceptor>
4

>  <Donor>
2

>  <RotBonds>
4

>  <HAC>
24

>  <Collection>
General

>  <PPDS>
+

$$$$
F3023-0934
  Mrv2219 10102508112D          

 25 27  0  0  0  0            999 V2000
    5.2002   -7.4559    0.0000 N   0  0  0  0  0  0  0  0  0  0  0  0
    5.6805   -6.7865    0.0000 C   0  0  0  0  0  0  0  0  0  0  0  0
    5.6901   -8.1205    0.0000 C   0  0  0  0  0  0  0  0  0  0  0  0
    6.4760   -7.8634    0.0000 C   0  0  0  0  0  0  0  0  0  0  0  0
    6.4663   -7.0339    0.0000 C   0  0  0  0  0  0  0  0  0  0  0  0
    4.3707   -7.4559    0.0000 C   0  0  0  0  0  0  0  0  0  0  0  0
    7.1358   -8.3436    0.0000 N   0  0  0  0  0  0  0  0  0  0  0  0
    5.4185   -6.0006    0.0000 O   0  0  0  0  0  0  0  0  0  0  0  0
    5.4427   -8.9063    0.0000 O   0  0  0  0  0  0  0  0  0  0  0  0
    9.4011   -7.3395    0.0000 C   0  0  0  0  0  0  0  0  0  0  0  0
    3.9633   -6.7428    0.0000 C   0  0  0  0  0  0  0  0  0  0  0  0
   10.1579   -6.9999    0.0000 N   0  0  0  0  0  0  0  0  0  0  0  0
    7.8925   -8.0089    0.0000 C   0  0  0  0  0  0  0  0  0  0  0  0
    9.3187   -8.1545    0.0000 C   0  0  0  0  0  0  0  0  0  0  0  0
    8.7220   -6.8544    0.0000 C   0  0  0  0  0  0  0  0  0  0  0  0
    8.5619   -8.4892    0.0000 C   0  0  0  0  0  0  0  0  0  0  0  0
    7.9749   -7.1891    0.0000 C   0  0  0  0  0  0  0  0  0  0  0  0
    4.3707   -6.0297    0.0000 O   0  0  0  0  0  0  0  0  0  0  0  0
    3.9729   -8.1787    0.0000 C   0  0  0  0  0  0  0  0  0  0  0  0
   10.2355   -6.1753    0.0000 C   0  0  0  0  0  0  0  0  0  0  0  0
   10.8273   -7.4850    0.0000 C   0  0  0  0  0  0  0  0  0  0  0  0
    3.1337   -6.7525    0.0000 C   0  0  0  0  0  0  0  0  0  0  0  0
    3.9584   -5.3167    0.0000 C   0  0  0  0  0  0  0  0  0  0  0  0
    3.1483   -8.1836    0.0000 C   0  0  0  0  0  0  0  0  0  0  0  0
    2.7263   -7.4705    0.0000 C   0  0  0  0  0  0  0  0  0  0  0  0
  2  1  1  0  0  0  0
  3  1  1  0  0  0  0
  4  3  1  0  0  0  0
  5  2  1  0  0  0  0
  6  1  1  0  0  0  0
  7  4  1  0  0  0  0
  8  2  2  0  0  0  0
  9  3  2  0  0  0  0
 10 15  1  0  0  0  0
 11  6  2  0  0  0  0
 12 10  1  0  0  0  0
 13  7  1  0  0  0  0
 14 16  1  0  0  0  0
 15 17  2  0  0  0  0
 16 13  2  0  0  0  0
 17 13  1  0  0  0  0
 18 11  1  0  0  0  0
 19  6  1  0  0  0  0
 20 12  1  0  0  0  0
 21 12  1  0  0  0  0
 22 11  1  0  0  0  0
 23 18  1  0  0  0  0
 24 19  2  0  0  0  0
 25 24  1  0  0  0  0
  5  4  1  0  0  0  0
 25 22  2  0  0  0  0
 10 14  2  0  0  0  0
M  END
>  <IDNUMBER>
F3023-0934

>  <Chemical_Name>
3-{[4-(dimethylamino)phenyl]amino}-1-(2-methoxyphenyl)pyrrolidine-2,5-dione

>  <PriceCoeff>
1.00

>  <CAS>
1009289-73-9

>  <MW>
339.39

>  <Description>
solid

>  <FSP3>
0.26

>  <clogP>
2.74

>  <TPSA>
61.88

>  <Acceptor>
5

>  <Donor>
2

>  <RotBonds>
5

>  <HAC>
25

>  <Collection>
General

>  <PPDS>
+

$$$$
F3023-0938
  Mrv2219 10102508112D          

 24 26  0  0  0  0            999 V2000
    5.2002   -7.4559    0.0000 N   0  0  0  0  0  0  0  0  0  0  0  0
    5.6805   -6.7865    0.0000 C   0  0  0  0  0  0  0  0  0  0  0  0
    5.6901   -8.1205    0.0000 C   0  0  0  0  0  0  0  0  0  0  0  0
    6.4760   -7.8634    0.0000 C   0  0  0  0  0  0  0  0  0  0  0  0
    6.4663   -7.0339    0.0000 C   0  0  0  0  0  0  0  0  0  0  0  0
    4.3707   -7.4559    0.0000 C   0  0  0  0  0  0  0  0  0  0  0  0
    7.1358   -8.3436    0.0000 N   0  0  0  0  0  0  0  0  0  0  0  0
    3.9633   -6.7428    0.0000 C   0  0  0  0  0  0  0  0  0  0  0  0
    5.4185   -6.0006    0.0000 O   0  0  0  0  0  0  0  0  0  0  0  0
    5.4427   -8.9063    0.0000 O   0  0  0  0  0  0  0  0  0  0  0  0
    9.4011   -7.3395    0.0000 C   0  0  0  0  0  0  0  0  0  0  0  0
   10.1579   -6.9999    0.0000 N   0  0  0  0  0  0  0  0  0  0  0  0
    7.8925   -8.0089    0.0000 C   0  0  0  0  0  0  0  0  0  0  0  0
    9.3187   -8.1545    0.0000 C   0  0  0  0  0  0  0  0  0  0  0  0
    8.7220   -6.8544    0.0000 C   0  0  0  0  0  0  0  0  0  0  0  0
    3.1337   -6.7525    0.0000 C   0  0  0  0  0  0  0  0  0  0  0  0
    7.9749   -7.1891    0.0000 C   0  0  0  0  0  0  0  0  0  0  0  0
    8.5619   -8.4892    0.0000 C   0  0  0  0  0  0  0  0  0  0  0  0
    3.9729   -8.1787    0.0000 C   0  0  0  0  0  0  0  0  0  0  0  0
    2.7214   -6.0443    0.0000 Cl  0  0  0  0  0  0  0  0  0  0  0  0
    3.1483   -8.1836    0.0000 C   0  0  0  0  0  0  0  0  0  0  0  0
   10.2355   -6.1753    0.0000 C   0  0  0  0  0  0  0  0  0  0  0  0
   10.8273   -7.4850    0.0000 C   0  0  0  0  0  0  0  0  0  0  0  0
    2.7263   -7.4705    0.0000 C   0  0  0  0  0  0  0  0  0  0  0  0
  2  1  1  0  0  0  0
  3  1  1  0  0  0  0
  4  3  1  0  0  0  0
  5  2  1  0  0  0  0
  6  1  1  0  0  0  0
  7  4  1  0  0  0  0
  8  6  2  0  0  0  0
  9  2  2  0  0  0  0
 10  3  2  0  0  0  0
 11 14  2  0  0  0  0
 12 11  1  0  0  0  0
 13  7  1  0  0  0  0
 14 18  1  0  0  0  0
 15 17  2  0  0  0  0
 16  8  1  0  0  0  0
 17 13  1  0  0  0  0
 18 13  2  0  0  0  0
 19  6  1  0  0  0  0
 20 16  1  0  0  0  0
 21 19  2  0  0  0  0
 22 12  1  0  0  0  0
 23 12  1  0  0  0  0
 24 21  1  0  0  0  0
  5  4  1  0  0  0  0
 24 16  2  0  0  0  0
 15 11  1  0  0  0  0
M  END
>  <IDNUMBER>
F3023-0938

>  <Chemical_Name>
1-(3-chlorophenyl)-3-{[4-(dimethylamino)phenyl]amino}pyrrolidine-2,5-dione

>  <PriceCoeff>
1.00

>  <CAS>
1009268-62-5

>  <MW>
343.81

>  <Description>
solid

>  <FSP3>
0.22

>  <clogP>
3.64

>  <TPSA>
52.65

>  <Acceptor>
4

>  <Donor>
2

>  <RotBonds>
4

>  <HAC>
24

>  <Collection>
General

>  <PPDS>
+

$$$$
F3023-0942
  Mrv2219 10102508112D          

 24 26  0  0  0  0            999 V2000
    5.2002   -7.4559    0.0000 N   0  0  0  0  0  0  0  0  0  0  0  0
    5.6805   -6.7865    0.0000 C   0  0  0  0  0  0  0  0  0  0  0  0
    5.6901   -8.1205    0.0000 C   0  0  0  0  0  0  0  0  0  0  0  0
    6.4760   -7.8634    0.0000 C   0  0  0  0  0  0  0  0  0  0  0  0
    6.4663   -7.0339    0.0000 C   0  0  0  0  0  0  0  0  0  0  0  0
    7.1358   -8.3436    0.0000 N   0  0  0  0  0  0  0  0  0  0  0  0
    4.3707   -7.4559    0.0000 C   0  0  0  0  0  0  0  0  0  0  0  0
    5.4185   -6.0006    0.0000 O   0  0  0  0  0  0  0  0  0  0  0  0
    5.4427   -8.9063    0.0000 O   0  0  0  0  0  0  0  0  0  0  0  0
    9.4011   -7.3395    0.0000 C   0  0  0  0  0  0  0  0  0  0  0  0
   10.1579   -6.9999    0.0000 N   0  0  0  0  0  0  0  0  0  0  0  0
    3.9633   -6.7428    0.0000 C   0  0  0  0  0  0  0  0  0  0  0  0
    3.9729   -8.1787    0.0000 C   0  0  0  0  0  0  0  0  0  0  0  0
    7.8925   -8.0089    0.0000 C   0  0  0  0  0  0  0  0  0  0  0  0
    8.7220   -6.8544    0.0000 C   0  0  0  0  0  0  0  0  0  0  0  0
    9.3187   -8.1545    0.0000 C   0  0  0  0  0  0  0  0  0  0  0  0
    2.7263   -7.4705    0.0000 C   0  0  0  0  0  0  0  0  0  0  0  0
    8.5619   -8.4892    0.0000 C   0  0  0  0  0  0  0  0  0  0  0  0
    7.9749   -7.1891    0.0000 C   0  0  0  0  0  0  0  0  0  0  0  0
    3.1483   -8.1836    0.0000 C   0  0  0  0  0  0  0  0  0  0  0  0
    3.1337   -6.7525    0.0000 C   0  0  0  0  0  0  0  0  0  0  0  0
    1.9064   -7.4705    0.0000 F   0  0  0  0  0  0  0  0  0  0  0  0
   10.8273   -7.4850    0.0000 C   0  0  0  0  0  0  0  0  0  0  0  0
   10.2355   -6.1753    0.0000 C   0  0  0  0  0  0  0  0  0  0  0  0
  2  1  1  0  0  0  0
  3  1  1  0  0  0  0
  4  3  1  0  0  0  0
  5  2  1  0  0  0  0
  6  4  1  0  0  0  0
  7  1  1  0  0  0  0
  8  2  2  0  0  0  0
  9  3  2  0  0  0  0
 10 15  1  0  0  0  0
 11 10  1  0  0  0  0
 12  7  2  0  0  0  0
 13  7  1  0  0  0  0
 14  6  1  0  0  0  0
 15 19  2  0  0  0  0
 16 18  1  0  0  0  0
 17 20  1  0  0  0  0
 18 14  2  0  0  0  0
 19 14  1  0  0  0  0
 20 13  2  0  0  0  0
 21 12  1  0  0  0  0
 22 17  1  0  0  0  0
 23 11  1  0  0  0  0
 24 11  1  0  0  0  0
  5  4  1  0  0  0  0
 17 21  2  0  0  0  0
 10 16  2  0  0  0  0
M  END
>  <IDNUMBER>
F3023-0942

>  <Chemical_Name>
3-{[4-(dimethylamino)phenyl]amino}-1-(4-fluorophenyl)pyrrolidine-2,5-dione

>  <PriceCoeff>
1.00

>  <CAS>
1009289-74-0

>  <MW>
327.35

>  <Description>
solid

>  <FSP3>
0.22

>  <clogP>
3.07

>  <TPSA>
52.65

>  <Acceptor>
4

>  <Donor>
2

>  <RotBonds>
4

>  <HAC>
24

>  <Collection>
General

>  <PPDS>
+

$$$$
F3023-0946
  Mrv2219 10102508112D          

 24 26  0  0  0  0            999 V2000
    5.6040   -7.4510    0.0000 N   0  0  0  0  0  0  0  0  0  0  0  0
    6.0936   -6.7820    0.0000 C   0  0  0  0  0  0  0  0  0  0  0  0
    6.0985   -8.1151    0.0000 C   0  0  0  0  0  0  0  0  0  0  0  0
    6.8838   -7.8582    0.0000 C   0  0  0  0  0  0  0  0  0  0  0  0
    6.8789   -7.0292    0.0000 C   0  0  0  0  0  0  0  0  0  0  0  0
    7.5479   -8.3381    0.0000 N   0  0  0  0  0  0  0  0  0  0  0  0
    4.7847   -7.4510    0.0000 C   0  0  0  0  0  0  0  0  0  0  0  0
    5.8318   -5.9967    0.0000 O   0  0  0  0  0  0  0  0  0  0  0  0
    5.8512   -8.9004    0.0000 O   0  0  0  0  0  0  0  0  0  0  0  0
    9.8070   -7.3346    0.0000 C   0  0  0  0  0  0  0  0  0  0  0  0
   10.5632   -6.9953    0.0000 N   0  0  0  0  0  0  0  0  0  0  0  0
    4.3678   -6.7384    0.0000 C   0  0  0  0  0  0  0  0  0  0  0  0
    4.3824   -8.1732    0.0000 C   0  0  0  0  0  0  0  0  0  0  0  0
    8.3041   -8.0036    0.0000 C   0  0  0  0  0  0  0  0  0  0  0  0
    9.1331   -6.8498    0.0000 C   0  0  0  0  0  0  0  0  0  0  0  0
    9.7197   -8.1490    0.0000 C   0  0  0  0  0  0  0  0  0  0  0  0
    8.3817   -7.1843    0.0000 C   0  0  0  0  0  0  0  0  0  0  0  0
    8.9635   -8.4835    0.0000 C   0  0  0  0  0  0  0  0  0  0  0  0
    3.5631   -8.1781    0.0000 C   0  0  0  0  0  0  0  0  0  0  0  0
    3.5485   -6.7480    0.0000 C   0  0  0  0  0  0  0  0  0  0  0  0
    3.1413   -7.4655    0.0000 C   0  0  0  0  0  0  0  0  0  0  0  0
   10.6456   -6.1712    0.0000 C   0  0  0  0  0  0  0  0  0  0  0  0
   11.2322   -7.4801    0.0000 C   0  0  0  0  0  0  0  0  0  0  0  0
    2.3172   -7.4655    0.0000 C   0  0  0  0  0  0  0  0  0  0  0  0
  2  1  1  0  0  0  0
  3  1  1  0  0  0  0
  4  3  1  0  0  0  0
  5  2  1  0  0  0  0
  6  4  1  0  0  0  0
  7  1  1  0  0  0  0
  8  2  2  0  0  0  0
  9  3  2  0  0  0  0
 10 16  2  0  0  0  0
 11 10  1  0  0  0  0
 12  7  2  0  0  0  0
 13  7  1  0  0  0  0
 14  6  1  0  0  0  0
 15 17  2  0  0  0  0
 16 18  1  0  0  0  0
 17 14  1  0  0  0  0
 18 14  2  0  0  0  0
 19 13  2  0  0  0  0
 20 12  1  0  0  0  0
 21 19  1  0  0  0  0
 22 11  1  0  0  0  0
 23 11  1  0  0  0  0
 24 21  1  0  0  0  0
  5  4  1  0  0  0  0
 21 20  2  0  0  0  0
 15 10  1  0  0  0  0
M  END
>  <IDNUMBER>
F3023-0946

>  <Chemical_Name>
3-{[4-(dimethylamino)phenyl]amino}-1-(4-methylphenyl)pyrrolidine-2,5-dione

>  <PriceCoeff>
1.00

>  <CAS>
1009289-75-1

>  <MW>
323.39

>  <Description>
solid

>  <FSP3>
0.26

>  <clogP>
3.15

>  <TPSA>
52.65

>  <Acceptor>
4

>  <Donor>
2

>  <RotBonds>
4

>  <HAC>
24

>  <Collection>
General

>  <PPDS>
+

$$$$
F3023-0948
  Mrv2219 10102508112D          

 27 29  0  0  0  0            999 V2000
    5.6020   -7.4483    0.0000 N   0  0  0  0  0  0  0  0  0  0  0  0
    6.0914   -6.7796    0.0000 C   0  0  0  0  0  0  0  0  0  0  0  0
    6.0963   -8.1122    0.0000 C   0  0  0  0  0  0  0  0  0  0  0  0
    6.8813   -7.8554    0.0000 C   0  0  0  0  0  0  0  0  0  0  0  0
    6.8765   -7.0267    0.0000 C   0  0  0  0  0  0  0  0  0  0  0  0
    7.5452   -8.3351    0.0000 N   0  0  0  0  0  0  0  0  0  0  0  0
    4.7830   -7.4483    0.0000 C   0  0  0  0  0  0  0  0  0  0  0  0
    1.8948   -6.7602    0.0000 C   0  0  0  0  0  0  0  0  0  0  0  0
    5.8297   -5.9945    0.0000 O   0  0  0  0  0  0  0  0  0  0  0  0
    5.8491   -8.8972    0.0000 O   0  0  0  0  0  0  0  0  0  0  0  0
    2.3164   -7.4629    0.0000 S   0  0  0  0  0  0  0  0  0  0  0  0
    9.8035   -7.3320    0.0000 C   0  0  0  0  0  0  0  0  0  0  0  0
   10.5594   -6.9928    0.0000 N   0  0  0  0  0  0  0  0  0  0  0  0
    4.3663   -6.7360    0.0000 C   0  0  0  0  0  0  0  0  0  0  0  0
    4.3808   -8.1703    0.0000 C   0  0  0  0  0  0  0  0  0  0  0  0
    8.3012   -8.0008    0.0000 C   0  0  0  0  0  0  0  0  0  0  0  0
    9.1298   -6.8474    0.0000 C   0  0  0  0  0  0  0  0  0  0  0  0
    9.7162   -8.1461    0.0000 C   0  0  0  0  0  0  0  0  0  0  0  0
    3.1402   -7.4629    0.0000 C   0  0  0  0  0  0  0  0  0  0  0  0
    1.0662   -6.7650    0.0000 F   0  0  0  0  0  0  0  0  0  0  0  0
    2.3019   -6.0381    0.0000 F   0  0  0  0  0  0  0  0  0  0  0  0
    8.9603   -8.4805    0.0000 C   0  0  0  0  0  0  0  0  0  0  0  0
    8.3788   -7.1818    0.0000 C   0  0  0  0  0  0  0  0  0  0  0  0
    3.5618   -8.1752    0.0000 C   0  0  0  0  0  0  0  0  0  0  0  0
    3.5473   -6.7456    0.0000 C   0  0  0  0  0  0  0  0  0  0  0  0
   10.6418   -6.1690    0.0000 C   0  0  0  0  0  0  0  0  0  0  0  0
   11.2282   -7.4774    0.0000 C   0  0  0  0  0  0  0  0  0  0  0  0
  2  1  1  0  0  0  0
  3  1  1  0  0  0  0
  4  3  1  0  0  0  0
  5  2  1  0  0  0  0
  6  4  1  0  0  0  0
  7  1  1  0  0  0  0
  8 11  1  0  0  0  0
  9  2  2  0  0  0  0
 10  3  2  0  0  0  0
 11 19  1  0  0  0  0
 12 17  1  0  0  0  0
 13 12  1  0  0  0  0
 14  7  2  0  0  0  0
 15  7  1  0  0  0  0
 16  6  1  0  0  0  0
 17 23  2  0  0  0  0
 18 22  1  0  0  0  0
 19 24  1  0  0  0  0
 20  8  1  0  0  0  0
 21  8  1  0  0  0  0
 22 16  2  0  0  0  0
 23 16  1  0  0  0  0
 24 15  2  0  0  0  0
 25 14  1  0  0  0  0
 26 13  1  0  0  0  0
 27 13  1  0  0  0  0
  5  4  1  0  0  0  0
 19 25  2  0  0  0  0
 12 18  2  0  0  0  0
M  END
>  <IDNUMBER>
F3023-0948

>  <Chemical_Name>
1-{4-[(difluoromethyl)sulfanyl]phenyl}-3-{[4-(dimethylamino)phenyl]amino}pyrrolidine-2,5-dione

>  <PriceCoeff>
1.00

>  <CAS>
1008211-79-7

>  <MW>
391.43

>  <Description>
solid

>  <FSP3>
0.26

>  <clogP>
3.66

>  <TPSA>
77.95

>  <Acceptor>
4

>  <Donor>
2

>  <RotBonds>
6

>  <HAC>
27

>  <Collection>
General

>  <PPDS>
+

$$$$
F3023-0949
  Mrv2219 10102508112D          

 28 30  0  0  0  0            999 V2000
    5.6000   -7.4457    0.0000 N   0  0  0  0  0  0  0  0  0  0  0  0
    6.0892   -6.7772    0.0000 C   0  0  0  0  0  0  0  0  0  0  0  0
    6.0941   -8.1093    0.0000 C   0  0  0  0  0  0  0  0  0  0  0  0
    6.8789   -7.8526    0.0000 C   0  0  0  0  0  0  0  0  0  0  0  0
    6.8740   -7.0242    0.0000 C   0  0  0  0  0  0  0  0  0  0  0  0
    7.5425   -8.3322    0.0000 N   0  0  0  0  0  0  0  0  0  0  0  0
    4.7813   -7.4457    0.0000 C   0  0  0  0  0  0  0  0  0  0  0  0
    2.3156   -7.4602    0.0000 C   0  0  0  0  0  0  0  0  0  0  0  0
    5.8276   -5.9924    0.0000 O   0  0  0  0  0  0  0  0  0  0  0  0
    5.8471   -8.8941    0.0000 O   0  0  0  0  0  0  0  0  0  0  0  0
    3.1391   -7.4602    0.0000 C   0  0  0  0  0  0  0  0  0  0  0  0
    9.8000   -7.3294    0.0000 C   0  0  0  0  0  0  0  0  0  0  0  0
   10.5557   -6.9903    0.0000 N   0  0  0  0  0  0  0  0  0  0  0  0
    1.9038   -8.1868    0.0000 O   0  0  0  0  0  0  0  0  0  0  0  0
    4.3647   -6.7336    0.0000 C   0  0  0  0  0  0  0  0  0  0  0  0
    4.3793   -8.1674    0.0000 C   0  0  0  0  0  0  0  0  0  0  0  0
    3.5605   -8.1723    0.0000 C   0  0  0  0  0  0  0  0  0  0  0  0
    3.5460   -6.7432    0.0000 C   0  0  0  0  0  0  0  0  0  0  0  0
    8.2982   -7.9979    0.0000 C   0  0  0  0  0  0  0  0  0  0  0  0
    9.7128   -8.1432    0.0000 C   0  0  0  0  0  0  0  0  0  0  0  0
    9.1266   -6.8449    0.0000 C   0  0  0  0  0  0  0  0  0  0  0  0
    1.8941   -6.7577    0.0000 O   0  0  0  0  0  0  0  0  0  0  0  0
    8.3758   -7.1792    0.0000 C   0  0  0  0  0  0  0  0  0  0  0  0
    8.9571   -8.4775    0.0000 C   0  0  0  0  0  0  0  0  0  0  0  0
   11.2242   -7.4747    0.0000 C   0  0  0  0  0  0  0  0  0  0  0  0
   10.6380   -6.1668    0.0000 C   0  0  0  0  0  0  0  0  0  0  0  0
    2.2962   -6.0360    0.0000 C   0  0  0  0  0  0  0  0  0  0  0  0
    1.8747   -5.3239    0.0000 C   0  0  0  0  0  0  0  0  0  0  0  0
  2  1  1  0  0  0  0
  3  1  1  0  0  0  0
  4  3  1  0  0  0  0
  5  2  1  0  0  0  0
  6  4  1  0  0  0  0
  7  1  1  0  0  0  0
  8 11  1  0  0  0  0
  9  2  2  0  0  0  0
 10  3  2  0  0  0  0
 11 17  1  0  0  0  0
 12 20  2  0  0  0  0
 13 12  1  0  0  0  0
 14  8  2  0  0  0  0
 15  7  2  0  0  0  0
 16  7  1  0  0  0  0
 17 16  2  0  0  0  0
 18 15  1  0  0  0  0
 19  6  1  0  0  0  0
 20 24  1  0  0  0  0
 21 23  2  0  0  0  0
 22  8  1  0  0  0  0
 23 19  1  0  0  0  0
 24 19  2  0  0  0  0
 25 13  1  0  0  0  0
 26 13  1  0  0  0  0
 27 22  1  0  0  0  0
 28 27  1  0  0  0  0
  5  4  1  0  0  0  0
 11 18  2  0  0  0  0
 21 12  1  0  0  0  0
M  END
>  <IDNUMBER>
F3023-0949

>  <Chemical_Name>
ethyl 4-(3-{[4-(dimethylamino)phenyl]amino}-2,5-dioxopyrrolidin-1-yl)benzoate

>  <PriceCoeff>
1.00

>  <CAS>
1009524-59-7

>  <MW>
381.43

>  <Description>
solid

>  <FSP3>
0.29

>  <clogP>
3.66

>  <TPSA>
78.95

>  <Acceptor>
6

>  <Donor>
2

>  <RotBonds>
7

>  <HAC>
28

>  <Collection>
General

>  <PPDS>
+

$$$$
F3023-0953
  Mrv2219 10102508112D          

 25 27  0  0  0  0            999 V2000
    5.6040   -7.4510    0.0000 N   0  0  0  0  0  0  0  0  0  0  0  0
    6.0936   -6.7820    0.0000 C   0  0  0  0  0  0  0  0  0  0  0  0
    6.0985   -8.1151    0.0000 C   0  0  0  0  0  0  0  0  0  0  0  0
    4.7847   -7.4510    0.0000 C   0  0  0  0  0  0  0  0  0  0  0  0
    6.8838   -7.8582    0.0000 C   0  0  0  0  0  0  0  0  0  0  0  0
    6.8789   -7.0292    0.0000 C   0  0  0  0  0  0  0  0  0  0  0  0
    4.3824   -8.1732    0.0000 C   0  0  0  0  0  0  0  0  0  0  0  0
    7.5479   -8.3381    0.0000 N   0  0  0  0  0  0  0  0  0  0  0  0
    5.8318   -5.9967    0.0000 O   0  0  0  0  0  0  0  0  0  0  0  0
    5.8512   -8.9004    0.0000 O   0  0  0  0  0  0  0  0  0  0  0  0
    3.5631   -8.1781    0.0000 C   0  0  0  0  0  0  0  0  0  0  0  0
    9.8070   -7.3346    0.0000 C   0  0  0  0  0  0  0  0  0  0  0  0
   10.5632   -6.9953    0.0000 N   0  0  0  0  0  0  0  0  0  0  0  0
    8.3041   -8.0036    0.0000 C   0  0  0  0  0  0  0  0  0  0  0  0
    9.1331   -6.8498    0.0000 C   0  0  0  0  0  0  0  0  0  0  0  0
    9.7197   -8.1490    0.0000 C   0  0  0  0  0  0  0  0  0  0  0  0
    4.3678   -6.7384    0.0000 C   0  0  0  0  0  0  0  0  0  0  0  0
    3.1559   -8.9004    0.0000 Cl  0  0  0  0  0  0  0  0  0  0  0  0
    8.3817   -7.1843    0.0000 C   0  0  0  0  0  0  0  0  0  0  0  0
    8.9635   -8.4835    0.0000 C   0  0  0  0  0  0  0  0  0  0  0  0
    4.8041   -8.8762    0.0000 C   0  0  0  0  0  0  0  0  0  0  0  0
    3.5485   -6.7480    0.0000 C   0  0  0  0  0  0  0  0  0  0  0  0
    3.1413   -7.4655    0.0000 C   0  0  0  0  0  0  0  0  0  0  0  0
   10.6456   -6.1712    0.0000 C   0  0  0  0  0  0  0  0  0  0  0  0
   11.2322   -7.4801    0.0000 C   0  0  0  0  0  0  0  0  0  0  0  0
  2  1  1  0  0  0  0
  3  1  1  0  0  0  0
  4  1  1  0  0  0  0
  5  3  1  0  0  0  0
  6  2  1  0  0  0  0
  7  4  1  0  0  0  0
  8  5  1  0  0  0  0
  9  2  2  0  0  0  0
 10  3  2  0  0  0  0
 11  7  2  0  0  0  0
 12 16  2  0  0  0  0
 13 12  1  0  0  0  0
 14  8  1  0  0  0  0
 15 19  2  0  0  0  0
 16 20  1  0  0  0  0
 17  4  2  0  0  0  0
 18 11  1  0  0  0  0
 19 14  1  0  0  0  0
 20 14  2  0  0  0  0
 21  7  1  0  0  0  0
 22 17  1  0  0  0  0
 23 22  2  0  0  0  0
 24 13  1  0  0  0  0
 25 13  1  0  0  0  0
  6  5  1  0  0  0  0
 23 11  1  0  0  0  0
 15 12  1  0  0  0  0
M  END
>  <IDNUMBER>
F3023-0953

>  <Chemical_Name>
1-(3-chloro-2-methylphenyl)-3-{[4-(dimethylamino)phenyl]amino}pyrrolidine-2,5-dione

>  <PriceCoeff>
1.00

>  <CAS>
1009234-21-2

>  <MW>
357.83

>  <Description>
solid

>  <FSP3>
0.26

>  <clogP>
3.74

>  <TPSA>
52.65

>  <Acceptor>
4

>  <Donor>
2

>  <RotBonds>
4

>  <HAC>
25

>  <Collection>
General

>  <PPDS>
+

$$$$
F3023-0954
  Mrv2219 10102508112D          

 22 24  0  0  0  0            999 V2000
    4.1098   -7.4984    0.0000 N   0  0  0  0  0  0  0  0  0  0  0  0
    4.5939   -8.1615    0.0000 C   0  0  0  0  0  0  0  0  0  0  0  0
    4.5939   -6.8304    0.0000 C   0  0  0  0  0  0  0  0  0  0  0  0
    5.3781   -7.9050    0.0000 C   0  0  0  0  0  0  0  0  0  0  0  0
    5.3781   -7.0772    0.0000 C   0  0  0  0  0  0  0  0  0  0  0  0
    9.0523   -7.0433    0.0000 N   0  0  0  0  0  0  0  0  0  0  0  0
    6.0462   -8.3842    0.0000 N   0  0  0  0  0  0  0  0  0  0  0  0
    8.2971   -7.3822    0.0000 C   0  0  0  0  0  0  0  0  0  0  0  0
    4.3470   -8.9457    0.0000 O   0  0  0  0  0  0  0  0  0  0  0  0
    4.3325   -6.0462    0.0000 O   0  0  0  0  0  0  0  0  0  0  0  0
   10.5626   -6.3753    0.0000 O   0  0  0  0  0  0  0  0  0  0  0  0
    8.2196   -8.1954    0.0000 C   0  0  0  0  0  0  0  0  0  0  0  0
    7.6291   -6.8981    0.0000 C   0  0  0  0  0  0  0  0  0  0  0  0
    6.8013   -8.0502    0.0000 C   0  0  0  0  0  0  0  0  0  0  0  0
    3.2869   -7.4984    0.0000 C   0  0  0  0  0  0  0  0  0  0  0  0
    7.4645   -8.5295    0.0000 C   0  0  0  0  0  0  0  0  0  0  0  0
    6.8739   -7.2321    0.0000 C   0  0  0  0  0  0  0  0  0  0  0  0
    9.7203   -7.5274    0.0000 C   0  0  0  0  0  0  0  0  0  0  0  0
    9.1394   -6.2204    0.0000 C   0  0  0  0  0  0  0  0  0  0  0  0
    9.8946   -5.8864    0.0000 C   0  0  0  0  0  0  0  0  0  0  0  0
   10.4754   -7.1934    0.0000 C   0  0  0  0  0  0  0  0  0  0  0  0
    2.8754   -6.7868    0.0000 C   0  0  0  0  0  0  0  0  0  0  0  0
  2  1  1  0  0  0  0
  3  1  1  0  0  0  0
  4  2  1  0  0  0  0
  5  3  1  0  0  0  0
  6  8  1  0  0  0  0
  7  4  1  0  0  0  0
  8 13  1  0  0  0  0
  9  2  2  0  0  0  0
 10  3  2  0  0  0  0
 11 20  1  0  0  0  0
 12 16  1  0  0  0  0
 13 17  2  0  0  0  0
 14  7  1  0  0  0  0
 15  1  1  0  0  0  0
 16 14  2  0  0  0  0
 17 14  1  0  0  0  0
 18  6  1  0  0  0  0
 19  6  1  0  0  0  0
 20 19  1  0  0  0  0
 21 18  1  0  0  0  0
 22 15  1  0  0  0  0
  5  4  1  0  0  0  0
  8 12  2  0  0  0  0
 11 21  1  0  0  0  0
M  END
>  <IDNUMBER>
F3023-0954

>  <Chemical_Name>
1-ethyl-3-{[4-(morpholin-4-yl)phenyl]amino}pyrrolidine-2,5-dione

>  <PriceCoeff>
1.00

>  <CAS>
1007926-02-4

>  <MW>
303.36

>  <Description>
solid

>  <FSP3>
0.50

>  <clogP>
1.64

>  <TPSA>
61.88

>  <Acceptor>
5

>  <Donor>
2

>  <RotBonds>
4

>  <HAC>
22

>  <Collection>
General

>  <PPDS>
+

$$$$
F3023-0955
  Mrv2219 10102508112D          

 24 26  0  0  0  0            999 V2000
   -2.0898   -5.2949    0.0000 N   0  0  0  0  0  0  0  0  0  0  0  0
   -1.5952   -5.9544    0.0000 C   0  0  0  0  0  0  0  0  0  0  0  0
   -1.6001   -4.6258    0.0000 C   0  0  0  0  0  0  0  0  0  0  0  0
   -0.8097   -5.7022    0.0000 C   0  0  0  0  0  0  0  0  0  0  0  0
   -0.8146   -4.8780    0.0000 C   0  0  0  0  0  0  0  0  0  0  0  0
    2.8706   -4.8343    0.0000 N   0  0  0  0  0  0  0  0  0  0  0  0
   -0.1455   -6.1823    0.0000 N   0  0  0  0  0  0  0  0  0  0  0  0
    2.1141   -5.1689    0.0000 C   0  0  0  0  0  0  0  0  0  0  0  0
   -1.8425   -6.7399    0.0000 O   0  0  0  0  0  0  0  0  0  0  0  0
   -1.8620   -3.8452    0.0000 O   0  0  0  0  0  0  0  0  0  0  0  0
    4.3834   -4.1652    0.0000 O   0  0  0  0  0  0  0  0  0  0  0  0
    2.0269   -5.9981    0.0000 C   0  0  0  0  0  0  0  0  0  0  0  0
    1.4401   -4.6889    0.0000 C   0  0  0  0  0  0  0  0  0  0  0  0
    0.6110   -5.8477    0.0000 C   0  0  0  0  0  0  0  0  0  0  0  0
   -2.9093   -5.2998    0.0000 C   0  0  0  0  0  0  0  0  0  0  0  0
    1.2704   -6.3326    0.0000 C   0  0  0  0  0  0  0  0  0  0  0  0
    0.6886   -5.0234    0.0000 C   0  0  0  0  0  0  0  0  0  0  0  0
    3.5397   -5.3289    0.0000 C   0  0  0  0  0  0  0  0  0  0  0  0
    2.9529   -4.0197    0.0000 C   0  0  0  0  0  0  0  0  0  0  0  0
    3.7094   -3.6852    0.0000 C   0  0  0  0  0  0  0  0  0  0  0  0
    4.2912   -4.9895    0.0000 C   0  0  0  0  0  0  0  0  0  0  0  0
   -3.3166   -6.0126    0.0000 C   0  0  0  0  0  0  0  0  0  0  0  0
   -4.1409   -6.0223    0.0000 C   0  0  0  0  0  0  0  0  0  0  0  0
   -4.5482   -6.7399    0.0000 C   0  0  0  0  0  0  0  0  0  0  0  0
  2  1  1  0  0  0  0
  3  1  1  0  0  0  0
  4  2  1  0  0  0  0
  5  3  1  0  0  0  0
  6  8  1  0  0  0  0
  7  4  1  0  0  0  0
  8 13  1  0  0  0  0
  9  2  2  0  0  0  0
 10  3  2  0  0  0  0
 11 20  1  0  0  0  0
 12 16  1  0  0  0  0
 13 17  2  0  0  0  0
 14  7  1  0  0  0  0
 15  1  1  0  0  0  0
 16 14  2  0  0  0  0
 17 14  1  0  0  0  0
 18  6  1  0  0  0  0
 19  6  1  0  0  0  0
 20 19  1  0  0  0  0
 21 18  1  0  0  0  0
 22 15  1  0  0  0  0
 23 22  1  0  0  0  0
 24 23  1  0  0  0  0
  5  4  1  0  0  0  0
  8 12  2  0  0  0  0
 11 21  1  0  0  0  0
M  END
>  <IDNUMBER>
F3023-0955

>  <Chemical_Name>
1-butyl-3-{[4-(morpholin-4-yl)phenyl]amino}pyrrolidine-2,5-dione

>  <PriceCoeff>
1.00

>  <CAS>
1008927-40-9

>  <MW>
331.41

>  <Description>
solid

>  <FSP3>
0.56

>  <clogP>
2.70

>  <TPSA>
61.88

>  <Acceptor>
5

>  <Donor>
2

>  <RotBonds>
6

>  <HAC>
24

>  <Collection>
General

>  <PPDS>
+

$$$$
F3023-0956
  Mrv2219 10102508112D          

 23 25  0  0  0  0            999 V2000
    4.1093   -7.4975    0.0000 N   0  0  0  0  0  0  0  0  0  0  0  0
    4.5934   -8.1606    0.0000 C   0  0  0  0  0  0  0  0  0  0  0  0
    4.5934   -6.8296    0.0000 C   0  0  0  0  0  0  0  0  0  0  0  0
    5.3775   -7.9041    0.0000 C   0  0  0  0  0  0  0  0  0  0  0  0
    5.3775   -7.0764    0.0000 C   0  0  0  0  0  0  0  0  0  0  0  0
    9.0512   -7.0425    0.0000 N   0  0  0  0  0  0  0  0  0  0  0  0
    6.0455   -8.3833    0.0000 N   0  0  0  0  0  0  0  0  0  0  0  0
    8.2962   -7.3814    0.0000 C   0  0  0  0  0  0  0  0  0  0  0  0
    4.3466   -8.9447    0.0000 O   0  0  0  0  0  0  0  0  0  0  0  0
    4.3320   -6.0455    0.0000 O   0  0  0  0  0  0  0  0  0  0  0  0
   10.5614   -6.3746    0.0000 O   0  0  0  0  0  0  0  0  0  0  0  0
    8.2187   -8.1945    0.0000 C   0  0  0  0  0  0  0  0  0  0  0  0
    7.6282   -6.8973    0.0000 C   0  0  0  0  0  0  0  0  0  0  0  0
    6.8005   -8.0493    0.0000 C   0  0  0  0  0  0  0  0  0  0  0  0
    3.2865   -7.4975    0.0000 C   0  0  0  0  0  0  0  0  0  0  0  0
    7.4636   -8.5285    0.0000 C   0  0  0  0  0  0  0  0  0  0  0  0
    6.8731   -7.2313    0.0000 C   0  0  0  0  0  0  0  0  0  0  0  0
    9.7192   -7.5266    0.0000 C   0  0  0  0  0  0  0  0  0  0  0  0
    9.1384   -6.2197    0.0000 C   0  0  0  0  0  0  0  0  0  0  0  0
    9.8934   -5.8857    0.0000 C   0  0  0  0  0  0  0  0  0  0  0  0
   10.4743   -7.1926    0.0000 C   0  0  0  0  0  0  0  0  0  0  0  0
    2.8751   -6.7860    0.0000 C   0  0  0  0  0  0  0  0  0  0  0  0
    2.0474   -6.7957    0.0000 C   0  0  0  0  0  0  0  0  0  0  0  0
  2  1  1  0  0  0  0
  3  1  1  0  0  0  0
  4  2  1  0  0  0  0
  5  3  1  0  0  0  0
  6  8  1  0  0  0  0
  7  4  1  0  0  0  0
  8 13  1  0  0  0  0
  9  2  2  0  0  0  0
 10  3  2  0  0  0  0
 11 20  1  0  0  0  0
 12 16  1  0  0  0  0
 13 17  2  0  0  0  0
 14  7  1  0  0  0  0
 15  1  1  0  0  0  0
 16 14  2  0  0  0  0
 17 14  1  0  0  0  0
 18  6  1  0  0  0  0
 19  6  1  0  0  0  0
 20 19  1  0  0  0  0
 21 18  1  0  0  0  0
 22 15  1  0  0  0  0
 23 22  1  0  0  0  0
  5  4  1  0  0  0  0
  8 12  2  0  0  0  0
 11 21  1  0  0  0  0
M  END
>  <IDNUMBER>
F3023-0956

>  <Chemical_Name>
3-{[4-(morpholin-4-yl)phenyl]amino}-1-propylpyrrolidine-2,5-dione

>  <PriceCoeff>
1.00

>  <CAS>
1009262-62-7

>  <MW>
317.38

>  <Description>
solid

>  <FSP3>
0.53

>  <clogP>
2.17

>  <TPSA>
61.88

>  <Acceptor>
5

>  <Donor>
2

>  <RotBonds>
5

>  <HAC>
23

>  <Collection>
General

>  <PPDS>
+

$$$$
F3023-0957
  Mrv2219 10102508112D          

 28 31  0  0  0  0            999 V2000
    4.1093   -7.4975    0.0000 N   0  0  0  0  0  0  0  0  0  0  0  0
    4.5934   -6.8296    0.0000 C   0  0  0  0  0  0  0  0  0  0  0  0
    4.5934   -8.1606    0.0000 C   0  0  0  0  0  0  0  0  0  0  0  0
    5.3775   -7.9041    0.0000 C   0  0  0  0  0  0  0  0  0  0  0  0
    5.3775   -7.0764    0.0000 C   0  0  0  0  0  0  0  0  0  0  0  0
    3.2865   -7.4975    0.0000 C   0  0  0  0  0  0  0  0  0  0  0  0
    9.0512   -7.0425    0.0000 N   0  0  0  0  0  0  0  0  0  0  0  0
    6.0455   -8.3833    0.0000 N   0  0  0  0  0  0  0  0  0  0  0  0
    4.3320   -6.0455    0.0000 O   0  0  0  0  0  0  0  0  0  0  0  0
    8.2962   -7.3814    0.0000 C   0  0  0  0  0  0  0  0  0  0  0  0
    4.3466   -8.9447    0.0000 O   0  0  0  0  0  0  0  0  0  0  0  0
    2.8800   -8.2187    0.0000 C   0  0  0  0  0  0  0  0  0  0  0  0
   10.5614   -6.3746    0.0000 O   0  0  0  0  0  0  0  0  0  0  0  0
    7.6282   -6.8973    0.0000 C   0  0  0  0  0  0  0  0  0  0  0  0
    8.2187   -8.1945    0.0000 C   0  0  0  0  0  0  0  0  0  0  0  0
    6.8005   -8.0493    0.0000 C   0  0  0  0  0  0  0  0  0  0  0  0
    6.8731   -7.2313    0.0000 C   0  0  0  0  0  0  0  0  0  0  0  0
    7.4636   -8.5285    0.0000 C   0  0  0  0  0  0  0  0  0  0  0  0
    9.1384   -6.2197    0.0000 C   0  0  0  0  0  0  0  0  0  0  0  0
    9.7192   -7.5266    0.0000 C   0  0  0  0  0  0  0  0  0  0  0  0
    2.8751   -6.7860    0.0000 C   0  0  0  0  0  0  0  0  0  0  0  0
    9.8934   -5.8857    0.0000 C   0  0  0  0  0  0  0  0  0  0  0  0
   10.4743   -7.1926    0.0000 C   0  0  0  0  0  0  0  0  0  0  0  0
    2.0523   -8.2236    0.0000 C   0  0  0  0  0  0  0  0  0  0  0  0
    3.2962   -8.9206    0.0000 C   0  0  0  0  0  0  0  0  0  0  0  0
    2.8945   -9.6321    0.0000 C   0  0  0  0  0  0  0  0  0  0  0  0
    1.6457   -8.9351    0.0000 C   0  0  0  0  0  0  0  0  0  0  0  0
    2.0668   -9.6466    0.0000 C   0  0  0  0  0  0  0  0  0  0  0  0
  2  1  1  0  0  0  0
  3  1  1  0  0  0  0
  4  3  1  0  0  0  0
  5  2  1  0  0  0  0
  6  1  1  0  0  0  0
  7 10  1  0  0  0  0
  8  4  1  0  0  0  0
  9  2  2  0  0  0  0
 10 15  2  0  0  0  0
 11  3  2  0  0  0  0
 12  6  1  0  0  0  0
 13 23  1  0  0  0  0
 14 17  2  0  0  0  0
 15 18  1  0  0  0  0
 16  8  1  0  0  0  0
 17 16  1  0  0  0  0
 18 16  2  0  0  0  0
 19  7  1  0  0  0  0
 20  7  1  0  0  0  0
 21  6  1  0  0  0  0
 22 19  1  0  0  0  0
 23 20  1  0  0  0  0
 24 12  2  0  0  0  0
 25 12  1  0  0  0  0
 26 25  2  0  0  0  0
 27 24  1  0  0  0  0
 28 26  1  0  0  0  0
  5  4  1  0  0  0  0
 28 27  2  0  0  0  0
 14 10  1  0  0  0  0
 13 22  1  0  0  0  0
M  END
>  <IDNUMBER>
F3023-0957

>  <Chemical_Name>
3-{[4-(morpholin-4-yl)phenyl]amino}-1-(1-phenylethyl)pyrrolidine-2,5-dione

>  <PriceCoeff>
1.00

>  <CAS>
1008927-45-4

>  <MW>
379.45

>  <Description>
solid

>  <FSP3>
0.36

>  <clogP>
3.00

>  <TPSA>
61.88

>  <Acceptor>
5

>  <Donor>
2

>  <RotBonds>
5

>  <HAC>
28

>  <Collection>
General

>  <PPDS>
+

$$$$
F3023-0958
  Mrv2219 10102508112D          

 24 26  0  0  0  0            999 V2000
    4.1098   -7.4984    0.0000 N   0  0  0  0  0  0  0  0  0  0  0  0
    4.5939   -8.1615    0.0000 C   0  0  0  0  0  0  0  0  0  0  0  0
    4.5939   -6.8304    0.0000 C   0  0  0  0  0  0  0  0  0  0  0  0
    5.3781   -7.9050    0.0000 C   0  0  0  0  0  0  0  0  0  0  0  0
    5.3781   -7.0772    0.0000 C   0  0  0  0  0  0  0  0  0  0  0  0
    9.0523   -7.0433    0.0000 N   0  0  0  0  0  0  0  0  0  0  0  0
    6.0462   -8.3842    0.0000 N   0  0  0  0  0  0  0  0  0  0  0  0
    8.2971   -7.3822    0.0000 C   0  0  0  0  0  0  0  0  0  0  0  0
    4.3470   -8.9457    0.0000 O   0  0  0  0  0  0  0  0  0  0  0  0
    4.3325   -6.0462    0.0000 O   0  0  0  0  0  0  0  0  0  0  0  0
   10.5626   -6.3753    0.0000 O   0  0  0  0  0  0  0  0  0  0  0  0
    8.2196   -8.1954    0.0000 C   0  0  0  0  0  0  0  0  0  0  0  0
    7.6291   -6.8981    0.0000 C   0  0  0  0  0  0  0  0  0  0  0  0
    6.8013   -8.0502    0.0000 C   0  0  0  0  0  0  0  0  0  0  0  0
    3.2869   -7.4984    0.0000 C   0  0  0  0  0  0  0  0  0  0  0  0
    6.8739   -7.2321    0.0000 C   0  0  0  0  0  0  0  0  0  0  0  0
    7.4645   -8.5295    0.0000 C   0  0  0  0  0  0  0  0  0  0  0  0
    9.1394   -6.2204    0.0000 C   0  0  0  0  0  0  0  0  0  0  0  0
    9.7203   -7.5274    0.0000 C   0  0  0  0  0  0  0  0  0  0  0  0
    2.0476   -6.7964    0.0000 O   0  0  0  0  0  0  0  0  0  0  0  0
    9.8946   -5.8864    0.0000 C   0  0  0  0  0  0  0  0  0  0  0  0
   10.4754   -7.1934    0.0000 C   0  0  0  0  0  0  0  0  0  0  0  0
    2.8754   -6.7868    0.0000 C   0  0  0  0  0  0  0  0  0  0  0  0
    1.6314   -6.0897    0.0000 C   0  0  0  0  0  0  0  0  0  0  0  0
  2  1  1  0  0  0  0
  3  1  1  0  0  0  0
  4  2  1  0  0  0  0
  5  3  1  0  0  0  0
  6  8  1  0  0  0  0
  7  4  1  0  0  0  0
  8 12  2  0  0  0  0
  9  2  2  0  0  0  0
 10  3  2  0  0  0  0
 11 22  1  0  0  0  0
 12 17  1  0  0  0  0
 13 16  2  0  0  0  0
 14  7  1  0  0  0  0
 15  1  1  0  0  0  0
 16 14  1  0  0  0  0
 17 14  2  0  0  0  0
 18  6  1  0  0  0  0
 19  6  1  0  0  0  0
 20 23  1  0  0  0  0
 21 18  1  0  0  0  0
 22 19  1  0  0  0  0
 23 15  1  0  0  0  0
 24 20  1  0  0  0  0
  5  4  1  0  0  0  0
 13  8  1  0  0  0  0
 11 21  1  0  0  0  0
M  END
>  <IDNUMBER>
F3023-0958

>  <Chemical_Name>
1-(2-methoxyethyl)-3-{[4-(morpholin-4-yl)phenyl]amino}pyrrolidine-2,5-dione

>  <PriceCoeff>
1.00

>  <CAS>
1008712-49-9

>  <MW>
333.38

>  <Description>
solid

>  <FSP3>
0.53

>  <clogP>
1.37

>  <TPSA>
71.11

>  <Acceptor>
6

>  <Donor>
2

>  <RotBonds>
6

>  <HAC>
24

>  <Collection>
General

>  <PPDS>
+

$$$$
F3023-0959
  Mrv2219 10102508112D          

 28 31  0  0  0  0            999 V2000
    4.1062   -7.4918    0.0000 N   0  0  0  0  0  0  0  0  0  0  0  0
    4.5899   -8.1543    0.0000 C   0  0  0  0  0  0  0  0  0  0  0  0
    4.5899   -6.8243    0.0000 C   0  0  0  0  0  0  0  0  0  0  0  0
    5.3734   -7.8980    0.0000 C   0  0  0  0  0  0  0  0  0  0  0  0
    5.3734   -7.0710    0.0000 C   0  0  0  0  0  0  0  0  0  0  0  0
    9.0443   -7.0371    0.0000 N   0  0  0  0  0  0  0  0  0  0  0  0
    3.2840   -7.4918    0.0000 C   0  0  0  0  0  0  0  0  0  0  0  0
    6.0408   -8.3768    0.0000 N   0  0  0  0  0  0  0  0  0  0  0  0
    8.2898   -7.3757    0.0000 C   0  0  0  0  0  0  0  0  0  0  0  0
    4.3432   -8.9378    0.0000 O   0  0  0  0  0  0  0  0  0  0  0  0
    4.3287   -6.0408    0.0000 O   0  0  0  0  0  0  0  0  0  0  0  0
   10.5532   -6.3697    0.0000 O   0  0  0  0  0  0  0  0  0  0  0  0
    8.2124   -8.1882    0.0000 C   0  0  0  0  0  0  0  0  0  0  0  0
    7.6223   -6.8920    0.0000 C   0  0  0  0  0  0  0  0  0  0  0  0
    6.7953   -8.0431    0.0000 C   0  0  0  0  0  0  0  0  0  0  0  0
    2.8777   -8.2124    0.0000 C   0  0  0  0  0  0  0  0  0  0  0  0
    6.8678   -7.2257    0.0000 C   0  0  0  0  0  0  0  0  0  0  0  0
    7.4579   -8.5219    0.0000 C   0  0  0  0  0  0  0  0  0  0  0  0
    2.0507   -8.2172    0.0000 C   0  0  0  0  0  0  0  0  0  0  0  0
    9.7117   -7.5208    0.0000 C   0  0  0  0  0  0  0  0  0  0  0  0
    9.1313   -6.2149    0.0000 C   0  0  0  0  0  0  0  0  0  0  0  0
    9.8858   -5.8812    0.0000 C   0  0  0  0  0  0  0  0  0  0  0  0
   10.4662   -7.1871    0.0000 C   0  0  0  0  0  0  0  0  0  0  0  0
    1.6444   -7.5063    0.0000 C   0  0  0  0  0  0  0  0  0  0  0  0
    1.6541   -8.9282    0.0000 C   0  0  0  0  0  0  0  0  0  0  0  0
    0.8319   -8.9378    0.0000 C   0  0  0  0  0  0  0  0  0  0  0  0
    0.8174   -7.5063    0.0000 C   0  0  0  0  0  0  0  0  0  0  0  0
    0.4111   -8.2269    0.0000 C   0  0  0  0  0  0  0  0  0  0  0  0
  2  1  1  0  0  0  0
  3  1  1  0  0  0  0
  4  2  1  0  0  0  0
  5  3  1  0  0  0  0
  6  9  1  0  0  0  0
  7  1  1  0  0  0  0
  8  4  1  0  0  0  0
  9 13  2  0  0  0  0
 10  2  2  0  0  0  0
 11  3  2  0  0  0  0
 12 22  1  0  0  0  0
 13 18  1  0  0  0  0
 14 17  2  0  0  0  0
 15  8  1  0  0  0  0
 16  7  1  0  0  0  0
 17 15  1  0  0  0  0
 18 15  2  0  0  0  0
 19 16  1  0  0  0  0
 20  6  1  0  0  0  0
 21  6  1  0  0  0  0
 22 21  1  0  0  0  0
 23 20  1  0  0  0  0
 24 19  2  0  0  0  0
 25 19  1  0  0  0  0
 26 25  2  0  0  0  0
 27 24  1  0  0  0  0
 28 26  1  0  0  0  0
  5  4  1  0  0  0  0
 28 27  2  0  0  0  0
 14  9  1  0  0  0  0
 12 23  1  0  0  0  0
M  END
>  <IDNUMBER>
F3023-0959

>  <Chemical_Name>
3-{[4-(morpholin-4-yl)phenyl]amino}-1-(2-phenylethyl)pyrrolidine-2,5-dione

>  <PriceCoeff>
1.00

>  <CAS>
1008012-45-0

>  <MW>
379.45

>  <Description>
solid

>  <FSP3>
0.36

>  <clogP>
3.21

>  <TPSA>
61.88

>  <Acceptor>
5

>  <Donor>
2

>  <RotBonds>
6

>  <HAC>
28

>  <Collection>
General

>  <PPDS>
+

$$$$
F3023-0961
  Mrv2219 10102508112D          

 27 29  0  0  0  0            999 V2000
    4.1098   -7.4984    0.0000 N   0  0  0  0  0  0  0  0  0  0  0  0
    4.5939   -8.1615    0.0000 C   0  0  0  0  0  0  0  0  0  0  0  0
    4.5939   -6.8304    0.0000 C   0  0  0  0  0  0  0  0  0  0  0  0
    5.3781   -7.9050    0.0000 C   0  0  0  0  0  0  0  0  0  0  0  0
    5.3781   -7.0772    0.0000 C   0  0  0  0  0  0  0  0  0  0  0  0
    9.0523   -7.0433    0.0000 N   0  0  0  0  0  0  0  0  0  0  0  0
    6.0462   -8.3842    0.0000 N   0  0  0  0  0  0  0  0  0  0  0  0
    8.2971   -7.3822    0.0000 C   0  0  0  0  0  0  0  0  0  0  0  0
    4.3470   -8.9457    0.0000 O   0  0  0  0  0  0  0  0  0  0  0  0
    4.3325   -6.0462    0.0000 O   0  0  0  0  0  0  0  0  0  0  0  0
   10.5626   -6.3753    0.0000 O   0  0  0  0  0  0  0  0  0  0  0  0
    3.2869   -7.4984    0.0000 C   0  0  0  0  0  0  0  0  0  0  0  0
    8.2196   -8.1954    0.0000 C   0  0  0  0  0  0  0  0  0  0  0  0
    7.6291   -6.8981    0.0000 C   0  0  0  0  0  0  0  0  0  0  0  0
    6.8013   -8.0502    0.0000 C   0  0  0  0  0  0  0  0  0  0  0  0
    7.4645   -8.5295    0.0000 C   0  0  0  0  0  0  0  0  0  0  0  0
    6.8739   -7.2321    0.0000 C   0  0  0  0  0  0  0  0  0  0  0  0
    9.7203   -7.5274    0.0000 C   0  0  0  0  0  0  0  0  0  0  0  0
    9.1394   -6.2204    0.0000 C   0  0  0  0  0  0  0  0  0  0  0  0
    2.8754   -6.7868    0.0000 C   0  0  0  0  0  0  0  0  0  0  0  0
    1.6314   -6.0897    0.0000 O   0  0  0  0  0  0  0  0  0  0  0  0
    9.8946   -5.8864    0.0000 C   0  0  0  0  0  0  0  0  0  0  0  0
   10.4754   -7.1934    0.0000 C   0  0  0  0  0  0  0  0  0  0  0  0
    2.0476   -6.7964    0.0000 C   0  0  0  0  0  0  0  0  0  0  0  0
    0.8132   -6.0897    0.0000 C   0  0  0  0  0  0  0  0  0  0  0  0
    0.3970   -5.3781    0.0000 C   0  0  0  0  0  0  0  0  0  0  0  0
    0.3970   -6.8013    0.0000 C   0  0  0  0  0  0  0  0  0  0  0  0
  2  1  1  0  0  0  0
  3  1  1  0  0  0  0
  4  2  1  0  0  0  0
  5  3  1  0  0  0  0
  6  8  1  0  0  0  0
  7  4  1  0  0  0  0
  8 14  1  0  0  0  0
  9  2  2  0  0  0  0
 10  3  2  0  0  0  0
 11 22  1  0  0  0  0
 12  1  1  0  0  0  0
 13 16  1  0  0  0  0
 14 17  2  0  0  0  0
 15  7  1  0  0  0  0
 16 15  2  0  0  0  0
 17 15  1  0  0  0  0
 18  6  1  0  0  0  0
 19  6  1  0  0  0  0
 20 12  1  0  0  0  0
 21 24  1  0  0  0  0
 22 19  1  0  0  0  0
 23 18  1  0  0  0  0
 24 20  1  0  0  0  0
 25 21  1  0  0  0  0
 26 25  1  0  0  0  0
 27 25  1  0  0  0  0
  5  4  1  0  0  0  0
  8 13  2  0  0  0  0
 11 23  1  0  0  0  0
M  END
>  <IDNUMBER>
F3023-0961

>  <Chemical_Name>
3-{[4-(morpholin-4-yl)phenyl]amino}-1-[3-(propan-2-yloxy)propyl]pyrrolidine-2,5-dione

>  <PriceCoeff>
1.00

>  <CAS>
1008712-50-2

>  <MW>
375.46

>  <Description>
solid

>  <FSP3>
0.60

>  <clogP>
2.25

>  <TPSA>
71.11

>  <Acceptor>
6

>  <Donor>
2

>  <RotBonds>
8

>  <HAC>
27

>  <Collection>
General

>  <PPDS>
+

$$$$
F3023-0969
  Mrv2219 10102508112D          

 31 34  0  0  0  0            999 V2000
    4.9315   -7.5038    0.0000 N   0  0  0  0  0  0  0  0  0  0  0  0
    5.4207   -6.8353    0.0000 C   0  0  0  0  0  0  0  0  0  0  0  0
    5.4256   -8.1674    0.0000 C   0  0  0  0  0  0  0  0  0  0  0  0
    6.2104   -7.9107    0.0000 C   0  0  0  0  0  0  0  0  0  0  0  0
    6.2055   -7.0824    0.0000 C   0  0  0  0  0  0  0  0  0  0  0  0
    9.8872   -7.0484    0.0000 N   0  0  0  0  0  0  0  0  0  0  0  0
    6.8740   -8.3903    0.0000 N   0  0  0  0  0  0  0  0  0  0  0  0
    4.1128   -7.5038    0.0000 C   0  0  0  0  0  0  0  0  0  0  0  0
    1.6422   -7.5280    0.0000 C   0  0  0  0  0  0  0  0  0  0  0  0
    5.1591   -6.0505    0.0000 O   0  0  0  0  0  0  0  0  0  0  0  0
    9.1315   -7.3875    0.0000 C   0  0  0  0  0  0  0  0  0  0  0  0
    5.1786   -8.9522    0.0000 O   0  0  0  0  0  0  0  0  0  0  0  0
    2.4706   -7.5183    0.0000 C   0  0  0  0  0  0  0  0  0  0  0  0
    1.2353   -8.2450    0.0000 O   0  0  0  0  0  0  0  0  0  0  0  0
    3.6962   -6.7917    0.0000 C   0  0  0  0  0  0  0  0  0  0  0  0
    3.7107   -8.2256    0.0000 C   0  0  0  0  0  0  0  0  0  0  0  0
    2.8920   -8.2304    0.0000 C   0  0  0  0  0  0  0  0  0  0  0  0
    2.8775   -6.8013    0.0000 C   0  0  0  0  0  0  0  0  0  0  0  0
   11.3986   -6.3799    0.0000 O   0  0  0  0  0  0  0  0  0  0  0  0
    8.4581   -6.9031    0.0000 C   0  0  0  0  0  0  0  0  0  0  0  0
    9.0443   -8.2014    0.0000 C   0  0  0  0  0  0  0  0  0  0  0  0
    7.6297   -8.0561    0.0000 C   0  0  0  0  0  0  0  0  0  0  0  0
    1.2256   -6.8159    0.0000 O   0  0  0  0  0  0  0  0  0  0  0  0
    8.2886   -8.5356    0.0000 C   0  0  0  0  0  0  0  0  0  0  0  0
    7.7073   -7.2373    0.0000 C   0  0  0  0  0  0  0  0  0  0  0  0
   10.5557   -7.5329    0.0000 C   0  0  0  0  0  0  0  0  0  0  0  0
    9.9695   -6.2249    0.0000 C   0  0  0  0  0  0  0  0  0  0  0  0
   10.7252   -5.8907    0.0000 C   0  0  0  0  0  0  0  0  0  0  0  0
   11.3065   -7.1986    0.0000 C   0  0  0  0  0  0  0  0  0  0  0  0
    1.6326   -6.0941    0.0000 C   0  0  0  0  0  0  0  0  0  0  0  0
    1.2111   -5.3820    0.0000 C   0  0  0  0  0  0  0  0  0  0  0  0
  2  1  1  0  0  0  0
  3  1  1  0  0  0  0
  4  3  1  0  0  0  0
  5  2  1  0  0  0  0
  6 11  1  0  0  0  0
  7  4  1  0  0  0  0
  8  1  1  0  0  0  0
  9 13  1  0  0  0  0
 10  2  2  0  0  0  0
 11 20  1  0  0  0  0
 12  3  2  0  0  0  0
 13 17  1  0  0  0  0
 14  9  2  0  0  0  0
 15  8  2  0  0  0  0
 16  8  1  0  0  0  0
 17 16  2  0  0  0  0
 18 15  1  0  0  0  0
 19 28  1  0  0  0  0
 20 25  2  0  0  0  0
 21 24  1  0  0  0  0
 22  7  1  0  0  0  0
 23  9  1  0  0  0  0
 24 22  2  0  0  0  0
 25 22  1  0  0  0  0
 26  6  1  0  0  0  0
 27  6  1  0  0  0  0
 28 27  1  0  0  0  0
 29 26  1  0  0  0  0
 30 23  1  0  0  0  0
 31 30  1  0  0  0  0
  5  4  1  0  0  0  0
 13 18  2  0  0  0  0
 11 21  2  0  0  0  0
 19 29  1  0  0  0  0
M  END
>  <IDNUMBER>
F3023-0969

>  <Chemical_Name>
ethyl 4-(3-{[4-(morpholin-4-yl)phenyl]amino}-2,5-dioxopyrrolidin-1-yl)benzoate

>  <PriceCoeff>
1.00

>  <CAS>
1008712-51-3

>  <MW>
423.46

>  <Description>
solid

>  <FSP3>
0.35

>  <clogP>
2.95

>  <TPSA>
88.18

>  <Acceptor>
7

>  <Donor>
2

>  <RotBonds>
7

>  <HAC>
31

>  <Collection>
General

>  <PPDS>
+

$$$$
F3023-0970
  Mrv2219 10102508112D          

 29 32  0  0  0  0            999 V2000
    4.9350   -7.5091    0.0000 N   0  0  0  0  0  0  0  0  0  0  0  0
    5.4246   -6.8402    0.0000 C   0  0  0  0  0  0  0  0  0  0  0  0
    5.4295   -8.1732    0.0000 C   0  0  0  0  0  0  0  0  0  0  0  0
    6.2148   -7.9164    0.0000 C   0  0  0  0  0  0  0  0  0  0  0  0
    6.2099   -7.0874    0.0000 C   0  0  0  0  0  0  0  0  0  0  0  0
    9.8942   -7.0534    0.0000 N   0  0  0  0  0  0  0  0  0  0  0  0
    6.8789   -8.3963    0.0000 N   0  0  0  0  0  0  0  0  0  0  0  0
    4.1157   -7.5091    0.0000 C   0  0  0  0  0  0  0  0  0  0  0  0
    5.1628   -6.0548    0.0000 O   0  0  0  0  0  0  0  0  0  0  0  0
    9.1380   -7.3928    0.0000 C   0  0  0  0  0  0  0  0  0  0  0  0
    5.1822   -8.9586    0.0000 O   0  0  0  0  0  0  0  0  0  0  0  0
    2.4723   -7.5237    0.0000 C   0  0  0  0  0  0  0  0  0  0  0  0
    1.6483   -7.5237    0.0000 C   0  0  0  0  0  0  0  0  0  0  0  0
    3.7134   -8.2314    0.0000 C   0  0  0  0  0  0  0  0  0  0  0  0
    3.6988   -6.7965    0.0000 C   0  0  0  0  0  0  0  0  0  0  0  0
    1.2265   -6.8207    0.0000 O   0  0  0  0  0  0  0  0  0  0  0  0
    2.8941   -8.2363    0.0000 C   0  0  0  0  0  0  0  0  0  0  0  0
    2.8795   -6.8062    0.0000 C   0  0  0  0  0  0  0  0  0  0  0  0
   11.4067   -6.3844    0.0000 O   0  0  0  0  0  0  0  0  0  0  0  0
    8.4641   -6.9080    0.0000 C   0  0  0  0  0  0  0  0  0  0  0  0
    9.0507   -8.2072    0.0000 C   0  0  0  0  0  0  0  0  0  0  0  0
    7.6351   -8.0618    0.0000 C   0  0  0  0  0  0  0  0  0  0  0  0
    7.7128   -7.2425    0.0000 C   0  0  0  0  0  0  0  0  0  0  0  0
    8.2945   -8.5417    0.0000 C   0  0  0  0  0  0  0  0  0  0  0  0
    9.9766   -6.2294    0.0000 C   0  0  0  0  0  0  0  0  0  0  0  0
   10.5632   -7.5382    0.0000 C   0  0  0  0  0  0  0  0  0  0  0  0
   11.3146   -7.2037    0.0000 C   0  0  0  0  0  0  0  0  0  0  0  0
   10.7328   -5.8949    0.0000 C   0  0  0  0  0  0  0  0  0  0  0  0
    1.2411   -8.2460    0.0000 C   0  0  0  0  0  0  0  0  0  0  0  0
  2  1  1  0  0  0  0
  3  1  1  0  0  0  0
  4  3  1  0  0  0  0
  5  2  1  0  0  0  0
  6 10  1  0  0  0  0
  7  4  1  0  0  0  0
  8  1  1  0  0  0  0
  9  2  2  0  0  0  0
 10 21  2  0  0  0  0
 11  3  2  0  0  0  0
 12 18  2  0  0  0  0
 13 12  1  0  0  0  0
 14  8  1  0  0  0  0
 15  8  2  0  0  0  0
 16 13  2  0  0  0  0
 17 14  2  0  0  0  0
 18 15  1  0  0  0  0
 19 27  1  0  0  0  0
 20 23  2  0  0  0  0
 21 24  1  0  0  0  0
 22  7  1  0  0  0  0
 23 22  1  0  0  0  0
 24 22  2  0  0  0  0
 25  6  1  0  0  0  0
 26  6  1  0  0  0  0
 27 26  1  0  0  0  0
 28 25  1  0  0  0  0
 29 13  1  0  0  0  0
  5  4  1  0  0  0  0
 12 17  1  0  0  0  0
 20 10  1  0  0  0  0
 19 28  1  0  0  0  0
M  END
>  <IDNUMBER>
F3023-0970

>  <Chemical_Name>
1-(4-acetylphenyl)-3-{[4-(morpholin-4-yl)phenyl]amino}pyrrolidine-2,5-dione

>  <PriceCoeff>
1.00

>  <CAS>
1008189-05-6

>  <MW>
393.44

>  <Description>
solid

>  <FSP3>
0.32

>  <clogP>
1.89

>  <TPSA>
78.95

>  <Acceptor>
6

>  <Donor>
2

>  <RotBonds>
5

>  <HAC>
29

>  <Collection>
General

>  <PPDS>
+

$$$$
F3023-0973
  Mrv2219 10102508112D          

 28 31  0  0  0  0            999 V2000
    4.9366   -7.5116    0.0000 N   0  0  0  0  0  0  0  0  0  0  0  0
    5.4263   -6.8424    0.0000 C   0  0  0  0  0  0  0  0  0  0  0  0
    5.4312   -8.1759    0.0000 C   0  0  0  0  0  0  0  0  0  0  0  0
    6.2168   -7.9189    0.0000 C   0  0  0  0  0  0  0  0  0  0  0  0
    6.2119   -7.0897    0.0000 C   0  0  0  0  0  0  0  0  0  0  0  0
    9.8974   -7.0557    0.0000 N   0  0  0  0  0  0  0  0  0  0  0  0
    6.8811   -8.3990    0.0000 N   0  0  0  0  0  0  0  0  0  0  0  0
    4.1170   -7.5116    0.0000 C   0  0  0  0  0  0  0  0  0  0  0  0
    5.1645   -6.0568    0.0000 O   0  0  0  0  0  0  0  0  0  0  0  0
    9.1409   -7.3952    0.0000 C   0  0  0  0  0  0  0  0  0  0  0  0
    5.1839   -8.9615    0.0000 O   0  0  0  0  0  0  0  0  0  0  0  0
   11.4104   -6.3865    0.0000 O   0  0  0  0  0  0  0  0  0  0  0  0
    3.7000   -6.7987    0.0000 C   0  0  0  0  0  0  0  0  0  0  0  0
    3.7146   -8.2341    0.0000 C   0  0  0  0  0  0  0  0  0  0  0  0
    9.0536   -8.2099    0.0000 C   0  0  0  0  0  0  0  0  0  0  0  0
    8.4668   -6.9102    0.0000 C   0  0  0  0  0  0  0  0  0  0  0  0
    7.6376   -8.0644    0.0000 C   0  0  0  0  0  0  0  0  0  0  0  0
    8.2972   -8.5445    0.0000 C   0  0  0  0  0  0  0  0  0  0  0  0
    7.7152   -7.2448    0.0000 C   0  0  0  0  0  0  0  0  0  0  0  0
    2.8950   -8.2390    0.0000 C   0  0  0  0  0  0  0  0  0  0  0  0
    2.8805   -6.8084    0.0000 C   0  0  0  0  0  0  0  0  0  0  0  0
    2.4731   -7.5261    0.0000 C   0  0  0  0  0  0  0  0  0  0  0  0
    9.9798   -6.2314    0.0000 C   0  0  0  0  0  0  0  0  0  0  0  0
   10.5666   -7.5407    0.0000 C   0  0  0  0  0  0  0  0  0  0  0  0
   11.3182   -7.2061    0.0000 C   0  0  0  0  0  0  0  0  0  0  0  0
   10.7363   -5.8968    0.0000 C   0  0  0  0  0  0  0  0  0  0  0  0
    1.6488   -7.5261    0.0000 C   0  0  0  0  0  0  0  0  0  0  0  0
    1.2269   -6.8229    0.0000 C   0  0  0  0  0  0  0  0  0  0  0  0
  2  1  1  0  0  0  0
  3  1  1  0  0  0  0
  4  3  1  0  0  0  0
  5  2  1  0  0  0  0
  6 10  1  0  0  0  0
  7  4  1  0  0  0  0
  8  1  1  0  0  0  0
  9  2  2  0  0  0  0
 10 16  1  0  0  0  0
 11  3  2  0  0  0  0
 12 25  1  0  0  0  0
 13  8  2  0  0  0  0
 14  8  1  0  0  0  0
 15 18  1  0  0  0  0
 16 19  2  0  0  0  0
 17  7  1  0  0  0  0
 18 17  2  0  0  0  0
 19 17  1  0  0  0  0
 20 14  2  0  0  0  0
 21 13  1  0  0  0  0
 22 20  1  0  0  0  0
 23  6  1  0  0  0  0
 24  6  1  0  0  0  0
 25 24  1  0  0  0  0
 26 23  1  0  0  0  0
 27 22  1  0  0  0  0
 28 27  1  0  0  0  0
  5  4  1  0  0  0  0
 22 21  2  0  0  0  0
 10 15  2  0  0  0  0
 12 26  1  0  0  0  0
M  END
>  <IDNUMBER>
F3023-0973

>  <Chemical_Name>
1-(4-ethylphenyl)-3-{[4-(morpholin-4-yl)phenyl]amino}pyrrolidine-2,5-dione

>  <PriceCoeff>
1.00

>  <CAS>
1008712-52-4

>  <MW>
379.45

>  <Description>
solid

>  <FSP3>
0.36

>  <clogP>
2.97

>  <TPSA>
61.88

>  <Acceptor>
5

>  <Donor>
2

>  <RotBonds>
5

>  <HAC>
28

>  <Collection>
General

>  <PPDS>
+

$$$$
F3023-0974
  Mrv2219 10102508112D          

 28 31  0  0  0  0            999 V2000
    4.9333   -7.5065    0.0000 N   0  0  0  0  0  0  0  0  0  0  0  0
    5.4227   -6.8377    0.0000 C   0  0  0  0  0  0  0  0  0  0  0  0
    5.4275   -8.1703    0.0000 C   0  0  0  0  0  0  0  0  0  0  0  0
    4.1142   -7.5065    0.0000 C   0  0  0  0  0  0  0  0  0  0  0  0
    6.2126   -7.9135    0.0000 C   0  0  0  0  0  0  0  0  0  0  0  0
    6.2077   -7.0849    0.0000 C   0  0  0  0  0  0  0  0  0  0  0  0
    3.7121   -8.2285    0.0000 C   0  0  0  0  0  0  0  0  0  0  0  0
    9.8907   -7.0509    0.0000 N   0  0  0  0  0  0  0  0  0  0  0  0
    6.8765   -8.3933    0.0000 N   0  0  0  0  0  0  0  0  0  0  0  0
    5.1610   -6.0527    0.0000 O   0  0  0  0  0  0  0  0  0  0  0  0
    9.1347   -7.3902    0.0000 C   0  0  0  0  0  0  0  0  0  0  0  0
    5.1804   -8.9554    0.0000 O   0  0  0  0  0  0  0  0  0  0  0  0
    2.8931   -8.2334    0.0000 C   0  0  0  0  0  0  0  0  0  0  0  0
    4.1337   -8.9312    0.0000 Cl  0  0  0  0  0  0  0  0  0  0  0  0
   11.4026   -6.3822    0.0000 O   0  0  0  0  0  0  0  0  0  0  0  0
    8.4611   -6.9055    0.0000 C   0  0  0  0  0  0  0  0  0  0  0  0
    9.0475   -8.2043    0.0000 C   0  0  0  0  0  0  0  0  0  0  0  0
    7.6324   -8.0589    0.0000 C   0  0  0  0  0  0  0  0  0  0  0  0
    3.6975   -6.7941    0.0000 C   0  0  0  0  0  0  0  0  0  0  0  0
    2.4763   -8.9554    0.0000 Cl  0  0  0  0  0  0  0  0  0  0  0  0
    7.7100   -7.2399    0.0000 C   0  0  0  0  0  0  0  0  0  0  0  0
    8.2915   -8.5387    0.0000 C   0  0  0  0  0  0  0  0  0  0  0  0
    9.9730   -6.2271    0.0000 C   0  0  0  0  0  0  0  0  0  0  0  0
   10.5594   -7.5356    0.0000 C   0  0  0  0  0  0  0  0  0  0  0  0
    2.8785   -6.8038    0.0000 C   0  0  0  0  0  0  0  0  0  0  0  0
    2.4715   -7.5210    0.0000 C   0  0  0  0  0  0  0  0  0  0  0  0
   11.3105   -7.2012    0.0000 C   0  0  0  0  0  0  0  0  0  0  0  0
   10.7290   -5.8928    0.0000 C   0  0  0  0  0  0  0  0  0  0  0  0
  2  1  1  0  0  0  0
  3  1  1  0  0  0  0
  4  1  1  0  0  0  0
  5  3  1  0  0  0  0
  6  2  1  0  0  0  0
  7  4  1  0  0  0  0
  8 11  1  0  0  0  0
  9  5  1  0  0  0  0
 10  2  2  0  0  0  0
 11 17  2  0  0  0  0
 12  3  2  0  0  0  0
 13  7  2  0  0  0  0
 14  7  1  0  0  0  0
 15 27  1  0  0  0  0
 16 21  2  0  0  0  0
 17 22  1  0  0  0  0
 18  9  1  0  0  0  0
 19  4  2  0  0  0  0
 20 13  1  0  0  0  0
 21 18  1  0  0  0  0
 22 18  2  0  0  0  0
 23  8  1  0  0  0  0
 24  8  1  0  0  0  0
 25 19  1  0  0  0  0
 26 25  2  0  0  0  0
 27 24  1  0  0  0  0
 28 23  1  0  0  0  0
  6  5  1  0  0  0  0
 26 13  1  0  0  0  0
 16 11  1  0  0  0  0
 15 28  1  0  0  0  0
M  END
>  <IDNUMBER>
F3023-0974

>  <Chemical_Name>
1-(2,3-dichlorophenyl)-3-{[4-(morpholin-4-yl)phenyl]amino}pyrrolidine-2,5-dione

>  <PriceCoeff>
1.00

>  <CAS>
1022924-08-8

>  <MW>
420.29

>  <Description>
solid

>  <FSP3>
0.30

>  <clogP>
3.23

>  <TPSA>
61.88

>  <Acceptor>
5

>  <Donor>
2

>  <RotBonds>
4

>  <HAC>
28

>  <Collection>
General

>  <PPDS>
+

$$$$
F3023-0977
  Mrv2219 10102508112D          

 28 31  0  0  0  0            999 V2000
    4.9333   -7.5065    0.0000 N   0  0  0  0  0  0  0  0  0  0  0  0
    5.4227   -6.8377    0.0000 C   0  0  0  0  0  0  0  0  0  0  0  0
    5.4275   -8.1703    0.0000 C   0  0  0  0  0  0  0  0  0  0  0  0
    6.2126   -7.9135    0.0000 C   0  0  0  0  0  0  0  0  0  0  0  0
    6.2077   -7.0849    0.0000 C   0  0  0  0  0  0  0  0  0  0  0  0
    4.1142   -7.5065    0.0000 C   0  0  0  0  0  0  0  0  0  0  0  0
    9.8907   -7.0509    0.0000 N   0  0  0  0  0  0  0  0  0  0  0  0
    6.8765   -8.3933    0.0000 N   0  0  0  0  0  0  0  0  0  0  0  0
    5.1610   -6.0527    0.0000 O   0  0  0  0  0  0  0  0  0  0  0  0
    9.1347   -7.3902    0.0000 C   0  0  0  0  0  0  0  0  0  0  0  0
    3.6975   -6.7941    0.0000 C   0  0  0  0  0  0  0  0  0  0  0  0
    3.7121   -8.2285    0.0000 C   0  0  0  0  0  0  0  0  0  0  0  0
    5.1804   -8.9554    0.0000 O   0  0  0  0  0  0  0  0  0  0  0  0
    2.8931   -8.2334    0.0000 C   0  0  0  0  0  0  0  0  0  0  0  0
    2.8785   -6.8038    0.0000 C   0  0  0  0  0  0  0  0  0  0  0  0
   11.4026   -6.3822    0.0000 O   0  0  0  0  0  0  0  0  0  0  0  0
    9.0475   -8.2043    0.0000 C   0  0  0  0  0  0  0  0  0  0  0  0
    8.4611   -6.9055    0.0000 C   0  0  0  0  0  0  0  0  0  0  0  0
    7.6324   -8.0589    0.0000 C   0  0  0  0  0  0  0  0  0  0  0  0
    2.4715   -7.5210    0.0000 C   0  0  0  0  0  0  0  0  0  0  0  0
    7.7100   -7.2399    0.0000 C   0  0  0  0  0  0  0  0  0  0  0  0
    8.2915   -8.5387    0.0000 C   0  0  0  0  0  0  0  0  0  0  0  0
    9.9730   -6.2271    0.0000 C   0  0  0  0  0  0  0  0  0  0  0  0
   10.5594   -7.5356    0.0000 C   0  0  0  0  0  0  0  0  0  0  0  0
   11.3105   -7.2012    0.0000 C   0  0  0  0  0  0  0  0  0  0  0  0
   10.7290   -5.8928    0.0000 C   0  0  0  0  0  0  0  0  0  0  0  0
    2.4763   -8.9554    0.0000 C   0  0  0  0  0  0  0  0  0  0  0  0
    2.4618   -6.0963    0.0000 C   0  0  0  0  0  0  0  0  0  0  0  0
  2  1  1  0  0  0  0
  3  1  1  0  0  0  0
  4  3  1  0  0  0  0
  5  2  1  0  0  0  0
  6  1  1  0  0  0  0
  7 10  1  0  0  0  0
  8  4  1  0  0  0  0
  9  2  2  0  0  0  0
 10 17  2  0  0  0  0
 11  6  2  0  0  0  0
 12  6  1  0  0  0  0
 13  3  2  0  0  0  0
 14 12  2  0  0  0  0
 15 11  1  0  0  0  0
 16 25  1  0  0  0  0
 17 22  1  0  0  0  0
 18 21  2  0  0  0  0
 19  8  1  0  0  0  0
 20 14  1  0  0  0  0
 21 19  1  0  0  0  0
 22 19  2  0  0  0  0
 23  7  1  0  0  0  0
 24  7  1  0  0  0  0
 25 24  1  0  0  0  0
 26 23  1  0  0  0  0
 27 14  1  0  0  0  0
 28 15  1  0  0  0  0
  5  4  1  0  0  0  0
 20 15  2  0  0  0  0
 18 10  1  0  0  0  0
 16 26  1  0  0  0  0
M  END
>  <IDNUMBER>
F3023-0977

>  <Chemical_Name>
1-(3,5-dimethylphenyl)-3-{[4-(morpholin-4-yl)phenyl]amino}pyrrolidine-2,5-dione

>  <PriceCoeff>
1.00

>  <CAS>
1008695-30-4

>  <MW>
379.45

>  <Description>
solid

>  <FSP3>
0.36

>  <clogP>
2.94

>  <TPSA>
61.88

>  <Acceptor>
5

>  <Donor>
2

>  <RotBonds>
4

>  <HAC>
28

>  <Collection>
General

>  <PPDS>
+

$$$$
F3023-0978
  Mrv2219 10102508112D          

 28 31  0  0  0  0            999 V2000
    4.9350   -7.5091    0.0000 N   0  0  0  0  0  0  0  0  0  0  0  0
    5.4246   -6.8402    0.0000 C   0  0  0  0  0  0  0  0  0  0  0  0
    5.4295   -8.1732    0.0000 C   0  0  0  0  0  0  0  0  0  0  0  0
    4.1157   -7.5091    0.0000 C   0  0  0  0  0  0  0  0  0  0  0  0
    6.2148   -7.9164    0.0000 C   0  0  0  0  0  0  0  0  0  0  0  0
    6.2099   -7.0874    0.0000 C   0  0  0  0  0  0  0  0  0  0  0  0
    3.7134   -8.2314    0.0000 C   0  0  0  0  0  0  0  0  0  0  0  0
    9.8942   -7.0534    0.0000 N   0  0  0  0  0  0  0  0  0  0  0  0
    6.8789   -8.3963    0.0000 N   0  0  0  0  0  0  0  0  0  0  0  0
    5.1628   -6.0548    0.0000 O   0  0  0  0  0  0  0  0  0  0  0  0
    9.1380   -7.3928    0.0000 C   0  0  0  0  0  0  0  0  0  0  0  0
    5.1822   -8.9586    0.0000 O   0  0  0  0  0  0  0  0  0  0  0  0
    2.8941   -8.2363    0.0000 C   0  0  0  0  0  0  0  0  0  0  0  0
   11.4067   -6.3844    0.0000 O   0  0  0  0  0  0  0  0  0  0  0  0
    9.0507   -8.2072    0.0000 C   0  0  0  0  0  0  0  0  0  0  0  0
    8.4641   -6.9080    0.0000 C   0  0  0  0  0  0  0  0  0  0  0  0
    7.6351   -8.0618    0.0000 C   0  0  0  0  0  0  0  0  0  0  0  0
    3.6988   -6.7965    0.0000 C   0  0  0  0  0  0  0  0  0  0  0  0
    2.4772   -8.9586    0.0000 Cl  0  0  0  0  0  0  0  0  0  0  0  0
    8.2945   -8.5417    0.0000 C   0  0  0  0  0  0  0  0  0  0  0  0
    7.7128   -7.2425    0.0000 C   0  0  0  0  0  0  0  0  0  0  0  0
    4.1351   -8.9344    0.0000 C   0  0  0  0  0  0  0  0  0  0  0  0
    9.9766   -6.2294    0.0000 C   0  0  0  0  0  0  0  0  0  0  0  0
   10.5632   -7.5382    0.0000 C   0  0  0  0  0  0  0  0  0  0  0  0
    2.8795   -6.8062    0.0000 C   0  0  0  0  0  0  0  0  0  0  0  0
    2.4723   -7.5237    0.0000 C   0  0  0  0  0  0  0  0  0  0  0  0
   11.3146   -7.2037    0.0000 C   0  0  0  0  0  0  0  0  0  0  0  0
   10.7328   -5.8949    0.0000 C   0  0  0  0  0  0  0  0  0  0  0  0
  2  1  1  0  0  0  0
  3  1  1  0  0  0  0
  4  1  1  0  0  0  0
  5  3  1  0  0  0  0
  6  2  1  0  0  0  0
  7  4  1  0  0  0  0
  8 11  1  0  0  0  0
  9  5  1  0  0  0  0
 10  2  2  0  0  0  0
 11 16  1  0  0  0  0
 12  3  2  0  0  0  0
 13  7  2  0  0  0  0
 14 27  1  0  0  0  0
 15 20  1  0  0  0  0
 16 21  2  0  0  0  0
 17  9  1  0  0  0  0
 18  4  2  0  0  0  0
 19 13  1  0  0  0  0
 20 17  2  0  0  0  0
 21 17  1  0  0  0  0
 22  7  1  0  0  0  0
 23  8  1  0  0  0  0
 24  8  1  0  0  0  0
 25 18  1  0  0  0  0
 26 25  2  0  0  0  0
 27 24  1  0  0  0  0
 28 23  1  0  0  0  0
  6  5  1  0  0  0  0
 26 13  1  0  0  0  0
 11 15  2  0  0  0  0
 14 28  1  0  0  0  0
M  END
>  <IDNUMBER>
F3023-0978

>  <Chemical_Name>
1-(3-chloro-2-methylphenyl)-3-{[4-(morpholin-4-yl)phenyl]amino}pyrrolidine-2,5-dione

>  <PriceCoeff>
1.00

>  <CAS>
1008712-55-7

>  <MW>
399.87

>  <Description>
solid

>  <FSP3>
0.33

>  <clogP>
3.03

>  <TPSA>
61.88

>  <Acceptor>
5

>  <Donor>
2

>  <RotBonds>
4

>  <HAC>
28

>  <Collection>
General

>  <PPDS>
+

$$$$
F3023-0980
  Mrv2219 10102508112D          

 21 23  0  0  0  0            999 V2000
    4.9331   -7.5062    0.0000 N   0  0  0  0  0  0  0  0  0  0  0  0
    5.4273   -8.1700    0.0000 C   0  0  0  0  0  0  0  0  0  0  0  0
    5.4224   -6.8375    0.0000 C   0  0  0  0  0  0  0  0  0  0  0  0
    6.2124   -7.9132    0.0000 C   0  0  0  0  0  0  0  0  0  0  0  0
    6.2075   -7.0846    0.0000 C   0  0  0  0  0  0  0  0  0  0  0  0
    9.8903   -7.0506    0.0000 N   0  0  0  0  0  0  0  0  0  0  0  0
    6.8762   -8.3930    0.0000 N   0  0  0  0  0  0  0  0  0  0  0  0
    9.1344   -7.3899    0.0000 C   0  0  0  0  0  0  0  0  0  0  0  0
    5.1802   -8.9550    0.0000 O   0  0  0  0  0  0  0  0  0  0  0  0
    5.1608   -6.0524    0.0000 O   0  0  0  0  0  0  0  0  0  0  0  0
    8.4608   -6.9053    0.0000 C   0  0  0  0  0  0  0  0  0  0  0  0
    9.0471   -8.2040    0.0000 C   0  0  0  0  0  0  0  0  0  0  0  0
    7.6321   -8.0586    0.0000 C   0  0  0  0  0  0  0  0  0  0  0  0
    4.1141   -7.5062    0.0000 C   0  0  0  0  0  0  0  0  0  0  0  0
    7.7097   -7.2396    0.0000 C   0  0  0  0  0  0  0  0  0  0  0  0
    8.2912   -8.5383    0.0000 C   0  0  0  0  0  0  0  0  0  0  0  0
   10.5590   -7.5353    0.0000 C   0  0  0  0  0  0  0  0  0  0  0  0
    9.9727   -6.2269    0.0000 C   0  0  0  0  0  0  0  0  0  0  0  0
   10.7286   -5.8925    0.0000 C   0  0  0  0  0  0  0  0  0  0  0  0
   11.3101   -7.2009    0.0000 C   0  0  0  0  0  0  0  0  0  0  0  0
   11.4022   -6.3819    0.0000 C   0  0  0  0  0  0  0  0  0  0  0  0
  2  1  1  0  0  0  0
  3  1  1  0  0  0  0
  4  2  1  0  0  0  0
  5  3  1  0  0  0  0
  6  8  1  0  0  0  0
  7  4  1  0  0  0  0
  8 12  2  0  0  0  0
  9  2  2  0  0  0  0
 10  3  2  0  0  0  0
 11 15  2  0  0  0  0
 12 16  1  0  0  0  0
 13  7  1  0  0  0  0
 14  1  1  0  0  0  0
 15 13  1  0  0  0  0
 16 13  2  0  0  0  0
 17  6  1  0  0  0  0
 18  6  1  0  0  0  0
 19 18  1  0  0  0  0
 20 17  1  0  0  0  0
 21 19  1  0  0  0  0
  5  4  1  0  0  0  0
  8 11  1  0  0  0  0
 21 20  1  0  0  0  0
M  END
>  <IDNUMBER>
F3023-0980

>  <Chemical_Name>
1-methyl-3-{[4-(piperidin-1-yl)phenyl]amino}pyrrolidine-2,5-dione

>  <PriceCoeff>
1.00

>  <CAS>
1009667-37-1

>  <MW>
287.36

>  <Description>
solid

>  <FSP3>
0.50

>  <clogP>
2.49

>  <TPSA>
52.65

>  <Acceptor>
4

>  <Donor>
2

>  <RotBonds>
3

>  <HAC>
21

>  <Collection>
General

>  <PPDS>
+

$$$$
F3023-0981
  Mrv2219 10102508112D          

 22 24  0  0  0  0            999 V2000
    6.1284   -2.8512    0.0000 N   0  0  0  0  0  0  0  0  0  0  0  0
    6.6125   -3.5193    0.0000 C   0  0  0  0  0  0  0  0  0  0  0  0
    6.6125   -2.1832    0.0000 C   0  0  0  0  0  0  0  0  0  0  0  0
    7.3967   -3.2579    0.0000 C   0  0  0  0  0  0  0  0  0  0  0  0
    7.3967   -2.4397    0.0000 C   0  0  0  0  0  0  0  0  0  0  0  0
   11.0709   -2.4011    0.0000 N   0  0  0  0  0  0  0  0  0  0  0  0
    8.0647   -3.7371    0.0000 N   0  0  0  0  0  0  0  0  0  0  0  0
   10.3157   -2.7351    0.0000 C   0  0  0  0  0  0  0  0  0  0  0  0
    6.3656   -4.3035    0.0000 O   0  0  0  0  0  0  0  0  0  0  0  0
    6.3511   -1.4087    0.0000 O   0  0  0  0  0  0  0  0  0  0  0  0
    9.6477   -2.2558    0.0000 C   0  0  0  0  0  0  0  0  0  0  0  0
   10.2382   -3.5580    0.0000 C   0  0  0  0  0  0  0  0  0  0  0  0
    8.8199   -3.4031    0.0000 C   0  0  0  0  0  0  0  0  0  0  0  0
    5.3055   -2.8609    0.0000 C   0  0  0  0  0  0  0  0  0  0  0  0
    8.8925   -2.5898    0.0000 C   0  0  0  0  0  0  0  0  0  0  0  0
    9.4831   -3.8920    0.0000 C   0  0  0  0  0  0  0  0  0  0  0  0
   11.7389   -2.8899    0.0000 C   0  0  0  0  0  0  0  0  0  0  0  0
   11.1580   -1.5829    0.0000 C   0  0  0  0  0  0  0  0  0  0  0  0
    4.8940   -2.1493    0.0000 C   0  0  0  0  0  0  0  0  0  0  0  0
   12.4940   -2.5463    0.0000 C   0  0  0  0  0  0  0  0  0  0  0  0
   11.9132   -1.2489    0.0000 C   0  0  0  0  0  0  0  0  0  0  0  0
   12.5812   -1.7330    0.0000 C   0  0  0  0  0  0  0  0  0  0  0  0
  2  1  1  0  0  0  0
  3  1  1  0  0  0  0
  4  2  1  0  0  0  0
  5  3  1  0  0  0  0
  6  8  1  0  0  0  0
  7  4  1  0  0  0  0
  8 12  2  0  0  0  0
  9  2  2  0  0  0  0
 10  3  2  0  0  0  0
 11 15  2  0  0  0  0
 12 16  1  0  0  0  0
 13  7  1  0  0  0  0
 14  1  1  0  0  0  0
 15 13  1  0  0  0  0
 16 13  2  0  0  0  0
 17  6  1  0  0  0  0
 18  6  1  0  0  0  0
 19 14  1  0  0  0  0
 20 17  1  0  0  0  0
 21 18  1  0  0  0  0
 22 21  1  0  0  0  0
  5  4  1  0  0  0  0
  8 11  1  0  0  0  0
 22 20  1  0  0  0  0
M  END
>  <IDNUMBER>
F3023-0981

>  <Chemical_Name>
1-ethyl-3-{[4-(piperidin-1-yl)phenyl]amino}pyrrolidine-2,5-dione

>  <PriceCoeff>
1.00

>  <MW>
301.39

>  <Description>
solid

>  <FSP3>
0.53

>  <clogP>
3.02

>  <TPSA>
66.23

>  <Acceptor>
4

>  <Donor>
2

>  <RotBonds>
4

>  <HAC>
22

>  <Collection>
General

$$$$
F3023-0990
  Mrv2219 10102508112D          

 27 30  0  0  0  0            999 V2000
    4.1243   -7.4984    0.0000 N   0  0  0  0  0  0  0  0  0  0  0  0
    4.6084   -6.8304    0.0000 C   0  0  0  0  0  0  0  0  0  0  0  0
    4.6084   -8.1615    0.0000 C   0  0  0  0  0  0  0  0  0  0  0  0
    5.3926   -7.9050    0.0000 C   0  0  0  0  0  0  0  0  0  0  0  0
    5.3926   -7.0772    0.0000 C   0  0  0  0  0  0  0  0  0  0  0  0
    3.3014   -7.4984    0.0000 C   0  0  0  0  0  0  0  0  0  0  0  0
    9.0668   -7.0433    0.0000 N   0  0  0  0  0  0  0  0  0  0  0  0
    6.0607   -8.3842    0.0000 N   0  0  0  0  0  0  0  0  0  0  0  0
    4.3470   -6.0462    0.0000 O   0  0  0  0  0  0  0  0  0  0  0  0
    8.3116   -7.3822    0.0000 C   0  0  0  0  0  0  0  0  0  0  0  0
    4.3616   -8.9457    0.0000 O   0  0  0  0  0  0  0  0  0  0  0  0
    2.8899   -6.7868    0.0000 C   0  0  0  0  0  0  0  0  0  0  0  0
    8.2341   -8.1954    0.0000 C   0  0  0  0  0  0  0  0  0  0  0  0
    7.6436   -6.8981    0.0000 C   0  0  0  0  0  0  0  0  0  0  0  0
    6.8158   -8.0502    0.0000 C   0  0  0  0  0  0  0  0  0  0  0  0
    3.2966   -6.0752    0.0000 F   0  0  0  0  0  0  0  0  0  0  0  0
    6.8884   -7.2321    0.0000 C   0  0  0  0  0  0  0  0  0  0  0  0
    7.4790   -8.5295    0.0000 C   0  0  0  0  0  0  0  0  0  0  0  0
    9.7348   -7.5274    0.0000 C   0  0  0  0  0  0  0  0  0  0  0  0
    9.1539   -6.2204    0.0000 C   0  0  0  0  0  0  0  0  0  0  0  0
    2.8948   -8.2196    0.0000 C   0  0  0  0  0  0  0  0  0  0  0  0
    2.0670   -6.7964    0.0000 C   0  0  0  0  0  0  0  0  0  0  0  0
    9.9091   -5.8864    0.0000 C   0  0  0  0  0  0  0  0  0  0  0  0
   10.4900   -7.1934    0.0000 C   0  0  0  0  0  0  0  0  0  0  0  0
    2.0816   -8.2245    0.0000 C   0  0  0  0  0  0  0  0  0  0  0  0
    1.6604   -7.5129    0.0000 C   0  0  0  0  0  0  0  0  0  0  0  0
   10.5771   -6.3753    0.0000 C   0  0  0  0  0  0  0  0  0  0  0  0
  2  1  1  0  0  0  0
  3  1  1  0  0  0  0
  4  3  1  0  0  0  0
  5  2  1  0  0  0  0
  6  1  1  0  0  0  0
  7 10  1  0  0  0  0
  8  4  1  0  0  0  0
  9  2  2  0  0  0  0
 10 13  2  0  0  0  0
 11  3  2  0  0  0  0
 12  6  2  0  0  0  0
 13 18  1  0  0  0  0
 14 17  2  0  0  0  0
 15  8  1  0  0  0  0
 16 12  1  0  0  0  0
 17 15  1  0  0  0  0
 18 15  2  0  0  0  0
 19  7  1  0  0  0  0
 20  7  1  0  0  0  0
 21  6  1  0  0  0  0
 22 12  1  0  0  0  0
 23 20  1  0  0  0  0
 24 19  1  0  0  0  0
 25 21  2  0  0  0  0
 26 25  1  0  0  0  0
 27 23  1  0  0  0  0
  5  4  1  0  0  0  0
 26 22  2  0  0  0  0
 14 10  1  0  0  0  0
 27 24  1  0  0  0  0
M  END
>  <IDNUMBER>
F3023-0990

>  <Chemical_Name>
1-(2-fluorophenyl)-3-{[4-(piperidin-1-yl)phenyl]amino}pyrrolidine-2,5-dione

>  <PriceCoeff>
1.00

>  <CAS>
1008960-30-2

>  <MW>
367.42

>  <Description>
solid

>  <FSP3>
0.33

>  <clogP>
3.58

>  <TPSA>
52.65

>  <Acceptor>
4

>  <Donor>
2

>  <RotBonds>
4

>  <HAC>
27

>  <Collection>
General

>  <PPDS>
+

$$$$
F3023-1003
  Mrv2219 10102508112D          

 27 30  0  0  0  0            999 V2000
    4.9496   -7.5091    0.0000 N   0  0  0  0  0  0  0  0  0  0  0  0
    5.4295   -6.8402    0.0000 C   0  0  0  0  0  0  0  0  0  0  0  0
    5.4391   -8.1732    0.0000 C   0  0  0  0  0  0  0  0  0  0  0  0
    6.2245   -7.9164    0.0000 C   0  0  0  0  0  0  0  0  0  0  0  0
    6.2148   -7.0874    0.0000 C   0  0  0  0  0  0  0  0  0  0  0  0
    9.9039   -7.0534    0.0000 N   0  0  0  0  0  0  0  0  0  0  0  0
    6.8838   -8.3963    0.0000 N   0  0  0  0  0  0  0  0  0  0  0  0
    4.1206   -7.5091    0.0000 C   0  0  0  0  0  0  0  0  0  0  0  0
    5.1677   -6.0548    0.0000 O   0  0  0  0  0  0  0  0  0  0  0  0
    9.1476   -7.3928    0.0000 C   0  0  0  0  0  0  0  0  0  0  0  0
    5.1919   -8.9586    0.0000 O   0  0  0  0  0  0  0  0  0  0  0  0
    3.7134   -6.7965    0.0000 C   0  0  0  0  0  0  0  0  0  0  0  0
    3.7230   -8.2314    0.0000 C   0  0  0  0  0  0  0  0  0  0  0  0
    8.4690   -6.9080    0.0000 C   0  0  0  0  0  0  0  0  0  0  0  0
    9.0653   -8.2072    0.0000 C   0  0  0  0  0  0  0  0  0  0  0  0
    7.6400   -8.0618    0.0000 C   0  0  0  0  0  0  0  0  0  0  0  0
    7.7224   -7.2425    0.0000 C   0  0  0  0  0  0  0  0  0  0  0  0
    8.3090   -8.5417    0.0000 C   0  0  0  0  0  0  0  0  0  0  0  0
    2.8990   -8.2363    0.0000 C   0  0  0  0  0  0  0  0  0  0  0  0
    2.8844   -6.8062    0.0000 C   0  0  0  0  0  0  0  0  0  0  0  0
    2.4772   -7.5237    0.0000 C   0  0  0  0  0  0  0  0  0  0  0  0
    9.9815   -6.2294    0.0000 C   0  0  0  0  0  0  0  0  0  0  0  0
   10.5729   -7.5382    0.0000 C   0  0  0  0  0  0  0  0  0  0  0  0
    1.6579   -7.5237    0.0000 C   0  0  0  0  0  0  0  0  0  0  0  0
   10.7377   -5.8949    0.0000 C   0  0  0  0  0  0  0  0  0  0  0  0
   11.3194   -7.2037    0.0000 C   0  0  0  0  0  0  0  0  0  0  0  0
   11.4164   -6.3844    0.0000 C   0  0  0  0  0  0  0  0  0  0  0  0
  2  1  1  0  0  0  0
  3  1  1  0  0  0  0
  4  3  1  0  0  0  0
  5  2  1  0  0  0  0
  6 10  1  0  0  0  0
  7  4  1  0  0  0  0
  8  1  1  0  0  0  0
  9  2  2  0  0  0  0
 10 15  2  0  0  0  0
 11  3  2  0  0  0  0
 12  8  2  0  0  0  0
 13  8  1  0  0  0  0
 14 17  2  0  0  0  0
 15 18  1  0  0  0  0
 16  7  1  0  0  0  0
 17 16  1  0  0  0  0
 18 16  2  0  0  0  0
 19 13  2  0  0  0  0
 20 12  1  0  0  0  0
 21 19  1  0  0  0  0
 22  6  1  0  0  0  0
 23  6  1  0  0  0  0
 24 21  1  0  0  0  0
 25 22  1  0  0  0  0
 26 23  1  0  0  0  0
 27 26  1  0  0  0  0
  5  4  1  0  0  0  0
 21 20  2  0  0  0  0
 14 10  1  0  0  0  0
 27 25  1  0  0  0  0
M  END
>  <IDNUMBER>
F3023-1003

>  <Chemical_Name>
1-(4-methylphenyl)-3-{[4-(piperidin-1-yl)phenyl]amino}pyrrolidine-2,5-dione

>  <PriceCoeff>
1.00

>  <CAS>
1008189-06-7

>  <MW>
363.45

>  <Description>
solid

>  <FSP3>
0.36

>  <clogP>
3.82

>  <TPSA>
52.65

>  <Acceptor>
4

>  <Donor>
2

>  <RotBonds>
4

>  <HAC>
27

>  <Collection>
General

>  <PPDS>
+

$$$$
F3023-1007
  Mrv2219 10102508112D          

 30 33  0  0  0  0            999 V2000
    4.9495   -7.5091    0.0000 N   0  0  0  0  0  0  0  0  0  0  0  0
    5.4294   -6.8401    0.0000 C   0  0  0  0  0  0  0  0  0  0  0  0
    5.4391   -8.1732    0.0000 C   0  0  0  0  0  0  0  0  0  0  0  0
    6.2244   -7.9163    0.0000 C   0  0  0  0  0  0  0  0  0  0  0  0
    6.2148   -7.0873    0.0000 C   0  0  0  0  0  0  0  0  0  0  0  0
    9.9038   -7.0534    0.0000 N   0  0  0  0  0  0  0  0  0  0  0  0
    6.8837   -8.3962    0.0000 N   0  0  0  0  0  0  0  0  0  0  0  0
    4.1206   -7.5091    0.0000 C   0  0  0  0  0  0  0  0  0  0  0  0
    5.1677   -6.0548    0.0000 O   0  0  0  0  0  0  0  0  0  0  0  0
    9.1476   -7.3927    0.0000 C   0  0  0  0  0  0  0  0  0  0  0  0
    1.2410   -6.8207    0.0000 C   0  0  0  0  0  0  0  0  0  0  0  0
    5.1919   -8.9585    0.0000 O   0  0  0  0  0  0  0  0  0  0  0  0
    1.6579   -7.5236    0.0000 O   0  0  0  0  0  0  0  0  0  0  0  0
    3.7134   -6.7965    0.0000 C   0  0  0  0  0  0  0  0  0  0  0  0
    3.7230   -8.2313    0.0000 C   0  0  0  0  0  0  0  0  0  0  0  0
    8.4689   -6.9079    0.0000 C   0  0  0  0  0  0  0  0  0  0  0  0
    9.0652   -8.2071    0.0000 C   0  0  0  0  0  0  0  0  0  0  0  0
    7.6400   -8.0617    0.0000 C   0  0  0  0  0  0  0  0  0  0  0  0
    2.4772   -7.5236    0.0000 C   0  0  0  0  0  0  0  0  0  0  0  0
    0.4121   -6.8256    0.0000 F   0  0  0  0  0  0  0  0  0  0  0  0
    1.6482   -6.0984    0.0000 F   0  0  0  0  0  0  0  0  0  0  0  0
    8.3089   -8.5416    0.0000 C   0  0  0  0  0  0  0  0  0  0  0  0
    7.7223   -7.2424    0.0000 C   0  0  0  0  0  0  0  0  0  0  0  0
    2.8989   -8.2362    0.0000 C   0  0  0  0  0  0  0  0  0  0  0  0
    2.8844   -6.8061    0.0000 C   0  0  0  0  0  0  0  0  0  0  0  0
    9.9814   -6.2293    0.0000 C   0  0  0  0  0  0  0  0  0  0  0  0
   10.5728   -7.5382    0.0000 C   0  0  0  0  0  0  0  0  0  0  0  0
   11.3193   -7.2037    0.0000 C   0  0  0  0  0  0  0  0  0  0  0  0
   10.7376   -5.8948    0.0000 C   0  0  0  0  0  0  0  0  0  0  0  0
   11.4163   -6.3844    0.0000 C   0  0  0  0  0  0  0  0  0  0  0  0
  2  1  1  0  0  0  0
  3  1  1  0  0  0  0
  4  3  1  0  0  0  0
  5  2  1  0  0  0  0
  6 10  1  0  0  0  0
  7  4  1  0  0  0  0
  8  1  1  0  0  0  0
  9  2  2  0  0  0  0
 10 16  1  0  0  0  0
 11 13  1  0  0  0  0
 12  3  2  0  0  0  0
 13 19  1  0  0  0  0
 14  8  2  0  0  0  0
 15  8  1  0  0  0  0
 16 23  2  0  0  0  0
 17 22  1  0  0  0  0
 18  7  1  0  0  0  0
 19 24  1  0  0  0  0
 20 11  1  0  0  0  0
 21 11  1  0  0  0  0
 22 18  2  0  0  0  0
 23 18  1  0  0  0  0
 24 15  2  0  0  0  0
 25 14  1  0  0  0  0
 26  6  1  0  0  0  0
 27  6  1  0  0  0  0
 28 27  1  0  0  0  0
 29 26  1  0  0  0  0
 30 28  1  0  0  0  0
  5  4  1  0  0  0  0
 19 25  2  0  0  0  0
 10 17  2  0  0  0  0
 30 29  1  0  0  0  0
M  END
>  <IDNUMBER>
F3023-1007

>  <Chemical_Name>
1-[4-(difluoromethoxy)phenyl]-3-{[4-(piperidin-1-yl)phenyl]amino}pyrrolidine-2,5-dione

>  <PriceCoeff>
1.00

>  <CAS>
1009417-20-2

>  <MW>
415.43

>  <Description>
solid

>  <FSP3>
0.36

>  <clogP>
3.86

>  <TPSA>
61.88

>  <Acceptor>
5

>  <Donor>
2

>  <RotBonds>
6

>  <HAC>
30

>  <Collection>
General

>  <PPDS>
+

$$$$
F3023-1010
  Mrv2219 10102508112D          

 30 33  0  0  0  0            999 V2000
    4.9495   -7.5090    0.0000 N   0  0  0  0  0  0  0  0  0  0  0  0
    5.4294   -6.8400    0.0000 C   0  0  0  0  0  0  0  0  0  0  0  0
    5.4390   -8.1731    0.0000 C   0  0  0  0  0  0  0  0  0  0  0  0
    6.2244   -7.9162    0.0000 C   0  0  0  0  0  0  0  0  0  0  0  0
    6.2147   -7.0873    0.0000 C   0  0  0  0  0  0  0  0  0  0  0  0
    9.9037   -7.0533    0.0000 N   0  0  0  0  0  0  0  0  0  0  0  0
    6.8837   -8.3961    0.0000 N   0  0  0  0  0  0  0  0  0  0  0  0
    4.1205   -7.5090    0.0000 C   0  0  0  0  0  0  0  0  0  0  0  0
    1.6482   -7.5332    0.0000 C   0  0  0  0  0  0  0  0  0  0  0  0
    5.1676   -6.0547    0.0000 O   0  0  0  0  0  0  0  0  0  0  0  0
    9.1475   -7.3927    0.0000 C   0  0  0  0  0  0  0  0  0  0  0  0
    5.1918   -8.9584    0.0000 O   0  0  0  0  0  0  0  0  0  0  0  0
    2.4772   -7.5236    0.0000 C   0  0  0  0  0  0  0  0  0  0  0  0
    1.2410   -8.2507    0.0000 O   0  0  0  0  0  0  0  0  0  0  0  0
    3.7133   -6.7964    0.0000 C   0  0  0  0  0  0  0  0  0  0  0  0
    3.7230   -8.2313    0.0000 C   0  0  0  0  0  0  0  0  0  0  0  0
    2.8989   -8.2362    0.0000 C   0  0  0  0  0  0  0  0  0  0  0  0
    2.8844   -6.8061    0.0000 C   0  0  0  0  0  0  0  0  0  0  0  0
    9.0651   -8.2071    0.0000 C   0  0  0  0  0  0  0  0  0  0  0  0
    8.4688   -6.9079    0.0000 C   0  0  0  0  0  0  0  0  0  0  0  0
    7.6399   -8.0616    0.0000 C   0  0  0  0  0  0  0  0  0  0  0  0
    1.2361   -6.8206    0.0000 O   0  0  0  0  0  0  0  0  0  0  0  0
    7.7223   -7.2424    0.0000 C   0  0  0  0  0  0  0  0  0  0  0  0
    8.3089   -8.5416    0.0000 C   0  0  0  0  0  0  0  0  0  0  0  0
   10.5727   -7.5381    0.0000 C   0  0  0  0  0  0  0  0  0  0  0  0
    9.9813   -6.2292    0.0000 C   0  0  0  0  0  0  0  0  0  0  0  0
    1.6433   -6.0984    0.0000 C   0  0  0  0  0  0  0  0  0  0  0  0
   11.3193   -7.2036    0.0000 C   0  0  0  0  0  0  0  0  0  0  0  0
   10.7375   -5.8948    0.0000 C   0  0  0  0  0  0  0  0  0  0  0  0
   11.4162   -6.3843    0.0000 C   0  0  0  0  0  0  0  0  0  0  0  0
  2  1  1  0  0  0  0
  3  1  1  0  0  0  0
  4  3  1  0  0  0  0
  5  2  1  0  0  0  0
  6 11  1  0  0  0  0
  7  4  1  0  0  0  0
  8  1  1  0  0  0  0
  9 13  1  0  0  0  0
 10  2  2  0  0  0  0
 11 19  2  0  0  0  0
 12  3  2  0  0  0  0
 13 17  1  0  0  0  0
 14  9  2  0  0  0  0
 15  8  2  0  0  0  0
 16  8  1  0  0  0  0
 17 16  2  0  0  0  0
 18 15  1  0  0  0  0
 19 24  1  0  0  0  0
 20 23  2  0  0  0  0
 21  7  1  0  0  0  0
 22  9  1  0  0  0  0
 23 21  1  0  0  0  0
 24 21  2  0  0  0  0
 25  6  1  0  0  0  0
 26  6  1  0  0  0  0
 27 22  1  0  0  0  0
 28 25  1  0  0  0  0
 29 26  1  0  0  0  0
 30 29  1  0  0  0  0
  5  4  1  0  0  0  0
 13 18  2  0  0  0  0
 20 11  1  0  0  0  0
 30 28  1  0  0  0  0
M  END
>  <IDNUMBER>
F3023-1010

>  <Chemical_Name>
methyl 4-(2,5-dioxo-3-{[4-(piperidin-1-yl)phenyl]amino}pyrrolidin-1-yl)benzoate

>  <PriceCoeff>
1.00

>  <CAS>
1009417-21-3

>  <MW>
407.46

>  <Description>
solid

>  <FSP3>
0.35

>  <clogP>
3.80

>  <TPSA>
78.95

>  <Acceptor>
6

>  <Donor>
2

>  <RotBonds>
6

>  <HAC>
30

>  <Collection>
General

>  <PPDS>
+

$$$$
F3023-1011
  Mrv2219 10102508112D          

 29 32  0  0  0  0            999 V2000
    4.9496   -7.5091    0.0000 N   0  0  0  0  0  0  0  0  0  0  0  0
    5.4295   -6.8402    0.0000 C   0  0  0  0  0  0  0  0  0  0  0  0
    5.4391   -8.1732    0.0000 C   0  0  0  0  0  0  0  0  0  0  0  0
    6.2245   -7.9164    0.0000 C   0  0  0  0  0  0  0  0  0  0  0  0
    6.2148   -7.0874    0.0000 C   0  0  0  0  0  0  0  0  0  0  0  0
    9.9039   -7.0534    0.0000 N   0  0  0  0  0  0  0  0  0  0  0  0
    6.8838   -8.3963    0.0000 N   0  0  0  0  0  0  0  0  0  0  0  0
    4.1206   -7.5091    0.0000 C   0  0  0  0  0  0  0  0  0  0  0  0
    5.1677   -6.0548    0.0000 O   0  0  0  0  0  0  0  0  0  0  0  0
    9.1476   -7.3928    0.0000 C   0  0  0  0  0  0  0  0  0  0  0  0
    5.1919   -8.9586    0.0000 O   0  0  0  0  0  0  0  0  0  0  0  0
    2.4772   -7.5237    0.0000 C   0  0  0  0  0  0  0  0  0  0  0  0
    1.6579   -7.5237    0.0000 C   0  0  0  0  0  0  0  0  0  0  0  0
    3.7230   -8.2314    0.0000 C   0  0  0  0  0  0  0  0  0  0  0  0
    3.7134   -6.7965    0.0000 C   0  0  0  0  0  0  0  0  0  0  0  0
    1.2411   -6.8207    0.0000 O   0  0  0  0  0  0  0  0  0  0  0  0
    2.8990   -8.2363    0.0000 C   0  0  0  0  0  0  0  0  0  0  0  0
    2.8844   -6.8062    0.0000 C   0  0  0  0  0  0  0  0  0  0  0  0
    9.0653   -8.2072    0.0000 C   0  0  0  0  0  0  0  0  0  0  0  0
    8.4690   -6.9080    0.0000 C   0  0  0  0  0  0  0  0  0  0  0  0
    7.6400   -8.0618    0.0000 C   0  0  0  0  0  0  0  0  0  0  0  0
    8.3090   -8.5417    0.0000 C   0  0  0  0  0  0  0  0  0  0  0  0
    7.7224   -7.2425    0.0000 C   0  0  0  0  0  0  0  0  0  0  0  0
    9.9815   -6.2294    0.0000 C   0  0  0  0  0  0  0  0  0  0  0  0
   10.5729   -7.5382    0.0000 C   0  0  0  0  0  0  0  0  0  0  0  0
    1.2507   -8.2460    0.0000 C   0  0  0  0  0  0  0  0  0  0  0  0
   10.7377   -5.8949    0.0000 C   0  0  0  0  0  0  0  0  0  0  0  0
   11.3194   -7.2037    0.0000 C   0  0  0  0  0  0  0  0  0  0  0  0
   11.4164   -6.3844    0.0000 C   0  0  0  0  0  0  0  0  0  0  0  0
  2  1  1  0  0  0  0
  3  1  1  0  0  0  0
  4  3  1  0  0  0  0
  5  2  1  0  0  0  0
  6 10  1  0  0  0  0
  7  4  1  0  0  0  0
  8  1  1  0  0  0  0
  9  2  2  0  0  0  0
 10 20  1  0  0  0  0
 11  3  2  0  0  0  0
 12 18  2  0  0  0  0
 13 12  1  0  0  0  0
 14  8  1  0  0  0  0
 15  8  2  0  0  0  0
 16 13  2  0  0  0  0
 17 14  2  0  0  0  0
 18 15  1  0  0  0  0
 19 22  1  0  0  0  0
 20 23  2  0  0  0  0
 21  7  1  0  0  0  0
 22 21  2  0  0  0  0
 23 21  1  0  0  0  0
 24  6  1  0  0  0  0
 25  6  1  0  0  0  0
 26 13  1  0  0  0  0
 27 24  1  0  0  0  0
 28 25  1  0  0  0  0
 29 28  1  0  0  0  0
  5  4  1  0  0  0  0
 12 17  1  0  0  0  0
 10 19  2  0  0  0  0
 29 27  1  0  0  0  0
M  END
>  <IDNUMBER>
F3023-1011

>  <Chemical_Name>
1-(4-acetylphenyl)-3-{[4-(piperidin-1-yl)phenyl]amino}pyrrolidine-2,5-dione

>  <PriceCoeff>
1.00

>  <CAS>
1009234-29-0

>  <MW>
391.46

>  <Description>
solid

>  <FSP3>
0.35

>  <clogP>
3.27

>  <TPSA>
69.72

>  <Acceptor>
5

>  <Donor>
2

>  <RotBonds>
5

>  <HAC>
29

>  <Collection>
General

>  <PPDS>
+

$$$$
F3023-1012
  Mrv2219 10102508112D          

 28 31  0  0  0  0            999 V2000
    4.9495   -7.5091    0.0000 N   0  0  0  0  0  0  0  0  0  0  0  0
    5.4294   -6.8401    0.0000 C   0  0  0  0  0  0  0  0  0  0  0  0
    5.4391   -8.1732    0.0000 C   0  0  0  0  0  0  0  0  0  0  0  0
    4.1206   -7.5091    0.0000 C   0  0  0  0  0  0  0  0  0  0  0  0
    6.2244   -7.9163    0.0000 C   0  0  0  0  0  0  0  0  0  0  0  0
    6.2148   -7.0873    0.0000 C   0  0  0  0  0  0  0  0  0  0  0  0
    3.7230   -8.2313    0.0000 C   0  0  0  0  0  0  0  0  0  0  0  0
    9.9038   -7.0534    0.0000 N   0  0  0  0  0  0  0  0  0  0  0  0
    6.8837   -8.3962    0.0000 N   0  0  0  0  0  0  0  0  0  0  0  0
    5.1677   -6.0548    0.0000 O   0  0  0  0  0  0  0  0  0  0  0  0
    9.1476   -7.3927    0.0000 C   0  0  0  0  0  0  0  0  0  0  0  0
    5.1919   -8.9585    0.0000 O   0  0  0  0  0  0  0  0  0  0  0  0
    2.8989   -8.2362    0.0000 C   0  0  0  0  0  0  0  0  0  0  0  0
    8.4689   -6.9079    0.0000 C   0  0  0  0  0  0  0  0  0  0  0  0
    9.0652   -8.2071    0.0000 C   0  0  0  0  0  0  0  0  0  0  0  0
    7.6400   -8.0617    0.0000 C   0  0  0  0  0  0  0  0  0  0  0  0
    3.7134   -6.7965    0.0000 C   0  0  0  0  0  0  0  0  0  0  0  0
    8.3089   -8.5416    0.0000 C   0  0  0  0  0  0  0  0  0  0  0  0
    7.7223   -7.2424    0.0000 C   0  0  0  0  0  0  0  0  0  0  0  0
    9.9814   -6.2293    0.0000 C   0  0  0  0  0  0  0  0  0  0  0  0
   10.5728   -7.5382    0.0000 C   0  0  0  0  0  0  0  0  0  0  0  0
    4.1448   -8.9343    0.0000 C   0  0  0  0  0  0  0  0  0  0  0  0
    2.8844   -6.8061    0.0000 C   0  0  0  0  0  0  0  0  0  0  0  0
    2.4772   -7.5236    0.0000 C   0  0  0  0  0  0  0  0  0  0  0  0
    2.4917   -8.9585    0.0000 C   0  0  0  0  0  0  0  0  0  0  0  0
   11.3193   -7.2037    0.0000 C   0  0  0  0  0  0  0  0  0  0  0  0
   10.7376   -5.8948    0.0000 C   0  0  0  0  0  0  0  0  0  0  0  0
   11.4163   -6.3844    0.0000 C   0  0  0  0  0  0  0  0  0  0  0  0
  2  1  1  0  0  0  0
  3  1  1  0  0  0  0
  4  1  1  0  0  0  0
  5  3  1  0  0  0  0
  6  2  1  0  0  0  0
  7  4  1  0  0  0  0
  8 11  1  0  0  0  0
  9  5  1  0  0  0  0
 10  2  2  0  0  0  0
 11 14  1  0  0  0  0
 12  3  2  0  0  0  0
 13  7  2  0  0  0  0
 14 19  2  0  0  0  0
 15 18  1  0  0  0  0
 16  9  1  0  0  0  0
 17  4  2  0  0  0  0
 18 16  2  0  0  0  0
 19 16  1  0  0  0  0
 20  8  1  0  0  0  0
 21  8  1  0  0  0  0
 22  7  1  0  0  0  0
 23 17  1  0  0  0  0
 24 23  2  0  0  0  0
 25 13  1  0  0  0  0
 26 21  1  0  0  0  0
 27 20  1  0  0  0  0
 28 26  1  0  0  0  0
  6  5  1  0  0  0  0
 24 13  1  0  0  0  0
 11 15  2  0  0  0  0
 28 27  1  0  0  0  0
M  END
>  <IDNUMBER>
F3023-1012

>  <Chemical_Name>
1-(2,3-dimethylphenyl)-3-{[4-(piperidin-1-yl)phenyl]amino}pyrrolidine-2,5-dione

>  <PriceCoeff>
1.00

>  <CAS>
1009706-36-8

>  <MW>
377.48

>  <Description>
solid

>  <FSP3>
0.39

>  <clogP>
3.87

>  <TPSA>
52.65

>  <Acceptor>
4

>  <Donor>
2

>  <RotBonds>
4

>  <HAC>
28

>  <Collection>
General

>  <PPDS>
+

$$$$
F3030-0002
  Mrv2219 10102508112D          

 23 25  0  0  0  0            999 V2000
   -1.9185   -1.1254    0.0000 N   0  0  0  0  0  0  0  0  0  0  0  0
   -1.2540   -0.6478    0.0000 C   0  0  0  0  0  0  0  0  0  0  0  0
   -1.6651   -1.9185    0.0000 C   0  0  0  0  0  0  0  0  0  0  0  0
   -0.8347   -1.9185    0.0000 C   0  0  0  0  0  0  0  0  0  0  0  0
   -0.5813   -1.1254    0.0000 C   0  0  0  0  0  0  0  0  0  0  0  0
   -2.7033   -0.8762    0.0000 C   0  0  0  0  0  0  0  0  0  0  0  0
   -0.3571   -2.5829    0.0000 N   0  0  0  0  0  0  0  0  0  0  0  0
   -1.2540    0.1827    0.0000 O   0  0  0  0  0  0  0  0  0  0  0  0
   -2.1510   -2.5829    0.0000 O   0  0  0  0  0  0  0  0  0  0  0  0
   -2.8735   -0.0665    0.0000 C   0  0  0  0  0  0  0  0  0  0  0  0
    0.4651   -2.4957    0.0000 C   0  0  0  0  0  0  0  0  0  0  0  0
   -2.2631    0.4817    0.0000 F   0  0  0  0  0  0  0  0  0  0  0  0
    2.1095   -2.3296    0.0000 C   0  0  0  0  0  0  0  0  0  0  0  0
    0.8015   -1.7483    0.0000 C   0  0  0  0  0  0  0  0  0  0  0  0
    0.9510   -3.1684    0.0000 C   0  0  0  0  0  0  0  0  0  0  0  0
    1.7732   -3.0812    0.0000 C   0  0  0  0  0  0  0  0  0  0  0  0
    1.6195   -1.6611    0.0000 C   0  0  0  0  0  0  0  0  0  0  0  0
   -3.3096   -1.4326    0.0000 C   0  0  0  0  0  0  0  0  0  0  0  0
   -3.6584    0.1827    0.0000 C   0  0  0  0  0  0  0  0  0  0  0  0
    2.9276   -2.2466    0.0000 C   0  0  0  0  0  0  0  0  0  0  0  0
   -4.0944   -1.1752    0.0000 C   0  0  0  0  0  0  0  0  0  0  0  0
    3.2639   -1.4949    0.0000 C   0  0  0  0  0  0  0  0  0  0  0  0
   -4.2730   -0.3655    0.0000 C   0  0  0  0  0  0  0  0  0  0  0  0
  2  1  1  0  0  0  0
  3  1  1  0  0  0  0
  4  3  1  0  0  0  0
  5  2  1  0  0  0  0
  6  1  1  0  0  0  0
  7  4  1  0  0  0  0
  8  2  2  0  0  0  0
  9  3  2  0  0  0  0
 10  6  2  0  0  0  0
 11  7  1  0  0  0  0
 12 10  1  0  0  0  0
 13 16  2  0  0  0  0
 14 11  1  0  0  0  0
 15 11  2  0  0  0  0
 16 15  1  0  0  0  0
 17 14  2  0  0  0  0
 18  6  1  0  0  0  0
 19 10  1  0  0  0  0
 20 13  1  0  0  0  0
 21 18  2  0  0  0  0
 22 20  1  0  0  0  0
 23 21  1  0  0  0  0
  5  4  1  0  0  0  0
 23 19  2  0  0  0  0
 13 17  1  0  0  0  0
M  END
>  <IDNUMBER>
F3030-0002

>  <Chemical_Name>
3-[(4-ethylphenyl)amino]-1-(2-fluorophenyl)pyrrolidine-2,5-dione

>  <PriceCoeff>
1.00

>  <CAS>
1008012-02-9

>  <MW>
312.34

>  <Description>
solid

>  <FSP3>
0.22

>  <clogP>
3.77

>  <TPSA>
49.41

>  <Acceptor>
3

>  <Donor>
1

>  <RotBonds>
4

>  <HAC>
23

>  <Collection>
General

>  <PPDS>
+

$$$$
F3033-0005
  Mrv2219 10102508112D          

 20 21  0  0  0  0            999 V2000
    2.4431    0.5711    0.0000 N   0  0  0  0  0  0  0  0  0  0  0  0
    2.1305    1.3341    0.0000 C   0  0  0  0  0  0  0  0  0  0  0  0
    1.8303    0.0250    0.0000 C   0  0  0  0  0  0  0  0  0  0  0  0
    4.5444   -1.3675    0.0000 C   0  0  0  0  0  0  0  0  0  0  0  0
    3.4938   -0.4002    0.0000 C   0  0  0  0  0  0  0  0  0  0  0  0
    4.3026   -0.5795    0.0000 N   0  0  0  0  0  0  0  0  0  0  0  0
    5.3449   -1.5509    0.0000 C   0  0  0  0  0  0  0  0  0  0  0  0
    3.9816   -1.9679    0.0000 C   0  0  0  0  0  0  0  0  0  0  0  0
    3.2561    0.3877    0.0000 C   0  0  0  0  0  0  0  0  0  0  0  0
    4.2275   -2.7558    0.0000 C   0  0  0  0  0  0  0  0  0  0  0  0
    5.5950   -2.3306    0.0000 C   0  0  0  0  0  0  0  0  0  0  0  0
    1.1257    0.4503    0.0000 C   0  0  0  0  0  0  0  0  0  0  0  0
    1.3050    1.2590    0.0000 C   0  0  0  0  0  0  0  0  0  0  0  0
    1.9053   -0.7922    0.0000 O   0  0  0  0  0  0  0  0  0  0  0  0
    2.5557    2.0345    0.0000 O   0  0  0  0  0  0  0  0  0  0  0  0
    2.9392   -1.0048    0.0000 O   0  0  0  0  0  0  0  0  0  0  0  0
    5.0322   -2.9434    0.0000 C   0  0  0  0  0  0  0  0  0  0  0  0
    5.9077   -0.9423    0.0000 C   0  0  0  0  0  0  0  0  0  0  0  0
    3.1811   -1.7886    0.0000 C   0  0  0  0  0  0  0  0  0  0  0  0
    5.2781   -3.7314    0.0000 C   0  0  0  0  0  0  0  0  0  0  0  0
  2  1  1  0  0  0  0
  3  1  1  0  0  0  0
  4  6  1  0  0  0  0
  5  9  1  0  0  0  0
  6  5  1  0  0  0  0
  7  4  1  0  0  0  0
  8  4  2  0  0  0  0
  9  1  1  0  0  0  0
 10  8  1  0  0  0  0
 11  7  2  0  0  0  0
 12  3  1  0  0  0  0
 13  2  1  0  0  0  0
 14  3  2  0  0  0  0
 15  2  2  0  0  0  0
 16  5  2  0  0  0  0
 17 10  2  0  0  0  0
 18  7  1  0  0  0  0
 19  8  1  0  0  0  0
 20 17  1  0  0  0  0
 12 13  1  0  0  0  0
 11 17  1  0  0  0  0
M  END
>  <IDNUMBER>
F3033-0005

>  <Chemical_Name>
2-(2,5-dioxopyrrolidin-1-yl)-N-(2,4,6-trimethylphenyl)acetamide

>  <PriceCoeff>
1.50

>  <MW>
274.31

>  <Description>
solid

>  <FSP3>
0.40

>  <clogP>
0.80

>  <TPSA>
66.48

>  <Acceptor>
3

>  <Donor>
1

>  <RotBonds>
3

>  <HAC>
20

>  <Collection>
Advanced

$$$$
F3041-0409
  Mrv2219 10102508112D          

 25 27  0  0  0  0            999 V2000
    5.0234   -5.2709    0.0000 N   0  0  0  0  0  0  0  0  0  0  0  0
    5.2021   -8.5571    0.0000 S   0  0  0  0  0  0  0  0  0  0  0  0
    3.9509   -5.2709    0.0000 C   0  0  0  0  0  0  0  0  0  0  0  0
    5.2021   -6.0821    0.0000 C   0  0  0  0  0  0  0  0  0  0  0  0
    4.4871   -6.4946    0.0000 C   0  0  0  0  0  0  0  0  0  0  0  0
    5.6375   -4.7209    0.0000 C   0  0  0  0  0  0  0  0  0  0  0  0
    3.7812   -6.0821    0.0000 C   0  0  0  0  0  0  0  0  0  0  0  0
    5.2021   -7.7321    0.0000 C   0  0  0  0  0  0  0  0  0  0  0  0
    4.4871   -7.3196    0.0000 C   0  0  0  0  0  0  0  0  0  0  0  0
    5.2021   -9.3821    0.0000 N   0  0  0  0  0  0  0  0  0  0  0  0
    5.9171   -6.4946    0.0000 C   0  0  0  0  0  0  0  0  0  0  0  0
    5.9171   -7.3196    0.0000 C   0  0  0  0  0  0  0  0  0  0  0  0
    6.0271   -8.5571    0.0000 O   0  0  0  0  0  0  0  0  0  0  0  0
    4.3771   -8.5571    0.0000 O   0  0  0  0  0  0  0  0  0  0  0  0
    3.3459   -4.7209    0.0000 O   0  0  0  0  0  0  0  0  0  0  0  0
    5.4588   -3.9187    0.0000 C   0  0  0  0  0  0  0  0  0  0  0  0
    6.4121   -4.9684    0.0000 O   0  0  0  0  0  0  0  0  0  0  0  0
    3.0662   -6.4946    0.0000 C   0  0  0  0  0  0  0  0  0  0  0  0
    3.7812   -7.7321    0.0000 C   0  0  0  0  0  0  0  0  0  0  0  0
    3.0662   -7.3196    0.0000 C   0  0  0  0  0  0  0  0  0  0  0  0
    6.0684   -3.3596    0.0000 C   0  0  0  0  0  0  0  0  0  0  0  0
    4.4871   -9.7946    0.0000 C   0  0  0  0  0  0  0  0  0  0  0  0
    5.9171   -9.7946    0.0000 C   0  0  0  0  0  0  0  0  0  0  0  0
    6.8475   -3.6162    0.0000 C   0  0  0  0  0  0  0  0  0  0  0  0
    5.8896   -2.5621    0.0000 C   0  0  0  0  0  0  0  0  0  0  0  0
  2  8  1  0  0  0  0
  3  1  1  0  0  0  0
  4  1  1  0  0  0  0
  5  4  1  0  0  0  0
  6  1  1  0  0  0  0
  7  3  1  0  0  0  0
  8 12  2  0  0  0  0
  9  5  1  0  0  0  0
 10  2  1  0  0  0  0
 11  4  2  0  0  0  0
 12 11  1  0  0  0  0
 13  2  2  0  0  0  0
 14  2  2  0  0  0  0
 15  3  2  0  0  0  0
 16  6  1  0  0  0  0
 17  6  2  0  0  0  0
 18  7  1  0  0  0  0
 19  9  2  0  0  0  0
 20 18  2  0  0  0  0
 21 16  1  0  0  0  0
 22 10  1  0  0  0  0
 23 10  1  0  0  0  0
 24 21  1  0  0  0  0
 25 21  1  0  0  0  0
  7  5  2  0  0  0  0
  8  9  1  0  0  0  0
 19 20  1  0  0  0  0
M  END
>  <IDNUMBER>
F3041-0409

>  <Chemical_Name>
N,N-dimethyl-2-(3-methylbutanoyl)-3-oxo-2-azatricyclo[6.3.1.0?,??]dodeca-1(11),4(12),5,7,9-pentaene-9-sulfonamide

>  <PriceCoeff>
1.00

>  <CAS>
881477-17-4

>  <MW>
360.43

>  <Description>
solid

>  <FSP3>
0.33

>  <clogP>
2.82

>  <TPSA>
83.14

>  <Acceptor>
4

>  <Donor>
0

>  <RotBonds>
5

>  <HAC>
25

>  <Collection>
General

>  <PPDS>
+

$$$$
F3048-0060
  Mrv2219 10102508112D          

 28 30  0  0  0  0            999 V2000
    3.1516    2.0567    0.0000 N   0  0  0  0  0  0  0  0  0  0  0  0
    3.6326    1.3880    0.0000 C   0  0  0  0  0  0  0  0  0  0  0  0
    3.6326    2.7301    0.0000 C   0  0  0  0  0  0  0  0  0  0  0  0
    2.3271    2.0567    0.0000 C   0  0  0  0  0  0  0  0  0  0  0  0
    4.4159    1.6445    0.0000 C   0  0  0  0  0  0  0  0  0  0  0  0
    4.4159    2.4690    0.0000 C   0  0  0  0  0  0  0  0  0  0  0  0
    5.0847    2.9546    0.0000 S   0  0  0  0  0  0  0  0  0  0  0  0
    6.5048    3.1149    0.0000 C   0  0  0  0  0  0  0  0  0  0  0  0
    3.3806    0.6047    0.0000 O   0  0  0  0  0  0  0  0  0  0  0  0
    7.2606    2.7713    0.0000 N   0  0  0  0  0  0  0  0  0  0  0  0
    1.9148    2.7713    0.0000 C   0  0  0  0  0  0  0  0  0  0  0  0
    1.9148    1.3421    0.0000 C   0  0  0  0  0  0  0  0  0  0  0  0
    3.3806    3.5134    0.0000 O   0  0  0  0  0  0  0  0  0  0  0  0
    7.9202    3.2523    0.0000 C   0  0  0  0  0  0  0  0  0  0  0  0
    8.6761    2.9225    0.0000 C   0  0  0  0  0  0  0  0  0  0  0  0
    6.4223    3.9257    0.0000 O   0  0  0  0  0  0  0  0  0  0  0  0
    1.0903    1.3421    0.0000 C   0  0  0  0  0  0  0  0  0  0  0  0
    1.0903    2.7713    0.0000 C   0  0  0  0  0  0  0  0  0  0  0  0
    5.8405    2.6202    0.0000 C   0  0  0  0  0  0  0  0  0  0  0  0
    0.6780    2.0567    0.0000 C   0  0  0  0  0  0  0  0  0  0  0  0
    9.3494    3.4035    0.0000 C   0  0  0  0  0  0  0  0  0  0  0  0
   10.1006    3.0645    0.0000 O   0  0  0  0  0  0  0  0  0  0  0  0
    8.5065    4.5533    0.0000 C   0  0  0  0  0  0  0  0  0  0  0  0
    7.8378    4.0769    0.0000 C   0  0  0  0  0  0  0  0  0  0  0  0
    0.6780    3.4859    0.0000 C   0  0  0  0  0  0  0  0  0  0  0  0
    0.6780    0.6275    0.0000 C   0  0  0  0  0  0  0  0  0  0  0  0
    9.2624    4.2280    0.0000 C   0  0  0  0  0  0  0  0  0  0  0  0
   10.7649    3.5547    0.0000 C   0  0  0  0  0  0  0  0  0  0  0  0
  2  1  1  0  0  0  0
  3  1  1  0  0  0  0
  4  1  1  0  0  0  0
  5  2  1  0  0  0  0
  6  3  1  0  0  0  0
  7  6  1  0  0  0  0
  8 19  1  0  0  0  0
  9  2  2  0  0  0  0
 10  8  1  0  0  0  0
 11  4  1  0  0  0  0
 12  4  2  0  0  0  0
 13  3  2  0  0  0  0
 14 10  1  0  0  0  0
 15 14  1  0  0  0  0
 16  8  2  0  0  0  0
 17 12  1  0  0  0  0
 18 11  2  0  0  0  0
 19  7  1  0  0  0  0
 20 17  2  0  0  0  0
 21 15  2  0  0  0  0
 22 21  1  0  0  0  0
 23 24  1  0  0  0  0
 24 14  2  0  0  0  0
 25 18  1  0  0  0  0
 26 17  1  0  0  0  0
 27 23  2  0  0  0  0
 28 22  1  0  0  0  0
  5  6  1  0  0  0  0
 18 20  1  0  0  0  0
 21 27  1  0  0  0  0
M  END
>  <IDNUMBER>
F3048-0060

>  <Chemical_Name>
2-{[1-(3,5-dimethylphenyl)-2,5-dioxopyrrolidin-3-yl]sulfanyl}-N-(3-methoxyphenyl)acetamide

>  <PriceCoeff>
1.00

>  <CAS>
714262-51-8

>  <MW>
398.48

>  <Description>
solid

>  <FSP3>
0.29

>  <clogP>
3.30

>  <TPSA>
101.01

>  <Acceptor>
4

>  <Donor>
1

>  <RotBonds>
6

>  <HAC>
28

>  <Collection>
General

>  <PPDS>
+

$$$$
F3048-0066
  Mrv2219 10102508112D          

 27 29  0  0  0  0            999 V2000
    7.6755    1.7275    0.0000 N   0  0  0  0  0  0  0  0  0  0  0  0
    7.1897    2.3873    0.0000 C   0  0  0  0  0  0  0  0  0  0  0  0
    7.1897    1.0539    0.0000 C   0  0  0  0  0  0  0  0  0  0  0  0
    6.4061    2.1399    0.0000 C   0  0  0  0  0  0  0  0  0  0  0  0
    6.4061    1.3151    0.0000 C   0  0  0  0  0  0  0  0  0  0  0  0
    8.5002    1.7275    0.0000 C   0  0  0  0  0  0  0  0  0  0  0  0
    5.7371    0.8248    0.0000 S   0  0  0  0  0  0  0  0  0  0  0  0
    4.3165    0.6736    0.0000 C   0  0  0  0  0  0  0  0  0  0  0  0
    7.4417    3.1846    0.0000 O   0  0  0  0  0  0  0  0  0  0  0  0
    3.5651    1.0126    0.0000 N   0  0  0  0  0  0  0  0  0  0  0  0
    7.4417    0.2703    0.0000 O   0  0  0  0  0  0  0  0  0  0  0  0
    2.8915    0.5316    0.0000 C   0  0  0  0  0  0  0  0  0  0  0  0
    2.1445    0.8614    0.0000 C   0  0  0  0  0  0  0  0  0  0  0  0
    4.4036   -0.1421    0.0000 O   0  0  0  0  0  0  0  0  0  0  0  0
    8.9127    1.0126    0.0000 C   0  0  0  0  0  0  0  0  0  0  0  0
    8.9127    2.4423    0.0000 C   0  0  0  0  0  0  0  0  0  0  0  0
    4.9810    1.1639    0.0000 C   0  0  0  0  0  0  0  0  0  0  0  0
    1.4756    0.3803    0.0000 C   0  0  0  0  0  0  0  0  0  0  0  0
   10.1499    1.7275    0.0000 C   0  0  0  0  0  0  0  0  0  0  0  0
    9.7375    2.4423    0.0000 C   0  0  0  0  0  0  0  0  0  0  0  0
    9.7375    1.0126    0.0000 C   0  0  0  0  0  0  0  0  0  0  0  0
    0.7194    0.7102    0.0000 Br  0  0  0  0  0  0  0  0  0  0  0  0
   10.9747    1.7275    0.0000 O   0  0  0  0  0  0  0  0  0  0  0  0
    2.3141   -0.7744    0.0000 C   0  0  0  0  0  0  0  0  0  0  0  0
    2.9831   -0.2933    0.0000 C   0  0  0  0  0  0  0  0  0  0  0  0
    1.5581   -0.4446    0.0000 C   0  0  0  0  0  0  0  0  0  0  0  0
   11.3871    1.0126    0.0000 C   0  0  0  0  0  0  0  0  0  0  0  0
  2  1  1  0  0  0  0
  3  1  1  0  0  0  0
  4  2  1  0  0  0  0
  5  3  1  0  0  0  0
  6  1  1  0  0  0  0
  7  5  1  0  0  0  0
  8 17  1  0  0  0  0
  9  2  2  0  0  0  0
 10  8  1  0  0  0  0
 11  3  2  0  0  0  0
 12 10  1  0  0  0  0
 13 12  1  0  0  0  0
 14  8  2  0  0  0  0
 15  6  1  0  0  0  0
 16  6  2  0  0  0  0
 17  7  1  0  0  0  0
 18 13  2  0  0  0  0
 19 20  2  0  0  0  0
 20 16  1  0  0  0  0
 21 15  2  0  0  0  0
 22 18  1  0  0  0  0
 23 19  1  0  0  0  0
 24 25  1  0  0  0  0
 25 12  2  0  0  0  0
 26 24  2  0  0  0  0
 27 23  1  0  0  0  0
  4  5  1  0  0  0  0
 21 19  1  0  0  0  0
 18 26  1  0  0  0  0
M  END
>  <IDNUMBER>
F3048-0066

>  <Chemical_Name>
N-(3-bromophenyl)-2-{[1-(4-methoxyphenyl)-2,5-dioxopyrrolidin-3-yl]sulfanyl}acetamide

>  <PriceCoeff>
1.00

>  <CAS>
714262-55-2

>  <MW>
449.32

>  <Description>
solid

>  <FSP3>
0.21

>  <clogP>
3.44

>  <TPSA>
101.01

>  <Acceptor>
4

>  <Donor>
1

>  <RotBonds>
6

>  <HAC>
27

>  <Collection>
General

>  <PPDS>
+

$$$$
F3048-0084
  Mrv2219 10102508112D          

 30 32  0  0  0  0            999 V2000
    4.1937    2.2504    0.0000 N   0  0  0  0  0  0  0  0  0  0  0  0
    4.6796    1.5813    0.0000 C   0  0  0  0  0  0  0  0  0  0  0  0
    4.6796    2.9150    0.0000 C   0  0  0  0  0  0  0  0  0  0  0  0
    5.4634    1.8379    0.0000 C   0  0  0  0  0  0  0  0  0  0  0  0
    5.4634    2.6629    0.0000 C   0  0  0  0  0  0  0  0  0  0  0  0
    3.3687    2.2504    0.0000 C   0  0  0  0  0  0  0  0  0  0  0  0
    0.8938    2.2504    0.0000 C   0  0  0  0  0  0  0  0  0  0  0  0
    6.1325    3.1441    0.0000 S   0  0  0  0  0  0  0  0  0  0  0  0
    7.5534    3.2954    0.0000 C   0  0  0  0  0  0  0  0  0  0  0  0
    4.4275    0.7975    0.0000 O   0  0  0  0  0  0  0  0  0  0  0  0
    8.3050    2.9654    0.0000 N   0  0  0  0  0  0  0  0  0  0  0  0
   10.3950    3.5979    0.0000 C   0  0  0  0  0  0  0  0  0  0  0  0
    4.4275    3.6987    0.0000 O   0  0  0  0  0  0  0  0  0  0  0  0
    1.7187    2.2504    0.0000 C   0  0  0  0  0  0  0  0  0  0  0  0
    8.9696    3.4466    0.0000 C   0  0  0  0  0  0  0  0  0  0  0  0
    9.7259    3.1166    0.0000 C   0  0  0  0  0  0  0  0  0  0  0  0
   10.3034    4.4046    0.0000 C   0  0  0  0  0  0  0  0  0  0  0  0
    0.4813    1.5354    0.0000 O   0  0  0  0  0  0  0  0  0  0  0  0
    7.4662    4.1204    0.0000 O   0  0  0  0  0  0  0  0  0  0  0  0
    2.9562    1.5354    0.0000 C   0  0  0  0  0  0  0  0  0  0  0  0
    2.9562    2.9654    0.0000 C   0  0  0  0  0  0  0  0  0  0  0  0
    2.1312    1.5354    0.0000 C   0  0  0  0  0  0  0  0  0  0  0  0
    2.1312    2.9654    0.0000 C   0  0  0  0  0  0  0  0  0  0  0  0
    6.8796    2.8141    0.0000 C   0  0  0  0  0  0  0  0  0  0  0  0
    9.5562    4.7438    0.0000 C   0  0  0  0  0  0  0  0  0  0  0  0
    8.8871    4.2625    0.0000 C   0  0  0  0  0  0  0  0  0  0  0  0
    0.4813    2.9654    0.0000 O   0  0  0  0  0  0  0  0  0  0  0  0
   11.1512    3.2587    0.0000 C   0  0  0  0  0  0  0  0  0  0  0  0
   10.9771    4.8950    0.0000 C   0  0  0  0  0  0  0  0  0  0  0  0
   -0.3437    2.9654    0.0000 C   0  0  0  0  0  0  0  0  0  0  0  0
  2  1  1  0  0  0  0
  3  1  1  0  0  0  0
  4  2  1  0  0  0  0
  5  3  1  0  0  0  0
  6  1  1  0  0  0  0
  7 14  1  0  0  0  0
  8  5  1  0  0  0  0
  9 24  1  0  0  0  0
 10  2  2  0  0  0  0
 11  9  1  0  0  0  0
 12 16  2  0  0  0  0
 13  3  2  0  0  0  0
 14 23  2  0  0  0  0
 15 11  1  0  0  0  0
 16 15  1  0  0  0  0
 17 25  2  0  0  0  0
 18  7  2  0  0  0  0
 19  9  2  0  0  0  0
 20  6  1  0  0  0  0
 21  6  2  0  0  0  0
 22 20  2  0  0  0  0
 23 21  1  0  0  0  0
 24  8  1  0  0  0  0
 25 26  1  0  0  0  0
 26 15  2  0  0  0  0
 27  7  1  0  0  0  0
 28 12  1  0  0  0  0
 29 17  1  0  0  0  0
 30 27  1  0  0  0  0
  4  5  1  0  0  0  0
 14 22  1  0  0  0  0
 12 17  1  0  0  0  0
M  END
>  <IDNUMBER>
F3048-0084

>  <Chemical_Name>
methyl 4-[3-({[(3,4-dimethylphenyl)carbamoyl]methyl}sulfanyl)-2,5-dioxopyrrolidin-1-yl]benzoate

>  <PriceCoeff>
1.00

>  <MW>
426.49

>  <Description>
solid

>  <FSP3>
0.27

>  <clogP>
3.66

>  <TPSA>
118.08

>  <Acceptor>
5

>  <Donor>
1

>  <RotBonds>
7

>  <HAC>
30

>  <Collection>
General

$$$$
F3048-0087
  Mrv2219 10102508112D          

 30 32  0  0  0  0            999 V2000
    4.4871    2.2229    0.0000 N   0  0  0  0  0  0  0  0  0  0  0  0
    4.9684    1.5491    0.0000 C   0  0  0  0  0  0  0  0  0  0  0  0
    4.9684    2.8829    0.0000 C   0  0  0  0  0  0  0  0  0  0  0  0
    5.7521    1.8012    0.0000 C   0  0  0  0  0  0  0  0  0  0  0  0
    5.7521    2.6354    0.0000 C   0  0  0  0  0  0  0  0  0  0  0  0
    3.6621    2.2229    0.0000 C   0  0  0  0  0  0  0  0  0  0  0  0
    8.5984    2.9241    0.0000 N   0  0  0  0  0  0  0  0  0  0  0  0
    1.1871    2.2229    0.0000 C   0  0  0  0  0  0  0  0  0  0  0  0
    7.8421    3.2679    0.0000 C   0  0  0  0  0  0  0  0  0  0  0  0
    6.4259    3.1166    0.0000 S   0  0  0  0  0  0  0  0  0  0  0  0
    9.2675    3.4191    0.0000 C   0  0  0  0  0  0  0  0  0  0  0  0
    4.7162    0.7654    0.0000 O   0  0  0  0  0  0  0  0  0  0  0  0
    4.7162    3.6666    0.0000 O   0  0  0  0  0  0  0  0  0  0  0  0
    2.0121    2.2229    0.0000 C   0  0  0  0  0  0  0  0  0  0  0  0
    0.7746    2.9287    0.0000 O   0  0  0  0  0  0  0  0  0  0  0  0
    7.7596    4.0837    0.0000 O   0  0  0  0  0  0  0  0  0  0  0  0
    3.2496    1.4988    0.0000 C   0  0  0  0  0  0  0  0  0  0  0  0
    3.2496    2.9287    0.0000 C   0  0  0  0  0  0  0  0  0  0  0  0
   10.0146    3.0754    0.0000 C   0  0  0  0  0  0  0  0  0  0  0  0
    2.4246    2.9287    0.0000 C   0  0  0  0  0  0  0  0  0  0  0  0
    2.4246    1.4988    0.0000 C   0  0  0  0  0  0  0  0  0  0  0  0
    7.1775    2.7775    0.0000 C   0  0  0  0  0  0  0  0  0  0  0  0
    0.7746    1.4988    0.0000 O   0  0  0  0  0  0  0  0  0  0  0  0
    9.1759    4.2304    0.0000 C   0  0  0  0  0  0  0  0  0  0  0  0
   10.1062    2.2550    0.0000 C   0  0  0  0  0  0  0  0  0  0  0  0
   10.6884    3.5612    0.0000 C   0  0  0  0  0  0  0  0  0  0  0  0
   -0.0504    1.4988    0.0000 C   0  0  0  0  0  0  0  0  0  0  0  0
   10.8625    1.9204    0.0000 C   0  0  0  0  0  0  0  0  0  0  0  0
    9.8496    4.7071    0.0000 C   0  0  0  0  0  0  0  0  0  0  0  0
   10.6012    4.3816    0.0000 C   0  0  0  0  0  0  0  0  0  0  0  0
  2  1  1  0  0  0  0
  3  1  1  0  0  0  0
  4  2  1  0  0  0  0
  5  3  1  0  0  0  0
  6  1  1  0  0  0  0
  7  9  1  0  0  0  0
  8 14  1  0  0  0  0
  9 22  1  0  0  0  0
 10  5  1  0  0  0  0
 11  7  1  0  0  0  0
 12  2  2  0  0  0  0
 13  3  2  0  0  0  0
 14 20  2  0  0  0  0
 15  8  2  0  0  0  0
 16  9  2  0  0  0  0
 17  6  1  0  0  0  0
 18  6  2  0  0  0  0
 19 11  1  0  0  0  0
 20 18  1  0  0  0  0
 21 17  2  0  0  0  0
 22 10  1  0  0  0  0
 23  8  1  0  0  0  0
 24 11  2  0  0  0  0
 25 19  1  0  0  0  0
 26 19  2  0  0  0  0
 27 23  1  0  0  0  0
 28 25  1  0  0  0  0
 29 24  1  0  0  0  0
 30 29  2  0  0  0  0
  4  5  1  0  0  0  0
 14 21  1  0  0  0  0
 26 30  1  0  0  0  0
M  END
>  <IDNUMBER>
F3048-0087

>  <Chemical_Name>
methyl 4-[3-({[(2-ethylphenyl)carbamoyl]methyl}sulfanyl)-2,5-dioxopyrrolidin-1-yl]benzoate

>  <PriceCoeff>
1.00

>  <CAS>
714262-71-2

>  <MW>
426.49

>  <Description>
solid

>  <FSP3>
0.27

>  <clogP>
2.87

>  <TPSA>
118.08

>  <Acceptor>
5

>  <Donor>
1

>  <RotBonds>
8

>  <HAC>
30

>  <Collection>
General

>  <PPDS>
+

$$$$
F3048-0088
  Mrv2219 10102508112D          

 31 33  0  0  0  0            999 V2000
    4.7595    1.0948    0.0000 N   0  0  0  0  0  0  0  0  0  0  0  0
    4.8419    0.2748    0.0000 C   0  0  0  0  0  0  0  0  0  0  0  0
    5.5107    1.4383    0.0000 C   0  0  0  0  0  0  0  0  0  0  0  0
    5.6527    0.1053    0.0000 C   0  0  0  0  0  0  0  0  0  0  0  0
    6.0650    0.8199    0.0000 C   0  0  0  0  0  0  0  0  0  0  0  0
    4.0449    1.5070    0.0000 C   0  0  0  0  0  0  0  0  0  0  0  0
    1.9011    2.7439    0.0000 C   0  0  0  0  0  0  0  0  0  0  0  0
    6.8849    0.9070    0.0000 S   0  0  0  0  0  0  0  0  0  0  0  0
    8.1905    0.3252    0.0000 C   0  0  0  0  0  0  0  0  0  0  0  0
    4.2326   -0.2748    0.0000 O   0  0  0  0  0  0  0  0  0  0  0  0
    5.6802    2.2400    0.0000 O   0  0  0  0  0  0  0  0  0  0  0  0
    2.6157    2.3316    0.0000 C   0  0  0  0  0  0  0  0  0  0  0  0
    8.6761   -0.3436    0.0000 N   0  0  0  0  0  0  0  0  0  0  0  0
    1.1865    2.3316    0.0000 O   0  0  0  0  0  0  0  0  0  0  0  0
    8.5249    1.0810    0.0000 O   0  0  0  0  0  0  0  0  0  0  0  0
    3.3303    1.0948    0.0000 C   0  0  0  0  0  0  0  0  0  0  0  0
    4.0449    2.3316    0.0000 C   0  0  0  0  0  0  0  0  0  0  0  0
    2.6157    1.5070    0.0000 C   0  0  0  0  0  0  0  0  0  0  0  0
    3.3303    2.7439    0.0000 C   0  0  0  0  0  0  0  0  0  0  0  0
    7.3705    0.2427    0.0000 C   0  0  0  0  0  0  0  0  0  0  0  0
    9.4960   -0.2520    0.0000 C   0  0  0  0  0  0  0  0  0  0  0  0
    1.9011    3.5684    0.0000 O   0  0  0  0  0  0  0  0  0  0  0  0
   11.1359   -0.0825    0.0000 C   0  0  0  0  0  0  0  0  0  0  0  0
    9.8304    0.4947    0.0000 C   0  0  0  0  0  0  0  0  0  0  0  0
    9.9770   -0.9254    0.0000 C   0  0  0  0  0  0  0  0  0  0  0  0
   10.7924   -0.8383    0.0000 C   0  0  0  0  0  0  0  0  0  0  0  0
   10.6503    0.5863    0.0000 C   0  0  0  0  0  0  0  0  0  0  0  0
   11.9559    0.0091    0.0000 O   0  0  0  0  0  0  0  0  0  0  0  0
   12.2903    0.7558    0.0000 C   0  0  0  0  0  0  0  0  0  0  0  0
    1.1865    3.9807    0.0000 C   0  0  0  0  0  0  0  0  0  0  0  0
   13.1102    0.8474    0.0000 C   0  0  0  0  0  0  0  0  0  0  0  0
  2  1  1  0  0  0  0
  3  1  1  0  0  0  0
  4  2  1  0  0  0  0
  5  3  1  0  0  0  0
  6  1  1  0  0  0  0
  7 12  1  0  0  0  0
  8  5  1  0  0  0  0
  9 20  1  0  0  0  0
 10  2  2  0  0  0  0
 11  3  2  0  0  0  0
 12 19  1  0  0  0  0
 13  9  1  0  0  0  0
 14  7  2  0  0  0  0
 15  9  2  0  0  0  0
 16  6  2  0  0  0  0
 17  6  1  0  0  0  0
 18 16  1  0  0  0  0
 19 17  2  0  0  0  0
 20  8  1  0  0  0  0
 21 13  1  0  0  0  0
 22  7  1  0  0  0  0
 23 26  2  0  0  0  0
 24 21  1  0  0  0  0
 25 21  2  0  0  0  0
 26 25  1  0  0  0  0
 27 24  2  0  0  0  0
 28 23  1  0  0  0  0
 29 28  1  0  0  0  0
 30 22  1  0  0  0  0
 31 29  1  0  0  0  0
  4  5  1  0  0  0  0
 12 18  2  0  0  0  0
 27 23  1  0  0  0  0
M  END
>  <IDNUMBER>
F3048-0088

>  <Chemical_Name>
methyl 4-[3-({[(4-ethoxyphenyl)carbamoyl]methyl}sulfanyl)-2,5-dioxopyrrolidin-1-yl]benzoate

>  <PriceCoeff>
1.00

>  <CAS>
714262-72-3

>  <MW>
442.48

>  <Description>
solid

>  <FSP3>
0.27

>  <clogP>
3.31

>  <TPSA>
127.31

>  <Acceptor>
6

>  <Donor>
1

>  <RotBonds>
9

>  <HAC>
31

>  <Collection>
General

>  <PPDS>
+

$$$$
F3048-0123
  Mrv2219 10102508112D          

 26 28  0  0  0  0            999 V2000
    7.0721    2.6354    0.0000 N   0  0  0  0  0  0  0  0  0  0  0  0
    6.5909    3.3091    0.0000 C   0  0  0  0  0  0  0  0  0  0  0  0
    6.5909    1.9754    0.0000 C   0  0  0  0  0  0  0  0  0  0  0  0
    5.8071    3.0479    0.0000 C   0  0  0  0  0  0  0  0  0  0  0  0
    5.8071    2.2229    0.0000 C   0  0  0  0  0  0  0  0  0  0  0  0
    7.8971    2.6354    0.0000 C   0  0  0  0  0  0  0  0  0  0  0  0
    5.1425    1.7416    0.0000 S   0  0  0  0  0  0  0  0  0  0  0  0
    3.7171    1.5904    0.0000 C   0  0  0  0  0  0  0  0  0  0  0  0
    6.8475    4.0929    0.0000 O   0  0  0  0  0  0  0  0  0  0  0  0
    6.8475    1.1825    0.0000 O   0  0  0  0  0  0  0  0  0  0  0  0
    2.9609    1.9250    0.0000 N   0  0  0  0  0  0  0  0  0  0  0  0
    8.3096    1.9204    0.0000 C   0  0  0  0  0  0  0  0  0  0  0  0
    3.7996    0.7700    0.0000 O   0  0  0  0  0  0  0  0  0  0  0  0
    4.3862    2.0854    0.0000 C   0  0  0  0  0  0  0  0  0  0  0  0
    2.2963    1.4391    0.0000 C   0  0  0  0  0  0  0  0  0  0  0  0
    7.8971    1.2054    0.0000 O   0  0  0  0  0  0  0  0  0  0  0  0
    8.3096    3.3504    0.0000 C   0  0  0  0  0  0  0  0  0  0  0  0
    9.1346    1.9204    0.0000 C   0  0  0  0  0  0  0  0  0  0  0  0
    1.5446    1.7737    0.0000 C   0  0  0  0  0  0  0  0  0  0  0  0
    2.3834    0.6188    0.0000 C   0  0  0  0  0  0  0  0  0  0  0  0
    8.3096    0.4950    0.0000 C   0  0  0  0  0  0  0  0  0  0  0  0
    9.1346    3.3504    0.0000 C   0  0  0  0  0  0  0  0  0  0  0  0
    9.5471    2.6354    0.0000 C   0  0  0  0  0  0  0  0  0  0  0  0
    0.8709    1.2925    0.0000 C   0  0  0  0  0  0  0  0  0  0  0  0
    1.7187    0.1329    0.0000 C   0  0  0  0  0  0  0  0  0  0  0  0
    0.9625    0.4766    0.0000 C   0  0  0  0  0  0  0  0  0  0  0  0
  2  1  1  0  0  0  0
  3  1  1  0  0  0  0
  4  2  1  0  0  0  0
  5  3  1  0  0  0  0
  6  1  1  0  0  0  0
  7  5  1  0  0  0  0
  8 14  1  0  0  0  0
  9  2  2  0  0  0  0
 10  3  2  0  0  0  0
 11  8  1  0  0  0  0
 12  6  1  0  0  0  0
 13  8  2  0  0  0  0
 14  7  1  0  0  0  0
 15 11  1  0  0  0  0
 16 12  1  0  0  0  0
 17  6  2  0  0  0  0
 18 12  2  0  0  0  0
 19 15  1  0  0  0  0
 20 15  2  0  0  0  0
 21 16  1  0  0  0  0
 22 17  1  0  0  0  0
 23 22  2  0  0  0  0
 24 19  2  0  0  0  0
 25 20  1  0  0  0  0
 26 25  2  0  0  0  0
  4  5  1  0  0  0  0
 18 23  1  0  0  0  0
 26 24  1  0  0  0  0
M  END
>  <IDNUMBER>
F3048-0123

>  <Chemical_Name>
2-{[1-(2-methoxyphenyl)-2,5-dioxopyrrolidin-3-yl]sulfanyl}-N-phenylacetamide

>  <PriceCoeff>
1.00

>  <CAS>
708996-60-5

>  <MW>
370.42

>  <Description>
solid

>  <FSP3>
0.21

>  <clogP>
2.32

>  <TPSA>
101.01

>  <Acceptor>
4

>  <Donor>
1

>  <RotBonds>
6

>  <HAC>
26

>  <Collection>
General

>  <PPDS>
+

$$$$
F3048-0226
  Mrv2219 10102508112D          

 28 30  0  0  0  0            999 V2000
    8.0712    2.6629    0.0000 N   0  0  0  0  0  0  0  0  0  0  0  0
    7.9796    3.4879    0.0000 C   0  0  0  0  0  0  0  0  0  0  0  0
    7.3196    2.3329    0.0000 C   0  0  0  0  0  0  0  0  0  0  0  0
    8.7862    2.2504    0.0000 C   0  0  0  0  0  0  0  0  0  0  0  0
    7.1775    3.6529    0.0000 C   0  0  0  0  0  0  0  0  0  0  0  0
    6.7650    2.9379    0.0000 C   0  0  0  0  0  0  0  0  0  0  0  0
    8.7862    1.4254    0.0000 C   0  0  0  0  0  0  0  0  0  0  0  0
    5.9446    2.8554    0.0000 S   0  0  0  0  0  0  0  0  0  0  0  0
    4.6384    3.4329    0.0000 C   0  0  0  0  0  0  0  0  0  0  0  0
    9.5012    1.0129    0.0000 C   0  0  0  0  0  0  0  0  0  0  0  0
    8.5984    4.0379    0.0000 O   0  0  0  0  0  0  0  0  0  0  0  0
    7.1409    1.5216    0.0000 O   0  0  0  0  0  0  0  0  0  0  0  0
    4.1571    4.1066    0.0000 N   0  0  0  0  0  0  0  0  0  0  0  0
    9.5012    2.6629    0.0000 C   0  0  0  0  0  0  0  0  0  0  0  0
   10.2162    1.4254    0.0000 C   0  0  0  0  0  0  0  0  0  0  0  0
    4.3037    2.6812    0.0000 O   0  0  0  0  0  0  0  0  0  0  0  0
   10.2162    2.2504    0.0000 C   0  0  0  0  0  0  0  0  0  0  0  0
    5.4588    3.5291    0.0000 C   0  0  0  0  0  0  0  0  0  0  0  0
    3.3321    4.0150    0.0000 C   0  0  0  0  0  0  0  0  0  0  0  0
    1.6959    3.8454    0.0000 C   0  0  0  0  0  0  0  0  0  0  0  0
    2.9975    3.2679    0.0000 C   0  0  0  0  0  0  0  0  0  0  0  0
    2.8509    4.6796    0.0000 C   0  0  0  0  0  0  0  0  0  0  0  0
    2.0259    4.5834    0.0000 C   0  0  0  0  0  0  0  0  0  0  0  0
    2.1771    3.1854    0.0000 C   0  0  0  0  0  0  0  0  0  0  0  0
    0.8709    3.7629    0.0000 O   0  0  0  0  0  0  0  0  0  0  0  0
    9.5012    0.1879    0.0000 C   0  0  0  0  0  0  0  0  0  0  0  0
   10.9312    1.0129    0.0000 C   0  0  0  0  0  0  0  0  0  0  0  0
    0.5362    3.0066    0.0000 C   0  0  0  0  0  0  0  0  0  0  0  0
  2  1  1  0  0  0  0
  3  1  1  0  0  0  0
  4  1  1  0  0  0  0
  5  2  1  0  0  0  0
  6  3  1  0  0  0  0
  7  4  2  0  0  0  0
  8  6  1  0  0  0  0
  9 18  1  0  0  0  0
 10  7  1  0  0  0  0
 11  2  2  0  0  0  0
 12  3  2  0  0  0  0
 13  9  1  0  0  0  0
 14  4  1  0  0  0  0
 15 17  1  0  0  0  0
 16  9  2  0  0  0  0
 17 14  2  0  0  0  0
 18  8  1  0  0  0  0
 19 13  1  0  0  0  0
 20 23  2  0  0  0  0
 21 19  1  0  0  0  0
 22 19  2  0  0  0  0
 23 22  1  0  0  0  0
 24 21  2  0  0  0  0
 25 20  1  0  0  0  0
 26 10  1  0  0  0  0
 27 15  1  0  0  0  0
 28 25  1  0  0  0  0
  5  6  1  0  0  0  0
 10 15  2  0  0  0  0
 24 20  1  0  0  0  0
M  END
>  <IDNUMBER>
F3048-0226

>  <Chemical_Name>
2-{[1-(3,4-dimethylphenyl)-2,5-dioxopyrrolidin-3-yl]sulfanyl}-N-(4-methoxyphenyl)acetamide

>  <PriceCoeff>
1.00

>  <CAS>
835887-18-8

>  <MW>
398.48

>  <Description>
solid

>  <FSP3>
0.29

>  <clogP>
3.25

>  <TPSA>
101.01

>  <Acceptor>
4

>  <Donor>
1

>  <RotBonds>
6

>  <HAC>
28

>  <Collection>
General

>  <PPDS>
+

$$$$
F3064-0111
  Mrv2219 10102508112D          

 18 19  0  0  0  0            999 V2000
    2.1435    1.2424    0.0000 C   0  0  0  0  0  0  0  0  0  0  0  0
    2.1435    2.0674    0.0000 C   0  0  0  0  0  0  0  0  0  0  0  0
    2.9268    0.9846    0.0000 N   0  0  0  0  0  0  0  0  0  0  0  0
    1.4290    0.8250    0.0000 N   0  0  0  0  0  0  0  0  0  0  0  0
    0.7145    2.0674    0.0000 N   0  0  0  0  0  0  0  0  0  0  0  0
    2.9268    2.3203    0.0000 N   0  0  0  0  0  0  0  0  0  0  0  0
    0.7096    1.2424    0.0000 C   0  0  0  0  0  0  0  0  0  0  0  0
    1.4241    2.4775    0.0000 C   0  0  0  0  0  0  0  0  0  0  0  0
    3.4130    1.6549    0.0000 C   0  0  0  0  0  0  0  0  0  0  0  0
    3.1821    3.1036    0.0000 C   0  0  0  0  0  0  0  0  0  0  0  0
    0.0000    0.8299    0.0000 O   0  0  0  0  0  0  0  0  0  0  0  0
    1.4241    3.3025    0.0000 O   0  0  0  0  0  0  0  0  0  0  0  0
    4.2380    1.6549    0.0000 Br  0  0  0  0  0  0  0  0  0  0  0  0
    1.4290    0.0000    0.0000 C   0  0  0  0  0  0  0  0  0  0  0  0
    0.0000    2.4750    0.0000 C   0  0  0  0  0  0  0  0  0  0  0  0
    3.9875    3.2730    0.0000 C   0  0  0  0  0  0  0  0  0  0  0  0
    4.5400    2.6616    0.0000 C   0  0  0  0  0  0  0  0  0  0  0  0
    4.2453    4.0587    0.0000 C   0  0  0  0  0  0  0  0  0  0  0  0
  2  1  2  0  0  0  0
  3  1  1  0  0  0  0
  4  1  1  0  0  0  0
  5  7  1  0  0  0  0
  6  2  1  0  0  0  0
  7  4  1  0  0  0  0
  8  2  1  0  0  0  0
  9  3  2  0  0  0  0
 10  6  1  0  0  0  0
 11  7  2  0  0  0  0
 12  8  2  0  0  0  0
 13  9  1  0  0  0  0
 14  4  1  0  0  0  0
 15  5  1  0  0  0  0
 16 10  1  0  0  0  0
 17 16  1  0  0  0  0
 18 16  1  0  0  0  0
  9  6  1  0  0  0  0
  8  5  1  0  0  0  0
M  END
>  <IDNUMBER>
F3064-0111

>  <Chemical_Name>
8-bromo-1,3-dimethyl-7-(2-methylpropyl)-2,3,6,7-tetrahydro-1H-purine-2,6-dione

>  <PriceCoeff>
1.00

>  <CAS>
887866-70-8

>  <MW>
315.17

>  <Description>
solid

>  <FSP3>
0.55

>  <clogP>
2.31

>  <TPSA>
58.44

>  <Acceptor>
3

>  <Donor>
1

>  <RotBonds>
2

>  <HAC>
18

>  <Collection>
General

>  <PPDS>
+

$$$$
F3064-0198
  Mrv2219 10102508112D          

 22 24  0  0  0  0            999 V2000
    5.0016    1.2424    0.0000 C   0  0  0  0  0  0  0  0  0  0  0  0
    5.0016    2.0674    0.0000 C   0  0  0  0  0  0  0  0  0  0  0  0
    3.5677    2.0674    0.0000 N   0  0  0  0  0  0  0  0  0  0  0  0
    5.7848    0.9846    0.0000 N   0  0  0  0  0  0  0  0  0  0  0  0
    4.2822    0.8250    0.0000 N   0  0  0  0  0  0  0  0  0  0  0  0
    3.5677    1.2424    0.0000 C   0  0  0  0  0  0  0  0  0  0  0  0
    4.2822    2.4775    0.0000 C   0  0  0  0  0  0  0  0  0  0  0  0
    6.2685    1.6549    0.0000 C   0  0  0  0  0  0  0  0  0  0  0  0
    5.7848    2.3203    0.0000 N   0  0  0  0  0  0  0  0  0  0  0  0
    2.8531    2.4750    0.0000 C   0  0  0  0  0  0  0  0  0  0  0  0
    2.8531    0.8299    0.0000 O   0  0  0  0  0  0  0  0  0  0  0  0
    4.2822    3.3025    0.0000 O   0  0  0  0  0  0  0  0  0  0  0  0
    7.0935    1.6549    0.0000 Br  0  0  0  0  0  0  0  0  0  0  0  0
    4.2822    0.0000    0.0000 C   0  0  0  0  0  0  0  0  0  0  0  0
    2.1386    2.0674    0.0000 C   0  0  0  0  0  0  0  0  0  0  0  0
    6.0402    3.1036    0.0000 C   0  0  0  0  0  0  0  0  0  0  0  0
    0.7096    1.2424    0.0000 C   0  0  0  0  0  0  0  0  0  0  0  0
    1.4241    2.4701    0.0000 C   0  0  0  0  0  0  0  0  0  0  0  0
    2.1386    1.2424    0.0000 C   0  0  0  0  0  0  0  0  0  0  0  0
    1.4241    0.8299    0.0000 C   0  0  0  0  0  0  0  0  0  0  0  0
    0.7096    2.0674    0.0000 C   0  0  0  0  0  0  0  0  0  0  0  0
    0.0000    0.8250    0.0000 C   0  0  0  0  0  0  0  0  0  0  0  0
  2  1  2  0  0  0  0
  3  6  1  0  0  0  0
  4  1  1  0  0  0  0
  5  1  1  0  0  0  0
  6  5  1  0  0  0  0
  7  2  1  0  0  0  0
  8  4  2  0  0  0  0
  9  2  1  0  0  0  0
 10  3  1  0  0  0  0
 11  6  2  0  0  0  0
 12  7  2  0  0  0  0
 13  8  1  0  0  0  0
 14  5  1  0  0  0  0
 15 10  1  0  0  0  0
 16  9  1  0  0  0  0
 17 20  1  0  0  0  0
 18 15  2  0  0  0  0
 19 15  1  0  0  0  0
 20 19  2  0  0  0  0
 21 18  1  0  0  0  0
 22 17  1  0  0  0  0
  8  9  1  0  0  0  0
  7  3  1  0  0  0  0
 21 17  2  0  0  0  0
M  END
>  <IDNUMBER>
F3064-0198

>  <Chemical_Name>
8-bromo-3,7-dimethyl-1-[(4-methylphenyl)methyl]-2,3,6,7-tetrahydro-1H-purine-2,6-dione

>  <PriceCoeff>
1.00

>  <CAS>
887867-85-8

>  <MW>
363.21

>  <Description>
solid

>  <FSP3>
0.27

>  <clogP>
3.12

>  <TPSA>
58.44

>  <Acceptor>
3

>  <Donor>
1

>  <RotBonds>
2

>  <HAC>
22

>  <Collection>
General

>  <PPDS>
+

$$$$
F3083-0081
  Mrv2219 10102508112D          

 28 30  0  0  0  0            999 V2000
    8.3465   -2.7850    0.0000 S   0  0  0  0  0  0  0  0  0  0  0  0
    3.1691   -2.0292    0.0000 N   0  0  0  0  0  0  0  0  0  0  0  0
    2.3423   -2.0292    0.0000 N   0  0  0  0  0  0  0  0  0  0  0  0
    2.7557   -0.7558    0.0000 C   0  0  0  0  0  0  0  0  0  0  0  0
    3.4238   -1.2401    0.0000 C   0  0  0  0  0  0  0  0  0  0  0  0
    2.0835   -1.2401    0.0000 C   0  0  0  0  0  0  0  0  0  0  0  0
    7.5198   -2.7850    0.0000 N   0  0  0  0  0  0  0  0  0  0  0  0
    5.8789   -2.7808    0.0000 N   0  0  0  0  0  0  0  0  0  0  0  0
    5.0521   -2.7808    0.0000 C   0  0  0  0  0  0  0  0  0  0  0  0
    4.4634   -2.1962    0.0000 C   0  0  0  0  0  0  0  0  0  0  0  0
    9.1732   -2.7850    0.0000 C   0  0  0  0  0  0  0  0  0  0  0  0
    8.3423   -1.9583    0.0000 O   0  0  0  0  0  0  0  0  0  0  0  0
    8.3423   -3.6117    0.0000 O   0  0  0  0  0  0  0  0  0  0  0  0
    3.7495   -2.6096    0.0000 C   0  0  0  0  0  0  0  0  0  0  0  0
    7.1064   -2.0710    0.0000 C   0  0  0  0  0  0  0  0  0  0  0  0
    7.1064   -3.4947    0.0000 C   0  0  0  0  0  0  0  0  0  0  0  0
    6.2880   -2.0668    0.0000 C   0  0  0  0  0  0  0  0  0  0  0  0
    6.2880   -3.4947    0.0000 C   0  0  0  0  0  0  0  0  0  0  0  0
    4.8350   -3.5741    0.0000 O   0  0  0  0  0  0  0  0  0  0  0  0
    2.7474    0.0709    0.0000 Br  0  0  0  0  0  0  0  0  0  0  0  0
    9.5823   -2.0793    0.0000 C   0  0  0  0  0  0  0  0  0  0  0  0
    9.5740   -3.4989    0.0000 C   0  0  0  0  0  0  0  0  0  0  0  0
    4.1378   -0.8184    0.0000 C   0  0  0  0  0  0  0  0  0  0  0  0
   10.8099   -2.7933    0.0000 C   0  0  0  0  0  0  0  0  0  0  0  0
    1.2819   -1.0188    0.0000 C   0  0  0  0  0  0  0  0  0  0  0  0
   10.3965   -3.4989    0.0000 C   0  0  0  0  0  0  0  0  0  0  0  0
   10.3965   -2.0793    0.0000 C   0  0  0  0  0  0  0  0  0  0  0  0
   11.6366   -2.7933    0.0000 Cl  0  0  0  0  0  0  0  0  0  0  0  0
  2 14  1  0  0  0  0
  3  2  1  0  0  0  0
  4  5  2  0  0  0  0
  5  2  1  0  0  0  0
  6  3  2  0  0  0  0
  7  1  1  0  0  0  0
  8 18  1  0  0  0  0
  9  8  1  0  0  0  0
 10  9  1  0  0  0  0
 11  1  1  0  0  0  0
 12  1  2  0  0  0  0
 13  1  2  0  0  0  0
 14 10  1  0  0  0  0
 15  7  1  0  0  0  0
 16  7  1  0  0  0  0
 17 15  1  0  0  0  0
 18 16  1  0  0  0  0
 19  9  2  0  0  0  0
 20  4  1  0  0  0  0
 21 11  1  0  0  0  0
 22 11  2  0  0  0  0
 23  5  1  0  0  0  0
 24 26  2  0  0  0  0
 25  6  1  0  0  0  0
 26 22  1  0  0  0  0
 27 21  2  0  0  0  0
 28 24  1  0  0  0  0
 27 24  1  0  0  0  0
  8 17  1  0  0  0  0
  6  4  1  0  0  0  0
M  END
>  <IDNUMBER>
F3083-0081

>  <Chemical_Name>
3-(4-bromo-3,5-dimethyl-1H-pyrazol-1-yl)-1-[4-(4-chlorobenzenesulfonyl)piperazin-1-yl]propan-1-one

>  <PriceCoeff>
1.00

>  <CAS>
890596-29-9

>  <MW>
489.81

>  <Description>
solid

>  <FSP3>
0.44

>  <clogP>
3.85

>  <TPSA>
83.89

>  <Acceptor>
4

>  <Donor>
0

>  <RotBonds>
6

>  <HAC>
28

>  <Collection>
General

>  <PPDS>
+

$$$$
F3083-0082
  Mrv2219 10102508112D          

 28 30  0  0  0  0            999 V2000
    7.5942   -3.7176    0.0000 S   0  0  0  0  0  0  0  0  0  0  0  0
    2.4129   -2.9607    0.0000 N   0  0  0  0  0  0  0  0  0  0  0  0
    1.5849   -2.9607    0.0000 N   0  0  0  0  0  0  0  0  0  0  0  0
    1.9989   -1.6853    0.0000 C   0  0  0  0  0  0  0  0  0  0  0  0
    2.6638   -2.1703    0.0000 C   0  0  0  0  0  0  0  0  0  0  0  0
    1.3215   -2.1703    0.0000 C   0  0  0  0  0  0  0  0  0  0  0  0
    6.7662   -3.7176    0.0000 N   0  0  0  0  0  0  0  0  0  0  0  0
    5.1227   -3.7134    0.0000 N   0  0  0  0  0  0  0  0  0  0  0  0
    4.2947   -3.7134    0.0000 C   0  0  0  0  0  0  0  0  0  0  0  0
    3.7134   -3.1280    0.0000 C   0  0  0  0  0  0  0  0  0  0  0  0
    8.4222   -3.7176    0.0000 C   0  0  0  0  0  0  0  0  0  0  0  0
    7.5942   -2.8896    0.0000 O   0  0  0  0  0  0  0  0  0  0  0  0
    7.5942   -4.5456    0.0000 O   0  0  0  0  0  0  0  0  0  0  0  0
    2.9983   -3.5420    0.0000 C   0  0  0  0  0  0  0  0  0  0  0  0
    6.3605   -3.0026    0.0000 C   0  0  0  0  0  0  0  0  0  0  0  0
    6.3522   -4.4285    0.0000 C   0  0  0  0  0  0  0  0  0  0  0  0
    5.5367   -2.9983    0.0000 C   0  0  0  0  0  0  0  0  0  0  0  0
    5.5367   -4.4285    0.0000 C   0  0  0  0  0  0  0  0  0  0  0  0
    4.0815   -4.5080    0.0000 O   0  0  0  0  0  0  0  0  0  0  0  0
    1.9947   -0.8573    0.0000 Br  0  0  0  0  0  0  0  0  0  0  0  0
    8.8362   -3.0109    0.0000 C   0  0  0  0  0  0  0  0  0  0  0  0
    8.8319   -4.4327    0.0000 C   0  0  0  0  0  0  0  0  0  0  0  0
    3.3789   -1.7480    0.0000 C   0  0  0  0  0  0  0  0  0  0  0  0
    0.5186   -1.9487    0.0000 C   0  0  0  0  0  0  0  0  0  0  0  0
    9.6516   -4.4327    0.0000 C   0  0  0  0  0  0  0  0  0  0  0  0
    9.6516   -3.0109    0.0000 C   0  0  0  0  0  0  0  0  0  0  0  0
   10.0656   -3.7260    0.0000 C   0  0  0  0  0  0  0  0  0  0  0  0
   10.8936   -3.7260    0.0000 C   0  0  0  0  0  0  0  0  0  0  0  0
  2 14  1  0  0  0  0
  3  2  1  0  0  0  0
  4  5  2  0  0  0  0
  5  2  1  0  0  0  0
  6  3  2  0  0  0  0
  7  1  1  0  0  0  0
  8 18  1  0  0  0  0
  9  8  1  0  0  0  0
 10  9  1  0  0  0  0
 11  1  1  0  0  0  0
 12  1  2  0  0  0  0
 13  1  2  0  0  0  0
 14 10  1  0  0  0  0
 15  7  1  0  0  0  0
 16  7  1  0  0  0  0
 17 15  1  0  0  0  0
 18 16  1  0  0  0  0
 19  9  2  0  0  0  0
 20  4  1  0  0  0  0
 21 11  1  0  0  0  0
 22 11  2  0  0  0  0
 23  5  1  0  0  0  0
 24  6  1  0  0  0  0
 25 22  1  0  0  0  0
 26 21  2  0  0  0  0
 27 25  2  0  0  0  0
 28 27  1  0  0  0  0
  8 17  1  0  0  0  0
 26 27  1  0  0  0  0
  6  4  1  0  0  0  0
M  END
>  <IDNUMBER>
F3083-0082

>  <Chemical_Name>
3-(4-bromo-3,5-dimethyl-1H-pyrazol-1-yl)-1-[4-(4-methylbenzenesulfonyl)piperazin-1-yl]propan-1-one

>  <PriceCoeff>
1.00

>  <CAS>
890596-32-4

>  <MW>
469.40

>  <Description>
solid

>  <FSP3>
0.47

>  <clogP>
3.64

>  <TPSA>
83.89

>  <Acceptor>
4

>  <Donor>
0

>  <RotBonds>
6

>  <HAC>
28

>  <Collection>
General

>  <PPDS>
+

$$$$
F3083-0083
  Mrv2219 10102508112D          

 27 29  0  0  0  0            999 V2000
    7.5942   -3.7176    0.0000 S   0  0  0  0  0  0  0  0  0  0  0  0
    2.4129   -2.9607    0.0000 N   0  0  0  0  0  0  0  0  0  0  0  0
    1.5849   -2.9607    0.0000 N   0  0  0  0  0  0  0  0  0  0  0  0
    1.9989   -1.6853    0.0000 C   0  0  0  0  0  0  0  0  0  0  0  0
    2.6638   -2.1703    0.0000 C   0  0  0  0  0  0  0  0  0  0  0  0
    1.3215   -2.1703    0.0000 C   0  0  0  0  0  0  0  0  0  0  0  0
    6.7662   -3.7176    0.0000 N   0  0  0  0  0  0  0  0  0  0  0  0
    5.1227   -3.7134    0.0000 N   0  0  0  0  0  0  0  0  0  0  0  0
    4.2947   -3.7134    0.0000 C   0  0  0  0  0  0  0  0  0  0  0  0
    3.7134   -3.1280    0.0000 C   0  0  0  0  0  0  0  0  0  0  0  0
    7.5942   -2.8896    0.0000 O   0  0  0  0  0  0  0  0  0  0  0  0
    7.5942   -4.5456    0.0000 O   0  0  0  0  0  0  0  0  0  0  0  0
    2.9983   -3.5420    0.0000 C   0  0  0  0  0  0  0  0  0  0  0  0
    6.3605   -3.0026    0.0000 C   0  0  0  0  0  0  0  0  0  0  0  0
    6.3522   -4.4285    0.0000 C   0  0  0  0  0  0  0  0  0  0  0  0
    8.4222   -3.7176    0.0000 C   0  0  0  0  0  0  0  0  0  0  0  0
    5.5367   -2.9983    0.0000 C   0  0  0  0  0  0  0  0  0  0  0  0
    5.5367   -4.4285    0.0000 C   0  0  0  0  0  0  0  0  0  0  0  0
    4.0815   -4.5080    0.0000 O   0  0  0  0  0  0  0  0  0  0  0  0
    1.9947   -0.8573    0.0000 Br  0  0  0  0  0  0  0  0  0  0  0  0
    3.3789   -1.7480    0.0000 C   0  0  0  0  0  0  0  0  0  0  0  0
    0.5186   -1.9487    0.0000 C   0  0  0  0  0  0  0  0  0  0  0  0
    8.8362   -3.0109    0.0000 C   0  0  0  0  0  0  0  0  0  0  0  0
    8.8319   -4.4327    0.0000 C   0  0  0  0  0  0  0  0  0  0  0  0
    9.6516   -4.4327    0.0000 C   0  0  0  0  0  0  0  0  0  0  0  0
    9.6516   -3.0109    0.0000 C   0  0  0  0  0  0  0  0  0  0  0  0
   10.0656   -3.7260    0.0000 C   0  0  0  0  0  0  0  0  0  0  0  0
  2 13  1  0  0  0  0
  3  2  1  0  0  0  0
  4  5  2  0  0  0  0
  5  2  1  0  0  0  0
  6  3  2  0  0  0  0
  7  1  1  0  0  0  0
  8 18  1  0  0  0  0
  9  8  1  0  0  0  0
 10  9  1  0  0  0  0
 11  1  2  0  0  0  0
 12  1  2  0  0  0  0
 13 10  1  0  0  0  0
 14  7  1  0  0  0  0
 15  7  1  0  0  0  0
 16  1  1  0  0  0  0
 17 14  1  0  0  0  0
 18 15  1  0  0  0  0
 19  9  2  0  0  0  0
 20  4  1  0  0  0  0
 21  5  1  0  0  0  0
 22  6  1  0  0  0  0
 23 16  1  0  0  0  0
 24 16  2  0  0  0  0
 25 24  1  0  0  0  0
 26 23  2  0  0  0  0
 27 25  2  0  0  0  0
  8 17  1  0  0  0  0
 27 26  1  0  0  0  0
  6  4  1  0  0  0  0
M  END
>  <IDNUMBER>
F3083-0083

>  <Chemical_Name>
1-[4-(benzenesulfonyl)piperazin-1-yl]-3-(4-bromo-3,5-dimethyl-1H-pyrazol-1-yl)propan-1-one

>  <PriceCoeff>
1.00

>  <CAS>
890596-35-7

>  <MW>
455.37

>  <Description>
solid

>  <FSP3>
0.44

>  <clogP>
3.14

>  <TPSA>
83.89

>  <Acceptor>
4

>  <Donor>
0

>  <RotBonds>
6

>  <HAC>
27

>  <Collection>
General

>  <PPDS>
+

$$$$
F3083-0086
  Mrv2219 10102508112D          

 28 30  0  0  0  0            999 V2000
    2.4129   -2.9607    0.0000 N   0  0  0  0  0  0  0  0  0  0  0  0
    7.5942   -3.7176    0.0000 S   0  0  0  0  0  0  0  0  0  0  0  0
    1.5849   -2.9607    0.0000 N   0  0  0  0  0  0  0  0  0  0  0  0
    2.6638   -2.1703    0.0000 C   0  0  0  0  0  0  0  0  0  0  0  0
    1.9989   -1.6853    0.0000 C   0  0  0  0  0  0  0  0  0  0  0  0
    1.3215   -2.1703    0.0000 C   0  0  0  0  0  0  0  0  0  0  0  0
    6.7662   -3.7176    0.0000 N   0  0  0  0  0  0  0  0  0  0  0  0
    4.2947   -3.7134    0.0000 C   0  0  0  0  0  0  0  0  0  0  0  0
    3.7134   -3.1280    0.0000 C   0  0  0  0  0  0  0  0  0  0  0  0
    5.1227   -3.7134    0.0000 N   0  0  0  0  0  0  0  0  0  0  0  0
    2.9983   -3.5420    0.0000 C   0  0  0  0  0  0  0  0  0  0  0  0
    7.5942   -2.8896    0.0000 O   0  0  0  0  0  0  0  0  0  0  0  0
    7.5942   -4.5456    0.0000 O   0  0  0  0  0  0  0  0  0  0  0  0
    6.3605   -3.0026    0.0000 C   0  0  0  0  0  0  0  0  0  0  0  0
    6.3522   -4.4285    0.0000 C   0  0  0  0  0  0  0  0  0  0  0  0
    8.4222   -3.7176    0.0000 C   0  0  0  0  0  0  0  0  0  0  0  0
    5.5367   -2.9983    0.0000 C   0  0  0  0  0  0  0  0  0  0  0  0
    5.5367   -4.4285    0.0000 C   0  0  0  0  0  0  0  0  0  0  0  0
    4.0815   -4.5080    0.0000 O   0  0  0  0  0  0  0  0  0  0  0  0
    1.9947   -0.8573    0.0000 Br  0  0  0  0  0  0  0  0  0  0  0  0
    3.3789   -1.7480    0.0000 C   0  0  0  0  0  0  0  0  0  0  0  0
    0.5186   -1.9487    0.0000 C   0  0  0  0  0  0  0  0  0  0  0  0
    2.7767   -4.3449    0.0000 C   0  0  0  0  0  0  0  0  0  0  0  0
    8.8319   -4.4327    0.0000 C   0  0  0  0  0  0  0  0  0  0  0  0
    8.8362   -3.0109    0.0000 C   0  0  0  0  0  0  0  0  0  0  0  0
    9.6516   -3.0109    0.0000 C   0  0  0  0  0  0  0  0  0  0  0  0
    9.6516   -4.4327    0.0000 C   0  0  0  0  0  0  0  0  0  0  0  0
   10.0656   -3.7260    0.0000 C   0  0  0  0  0  0  0  0  0  0  0  0
  2  7  1  0  0  0  0
  3  1  1  0  0  0  0
  4  1  1  0  0  0  0
  5  4  2  0  0  0  0
  6  3  2  0  0  0  0
  7 15  1  0  0  0  0
  8  9  1  0  0  0  0
  9 11  1  0  0  0  0
 10  8  1  0  0  0  0
 11  1  1  0  0  0  0
 12  2  2  0  0  0  0
 13  2  2  0  0  0  0
 14 17  1  0  0  0  0
 15 18  1  0  0  0  0
 16  2  1  0  0  0  0
 17 10  1  0  0  0  0
 18 10  1  0  0  0  0
 19  8  2  0  0  0  0
 20  5  1  0  0  0  0
 21  4  1  0  0  0  0
 22  6  1  0  0  0  0
 23 11  1  0  0  0  0
 24 16  2  0  0  0  0
 25 16  1  0  0  0  0
 26 25  2  0  0  0  0
 27 24  1  0  0  0  0
 28 26  1  0  0  0  0
  6  5  1  0  0  0  0
 14  7  1  0  0  0  0
 28 27  2  0  0  0  0
M  END
>  <IDNUMBER>
F3083-0086

>  <Chemical_Name>
1-[4-(benzenesulfonyl)piperazin-1-yl]-3-(4-bromo-3,5-dimethyl-1H-pyrazol-1-yl)butan-1-one

>  <PriceCoeff>
1.00

>  <CAS>
890596-44-8

>  <MW>
469.40

>  <Description>
solid

>  <FSP3>
0.47

>  <clogP>
3.45

>  <TPSA>
83.89

>  <Acceptor>
4

>  <Donor>
0

>  <RotBonds>
6

>  <HAC>
28

>  <Collection>
General

>  <PPDS>
+

$$$$
F3083-0091
  Mrv2219 10102508112D          

 29 31  0  0  0  0            999 V2000
    2.4590   -2.9558    0.0000 N   0  0  0  0  0  0  0  0  0  0  0  0
    7.6399   -3.7114    0.0000 S   0  0  0  0  0  0  0  0  0  0  0  0
    1.6324   -2.9558    0.0000 N   0  0  0  0  0  0  0  0  0  0  0  0
    2.7178   -2.1667    0.0000 C   0  0  0  0  0  0  0  0  0  0  0  0
    2.0456   -1.6825    0.0000 C   0  0  0  0  0  0  0  0  0  0  0  0
    1.3777   -2.1667    0.0000 C   0  0  0  0  0  0  0  0  0  0  0  0
    6.8132   -3.7114    0.0000 N   0  0  0  0  0  0  0  0  0  0  0  0
    4.3460   -3.7072    0.0000 C   0  0  0  0  0  0  0  0  0  0  0  0
    3.7615   -3.1228    0.0000 C   0  0  0  0  0  0  0  0  0  0  0  0
    5.1725   -3.7072    0.0000 N   0  0  0  0  0  0  0  0  0  0  0  0
    3.0476   -3.5360    0.0000 C   0  0  0  0  0  0  0  0  0  0  0  0
    8.4664   -3.7114    0.0000 C   0  0  0  0  0  0  0  0  0  0  0  0
    7.6315   -2.8848    0.0000 O   0  0  0  0  0  0  0  0  0  0  0  0
    7.6315   -4.5380    0.0000 O   0  0  0  0  0  0  0  0  0  0  0  0
    6.4041   -2.9975    0.0000 C   0  0  0  0  0  0  0  0  0  0  0  0
    6.3999   -4.4211    0.0000 C   0  0  0  0  0  0  0  0  0  0  0  0
    5.5775   -2.9933    0.0000 C   0  0  0  0  0  0  0  0  0  0  0  0
    5.5775   -4.4211    0.0000 C   0  0  0  0  0  0  0  0  0  0  0  0
    4.1248   -4.5005    0.0000 O   0  0  0  0  0  0  0  0  0  0  0  0
    2.0456   -0.8559    0.0000 Br  0  0  0  0  0  0  0  0  0  0  0  0
    8.8715   -3.0059    0.0000 C   0  0  0  0  0  0  0  0  0  0  0  0
    8.8715   -4.4253    0.0000 C   0  0  0  0  0  0  0  0  0  0  0  0
    3.4317   -1.7451    0.0000 C   0  0  0  0  0  0  0  0  0  0  0  0
    0.5761   -1.9455    0.0000 C   0  0  0  0  0  0  0  0  0  0  0  0
    9.6855   -4.4253    0.0000 C   0  0  0  0  0  0  0  0  0  0  0  0
    9.6855   -3.0059    0.0000 C   0  0  0  0  0  0  0  0  0  0  0  0
   10.0988   -3.7197    0.0000 C   0  0  0  0  0  0  0  0  0  0  0  0
    2.8305   -4.3377    0.0000 C   0  0  0  0  0  0  0  0  0  0  0  0
   10.9254   -3.7197    0.0000 C   0  0  0  0  0  0  0  0  0  0  0  0
  2  7  1  0  0  0  0
  3  1  1  0  0  0  0
  4  1  1  0  0  0  0
  5  4  2  0  0  0  0
  6  3  2  0  0  0  0
  7 16  1  0  0  0  0
  8  9  1  0  0  0  0
  9 11  1  0  0  0  0
 10  8  1  0  0  0  0
 11  1  1  0  0  0  0
 12  2  1  0  0  0  0
 13  2  2  0  0  0  0
 14  2  2  0  0  0  0
 15 17  1  0  0  0  0
 16 18  1  0  0  0  0
 17 10  1  0  0  0  0
 18 10  1  0  0  0  0
 19  8  2  0  0  0  0
 20  5  1  0  0  0  0
 21 12  1  0  0  0  0
 22 12  2  0  0  0  0
 23  4  1  0  0  0  0
 24  6  1  0  0  0  0
 25 22  1  0  0  0  0
 26 21  2  0  0  0  0
 27 25  2  0  0  0  0
 28 11  1  0  0  0  0
 29 27  1  0  0  0  0
  6  5  1  0  0  0  0
 15  7  1  0  0  0  0
 26 27  1  0  0  0  0
M  END
>  <IDNUMBER>
F3083-0091

>  <Chemical_Name>
3-(4-bromo-3,5-dimethyl-1H-pyrazol-1-yl)-1-[4-(4-methylbenzenesulfonyl)piperazin-1-yl]butan-1-one

>  <PriceCoeff>
1.00

>  <CAS>
890596-56-2

>  <MW>
483.42

>  <Description>
solid

>  <FSP3>
0.50

>  <clogP>
3.95

>  <TPSA>
83.89

>  <Acceptor>
4

>  <Donor>
0

>  <RotBonds>
6

>  <HAC>
29

>  <Collection>
General

>  <PPDS>
+

$$$$
F3083-0093
  Mrv2219 10102508112D          

 22 23  0  0  0  0            999 V2000
    2.6917   -2.7792    0.0000 N   0  0  0  0  0  0  0  0  0  0  0  0
    1.8667   -2.7792    0.0000 N   0  0  0  0  0  0  0  0  0  0  0  0
    2.9417   -1.9917    0.0000 C   0  0  0  0  0  0  0  0  0  0  0  0
    2.2792   -1.5042    0.0000 C   0  0  0  0  0  0  0  0  0  0  0  0
    1.6042   -1.9917    0.0000 C   0  0  0  0  0  0  0  0  0  0  0  0
    3.2750   -3.3625    0.0000 C   0  0  0  0  0  0  0  0  0  0  0  0
    3.9875   -2.9417    0.0000 C   0  0  0  0  0  0  0  0  0  0  0  0
    4.5667   -3.5292    0.0000 C   0  0  0  0  0  0  0  0  0  0  0  0
    5.3917   -3.5292    0.0000 N   0  0  0  0  0  0  0  0  0  0  0  0
    2.2750   -0.6792    0.0000 Br  0  0  0  0  0  0  0  0  0  0  0  0
    4.3542   -4.3167    0.0000 O   0  0  0  0  0  0  0  0  0  0  0  0
    5.8042   -2.8167    0.0000 C   0  0  0  0  0  0  0  0  0  0  0  0
    3.6542   -1.5750    0.0000 C   0  0  0  0  0  0  0  0  0  0  0  0
    6.6292   -1.3917    0.0000 C   0  0  0  0  0  0  0  0  0  0  0  0
    0.8042   -1.7750    0.0000 C   0  0  0  0  0  0  0  0  0  0  0  0
    5.3917   -2.1042    0.0000 C   0  0  0  0  0  0  0  0  0  0  0  0
    6.6292   -2.8167    0.0000 C   0  0  0  0  0  0  0  0  0  0  0  0
    7.0417   -2.1042    0.0000 C   0  0  0  0  0  0  0  0  0  0  0  0
    5.8042   -1.3917    0.0000 C   0  0  0  0  0  0  0  0  0  0  0  0
    7.0375   -0.6750    0.0000 O   0  0  0  0  0  0  0  0  0  0  0  0
    3.0542   -4.1542    0.0000 C   0  0  0  0  0  0  0  0  0  0  0  0
    7.8625   -0.6750    0.0000 C   0  0  0  0  0  0  0  0  0  0  0  0
  2  1  1  0  0  0  0
  3  1  1  0  0  0  0
  4  3  2  0  0  0  0
  5  2  2  0  0  0  0
  6  1  1  0  0  0  0
  7  6  1  0  0  0  0
  8  7  1  0  0  0  0
  9  8  1  0  0  0  0
 10  4  1  0  0  0  0
 11  8  2  0  0  0  0
 12  9  1  0  0  0  0
 13  3  1  0  0  0  0
 14 18  2  0  0  0  0
 15  5  1  0  0  0  0
 16 12  1  0  0  0  0
 17 12  2  0  0  0  0
 18 17  1  0  0  0  0
 19 16  2  0  0  0  0
 20 14  1  0  0  0  0
 21  6  1  0  0  0  0
 22 20  1  0  0  0  0
  5  4  1  0  0  0  0
 19 14  1  0  0  0  0
M  END
>  <IDNUMBER>
F3083-0093

>  <Chemical_Name>
3-(4-bromo-3,5-dimethyl-1H-pyrazol-1-yl)-N-(4-methoxyphenyl)butanamide

>  <PriceCoeff>
1.00

>  <MW>
366.26

>  <Description>
solid

>  <FSP3>
0.38

>  <clogP>
3.34

>  <TPSA>
46.05

>  <Acceptor>
3

>  <Donor>
1

>  <RotBonds>
5

>  <HAC>
22

>  <Collection>
General

$$$$
F3083-0108
  Mrv2219 10102508112D          

 22 24  0  0  0  0            999 V2000
    0.6745  -14.0325    0.0000 N   0  0  0  0  0  0  0  0  0  0  0  0
   -0.0625  -14.3905    0.0000 N   0  0  0  0  0  0  0  0  0  0  0  0
    0.5664  -13.2162    0.0000 C   0  0  0  0  0  0  0  0  0  0  0  0
   -0.2457  -13.0705    0.0000 C   0  0  0  0  0  0  0  0  0  0  0  0
   -0.6328  -13.7951    0.0000 C   0  0  0  0  0  0  0  0  0  0  0  0
    1.4033  -14.4279    0.0000 C   0  0  0  0  0  0  0  0  0  0  0  0
    4.2972  -16.8763    0.0000 C   0  0  0  0  0  0  0  0  0  0  0  0
    5.0134  -16.4642    0.0000 C   0  0  0  0  0  0  0  0  0  0  0  0
    3.5893  -16.4642    0.0000 C   0  0  0  0  0  0  0  0  0  0  0  0
   -0.6079  -12.3211    0.0000 Br  0  0  0  0  0  0  0  0  0  0  0  0
    2.1028  -13.9950    0.0000 C   0  0  0  0  0  0  0  0  0  0  0  0
    5.0134  -15.6438    0.0000 C   0  0  0  0  0  0  0  0  0  0  0  0
    3.5893  -15.6438    0.0000 C   0  0  0  0  0  0  0  0  0  0  0  0
    2.8648  -15.2275    0.0000 O   0  0  0  0  0  0  0  0  0  0  0  0
    1.1659  -12.6459    0.0000 C   0  0  0  0  0  0  0  0  0  0  0  0
    2.8399  -14.3905    0.0000 C   0  0  0  0  0  0  0  0  0  0  0  0
    4.2972  -15.2275    0.0000 C   0  0  0  0  0  0  0  0  0  0  0  0
   -1.4491  -13.9075    0.0000 C   0  0  0  0  0  0  0  0  0  0  0  0
    2.0778  -13.1663    0.0000 O   0  0  0  0  0  0  0  0  0  0  0  0
    4.4595  -17.6801    0.0000 C   0  0  0  0  0  0  0  0  0  0  0  0
    5.2840  -17.7758    0.0000 C   0  0  0  0  0  0  0  0  0  0  0  0
    5.6254  -17.0179    0.0000 C   0  0  0  0  0  0  0  0  0  0  0  0
  2  1  1  0  0  0  0
  3  1  1  0  0  0  0
  4  3  2  0  0  0  0
  5  2  2  0  0  0  0
  6  1  1  0  0  0  0
  7  9  1  0  0  0  0
  8 12  1  0  0  0  0
  9 13  2  0  0  0  0
 10  4  1  0  0  0  0
 11  6  1  0  0  0  0
 12 17  2  0  0  0  0
 13 14  1  0  0  0  0
 14 16  1  0  0  0  0
 15  3  1  0  0  0  0
 16 11  1  0  0  0  0
 17 13  1  0  0  0  0
 18  5  1  0  0  0  0
 19 11  1  0  0  0  0
 20  7  1  0  0  0  0
 21 20  1  0  0  0  0
 22  8  1  0  0  0  0
  5  4  1  0  0  0  0
  7  8  2  0  0  0  0
 22 21  1  0  0  0  0
M  END
>  <IDNUMBER>
F3083-0108

>  <Chemical_Name>
1-(4-bromo-3,5-dimethyl-1H-pyrazol-1-yl)-3-(2,3-dihydro-1H-inden-5-yloxy)propan-2-ol

>  <PriceCoeff>
1.00

>  <MW>
365.26

>  <Description>
solid

>  <FSP3>
0.47

>  <clogP>
3.80

>  <TPSA>
47.28

>  <Acceptor>
3

>  <Donor>
1

>  <RotBonds>
5

>  <HAC>
22

>  <Collection>
General

$$$$
F3083-0114
  Mrv2219 10102508112D          

 23 24  0  0  0  0            999 V2000
    2.1155  -17.1194    0.0000 N   0  0  0  0  0  0  0  0  0  0  0  0
    1.3742  -17.4817    0.0000 N   0  0  0  0  0  0  0  0  0  0  0  0
    2.0031  -16.3073    0.0000 C   0  0  0  0  0  0  0  0  0  0  0  0
    1.1910  -16.1574    0.0000 C   0  0  0  0  0  0  0  0  0  0  0  0
    0.7995  -16.8820    0.0000 C   0  0  0  0  0  0  0  0  0  0  0  0
    2.8484  -17.5191    0.0000 C   0  0  0  0  0  0  0  0  0  0  0  0
    7.1626  -20.7881    0.0000 C   0  0  0  0  0  0  0  0  0  0  0  0
    7.1709  -19.9635    0.0000 N   0  0  0  0  0  0  0  0  0  0  0  0
    0.8370  -15.4079    0.0000 Br  0  0  0  0  0  0  0  0  0  0  0  0
    6.4505  -21.1920    0.0000 O   0  0  0  0  0  0  0  0  0  0  0  0
    3.5480  -17.0819    0.0000 C   0  0  0  0  0  0  0  0  0  0  0  0
    6.4588  -19.5513    0.0000 C   0  0  0  0  0  0  0  0  0  0  0  0
    4.3100  -18.3187    0.0000 O   0  0  0  0  0  0  0  0  0  0  0  0
    5.0346  -18.7310    0.0000 C   0  0  0  0  0  0  0  0  0  0  0  0
    2.6027  -15.7327    0.0000 C   0  0  0  0  0  0  0  0  0  0  0  0
    4.2850  -17.4692    0.0000 C   0  0  0  0  0  0  0  0  0  0  0  0
   -0.0208  -16.9903    0.0000 C   0  0  0  0  0  0  0  0  0  0  0  0
    6.4588  -18.7310    0.0000 C   0  0  0  0  0  0  0  0  0  0  0  0
    5.7384  -19.9635    0.0000 C   0  0  0  0  0  0  0  0  0  0  0  0
    5.0346  -19.5513    0.0000 C   0  0  0  0  0  0  0  0  0  0  0  0
    5.7384  -18.3187    0.0000 C   0  0  0  0  0  0  0  0  0  0  0  0
    3.5230  -16.2574    0.0000 O   0  0  0  0  0  0  0  0  0  0  0  0
    7.8747  -21.2003    0.0000 C   0  0  0  0  0  0  0  0  0  0  0  0
  2  1  1  0  0  0  0
  3  1  1  0  0  0  0
  4  3  2  0  0  0  0
  5  2  2  0  0  0  0
  6  1  1  0  0  0  0
  7  8  1  0  0  0  0
  8 12  1  0  0  0  0
  9  4  1  0  0  0  0
 10  7  2  0  0  0  0
 11  6  1  0  0  0  0
 12 18  1  0  0  0  0
 13 16  1  0  0  0  0
 14 13  1  0  0  0  0
 15  3  1  0  0  0  0
 16 11  1  0  0  0  0
 17  5  1  0  0  0  0
 18 21  2  0  0  0  0
 19 20  1  0  0  0  0
 20 14  2  0  0  0  0
 21 14  1  0  0  0  0
 22 11  1  0  0  0  0
 23  7  1  0  0  0  0
  5  4  1  0  0  0  0
 12 19  2  0  0  0  0
M  END
>  <IDNUMBER>
F3083-0114

>  <Chemical_Name>
N-{4-[3-(4-bromo-3,5-dimethyl-1H-pyrazol-1-yl)-2-hydroxypropoxy]phenyl}acetamide

>  <PriceCoeff>
1.00

>  <CAS>
890605-06-8

>  <MW>
382.25

>  <Description>
solid

>  <FSP3>
0.38

>  <clogP>
1.97

>  <TPSA>
76.38

>  <Acceptor>
4

>  <Donor>
2

>  <RotBonds>
6

>  <HAC>
23

>  <Collection>
General

>  <PPDS>
+

$$$$
F3088-3663
  Mrv2219 10102508112D          

 26 28  0  0  0  0            999 V2000
   -0.2458   -2.3292    0.0000 N   0  3  0  0  0  0  0  0  0  0  0  0
    1.1792   -3.1542    0.0000 C   0  0  0  0  0  0  0  0  0  0  0  0
   -0.2458   -3.1542    0.0000 C   0  0  0  0  0  0  0  0  0  0  0  0
    0.4750   -3.5667    0.0000 C   0  0  0  0  0  0  0  0  0  0  0  0
    1.9375   -3.4875    0.0000 O   0  0  0  0  0  0  0  0  0  0  0  0
    2.4875   -2.8750    0.0000 C   0  0  0  0  0  0  0  0  0  0  0  0
    3.3042   -2.9542    0.0000 C   0  0  0  0  0  0  0  0  0  0  0  0
    1.2667   -2.3292    0.0000 C   0  0  0  0  0  0  0  0  0  0  0  0
    2.0667   -2.1542    0.0000 C   0  0  0  0  0  0  0  0  0  0  0  0
    3.6500   -3.7042    0.0000 N   0  0  0  0  0  0  0  0  0  0  0  0
   -0.9583   -3.5750    0.0000 C   0  0  0  0  0  0  0  0  0  0  0  0
    0.4750   -4.4000    0.0000 C   0  0  0  0  0  0  0  0  0  0  0  0
    0.4667   -1.9167    0.0000 O   0  5  0  0  0  0  0  0  0  0  0  0
   -0.9625   -1.9167    0.0000 O   0  0  0  0  0  0  0  0  0  0  0  0
    4.4750   -3.7917    0.0000 C   0  0  0  0  0  0  0  0  0  0  0  0
    3.7917   -2.2875    0.0000 O   0  0  0  0  0  0  0  0  0  0  0  0
    4.9417   -3.1250    0.0000 C   0  0  0  0  0  0  0  0  0  0  0  0
   -0.9583   -4.4000    0.0000 C   0  0  0  0  0  0  0  0  0  0  0  0
   -0.2458   -4.8125    0.0000 C   0  0  0  0  0  0  0  0  0  0  0  0
    5.7625   -3.2000    0.0000 C   0  0  0  0  0  0  0  0  0  0  0  0
   -1.6708   -4.8042    0.0000 Cl  0  0  0  0  0  0  0  0  0  0  0  0
    6.2417   -2.5167    0.0000 O   0  0  0  0  0  0  0  0  0  0  0  0
    5.6292   -4.6250    0.0000 C   0  0  0  0  0  0  0  0  0  0  0  0
    4.8042   -4.5417    0.0000 C   0  0  0  0  0  0  0  0  0  0  0  0
    6.1125   -3.9417    0.0000 C   0  0  0  0  0  0  0  0  0  0  0  0
    5.9000   -1.7750    0.0000 C   0  0  0  0  0  0  0  0  0  0  0  0
  2  4  1  0  0  0  0
  3  1  1  0  0  0  0
  4  3  2  0  0  0  0
  5  2  1  0  0  0  0
  6  5  1  0  0  0  0
  7  6  1  0  0  0  0
  8  2  2  0  0  0  0
  9  8  1  0  0  0  0
 10  7  1  0  0  0  0
 11  3  1  0  0  0  0
 12  4  1  0  0  0  0
 13  1  1  0  0  0  0
 14  1  2  0  0  0  0
 15 10  1  0  0  0  0
 16  7  2  0  0  0  0
 17 15  1  0  0  0  0
 18 11  2  0  0  0  0
 19 18  1  0  0  0  0
 20 17  2  0  0  0  0
 21 18  1  0  0  0  0
 22 20  1  0  0  0  0
 23 24  1  0  0  0  0
 24 15  2  0  0  0  0
 25 23  2  0  0  0  0
 26 22  1  0  0  0  0
 19 12  2  0  0  0  0
  6  9  2  0  0  0  0
 20 25  1  0  0  0  0
M  CHG  2   1   1  13  -1
M  END
>  <IDNUMBER>
F3088-3663

>  <Chemical_Name>
5-(4-chloro-2-nitrophenyl)-N-(3-methoxyphenyl)furan-2-carboxamide

>  <PriceCoeff>
1.00

>  <CAS>
874465-37-9

>  <MW>
372.76

>  <Description>
solid

>  <FSP3>
0.06

>  <clogP>
4.49

>  <TPSA>
94.61

>  <Acceptor>
5

>  <Donor>
1

>  <RotBonds>
5

>  <HAC>
26

>  <Collection>
General

>  <PPDS>
+

$$$$
F3095-0745
  Mrv2219 10102508112D          

 19 21  0  0  0  0            999 V2000
    0.8108   -0.4306    0.0000 N   0  0  0  0  0  0  0  0  0  0  0  0
   -0.3527   -0.4169    0.0000 C   0  0  0  0  0  0  0  0  0  0  0  0
    1.2139    0.2977    0.0000 C   0  0  0  0  0  0  0  0  0  0  0  0
   -1.1818   -0.4169    0.0000 C   0  0  0  0  0  0  0  0  0  0  0  0
   -0.3527    0.4077    0.0000 O   0  0  0  0  0  0  0  0  0  0  0  0
    2.0385    0.2977    0.0000 C   0  0  0  0  0  0  0  0  0  0  0  0
   -1.5895    0.2977    0.0000 C   0  0  0  0  0  0  0  0  0  0  0  0
   -1.5895   -1.1315    0.0000 C   0  0  0  0  0  0  0  0  0  0  0  0
    1.2277   -1.1315    0.0000 C   0  0  0  0  0  0  0  0  0  0  0  0
   -2.8309   -0.4169    0.0000 C   0  0  0  0  0  0  0  0  0  0  0  0
   -2.4187   -1.1315    0.0000 C   0  0  0  0  0  0  0  0  0  0  0  0
   -2.4140    0.2977    0.0000 C   0  0  0  0  0  0  0  0  0  0  0  0
   -3.6509   -0.4169    0.0000 Br  0  0  0  0  0  0  0  0  0  0  0  0
    0.7971    1.0123    0.0000 C   0  0  0  0  0  0  0  0  0  0  0  0
    2.0476   -1.1315    0.0000 C   0  0  0  0  0  0  0  0  0  0  0  0
    2.4599   -0.4169    0.0000 C   0  0  0  0  0  0  0  0  0  0  0  0
    2.4599    1.0123    0.0000 C   0  0  0  0  0  0  0  0  0  0  0  0
    1.2139    1.7269    0.0000 C   0  0  0  0  0  0  0  0  0  0  0  0
    2.0385    1.7269    0.0000 C   0  0  0  0  0  0  0  0  0  0  0  0
  2  1  1  0  0  0  0
  3  1  1  0  0  0  0
  4  2  1  0  0  0  0
  5  2  2  0  0  0  0
  6  3  2  0  0  0  0
  7  4  1  0  0  0  0
  8  4  2  0  0  0  0
  9  1  1  0  0  0  0
 10 11  2  0  0  0  0
 11  8  1  0  0  0  0
 12  7  2  0  0  0  0
 13 10  1  0  0  0  0
 14  3  1  0  0  0  0
 15  9  1  0  0  0  0
 16 15  1  0  0  0  0
 17  6  1  0  0  0  0
 18 14  2  0  0  0  0
 19 18  1  0  0  0  0
  6 16  1  0  0  0  0
 17 19  2  0  0  0  0
 12 10  1  0  0  0  0
M  END
>  <IDNUMBER>
F3095-0745

>  <Chemical_Name>
1-(4-bromobenzoyl)-1,2,3,4-tetrahydroquinoline

>  <PriceCoeff>
1.00

>  <CAS>
301228-31-9

>  <MW>
316.19

>  <Description>
solid

>  <FSP3>
0.19

>  <clogP>
3.98

>  <TPSA>
20.31

>  <Acceptor>
1

>  <Donor>
0

>  <RotBonds>
2

>  <HAC>
19

>  <Collection>
General

>  <PPDS>
+

$$$$
F3095-1899
  Mrv2219 10102508112D          

 23 25  0  0  0  0            999 V2000
    6.8642   -1.8455    0.0000 N   0  0  0  0  0  0  0  0  0  0  0  0
    6.1419   -1.4405    0.0000 C   0  0  0  0  0  0  0  0  0  0  0  0
    2.5720   -2.6931    0.0000 C   0  0  0  0  0  0  0  0  0  0  0  0
    6.8642   -2.6805    0.0000 C   0  0  0  0  0  0  0  0  0  0  0  0
    7.5699   -1.4322    0.0000 C   0  0  0  0  0  0  0  0  0  0  0  0
    5.4279   -1.8580    0.0000 C   0  0  0  0  0  0  0  0  0  0  0  0
    6.1419   -0.6138    0.0000 O   0  0  0  0  0  0  0  0  0  0  0  0
    1.8580   -3.1106    0.0000 C   0  0  0  0  0  0  0  0  0  0  0  0
    3.2860   -3.1064    0.0000 C   0  0  0  0  0  0  0  0  0  0  0  0
    2.5678   -1.8706    0.0000 C   0  0  0  0  0  0  0  0  0  0  0  0
    4.7139   -1.4447    0.0000 O   0  0  0  0  0  0  0  0  0  0  0  0
    4.0000   -1.8580    0.0000 C   0  0  0  0  0  0  0  0  0  0  0  0
    4.0000   -2.6931    0.0000 C   0  0  0  0  0  0  0  0  0  0  0  0
    3.2735   -1.4530    0.0000 C   0  0  0  0  0  0  0  0  0  0  0  0
    8.2922   -1.8455    0.0000 C   0  0  0  0  0  0  0  0  0  0  0  0
    7.5782   -3.0856    0.0000 C   0  0  0  0  0  0  0  0  0  0  0  0
    8.2922   -2.6722    0.0000 C   0  0  0  0  0  0  0  0  0  0  0  0
    1.8580   -3.9373    0.0000 C   0  0  0  0  0  0  0  0  0  0  0  0
    1.1441   -2.6973    0.0000 C   0  0  0  0  0  0  0  0  0  0  0  0
    9.0103   -3.0856    0.0000 C   0  0  0  0  0  0  0  0  0  0  0  0
    0.4301   -3.1106    0.0000 C   0  0  0  0  0  0  0  0  0  0  0  0
    1.1441   -4.3507    0.0000 C   0  0  0  0  0  0  0  0  0  0  0  0
    0.4301   -3.9373    0.0000 C   0  0  0  0  0  0  0  0  0  0  0  0
  2  1  1  0  0  0  0
  3 10  1  0  0  0  0
  4  1  1  0  0  0  0
  5  1  1  0  0  0  0
  6  2  1  0  0  0  0
  7  2  2  0  0  0  0
  8  3  1  0  0  0  0
  9 13  1  0  0  0  0
 10 14  2  0  0  0  0
 11  6  1  0  0  0  0
 12 11  1  0  0  0  0
 13 12  2  0  0  0  0
 14 12  1  0  0  0  0
 15  5  1  0  0  0  0
 16  4  1  0  0  0  0
 17 15  1  0  0  0  0
 18  8  1  0  0  0  0
 19  8  2  0  0  0  0
 20 17  1  0  0  0  0
 21 19  1  0  0  0  0
 22 18  2  0  0  0  0
 23 21  2  0  0  0  0
 16 17  1  0  0  0  0
  3  9  2  0  0  0  0
 23 22  1  0  0  0  0
M  END
>  <IDNUMBER>
F3095-1899

>  <Chemical_Name>
2-{[1,1'-biphenyl]-4-yloxy}-1-(4-methylpiperidin-1-yl)ethan-1-one

>  <PriceCoeff>
1.00

>  <CAS>
302550-63-6

>  <MW>
309.40

>  <Description>
solid

>  <FSP3>
0.35

>  <clogP>
4.57

>  <TPSA>
29.54

>  <Acceptor>
2

>  <Donor>
0

>  <RotBonds>
5

>  <HAC>
23

>  <Collection>
General

>  <PPDS>
+

$$$$
F3095-1901
  Mrv2219 10102508112D          

 23 25  0  0  0  0            999 V2000
    3.4238    0.1253    0.0000 C   0  0  0  0  0  0  0  0  0  0  0  0
    4.1461   -0.2798    0.0000 N   0  0  0  0  0  0  0  0  0  0  0  0
   -0.1461   -1.1273    0.0000 C   0  0  0  0  0  0  0  0  0  0  0  0
    3.4238    0.9520    0.0000 O   0  0  0  0  0  0  0  0  0  0  0  0
    5.6534    0.5511    0.0000 O   0  0  0  0  0  0  0  0  0  0  0  0
   -0.8601   -1.5449    0.0000 C   0  0  0  0  0  0  0  0  0  0  0  0
    0.5679   -1.5407    0.0000 C   0  0  0  0  0  0  0  0  0  0  0  0
   -0.1503   -0.3048    0.0000 C   0  0  0  0  0  0  0  0  0  0  0  0
    1.9958    0.1211    0.0000 O   0  0  0  0  0  0  0  0  0  0  0  0
    2.7098   -0.2923    0.0000 C   0  0  0  0  0  0  0  0  0  0  0  0
    1.2819   -0.2923    0.0000 C   0  0  0  0  0  0  0  0  0  0  0  0
    4.8643   -0.6889    0.0000 C   0  0  0  0  0  0  0  0  0  0  0  0
    1.2819   -1.1273    0.0000 C   0  0  0  0  0  0  0  0  0  0  0  0
    0.5553    0.1127    0.0000 C   0  0  0  0  0  0  0  0  0  0  0  0
    5.5782   -0.2673    0.0000 C   0  0  0  0  0  0  0  0  0  0  0  0
    6.4634    0.7223    0.0000 C   0  0  0  0  0  0  0  0  0  0  0  0
   -1.5741   -1.1315    0.0000 C   0  0  0  0  0  0  0  0  0  0  0  0
   -0.8601   -2.3716    0.0000 C   0  0  0  0  0  0  0  0  0  0  0  0
    6.3298   -0.6055    0.0000 C   0  0  0  0  0  0  0  0  0  0  0  0
    6.8809    0.0125    0.0000 C   0  0  0  0  0  0  0  0  0  0  0  0
   -2.2880   -1.5449    0.0000 C   0  0  0  0  0  0  0  0  0  0  0  0
   -1.5741   -2.7850    0.0000 C   0  0  0  0  0  0  0  0  0  0  0  0
   -2.2880   -2.3716    0.0000 C   0  0  0  0  0  0  0  0  0  0  0  0
  2  1  1  0  0  0  0
  3  8  1  0  0  0  0
  4  1  2  0  0  0  0
  5 15  1  0  0  0  0
  6  3  1  0  0  0  0
  7 13  1  0  0  0  0
  8 14  2  0  0  0  0
  9 10  1  0  0  0  0
 10  1  1  0  0  0  0
 11  9  1  0  0  0  0
 12  2  1  0  0  0  0
 13 11  2  0  0  0  0
 14 11  1  0  0  0  0
 15 12  1  0  0  0  0
 16  5  1  0  0  0  0
 17  6  2  0  0  0  0
 18  6  1  0  0  0  0
 19 15  1  0  0  0  0
 20 19  1  0  0  0  0
 21 17  1  0  0  0  0
 22 18  2  0  0  0  0
 23 22  1  0  0  0  0
  7  3  2  0  0  0  0
 16 20  1  0  0  0  0
 23 21  2  0  0  0  0
M  END
>  <IDNUMBER>
F3095-1901

>  <Chemical_Name>
2-{[1,1'-biphenyl]-4-yloxy}-N-[(oxolan-2-yl)methyl]acetamide

>  <PriceCoeff>
1.00

>  <CAS>
302550-66-9

>  <MW>
311.37

>  <Description>
solid

>  <FSP3>
0.32

>  <clogP>
3.56

>  <TPSA>
47.56

>  <Acceptor>
3

>  <Donor>
1

>  <RotBonds>
6

>  <HAC>
23

>  <Collection>
General

>  <PPDS>
+

$$$$
F3095-3041
  Mrv2219 10102508112D          

 24 24  0  0  0  0            999 V2000
    3.6523    0.8680    0.0000 N   0  0  0  0  0  0  0  0  0  0  0  0
    2.9227    1.2789    0.0000 C   0  0  0  0  0  0  0  0  0  0  0  0
    2.2057    0.8680    0.0000 C   0  0  0  0  0  0  0  0  0  0  0  0
    0.0545   -0.3690    0.0000 C   0  0  0  0  0  0  0  0  0  0  0  0
    1.5096    1.2789    0.0000 C   0  0  0  0  0  0  0  0  0  0  0  0
    3.6523    0.0461    0.0000 C   0  0  0  0  0  0  0  0  0  0  0  0
    4.3777    1.2915    0.0000 C   0  0  0  0  0  0  0  0  0  0  0  0
   -0.6499    0.0209    0.0000 C   0  0  0  0  0  0  0  0  0  0  0  0
    2.9227    2.1134    0.0000 O   0  0  0  0  0  0  0  0  0  0  0  0
    0.7716    0.0209    0.0000 C   0  0  0  0  0  0  0  0  0  0  0  0
    0.7716    0.8554    0.0000 C   0  0  0  0  0  0  0  0  0  0  0  0
   -0.6499    0.8554    0.0000 C   0  0  0  0  0  0  0  0  0  0  0  0
    0.0545    1.2705    0.0000 C   0  0  0  0  0  0  0  0  0  0  0  0
    0.0545   -1.2076    0.0000 O   0  0  0  0  0  0  0  0  0  0  0  0
   -1.3586   -0.3690    0.0000 O   0  0  0  0  0  0  0  0  0  0  0  0
    2.9353   -0.3565    0.0000 C   0  0  0  0  0  0  0  0  0  0  0  0
    4.3777    2.1134    0.0000 C   0  0  0  0  0  0  0  0  0  0  0  0
   -2.0840    0.0209    0.0000 C   0  0  0  0  0  0  0  0  0  0  0  0
   -0.6499   -1.6144    0.0000 C   0  0  0  0  0  0  0  0  0  0  0  0
    2.9353   -1.1867    0.0000 C   0  0  0  0  0  0  0  0  0  0  0  0
    2.2057    0.0335    0.0000 C   0  0  0  0  0  0  0  0  0  0  0  0
    5.0822    2.5369    0.0000 C   0  0  0  0  0  0  0  0  0  0  0  0
    3.6397    2.5369    0.0000 C   0  0  0  0  0  0  0  0  0  0  0  0
   -2.8010   -0.3565    0.0000 C   0  0  0  0  0  0  0  0  0  0  0  0
  2  1  1  0  0  0  0
  3  2  1  0  0  0  0
  4 10  2  0  0  0  0
  5  3  2  0  0  0  0
  6  1  1  0  0  0  0
  7  1  1  0  0  0  0
  8 12  2  0  0  0  0
  9  2  2  0  0  0  0
 10 11  1  0  0  0  0
 11  5  1  0  0  0  0
 12 13  1  0  0  0  0
 13 11  2  0  0  0  0
 14  4  1  0  0  0  0
 15  8  1  0  0  0  0
 16  6  1  0  0  0  0
 17  7  1  0  0  0  0
 18 15  1  0  0  0  0
 19 14  1  0  0  0  0
 20 16  1  0  0  0  0
 21 16  1  0  0  0  0
 22 17  1  0  0  0  0
 23 17  1  0  0  0  0
 24 18  1  0  0  0  0
  8  4  1  0  0  0  0
M  END
>  <IDNUMBER>
F3095-3041

>  <Chemical_Name>
(2E)-3-(4-ethoxy-3-methoxyphenyl)-N,N-bis(2-methylpropyl)prop-2-enamide

>  <PriceCoeff>
1.00

>  <CAS>
302807-69-8

>  <MW>
333.47

>  <Description>
solid

>  <FSP3>
0.55

>  <clogP>
4.80

>  <TPSA>
38.77

>  <Acceptor>
3

>  <Donor>
0

>  <RotBonds>
10

>  <HAC>
24

>  <Collection>
General

>  <PPDS>
+

$$$$
F3095-3044
  Mrv2219 10102508112D          

 22 23  0  0  0  0            999 V2000
    0.7558    0.7140    0.0000 N   0  0  0  0  0  0  0  0  0  0  0  0
    0.0501    1.1231    0.0000 C   0  0  0  0  0  0  0  0  0  0  0  0
   -0.6513    0.7015    0.0000 C   0  0  0  0  0  0  0  0  0  0  0  0
   -2.8058   -0.5303    0.0000 C   0  0  0  0  0  0  0  0  0  0  0  0
   -1.3736    1.1148    0.0000 C   0  0  0  0  0  0  0  0  0  0  0  0
   -3.5198   -0.1044    0.0000 C   0  0  0  0  0  0  0  0  0  0  0  0
    0.7558   -0.0919    0.0000 C   0  0  0  0  0  0  0  0  0  0  0  0
    1.4697    1.1231    0.0000 C   0  0  0  0  0  0  0  0  0  0  0  0
    0.0501    1.9498    0.0000 O   0  0  0  0  0  0  0  0  0  0  0  0
   -2.0876   -0.1044    0.0000 C   0  0  0  0  0  0  0  0  0  0  0  0
   -2.0876    0.7015    0.0000 C   0  0  0  0  0  0  0  0  0  0  0  0
   -3.5198    0.7015    0.0000 C   0  0  0  0  0  0  0  0  0  0  0  0
   -2.8058    1.1148    0.0000 C   0  0  0  0  0  0  0  0  0  0  0  0
   -2.8058   -1.3528    0.0000 O   0  0  0  0  0  0  0  0  0  0  0  0
    2.1920    0.7140    0.0000 C   0  0  0  0  0  0  0  0  0  0  0  0
    1.4697   -0.5052    0.0000 C   0  0  0  0  0  0  0  0  0  0  0  0
   -4.2295   -0.5303    0.0000 O   0  0  0  0  0  0  0  0  0  0  0  0
    2.1920   -0.0919    0.0000 C   0  0  0  0  0  0  0  0  0  0  0  0
   -4.9561   -0.1044    0.0000 C   0  0  0  0  0  0  0  0  0  0  0  0
   -3.5198   -1.7578    0.0000 C   0  0  0  0  0  0  0  0  0  0  0  0
    2.9060   -0.5052    0.0000 C   0  0  0  0  0  0  0  0  0  0  0  0
   -5.6700   -0.5178    0.0000 C   0  0  0  0  0  0  0  0  0  0  0  0
  2  1  1  0  0  0  0
  3  2  1  0  0  0  0
  4 10  2  0  0  0  0
  5  3  2  0  0  0  0
  6 12  2  0  0  0  0
  7  1  1  0  0  0  0
  8  1  1  0  0  0  0
  9  2  2  0  0  0  0
 10 11  1  0  0  0  0
 11  5  1  0  0  0  0
 12 13  1  0  0  0  0
 13 11  2  0  0  0  0
 14  4  1  0  0  0  0
 15  8  1  0  0  0  0
 16  7  1  0  0  0  0
 17  6  1  0  0  0  0
 18 15  1  0  0  0  0
 19 17  1  0  0  0  0
 20 14  1  0  0  0  0
 21 18  1  0  0  0  0
 22 19  1  0  0  0  0
 18 16  1  0  0  0  0
  6  4  1  0  0  0  0
M  END
>  <IDNUMBER>
F3095-3044

>  <Chemical_Name>
(2E)-3-(4-ethoxy-3-methoxyphenyl)-1-(4-methylpiperidin-1-yl)prop-2-en-1-one

>  <PriceCoeff>
1.00

>  <CAS>
302807-70-1

>  <MW>
303.40

>  <Description>
solid

>  <FSP3>
0.50

>  <clogP>
3.60

>  <TPSA>
38.77

>  <Acceptor>
3

>  <Donor>
0

>  <RotBonds>
6

>  <HAC>
22

>  <Collection>
General

$$$$
F3095-3637
  Mrv2219 10102508112D          

 23 25  0  0  0  0            999 V2000
    2.7542    0.6833    0.0000 N   0  0  0  0  0  0  0  0  0  0  0  0
    2.0417    1.0833    0.0000 C   0  0  0  0  0  0  0  0  0  0  0  0
   -1.5208   -0.1542    0.0000 C   0  0  0  0  0  0  0  0  0  0  0  0
   -2.2333   -0.5792    0.0000 C   0  0  0  0  0  0  0  0  0  0  0  0
    1.3292    0.6708    0.0000 C   0  0  0  0  0  0  0  0  0  0  0  0
    2.0375    1.9125    0.0000 O   0  0  0  0  0  0  0  0  0  0  0  0
    4.1792   -0.1417    0.0000 O   0  0  0  0  0  0  0  0  0  0  0  0
   -1.5250    0.6583    0.0000 C   0  0  0  0  0  0  0  0  0  0  0  0
   -2.2333   -1.4042    0.0000 C   0  0  0  0  0  0  0  0  0  0  0  0
   -2.9458   -0.1667    0.0000 C   0  0  0  0  0  0  0  0  0  0  0  0
   -0.8083   -0.5792    0.0000 C   0  0  0  0  0  0  0  0  0  0  0  0
    0.6167    1.0833    0.0000 O   0  0  0  0  0  0  0  0  0  0  0  0
   -0.1000    0.6625    0.0000 C   0  0  0  0  0  0  0  0  0  0  0  0
   -0.8208    1.0750    0.0000 C   0  0  0  0  0  0  0  0  0  0  0  0
   -0.0958   -0.1542    0.0000 C   0  0  0  0  0  0  0  0  0  0  0  0
   -3.6625   -0.5792    0.0000 C   0  0  0  0  0  0  0  0  0  0  0  0
   -2.9458   -1.8167    0.0000 C   0  0  0  0  0  0  0  0  0  0  0  0
   -3.6625   -1.4042    0.0000 C   0  0  0  0  0  0  0  0  0  0  0  0
    3.4667    1.0958    0.0000 C   0  0  0  0  0  0  0  0  0  0  0  0
    2.7542   -0.1500    0.0000 C   0  0  0  0  0  0  0  0  0  0  0  0
    4.1792    0.6833    0.0000 C   0  0  0  0  0  0  0  0  0  0  0  0
    3.4750   -0.5542    0.0000 C   0  0  0  0  0  0  0  0  0  0  0  0
   -4.3833   -1.8167    0.0000 C   0  0  0  0  0  0  0  0  0  0  0  0
  2  1  1  0  0  0  0
  3 11  2  0  0  0  0
  4  3  1  0  0  0  0
  5  2  1  0  0  0  0
  6  2  2  0  0  0  0
  7 22  1  0  0  0  0
  8 14  2  0  0  0  0
  9  4  1  0  0  0  0
 10  4  2  0  0  0  0
 11 15  1  0  0  0  0
 12  5  1  0  0  0  0
 13 12  1  0  0  0  0
 14 13  1  0  0  0  0
 15 13  2  0  0  0  0
 16 10  1  0  0  0  0
 17  9  2  0  0  0  0
 18 16  2  0  0  0  0
 19  1  1  0  0  0  0
 20  1  1  0  0  0  0
 21 19  1  0  0  0  0
 22 20  1  0  0  0  0
 23 18  1  0  0  0  0
  7 21  1  0  0  0  0
  3  8  1  0  0  0  0
 18 17  1  0  0  0  0
M  END
>  <IDNUMBER>
F3095-3637

>  <Chemical_Name>
2-({4'-methyl-[1,1'-biphenyl]-4-yl}oxy)-1-(morpholin-4-yl)ethan-1-one

>  <PriceCoeff>
1.00

>  <CAS>
303031-97-2

>  <MW>
311.37

>  <Description>
solid

>  <FSP3>
0.32

>  <clogP>
3.76

>  <TPSA>
38.77

>  <Acceptor>
3

>  <Donor>
0

>  <RotBonds>
5

>  <HAC>
23

>  <Collection>
General

>  <PPDS>
+

$$$$
F3095-4413
  Mrv2219 10102508112D          

 21 23  0  0  0  0            999 V2000
    1.4815   -1.8452    0.0000 C   0  0  0  0  0  0  0  0  0  0  0  0
    0.7363   -2.2710    0.0000 C   0  0  0  0  0  0  0  0  0  0  0  0
    0.0266   -1.8452    0.0000 C   0  0  0  0  0  0  0  0  0  0  0  0
    1.4815   -1.0202    0.0000 C   0  0  0  0  0  0  0  0  0  0  0  0
    0.0266   -1.0202    0.0000 C   0  0  0  0  0  0  0  0  0  0  0  0
    0.7363   -0.5944    0.0000 O   0  0  0  0  0  0  0  0  0  0  0  0
    1.9871   -2.1320    0.0000 C   0  0  0  0  0  0  0  0  0  0  0  0
   -0.7067   -2.2710    0.0000 C   0  0  0  0  0  0  0  0  0  0  0  0
   -0.7067   -0.5944    0.0000 C   0  0  0  0  0  0  0  0  0  0  0  0
    0.7363   -3.1226    0.0000 O   0  0  0  0  0  0  0  0  0  0  0  0
    1.9871   -2.7234    0.0000 C   0  0  0  0  0  0  0  0  0  0  0  0
   -1.4430   -1.0202    0.0000 C   0  0  0  0  0  0  0  0  0  0  0  0
   -1.4430   -1.8452    0.0000 C   0  0  0  0  0  0  0  0  0  0  0  0
    1.4756   -3.0161    0.0000 O   0  0  0  0  0  0  0  0  0  0  0  0
    2.4869   -1.8452    0.0000 C   0  0  0  0  0  0  0  0  0  0  0  0
   -2.1793   -0.5944    0.0000 O   0  0  0  0  0  0  0  0  0  0  0  0
    2.4869   -3.0161    0.0000 C   0  0  0  0  0  0  0  0  0  0  0  0
    1.4756   -3.5957    0.0000 C   0  0  0  0  0  0  0  0  0  0  0  0
   -2.1793    0.2573    0.0000 C   0  0  0  0  0  0  0  0  0  0  0  0
    2.9925   -2.1320    0.0000 C   0  0  0  0  0  0  0  0  0  0  0  0
    2.9925   -2.7234    0.0000 C   0  0  0  0  0  0  0  0  0  0  0  0
  2  1  1  0  0  0  0
  3  2  1  0  0  0  0
  4  1  2  0  0  0  0
  5  6  1  0  0  0  0
  6  4  1  0  0  0  0
  7  1  1  0  0  0  0
  8  3  2  0  0  0  0
  9  5  2  0  0  0  0
 10  2  2  0  0  0  0
 11  7  2  0  0  0  0
 12  9  1  0  0  0  0
 13  8  1  0  0  0  0
 14 11  1  0  0  0  0
 15  7  1  0  0  0  0
 16 12  1  0  0  0  0
 17 11  1  0  0  0  0
 18 14  1  0  0  0  0
 19 16  1  0  0  0  0
 20 15  2  0  0  0  0
 21 20  1  0  0  0  0
  5  3  1  0  0  0  0
 21 17  2  0  0  0  0
 12 13  2  0  0  0  0
M  END
>  <IDNUMBER>
F3095-4413

>  <Chemical_Name>
7-methoxy-3-(2-methoxyphenyl)-4H-chromen-4-one

>  <PriceCoeff>
1.00

>  <CAS>
19725-40-7

>  <MW>
282.29

>  <Description>
solid

>  <FSP3>
0.12

>  <clogP>
2.46

>  <TPSA>
44.76

>  <Acceptor>
4

>  <Donor>
0

>  <RotBonds>
3

>  <HAC>
21

>  <Collection>
General

>  <PPDS>
+

$$$$
F3096-1151
  Mrv2219 10102508112D          

 20 21  0  0  0  0            999 V2000
    5.2024   -6.3412    0.0000 C   0  0  0  0  0  0  0  0  0  0  0  0
    4.6976   -7.2730    0.0000 N   0  3  0  0  0  0  0  0  0  0  0  0
    4.8271   -5.6909    0.0000 C   0  0  0  0  0  0  0  0  0  0  0  0
    3.6624   -4.9727    0.0000 C   0  0  0  0  0  0  0  0  0  0  0  0
    4.0797   -5.6909    0.0000 N   0  0  0  0  0  0  0  0  0  0  0  0
    5.9433   -6.3315    0.0000 C   0  0  0  0  0  0  0  0  0  0  0  0
    3.6397   -7.2988    0.0000 O   0  5  0  0  0  0  0  0  0  0  0  0
    2.8341   -4.9727    0.0000 C   0  0  0  0  0  0  0  0  0  0  0  0
    5.2541   -8.1756    0.0000 O   0  0  0  0  0  0  0  0  0  0  0  0
    4.0765   -4.2609    0.0000 O   0  0  0  0  0  0  0  0  0  0  0  0
    5.2024   -5.0471    0.0000 C   0  0  0  0  0  0  0  0  0  0  0  0
    2.4200   -4.2544    0.0000 C   0  0  0  0  0  0  0  0  0  0  0  0
    2.4200   -5.6909    0.0000 C   0  0  0  0  0  0  0  0  0  0  0  0
    6.3185   -5.6909    0.0000 C   0  0  0  0  0  0  0  0  0  0  0  0
    1.1777   -4.9727    0.0000 C   0  0  0  0  0  0  0  0  0  0  0  0
    5.9433   -5.0471    0.0000 C   0  0  0  0  0  0  0  0  0  0  0  0
    1.5950   -5.6909    0.0000 C   0  0  0  0  0  0  0  0  0  0  0  0
    1.5950   -4.2544    0.0000 C   0  0  0  0  0  0  0  0  0  0  0  0
    7.0659   -5.6812    0.0000 Cl  0  0  0  0  0  0  0  0  0  0  0  0
    0.3494   -4.9727    0.0000 Br  0  0  0  0  0  0  0  0  0  0  0  0
  2  1  1  0  0  0  0
  3  1  2  0  0  0  0
  4  5  1  0  0  0  0
  5  3  1  0  0  0  0
  6  1  1  0  0  0  0
  7  2  1  0  0  0  0
  8  4  1  0  0  0  0
  9  2  2  0  0  0  0
 10  4  2  0  0  0  0
 11  3  1  0  0  0  0
 12  8  2  0  0  0  0
 13  8  1  0  0  0  0
 14  6  2  0  0  0  0
 15 17  1  0  0  0  0
 16 14  1  0  0  0  0
 17 13  2  0  0  0  0
 18 12  1  0  0  0  0
 19 14  1  0  0  0  0
 20 15  1  0  0  0  0
 11 16  2  0  0  0  0
 18 15  2  0  0  0  0
M  CHG  2   2   1   7  -1
M  END
>  <IDNUMBER>
F3096-1151

>  <Chemical_Name>
4-bromo-N-(4-chloro-2-nitrophenyl)benzamide

>  <PriceCoeff>
1.00

>  <CAS>
119200-04-3

>  <MW>
355.57

>  <Description>
solid

>  <FSP3>
0.00

>  <clogP>
4.18

>  <TPSA>
72.24

>  <Acceptor>
3

>  <Donor>
1

>  <RotBonds>
3

>  <HAC>
20

>  <Collection>
General

>  <PPDS>
+

$$$$
F3096-1171
  Mrv2219 10102508112D          

 19 20  0  0  0  0            999 V2000
    1.2645   -0.5739    0.0000 N   0  0  0  0  0  0  0  0  0  0  0  0
    0.5906   -0.0734    0.0000 C   0  0  0  0  0  0  0  0  0  0  0  0
    0.7040    0.7207    0.0000 N   0  0  0  0  0  0  0  0  0  0  0  0
    2.5757   -1.5514    0.0000 O   0  0  0  0  0  0  0  0  0  0  0  0
   -1.3779    1.3779    0.0000 C   0  0  0  0  0  0  0  0  0  0  0  0
   -0.7073    0.8974    0.0000 C   0  0  0  0  0  0  0  0  0  0  0  0
    2.0018   -0.2536    0.0000 C   0  0  0  0  0  0  0  0  0  0  0  0
    1.1644   -1.3913    0.0000 C   0  0  0  0  0  0  0  0  0  0  0  0
    0.0434    1.2177    0.0000 C   0  0  0  0  0  0  0  0  0  0  0  0
   -0.1602   -0.4004    0.0000 O   0  0  0  0  0  0  0  0  0  0  0  0
   -1.2678    2.1986    0.0000 C   0  0  0  0  0  0  0  0  0  0  0  0
    1.8250   -1.8851    0.0000 C   0  0  0  0  0  0  0  0  0  0  0  0
    2.6557   -0.7340    0.0000 C   0  0  0  0  0  0  0  0  0  0  0  0
   -0.5171    2.5389    0.0000 C   0  0  0  0  0  0  0  0  0  0  0  0
   -2.1486    1.0576    0.0000 Cl  0  0  0  0  0  0  0  0  0  0  0  0
    0.1435    2.0385    0.0000 C   0  0  0  0  0  0  0  0  0  0  0  0
   -1.9218    2.7091    0.0000 Cl  0  0  0  0  0  0  0  0  0  0  0  0
    3.4265   -0.4138    0.0000 C   0  0  0  0  0  0  0  0  0  0  0  0
    1.7249   -2.7058    0.0000 C   0  0  0  0  0  0  0  0  0  0  0  0
  2  1  1  0  0  0  0
  3  2  1  0  0  0  0
  4 12  1  0  0  0  0
  5  6  1  0  0  0  0
  6  9  2  0  0  0  0
  7  1  1  0  0  0  0
  8  1  1  0  0  0  0
  9  3  1  0  0  0  0
 10  2  2  0  0  0  0
 11 14  1  0  0  0  0
 12  8  1  0  0  0  0
 13  7  1  0  0  0  0
 14 16  2  0  0  0  0
 15  5  1  0  0  0  0
 16  9  1  0  0  0  0
 17 11  1  0  0  0  0
 18 13  1  0  0  0  0
 19 12  1  0  0  0  0
 13  4  1  0  0  0  0
 11  5  2  0  0  0  0
M  END
>  <IDNUMBER>
F3096-1171

>  <Chemical_Name>
N-(3,4-dichlorophenyl)-2,6-dimethylmorpholine-4-carboxamide

>  <PriceCoeff>
1.50

>  <MW>
303.18

>  <Description>
solid

>  <FSP3>
0.46

>  <clogP>
3.56

>  <TPSA>
41.57

>  <Acceptor>
2

>  <Donor>
1

>  <RotBonds>
2

>  <HAC>
19

>  <Collection>
Advanced

$$$$
F3096-1216
  Mrv2219 10102508112D          

 22 24  0  0  0  0            999 V2000
    0.9970   -0.3854    0.0000 C   0  0  0  0  0  0  0  0  0  0  0  0
   -2.5768    0.8122    0.0000 N   0  0  0  0  0  0  0  0  0  0  0  0
    0.2899   -0.8027    0.0000 N   0  0  0  0  0  0  0  0  0  0  0  0
   -1.8601    0.4172    0.0000 C   0  0  0  0  0  0  0  0  0  0  0  0
    1.7105   -0.8027    0.0000 C   0  0  0  0  0  0  0  0  0  0  0  0
    0.9970    0.4300    0.0000 O   0  0  0  0  0  0  0  0  0  0  0  0
   -1.8506   -0.4045    0.0000 C   0  0  0  0  0  0  0  0  0  0  0  0
   -1.1435    0.8409    0.0000 C   0  0  0  0  0  0  0  0  0  0  0  0
    2.4304   -0.3854    0.0000 C   0  0  0  0  0  0  0  0  0  0  0  0
    1.7041   -1.6181    0.0000 C   0  0  0  0  0  0  0  0  0  0  0  0
   -0.4205   -0.3950    0.0000 C   0  0  0  0  0  0  0  0  0  0  0  0
    3.1343   -1.6181    0.0000 C   0  0  0  0  0  0  0  0  0  0  0  0
   -1.1339   -0.8154    0.0000 C   0  0  0  0  0  0  0  0  0  0  0  0
   -0.4205    0.4300    0.0000 C   0  0  0  0  0  0  0  0  0  0  0  0
    2.4080   -2.0258    0.0000 C   0  0  0  0  0  0  0  0  0  0  0  0
    3.1343   -0.8027    0.0000 C   0  0  0  0  0  0  0  0  0  0  0  0
    3.8446   -2.0258    0.0000 Cl  0  0  0  0  0  0  0  0  0  0  0  0
   -2.5991    1.6404    0.0000 C   0  0  0  0  0  0  0  0  0  0  0  0
   -3.2744    0.3822    0.0000 C   0  0  0  0  0  0  0  0  0  0  0  0
   -3.3222    2.0258    0.0000 C   0  0  0  0  0  0  0  0  0  0  0  0
   -4.0006    0.7740    0.0000 C   0  0  0  0  0  0  0  0  0  0  0  0
   -4.0293    1.5926    0.0000 C   0  0  0  0  0  0  0  0  0  0  0  0
  2  4  1  0  0  0  0
  3  1  1  0  0  0  0
  4  8  2  0  0  0  0
  5  1  1  0  0  0  0
  6  1  2  0  0  0  0
  7 13  2  0  0  0  0
  8 14  1  0  0  0  0
  9  5  1  0  0  0  0
 10  5  2  0  0  0  0
 11  3  1  0  0  0  0
 12 15  2  0  0  0  0
 13 11  1  0  0  0  0
 14 11  2  0  0  0  0
 15 10  1  0  0  0  0
 16  9  2  0  0  0  0
 17 12  1  0  0  0  0
 18  2  1  0  0  0  0
 19  2  1  0  0  0  0
 20 18  1  0  0  0  0
 21 19  1  0  0  0  0
 22 21  1  0  0  0  0
 16 12  1  0  0  0  0
  4  7  1  0  0  0  0
 22 20  1  0  0  0  0
M  END
>  <IDNUMBER>
F3096-1216

>  <Chemical_Name>
4-chloro-N-[4-(piperidin-1-yl)phenyl]benzamide

>  <PriceCoeff>
1.00

>  <CAS>
305373-16-4

>  <MW>
314.81

>  <Description>
solid

>  <FSP3>
0.28

>  <clogP>
4.40

>  <TPSA>
32.34

>  <Acceptor>
2

>  <Donor>
2

>  <RotBonds>
3

>  <HAC>
22

>  <Collection>
General

>  <PPDS>
+

$$$$
F3097-0487
  Mrv2219 10102508112D          

 20 22  0  0  0  0            999 V2000
   -0.3447   -0.5515    0.0000 C   0  0  0  0  0  0  0  0  0  0  0  0
    0.3702   -0.9676    0.0000 C   0  0  0  0  0  0  0  0  0  0  0  0
    1.0825   -0.5515    0.0000 C   0  0  0  0  0  0  0  0  0  0  0  0
    1.0825    0.2655    0.0000 C   0  0  0  0  0  0  0  0  0  0  0  0
   -0.3447    0.2655    0.0000 C   0  0  0  0  0  0  0  0  0  0  0  0
    0.3702    0.6816    0.0000 O   0  0  0  0  0  0  0  0  0  0  0  0
   -1.0543   -0.9676    0.0000 C   0  0  0  0  0  0  0  0  0  0  0  0
   -1.0543    0.6816    0.0000 C   0  0  0  0  0  0  0  0  0  0  0  0
   -1.7846   -0.5515    0.0000 C   0  0  0  0  0  0  0  0  0  0  0  0
   -1.7846    0.2655    0.0000 C   0  0  0  0  0  0  0  0  0  0  0  0
    0.3702   -1.8075    0.0000 O   0  0  0  0  0  0  0  0  0  0  0  0
    1.7871    0.6816    0.0000 C   0  0  0  0  0  0  0  0  0  0  0  0
   -1.0543   -1.8075    0.0000 O   0  0  0  0  0  0  0  0  0  0  0  0
   -2.5121    0.7046    0.0000 O   0  0  0  0  0  0  0  0  0  0  0  0
    2.4994    0.2655    0.0000 C   0  0  0  0  0  0  0  0  0  0  0  0
    1.7871    1.5088    0.0000 C   0  0  0  0  0  0  0  0  0  0  0  0
   -3.2294    0.3140    0.0000 C   0  0  0  0  0  0  0  0  0  0  0  0
    3.2090    0.6816    0.0000 C   0  0  0  0  0  0  0  0  0  0  0  0
    2.4994    1.9274    0.0000 C   0  0  0  0  0  0  0  0  0  0  0  0
    3.2090    1.5088    0.0000 C   0  0  0  0  0  0  0  0  0  0  0  0
  2  1  1  0  0  0  0
  3  2  1  0  0  0  0
  4  6  1  0  0  0  0
  5  1  1  0  0  0  0
  6  5  1  0  0  0  0
  7  1  2  0  0  0  0
  8  5  2  0  0  0  0
  9  7  1  0  0  0  0
 10  9  2  0  0  0  0
 11  2  2  0  0  0  0
 12  4  1  0  0  0  0
 13  7  1  0  0  0  0
 14 10  1  0  0  0  0
 15 12  2  0  0  0  0
 16 12  1  0  0  0  0
 17 14  1  0  0  0  0
 18 15  1  0  0  0  0
 19 16  2  0  0  0  0
 20 19  1  0  0  0  0
 10  8  1  0  0  0  0
  3  4  2  0  0  0  0
 20 18  2  0  0  0  0
M  END
>  <IDNUMBER>
F3097-0487

>  <Chemical_Name>
5-hydroxy-7-methoxy-2-phenyl-4H-chromen-4-one

>  <PriceCoeff>
1.00

>  <CAS>
520-28-5

>  <MW>
268.26

>  <Description>
solid

>  <FSP3>
0.06

>  <clogP>
4.15

>  <TPSA>
55.76

>  <Acceptor>
4

>  <Donor>
1

>  <RotBonds>
2

>  <HAC>
20

>  <Collection>
General

$$$$
F3097-4951
  Mrv2219 10102508112D          

 30 33  0  0  0  0            999 V2000
    3.2792   -3.6792    0.0000 N   0  0  0  0  0  0  0  0  0  0  0  0
    2.7917   -4.3542    0.0000 C   0  0  0  0  0  0  0  0  0  0  0  0
    2.7875   -3.0167    0.0000 C   0  0  0  0  0  0  0  0  0  0  0  0
    6.9625   -0.0792    0.0000 N   0  3  0  0  0  0  0  0  0  0  0  0
    7.3792   -0.7917    0.0000 C   0  0  0  0  0  0  0  0  0  0  0  0
    2.0042   -4.1042    0.0000 C   0  0  0  0  0  0  0  0  0  0  0  0
    2.0042   -3.2792    0.0000 C   0  0  0  0  0  0  0  0  0  0  0  0
    6.5750   -3.6625    0.0000 C   0  0  0  0  0  0  0  0  0  0  0  0
    6.9667   -1.5125    0.0000 C   0  0  0  0  0  0  0  0  0  0  0  0
    4.1000   -3.6792    0.0000 C   0  0  0  0  0  0  0  0  0  0  0  0
    6.9792   -2.9417    0.0000 N   0  0  0  0  0  0  0  0  0  0  0  0
    8.2000   -0.7917    0.0000 C   0  0  0  0  0  0  0  0  0  0  0  0
    3.0375   -2.2292    0.0000 O   0  0  0  0  0  0  0  0  0  0  0  0
    3.0542   -5.1375    0.0000 O   0  0  0  0  0  0  0  0  0  0  0  0
    7.3667    0.6333    0.0000 O   0  5  0  0  0  0  0  0  0  0  0  0
    5.7500   -3.6667    0.0000 C   0  0  0  0  0  0  0  0  0  0  0  0
    6.1375   -0.0792    0.0000 O   0  0  0  0  0  0  0  0  0  0  0  0
    7.3875   -2.2250    0.0000 C   0  0  0  0  0  0  0  0  0  0  0  0
    6.9917   -4.3750    0.0000 O   0  0  0  0  0  0  0  0  0  0  0  0
    4.5167   -4.3917    0.0000 C   0  0  0  0  0  0  0  0  0  0  0  0
    4.5042   -2.9625    0.0000 C   0  0  0  0  0  0  0  0  0  0  0  0
    5.3292   -2.9542    0.0000 C   0  0  0  0  0  0  0  0  0  0  0  0
    5.3417   -4.3792    0.0000 C   0  0  0  0  0  0  0  0  0  0  0  0
    8.6167   -1.5042    0.0000 C   0  0  0  0  0  0  0  0  0  0  0  0
    8.2042   -2.2167    0.0000 C   0  0  0  0  0  0  0  0  0  0  0  0
    8.6125   -0.0792    0.0000 Cl  0  0  0  0  0  0  0  0  0  0  0  0
    1.2875   -4.5167    0.0000 C   0  0  0  0  0  0  0  0  0  0  0  0
    1.2875   -2.8667    0.0000 C   0  0  0  0  0  0  0  0  0  0  0  0
    0.5750   -3.2792    0.0000 C   0  0  0  0  0  0  0  0  0  0  0  0
    0.5750   -4.1042    0.0000 C   0  0  0  0  0  0  0  0  0  0  0  0
  2  1  1  0  0  0  0
  3  1  1  0  0  0  0
  4  5  1  0  0  0  0
  5  9  2  0  0  0  0
  6  2  1  0  0  0  0
  7  3  1  0  0  0  0
  8 16  1  0  0  0  0
  9 18  1  0  0  0  0
 10  1  1  0  0  0  0
 11  8  1  0  0  0  0
 12 24  2  0  0  0  0
 13  3  2  0  0  0  0
 14  2  2  0  0  0  0
 15  4  1  0  0  0  0
 16 22  1  0  0  0  0
 17  4  2  0  0  0  0
 18 11  1  0  0  0  0
 19  8  2  0  0  0  0
 20 10  2  0  0  0  0
 21 10  1  0  0  0  0
 22 21  2  0  0  0  0
 23 20  1  0  0  0  0
 24 25  1  0  0  0  0
 25 18  2  0  0  0  0
 26 12  1  0  0  0  0
 27  6  2  0  0  0  0
 28  7  2  0  0  0  0
 29 28  1  0  0  0  0
 30 27  1  0  0  0  0
  7  6  1  0  0  0  0
 23 16  2  0  0  0  0
 29 30  2  0  0  0  0
 12  5  1  0  0  0  0
M  CHG  2   4   1  15  -1
M  END
>  <IDNUMBER>
F3097-4951

>  <Chemical_Name>
N-(4-chloro-3-nitrophenyl)-4-(1,3-dioxo-2,3-dihydro-1H-isoindol-2-yl)benzamide

>  <PriceCoeff>
1.00

>  <CAS>
433325-08-7

>  <MW>
421.79

>  <Description>
solid

>  <FSP3>
0.00

>  <clogP>
4.17

>  <TPSA>
109.62

>  <Acceptor>
5

>  <Donor>
1

>  <RotBonds>
4

>  <HAC>
30

>  <Collection>
General

>  <PPDS>
+

$$$$
F3097-5834
  Mrv2219 10102508112D          

 23 24  0  0  0  0            999 V2000
    8.3222   -2.0203    0.0000 N   0  3  0  0  0  0  0  0  0  0  0  0
    5.4664   -3.6789    0.0000 C   0  0  0  0  0  0  0  0  0  0  0  0
    6.1772   -3.2674    0.0000 C   0  0  0  0  0  0  0  0  0  0  0  0
    4.7556   -3.2674    0.0000 N   0  0  0  0  0  0  0  0  0  0  0  0
    4.0447   -3.6831    0.0000 C   0  0  0  0  0  0  0  0  0  0  0  0
    6.1772   -2.4360    0.0000 C   0  0  0  0  0  0  0  0  0  0  0  0
    7.6114   -2.4360    0.0000 C   0  0  0  0  0  0  0  0  0  0  0  0
    6.8881   -2.0245    0.0000 C   0  0  0  0  0  0  0  0  0  0  0  0
    6.8964   -3.6789    0.0000 C   0  0  0  0  0  0  0  0  0  0  0  0
    9.0455   -2.4318    0.0000 O   0  5  0  0  0  0  0  0  0  0  0  0
    8.3222   -1.1889    0.0000 O   0  0  0  0  0  0  0  0  0  0  0  0
    5.4664   -4.4937    0.0000 O   0  0  0  0  0  0  0  0  0  0  0  0
    7.6114   -3.2591    0.0000 C   0  0  0  0  0  0  0  0  0  0  0  0
    4.0447   -4.5144    0.0000 C   0  0  0  0  0  0  0  0  0  0  0  0
    3.3297   -3.2715    0.0000 C   0  0  0  0  0  0  0  0  0  0  0  0
    5.4539   -2.0245    0.0000 Cl  0  0  0  0  0  0  0  0  0  0  0  0
    2.6189   -4.5144    0.0000 C   0  0  0  0  0  0  0  0  0  0  0  0
    3.3297   -4.9260    0.0000 C   0  0  0  0  0  0  0  0  0  0  0  0
    2.6189   -3.6914    0.0000 C   0  0  0  0  0  0  0  0  0  0  0  0
    3.3214   -2.4485    0.0000 C   0  0  0  0  0  0  0  0  0  0  0  0
    4.7556   -4.9260    0.0000 C   0  0  0  0  0  0  0  0  0  0  0  0
    4.0405   -2.0369    0.0000 C   0  0  0  0  0  0  0  0  0  0  0  0
    4.7556   -5.7490    0.0000 C   0  0  0  0  0  0  0  0  0  0  0  0
  2  3  1  0  0  0  0
  3  9  1  0  0  0  0
  4  2  1  0  0  0  0
  5  4  1  0  0  0  0
  6  8  1  0  0  0  0
  7  1  1  0  0  0  0
  8  7  2  0  0  0  0
  9 13  2  0  0  0  0
 10  1  1  0  0  0  0
 11  1  2  0  0  0  0
 12  2  2  0  0  0  0
 13  7  1  0  0  0  0
 14  5  1  0  0  0  0
 15  5  2  0  0  0  0
 16  6  1  0  0  0  0
 17 19  2  0  0  0  0
 18 14  2  0  0  0  0
 19 15  1  0  0  0  0
 20 15  1  0  0  0  0
 21 14  1  0  0  0  0
 22 20  1  0  0  0  0
 23 21  1  0  0  0  0
  3  6  2  0  0  0  0
 18 17  1  0  0  0  0
M  CHG  2   1   1  10  -1
M  END
>  <IDNUMBER>
F3097-5834

>  <Chemical_Name>
2-chloro-N-(2,6-diethylphenyl)-4-nitrobenzamide

>  <PriceCoeff>
1.00

>  <CAS>
449154-59-0

>  <MW>
332.78

>  <Description>
solid

>  <FSP3>
0.24

>  <clogP>
3.09

>  <TPSA>
72.24

>  <Acceptor>
3

>  <Donor>
1

>  <RotBonds>
5

>  <HAC>
23

>  <Collection>
General

>  <PPDS>
+

$$$$
F3098-1286
  Mrv2219 10102508112D          

 28 31  0  0  0  0            999 V2000
    7.5406   -5.3778    0.0000 C   0  0  0  0  0  0  0  0  0  0  0  0
    6.1126   -4.5762    0.0000 C   0  0  0  0  0  0  0  0  0  0  0  0
    6.1252   -5.3903    0.0000 C   0  0  0  0  0  0  0  0  0  0  0  0
    6.8266   -5.7912    0.0000 C   0  0  0  0  0  0  0  0  0  0  0  0
    5.3987   -4.1753    0.0000 C   0  0  0  0  0  0  0  0  0  0  0  0
    6.8141   -4.1628    0.0000 O   0  0  0  0  0  0  0  0  0  0  0  0
    7.5406   -4.5720    0.0000 C   0  0  0  0  0  0  0  0  0  0  0  0
    5.3987   -5.7912    0.0000 C   0  0  0  0  0  0  0  0  0  0  0  0
    5.3987   -3.3486    0.0000 C   0  0  0  0  0  0  0  0  0  0  0  0
    4.6972   -4.5762    0.0000 C   0  0  0  0  0  0  0  0  0  0  0  0
    8.2463   -5.7870    0.0000 C   0  0  0  0  0  0  0  0  0  0  0  0
    6.8266   -6.5928    0.0000 O   0  0  0  0  0  0  0  0  0  0  0  0
    4.6847   -2.9353    0.0000 N   0  0  0  0  0  0  0  0  0  0  0  0
    4.6972   -5.3903    0.0000 C   0  0  0  0  0  0  0  0  0  0  0  0
    4.6764   -2.1086    0.0000 C   0  0  0  0  0  0  0  0  0  0  0  0
    3.9832   -4.1837    0.0000 O   0  0  0  0  0  0  0  0  0  0  0  0
    5.3987   -1.6952    0.0000 C   0  0  0  0  0  0  0  0  0  0  0  0
    3.9624   -3.3486    0.0000 C   0  0  0  0  0  0  0  0  0  0  0  0
    8.2463   -6.6179    0.0000 C   0  0  0  0  0  0  0  0  0  0  0  0
    8.9602   -5.3778    0.0000 C   0  0  0  0  0  0  0  0  0  0  0  0
    5.3903   -0.8768    0.0000 C   0  0  0  0  0  0  0  0  0  0  0  0
    6.1126   -2.1086    0.0000 C   0  0  0  0  0  0  0  0  0  0  0  0
    9.6742   -5.7870    0.0000 C   0  0  0  0  0  0  0  0  0  0  0  0
    8.9602   -7.0312    0.0000 C   0  0  0  0  0  0  0  0  0  0  0  0
    6.8266   -1.6952    0.0000 C   0  0  0  0  0  0  0  0  0  0  0  0
    6.1043   -0.4551    0.0000 C   0  0  0  0  0  0  0  0  0  0  0  0
    6.8266   -0.8685    0.0000 C   0  0  0  0  0  0  0  0  0  0  0  0
    9.6825   -6.6179    0.0000 C   0  0  0  0  0  0  0  0  0  0  0  0
  2  6  1  0  0  0  0
  3  4  1  0  0  0  0
  4  1  1  0  0  0  0
  5  2  2  0  0  0  0
  6  7  1  0  0  0  0
  7  1  2  0  0  0  0
  8  3  2  0  0  0  0
  9  5  1  0  0  0  0
 10  5  1  0  0  0  0
 11  1  1  0  0  0  0
 12  4  2  0  0  0  0
 13  9  1  0  0  0  0
 14  8  1  0  0  0  0
 15 13  1  0  0  0  0
 16 10  1  0  0  0  0
 17 15  1  0  0  0  0
 18 13  1  0  0  0  0
 19 11  2  0  0  0  0
 20 11  1  0  0  0  0
 21 17  1  0  0  0  0
 22 17  2  0  0  0  0
 23 20  2  0  0  0  0
 24 19  1  0  0  0  0
 25 22  1  0  0  0  0
 26 21  2  0  0  0  0
 27 25  2  0  0  0  0
 28 23  1  0  0  0  0
  3  2  1  0  0  0  0
 24 28  2  0  0  0  0
 14 10  2  0  0  0  0
 26 27  1  0  0  0  0
M  END
>  <IDNUMBER>
F3098-1286

>  <Chemical_Name>
8-{[benzyl(methyl)amino]methyl}-7-hydroxy-3-phenyl-4H-chromen-4-one

>  <PriceCoeff>
1.00

>  <CAS>
449740-13-0

>  <MW>
371.43

>  <Description>
solid

>  <FSP3>
0.12

>  <clogP>
4.26

>  <TPSA>
49.77

>  <Acceptor>
3

>  <Donor>
2

>  <RotBonds>
5

>  <HAC>
28

>  <Collection>
General

>  <PPDS>
+

$$$$
F3098-1918
  Mrv2219 10102508112D          

 15 15  0  0  0  0            999 V2000
    5.1239   -3.6088    0.0000 C   0  0  0  0  0  0  0  0  0  0  0  0
    4.2998   -3.6088    0.0000 C   0  0  0  0  0  0  0  0  0  0  0  0
    3.8502   -2.9137    0.0000 C   0  0  0  0  0  0  0  0  0  0  0  0
    0.5536   -3.0843    0.0000 C   0  0  0  0  0  0  0  0  0  0  0  0
    1.3778   -3.0469    0.0000 C   0  0  0  0  0  0  0  0  0  0  0  0
    5.5318   -2.8887    0.0000 O   0  0  0  0  0  0  0  0  0  0  0  0
    1.8273   -3.7378    0.0000 C   0  0  0  0  0  0  0  0  0  0  0  0
    1.7524   -2.3101    0.0000 C   0  0  0  0  0  0  0  0  0  0  0  0
    3.0261   -2.9594    0.0000 C   0  0  0  0  0  0  0  0  0  0  0  0
    5.5360   -4.3122    0.0000 O   0  0  0  0  0  0  0  0  0  0  0  0
    2.6515   -3.7004    0.0000 C   0  0  0  0  0  0  0  0  0  0  0  0
    2.5765   -2.2644    0.0000 C   0  0  0  0  0  0  0  0  0  0  0  0
   -0.2705   -3.0760    0.0000 C   0  0  0  0  0  0  0  0  0  0  0  0
    0.5536   -2.2602    0.0000 C   0  0  0  0  0  0  0  0  0  0  0  0
    0.5536   -3.9085    0.0000 C   0  0  0  0  0  0  0  0  0  0  0  0
  2  1  1  0  0  0  0
  3  2  2  0  0  0  0
  4  5  1  0  0  0  0
  5  8  2  0  0  0  0
  6  1  2  0  0  0  0
  7 11  2  0  0  0  0
  8 12  1  0  0  0  0
  9  3  1  0  0  0  0
 10  1  1  0  0  0  0
 11  9  1  0  0  0  0
 12  9  2  0  0  0  0
 13  4  1  0  0  0  0
 14  4  1  0  0  0  0
 15  4  1  0  0  0  0
  5  7  1  0  0  0  0
M  END
>  <IDNUMBER>
F3098-1918

>  <Chemical_Name>
(2E)-3-(4-tert-butylphenyl)prop-2-enoic acid

>  <PriceCoeff>
1.00

>  <CAS>
190125-60-1

>  <MW>
204.27

>  <Description>
solid

>  <FSP3>
0.31

>  <clogP>
3.68

>  <TPSA>
37.30

>  <Acceptor>
2

>  <Donor>
0

>  <RotBonds>
3

>  <HAC>
15

>  <Collection>
General

>  <PPDS>
+

$$$$
F3098-4784
  Mrv2219 10102508112D          

 21 21  0  0  0  0            999 V2000
    8.7875   -2.6750    0.0000 C   0  0  0  0  0  0  0  0  0  0  0  0
    8.0750   -3.0875    0.0000 C   0  0  0  0  0  0  0  0  0  0  0  0
    5.2167   -3.1000    0.0000 C   0  0  0  0  0  0  0  0  0  0  0  0
    7.3542   -2.6792    0.0000 C   0  0  0  0  0  0  0  0  0  0  0  0
    9.5042   -3.0792    0.0000 N   0  0  0  0  0  0  0  0  0  0  0  0
    5.2167   -3.9250    0.0000 C   0  0  0  0  0  0  0  0  0  0  0  0
    5.9292   -2.6792    0.0000 C   0  0  0  0  0  0  0  0  0  0  0  0
    8.7792   -1.8500    0.0000 O   0  0  0  0  0  0  0  0  0  0  0  0
    6.6417   -3.0917    0.0000 C   0  0  0  0  0  0  0  0  0  0  0  0
    5.9292   -4.3375    0.0000 C   0  0  0  0  0  0  0  0  0  0  0  0
    6.6417   -3.9250    0.0000 C   0  0  0  0  0  0  0  0  0  0  0  0
   10.2167   -3.4917    0.0000 C   0  0  0  0  0  0  0  0  0  0  0  0
    4.5042   -2.6875    0.0000 O   0  0  0  0  0  0  0  0  0  0  0  0
    4.5000   -4.3375    0.0000 O   0  0  0  0  0  0  0  0  0  0  0  0
   10.2167   -4.3167    0.0000 C   0  0  0  0  0  0  0  0  0  0  0  0
    4.5042   -1.8625    0.0000 C   0  0  0  0  0  0  0  0  0  0  0  0
    3.7875   -3.9250    0.0000 C   0  0  0  0  0  0  0  0  0  0  0  0
   10.9375   -4.7292    0.0000 C   0  0  0  0  0  0  0  0  0  0  0  0
    9.5042   -4.7292    0.0000 C   0  0  0  0  0  0  0  0  0  0  0  0
    3.0667   -4.3375    0.0000 C   0  0  0  0  0  0  0  0  0  0  0  0
    3.7875   -1.4500    0.0000 C   0  0  0  0  0  0  0  0  0  0  0  0
  2  1  1  0  0  0  0
  3  7  1  0  0  0  0
  4  2  2  0  0  0  0
  5  1  1  0  0  0  0
  6 10  1  0  0  0  0
  7  9  2  0  0  0  0
  8  1  2  0  0  0  0
  9  4  1  0  0  0  0
 10 11  2  0  0  0  0
 11  9  1  0  0  0  0
 12  5  1  0  0  0  0
 13  3  1  0  0  0  0
 14  6  1  0  0  0  0
 15 12  1  0  0  0  0
 16 13  1  0  0  0  0
 17 14  1  0  0  0  0
 18 15  1  0  0  0  0
 19 15  1  0  0  0  0
 20 17  1  0  0  0  0
 21 16  1  0  0  0  0
  6  3  2  0  0  0  0
M  END
>  <IDNUMBER>
F3098-4784

>  <Chemical_Name>
(2E)-3-(3,4-diethoxyphenyl)-N-(2-methylpropyl)prop-2-enamide

>  <PriceCoeff>
1.00

>  <CAS>
496039-36-2

>  <MW>
291.39

>  <Description>
solid

>  <FSP3>
0.47

>  <clogP>
3.98

>  <TPSA>
47.56

>  <Acceptor>
3

>  <Donor>
1

>  <RotBonds>
8

>  <HAC>
21

>  <Collection>
General

>  <PPDS>
+

$$$$
F3098-5261
  Mrv2219 10102508112D          

 26 29  0  0  0  0            999 V2000
    6.5009   -3.4238    0.0000 C   0  0  0  0  0  0  0  0  0  0  0  0
    5.7787   -3.8371    0.0000 C   0  0  0  0  0  0  0  0  0  0  0  0
    5.0605   -3.4113    0.0000 C   0  0  0  0  0  0  0  0  0  0  0  0
    6.5009   -2.5845    0.0000 C   0  0  0  0  0  0  0  0  0  0  0  0
    5.0647   -2.5845    0.0000 C   0  0  0  0  0  0  0  0  0  0  0  0
    5.7787   -2.1712    0.0000 O   0  0  0  0  0  0  0  0  0  0  0  0
    4.3465   -3.8371    0.0000 C   0  0  0  0  0  0  0  0  0  0  0  0
    4.3465   -2.1712    0.0000 C   0  0  0  0  0  0  0  0  0  0  0  0
    7.2149   -3.8371    0.0000 C   0  0  0  0  0  0  0  0  0  0  0  0
    5.7744   -4.6638    0.0000 O   0  0  0  0  0  0  0  0  0  0  0  0
    1.3320   -2.0585    0.0000 C   0  0  0  0  0  0  0  0  0  0  0  0
    2.0292   -1.6659    0.0000 C   0  0  0  0  0  0  0  0  0  0  0  0
    3.6325   -2.5971    0.0000 C   0  0  0  0  0  0  0  0  0  0  0  0
    0.6430   -1.6534    0.0000 C   0  0  0  0  0  0  0  0  0  0  0  0
    2.9185   -2.1837    0.0000 O   0  0  0  0  0  0  0  0  0  0  0  0
    3.6325   -3.4238    0.0000 C   0  0  0  0  0  0  0  0  0  0  0  0
    7.9289   -3.4238    0.0000 C   0  0  0  0  0  0  0  0  0  0  0  0
    7.2066   -4.6638    0.0000 C   0  0  0  0  0  0  0  0  0  0  0  0
    1.3277   -2.8559    0.0000 C   0  0  0  0  0  0  0  0  0  0  0  0
    0.6513   -0.8518    0.0000 C   0  0  0  0  0  0  0  0  0  0  0  0
   -0.0501   -2.0459    0.0000 C   0  0  0  0  0  0  0  0  0  0  0  0
   -0.0584   -2.8476    0.0000 C   0  0  0  0  0  0  0  0  0  0  0  0
    8.6429   -3.8371    0.0000 C   0  0  0  0  0  0  0  0  0  0  0  0
    0.6305   -3.2484    0.0000 C   0  0  0  0  0  0  0  0  0  0  0  0
    7.9206   -5.0772    0.0000 C   0  0  0  0  0  0  0  0  0  0  0  0
    8.6429   -4.6638    0.0000 C   0  0  0  0  0  0  0  0  0  0  0  0
  2  1  1  0  0  0  0
  3  2  1  0  0  0  0
  4  1  2  0  0  0  0
  5  6  1  0  0  0  0
  6  4  1  0  0  0  0
  7  3  2  0  0  0  0
  8  5  2  0  0  0  0
  9  1  1  0  0  0  0
 10  2  2  0  0  0  0
 11 12  1  0  0  0  0
 12 15  1  0  0  0  0
 13  8  1  0  0  0  0
 14 11  2  0  0  0  0
 15 13  1  0  0  0  0
 16  7  1  0  0  0  0
 17  9  1  0  0  0  0
 18  9  2  0  0  0  0
 19 11  1  0  0  0  0
 20 14  1  0  0  0  0
 21 14  1  0  0  0  0
 22 24  1  0  0  0  0
 23 17  2  0  0  0  0
 24 19  2  0  0  0  0
 25 18  1  0  0  0  0
 26 25  2  0  0  0  0
  5  3  1  0  0  0  0
 26 23  1  0  0  0  0
 13 16  2  0  0  0  0
 22 21  2  0  0  0  0
M  END
>  <IDNUMBER>
F3098-5261

>  <Chemical_Name>
7-[(2-methylphenyl)methoxy]-3-phenyl-4H-chromen-4-one

>  <PriceCoeff>
1.00

>  <CAS>
773150-67-7

>  <MW>
342.39

>  <Description>
solid

>  <FSP3>
0.09

>  <clogP>
5.30

>  <TPSA>
35.53

>  <Acceptor>
3

>  <Donor>
0

>  <RotBonds>
4

>  <HAC>
26

>  <Collection>
General

>  <PPDS>
+

$$$$
F3099-3874
  Mrv2219 10102508112D          

 25 26  0  0  0  0            999 V2000
    0.3531   -2.3749    0.0000 N   0  3  0  0  0  0  0  0  0  0  0  0
    0.3415    2.5805    0.0000 N   0  3  0  0  0  0  0  0  0  0  0  0
   -0.3725   -1.9557    0.0000 C   0  0  0  0  0  0  0  0  0  0  0  0
    0.3415    1.7656    0.0000 C   0  0  0  0  0  0  0  0  0  0  0  0
    1.0594    1.3504    0.0000 C   0  0  0  0  0  0  0  0  0  0  0  0
   -1.0710   -2.3749    0.0000 C   0  0  0  0  0  0  0  0  0  0  0  0
   -0.3725   -1.1331    0.0000 C   0  0  0  0  0  0  0  0  0  0  0  0
   -0.3841    1.3504    0.0000 C   0  0  0  0  0  0  0  0  0  0  0  0
    1.0245    3.0694    0.0000 O   0  5  0  0  0  0  0  0  0  0  0  0
    0.3531   -3.1936    0.0000 O   0  5  0  0  0  0  0  0  0  0  0  0
    1.7734   -0.7335    0.0000 C   0  0  0  0  0  0  0  0  0  0  0  0
    1.0710   -1.9557    0.0000 O   0  0  0  0  0  0  0  0  0  0  0  0
   -0.3376    3.0461    0.0000 O   0  0  0  0  0  0  0  0  0  0  0  0
    1.7734    0.0931    0.0000 N   0  0  0  0  0  0  0  0  0  0  0  0
    1.0594    0.5122    0.0000 C   0  0  0  0  0  0  0  0  0  0  0  0
    0.3531   -0.7335    0.0000 O   0  0  0  0  0  0  0  0  0  0  0  0
    2.4836   -1.1331    0.0000 O   0  0  0  0  0  0  0  0  0  0  0  0
   -1.0710   -0.7335    0.0000 C   0  0  0  0  0  0  0  0  0  0  0  0
   -0.3841    0.5122    0.0000 C   0  0  0  0  0  0  0  0  0  0  0  0
   -1.7811   -1.9557    0.0000 C   0  0  0  0  0  0  0  0  0  0  0  0
    1.0517   -1.1331    0.0000 C   0  0  0  0  0  0  0  0  0  0  0  0
    0.3415    0.0931    0.0000 C   0  0  0  0  0  0  0  0  0  0  0  0
   -1.0827    1.7539    0.0000 Cl  0  0  0  0  0  0  0  0  0  0  0  0
   -1.7811   -1.1331    0.0000 C   0  0  0  0  0  0  0  0  0  0  0  0
   -2.5107   -2.3749    0.0000 Br  0  0  0  0  0  0  0  0  0  0  0  0
  2  4  1  0  0  0  0
  3  1  1  0  0  0  0
  4  5  1  0  0  0  0
  5 15  2  0  0  0  0
  6  3  1  0  0  0  0
  7  3  2  0  0  0  0
  8 19  1  0  0  0  0
  9  2  1  0  0  0  0
 10  1  1  0  0  0  0
 11 21  1  0  0  0  0
 12  1  2  0  0  0  0
 13  2  2  0  0  0  0
 14 11  1  0  0  0  0
 15 14  1  0  0  0  0
 16  7  1  0  0  0  0
 17 11  2  0  0  0  0
 18  7  1  0  0  0  0
 19 22  2  0  0  0  0
 20  6  2  0  0  0  0
 21 16  1  0  0  0  0
 22 15  1  0  0  0  0
 23  8  1  0  0  0  0
 24 18  2  0  0  0  0
 25 20  1  0  0  0  0
 20 24  1  0  0  0  0
  8  4  2  0  0  0  0
M  CHG  4   1   1   2   1   9  -1  10  -1
M  END
>  <IDNUMBER>
F3099-3874

>  <Chemical_Name>
2-(4-bromo-2-nitrophenoxy)-N-(4-chloro-3-nitrophenyl)acetamide

>  <PriceCoeff>
1.00

>  <CAS>
685853-18-3

>  <MW>
430.59

>  <Description>
solid

>  <FSP3>
0.07

>  <clogP>
4.30

>  <TPSA>
124.61

>  <Acceptor>
6

>  <Donor>
1

>  <RotBonds>
6

>  <HAC>
25

>  <Collection>
General

>  <PPDS>
+

$$$$
F3099-7561
  Mrv2219 10102508112D          

 21 22  0  0  0  0            999 V2000
    0.8800   -3.4100    0.0000 N   0  3  0  0  0  0  0  0  0  0  0  0
    0.1284   -4.6384    0.0000 C   0  0  0  0  0  0  0  0  0  0  0  0
    0.1284   -3.7996    0.0000 C   0  0  0  0  0  0  0  0  0  0  0  0
    0.8434   -5.0600    0.0000 C   0  0  0  0  0  0  0  0  0  0  0  0
   -0.5500   -3.4100    0.0000 C   0  0  0  0  0  0  0  0  0  0  0  0
   -0.5500   -5.0600    0.0000 C   0  0  0  0  0  0  0  0  0  0  0  0
    0.8434   -2.5850    0.0000 O   0  5  0  0  0  0  0  0  0  0  0  0
    1.5950   -3.7996    0.0000 O   0  0  0  0  0  0  0  0  0  0  0  0
    1.5584   -4.6384    0.0000 O   0  0  0  0  0  0  0  0  0  0  0  0
    0.8434   -5.8850    0.0000 N   0  0  0  0  0  0  0  0  0  0  0  0
   -1.2650   -3.7996    0.0000 C   0  0  0  0  0  0  0  0  0  0  0  0
   -1.2650   -4.6384    0.0000 C   0  0  0  0  0  0  0  0  0  0  0  0
   -1.9800   -3.4100    0.0000 Cl  0  0  0  0  0  0  0  0  0  0  0  0
    1.5584   -6.2884    0.0000 C   0  0  0  0  0  0  0  0  0  0  0  0
    2.2734   -7.5350    0.0000 C   0  0  0  0  0  0  0  0  0  0  0  0
    1.5584   -7.1134    0.0000 C   0  0  0  0  0  0  0  0  0  0  0  0
    2.9884   -7.1134    0.0000 C   0  0  0  0  0  0  0  0  0  0  0  0
    2.2734   -8.3600    0.0000 C   0  0  0  0  0  0  0  0  0  0  0  0
    3.7034   -7.5350    0.0000 C   0  0  0  0  0  0  0  0  0  0  0  0
    2.9884   -8.7634    0.0000 C   0  0  0  0  0  0  0  0  0  0  0  0
    3.7034   -8.3600    0.0000 C   0  0  0  0  0  0  0  0  0  0  0  0
  2  3  1  0  0  0  0
  3  1  1  0  0  0  0
  4  2  1  0  0  0  0
  5  3  2  0  0  0  0
  6  2  2  0  0  0  0
  7  1  1  0  0  0  0
  8  1  2  0  0  0  0
  9  4  2  0  0  0  0
 10  4  1  0  0  0  0
 11  5  1  0  0  0  0
 12 11  2  0  0  0  0
 13 11  1  0  0  0  0
 14 10  1  0  0  0  0
 15 16  1  0  0  0  0
 16 14  1  0  0  0  0
 17 15  1  0  0  0  0
 18 15  2  0  0  0  0
 19 17  2  0  0  0  0
 20 18  1  0  0  0  0
 21 20  2  0  0  0  0
  6 12  1  0  0  0  0
 19 21  1  0  0  0  0
M  CHG  2   1   1   7  -1
M  END
>  <IDNUMBER>
F3099-7561

>  <Chemical_Name>
4-chloro-2-nitro-N-(2-phenylethyl)benzamide

>  <PriceCoeff>
1.00

>  <CAS>
284487-93-0

>  <MW>
304.73

>  <Description>
solid

>  <FSP3>
0.13

>  <clogP>
3.02

>  <TPSA>
72.24

>  <Acceptor>
3

>  <Donor>
1

>  <RotBonds>
5

>  <HAC>
21

>  <Collection>
General

>  <PPDS>
+

$$$$
F3110-2246
  Mrv2219 10102508112D          

 13 14  0  0  0  0            999 V2000
    2.7625   -1.9167    0.0000 C   0  0  0  0  0  0  0  0  0  0  0  0
    3.4792   -2.3292    0.0000 C   0  0  0  0  0  0  0  0  0  0  0  0
    2.0417   -2.3292    0.0000 C   0  0  0  0  0  0  0  0  0  0  0  0
    3.4792   -3.1542    0.0000 O   0  0  0  0  0  0  0  0  0  0  0  0
    1.3292   -1.9167    0.0000 C   0  0  0  0  0  0  0  0  0  0  0  0
    4.1917   -1.9167    0.0000 O   0  0  0  0  0  0  0  0  0  0  0  0
    2.7625   -1.0917    0.0000 C   0  0  0  0  0  0  0  0  0  0  0  0
    2.0500   -3.1542    0.0000 C   0  0  0  0  0  0  0  0  0  0  0  0
    2.0417   -0.6792    0.0000 C   0  0  0  0  0  0  0  0  0  0  0  0
    1.3292   -1.0917    0.0000 C   0  0  0  0  0  0  0  0  0  0  0  0
    0.6167   -2.3292    0.0000 C   0  0  0  0  0  0  0  0  0  0  0  0
    1.3417   -3.5667    0.0000 C   0  0  0  0  0  0  0  0  0  0  0  0
    0.6167   -3.1542    0.0000 C   0  0  0  0  0  0  0  0  0  0  0  0
  2  1  1  0  0  0  0
  3  1  2  0  0  0  0
  4  2  2  0  0  0  0
  5  3  1  0  0  0  0
  6  2  1  0  0  0  0
  7  1  1  0  0  0  0
  8  3  1  0  0  0  0
  9  7  2  0  0  0  0
 10  9  1  0  0  0  0
 11  5  1  0  0  0  0
 12  8  2  0  0  0  0
 13 12  1  0  0  0  0
  5 10  2  0  0  0  0
 11 13  2  0  0  0  0
M  END
>  <IDNUMBER>
F3110-2246

>  <Chemical_Name>
naphthalene-1-carboxylic acid

>  <PriceCoeff>
1.00

>  <CAS>
86-55-5

>  <MW>
172.18

>  <Description>
solid

>  <FSP3>
0.00

>  <clogP>
2.54

>  <TPSA>
37.30

>  <Acceptor>
2

>  <Donor>
0

>  <RotBonds>
1

>  <HAC>
13

>  <Collection>
General

$$$$
F3111-2122
  Mrv2219 10102508112D          

 30 33  0  0  0  0            999 V2000
    5.6433   -4.6362    0.0000 N   0  0  0  0  0  0  0  0  0  0  0  0
    5.8972   -5.4227    0.0000 C   0  0  0  0  0  0  0  0  0  0  0  0
    4.8109   -4.6320    0.0000 C   0  0  0  0  0  0  0  0  0  0  0  0
    5.2230   -5.9097    0.0000 C   0  0  0  0  0  0  0  0  0  0  0  0
    5.2230   -6.7420    0.0000 N   0  0  0  0  0  0  0  0  0  0  0  0
    4.5571   -5.4186    0.0000 C   0  0  0  0  0  0  0  0  0  0  0  0
    5.9347   -7.1582    0.0000 C   0  0  0  0  0  0  0  0  0  0  0  0
    6.1344   -3.9703    0.0000 C   0  0  0  0  0  0  0  0  0  0  0  0
    4.4989   -7.1457    0.0000 C   0  0  0  0  0  0  0  0  0  0  0  0
    6.9584   -4.0619    0.0000 C   0  0  0  0  0  0  0  0  0  0  0  0
    4.4989   -7.9697    0.0000 C   0  0  0  0  0  0  0  0  0  0  0  0
    6.6837   -5.6850    0.0000 O   0  0  0  0  0  0  0  0  0  0  0  0
    4.3366   -3.9620    0.0000 O   0  0  0  0  0  0  0  0  0  0  0  0
    6.6463   -6.7462    0.0000 O   0  0  0  0  0  0  0  0  0  0  0  0
    5.9305   -7.9822    0.0000 C   0  0  0  0  0  0  0  0  0  0  0  0
    5.9180   -9.6261    0.0000 N   0  0  0  0  0  0  0  0  0  0  0  0
    3.7872   -8.3817    0.0000 C   0  0  0  0  0  0  0  0  0  0  0  0
    7.4454   -3.3960    0.0000 C   0  0  0  0  0  0  0  0  0  0  0  0
    5.8056   -3.2129    0.0000 C   0  0  0  0  0  0  0  0  0  0  0  0
    8.2694   -3.4833    0.0000 Cl  0  0  0  0  0  0  0  0  0  0  0  0
    3.7830   -9.2057    0.0000 Cl  0  0  0  0  0  0  0  0  0  0  0  0
    3.7872   -6.7295    0.0000 C   0  0  0  0  0  0  0  0  0  0  0  0
    6.2842   -2.5470    0.0000 C   0  0  0  0  0  0  0  0  0  0  0  0
    3.0714   -7.1332    0.0000 C   0  0  0  0  0  0  0  0  0  0  0  0
    5.2063   -9.2057    0.0000 C   0  0  0  0  0  0  0  0  0  0  0  0
    6.6338   -9.2140    0.0000 C   0  0  0  0  0  0  0  0  0  0  0  0
    5.2105   -8.3817    0.0000 C   0  0  0  0  0  0  0  0  0  0  0  0
    6.6338   -8.3942    0.0000 C   0  0  0  0  0  0  0  0  0  0  0  0
    7.1166   -2.6386    0.0000 C   0  0  0  0  0  0  0  0  0  0  0  0
    3.0631   -7.9655    0.0000 C   0  0  0  0  0  0  0  0  0  0  0  0
  2  1  1  0  0  0  0
  3  1  1  0  0  0  0
  4  2  1  0  0  0  0
  5  4  1  0  0  0  0
  6  3  1  0  0  0  0
  7  5  1  0  0  0  0
  8  1  1  0  0  0  0
  9  5  1  0  0  0  0
 10  8  2  0  0  0  0
 11  9  1  0  0  0  0
 12  2  2  0  0  0  0
 13  3  2  0  0  0  0
 14  7  2  0  0  0  0
 15  7  1  0  0  0  0
 16 26  1  0  0  0  0
 17 11  2  0  0  0  0
 18 10  1  0  0  0  0
 19  8  1  0  0  0  0
 20 18  1  0  0  0  0
 21 17  1  0  0  0  0
 22  9  2  0  0  0  0
 23 19  2  0  0  0  0
 24 22  1  0  0  0  0
 25 27  1  0  0  0  0
 26 28  2  0  0  0  0
 27 15  2  0  0  0  0
 28 15  1  0  0  0  0
 29 23  1  0  0  0  0
 30 24  2  0  0  0  0
  6  4  1  0  0  0  0
 18 29  2  0  0  0  0
 17 30  1  0  0  0  0
 25 16  2  0  0  0  0
M  END
>  <IDNUMBER>
F3111-2122

>  <Chemical_Name>
N-(3-chlorophenyl)-N-[1-(3-chlorophenyl)-2,5-dioxopyrrolidin-3-yl]pyridine-4-carboxamide

>  <PriceCoeff>
1.00

>  <MW>
440.28

>  <Description>
solid

>  <FSP3>
0.09

>  <clogP>
4.41

>  <TPSA>
70.58

>  <Acceptor>
4

>  <Donor>
1

>  <RotBonds>
5

>  <HAC>
30

>  <Collection>
General

$$$$
F3111-2313
  Mrv2219 10102508112D          

 15 16  0  0  0  0            999 V2000
   -0.6310   -0.0149    0.0000 N   0  0  0  0  0  0  0  0  0  0  0  0
   -1.0808    0.6822    0.0000 C   0  0  0  0  0  0  0  0  0  0  0  0
   -1.1427   -0.6481    0.0000 C   0  0  0  0  0  0  0  0  0  0  0  0
   -1.8781    0.4669    0.0000 C   0  0  0  0  0  0  0  0  0  0  0  0
   -1.9101   -0.3518    0.0000 C   0  0  0  0  0  0  0  0  0  0  0  0
    0.2068   -0.0149    0.0000 C   0  0  0  0  0  0  0  0  0  0  0  0
   -0.7845    1.4582    0.0000 O   0  0  0  0  0  0  0  0  0  0  0  0
   -0.9274   -1.4582    0.0000 O   0  0  0  0  0  0  0  0  0  0  0  0
    0.6289   -0.7312    0.0000 C   0  0  0  0  0  0  0  0  0  0  0  0
    0.6161    0.7014    0.0000 C   0  0  0  0  0  0  0  0  0  0  0  0
   -2.6072   -0.8122    0.0000 I   0  0  0  0  0  0  0  0  0  0  0  0
    1.4475    0.7014    0.0000 C   0  0  0  0  0  0  0  0  0  0  0  0
    1.4582   -0.7184    0.0000 C   0  0  0  0  0  0  0  0  0  0  0  0
    1.8569   -0.0149    0.0000 C   0  0  0  0  0  0  0  0  0  0  0  0
    2.6755   -0.0149    0.0000 C   0  0  0  0  0  0  0  0  0  0  0  0
  2  1  1  0  0  0  0
  3  1  1  0  0  0  0
  4  2  1  0  0  0  0
  5  3  1  0  0  0  0
  6  1  1  0  0  0  0
  7  2  2  0  0  0  0
  8  3  2  0  0  0  0
  9  6  2  0  0  0  0
 10  6  1  0  0  0  0
 11  5  1  0  0  0  0
 12 10  2  0  0  0  0
 13  9  1  0  0  0  0
 14 12  1  0  0  0  0
 15 14  1  0  0  0  0
  4  5  1  0  0  0  0
 14 13  2  0  0  0  0
M  END
>  <IDNUMBER>
F3111-2313

>  <Chemical_Name>
3-iodo-1-(4-methylphenyl)pyrrolidine-2,5-dione

>  <PriceCoeff>
1.00

>  <MW>
315.11

>  <Description>
solid

>  <FSP3>
0.27

>  <clogP>
1.58

>  <TPSA>
37.38

>  <Acceptor>
2

>  <Donor>
0

>  <RotBonds>
1

>  <HAC>
15

>  <Collection>
General

$$$$
F3111-3610
  Mrv2219 10102508112D          

 23 25  0  0  0  0            999 V2000
    0.6792   -1.5750    0.0000 C   0  0  0  0  0  0  0  0  0  0  0  0
   -0.0375   -1.9875    0.0000 C   0  0  0  0  0  0  0  0  0  0  0  0
    0.6792   -0.7417    0.0000 C   0  0  0  0  0  0  0  0  0  0  0  0
   -0.0375   -0.3292    0.0000 O   0  0  0  0  0  0  0  0  0  0  0  0
   -0.7583   -1.5667    0.0000 C   0  0  0  0  0  0  0  0  0  0  0  0
   -0.7500   -0.7417    0.0000 C   0  0  0  0  0  0  0  0  0  0  0  0
    1.3917   -1.9875    0.0000 C   0  0  0  0  0  0  0  0  0  0  0  0
    1.3917   -0.3375    0.0000 O   0  0  0  0  0  0  0  0  0  0  0  0
   -0.0458   -2.8125    0.0000 O   0  0  0  0  0  0  0  0  0  0  0  0
    2.1042   -1.5667    0.0000 C   0  0  0  0  0  0  0  0  0  0  0  0
    1.3917   -2.8125    0.0000 O   0  0  0  0  0  0  0  0  0  0  0  0
    2.8167   -1.9792    0.0000 O   0  0  0  0  0  0  0  0  0  0  0  0
    3.5292   -1.5667    0.0000 C   0  0  0  0  0  0  0  0  0  0  0  0
    4.9542   -0.7417    0.0000 C   0  0  0  0  0  0  0  0  0  0  0  0
    5.6667   -0.3292    0.0000 Br  0  0  0  0  0  0  0  0  0  0  0  0
   -1.4708   -1.9875    0.0000 C   0  0  0  0  0  0  0  0  0  0  0  0
    3.5292   -0.7500    0.0000 C   0  0  0  0  0  0  0  0  0  0  0  0
    4.2417   -1.9875    0.0000 C   0  0  0  0  0  0  0  0  0  0  0  0
    4.9542   -1.5750    0.0000 C   0  0  0  0  0  0  0  0  0  0  0  0
    4.2375   -0.3375    0.0000 C   0  0  0  0  0  0  0  0  0  0  0  0
   -1.4708   -0.3292    0.0000 C   0  0  0  0  0  0  0  0  0  0  0  0
   -2.1833   -1.5750    0.0000 C   0  0  0  0  0  0  0  0  0  0  0  0
   -2.1833   -0.7500    0.0000 C   0  0  0  0  0  0  0  0  0  0  0  0
  2  1  2  0  0  0  0
  3  1  1  0  0  0  0
  4  3  1  0  0  0  0
  5  2  1  0  0  0  0
  6  4  1  0  0  0  0
  7  1  1  0  0  0  0
  8  3  2  0  0  0  0
  9  2  1  0  0  0  0
 10  7  1  0  0  0  0
 11  7  2  0  0  0  0
 12 10  1  0  0  0  0
 13 12  1  0  0  0  0
 14 19  2  0  0  0  0
 15 14  1  0  0  0  0
 16  5  2  0  0  0  0
 17 13  1  0  0  0  0
 18 13  2  0  0  0  0
 19 18  1  0  0  0  0
 20 17  2  0  0  0  0
 21  6  2  0  0  0  0
 22 16  1  0  0  0  0
 23 21  1  0  0  0  0
  5  6  1  0  0  0  0
 22 23  2  0  0  0  0
 14 20  1  0  0  0  0
M  END
>  <IDNUMBER>
F3111-3610

>  <Chemical_Name>
3-[2-(4-bromophenoxy)acetyl]-4-hydroxy-2H-chromen-2-one

>  <PriceCoeff>
1.00

>  <MW>
375.17

>  <Description>
solid

>  <FSP3>
0.06

>  <clogP>
4.35

>  <TPSA>
72.83

>  <Acceptor>
5

>  <Donor>
1

>  <RotBonds>
4

>  <HAC>
23

>  <Collection>
General

$$$$
F3115-0020
  Mrv2219 10102508112D          

 25 27  0  0  0  0            999 V2000
    0.5617    0.6014    0.0000 N   0  0  0  0  0  0  0  0  0  0  0  0
    0.3145    1.3798    0.0000 C   0  0  0  0  0  0  0  0  0  0  0  0
   -0.0977    0.1191    0.0000 C   0  0  0  0  0  0  0  0  0  0  0  0
   -0.7479    0.6228    0.0000 C   0  0  0  0  0  0  0  0  0  0  0  0
   -0.5098    1.3798    0.0000 C   0  0  0  0  0  0  0  0  0  0  0  0
   -1.6088   -0.5495    0.0000 C   0  0  0  0  0  0  0  0  0  0  0  0
    1.3554    0.3633    0.0000 C   0  0  0  0  0  0  0  0  0  0  0  0
   -2.3445   -0.8792    0.0000 C   0  0  0  0  0  0  0  0  0  0  0  0
   -1.5172    0.2717    0.0000 S   0  0  0  0  0  0  0  0  0  0  0  0
   -3.0131   -0.3877    0.0000 C   0  0  0  0  0  0  0  0  0  0  0  0
    1.9538    0.9494    0.0000 C   0  0  0  0  0  0  0  0  0  0  0  0
   -0.9402   -1.0380    0.0000 N   0  0  0  0  0  0  0  0  0  0  0  0
    1.5600   -0.4244    0.0000 C   0  0  0  0  0  0  0  0  0  0  0  0
    0.8090    2.0515    0.0000 O   0  0  0  0  0  0  0  0  0  0  0  0
   -0.0977   -0.7174    0.0000 O   0  0  0  0  0  0  0  0  0  0  0  0
    2.7475    0.7204    0.0000 C   0  0  0  0  0  0  0  0  0  0  0  0
   -3.7702   -0.7174    0.0000 O   0  0  0  0  0  0  0  0  0  0  0  0
    1.7706    1.7462    0.0000 Br  0  0  0  0  0  0  0  0  0  0  0  0
   -2.9276    0.4365    0.0000 O   0  0  0  0  0  0  0  0  0  0  0  0
    2.3659   -0.6625    0.0000 C   0  0  0  0  0  0  0  0  0  0  0  0
    2.9521   -0.0641    0.0000 C   0  0  0  0  0  0  0  0  0  0  0  0
   -2.4544   -1.7065    0.0000 C   0  0  0  0  0  0  0  0  0  0  0  0
   -1.0257   -1.8531    0.0000 C   0  0  0  0  0  0  0  0  0  0  0  0
    3.7489   -0.2473    0.0000 C   0  0  0  0  0  0  0  0  0  0  0  0
   -1.7828   -2.1828    0.0000 C   0  0  0  0  0  0  0  0  0  0  0  0
  2  1  1  0  0  0  0
  3  1  1  0  0  0  0
  4  3  1  0  0  0  0
  5  2  1  0  0  0  0
  6  9  1  0  0  0  0
  7  1  1  0  0  0  0
  8  6  2  0  0  0  0
  9  4  1  0  0  0  0
 10  8  1  0  0  0  0
 11  7  2  0  0  0  0
 12  6  1  0  0  0  0
 13  7  1  0  0  0  0
 14  2  2  0  0  0  0
 15  3  2  0  0  0  0
 16 11  1  0  0  0  0
 17 10  2  0  0  0  0
 18 11  1  0  0  0  0
 19 10  1  0  0  0  0
 20 13  2  0  0  0  0
 21 20  1  0  0  0  0
 22  8  1  0  0  0  0
 23 12  2  0  0  0  0
 24 21  1  0  0  0  0
 25 23  1  0  0  0  0
  5  4  1  0  0  0  0
 16 21  2  0  0  0  0
 25 22  2  0  0  0  0
M  END
>  <IDNUMBER>
F3115-0020

>  <Chemical_Name>
2-{[1-(2-bromo-4-methylphenyl)-2,5-dioxopyrrolidin-3-yl]sulfanyl}pyridine-3-carboxylic acid

>  <PriceCoeff>
1.00

>  <CAS>
496779-20-5

>  <MW>
421.27

>  <Description>
solid

>  <FSP3>
0.18

>  <clogP>
2.69

>  <TPSA>
112.87

>  <Acceptor>
5

>  <Donor>
1

>  <RotBonds>
4

>  <HAC>
25

>  <Collection>
General

>  <PPDS>
+

$$$$
F3115-0023
  Mrv2219 10102508112D          

 24 26  0  0  0  0            999 V2000
    0.5612    0.6008    0.0000 N   0  0  0  0  0  0  0  0  0  0  0  0
    0.3142    1.3786    0.0000 C   0  0  0  0  0  0  0  0  0  0  0  0
   -0.0976    0.1190    0.0000 C   0  0  0  0  0  0  0  0  0  0  0  0
   -0.7472    0.6222    0.0000 C   0  0  0  0  0  0  0  0  0  0  0  0
   -0.5093    1.3786    0.0000 C   0  0  0  0  0  0  0  0  0  0  0  0
   -2.3424   -0.8784    0.0000 C   0  0  0  0  0  0  0  0  0  0  0  0
   -1.5158    0.2714    0.0000 S   0  0  0  0  0  0  0  0  0  0  0  0
   -1.6073   -0.5490    0.0000 C   0  0  0  0  0  0  0  0  0  0  0  0
   -3.0104   -0.3874    0.0000 C   0  0  0  0  0  0  0  0  0  0  0  0
    1.3542    0.3629    0.0000 C   0  0  0  0  0  0  0  0  0  0  0  0
    0.8083    2.0496    0.0000 O   0  0  0  0  0  0  0  0  0  0  0  0
   -0.0976   -0.7168    0.0000 O   0  0  0  0  0  0  0  0  0  0  0  0
   -3.7668   -0.7168    0.0000 O   0  0  0  0  0  0  0  0  0  0  0  0
    1.9520    0.9485    0.0000 C   0  0  0  0  0  0  0  0  0  0  0  0
    1.5586   -0.4240    0.0000 C   0  0  0  0  0  0  0  0  0  0  0  0
   -2.9250    0.4361    0.0000 O   0  0  0  0  0  0  0  0  0  0  0  0
    2.9494   -0.0641    0.0000 C   0  0  0  0  0  0  0  0  0  0  0  0
    2.3638   -0.6619    0.0000 C   0  0  0  0  0  0  0  0  0  0  0  0
    2.7450    0.7198    0.0000 C   0  0  0  0  0  0  0  0  0  0  0  0
    3.7455   -0.2562    0.0000 I   0  0  0  0  0  0  0  0  0  0  0  0
   -2.4522   -1.7050    0.0000 C   0  0  0  0  0  0  0  0  0  0  0  0
   -0.9394   -1.0370    0.0000 C   0  0  0  0  0  0  0  0  0  0  0  0
   -1.7812   -2.1808    0.0000 C   0  0  0  0  0  0  0  0  0  0  0  0
   -1.0248   -1.8514    0.0000 C   0  0  0  0  0  0  0  0  0  0  0  0
  2  1  1  0  0  0  0
  3  1  1  0  0  0  0
  4  3  1  0  0  0  0
  5  2  1  0  0  0  0
  6  8  2  0  0  0  0
  7  4  1  0  0  0  0
  8  7  1  0  0  0  0
  9  6  1  0  0  0  0
 10  1  1  0  0  0  0
 11  2  2  0  0  0  0
 12  3  2  0  0  0  0
 13  9  2  0  0  0  0
 14 10  1  0  0  0  0
 15 10  2  0  0  0  0
 16  9  1  0  0  0  0
 17 18  2  0  0  0  0
 18 15  1  0  0  0  0
 19 14  2  0  0  0  0
 20 17  1  0  0  0  0
 21  6  1  0  0  0  0
 22  8  1  0  0  0  0
 23 24  1  0  0  0  0
 24 22  2  0  0  0  0
  5  4  1  0  0  0  0
 19 17  1  0  0  0  0
 23 21  2  0  0  0  0
M  END
>  <IDNUMBER>
F3115-0023

>  <Chemical_Name>
2-{[1-(4-iodophenyl)-2,5-dioxopyrrolidin-3-yl]sulfanyl}benzoic acid

>  <PriceCoeff>
1.00

>  <CAS>
514182-09-3

>  <MW>
453.25

>  <Description>
solid

>  <FSP3>
0.12

>  <clogP>
3.47

>  <TPSA>
99.98

>  <Acceptor>
4

>  <Donor>
0

>  <RotBonds>
4

>  <HAC>
24

>  <Collection>
General

>  <PPDS>
+

$$$$
F3115-0024
  Mrv2219 10102508112D          

 28 30  0  0  0  0            999 V2000
   -0.2519    0.0724    0.0000 N   0  0  0  0  0  0  0  0  0  0  0  0
   -1.5113    0.7053    0.0000 C   0  0  0  0  0  0  0  0  0  0  0  0
    0.1543    0.7808    0.0000 C   0  0  0  0  0  0  0  0  0  0  0  0
   -1.0831    0.0094    0.0000 C   0  0  0  0  0  0  0  0  0  0  0  0
    0.2771   -0.5667    0.0000 C   0  0  0  0  0  0  0  0  0  0  0  0
   -1.1209    1.4326    0.0000 N   0  3  0  0  0  0  0  0  0  0  0  0
    1.0422   -0.2299    0.0000 C   0  0  0  0  0  0  0  0  0  0  0  0
    0.9572    0.5919    0.0000 C   0  0  0  0  0  0  0  0  0  0  0  0
    3.1266   -0.8533    0.0000 C   0  0  0  0  0  0  0  0  0  0  0  0
    1.7002   -0.7179    0.0000 S   0  0  0  0  0  0  0  0  0  0  0  0
    2.4685   -0.3778    0.0000 C   0  0  0  0  0  0  0  0  0  0  0  0
    3.0636   -1.6751    0.0000 C   0  0  0  0  0  0  0  0  0  0  0  0
   -2.3426    0.6675    0.0000 C   0  0  0  0  0  0  0  0  0  0  0  0
   -1.4452   -0.7305    0.0000 C   0  0  0  0  0  0  0  0  0  0  0  0
   -0.6140    1.4798    0.0000 O   0  5  0  0  0  0  0  0  0  0  0  0
    0.1133    1.4798    0.0000 O   0  0  0  0  0  0  0  0  0  0  0  0
   -1.5082    2.1631    0.0000 O   0  0  0  0  0  0  0  0  0  0  0  0
    0.1133   -1.3728    0.0000 O   0  0  0  0  0  0  0  0  0  0  0  0
    3.7248   -2.1568    0.0000 O   0  0  0  0  0  0  0  0  0  0  0  0
   -2.7204   -0.0661    0.0000 C   0  0  0  0  0  0  0  0  0  0  0  0
   -2.2670   -0.7840    0.0000 C   0  0  0  0  0  0  0  0  0  0  0  0
    2.3079   -2.0403    0.0000 O   0  0  0  0  0  0  0  0  0  0  0  0
    3.8760   -0.5290    0.0000 C   0  0  0  0  0  0  0  0  0  0  0  0
   -3.5484   -0.0787    0.0000 O   0  0  0  0  0  0  0  0  0  0  0  0
    2.5441    0.4251    0.0000 C   0  0  0  0  0  0  0  0  0  0  0  0
   -3.9830    0.6140    0.0000 C   0  0  0  0  0  0  0  0  0  0  0  0
    3.9578    0.3023    0.0000 C   0  0  0  0  0  0  0  0  0  0  0  0
    3.2903    0.7934    0.0000 C   0  0  0  0  0  0  0  0  0  0  0  0
  2  4  2  0  0  0  0
  3  1  1  0  0  0  0
  4  1  1  0  0  0  0
  5  1  1  0  0  0  0
  6  2  1  0  0  0  0
  7  5  1  0  0  0  0
  8  3  1  0  0  0  0
  9 11  2  0  0  0  0
 10  7  1  0  0  0  0
 11 10  1  0  0  0  0
 12  9  1  0  0  0  0
 13  2  1  0  0  0  0
 14  4  1  0  0  0  0
 15  6  1  0  0  0  0
 16  3  2  0  0  0  0
 17  6  2  0  0  0  0
 18  5  2  0  0  0  0
 19 12  2  0  0  0  0
 20 21  1  0  0  0  0
 21 14  2  0  0  0  0
 22 12  1  0  0  0  0
 23  9  1  0  0  0  0
 24 20  1  0  0  0  0
 25 11  1  0  0  0  0
 26 24  1  0  0  0  0
 27 28  1  0  0  0  0
 28 25  2  0  0  0  0
  7  8  1  0  0  0  0
 20 13  2  0  0  0  0
 27 23  2  0  0  0  0
M  CHG  2   6   1  15  -1
M  END
>  <IDNUMBER>
F3115-0024

>  <Chemical_Name>
2-{[1-(4-methoxy-2-nitrophenyl)-2,5-dioxopyrrolidin-3-yl]sulfanyl}benzoic acid

>  <PriceCoeff>
1.00

>  <CAS>
514182-18-4

>  <MW>
402.38

>  <Description>
solid

>  <FSP3>
0.17

>  <clogP>
2.48

>  <TPSA>
152.35

>  <Acceptor>
7

>  <Donor>
0

>  <RotBonds>
6

>  <HAC>
28

>  <Collection>
General

>  <PPDS>
+

$$$$
F3115-0039
  Mrv2219 10102508112D          

 23 25  0  0  0  0            999 V2000
    1.0635   -2.1938    0.0000 N   0  0  0  0  0  0  0  0  0  0  0  0
    1.5432   -1.5181    0.0000 C   0  0  0  0  0  0  0  0  0  0  0  0
    1.5515   -2.8569    0.0000 C   0  0  0  0  0  0  0  0  0  0  0  0
    2.3314   -2.5942    0.0000 C   0  0  0  0  0  0  0  0  0  0  0  0
    2.3314   -1.7684    0.0000 C   0  0  0  0  0  0  0  0  0  0  0  0
    0.2377   -2.2021    0.0000 C   0  0  0  0  0  0  0  0  0  0  0  0
   -0.1752   -1.4931    0.0000 C   0  0  0  0  0  0  0  0  0  0  0  0
    3.0070   -3.0821    0.0000 N   0  0  0  0  0  0  0  0  0  0  0  0
   -0.1710   -2.9153    0.0000 C   0  0  0  0  0  0  0  0  0  0  0  0
    1.2804   -0.7382    0.0000 O   0  0  0  0  0  0  0  0  0  0  0  0
    1.3012   -3.6451    0.0000 O   0  0  0  0  0  0  0  0  0  0  0  0
   -1.0009   -1.4931    0.0000 C   0  0  0  0  0  0  0  0  0  0  0  0
    3.7578   -2.7401    0.0000 C   0  0  0  0  0  0  0  0  0  0  0  0
    0.2294   -0.7757    0.0000 Br  0  0  0  0  0  0  0  0  0  0  0  0
   -0.9884   -2.9195    0.0000 C   0  0  0  0  0  0  0  0  0  0  0  0
   -1.4096   -2.2146    0.0000 C   0  0  0  0  0  0  0  0  0  0  0  0
    5.2592   -2.0645    0.0000 C   0  0  0  0  0  0  0  0  0  0  0  0
    6.0099   -1.7183    0.0000 F   0  0  0  0  0  0  0  0  0  0  0  0
    4.4209   -3.2197    0.0000 C   0  0  0  0  0  0  0  0  0  0  0  0
    3.8328   -1.9185    0.0000 C   0  0  0  0  0  0  0  0  0  0  0  0
    4.5835   -1.5807    0.0000 C   0  0  0  0  0  0  0  0  0  0  0  0
    5.1799   -2.8819    0.0000 C   0  0  0  0  0  0  0  0  0  0  0  0
   -2.2354   -2.2188    0.0000 C   0  0  0  0  0  0  0  0  0  0  0  0
  2  1  1  0  0  0  0
  3  1  1  0  0  0  0
  4  3  1  0  0  0  0
  5  2  1  0  0  0  0
  6  1  1  0  0  0  0
  7  6  1  0  0  0  0
  8  4  1  0  0  0  0
  9  6  2  0  0  0  0
 10  2  2  0  0  0  0
 11  3  2  0  0  0  0
 12  7  2  0  0  0  0
 13  8  1  0  0  0  0
 14  7  1  0  0  0  0
 15  9  1  0  0  0  0
 16 15  2  0  0  0  0
 17 21  1  0  0  0  0
 18 17  1  0  0  0  0
 19 13  2  0  0  0  0
 20 13  1  0  0  0  0
 21 20  2  0  0  0  0
 22 19  1  0  0  0  0
 23 16  1  0  0  0  0
  4  5  1  0  0  0  0
 12 16  1  0  0  0  0
 22 17  2  0  0  0  0
M  END
>  <IDNUMBER>
F3115-0039

>  <Chemical_Name>
1-(2-bromo-4-methylphenyl)-3-[(4-fluorophenyl)amino]pyrrolidine-2,5-dione

>  <PriceCoeff>
1.00

>  <CAS>
473705-03-2

>  <MW>
377.21

>  <Description>
solid

>  <FSP3>
0.18

>  <clogP>
4.11

>  <TPSA>
49.41

>  <Acceptor>
3

>  <Donor>
1

>  <RotBonds>
3

>  <HAC>
23

>  <Collection>
General

>  <PPDS>
+

$$$$
F3115-0051
  Mrv2219 10102508112D          

 29 31  0  0  0  0            999 V2000
   -0.8708   -0.6250    0.0000 N   0  0  0  0  0  0  0  0  0  0  0  0
   -2.0750    0.0833    0.0000 C   0  0  0  0  0  0  0  0  0  0  0  0
   -0.3833    0.0458    0.0000 C   0  0  0  0  0  0  0  0  0  0  0  0
   -1.6958   -0.6292    0.0000 C   0  0  0  0  0  0  0  0  0  0  0  0
   -0.3750   -1.2917    0.0000 C   0  0  0  0  0  0  0  0  0  0  0  0
   -1.7583    0.8083    0.0000 N   0  3  0  0  0  0  0  0  0  0  0  0
    0.4042   -1.0292    0.0000 C   0  0  0  0  0  0  0  0  0  0  0  0
    0.4042   -0.2042    0.0000 C   0  0  0  0  0  0  0  0  0  0  0  0
    2.4917   -1.6542    0.0000 C   0  0  0  0  0  0  0  0  0  0  0  0
    1.0750   -1.5125    0.0000 S   0  0  0  0  0  0  0  0  0  0  0  0
    1.8292   -1.1750    0.0000 C   0  0  0  0  0  0  0  0  0  0  0  0
    2.4125   -2.4792    0.0000 C   0  0  0  0  0  0  0  0  0  0  0  0
   -2.9333    0.0833    0.0000 C   0  0  0  0  0  0  0  0  0  0  0  0
   -2.0958   -1.3417    0.0000 C   0  0  0  0  0  0  0  0  0  0  0  0
   -1.2208    0.8083    0.0000 O   0  5  0  0  0  0  0  0  0  0  0  0
   -0.5250    0.7708    0.0000 O   0  0  0  0  0  0  0  0  0  0  0  0
   -2.0833    1.5208    0.0000 O   0  0  0  0  0  0  0  0  0  0  0  0
   -0.6333   -2.0750    0.0000 O   0  0  0  0  0  0  0  0  0  0  0  0
    3.0792   -2.9625    0.0000 O   0  0  0  0  0  0  0  0  0  0  0  0
   -3.3375   -0.6375    0.0000 C   0  0  0  0  0  0  0  0  0  0  0  0
   -2.9208   -1.3500    0.0000 C   0  0  0  0  0  0  0  0  0  0  0  0
    1.6542   -2.8167    0.0000 O   0  0  0  0  0  0  0  0  0  0  0  0
    3.2500   -1.3167    0.0000 C   0  0  0  0  0  0  0  0  0  0  0  0
   -4.1625   -0.6417    0.0000 O   0  0  0  0  0  0  0  0  0  0  0  0
    1.9042   -0.3542    0.0000 C   0  0  0  0  0  0  0  0  0  0  0  0
   -4.5833    0.0708    0.0000 C   0  0  0  0  0  0  0  0  0  0  0  0
    3.3292   -0.4917    0.0000 C   0  0  0  0  0  0  0  0  0  0  0  0
    2.6542   -0.0167    0.0000 C   0  0  0  0  0  0  0  0  0  0  0  0
   -5.4083    0.0625    0.0000 C   0  0  0  0  0  0  0  0  0  0  0  0
  2  4  2  0  0  0  0
  3  1  1  0  0  0  0
  4  1  1  0  0  0  0
  5  1  1  0  0  0  0
  6  2  1  0  0  0  0
  7  5  1  0  0  0  0
  8  3  1  0  0  0  0
  9 11  2  0  0  0  0
 10  7  1  0  0  0  0
 11 10  1  0  0  0  0
 12  9  1  0  0  0  0
 13  2  1  0  0  0  0
 14  4  1  0  0  0  0
 15  6  1  0  0  0  0
 16  3  2  0  0  0  0
 17  6  2  0  0  0  0
 18  5  2  0  0  0  0
 19 12  2  0  0  0  0
 20 21  1  0  0  0  0
 21 14  2  0  0  0  0
 22 12  1  0  0  0  0
 23  9  1  0  0  0  0
 24 20  1  0  0  0  0
 25 11  1  0  0  0  0
 26 24  1  0  0  0  0
 27 28  1  0  0  0  0
 28 25  2  0  0  0  0
 29 26  1  0  0  0  0
  7  8  1  0  0  0  0
 13 20  2  0  0  0  0
 23 27  2  0  0  0  0
M  CHG  2   6   1  15  -1
M  END
>  <IDNUMBER>
F3115-0051

>  <Chemical_Name>
2-{[1-(4-ethoxy-2-nitrophenyl)-2,5-dioxopyrrolidin-3-yl]sulfanyl}benzoic acid

>  <PriceCoeff>
1.00

>  <CAS>
692276-58-7

>  <MW>
416.40

>  <Description>
solid

>  <FSP3>
0.21

>  <clogP>
3.01

>  <TPSA>
152.35

>  <Acceptor>
7

>  <Donor>
0

>  <RotBonds>
7

>  <HAC>
29

>  <Collection>
General

>  <PPDS>
+

$$$$
F3115-0061
  Mrv2219 10102508112D          

 26 29  0  0  0  0            999 V2000
    5.5167   -2.2375    0.0000 N   0  0  0  0  0  0  0  0  0  0  0  0
    6.0125   -2.9042    0.0000 C   0  0  0  0  0  0  0  0  0  0  0  0
    6.0042   -1.5667    0.0000 C   0  0  0  0  0  0  0  0  0  0  0  0
    6.7917   -2.6417    0.0000 C   0  0  0  0  0  0  0  0  0  0  0  0
    8.2042   -2.7792    0.0000 C   0  0  0  0  0  0  0  0  0  0  0  0
    7.4625   -3.1250    0.0000 C   0  0  0  0  0  0  0  0  0  0  0  0
    6.7917   -1.8167    0.0000 C   0  0  0  0  0  0  0  0  0  0  0  0
    8.2917   -1.9625    0.0000 N   0  0  0  0  0  0  0  0  0  0  0  0
    4.6917   -2.2417    0.0000 C   0  0  0  0  0  0  0  0  0  0  0  0
    5.7542   -3.6875    0.0000 O   0  0  0  0  0  0  0  0  0  0  0  0
    5.7417   -0.7792    0.0000 O   0  0  0  0  0  0  0  0  0  0  0  0
    8.8792   -3.2667    0.0000 C   0  0  0  0  0  0  0  0  0  0  0  0
    8.4542   -0.3167    0.0000 O   0  0  0  0  0  0  0  0  0  0  0  0
    4.2917   -2.9542    0.0000 C   0  0  0  0  0  0  0  0  0  0  0  0
    4.2792   -1.5292    0.0000 C   0  0  0  0  0  0  0  0  0  0  0  0
    3.4542   -1.5292    0.0000 C   0  0  0  0  0  0  0  0  0  0  0  0
    3.4667   -2.9625    0.0000 C   0  0  0  0  0  0  0  0  0  0  0  0
    3.0500   -2.2500    0.0000 C   0  0  0  0  0  0  0  0  0  0  0  0
    9.0417   -1.6250    0.0000 C   0  0  0  0  0  0  0  0  0  0  0  0
    7.6167   -1.4792    0.0000 C   0  0  0  0  0  0  0  0  0  0  0  0
    7.3750   -3.9417    0.0000 C   0  0  0  0  0  0  0  0  0  0  0  0
    7.7042   -0.6625    0.0000 C   0  0  0  0  0  0  0  0  0  0  0  0
    9.1292   -0.8042    0.0000 C   0  0  0  0  0  0  0  0  0  0  0  0
    8.7917   -4.0875    0.0000 C   0  0  0  0  0  0  0  0  0  0  0  0
    2.2250   -2.2542    0.0000 C   0  0  0  0  0  0  0  0  0  0  0  0
    8.0417   -4.4250    0.0000 C   0  0  0  0  0  0  0  0  0  0  0  0
  2  1  1  0  0  0  0
  3  1  1  0  0  0  0
  4  2  1  0  0  0  0
  5  6  1  0  0  0  0
  6  4  1  0  0  0  0
  7  3  1  0  0  0  0
  8  5  1  0  0  0  0
  9  1  1  0  0  0  0
 10  2  2  0  0  0  0
 11  3  2  0  0  0  0
 12  5  2  0  0  0  0
 13 22  1  0  0  0  0
 14  9  1  0  0  0  0
 15  9  2  0  0  0  0
 16 15  1  0  0  0  0
 17 14  2  0  0  0  0
 18 16  2  0  0  0  0
 19  8  1  0  0  0  0
 20  8  1  0  0  0  0
 21  6  1  0  0  0  0
 22 20  1  0  0  0  0
 23 19  1  0  0  0  0
 24 26  1  0  0  0  0
 25 18  1  0  0  0  0
 26 21  1  0  0  0  0
  7  4  1  0  0  0  0
 17 18  1  0  0  0  0
 24 12  1  0  0  0  0
 13 23  1  0  0  0  0
M  END
>  <IDNUMBER>
F3115-0061

>  <Chemical_Name>
1-(4-methylphenyl)-3-[2-(morpholin-4-yl)cyclohex-2-en-1-yl]pyrrolidine-2,5-dione

>  <PriceCoeff>
1.50

>  <MW>
354.44

>  <Description>
solid

>  <FSP3>
0.52

>  <clogP>
1.95

>  <TPSA>
49.85

>  <Acceptor>
3

>  <Donor>
1

>  <RotBonds>
3

>  <HAC>
26

>  <Collection>
Advanced

$$$$
F3115-0062
  Mrv2219 10102508112D          

 27 30  0  0  0  0            999 V2000
    5.7292   -2.2375    0.0000 N   0  0  0  0  0  0  0  0  0  0  0  0
    6.2167   -2.9042    0.0000 C   0  0  0  0  0  0  0  0  0  0  0  0
    6.2125   -1.5667    0.0000 C   0  0  0  0  0  0  0  0  0  0  0  0
    7.0042   -2.6417    0.0000 C   0  0  0  0  0  0  0  0  0  0  0  0
    8.4167   -2.7792    0.0000 C   0  0  0  0  0  0  0  0  0  0  0  0
    7.6667   -3.1250    0.0000 C   0  0  0  0  0  0  0  0  0  0  0  0
    7.0000   -1.8167    0.0000 C   0  0  0  0  0  0  0  0  0  0  0  0
    8.5000   -1.9625    0.0000 N   0  0  0  0  0  0  0  0  0  0  0  0
    4.9042   -2.2417    0.0000 C   0  0  0  0  0  0  0  0  0  0  0  0
    5.9667   -3.6875    0.0000 O   0  0  0  0  0  0  0  0  0  0  0  0
    5.9542   -0.7792    0.0000 O   0  0  0  0  0  0  0  0  0  0  0  0
    9.0875   -3.2667    0.0000 C   0  0  0  0  0  0  0  0  0  0  0  0
    8.6667   -0.3167    0.0000 O   0  0  0  0  0  0  0  0  0  0  0  0
    4.5000   -2.9542    0.0000 C   0  0  0  0  0  0  0  0  0  0  0  0
    4.4917   -1.5292    0.0000 C   0  0  0  0  0  0  0  0  0  0  0  0
    3.6667   -1.5292    0.0000 C   0  0  0  0  0  0  0  0  0  0  0  0
    3.6792   -2.9625    0.0000 C   0  0  0  0  0  0  0  0  0  0  0  0
    3.2542   -2.2500    0.0000 C   0  0  0  0  0  0  0  0  0  0  0  0
    9.2542   -1.6250    0.0000 C   0  0  0  0  0  0  0  0  0  0  0  0
    7.8292   -1.4792    0.0000 C   0  0  0  0  0  0  0  0  0  0  0  0
    7.5792   -3.9417    0.0000 C   0  0  0  0  0  0  0  0  0  0  0  0
    7.9167   -0.6625    0.0000 C   0  0  0  0  0  0  0  0  0  0  0  0
    9.3375   -0.8042    0.0000 C   0  0  0  0  0  0  0  0  0  0  0  0
    9.0042   -4.0875    0.0000 C   0  0  0  0  0  0  0  0  0  0  0  0
    2.4292   -2.2542    0.0000 C   0  0  0  0  0  0  0  0  0  0  0  0
    8.2500   -4.4250    0.0000 C   0  0  0  0  0  0  0  0  0  0  0  0
    2.0167   -1.5417    0.0000 C   0  0  0  0  0  0  0  0  0  0  0  0
  2  1  1  0  0  0  0
  3  1  1  0  0  0  0
  4  2  1  0  0  0  0
  5  6  1  0  0  0  0
  6  4  1  0  0  0  0
  7  3  1  0  0  0  0
  8  5  1  0  0  0  0
  9  1  1  0  0  0  0
 10  2  2  0  0  0  0
 11  3  2  0  0  0  0
 12  5  2  0  0  0  0
 13 22  1  0  0  0  0
 14  9  1  0  0  0  0
 15  9  2  0  0  0  0
 16 15  1  0  0  0  0
 17 14  2  0  0  0  0
 18 16  2  0  0  0  0
 19  8  1  0  0  0  0
 20  8  1  0  0  0  0
 21  6  1  0  0  0  0
 22 20  1  0  0  0  0
 23 19  1  0  0  0  0
 24 26  1  0  0  0  0
 25 18  1  0  0  0  0
 26 21  1  0  0  0  0
 27 25  1  0  0  0  0
  7  4  1  0  0  0  0
 17 18  1  0  0  0  0
 24 12  1  0  0  0  0
 13 23  1  0  0  0  0
M  END
>  <IDNUMBER>
F3115-0062

>  <Chemical_Name>
1-(4-ethylphenyl)-3-[2-(morpholin-4-yl)cyclohex-2-en-1-yl]pyrrolidine-2,5-dione

>  <PriceCoeff>
1.50

>  <CAS>
857494-34-9

>  <MW>
368.47

>  <Description>
solid

>  <FSP3>
0.55

>  <clogP>
2.48

>  <TPSA>
49.85

>  <Acceptor>
3

>  <Donor>
1

>  <RotBonds>
4

>  <HAC>
27

>  <Collection>
Advanced

>  <PPDS>
+

$$$$
F3115-0070
  Mrv2219 10102508112D          

 26 28  0  0  0  0            999 V2000
    2.4547   -1.9129    0.0000 N   0  0  0  0  0  0  0  0  0  0  0  0
    2.9381   -1.2419    0.0000 C   0  0  0  0  0  0  0  0  0  0  0  0
    2.9423   -2.5797    0.0000 C   0  0  0  0  0  0  0  0  0  0  0  0
    1.6295   -1.9171    0.0000 C   0  0  0  0  0  0  0  0  0  0  0  0
   -0.0083   -3.3631    0.0000 N   0  3  0  0  0  0  0  0  0  0  0  0
    3.7299   -2.3171    0.0000 C   0  0  0  0  0  0  0  0  0  0  0  0
    3.7257   -1.4920    0.0000 C   0  0  0  0  0  0  0  0  0  0  0  0
    1.2252   -2.6297    0.0000 C   0  0  0  0  0  0  0  0  0  0  0  0
    0.4043   -2.6380    0.0000 C   0  0  0  0  0  0  0  0  0  0  0  0
    4.3925   -2.8005    0.0000 N   0  0  0  0  0  0  0  0  0  0  0  0
   -0.8335   -3.3673    0.0000 O   0  5  0  0  0  0  0  0  0  0  0  0
    1.2169   -1.2044    0.0000 C   0  0  0  0  0  0  0  0  0  0  0  0
    2.6797   -0.4543    0.0000 O   0  0  0  0  0  0  0  0  0  0  0  0
    0.4168   -4.0675    0.0000 O   0  0  0  0  0  0  0  0  0  0  0  0
    2.6922   -3.3631    0.0000 O   0  0  0  0  0  0  0  0  0  0  0  0
   -0.0208   -1.9254    0.0000 C   0  0  0  0  0  0  0  0  0  0  0  0
    0.3918   -1.2044    0.0000 C   0  0  0  0  0  0  0  0  0  0  0  0
    5.1510   -2.4630    0.0000 C   0  0  0  0  0  0  0  0  0  0  0  0
    6.6513   -1.7878    0.0000 C   0  0  0  0  0  0  0  0  0  0  0  0
    5.2302   -1.6420    0.0000 C   0  0  0  0  0  0  0  0  0  0  0  0
    5.8178   -2.9423    0.0000 C   0  0  0  0  0  0  0  0  0  0  0  0
    6.5679   -2.6047    0.0000 C   0  0  0  0  0  0  0  0  0  0  0  0
    5.9761   -1.3044    0.0000 C   0  0  0  0  0  0  0  0  0  0  0  0
    7.4056   -1.4420    0.0000 O   0  0  0  0  0  0  0  0  0  0  0  0
    1.6253   -0.4876    0.0000 C   0  0  0  0  0  0  0  0  0  0  0  0
    8.0765   -1.9254    0.0000 C   0  0  0  0  0  0  0  0  0  0  0  0
  2  1  1  0  0  0  0
  3  1  1  0  0  0  0
  4  1  1  0  0  0  0
  5  9  1  0  0  0  0
  6  3  1  0  0  0  0
  7  2  1  0  0  0  0
  8  4  1  0  0  0  0
  9  8  2  0  0  0  0
 10  6  1  0  0  0  0
 11  5  1  0  0  0  0
 12  4  2  0  0  0  0
 13  2  2  0  0  0  0
 14  5  2  0  0  0  0
 15  3  2  0  0  0  0
 16 17  2  0  0  0  0
 17 12  1  0  0  0  0
 18 10  1  0  0  0  0
 19 22  2  0  0  0  0
 20 18  1  0  0  0  0
 21 18  2  0  0  0  0
 22 21  1  0  0  0  0
 23 20  2  0  0  0  0
 24 19  1  0  0  0  0
 25 12  1  0  0  0  0
 26 24  1  0  0  0  0
  6  7  1  0  0  0  0
  9 16  1  0  0  0  0
 19 23  1  0  0  0  0
M  CHG  2   5   1  11  -1
M  END
>  <IDNUMBER>
F3115-0070

>  <Chemical_Name>
3-[(4-methoxyphenyl)amino]-1-(2-methyl-5-nitrophenyl)pyrrolidine-2,5-dione

>  <PriceCoeff>
1.00

>  <MW>
355.34

>  <Description>
solid

>  <FSP3>
0.22

>  <clogP>
3.03

>  <TPSA>
101.78

>  <Acceptor>
6

>  <Donor>
1

>  <RotBonds>
5

>  <HAC>
26

>  <Collection>
General

$$$$
F3115-0077
  Mrv2219 10102508112D          

 25 27  0  0  0  0            999 V2000
    4.7962   -6.6105    0.0000 N   0  0  0  0  0  0  0  0  0  0  0  0
    5.2842   -5.9431    0.0000 C   0  0  0  0  0  0  0  0  0  0  0  0
    5.2925   -7.2819    0.0000 C   0  0  0  0  0  0  0  0  0  0  0  0
    6.0724   -7.0233    0.0000 C   0  0  0  0  0  0  0  0  0  0  0  0
    6.0724   -6.1934    0.0000 C   0  0  0  0  0  0  0  0  0  0  0  0
    6.7439   -7.4988    0.0000 N   0  0  0  0  0  0  0  0  0  0  0  0
    8.1619   -7.6447    0.0000 C   0  0  0  0  0  0  0  0  0  0  0  0
    7.4988   -7.1610    0.0000 N   0  0  0  0  0  0  0  0  0  0  0  0
    3.9705   -6.6188    0.0000 C   0  0  0  0  0  0  0  0  0  0  0  0
    5.0215   -5.1591    0.0000 O   0  0  0  0  0  0  0  0  0  0  0  0
    5.0340   -8.0618    0.0000 O   0  0  0  0  0  0  0  0  0  0  0  0
    8.0869   -8.4622    0.0000 O   0  0  0  0  0  0  0  0  0  0  0  0
    8.9209   -7.3069    0.0000 C   0  0  0  0  0  0  0  0  0  0  0  0
    3.5576   -5.9056    0.0000 C   0  0  0  0  0  0  0  0  0  0  0  0
    3.5701   -7.3361    0.0000 C   0  0  0  0  0  0  0  0  0  0  0  0
    2.3189   -6.6230    0.0000 C   0  0  0  0  0  0  0  0  0  0  0  0
    2.7443   -7.3361    0.0000 C   0  0  0  0  0  0  0  0  0  0  0  0
    2.7318   -5.9098    0.0000 C   0  0  0  0  0  0  0  0  0  0  0  0
    1.5014   -6.6313    0.0000 O   0  0  0  0  0  0  0  0  0  0  0  0
    9.5883   -7.7866    0.0000 C   0  0  0  0  0  0  0  0  0  0  0  0
    8.9960   -6.4853    0.0000 C   0  0  0  0  0  0  0  0  0  0  0  0
    1.0802   -5.9181    0.0000 C   0  0  0  0  0  0  0  0  0  0  0  0
   10.3390   -7.4487    0.0000 C   0  0  0  0  0  0  0  0  0  0  0  0
    9.7467   -6.1475    0.0000 C   0  0  0  0  0  0  0  0  0  0  0  0
   10.4224   -6.6313    0.0000 C   0  0  0  0  0  0  0  0  0  0  0  0
  2  1  1  0  0  0  0
  3  1  1  0  0  0  0
  4  3  1  0  0  0  0
  5  2  1  0  0  0  0
  6  4  1  0  0  0  0
  7  8  1  0  0  0  0
  8  6  1  0  0  0  0
  9  1  1  0  0  0  0
 10  2  2  0  0  0  0
 11  3  2  0  0  0  0
 12  7  2  0  0  0  0
 13  7  1  0  0  0  0
 14  9  2  0  0  0  0
 15  9  1  0  0  0  0
 16 17  1  0  0  0  0
 17 15  2  0  0  0  0
 18 14  1  0  0  0  0
 19 16  1  0  0  0  0
 20 13  2  0  0  0  0
 21 13  1  0  0  0  0
 22 19  1  0  0  0  0
 23 20  1  0  0  0  0
 24 21  2  0  0  0  0
 25 24  1  0  0  0  0
  4  5  1  0  0  0  0
 16 18  2  0  0  0  0
 25 23  2  0  0  0  0
M  END
>  <IDNUMBER>
F3115-0077

>  <Chemical_Name>
N'-[1-(4-methoxyphenyl)-2,5-dioxopyrrolidin-3-yl]benzohydrazide

>  <PriceCoeff>
1.00

>  <CAS>
360784-29-8

>  <MW>
339.35

>  <Description>
solid

>  <FSP3>
0.17

>  <clogP>
1.91

>  <TPSA>
87.74

>  <Acceptor>
4

>  <Donor>
2

>  <RotBonds>
5

>  <HAC>
25

>  <Collection>
General

>  <PPDS>
+

$$$$
F3115-0084
  Mrv2219 10102508112D          

 26 28  0  0  0  0            999 V2000
    5.7042   -5.6292    0.0000 N   0  0  0  0  0  0  0  0  0  0  0  0
    6.2000   -6.2917    0.0000 C   0  0  0  0  0  0  0  0  0  0  0  0
    6.1917   -4.9542    0.0000 C   0  0  0  0  0  0  0  0  0  0  0  0
    6.9792   -6.0375    0.0000 C   0  0  0  0  0  0  0  0  0  0  0  0
    6.9792   -5.2042    0.0000 C   0  0  0  0  0  0  0  0  0  0  0  0
    7.6500   -6.5125    0.0000 N   0  0  0  0  0  0  0  0  0  0  0  0
    8.9792   -7.4792    0.0000 N   0  0  0  0  0  0  0  0  0  0  0  0
    9.6500   -7.9667    0.0000 C   0  0  0  0  0  0  0  0  0  0  0  0
    4.8792   -5.6292    0.0000 C   0  0  0  0  0  0  0  0  0  0  0  0
    5.9417   -7.0792    0.0000 O   0  0  0  0  0  0  0  0  0  0  0  0
    5.9292   -4.1750    0.0000 O   0  0  0  0  0  0  0  0  0  0  0  0
    9.0667   -6.6542    0.0000 C   0  0  0  0  0  0  0  0  0  0  0  0
    8.2292   -7.8167    0.0000 C   0  0  0  0  0  0  0  0  0  0  0  0
    8.4000   -6.1750    0.0000 C   0  0  0  0  0  0  0  0  0  0  0  0
    7.5625   -7.3375    0.0000 C   0  0  0  0  0  0  0  0  0  0  0  0
   10.4042   -7.6292    0.0000 O   0  0  0  0  0  0  0  0  0  0  0  0
    4.4667   -4.9167    0.0000 C   0  0  0  0  0  0  0  0  0  0  0  0
    4.4792   -6.3500    0.0000 C   0  0  0  0  0  0  0  0  0  0  0  0
    9.5667   -8.7875    0.0000 O   0  0  0  0  0  0  0  0  0  0  0  0
    3.6417   -4.9250    0.0000 C   0  0  0  0  0  0  0  0  0  0  0  0
    3.6542   -6.3542    0.0000 C   0  0  0  0  0  0  0  0  0  0  0  0
    3.2375   -5.6417    0.0000 C   0  0  0  0  0  0  0  0  0  0  0  0
   10.2292   -9.2667    0.0000 C   0  0  0  0  0  0  0  0  0  0  0  0
    2.4125   -5.6417    0.0000 C   0  0  0  0  0  0  0  0  0  0  0  0
    2.0042   -6.3625    0.0000 C   0  0  0  0  0  0  0  0  0  0  0  0
   10.1417  -10.0917    0.0000 C   0  0  0  0  0  0  0  0  0  0  0  0
  2  1  1  0  0  0  0
  3  1  1  0  0  0  0
  4  2  1  0  0  0  0
  5  3  1  0  0  0  0
  6  4  1  0  0  0  0
  7 13  1  0  0  0  0
  8  7  1  0  0  0  0
  9  1  1  0  0  0  0
 10  2  2  0  0  0  0
 11  3  2  0  0  0  0
 12 14  1  0  0  0  0
 13 15  1  0  0  0  0
 14  6  1  0  0  0  0
 15  6  1  0  0  0  0
 16  8  2  0  0  0  0
 17  9  2  0  0  0  0
 18  9  1  0  0  0  0
 19  8  1  0  0  0  0
 20 17  1  0  0  0  0
 21 18  2  0  0  0  0
 22 21  1  0  0  0  0
 23 19  1  0  0  0  0
 24 22  1  0  0  0  0
 25 24  1  0  0  0  0
 26 23  1  0  0  0  0
  4  5  1  0  0  0  0
 22 20  2  0  0  0  0
  7 12  1  0  0  0  0
M  END
>  <IDNUMBER>
F3115-0084

>  <Chemical_Name>
ethyl 4-[1-(4-ethylphenyl)-2,5-dioxopyrrolidin-3-yl]piperazine-1-carboxylate

>  <PriceCoeff>
1.00

>  <CAS>
838887-36-8

>  <MW>
359.42

>  <Description>
solid

>  <FSP3>
0.53

>  <clogP>
3.41

>  <TPSA>
70.16

>  <Acceptor>
4

>  <Donor>
1

>  <RotBonds>
6

>  <HAC>
26

>  <Collection>
General

>  <PPDS>
+

$$$$
F3115-0085
  Mrv2219 10102508112D          

 30 33  0  0  0  0            999 V2000
    5.3125   -4.9750    0.0000 N   0  0  0  0  0  0  0  0  0  0  0  0
    5.8042   -5.6417    0.0000 C   0  0  0  0  0  0  0  0  0  0  0  0
    5.7917   -4.3042    0.0000 C   0  0  0  0  0  0  0  0  0  0  0  0
    6.5875   -5.3792    0.0000 C   0  0  0  0  0  0  0  0  0  0  0  0
    6.5792   -4.5542    0.0000 C   0  0  0  0  0  0  0  0  0  0  0  0
    7.2542   -5.8542    0.0000 N   0  0  0  0  0  0  0  0  0  0  0  0
    8.5875   -6.8292    0.0000 N   0  0  0  0  0  0  0  0  0  0  0  0
    9.2542   -7.3125    0.0000 C   0  0  0  0  0  0  0  0  0  0  0  0
    2.0167   -4.9917    0.0000 N   0  0  0  0  0  0  0  0  0  0  0  0
    4.4875   -4.9792    0.0000 C   0  0  0  0  0  0  0  0  0  0  0  0
    5.5500   -6.4250    0.0000 O   0  0  0  0  0  0  0  0  0  0  0  0
    2.8417   -4.9875    0.0000 C   0  0  0  0  0  0  0  0  0  0  0  0
    5.5375   -3.5167    0.0000 O   0  0  0  0  0  0  0  0  0  0  0  0
    7.8292   -7.1625    0.0000 C   0  0  0  0  0  0  0  0  0  0  0  0
    8.6667   -6.0042    0.0000 C   0  0  0  0  0  0  0  0  0  0  0  0
    7.1667   -6.6792    0.0000 C   0  0  0  0  0  0  0  0  0  0  0  0
    8.0042   -5.5167    0.0000 C   0  0  0  0  0  0  0  0  0  0  0  0
   10.0042   -6.9750    0.0000 O   0  0  0  0  0  0  0  0  0  0  0  0
    4.0792   -5.6917    0.0000 C   0  0  0  0  0  0  0  0  0  0  0  0
    4.0750   -4.2667    0.0000 C   0  0  0  0  0  0  0  0  0  0  0  0
    3.2500   -4.2667    0.0000 C   0  0  0  0  0  0  0  0  0  0  0  0
    3.2625   -5.7000    0.0000 C   0  0  0  0  0  0  0  0  0  0  0  0
    0.3667   -5.0000    0.0000 O   0  0  0  0  0  0  0  0  0  0  0  0
    9.1667   -8.1292    0.0000 O   0  0  0  0  0  0  0  0  0  0  0  0
    1.6042   -4.2792    0.0000 C   0  0  0  0  0  0  0  0  0  0  0  0
    1.6125   -5.7125    0.0000 C   0  0  0  0  0  0  0  0  0  0  0  0
    0.7875   -5.7125    0.0000 C   0  0  0  0  0  0  0  0  0  0  0  0
    0.7792   -4.2792    0.0000 C   0  0  0  0  0  0  0  0  0  0  0  0
    9.8375   -8.6167    0.0000 C   0  0  0  0  0  0  0  0  0  0  0  0
    9.7542   -9.4375    0.0000 C   0  0  0  0  0  0  0  0  0  0  0  0
  2  1  1  0  0  0  0
  3  1  1  0  0  0  0
  4  2  1  0  0  0  0
  5  3  1  0  0  0  0
  6  4  1  0  0  0  0
  7 15  1  0  0  0  0
  8  7  1  0  0  0  0
  9 12  1  0  0  0  0
 10  1  1  0  0  0  0
 11  2  2  0  0  0  0
 12 21  2  0  0  0  0
 13  3  2  0  0  0  0
 14 16  1  0  0  0  0
 15 17  1  0  0  0  0
 16  6  1  0  0  0  0
 17  6  1  0  0  0  0
 18  8  2  0  0  0  0
 19 10  1  0  0  0  0
 20 10  2  0  0  0  0
 21 20  1  0  0  0  0
 22 19  2  0  0  0  0
 23 27  1  0  0  0  0
 24  8  1  0  0  0  0
 25  9  1  0  0  0  0
 26  9  1  0  0  0  0
 27 26  1  0  0  0  0
 28 25  1  0  0  0  0
 29 24  1  0  0  0  0
 30 29  1  0  0  0  0
  4  5  1  0  0  0  0
 12 22  1  0  0  0  0
  7 14  1  0  0  0  0
 23 28  1  0  0  0  0
M  END
>  <IDNUMBER>
F3115-0085

>  <Chemical_Name>
ethyl 4-{1-[4-(morpholin-4-yl)phenyl]-2,5-dioxopyrrolidin-3-yl}piperazine-1-carboxylate

>  <PriceCoeff>
1.00

>  <CAS>
838897-15-7

>  <MW>
416.47

>  <Description>
solid

>  <FSP3>
0.57

>  <clogP>
1.83

>  <TPSA>
82.63

>  <Acceptor>
6

>  <Donor>
2

>  <RotBonds>
6

>  <HAC>
30

>  <Collection>
General

>  <PPDS>
+

$$$$
F3115-0087
  Mrv2219 10102508112D          

 28 30  0  0  0  0            999 V2000
    5.5765   -0.8663    0.0000 N   0  0  0  0  0  0  0  0  0  0  0  0
    6.0637   -1.5284    0.0000 C   0  0  0  0  0  0  0  0  0  0  0  0
    6.0595   -0.1916    0.0000 C   0  0  0  0  0  0  0  0  0  0  0  0
    6.8508   -1.2744    0.0000 C   0  0  0  0  0  0  0  0  0  0  0  0
    6.8466   -0.4415    0.0000 C   0  0  0  0  0  0  0  0  0  0  0  0
    7.5130   -1.7491    0.0000 N   0  0  0  0  0  0  0  0  0  0  0  0
    8.8498   -2.7154    0.0000 N   0  0  0  0  0  0  0  0  0  0  0  0
    9.5120   -3.2026    0.0000 C   0  0  0  0  0  0  0  0  0  0  0  0
    4.7519   -0.8663    0.0000 C   0  0  0  0  0  0  0  0  0  0  0  0
    5.8138   -2.3156    0.0000 O   0  0  0  0  0  0  0  0  0  0  0  0
    5.8013    0.5872    0.0000 O   0  0  0  0  0  0  0  0  0  0  0  0
    1.8741   -1.5992    0.0000 C   0  0  0  0  0  0  0  0  0  0  0  0
    2.2781   -0.8788    0.0000 N   0  0  0  0  0  0  0  0  0  0  0  0
    8.9331   -1.8908    0.0000 C   0  0  0  0  0  0  0  0  0  0  0  0
    8.0960   -3.0527    0.0000 C   0  0  0  0  0  0  0  0  0  0  0  0
    8.2626   -1.4118    0.0000 C   0  0  0  0  0  0  0  0  0  0  0  0
    7.4255   -2.5737    0.0000 C   0  0  0  0  0  0  0  0  0  0  0  0
   10.2616   -2.8653    0.0000 O   0  0  0  0  0  0  0  0  0  0  0  0
    2.2906   -2.3114    0.0000 O   0  0  0  0  0  0  0  0  0  0  0  0
    4.3479   -1.5867    0.0000 C   0  0  0  0  0  0  0  0  0  0  0  0
    4.3396   -0.1541    0.0000 C   0  0  0  0  0  0  0  0  0  0  0  0
    3.1027   -0.8788    0.0000 C   0  0  0  0  0  0  0  0  0  0  0  0
    9.4329   -4.0230    0.0000 O   0  0  0  0  0  0  0  0  0  0  0  0
    3.5275   -1.5909    0.0000 C   0  0  0  0  0  0  0  0  0  0  0  0
    3.5150   -0.1541    0.0000 C   0  0  0  0  0  0  0  0  0  0  0  0
    1.0495   -1.6034    0.0000 C   0  0  0  0  0  0  0  0  0  0  0  0
   10.0992   -4.5020    0.0000 C   0  0  0  0  0  0  0  0  0  0  0  0
   10.0118   -5.3266    0.0000 C   0  0  0  0  0  0  0  0  0  0  0  0
  2  1  1  0  0  0  0
  3  1  1  0  0  0  0
  4  2  1  0  0  0  0
  5  3  1  0  0  0  0
  6  4  1  0  0  0  0
  7 15  1  0  0  0  0
  8  7  1  0  0  0  0
  9  1  1  0  0  0  0
 10  2  2  0  0  0  0
 11  3  2  0  0  0  0
 12 13  1  0  0  0  0
 13 22  1  0  0  0  0
 14 16  1  0  0  0  0
 15 17  1  0  0  0  0
 16  6  1  0  0  0  0
 17  6  1  0  0  0  0
 18  8  2  0  0  0  0
 19 12  2  0  0  0  0
 20  9  1  0  0  0  0
 21  9  2  0  0  0  0
 22 25  2  0  0  0  0
 23  8  1  0  0  0  0
 24 20  2  0  0  0  0
 25 21  1  0  0  0  0
 26 12  1  0  0  0  0
 27 23  1  0  0  0  0
 28 27  1  0  0  0  0
  4  5  1  0  0  0  0
 22 24  1  0  0  0  0
  7 14  1  0  0  0  0
M  END
>  <IDNUMBER>
F3115-0087

>  <Chemical_Name>
ethyl 4-[1-(4-acetamidophenyl)-2,5-dioxopyrrolidin-3-yl]piperazine-1-carboxylate

>  <PriceCoeff>
1.00

>  <CAS>
847239-30-9

>  <MW>
388.42

>  <Description>
solid

>  <FSP3>
0.47

>  <clogP>
1.40

>  <TPSA>
99.26

>  <Acceptor>
5

>  <Donor>
2

>  <RotBonds>
6

>  <HAC>
28

>  <Collection>
General

>  <PPDS>
+

$$$$
F3115-0088
  Mrv2219 10102508112D          

 26 28  0  0  0  0            999 V2000
    4.3625   -1.6625    0.0000 N   0  0  0  0  0  0  0  0  0  0  0  0
    4.8542   -2.3292    0.0000 C   0  0  0  0  0  0  0  0  0  0  0  0
    4.8417   -0.9917    0.0000 C   0  0  0  0  0  0  0  0  0  0  0  0
    5.6375   -2.0667    0.0000 C   0  0  0  0  0  0  0  0  0  0  0  0
    5.6292   -1.2417    0.0000 C   0  0  0  0  0  0  0  0  0  0  0  0
    3.5375   -1.6667    0.0000 C   0  0  0  0  0  0  0  0  0  0  0  0
    6.3042   -2.5417    0.0000 N   0  0  0  0  0  0  0  0  0  0  0  0
    7.6375   -3.5167    0.0000 N   0  0  0  0  0  0  0  0  0  0  0  0
    8.3042   -4.0000    0.0000 C   0  0  0  0  0  0  0  0  0  0  0  0
    3.1250   -0.9542    0.0000 C   0  0  0  0  0  0  0  0  0  0  0  0
    4.6000   -3.1125    0.0000 O   0  0  0  0  0  0  0  0  0  0  0  0
    2.3000   -0.9542    0.0000 C   0  0  0  0  0  0  0  0  0  0  0  0
    4.5875   -0.2042    0.0000 O   0  0  0  0  0  0  0  0  0  0  0  0
    7.7167   -2.6917    0.0000 C   0  0  0  0  0  0  0  0  0  0  0  0
    6.8792   -3.8500    0.0000 C   0  0  0  0  0  0  0  0  0  0  0  0
    7.0542   -2.2042    0.0000 C   0  0  0  0  0  0  0  0  0  0  0  0
    6.2167   -3.3667    0.0000 C   0  0  0  0  0  0  0  0  0  0  0  0
    3.1292   -2.3792    0.0000 C   0  0  0  0  0  0  0  0  0  0  0  0
    9.0542   -3.6625    0.0000 O   0  0  0  0  0  0  0  0  0  0  0  0
    1.8917   -1.6750    0.0000 C   0  0  0  0  0  0  0  0  0  0  0  0
    2.3125   -2.3875    0.0000 C   0  0  0  0  0  0  0  0  0  0  0  0
    8.2167   -4.8167    0.0000 O   0  0  0  0  0  0  0  0  0  0  0  0
    1.8792   -0.2417    0.0000 C   0  0  0  0  0  0  0  0  0  0  0  0
    1.0667   -1.6792    0.0000 C   0  0  0  0  0  0  0  0  0  0  0  0
    8.8875   -5.3042    0.0000 C   0  0  0  0  0  0  0  0  0  0  0  0
    8.8042   -6.1250    0.0000 C   0  0  0  0  0  0  0  0  0  0  0  0
  2  1  1  0  0  0  0
  3  1  1  0  0  0  0
  4  2  1  0  0  0  0
  5  3  1  0  0  0  0
  6  1  1  0  0  0  0
  7  4  1  0  0  0  0
  8 15  1  0  0  0  0
  9  8  1  0  0  0  0
 10  6  2  0  0  0  0
 11  2  2  0  0  0  0
 12 10  1  0  0  0  0
 13  3  2  0  0  0  0
 14 16  1  0  0  0  0
 15 17  1  0  0  0  0
 16  7  1  0  0  0  0
 17  7  1  0  0  0  0
 18  6  1  0  0  0  0
 19  9  2  0  0  0  0
 20 21  1  0  0  0  0
 21 18  2  0  0  0  0
 22  9  1  0  0  0  0
 23 12  1  0  0  0  0
 24 20  1  0  0  0  0
 25 22  1  0  0  0  0
 26 25  1  0  0  0  0
  4  5  1  0  0  0  0
 20 12  2  0  0  0  0
  8 14  1  0  0  0  0
M  END
>  <IDNUMBER>
F3115-0088

>  <Chemical_Name>
ethyl 4-[1-(3,4-dimethylphenyl)-2,5-dioxopyrrolidin-3-yl]piperazine-1-carboxylate

>  <PriceCoeff>
1.00

>  <CAS>
838885-96-4

>  <MW>
359.42

>  <Description>
solid

>  <FSP3>
0.53

>  <clogP>
3.33

>  <TPSA>
70.16

>  <Acceptor>
4

>  <Donor>
1

>  <RotBonds>
5

>  <HAC>
26

>  <Collection>
General

>  <PPDS>
+

$$$$
F3115-0091
  Mrv2219 10102508112D          

 25 27  0  0  0  0            999 V2000
    4.9901   -4.1633    0.0000 N   0  0  0  0  0  0  0  0  0  0  0  0
    5.4786   -4.8356    0.0000 C   0  0  0  0  0  0  0  0  0  0  0  0
    5.4744   -3.4951    0.0000 C   0  0  0  0  0  0  0  0  0  0  0  0
    6.2679   -4.5767    0.0000 C   0  0  0  0  0  0  0  0  0  0  0  0
    6.2637   -3.7456    0.0000 C   0  0  0  0  0  0  0  0  0  0  0  0
    6.9318   -5.0527    0.0000 N   0  0  0  0  0  0  0  0  0  0  0  0
    8.2722   -6.0048    0.0000 N   0  0  0  0  0  0  0  0  0  0  0  0
    8.9445   -6.4891    0.0000 C   0  0  0  0  0  0  0  0  0  0  0  0
    4.1633   -4.1716    0.0000 C   0  0  0  0  0  0  0  0  0  0  0  0
    5.2281   -5.6164    0.0000 O   0  0  0  0  0  0  0  0  0  0  0  0
    5.2156   -2.7101    0.0000 O   0  0  0  0  0  0  0  0  0  0  0  0
    8.3558   -5.1863    0.0000 C   0  0  0  0  0  0  0  0  0  0  0  0
    7.5207   -6.3430    0.0000 C   0  0  0  0  0  0  0  0  0  0  0  0
    7.6835   -4.7144    0.0000 C   0  0  0  0  0  0  0  0  0  0  0  0
    6.8567   -5.8670    0.0000 C   0  0  0  0  0  0  0  0  0  0  0  0
    9.6962   -6.1426    0.0000 O   0  0  0  0  0  0  0  0  0  0  0  0
    3.7499   -3.4576    0.0000 C   0  0  0  0  0  0  0  0  0  0  0  0
    3.7582   -4.8899    0.0000 C   0  0  0  0  0  0  0  0  0  0  0  0
    8.8610   -7.3076    0.0000 O   0  0  0  0  0  0  0  0  0  0  0  0
    2.5097   -4.1758    0.0000 C   0  0  0  0  0  0  0  0  0  0  0  0
    2.9230   -3.4618    0.0000 C   0  0  0  0  0  0  0  0  0  0  0  0
    2.9356   -4.8899    0.0000 C   0  0  0  0  0  0  0  0  0  0  0  0
    1.6829   -4.1842    0.0000 O   0  0  0  0  0  0  0  0  0  0  0  0
    8.1094   -7.6459    0.0000 C   0  0  0  0  0  0  0  0  0  0  0  0
    8.0300   -8.4727    0.0000 C   0  0  0  0  0  0  0  0  0  0  0  0
  2  1  1  0  0  0  0
  3  1  1  0  0  0  0
  4  2  1  0  0  0  0
  5  3  1  0  0  0  0
  6  4  1  0  0  0  0
  7 13  1  0  0  0  0
  8  7  1  0  0  0  0
  9  1  1  0  0  0  0
 10  2  2  0  0  0  0
 11  3  2  0  0  0  0
 12 14  1  0  0  0  0
 13 15  1  0  0  0  0
 14  6  1  0  0  0  0
 15  6  1  0  0  0  0
 16  8  2  0  0  0  0
 17  9  2  0  0  0  0
 18  9  1  0  0  0  0
 19  8  1  0  0  0  0
 20 22  1  0  0  0  0
 21 17  1  0  0  0  0
 22 18  2  0  0  0  0
 23 20  1  0  0  0  0
 24 19  1  0  0  0  0
 25 24  1  0  0  0  0
  4  5  1  0  0  0  0
 20 21  2  0  0  0  0
 12  7  1  0  0  0  0
M  END
>  <IDNUMBER>
F3115-0091

>  <Chemical_Name>
ethyl 4-[1-(4-hydroxyphenyl)-2,5-dioxopyrrolidin-3-yl]piperazine-1-carboxylate

>  <PriceCoeff>
1.00

>  <CAS>
838894-20-5

>  <MW>
347.37

>  <Description>
solid

>  <FSP3>
0.47

>  <clogP>
1.71

>  <TPSA>
90.39

>  <Acceptor>
5

>  <Donor>
2

>  <RotBonds>
5

>  <HAC>
25

>  <Collection>
General

>  <PPDS>
+

$$$$
F3115-0092
  Mrv2219 10102508112D          

 25 27  0  0  0  0            999 V2000
    4.9614   -5.9603    0.0000 N   0  0  0  0  0  0  0  0  0  0  0  0
    5.4442   -5.2944    0.0000 C   0  0  0  0  0  0  0  0  0  0  0  0
    5.4484   -6.6304    0.0000 C   0  0  0  0  0  0  0  0  0  0  0  0
    4.1373   -5.9686    0.0000 C   0  0  0  0  0  0  0  0  0  0  0  0
    6.2350   -6.3724    0.0000 C   0  0  0  0  0  0  0  0  0  0  0  0
    6.2309   -5.5441    0.0000 C   0  0  0  0  0  0  0  0  0  0  0  0
    7.6460   -6.5098    0.0000 C   0  0  0  0  0  0  0  0  0  0  0  0
    8.3161   -6.9843    0.0000 C   0  0  0  0  0  0  0  0  0  0  0  0
    3.7252   -5.2569    0.0000 C   0  0  0  0  0  0  0  0  0  0  0  0
    6.8968   -6.8469    0.0000 S   0  0  0  0  0  0  0  0  0  0  0  0
    8.2329   -7.8084    0.0000 C   0  0  0  0  0  0  0  0  0  0  0  0
    7.7210   -5.6939    0.0000 N   0  0  0  0  0  0  0  0  0  0  0  0
    5.1862   -4.5119    0.0000 O   0  0  0  0  0  0  0  0  0  0  0  0
    5.1987   -7.4088    0.0000 O   0  0  0  0  0  0  0  0  0  0  0  0
    2.9094   -5.2569    0.0000 C   0  0  0  0  0  0  0  0  0  0  0  0
    8.9030   -8.2954    0.0000 O   0  0  0  0  0  0  0  0  0  0  0  0
    7.4837   -8.1538    0.0000 O   0  0  0  0  0  0  0  0  0  0  0  0
    3.7377   -6.6846    0.0000 C   0  0  0  0  0  0  0  0  0  0  0  0
    2.4890   -4.5452    0.0000 Cl  0  0  0  0  0  0  0  0  0  0  0  0
    9.0653   -6.6471    0.0000 C   0  0  0  0  0  0  0  0  0  0  0  0
    4.1373   -4.5369    0.0000 C   0  0  0  0  0  0  0  0  0  0  0  0
    2.9094   -6.6846    0.0000 C   0  0  0  0  0  0  0  0  0  0  0  0
    8.4702   -5.3485    0.0000 C   0  0  0  0  0  0  0  0  0  0  0  0
    2.4973   -5.9728    0.0000 C   0  0  0  0  0  0  0  0  0  0  0  0
    9.1444   -5.8313    0.0000 C   0  0  0  0  0  0  0  0  0  0  0  0
  2  1  1  0  0  0  0
  3  1  1  0  0  0  0
  4  1  1  0  0  0  0
  5  3  1  0  0  0  0
  6  2  1  0  0  0  0
  7 10  1  0  0  0  0
  8  7  2  0  0  0  0
  9  4  2  0  0  0  0
 10  5  1  0  0  0  0
 11  8  1  0  0  0  0
 12  7  1  0  0  0  0
 13  2  2  0  0  0  0
 14  3  2  0  0  0  0
 15  9  1  0  0  0  0
 16 11  2  0  0  0  0
 17 11  1  0  0  0  0
 18  4  1  0  0  0  0
 19 15  1  0  0  0  0
 20  8  1  0  0  0  0
 21  9  1  0  0  0  0
 22 18  2  0  0  0  0
 23 12  2  0  0  0  0
 24 22  1  0  0  0  0
 25 23  1  0  0  0  0
  5  6  1  0  0  0  0
 24 15  2  0  0  0  0
 25 20  2  0  0  0  0
M  END
>  <IDNUMBER>
F3115-0092

>  <Chemical_Name>
2-{[1-(3-chloro-2-methylphenyl)-2,5-dioxopyrrolidin-3-yl]sulfanyl}pyridine-3-carboxylic acid

>  <PriceCoeff>
1.00

>  <CAS>
853751-47-0

>  <MW>
376.81

>  <Description>
solid

>  <FSP3>
0.18

>  <clogP>
2.60

>  <TPSA>
112.87

>  <Acceptor>
5

>  <Donor>
1

>  <RotBonds>
4

>  <HAC>
25

>  <Collection>
General

>  <PPDS>
+

$$$$
F3115-0094
  Mrv2219 10102508112D          

 29 31  0  0  0  0            999 V2000
    4.5512   -1.6296    0.0000 N   0  0  0  0  0  0  0  0  0  0  0  0
    5.0430   -2.3006    0.0000 C   0  0  0  0  0  0  0  0  0  0  0  0
    5.0305   -0.9627    0.0000 C   0  0  0  0  0  0  0  0  0  0  0  0
    5.8265   -2.0422    0.0000 C   0  0  0  0  0  0  0  0  0  0  0  0
    5.8182   -1.2128    0.0000 C   0  0  0  0  0  0  0  0  0  0  0  0
    6.4934   -2.5173    0.0000 N   0  0  0  0  0  0  0  0  0  0  0  0
    7.8187   -3.4759    0.0000 N   0  0  0  0  0  0  0  0  0  0  0  0
    8.4897   -3.9635    0.0000 C   0  0  0  0  0  0  0  0  0  0  0  0
    3.7260   -1.6379    0.0000 C   0  0  0  0  0  0  0  0  0  0  0  0
    4.7887   -3.0800    0.0000 O   0  0  0  0  0  0  0  0  0  0  0  0
    4.7762   -0.1792    0.0000 O   0  0  0  0  0  0  0  0  0  0  0  0
    7.9062   -2.6549    0.0000 C   0  0  0  0  0  0  0  0  0  0  0  0
    7.0685   -3.8052    0.0000 C   0  0  0  0  0  0  0  0  0  0  0  0
    7.2393   -2.1756    0.0000 C   0  0  0  0  0  0  0  0  0  0  0  0
    6.4058   -3.3300    0.0000 C   0  0  0  0  0  0  0  0  0  0  0  0
    9.2441   -3.6259    0.0000 O   0  0  0  0  0  0  0  0  0  0  0  0
    3.3175   -0.9252    0.0000 C   0  0  0  0  0  0  0  0  0  0  0  0
    8.4063   -4.7804    0.0000 O   0  0  0  0  0  0  0  0  0  0  0  0
    3.7302   -0.2043    0.0000 O   0  0  0  0  0  0  0  0  0  0  0  0
    3.3258   -2.3548    0.0000 C   0  0  0  0  0  0  0  0  0  0  0  0
    2.4923   -0.9252    0.0000 C   0  0  0  0  0  0  0  0  0  0  0  0
    7.6520   -5.1180    0.0000 C   0  0  0  0  0  0  0  0  0  0  0  0
    3.3175    0.5084    0.0000 C   0  0  0  0  0  0  0  0  0  0  0  0
    3.7260    1.2211    0.0000 C   0  0  0  0  0  0  0  0  0  0  0  0
    3.3133    1.9338    0.0000 C   0  0  0  0  0  0  0  0  0  0  0  0
    2.4923   -2.3548    0.0000 C   0  0  0  0  0  0  0  0  0  0  0  0
    7.5686   -5.9390    0.0000 C   0  0  0  0  0  0  0  0  0  0  0  0
    3.7260    2.6507    0.0000 C   0  0  0  0  0  0  0  0  0  0  0  0
    2.0797   -1.6421    0.0000 C   0  0  0  0  0  0  0  0  0  0  0  0
  2  1  1  0  0  0  0
  3  1  1  0  0  0  0
  4  2  1  0  0  0  0
  5  3  1  0  0  0  0
  6  4  1  0  0  0  0
  7 13  1  0  0  0  0
  8  7  1  0  0  0  0
  9  1  1  0  0  0  0
 10  2  2  0  0  0  0
 11  3  2  0  0  0  0
 12 14  1  0  0  0  0
 13 15  1  0  0  0  0
 14  6  1  0  0  0  0
 15  6  1  0  0  0  0
 16  8  2  0  0  0  0
 17  9  2  0  0  0  0
 18  8  1  0  0  0  0
 19 17  1  0  0  0  0
 20  9  1  0  0  0  0
 21 17  1  0  0  0  0
 22 18  1  0  0  0  0
 23 19  1  0  0  0  0
 24 23  1  0  0  0  0
 25 24  1  0  0  0  0
 26 20  2  0  0  0  0
 27 22  1  0  0  0  0
 28 25  1  0  0  0  0
 29 26  1  0  0  0  0
  4  5  1  0  0  0  0
 29 21  2  0  0  0  0
  7 12  1  0  0  0  0
M  END
>  <IDNUMBER>
F3115-0094

>  <Chemical_Name>
ethyl 4-[1-(2-butoxyphenyl)-2,5-dioxopyrrolidin-3-yl]piperazine-1-carboxylate

>  <PriceCoeff>
1.00

>  <CAS>
857494-06-5

>  <MW>
403.47

>  <Description>
solid

>  <FSP3>
0.57

>  <clogP>
4.09

>  <TPSA>
79.39

>  <Acceptor>
5

>  <Donor>
1

>  <RotBonds>
9

>  <HAC>
29

>  <Collection>
General

>  <PPDS>
+

$$$$
F3115-0095
  Mrv2219 10102508112D          

 25 27  0  0  0  0            999 V2000
    4.7014   -5.7536    0.0000 N   0  0  0  0  0  0  0  0  0  0  0  0
    5.1983   -6.4175    0.0000 C   0  0  0  0  0  0  0  0  0  0  0  0
    5.1899   -5.0772    0.0000 C   0  0  0  0  0  0  0  0  0  0  0  0
    5.9791   -6.1627    0.0000 C   0  0  0  0  0  0  0  0  0  0  0  0
    5.9791   -5.3277    0.0000 C   0  0  0  0  0  0  0  0  0  0  0  0
    6.6513   -6.6387    0.0000 N   0  0  0  0  0  0  0  0  0  0  0  0
    7.9832   -7.5949    0.0000 N   0  0  0  0  0  0  0  0  0  0  0  0
    8.6471   -8.0834    0.0000 C   0  0  0  0  0  0  0  0  0  0  0  0
    3.8747   -5.7536    0.0000 C   0  0  0  0  0  0  0  0  0  0  0  0
    4.9394   -7.2066    0.0000 O   0  0  0  0  0  0  0  0  0  0  0  0
    4.9269   -4.2964    0.0000 O   0  0  0  0  0  0  0  0  0  0  0  0
    8.0667   -6.7807    0.0000 C   0  0  0  0  0  0  0  0  0  0  0  0
    7.2317   -7.9331    0.0000 C   0  0  0  0  0  0  0  0  0  0  0  0
    7.3945   -6.2922    0.0000 C   0  0  0  0  0  0  0  0  0  0  0  0
    6.5678   -7.4571    0.0000 C   0  0  0  0  0  0  0  0  0  0  0  0
    9.4070   -7.7452    0.0000 O   0  0  0  0  0  0  0  0  0  0  0  0
    3.4697   -5.0396    0.0000 C   0  0  0  0  0  0  0  0  0  0  0  0
    8.5677   -8.9059    0.0000 O   0  0  0  0  0  0  0  0  0  0  0  0
    3.4739   -6.4759    0.0000 C   0  0  0  0  0  0  0  0  0  0  0  0
    3.8830   -4.3256    0.0000 C   0  0  0  0  0  0  0  0  0  0  0  0
    2.6472   -5.0396    0.0000 C   0  0  0  0  0  0  0  0  0  0  0  0
    7.8078   -9.2441    0.0000 C   0  0  0  0  0  0  0  0  0  0  0  0
    2.6472   -6.4759    0.0000 C   0  0  0  0  0  0  0  0  0  0  0  0
    7.7285  -10.0625    0.0000 C   0  0  0  0  0  0  0  0  0  0  0  0
    2.2338   -5.7619    0.0000 C   0  0  0  0  0  0  0  0  0  0  0  0
  2  1  1  0  0  0  0
  3  1  1  0  0  0  0
  4  2  1  0  0  0  0
  5  3  1  0  0  0  0
  6  4  1  0  0  0  0
  7 13  1  0  0  0  0
  8  7  1  0  0  0  0
  9  1  1  0  0  0  0
 10  2  2  0  0  0  0
 11  3  2  0  0  0  0
 12 14  1  0  0  0  0
 13 15  1  0  0  0  0
 14  6  1  0  0  0  0
 15  6  1  0  0  0  0
 16  8  2  0  0  0  0
 17  9  2  0  0  0  0
 18  8  1  0  0  0  0
 19  9  1  0  0  0  0
 20 17  1  0  0  0  0
 21 17  1  0  0  0  0
 22 18  1  0  0  0  0
 23 19  2  0  0  0  0
 24 22  1  0  0  0  0
 25 23  1  0  0  0  0
  4  5  1  0  0  0  0
 25 21  2  0  0  0  0
  7 12  1  0  0  0  0
M  END
>  <IDNUMBER>
F3115-0095

>  <Chemical_Name>
ethyl 4-[1-(2-methylphenyl)-2,5-dioxopyrrolidin-3-yl]piperazine-1-carboxylate

>  <PriceCoeff>
1.00

>  <CAS>
839681-44-6

>  <MW>
345.39

>  <Description>
solid

>  <FSP3>
0.50

>  <clogP>
2.48

>  <TPSA>
70.16

>  <Acceptor>
4

>  <Donor>
1

>  <RotBonds>
5

>  <HAC>
25

>  <Collection>
General

>  <PPDS>
+

$$$$
F3115-0096
  Mrv2219 10102508112D          

 28 31  0  0  0  0            999 V2000
    4.7014   -5.7536    0.0000 N   0  0  0  0  0  0  0  0  0  0  0  0
    5.1983   -6.4175    0.0000 C   0  0  0  0  0  0  0  0  0  0  0  0
    5.1899   -5.0772    0.0000 C   0  0  0  0  0  0  0  0  0  0  0  0
    5.9791   -6.1627    0.0000 C   0  0  0  0  0  0  0  0  0  0  0  0
    5.9791   -5.3277    0.0000 C   0  0  0  0  0  0  0  0  0  0  0  0
    3.8747   -5.7536    0.0000 C   0  0  0  0  0  0  0  0  0  0  0  0
    6.6513   -6.6387    0.0000 N   0  0  0  0  0  0  0  0  0  0  0  0
    7.9832   -7.5949    0.0000 N   0  0  0  0  0  0  0  0  0  0  0  0
    8.6471   -8.0834    0.0000 C   0  0  0  0  0  0  0  0  0  0  0  0
    3.4614   -5.0396    0.0000 C   0  0  0  0  0  0  0  0  0  0  0  0
    4.9394   -7.2066    0.0000 O   0  0  0  0  0  0  0  0  0  0  0  0
    4.9269   -4.2964    0.0000 O   0  0  0  0  0  0  0  0  0  0  0  0
    7.2317   -7.9331    0.0000 C   0  0  0  0  0  0  0  0  0  0  0  0
    8.0667   -6.7807    0.0000 C   0  0  0  0  0  0  0  0  0  0  0  0
    6.5678   -7.4571    0.0000 C   0  0  0  0  0  0  0  0  0  0  0  0
    7.3945   -6.2922    0.0000 C   0  0  0  0  0  0  0  0  0  0  0  0
    9.4070   -7.7452    0.0000 O   0  0  0  0  0  0  0  0  0  0  0  0
    2.6472   -5.0396    0.0000 C   0  0  0  0  0  0  0  0  0  0  0  0
    8.5677   -8.9059    0.0000 O   0  0  0  0  0  0  0  0  0  0  0  0
    3.4739   -6.4759    0.0000 C   0  0  0  0  0  0  0  0  0  0  0  0
    3.8747   -4.3256    0.0000 C   0  0  0  0  0  0  0  0  0  0  0  0
    2.6472   -6.4759    0.0000 C   0  0  0  0  0  0  0  0  0  0  0  0
    2.2338   -5.7619    0.0000 C   0  0  0  0  0  0  0  0  0  0  0  0
    2.2338   -4.3382    0.0000 C   0  0  0  0  0  0  0  0  0  0  0  0
    7.8078   -9.2441    0.0000 C   0  0  0  0  0  0  0  0  0  0  0  0
    3.4614   -3.6242    0.0000 C   0  0  0  0  0  0  0  0  0  0  0  0
    7.7285  -10.0625    0.0000 C   0  0  0  0  0  0  0  0  0  0  0  0
    2.6430   -3.6242    0.0000 C   0  0  0  0  0  0  0  0  0  0  0  0
  2  1  1  0  0  0  0
  3  1  1  0  0  0  0
  4  2  1  0  0  0  0
  5  3  1  0  0  0  0
  6  1  1  0  0  0  0
  7  4  1  0  0  0  0
  8 14  1  0  0  0  0
  9  8  1  0  0  0  0
 10  6  2  0  0  0  0
 11  2  2  0  0  0  0
 12  3  2  0  0  0  0
 13 15  1  0  0  0  0
 14 16  1  0  0  0  0
 15  7  1  0  0  0  0
 16  7  1  0  0  0  0
 17  9  2  0  0  0  0
 18 10  1  0  0  0  0
 19  9  1  0  0  0  0
 20  6  1  0  0  0  0
 21 10  1  0  0  0  0
 22 20  2  0  0  0  0
 23 22  1  0  0  0  0
 24 18  1  0  0  0  0
 25 19  1  0  0  0  0
 26 21  2  0  0  0  0
 27 25  1  0  0  0  0
 28 26  1  0  0  0  0
  4  5  1  0  0  0  0
 23 18  2  0  0  0  0
 24 28  2  0  0  0  0
  8 13  1  0  0  0  0
M  END
>  <IDNUMBER>
F3115-0096

>  <Chemical_Name>
ethyl 4-[1-(naphthalen-1-yl)-2,5-dioxopyrrolidin-3-yl]piperazine-1-carboxylate

>  <PriceCoeff>
1.00

>  <CAS>
838889-15-9

>  <MW>
381.43

>  <Description>
solid

>  <FSP3>
0.38

>  <clogP>
3.55

>  <TPSA>
73.32

>  <Acceptor>
4

>  <Donor>
1

>  <RotBonds>
5

>  <HAC>
28

>  <Collection>
General

>  <PPDS>
+

$$$$
F3115-0097
  Mrv2219 10102508112D          

 26 28  0  0  0  0            999 V2000
    4.6984   -5.7499    0.0000 N   0  0  0  0  0  0  0  0  0  0  0  0
    5.1949   -6.4134    0.0000 C   0  0  0  0  0  0  0  0  0  0  0  0
    5.1866   -5.0739    0.0000 C   0  0  0  0  0  0  0  0  0  0  0  0
    5.9752   -6.1588    0.0000 C   0  0  0  0  0  0  0  0  0  0  0  0
    3.8722   -5.7499    0.0000 C   0  0  0  0  0  0  0  0  0  0  0  0
    5.9752   -5.3243    0.0000 C   0  0  0  0  0  0  0  0  0  0  0  0
    6.6470   -6.6345    0.0000 N   0  0  0  0  0  0  0  0  0  0  0  0
    7.9781   -7.5900    0.0000 N   0  0  0  0  0  0  0  0  0  0  0  0
    8.6415   -8.0782    0.0000 C   0  0  0  0  0  0  0  0  0  0  0  0
    3.4675   -5.0364    0.0000 C   0  0  0  0  0  0  0  0  0  0  0  0
    4.9362   -7.2020    0.0000 O   0  0  0  0  0  0  0  0  0  0  0  0
    4.9237   -4.2936    0.0000 O   0  0  0  0  0  0  0  0  0  0  0  0
    8.0615   -6.7764    0.0000 C   0  0  0  0  0  0  0  0  0  0  0  0
    7.2270   -7.9280    0.0000 C   0  0  0  0  0  0  0  0  0  0  0  0
    7.3898   -6.2882    0.0000 C   0  0  0  0  0  0  0  0  0  0  0  0
    6.5636   -7.4523    0.0000 C   0  0  0  0  0  0  0  0  0  0  0  0
    9.4009   -7.7403    0.0000 O   0  0  0  0  0  0  0  0  0  0  0  0
    2.6455   -5.0364    0.0000 C   0  0  0  0  0  0  0  0  0  0  0  0
    8.5622   -8.9002    0.0000 O   0  0  0  0  0  0  0  0  0  0  0  0
    3.4717   -6.4717    0.0000 C   0  0  0  0  0  0  0  0  0  0  0  0
    3.8805   -4.3229    0.0000 C   0  0  0  0  0  0  0  0  0  0  0  0
    2.6455   -6.4717    0.0000 C   0  0  0  0  0  0  0  0  0  0  0  0
    2.2324   -5.7582    0.0000 C   0  0  0  0  0  0  0  0  0  0  0  0
    2.2282   -4.3229    0.0000 C   0  0  0  0  0  0  0  0  0  0  0  0
    7.8028   -9.2382    0.0000 C   0  0  0  0  0  0  0  0  0  0  0  0
    7.7235  -10.0561    0.0000 C   0  0  0  0  0  0  0  0  0  0  0  0
  2  1  1  0  0  0  0
  3  1  1  0  0  0  0
  4  2  1  0  0  0  0
  5  1  1  0  0  0  0
  6  3  1  0  0  0  0
  7  4  1  0  0  0  0
  8 14  1  0  0  0  0
  9  8  1  0  0  0  0
 10  5  2  0  0  0  0
 11  2  2  0  0  0  0
 12  3  2  0  0  0  0
 13 15  1  0  0  0  0
 14 16  1  0  0  0  0
 15  7  1  0  0  0  0
 16  7  1  0  0  0  0
 17  9  2  0  0  0  0
 18 10  1  0  0  0  0
 19  9  1  0  0  0  0
 20  5  1  0  0  0  0
 21 10  1  0  0  0  0
 22 20  2  0  0  0  0
 23 22  1  0  0  0  0
 24 18  1  0  0  0  0
 25 19  1  0  0  0  0
 26 25  1  0  0  0  0
  4  6  1  0  0  0  0
 23 18  2  0  0  0  0
  8 13  1  0  0  0  0
M  END
>  <IDNUMBER>
F3115-0097

>  <Chemical_Name>
ethyl 4-[1-(2,3-dimethylphenyl)-2,5-dioxopyrrolidin-3-yl]piperazine-1-carboxylate

>  <PriceCoeff>
1.00

>  <CAS>
839680-57-8

>  <MW>
359.42

>  <Description>
solid

>  <FSP3>
0.53

>  <clogP>
2.93

>  <TPSA>
70.16

>  <Acceptor>
4

>  <Donor>
1

>  <RotBonds>
5

>  <HAC>
26

>  <Collection>
General

>  <PPDS>
+

$$$$
F3115-0098
  Mrv2219 10102508112D          

 26 28  0  0  0  0            999 V2000
    4.8768   -0.9311    0.0000 N   0  0  0  0  0  0  0  0  0  0  0  0
    5.3653   -1.5950    0.0000 C   0  0  0  0  0  0  0  0  0  0  0  0
    5.3611   -0.2547    0.0000 C   0  0  0  0  0  0  0  0  0  0  0  0
    6.1544   -1.3403    0.0000 C   0  0  0  0  0  0  0  0  0  0  0  0
    6.1502   -0.5052    0.0000 C   0  0  0  0  0  0  0  0  0  0  0  0
    6.8183   -1.8163    0.0000 N   0  0  0  0  0  0  0  0  0  0  0  0
    8.1544   -2.7724    0.0000 N   0  0  0  0  0  0  0  0  0  0  0  0
    8.8224   -3.2609    0.0000 C   0  0  0  0  0  0  0  0  0  0  0  0
    4.0501   -0.9311    0.0000 C   0  0  0  0  0  0  0  0  0  0  0  0
    5.1148   -2.3841    0.0000 O   0  0  0  0  0  0  0  0  0  0  0  0
    5.1023    0.5261    0.0000 O   0  0  0  0  0  0  0  0  0  0  0  0
    8.2337   -1.9583    0.0000 C   0  0  0  0  0  0  0  0  0  0  0  0
    7.4028   -3.1106    0.0000 C   0  0  0  0  0  0  0  0  0  0  0  0
    7.5699   -1.4697    0.0000 C   0  0  0  0  0  0  0  0  0  0  0  0
    6.7389   -2.6346    0.0000 C   0  0  0  0  0  0  0  0  0  0  0  0
    9.5740   -2.9227    0.0000 O   0  0  0  0  0  0  0  0  0  0  0  0
    3.6367   -0.2171    0.0000 C   0  0  0  0  0  0  0  0  0  0  0  0
    8.7348   -4.0751    0.0000 O   0  0  0  0  0  0  0  0  0  0  0  0
    3.6492   -1.6534    0.0000 C   0  0  0  0  0  0  0  0  0  0  0  0
    4.0501    0.4968    0.0000 C   0  0  0  0  0  0  0  0  0  0  0  0
    2.8183   -0.2171    0.0000 C   0  0  0  0  0  0  0  0  0  0  0  0
    7.9832   -4.4216    0.0000 C   0  0  0  0  0  0  0  0  0  0  0  0
    3.6367    1.2108    0.0000 C   0  0  0  0  0  0  0  0  0  0  0  0
    2.8183   -1.6534    0.0000 C   0  0  0  0  0  0  0  0  0  0  0  0
    7.8955   -5.2400    0.0000 C   0  0  0  0  0  0  0  0  0  0  0  0
    2.4050   -0.9394    0.0000 C   0  0  0  0  0  0  0  0  0  0  0  0
  2  1  1  0  0  0  0
  3  1  1  0  0  0  0
  4  2  1  0  0  0  0
  5  3  1  0  0  0  0
  6  4  1  0  0  0  0
  7 13  1  0  0  0  0
  8  7  1  0  0  0  0
  9  1  1  0  0  0  0
 10  2  2  0  0  0  0
 11  3  2  0  0  0  0
 12 14  1  0  0  0  0
 13 15  1  0  0  0  0
 14  6  1  0  0  0  0
 15  6  1  0  0  0  0
 16  8  2  0  0  0  0
 17  9  2  0  0  0  0
 18  8  1  0  0  0  0
 19  9  1  0  0  0  0
 20 17  1  0  0  0  0
 21 17  1  0  0  0  0
 22 18  1  0  0  0  0
 23 20  1  0  0  0  0
 24 19  2  0  0  0  0
 25 22  1  0  0  0  0
 26 24  1  0  0  0  0
  4  5  1  0  0  0  0
 26 21  2  0  0  0  0
  7 12  1  0  0  0  0
M  END
>  <IDNUMBER>
F3115-0098

>  <Chemical_Name>
ethyl 4-[1-(2-ethylphenyl)-2,5-dioxopyrrolidin-3-yl]piperazine-1-carboxylate

>  <PriceCoeff>
1.00

>  <CAS>
857494-05-4

>  <MW>
359.42

>  <Description>
solid

>  <FSP3>
0.53

>  <clogP>
3.01

>  <TPSA>
70.16

>  <Acceptor>
4

>  <Donor>
1

>  <RotBonds>
6

>  <HAC>
26

>  <Collection>
General

>  <PPDS>
+

$$$$
F3115-0100
  Mrv2219 10102508112D          

 26 28  0  0  0  0            999 V2000
    4.6946   -5.3825    0.0000 N   0  0  0  0  0  0  0  0  0  0  0  0
    5.1907   -6.0537    0.0000 C   0  0  0  0  0  0  0  0  0  0  0  0
    5.1824   -4.7154    0.0000 C   0  0  0  0  0  0  0  0  0  0  0  0
    5.9703   -5.7952    0.0000 C   0  0  0  0  0  0  0  0  0  0  0  0
    5.9703   -4.9655    0.0000 C   0  0  0  0  0  0  0  0  0  0  0  0
    3.8691   -5.3908    0.0000 C   0  0  0  0  0  0  0  0  0  0  0  0
    6.6415   -6.2705    0.0000 N   0  0  0  0  0  0  0  0  0  0  0  0
    7.9716   -7.2294    0.0000 N   0  0  0  0  0  0  0  0  0  0  0  0
    8.6345   -7.7172    0.0000 C   0  0  0  0  0  0  0  0  0  0  0  0
    3.4646   -4.6779    0.0000 C   0  0  0  0  0  0  0  0  0  0  0  0
    4.9322   -6.8334    0.0000 O   0  0  0  0  0  0  0  0  0  0  0  0
    3.4688   -6.1079    0.0000 C   0  0  0  0  0  0  0  0  0  0  0  0
    4.9197   -3.9316    0.0000 O   0  0  0  0  0  0  0  0  0  0  0  0
    8.0549   -6.4081    0.0000 C   0  0  0  0  0  0  0  0  0  0  0  0
    7.2211   -7.5588    0.0000 C   0  0  0  0  0  0  0  0  0  0  0  0
    7.3837   -5.9286    0.0000 C   0  0  0  0  0  0  0  0  0  0  0  0
    6.5582   -7.0835    0.0000 C   0  0  0  0  0  0  0  0  0  0  0  0
    9.3932   -7.3795    0.0000 O   0  0  0  0  0  0  0  0  0  0  0  0
    2.6433   -4.6779    0.0000 C   0  0  0  0  0  0  0  0  0  0  0  0
    8.5552   -8.5344    0.0000 O   0  0  0  0  0  0  0  0  0  0  0  0
    2.6433   -6.1079    0.0000 C   0  0  0  0  0  0  0  0  0  0  0  0
    2.2306   -5.3950    0.0000 C   0  0  0  0  0  0  0  0  0  0  0  0
    3.8774   -3.9566    0.0000 C   0  0  0  0  0  0  0  0  0  0  0  0
    7.7965   -8.8721    0.0000 C   0  0  0  0  0  0  0  0  0  0  0  0
    1.4051   -5.3950    0.0000 C   0  0  0  0  0  0  0  0  0  0  0  0
    7.7172   -9.6934    0.0000 C   0  0  0  0  0  0  0  0  0  0  0  0
  2  1  1  0  0  0  0
  3  1  1  0  0  0  0
  4  2  1  0  0  0  0
  5  3  1  0  0  0  0
  6  1  1  0  0  0  0
  7  4  1  0  0  0  0
  8 15  1  0  0  0  0
  9  8  1  0  0  0  0
 10  6  2  0  0  0  0
 11  2  2  0  0  0  0
 12  6  1  0  0  0  0
 13  3  2  0  0  0  0
 14 16  1  0  0  0  0
 15 17  1  0  0  0  0
 16  7  1  0  0  0  0
 17  7  1  0  0  0  0
 18  9  2  0  0  0  0
 19 10  1  0  0  0  0
 20  9  1  0  0  0  0
 21 12  2  0  0  0  0
 22 21  1  0  0  0  0
 23 10  1  0  0  0  0
 24 20  1  0  0  0  0
 25 22  1  0  0  0  0
 26 24  1  0  0  0  0
  4  5  1  0  0  0  0
 22 19  2  0  0  0  0
  8 14  1  0  0  0  0
M  END
>  <IDNUMBER>
F3115-0100

>  <Chemical_Name>
ethyl 4-[1-(2,4-dimethylphenyl)-2,5-dioxopyrrolidin-3-yl]piperazine-1-carboxylate

>  <PriceCoeff>
1.00

>  <CAS>
857494-12-3

>  <MW>
359.42

>  <Description>
solid

>  <FSP3>
0.53

>  <clogP>
2.98

>  <TPSA>
70.16

>  <Acceptor>
4

>  <Donor>
1

>  <RotBonds>
5

>  <HAC>
26

>  <Collection>
General

>  <PPDS>
+

$$$$
F3115-0101
  Mrv2219 10102508112D          

 25 27  0  0  0  0            999 V2000
    4.6952   -5.3832    0.0000 N   0  0  0  0  0  0  0  0  0  0  0  0
    5.1914   -6.0545    0.0000 C   0  0  0  0  0  0  0  0  0  0  0  0
    5.1831   -4.7160    0.0000 C   0  0  0  0  0  0  0  0  0  0  0  0
    5.9712   -5.7960    0.0000 C   0  0  0  0  0  0  0  0  0  0  0  0
    5.9712   -4.9662    0.0000 C   0  0  0  0  0  0  0  0  0  0  0  0
    6.6425   -6.2714    0.0000 N   0  0  0  0  0  0  0  0  0  0  0  0
    7.9727   -7.2304    0.0000 N   0  0  0  0  0  0  0  0  0  0  0  0
    8.6357   -7.7183    0.0000 C   0  0  0  0  0  0  0  0  0  0  0  0
    3.8696   -5.3915    0.0000 C   0  0  0  0  0  0  0  0  0  0  0  0
    4.9329   -6.8343    0.0000 O   0  0  0  0  0  0  0  0  0  0  0  0
    4.9204   -3.9321    0.0000 O   0  0  0  0  0  0  0  0  0  0  0  0
    8.0560   -6.4090    0.0000 C   0  0  0  0  0  0  0  0  0  0  0  0
    7.2221   -7.5599    0.0000 C   0  0  0  0  0  0  0  0  0  0  0  0
    7.3847   -5.9294    0.0000 C   0  0  0  0  0  0  0  0  0  0  0  0
    6.5591   -7.0845    0.0000 C   0  0  0  0  0  0  0  0  0  0  0  0
    9.3945   -7.3805    0.0000 O   0  0  0  0  0  0  0  0  0  0  0  0
    3.4651   -4.6785    0.0000 C   0  0  0  0  0  0  0  0  0  0  0  0
    8.5564   -8.5356    0.0000 O   0  0  0  0  0  0  0  0  0  0  0  0
    3.8779   -3.9572    0.0000 Cl  0  0  0  0  0  0  0  0  0  0  0  0
    3.4693   -6.1088    0.0000 C   0  0  0  0  0  0  0  0  0  0  0  0
    2.6437   -4.6785    0.0000 C   0  0  0  0  0  0  0  0  0  0  0  0
    7.7975   -8.8733    0.0000 C   0  0  0  0  0  0  0  0  0  0  0  0
    2.6437   -6.1088    0.0000 C   0  0  0  0  0  0  0  0  0  0  0  0
    7.7183   -9.6948    0.0000 C   0  0  0  0  0  0  0  0  0  0  0  0
    2.2309   -5.3957    0.0000 C   0  0  0  0  0  0  0  0  0  0  0  0
  2  1  1  0  0  0  0
  3  1  1  0  0  0  0
  4  2  1  0  0  0  0
  5  3  1  0  0  0  0
  6  4  1  0  0  0  0
  7 13  1  0  0  0  0
  8  7  1  0  0  0  0
  9  1  1  0  0  0  0
 10  2  2  0  0  0  0
 11  3  2  0  0  0  0
 12 14  1  0  0  0  0
 13 15  1  0  0  0  0
 14  6  1  0  0  0  0
 15  6  1  0  0  0  0
 16  8  2  0  0  0  0
 17  9  2  0  0  0  0
 18  8  1  0  0  0  0
 19 17  1  0  0  0  0
 20  9  1  0  0  0  0
 21 17  1  0  0  0  0
 22 18  1  0  0  0  0
 23 20  2  0  0  0  0
 24 22  1  0  0  0  0
 25 23  1  0  0  0  0
  4  5  1  0  0  0  0
 25 21  2  0  0  0  0
  7 12  1  0  0  0  0
M  END
>  <IDNUMBER>
F3115-0101

>  <Chemical_Name>
ethyl 4-[1-(2-chlorophenyl)-2,5-dioxopyrrolidin-3-yl]piperazine-1-carboxylate

>  <PriceCoeff>
1.00

>  <CAS>
838886-84-3

>  <MW>
365.81

>  <Description>
solid

>  <FSP3>
0.47

>  <clogP>
2.97

>  <TPSA>
70.16

>  <Acceptor>
4

>  <Donor>
1

>  <RotBonds>
5

>  <HAC>
25

>  <Collection>
General

>  <PPDS>
+

$$$$
F3129-0236
  Mrv2219 10102508112D          

 25 28  0  0  0  0            999 V2000
    6.0475   -4.5053    0.0000 C   0  0  0  0  0  0  0  0  0  0  0  0
    6.7621   -4.0915    0.0000 C   0  0  0  0  0  0  0  0  0  0  0  0
    6.0600   -5.3203    0.0000 C   0  0  0  0  0  0  0  0  0  0  0  0
    5.3579   -5.7423    0.0000 C   0  0  0  0  0  0  0  0  0  0  0  0
    5.3328   -4.1041    0.0000 C   0  0  0  0  0  0  0  0  0  0  0  0
    7.4851   -4.4928    0.0000 C   0  0  0  0  0  0  0  0  0  0  0  0
    6.7579   -3.2598    0.0000 N   0  0  0  0  0  0  0  0  0  0  0  0
    4.6390   -5.3411    0.0000 C   0  0  0  0  0  0  0  0  0  0  0  0
    8.1997   -4.0790    0.0000 C   0  0  0  0  0  0  0  0  0  0  0  0
    4.6307   -4.5178    0.0000 C   0  0  0  0  0  0  0  0  0  0  0  0
    5.1949   -6.5490    0.0000 O   0  0  0  0  0  0  0  0  0  0  0  0
    4.0289   -5.8970    0.0000 O   0  0  0  0  0  0  0  0  0  0  0  0
    5.3286   -3.2766    0.0000 C   0  0  0  0  0  0  0  0  0  0  0  0
    4.3799   -6.6451    0.0000 C   0  0  0  0  0  0  0  0  0  0  0  0
    6.0349   -2.8503    0.0000 C   0  0  0  0  0  0  0  0  0  0  0  0
    8.1872   -3.2515    0.0000 O   0  0  0  0  0  0  0  0  0  0  0  0
    8.9186   -4.4802    0.0000 C   0  0  0  0  0  0  0  0  0  0  0  0
    6.7830   -5.7298    0.0000 O   0  0  0  0  0  0  0  0  0  0  0  0
    7.4726   -2.8378    0.0000 C   0  0  0  0  0  0  0  0  0  0  0  0
    8.9186   -5.3077    0.0000 C   0  0  0  0  0  0  0  0  0  0  0  0
    9.6207   -4.0623    0.0000 C   0  0  0  0  0  0  0  0  0  0  0  0
    6.7746   -6.5573    0.0000 C   0  0  0  0  0  0  0  0  0  0  0  0
   10.3437   -4.4551    0.0000 C   0  0  0  0  0  0  0  0  0  0  0  0
    9.6416   -5.7173    0.0000 C   0  0  0  0  0  0  0  0  0  0  0  0
   10.3563   -5.2952    0.0000 C   0  0  0  0  0  0  0  0  0  0  0  0
  2  1  1  0  0  0  0
  3  1  1  0  0  0  0
  4  3  2  0  0  0  0
  5  1  2  0  0  0  0
  6  2  1  0  0  0  0
  7  2  1  0  0  0  0
  8 10  2  0  0  0  0
  9  6  1  0  0  0  0
 10  5  1  0  0  0  0
 11  4  1  0  0  0  0
 12  8  1  0  0  0  0
 13  5  1  0  0  0  0
 14 11  1  0  0  0  0
 15 13  1  0  0  0  0
 16  9  2  0  0  0  0
 17  9  1  0  0  0  0
 18  3  1  0  0  0  0
 19  7  1  0  0  0  0
 20 17  2  0  0  0  0
 21 17  1  0  0  0  0
 22 18  1  0  0  0  0
 23 21  2  0  0  0  0
 24 20  1  0  0  0  0
 25 23  1  0  0  0  0
 15  7  1  0  0  0  0
  8  4  1  0  0  0  0
 14 12  1  0  0  0  0
 25 24  2  0  0  0  0
M  END
>  <IDNUMBER>
F3129-0236

>  <Chemical_Name>
2-{4-methoxy-6-methyl-2H,5H,6H,7H,8H-[1,3]dioxolo[4,5-g]isoquinolin-5-yl}-1-phenylethan-1-one

>  <PriceCoeff>
1.00

>  <CAS>
2220-06-6

>  <MW>
339.39

>  <Description>
solid

>  <FSP3>
0.35

>  <clogP>
3.80

>  <TPSA>
48.00

>  <Acceptor>
4

>  <Donor>
1

>  <RotBonds>
4

>  <HAC>
25

>  <Collection>
General

>  <PPDS>
+

$$$$
F3139-0181
  Mrv2219 10102508112D          

 17 18  0  0  0  0            999 V2000
    2.7417    0.0833    0.0000 C   0  0  0  0  0  0  0  0  0  0  0  0
    3.4542   -0.3292    0.0000 C   0  0  0  0  0  0  0  0  0  0  0  0
    4.1667    0.0833    0.0000 C   0  0  0  0  0  0  0  0  0  0  0  0
    5.6000    0.0833    0.0000 C   0  0  0  0  0  0  0  0  0  0  0  0
    4.8875   -0.3292    0.0000 C   0  0  0  0  0  0  0  0  0  0  0  0
    6.3500   -0.2500    0.0000 S   0  0  0  0  0  0  0  0  0  0  0  0
    2.7417    0.9083    0.0000 C   0  0  0  0  0  0  0  0  0  0  0  0
    2.0250   -0.3292    0.0000 C   0  0  0  0  0  0  0  0  0  0  0  0
    6.9000    0.3625    0.0000 C   0  0  0  0  0  0  0  0  0  0  0  0
    5.6792    0.9083    0.0000 C   0  0  0  0  0  0  0  0  0  0  0  0
    6.4875    1.0750    0.0000 C   0  0  0  0  0  0  0  0  0  0  0  0
    3.4542   -1.1542    0.0000 O   0  0  0  0  0  0  0  0  0  0  0  0
    2.0250    1.3208    0.0000 C   0  0  0  0  0  0  0  0  0  0  0  0
    1.3125    0.0833    0.0000 C   0  0  0  0  0  0  0  0  0  0  0  0
    1.3125    0.9083    0.0000 C   0  0  0  0  0  0  0  0  0  0  0  0
    0.5917   -0.3292    0.0000 Cl  0  0  0  0  0  0  0  0  0  0  0  0
    3.4542    1.3250    0.0000 O   0  0  0  0  0  0  0  0  0  0  0  0
  2  1  1  0  0  0  0
  3  2  1  0  0  0  0
  4  5  1  0  0  0  0
  5  3  2  0  0  0  0
  6  4  1  0  0  0  0
  7  1  1  0  0  0  0
  8  1  2  0  0  0  0
  9  6  1  0  0  0  0
 10  4  2  0  0  0  0
 11 10  1  0  0  0  0
 12  2  2  0  0  0  0
 13  7  2  0  0  0  0
 14  8  1  0  0  0  0
 15 14  2  0  0  0  0
 16 14  1  0  0  0  0
 17  7  1  0  0  0  0
 15 13  1  0  0  0  0
 11  9  2  0  0  0  0
M  END
>  <IDNUMBER>
F3139-0181

>  <Chemical_Name>
(2E)-1-(5-chloro-2-hydroxyphenyl)-3-(thiophen-2-yl)prop-2-en-1-one

>  <PriceCoeff>
1.00

>  <CAS>
908563-72-4

>  <MW>
264.73

>  <Description>
solid

>  <FSP3>
0.00

>  <clogP>
4.44

>  <TPSA>
65.54

>  <Acceptor>
2

>  <Donor>
1

>  <RotBonds>
3

>  <HAC>
17

>  <Collection>
General

>  <PPDS>
+

$$$$
F3139-0228
  Mrv2219 10102508112D          

 19 20  0  0  0  0            999 V2000
   -1.3202   -2.4780    0.0000 C   0  0  0  0  0  0  0  0  0  0  0  0
   -2.0365   -1.2369    0.0000 C   0  0  0  0  0  0  0  0  0  0  0  0
   -0.6080   -2.8903    0.0000 C   0  0  0  0  0  0  0  0  0  0  0  0
   -1.3202   -1.6492    0.0000 C   0  0  0  0  0  0  0  0  0  0  0  0
    0.1041   -2.4738    0.0000 C   0  0  0  0  0  0  0  0  0  0  0  0
   -2.7486   -1.6492    0.0000 C   0  0  0  0  0  0  0  0  0  0  0  0
    0.8246   -2.8861    0.0000 C   0  0  0  0  0  0  0  0  0  0  0  0
   -2.0365   -2.8903    0.0000 C   0  0  0  0  0  0  0  0  0  0  0  0
   -2.7486   -2.4780    0.0000 C   0  0  0  0  0  0  0  0  0  0  0  0
    0.8246   -3.7107    0.0000 O   0  0  0  0  0  0  0  0  0  0  0  0
    1.5367   -2.4738    0.0000 C   0  0  0  0  0  0  0  0  0  0  0  0
   -2.0365   -0.4165    0.0000 Cl  0  0  0  0  0  0  0  0  0  0  0  0
   -0.6080   -1.2286    0.0000 O   0  0  0  0  0  0  0  0  0  0  0  0
   -3.4608   -2.8903    0.0000 Cl  0  0  0  0  0  0  0  0  0  0  0  0
    2.2531   -2.8861    0.0000 C   0  0  0  0  0  0  0  0  0  0  0  0
    1.5284   -1.6534    0.0000 C   0  0  0  0  0  0  0  0  0  0  0  0
    2.2406   -1.2369    0.0000 C   0  0  0  0  0  0  0  0  0  0  0  0
    2.9652   -2.4738    0.0000 C   0  0  0  0  0  0  0  0  0  0  0  0
    2.9652   -1.6492    0.0000 C   0  0  0  0  0  0  0  0  0  0  0  0
  2  4  2  0  0  0  0
  3  1  1  0  0  0  0
  4  1  1  0  0  0  0
  5  3  2  0  0  0  0
  6  9  2  0  0  0  0
  7  5  1  0  0  0  0
  8  1  2  0  0  0  0
  9  8  1  0  0  0  0
 10  7  2  0  0  0  0
 11  7  1  0  0  0  0
 12  2  1  0  0  0  0
 13  4  1  0  0  0  0
 14  9  1  0  0  0  0
 15 11  2  0  0  0  0
 16 11  1  0  0  0  0
 17 16  2  0  0  0  0
 18 15  1  0  0  0  0
 19 17  1  0  0  0  0
  2  6  1  0  0  0  0
 18 19  2  0  0  0  0
M  END
>  <IDNUMBER>
F3139-0228

>  <Chemical_Name>
(2E)-3-(3,5-dichloro-2-hydroxyphenyl)-1-phenylprop-2-en-1-one

>  <PriceCoeff>
1.00

>  <CAS>
55210-71-4

>  <MW>
293.14

>  <Description>
solid

>  <FSP3>
0.00

>  <clogP>
4.45

>  <TPSA>
37.30

>  <Acceptor>
2

>  <Donor>
1

>  <RotBonds>
3

>  <HAC>
19

>  <Collection>
General

>  <PPDS>
+

$$$$
F3139-0282
  Mrv2219 10102508112D          

 30 33  0  0  0  0            999 V2000
    6.2667   -2.1750    0.0000 C   0  0  0  0  0  0  0  0  0  0  0  0
    5.5500   -2.5875    0.0000 C   0  0  0  0  0  0  0  0  0  0  0  0
    4.8375   -2.1750    0.0000 C   0  0  0  0  0  0  0  0  0  0  0  0
    6.2667   -1.3500    0.0000 C   0  0  0  0  0  0  0  0  0  0  0  0
    4.8375   -1.3500    0.0000 C   0  0  0  0  0  0  0  0  0  0  0  0
    5.5500   -0.9375    0.0000 O   0  0  0  0  0  0  0  0  0  0  0  0
    6.9792   -2.5875    0.0000 C   0  0  0  0  0  0  0  0  0  0  0  0
    1.9792   -1.3417    0.0000 C   0  0  0  0  0  0  0  0  0  0  0  0
    4.1250   -0.9375    0.0000 C   0  0  0  0  0  0  0  0  0  0  0  0
    2.6917   -0.9375    0.0000 O   0  0  0  0  0  0  0  0  0  0  0  0
    4.1250   -2.5875    0.0000 C   0  0  0  0  0  0  0  0  0  0  0  0
    1.2667   -0.9250    0.0000 C   0  0  0  0  0  0  0  0  0  0  0  0
    3.4042   -1.3500    0.0000 C   0  0  0  0  0  0  0  0  0  0  0  0
    5.5500   -3.4125    0.0000 O   0  0  0  0  0  0  0  0  0  0  0  0
    1.9667   -2.1667    0.0000 O   0  0  0  0  0  0  0  0  0  0  0  0
    6.9792   -3.4167    0.0000 C   0  0  0  0  0  0  0  0  0  0  0  0
    1.2792   -0.0917    0.0000 C   0  0  0  0  0  0  0  0  0  0  0  0
    0.5542   -1.3292    0.0000 C   0  0  0  0  0  0  0  0  0  0  0  0
    3.4042   -2.1750    0.0000 C   0  0  0  0  0  0  0  0  0  0  0  0
   -0.1500   -0.0792    0.0000 C   0  0  0  0  0  0  0  0  0  0  0  0
   -0.1583   -0.9125    0.0000 C   0  0  0  0  0  0  0  0  0  0  0  0
    0.5667    0.3208    0.0000 C   0  0  0  0  0  0  0  0  0  0  0  0
    6.2667   -3.8250    0.0000 O   0  0  0  0  0  0  0  0  0  0  0  0
    7.6917   -2.1750    0.0000 C   0  0  0  0  0  0  0  0  0  0  0  0
   -0.8625    0.3375    0.0000 O   0  0  0  0  0  0  0  0  0  0  0  0
    7.6917   -3.8292    0.0000 C   0  0  0  0  0  0  0  0  0  0  0  0
    6.2667   -4.6500    0.0000 C   0  0  0  0  0  0  0  0  0  0  0  0
   -1.5833   -0.0667    0.0000 C   0  0  0  0  0  0  0  0  0  0  0  0
    8.4042   -2.5875    0.0000 C   0  0  0  0  0  0  0  0  0  0  0  0
    8.4042   -3.4167    0.0000 C   0  0  0  0  0  0  0  0  0  0  0  0
  2  1  1  0  0  0  0
  3  2  1  0  0  0  0
  4  1  2  0  0  0  0
  5  6  1  0  0  0  0
  6  4  1  0  0  0  0
  7  1  1  0  0  0  0
  8 10  1  0  0  0  0
  9  5  2  0  0  0  0
 10 13  1  0  0  0  0
 11  3  2  0  0  0  0
 12  8  1  0  0  0  0
 13  9  1  0  0  0  0
 14  2  2  0  0  0  0
 15  8  2  0  0  0  0
 16  7  2  0  0  0  0
 17 12  2  0  0  0  0
 18 12  1  0  0  0  0
 19 11  1  0  0  0  0
 20 21  1  0  0  0  0
 21 18  2  0  0  0  0
 22 17  1  0  0  0  0
 23 16  1  0  0  0  0
 24  7  1  0  0  0  0
 25 20  1  0  0  0  0
 26 16  1  0  0  0  0
 27 23  1  0  0  0  0
 28 25  1  0  0  0  0
 29 24  2  0  0  0  0
 30 29  1  0  0  0  0
  5  3  1  0  0  0  0
 26 30  2  0  0  0  0
 13 19  2  0  0  0  0
 22 20  2  0  0  0  0
M  END
>  <IDNUMBER>
F3139-0282

>  <Chemical_Name>
3-(2-methoxyphenyl)-4-oxo-4H-chromen-7-yl 4-methoxybenzoate

>  <PriceCoeff>
1.00

>  <CAS>
315715-14-1

>  <MW>
402.40

>  <Description>
solid

>  <FSP3>
0.08

>  <clogP>
4.19

>  <TPSA>
71.06

>  <Acceptor>
6

>  <Donor>
0

>  <RotBonds>
6

>  <HAC>
30

>  <Collection>
General

$$$$
F3139-0287
  Mrv2219 10102508112D          

 25 27  0  0  0  0            999 V2000
    6.3542   -1.2167    0.0000 C   0  0  0  0  0  0  0  0  0  0  0  0
    5.6417   -1.6292    0.0000 C   0  0  0  0  0  0  0  0  0  0  0  0
    4.9292   -1.2167    0.0000 C   0  0  0  0  0  0  0  0  0  0  0  0
    6.3542   -0.3917    0.0000 C   0  0  0  0  0  0  0  0  0  0  0  0
    4.9292   -0.3917    0.0000 C   0  0  0  0  0  0  0  0  0  0  0  0
    5.6417    0.0208    0.0000 O   0  0  0  0  0  0  0  0  0  0  0  0
    7.0667   -1.6375    0.0000 C   0  0  0  0  0  0  0  0  0  0  0  0
    2.0667   -0.3917    0.0000 C   0  0  0  0  0  0  0  0  0  0  0  0
    4.2167    0.0208    0.0000 C   0  0  0  0  0  0  0  0  0  0  0  0
    2.7875    0.0208    0.0000 O   0  0  0  0  0  0  0  0  0  0  0  0
    4.2167   -1.6292    0.0000 C   0  0  0  0  0  0  0  0  0  0  0  0
    3.5000   -0.4000    0.0000 C   0  0  0  0  0  0  0  0  0  0  0  0
    5.6417   -2.4542    0.0000 O   0  0  0  0  0  0  0  0  0  0  0  0
    2.0625   -1.2125    0.0000 O   0  0  0  0  0  0  0  0  0  0  0  0
    7.0667   -2.4625    0.0000 C   0  0  0  0  0  0  0  0  0  0  0  0
    1.3542    0.0333    0.0000 C   0  0  0  0  0  0  0  0  0  0  0  0
    3.5000   -1.2167    0.0000 C   0  0  0  0  0  0  0  0  0  0  0  0
    6.3625   -2.8667    0.0000 O   0  0  0  0  0  0  0  0  0  0  0  0
    7.7792   -1.2167    0.0000 C   0  0  0  0  0  0  0  0  0  0  0  0
    7.7792   -2.8750    0.0000 C   0  0  0  0  0  0  0  0  0  0  0  0
    0.6417   -0.3750    0.0000 C   0  0  0  0  0  0  0  0  0  0  0  0
    1.3667    0.8583    0.0000 C   0  0  0  0  0  0  0  0  0  0  0  0
    6.3542   -3.6917    0.0000 C   0  0  0  0  0  0  0  0  0  0  0  0
    8.5000   -1.6292    0.0000 C   0  0  0  0  0  0  0  0  0  0  0  0
    8.5000   -2.4625    0.0000 C   0  0  0  0  0  0  0  0  0  0  0  0
  2  1  1  0  0  0  0
  3  2  1  0  0  0  0
  4  1  2  0  0  0  0
  5  6  1  0  0  0  0
  6  4  1  0  0  0  0
  7  1  1  0  0  0  0
  8 10  1  0  0  0  0
  9  5  2  0  0  0  0
 10 12  1  0  0  0  0
 11  3  2  0  0  0  0
 12  9  1  0  0  0  0
 13  2  2  0  0  0  0
 14  8  2  0  0  0  0
 15  7  2  0  0  0  0
 16  8  1  0  0  0  0
 17 11  1  0  0  0  0
 18 15  1  0  0  0  0
 19  7  1  0  0  0  0
 20 15  1  0  0  0  0
 21 16  1  0  0  0  0
 22 16  1  0  0  0  0
 23 18  1  0  0  0  0
 24 19  2  0  0  0  0
 25 24  1  0  0  0  0
  5  3  1  0  0  0  0
 20 25  2  0  0  0  0
 12 17  2  0  0  0  0
M  END
>  <IDNUMBER>
F3139-0287

>  <Chemical_Name>
3-(2-methoxyphenyl)-4-oxo-4H-chromen-7-yl 2-methylpropanoate

>  <PriceCoeff>
1.00

>  <CAS>
300814-02-2

>  <MW>
338.35

>  <Description>
solid

>  <FSP3>
0.20

>  <clogP>
2.73

>  <TPSA>
61.83

>  <Acceptor>
5

>  <Donor>
0

>  <RotBonds>
5

>  <HAC>
25

>  <Collection>
General

>  <PPDS>
+

$$$$
F3139-0289
  Mrv2219 10102508112D          

 30 33  0  0  0  0            999 V2000
    7.0813   -1.5532    0.0000 C   0  0  0  0  0  0  0  0  0  0  0  0
    6.3632   -1.9666    0.0000 C   0  0  0  0  0  0  0  0  0  0  0  0
    5.6492   -1.5532    0.0000 C   0  0  0  0  0  0  0  0  0  0  0  0
    7.0813   -0.7265    0.0000 C   0  0  0  0  0  0  0  0  0  0  0  0
    5.6492   -0.7265    0.0000 C   0  0  0  0  0  0  0  0  0  0  0  0
    6.3632   -0.3131    0.0000 O   0  0  0  0  0  0  0  0  0  0  0  0
    7.7953   -1.9666    0.0000 C   0  0  0  0  0  0  0  0  0  0  0  0
    3.4989    0.5136    0.0000 C   0  0  0  0  0  0  0  0  0  0  0  0
    4.9352   -0.3131    0.0000 C   0  0  0  0  0  0  0  0  0  0  0  0
    3.4989   -0.3131    0.0000 O   0  0  0  0  0  0  0  0  0  0  0  0
    2.7850    0.9269    0.0000 C   0  0  0  0  0  0  0  0  0  0  0  0
    4.9352   -1.9666    0.0000 C   0  0  0  0  0  0  0  0  0  0  0  0
    4.2129   -0.7265    0.0000 C   0  0  0  0  0  0  0  0  0  0  0  0
    6.3632   -2.7933    0.0000 O   0  0  0  0  0  0  0  0  0  0  0  0
    4.2212    0.9269    0.0000 O   0  0  0  0  0  0  0  0  0  0  0  0
    7.7953   -2.7933    0.0000 C   0  0  0  0  0  0  0  0  0  0  0  0
    2.0710    0.5136    0.0000 C   0  0  0  0  0  0  0  0  0  0  0  0
    4.2129   -1.5532    0.0000 C   0  0  0  0  0  0  0  0  0  0  0  0
    1.3570    0.9227    0.0000 C   0  0  0  0  0  0  0  0  0  0  0  0
    7.0813   -3.1983    0.0000 O   0  0  0  0  0  0  0  0  0  0  0  0
    8.5093   -1.5532    0.0000 C   0  0  0  0  0  0  0  0  0  0  0  0
    0.6430    0.5094    0.0000 O   0  0  0  0  0  0  0  0  0  0  0  0
    2.7933    1.7494    0.0000 C   0  0  0  0  0  0  0  0  0  0  0  0
    2.0710    2.1670    0.0000 C   0  0  0  0  0  0  0  0  0  0  0  0
    8.5093   -3.2066    0.0000 C   0  0  0  0  0  0  0  0  0  0  0  0
    1.3570    1.7536    0.0000 C   0  0  0  0  0  0  0  0  0  0  0  0
    7.0813   -4.0250    0.0000 C   0  0  0  0  0  0  0  0  0  0  0  0
    0.6430   -0.3174    0.0000 C   0  0  0  0  0  0  0  0  0  0  0  0
    9.2233   -1.9583    0.0000 C   0  0  0  0  0  0  0  0  0  0  0  0
    9.2233   -2.7933    0.0000 C   0  0  0  0  0  0  0  0  0  0  0  0
  2  1  1  0  0  0  0
  3  2  1  0  0  0  0
  4  1  2  0  0  0  0
  5  6  1  0  0  0  0
  6  4  1  0  0  0  0
  7  1  1  0  0  0  0
  8 10  1  0  0  0  0
  9  5  2  0  0  0  0
 10 13  1  0  0  0  0
 11  8  1  0  0  0  0
 12  3  2  0  0  0  0
 13  9  1  0  0  0  0
 14  2  2  0  0  0  0
 15  8  2  0  0  0  0
 16  7  2  0  0  0  0
 17 11  1  0  0  0  0
 18 12  1  0  0  0  0
 19 17  2  0  0  0  0
 20 16  1  0  0  0  0
 21  7  1  0  0  0  0
 22 19  1  0  0  0  0
 23 11  2  0  0  0  0
 24 23  1  0  0  0  0
 25 16  1  0  0  0  0
 26 24  2  0  0  0  0
 27 20  1  0  0  0  0
 28 22  1  0  0  0  0
 29 21  2  0  0  0  0
 30 29  1  0  0  0  0
  5  3  1  0  0  0  0
 25 30  2  0  0  0  0
 13 18  2  0  0  0  0
 19 26  1  0  0  0  0
M  END
>  <IDNUMBER>
F3139-0289

>  <Chemical_Name>
3-(2-methoxyphenyl)-4-oxo-4H-chromen-7-yl 3-methoxybenzoate

>  <PriceCoeff>
1.00

>  <CAS>
451452-17-8

>  <MW>
402.40

>  <Description>
solid

>  <FSP3>
0.08

>  <clogP>
4.19

>  <TPSA>
71.06

>  <Acceptor>
6

>  <Donor>
0

>  <RotBonds>
6

>  <HAC>
30

>  <Collection>
General

>  <PPDS>
+

$$$$
F3139-0414
  Mrv2219 10102508112D          

 27 29  0  0  0  0            999 V2000
    1.3625   -1.2042    0.0000 C   0  0  0  0  0  0  0  0  0  0  0  0
    0.6417   -0.8000    0.0000 C   0  0  0  0  0  0  0  0  0  0  0  0
    2.0667   -0.7917    0.0000 C   0  0  0  0  0  0  0  0  0  0  0  0
    0.6417    0.0250    0.0000 C   0  0  0  0  0  0  0  0  0  0  0  0
   -0.0708   -1.2042    0.0000 C   0  0  0  0  0  0  0  0  0  0  0  0
    2.0667    0.0333    0.0000 C   0  0  0  0  0  0  0  0  0  0  0  0
    1.3542    0.4458    0.0000 O   0  0  0  0  0  0  0  0  0  0  0  0
   -0.0708    0.4375    0.0000 C   0  0  0  0  0  0  0  0  0  0  0  0
   -0.7750   -0.8000    0.0000 C   0  0  0  0  0  0  0  0  0  0  0  0
   -0.7750    0.0250    0.0000 C   0  0  0  0  0  0  0  0  0  0  0  0
   -0.0708   -2.0292    0.0000 O   0  0  0  0  0  0  0  0  0  0  0  0
    2.7875   -1.2042    0.0000 C   0  0  0  0  0  0  0  0  0  0  0  0
   -0.7833   -2.4417    0.0000 C   0  0  0  0  0  0  0  0  0  0  0  0
    1.3625   -2.0292    0.0000 O   0  0  0  0  0  0  0  0  0  0  0  0
   -1.4958    1.2625    0.0000 C   0  0  0  0  0  0  0  0  0  0  0  0
   -1.4958    0.4375    0.0000 O   0  0  0  0  0  0  0  0  0  0  0  0
   -0.7833   -3.2667    0.0000 O   0  0  0  0  0  0  0  0  0  0  0  0
   -0.7833    1.6750    0.0000 O   0  0  0  0  0  0  0  0  0  0  0  0
    3.5000   -0.7917    0.0000 C   0  0  0  0  0  0  0  0  0  0  0  0
    2.7875   -2.0292    0.0000 C   0  0  0  0  0  0  0  0  0  0  0  0
    4.2125   -2.0292    0.0000 C   0  0  0  0  0  0  0  0  0  0  0  0
    3.5042   -2.4417    0.0000 C   0  0  0  0  0  0  0  0  0  0  0  0
    4.2125   -1.2000    0.0000 C   0  0  0  0  0  0  0  0  0  0  0  0
    4.9292   -2.4417    0.0000 O   0  0  0  0  0  0  0  0  0  0  0  0
   -1.4958   -2.0292    0.0000 C   0  0  0  0  0  0  0  0  0  0  0  0
   -2.2083    1.6833    0.0000 C   0  0  0  0  0  0  0  0  0  0  0  0
    5.6500   -2.0292    0.0000 C   0  0  0  0  0  0  0  0  0  0  0  0
  2  1  1  0  0  0  0
  3  1  1  0  0  0  0
  4  2  1  0  0  0  0
  5  2  2  0  0  0  0
  6  3  2  0  0  0  0
  7  6  1  0  0  0  0
  8  4  2  0  0  0  0
  9  5  1  0  0  0  0
 10  9  2  0  0  0  0
 11  5  1  0  0  0  0
 12  3  1  0  0  0  0
 13 11  1  0  0  0  0
 14  1  2  0  0  0  0
 15 16  1  0  0  0  0
 16 10  1  0  0  0  0
 17 13  2  0  0  0  0
 18 15  2  0  0  0  0
 19 12  1  0  0  0  0
 20 12  2  0  0  0  0
 21 22  2  0  0  0  0
 22 20  1  0  0  0  0
 23 19  2  0  0  0  0
 24 21  1  0  0  0  0
 25 13  1  0  0  0  0
 26 15  1  0  0  0  0
 27 24  1  0  0  0  0
  4  7  1  0  0  0  0
 23 21  1  0  0  0  0
  8 10  1  0  0  0  0
M  END
>  <IDNUMBER>
F3139-0414

>  <Chemical_Name>
7-(acetyloxy)-3-(4-methoxyphenyl)-4-oxo-4H-chromen-5-yl acetate

>  <PriceCoeff>
1.00

>  <CAS>
54443-59-3

>  <MW>
368.34

>  <Description>
solid

>  <FSP3>
0.15

>  <clogP>
1.90

>  <TPSA>
88.13

>  <Acceptor>
7

>  <Donor>
0

>  <RotBonds>
6

>  <HAC>
27

>  <Collection>
General

>  <PPDS>
+

$$$$
F3139-0439
  Mrv2219 10102508112D          

 31 34  0  0  0  0            999 V2000
    7.7042   -2.7042    0.0000 C   0  0  0  0  0  0  0  0  0  0  0  0
    6.2792   -2.7042    0.0000 C   0  0  0  0  0  0  0  0  0  0  0  0
    6.9917   -3.1167    0.0000 C   0  0  0  0  0  0  0  0  0  0  0  0
    7.7042   -1.8792    0.0000 C   0  0  0  0  0  0  0  0  0  0  0  0
    6.2792   -1.8792    0.0000 C   0  0  0  0  0  0  0  0  0  0  0  0
    8.4167   -3.1167    0.0000 C   0  0  0  0  0  0  0  0  0  0  0  0
    6.9917   -1.4667    0.0000 O   0  0  0  0  0  0  0  0  0  0  0  0
    5.5667   -3.1167    0.0000 C   0  0  0  0  0  0  0  0  0  0  0  0
    5.5667   -1.4667    0.0000 C   0  0  0  0  0  0  0  0  0  0  0  0
    4.8500   -1.8792    0.0000 C   0  0  0  0  0  0  0  0  0  0  0  0
    9.8500   -3.1167    0.0000 C   0  0  0  0  0  0  0  0  0  0  0  0
    4.8500   -2.7042    0.0000 C   0  0  0  0  0  0  0  0  0  0  0  0
    9.1375   -2.7042    0.0000 C   0  0  0  0  0  0  0  0  0  0  0  0
    2.6917   -1.4750    0.0000 C   0  0  0  0  0  0  0  0  0  0  0  0
    9.8500   -3.9417    0.0000 C   0  0  0  0  0  0  0  0  0  0  0  0
    6.9917   -3.9417    0.0000 O   0  0  0  0  0  0  0  0  0  0  0  0
    4.1292   -1.4667    0.0000 O   0  0  0  0  0  0  0  0  0  0  0  0
   10.5625   -2.7042    0.0000 O   0  0  0  0  0  0  0  0  0  0  0  0
    8.4167   -3.9417    0.0000 C   0  0  0  0  0  0  0  0  0  0  0  0
   10.5625   -4.3542    0.0000 O   0  0  0  0  0  0  0  0  0  0  0  0
    2.6875   -0.6417    0.0000 O   0  0  0  0  0  0  0  0  0  0  0  0
    1.9792   -1.8875    0.0000 O   0  0  0  0  0  0  0  0  0  0  0  0
    9.1292   -4.3542    0.0000 C   0  0  0  0  0  0  0  0  0  0  0  0
    3.4167   -1.8792    0.0000 C   0  0  0  0  0  0  0  0  0  0  0  0
    4.1292   -3.1250    0.0000 C   0  0  0  0  0  0  0  0  0  0  0  0
    1.2667   -1.4792    0.0000 C   0  0  0  0  0  0  0  0  0  0  0  0
   11.2792   -3.1167    0.0000 C   0  0  0  0  0  0  0  0  0  0  0  0
   11.2792   -3.9417    0.0000 C   0  0  0  0  0  0  0  0  0  0  0  0
    0.5542   -1.8917    0.0000 C   0  0  0  0  0  0  0  0  0  0  0  0
    1.2667   -0.6542    0.0000 C   0  0  0  0  0  0  0  0  0  0  0  0
    3.4042   -2.7125    0.0000 C   0  0  0  0  0  0  0  0  0  0  0  0
  2  3  1  0  0  0  0
  3  1  1  0  0  0  0
  4  1  2  0  0  0  0
  5  7  1  0  0  0  0
  6  1  1  0  0  0  0
  7  4  1  0  0  0  0
  8  2  2  0  0  0  0
  9  5  2  0  0  0  0
 10  9  1  0  0  0  0
 11 13  2  0  0  0  0
 12  8  1  0  0  0  0
 13  6  1  0  0  0  0
 14 24  1  0  0  0  0
 15 23  2  0  0  0  0
 16  3  2  0  0  0  0
 17 10  1  0  0  0  0
 18 11  1  0  0  0  0
 19  6  2  0  0  0  0
 20 15  1  0  0  0  0
 21 14  2  0  0  0  0
 22 14  1  0  0  0  0
 23 19  1  0  0  0  0
 24 17  1  0  0  0  0
 25 12  1  0  0  0  0
 26 22  1  0  0  0  0
 27 18  1  0  0  0  0
 28 20  1  0  0  0  0
 29 26  1  0  0  0  0
 30 26  1  0  0  0  0
 31 25  1  0  0  0  0
  5  2  1  0  0  0  0
 15 11  1  0  0  0  0
 10 12  2  0  0  0  0
 27 28  1  0  0  0  0
M  END
>  <IDNUMBER>
F3139-0439

>  <Chemical_Name>
propan-2-yl 2-{[3-(2,3-dihydro-1,4-benzodioxin-6-yl)-6-ethyl-4-oxo-4H-chromen-7-yl]oxy}acetate

>  <PriceCoeff>
1.00

>  <CAS>
610764-99-3

>  <MW>
424.44

>  <Description>
solid

>  <FSP3>
0.33

>  <clogP>
4.50

>  <TPSA>
80.29

>  <Acceptor>
7

>  <Donor>
0

>  <RotBonds>
7

>  <HAC>
31

>  <Collection>
General

>  <PPDS>
+

$$$$
F3139-0443
  Mrv2219 10102508112D          

 29 32  0  0  0  0            999 V2000
    4.4509   -2.1461    0.0000 C   0  0  0  0  0  0  0  0  0  0  0  0
    3.7369   -2.5595    0.0000 C   0  0  0  0  0  0  0  0  0  0  0  0
    3.0230   -2.1461    0.0000 C   0  0  0  0  0  0  0  0  0  0  0  0
    4.4509   -1.3194    0.0000 C   0  0  0  0  0  0  0  0  0  0  0  0
    3.0230   -1.3194    0.0000 C   0  0  0  0  0  0  0  0  0  0  0  0
    3.7369   -0.9061    0.0000 O   0  0  0  0  0  0  0  0  0  0  0  0
    5.1649   -2.5595    0.0000 C   0  0  0  0  0  0  0  0  0  0  0  0
    2.3090   -2.5595    0.0000 C   0  0  0  0  0  0  0  0  0  0  0  0
    2.3090   -0.9061    0.0000 C   0  0  0  0  0  0  0  0  0  0  0  0
    3.7369   -3.3862    0.0000 O   0  0  0  0  0  0  0  0  0  0  0  0
    5.1649   -3.3862    0.0000 C   0  0  0  0  0  0  0  0  0  0  0  0
    1.5908   -1.3194    0.0000 C   0  0  0  0  0  0  0  0  0  0  0  0
    0.8685   -0.9061    0.0000 O   0  0  0  0  0  0  0  0  0  0  0  0
    1.5908   -2.1461    0.0000 C   0  0  0  0  0  0  0  0  0  0  0  0
   -1.2734   -1.3320    0.0000 C   0  0  0  0  0  0  0  0  0  0  0  0
    0.1545   -1.3194    0.0000 C   0  0  0  0  0  0  0  0  0  0  0  0
   -0.5637   -0.9144    0.0000 C   0  0  0  0  0  0  0  0  0  0  0  0
   -1.9916   -0.9311    0.0000 C   0  0  0  0  0  0  0  0  0  0  0  0
    4.4592   -3.7996    0.0000 O   0  0  0  0  0  0  0  0  0  0  0  0
    5.8914   -2.1461    0.0000 C   0  0  0  0  0  0  0  0  0  0  0  0
   -2.7014   -1.3528    0.0000 O   0  0  0  0  0  0  0  0  0  0  0  0
   -1.2860    0.3215    0.0000 C   0  0  0  0  0  0  0  0  0  0  0  0
    5.8789   -3.7996    0.0000 C   0  0  0  0  0  0  0  0  0  0  0  0
   -0.5720   -0.0877    0.0000 C   0  0  0  0  0  0  0  0  0  0  0  0
   -1.9999   -0.0919    0.0000 C   0  0  0  0  0  0  0  0  0  0  0  0
    4.4509   -4.6263    0.0000 C   0  0  0  0  0  0  0  0  0  0  0  0
   -2.6931   -2.1795    0.0000 C   0  0  0  0  0  0  0  0  0  0  0  0
    6.6054   -2.5595    0.0000 C   0  0  0  0  0  0  0  0  0  0  0  0
    6.6054   -3.3862    0.0000 C   0  0  0  0  0  0  0  0  0  0  0  0
  2  1  1  0  0  0  0
  3  2  1  0  0  0  0
  4  1  2  0  0  0  0
  5  6  1  0  0  0  0
  6  4  1  0  0  0  0
  7  1  1  0  0  0  0
  8  3  2  0  0  0  0
  9  5  2  0  0  0  0
 10  2  2  0  0  0  0
 11  7  2  0  0  0  0
 12  9  1  0  0  0  0
 13 12  1  0  0  0  0
 14  8  1  0  0  0  0
 15 17  1  0  0  0  0
 16 13  1  0  0  0  0
 17 16  1  0  0  0  0
 18 15  2  0  0  0  0
 19 11  1  0  0  0  0
 20  7  1  0  0  0  0
 21 18  1  0  0  0  0
 22 24  1  0  0  0  0
 23 11  1  0  0  0  0
 24 17  2  0  0  0  0
 25 22  2  0  0  0  0
 26 19  1  0  0  0  0
 27 21  1  0  0  0  0
 28 20  2  0  0  0  0
 29 28  1  0  0  0  0
  5  3  1  0  0  0  0
 23 29  2  0  0  0  0
 12 14  2  0  0  0  0
 18 25  1  0  0  0  0
M  END
>  <IDNUMBER>
F3139-0443

>  <Chemical_Name>
3-(2-methoxyphenyl)-7-[(3-methoxyphenyl)methoxy]-4H-chromen-4-one

>  <PriceCoeff>
1.00

>  <CAS>
610751-59-2

>  <MW>
388.41

>  <Description>
solid

>  <FSP3>
0.12

>  <clogP>
4.15

>  <TPSA>
53.99

>  <Acceptor>
5

>  <Donor>
0

>  <RotBonds>
6

>  <HAC>
29

>  <Collection>
General

>  <PPDS>
+

$$$$
F3139-0449
  Mrv2219 10102508112D          

 24 26  0  0  0  0            999 V2000
    4.4417   -2.1417    0.0000 C   0  0  0  0  0  0  0  0  0  0  0  0
    3.7292   -2.5542    0.0000 C   0  0  0  0  0  0  0  0  0  0  0  0
    3.0167   -2.1417    0.0000 C   0  0  0  0  0  0  0  0  0  0  0  0
    4.4417   -1.3167    0.0000 C   0  0  0  0  0  0  0  0  0  0  0  0
    3.0167   -1.3167    0.0000 C   0  0  0  0  0  0  0  0  0  0  0  0
    3.7292   -0.9042    0.0000 O   0  0  0  0  0  0  0  0  0  0  0  0
    5.1542   -2.5542    0.0000 C   0  0  0  0  0  0  0  0  0  0  0  0
    2.3042   -2.5542    0.0000 C   0  0  0  0  0  0  0  0  0  0  0  0
    2.3042   -0.9042    0.0000 C   0  0  0  0  0  0  0  0  0  0  0  0
    3.7292   -3.3792    0.0000 O   0  0  0  0  0  0  0  0  0  0  0  0
    5.1542   -3.3792    0.0000 C   0  0  0  0  0  0  0  0  0  0  0  0
   -0.5625   -0.9125    0.0000 C   0  0  0  0  0  0  0  0  0  0  0  0
    1.5875   -1.3167    0.0000 C   0  0  0  0  0  0  0  0  0  0  0  0
   -0.5708   -0.0875    0.0000 C   0  0  0  0  0  0  0  0  0  0  0  0
    0.8667   -0.9042    0.0000 O   0  0  0  0  0  0  0  0  0  0  0  0
    1.5875   -2.1417    0.0000 C   0  0  0  0  0  0  0  0  0  0  0  0
    0.1542   -1.3167    0.0000 C   0  0  0  0  0  0  0  0  0  0  0  0
    4.4500   -3.7917    0.0000 O   0  0  0  0  0  0  0  0  0  0  0  0
    5.8792   -2.1417    0.0000 C   0  0  0  0  0  0  0  0  0  0  0  0
   -1.2750   -1.3292    0.0000 C   0  0  0  0  0  0  0  0  0  0  0  0
    5.8667   -3.7917    0.0000 C   0  0  0  0  0  0  0  0  0  0  0  0
    4.4417   -4.6167    0.0000 C   0  0  0  0  0  0  0  0  0  0  0  0
    6.5917   -2.5542    0.0000 C   0  0  0  0  0  0  0  0  0  0  0  0
    6.5917   -3.3792    0.0000 C   0  0  0  0  0  0  0  0  0  0  0  0
  2  1  1  0  0  0  0
  3  2  1  0  0  0  0
  4  1  2  0  0  0  0
  5  6  1  0  0  0  0
  6  4  1  0  0  0  0
  7  1  1  0  0  0  0
  8  3  2  0  0  0  0
  9  5  2  0  0  0  0
 10  2  2  0  0  0  0
 11  7  2  0  0  0  0
 12 17  1  0  0  0  0
 13  9  1  0  0  0  0
 14 12  2  0  0  0  0
 15 13  1  0  0  0  0
 16  8  1  0  0  0  0
 17 15  1  0  0  0  0
 18 11  1  0  0  0  0
 19  7  1  0  0  0  0
 20 12  1  0  0  0  0
 21 11  1  0  0  0  0
 22 18  1  0  0  0  0
 23 19  2  0  0  0  0
 24 23  1  0  0  0  0
  5  3  1  0  0  0  0
 21 24  2  0  0  0  0
 13 16  2  0  0  0  0
M  END
>  <IDNUMBER>
F3139-0449

>  <Chemical_Name>
3-(2-methoxyphenyl)-7-[(2-methylprop-2-en-1-yl)oxy]-4H-chromen-4-one

>  <PriceCoeff>
1.00

>  <CAS>
610762-25-9

>  <MW>
322.35

>  <Description>
solid

>  <FSP3>
0.15

>  <clogP>
3.63

>  <TPSA>
44.76

>  <Acceptor>
4

>  <Donor>
0

>  <RotBonds>
5

>  <HAC>
24

>  <Collection>
General

>  <PPDS>
+

$$$$
F3139-0457
  Mrv2219 10102508112D          

 27 30  0  0  0  0            999 V2000
    4.4417   -2.1417    0.0000 C   0  0  0  0  0  0  0  0  0  0  0  0
    3.7292   -2.5542    0.0000 C   0  0  0  0  0  0  0  0  0  0  0  0
    3.0167   -2.1417    0.0000 C   0  0  0  0  0  0  0  0  0  0  0  0
    4.4417   -1.3167    0.0000 C   0  0  0  0  0  0  0  0  0  0  0  0
    3.0167   -1.3167    0.0000 C   0  0  0  0  0  0  0  0  0  0  0  0
    3.7292   -0.9042    0.0000 O   0  0  0  0  0  0  0  0  0  0  0  0
    5.1542   -2.5542    0.0000 C   0  0  0  0  0  0  0  0  0  0  0  0
    2.3042   -2.5542    0.0000 C   0  0  0  0  0  0  0  0  0  0  0  0
    2.3042   -0.9042    0.0000 C   0  0  0  0  0  0  0  0  0  0  0  0
    3.7292   -3.3792    0.0000 O   0  0  0  0  0  0  0  0  0  0  0  0
    5.1542   -3.3792    0.0000 C   0  0  0  0  0  0  0  0  0  0  0  0
    1.5875   -1.3167    0.0000 C   0  0  0  0  0  0  0  0  0  0  0  0
    0.8667   -0.9042    0.0000 O   0  0  0  0  0  0  0  0  0  0  0  0
    1.5875   -2.1417    0.0000 C   0  0  0  0  0  0  0  0  0  0  0  0
    0.1542   -1.3167    0.0000 C   0  0  0  0  0  0  0  0  0  0  0  0
    4.4500   -3.7917    0.0000 O   0  0  0  0  0  0  0  0  0  0  0  0
   -0.5708   -0.9125    0.0000 C   0  0  0  0  0  0  0  0  0  0  0  0
    5.8792   -2.1417    0.0000 C   0  0  0  0  0  0  0  0  0  0  0  0
    5.8667   -3.7917    0.0000 C   0  0  0  0  0  0  0  0  0  0  0  0
    4.4417   -4.6167    0.0000 C   0  0  0  0  0  0  0  0  0  0  0  0
   -0.5708   -0.0792    0.0000 C   0  0  0  0  0  0  0  0  0  0  0  0
   -1.2750   -1.3292    0.0000 C   0  0  0  0  0  0  0  0  0  0  0  0
    6.5917   -2.5542    0.0000 C   0  0  0  0  0  0  0  0  0  0  0  0
    6.5917   -3.3792    0.0000 C   0  0  0  0  0  0  0  0  0  0  0  0
   -1.9958   -0.9292    0.0000 C   0  0  0  0  0  0  0  0  0  0  0  0
   -1.2958    0.3250    0.0000 C   0  0  0  0  0  0  0  0  0  0  0  0
   -2.0083   -0.0917    0.0000 C   0  0  0  0  0  0  0  0  0  0  0  0
  2  1  1  0  0  0  0
  3  2  1  0  0  0  0
  4  1  2  0  0  0  0
  5  6  1  0  0  0  0
  6  4  1  0  0  0  0
  7  1  1  0  0  0  0
  8  3  2  0  0  0  0
  9  5  2  0  0  0  0
 10  2  2  0  0  0  0
 11  7  2  0  0  0  0
 12  9  1  0  0  0  0
 13 12  1  0  0  0  0
 14  8  1  0  0  0  0
 15 13  1  0  0  0  0
 16 11  1  0  0  0  0
 17 15  1  0  0  0  0
 18  7  1  0  0  0  0
 19 11  1  0  0  0  0
 20 16  1  0  0  0  0
 21 17  2  0  0  0  0
 22 17  1  0  0  0  0
 23 18  2  0  0  0  0
 24 23  1  0  0  0  0
 25 22  2  0  0  0  0
 26 21  1  0  0  0  0
 27 25  1  0  0  0  0
  5  3  1  0  0  0  0
 19 24  2  0  0  0  0
 12 14  2  0  0  0  0
 26 27  2  0  0  0  0
M  END
>  <IDNUMBER>
F3139-0457

>  <Chemical_Name>
7-(benzyloxy)-3-(2-methoxyphenyl)-4H-chromen-4-one

>  <PriceCoeff>
1.00

>  <CAS>
303121-62-2

>  <MW>
358.39

>  <Description>
solid

>  <FSP3>
0.09

>  <clogP>
4.23

>  <TPSA>
44.76

>  <Acceptor>
4

>  <Donor>
0

>  <RotBonds>
5

>  <HAC>
27

>  <Collection>
General

>  <PPDS>
+

$$$$
F3139-0460
  Mrv2219 10102508112D          

 33 37  0  0  0  0            999 V2000
    4.4417   -2.1417    0.0000 C   0  0  0  0  0  0  0  0  0  0  0  0
    3.0167   -2.1417    0.0000 C   0  0  0  0  0  0  0  0  0  0  0  0
    3.7292   -2.5542    0.0000 C   0  0  0  0  0  0  0  0  0  0  0  0
    4.4417   -1.3167    0.0000 C   0  0  0  0  0  0  0  0  0  0  0  0
    3.0167   -1.3167    0.0000 C   0  0  0  0  0  0  0  0  0  0  0  0
    5.1542   -2.5542    0.0000 C   0  0  0  0  0  0  0  0  0  0  0  0
    3.7292   -0.9042    0.0000 O   0  0  0  0  0  0  0  0  0  0  0  0
    2.3042   -2.5542    0.0000 C   0  0  0  0  0  0  0  0  0  0  0  0
    2.3042   -0.9042    0.0000 C   0  0  0  0  0  0  0  0  0  0  0  0
    1.5875   -1.3167    0.0000 C   0  0  0  0  0  0  0  0  0  0  0  0
    6.5917   -2.5542    0.0000 C   0  0  0  0  0  0  0  0  0  0  0  0
    1.5875   -2.1417    0.0000 C   0  0  0  0  0  0  0  0  0  0  0  0
    5.8792   -2.1417    0.0000 C   0  0  0  0  0  0  0  0  0  0  0  0
    6.5917   -3.3792    0.0000 C   0  0  0  0  0  0  0  0  0  0  0  0
    3.7292   -3.3792    0.0000 O   0  0  0  0  0  0  0  0  0  0  0  0
    0.8667   -0.9042    0.0000 O   0  0  0  0  0  0  0  0  0  0  0  0
    7.3042   -2.1375    0.0000 O   0  0  0  0  0  0  0  0  0  0  0  0
    5.1542   -3.3792    0.0000 C   0  0  0  0  0  0  0  0  0  0  0  0
    7.3042   -3.7875    0.0000 O   0  0  0  0  0  0  0  0  0  0  0  0
    5.8667   -3.7917    0.0000 C   0  0  0  0  0  0  0  0  0  0  0  0
    0.1542   -1.3167    0.0000 C   0  0  0  0  0  0  0  0  0  0  0  0
   -1.2750   -1.3292    0.0000 C   0  0  0  0  0  0  0  0  0  0  0  0
   -0.5708   -0.9125    0.0000 C   0  0  0  0  0  0  0  0  0  0  0  0
   -1.9958   -0.9292    0.0000 C   0  0  0  0  0  0  0  0  0  0  0  0
   -2.7083   -1.3542    0.0000 O   0  0  0  0  0  0  0  0  0  0  0  0
    0.8667   -2.5542    0.0000 C   0  0  0  0  0  0  0  0  0  0  0  0
   -1.2958    0.3250    0.0000 C   0  0  0  0  0  0  0  0  0  0  0  0
    8.0167   -2.5500    0.0000 C   0  0  0  0  0  0  0  0  0  0  0  0
    8.0167   -3.3750    0.0000 C   0  0  0  0  0  0  0  0  0  0  0  0
   -0.5708   -0.0792    0.0000 C   0  0  0  0  0  0  0  0  0  0  0  0
   -2.0083   -0.0917    0.0000 C   0  0  0  0  0  0  0  0  0  0  0  0
   -2.6958   -2.1792    0.0000 C   0  0  0  0  0  0  0  0  0  0  0  0
    0.8667   -3.3792    0.0000 C   0  0  0  0  0  0  0  0  0  0  0  0
  2  3  1  0  0  0  0
  3  1  1  0  0  0  0
  4  1  2  0  0  0  0
  5  7  1  0  0  0  0
  6  1  1  0  0  0  0
  7  4  1  0  0  0  0
  8  2  2  0  0  0  0
  9  5  2  0  0  0  0
 10  9  1  0  0  0  0
 11 13  2  0  0  0  0
 12  8  1  0  0  0  0
 13  6  1  0  0  0  0
 14 20  2  0  0  0  0
 15  3  2  0  0  0  0
 16 10  1  0  0  0  0
 17 11  1  0  0  0  0
 18  6  2  0  0  0  0
 19 14  1  0  0  0  0
 20 18  1  0  0  0  0
 21 16  1  0  0  0  0
 22 23  1  0  0  0  0
 23 21  1  0  0  0  0
 24 22  2  0  0  0  0
 25 24  1  0  0  0  0
 26 12  1  0  0  0  0
 27 30  1  0  0  0  0
 28 17  1  0  0  0  0
 29 19  1  0  0  0  0
 30 23  2  0  0  0  0
 31 27  2  0  0  0  0
 32 25  1  0  0  0  0
 33 26  1  0  0  0  0
  5  2  1  0  0  0  0
 11 14  1  0  0  0  0
 10 12  2  0  0  0  0
 28 29  1  0  0  0  0
 24 31  1  0  0  0  0
M  END
>  <IDNUMBER>
F3139-0460

>  <Chemical_Name>
3-(2,3-dihydro-1,4-benzodioxin-6-yl)-6-ethyl-7-[(3-methoxyphenyl)methoxy]-4H-chromen-4-one

>  <PriceCoeff>
1.00

>  <CAS>
610751-64-9

>  <MW>
444.48

>  <Description>
solid

>  <FSP3>
0.22

>  <clogP>
5.73

>  <TPSA>
63.22

>  <Acceptor>
6

>  <Donor>
0

>  <RotBonds>
6

>  <HAC>
33

>  <Collection>
General

>  <PPDS>
+

$$$$
F3139-0461
  Mrv2219 10102508112D          

 23 25  0  0  0  0            999 V2000
    6.6573   -1.8081    0.0000 C   0  0  0  0  0  0  0  0  0  0  0  0
    5.9400   -2.2275    0.0000 C   0  0  0  0  0  0  0  0  0  0  0  0
    5.2319   -1.8081    0.0000 C   0  0  0  0  0  0  0  0  0  0  0  0
    6.6573   -0.9923    0.0000 C   0  0  0  0  0  0  0  0  0  0  0  0
    5.2319   -0.9923    0.0000 C   0  0  0  0  0  0  0  0  0  0  0  0
    5.9400   -0.5844    0.0000 O   0  0  0  0  0  0  0  0  0  0  0  0
    7.3654   -2.2275    0.0000 C   0  0  0  0  0  0  0  0  0  0  0  0
    0.9487   -0.1513    0.0000 N   0  0  0  0  0  0  0  0  0  0  0  0
    4.5306   -2.2275    0.0000 C   0  0  0  0  0  0  0  0  0  0  0  0
    4.5306   -0.5844    0.0000 C   0  0  0  0  0  0  0  0  0  0  0  0
    1.6706   -0.5637    0.0000 C   0  0  0  0  0  0  0  0  0  0  0  0
    5.9400   -3.0411    0.0000 O   0  0  0  0  0  0  0  0  0  0  0  0
    7.3654   -3.0525    0.0000 C   0  0  0  0  0  0  0  0  0  0  0  0
    3.8111   -0.9923    0.0000 C   0  0  0  0  0  0  0  0  0  0  0  0
    3.8111   -1.8081    0.0000 C   0  0  0  0  0  0  0  0  0  0  0  0
    6.6711   -3.4512    0.0000 O   0  0  0  0  0  0  0  0  0  0  0  0
    3.0892   -0.5844    0.0000 O   0  0  0  0  0  0  0  0  0  0  0  0
    8.0804   -1.8081    0.0000 C   0  0  0  0  0  0  0  0  0  0  0  0
    2.3879   -0.9923    0.0000 C   0  0  0  0  0  0  0  0  0  0  0  0
    8.0804   -3.4604    0.0000 C   0  0  0  0  0  0  0  0  0  0  0  0
    6.6573   -4.2786    0.0000 C   0  0  0  0  0  0  0  0  0  0  0  0
    8.8000   -2.2275    0.0000 C   0  0  0  0  0  0  0  0  0  0  0  0
    8.8000   -3.0525    0.0000 C   0  0  0  0  0  0  0  0  0  0  0  0
  2  1  1  0  0  0  0
  3  2  1  0  0  0  0
  4  1  2  0  0  0  0
  5  6  1  0  0  0  0
  6  4  1  0  0  0  0
  7  1  1  0  0  0  0
  8 11  3  0  0  0  0
  9  3  2  0  0  0  0
 10  5  2  0  0  0  0
 11 19  1  0  0  0  0
 12  2  2  0  0  0  0
 13  7  2  0  0  0  0
 14 10  1  0  0  0  0
 15  9  1  0  0  0  0
 16 13  1  0  0  0  0
 17 14  1  0  0  0  0
 18  7  1  0  0  0  0
 19 17  1  0  0  0  0
 20 13  1  0  0  0  0
 21 16  1  0  0  0  0
 22 18  2  0  0  0  0
 23 22  1  0  0  0  0
  5  3  1  0  0  0  0
 20 23  2  0  0  0  0
 14 15  2  0  0  0  0
M  END
>  <IDNUMBER>
F3139-0461

>  <Chemical_Name>
2-{[3-(2-methoxyphenyl)-4-oxo-4H-chromen-7-yl]oxy}acetonitrile

>  <PriceCoeff>
1.00

>  <CAS>
610764-16-4

>  <MW>
307.30

>  <Description>
solid

>  <FSP3>
0.11

>  <clogP>
1.45

>  <TPSA>
68.55

>  <Acceptor>
5

>  <Donor>
0

>  <RotBonds>
4

>  <HAC>
23

>  <Collection>
General

>  <PPDS>
+

$$$$
F3139-0515
  Mrv2219 10102508112D          

 31 34  0  0  0  0            999 V2000
    2.2917   -3.6792    0.0000 C   0  0  0  0  0  0  0  0  0  0  0  0
    1.5792   -3.2667    0.0000 C   0  0  0  0  0  0  0  0  0  0  0  0
    3.0042   -3.2667    0.0000 C   0  0  0  0  0  0  0  0  0  0  0  0
    1.5792   -2.4417    0.0000 C   0  0  0  0  0  0  0  0  0  0  0  0
    3.0042   -2.4417    0.0000 C   0  0  0  0  0  0  0  0  0  0  0  0
    0.8667   -3.6792    0.0000 C   0  0  0  0  0  0  0  0  0  0  0  0
    2.2917   -2.0292    0.0000 O   0  0  0  0  0  0  0  0  0  0  0  0
    3.7167   -3.6792    0.0000 C   0  0  0  0  0  0  0  0  0  0  0  0
    0.8667   -2.0292    0.0000 C   0  0  0  0  0  0  0  0  0  0  0  0
    0.1500   -3.2667    0.0000 C   0  0  0  0  0  0  0  0  0  0  0  0
    4.4417   -3.2667    0.0000 C   0  0  0  0  0  0  0  0  0  0  0  0
    5.1542   -3.6792    0.0000 C   0  0  0  0  0  0  0  0  0  0  0  0
    2.2917   -4.5042    0.0000 O   0  0  0  0  0  0  0  0  0  0  0  0
    0.1500   -2.4417    0.0000 C   0  0  0  0  0  0  0  0  0  0  0  0
    5.1542   -4.5042    0.0000 C   0  0  0  0  0  0  0  0  0  0  0  0
    3.7167   -4.5042    0.0000 C   0  0  0  0  0  0  0  0  0  0  0  0
    4.4292   -4.9167    0.0000 C   0  0  0  0  0  0  0  0  0  0  0  0
   -0.5708   -2.0292    0.0000 O   0  0  0  0  0  0  0  0  0  0  0  0
    0.8667   -4.5042    0.0000 O   0  0  0  0  0  0  0  0  0  0  0  0
   -2.7208    0.0333    0.0000 C   0  0  0  0  0  0  0  0  0  0  0  0
   -1.2875   -0.7917    0.0000 C   0  0  0  0  0  0  0  0  0  0  0  0
   -0.5750   -1.2042    0.0000 C   0  0  0  0  0  0  0  0  0  0  0  0
    5.8750   -3.2542    0.0000 O   0  0  0  0  0  0  0  0  0  0  0  0
   -3.4333    0.4375    0.0000 Br  0  0  0  0  0  0  0  0  0  0  0  0
    5.8792   -4.9250    0.0000 O   0  0  0  0  0  0  0  0  0  0  0  0
   -2.7125   -0.8000    0.0000 C   0  0  0  0  0  0  0  0  0  0  0  0
   -2.0000    0.4458    0.0000 C   0  0  0  0  0  0  0  0  0  0  0  0
   -1.9958   -1.2042    0.0000 C   0  0  0  0  0  0  0  0  0  0  0  0
   -1.2875    0.0333    0.0000 C   0  0  0  0  0  0  0  0  0  0  0  0
    5.8667   -2.4292    0.0000 C   0  0  0  0  0  0  0  0  0  0  0  0
    5.8792   -5.7542    0.0000 C   0  0  0  0  0  0  0  0  0  0  0  0
  2  1  1  0  0  0  0
  3  1  1  0  0  0  0
  4  2  1  0  0  0  0
  5  3  2  0  0  0  0
  6  2  2  0  0  0  0
  7  5  1  0  0  0  0
  8  3  1  0  0  0  0
  9  4  2  0  0  0  0
 10  6  1  0  0  0  0
 11  8  1  0  0  0  0
 12 11  2  0  0  0  0
 13  1  2  0  0  0  0
 14 10  2  0  0  0  0
 15 17  2  0  0  0  0
 16  8  2  0  0  0  0
 17 16  1  0  0  0  0
 18 14  1  0  0  0  0
 19  6  1  0  0  0  0
 20 27  2  0  0  0  0
 21 22  1  0  0  0  0
 22 18  1  0  0  0  0
 23 12  1  0  0  0  0
 24 20  1  0  0  0  0
 25 15  1  0  0  0  0
 26 28  2  0  0  0  0
 27 29  1  0  0  0  0
 28 21  1  0  0  0  0
 29 21  2  0  0  0  0
 30 23  1  0  0  0  0
 31 25  1  0  0  0  0
  7  4  1  0  0  0  0
 14  9  1  0  0  0  0
 15 12  1  0  0  0  0
 20 26  1  0  0  0  0
M  END
>  <IDNUMBER>
F3139-0515

>  <Chemical_Name>
7-[(4-bromophenyl)methoxy]-3-(3,4-dimethoxyphenyl)-5-hydroxy-4H-chromen-4-one

>  <PriceCoeff>
1.00

>  <CAS>
637746-91-9

>  <MW>
483.31

>  <Description>
solid

>  <FSP3>
0.12

>  <clogP>
5.94

>  <TPSA>
74.22

>  <Acceptor>
6

>  <Donor>
1

>  <RotBonds>
6

>  <HAC>
31

>  <Collection>
General

>  <PPDS>
+

$$$$
F3139-0551
  Mrv2219 10102508112D          

 24 25  0  0  0  0            999 V2000
    2.7349   -2.7975    0.0000 C   0  0  0  0  0  0  0  0  0  0  0  0
    7.0312   -1.9958    0.0000 C   0  0  0  0  0  0  0  0  0  0  0  0
    7.0312   -2.7975    0.0000 C   0  0  0  0  0  0  0  0  0  0  0  0
    6.3131   -1.5574    0.0000 C   0  0  0  0  0  0  0  0  0  0  0  0
    3.4572   -3.2108    0.0000 C   0  0  0  0  0  0  0  0  0  0  0  0
    4.1711   -2.7975    0.0000 C   0  0  0  0  0  0  0  0  0  0  0  0
    4.8893   -3.2108    0.0000 C   0  0  0  0  0  0  0  0  0  0  0  0
    2.7349   -1.9708    0.0000 C   0  0  0  0  0  0  0  0  0  0  0  0
    5.6033   -2.7975    0.0000 C   0  0  0  0  0  0  0  0  0  0  0  0
    2.0209   -3.2108    0.0000 C   0  0  0  0  0  0  0  0  0  0  0  0
    6.3173   -3.2108    0.0000 C   0  0  0  0  0  0  0  0  0  0  0  0
    5.5991   -1.9708    0.0000 C   0  0  0  0  0  0  0  0  0  0  0  0
    3.4572   -4.0376    0.0000 O   0  0  0  0  0  0  0  0  0  0  0  0
    2.0209   -1.5574    0.0000 C   0  0  0  0  0  0  0  0  0  0  0  0
    1.3069   -2.7975    0.0000 C   0  0  0  0  0  0  0  0  0  0  0  0
    7.7535   -1.5950    0.0000 O   0  0  0  0  0  0  0  0  0  0  0  0
    7.7452   -3.2108    0.0000 O   0  0  0  0  0  0  0  0  0  0  0  0
    6.3173   -0.7307    0.0000 O   0  0  0  0  0  0  0  0  0  0  0  0
    1.3069   -1.9708    0.0000 C   0  0  0  0  0  0  0  0  0  0  0  0
    3.4488   -1.5532    0.0000 O   0  0  0  0  0  0  0  0  0  0  0  0
    0.5887   -3.2108    0.0000 Cl  0  0  0  0  0  0  0  0  0  0  0  0
    7.7577   -0.7683    0.0000 C   0  0  0  0  0  0  0  0  0  0  0  0
    8.4592   -2.7975    0.0000 C   0  0  0  0  0  0  0  0  0  0  0  0
    5.6033   -0.3131    0.0000 C   0  0  0  0  0  0  0  0  0  0  0  0
  2  4  1  0  0  0  0
  3 11  1  0  0  0  0
  4 12  2  0  0  0  0
  5  1  1  0  0  0  0
  6  5  1  0  0  0  0
  7  6  2  0  0  0  0
  8  1  1  0  0  0  0
  9  7  1  0  0  0  0
 10  1  2  0  0  0  0
 11  9  2  0  0  0  0
 12  9  1  0  0  0  0
 13  5  2  0  0  0  0
 14  8  2  0  0  0  0
 15 10  1  0  0  0  0
 16  2  1  0  0  0  0
 17  3  1  0  0  0  0
 18  4  1  0  0  0  0
 19 15  2  0  0  0  0
 20  8  1  0  0  0  0
 21 15  1  0  0  0  0
 22 16  1  0  0  0  0
 23 17  1  0  0  0  0
 24 18  1  0  0  0  0
 14 19  1  0  0  0  0
  3  2  2  0  0  0  0
M  END
>  <IDNUMBER>
F3139-0551

>  <Chemical_Name>
(2E)-1-(5-chloro-2-hydroxyphenyl)-3-(3,4,5-trimethoxyphenyl)prop-2-en-1-one

>  <PriceCoeff>
1.00

>  <CAS>
1255189-04-8

>  <MW>
348.78

>  <Description>
solid

>  <FSP3>
0.17

>  <clogP>
4.10

>  <TPSA>
64.99

>  <Acceptor>
5

>  <Donor>
1

>  <RotBonds>
6

>  <HAC>
24

>  <Collection>
General

>  <PPDS>
+

$$$$
F3139-0610
  Mrv2219 10102508112D          

 19 21  0  0  0  0            999 V2000
    5.2750   -0.4292    0.0000 C   0  0  0  0  0  0  0  0  0  0  0  0
    5.2750   -1.2667    0.0000 C   0  0  0  0  0  0  0  0  0  0  0  0
    4.5542   -0.0125    0.0000 O   0  0  0  0  0  0  0  0  0  0  0  0
    3.8292   -1.2667    0.0000 C   0  0  0  0  0  0  0  0  0  0  0  0
    4.5500   -1.6792    0.0000 C   0  0  0  0  0  0  0  0  0  0  0  0
    3.8375   -0.4292    0.0000 C   0  0  0  0  0  0  0  0  0  0  0  0
    5.9875   -0.0250    0.0000 C   0  0  0  0  0  0  0  0  0  0  0  0
    3.1167   -1.6750    0.0000 C   0  0  0  0  0  0  0  0  0  0  0  0
    6.7042   -0.4417    0.0000 C   0  0  0  0  0  0  0  0  0  0  0  0
    4.5500   -2.5042    0.0000 O   0  0  0  0  0  0  0  0  0  0  0  0
    3.1167   -0.0167    0.0000 C   0  0  0  0  0  0  0  0  0  0  0  0
    2.4042   -1.2625    0.0000 C   0  0  0  0  0  0  0  0  0  0  0  0
    6.6917   -1.2667    0.0000 Cl  0  0  0  0  0  0  0  0  0  0  0  0
    2.4042   -0.4375    0.0000 C   0  0  0  0  0  0  0  0  0  0  0  0
    1.6917   -1.6750    0.0000 Br  0  0  0  0  0  0  0  0  0  0  0  0
    5.9917    0.7958    0.0000 C   0  0  0  0  0  0  0  0  0  0  0  0
    7.4167   -0.0292    0.0000 C   0  0  0  0  0  0  0  0  0  0  0  0
    6.7042    1.2083    0.0000 C   0  0  0  0  0  0  0  0  0  0  0  0
    7.4167    0.7958    0.0000 C   0  0  0  0  0  0  0  0  0  0  0  0
  2  1  2  0  0  0  0
  3  1  1  0  0  0  0
  4  6  1  0  0  0  0
  5  2  1  0  0  0  0
  6  3  1  0  0  0  0
  7  1  1  0  0  0  0
  8  4  2  0  0  0  0
  9  7  2  0  0  0  0
 10  5  2  0  0  0  0
 11  6  2  0  0  0  0
 12 14  2  0  0  0  0
 13  9  1  0  0  0  0
 14 11  1  0  0  0  0
 15 12  1  0  0  0  0
 16  7  1  0  0  0  0
 17  9  1  0  0  0  0
 18 16  2  0  0  0  0
 19 18  1  0  0  0  0
  4  5  1  0  0  0  0
 17 19  2  0  0  0  0
 12  8  1  0  0  0  0
M  END
>  <IDNUMBER>
F3139-0610

>  <Chemical_Name>
6-bromo-2-(2-chlorophenyl)-4H-chromen-4-one

>  <PriceCoeff>
1.00

>  <CAS>
88953-01-9

>  <MW>
335.58

>  <Description>
solid

>  <FSP3>
0.00

>  <clogP>
4.81

>  <TPSA>
26.30

>  <Acceptor>
2

>  <Donor>
0

>  <RotBonds>
1

>  <HAC>
19

>  <Collection>
General

>  <PPDS>
+

$$$$
F3139-0611
  Mrv2219 10102508112D          

 19 21  0  0  0  0            999 V2000
    5.2750   -0.4292    0.0000 C   0  0  0  0  0  0  0  0  0  0  0  0
    5.2750   -1.2667    0.0000 C   0  0  0  0  0  0  0  0  0  0  0  0
    3.8292   -1.2667    0.0000 C   0  0  0  0  0  0  0  0  0  0  0  0
    4.5500   -1.6792    0.0000 C   0  0  0  0  0  0  0  0  0  0  0  0
    4.5542   -0.0125    0.0000 O   0  0  0  0  0  0  0  0  0  0  0  0
    3.8375   -0.4292    0.0000 C   0  0  0  0  0  0  0  0  0  0  0  0
    5.9875   -0.0250    0.0000 C   0  0  0  0  0  0  0  0  0  0  0  0
    3.1167   -1.6750    0.0000 C   0  0  0  0  0  0  0  0  0  0  0  0
    4.5500   -2.5042    0.0000 O   0  0  0  0  0  0  0  0  0  0  0  0
    3.1167   -0.0167    0.0000 C   0  0  0  0  0  0  0  0  0  0  0  0
    5.9917    0.7958    0.0000 C   0  0  0  0  0  0  0  0  0  0  0  0
    6.7042   -0.4417    0.0000 C   0  0  0  0  0  0  0  0  0  0  0  0
    2.4042   -1.2625    0.0000 C   0  0  0  0  0  0  0  0  0  0  0  0
    7.4167    0.7958    0.0000 C   0  0  0  0  0  0  0  0  0  0  0  0
    2.4042   -0.4375    0.0000 C   0  0  0  0  0  0  0  0  0  0  0  0
    7.4167   -0.0292    0.0000 C   0  0  0  0  0  0  0  0  0  0  0  0
    6.7042    1.2083    0.0000 C   0  0  0  0  0  0  0  0  0  0  0  0
    1.6917   -1.6750    0.0000 Br  0  0  0  0  0  0  0  0  0  0  0  0
    8.1375    1.2083    0.0000 Cl  0  0  0  0  0  0  0  0  0  0  0  0
  2  1  2  0  0  0  0
  3  6  1  0  0  0  0
  4  2  1  0  0  0  0
  5  1  1  0  0  0  0
  6  5  1  0  0  0  0
  7  1  1  0  0  0  0
  8  3  2  0  0  0  0
  9  4  2  0  0  0  0
 10  6  2  0  0  0  0
 11  7  1  0  0  0  0
 12  7  2  0  0  0  0
 13 15  2  0  0  0  0
 14 16  2  0  0  0  0
 15 10  1  0  0  0  0
 16 12  1  0  0  0  0
 17 11  2  0  0  0  0
 18 13  1  0  0  0  0
 19 14  1  0  0  0  0
  3  4  1  0  0  0  0
 17 14  1  0  0  0  0
 13  8  1  0  0  0  0
M  END
>  <IDNUMBER>
F3139-0611

>  <Chemical_Name>
6-bromo-2-(4-chlorophenyl)-4H-chromen-4-one

>  <PriceCoeff>
1.00

>  <CAS>
75767-99-6

>  <MW>
335.58

>  <Description>
solid

>  <FSP3>
0.00

>  <clogP>
5.06

>  <TPSA>
26.30

>  <Acceptor>
2

>  <Donor>
0

>  <RotBonds>
1

>  <HAC>
19

>  <Collection>
General

$$$$
F3139-0612
  Mrv2219 10102508112D          

 22 24  0  0  0  0            999 V2000
    5.2750   -0.4292    0.0000 C   0  0  0  0  0  0  0  0  0  0  0  0
    5.2750   -1.2667    0.0000 C   0  0  0  0  0  0  0  0  0  0  0  0
    3.8292   -1.2667    0.0000 C   0  0  0  0  0  0  0  0  0  0  0  0
    4.5500   -1.6792    0.0000 C   0  0  0  0  0  0  0  0  0  0  0  0
    4.5542   -0.0125    0.0000 O   0  0  0  0  0  0  0  0  0  0  0  0
    3.8375   -0.4292    0.0000 C   0  0  0  0  0  0  0  0  0  0  0  0
    5.9875   -0.0250    0.0000 C   0  0  0  0  0  0  0  0  0  0  0  0
    6.7042   -0.4417    0.0000 C   0  0  0  0  0  0  0  0  0  0  0  0
    7.4167   -0.0292    0.0000 C   0  0  0  0  0  0  0  0  0  0  0  0
    3.1167   -1.6750    0.0000 C   0  0  0  0  0  0  0  0  0  0  0  0
    4.5500   -2.5042    0.0000 O   0  0  0  0  0  0  0  0  0  0  0  0
    7.4167    0.7958    0.0000 C   0  0  0  0  0  0  0  0  0  0  0  0
    3.1167   -0.0167    0.0000 C   0  0  0  0  0  0  0  0  0  0  0  0
    5.9917    0.7958    0.0000 C   0  0  0  0  0  0  0  0  0  0  0  0
    6.7042    1.2083    0.0000 C   0  0  0  0  0  0  0  0  0  0  0  0
    2.4042   -1.2625    0.0000 C   0  0  0  0  0  0  0  0  0  0  0  0
    2.4042   -0.4375    0.0000 C   0  0  0  0  0  0  0  0  0  0  0  0
    8.1292   -0.4417    0.0000 O   0  0  0  0  0  0  0  0  0  0  0  0
    1.6917   -1.6750    0.0000 Cl  0  0  0  0  0  0  0  0  0  0  0  0
    8.1417    1.2083    0.0000 O   0  0  0  0  0  0  0  0  0  0  0  0
    8.8417   -0.0292    0.0000 C   0  0  0  0  0  0  0  0  0  0  0  0
    8.1417    2.0333    0.0000 C   0  0  0  0  0  0  0  0  0  0  0  0
  2  1  2  0  0  0  0
  3  6  1  0  0  0  0
  4  2  1  0  0  0  0
  5  1  1  0  0  0  0
  6  5  1  0  0  0  0
  7  1  1  0  0  0  0
  8  7  2  0  0  0  0
  9  8  1  0  0  0  0
 10  3  2  0  0  0  0
 11  4  2  0  0  0  0
 12 15  1  0  0  0  0
 13  6  2  0  0  0  0
 14  7  1  0  0  0  0
 15 14  2  0  0  0  0
 16 17  2  0  0  0  0
 17 13  1  0  0  0  0
 18  9  1  0  0  0  0
 19 16  1  0  0  0  0
 20 12  1  0  0  0  0
 21 18  1  0  0  0  0
 22 20  1  0  0  0  0
  3  4  1  0  0  0  0
  9 12  2  0  0  0  0
 16 10  1  0  0  0  0
M  END
>  <IDNUMBER>
F3139-0612

>  <Chemical_Name>
6-chloro-2-(3,4-dimethoxyphenyl)-4H-chromen-4-one

>  <PriceCoeff>
1.00

>  <CAS>
36768-52-2

>  <MW>
316.74

>  <Description>
solid

>  <FSP3>
0.12

>  <clogP>
3.87

>  <TPSA>
44.76

>  <Acceptor>
4

>  <Donor>
0

>  <RotBonds>
3

>  <HAC>
22

>  <Collection>
General

>  <PPDS>
+

$$$$
F3139-0613
  Mrv2219 10102508112D          

 19 21  0  0  0  0            999 V2000
    5.2750   -0.4292    0.0000 C   0  0  0  0  0  0  0  0  0  0  0  0
    5.2750   -1.2667    0.0000 C   0  0  0  0  0  0  0  0  0  0  0  0
    4.5542   -0.0125    0.0000 O   0  0  0  0  0  0  0  0  0  0  0  0
    3.8292   -1.2667    0.0000 C   0  0  0  0  0  0  0  0  0  0  0  0
    4.5500   -1.6792    0.0000 C   0  0  0  0  0  0  0  0  0  0  0  0
    3.8375   -0.4292    0.0000 C   0  0  0  0  0  0  0  0  0  0  0  0
    5.9875   -0.0250    0.0000 C   0  0  0  0  0  0  0  0  0  0  0  0
    3.1167   -1.6750    0.0000 C   0  0  0  0  0  0  0  0  0  0  0  0
    5.9917    0.7958    0.0000 C   0  0  0  0  0  0  0  0  0  0  0  0
    4.5500   -2.5042    0.0000 O   0  0  0  0  0  0  0  0  0  0  0  0
    3.1167   -0.0167    0.0000 C   0  0  0  0  0  0  0  0  0  0  0  0
    2.4042   -1.2625    0.0000 C   0  0  0  0  0  0  0  0  0  0  0  0
    5.2667    1.2083    0.0000 F   0  0  0  0  0  0  0  0  0  0  0  0
    2.4042   -0.4375    0.0000 C   0  0  0  0  0  0  0  0  0  0  0  0
    6.7042   -0.4417    0.0000 C   0  0  0  0  0  0  0  0  0  0  0  0
    6.7042    1.2083    0.0000 C   0  0  0  0  0  0  0  0  0  0  0  0
    1.6917   -1.6750    0.0000 C   0  0  0  0  0  0  0  0  0  0  0  0
    7.4167   -0.0292    0.0000 C   0  0  0  0  0  0  0  0  0  0  0  0
    7.4167    0.7958    0.0000 C   0  0  0  0  0  0  0  0  0  0  0  0
  2  1  2  0  0  0  0
  3  1  1  0  0  0  0
  4  6  1  0  0  0  0
  5  2  1  0  0  0  0
  6  3  1  0  0  0  0
  7  1  1  0  0  0  0
  8  4  2  0  0  0  0
  9  7  1  0  0  0  0
 10  5  2  0  0  0  0
 11  6  2  0  0  0  0
 12 14  2  0  0  0  0
 13  9  1  0  0  0  0
 14 11  1  0  0  0  0
 15  7  2  0  0  0  0
 16  9  2  0  0  0  0
 17 12  1  0  0  0  0
 18 15  1  0  0  0  0
 19 18  2  0  0  0  0
  4  5  1  0  0  0  0
 16 19  1  0  0  0  0
 12  8  1  0  0  0  0
M  END
>  <IDNUMBER>
F3139-0613

>  <Chemical_Name>
2-(2-fluorophenyl)-6-methyl-4H-chromen-4-one

>  <PriceCoeff>
1.00

>  <CAS>
637747-66-1

>  <MW>
254.26

>  <Description>
solid

>  <FSP3>
0.06

>  <clogP>
4.12

>  <TPSA>
26.30

>  <Acceptor>
2

>  <Donor>
0

>  <RotBonds>
1

>  <HAC>
19

>  <Collection>
General

>  <PPDS>
+

$$$$
F3139-0614
  Mrv2219 10102508112D          

 22 24  0  0  0  0            999 V2000
    5.2750   -0.4292    0.0000 C   0  0  0  0  0  0  0  0  0  0  0  0
    5.2750   -1.2667    0.0000 C   0  0  0  0  0  0  0  0  0  0  0  0
    3.8292   -1.2667    0.0000 C   0  0  0  0  0  0  0  0  0  0  0  0
    4.5500   -1.6792    0.0000 C   0  0  0  0  0  0  0  0  0  0  0  0
    4.5542   -0.0125    0.0000 O   0  0  0  0  0  0  0  0  0  0  0  0
    3.8375   -0.4292    0.0000 C   0  0  0  0  0  0  0  0  0  0  0  0
    5.9875   -0.0250    0.0000 C   0  0  0  0  0  0  0  0  0  0  0  0
    6.7042   -0.4417    0.0000 C   0  0  0  0  0  0  0  0  0  0  0  0
    7.4167   -0.0292    0.0000 C   0  0  0  0  0  0  0  0  0  0  0  0
    3.1167   -1.6750    0.0000 C   0  0  0  0  0  0  0  0  0  0  0  0
    4.5500   -2.5042    0.0000 O   0  0  0  0  0  0  0  0  0  0  0  0
    7.4167    0.7958    0.0000 C   0  0  0  0  0  0  0  0  0  0  0  0
    3.1167   -0.0167    0.0000 C   0  0  0  0  0  0  0  0  0  0  0  0
    5.9917    0.7958    0.0000 C   0  0  0  0  0  0  0  0  0  0  0  0
    6.7042    1.2083    0.0000 C   0  0  0  0  0  0  0  0  0  0  0  0
    2.4042   -1.2625    0.0000 C   0  0  0  0  0  0  0  0  0  0  0  0
    2.4042   -0.4375    0.0000 C   0  0  0  0  0  0  0  0  0  0  0  0
    8.1292   -0.4417    0.0000 O   0  0  0  0  0  0  0  0  0  0  0  0
    1.6917   -1.6750    0.0000 F   0  0  0  0  0  0  0  0  0  0  0  0
    8.1417    1.2083    0.0000 O   0  0  0  0  0  0  0  0  0  0  0  0
    8.8417   -0.0292    0.0000 C   0  0  0  0  0  0  0  0  0  0  0  0
    8.1417    2.0333    0.0000 C   0  0  0  0  0  0  0  0  0  0  0  0
  2  1  2  0  0  0  0
  3  6  1  0  0  0  0
  4  2  1  0  0  0  0
  5  1  1  0  0  0  0
  6  5  1  0  0  0  0
  7  1  1  0  0  0  0
  8  7  2  0  0  0  0
  9  8  1  0  0  0  0
 10  3  2  0  0  0  0
 11  4  2  0  0  0  0
 12 15  1  0  0  0  0
 13  6  2  0  0  0  0
 14  7  1  0  0  0  0
 15 14  2  0  0  0  0
 16 17  2  0  0  0  0
 17 13  1  0  0  0  0
 18  9  1  0  0  0  0
 19 16  1  0  0  0  0
 20 12  1  0  0  0  0
 21 18  1  0  0  0  0
 22 20  1  0  0  0  0
  3  4  1  0  0  0  0
  9 12  2  0  0  0  0
 16 10  1  0  0  0  0
M  END
>  <IDNUMBER>
F3139-0614

>  <Chemical_Name>
2-(3,4-dimethoxyphenyl)-6-fluoro-4H-chromen-4-one

>  <PriceCoeff>
1.00

>  <CAS>
370583-45-2

>  <MW>
300.28

>  <Description>
solid

>  <FSP3>
0.12

>  <clogP>
3.30

>  <TPSA>
44.76

>  <Acceptor>
4

>  <Donor>
0

>  <RotBonds>
3

>  <HAC>
22

>  <Collection>
General

>  <PPDS>
+

$$$$
F3139-0615
  Mrv2219 10102508112D          

 19 21  0  0  0  0            999 V2000
    5.2750   -0.4292    0.0000 C   0  0  0  0  0  0  0  0  0  0  0  0
    5.2750   -1.2667    0.0000 C   0  0  0  0  0  0  0  0  0  0  0  0
    4.5542   -0.0125    0.0000 O   0  0  0  0  0  0  0  0  0  0  0  0
    3.8292   -1.2667    0.0000 C   0  0  0  0  0  0  0  0  0  0  0  0
    4.5500   -1.6792    0.0000 C   0  0  0  0  0  0  0  0  0  0  0  0
    3.8375   -0.4292    0.0000 C   0  0  0  0  0  0  0  0  0  0  0  0
    5.9875   -0.0250    0.0000 C   0  0  0  0  0  0  0  0  0  0  0  0
    3.1167   -1.6750    0.0000 C   0  0  0  0  0  0  0  0  0  0  0  0
    6.7042   -0.4417    0.0000 C   0  0  0  0  0  0  0  0  0  0  0  0
    4.5500   -2.5042    0.0000 O   0  0  0  0  0  0  0  0  0  0  0  0
    3.1167   -0.0167    0.0000 C   0  0  0  0  0  0  0  0  0  0  0  0
    2.4042   -1.2625    0.0000 C   0  0  0  0  0  0  0  0  0  0  0  0
    6.6917   -1.2667    0.0000 F   0  0  0  0  0  0  0  0  0  0  0  0
    2.4042   -0.4375    0.0000 C   0  0  0  0  0  0  0  0  0  0  0  0
    1.6917   -1.6750    0.0000 F   0  0  0  0  0  0  0  0  0  0  0  0
    5.9917    0.7958    0.0000 C   0  0  0  0  0  0  0  0  0  0  0  0
    7.4167   -0.0292    0.0000 C   0  0  0  0  0  0  0  0  0  0  0  0
    6.7042    1.2083    0.0000 C   0  0  0  0  0  0  0  0  0  0  0  0
    7.4167    0.7958    0.0000 C   0  0  0  0  0  0  0  0  0  0  0  0
  2  1  2  0  0  0  0
  3  1  1  0  0  0  0
  4  6  1  0  0  0  0
  5  2  1  0  0  0  0
  6  3  1  0  0  0  0
  7  1  1  0  0  0  0
  8  4  2  0  0  0  0
  9  7  2  0  0  0  0
 10  5  2  0  0  0  0
 11  6  2  0  0  0  0
 12 14  2  0  0  0  0
 13  9  1  0  0  0  0
 14 11  1  0  0  0  0
 15 12  1  0  0  0  0
 16  7  1  0  0  0  0
 17  9  1  0  0  0  0
 18 16  2  0  0  0  0
 19 18  1  0  0  0  0
  4  5  1  0  0  0  0
 17 19  2  0  0  0  0
 12  8  1  0  0  0  0
M  END
>  <IDNUMBER>
F3139-0615

>  <Chemical_Name>
6-fluoro-2-(2-fluorophenyl)-4H-chromen-4-one

>  <PriceCoeff>
1.00

>  <CAS>
213894-65-6

>  <MW>
258.22

>  <Description>
solid

>  <FSP3>
0.00

>  <clogP>
3.77

>  <TPSA>
26.30

>  <Acceptor>
2

>  <Donor>
0

>  <RotBonds>
1

>  <HAC>
19

>  <Collection>
General

>  <PPDS>
+

$$$$
F3139-0616
  Mrv2219 10102508112D          

 19 21  0  0  0  0            999 V2000
    5.2750   -0.4292    0.0000 C   0  0  0  0  0  0  0  0  0  0  0  0
    5.2750   -1.2667    0.0000 C   0  0  0  0  0  0  0  0  0  0  0  0
    3.8292   -1.2667    0.0000 C   0  0  0  0  0  0  0  0  0  0  0  0
    4.5500   -1.6792    0.0000 C   0  0  0  0  0  0  0  0  0  0  0  0
    4.5542   -0.0125    0.0000 O   0  0  0  0  0  0  0  0  0  0  0  0
    3.8375   -0.4292    0.0000 C   0  0  0  0  0  0  0  0  0  0  0  0
    5.9875   -0.0250    0.0000 C   0  0  0  0  0  0  0  0  0  0  0  0
    3.1167   -1.6750    0.0000 C   0  0  0  0  0  0  0  0  0  0  0  0
    4.5500   -2.5042    0.0000 O   0  0  0  0  0  0  0  0  0  0  0  0
    3.1167   -0.0167    0.0000 C   0  0  0  0  0  0  0  0  0  0  0  0
    5.9917    0.7958    0.0000 C   0  0  0  0  0  0  0  0  0  0  0  0
    6.7042   -0.4417    0.0000 C   0  0  0  0  0  0  0  0  0  0  0  0
    2.4042   -1.2625    0.0000 C   0  0  0  0  0  0  0  0  0  0  0  0
    2.4042   -0.4375    0.0000 C   0  0  0  0  0  0  0  0  0  0  0  0
    7.4167   -0.0292    0.0000 C   0  0  0  0  0  0  0  0  0  0  0  0
    6.7042    1.2083    0.0000 C   0  0  0  0  0  0  0  0  0  0  0  0
    7.4167    0.7958    0.0000 C   0  0  0  0  0  0  0  0  0  0  0  0
    1.6917   -1.6750    0.0000 Br  0  0  0  0  0  0  0  0  0  0  0  0
    8.1375    1.2083    0.0000 C   0  0  0  0  0  0  0  0  0  0  0  0
  2  1  2  0  0  0  0
  3  6  1  0  0  0  0
  4  2  1  0  0  0  0
  5  1  1  0  0  0  0
  6  5  1  0  0  0  0
  7  1  1  0  0  0  0
  8  3  2  0  0  0  0
  9  4  2  0  0  0  0
 10  6  2  0  0  0  0
 11  7  1  0  0  0  0
 12  7  2  0  0  0  0
 13 14  2  0  0  0  0
 14 10  1  0  0  0  0
 15 12  1  0  0  0  0
 16 11  2  0  0  0  0
 17 15  2  0  0  0  0
 18 13  1  0  0  0  0
 19 17  1  0  0  0  0
  3  4  1  0  0  0  0
 16 17  1  0  0  0  0
 13  8  1  0  0  0  0
M  END
>  <IDNUMBER>
F3139-0616

>  <Chemical_Name>
6-bromo-2-(4-methylphenyl)-4H-chromen-4-one

>  <PriceCoeff>
1.00

>  <CAS>
41255-32-7

>  <MW>
315.16

>  <Description>
solid

>  <FSP3>
0.06

>  <clogP>
4.84

>  <TPSA>
26.30

>  <Acceptor>
2

>  <Donor>
0

>  <RotBonds>
1

>  <HAC>
19

>  <Collection>
General

$$$$
F3139-0617
  Mrv2219 10102508112D          

 19 21  0  0  0  0            999 V2000
    5.2750   -0.4292    0.0000 C   0  0  0  0  0  0  0  0  0  0  0  0
    5.2750   -1.2667    0.0000 C   0  0  0  0  0  0  0  0  0  0  0  0
    4.5542   -0.0125    0.0000 O   0  0  0  0  0  0  0  0  0  0  0  0
    3.8292   -1.2667    0.0000 C   0  0  0  0  0  0  0  0  0  0  0  0
    4.5500   -1.6792    0.0000 C   0  0  0  0  0  0  0  0  0  0  0  0
    3.8375   -0.4292    0.0000 C   0  0  0  0  0  0  0  0  0  0  0  0
    5.9875   -0.0250    0.0000 C   0  0  0  0  0  0  0  0  0  0  0  0
    3.1167   -1.6750    0.0000 C   0  0  0  0  0  0  0  0  0  0  0  0
    6.7042   -0.4417    0.0000 C   0  0  0  0  0  0  0  0  0  0  0  0
    4.5500   -2.5042    0.0000 O   0  0  0  0  0  0  0  0  0  0  0  0
    3.1167   -0.0167    0.0000 C   0  0  0  0  0  0  0  0  0  0  0  0
    2.4042   -1.2625    0.0000 C   0  0  0  0  0  0  0  0  0  0  0  0
    6.6917   -1.2667    0.0000 F   0  0  0  0  0  0  0  0  0  0  0  0
    2.4042   -0.4375    0.0000 C   0  0  0  0  0  0  0  0  0  0  0  0
    1.6917   -1.6750    0.0000 Br  0  0  0  0  0  0  0  0  0  0  0  0
    5.9917    0.7958    0.0000 C   0  0  0  0  0  0  0  0  0  0  0  0
    7.4167   -0.0292    0.0000 C   0  0  0  0  0  0  0  0  0  0  0  0
    6.7042    1.2083    0.0000 C   0  0  0  0  0  0  0  0  0  0  0  0
    7.4167    0.7958    0.0000 C   0  0  0  0  0  0  0  0  0  0  0  0
  2  1  2  0  0  0  0
  3  1  1  0  0  0  0
  4  6  1  0  0  0  0
  5  2  1  0  0  0  0
  6  3  1  0  0  0  0
  7  1  1  0  0  0  0
  8  4  2  0  0  0  0
  9  7  2  0  0  0  0
 10  5  2  0  0  0  0
 11  6  2  0  0  0  0
 12 14  2  0  0  0  0
 13  9  1  0  0  0  0
 14 11  1  0  0  0  0
 15 12  1  0  0  0  0
 16  7  1  0  0  0  0
 17  9  1  0  0  0  0
 18 16  2  0  0  0  0
 19 18  1  0  0  0  0
  4  5  1  0  0  0  0
 17 19  2  0  0  0  0
 12  8  1  0  0  0  0
M  END
>  <IDNUMBER>
F3139-0617

>  <Chemical_Name>
6-bromo-2-(2-fluorophenyl)-4H-chromen-4-one

>  <PriceCoeff>
1.00

>  <CAS>
213894-67-8

>  <MW>
319.13

>  <Description>
solid

>  <FSP3>
0.00

>  <clogP>
4.49

>  <TPSA>
26.30

>  <Acceptor>
2

>  <Donor>
0

>  <RotBonds>
1

>  <HAC>
19

>  <Collection>
General

>  <PPDS>
+

$$$$
F3139-0618
  Mrv2219 10102508112D          

 19 21  0  0  0  0            999 V2000
    5.2750   -0.4292    0.0000 C   0  0  0  0  0  0  0  0  0  0  0  0
    5.2750   -1.2667    0.0000 C   0  0  0  0  0  0  0  0  0  0  0  0
    3.8292   -1.2667    0.0000 C   0  0  0  0  0  0  0  0  0  0  0  0
    4.5500   -1.6792    0.0000 C   0  0  0  0  0  0  0  0  0  0  0  0
    4.5542   -0.0125    0.0000 O   0  0  0  0  0  0  0  0  0  0  0  0
    3.8375   -0.4292    0.0000 C   0  0  0  0  0  0  0  0  0  0  0  0
    5.9875   -0.0250    0.0000 C   0  0  0  0  0  0  0  0  0  0  0  0
    3.1167   -1.6750    0.0000 C   0  0  0  0  0  0  0  0  0  0  0  0
    4.5500   -2.5042    0.0000 O   0  0  0  0  0  0  0  0  0  0  0  0
    3.1167   -0.0167    0.0000 C   0  0  0  0  0  0  0  0  0  0  0  0
    5.9917    0.7958    0.0000 C   0  0  0  0  0  0  0  0  0  0  0  0
    6.7042   -0.4417    0.0000 C   0  0  0  0  0  0  0  0  0  0  0  0
    2.4042   -1.2625    0.0000 C   0  0  0  0  0  0  0  0  0  0  0  0
    7.4167    0.7958    0.0000 C   0  0  0  0  0  0  0  0  0  0  0  0
    2.4042   -0.4375    0.0000 C   0  0  0  0  0  0  0  0  0  0  0  0
    7.4167   -0.0292    0.0000 C   0  0  0  0  0  0  0  0  0  0  0  0
    6.7042    1.2083    0.0000 C   0  0  0  0  0  0  0  0  0  0  0  0
    1.6917   -1.6750    0.0000 Cl  0  0  0  0  0  0  0  0  0  0  0  0
    8.1375    1.2083    0.0000 Cl  0  0  0  0  0  0  0  0  0  0  0  0
  2  1  2  0  0  0  0
  3  6  1  0  0  0  0
  4  2  1  0  0  0  0
  5  1  1  0  0  0  0
  6  5  1  0  0  0  0
  7  1  1  0  0  0  0
  8  3  2  0  0  0  0
  9  4  2  0  0  0  0
 10  6  2  0  0  0  0
 11  7  1  0  0  0  0
 12  7  2  0  0  0  0
 13 15  2  0  0  0  0
 14 16  2  0  0  0  0
 15 10  1  0  0  0  0
 16 12  1  0  0  0  0
 17 11  2  0  0  0  0
 18 13  1  0  0  0  0
 19 14  1  0  0  0  0
  3  4  1  0  0  0  0
 17 14  1  0  0  0  0
 13  8  1  0  0  0  0
M  END
>  <IDNUMBER>
F3139-0618

>  <Chemical_Name>
6-chloro-2-(4-chlorophenyl)-4H-chromen-4-one

>  <PriceCoeff>
1.00

>  <CAS>
36768-56-6

>  <MW>
291.13

>  <Description>
solid

>  <FSP3>
0.00

>  <clogP>
4.91

>  <TPSA>
26.30

>  <Acceptor>
2

>  <Donor>
0

>  <RotBonds>
1

>  <HAC>
19

>  <Collection>
General

$$$$
F3139-0619
  Mrv2219 10102508112D          

 19 21  0  0  0  0            999 V2000
    5.2750   -0.4292    0.0000 C   0  0  0  0  0  0  0  0  0  0  0  0
    5.2750   -1.2667    0.0000 C   0  0  0  0  0  0  0  0  0  0  0  0
    4.5542   -0.0125    0.0000 O   0  0  0  0  0  0  0  0  0  0  0  0
    3.8292   -1.2667    0.0000 C   0  0  0  0  0  0  0  0  0  0  0  0
    4.5500   -1.6792    0.0000 C   0  0  0  0  0  0  0  0  0  0  0  0
    3.8375   -0.4292    0.0000 C   0  0  0  0  0  0  0  0  0  0  0  0
    5.9875   -0.0250    0.0000 C   0  0  0  0  0  0  0  0  0  0  0  0
    3.1167   -1.6750    0.0000 C   0  0  0  0  0  0  0  0  0  0  0  0
    6.7000   -0.4417    0.0000 C   0  0  0  0  0  0  0  0  0  0  0  0
    4.5500   -2.5042    0.0000 O   0  0  0  0  0  0  0  0  0  0  0  0
    3.1167   -0.0167    0.0000 C   0  0  0  0  0  0  0  0  0  0  0  0
    2.4042   -1.2625    0.0000 C   0  0  0  0  0  0  0  0  0  0  0  0
    6.6917   -1.2667    0.0000 F   0  0  0  0  0  0  0  0  0  0  0  0
    2.4042   -0.4375    0.0000 C   0  0  0  0  0  0  0  0  0  0  0  0
    1.6917   -1.6750    0.0000 Cl  0  0  0  0  0  0  0  0  0  0  0  0
    5.9917    0.7958    0.0000 C   0  0  0  0  0  0  0  0  0  0  0  0
    7.4167   -0.0292    0.0000 C   0  0  0  0  0  0  0  0  0  0  0  0
    6.7042    1.2083    0.0000 C   0  0  0  0  0  0  0  0  0  0  0  0
    7.4167    0.7958    0.0000 C   0  0  0  0  0  0  0  0  0  0  0  0
  2  1  2  0  0  0  0
  3  1  1  0  0  0  0
  4  6  1  0  0  0  0
  5  2  1  0  0  0  0
  6  3  1  0  0  0  0
  7  1  1  0  0  0  0
  8  4  2  0  0  0  0
  9  7  2  0  0  0  0
 10  5  2  0  0  0  0
 11  6  2  0  0  0  0
 12 14  2  0  0  0  0
 13  9  1  0  0  0  0
 14 11  1  0  0  0  0
 15 12  1  0  0  0  0
 16  7  1  0  0  0  0
 17  9  1  0  0  0  0
 18 16  2  0  0  0  0
 19 18  1  0  0  0  0
  4  5  1  0  0  0  0
 17 19  2  0  0  0  0
 12  8  1  0  0  0  0
M  END
>  <IDNUMBER>
F3139-0619

>  <Chemical_Name>
6-chloro-2-(2-fluorophenyl)-4H-chromen-4-one

>  <PriceCoeff>
1.00

>  <CAS>
213894-66-7

>  <MW>
274.67

>  <Description>
solid

>  <FSP3>
0.00

>  <clogP>
4.34

>  <TPSA>
26.30

>  <Acceptor>
2

>  <Donor>
0

>  <RotBonds>
1

>  <HAC>
19

>  <Collection>
General

>  <PPDS>
+

$$$$
F3139-0620
  Mrv2219 10102508112D          

 20 22  0  0  0  0            999 V2000
    5.2737   -0.4291    0.0000 C   0  0  0  0  0  0  0  0  0  0  0  0
    5.2737   -1.2664    0.0000 C   0  0  0  0  0  0  0  0  0  0  0  0
    4.5531   -0.0125    0.0000 O   0  0  0  0  0  0  0  0  0  0  0  0
    3.8283   -1.2664    0.0000 C   0  0  0  0  0  0  0  0  0  0  0  0
    4.5489   -1.6788    0.0000 C   0  0  0  0  0  0  0  0  0  0  0  0
    3.8366   -0.4291    0.0000 C   0  0  0  0  0  0  0  0  0  0  0  0
    5.9860   -0.0250    0.0000 C   0  0  0  0  0  0  0  0  0  0  0  0
    3.1159   -1.6746    0.0000 C   0  0  0  0  0  0  0  0  0  0  0  0
    4.5489   -2.5036    0.0000 O   0  0  0  0  0  0  0  0  0  0  0  0
    6.6984   -0.4416    0.0000 C   0  0  0  0  0  0  0  0  0  0  0  0
    3.1159   -0.0167    0.0000 C   0  0  0  0  0  0  0  0  0  0  0  0
    2.4036   -1.2622    0.0000 C   0  0  0  0  0  0  0  0  0  0  0  0
    2.4036   -0.4374    0.0000 C   0  0  0  0  0  0  0  0  0  0  0  0
    1.6913   -1.6746    0.0000 Cl  0  0  0  0  0  0  0  0  0  0  0  0
    6.6901   -1.2622    0.0000 O   0  0  0  0  0  0  0  0  0  0  0  0
    5.9902    0.7956    0.0000 C   0  0  0  0  0  0  0  0  0  0  0  0
    7.4149   -0.0292    0.0000 C   0  0  0  0  0  0  0  0  0  0  0  0
    7.4024   -1.6788    0.0000 C   0  0  0  0  0  0  0  0  0  0  0  0
    6.7026    1.2080    0.0000 C   0  0  0  0  0  0  0  0  0  0  0  0
    7.4149    0.7956    0.0000 C   0  0  0  0  0  0  0  0  0  0  0  0
  2  1  2  0  0  0  0
  3  1  1  0  0  0  0
  4  6  1  0  0  0  0
  5  2  1  0  0  0  0
  6  3  1  0  0  0  0
  7  1  1  0  0  0  0
  8  4  2  0  0  0  0
  9  5  2  0  0  0  0
 10  7  2  0  0  0  0
 11  6  2  0  0  0  0
 12 13  2  0  0  0  0
 13 11  1  0  0  0  0
 14 12  1  0  0  0  0
 15 10  1  0  0  0  0
 16  7  1  0  0  0  0
 17 10  1  0  0  0  0
 18 15  1  0  0  0  0
 19 16  2  0  0  0  0
 20 19  1  0  0  0  0
  4  5  1  0  0  0  0
 17 20  2  0  0  0  0
 12  8  1  0  0  0  0
M  END
>  <IDNUMBER>
F3139-0620

>  <Chemical_Name>
6-chloro-2-(2-methoxyphenyl)-4H-chromen-4-one

>  <PriceCoeff>
1.00

>  <CAS>
57048-96-1

>  <MW>
286.71

>  <Description>
solid

>  <FSP3>
0.06

>  <clogP>
3.60

>  <TPSA>
35.53

>  <Acceptor>
3

>  <Donor>
0

>  <RotBonds>
2

>  <HAC>
20

>  <Collection>
General

>  <PPDS>
+

$$$$
F3139-0622
  Mrv2219 10102508112D          

 20 22  0  0  0  0            999 V2000
    5.2750   -0.4292    0.0000 C   0  0  0  0  0  0  0  0  0  0  0  0
    5.2750   -1.2667    0.0000 C   0  0  0  0  0  0  0  0  0  0  0  0
    4.5542   -0.0125    0.0000 O   0  0  0  0  0  0  0  0  0  0  0  0
    3.8292   -1.2667    0.0000 C   0  0  0  0  0  0  0  0  0  0  0  0
    4.5500   -1.6792    0.0000 C   0  0  0  0  0  0  0  0  0  0  0  0
    3.8375   -0.4292    0.0000 C   0  0  0  0  0  0  0  0  0  0  0  0
    5.9875   -0.0250    0.0000 C   0  0  0  0  0  0  0  0  0  0  0  0
    3.1167   -1.6750    0.0000 C   0  0  0  0  0  0  0  0  0  0  0  0
    4.5500   -2.5042    0.0000 O   0  0  0  0  0  0  0  0  0  0  0  0
    6.7042   -0.4417    0.0000 C   0  0  0  0  0  0  0  0  0  0  0  0
    3.1167   -0.0167    0.0000 C   0  0  0  0  0  0  0  0  0  0  0  0
    2.4042   -1.2625    0.0000 C   0  0  0  0  0  0  0  0  0  0  0  0
    2.4042   -0.4375    0.0000 C   0  0  0  0  0  0  0  0  0  0  0  0
    6.7000   -1.2625    0.0000 O   0  0  0  0  0  0  0  0  0  0  0  0
    5.9917    0.7958    0.0000 C   0  0  0  0  0  0  0  0  0  0  0  0
    7.4167   -0.0292    0.0000 C   0  0  0  0  0  0  0  0  0  0  0  0
    1.6917   -1.6750    0.0000 C   0  0  0  0  0  0  0  0  0  0  0  0
    7.4125   -1.6792    0.0000 C   0  0  0  0  0  0  0  0  0  0  0  0
    6.7042    1.2083    0.0000 C   0  0  0  0  0  0  0  0  0  0  0  0
    7.4167    0.7958    0.0000 C   0  0  0  0  0  0  0  0  0  0  0  0
  2  1  2  0  0  0  0
  3  1  1  0  0  0  0
  4  6  1  0  0  0  0
  5  2  1  0  0  0  0
  6  3  1  0  0  0  0
  7  1  1  0  0  0  0
  8  4  2  0  0  0  0
  9  5  2  0  0  0  0
 10  7  2  0  0  0  0
 11  6  2  0  0  0  0
 12 13  2  0  0  0  0
 13 11  1  0  0  0  0
 14 10  1  0  0  0  0
 15  7  1  0  0  0  0
 16 10  1  0  0  0  0
 17 12  1  0  0  0  0
 18 14  1  0  0  0  0
 19 15  2  0  0  0  0
 20 19  1  0  0  0  0
  4  5  1  0  0  0  0
 16 20  2  0  0  0  0
 12  8  1  0  0  0  0
M  END
>  <IDNUMBER>
F3139-0622

>  <Chemical_Name>
2-(2-methoxyphenyl)-6-methyl-4H-chromen-4-one

>  <PriceCoeff>
1.00

>  <CAS>
89112-85-6

>  <MW>
266.29

>  <Description>
solid

>  <FSP3>
0.12

>  <clogP>
3.39

>  <TPSA>
35.53

>  <Acceptor>
3

>  <Donor>
0

>  <RotBonds>
2

>  <HAC>
20

>  <Collection>
General

$$$$
F3139-0623
  Mrv2219 10102508112D          

 22 24  0  0  0  0            999 V2000
    5.2750   -0.4292    0.0000 C   0  0  0  0  0  0  0  0  0  0  0  0
    5.2750   -1.2667    0.0000 C   0  0  0  0  0  0  0  0  0  0  0  0
    3.8292   -1.2667    0.0000 C   0  0  0  0  0  0  0  0  0  0  0  0
    4.5500   -1.6792    0.0000 C   0  0  0  0  0  0  0  0  0  0  0  0
    4.5542   -0.0125    0.0000 O   0  0  0  0  0  0  0  0  0  0  0  0
    3.8375   -0.4292    0.0000 C   0  0  0  0  0  0  0  0  0  0  0  0
    5.9875   -0.0250    0.0000 C   0  0  0  0  0  0  0  0  0  0  0  0
    6.7042   -0.4417    0.0000 C   0  0  0  0  0  0  0  0  0  0  0  0
    7.4167   -0.0292    0.0000 C   0  0  0  0  0  0  0  0  0  0  0  0
    3.1167   -1.6750    0.0000 C   0  0  0  0  0  0  0  0  0  0  0  0
    4.5500   -2.5042    0.0000 O   0  0  0  0  0  0  0  0  0  0  0  0
    7.4167    0.7958    0.0000 C   0  0  0  0  0  0  0  0  0  0  0  0
    3.1167   -0.0167    0.0000 C   0  0  0  0  0  0  0  0  0  0  0  0
    5.9917    0.7958    0.0000 C   0  0  0  0  0  0  0  0  0  0  0  0
    6.7042    1.2083    0.0000 C   0  0  0  0  0  0  0  0  0  0  0  0
    2.4042   -1.2625    0.0000 C   0  0  0  0  0  0  0  0  0  0  0  0
    2.4042   -0.4375    0.0000 C   0  0  0  0  0  0  0  0  0  0  0  0
    8.1292   -0.4417    0.0000 O   0  0  0  0  0  0  0  0  0  0  0  0
    1.6917   -1.6750    0.0000 Br  0  0  0  0  0  0  0  0  0  0  0  0
    8.1417    1.2083    0.0000 O   0  0  0  0  0  0  0  0  0  0  0  0
    8.8417   -0.0292    0.0000 C   0  0  0  0  0  0  0  0  0  0  0  0
    8.1417    2.0333    0.0000 C   0  0  0  0  0  0  0  0  0  0  0  0
  2  1  2  0  0  0  0
  3  6  1  0  0  0  0
  4  2  1  0  0  0  0
  5  1  1  0  0  0  0
  6  5  1  0  0  0  0
  7  1  1  0  0  0  0
  8  7  2  0  0  0  0
  9  8  1  0  0  0  0
 10  3  2  0  0  0  0
 11  4  2  0  0  0  0
 12 15  1  0  0  0  0
 13  6  2  0  0  0  0
 14  7  1  0  0  0  0
 15 14  2  0  0  0  0
 16 17  2  0  0  0  0
 17 13  1  0  0  0  0
 18  9  1  0  0  0  0
 19 16  1  0  0  0  0
 20 12  1  0  0  0  0
 21 18  1  0  0  0  0
 22 20  1  0  0  0  0
  3  4  1  0  0  0  0
  9 12  2  0  0  0  0
 16 10  1  0  0  0  0
M  END
>  <IDNUMBER>
F3139-0623

>  <Chemical_Name>
6-bromo-2-(3,4-dimethoxyphenyl)-4H-chromen-4-one

>  <PriceCoeff>
1.00

>  <CAS>
54197-78-3

>  <MW>
361.19

>  <Description>
solid

>  <FSP3>
0.12

>  <clogP>
4.02

>  <TPSA>
44.76

>  <Acceptor>
4

>  <Donor>
0

>  <RotBonds>
3

>  <HAC>
22

>  <Collection>
General

$$$$
F3139-0624
  Mrv2219 10102508112D          

 20 22  0  0  0  0            999 V2000
    5.2750   -0.4292    0.0000 C   0  0  0  0  0  0  0  0  0  0  0  0
    5.2750   -1.2667    0.0000 C   0  0  0  0  0  0  0  0  0  0  0  0
    3.8375   -0.4292    0.0000 C   0  0  0  0  0  0  0  0  0  0  0  0
    4.5542   -0.0125    0.0000 O   0  0  0  0  0  0  0  0  0  0  0  0
    4.5500   -1.6792    0.0000 C   0  0  0  0  0  0  0  0  0  0  0  0
    3.8292   -1.2667    0.0000 C   0  0  0  0  0  0  0  0  0  0  0  0
    3.1167   -0.0167    0.0000 C   0  0  0  0  0  0  0  0  0  0  0  0
    5.9875   -0.0250    0.0000 C   0  0  0  0  0  0  0  0  0  0  0  0
    3.1167   -1.6750    0.0000 C   0  0  0  0  0  0  0  0  0  0  0  0
    4.5500   -2.5042    0.0000 O   0  0  0  0  0  0  0  0  0  0  0  0
    6.7042   -0.4417    0.0000 C   0  0  0  0  0  0  0  0  0  0  0  0
    5.9917    0.7958    0.0000 C   0  0  0  0  0  0  0  0  0  0  0  0
    2.4042   -0.4375    0.0000 C   0  0  0  0  0  0  0  0  0  0  0  0
    2.4042   -1.2625    0.0000 C   0  0  0  0  0  0  0  0  0  0  0  0
    6.7042    1.2083    0.0000 C   0  0  0  0  0  0  0  0  0  0  0  0
    7.4167   -0.0292    0.0000 C   0  0  0  0  0  0  0  0  0  0  0  0
    7.4167    0.7958    0.0000 C   0  0  0  0  0  0  0  0  0  0  0  0
    1.6917   -0.0167    0.0000 O   0  0  0  0  0  0  0  0  0  0  0  0
    8.1375    1.2083    0.0000 C   0  0  0  0  0  0  0  0  0  0  0  0
    0.9792   -0.4375    0.0000 C   0  0  0  0  0  0  0  0  0  0  0  0
  2  1  2  0  0  0  0
  3  4  1  0  0  0  0
  4  1  1  0  0  0  0
  5  2  1  0  0  0  0
  6  3  1  0  0  0  0
  7  3  2  0  0  0  0
  8  1  1  0  0  0  0
  9  6  2  0  0  0  0
 10  5  2  0  0  0  0
 11  8  2  0  0  0  0
 12  8  1  0  0  0  0
 13  7  1  0  0  0  0
 14 13  2  0  0  0  0
 15 12  2  0  0  0  0
 16 11  1  0  0  0  0
 17 15  1  0  0  0  0
 18 13  1  0  0  0  0
 19 17  1  0  0  0  0
 20 18  1  0  0  0  0
  6  5  1  0  0  0  0
 16 17  2  0  0  0  0
 14  9  1  0  0  0  0
M  END
>  <IDNUMBER>
F3139-0624

>  <Chemical_Name>
7-methoxy-2-(4-methylphenyl)-4H-chromen-4-one

>  <PriceCoeff>
1.00

>  <CAS>
108980-49-0

>  <MW>
266.29

>  <Description>
solid

>  <FSP3>
0.12

>  <clogP>
4.09

>  <TPSA>
35.53

>  <Acceptor>
3

>  <Donor>
0

>  <RotBonds>
2

>  <HAC>
20

>  <Collection>
General

$$$$
F3139-0625
  Mrv2219 10102508112D          

 19 21  0  0  0  0            999 V2000
    5.2750   -0.4292    0.0000 C   0  0  0  0  0  0  0  0  0  0  0  0
    5.2750   -1.2667    0.0000 C   0  0  0  0  0  0  0  0  0  0  0  0
    3.8292   -1.2667    0.0000 C   0  0  0  0  0  0  0  0  0  0  0  0
    4.5500   -1.6792    0.0000 C   0  0  0  0  0  0  0  0  0  0  0  0
    4.5542   -0.0125    0.0000 O   0  0  0  0  0  0  0  0  0  0  0  0
    3.8375   -0.4292    0.0000 C   0  0  0  0  0  0  0  0  0  0  0  0
    5.9875   -0.0250    0.0000 C   0  0  0  0  0  0  0  0  0  0  0  0
    3.1167   -1.6750    0.0000 C   0  0  0  0  0  0  0  0  0  0  0  0
    4.5500   -2.5042    0.0000 O   0  0  0  0  0  0  0  0  0  0  0  0
    3.1167   -0.0167    0.0000 C   0  0  0  0  0  0  0  0  0  0  0  0
    6.7042   -0.4417    0.0000 C   0  0  0  0  0  0  0  0  0  0  0  0
    5.9917    0.7958    0.0000 C   0  0  0  0  0  0  0  0  0  0  0  0
    2.4042   -1.2625    0.0000 C   0  0  0  0  0  0  0  0  0  0  0  0
    7.4167    0.7958    0.0000 C   0  0  0  0  0  0  0  0  0  0  0  0
    2.4042   -0.4375    0.0000 C   0  0  0  0  0  0  0  0  0  0  0  0
    6.7042    1.2083    0.0000 C   0  0  0  0  0  0  0  0  0  0  0  0
    7.4167   -0.0292    0.0000 C   0  0  0  0  0  0  0  0  0  0  0  0
    1.6917   -1.6750    0.0000 F   0  0  0  0  0  0  0  0  0  0  0  0
    8.1375    1.2083    0.0000 Cl  0  0  0  0  0  0  0  0  0  0  0  0
  2  1  2  0  0  0  0
  3  6  1  0  0  0  0
  4  2  1  0  0  0  0
  5  1  1  0  0  0  0
  6  5  1  0  0  0  0
  7  1  1  0  0  0  0
  8  3  2  0  0  0  0
  9  4  2  0  0  0  0
 10  6  2  0  0  0  0
 11  7  2  0  0  0  0
 12  7  1  0  0  0  0
 13 15  2  0  0  0  0
 14 16  1  0  0  0  0
 15 10  1  0  0  0  0
 16 12  2  0  0  0  0
 17 11  1  0  0  0  0
 18 13  1  0  0  0  0
 19 14  1  0  0  0  0
  3  4  1  0  0  0  0
 17 14  2  0  0  0  0
 13  8  1  0  0  0  0
M  END
>  <IDNUMBER>
F3139-0625

>  <Chemical_Name>
2-(4-chlorophenyl)-6-fluoro-4H-chromen-4-one

>  <PriceCoeff>
1.00

>  <CAS>
288400-97-5

>  <MW>
274.67

>  <Description>
solid

>  <FSP3>
0.00

>  <clogP>
4.34

>  <TPSA>
26.30

>  <Acceptor>
2

>  <Donor>
0

>  <RotBonds>
1

>  <HAC>
19

>  <Collection>
General

$$$$
F3139-0626
  Mrv2219 10102508112D          

 19 21  0  0  0  0            999 V2000
    5.2750   -0.4292    0.0000 C   0  0  0  0  0  0  0  0  0  0  0  0
    5.2750   -1.2667    0.0000 C   0  0  0  0  0  0  0  0  0  0  0  0
    3.8292   -1.2667    0.0000 C   0  0  0  0  0  0  0  0  0  0  0  0
    4.5500   -1.6792    0.0000 C   0  0  0  0  0  0  0  0  0  0  0  0
    4.5542   -0.0125    0.0000 O   0  0  0  0  0  0  0  0  0  0  0  0
    3.8375   -0.4292    0.0000 C   0  0  0  0  0  0  0  0  0  0  0  0
    5.9875   -0.0250    0.0000 C   0  0  0  0  0  0  0  0  0  0  0  0
    3.1167   -1.6750    0.0000 C   0  0  0  0  0  0  0  0  0  0  0  0
    4.5500   -2.5042    0.0000 O   0  0  0  0  0  0  0  0  0  0  0  0
    3.1167   -0.0167    0.0000 C   0  0  0  0  0  0  0  0  0  0  0  0
    6.7042   -0.4417    0.0000 C   0  0  0  0  0  0  0  0  0  0  0  0
    5.9917    0.7958    0.0000 C   0  0  0  0  0  0  0  0  0  0  0  0
    2.4042   -1.2625    0.0000 C   0  0  0  0  0  0  0  0  0  0  0  0
    2.4042   -0.4375    0.0000 C   0  0  0  0  0  0  0  0  0  0  0  0
    6.7042    1.2083    0.0000 C   0  0  0  0  0  0  0  0  0  0  0  0
    7.4167   -0.0292    0.0000 C   0  0  0  0  0  0  0  0  0  0  0  0
    7.4167    0.7958    0.0000 C   0  0  0  0  0  0  0  0  0  0  0  0
    1.6917   -1.6750    0.0000 Cl  0  0  0  0  0  0  0  0  0  0  0  0
    8.1375    1.2083    0.0000 C   0  0  0  0  0  0  0  0  0  0  0  0
  2  1  2  0  0  0  0
  3  6  1  0  0  0  0
  4  2  1  0  0  0  0
  5  1  1  0  0  0  0
  6  5  1  0  0  0  0
  7  1  1  0  0  0  0
  8  3  2  0  0  0  0
  9  4  2  0  0  0  0
 10  6  2  0  0  0  0
 11  7  2  0  0  0  0
 12  7  1  0  0  0  0
 13 14  2  0  0  0  0
 14 10  1  0  0  0  0
 15 12  2  0  0  0  0
 16 11  1  0  0  0  0
 17 15  1  0  0  0  0
 18 13  1  0  0  0  0
 19 17  1  0  0  0  0
  3  4  1  0  0  0  0
 16 17  2  0  0  0  0
 13  8  1  0  0  0  0
M  END
>  <IDNUMBER>
F3139-0626

>  <Chemical_Name>
6-chloro-2-(4-methylphenyl)-4H-chromen-4-one

>  <PriceCoeff>
1.00

>  <CAS>
41255-31-6

>  <MW>
270.71

>  <Description>
solid

>  <FSP3>
0.06

>  <clogP>
4.69

>  <TPSA>
26.30

>  <Acceptor>
2

>  <Donor>
0

>  <RotBonds>
1

>  <HAC>
19

>  <Collection>
General

$$$$
F3139-0629
  Mrv2219 10102508112D          

 19 21  0  0  0  0            999 V2000
    5.2750   -0.4292    0.0000 C   0  0  0  0  0  0  0  0  0  0  0  0
    5.2750   -1.2667    0.0000 C   0  0  0  0  0  0  0  0  0  0  0  0
    3.8292   -1.2667    0.0000 C   0  0  0  0  0  0  0  0  0  0  0  0
    4.5500   -1.6792    0.0000 C   0  0  0  0  0  0  0  0  0  0  0  0
    4.5542   -0.0125    0.0000 O   0  0  0  0  0  0  0  0  0  0  0  0
    3.8375   -0.4292    0.0000 C   0  0  0  0  0  0  0  0  0  0  0  0
    5.9875   -0.0250    0.0000 C   0  0  0  0  0  0  0  0  0  0  0  0
    3.1167   -1.6750    0.0000 C   0  0  0  0  0  0  0  0  0  0  0  0
    4.5500   -2.5042    0.0000 O   0  0  0  0  0  0  0  0  0  0  0  0
    3.1167   -0.0167    0.0000 C   0  0  0  0  0  0  0  0  0  0  0  0
    6.7042   -0.4417    0.0000 C   0  0  0  0  0  0  0  0  0  0  0  0
    5.9917    0.7958    0.0000 C   0  0  0  0  0  0  0  0  0  0  0  0
    2.4042   -1.2625    0.0000 C   0  0  0  0  0  0  0  0  0  0  0  0
    2.4042   -0.4375    0.0000 C   0  0  0  0  0  0  0  0  0  0  0  0
    6.7042    1.2083    0.0000 C   0  0  0  0  0  0  0  0  0  0  0  0
    7.4167   -0.0292    0.0000 C   0  0  0  0  0  0  0  0  0  0  0  0
    7.4167    0.7958    0.0000 C   0  0  0  0  0  0  0  0  0  0  0  0
    1.6917   -1.6750    0.0000 F   0  0  0  0  0  0  0  0  0  0  0  0
    8.1375    1.2083    0.0000 C   0  0  0  0  0  0  0  0  0  0  0  0
  2  1  2  0  0  0  0
  3  6  1  0  0  0  0
  4  2  1  0  0  0  0
  5  1  1  0  0  0  0
  6  5  1  0  0  0  0
  7  1  1  0  0  0  0
  8  3  2  0  0  0  0
  9  4  2  0  0  0  0
 10  6  2  0  0  0  0
 11  7  2  0  0  0  0
 12  7  1  0  0  0  0
 13 14  2  0  0  0  0
 14 10  1  0  0  0  0
 15 12  2  0  0  0  0
 16 11  1  0  0  0  0
 17 15  1  0  0  0  0
 18 13  1  0  0  0  0
 19 17  1  0  0  0  0
  3  4  1  0  0  0  0
 16 17  2  0  0  0  0
 13  8  1  0  0  0  0
M  END
>  <IDNUMBER>
F3139-0629

>  <Chemical_Name>
6-fluoro-2-(4-methylphenyl)-4H-chromen-4-one

>  <PriceCoeff>
1.00

>  <CAS>
445224-49-7

>  <MW>
254.26

>  <Description>
solid

>  <FSP3>
0.06

>  <clogP>
4.12

>  <TPSA>
26.30

>  <Acceptor>
2

>  <Donor>
0

>  <RotBonds>
1

>  <HAC>
19

>  <Collection>
General

$$$$
F3139-0632
  Mrv2219 10102508112D          

 20 22  0  0  0  0            999 V2000
    5.2750   -0.4292    0.0000 C   0  0  0  0  0  0  0  0  0  0  0  0
    5.2750   -1.2667    0.0000 C   0  0  0  0  0  0  0  0  0  0  0  0
    4.5542   -0.0125    0.0000 O   0  0  0  0  0  0  0  0  0  0  0  0
    3.8292   -1.2667    0.0000 C   0  0  0  0  0  0  0  0  0  0  0  0
    4.5500   -1.6792    0.0000 C   0  0  0  0  0  0  0  0  0  0  0  0
    5.9875   -0.0250    0.0000 C   0  0  0  0  0  0  0  0  0  0  0  0
    3.8375   -0.4292    0.0000 C   0  0  0  0  0  0  0  0  0  0  0  0
    6.7042   -0.4417    0.0000 C   0  0  0  0  0  0  0  0  0  0  0  0
    7.4167   -0.0292    0.0000 C   0  0  0  0  0  0  0  0  0  0  0  0
    5.9917    0.7958    0.0000 C   0  0  0  0  0  0  0  0  0  0  0  0
    3.1167   -1.6750    0.0000 C   0  0  0  0  0  0  0  0  0  0  0  0
    4.5500   -2.5042    0.0000 O   0  0  0  0  0  0  0  0  0  0  0  0
    3.1167   -0.0167    0.0000 C   0  0  0  0  0  0  0  0  0  0  0  0
    7.4167    0.7958    0.0000 C   0  0  0  0  0  0  0  0  0  0  0  0
    6.6917   -1.2667    0.0000 Cl  0  0  0  0  0  0  0  0  0  0  0  0
    6.7042    1.2083    0.0000 C   0  0  0  0  0  0  0  0  0  0  0  0
    2.4042   -1.2625    0.0000 C   0  0  0  0  0  0  0  0  0  0  0  0
    2.4042   -0.4375    0.0000 C   0  0  0  0  0  0  0  0  0  0  0  0
    8.1375    1.2083    0.0000 Cl  0  0  0  0  0  0  0  0  0  0  0  0
    1.6917   -1.6750    0.0000 C   0  0  0  0  0  0  0  0  0  0  0  0
  2  1  2  0  0  0  0
  3  1  1  0  0  0  0
  4  7  1  0  0  0  0
  5  2  1  0  0  0  0
  6  1  1  0  0  0  0
  7  3  1  0  0  0  0
  8  6  2  0  0  0  0
  9  8  1  0  0  0  0
 10  6  1  0  0  0  0
 11  4  2  0  0  0  0
 12  5  2  0  0  0  0
 13  7  2  0  0  0  0
 14 16  1  0  0  0  0
 15  8  1  0  0  0  0
 16 10  2  0  0  0  0
 17 18  2  0  0  0  0
 18 13  1  0  0  0  0
 19 14  1  0  0  0  0
 20 17  1  0  0  0  0
  4  5  1  0  0  0  0
  9 14  2  0  0  0  0
 17 11  1  0  0  0  0
M  END
>  <IDNUMBER>
F3139-0632

>  <Chemical_Name>
2-(2,4-dichlorophenyl)-6-methyl-4H-chromen-4-one

>  <PriceCoeff>
1.00

>  <CAS>
637747-68-3

>  <MW>
305.16

>  <Description>
solid

>  <FSP3>
0.06

>  <clogP>
5.16

>  <TPSA>
26.30

>  <Acceptor>
2

>  <Donor>
0

>  <RotBonds>
1

>  <HAC>
20

>  <Collection>
General

>  <PPDS>
+

$$$$
F3139-0633
  Mrv2219 10102508112D          

 20 22  0  0  0  0            999 V2000
    5.2750   -0.4292    0.0000 C   0  0  0  0  0  0  0  0  0  0  0  0
    5.2750   -1.2667    0.0000 C   0  0  0  0  0  0  0  0  0  0  0  0
    4.5542   -0.0125    0.0000 O   0  0  0  0  0  0  0  0  0  0  0  0
    3.8292   -1.2667    0.0000 C   0  0  0  0  0  0  0  0  0  0  0  0
    4.5500   -1.6792    0.0000 C   0  0  0  0  0  0  0  0  0  0  0  0
    3.8375   -0.4292    0.0000 C   0  0  0  0  0  0  0  0  0  0  0  0
    5.9875   -0.0250    0.0000 C   0  0  0  0  0  0  0  0  0  0  0  0
    3.1167   -1.6750    0.0000 C   0  0  0  0  0  0  0  0  0  0  0  0
    4.5500   -2.5042    0.0000 O   0  0  0  0  0  0  0  0  0  0  0  0
    6.7042   -0.4417    0.0000 C   0  0  0  0  0  0  0  0  0  0  0  0
    3.1167   -0.0167    0.0000 C   0  0  0  0  0  0  0  0  0  0  0  0
    2.4042   -1.2625    0.0000 C   0  0  0  0  0  0  0  0  0  0  0  0
    2.4042   -0.4375    0.0000 C   0  0  0  0  0  0  0  0  0  0  0  0
    1.6917   -1.6750    0.0000 Br  0  0  0  0  0  0  0  0  0  0  0  0
    6.7000   -1.2625    0.0000 O   0  0  0  0  0  0  0  0  0  0  0  0
    5.9917    0.7958    0.0000 C   0  0  0  0  0  0  0  0  0  0  0  0
    7.4167   -0.0292    0.0000 C   0  0  0  0  0  0  0  0  0  0  0  0
    7.4125   -1.6792    0.0000 C   0  0  0  0  0  0  0  0  0  0  0  0
    6.7042    1.2083    0.0000 C   0  0  0  0  0  0  0  0  0  0  0  0
    7.4167    0.7958    0.0000 C   0  0  0  0  0  0  0  0  0  0  0  0
  2  1  2  0  0  0  0
  3  1  1  0  0  0  0
  4  6  1  0  0  0  0
  5  2  1  0  0  0  0
  6  3  1  0  0  0  0
  7  1  1  0  0  0  0
  8  4  2  0  0  0  0
  9  5  2  0  0  0  0
 10  7  2  0  0  0  0
 11  6  2  0  0  0  0
 12 13  2  0  0  0  0
 13 11  1  0  0  0  0
 14 12  1  0  0  0  0
 15 10  1  0  0  0  0
 16  7  1  0  0  0  0
 17 10  1  0  0  0  0
 18 15  1  0  0  0  0
 19 16  2  0  0  0  0
 20 19  1  0  0  0  0
  4  5  1  0  0  0  0
 17 20  2  0  0  0  0
 12  8  1  0  0  0  0
M  END
>  <IDNUMBER>
F3139-0633

>  <Chemical_Name>
6-bromo-2-(2-methoxyphenyl)-4H-chromen-4-one

>  <PriceCoeff>
1.00

>  <CAS>
88952-77-6

>  <MW>
331.16

>  <Description>
solid

>  <FSP3>
0.06

>  <clogP>
3.75

>  <TPSA>
35.53

>  <Acceptor>
3

>  <Donor>
0

>  <RotBonds>
2

>  <HAC>
20

>  <Collection>
General

>  <PPDS>
+

$$$$
F3139-0634
  Mrv2219 10102508112D          

 21 23  0  0  0  0            999 V2000
    5.2750   -0.4292    0.0000 C   0  0  0  0  0  0  0  0  0  0  0  0
    5.2750   -1.2667    0.0000 C   0  0  0  0  0  0  0  0  0  0  0  0
    4.5542   -0.0125    0.0000 O   0  0  0  0  0  0  0  0  0  0  0  0
    3.8375   -0.4292    0.0000 C   0  0  0  0  0  0  0  0  0  0  0  0
    4.5500   -1.6792    0.0000 C   0  0  0  0  0  0  0  0  0  0  0  0
    5.9875   -0.0250    0.0000 C   0  0  0  0  0  0  0  0  0  0  0  0
    3.8292   -1.2667    0.0000 C   0  0  0  0  0  0  0  0  0  0  0  0
    6.7042   -0.4417    0.0000 C   0  0  0  0  0  0  0  0  0  0  0  0
    3.1167   -0.0167    0.0000 C   0  0  0  0  0  0  0  0  0  0  0  0
    7.4167   -0.0292    0.0000 C   0  0  0  0  0  0  0  0  0  0  0  0
    3.1167   -1.6750    0.0000 C   0  0  0  0  0  0  0  0  0  0  0  0
    5.9917    0.7958    0.0000 C   0  0  0  0  0  0  0  0  0  0  0  0
    4.5500   -2.5042    0.0000 O   0  0  0  0  0  0  0  0  0  0  0  0
    7.4167    0.7958    0.0000 C   0  0  0  0  0  0  0  0  0  0  0  0
    2.4042   -0.4375    0.0000 C   0  0  0  0  0  0  0  0  0  0  0  0
    6.6917   -1.2667    0.0000 Cl  0  0  0  0  0  0  0  0  0  0  0  0
    6.7042    1.2083    0.0000 C   0  0  0  0  0  0  0  0  0  0  0  0
    2.4042   -1.2625    0.0000 C   0  0  0  0  0  0  0  0  0  0  0  0
    8.1375    1.2083    0.0000 Cl  0  0  0  0  0  0  0  0  0  0  0  0
    1.6917   -0.0167    0.0000 O   0  0  0  0  0  0  0  0  0  0  0  0
    0.9792   -0.4375    0.0000 C   0  0  0  0  0  0  0  0  0  0  0  0
  2  1  2  0  0  0  0
  3  1  1  0  0  0  0
  4  3  1  0  0  0  0
  5  2  1  0  0  0  0
  6  1  1  0  0  0  0
  7  4  1  0  0  0  0
  8  6  2  0  0  0  0
  9  4  2  0  0  0  0
 10  8  1  0  0  0  0
 11  7  2  0  0  0  0
 12  6  1  0  0  0  0
 13  5  2  0  0  0  0
 14 17  1  0  0  0  0
 15  9  1  0  0  0  0
 16  8  1  0  0  0  0
 17 12  2  0  0  0  0
 18 15  2  0  0  0  0
 19 14  1  0  0  0  0
 20 15  1  0  0  0  0
 21 20  1  0  0  0  0
  5  7  1  0  0  0  0
 10 14  2  0  0  0  0
 18 11  1  0  0  0  0
M  END
>  <IDNUMBER>
F3139-0634

>  <Chemical_Name>
2-(2,4-dichlorophenyl)-7-methoxy-4H-chromen-4-one

>  <PriceCoeff>
1.00

>  <CAS>
637747-69-4

>  <MW>
321.15

>  <Description>
solid

>  <FSP3>
0.06

>  <clogP>
4.76

>  <TPSA>
35.53

>  <Acceptor>
3

>  <Donor>
0

>  <RotBonds>
2

>  <HAC>
21

>  <Collection>
General

>  <PPDS>
+

$$$$
F3139-0635
  Mrv2219 10102508112D          

 19 21  0  0  0  0            999 V2000
    5.2750   -0.4292    0.0000 C   0  0  0  0  0  0  0  0  0  0  0  0
    5.2750   -1.2667    0.0000 C   0  0  0  0  0  0  0  0  0  0  0  0
    4.5542   -0.0125    0.0000 O   0  0  0  0  0  0  0  0  0  0  0  0
    3.8292   -1.2667    0.0000 C   0  0  0  0  0  0  0  0  0  0  0  0
    4.5500   -1.6792    0.0000 C   0  0  0  0  0  0  0  0  0  0  0  0
    3.8375   -0.4292    0.0000 C   0  0  0  0  0  0  0  0  0  0  0  0
    5.9875   -0.0250    0.0000 C   0  0  0  0  0  0  0  0  0  0  0  0
    3.1167   -1.6750    0.0000 C   0  0  0  0  0  0  0  0  0  0  0  0
    6.7042   -0.4417    0.0000 C   0  0  0  0  0  0  0  0  0  0  0  0
    4.5500   -2.5042    0.0000 O   0  0  0  0  0  0  0  0  0  0  0  0
    3.1167   -0.0167    0.0000 C   0  0  0  0  0  0  0  0  0  0  0  0
    2.4042   -1.2625    0.0000 C   0  0  0  0  0  0  0  0  0  0  0  0
    6.6917   -1.2667    0.0000 Cl  0  0  0  0  0  0  0  0  0  0  0  0
    2.4042   -0.4375    0.0000 C   0  0  0  0  0  0  0  0  0  0  0  0
    1.6917   -1.6750    0.0000 F   0  0  0  0  0  0  0  0  0  0  0  0
    5.9917    0.7958    0.0000 C   0  0  0  0  0  0  0  0  0  0  0  0
    7.4167   -0.0292    0.0000 C   0  0  0  0  0  0  0  0  0  0  0  0
    6.7042    1.2083    0.0000 C   0  0  0  0  0  0  0  0  0  0  0  0
    7.4167    0.7958    0.0000 C   0  0  0  0  0  0  0  0  0  0  0  0
  2  1  2  0  0  0  0
  3  1  1  0  0  0  0
  4  6  1  0  0  0  0
  5  2  1  0  0  0  0
  6  3  1  0  0  0  0
  7  1  1  0  0  0  0
  8  4  2  0  0  0  0
  9  7  2  0  0  0  0
 10  5  2  0  0  0  0
 11  6  2  0  0  0  0
 12 14  2  0  0  0  0
 13  9  1  0  0  0  0
 14 11  1  0  0  0  0
 15 12  1  0  0  0  0
 16  7  1  0  0  0  0
 17  9  1  0  0  0  0
 18 16  2  0  0  0  0
 19 18  1  0  0  0  0
  4  5  1  0  0  0  0
 17 19  2  0  0  0  0
 12  8  1  0  0  0  0
M  END
>  <IDNUMBER>
F3139-0635

>  <Chemical_Name>
2-(2-chlorophenyl)-6-fluoro-4H-chromen-4-one

>  <PriceCoeff>
1.00

>  <CAS>
527751-46-8

>  <MW>
274.67

>  <Description>
solid

>  <FSP3>
0.00

>  <clogP>
4.09

>  <TPSA>
26.30

>  <Acceptor>
2

>  <Donor>
0

>  <RotBonds>
1

>  <HAC>
19

>  <Collection>
General

>  <PPDS>
+

$$$$
F3139-0636
  Mrv2219 10102508112D          

 20 22  0  0  0  0            999 V2000
    5.2750   -0.4292    0.0000 C   0  0  0  0  0  0  0  0  0  0  0  0
    5.2750   -1.2667    0.0000 C   0  0  0  0  0  0  0  0  0  0  0  0
    4.5542   -0.0125    0.0000 O   0  0  0  0  0  0  0  0  0  0  0  0
    3.8375   -0.4292    0.0000 C   0  0  0  0  0  0  0  0  0  0  0  0
    4.5500   -1.6792    0.0000 C   0  0  0  0  0  0  0  0  0  0  0  0
    3.8292   -1.2667    0.0000 C   0  0  0  0  0  0  0  0  0  0  0  0
    5.9875   -0.0250    0.0000 C   0  0  0  0  0  0  0  0  0  0  0  0
    3.1167   -0.0167    0.0000 C   0  0  0  0  0  0  0  0  0  0  0  0
    3.1167   -1.6750    0.0000 C   0  0  0  0  0  0  0  0  0  0  0  0
    6.7042   -0.4417    0.0000 C   0  0  0  0  0  0  0  0  0  0  0  0
    4.5500   -2.5042    0.0000 O   0  0  0  0  0  0  0  0  0  0  0  0
    2.4042   -0.4375    0.0000 C   0  0  0  0  0  0  0  0  0  0  0  0
    2.4042   -1.2625    0.0000 C   0  0  0  0  0  0  0  0  0  0  0  0
    6.6917   -1.2667    0.0000 F   0  0  0  0  0  0  0  0  0  0  0  0
    5.9917    0.7958    0.0000 C   0  0  0  0  0  0  0  0  0  0  0  0
    1.6917   -0.0167    0.0000 O   0  0  0  0  0  0  0  0  0  0  0  0
    7.4167   -0.0292    0.0000 C   0  0  0  0  0  0  0  0  0  0  0  0
    0.9792   -0.4375    0.0000 C   0  0  0  0  0  0  0  0  0  0  0  0
    6.7042    1.2083    0.0000 C   0  0  0  0  0  0  0  0  0  0  0  0
    7.4167    0.7958    0.0000 C   0  0  0  0  0  0  0  0  0  0  0  0
  2  1  2  0  0  0  0
  3  1  1  0  0  0  0
  4  3  1  0  0  0  0
  5  2  1  0  0  0  0
  6  4  1  0  0  0  0
  7  1  1  0  0  0  0
  8  4  2  0  0  0  0
  9  6  2  0  0  0  0
 10  7  2  0  0  0  0
 11  5  2  0  0  0  0
 12  8  1  0  0  0  0
 13 12  2  0  0  0  0
 14 10  1  0  0  0  0
 15  7  1  0  0  0  0
 16 12  1  0  0  0  0
 17 10  1  0  0  0  0
 18 16  1  0  0  0  0
 19 15  2  0  0  0  0
 20 19  1  0  0  0  0
  6  5  1  0  0  0  0
 17 20  2  0  0  0  0
 13  9  1  0  0  0  0
M  END
>  <IDNUMBER>
F3139-0636

>  <Chemical_Name>
2-(2-fluorophenyl)-7-methoxy-4H-chromen-4-one

>  <PriceCoeff>
1.00

>  <CAS>
637747-70-7

>  <MW>
270.26

>  <Description>
solid

>  <FSP3>
0.06

>  <clogP>
3.73

>  <TPSA>
35.53

>  <Acceptor>
3

>  <Donor>
0

>  <RotBonds>
2

>  <HAC>
20

>  <Collection>
General

>  <PPDS>
+

$$$$
F3139-0637
  Mrv2219 10102508112D          

 19 21  0  0  0  0            999 V2000
    5.2610   -0.4273    0.0000 C   0  0  0  0  0  0  0  0  0  0  0  0
    5.2610   -1.2523    0.0000 C   0  0  0  0  0  0  0  0  0  0  0  0
    3.8225   -1.2523    0.0000 C   0  0  0  0  0  0  0  0  0  0  0  0
    4.5460   -1.6648    0.0000 C   0  0  0  0  0  0  0  0  0  0  0  0
    4.5460   -0.0021    0.0000 O   0  0  0  0  0  0  0  0  0  0  0  0
    3.8225   -0.4273    0.0000 C   0  0  0  0  0  0  0  0  0  0  0  0
    5.9739   -0.0148    0.0000 C   0  0  0  0  0  0  0  0  0  0  0  0
    3.1117   -1.6648    0.0000 C   0  0  0  0  0  0  0  0  0  0  0  0
    4.5460   -2.4962    0.0000 O   0  0  0  0  0  0  0  0  0  0  0  0
    3.1117   -0.0148    0.0000 C   0  0  0  0  0  0  0  0  0  0  0  0
    6.6910   -0.4337    0.0000 C   0  0  0  0  0  0  0  0  0  0  0  0
    5.9802    0.7975    0.0000 C   0  0  0  0  0  0  0  0  0  0  0  0
    2.3946   -1.2523    0.0000 C   0  0  0  0  0  0  0  0  0  0  0  0
    7.4081    0.7975    0.0000 C   0  0  0  0  0  0  0  0  0  0  0  0
    2.3946   -0.4273    0.0000 C   0  0  0  0  0  0  0  0  0  0  0  0
    6.6910    1.1994    0.0000 C   0  0  0  0  0  0  0  0  0  0  0  0
    7.3954   -0.0275    0.0000 C   0  0  0  0  0  0  0  0  0  0  0  0
    1.6839   -1.6648    0.0000 Cl  0  0  0  0  0  0  0  0  0  0  0  0
    8.1231    1.1994    0.0000 F   0  0  0  0  0  0  0  0  0  0  0  0
  2  1  2  0  0  0  0
  3  6  1  0  0  0  0
  4  2  1  0  0  0  0
  5  1  1  0  0  0  0
  6  5  1  0  0  0  0
  7  1  1  0  0  0  0
  8  3  2  0  0  0  0
  9  4  2  0  0  0  0
 10  6  2  0  0  0  0
 11  7  2  0  0  0  0
 12  7  1  0  0  0  0
 13 15  2  0  0  0  0
 14 16  1  0  0  0  0
 15 10  1  0  0  0  0
 16 12  2  0  0  0  0
 17 11  1  0  0  0  0
 18 13  1  0  0  0  0
 19 14  1  0  0  0  0
  3  4  1  0  0  0  0
 17 14  2  0  0  0  0
 13  8  1  0  0  0  0
M  END
>  <IDNUMBER>
F3139-0637

>  <Chemical_Name>
6-chloro-2-(4-fluorophenyl)-4H-chromen-4-one

>  <PriceCoeff>
1.00

>  <CAS>
213894-75-8

>  <MW>
274.67

>  <Description>
solid

>  <FSP3>
0.00

>  <clogP>
4.34

>  <TPSA>
26.30

>  <Acceptor>
2

>  <Donor>
0

>  <RotBonds>
1

>  <HAC>
19

>  <Collection>
General

>  <PPDS>
+

$$$$
F3139-0638
  Mrv2219 10102508112D          

 19 21  0  0  0  0            999 V2000
    5.2750   -0.4292    0.0000 C   0  0  0  0  0  0  0  0  0  0  0  0
    5.2750   -1.2667    0.0000 C   0  0  0  0  0  0  0  0  0  0  0  0
    3.8292   -1.2667    0.0000 C   0  0  0  0  0  0  0  0  0  0  0  0
    4.5500   -1.6792    0.0000 C   0  0  0  0  0  0  0  0  0  0  0  0
    4.5542   -0.0125    0.0000 O   0  0  0  0  0  0  0  0  0  0  0  0
    3.8375   -0.4292    0.0000 C   0  0  0  0  0  0  0  0  0  0  0  0
    5.9875   -0.0250    0.0000 C   0  0  0  0  0  0  0  0  0  0  0  0
    3.1167   -1.6750    0.0000 C   0  0  0  0  0  0  0  0  0  0  0  0
    4.5500   -2.5042    0.0000 O   0  0  0  0  0  0  0  0  0  0  0  0
    3.1167   -0.0167    0.0000 C   0  0  0  0  0  0  0  0  0  0  0  0
    6.7042   -0.4417    0.0000 C   0  0  0  0  0  0  0  0  0  0  0  0
    5.9917    0.7958    0.0000 C   0  0  0  0  0  0  0  0  0  0  0  0
    2.4042   -1.2625    0.0000 C   0  0  0  0  0  0  0  0  0  0  0  0
    7.4167    0.7958    0.0000 C   0  0  0  0  0  0  0  0  0  0  0  0
    2.4042   -0.4375    0.0000 C   0  0  0  0  0  0  0  0  0  0  0  0
    6.7042    1.2083    0.0000 C   0  0  0  0  0  0  0  0  0  0  0  0
    7.4167   -0.0292    0.0000 C   0  0  0  0  0  0  0  0  0  0  0  0
    1.6917   -1.6750    0.0000 F   0  0  0  0  0  0  0  0  0  0  0  0
    8.1375    1.2083    0.0000 F   0  0  0  0  0  0  0  0  0  0  0  0
  2  1  2  0  0  0  0
  3  6  1  0  0  0  0
  4  2  1  0  0  0  0
  5  1  1  0  0  0  0
  6  5  1  0  0  0  0
  7  1  1  0  0  0  0
  8  3  2  0  0  0  0
  9  4  2  0  0  0  0
 10  6  2  0  0  0  0
 11  7  2  0  0  0  0
 12  7  1  0  0  0  0
 13 15  2  0  0  0  0
 14 16  1  0  0  0  0
 15 10  1  0  0  0  0
 16 12  2  0  0  0  0
 17 11  1  0  0  0  0
 18 13  1  0  0  0  0
 19 14  1  0  0  0  0
  3  4  1  0  0  0  0
 17 14  2  0  0  0  0
 13  8  1  0  0  0  0
M  END
>  <IDNUMBER>
F3139-0638

>  <Chemical_Name>
6-fluoro-2-(4-fluorophenyl)-4H-chromen-4-one

>  <PriceCoeff>
1.00

>  <CAS>
213894-74-7

>  <MW>
258.22

>  <Description>
solid

>  <FSP3>
0.00

>  <clogP>
3.77

>  <TPSA>
26.30

>  <Acceptor>
2

>  <Donor>
0

>  <RotBonds>
1

>  <HAC>
19

>  <Collection>
General

$$$$
F3139-0639
  Mrv2219 10102508112D          

 20 22  0  0  0  0            999 V2000
    4.5542   -0.0125    0.0000 O   0  0  0  0  0  0  0  0  0  0  0  0
    3.8375   -0.4292    0.0000 C   0  0  0  0  0  0  0  0  0  0  0  0
    3.8292   -1.2667    0.0000 C   0  0  0  0  0  0  0  0  0  0  0  0
    5.2750   -0.4292    0.0000 C   0  0  0  0  0  0  0  0  0  0  0  0
    5.2750   -1.2667    0.0000 C   0  0  0  0  0  0  0  0  0  0  0  0
    4.5500   -1.6792    0.0000 C   0  0  0  0  0  0  0  0  0  0  0  0
    3.1167   -0.0167    0.0000 C   0  0  0  0  0  0  0  0  0  0  0  0
    2.4042   -0.4375    0.0000 C   0  0  0  0  0  0  0  0  0  0  0  0
    5.9875   -0.0250    0.0000 C   0  0  0  0  0  0  0  0  0  0  0  0
    3.1167   -1.6750    0.0000 C   0  0  0  0  0  0  0  0  0  0  0  0
    2.4042   -1.2625    0.0000 C   0  0  0  0  0  0  0  0  0  0  0  0
    4.5500   -2.5042    0.0000 O   0  0  0  0  0  0  0  0  0  0  0  0
    6.7042   -0.4417    0.0000 C   0  0  0  0  0  0  0  0  0  0  0  0
    5.9917    0.7958    0.0000 C   0  0  0  0  0  0  0  0  0  0  0  0
    3.1250    0.8083    0.0000 Cl  0  0  0  0  0  0  0  0  0  0  0  0
    1.6917   -1.6750    0.0000 Cl  0  0  0  0  0  0  0  0  0  0  0  0
    6.7042    1.2083    0.0000 C   0  0  0  0  0  0  0  0  0  0  0  0
    7.4167   -0.0292    0.0000 C   0  0  0  0  0  0  0  0  0  0  0  0
    7.4167    0.7958    0.0000 C   0  0  0  0  0  0  0  0  0  0  0  0
    8.1375    1.2083    0.0000 C   0  0  0  0  0  0  0  0  0  0  0  0
  2  1  1  0  0  0  0
  3  2  1  0  0  0  0
  4  1  1  0  0  0  0
  5  4  2  0  0  0  0
  6  5  1  0  0  0  0
  7  2  2  0  0  0  0
  8  7  1  0  0  0  0
  9  4  1  0  0  0  0
 10  3  2  0  0  0  0
 11  8  2  0  0  0  0
 12  6  2  0  0  0  0
 13  9  2  0  0  0  0
 14  9  1  0  0  0  0
 15  7  1  0  0  0  0
 16 11  1  0  0  0  0
 17 14  2  0  0  0  0
 18 13  1  0  0  0  0
 19 17  1  0  0  0  0
 20 19  1  0  0  0  0
  3  6  1  0  0  0  0
 11 10  1  0  0  0  0
 18 19  2  0  0  0  0
M  END
>  <IDNUMBER>
F3139-0639

>  <Chemical_Name>
6,8-dichloro-2-(4-methylphenyl)-4H-chromen-4-one

>  <PriceCoeff>
1.00

>  <CAS>
88953-00-8

>  <MW>
305.16

>  <Description>
solid

>  <FSP3>
0.06

>  <clogP>
5.41

>  <TPSA>
26.30

>  <Acceptor>
2

>  <Donor>
0

>  <RotBonds>
1

>  <HAC>
20

>  <Collection>
General

>  <PPDS>
+

$$$$
F3139-0640
  Mrv2219 10102508112D          

 20 22  0  0  0  0            999 V2000
    5.2750   -0.4292    0.0000 C   0  0  0  0  0  0  0  0  0  0  0  0
    5.2750   -1.2667    0.0000 C   0  0  0  0  0  0  0  0  0  0  0  0
    3.8292   -1.2667    0.0000 C   0  0  0  0  0  0  0  0  0  0  0  0
    4.5500   -1.6792    0.0000 C   0  0  0  0  0  0  0  0  0  0  0  0
    4.5542   -0.0125    0.0000 O   0  0  0  0  0  0  0  0  0  0  0  0
    3.8375   -0.4292    0.0000 C   0  0  0  0  0  0  0  0  0  0  0  0
    5.9875   -0.0250    0.0000 C   0  0  0  0  0  0  0  0  0  0  0  0
    3.1167   -1.6750    0.0000 C   0  0  0  0  0  0  0  0  0  0  0  0
    4.5500   -2.5042    0.0000 O   0  0  0  0  0  0  0  0  0  0  0  0
    3.1167   -0.0167    0.0000 C   0  0  0  0  0  0  0  0  0  0  0  0
    6.7042   -0.4417    0.0000 C   0  0  0  0  0  0  0  0  0  0  0  0
    5.9917    0.7958    0.0000 C   0  0  0  0  0  0  0  0  0  0  0  0
    2.4042   -1.2625    0.0000 C   0  0  0  0  0  0  0  0  0  0  0  0
    2.4042   -0.4375    0.0000 C   0  0  0  0  0  0  0  0  0  0  0  0
    6.7042    1.2083    0.0000 C   0  0  0  0  0  0  0  0  0  0  0  0
    7.4167   -0.0292    0.0000 C   0  0  0  0  0  0  0  0  0  0  0  0
    7.4167    0.7958    0.0000 C   0  0  0  0  0  0  0  0  0  0  0  0
    1.6917   -1.6667    0.0000 O   0  0  0  0  0  0  0  0  0  0  0  0
    8.1375    1.2083    0.0000 C   0  0  0  0  0  0  0  0  0  0  0  0
    1.6917   -2.4917    0.0000 C   0  0  0  0  0  0  0  0  0  0  0  0
  2  1  2  0  0  0  0
  3  6  1  0  0  0  0
  4  2  1  0  0  0  0
  5  1  1  0  0  0  0
  6  5  1  0  0  0  0
  7  1  1  0  0  0  0
  8  3  2  0  0  0  0
  9  4  2  0  0  0  0
 10  6  2  0  0  0  0
 11  7  2  0  0  0  0
 12  7  1  0  0  0  0
 13 14  2  0  0  0  0
 14 10  1  0  0  0  0
 15 12  2  0  0  0  0
 16 11  1  0  0  0  0
 17 15  1  0  0  0  0
 18 13  1  0  0  0  0
 19 17  1  0  0  0  0
 20 18  1  0  0  0  0
  3  4  1  0  0  0  0
 16 17  2  0  0  0  0
 13  8  1  0  0  0  0
M  END
>  <IDNUMBER>
F3139-0640

>  <Chemical_Name>
6-methoxy-2-(4-methylphenyl)-4H-chromen-4-one

>  <PriceCoeff>
1.00

>  <CAS>
208998-53-2

>  <MW>
266.29

>  <Description>
solid

>  <FSP3>
0.12

>  <clogP>
4.09

>  <TPSA>
35.53

>  <Acceptor>
3

>  <Donor>
0

>  <RotBonds>
2

>  <HAC>
20

>  <Collection>
General

$$$$
F3139-0641
  Mrv2219 10102508112D          

 20 22  0  0  0  0            999 V2000
    5.2750   -0.4292    0.0000 C   0  0  0  0  0  0  0  0  0  0  0  0
    5.2750   -1.2667    0.0000 C   0  0  0  0  0  0  0  0  0  0  0  0
    4.5542   -0.0125    0.0000 O   0  0  0  0  0  0  0  0  0  0  0  0
    3.8292   -1.2667    0.0000 C   0  0  0  0  0  0  0  0  0  0  0  0
    4.5500   -1.6792    0.0000 C   0  0  0  0  0  0  0  0  0  0  0  0
    3.8375   -0.4292    0.0000 C   0  0  0  0  0  0  0  0  0  0  0  0
    5.9875   -0.0250    0.0000 C   0  0  0  0  0  0  0  0  0  0  0  0
    3.1167   -1.6750    0.0000 C   0  0  0  0  0  0  0  0  0  0  0  0
    6.7042   -0.4417    0.0000 C   0  0  0  0  0  0  0  0  0  0  0  0
    4.5500   -2.5042    0.0000 O   0  0  0  0  0  0  0  0  0  0  0  0
    3.1167   -0.0167    0.0000 C   0  0  0  0  0  0  0  0  0  0  0  0
    2.4042   -1.2625    0.0000 C   0  0  0  0  0  0  0  0  0  0  0  0
    6.6917   -1.2667    0.0000 Cl  0  0  0  0  0  0  0  0  0  0  0  0
    2.4042   -0.4375    0.0000 C   0  0  0  0  0  0  0  0  0  0  0  0
    5.9917    0.7958    0.0000 C   0  0  0  0  0  0  0  0  0  0  0  0
    1.6917   -1.6667    0.0000 O   0  0  0  0  0  0  0  0  0  0  0  0
    7.4167   -0.0292    0.0000 C   0  0  0  0  0  0  0  0  0  0  0  0
    1.6917   -2.4917    0.0000 C   0  0  0  0  0  0  0  0  0  0  0  0
    6.7042    1.2083    0.0000 C   0  0  0  0  0  0  0  0  0  0  0  0
    7.4167    0.7958    0.0000 C   0  0  0  0  0  0  0  0  0  0  0  0
  2  1  2  0  0  0  0
  3  1  1  0  0  0  0
  4  6  1  0  0  0  0
  5  2  1  0  0  0  0
  6  3  1  0  0  0  0
  7  1  1  0  0  0  0
  8  4  2  0  0  0  0
  9  7  2  0  0  0  0
 10  5  2  0  0  0  0
 11  6  2  0  0  0  0
 12 14  2  0  0  0  0
 13  9  1  0  0  0  0
 14 11  1  0  0  0  0
 15  7  1  0  0  0  0
 16 12  1  0  0  0  0
 17  9  1  0  0  0  0
 18 16  1  0  0  0  0
 19 15  2  0  0  0  0
 20 19  1  0  0  0  0
  4  5  1  0  0  0  0
 17 20  2  0  0  0  0
 12  8  1  0  0  0  0
M  END
>  <IDNUMBER>
F3139-0641

>  <Chemical_Name>
2-(2-chlorophenyl)-6-methoxy-4H-chromen-4-one

>  <PriceCoeff>
1.00

>  <CAS>
332102-81-5

>  <MW>
286.71

>  <Description>
solid

>  <FSP3>
0.06

>  <clogP>
4.05

>  <TPSA>
35.53

>  <Acceptor>
3

>  <Donor>
0

>  <RotBonds>
2

>  <HAC>
20

>  <Collection>
General

>  <PPDS>
+

$$$$
F3139-0642
  Mrv2219 10102508112D          

 20 22  0  0  0  0            999 V2000
    5.2750   -0.4292    0.0000 C   0  0  0  0  0  0  0  0  0  0  0  0
    5.2750   -1.2667    0.0000 C   0  0  0  0  0  0  0  0  0  0  0  0
    3.8292   -1.2667    0.0000 C   0  0  0  0  0  0  0  0  0  0  0  0
    4.5500   -1.6792    0.0000 C   0  0  0  0  0  0  0  0  0  0  0  0
    4.5542   -0.0125    0.0000 O   0  0  0  0  0  0  0  0  0  0  0  0
    3.8375   -0.4292    0.0000 C   0  0  0  0  0  0  0  0  0  0  0  0
    5.9875   -0.0250    0.0000 C   0  0  0  0  0  0  0  0  0  0  0  0
    3.1167   -1.6750    0.0000 C   0  0  0  0  0  0  0  0  0  0  0  0
    4.5500   -2.5042    0.0000 O   0  0  0  0  0  0  0  0  0  0  0  0
    3.1167   -0.0167    0.0000 C   0  0  0  0  0  0  0  0  0  0  0  0
    6.7042   -0.4417    0.0000 C   0  0  0  0  0  0  0  0  0  0  0  0
    5.9917    0.7958    0.0000 C   0  0  0  0  0  0  0  0  0  0  0  0
    2.4042   -1.2625    0.0000 C   0  0  0  0  0  0  0  0  0  0  0  0
    7.4167    0.7958    0.0000 C   0  0  0  0  0  0  0  0  0  0  0  0
    2.4042   -0.4375    0.0000 C   0  0  0  0  0  0  0  0  0  0  0  0
    6.7042    1.2083    0.0000 C   0  0  0  0  0  0  0  0  0  0  0  0
    7.4167   -0.0292    0.0000 C   0  0  0  0  0  0  0  0  0  0  0  0
    8.1375    1.2083    0.0000 Cl  0  0  0  0  0  0  0  0  0  0  0  0
    1.6917   -1.6667    0.0000 O   0  0  0  0  0  0  0  0  0  0  0  0
    1.6917   -2.4917    0.0000 C   0  0  0  0  0  0  0  0  0  0  0  0
  2  1  2  0  0  0  0
  3  6  1  0  0  0  0
  4  2  1  0  0  0  0
  5  1  1  0  0  0  0
  6  5  1  0  0  0  0
  7  1  1  0  0  0  0
  8  3  2  0  0  0  0
  9  4  2  0  0  0  0
 10  6  2  0  0  0  0
 11  7  2  0  0  0  0
 12  7  1  0  0  0  0
 13 15  2  0  0  0  0
 14 16  1  0  0  0  0
 15 10  1  0  0  0  0
 16 12  2  0  0  0  0
 17 11  1  0  0  0  0
 18 14  1  0  0  0  0
 19 13  1  0  0  0  0
 20 19  1  0  0  0  0
  3  4  1  0  0  0  0
 17 14  2  0  0  0  0
 13  8  1  0  0  0  0
M  END
>  <IDNUMBER>
F3139-0642

>  <Chemical_Name>
2-(4-chlorophenyl)-6-methoxy-4H-chromen-4-one

>  <PriceCoeff>
1.00

>  <CAS>
70355-31-6

>  <MW>
286.71

>  <Description>
solid

>  <FSP3>
0.06

>  <clogP>
4.30

>  <TPSA>
35.53

>  <Acceptor>
3

>  <Donor>
0

>  <RotBonds>
2

>  <HAC>
20

>  <Collection>
General

$$$$
F3139-0671
  Mrv2219 10102508112D          

 22 23  0  0  0  0            999 V2000
    4.8613   -2.7910    0.0000 C   0  0  0  0  0  0  0  0  0  0  0  0
    6.2902   -2.7868    0.0000 C   0  0  0  0  0  0  0  0  0  0  0  0
    5.5778   -3.2034    0.0000 C   0  0  0  0  0  0  0  0  0  0  0  0
    7.0025   -3.1992    0.0000 C   0  0  0  0  0  0  0  0  0  0  0  0
    8.4354   -3.1992    0.0000 C   0  0  0  0  0  0  0  0  0  0  0  0
    9.1477   -2.7868    0.0000 C   0  0  0  0  0  0  0  0  0  0  0  0
    7.7148   -2.7868    0.0000 C   0  0  0  0  0  0  0  0  0  0  0  0
    4.8613   -1.9620    0.0000 C   0  0  0  0  0  0  0  0  0  0  0  0
    4.1407   -3.2034    0.0000 C   0  0  0  0  0  0  0  0  0  0  0  0
    5.5778   -4.0282    0.0000 O   0  0  0  0  0  0  0  0  0  0  0  0
    7.7148   -1.9662    0.0000 C   0  0  0  0  0  0  0  0  0  0  0  0
    4.1407   -1.5496    0.0000 C   0  0  0  0  0  0  0  0  0  0  0  0
    9.1477   -1.9620    0.0000 C   0  0  0  0  0  0  0  0  0  0  0  0
    3.4284   -2.7910    0.0000 C   0  0  0  0  0  0  0  0  0  0  0  0
    8.4271   -1.5496    0.0000 C   0  0  0  0  0  0  0  0  0  0  0  0
    8.4354   -4.0157    0.0000 O   0  0  0  0  0  0  0  0  0  0  0  0
    3.4284   -1.9620    0.0000 C   0  0  0  0  0  0  0  0  0  0  0  0
    5.5736   -1.5413    0.0000 O   0  0  0  0  0  0  0  0  0  0  0  0
    9.8518   -1.5413    0.0000 O   0  0  0  0  0  0  0  0  0  0  0  0
    2.7160   -3.2034    0.0000 C   0  0  0  0  0  0  0  0  0  0  0  0
    9.1477   -4.4281    0.0000 C   0  0  0  0  0  0  0  0  0  0  0  0
    9.8518   -0.7165    0.0000 C   0  0  0  0  0  0  0  0  0  0  0  0
  2  3  1  0  0  0  0
  3  1  1  0  0  0  0
  4  2  2  0  0  0  0
  5  7  2  0  0  0  0
  6  5  1  0  0  0  0
  7  4  1  0  0  0  0
  8  1  1  0  0  0  0
  9  1  2  0  0  0  0
 10  3  2  0  0  0  0
 11  7  1  0  0  0  0
 12  8  2  0  0  0  0
 13 15  1  0  0  0  0
 14  9  1  0  0  0  0
 15 11  2  0  0  0  0
 16  5  1  0  0  0  0
 17 14  2  0  0  0  0
 18  8  1  0  0  0  0
 19 13  1  0  0  0  0
 20 14  1  0  0  0  0
 21 16  1  0  0  0  0
 22 19  1  0  0  0  0
 12 17  1  0  0  0  0
  6 13  2  0  0  0  0
M  END
>  <IDNUMBER>
F3139-0671

>  <Chemical_Name>
(2E)-3-(2,4-dimethoxyphenyl)-1-(2-hydroxy-5-methylphenyl)prop-2-en-1-one

>  <PriceCoeff>
1.00

>  <CAS>
1571080-70-0

>  <MW>
298.33

>  <Description>
solid

>  <FSP3>
0.17

>  <clogP>
4.46

>  <TPSA>
55.76

>  <Acceptor>
4

>  <Donor>
1

>  <RotBonds>
5

>  <HAC>
22

>  <Collection>
General

$$$$
F3139-0681
  Mrv2219 10102508112D          

 29 32  0  0  0  0            999 V2000
    3.7292   -2.8625    0.0000 C   0  0  0  0  0  0  0  0  0  0  0  0
    2.3042   -2.8625    0.0000 C   0  0  0  0  0  0  0  0  0  0  0  0
    3.0167   -3.2750    0.0000 C   0  0  0  0  0  0  0  0  0  0  0  0
    3.7292   -2.0375    0.0000 C   0  0  0  0  0  0  0  0  0  0  0  0
    2.3042   -2.0375    0.0000 C   0  0  0  0  0  0  0  0  0  0  0  0
    4.4417   -3.2750    0.0000 C   0  0  0  0  0  0  0  0  0  0  0  0
    3.0167   -1.6250    0.0000 O   0  0  0  0  0  0  0  0  0  0  0  0
    1.5917   -3.2750    0.0000 C   0  0  0  0  0  0  0  0  0  0  0  0
    1.5917   -1.6250    0.0000 C   0  0  0  0  0  0  0  0  0  0  0  0
    5.8792   -3.2750    0.0000 C   0  0  0  0  0  0  0  0  0  0  0  0
    0.8750   -2.0375    0.0000 C   0  0  0  0  0  0  0  0  0  0  0  0
    5.1667   -2.8625    0.0000 C   0  0  0  0  0  0  0  0  0  0  0  0
    0.8750   -2.8625    0.0000 C   0  0  0  0  0  0  0  0  0  0  0  0
    5.8750   -4.1000    0.0000 C   0  0  0  0  0  0  0  0  0  0  0  0
    3.0167   -4.1000    0.0000 O   0  0  0  0  0  0  0  0  0  0  0  0
    6.5917   -2.8625    0.0000 O   0  0  0  0  0  0  0  0  0  0  0  0
    4.4417   -4.1042    0.0000 C   0  0  0  0  0  0  0  0  0  0  0  0
    6.5875   -4.5167    0.0000 O   0  0  0  0  0  0  0  0  0  0  0  0
    5.1542   -4.5167    0.0000 C   0  0  0  0  0  0  0  0  0  0  0  0
   -0.5708    0.4458    0.0000 C   0  0  0  0  0  0  0  0  0  0  0  0
   -0.5708   -0.3875    0.0000 C   0  0  0  0  0  0  0  0  0  0  0  0
    0.1542   -1.6250    0.0000 O   0  0  0  0  0  0  0  0  0  0  0  0
    0.1500   -0.8000    0.0000 C   0  0  0  0  0  0  0  0  0  0  0  0
    0.1542   -3.2750    0.0000 C   0  0  0  0  0  0  0  0  0  0  0  0
    7.3125   -3.2792    0.0000 C   0  0  0  0  0  0  0  0  0  0  0  0
    7.3042   -4.1042    0.0000 C   0  0  0  0  0  0  0  0  0  0  0  0
   -1.2875    0.8583    0.0000 C   0  0  0  0  0  0  0  0  0  0  0  0
    0.1417    0.8583    0.0000 C   0  0  0  0  0  0  0  0  0  0  0  0
    0.1542   -4.1000    0.0000 C   0  0  0  0  0  0  0  0  0  0  0  0
  2  3  1  0  0  0  0
  3  1  1  0  0  0  0
  4  1  2  0  0  0  0
  5  7  1  0  0  0  0
  6  1  1  0  0  0  0
  7  4  1  0  0  0  0
  8  2  2  0  0  0  0
  9  5  2  0  0  0  0
 10 12  2  0  0  0  0
 11  9  1  0  0  0  0
 12  6  1  0  0  0  0
 13  8  1  0  0  0  0
 14 19  2  0  0  0  0
 15  3  2  0  0  0  0
 16 10  1  0  0  0  0
 17  6  2  0  0  0  0
 18 14  1  0  0  0  0
 19 17  1  0  0  0  0
 20 21  2  0  0  0  0
 21 23  1  0  0  0  0
 22 11  1  0  0  0  0
 23 22  1  0  0  0  0
 24 13  1  0  0  0  0
 25 16  1  0  0  0  0
 26 18  1  0  0  0  0
 27 20  1  0  0  0  0
 28 20  1  0  0  0  0
 29 24  1  0  0  0  0
  5  2  1  0  0  0  0
 10 14  1  0  0  0  0
 11 13  2  0  0  0  0
 26 25  1  0  0  0  0
M  END
>  <IDNUMBER>
F3139-0681

>  <Chemical_Name>
3-(2,3-dihydro-1,4-benzodioxin-6-yl)-6-ethyl-7-[(3-methylbut-2-en-1-yl)oxy]-4H-chromen-4-one

>  <PriceCoeff>
1.00

>  <CAS>
610765-15-6

>  <MW>
392.44

>  <Description>
solid

>  <FSP3>
0.29

>  <clogP>
5.75

>  <TPSA>
53.99

>  <Acceptor>
5

>  <Donor>
0

>  <RotBonds>
5

>  <HAC>
29

>  <Collection>
General

>  <PPDS>
+

$$$$
F3139-0687
  Mrv2219 10102508112D          

 26 29  0  0  0  0            999 V2000
    2.2558   -7.0927    0.0000 C   0  0  0  0  0  0  0  0  0  0  0  0
    0.8299   -7.0927    0.0000 C   0  0  0  0  0  0  0  0  0  0  0  0
    1.5428   -7.5055    0.0000 C   0  0  0  0  0  0  0  0  0  0  0  0
    2.2558   -6.2671    0.0000 C   0  0  0  0  0  0  0  0  0  0  0  0
    0.8299   -6.2671    0.0000 C   0  0  0  0  0  0  0  0  0  0  0  0
    2.9772   -7.5055    0.0000 C   0  0  0  0  0  0  0  0  0  0  0  0
    1.5428   -5.8543    0.0000 O   0  0  0  0  0  0  0  0  0  0  0  0
    0.1168   -7.5055    0.0000 C   0  0  0  0  0  0  0  0  0  0  0  0
    0.1168   -5.8543    0.0000 C   0  0  0  0  0  0  0  0  0  0  0  0
    4.4075   -7.5055    0.0000 C   0  0  0  0  0  0  0  0  0  0  0  0
   -0.5962   -6.2671    0.0000 C   0  0  0  0  0  0  0  0  0  0  0  0
    3.6944   -7.0927    0.0000 C   0  0  0  0  0  0  0  0  0  0  0  0
   -0.5962   -7.0927    0.0000 C   0  0  0  0  0  0  0  0  0  0  0  0
    4.4075   -8.3353    0.0000 C   0  0  0  0  0  0  0  0  0  0  0  0
    1.5428   -8.3311    0.0000 O   0  0  0  0  0  0  0  0  0  0  0  0
    5.0537   -6.9926    0.0000 O   0  0  0  0  0  0  0  0  0  0  0  0
    2.9772   -8.3353    0.0000 C   0  0  0  0  0  0  0  0  0  0  0  0
    5.0537   -8.8482    0.0000 O   0  0  0  0  0  0  0  0  0  0  0  0
    3.6902   -8.7482    0.0000 C   0  0  0  0  0  0  0  0  0  0  0  0
   -1.3218   -5.8543    0.0000 O   0  0  0  0  0  0  0  0  0  0  0  0
    6.2088   -7.9100    0.0000 C   0  0  0  0  0  0  0  0  0  0  0  0
    5.8543   -7.1720    0.0000 C   0  0  0  0  0  0  0  0  0  0  0  0
    5.8543   -8.6606    0.0000 C   0  0  0  0  0  0  0  0  0  0  0  0
   -1.3135   -7.5055    0.0000 C   0  0  0  0  0  0  0  0  0  0  0  0
   -1.3218   -5.0287    0.0000 C   0  0  0  0  0  0  0  0  0  0  0  0
   -2.0265   -7.0927    0.0000 C   0  0  0  0  0  0  0  0  0  0  0  0
  2  3  1  0  0  0  0
  3  1  1  0  0  0  0
  4  1  2  0  0  0  0
  5  7  1  0  0  0  0
  6  1  1  0  0  0  0
  7  4  1  0  0  0  0
  8  2  2  0  0  0  0
  9  5  2  0  0  0  0
 10 12  2  0  0  0  0
 11  9  1  0  0  0  0
 12  6  1  0  0  0  0
 13  8  1  0  0  0  0
 14 19  2  0  0  0  0
 15  3  2  0  0  0  0
 16 10  1  0  0  0  0
 17  6  2  0  0  0  0
 18 14  1  0  0  0  0
 19 17  1  0  0  0  0
 20 11  1  0  0  0  0
 21 22  1  0  0  0  0
 22 16  1  0  0  0  0
 23 18  1  0  0  0  0
 24 13  1  0  0  0  0
 25 20  1  0  0  0  0
 26 24  1  0  0  0  0
  5  2  1  0  0  0  0
 10 14  1  0  0  0  0
 11 13  2  0  0  0  0
 21 23  1  0  0  0  0
M  END
>  <IDNUMBER>
F3139-0687

>  <Chemical_Name>
3-(3,4-dihydro-2H-1,5-benzodioxepin-7-yl)-6-ethyl-7-methoxy-4H-chromen-4-one

>  <PriceCoeff>
1.00

>  <CAS>
610754-41-1

>  <MW>
352.38

>  <Description>
solid

>  <FSP3>
0.29

>  <clogP>
4.20

>  <TPSA>
53.99

>  <Acceptor>
5

>  <Donor>
0

>  <RotBonds>
3

>  <HAC>
26

>  <Collection>
General

>  <PPDS>
+

$$$$
F3139-0691
  Mrv2219 10102508112D          

 23 25  0  0  0  0            999 V2000
    1.8540   -1.7165    0.0000 C   0  0  0  0  0  0  0  0  0  0  0  0
    1.1416   -2.1373    0.0000 C   0  0  0  0  0  0  0  0  0  0  0  0
    1.8540   -0.8874    0.0000 C   0  0  0  0  0  0  0  0  0  0  0  0
    0.4250   -1.7290    0.0000 C   0  0  0  0  0  0  0  0  0  0  0  0
    0.4167   -0.8916    0.0000 C   0  0  0  0  0  0  0  0  0  0  0  0
    1.1291   -0.4749    0.0000 O   0  0  0  0  0  0  0  0  0  0  0  0
   -0.2958   -0.4874    0.0000 C   0  0  0  0  0  0  0  0  0  0  0  0
    2.5664   -2.1248    0.0000 C   0  0  0  0  0  0  0  0  0  0  0  0
   -0.2958   -2.1290    0.0000 C   0  0  0  0  0  0  0  0  0  0  0  0
    1.1416   -2.9622    0.0000 O   0  0  0  0  0  0  0  0  0  0  0  0
    2.5747   -2.9539    0.0000 C   0  0  0  0  0  0  0  0  0  0  0  0
    3.2913   -1.7040    0.0000 C   0  0  0  0  0  0  0  0  0  0  0  0
   -0.9999   -0.8999    0.0000 C   0  0  0  0  0  0  0  0  0  0  0  0
   -1.0082   -1.7165    0.0000 C   0  0  0  0  0  0  0  0  0  0  0  0
    2.5664   -0.4666    0.0000 C   0  0  0  0  0  0  0  0  0  0  0  0
    4.0037   -2.9414    0.0000 C   0  0  0  0  0  0  0  0  0  0  0  0
    3.2871   -3.3621    0.0000 C   0  0  0  0  0  0  0  0  0  0  0  0
    3.9912   -2.1165    0.0000 C   0  0  0  0  0  0  0  0  0  0  0  0
   -1.7123   -0.4874    0.0000 O   0  0  0  0  0  0  0  0  0  0  0  0
    4.7162   -3.3538    0.0000 O   0  0  0  0  0  0  0  0  0  0  0  0
   -2.4330   -0.8916    0.0000 C   0  0  0  0  0  0  0  0  0  0  0  0
    5.4286   -2.9372    0.0000 C   0  0  0  0  0  0  0  0  0  0  0  0
   -3.1496   -0.4791    0.0000 C   0  0  0  0  0  0  0  0  0  0  0  0
  2  1  1  0  0  0  0
  3  1  2  0  0  0  0
  4  2  1  0  0  0  0
  5  6  1  0  0  0  0
  6  3  1  0  0  0  0
  7  5  2  0  0  0  0
  8  1  1  0  0  0  0
  9  4  2  0  0  0  0
 10  2  2  0  0  0  0
 11  8  2  0  0  0  0
 12  8  1  0  0  0  0
 13  7  1  0  0  0  0
 14  9  1  0  0  0  0
 15  3  1  0  0  0  0
 16 18  1  0  0  0  0
 17 11  1  0  0  0  0
 18 12  2  0  0  0  0
 19 13  1  0  0  0  0
 20 16  1  0  0  0  0
 21 19  1  0  0  0  0
 22 20  1  0  0  0  0
 23 21  1  0  0  0  0
 16 17  2  0  0  0  0
  4  5  1  0  0  0  0
 14 13  2  0  0  0  0
M  END
>  <IDNUMBER>
F3139-0691

>  <Chemical_Name>
7-ethoxy-3-(4-methoxyphenyl)-2-methyl-4H-chromen-4-one

>  <PriceCoeff>
1.00

>  <CAS>
303094-61-3

>  <MW>
310.34

>  <Description>
solid

>  <FSP3>
0.21

>  <clogP>
3.75

>  <TPSA>
44.76

>  <Acceptor>
4

>  <Donor>
0

>  <RotBonds>
4

>  <HAC>
23

>  <Collection>
General

>  <PPDS>
+

$$$$
F3139-0697
  Mrv2219 10102508112D          

 26 28  0  0  0  0            999 V2000
    2.2542   -2.8000    0.0000 C   0  0  0  0  0  0  0  0  0  0  0  0
    1.5417   -3.2125    0.0000 C   0  0  0  0  0  0  0  0  0  0  0  0
    2.2542   -1.9750    0.0000 C   0  0  0  0  0  0  0  0  0  0  0  0
    0.8292   -2.8000    0.0000 C   0  0  0  0  0  0  0  0  0  0  0  0
    0.8292   -1.9750    0.0000 C   0  0  0  0  0  0  0  0  0  0  0  0
    1.5417   -1.5625    0.0000 O   0  0  0  0  0  0  0  0  0  0  0  0
    2.9750   -3.2125    0.0000 C   0  0  0  0  0  0  0  0  0  0  0  0
    0.1167   -1.5625    0.0000 C   0  0  0  0  0  0  0  0  0  0  0  0
    0.1167   -3.2125    0.0000 C   0  0  0  0  0  0  0  0  0  0  0  0
    1.5417   -4.0375    0.0000 O   0  0  0  0  0  0  0  0  0  0  0  0
    2.9750   -4.0417    0.0000 C   0  0  0  0  0  0  0  0  0  0  0  0
   -3.4625   -1.9542    0.0000 C   0  0  0  0  0  0  0  0  0  0  0  0
   -2.7458   -1.5500    0.0000 C   0  0  0  0  0  0  0  0  0  0  0  0
   -0.5958   -1.9750    0.0000 C   0  0  0  0  0  0  0  0  0  0  0  0
   -0.5958   -2.8000    0.0000 C   0  0  0  0  0  0  0  0  0  0  0  0
    2.9792   -1.5625    0.0000 C   0  0  0  0  0  0  0  0  0  0  0  0
   -2.0333   -1.9667    0.0000 C   0  0  0  0  0  0  0  0  0  0  0  0
    2.2542   -4.4417    0.0000 O   0  0  0  0  0  0  0  0  0  0  0  0
   -1.3208   -1.5625    0.0000 O   0  0  0  0  0  0  0  0  0  0  0  0
    3.6917   -2.8000    0.0000 C   0  0  0  0  0  0  0  0  0  0  0  0
   -3.4750   -2.7792    0.0000 C   0  0  0  0  0  0  0  0  0  0  0  0
   -4.1750   -1.5375    0.0000 C   0  0  0  0  0  0  0  0  0  0  0  0
    3.6875   -4.4542    0.0000 C   0  0  0  0  0  0  0  0  0  0  0  0
    2.2542   -5.2750    0.0000 C   0  0  0  0  0  0  0  0  0  0  0  0
    4.4042   -3.2125    0.0000 C   0  0  0  0  0  0  0  0  0  0  0  0
    4.4042   -4.0417    0.0000 C   0  0  0  0  0  0  0  0  0  0  0  0
  2  1  1  0  0  0  0
  3  1  2  0  0  0  0
  4  2  1  0  0  0  0
  5  6  1  0  0  0  0
  6  3  1  0  0  0  0
  7  1  1  0  0  0  0
  8  5  2  0  0  0  0
  9  4  2  0  0  0  0
 10  2  2  0  0  0  0
 11  7  2  0  0  0  0
 12 13  2  0  0  0  0
 13 17  1  0  0  0  0
 14  8  1  0  0  0  0
 15  9  1  0  0  0  0
 16  3  1  0  0  0  0
 17 19  1  0  0  0  0
 18 11  1  0  0  0  0
 19 14  1  0  0  0  0
 20  7  1  0  0  0  0
 21 12  1  0  0  0  0
 22 12  1  0  0  0  0
 23 11  1  0  0  0  0
 24 18  1  0  0  0  0
 25 20  2  0  0  0  0
 26 25  1  0  0  0  0
  5  4  1  0  0  0  0
 23 26  2  0  0  0  0
 14 15  2  0  0  0  0
M  END
>  <IDNUMBER>
F3139-0697

>  <Chemical_Name>
3-(2-methoxyphenyl)-2-methyl-7-[(3-methylbut-2-en-1-yl)oxy]-4H-chromen-4-one

>  <PriceCoeff>
1.00

>  <CAS>
610765-11-2

>  <MW>
350.41

>  <Description>
solid

>  <FSP3>
0.23

>  <clogP>
4.36

>  <TPSA>
44.76

>  <Acceptor>
4

>  <Donor>
0

>  <RotBonds>
5

>  <HAC>
26

>  <Collection>
General

>  <PPDS>
+

$$$$
F3139-0700
  Mrv2219 10102508112D          

 22 24  0  0  0  0            999 V2000
    1.1042   -2.6125    0.0000 C   0  0  0  0  0  0  0  0  0  0  0  0
    0.3917   -3.0250    0.0000 C   0  0  0  0  0  0  0  0  0  0  0  0
   -0.3208   -2.6125    0.0000 C   0  0  0  0  0  0  0  0  0  0  0  0
    1.1042   -1.7875    0.0000 C   0  0  0  0  0  0  0  0  0  0  0  0
   -0.3208   -1.7875    0.0000 C   0  0  0  0  0  0  0  0  0  0  0  0
    0.3917   -1.3750    0.0000 O   0  0  0  0  0  0  0  0  0  0  0  0
   -4.6208   -0.9500    0.0000 N   0  0  0  0  0  0  0  0  0  0  0  0
    1.8167   -3.0250    0.0000 C   0  0  0  0  0  0  0  0  0  0  0  0
   -1.0333   -3.0250    0.0000 C   0  0  0  0  0  0  0  0  0  0  0  0
   -1.0333   -1.3750    0.0000 C   0  0  0  0  0  0  0  0  0  0  0  0
   -3.9000   -1.3625    0.0000 C   0  0  0  0  0  0  0  0  0  0  0  0
    0.3917   -3.8500    0.0000 O   0  0  0  0  0  0  0  0  0  0  0  0
    2.5417   -2.6125    0.0000 C   0  0  0  0  0  0  0  0  0  0  0  0
    1.8167   -3.8542    0.0000 C   0  0  0  0  0  0  0  0  0  0  0  0
   -1.7500   -1.7875    0.0000 C   0  0  0  0  0  0  0  0  0  0  0  0
   -1.7500   -2.6125    0.0000 C   0  0  0  0  0  0  0  0  0  0  0  0
    3.2542   -3.8542    0.0000 C   0  0  0  0  0  0  0  0  0  0  0  0
    2.5292   -4.2667    0.0000 C   0  0  0  0  0  0  0  0  0  0  0  0
    3.2542   -3.0250    0.0000 C   0  0  0  0  0  0  0  0  0  0  0  0
    3.9667   -4.2667    0.0000 Cl  0  0  0  0  0  0  0  0  0  0  0  0
   -2.4708   -1.3750    0.0000 O   0  0  0  0  0  0  0  0  0  0  0  0
   -3.1875   -1.7792    0.0000 C   0  0  0  0  0  0  0  0  0  0  0  0
  2  1  1  0  0  0  0
  3  2  1  0  0  0  0
  4  1  2  0  0  0  0
  5  6  1  0  0  0  0
  6  4  1  0  0  0  0
  7 11  3  0  0  0  0
  8  1  1  0  0  0  0
  9  3  2  0  0  0  0
 10  5  2  0  0  0  0
 11 22  1  0  0  0  0
 12  2  2  0  0  0  0
 13  8  1  0  0  0  0
 14  8  2  0  0  0  0
 15 10  1  0  0  0  0
 16  9  1  0  0  0  0
 17 18  2  0  0  0  0
 18 14  1  0  0  0  0
 19 13  2  0  0  0  0
 20 17  1  0  0  0  0
 21 15  1  0  0  0  0
 22 21  1  0  0  0  0
 17 19  1  0  0  0  0
  3  5  1  0  0  0  0
 16 15  2  0  0  0  0
M  END
>  <IDNUMBER>
F3139-0700

>  <Chemical_Name>
2-{[3-(4-chlorophenyl)-4-oxo-4H-chromen-7-yl]oxy}acetonitrile

>  <PriceCoeff>
1.00

>  <CAS>
637747-85-4

>  <MW>
311.72

>  <Description>
solid

>  <FSP3>
0.06

>  <clogP>
2.78

>  <TPSA>
59.32

>  <Acceptor>
4

>  <Donor>
0

>  <RotBonds>
3

>  <HAC>
22

>  <Collection>
General

>  <PPDS>
+

$$$$
F3139-0714
  Mrv2219 10102508112D          

 23 25  0  0  0  0            999 V2000
    1.2667   -5.2125    0.0000 C   0  0  0  0  0  0  0  0  0  0  0  0
    0.5542   -4.8000    0.0000 C   0  0  0  0  0  0  0  0  0  0  0  0
    1.9792   -4.8000    0.0000 C   0  0  0  0  0  0  0  0  0  0  0  0
    0.5542   -3.9750    0.0000 C   0  0  0  0  0  0  0  0  0  0  0  0
   -0.1583   -5.2125    0.0000 C   0  0  0  0  0  0  0  0  0  0  0  0
    1.9792   -3.9750    0.0000 C   0  0  0  0  0  0  0  0  0  0  0  0
    1.2667   -3.5625    0.0000 O   0  0  0  0  0  0  0  0  0  0  0  0
   -0.1583   -3.5625    0.0000 C   0  0  0  0  0  0  0  0  0  0  0  0
   -0.8750   -4.8000    0.0000 C   0  0  0  0  0  0  0  0  0  0  0  0
   -0.8750   -3.9750    0.0000 C   0  0  0  0  0  0  0  0  0  0  0  0
    2.6917   -5.2125    0.0000 C   0  0  0  0  0  0  0  0  0  0  0  0
    1.2667   -6.0375    0.0000 O   0  0  0  0  0  0  0  0  0  0  0  0
   -1.5958   -3.5625    0.0000 O   0  0  0  0  0  0  0  0  0  0  0  0
    3.4167   -4.8000    0.0000 C   0  0  0  0  0  0  0  0  0  0  0  0
    2.6917   -6.0417    0.0000 C   0  0  0  0  0  0  0  0  0  0  0  0
   -0.1583   -6.0375    0.0000 O   0  0  0  0  0  0  0  0  0  0  0  0
    4.1292   -6.0417    0.0000 C   0  0  0  0  0  0  0  0  0  0  0  0
    4.1292   -5.2125    0.0000 C   0  0  0  0  0  0  0  0  0  0  0  0
    3.4042   -6.4542    0.0000 C   0  0  0  0  0  0  0  0  0  0  0  0
    4.8417   -6.4542    0.0000 O   0  0  0  0  0  0  0  0  0  0  0  0
   -2.3125   -3.9667    0.0000 C   0  0  0  0  0  0  0  0  0  0  0  0
   -3.0250   -3.5500    0.0000 C   0  0  0  0  0  0  0  0  0  0  0  0
   -2.3208   -4.7917    0.0000 C   0  0  0  0  0  0  0  0  0  0  0  0
  2  1  1  0  0  0  0
  3  1  1  0  0  0  0
  4  2  1  0  0  0  0
  5  2  2  0  0  0  0
  6  3  2  0  0  0  0
  7  6  1  0  0  0  0
  8  4  2  0  0  0  0
  9  5  1  0  0  0  0
 10  9  2  0  0  0  0
 11  3  1  0  0  0  0
 12  1  2  0  0  0  0
 13 10  1  0  0  0  0
 14 11  1  0  0  0  0
 15 11  2  0  0  0  0
 16  5  1  0  0  0  0
 17 19  2  0  0  0  0
 18 14  2  0  0  0  0
 19 15  1  0  0  0  0
 20 17  1  0  0  0  0
 21 13  1  0  0  0  0
 22 21  1  0  0  0  0
 23 21  1  0  0  0  0
  7  4  1  0  0  0  0
 17 18  1  0  0  0  0
 10  8  1  0  0  0  0
M  END
>  <IDNUMBER>
F3139-0714

>  <Chemical_Name>
5-hydroxy-3-(4-hydroxyphenyl)-7-(propan-2-yloxy)-4H-chromen-4-one

>  <PriceCoeff>
1.00

>  <CAS>
637747-93-4

>  <MW>
312.32

>  <Description>
solid

>  <FSP3>
0.17

>  <clogP>
3.83

>  <TPSA>
75.99

>  <Acceptor>
5

>  <Donor>
2

>  <RotBonds>
3

>  <HAC>
23

>  <Collection>
General

>  <PPDS>
+

$$$$
F3139-0724
  Mrv2219 10102508112D          

 32 35  0  0  0  0            999 V2000
    1.9207   -2.9854    0.0000 C   0  0  0  0  0  0  0  0  0  0  0  0
    1.2067   -2.5720    0.0000 C   0  0  0  0  0  0  0  0  0  0  0  0
    2.6472   -2.5720    0.0000 C   0  0  0  0  0  0  0  0  0  0  0  0
    6.2296   -3.8121    0.0000 C   0  0  1  0  0  0  0  0  0  0  0  0
    6.2296   -2.9854    0.0000 C   0  0  1  0  0  0  0  0  0  0  0  0
    6.9436   -2.5845    0.0000 C   0  0  2  0  0  0  0  0  0  0  0  0
    1.2067   -1.7328    0.0000 C   0  0  0  0  0  0  0  0  0  0  0  0
    6.9436   -4.2380    0.0000 O   0  0  0  0  0  0  0  0  0  0  0  0
    2.6472   -1.7328    0.0000 C   0  0  0  0  0  0  0  0  0  0  0  0
    7.6575   -2.9854    0.0000 C   0  0  1  0  0  0  0  0  0  0  0  0
    0.4927   -2.9728    0.0000 C   0  0  0  0  0  0  0  0  0  0  0  0
    7.6575   -3.8246    0.0000 C   0  0  1  0  0  0  0  0  0  0  0  0
    1.9207   -1.3069    0.0000 O   0  0  0  0  0  0  0  0  0  0  0  0
    0.4927   -1.3194    0.0000 C   0  0  0  0  0  0  0  0  0  0  0  0
   -0.2213   -2.5595    0.0000 C   0  0  0  0  0  0  0  0  0  0  0  0
    5.5156   -4.2254    0.0000 O   0  0  0  0  0  0  0  0  0  0  0  0
    3.3612   -2.9854    0.0000 C   0  0  0  0  0  0  0  0  0  0  0  0
    1.9207   -3.8121    0.0000 O   0  0  0  0  0  0  0  0  0  0  0  0
   -0.2213   -1.7328    0.0000 C   0  0  0  0  0  0  0  0  0  0  0  0
    5.5156   -2.5720    0.0000 O   0  0  0  0  0  0  0  0  0  0  0  0
    4.0751   -2.5720    0.0000 C   0  0  0  0  0  0  0  0  0  0  0  0
    3.3612   -3.8121    0.0000 C   0  0  0  0  0  0  0  0  0  0  0  0
    6.9561   -1.7578    0.0000 O   0  0  0  0  0  0  0  0  0  0  0  0
    4.7891   -3.8121    0.0000 C   0  0  0  0  0  0  0  0  0  0  0  0
    0.4927   -3.7996    0.0000 O   0  0  0  0  0  0  0  0  0  0  0  0
    8.3715   -2.5845    0.0000 O   0  0  0  0  0  0  0  0  0  0  0  0
    4.7891   -2.9854    0.0000 C   0  0  0  0  0  0  0  0  0  0  0  0
    4.0751   -4.2254    0.0000 C   0  0  0  0  0  0  0  0  0  0  0  0
    8.3715   -4.2380    0.0000 C   0  0  0  0  0  0  0  0  0  0  0  0
   -0.9352   -1.3194    0.0000 O   0  0  0  0  0  0  0  0  0  0  0  0
    8.9978   -3.6994    0.0000 O   0  0  0  0  0  0  0  0  0  0  0  0
   -1.6492   -1.7328    0.0000 C   0  0  0  0  0  0  0  0  0  0  0  0
  2  1  1  0  0  0  0
  3  1  1  0  0  0  0
  4 16  1  1  0  0  0
  5  4  1  0  0  0  0
  6  5  1  0  0  0  0
  7  2  1  0  0  0  0
  8  4  1  0  0  0  0
  9  3  2  0  0  0  0
 10 12  1  0  0  0  0
 11  2  2  0  0  0  0
 12  8  1  0  0  0  0
 13  9  1  0  0  0  0
 14  7  2  0  0  0  0
 15 11  1  0  0  0  0
 16 24  1  0  0  0  0
 17  3  1  0  0  0  0
 18  1  2  0  0  0  0
 19 15  2  0  0  0  0
  5 20  1  6  0  0  0
 21 17  1  0  0  0  0
 22 17  2  0  0  0  0
  6 23  1  1  0  0  0
 24 28  2  0  0  0  0
 25 11  1  0  0  0  0
 10 26  1  6  0  0  0
 27 21  2  0  0  0  0
 28 22  1  0  0  0  0
 12 29  1  1  0  0  0
 30 19  1  0  0  0  0
 31 29  1  0  0  0  0
 32 30  1  0  0  0  0
  7 13  1  0  0  0  0
 27 24  1  0  0  0  0
 14 19  1  0  0  0  0
  6 10  1  0  0  0  0
M  END
>  <IDNUMBER>
F3139-0724

>  <Chemical_Name>
5-hydroxy-7-methoxy-3-(4-{[(2S,3R,4S,5S,6R)-3,4,5-trihydroxy-6-(hydroxymethyl)oxan-2-yl]oxy}phenyl)-4H-chromen-4-one

>  <PriceCoeff>
1.00

>  <CAS>
154-36-9

>  <MW>
446.40

>  <Description>
solid

>  <FSP3>
0.32

>  <clogP>
1.49

>  <TPSA>
155.14

>  <Acceptor>
10

>  <Donor>
5

>  <RotBonds>
5

>  <HAC>
32

>  <Collection>
General

>  <PPDS>
+

$$$$
F3139-0749
  Mrv2219 10102508112D          

 26 29  0  0  0  0            999 V2000
    2.5750   -1.7875    0.0000 C   0  0  0  0  0  0  0  0  0  0  0  0
    1.8542   -2.2042    0.0000 C   0  0  0  0  0  0  0  0  0  0  0  0
    1.1375   -1.7917    0.0000 C   0  0  0  0  0  0  0  0  0  0  0  0
    2.5667   -0.9542    0.0000 C   0  0  0  0  0  0  0  0  0  0  0  0
    1.1292   -0.9625    0.0000 C   0  0  0  0  0  0  0  0  0  0  0  0
    1.8500   -0.5417    0.0000 O   0  0  0  0  0  0  0  0  0  0  0  0
    0.4167   -2.2000    0.0000 C   0  0  0  0  0  0  0  0  0  0  0  0
    0.4250   -0.5542    0.0000 C   0  0  0  0  0  0  0  0  0  0  0  0
    3.2875   -2.1917    0.0000 C   0  0  0  0  0  0  0  0  0  0  0  0
    1.8625   -3.0292    0.0000 O   0  0  0  0  0  0  0  0  0  0  0  0
   -0.2875   -0.9667    0.0000 C   0  0  0  0  0  0  0  0  0  0  0  0
   -1.0000   -0.5542    0.0000 O   0  0  0  0  0  0  0  0  0  0  0  0
   -0.2875   -1.7875    0.0000 C   0  0  0  0  0  0  0  0  0  0  0  0
   -3.8583    0.2958    0.0000 C   0  0  0  0  0  0  0  0  0  0  0  0
   -2.4333   -0.5417    0.0000 C   0  0  0  0  0  0  0  0  0  0  0  0
   -1.7208   -0.9625    0.0000 C   0  0  0  0  0  0  0  0  0  0  0  0
   -4.5708    0.7125    0.0000 F   0  0  0  0  0  0  0  0  0  0  0  0
   -3.8583   -0.5292    0.0000 C   0  0  0  0  0  0  0  0  0  0  0  0
   -3.1375    0.7083    0.0000 C   0  0  0  0  0  0  0  0  0  0  0  0
   -3.1458   -0.9417    0.0000 C   0  0  0  0  0  0  0  0  0  0  0  0
   -2.4250    0.2875    0.0000 C   0  0  0  0  0  0  0  0  0  0  0  0
    3.2875   -3.0167    0.0000 C   0  0  0  0  0  0  0  0  0  0  0  0
    3.9917   -1.7792    0.0000 C   0  0  0  0  0  0  0  0  0  0  0  0
    4.7125   -2.1792    0.0000 C   0  0  0  0  0  0  0  0  0  0  0  0
    4.0000   -3.4292    0.0000 C   0  0  0  0  0  0  0  0  0  0  0  0
    4.7167   -3.0125    0.0000 C   0  0  0  0  0  0  0  0  0  0  0  0
  2  1  1  0  0  0  0
  3  2  1  0  0  0  0
  4  1  2  0  0  0  0
  5  6  1  0  0  0  0
  6  4  1  0  0  0  0
  7  3  2  0  0  0  0
  8  5  2  0  0  0  0
  9  1  1  0  0  0  0
 10  2  2  0  0  0  0
 11  8  1  0  0  0  0
 12 11  1  0  0  0  0
 13  7  1  0  0  0  0
 14 19  2  0  0  0  0
 15 16  1  0  0  0  0
 16 12  1  0  0  0  0
 17 14  1  0  0  0  0
 18 20  2  0  0  0  0
 19 21  1  0  0  0  0
 20 15  1  0  0  0  0
 21 15  2  0  0  0  0
 22  9  2  0  0  0  0
 23  9  1  0  0  0  0
 24 23  2  0  0  0  0
 25 22  1  0  0  0  0
 26 24  1  0  0  0  0
  5  3  1  0  0  0  0
 25 26  2  0  0  0  0
 11 13  2  0  0  0  0
 14 18  1  0  0  0  0
M  END
>  <IDNUMBER>
F3139-0749

>  <Chemical_Name>
7-[(4-fluorophenyl)methoxy]-3-phenyl-4H-chromen-4-one

>  <PriceCoeff>
1.00

>  <CAS>
449739-13-3

>  <MW>
346.35

>  <Description>
solid

>  <FSP3>
0.05

>  <clogP>
5.00

>  <TPSA>
35.53

>  <Acceptor>
3

>  <Donor>
0

>  <RotBonds>
4

>  <HAC>
26

>  <Collection>
General

>  <PPDS>
+

$$$$
F3139-0763
  Mrv2219 10102508112D          

 34 37  0  0  0  0            999 V2000
    3.0814   -0.1754    0.0000 C   0  0  0  0  0  0  0  0  0  0  0  0
    2.3591   -0.5887    0.0000 C   0  0  0  0  0  0  0  0  0  0  0  0
    1.6451   -0.1754    0.0000 C   0  0  0  0  0  0  0  0  0  0  0  0
    3.0814    0.6513    0.0000 C   0  0  0  0  0  0  0  0  0  0  0  0
    1.6451    0.6513    0.0000 C   0  0  0  0  0  0  0  0  0  0  0  0
   -0.5094    1.8997    0.0000 C   0  0  0  0  0  0  0  0  0  0  0  0
    2.3591    1.0647    0.0000 O   0  0  0  0  0  0  0  0  0  0  0  0
    3.7953   -0.5887    0.0000 C   0  0  0  0  0  0  0  0  0  0  0  0
   -1.2233    2.3048    0.0000 C   0  0  0  0  0  0  0  0  0  0  0  0
   -2.6513    3.1398    0.0000 C   0  0  0  0  0  0  0  0  0  0  0  0
   -1.9373    3.5531    0.0000 C   0  0  0  0  0  0  0  0  0  0  0  0
   -2.6513    2.3048    0.0000 C   0  0  0  0  0  0  0  0  0  0  0  0
   -1.2233    3.1398    0.0000 C   0  0  0  0  0  0  0  0  0  0  0  0
   -1.9373    1.8997    0.0000 C   0  0  0  0  0  0  0  0  0  0  0  0
    0.9311    1.0647    0.0000 C   0  0  0  0  0  0  0  0  0  0  0  0
   -0.5094    1.0647    0.0000 O   0  0  0  0  0  0  0  0  0  0  0  0
    0.9311   -0.5887    0.0000 C   0  0  0  0  0  0  0  0  0  0  0  0
    0.2171    0.6513    0.0000 C   0  0  0  0  0  0  0  0  0  0  0  0
    2.3591   -1.4154    0.0000 O   0  0  0  0  0  0  0  0  0  0  0  0
    0.2046    2.3131    0.0000 O   0  0  0  0  0  0  0  0  0  0  0  0
    3.7953   -1.4196    0.0000 C   0  0  0  0  0  0  0  0  0  0  0  0
    0.2171   -0.1754    0.0000 C   0  0  0  0  0  0  0  0  0  0  0  0
   -3.3695    3.5531    0.0000 O   0  0  0  0  0  0  0  0  0  0  0  0
   -1.9373    4.3758    0.0000 O   0  0  0  0  0  0  0  0  0  0  0  0
   -3.3653    1.8872    0.0000 O   0  0  0  0  0  0  0  0  0  0  0  0
    3.0856   -1.8288    0.0000 O   0  0  0  0  0  0  0  0  0  0  0  0
    4.5135   -0.1754    0.0000 C   0  0  0  0  0  0  0  0  0  0  0  0
    4.5093   -1.8330    0.0000 C   0  0  0  0  0  0  0  0  0  0  0  0
   -4.0918    3.1315    0.0000 C   0  0  0  0  0  0  0  0  0  0  0  0
   -3.3653    1.0605    0.0000 C   0  0  0  0  0  0  0  0  0  0  0  0
   -2.6513    4.7891    0.0000 C   0  0  0  0  0  0  0  0  0  0  0  0
    3.0814   -2.6555    0.0000 C   0  0  0  0  0  0  0  0  0  0  0  0
    5.2275   -0.5887    0.0000 C   0  0  0  0  0  0  0  0  0  0  0  0
    5.2275   -1.4196    0.0000 C   0  0  0  0  0  0  0  0  0  0  0  0
  2  1  1  0  0  0  0
  3  2  1  0  0  0  0
  4  1  2  0  0  0  0
  5  7  1  0  0  0  0
  6 16  1  0  0  0  0
  7  4  1  0  0  0  0
  8  1  1  0  0  0  0
  9  6  1  0  0  0  0
 10 12  1  0  0  0  0
 11 13  1  0  0  0  0
 12 14  2  0  0  0  0
 13  9  2  0  0  0  0
 14  9  1  0  0  0  0
 15  5  2  0  0  0  0
 16 18  1  0  0  0  0
 17  3  2  0  0  0  0
 18 15  1  0  0  0  0
 19  2  2  0  0  0  0
 20  6  2  0  0  0  0
 21  8  2  0  0  0  0
 22 17  1  0  0  0  0
 23 10  1  0  0  0  0
 24 11  1  0  0  0  0
 25 12  1  0  0  0  0
 26 21  1  0  0  0  0
 27  8  1  0  0  0  0
 28 21  1  0  0  0  0
 29 23  1  0  0  0  0
 30 25  1  0  0  0  0
 31 24  1  0  0  0  0
 32 26  1  0  0  0  0
 33 27  2  0  0  0  0
 34 33  1  0  0  0  0
  3  5  1  0  0  0  0
 34 28  2  0  0  0  0
 22 18  2  0  0  0  0
 10 11  2  0  0  0  0
M  END
>  <IDNUMBER>
F3139-0763

>  <Chemical_Name>
3-(2-methoxyphenyl)-4-oxo-4H-chromen-7-yl 3,4,5-trimethoxybenzoate

>  <PriceCoeff>
1.00

>  <CAS>
315715-17-4

>  <MW>
462.45

>  <Description>
solid

>  <FSP3>
0.15

>  <clogP>
3.52

>  <TPSA>
89.52

>  <Acceptor>
8

>  <Donor>
0

>  <RotBonds>
8

>  <HAC>
34

>  <Collection>
General

>  <PPDS>
+

$$$$
F3139-0815
  Mrv2219 10102508112D          

 21 23  0  0  0  0            999 V2000
    6.9436   -3.1482    0.0000 C   0  0  0  0  0  0  0  0  0  0  0  0
    6.2296   -3.5616    0.0000 C   0  0  0  0  0  0  0  0  0  0  0  0
    5.5114   -3.1482    0.0000 C   0  0  0  0  0  0  0  0  0  0  0  0
    6.9436   -2.3215    0.0000 C   0  0  0  0  0  0  0  0  0  0  0  0
    5.5156   -2.3215    0.0000 C   0  0  0  0  0  0  0  0  0  0  0  0
    6.2296   -1.9039    0.0000 O   0  0  0  0  0  0  0  0  0  0  0  0
    1.2192   -1.4823    0.0000 N   0  0  0  0  0  0  0  0  0  0  0  0
    4.7974   -3.5616    0.0000 C   0  0  0  0  0  0  0  0  0  0  0  0
    4.7974   -1.9081    0.0000 C   0  0  0  0  0  0  0  0  0  0  0  0
    1.9332   -1.8956    0.0000 C   0  0  0  0  0  0  0  0  0  0  0  0
    7.6575   -3.5616    0.0000 C   0  0  0  0  0  0  0  0  0  0  0  0
    6.2254   -4.3883    0.0000 O   0  0  0  0  0  0  0  0  0  0  0  0
    4.0834   -2.3215    0.0000 C   0  0  0  0  0  0  0  0  0  0  0  0
    4.0834   -3.1482    0.0000 C   0  0  0  0  0  0  0  0  0  0  0  0
    3.3695   -1.9081    0.0000 O   0  0  0  0  0  0  0  0  0  0  0  0
    2.6472   -2.3215    0.0000 C   0  0  0  0  0  0  0  0  0  0  0  0
    8.3715   -3.1482    0.0000 C   0  0  0  0  0  0  0  0  0  0  0  0
    7.6575   -4.3883    0.0000 C   0  0  0  0  0  0  0  0  0  0  0  0
    8.3715   -4.8016    0.0000 C   0  0  0  0  0  0  0  0  0  0  0  0
    9.0855   -3.5616    0.0000 C   0  0  0  0  0  0  0  0  0  0  0  0
    9.0855   -4.3883    0.0000 C   0  0  0  0  0  0  0  0  0  0  0  0
  2  1  1  0  0  0  0
  3  2  1  0  0  0  0
  4  1  2  0  0  0  0
  5  6  1  0  0  0  0
  6  4  1  0  0  0  0
  7 10  3  0  0  0  0
  8  3  2  0  0  0  0
  9  5  2  0  0  0  0
 10 16  1  0  0  0  0
 11  1  1  0  0  0  0
 12  2  2  0  0  0  0
 13  9  1  0  0  0  0
 14  8  1  0  0  0  0
 15 13  1  0  0  0  0
 16 15  1  0  0  0  0
 17 11  1  0  0  0  0
 18 11  2  0  0  0  0
 19 18  1  0  0  0  0
 20 17  2  0  0  0  0
 21 19  2  0  0  0  0
  3  5  1  0  0  0  0
 20 21  1  0  0  0  0
 14 13  2  0  0  0  0
M  END
>  <IDNUMBER>
F3139-0815

>  <Chemical_Name>
2-[(4-oxo-3-phenyl-4H-chromen-7-yl)oxy]acetonitrile

>  <PriceCoeff>
1.00

>  <CAS>
449737-25-1

>  <MW>
277.27

>  <Description>
solid

>  <FSP3>
0.06

>  <clogP>
2.07

>  <TPSA>
59.32

>  <Acceptor>
4

>  <Donor>
0

>  <RotBonds>
3

>  <HAC>
21

>  <Collection>
General

>  <PPDS>
+

$$$$
F3139-0818
  Mrv2219 10102508112D          

 26 29  0  0  0  0            999 V2000
    2.5750   -1.7875    0.0000 C   0  0  0  0  0  0  0  0  0  0  0  0
    1.8542   -2.2042    0.0000 C   0  0  0  0  0  0  0  0  0  0  0  0
    1.1375   -1.7917    0.0000 C   0  0  0  0  0  0  0  0  0  0  0  0
    2.5667   -0.9542    0.0000 C   0  0  0  0  0  0  0  0  0  0  0  0
    1.1292   -0.9625    0.0000 C   0  0  0  0  0  0  0  0  0  0  0  0
    1.8500   -0.5417    0.0000 O   0  0  0  0  0  0  0  0  0  0  0  0
    0.4167   -2.2000    0.0000 C   0  0  0  0  0  0  0  0  0  0  0  0
    0.4250   -0.5542    0.0000 C   0  0  0  0  0  0  0  0  0  0  0  0
    3.2875   -2.1917    0.0000 C   0  0  0  0  0  0  0  0  0  0  0  0
    1.8625   -3.0292    0.0000 O   0  0  0  0  0  0  0  0  0  0  0  0
   -0.2875   -0.9667    0.0000 C   0  0  0  0  0  0  0  0  0  0  0  0
   -1.0000   -0.5542    0.0000 O   0  0  0  0  0  0  0  0  0  0  0  0
   -0.2875   -1.7875    0.0000 C   0  0  0  0  0  0  0  0  0  0  0  0
   -2.4333   -0.5417    0.0000 C   0  0  0  0  0  0  0  0  0  0  0  0
   -1.7208   -0.9625    0.0000 C   0  0  0  0  0  0  0  0  0  0  0  0
   -3.8583    0.2958    0.0000 C   0  0  0  0  0  0  0  0  0  0  0  0
   -3.1583   -0.9417    0.0000 C   0  0  0  0  0  0  0  0  0  0  0  0
   -2.4333    0.2958    0.0000 C   0  0  0  0  0  0  0  0  0  0  0  0
   -3.8708   -0.5292    0.0000 C   0  0  0  0  0  0  0  0  0  0  0  0
   -3.1458    0.7083    0.0000 C   0  0  0  0  0  0  0  0  0  0  0  0
    3.9917   -1.7792    0.0000 C   0  0  0  0  0  0  0  0  0  0  0  0
    3.2875   -3.0167    0.0000 C   0  0  0  0  0  0  0  0  0  0  0  0
   -4.5708    0.7083    0.0000 C   0  0  0  0  0  0  0  0  0  0  0  0
    4.7125   -2.1792    0.0000 C   0  0  0  0  0  0  0  0  0  0  0  0
    4.0000   -3.4292    0.0000 C   0  0  0  0  0  0  0  0  0  0  0  0
    4.7167   -3.0125    0.0000 C   0  0  0  0  0  0  0  0  0  0  0  0
  2  1  1  0  0  0  0
  3  2  1  0  0  0  0
  4  1  2  0  0  0  0
  5  6  1  0  0  0  0
  6  4  1  0  0  0  0
  7  3  2  0  0  0  0
  8  5  2  0  0  0  0
  9  1  1  0  0  0  0
 10  2  2  0  0  0  0
 11  8  1  0  0  0  0
 12 11  1  0  0  0  0
 13  7  1  0  0  0  0
 14 15  1  0  0  0  0
 15 12  1  0  0  0  0
 16 20  1  0  0  0  0
 17 14  2  0  0  0  0
 18 14  1  0  0  0  0
 19 17  1  0  0  0  0
 20 18  2  0  0  0  0
 21  9  1  0  0  0  0
 22  9  2  0  0  0  0
 23 16  1  0  0  0  0
 24 21  2  0  0  0  0
 25 22  1  0  0  0  0
 26 25  2  0  0  0  0
  5  3  1  0  0  0  0
 24 26  1  0  0  0  0
 11 13  2  0  0  0  0
 19 16  2  0  0  0  0
M  END
>  <IDNUMBER>
F3139-0818

>  <Chemical_Name>
7-[(4-methylphenyl)methoxy]-3-phenyl-4H-chromen-4-one

>  <PriceCoeff>
1.00

>  <CAS>
449738-91-4

>  <MW>
342.39

>  <Description>
solid

>  <FSP3>
0.09

>  <clogP>
5.35

>  <TPSA>
35.53

>  <Acceptor>
3

>  <Donor>
0

>  <RotBonds>
4

>  <HAC>
26

>  <Collection>
General

>  <PPDS>
+

$$$$
F3139-0830
  Mrv2219 10102508112D          

 24 26  0  0  0  0            999 V2000
    4.6667   -1.1417    0.0000 C   0  0  0  0  0  0  0  0  0  0  0  0
    3.9500   -1.5542    0.0000 C   0  0  0  0  0  0  0  0  0  0  0  0
    3.2375   -1.1417    0.0000 C   0  0  0  0  0  0  0  0  0  0  0  0
    4.6667   -0.3167    0.0000 C   0  0  0  0  0  0  0  0  0  0  0  0
    3.2375   -0.3167    0.0000 C   0  0  0  0  0  0  0  0  0  0  0  0
    3.9500    0.0958    0.0000 O   0  0  0  0  0  0  0  0  0  0  0  0
    5.3792   -1.5625    0.0000 C   0  0  0  0  0  0  0  0  0  0  0  0
    2.5250   -1.5542    0.0000 C   0  0  0  0  0  0  0  0  0  0  0  0
    2.5250    0.0958    0.0000 C   0  0  0  0  0  0  0  0  0  0  0  0
   -0.3458    0.0958    0.0000 C   0  0  0  0  0  0  0  0  0  0  0  0
    3.9500   -2.3792    0.0000 O   0  0  0  0  0  0  0  0  0  0  0  0
   -0.3458    0.9208    0.0000 O   0  0  0  0  0  0  0  0  0  0  0  0
    1.8042   -0.3250    0.0000 C   0  0  0  0  0  0  0  0  0  0  0  0
    6.1000   -1.1417    0.0000 C   0  0  0  0  0  0  0  0  0  0  0  0
    5.3792   -2.3875    0.0000 C   0  0  0  0  0  0  0  0  0  0  0  0
    1.0875    0.0958    0.0000 O   0  0  0  0  0  0  0  0  0  0  0  0
    0.3667   -0.3167    0.0000 C   0  0  0  0  0  0  0  0  0  0  0  0
    1.8042   -1.1417    0.0000 C   0  0  0  0  0  0  0  0  0  0  0  0
    6.8042   -2.3917    0.0000 C   0  0  0  0  0  0  0  0  0  0  0  0
    6.8125   -1.5542    0.0000 C   0  0  0  0  0  0  0  0  0  0  0  0
    6.0917   -2.8000    0.0000 C   0  0  0  0  0  0  0  0  0  0  0  0
   -1.0583   -0.3167    0.0000 O   0  0  0  0  0  0  0  0  0  0  0  0
    7.5167   -2.8042    0.0000 Cl  0  0  0  0  0  0  0  0  0  0  0  0
   -1.7708    0.0958    0.0000 C   0  0  0  0  0  0  0  0  0  0  0  0
  2  1  1  0  0  0  0
  3  2  1  0  0  0  0
  4  1  2  0  0  0  0
  5  6  1  0  0  0  0
  6  4  1  0  0  0  0
  7  1  1  0  0  0  0
  8  3  2  0  0  0  0
  9  5  2  0  0  0  0
 10 17  1  0  0  0  0
 11  2  2  0  0  0  0
 12 10  2  0  0  0  0
 13  9  1  0  0  0  0
 14  7  1  0  0  0  0
 15  7  2  0  0  0  0
 16 13  1  0  0  0  0
 17 16  1  0  0  0  0
 18  8  1  0  0  0  0
 19 21  2  0  0  0  0
 20 14  2  0  0  0  0
 21 15  1  0  0  0  0
 22 10  1  0  0  0  0
 23 19  1  0  0  0  0
 24 22  1  0  0  0  0
 19 20  1  0  0  0  0
  3  5  1  0  0  0  0
 18 13  2  0  0  0  0
M  END
>  <IDNUMBER>
F3139-0830

>  <Chemical_Name>
methyl 2-{[3-(4-chlorophenyl)-4-oxo-4H-chromen-7-yl]oxy}acetate

>  <PriceCoeff>
1.00

>  <CAS>
302575-34-4

>  <MW>
344.75

>  <Description>
solid

>  <FSP3>
0.11

>  <clogP>
3.42

>  <TPSA>
61.83

>  <Acceptor>
5

>  <Donor>
0

>  <RotBonds>
5

>  <HAC>
24

>  <Collection>
General

>  <PPDS>
+

$$$$
F3139-0832
  Mrv2219 10102508112D          

 25 27  0  0  0  0            999 V2000
    4.6667   -1.1417    0.0000 C   0  0  0  0  0  0  0  0  0  0  0  0
    3.9500   -1.5542    0.0000 C   0  0  0  0  0  0  0  0  0  0  0  0
    3.2375   -1.1417    0.0000 C   0  0  0  0  0  0  0  0  0  0  0  0
    4.6667   -0.3167    0.0000 C   0  0  0  0  0  0  0  0  0  0  0  0
    3.2375   -0.3167    0.0000 C   0  0  0  0  0  0  0  0  0  0  0  0
    3.9500    0.0958    0.0000 O   0  0  0  0  0  0  0  0  0  0  0  0
    2.5250   -1.5542    0.0000 C   0  0  0  0  0  0  0  0  0  0  0  0
    2.5250    0.0958    0.0000 C   0  0  0  0  0  0  0  0  0  0  0  0
   -0.3458    0.0958    0.0000 C   0  0  0  0  0  0  0  0  0  0  0  0
    5.3792   -1.5625    0.0000 C   0  0  0  0  0  0  0  0  0  0  0  0
    3.9500   -2.3792    0.0000 O   0  0  0  0  0  0  0  0  0  0  0  0
   -0.3458    0.9208    0.0000 O   0  0  0  0  0  0  0  0  0  0  0  0
   -1.0583   -0.3167    0.0000 O   0  0  0  0  0  0  0  0  0  0  0  0
    1.8042   -0.3250    0.0000 C   0  0  0  0  0  0  0  0  0  0  0  0
    1.0875    0.0958    0.0000 O   0  0  0  0  0  0  0  0  0  0  0  0
    0.3667   -0.3167    0.0000 C   0  0  0  0  0  0  0  0  0  0  0  0
    1.8042   -1.1417    0.0000 C   0  0  0  0  0  0  0  0  0  0  0  0
   -1.7708    0.0958    0.0000 C   0  0  0  0  0  0  0  0  0  0  0  0
    5.3792   -2.3875    0.0000 C   0  0  0  0  0  0  0  0  0  0  0  0
    6.1000   -1.1417    0.0000 C   0  0  0  0  0  0  0  0  0  0  0  0
   -2.4875   -0.3167    0.0000 C   0  0  0  0  0  0  0  0  0  0  0  0
   -1.7708    0.9208    0.0000 C   0  0  0  0  0  0  0  0  0  0  0  0
    6.0917   -2.8000    0.0000 C   0  0  0  0  0  0  0  0  0  0  0  0
    6.8125   -1.5542    0.0000 C   0  0  0  0  0  0  0  0  0  0  0  0
    6.8042   -2.3917    0.0000 C   0  0  0  0  0  0  0  0  0  0  0  0
  2  1  1  0  0  0  0
  3  2  1  0  0  0  0
  4  1  2  0  0  0  0
  5  6  1  0  0  0  0
  6  4  1  0  0  0  0
  7  3  2  0  0  0  0
  8  5  2  0  0  0  0
  9 16  1  0  0  0  0
 10  1  1  0  0  0  0
 11  2  2  0  0  0  0
 12  9  2  0  0  0  0
 13  9  1  0  0  0  0
 14  8  1  0  0  0  0
 15 14  1  0  0  0  0
 16 15  1  0  0  0  0
 17  7  1  0  0  0  0
 18 13  1  0  0  0  0
 19 10  2  0  0  0  0
 20 10  1  0  0  0  0
 21 18  1  0  0  0  0
 22 18  1  0  0  0  0
 23 19  1  0  0  0  0
 24 20  2  0  0  0  0
 25 24  1  0  0  0  0
  3  5  1  0  0  0  0
 25 23  2  0  0  0  0
 17 14  2  0  0  0  0
M  END
>  <IDNUMBER>
F3139-0832

>  <Chemical_Name>
propan-2-yl 2-[(4-oxo-3-phenyl-4H-chromen-7-yl)oxy]acetate

>  <PriceCoeff>
1.00

>  <CAS>
449738-71-0

>  <MW>
338.35

>  <Description>
solid

>  <FSP3>
0.20

>  <clogP>
3.54

>  <TPSA>
61.83

>  <Acceptor>
5

>  <Donor>
0

>  <RotBonds>
6

>  <HAC>
25

>  <Collection>
General

>  <PPDS>
+

$$$$
F3139-0834
  Mrv2219 10102508112D          

 26 28  0  0  0  0            999 V2000
    4.6667   -1.1417    0.0000 C   0  0  0  0  0  0  0  0  0  0  0  0
    3.9500   -1.5542    0.0000 C   0  0  0  0  0  0  0  0  0  0  0  0
    3.2375   -1.1417    0.0000 C   0  0  0  0  0  0  0  0  0  0  0  0
    4.6667   -0.3167    0.0000 C   0  0  0  0  0  0  0  0  0  0  0  0
    3.2375   -0.3167    0.0000 C   0  0  0  0  0  0  0  0  0  0  0  0
    3.9500    0.0958    0.0000 O   0  0  0  0  0  0  0  0  0  0  0  0
    2.5250   -1.5542    0.0000 C   0  0  0  0  0  0  0  0  0  0  0  0
    2.5250    0.0958    0.0000 C   0  0  0  0  0  0  0  0  0  0  0  0
   -0.3458    0.0958    0.0000 C   0  0  0  0  0  0  0  0  0  0  0  0
    5.3792   -1.5625    0.0000 C   0  0  0  0  0  0  0  0  0  0  0  0
    3.9500   -2.3792    0.0000 O   0  0  0  0  0  0  0  0  0  0  0  0
   -1.0583   -0.3167    0.0000 O   0  0  0  0  0  0  0  0  0  0  0  0
   -0.3458    0.9208    0.0000 O   0  0  0  0  0  0  0  0  0  0  0  0
   -1.7708    0.0958    0.0000 C   0  0  0  0  0  0  0  0  0  0  0  0
    1.8042   -0.3250    0.0000 C   0  0  0  0  0  0  0  0  0  0  0  0
    1.0875    0.0958    0.0000 O   0  0  0  0  0  0  0  0  0  0  0  0
    0.3667   -0.3167    0.0000 C   0  0  0  0  0  0  0  0  0  0  0  0
    1.8042   -1.1417    0.0000 C   0  0  0  0  0  0  0  0  0  0  0  0
    5.3792   -2.3875    0.0000 C   0  0  0  0  0  0  0  0  0  0  0  0
    6.1000   -1.1417    0.0000 C   0  0  0  0  0  0  0  0  0  0  0  0
   -2.4875    0.5083    0.0000 C   0  0  0  0  0  0  0  0  0  0  0  0
   -2.1833   -0.6250    0.0000 C   0  0  0  0  0  0  0  0  0  0  0  0
   -1.3583    0.8083    0.0000 C   0  0  0  0  0  0  0  0  0  0  0  0
    6.8125   -1.5542    0.0000 C   0  0  0  0  0  0  0  0  0  0  0  0
    6.0917   -2.8000    0.0000 C   0  0  0  0  0  0  0  0  0  0  0  0
    6.8042   -2.3917    0.0000 C   0  0  0  0  0  0  0  0  0  0  0  0
  2  1  1  0  0  0  0
  3  2  1  0  0  0  0
  4  1  2  0  0  0  0
  5  6  1  0  0  0  0
  6  4  1  0  0  0  0
  7  3  2  0  0  0  0
  8  5  2  0  0  0  0
  9 17  1  0  0  0  0
 10  1  1  0  0  0  0
 11  2  2  0  0  0  0
 12  9  1  0  0  0  0
 13  9  2  0  0  0  0
 14 12  1  0  0  0  0
 15  8  1  0  0  0  0
 16 15  1  0  0  0  0
 17 16  1  0  0  0  0
 18  7  1  0  0  0  0
 19 10  2  0  0  0  0
 20 10  1  0  0  0  0
 21 14  1  0  0  0  0
 22 14  1  0  0  0  0
 23 14  1  0  0  0  0
 24 20  2  0  0  0  0
 25 19  1  0  0  0  0
 26 24  1  0  0  0  0
  3  5  1  0  0  0  0
 26 25  2  0  0  0  0
 18 15  2  0  0  0  0
M  END
>  <IDNUMBER>
F3139-0834

>  <Chemical_Name>
tert-butyl 2-[(4-oxo-3-phenyl-4H-chromen-7-yl)oxy]acetate

>  <PriceCoeff>
1.00

>  <CAS>
449739-34-8

>  <MW>
352.38

>  <Description>
solid

>  <FSP3>
0.24

>  <clogP>
3.94

>  <TPSA>
61.83

>  <Acceptor>
5

>  <Donor>
0

>  <RotBonds>
5

>  <HAC>
26

>  <Collection>
General

>  <PPDS>
+

$$$$
F3139-0846
  Mrv2219 10102508112D          

 24 26  0  0  0  0            999 V2000
    3.5042   -0.5625    0.0000 C   0  0  0  0  0  0  0  0  0  0  0  0
    2.7917   -0.9750    0.0000 C   0  0  0  0  0  0  0  0  0  0  0  0
    2.0792   -0.5625    0.0000 C   0  0  0  0  0  0  0  0  0  0  0  0
    3.5042    0.2625    0.0000 C   0  0  0  0  0  0  0  0  0  0  0  0
    2.0792    0.2625    0.0000 C   0  0  0  0  0  0  0  0  0  0  0  0
    2.7917    0.6750    0.0000 O   0  0  0  0  0  0  0  0  0  0  0  0
    1.3667   -0.9750    0.0000 C   0  0  0  0  0  0  0  0  0  0  0  0
    1.3667    0.6750    0.0000 C   0  0  0  0  0  0  0  0  0  0  0  0
    4.2167   -0.9750    0.0000 C   0  0  0  0  0  0  0  0  0  0  0  0
   -1.5000    0.6750    0.0000 C   0  0  0  0  0  0  0  0  0  0  0  0
    2.7917   -1.8000    0.0000 O   0  0  0  0  0  0  0  0  0  0  0  0
   -1.5000    1.5000    0.0000 O   0  0  0  0  0  0  0  0  0  0  0  0
    0.6500    0.2625    0.0000 C   0  0  0  0  0  0  0  0  0  0  0  0
   -0.0708    0.6750    0.0000 O   0  0  0  0  0  0  0  0  0  0  0  0
   -0.7875    0.2625    0.0000 C   0  0  0  0  0  0  0  0  0  0  0  0
    0.6500   -0.5625    0.0000 C   0  0  0  0  0  0  0  0  0  0  0  0
   -2.2208    0.2625    0.0000 O   0  0  0  0  0  0  0  0  0  0  0  0
    4.9417   -0.5625    0.0000 C   0  0  0  0  0  0  0  0  0  0  0  0
    4.2167   -1.8042    0.0000 C   0  0  0  0  0  0  0  0  0  0  0  0
   -2.9250    0.6750    0.0000 C   0  0  0  0  0  0  0  0  0  0  0  0
   -3.6458    0.2625    0.0000 C   0  0  0  0  0  0  0  0  0  0  0  0
    4.9292   -2.2167    0.0000 C   0  0  0  0  0  0  0  0  0  0  0  0
    5.6542   -0.9750    0.0000 C   0  0  0  0  0  0  0  0  0  0  0  0
    5.6542   -1.8042    0.0000 C   0  0  0  0  0  0  0  0  0  0  0  0
  2  1  1  0  0  0  0
  3  2  1  0  0  0  0
  4  1  2  0  0  0  0
  5  6  1  0  0  0  0
  6  4  1  0  0  0  0
  7  3  2  0  0  0  0
  8  5  2  0  0  0  0
  9  1  1  0  0  0  0
 10 15  1  0  0  0  0
 11  2  2  0  0  0  0
 12 10  2  0  0  0  0
 13  8  1  0  0  0  0
 14 13  1  0  0  0  0
 15 14  1  0  0  0  0
 16  7  1  0  0  0  0
 17 10  1  0  0  0  0
 18  9  1  0  0  0  0
 19  9  2  0  0  0  0
 20 17  1  0  0  0  0
 21 20  1  0  0  0  0
 22 19  1  0  0  0  0
 23 18  2  0  0  0  0
 24 22  2  0  0  0  0
  5  3  1  0  0  0  0
 23 24  1  0  0  0  0
 13 16  2  0  0  0  0
M  END
>  <IDNUMBER>
F3139-0846

>  <Chemical_Name>
ethyl 2-[(4-oxo-3-phenyl-4H-chromen-7-yl)oxy]acetate

>  <PriceCoeff>
1.00

>  <CAS>
5897-05-2

>  <MW>
324.33

>  <Description>
solid

>  <FSP3>
0.16

>  <clogP>
3.23

>  <TPSA>
61.83

>  <Acceptor>
5

>  <Donor>
0

>  <RotBonds>
6

>  <HAC>
24

>  <Collection>
General

>  <PPDS>
+

$$$$
F3139-0847
  Mrv2219 10102508112D          

 23 25  0  0  0  0            999 V2000
    3.5042   -0.5625    0.0000 C   0  0  0  0  0  0  0  0  0  0  0  0
    2.7917   -0.9750    0.0000 C   0  0  0  0  0  0  0  0  0  0  0  0
    2.0792   -0.5625    0.0000 C   0  0  0  0  0  0  0  0  0  0  0  0
    3.5042    0.2625    0.0000 C   0  0  0  0  0  0  0  0  0  0  0  0
    2.0792    0.2625    0.0000 C   0  0  0  0  0  0  0  0  0  0  0  0
    2.7917    0.6750    0.0000 O   0  0  0  0  0  0  0  0  0  0  0  0
    1.3667   -0.9750    0.0000 C   0  0  0  0  0  0  0  0  0  0  0  0
    1.3667    0.6750    0.0000 C   0  0  0  0  0  0  0  0  0  0  0  0
    4.2167   -0.9750    0.0000 C   0  0  0  0  0  0  0  0  0  0  0  0
   -1.5000    0.6750    0.0000 C   0  0  0  0  0  0  0  0  0  0  0  0
    2.7917   -1.8000    0.0000 O   0  0  0  0  0  0  0  0  0  0  0  0
   -1.5000    1.5000    0.0000 O   0  0  0  0  0  0  0  0  0  0  0  0
    0.6500    0.2625    0.0000 C   0  0  0  0  0  0  0  0  0  0  0  0
   -0.0708    0.6750    0.0000 O   0  0  0  0  0  0  0  0  0  0  0  0
   -0.7875    0.2625    0.0000 C   0  0  0  0  0  0  0  0  0  0  0  0
    0.6500   -0.5625    0.0000 C   0  0  0  0  0  0  0  0  0  0  0  0
   -2.2208    0.2625    0.0000 O   0  0  0  0  0  0  0  0  0  0  0  0
    4.9417   -0.5625    0.0000 C   0  0  0  0  0  0  0  0  0  0  0  0
    4.2167   -1.8042    0.0000 C   0  0  0  0  0  0  0  0  0  0  0  0
   -2.9250    0.6750    0.0000 C   0  0  0  0  0  0  0  0  0  0  0  0
    5.6542   -0.9750    0.0000 C   0  0  0  0  0  0  0  0  0  0  0  0
    4.9292   -2.2167    0.0000 C   0  0  0  0  0  0  0  0  0  0  0  0
    5.6542   -1.8042    0.0000 C   0  0  0  0  0  0  0  0  0  0  0  0
  2  1  1  0  0  0  0
  3  2  1  0  0  0  0
  4  1  2  0  0  0  0
  5  6  1  0  0  0  0
  6  4  1  0  0  0  0
  7  3  2  0  0  0  0
  8  5  2  0  0  0  0
  9  1  1  0  0  0  0
 10 15  1  0  0  0  0
 11  2  2  0  0  0  0
 12 10  2  0  0  0  0
 13  8  1  0  0  0  0
 14 13  1  0  0  0  0
 15 14  1  0  0  0  0
 16  7  1  0  0  0  0
 17 10  1  0  0  0  0
 18  9  1  0  0  0  0
 19  9  2  0  0  0  0
 20 17  1  0  0  0  0
 21 18  2  0  0  0  0
 22 19  1  0  0  0  0
 23 22  2  0  0  0  0
  5  3  1  0  0  0  0
 21 23  1  0  0  0  0
 13 16  2  0  0  0  0
M  END
>  <IDNUMBER>
F3139-0847

>  <Chemical_Name>
methyl 2-[(4-oxo-3-phenyl-4H-chromen-7-yl)oxy]acetate

>  <PriceCoeff>
1.00

>  <CAS>
449737-90-0

>  <MW>
310.30

>  <Description>
solid

>  <FSP3>
0.11

>  <clogP>
2.70

>  <TPSA>
61.83

>  <Acceptor>
5

>  <Donor>
0

>  <RotBonds>
5

>  <HAC>
23

>  <Collection>
General

>  <PPDS>
+

$$$$
F3139-0860
  Mrv2219 10102508112D          

 20 22  0  0  0  0            999 V2000
    2.1587   -1.7286    0.0000 C   0  0  0  0  0  0  0  0  0  0  0  0
    1.4405   -2.1419    0.0000 C   0  0  0  0  0  0  0  0  0  0  0  0
    0.7265   -1.7328    0.0000 C   0  0  0  0  0  0  0  0  0  0  0  0
    2.1545   -0.8893    0.0000 C   0  0  0  0  0  0  0  0  0  0  0  0
    0.7140   -0.9019    0.0000 C   0  0  0  0  0  0  0  0  0  0  0  0
    1.4322   -0.4760    0.0000 O   0  0  0  0  0  0  0  0  0  0  0  0
    2.8726   -2.1294    0.0000 C   0  0  0  0  0  0  0  0  0  0  0  0
    0.0000   -2.1419    0.0000 C   0  0  0  0  0  0  0  0  0  0  0  0
    0.0042   -0.4885    0.0000 C   0  0  0  0  0  0  0  0  0  0  0  0
    1.4447   -2.9686    0.0000 O   0  0  0  0  0  0  0  0  0  0  0  0
    2.8810   -2.9603    0.0000 C   0  0  0  0  0  0  0  0  0  0  0  0
    3.5824   -1.7160    0.0000 C   0  0  0  0  0  0  0  0  0  0  0  0
   -0.7098   -0.9019    0.0000 C   0  0  0  0  0  0  0  0  0  0  0  0
   -0.7098   -1.7286    0.0000 C   0  0  0  0  0  0  0  0  0  0  0  0
    4.3089   -2.9561    0.0000 C   0  0  0  0  0  0  0  0  0  0  0  0
    3.5949   -3.3695    0.0000 C   0  0  0  0  0  0  0  0  0  0  0  0
    4.3006   -2.1211    0.0000 C   0  0  0  0  0  0  0  0  0  0  0  0
    5.0271   -3.3612    0.0000 Cl  0  0  0  0  0  0  0  0  0  0  0  0
   -1.4237   -0.4885    0.0000 O   0  0  0  0  0  0  0  0  0  0  0  0
   -2.1377   -0.8935    0.0000 C   0  0  0  0  0  0  0  0  0  0  0  0
  2  1  1  0  0  0  0
  3  2  1  0  0  0  0
  4  1  2  0  0  0  0
  5  6  1  0  0  0  0
  6  4  1  0  0  0  0
  7  1  1  0  0  0  0
  8  3  2  0  0  0  0
  9  5  2  0  0  0  0
 10  2  2  0  0  0  0
 11  7  2  0  0  0  0
 12  7  1  0  0  0  0
 13  9  1  0  0  0  0
 14  8  1  0  0  0  0
 15 17  1  0  0  0  0
 16 11  1  0  0  0  0
 17 12  2  0  0  0  0
 18 15  1  0  0  0  0
 19 13  1  0  0  0  0
 20 19  1  0  0  0  0
 16 15  2  0  0  0  0
  5  3  1  0  0  0  0
 13 14  2  0  0  0  0
M  END
>  <IDNUMBER>
F3139-0860

>  <Chemical_Name>
3-(4-chlorophenyl)-7-methoxy-4H-chromen-4-one

>  <PriceCoeff>
1.00

>  <CAS>
109697-82-7

>  <MW>
286.71

>  <Description>
solid

>  <FSP3>
0.06

>  <clogP>
3.80

>  <TPSA>
35.53

>  <Acceptor>
3

>  <Donor>
0

>  <RotBonds>
2

>  <HAC>
20

>  <Collection>
General

>  <PPDS>
+

$$$$
F3139-0863
  Mrv2219 10102508112D          

 24 26  0  0  0  0            999 V2000
    2.4167   -3.9542    0.0000 C   0  0  0  0  0  0  0  0  0  0  0  0
    1.7000   -4.3667    0.0000 C   0  0  0  0  0  0  0  0  0  0  0  0
    0.9875   -3.9542    0.0000 C   0  0  0  0  0  0  0  0  0  0  0  0
    2.4167   -3.1292    0.0000 C   0  0  0  0  0  0  0  0  0  0  0  0
    0.9875   -3.1292    0.0000 C   0  0  0  0  0  0  0  0  0  0  0  0
    1.7000   -2.7167    0.0000 O   0  0  0  0  0  0  0  0  0  0  0  0
   -2.5958   -2.7167    0.0000 C   0  0  0  0  0  0  0  0  0  0  0  0
    0.2750   -2.7167    0.0000 C   0  0  0  0  0  0  0  0  0  0  0  0
    0.2750   -4.3667    0.0000 C   0  0  0  0  0  0  0  0  0  0  0  0
   -1.1625   -2.7167    0.0000 O   0  0  0  0  0  0  0  0  0  0  0  0
    3.1292   -4.3750    0.0000 C   0  0  0  0  0  0  0  0  0  0  0  0
   -1.8833   -3.1292    0.0000 C   0  0  0  0  0  0  0  0  0  0  0  0
    1.7000   -5.1917    0.0000 O   0  0  0  0  0  0  0  0  0  0  0  0
   -0.4458   -3.1375    0.0000 C   0  0  0  0  0  0  0  0  0  0  0  0
   -2.5958   -1.8917    0.0000 O   0  0  0  0  0  0  0  0  0  0  0  0
   -0.4458   -3.9542    0.0000 C   0  0  0  0  0  0  0  0  0  0  0  0
   -3.3083   -3.1292    0.0000 O   0  0  0  0  0  0  0  0  0  0  0  0
   -1.8833   -3.9542    0.0000 C   0  0  0  0  0  0  0  0  0  0  0  0
    3.1292   -5.2000    0.0000 C   0  0  0  0  0  0  0  0  0  0  0  0
    3.8500   -3.9542    0.0000 C   0  0  0  0  0  0  0  0  0  0  0  0
   -4.0208   -2.7167    0.0000 C   0  0  0  0  0  0  0  0  0  0  0  0
    3.8417   -5.6125    0.0000 C   0  0  0  0  0  0  0  0  0  0  0  0
    4.5625   -4.3667    0.0000 C   0  0  0  0  0  0  0  0  0  0  0  0
    4.5625   -5.2000    0.0000 C   0  0  0  0  0  0  0  0  0  0  0  0
  2  1  1  0  0  0  0
  3  2  1  0  0  0  0
  4  1  2  0  0  0  0
  5  6  1  0  0  0  0
  6  4  1  0  0  0  0
  7 12  1  0  0  0  0
  8  5  2  0  0  0  0
  9  3  2  0  0  0  0
 10 14  1  0  0  0  0
 11  1  1  0  0  0  0
 12 10  1  0  0  0  0
 13  2  2  0  0  0  0
 14  8  1  0  0  0  0
 15  7  2  0  0  0  0
 16  9  1  0  0  0  0
 17  7  1  0  0  0  0
 18 12  1  0  0  0  0
 19 11  2  0  0  0  0
 20 11  1  0  0  0  0
 21 17  1  0  0  0  0
 22 19  1  0  0  0  0
 23 20  2  0  0  0  0
 24 23  1  0  0  0  0
  5  3  1  0  0  0  0
 22 24  2  0  0  0  0
 14 16  2  0  0  0  0
M  END
>  <IDNUMBER>
F3139-0863

>  <Chemical_Name>
methyl 2-[(4-oxo-3-phenyl-4H-chromen-7-yl)oxy]propanoate

>  <PriceCoeff>
1.00

>  <CAS>
449738-25-4

>  <MW>
324.33

>  <Description>
solid

>  <FSP3>
0.16

>  <clogP>
3.01

>  <TPSA>
61.83

>  <Acceptor>
5

>  <Donor>
0

>  <RotBonds>
5

>  <HAC>
24

>  <Collection>
General

>  <PPDS>
+

$$$$
F3139-0913
  Mrv2219 10102508112D          

 20 22  0  0  0  0            999 V2000
    3.8375   -2.3125    0.0000 C   0  0  0  0  0  0  0  0  0  0  0  0
    4.5500   -2.7250    0.0000 C   0  0  0  0  0  0  0  0  0  0  0  0
    4.5500   -1.0750    0.0000 O   0  0  0  0  0  0  0  0  0  0  0  0
    3.8375   -1.4875    0.0000 C   0  0  0  0  0  0  0  0  0  0  0  0
    5.2667   -1.4875    0.0000 C   0  0  0  0  0  0  0  0  0  0  0  0
    5.2667   -2.3125    0.0000 C   0  0  0  0  0  0  0  0  0  0  0  0
    5.9792   -1.0750    0.0000 C   0  0  0  0  0  0  0  0  0  0  0  0
    3.1250   -2.7250    0.0000 C   0  0  0  0  0  0  0  0  0  0  0  0
    4.5500   -3.5500    0.0000 O   0  0  0  0  0  0  0  0  0  0  0  0
    3.1250   -1.0750    0.0000 C   0  0  0  0  0  0  0  0  0  0  0  0
    6.6917   -1.4917    0.0000 C   0  0  0  0  0  0  0  0  0  0  0  0
    5.9750   -0.2542    0.0000 C   0  0  0  0  0  0  0  0  0  0  0  0
    2.4042   -2.3125    0.0000 C   0  0  0  0  0  0  0  0  0  0  0  0
    2.4042   -1.4875    0.0000 C   0  0  0  0  0  0  0  0  0  0  0  0
    6.6875    0.1583    0.0000 C   0  0  0  0  0  0  0  0  0  0  0  0
    7.4042   -1.0792    0.0000 C   0  0  0  0  0  0  0  0  0  0  0  0
    7.4042   -0.2542    0.0000 C   0  0  0  0  0  0  0  0  0  0  0  0
    1.6917   -2.7250    0.0000 O   0  0  0  0  0  0  0  0  0  0  0  0
    8.1167    0.1625    0.0000 C   0  0  0  0  0  0  0  0  0  0  0  0
    0.9792   -2.3125    0.0000 C   0  0  0  0  0  0  0  0  0  0  0  0
  2  1  1  0  0  0  0
  3  4  1  0  0  0  0
  4  1  1  0  0  0  0
  5  3  1  0  0  0  0
  6  2  1  0  0  0  0
  7  5  1  0  0  0  0
  8  1  2  0  0  0  0
  9  2  2  0  0  0  0
 10  4  2  0  0  0  0
 11  7  2  0  0  0  0
 12  7  1  0  0  0  0
 13  8  1  0  0  0  0
 14 13  2  0  0  0  0
 15 12  2  0  0  0  0
 16 11  1  0  0  0  0
 17 15  1  0  0  0  0
 18 13  1  0  0  0  0
 19 17  1  0  0  0  0
 20 18  1  0  0  0  0
  5  6  1  0  0  0  0
 14 10  1  0  0  0  0
 17 16  2  0  0  0  0
M  END
>  <IDNUMBER>
F3139-0913

>  <Chemical_Name>
6-methoxy-2-(4-methylphenyl)-3,4-dihydro-2H-1-benzopyran-4-one

>  <PriceCoeff>
1.00

>  <MW>
268.31

>  <Description>
solid

>  <FSP3>
0.24

>  <clogP>
4.00

>  <TPSA>
35.53

>  <Acceptor>
3

>  <Donor>
0

>  <RotBonds>
2

>  <HAC>
20

>  <Collection>
General

$$$$
F3139-0931
  Mrv2219 10102508112D          

 22 25  0  0  0  0            999 V2000
    4.7167   -1.1792    0.0000 C   0  0  0  0  0  0  0  0  0  0  0  0
    5.4375   -0.7792    0.0000 C   0  0  0  0  0  0  0  0  0  0  0  0
    4.7125   -2.0042    0.0000 C   0  0  0  0  0  0  0  0  0  0  0  0
    4.0042   -0.7542    0.0000 O   0  0  0  0  0  0  0  0  0  0  0  0
    3.9875   -2.4042    0.0000 C   0  0  0  0  0  0  0  0  0  0  0  0
    6.1417   -1.2000    0.0000 C   0  0  0  0  0  0  0  0  0  0  0  0
    3.2792   -1.9792    0.0000 C   0  0  0  0  0  0  0  0  0  0  0  0
    6.8667   -0.7917    0.0000 C   0  0  0  0  0  0  0  0  0  0  0  0
    3.2917   -1.1625    0.0000 C   0  0  0  0  0  0  0  0  0  0  0  0
    5.4417    0.0458    0.0000 C   0  0  0  0  0  0  0  0  0  0  0  0
    6.1375   -2.0250    0.0000 O   0  0  0  0  0  0  0  0  0  0  0  0
    6.8750    0.0333    0.0000 C   0  0  0  0  0  0  0  0  0  0  0  0
    3.9792   -3.2292    0.0000 O   0  0  0  0  0  0  0  0  0  0  0  0
    6.1542    0.4500    0.0000 C   0  0  0  0  0  0  0  0  0  0  0  0
    7.5667   -2.0375    0.0000 O   0  0  0  0  0  0  0  0  0  0  0  0
    6.8417   -2.4417    0.0000 C   0  0  0  0  0  0  0  0  0  0  0  0
    7.5750   -1.2042    0.0000 C   0  0  0  0  0  0  0  0  0  0  0  0
    6.1667    1.2750    0.0000 Br  0  0  0  0  0  0  0  0  0  0  0  0
    2.5625   -2.3792    0.0000 C   0  0  0  0  0  0  0  0  0  0  0  0
    2.5917   -0.7375    0.0000 C   0  0  0  0  0  0  0  0  0  0  0  0
    1.8542   -1.9625    0.0000 C   0  0  0  0  0  0  0  0  0  0  0  0
    1.8667   -1.1375    0.0000 C   0  0  0  0  0  0  0  0  0  0  0  0
  2  1  1  0  0  0  0
  3  1  2  0  0  0  0
  4  1  1  0  0  0  0
  5  3  1  0  0  0  0
  6  2  2  0  0  0  0
  7  9  2  0  0  0  0
  8  6  1  0  0  0  0
  9  4  1  0  0  0  0
 10  2  1  0  0  0  0
 11  6  1  0  0  0  0
 12 14  1  0  0  0  0
 13  5  2  0  0  0  0
 14 10  2  0  0  0  0
 15 16  1  0  0  0  0
 16 11  1  0  0  0  0
 17  8  1  0  0  0  0
 18 14  1  0  0  0  0
 19  7  1  0  0  0  0
 20  9  1  0  0  0  0
 21 22  1  0  0  0  0
 22 20  2  0  0  0  0
  7  5  1  0  0  0  0
  8 12  2  0  0  0  0
 15 17  1  0  0  0  0
 19 21  2  0  0  0  0
M  END
>  <IDNUMBER>
F3139-0931

>  <Chemical_Name>
2-(6-bromo-2,4-dihydro-1,3-benzodioxin-8-yl)-4H-chromen-4-one

>  <PriceCoeff>
1.00

>  <CAS>
147723-08-8

>  <MW>
359.17

>  <Description>
solid

>  <FSP3>
0.12

>  <clogP>
3.47

>  <TPSA>
44.76

>  <Acceptor>
4

>  <Donor>
0

>  <RotBonds>
1

>  <HAC>
22

>  <Collection>
General

$$$$
F3139-0964
  Mrv2219 10102508112D          

 23 25  0  0  0  0            999 V2000
   13.6542   -5.8667    0.0000 C   0  0  0  0  0  0  0  0  0  0  0  0
   12.9375   -6.2792    0.0000 C   0  0  0  0  0  0  0  0  0  0  0  0
   12.2250   -5.8667    0.0000 C   0  0  0  0  0  0  0  0  0  0  0  0
   13.6542   -5.0417    0.0000 C   0  0  0  0  0  0  0  0  0  0  0  0
   12.2250   -5.0417    0.0000 C   0  0  0  0  0  0  0  0  0  0  0  0
   12.9375   -4.6292    0.0000 O   0  0  0  0  0  0  0  0  0  0  0  0
   11.5125   -6.2792    0.0000 C   0  0  0  0  0  0  0  0  0  0  0  0
   11.5125   -4.6292    0.0000 C   0  0  0  0  0  0  0  0  0  0  0  0
   14.3667   -6.2875    0.0000 C   0  0  0  0  0  0  0  0  0  0  0  0
   12.9375   -7.1042    0.0000 O   0  0  0  0  0  0  0  0  0  0  0  0
    7.9292   -5.0292    0.0000 C   0  0  0  0  0  0  0  0  0  0  0  0
    8.6417   -4.6167    0.0000 C   0  0  0  0  0  0  0  0  0  0  0  0
   10.7917   -5.0500    0.0000 C   0  0  0  0  0  0  0  0  0  0  0  0
   10.7917   -5.8667    0.0000 C   0  0  0  0  0  0  0  0  0  0  0  0
    9.3542   -5.0417    0.0000 C   0  0  0  0  0  0  0  0  0  0  0  0
   10.0750   -4.6292    0.0000 O   0  0  0  0  0  0  0  0  0  0  0  0
    7.2167   -4.6125    0.0000 C   0  0  0  0  0  0  0  0  0  0  0  0
    7.9167   -5.8542    0.0000 C   0  0  0  0  0  0  0  0  0  0  0  0
   14.3667   -7.1125    0.0000 C   0  0  0  0  0  0  0  0  0  0  0  0
   15.0875   -5.8667    0.0000 C   0  0  0  0  0  0  0  0  0  0  0  0
   15.8000   -6.2792    0.0000 C   0  0  0  0  0  0  0  0  0  0  0  0
   15.0792   -7.5250    0.0000 C   0  0  0  0  0  0  0  0  0  0  0  0
   15.7917   -7.1042    0.0000 C   0  0  0  0  0  0  0  0  0  0  0  0
  2  1  1  0  0  0  0
  3  2  1  0  0  0  0
  4  1  2  0  0  0  0
  5  6  1  0  0  0  0
  6  4  1  0  0  0  0
  7  3  2  0  0  0  0
  8  5  2  0  0  0  0
  9  1  1  0  0  0  0
 10  2  2  0  0  0  0
 11 12  2  0  0  0  0
 12 15  1  0  0  0  0
 13  8  1  0  0  0  0
 14  7  1  0  0  0  0
 15 16  1  0  0  0  0
 16 13  1  0  0  0  0
 17 11  1  0  0  0  0
 18 11  1  0  0  0  0
 19  9  2  0  0  0  0
 20  9  1  0  0  0  0
 21 20  2  0  0  0  0
 22 19  1  0  0  0  0
 23 21  1  0  0  0  0
  5  3  1  0  0  0  0
 22 23  2  0  0  0  0
 13 14  2  0  0  0  0
M  END
>  <IDNUMBER>
F3139-0964

>  <Chemical_Name>
7-[(3-methylbut-2-en-1-yl)oxy]-3-phenyl-4H-chromen-4-one

>  <PriceCoeff>
1.00

>  <CAS>
66346-74-5

>  <MW>
306.36

>  <Description>
solid

>  <FSP3>
0.15

>  <clogP>
4.79

>  <TPSA>
35.53

>  <Acceptor>
3

>  <Donor>
0

>  <RotBonds>
4

>  <HAC>
23

>  <Collection>
General

>  <PPDS>
+

$$$$
F3139-0991
  Mrv2219 10102508112D          

 28 31  0  0  0  0            999 V2000
    4.1491   -2.1278    0.0000 C   0  0  0  0  0  0  0  0  0  0  0  0
    2.7059   -2.1278    0.0000 C   0  0  0  0  0  0  0  0  0  0  0  0
    3.4225   -2.5372    0.0000 C   0  0  0  0  0  0  0  0  0  0  0  0
    4.1491   -1.2947    0.0000 C   0  0  0  0  0  0  0  0  0  0  0  0
    2.7179   -1.2947    0.0000 C   0  0  0  0  0  0  0  0  0  0  0  0
    4.8476   -2.5372    0.0000 C   0  0  0  0  0  0  0  0  0  0  0  0
    3.4345   -0.8752    0.0000 O   0  0  0  0  0  0  0  0  0  0  0  0
    1.9953   -2.5372    0.0000 C   0  0  0  0  0  0  0  0  0  0  0  0
    1.9953   -0.8812    0.0000 C   0  0  0  0  0  0  0  0  0  0  0  0
    1.2947   -1.2967    0.0000 C   0  0  0  0  0  0  0  0  0  0  0  0
    6.2748   -2.5372    0.0000 C   0  0  0  0  0  0  0  0  0  0  0  0
    1.2947   -2.1197    0.0000 C   0  0  0  0  0  0  0  0  0  0  0  0
    5.5642   -2.1278    0.0000 C   0  0  0  0  0  0  0  0  0  0  0  0
    6.2748   -3.3743    0.0000 C   0  0  0  0  0  0  0  0  0  0  0  0
    3.4225   -3.3502    0.0000 O   0  0  0  0  0  0  0  0  0  0  0  0
    0.5841   -0.8933    0.0000 O   0  0  0  0  0  0  0  0  0  0  0  0
    6.9874   -2.1278    0.0000 O   0  0  0  0  0  0  0  0  0  0  0  0
    4.8476   -3.3662    0.0000 C   0  0  0  0  0  0  0  0  0  0  0  0
    6.9754   -3.7838    0.0000 O   0  0  0  0  0  0  0  0  0  0  0  0
   -0.1204    0.3352    0.0000 C   0  0  0  0  0  0  0  0  0  0  0  0
    5.5542   -3.7717    0.0000 C   0  0  0  0  0  0  0  0  0  0  0  0
   -0.8310   -0.0662    0.0000 C   0  0  0  0  0  0  0  0  0  0  0  0
    0.5841   -0.0662    0.0000 C   0  0  0  0  0  0  0  0  0  0  0  0
    0.5741   -2.5372    0.0000 C   0  0  0  0  0  0  0  0  0  0  0  0
    7.7080   -2.5433    0.0000 C   0  0  0  0  0  0  0  0  0  0  0  0
    7.7080   -3.3743    0.0000 C   0  0  0  0  0  0  0  0  0  0  0  0
   -0.1204    1.1602    0.0000 C   0  0  0  0  0  0  0  0  0  0  0  0
    0.5621   -3.3502    0.0000 C   0  0  0  0  0  0  0  0  0  0  0  0
  2  3  1  0  0  0  0
  3  1  1  0  0  0  0
  4  1  2  0  0  0  0
  5  7  1  0  0  0  0
  6  1  1  0  0  0  0
  7  4  1  0  0  0  0
  8  2  2  0  0  0  0
  9  5  2  0  0  0  0
 10  9  1  0  0  0  0
 11 13  2  0  0  0  0
 12  8  1  0  0  0  0
 13  6  1  0  0  0  0
 14 21  2  0  0  0  0
 15  3  2  0  0  0  0
 16 10  1  0  0  0  0
 17 11  1  0  0  0  0
 18  6  2  0  0  0  0
 19 14  1  0  0  0  0
 20 23  1  0  0  0  0
 21 18  1  0  0  0  0
 22 20  2  0  0  0  0
 23 16  1  0  0  0  0
 24 12  1  0  0  0  0
 25 17  1  0  0  0  0
 26 19  1  0  0  0  0
 27 20  1  0  0  0  0
 28 24  1  0  0  0  0
  2  5  1  0  0  0  0
 14 11  1  0  0  0  0
 12 10  2  0  0  0  0
 25 26  1  0  0  0  0
M  END
>  <IDNUMBER>
F3139-0991

>  <Chemical_Name>
3-(2,3-dihydro-1,4-benzodioxin-6-yl)-6-ethyl-7-[(2-methylprop-2-en-1-yl)oxy]-4H-chromen-4-one

>  <PriceCoeff>
1.00

>  <CAS>
610762-30-6

>  <MW>
378.42

>  <Description>
solid

>  <FSP3>
0.26

>  <clogP>
5.22

>  <TPSA>
53.99

>  <Acceptor>
5

>  <Donor>
0

>  <RotBonds>
5

>  <HAC>
28

>  <Collection>
General

>  <PPDS>
+

$$$$
F3139-0992
  Mrv2219 10102508112D          

 31 34  0  0  0  0            999 V2000
    4.1667   -2.1417    0.0000 C   0  0  0  0  0  0  0  0  0  0  0  0
    3.4417   -2.5542    0.0000 C   0  0  0  0  0  0  0  0  0  0  0  0
    2.7292   -2.1417    0.0000 C   0  0  0  0  0  0  0  0  0  0  0  0
    4.1667   -1.3042    0.0000 C   0  0  0  0  0  0  0  0  0  0  0  0
    2.7292   -1.3042    0.0000 C   0  0  0  0  0  0  0  0  0  0  0  0
    3.4500   -0.8875    0.0000 O   0  0  0  0  0  0  0  0  0  0  0  0
    4.8792   -2.5542    0.0000 C   0  0  0  0  0  0  0  0  0  0  0  0
    2.0167   -2.5500    0.0000 C   0  0  0  0  0  0  0  0  0  0  0  0
    2.0167   -0.8917    0.0000 C   0  0  0  0  0  0  0  0  0  0  0  0
   -0.8375   -0.8875    0.0000 C   0  0  0  0  0  0  0  0  0  0  0  0
    3.4417   -3.3792    0.0000 O   0  0  0  0  0  0  0  0  0  0  0  0
   -1.5583   -1.2917    0.0000 C   0  0  0  0  0  0  0  0  0  0  0  0
    4.8750   -3.3792    0.0000 C   0  0  0  0  0  0  0  0  0  0  0  0
   -0.1250   -1.3042    0.0000 C   0  0  0  0  0  0  0  0  0  0  0  0
   -0.8333   -0.0625    0.0000 O   0  0  0  0  0  0  0  0  0  0  0  0
    1.3042   -1.3125    0.0000 C   0  0  0  0  0  0  0  0  0  0  0  0
    0.5917   -0.9000    0.0000 O   0  0  0  0  0  0  0  0  0  0  0  0
   -2.2625   -0.8792    0.0000 C   0  0  0  0  0  0  0  0  0  0  0  0
   -1.5583   -2.1167    0.0000 C   0  0  0  0  0  0  0  0  0  0  0  0
    1.3042   -2.1375    0.0000 C   0  0  0  0  0  0  0  0  0  0  0  0
   -2.9875   -2.1125    0.0000 C   0  0  0  0  0  0  0  0  0  0  0  0
   -2.2708   -2.5292    0.0000 C   0  0  0  0  0  0  0  0  0  0  0  0
   -2.9833   -1.2875    0.0000 C   0  0  0  0  0  0  0  0  0  0  0  0
    4.1625   -3.7875    0.0000 O   0  0  0  0  0  0  0  0  0  0  0  0
    5.5917   -2.1417    0.0000 C   0  0  0  0  0  0  0  0  0  0  0  0
   -3.7000   -2.5167    0.0000 O   0  0  0  0  0  0  0  0  0  0  0  0
    5.5875   -3.7917    0.0000 C   0  0  0  0  0  0  0  0  0  0  0  0
    4.1542   -4.6125    0.0000 C   0  0  0  0  0  0  0  0  0  0  0  0
   -3.7083   -3.3417    0.0000 C   0  0  0  0  0  0  0  0  0  0  0  0
    6.3042   -2.5542    0.0000 C   0  0  0  0  0  0  0  0  0  0  0  0
    6.3000   -3.3917    0.0000 C   0  0  0  0  0  0  0  0  0  0  0  0
  2  1  1  0  0  0  0
  3  2  1  0  0  0  0
  4  1  2  0  0  0  0
  5  6  1  0  0  0  0
  6  4  1  0  0  0  0
  7  1  1  0  0  0  0
  8  3  2  0  0  0  0
  9  5  2  0  0  0  0
 10 14  1  0  0  0  0
 11  2  2  0  0  0  0
 12 10  1  0  0  0  0
 13  7  2  0  0  0  0
 14 17  1  0  0  0  0
 15 10  2  0  0  0  0
 16  9  1  0  0  0  0
 17 16  1  0  0  0  0
 18 12  2  0  0  0  0
 19 12  1  0  0  0  0
 20  8  1  0  0  0  0
 21 22  1  0  0  0  0
 22 19  2  0  0  0  0
 23 18  1  0  0  0  0
 24 13  1  0  0  0  0
 25  7  1  0  0  0  0
 26 21  1  0  0  0  0
 27 13  1  0  0  0  0
 28 24  1  0  0  0  0
 29 26  1  0  0  0  0
 30 25  2  0  0  0  0
 31 30  1  0  0  0  0
  5  3  1  0  0  0  0
 27 31  2  0  0  0  0
 16 20  2  0  0  0  0
 23 21  2  0  0  0  0
M  END
>  <IDNUMBER>
F3139-0992

>  <Chemical_Name>
3-(2-methoxyphenyl)-7-[2-(4-methoxyphenyl)-2-oxoethoxy]-4H-chromen-4-one

>  <PriceCoeff>
1.00

>  <CAS>
610763-97-8

>  <MW>
416.42

>  <Description>
solid

>  <FSP3>
0.12

>  <clogP>
3.64

>  <TPSA>
71.06

>  <Acceptor>
6

>  <Donor>
0

>  <RotBonds>
7

>  <HAC>
31

>  <Collection>
General

>  <PPDS>
+

$$$$
F3139-0996
  Mrv2219 10102508112D          

 28 31  0  0  0  0            999 V2000
    3.1042   -1.4250    0.0000 C   0  0  0  0  0  0  0  0  0  0  0  0
    1.6750   -1.4250    0.0000 C   0  0  0  0  0  0  0  0  0  0  0  0
    2.3792   -1.8375    0.0000 C   0  0  0  0  0  0  0  0  0  0  0  0
    3.1042   -0.6000    0.0000 C   0  0  0  0  0  0  0  0  0  0  0  0
    1.6750   -0.6000    0.0000 C   0  0  0  0  0  0  0  0  0  0  0  0
    3.8167   -1.8375    0.0000 C   0  0  0  0  0  0  0  0  0  0  0  0
    2.3792   -0.1875    0.0000 O   0  0  0  0  0  0  0  0  0  0  0  0
    0.9625   -1.8375    0.0000 C   0  0  0  0  0  0  0  0  0  0  0  0
    0.9625   -0.1875    0.0000 C   0  0  0  0  0  0  0  0  0  0  0  0
    0.2417   -0.6000    0.0000 C   0  0  0  0  0  0  0  0  0  0  0  0
    5.2500   -1.8375    0.0000 C   0  0  0  0  0  0  0  0  0  0  0  0
    0.2417   -1.4250    0.0000 C   0  0  0  0  0  0  0  0  0  0  0  0
    4.5375   -1.4250    0.0000 C   0  0  0  0  0  0  0  0  0  0  0  0
    5.2417   -2.6625    0.0000 C   0  0  0  0  0  0  0  0  0  0  0  0
   -1.9083   -0.1750    0.0000 C   0  0  0  0  0  0  0  0  0  0  0  0
    2.3792   -2.6625    0.0000 O   0  0  0  0  0  0  0  0  0  0  0  0
   -0.4750   -0.1875    0.0000 O   0  0  0  0  0  0  0  0  0  0  0  0
    5.9667   -1.4250    0.0000 O   0  0  0  0  0  0  0  0  0  0  0  0
    3.8167   -2.6667    0.0000 C   0  0  0  0  0  0  0  0  0  0  0  0
    5.9542   -3.0792    0.0000 O   0  0  0  0  0  0  0  0  0  0  0  0
   -1.9083    0.6500    0.0000 O   0  0  0  0  0  0  0  0  0  0  0  0
    4.5292   -3.0792    0.0000 C   0  0  0  0  0  0  0  0  0  0  0  0
   -1.1958   -0.5917    0.0000 C   0  0  0  0  0  0  0  0  0  0  0  0
   -2.6208   -0.5792    0.0000 N   0  0  0  0  0  0  0  0  0  0  0  0
   -0.4708   -1.8375    0.0000 C   0  0  0  0  0  0  0  0  0  0  0  0
    6.6792   -1.8417    0.0000 C   0  0  0  0  0  0  0  0  0  0  0  0
    6.6792   -2.6667    0.0000 C   0  0  0  0  0  0  0  0  0  0  0  0
   -0.4750   -2.6625    0.0000 C   0  0  0  0  0  0  0  0  0  0  0  0
  2  3  1  0  0  0  0
  3  1  1  0  0  0  0
  4  1  2  0  0  0  0
  5  7  1  0  0  0  0
  6  1  1  0  0  0  0
  7  4  1  0  0  0  0
  8  2  2  0  0  0  0
  9  5  2  0  0  0  0
 10  9  1  0  0  0  0
 11 13  2  0  0  0  0
 12  8  1  0  0  0  0
 13  6  1  0  0  0  0
 14 22  2  0  0  0  0
 15 23  1  0  0  0  0
 16  3  2  0  0  0  0
 17 10  1  0  0  0  0
 18 11  1  0  0  0  0
 19  6  2  0  0  0  0
 20 14  1  0  0  0  0
 21 15  2  0  0  0  0
 22 19  1  0  0  0  0
 23 17  1  0  0  0  0
 24 15  1  0  0  0  0
 25 12  1  0  0  0  0
 26 18  1  0  0  0  0
 27 20  1  0  0  0  0
 28 25  1  0  0  0  0
  5  2  1  0  0  0  0
 11 14  1  0  0  0  0
 10 12  2  0  0  0  0
 27 26  1  0  0  0  0
M  END
>  <IDNUMBER>
F3139-0996

>  <Chemical_Name>
2-{[3-(2,3-dihydro-1,4-benzodioxin-6-yl)-6-ethyl-4-oxo-4H-chromen-7-yl]oxy}acetamide

>  <PriceCoeff>
1.00

>  <MW>
381.38

>  <Description>
solid

>  <FSP3>
0.24

>  <clogP>
2.54

>  <TPSA>
97.08

>  <Acceptor>
6

>  <Donor>
1

>  <RotBonds>
5

>  <HAC>
28

>  <Collection>
General

$$$$
F3139-1013
  Mrv2219 10102508112D          

 32 35  0  0  0  0            999 V2000
    5.9417   -2.5167    0.0000 C   0  0  0  0  0  0  0  0  0  0  0  0
    5.2250   -2.9292    0.0000 C   0  0  0  0  0  0  0  0  0  0  0  0
    4.5125   -2.5167    0.0000 C   0  0  0  0  0  0  0  0  0  0  0  0
    5.9417   -1.6917    0.0000 C   0  0  0  0  0  0  0  0  0  0  0  0
    4.5125   -1.6917    0.0000 C   0  0  0  0  0  0  0  0  0  0  0  0
    5.2250   -1.2792    0.0000 O   0  0  0  0  0  0  0  0  0  0  0  0
    2.3542   -0.4542    0.0000 C   0  0  0  0  0  0  0  0  0  0  0  0
    6.6542   -2.9375    0.0000 C   0  0  0  0  0  0  0  0  0  0  0  0
    1.6417   -0.0417    0.0000 C   0  0  0  0  0  0  0  0  0  0  0  0
    3.8000   -1.2792    0.0000 C   0  0  0  0  0  0  0  0  0  0  0  0
    2.3625   -1.2792    0.0000 O   0  0  0  0  0  0  0  0  0  0  0  0
    3.8000   -2.9292    0.0000 C   0  0  0  0  0  0  0  0  0  0  0  0
    0.9375   -0.4542    0.0000 C   0  0  0  0  0  0  0  0  0  0  0  0
    0.2250   -0.0500    0.0000 C   0  0  0  0  0  0  0  0  0  0  0  0
    3.0792   -1.7000    0.0000 C   0  0  0  0  0  0  0  0  0  0  0  0
    5.2250   -3.7542    0.0000 O   0  0  0  0  0  0  0  0  0  0  0  0
    0.2167    0.7833    0.0000 C   0  0  0  0  0  0  0  0  0  0  0  0
    3.0750   -0.0417    0.0000 O   0  0  0  0  0  0  0  0  0  0  0  0
    6.6542   -3.7625    0.0000 C   0  0  0  0  0  0  0  0  0  0  0  0
    1.6500    0.7833    0.0000 C   0  0  0  0  0  0  0  0  0  0  0  0
    0.9292    1.1958    0.0000 C   0  0  0  0  0  0  0  0  0  0  0  0
    3.0792   -2.5167    0.0000 C   0  0  0  0  0  0  0  0  0  0  0  0
   -0.4875   -0.4667    0.0000 O   0  0  0  0  0  0  0  0  0  0  0  0
   -0.4958    1.1958    0.0000 O   0  0  0  0  0  0  0  0  0  0  0  0
    5.9417   -4.1667    0.0000 O   0  0  0  0  0  0  0  0  0  0  0  0
    7.3750   -2.5167    0.0000 C   0  0  0  0  0  0  0  0  0  0  0  0
    7.3667   -4.1750    0.0000 C   0  0  0  0  0  0  0  0  0  0  0  0
   -0.4833   -1.2917    0.0000 C   0  0  0  0  0  0  0  0  0  0  0  0
   -1.2083    0.7833    0.0000 C   0  0  0  0  0  0  0  0  0  0  0  0
    5.9417   -4.9917    0.0000 C   0  0  0  0  0  0  0  0  0  0  0  0
    8.0875   -2.9292    0.0000 C   0  0  0  0  0  0  0  0  0  0  0  0
    8.0875   -3.7625    0.0000 C   0  0  0  0  0  0  0  0  0  0  0  0
  2  1  1  0  0  0  0
  3  2  1  0  0  0  0
  4  1  2  0  0  0  0
  5  6  1  0  0  0  0
  6  4  1  0  0  0  0
  7 11  1  0  0  0  0
  8  1  1  0  0  0  0
  9  7  1  0  0  0  0
 10  5  2  0  0  0  0
 11 15  1  0  0  0  0
 12  3  2  0  0  0  0
 13  9  1  0  0  0  0
 14 13  2  0  0  0  0
 15 10  1  0  0  0  0
 16  2  2  0  0  0  0
 17 21  2  0  0  0  0
 18  7  2  0  0  0  0
 19  8  2  0  0  0  0
 20  9  2  0  0  0  0
 21 20  1  0  0  0  0
 22 12  1  0  0  0  0
 23 14  1  0  0  0  0
 24 17  1  0  0  0  0
 25 19  1  0  0  0  0
 26  8  1  0  0  0  0
 27 19  1  0  0  0  0
 28 23  1  0  0  0  0
 29 24  1  0  0  0  0
 30 25  1  0  0  0  0
 31 26  2  0  0  0  0
 32 31  1  0  0  0  0
  5  3  1  0  0  0  0
 27 32  2  0  0  0  0
 15 22  2  0  0  0  0
 14 17  1  0  0  0  0
M  END
>  <IDNUMBER>
F3139-1013

>  <Chemical_Name>
3-(2-methoxyphenyl)-4-oxo-4H-chromen-7-yl 3,4-dimethoxybenzoate

>  <PriceCoeff>
1.00

>  <CAS>
315715-15-2

>  <MW>
432.42

>  <Description>
solid

>  <FSP3>
0.12

>  <clogP>
3.90

>  <TPSA>
80.29

>  <Acceptor>
7

>  <Donor>
0

>  <RotBonds>
7

>  <HAC>
32

>  <Collection>
General

>  <PPDS>
+

$$$$
F3139-1025
  Mrv2219 10102508112D          

 27 29  0  0  0  0            999 V2000
    5.5125   -1.1167    0.0000 C   0  0  0  0  0  0  0  0  0  0  0  0
    4.7875   -1.5292    0.0000 C   0  0  0  0  0  0  0  0  0  0  0  0
    4.0667   -1.1167    0.0000 C   0  0  0  0  0  0  0  0  0  0  0  0
    4.0750   -0.2792    0.0000 C   0  0  0  0  0  0  0  0  0  0  0  0
    3.3542   -1.5250    0.0000 C   0  0  0  0  0  0  0  0  0  0  0  0
    5.5125   -0.2792    0.0000 C   0  0  0  0  0  0  0  0  0  0  0  0
    4.7917    0.1375    0.0000 O   0  0  0  0  0  0  0  0  0  0  0  0
    6.2167   -1.5292    0.0000 C   0  0  0  0  0  0  0  0  0  0  0  0
    3.3542    0.1333    0.0000 C   0  0  0  0  0  0  0  0  0  0  0  0
    2.6417   -1.1125    0.0000 C   0  0  0  0  0  0  0  0  0  0  0  0
    2.6417   -0.2875    0.0000 C   0  0  0  0  0  0  0  0  0  0  0  0
    3.3542   -2.3500    0.0000 O   0  0  0  0  0  0  0  0  0  0  0  0
    2.6417   -2.7625    0.0000 C   0  0  0  0  0  0  0  0  0  0  0  0
    4.7875   -2.3542    0.0000 O   0  0  0  0  0  0  0  0  0  0  0  0
    1.9292    0.9500    0.0000 C   0  0  0  0  0  0  0  0  0  0  0  0
    1.9292    0.1250    0.0000 O   0  0  0  0  0  0  0  0  0  0  0  0
    6.2167   -2.3542    0.0000 C   0  0  0  0  0  0  0  0  0  0  0  0
    2.6417   -3.5875    0.0000 O   0  0  0  0  0  0  0  0  0  0  0  0
    2.6417    1.3625    0.0000 O   0  0  0  0  0  0  0  0  0  0  0  0
    5.5042   -2.7625    0.0000 O   0  0  0  0  0  0  0  0  0  0  0  0
    6.9292   -1.1167    0.0000 C   0  0  0  0  0  0  0  0  0  0  0  0
    1.9292   -2.3500    0.0000 C   0  0  0  0  0  0  0  0  0  0  0  0
    1.2167    1.3625    0.0000 C   0  0  0  0  0  0  0  0  0  0  0  0
    6.9292   -2.7667    0.0000 C   0  0  0  0  0  0  0  0  0  0  0  0
    5.5000   -3.5875    0.0000 C   0  0  0  0  0  0  0  0  0  0  0  0
    7.6417   -1.5292    0.0000 C   0  0  0  0  0  0  0  0  0  0  0  0
    7.6417   -2.3625    0.0000 C   0  0  0  0  0  0  0  0  0  0  0  0
  2  1  1  0  0  0  0
  3  2  1  0  0  0  0
  4  7  1  0  0  0  0
  5  3  2  0  0  0  0
  6  1  2  0  0  0  0
  7  6  1  0  0  0  0
  8  1  1  0  0  0  0
  9  4  2  0  0  0  0
 10  5  1  0  0  0  0
 11  9  1  0  0  0  0
 12  5  1  0  0  0  0
 13 12  1  0  0  0  0
 14  2  2  0  0  0  0
 15 16  1  0  0  0  0
 16 11  1  0  0  0  0
 17  8  2  0  0  0  0
 18 13  2  0  0  0  0
 19 15  2  0  0  0  0
 20 17  1  0  0  0  0
 21  8  1  0  0  0  0
 22 13  1  0  0  0  0
 23 15  1  0  0  0  0
 24 17  1  0  0  0  0
 25 20  1  0  0  0  0
 26 21  2  0  0  0  0
 27 26  1  0  0  0  0
  4  3  1  0  0  0  0
 24 27  2  0  0  0  0
 11 10  2  0  0  0  0
M  END
>  <IDNUMBER>
F3139-1025

>  <Chemical_Name>
5-(acetyloxy)-3-(2-methoxyphenyl)-4-oxo-4H-chromen-7-yl acetate

>  <PriceCoeff>
1.00

>  <CAS>
610760-61-7

>  <MW>
368.34

>  <Description>
solid

>  <FSP3>
0.15

>  <clogP>
1.34

>  <TPSA>
88.13

>  <Acceptor>
7

>  <Donor>
0

>  <RotBonds>
6

>  <HAC>
27

>  <Collection>
General

>  <PPDS>
+

$$$$
F3139-1040
  Mrv2219 10102508112D          

 22 24  0  0  0  0            999 V2000
    4.4125   -3.3292    0.0000 C   0  0  0  0  0  0  0  0  0  0  0  0
    3.6917   -3.7417    0.0000 C   0  0  0  0  0  0  0  0  0  0  0  0
    0.1167   -2.5042    0.0000 S   0  0  0  0  0  0  0  0  0  0  0  0
    2.9792   -3.3292    0.0000 C   0  0  0  0  0  0  0  0  0  0  0  0
    4.4125   -2.5042    0.0000 C   0  0  0  0  0  0  0  0  0  0  0  0
    2.9792   -2.5042    0.0000 C   0  0  0  0  0  0  0  0  0  0  0  0
    3.6917   -2.0917    0.0000 O   0  0  0  0  0  0  0  0  0  0  0  0
    2.2667   -2.0917    0.0000 C   0  0  0  0  0  0  0  0  0  0  0  0
    2.2667   -3.7417    0.0000 C   0  0  0  0  0  0  0  0  0  0  0  0
    0.8292   -2.0917    0.0000 O   0  0  0  0  0  0  0  0  0  0  0  0
    0.5292   -3.2250    0.0000 O   0  0  0  0  0  0  0  0  0  0  0  0
   -0.2958   -1.7917    0.0000 O   0  0  0  0  0  0  0  0  0  0  0  0
    5.1250   -3.7500    0.0000 C   0  0  0  0  0  0  0  0  0  0  0  0
    3.6917   -4.5667    0.0000 O   0  0  0  0  0  0  0  0  0  0  0  0
    1.5542   -2.5125    0.0000 C   0  0  0  0  0  0  0  0  0  0  0  0
    1.5542   -3.3292    0.0000 C   0  0  0  0  0  0  0  0  0  0  0  0
   -0.6000   -2.9167    0.0000 C   0  0  0  0  0  0  0  0  0  0  0  0
    5.8417   -3.3292    0.0000 C   0  0  0  0  0  0  0  0  0  0  0  0
    5.1250   -4.5750    0.0000 C   0  0  0  0  0  0  0  0  0  0  0  0
    5.8375   -4.9875    0.0000 C   0  0  0  0  0  0  0  0  0  0  0  0
    6.5542   -3.7417    0.0000 C   0  0  0  0  0  0  0  0  0  0  0  0
    6.5542   -4.5750    0.0000 C   0  0  0  0  0  0  0  0  0  0  0  0
  2  1  1  0  0  0  0
  3 10  1  0  0  0  0
  4  2  1  0  0  0  0
  5  1  2  0  0  0  0
  6  7  1  0  0  0  0
  7  5  1  0  0  0  0
  8  6  2  0  0  0  0
  9  4  2  0  0  0  0
 10 15  1  0  0  0  0
 11  3  2  0  0  0  0
 12  3  2  0  0  0  0
 13  1  1  0  0  0  0
 14  2  2  0  0  0  0
 15  8  1  0  0  0  0
 16  9  1  0  0  0  0
 17  3  1  0  0  0  0
 18 13  1  0  0  0  0
 19 13  2  0  0  0  0
 20 19  1  0  0  0  0
 21 18  2  0  0  0  0
 22 20  2  0  0  0  0
  4  6  1  0  0  0  0
 22 21  1  0  0  0  0
 16 15  2  0  0  0  0
M  END
>  <IDNUMBER>
F3139-1040

>  <Chemical_Name>
4-oxo-3-phenyl-4H-chromen-7-yl methanesulfonate

>  <PriceCoeff>
1.00

>  <CAS>
208446-30-4

>  <MW>
316.33

>  <Description>
solid

>  <FSP3>
0.06

>  <clogP>
2.28

>  <TPSA>
78.05

>  <Acceptor>
5

>  <Donor>
0

>  <RotBonds>
3

>  <HAC>
22

>  <Collection>
General

>  <PPDS>
+

$$$$
F3139-1043
  Mrv2219 10102508112D          

 26 29  0  0  0  0            999 V2000
    4.2875   -3.0167    0.0000 C   0  0  0  0  0  0  0  0  0  0  0  0
    2.8542   -3.0167    0.0000 C   0  0  0  0  0  0  0  0  0  0  0  0
    3.5667   -3.4292    0.0000 C   0  0  0  0  0  0  0  0  0  0  0  0
    4.2875   -2.1917    0.0000 C   0  0  0  0  0  0  0  0  0  0  0  0
    2.8542   -2.1917    0.0000 C   0  0  0  0  0  0  0  0  0  0  0  0
    5.0000   -3.4375    0.0000 C   0  0  0  0  0  0  0  0  0  0  0  0
    3.5667   -1.7792    0.0000 O   0  0  0  0  0  0  0  0  0  0  0  0
    2.1417   -3.4292    0.0000 C   0  0  0  0  0  0  0  0  0  0  0  0
    2.1417   -1.7792    0.0000 C   0  0  0  0  0  0  0  0  0  0  0  0
    6.4292   -3.4292    0.0000 C   0  0  0  0  0  0  0  0  0  0  0  0
    1.4292   -2.2000    0.0000 C   0  0  0  0  0  0  0  0  0  0  0  0
    5.7167   -3.0167    0.0000 C   0  0  0  0  0  0  0  0  0  0  0  0
    1.4292   -3.0167    0.0000 C   0  0  0  0  0  0  0  0  0  0  0  0
    6.4292   -4.2542    0.0000 C   0  0  0  0  0  0  0  0  0  0  0  0
    3.5667   -4.2542    0.0000 O   0  0  0  0  0  0  0  0  0  0  0  0
    7.1500   -3.0167    0.0000 O   0  0  0  0  0  0  0  0  0  0  0  0
    5.0000   -4.2542    0.0000 C   0  0  0  0  0  0  0  0  0  0  0  0
    7.1417   -4.6750    0.0000 O   0  0  0  0  0  0  0  0  0  0  0  0
    5.7125   -4.6750    0.0000 C   0  0  0  0  0  0  0  0  0  0  0  0
    0.7042   -1.7792    0.0000 O   0  0  0  0  0  0  0  0  0  0  0  0
    0.7125   -3.4292    0.0000 C   0  0  0  0  0  0  0  0  0  0  0  0
    7.8667   -3.4375    0.0000 C   0  0  0  0  0  0  0  0  0  0  0  0
    7.8625   -4.2667    0.0000 C   0  0  0  0  0  0  0  0  0  0  0  0
   -0.0083   -2.1917    0.0000 C   0  0  0  0  0  0  0  0  0  0  0  0
    0.7042   -4.2542    0.0000 C   0  0  0  0  0  0  0  0  0  0  0  0
   -0.7208   -1.7667    0.0000 C   0  0  0  0  0  0  0  0  0  0  0  0
  2  3  1  0  0  0  0
  3  1  1  0  0  0  0
  4  1  2  0  0  0  0
  5  7  1  0  0  0  0
  6  1  1  0  0  0  0
  7  4  1  0  0  0  0
  8  2  2  0  0  0  0
  9  5  2  0  0  0  0
 10 12  2  0  0  0  0
 11  9  1  0  0  0  0
 12  6  1  0  0  0  0
 13  8  1  0  0  0  0
 14 19  2  0  0  0  0
 15  3  2  0  0  0  0
 16 10  1  0  0  0  0
 17  6  2  0  0  0  0
 18 14  1  0  0  0  0
 19 17  1  0  0  0  0
 20 11  1  0  0  0  0
 21 13  1  0  0  0  0
 22 16  1  0  0  0  0
 23 18  1  0  0  0  0
 24 20  1  0  0  0  0
 25 21  1  0  0  0  0
 26 24  1  0  0  0  0
  2  5  1  0  0  0  0
 14 10  1  0  0  0  0
 13 11  2  0  0  0  0
 23 22  1  0  0  0  0
M  END
>  <IDNUMBER>
F3139-1043

>  <Chemical_Name>
3-(2,3-dihydro-1,4-benzodioxin-6-yl)-7-ethoxy-6-ethyl-4H-chromen-4-one

>  <PriceCoeff>
1.00

>  <CAS>
610762-12-4

>  <MW>
352.38

>  <Description>
solid

>  <FSP3>
0.29

>  <clogP>
4.57

>  <TPSA>
53.99

>  <Acceptor>
5

>  <Donor>
0

>  <RotBonds>
4

>  <HAC>
26

>  <Collection>
General

>  <PPDS>
+

$$$$
F3139-1055
  Mrv2219 10102508112D          

 23 25  0  0  0  0            999 V2000
    3.5042   -1.8292    0.0000 C   0  0  0  0  0  0  0  0  0  0  0  0
    2.7917   -2.2417    0.0000 C   0  0  0  0  0  0  0  0  0  0  0  0
    2.0792   -1.8292    0.0000 C   0  0  0  0  0  0  0  0  0  0  0  0
    3.5042   -1.0042    0.0000 C   0  0  0  0  0  0  0  0  0  0  0  0
    2.0792   -1.0042    0.0000 C   0  0  0  0  0  0  0  0  0  0  0  0
    2.7917   -0.5917    0.0000 O   0  0  0  0  0  0  0  0  0  0  0  0
    1.3667   -0.5917    0.0000 C   0  0  0  0  0  0  0  0  0  0  0  0
    4.2167   -2.2500    0.0000 C   0  0  0  0  0  0  0  0  0  0  0  0
    1.3667   -2.2417    0.0000 C   0  0  0  0  0  0  0  0  0  0  0  0
   -0.7875   -1.0042    0.0000 C   0  0  0  0  0  0  0  0  0  0  0  0
    2.7917   -3.0667    0.0000 O   0  0  0  0  0  0  0  0  0  0  0  0
    0.6500   -1.0125    0.0000 C   0  0  0  0  0  0  0  0  0  0  0  0
   -0.0708   -0.5917    0.0000 O   0  0  0  0  0  0  0  0  0  0  0  0
   -0.7958   -1.8292    0.0000 O   0  0  0  0  0  0  0  0  0  0  0  0
    4.9417   -1.8292    0.0000 C   0  0  0  0  0  0  0  0  0  0  0  0
    4.2167   -3.0750    0.0000 C   0  0  0  0  0  0  0  0  0  0  0  0
    0.6500   -1.8292    0.0000 C   0  0  0  0  0  0  0  0  0  0  0  0
    5.6500   -3.0667    0.0000 C   0  0  0  0  0  0  0  0  0  0  0  0
    4.9292   -3.4875    0.0000 C   0  0  0  0  0  0  0  0  0  0  0  0
    5.6625   -2.2292    0.0000 C   0  0  0  0  0  0  0  0  0  0  0  0
    6.3625   -3.4917    0.0000 Cl  0  0  0  0  0  0  0  0  0  0  0  0
   -1.5000   -0.5792    0.0000 C   0  0  0  0  0  0  0  0  0  0  0  0
   -2.2125   -0.9917    0.0000 C   0  0  0  0  0  0  0  0  0  0  0  0
  2  1  1  0  0  0  0
  3  2  1  0  0  0  0
  4  1  2  0  0  0  0
  5  6  1  0  0  0  0
  6  4  1  0  0  0  0
  7  5  2  0  0  0  0
  8  1  1  0  0  0  0
  9  3  2  0  0  0  0
 10 13  1  0  0  0  0
 11  2  2  0  0  0  0
 12  7  1  0  0  0  0
 13 12  1  0  0  0  0
 14 10  2  0  0  0  0
 15  8  1  0  0  0  0
 16  8  2  0  0  0  0
 17  9  1  0  0  0  0
 18 19  2  0  0  0  0
 19 16  1  0  0  0  0
 20 15  2  0  0  0  0
 21 18  1  0  0  0  0
 22 10  1  0  0  0  0
 23 22  1  0  0  0  0
 18 20  1  0  0  0  0
  3  5  1  0  0  0  0
 17 12  2  0  0  0  0
M  END
>  <IDNUMBER>
F3139-1055

>  <Chemical_Name>
3-(4-chlorophenyl)-4-oxo-4H-chromen-7-yl propanoate

>  <PriceCoeff>
1.00

>  <CAS>
618390-50-4

>  <MW>
328.75

>  <Description>
solid

>  <FSP3>
0.11

>  <clogP>
3.76

>  <TPSA>
52.60

>  <Acceptor>
4

>  <Donor>
0

>  <RotBonds>
4

>  <HAC>
23

>  <Collection>
General

>  <PPDS>
+

$$$$
F3139-1062
  Mrv2219 10102508112D          

 22 24  0  0  0  0            999 V2000
    7.3417   -4.3542    0.0000 C   0  0  0  0  0  0  0  0  0  0  0  0
    6.6250   -4.7667    0.0000 C   0  0  0  0  0  0  0  0  0  0  0  0
    5.9125   -4.3542    0.0000 C   0  0  0  0  0  0  0  0  0  0  0  0
    7.3417   -3.5292    0.0000 C   0  0  0  0  0  0  0  0  0  0  0  0
    5.9125   -3.5292    0.0000 C   0  0  0  0  0  0  0  0  0  0  0  0
    6.6250   -3.1167    0.0000 O   0  0  0  0  0  0  0  0  0  0  0  0
    5.2000   -3.1167    0.0000 C   0  0  0  0  0  0  0  0  0  0  0  0
    5.2000   -4.7667    0.0000 C   0  0  0  0  0  0  0  0  0  0  0  0
    3.0417   -3.5250    0.0000 C   0  0  0  0  0  0  0  0  0  0  0  0
    8.0542   -4.7667    0.0000 C   0  0  0  0  0  0  0  0  0  0  0  0
    6.6250   -5.5917    0.0000 O   0  0  0  0  0  0  0  0  0  0  0  0
    4.4792   -3.5292    0.0000 C   0  0  0  0  0  0  0  0  0  0  0  0
    3.7625   -3.1167    0.0000 O   0  0  0  0  0  0  0  0  0  0  0  0
    3.0375   -4.3500    0.0000 O   0  0  0  0  0  0  0  0  0  0  0  0
    4.4792   -4.3542    0.0000 C   0  0  0  0  0  0  0  0  0  0  0  0
    2.3292   -3.1042    0.0000 C   0  0  0  0  0  0  0  0  0  0  0  0
    8.0542   -5.5917    0.0000 C   0  0  0  0  0  0  0  0  0  0  0  0
    8.7750   -4.3542    0.0000 C   0  0  0  0  0  0  0  0  0  0  0  0
    2.3375   -2.2792    0.0000 C   0  0  0  0  0  0  0  0  0  0  0  0
    9.4917   -4.7542    0.0000 C   0  0  0  0  0  0  0  0  0  0  0  0
    8.7667   -6.0042    0.0000 C   0  0  0  0  0  0  0  0  0  0  0  0
    9.4792   -5.5917    0.0000 C   0  0  0  0  0  0  0  0  0  0  0  0
  2  1  1  0  0  0  0
  3  2  1  0  0  0  0
  4  1  2  0  0  0  0
  5  6  1  0  0  0  0
  6  4  1  0  0  0  0
  7  5  2  0  0  0  0
  8  3  2  0  0  0  0
  9 13  1  0  0  0  0
 10  1  1  0  0  0  0
 11  2  2  0  0  0  0
 12  7  1  0  0  0  0
 13 12  1  0  0  0  0
 14  9  2  0  0  0  0
 15  8  1  0  0  0  0
 16  9  1  0  0  0  0
 17 10  2  0  0  0  0
 18 10  1  0  0  0  0
 19 16  1  0  0  0  0
 20 18  2  0  0  0  0
 21 17  1  0  0  0  0
 22 20  1  0  0  0  0
  3  5  1  0  0  0  0
 22 21  2  0  0  0  0
 15 12  2  0  0  0  0
M  END
>  <IDNUMBER>
F3139-1062

>  <Chemical_Name>
4-oxo-3-phenyl-4H-chromen-7-yl propanoate

>  <PriceCoeff>
1.00

>  <CAS>
301691-64-5

>  <MW>
294.30

>  <Description>
solid

>  <FSP3>
0.11

>  <clogP>
3.05

>  <TPSA>
52.60

>  <Acceptor>
4

>  <Donor>
0

>  <RotBonds>
4

>  <HAC>
22

>  <Collection>
General

>  <PPDS>
+

$$$$
F3139-1067
  Mrv2219 10102508112D          

 29 32  0  0  0  0            999 V2000
    8.0542   -4.9167    0.0000 C   0  0  0  0  0  0  0  0  0  0  0  0
    6.6250   -4.9167    0.0000 C   0  0  0  0  0  0  0  0  0  0  0  0
    7.3375   -5.3292    0.0000 C   0  0  0  0  0  0  0  0  0  0  0  0
    8.0542   -4.0917    0.0000 C   0  0  0  0  0  0  0  0  0  0  0  0
    6.6250   -4.0917    0.0000 C   0  0  0  0  0  0  0  0  0  0  0  0
    8.7667   -5.3375    0.0000 C   0  0  0  0  0  0  0  0  0  0  0  0
    7.3375   -3.6792    0.0000 O   0  0  0  0  0  0  0  0  0  0  0  0
    5.9125   -5.3292    0.0000 C   0  0  0  0  0  0  0  0  0  0  0  0
    5.1917   -4.1000    0.0000 C   0  0  0  0  0  0  0  0  0  0  0  0
    5.9125   -3.6792    0.0000 C   0  0  0  0  0  0  0  0  0  0  0  0
    5.1917   -4.9167    0.0000 C   0  0  0  0  0  0  0  0  0  0  0  0
   10.2042   -5.3125    0.0000 C   0  0  0  0  0  0  0  0  0  0  0  0
    9.4875   -4.9167    0.0000 C   0  0  0  0  0  0  0  0  0  0  0  0
    4.4750   -3.6792    0.0000 O   0  0  0  0  0  0  0  0  0  0  0  0
    3.7542   -4.0917    0.0000 C   0  0  0  0  0  0  0  0  0  0  0  0
   10.1917   -6.1542    0.0000 C   0  0  0  0  0  0  0  0  0  0  0  0
    7.3375   -6.1542    0.0000 O   0  0  0  0  0  0  0  0  0  0  0  0
   10.9375   -4.8917    0.0000 O   0  0  0  0  0  0  0  0  0  0  0  0
    8.7667   -6.1625    0.0000 C   0  0  0  0  0  0  0  0  0  0  0  0
   10.9167   -6.5875    0.0000 O   0  0  0  0  0  0  0  0  0  0  0  0
    3.7500   -4.9167    0.0000 O   0  0  0  0  0  0  0  0  0  0  0  0
    9.4792   -6.5750    0.0000 C   0  0  0  0  0  0  0  0  0  0  0  0
    4.4792   -5.3292    0.0000 C   0  0  0  0  0  0  0  0  0  0  0  0
    3.0417   -3.6667    0.0000 C   0  0  0  0  0  0  0  0  0  0  0  0
   11.6667   -5.3292    0.0000 C   0  0  0  0  0  0  0  0  0  0  0  0
   11.6542   -6.1750    0.0000 C   0  0  0  0  0  0  0  0  0  0  0  0
    4.4750   -6.1542    0.0000 C   0  0  0  0  0  0  0  0  0  0  0  0
    2.3292   -4.0792    0.0000 C   0  0  0  0  0  0  0  0  0  0  0  0
    3.7542   -6.5625    0.0000 C   0  0  0  0  0  0  0  0  0  0  0  0
  2  3  1  0  0  0  0
  3  1  1  0  0  0  0
  4  1  2  0  0  0  0
  5  7  1  0  0  0  0
  6  1  1  0  0  0  0
  7  4  1  0  0  0  0
  8  2  2  0  0  0  0
  9 10  1  0  0  0  0
 10  5  2  0  0  0  0
 11  8  1  0  0  0  0
 12 13  2  0  0  0  0
 13  6  1  0  0  0  0
 14  9  1  0  0  0  0
 15 14  1  0  0  0  0
 16 22  2  0  0  0  0
 17  3  2  0  0  0  0
 18 12  1  0  0  0  0
 19  6  2  0  0  0  0
 20 16  1  0  0  0  0
 21 15  2  0  0  0  0
 22 19  1  0  0  0  0
 23 11  1  0  0  0  0
 24 15  1  0  0  0  0
 25 18  1  0  0  0  0
 26 20  1  0  0  0  0
 27 23  1  0  0  0  0
 28 24  1  0  0  0  0
 29 27  1  0  0  0  0
  2  5  1  0  0  0  0
 16 12  1  0  0  0  0
 11  9  2  0  0  0  0
 26 25  1  0  0  0  0
M  END
>  <IDNUMBER>
F3139-1067

>  <Chemical_Name>
3-(2,3-dihydro-1,4-benzodioxin-6-yl)-4-oxo-6-propyl-4H-chromen-7-yl propanoate

>  <PriceCoeff>
1.00

>  <CAS>
610752-23-3

>  <MW>
394.42

>  <Description>
solid

>  <FSP3>
0.30

>  <clogP>
4.53

>  <TPSA>
71.06

>  <Acceptor>
6

>  <Donor>
0

>  <RotBonds>
6

>  <HAC>
29

>  <Collection>
General

>  <PPDS>
+

$$$$
F3139-1115
  Mrv2219 10102508112D          

 24 26  0  0  0  0            999 V2000
    3.7042   -4.3000    0.0000 C   0  0  0  0  0  0  0  0  0  0  0  0
    2.9917   -4.7125    0.0000 C   0  0  0  0  0  0  0  0  0  0  0  0
    2.2792   -4.3000    0.0000 C   0  0  0  0  0  0  0  0  0  0  0  0
    3.7042   -3.4750    0.0000 C   0  0  0  0  0  0  0  0  0  0  0  0
    2.2792   -3.4750    0.0000 C   0  0  0  0  0  0  0  0  0  0  0  0
    2.9917   -3.0625    0.0000 O   0  0  0  0  0  0  0  0  0  0  0  0
   -0.5875   -3.4667    0.0000 C   0  0  0  0  0  0  0  0  0  0  0  0
    1.5667   -3.0625    0.0000 C   0  0  0  0  0  0  0  0  0  0  0  0
    0.1292   -3.0625    0.0000 O   0  0  0  0  0  0  0  0  0  0  0  0
    1.5667   -4.7125    0.0000 C   0  0  0  0  0  0  0  0  0  0  0  0
   -1.3000   -3.0542    0.0000 C   0  0  0  0  0  0  0  0  0  0  0  0
    4.4167   -4.7125    0.0000 C   0  0  0  0  0  0  0  0  0  0  0  0
    0.8500   -3.4750    0.0000 C   0  0  0  0  0  0  0  0  0  0  0  0
    2.9917   -5.5375    0.0000 O   0  0  0  0  0  0  0  0  0  0  0  0
   -0.5958   -4.2917    0.0000 O   0  0  0  0  0  0  0  0  0  0  0  0
    0.8500   -4.3000    0.0000 C   0  0  0  0  0  0  0  0  0  0  0  0
   -2.0208   -2.6417    0.0000 C   0  0  0  0  0  0  0  0  0  0  0  0
   -0.8875   -2.3375    0.0000 C   0  0  0  0  0  0  0  0  0  0  0  0
   -1.7083   -3.7667    0.0000 C   0  0  0  0  0  0  0  0  0  0  0  0
    5.1417   -4.3000    0.0000 C   0  0  0  0  0  0  0  0  0  0  0  0
    4.4167   -5.5417    0.0000 C   0  0  0  0  0  0  0  0  0  0  0  0
    5.1292   -5.9542    0.0000 C   0  0  0  0  0  0  0  0  0  0  0  0
    5.8542   -4.7125    0.0000 C   0  0  0  0  0  0  0  0  0  0  0  0
    5.8542   -5.5417    0.0000 C   0  0  0  0  0  0  0  0  0  0  0  0
  2  1  1  0  0  0  0
  3  2  1  0  0  0  0
  4  1  2  0  0  0  0
  5  6  1  0  0  0  0
  6  4  1  0  0  0  0
  7  9  1  0  0  0  0
  8  5  2  0  0  0  0
  9 13  1  0  0  0  0
 10  3  2  0  0  0  0
 11  7  1  0  0  0  0
 12  1  1  0  0  0  0
 13  8  1  0  0  0  0
 14  2  2  0  0  0  0
 15  7  2  0  0  0  0
 16 10  1  0  0  0  0
 17 11  1  0  0  0  0
 18 11  1  0  0  0  0
 19 11  1  0  0  0  0
 20 12  1  0  0  0  0
 21 12  2  0  0  0  0
 22 21  1  0  0  0  0
 23 20  2  0  0  0  0
 24 22  2  0  0  0  0
  3  5  1  0  0  0  0
 24 23  1  0  0  0  0
 16 13  2  0  0  0  0
M  END
>  <IDNUMBER>
F3139-1115

>  <Chemical_Name>
4-oxo-3-phenyl-4H-chromen-7-yl 2,2-dimethylpropanoate

>  <PriceCoeff>
1.00

>  <CAS>
444643-75-8

>  <MW>
322.35

>  <Description>
solid

>  <FSP3>
0.20

>  <clogP>
3.75

>  <TPSA>
52.60

>  <Acceptor>
4

>  <Donor>
0

>  <RotBonds>
3

>  <HAC>
24

>  <Collection>
General

>  <PPDS>
+

$$$$
F3139-1131
  Mrv2219 10102508112D          

 27 30  0  0  0  0            999 V2000
    3.4292   -4.3750    0.0000 C   0  0  0  0  0  0  0  0  0  0  0  0
    2.7167   -4.7875    0.0000 C   0  0  0  0  0  0  0  0  0  0  0  0
    2.0042   -4.3750    0.0000 C   0  0  0  0  0  0  0  0  0  0  0  0
    3.4292   -3.5500    0.0000 C   0  0  0  0  0  0  0  0  0  0  0  0
   -0.1500   -2.3125    0.0000 C   0  0  0  0  0  0  0  0  0  0  0  0
    2.0042   -3.5500    0.0000 C   0  0  0  0  0  0  0  0  0  0  0  0
    2.7167   -3.1375    0.0000 O   0  0  0  0  0  0  0  0  0  0  0  0
   -0.8583   -1.9000    0.0000 C   0  0  0  0  0  0  0  0  0  0  0  0
   -0.1458   -3.1375    0.0000 O   0  0  0  0  0  0  0  0  0  0  0  0
    1.2917   -3.1375    0.0000 C   0  0  0  0  0  0  0  0  0  0  0  0
    1.2917   -4.7875    0.0000 C   0  0  0  0  0  0  0  0  0  0  0  0
    4.1417   -4.7875    0.0000 C   0  0  0  0  0  0  0  0  0  0  0  0
    0.5750   -3.5500    0.0000 C   0  0  0  0  0  0  0  0  0  0  0  0
    2.7167   -5.6125    0.0000 O   0  0  0  0  0  0  0  0  0  0  0  0
    0.5667   -1.8917    0.0000 O   0  0  0  0  0  0  0  0  0  0  0  0
   -0.8583   -1.0750    0.0000 C   0  0  0  0  0  0  0  0  0  0  0  0
    0.5750   -4.3750    0.0000 C   0  0  0  0  0  0  0  0  0  0  0  0
   -1.5708   -2.3125    0.0000 C   0  0  0  0  0  0  0  0  0  0  0  0
    4.1417   -5.6167    0.0000 C   0  0  0  0  0  0  0  0  0  0  0  0
    4.8667   -4.3750    0.0000 C   0  0  0  0  0  0  0  0  0  0  0  0
   -0.1458   -0.6625    0.0000 C   0  0  0  0  0  0  0  0  0  0  0  0
   -1.5750   -0.6625    0.0000 C   0  0  0  0  0  0  0  0  0  0  0  0
   -2.2833   -1.9042    0.0000 C   0  0  0  0  0  0  0  0  0  0  0  0
    5.5792   -4.7875    0.0000 C   0  0  0  0  0  0  0  0  0  0  0  0
    4.8542   -6.0292    0.0000 C   0  0  0  0  0  0  0  0  0  0  0  0
   -2.2875   -1.0750    0.0000 C   0  0  0  0  0  0  0  0  0  0  0  0
    5.5792   -5.6167    0.0000 C   0  0  0  0  0  0  0  0  0  0  0  0
  2  1  1  0  0  0  0
  3  2  1  0  0  0  0
  4  1  2  0  0  0  0
  5  9  1  0  0  0  0
  6  7  1  0  0  0  0
  7  4  1  0  0  0  0
  8  5  1  0  0  0  0
  9 13  1  0  0  0  0
 10  6  2  0  0  0  0
 11  3  2  0  0  0  0
 12  1  1  0  0  0  0
 13 10  1  0  0  0  0
 14  2  2  0  0  0  0
 15  5  2  0  0  0  0
 16  8  2  0  0  0  0
 17 11  1  0  0  0  0
 18  8  1  0  0  0  0
 19 12  2  0  0  0  0
 20 12  1  0  0  0  0
 21 16  1  0  0  0  0
 22 16  1  0  0  0  0
 23 18  2  0  0  0  0
 24 20  2  0  0  0  0
 25 19  1  0  0  0  0
 26 23  1  0  0  0  0
 27 24  1  0  0  0  0
  3  6  1  0  0  0  0
 27 25  2  0  0  0  0
 17 13  2  0  0  0  0
 26 22  2  0  0  0  0
M  END
>  <IDNUMBER>
F3139-1131

>  <Chemical_Name>
4-oxo-3-phenyl-4H-chromen-7-yl 2-methylbenzoate

>  <PriceCoeff>
1.00

>  <CAS>
449739-52-0

>  <MW>
356.37

>  <Description>
solid

>  <FSP3>
0.04

>  <clogP>
5.14

>  <TPSA>
52.60

>  <Acceptor>
4

>  <Donor>
0

>  <RotBonds>
4

>  <HAC>
27

>  <Collection>
General

>  <PPDS>
+

$$$$
F3139-1132
  Mrv2219 10102508112D          

 26 29  0  0  0  0            999 V2000
    3.4292   -4.3750    0.0000 C   0  0  0  0  0  0  0  0  0  0  0  0
    2.7167   -4.7875    0.0000 C   0  0  0  0  0  0  0  0  0  0  0  0
    2.0042   -4.3750    0.0000 C   0  0  0  0  0  0  0  0  0  0  0  0
    3.4292   -3.5500    0.0000 C   0  0  0  0  0  0  0  0  0  0  0  0
    2.0042   -3.5500    0.0000 C   0  0  0  0  0  0  0  0  0  0  0  0
    2.7167   -3.1375    0.0000 O   0  0  0  0  0  0  0  0  0  0  0  0
   -0.1500   -2.3125    0.0000 C   0  0  0  0  0  0  0  0  0  0  0  0
    1.2917   -3.1375    0.0000 C   0  0  0  0  0  0  0  0  0  0  0  0
   -0.1458   -3.1375    0.0000 O   0  0  0  0  0  0  0  0  0  0  0  0
    1.2917   -4.7875    0.0000 C   0  0  0  0  0  0  0  0  0  0  0  0
    4.1417   -4.7875    0.0000 C   0  0  0  0  0  0  0  0  0  0  0  0
    0.5750   -3.5500    0.0000 C   0  0  0  0  0  0  0  0  0  0  0  0
    2.7167   -5.6125    0.0000 O   0  0  0  0  0  0  0  0  0  0  0  0
    0.5667   -1.8917    0.0000 O   0  0  0  0  0  0  0  0  0  0  0  0
   -0.8583   -1.9000    0.0000 C   0  0  0  0  0  0  0  0  0  0  0  0
    0.5750   -4.3750    0.0000 C   0  0  0  0  0  0  0  0  0  0  0  0
    4.1417   -5.6167    0.0000 C   0  0  0  0  0  0  0  0  0  0  0  0
    4.8667   -4.3750    0.0000 C   0  0  0  0  0  0  0  0  0  0  0  0
   -0.8583   -1.0750    0.0000 C   0  0  0  0  0  0  0  0  0  0  0  0
   -1.5708   -2.3125    0.0000 C   0  0  0  0  0  0  0  0  0  0  0  0
    5.5792   -4.7875    0.0000 C   0  0  0  0  0  0  0  0  0  0  0  0
   -1.5750   -0.6625    0.0000 C   0  0  0  0  0  0  0  0  0  0  0  0
   -2.2833   -1.9042    0.0000 C   0  0  0  0  0  0  0  0  0  0  0  0
    4.8542   -6.0292    0.0000 C   0  0  0  0  0  0  0  0  0  0  0  0
    5.5792   -5.6167    0.0000 C   0  0  0  0  0  0  0  0  0  0  0  0
   -2.2875   -1.0750    0.0000 C   0  0  0  0  0  0  0  0  0  0  0  0
  2  1  1  0  0  0  0
  3  2  1  0  0  0  0
  4  1  2  0  0  0  0
  5  6  1  0  0  0  0
  6  4  1  0  0  0  0
  7  9  1  0  0  0  0
  8  5  2  0  0  0  0
  9 12  1  0  0  0  0
 10  3  2  0  0  0  0
 11  1  1  0  0  0  0
 12  8  1  0  0  0  0
 13  2  2  0  0  0  0
 14  7  2  0  0  0  0
 15  7  1  0  0  0  0
 16 10  1  0  0  0  0
 17 11  2  0  0  0  0
 18 11  1  0  0  0  0
 19 15  2  0  0  0  0
 20 15  1  0  0  0  0
 21 18  2  0  0  0  0
 22 19  1  0  0  0  0
 23 20  2  0  0  0  0
 24 17  1  0  0  0  0
 25 21  1  0  0  0  0
 26 23  1  0  0  0  0
  3  5  1  0  0  0  0
 25 24  2  0  0  0  0
 16 12  2  0  0  0  0
 26 22  2  0  0  0  0
M  END
>  <IDNUMBER>
F3139-1132

>  <Chemical_Name>
4-oxo-3-phenyl-4H-chromen-7-yl benzoate

>  <PriceCoeff>
1.00

>  <CAS>
301691-66-7

>  <MW>
342.34

>  <Description>
solid

>  <FSP3>
0.00

>  <clogP>
4.65

>  <TPSA>
52.60

>  <Acceptor>
4

>  <Donor>
0

>  <RotBonds>
4

>  <HAC>
26

>  <Collection>
General

>  <PPDS>
+

$$$$
F3139-1207
  Mrv2219 10102508112D          

 20 22  0  0  0  0            999 V2000
   11.7635    0.4207    0.0000 C   0  0  0  0  0  0  0  0  0  0  0  0
   11.0387    0.0083    0.0000 C   0  0  0  0  0  0  0  0  0  0  0  0
   10.3222    0.4207    0.0000 C   0  0  0  0  0  0  0  0  0  0  0  0
   11.7635    1.2580    0.0000 C   0  0  0  0  0  0  0  0  0  0  0  0
   10.3264    1.2580    0.0000 C   0  0  0  0  0  0  0  0  0  0  0  0
   11.0387    1.6745    0.0000 O   0  0  0  0  0  0  0  0  0  0  0  0
   12.4716    0.0083    0.0000 C   0  0  0  0  0  0  0  0  0  0  0  0
    9.6099    0.0125    0.0000 C   0  0  0  0  0  0  0  0  0  0  0  0
    9.6099    1.6703    0.0000 C   0  0  0  0  0  0  0  0  0  0  0  0
   11.0387   -0.8165    0.0000 O   0  0  0  0  0  0  0  0  0  0  0  0
   12.4633   -0.8165    0.0000 C   0  0  0  0  0  0  0  0  0  0  0  0
   13.1839    0.4207    0.0000 C   0  0  0  0  0  0  0  0  0  0  0  0
    8.8976    1.2497    0.0000 C   0  0  0  0  0  0  0  0  0  0  0  0
    8.8976    0.4249    0.0000 C   0  0  0  0  0  0  0  0  0  0  0  0
   13.8962   -0.8248    0.0000 C   0  0  0  0  0  0  0  0  0  0  0  0
   13.8962    0.0083    0.0000 C   0  0  0  0  0  0  0  0  0  0  0  0
   13.1756   -1.2289    0.0000 C   0  0  0  0  0  0  0  0  0  0  0  0
    8.1853    1.6620    0.0000 O   0  0  0  0  0  0  0  0  0  0  0  0
   14.6085   -1.2372    0.0000 O   0  0  0  0  0  0  0  0  0  0  0  0
   15.3250   -0.8248    0.0000 C   0  0  0  0  0  0  0  0  0  0  0  0
  2  1  1  0  0  0  0
  3  2  1  0  0  0  0
  4  1  2  0  0  0  0
  5  6  1  0  0  0  0
  6  4  1  0  0  0  0
  7  1  1  0  0  0  0
  8  3  2  0  0  0  0
  9  5  2  0  0  0  0
 10  2  2  0  0  0  0
 11  7  2  0  0  0  0
 12  7  1  0  0  0  0
 13  9  1  0  0  0  0
 14  8  1  0  0  0  0
 15 16  1  0  0  0  0
 16 12  2  0  0  0  0
 17 11  1  0  0  0  0
 18 13  1  0  0  0  0
 19 15  1  0  0  0  0
 20 19  1  0  0  0  0
 15 17  2  0  0  0  0
  5  3  1  0  0  0  0
 13 14  2  0  0  0  0
M  END
>  <IDNUMBER>
F3139-1207

>  <Chemical_Name>
7-hydroxy-3-(4-methoxyphenyl)-4H-chromen-4-one

>  <PriceCoeff>
1.00

>  <CAS>
485-72-3

>  <MW>
268.26

>  <Description>
solid

>  <FSP3>
0.06

>  <clogP>
2.64

>  <TPSA>
55.76

>  <Acceptor>
4

>  <Donor>
1

>  <RotBonds>
2

>  <HAC>
20

>  <Collection>
General

$$$$
F3139-1236
  Mrv2219 10102508112D          

 28 31  0  0  0  0            999 V2000
    4.8509   -2.3004    0.0000 C   0  0  0  0  0  0  0  0  0  0  0  0
    4.1258   -2.7130    0.0000 C   0  0  0  0  0  0  0  0  0  0  0  0
    3.4048   -2.3004    0.0000 C   0  0  0  0  0  0  0  0  0  0  0  0
    4.8509   -1.4670    0.0000 C   0  0  0  0  0  0  0  0  0  0  0  0
    3.4131   -1.4670    0.0000 C   0  0  0  0  0  0  0  0  0  0  0  0
    4.1300   -1.0419    0.0000 O   0  0  0  0  0  0  0  0  0  0  0  0
    0.5501   -1.4628    0.0000 C   0  0  0  0  0  0  0  0  0  0  0  0
    2.6922   -1.0544    0.0000 C   0  0  0  0  0  0  0  0  0  0  0  0
    1.2669   -1.0544    0.0000 O   0  0  0  0  0  0  0  0  0  0  0  0
   -0.1625   -1.0502    0.0000 C   0  0  0  0  0  0  0  0  0  0  0  0
    2.6922   -2.7047    0.0000 C   0  0  0  0  0  0  0  0  0  0  0  0
    5.5636   -2.7172    0.0000 C   0  0  0  0  0  0  0  0  0  0  0  0
    1.9796   -1.4670    0.0000 C   0  0  0  0  0  0  0  0  0  0  0  0
    4.1258   -3.5382    0.0000 O   0  0  0  0  0  0  0  0  0  0  0  0
    0.5501   -2.2879    0.0000 O   0  0  0  0  0  0  0  0  0  0  0  0
   -0.8710   -1.4628    0.0000 C   0  0  0  0  0  0  0  0  0  0  0  0
    1.9796   -2.2921    0.0000 C   0  0  0  0  0  0  0  0  0  0  0  0
   -1.5878   -1.0544    0.0000 C   0  0  0  0  0  0  0  0  0  0  0  0
   -2.2962   -1.4670    0.0000 O   0  0  0  0  0  0  0  0  0  0  0  0
   -0.1583   -0.2167    0.0000 C   0  0  0  0  0  0  0  0  0  0  0  0
   -0.8710    0.1875    0.0000 C   0  0  0  0  0  0  0  0  0  0  0  0
    5.5552   -3.5424    0.0000 C   0  0  0  0  0  0  0  0  0  0  0  0
    6.2679   -2.3046    0.0000 C   0  0  0  0  0  0  0  0  0  0  0  0
   -1.5878   -0.2167    0.0000 C   0  0  0  0  0  0  0  0  0  0  0  0
   -2.2962   -2.2921    0.0000 C   0  0  0  0  0  0  0  0  0  0  0  0
    6.9805   -2.7172    0.0000 C   0  0  0  0  0  0  0  0  0  0  0  0
    6.2679   -3.9549    0.0000 C   0  0  0  0  0  0  0  0  0  0  0  0
    6.9805   -3.5424    0.0000 C   0  0  0  0  0  0  0  0  0  0  0  0
  2  1  1  0  0  0  0
  3  2  1  0  0  0  0
  4  1  2  0  0  0  0
  5  6  1  0  0  0  0
  6  4  1  0  0  0  0
  7  9  1  0  0  0  0
  8  5  2  0  0  0  0
  9 13  1  0  0  0  0
 10  7  1  0  0  0  0
 11  3  2  0  0  0  0
 12  1  1  0  0  0  0
 13  8  1  0  0  0  0
 14  2  2  0  0  0  0
 15  7  2  0  0  0  0
 16 10  1  0  0  0  0
 17 11  1  0  0  0  0
 18 16  2  0  0  0  0
 19 18  1  0  0  0  0
 20 10  2  0  0  0  0
 21 20  1  0  0  0  0
 22 12  2  0  0  0  0
 23 12  1  0  0  0  0
 24 21  2  0  0  0  0
 25 19  1  0  0  0  0
 26 23  2  0  0  0  0
 27 22  1  0  0  0  0
 28 26  1  0  0  0  0
  3  5  1  0  0  0  0
 28 27  2  0  0  0  0
 17 13  2  0  0  0  0
 24 18  1  0  0  0  0
M  END
>  <IDNUMBER>
F3139-1236

>  <Chemical_Name>
4-oxo-3-phenyl-4H-chromen-7-yl 3-methoxybenzoate

>  <PriceCoeff>
1.00

>  <CAS>
451451-42-6

>  <MW>
372.37

>  <Description>
solid

>  <FSP3>
0.04

>  <clogP>
4.82

>  <TPSA>
61.83

>  <Acceptor>
5

>  <Donor>
0

>  <RotBonds>
5

>  <HAC>
28

>  <Collection>
General

$$$$
F3139-1241
  Mrv2219 10102508112D          

 28 31  0  0  0  0            999 V2000
    4.8509   -2.3004    0.0000 C   0  0  0  0  0  0  0  0  0  0  0  0
    4.1258   -2.7130    0.0000 C   0  0  0  0  0  0  0  0  0  0  0  0
    3.4048   -2.3004    0.0000 C   0  0  0  0  0  0  0  0  0  0  0  0
    0.5501   -1.4628    0.0000 C   0  0  0  0  0  0  0  0  0  0  0  0
    4.8509   -1.4670    0.0000 C   0  0  0  0  0  0  0  0  0  0  0  0
   -0.1625   -1.0502    0.0000 C   0  0  0  0  0  0  0  0  0  0  0  0
    3.4131   -1.4670    0.0000 C   0  0  0  0  0  0  0  0  0  0  0  0
    4.1300   -1.0419    0.0000 O   0  0  0  0  0  0  0  0  0  0  0  0
    1.2669   -1.0544    0.0000 O   0  0  0  0  0  0  0  0  0  0  0  0
    2.6922   -1.0544    0.0000 C   0  0  0  0  0  0  0  0  0  0  0  0
    2.6922   -2.7047    0.0000 C   0  0  0  0  0  0  0  0  0  0  0  0
    5.5636   -2.7172    0.0000 C   0  0  0  0  0  0  0  0  0  0  0  0
    1.9796   -1.4670    0.0000 C   0  0  0  0  0  0  0  0  0  0  0  0
    4.1258   -3.5382    0.0000 O   0  0  0  0  0  0  0  0  0  0  0  0
   -0.1583   -0.2167    0.0000 C   0  0  0  0  0  0  0  0  0  0  0  0
    0.5501   -2.2879    0.0000 O   0  0  0  0  0  0  0  0  0  0  0  0
    1.9796   -2.2921    0.0000 C   0  0  0  0  0  0  0  0  0  0  0  0
   -0.8710   -1.4628    0.0000 C   0  0  0  0  0  0  0  0  0  0  0  0
    0.5626    0.1833    0.0000 O   0  0  0  0  0  0  0  0  0  0  0  0
    5.5552   -3.5424    0.0000 C   0  0  0  0  0  0  0  0  0  0  0  0
    6.2679   -2.3046    0.0000 C   0  0  0  0  0  0  0  0  0  0  0  0
   -0.8710    0.1875    0.0000 C   0  0  0  0  0  0  0  0  0  0  0  0
    0.5626    1.0085    0.0000 C   0  0  0  0  0  0  0  0  0  0  0  0
   -1.5878   -1.0544    0.0000 C   0  0  0  0  0  0  0  0  0  0  0  0
    6.9805   -2.7172    0.0000 C   0  0  0  0  0  0  0  0  0  0  0  0
   -1.5878   -0.2167    0.0000 C   0  0  0  0  0  0  0  0  0  0  0  0
    6.2679   -3.9549    0.0000 C   0  0  0  0  0  0  0  0  0  0  0  0
    6.9805   -3.5424    0.0000 C   0  0  0  0  0  0  0  0  0  0  0  0
  2  1  1  0  0  0  0
  3  2  1  0  0  0  0
  4  9  1  0  0  0  0
  5  1  2  0  0  0  0
  6  4  1  0  0  0  0
  7  8  1  0  0  0  0
  8  5  1  0  0  0  0
  9 13  1  0  0  0  0
 10  7  2  0  0  0  0
 11  3  2  0  0  0  0
 12  1  1  0  0  0  0
 13 10  1  0  0  0  0
 14  2  2  0  0  0  0
 15  6  2  0  0  0  0
 16  4  2  0  0  0  0
 17 11  1  0  0  0  0
 18  6  1  0  0  0  0
 19 15  1  0  0  0  0
 20 12  2  0  0  0  0
 21 12  1  0  0  0  0
 22 15  1  0  0  0  0
 23 19  1  0  0  0  0
 24 18  2  0  0  0  0
 25 21  2  0  0  0  0
 26 24  1  0  0  0  0
 27 20  1  0  0  0  0
 28 25  1  0  0  0  0
  3  7  1  0  0  0  0
 28 27  2  0  0  0  0
 17 13  2  0  0  0  0
 26 22  2  0  0  0  0
M  END
>  <IDNUMBER>
F3139-1241

>  <Chemical_Name>
4-oxo-3-phenyl-4H-chromen-7-yl 2-methoxybenzoate

>  <PriceCoeff>
1.00

>  <CAS>
449740-15-2

>  <MW>
372.37

>  <Description>
solid

>  <FSP3>
0.04

>  <clogP>
4.58

>  <TPSA>
61.83

>  <Acceptor>
5

>  <Donor>
0

>  <RotBonds>
5

>  <HAC>
28

>  <Collection>
General

$$$$
F3139-1289
  Mrv2219 10102508112D          

 34 38  0  0  0  0            999 V2000
    3.9750   -2.1417    0.0000 C   0  0  0  0  0  0  0  0  0  0  0  0
    2.5417   -2.1417    0.0000 C   0  0  0  0  0  0  0  0  0  0  0  0
    3.2542   -2.5542    0.0000 C   0  0  0  0  0  0  0  0  0  0  0  0
    3.9750   -1.3167    0.0000 C   0  0  0  0  0  0  0  0  0  0  0  0
    2.5417   -1.3167    0.0000 C   0  0  0  0  0  0  0  0  0  0  0  0
    4.6875   -2.5625    0.0000 C   0  0  0  0  0  0  0  0  0  0  0  0
    3.2542   -0.9042    0.0000 O   0  0  0  0  0  0  0  0  0  0  0  0
    1.8292   -2.5542    0.0000 C   0  0  0  0  0  0  0  0  0  0  0  0
    1.8292   -0.9042    0.0000 C   0  0  0  0  0  0  0  0  0  0  0  0
    1.1167   -1.3250    0.0000 C   0  0  0  0  0  0  0  0  0  0  0  0
    6.1167   -2.5542    0.0000 C   0  0  0  0  0  0  0  0  0  0  0  0
    1.1167   -2.1417    0.0000 C   0  0  0  0  0  0  0  0  0  0  0  0
    5.4042   -2.1417    0.0000 C   0  0  0  0  0  0  0  0  0  0  0  0
    6.1167   -3.3875    0.0000 C   0  0  0  0  0  0  0  0  0  0  0  0
   -0.3208    0.3333    0.0000 C   0  0  0  0  0  0  0  0  0  0  0  0
    0.3917   -0.9042    0.0000 O   0  0  0  0  0  0  0  0  0  0  0  0
    3.2542   -3.3792    0.0000 O   0  0  0  0  0  0  0  0  0  0  0  0
    6.7625   -2.0417    0.0000 O   0  0  0  0  0  0  0  0  0  0  0  0
    4.6875   -3.3875    0.0000 C   0  0  0  0  0  0  0  0  0  0  0  0
    6.7625   -3.9000    0.0000 O   0  0  0  0  0  0  0  0  0  0  0  0
    0.3917   -0.0792    0.0000 C   0  0  0  0  0  0  0  0  0  0  0  0
    5.4000   -3.8000    0.0000 C   0  0  0  0  0  0  0  0  0  0  0  0
   -0.3208    1.1583    0.0000 O   0  0  0  0  0  0  0  0  0  0  0  0
   -1.0333   -0.0792    0.0000 C   0  0  0  0  0  0  0  0  0  0  0  0
    7.9167   -2.9667    0.0000 C   0  0  0  0  0  0  0  0  0  0  0  0
    7.5625   -2.2292    0.0000 C   0  0  0  0  0  0  0  0  0  0  0  0
    7.5625   -3.7167    0.0000 C   0  0  0  0  0  0  0  0  0  0  0  0
    0.4000   -2.5542    0.0000 C   0  0  0  0  0  0  0  0  0  0  0  0
   -1.7500    0.3333    0.0000 C   0  0  0  0  0  0  0  0  0  0  0  0
   -1.0333   -0.9042    0.0000 C   0  0  0  0  0  0  0  0  0  0  0  0
    0.3917   -3.3792    0.0000 C   0  0  0  0  0  0  0  0  0  0  0  0
   -1.7458   -1.3167    0.0000 C   0  0  0  0  0  0  0  0  0  0  0  0
   -2.4625   -0.0792    0.0000 C   0  0  0  0  0  0  0  0  0  0  0  0
   -2.4625   -0.9042    0.0000 C   0  0  0  0  0  0  0  0  0  0  0  0
  2  3  1  0  0  0  0
  3  1  1  0  0  0  0
  4  1  2  0  0  0  0
  5  7  1  0  0  0  0
  6  1  1  0  0  0  0
  7  4  1  0  0  0  0
  8  2  2  0  0  0  0
  9  5  2  0  0  0  0
 10  9  1  0  0  0  0
 11 13  2  0  0  0  0
 12  8  1  0  0  0  0
 13  6  1  0  0  0  0
 14 22  2  0  0  0  0
 15 21  1  0  0  0  0
 16 10  1  0  0  0  0
 17  3  2  0  0  0  0
 18 11  1  0  0  0  0
 19  6  2  0  0  0  0
 20 14  1  0  0  0  0
 21 16  1  0  0  0  0
 22 19  1  0  0  0  0
 23 15  2  0  0  0  0
 24 15  1  0  0  0  0
 25 26  1  0  0  0  0
 26 18  1  0  0  0  0
 27 20  1  0  0  0  0
 28 12  1  0  0  0  0
 29 24  2  0  0  0  0
 30 24  1  0  0  0  0
 31 28  1  0  0  0  0
 32 30  2  0  0  0  0
 33 29  1  0  0  0  0
 34 32  1  0  0  0  0
  2  5  1  0  0  0  0
 14 11  1  0  0  0  0
 12 10  2  0  0  0  0
 27 25  1  0  0  0  0
 34 33  2  0  0  0  0
M  END
>  <IDNUMBER>
F3139-1289

>  <Chemical_Name>
3-(3,4-dihydro-2H-1,5-benzodioxepin-7-yl)-6-ethyl-7-(2-oxo-2-phenylethoxy)-4H-chromen-4-one

>  <PriceCoeff>
1.00

>  <CAS>
610763-36-5

>  <MW>
456.49

>  <Description>
solid

>  <FSP3>
0.21

>  <clogP>
5.16

>  <TPSA>
71.06

>  <Acceptor>
6

>  <Donor>
0

>  <RotBonds>
6

>  <HAC>
34

>  <Collection>
General

>  <PPDS>
+

$$$$
F3139-1444
  Mrv2219 10102508112D          

 25 27  0  0  0  0            999 V2000
    1.8917   -6.1125    0.0000 C   0  0  0  0  0  0  0  0  0  0  0  0
    1.1750   -6.5250    0.0000 C   0  0  0  0  0  0  0  0  0  0  0  0
    1.8917   -5.2875    0.0000 C   0  0  0  0  0  0  0  0  0  0  0  0
    0.4625   -6.1125    0.0000 C   0  0  0  0  0  0  0  0  0  0  0  0
    0.4625   -5.2875    0.0000 C   0  0  0  0  0  0  0  0  0  0  0  0
    1.1750   -4.8750    0.0000 O   0  0  0  0  0  0  0  0  0  0  0  0
    2.6042   -6.5250    0.0000 C   0  0  0  0  0  0  0  0  0  0  0  0
    3.3250   -6.1125    0.0000 C   0  0  0  0  0  0  0  0  0  0  0  0
   -0.2500   -4.8750    0.0000 C   0  0  0  0  0  0  0  0  0  0  0  0
   -0.2500   -6.5250    0.0000 C   0  0  0  0  0  0  0  0  0  0  0  0
    4.0375   -6.5250    0.0000 C   0  0  0  0  0  0  0  0  0  0  0  0
    1.1750   -7.3500    0.0000 O   0  0  0  0  0  0  0  0  0  0  0  0
    2.6042   -7.3542    0.0000 C   0  0  0  0  0  0  0  0  0  0  0  0
    4.0292   -7.3500    0.0000 C   0  0  0  0  0  0  0  0  0  0  0  0
    3.3167   -7.7667    0.0000 C   0  0  0  0  0  0  0  0  0  0  0  0
   -0.9708   -5.2875    0.0000 C   0  0  0  0  0  0  0  0  0  0  0  0
   -0.9708   -6.1125    0.0000 C   0  0  0  0  0  0  0  0  0  0  0  0
    2.6042   -4.8750    0.0000 C   0  0  0  0  0  0  0  0  0  0  0  0
    4.7500   -6.1125    0.0000 O   0  0  0  0  0  0  0  0  0  0  0  0
    4.7417   -7.7667    0.0000 O   0  0  0  0  0  0  0  0  0  0  0  0
   -1.6875   -4.8750    0.0000 O   0  0  0  0  0  0  0  0  0  0  0  0
   -2.4083   -5.2792    0.0000 C   0  0  0  0  0  0  0  0  0  0  0  0
    4.7500   -5.2875    0.0000 C   0  0  0  0  0  0  0  0  0  0  0  0
    5.4625   -7.3542    0.0000 C   0  0  0  0  0  0  0  0  0  0  0  0
   -3.1208   -4.8625    0.0000 C   0  0  0  0  0  0  0  0  0  0  0  0
  2  1  1  0  0  0  0
  3  1  2  0  0  0  0
  4  2  1  0  0  0  0
  5  6  1  0  0  0  0
  6  3  1  0  0  0  0
  7  1  1  0  0  0  0
  8  7  1  0  0  0  0
  9  5  2  0  0  0  0
 10  4  2  0  0  0  0
 11  8  2  0  0  0  0
 12  2  2  0  0  0  0
 13  7  2  0  0  0  0
 14 15  2  0  0  0  0
 15 13  1  0  0  0  0
 16  9  1  0  0  0  0
 17 10  1  0  0  0  0
 18  3  1  0  0  0  0
 19 11  1  0  0  0  0
 20 14  1  0  0  0  0
 21 16  1  0  0  0  0
 22 21  1  0  0  0  0
 23 19  1  0  0  0  0
 24 20  1  0  0  0  0
 25 22  1  0  0  0  0
  4  5  1  0  0  0  0
 14 11  1  0  0  0  0
 17 16  2  0  0  0  0
M  END
>  <IDNUMBER>
F3139-1444

>  <Chemical_Name>
3-(3,4-dimethoxyphenyl)-7-ethoxy-2-methyl-4H-chromen-4-one

>  <PriceCoeff>
1.00

>  <CAS>
610762-09-9

>  <MW>
340.37

>  <Description>
solid

>  <FSP3>
0.25

>  <clogP>
3.48

>  <TPSA>
53.99

>  <Acceptor>
5

>  <Donor>
0

>  <RotBonds>
5

>  <HAC>
25

>  <Collection>
General

>  <PPDS>
+

$$$$
F3139-1513
  Mrv2219 10102508112D          

 30 33  0  0  0  0            999 V2000
    2.2839    0.3465    0.0000 C   0  0  0  0  0  0  0  0  0  0  0  0
    1.5657   -0.0668    0.0000 C   0  0  0  0  0  0  0  0  0  0  0  0
    0.8518    0.3465    0.0000 C   0  0  0  0  0  0  0  0  0  0  0  0
    2.2839    1.1732    0.0000 C   0  0  0  0  0  0  0  0  0  0  0  0
    0.8518    1.1732    0.0000 C   0  0  0  0  0  0  0  0  0  0  0  0
    2.9979   -0.0668    0.0000 C   0  0  0  0  0  0  0  0  0  0  0  0
    1.5657    1.5866    0.0000 O   0  0  0  0  0  0  0  0  0  0  0  0
   -2.0167    1.1649    0.0000 C   0  0  0  0  0  0  0  0  0  0  0  0
    0.1378    1.5866    0.0000 C   0  0  0  0  0  0  0  0  0  0  0  0
    3.7119    0.3465    0.0000 C   0  0  0  0  0  0  0  0  0  0  0  0
   -1.3027    1.5866    0.0000 O   0  0  0  0  0  0  0  0  0  0  0  0
    0.1378   -0.0668    0.0000 C   0  0  0  0  0  0  0  0  0  0  0  0
    4.4259   -0.0668    0.0000 C   0  0  0  0  0  0  0  0  0  0  0  0
   -0.5845    1.1649    0.0000 C   0  0  0  0  0  0  0  0  0  0  0  0
    1.5657   -0.8935    0.0000 O   0  0  0  0  0  0  0  0  0  0  0  0
    4.4259   -0.8935    0.0000 C   0  0  0  0  0  0  0  0  0  0  0  0
   -2.0125    0.3340    0.0000 O   0  0  0  0  0  0  0  0  0  0  0  0
    2.9979   -0.8935    0.0000 C   0  0  0  0  0  0  0  0  0  0  0  0
   -2.7306    1.5741    0.0000 C   0  0  0  0  0  0  0  0  0  0  0  0
    3.7119   -1.3069    0.0000 C   0  0  0  0  0  0  0  0  0  0  0  0
   -0.5845    0.3465    0.0000 C   0  0  0  0  0  0  0  0  0  0  0  0
    5.1398    0.3465    0.0000 O   0  0  0  0  0  0  0  0  0  0  0  0
    5.1398   -1.3069    0.0000 O   0  0  0  0  0  0  0  0  0  0  0  0
   -2.7390    2.4008    0.0000 C   0  0  0  0  0  0  0  0  0  0  0  0
   -3.4404    1.1607    0.0000 C   0  0  0  0  0  0  0  0  0  0  0  0
    5.1398    1.1732    0.0000 C   0  0  0  0  0  0  0  0  0  0  0  0
    5.8538   -0.8935    0.0000 C   0  0  0  0  0  0  0  0  0  0  0  0
   -4.1669    1.5615    0.0000 C   0  0  0  0  0  0  0  0  0  0  0  0
   -3.4529    2.8141    0.0000 C   0  0  0  0  0  0  0  0  0  0  0  0
   -4.1669    2.4008    0.0000 C   0  0  0  0  0  0  0  0  0  0  0  0
  2  1  1  0  0  0  0
  3  2  1  0  0  0  0
  4  1  2  0  0  0  0
  5  7  1  0  0  0  0
  6  1  1  0  0  0  0
  7  4  1  0  0  0  0
  8 11  1  0  0  0  0
  9  5  2  0  0  0  0
 10  6  1  0  0  0  0
 11 14  1  0  0  0  0
 12  3  2  0  0  0  0
 13 10  2  0  0  0  0
 14  9  1  0  0  0  0
 15  2  2  0  0  0  0
 16 20  2  0  0  0  0
 17  8  2  0  0  0  0
 18  6  2  0  0  0  0
 19  8  1  0  0  0  0
 20 18  1  0  0  0  0
 21 12  1  0  0  0  0
 22 13  1  0  0  0  0
 23 16  1  0  0  0  0
 24 19  2  0  0  0  0
 25 19  1  0  0  0  0
 26 22  1  0  0  0  0
 27 23  1  0  0  0  0
 28 25  2  0  0  0  0
 29 24  1  0  0  0  0
 30 28  1  0  0  0  0
  3  5  1  0  0  0  0
 16 13  1  0  0  0  0
 21 14  2  0  0  0  0
 30 29  2  0  0  0  0
M  END
>  <IDNUMBER>
F3139-1513

>  <Chemical_Name>
3-(3,4-dimethoxyphenyl)-4-oxo-4H-chromen-7-yl benzoate

>  <PriceCoeff>
1.00

>  <CAS>
637749-68-9

>  <MW>
402.40

>  <Description>
solid

>  <FSP3>
0.08

>  <clogP>
4.31

>  <TPSA>
71.06

>  <Acceptor>
6

>  <Donor>
0

>  <RotBonds>
6

>  <HAC>
30

>  <Collection>
General

>  <PPDS>
+

$$$$
F3139-1525
  Mrv2219 10102508112D          

 28 31  0  0  0  0            999 V2000
    7.8417   -5.1792    0.0000 C   0  0  0  0  0  0  0  0  0  0  0  0
    7.1292   -5.5917    0.0000 C   0  0  0  0  0  0  0  0  0  0  0  0
    6.4167   -5.1792    0.0000 C   0  0  0  0  0  0  0  0  0  0  0  0
    7.8417   -4.3542    0.0000 C   0  0  0  0  0  0  0  0  0  0  0  0
    6.4167   -4.3542    0.0000 C   0  0  0  0  0  0  0  0  0  0  0  0
    7.1292   -3.9417    0.0000 O   0  0  0  0  0  0  0  0  0  0  0  0
    3.5542   -4.3542    0.0000 C   0  0  0  0  0  0  0  0  0  0  0  0
    5.7042   -3.9417    0.0000 C   0  0  0  0  0  0  0  0  0  0  0  0
    4.2667   -3.9417    0.0000 O   0  0  0  0  0  0  0  0  0  0  0  0
    5.7042   -5.5917    0.0000 C   0  0  0  0  0  0  0  0  0  0  0  0
    2.8292   -3.9500    0.0000 C   0  0  0  0  0  0  0  0  0  0  0  0
    8.5542   -5.5875    0.0000 C   0  0  0  0  0  0  0  0  0  0  0  0
    4.9875   -4.3542    0.0000 C   0  0  0  0  0  0  0  0  0  0  0  0
    7.1292   -6.4167    0.0000 O   0  0  0  0  0  0  0  0  0  0  0  0
    3.5625   -5.1875    0.0000 O   0  0  0  0  0  0  0  0  0  0  0  0
    2.1167   -4.3667    0.0000 C   0  0  0  0  0  0  0  0  0  0  0  0
    2.8292   -3.1250    0.0000 C   0  0  0  0  0  0  0  0  0  0  0  0
    4.9875   -5.1792    0.0000 C   0  0  0  0  0  0  0  0  0  0  0  0
    1.3875   -3.1292    0.0000 C   0  0  0  0  0  0  0  0  0  0  0  0
    2.1167   -2.7125    0.0000 C   0  0  0  0  0  0  0  0  0  0  0  0
    1.3917   -3.9625    0.0000 C   0  0  0  0  0  0  0  0  0  0  0  0
    0.6542   -2.7292    0.0000 O   0  0  0  0  0  0  0  0  0  0  0  0
    8.5542   -6.4167    0.0000 C   0  0  0  0  0  0  0  0  0  0  0  0
    9.2667   -5.1792    0.0000 C   0  0  0  0  0  0  0  0  0  0  0  0
   -0.0625   -3.1625    0.0000 C   0  0  0  0  0  0  0  0  0  0  0  0
    9.9792   -5.5875    0.0000 C   0  0  0  0  0  0  0  0  0  0  0  0
    9.2667   -6.8292    0.0000 C   0  0  0  0  0  0  0  0  0  0  0  0
    9.9875   -6.4167    0.0000 C   0  0  0  0  0  0  0  0  0  0  0  0
  2  1  1  0  0  0  0
  3  2  1  0  0  0  0
  4  1  2  0  0  0  0
  5  6  1  0  0  0  0
  6  4  1  0  0  0  0
  7  9  1  0  0  0  0
  8  5  2  0  0  0  0
  9 13  1  0  0  0  0
 10  3  2  0  0  0  0
 11  7  1  0  0  0  0
 12  1  1  0  0  0  0
 13  8  1  0  0  0  0
 14  2  2  0  0  0  0
 15  7  2  0  0  0  0
 16 11  1  0  0  0  0
 17 11  2  0  0  0  0
 18 10  1  0  0  0  0
 19 20  2  0  0  0  0
 20 17  1  0  0  0  0
 21 16  2  0  0  0  0
 22 19  1  0  0  0  0
 23 12  2  0  0  0  0
 24 12  1  0  0  0  0
 25 22  1  0  0  0  0
 26 24  2  0  0  0  0
 27 23  1  0  0  0  0
 28 26  1  0  0  0  0
  3  5  1  0  0  0  0
 28 27  2  0  0  0  0
 18 13  2  0  0  0  0
 19 21  1  0  0  0  0
M  END
>  <IDNUMBER>
F3139-1525

>  <Chemical_Name>
4-oxo-3-phenyl-4H-chromen-7-yl 4-methoxybenzoate

>  <PriceCoeff>
1.00

>  <CAS>
136053-88-8

>  <MW>
372.37

>  <Description>
solid

>  <FSP3>
0.04

>  <clogP>
4.82

>  <TPSA>
61.83

>  <Acceptor>
5

>  <Donor>
0

>  <RotBonds>
5

>  <HAC>
28

>  <Collection>
General

$$$$
F3139-1535
  Mrv2219 10102508112D          

 32 35  0  0  0  0            999 V2000
    7.8292   -2.2667    0.0000 C   0  0  0  0  0  0  0  0  0  0  0  0
    7.1125   -2.6792    0.0000 C   0  0  0  0  0  0  0  0  0  0  0  0
    6.4000   -2.2667    0.0000 C   0  0  0  0  0  0  0  0  0  0  0  0
    7.8292   -1.4417    0.0000 C   0  0  0  0  0  0  0  0  0  0  0  0
    6.4000   -1.4417    0.0000 C   0  0  0  0  0  0  0  0  0  0  0  0
    8.5417   -2.6792    0.0000 C   0  0  0  0  0  0  0  0  0  0  0  0
    7.1125   -1.0292    0.0000 O   0  0  0  0  0  0  0  0  0  0  0  0
    3.5375   -1.4500    0.0000 C   0  0  0  0  0  0  0  0  0  0  0  0
    5.6875   -1.0292    0.0000 C   0  0  0  0  0  0  0  0  0  0  0  0
    9.2542   -2.2667    0.0000 C   0  0  0  0  0  0  0  0  0  0  0  0
    4.2500   -1.0292    0.0000 O   0  0  0  0  0  0  0  0  0  0  0  0
    5.6875   -2.6792    0.0000 C   0  0  0  0  0  0  0  0  0  0  0  0
    9.9667   -2.6792    0.0000 C   0  0  0  0  0  0  0  0  0  0  0  0
    2.8167   -1.0417    0.0000 C   0  0  0  0  0  0  0  0  0  0  0  0
    4.9667   -1.4500    0.0000 C   0  0  0  0  0  0  0  0  0  0  0  0
    7.1125   -3.5042    0.0000 O   0  0  0  0  0  0  0  0  0  0  0  0
    9.9667   -3.5042    0.0000 C   0  0  0  0  0  0  0  0  0  0  0  0
    3.5417   -2.2792    0.0000 O   0  0  0  0  0  0  0  0  0  0  0  0
    8.5417   -3.5042    0.0000 C   0  0  0  0  0  0  0  0  0  0  0  0
    9.2542   -3.9167    0.0000 C   0  0  0  0  0  0  0  0  0  0  0  0
    2.8125   -0.2167    0.0000 C   0  0  0  0  0  0  0  0  0  0  0  0
    2.1000   -1.4625    0.0000 C   0  0  0  0  0  0  0  0  0  0  0  0
    4.9667   -2.2667    0.0000 C   0  0  0  0  0  0  0  0  0  0  0  0
    1.3667   -0.2167    0.0000 C   0  0  0  0  0  0  0  0  0  0  0  0
   10.6750   -2.2667    0.0000 O   0  0  0  0  0  0  0  0  0  0  0  0
    2.1000    0.1958    0.0000 C   0  0  0  0  0  0  0  0  0  0  0  0
    1.3792   -1.0542    0.0000 C   0  0  0  0  0  0  0  0  0  0  0  0
   10.6792   -3.9167    0.0000 O   0  0  0  0  0  0  0  0  0  0  0  0
    0.6375    0.1833    0.0000 O   0  0  0  0  0  0  0  0  0  0  0  0
   10.6750   -1.4417    0.0000 C   0  0  0  0  0  0  0  0  0  0  0  0
   11.3917   -3.5042    0.0000 C   0  0  0  0  0  0  0  0  0  0  0  0
   -0.0833   -0.2542    0.0000 C   0  0  0  0  0  0  0  0  0  0  0  0
  2  1  1  0  0  0  0
  3  2  1  0  0  0  0
  4  1  2  0  0  0  0
  5  7  1  0  0  0  0
  6  1  1  0  0  0  0
  7  4  1  0  0  0  0
  8 11  1  0  0  0  0
  9  5  2  0  0  0  0
 10  6  1  0  0  0  0
 11 15  1  0  0  0  0
 12  3  2  0  0  0  0
 13 10  2  0  0  0  0
 14  8  1  0  0  0  0
 15  9  1  0  0  0  0
 16  2  2  0  0  0  0
 17 20  2  0  0  0  0
 18  8  2  0  0  0  0
 19  6  2  0  0  0  0
 20 19  1  0  0  0  0
 21 14  2  0  0  0  0
 22 14  1  0  0  0  0
 23 12  1  0  0  0  0
 24 27  1  0  0  0  0
 25 13  1  0  0  0  0
 26 21  1  0  0  0  0
 27 22  2  0  0  0  0
 28 17  1  0  0  0  0
 29 24  1  0  0  0  0
 30 25  1  0  0  0  0
 31 28  1  0  0  0  0
 32 29  1  0  0  0  0
  3  5  1  0  0  0  0
 17 13  1  0  0  0  0
 23 15  2  0  0  0  0
 24 26  2  0  0  0  0
M  END
>  <IDNUMBER>
F3139-1535

>  <Chemical_Name>
3-(3,4-dimethoxyphenyl)-4-oxo-4H-chromen-7-yl 4-methoxybenzoate

>  <PriceCoeff>
1.00

>  <CAS>
637749-77-0

>  <MW>
432.42

>  <Description>
solid

>  <FSP3>
0.12

>  <clogP>
4.48

>  <TPSA>
80.29

>  <Acceptor>
7

>  <Donor>
0

>  <RotBonds>
7

>  <HAC>
32

>  <Collection>
General

>  <PPDS>
+

$$$$
F3139-1545
  Mrv2219 10102508112D          

 31 34  0  0  0  0            999 V2000
    2.2375   -2.3292    0.0000 C   0  0  0  0  0  0  0  0  0  0  0  0
    1.5167   -2.7417    0.0000 C   0  0  0  0  0  0  0  0  0  0  0  0
    0.8042   -2.3292    0.0000 C   0  0  0  0  0  0  0  0  0  0  0  0
    2.2375   -1.5042    0.0000 C   0  0  0  0  0  0  0  0  0  0  0  0
    0.8042   -1.5042    0.0000 C   0  0  0  0  0  0  0  0  0  0  0  0
    2.9500   -2.7500    0.0000 C   0  0  0  0  0  0  0  0  0  0  0  0
    1.5167   -1.0917    0.0000 O   0  0  0  0  0  0  0  0  0  0  0  0
   -2.0583   -1.5042    0.0000 C   0  0  0  0  0  0  0  0  0  0  0  0
    0.0917   -1.0917    0.0000 C   0  0  0  0  0  0  0  0  0  0  0  0
    3.6667   -2.3292    0.0000 C   0  0  0  0  0  0  0  0  0  0  0  0
   -1.3458   -1.0917    0.0000 O   0  0  0  0  0  0  0  0  0  0  0  0
    0.0917   -2.7417    0.0000 C   0  0  0  0  0  0  0  0  0  0  0  0
    4.3792   -2.7417    0.0000 C   0  0  0  0  0  0  0  0  0  0  0  0
   -2.7708   -1.0792    0.0000 C   0  0  0  0  0  0  0  0  0  0  0  0
   -0.6208   -1.5125    0.0000 C   0  0  0  0  0  0  0  0  0  0  0  0
    1.5167   -3.5667    0.0000 O   0  0  0  0  0  0  0  0  0  0  0  0
    4.3792   -3.5667    0.0000 C   0  0  0  0  0  0  0  0  0  0  0  0
   -2.0708   -2.3292    0.0000 O   0  0  0  0  0  0  0  0  0  0  0  0
    2.9500   -3.5750    0.0000 C   0  0  0  0  0  0  0  0  0  0  0  0
    3.6625   -3.9875    0.0000 C   0  0  0  0  0  0  0  0  0  0  0  0
   -2.7625   -0.2625    0.0000 C   0  0  0  0  0  0  0  0  0  0  0  0
   -3.4833   -1.4917    0.0000 C   0  0  0  0  0  0  0  0  0  0  0  0
   -0.6208   -2.3292    0.0000 C   0  0  0  0  0  0  0  0  0  0  0  0
   -4.1958   -0.2542    0.0000 C   0  0  0  0  0  0  0  0  0  0  0  0
    5.0917   -2.3292    0.0000 O   0  0  0  0  0  0  0  0  0  0  0  0
   -4.1958   -1.0792    0.0000 C   0  0  0  0  0  0  0  0  0  0  0  0
   -3.4750    0.1583    0.0000 C   0  0  0  0  0  0  0  0  0  0  0  0
   -4.9083    0.1625    0.0000 Cl  0  0  0  0  0  0  0  0  0  0  0  0
    5.0917   -3.9875    0.0000 O   0  0  0  0  0  0  0  0  0  0  0  0
    5.0917   -1.5042    0.0000 C   0  0  0  0  0  0  0  0  0  0  0  0
    5.8125   -3.5792    0.0000 C   0  0  0  0  0  0  0  0  0  0  0  0
  2  1  1  0  0  0  0
  3  2  1  0  0  0  0
  4  1  2  0  0  0  0
  5  7  1  0  0  0  0
  6  1  1  0  0  0  0
  7  4  1  0  0  0  0
  8 11  1  0  0  0  0
  9  5  2  0  0  0  0
 10  6  1  0  0  0  0
 11 15  1  0  0  0  0
 12  3  2  0  0  0  0
 13 10  2  0  0  0  0
 14  8  1  0  0  0  0
 15  9  1  0  0  0  0
 16  2  2  0  0  0  0
 17 20  2  0  0  0  0
 18  8  2  0  0  0  0
 19  6  2  0  0  0  0
 20 19  1  0  0  0  0
 21 14  2  0  0  0  0
 22 14  1  0  0  0  0
 23 12  1  0  0  0  0
 24 26  1  0  0  0  0
 25 13  1  0  0  0  0
 26 22  2  0  0  0  0
 27 21  1  0  0  0  0
 28 24  1  0  0  0  0
 29 17  1  0  0  0  0
 30 25  1  0  0  0  0
 31 29  1  0  0  0  0
  3  5  1  0  0  0  0
 17 13  1  0  0  0  0
 23 15  2  0  0  0  0
 24 27  2  0  0  0  0
M  END
>  <IDNUMBER>
F3139-1545

>  <Chemical_Name>
3-(3,4-dimethoxyphenyl)-4-oxo-4H-chromen-7-yl 4-chlorobenzoate

>  <PriceCoeff>
1.00

>  <CAS>
637749-81-6

>  <MW>
436.84

>  <Description>
solid

>  <FSP3>
0.08

>  <clogP>
5.02

>  <TPSA>
71.06

>  <Acceptor>
6

>  <Donor>
0

>  <RotBonds>
6

>  <HAC>
31

>  <Collection>
General

$$$$
F3139-1555
  Mrv2219 10102508112D          

 32 35  0  0  0  0            999 V2000
    1.6500    0.0958    0.0000 C   0  0  0  0  0  0  0  0  0  0  0  0
    0.9292   -0.3167    0.0000 C   0  0  0  0  0  0  0  0  0  0  0  0
    0.2167    0.0958    0.0000 C   0  0  0  0  0  0  0  0  0  0  0  0
    1.6500    0.9208    0.0000 C   0  0  0  0  0  0  0  0  0  0  0  0
    0.2167    0.9208    0.0000 C   0  0  0  0  0  0  0  0  0  0  0  0
    2.3625   -0.3167    0.0000 C   0  0  0  0  0  0  0  0  0  0  0  0
    0.9292    1.3333    0.0000 O   0  0  0  0  0  0  0  0  0  0  0  0
   -2.6458    0.9208    0.0000 C   0  0  0  0  0  0  0  0  0  0  0  0
   -0.4958    1.3333    0.0000 C   0  0  0  0  0  0  0  0  0  0  0  0
    3.0792    0.0958    0.0000 C   0  0  0  0  0  0  0  0  0  0  0  0
   -1.9333    1.3333    0.0000 O   0  0  0  0  0  0  0  0  0  0  0  0
   -3.3583    1.3333    0.0000 C   0  0  0  0  0  0  0  0  0  0  0  0
   -0.4958   -0.3167    0.0000 C   0  0  0  0  0  0  0  0  0  0  0  0
    3.7917   -0.3167    0.0000 C   0  0  0  0  0  0  0  0  0  0  0  0
   -1.2083    0.9208    0.0000 C   0  0  0  0  0  0  0  0  0  0  0  0
    0.9292   -1.1417    0.0000 O   0  0  0  0  0  0  0  0  0  0  0  0
    3.7917   -1.1417    0.0000 C   0  0  0  0  0  0  0  0  0  0  0  0
   -2.6375    0.0958    0.0000 O   0  0  0  0  0  0  0  0  0  0  0  0
    2.3625   -1.1417    0.0000 C   0  0  0  0  0  0  0  0  0  0  0  0
   -4.0708    0.9083    0.0000 C   0  0  0  0  0  0  0  0  0  0  0  0
    3.0750   -1.5542    0.0000 C   0  0  0  0  0  0  0  0  0  0  0  0
   -1.2083    0.0958    0.0000 C   0  0  0  0  0  0  0  0  0  0  0  0
   -4.7833    1.3125    0.0000 C   0  0  0  0  0  0  0  0  0  0  0  0
    4.5125    0.0958    0.0000 O   0  0  0  0  0  0  0  0  0  0  0  0
    4.5042   -1.5625    0.0000 O   0  0  0  0  0  0  0  0  0  0  0  0
   -5.4958    0.8958    0.0000 O   0  0  0  0  0  0  0  0  0  0  0  0
   -3.3625    2.1500    0.0000 C   0  0  0  0  0  0  0  0  0  0  0  0
   -4.0833    2.5583    0.0000 C   0  0  0  0  0  0  0  0  0  0  0  0
   -4.7958    2.1458    0.0000 C   0  0  0  0  0  0  0  0  0  0  0  0
    4.5042    0.9208    0.0000 C   0  0  0  0  0  0  0  0  0  0  0  0
    5.2250   -1.1500    0.0000 C   0  0  0  0  0  0  0  0  0  0  0  0
   -5.4875    0.0708    0.0000 C   0  0  0  0  0  0  0  0  0  0  0  0
  2  1  1  0  0  0  0
  3  2  1  0  0  0  0
  4  1  2  0  0  0  0
  5  7  1  0  0  0  0
  6  1  1  0  0  0  0
  7  4  1  0  0  0  0
  8 11  1  0  0  0  0
  9  5  2  0  0  0  0
 10  6  1  0  0  0  0
 11 15  1  0  0  0  0
 12  8  1  0  0  0  0
 13  3  2  0  0  0  0
 14 10  2  0  0  0  0
 15  9  1  0  0  0  0
 16  2  2  0  0  0  0
 17 21  2  0  0  0  0
 18  8  2  0  0  0  0
 19  6  2  0  0  0  0
 20 12  1  0  0  0  0
 21 19  1  0  0  0  0
 22 13  1  0  0  0  0
 23 20  2  0  0  0  0
 24 14  1  0  0  0  0
 25 17  1  0  0  0  0
 26 23  1  0  0  0  0
 27 12  2  0  0  0  0
 28 27  1  0  0  0  0
 29 28  2  0  0  0  0
 30 24  1  0  0  0  0
 31 25  1  0  0  0  0
 32 26  1  0  0  0  0
  3  5  1  0  0  0  0
 17 14  1  0  0  0  0
 22 15  2  0  0  0  0
 29 23  1  0  0  0  0
M  END
>  <IDNUMBER>
F3139-1555

>  <Chemical_Name>
3-(3,4-dimethoxyphenyl)-4-oxo-4H-chromen-7-yl 3-methoxybenzoate

>  <PriceCoeff>
1.00

>  <CAS>
637749-87-2

>  <MW>
432.42

>  <Description>
solid

>  <FSP3>
0.12

>  <clogP>
4.48

>  <TPSA>
80.29

>  <Acceptor>
7

>  <Donor>
0

>  <RotBonds>
7

>  <HAC>
32

>  <Collection>
General

$$$$
F3139-1570
  Mrv2219 10102508112D          

 30 33  0  0  0  0            999 V2000
    2.2375   -2.3292    0.0000 C   0  0  0  0  0  0  0  0  0  0  0  0
    1.5167   -2.7417    0.0000 C   0  0  0  0  0  0  0  0  0  0  0  0
    0.8042   -2.3292    0.0000 C   0  0  0  0  0  0  0  0  0  0  0  0
    2.2375   -1.5042    0.0000 C   0  0  0  0  0  0  0  0  0  0  0  0
    0.8042   -1.5042    0.0000 C   0  0  0  0  0  0  0  0  0  0  0  0
    1.5167   -1.0917    0.0000 O   0  0  0  0  0  0  0  0  0  0  0  0
    2.9500   -2.7417    0.0000 C   0  0  0  0  0  0  0  0  0  0  0  0
    0.0917   -1.0917    0.0000 C   0  0  0  0  0  0  0  0  0  0  0  0
   -2.0583   -1.5042    0.0000 C   0  0  0  0  0  0  0  0  0  0  0  0
    0.0917   -2.7417    0.0000 C   0  0  0  0  0  0  0  0  0  0  0  0
   -2.7708   -1.0792    0.0000 C   0  0  0  0  0  0  0  0  0  0  0  0
   -3.4875   -1.4917    0.0000 C   0  0  0  0  0  0  0  0  0  0  0  0
    1.5167   -3.5667    0.0000 O   0  0  0  0  0  0  0  0  0  0  0  0
   -0.6208   -1.5125    0.0000 C   0  0  0  0  0  0  0  0  0  0  0  0
   -1.3458   -1.0917    0.0000 O   0  0  0  0  0  0  0  0  0  0  0  0
    2.9500   -3.5667    0.0000 C   0  0  0  0  0  0  0  0  0  0  0  0
   -2.0708   -2.3292    0.0000 O   0  0  0  0  0  0  0  0  0  0  0  0
   -0.6208   -2.3292    0.0000 C   0  0  0  0  0  0  0  0  0  0  0  0
   -4.2083   -1.0667    0.0000 C   0  0  0  0  0  0  0  0  0  0  0  0
    2.2375   -3.9792    0.0000 O   0  0  0  0  0  0  0  0  0  0  0  0
    3.6625   -2.3292    0.0000 C   0  0  0  0  0  0  0  0  0  0  0  0
    3.6625   -3.9792    0.0000 C   0  0  0  0  0  0  0  0  0  0  0  0
   -4.9208   -1.4750    0.0000 C   0  0  0  0  0  0  0  0  0  0  0  0
   -4.1958   -0.2417    0.0000 C   0  0  0  0  0  0  0  0  0  0  0  0
    2.2375   -4.8042    0.0000 C   0  0  0  0  0  0  0  0  0  0  0  0
    4.3750   -2.7417    0.0000 C   0  0  0  0  0  0  0  0  0  0  0  0
    4.3792   -3.5667    0.0000 C   0  0  0  0  0  0  0  0  0  0  0  0
   -5.6250   -1.0542    0.0000 C   0  0  0  0  0  0  0  0  0  0  0  0
   -4.9083    0.1750    0.0000 C   0  0  0  0  0  0  0  0  0  0  0  0
   -5.6208   -0.2292    0.0000 C   0  0  0  0  0  0  0  0  0  0  0  0
  2  1  1  0  0  0  0
  3  2  1  0  0  0  0
  4  1  2  0  0  0  0
  5  6  1  0  0  0  0
  6  4  1  0  0  0  0
  7  1  1  0  0  0  0
  8  5  2  0  0  0  0
  9 15  1  0  0  0  0
 10  3  2  0  0  0  0
 11  9  1  0  0  0  0
 12 11  2  0  0  0  0
 13  2  2  0  0  0  0
 14  8  1  0  0  0  0
 15 14  1  0  0  0  0
 16  7  2  0  0  0  0
 17  9  2  0  0  0  0
 18 10  1  0  0  0  0
 19 12  1  0  0  0  0
 20 16  1  0  0  0  0
 21  7  1  0  0  0  0
 22 16  1  0  0  0  0
 23 19  1  0  0  0  0
 24 19  2  0  0  0  0
 25 20  1  0  0  0  0
 26 21  2  0  0  0  0
 27 26  1  0  0  0  0
 28 23  2  0  0  0  0
 29 24  1  0  0  0  0
 30 29  2  0  0  0  0
  3  5  1  0  0  0  0
 27 22  2  0  0  0  0
 18 14  2  0  0  0  0
 30 28  1  0  0  0  0
M  END
>  <IDNUMBER>
F3139-1570

>  <Chemical_Name>
3-(2-methoxyphenyl)-4-oxo-4H-chromen-7-yl (2E)-3-phenylprop-2-enoate

>  <PriceCoeff>
1.00

>  <CAS>
1164469-14-0

>  <MW>
398.41

>  <Description>
solid

>  <FSP3>
0.04

>  <clogP>
4.50

>  <TPSA>
61.83

>  <Acceptor>
5

>  <Donor>
0

>  <RotBonds>
6

>  <HAC>
30

>  <Collection>
General

>  <PPDS>
+

$$$$
F3139-1573
  Mrv2219 10102508112D          

 32 35  0  0  0  0            999 V2000
    2.2375   -2.3292    0.0000 C   0  0  0  0  0  0  0  0  0  0  0  0
    1.5167   -2.7417    0.0000 C   0  0  0  0  0  0  0  0  0  0  0  0
    0.8042   -2.3292    0.0000 C   0  0  0  0  0  0  0  0  0  0  0  0
    2.2375   -1.5042    0.0000 C   0  0  0  0  0  0  0  0  0  0  0  0
    0.8042   -1.5042    0.0000 C   0  0  0  0  0  0  0  0  0  0  0  0
    2.9500   -2.7417    0.0000 C   0  0  0  0  0  0  0  0  0  0  0  0
    1.5167   -1.0917    0.0000 O   0  0  0  0  0  0  0  0  0  0  0  0
    0.0917   -1.0917    0.0000 C   0  0  0  0  0  0  0  0  0  0  0  0
    3.6625   -2.3292    0.0000 C   0  0  0  0  0  0  0  0  0  0  0  0
   -2.0583   -1.5042    0.0000 C   0  0  0  0  0  0  0  0  0  0  0  0
    0.0917   -2.7417    0.0000 C   0  0  0  0  0  0  0  0  0  0  0  0
    4.3750   -2.7417    0.0000 C   0  0  0  0  0  0  0  0  0  0  0  0
   -2.7708   -1.0792    0.0000 C   0  0  0  0  0  0  0  0  0  0  0  0
   -3.4875   -1.4917    0.0000 C   0  0  0  0  0  0  0  0  0  0  0  0
    1.5167   -3.5667    0.0000 O   0  0  0  0  0  0  0  0  0  0  0  0
   -0.6208   -1.5125    0.0000 C   0  0  0  0  0  0  0  0  0  0  0  0
    4.3792   -3.5667    0.0000 C   0  0  0  0  0  0  0  0  0  0  0  0
   -1.3458   -1.0917    0.0000 O   0  0  0  0  0  0  0  0  0  0  0  0
    2.9500   -3.5667    0.0000 C   0  0  0  0  0  0  0  0  0  0  0  0
   -2.0708   -2.3292    0.0000 O   0  0  0  0  0  0  0  0  0  0  0  0
    3.6625   -3.9792    0.0000 C   0  0  0  0  0  0  0  0  0  0  0  0
   -0.6208   -2.3292    0.0000 C   0  0  0  0  0  0  0  0  0  0  0  0
   -4.2083   -1.0667    0.0000 C   0  0  0  0  0  0  0  0  0  0  0  0
    5.0792   -2.3292    0.0000 O   0  0  0  0  0  0  0  0  0  0  0  0
    5.0875   -3.9792    0.0000 O   0  0  0  0  0  0  0  0  0  0  0  0
   -4.1958   -0.2417    0.0000 C   0  0  0  0  0  0  0  0  0  0  0  0
   -4.9208   -1.4750    0.0000 C   0  0  0  0  0  0  0  0  0  0  0  0
    5.0792   -1.5042    0.0000 C   0  0  0  0  0  0  0  0  0  0  0  0
    5.8042   -3.5667    0.0000 C   0  0  0  0  0  0  0  0  0  0  0  0
   -5.6250   -1.0542    0.0000 C   0  0  0  0  0  0  0  0  0  0  0  0
   -4.9083    0.1750    0.0000 C   0  0  0  0  0  0  0  0  0  0  0  0
   -5.6208   -0.2292    0.0000 C   0  0  0  0  0  0  0  0  0  0  0  0
  2  1  1  0  0  0  0
  3  2  1  0  0  0  0
  4  1  2  0  0  0  0
  5  7  1  0  0  0  0
  6  1  1  0  0  0  0
  7  4  1  0  0  0  0
  8  5  2  0  0  0  0
  9  6  1  0  0  0  0
 10 18  1  0  0  0  0
 11  3  2  0  0  0  0
 12  9  2  0  0  0  0
 13 10  1  0  0  0  0
 14 13  2  0  0  0  0
 15  2  2  0  0  0  0
 16  8  1  0  0  0  0
 17 21  2  0  0  0  0
 18 16  1  0  0  0  0
 19  6  2  0  0  0  0
 20 10  2  0  0  0  0
 21 19  1  0  0  0  0
 22 11  1  0  0  0  0
 23 14  1  0  0  0  0
 24 12  1  0  0  0  0
 25 17  1  0  0  0  0
 26 23  2  0  0  0  0
 27 23  1  0  0  0  0
 28 24  1  0  0  0  0
 29 25  1  0  0  0  0
 30 27  2  0  0  0  0
 31 26  1  0  0  0  0
 32 30  1  0  0  0  0
  3  5  1  0  0  0  0
 17 12  1  0  0  0  0
 22 16  2  0  0  0  0
 32 31  2  0  0  0  0
M  END
>  <IDNUMBER>
F3139-1573

>  <Chemical_Name>
3-(3,4-dimethoxyphenyl)-4-oxo-4H-chromen-7-yl (2E)-3-phenylprop-2-enoate

>  <PriceCoeff>
1.00

>  <CAS>
637749-97-4

>  <MW>
428.43

>  <Description>
solid

>  <FSP3>
0.08

>  <clogP>
4.79

>  <TPSA>
71.06

>  <Acceptor>
6

>  <Donor>
0

>  <RotBonds>
7

>  <HAC>
32

>  <Collection>
General

$$$$
F3139-1603
  Mrv2219 10102508112D          

 30 33  0  0  0  0            999 V2000
    3.9582   -1.5449    0.0000 C   0  0  0  0  0  0  0  0  0  0  0  0
    3.2359   -1.9583    0.0000 C   0  0  0  0  0  0  0  0  0  0  0  0
    2.5219   -1.5449    0.0000 C   0  0  0  0  0  0  0  0  0  0  0  0
    3.9582   -0.7182    0.0000 C   0  0  0  0  0  0  0  0  0  0  0  0
    2.5219   -0.7182    0.0000 C   0  0  0  0  0  0  0  0  0  0  0  0
    4.6722   -1.9583    0.0000 C   0  0  0  0  0  0  0  0  0  0  0  0
    3.2359   -0.3048    0.0000 O   0  0  0  0  0  0  0  0  0  0  0  0
    5.3903   -1.5449    0.0000 C   0  0  0  0  0  0  0  0  0  0  0  0
    1.8079   -1.9583    0.0000 C   0  0  0  0  0  0  0  0  0  0  0  0
    1.8079   -0.3048    0.0000 C   0  0  0  0  0  0  0  0  0  0  0  0
    6.1043   -1.9583    0.0000 C   0  0  0  0  0  0  0  0  0  0  0  0
    3.2359   -2.7850    0.0000 O   0  0  0  0  0  0  0  0  0  0  0  0
    6.1043   -2.7850    0.0000 C   0  0  0  0  0  0  0  0  0  0  0  0
    4.6722   -2.7850    0.0000 C   0  0  0  0  0  0  0  0  0  0  0  0
    5.3861   -3.1983    0.0000 C   0  0  0  0  0  0  0  0  0  0  0  0
    1.0940   -0.7182    0.0000 C   0  0  0  0  0  0  0  0  0  0  0  0
    0.3675   -0.3048    0.0000 O   0  0  0  0  0  0  0  0  0  0  0  0
    1.0940   -1.5449    0.0000 C   0  0  0  0  0  0  0  0  0  0  0  0
   -1.0605   -0.2923    0.0000 C   0  0  0  0  0  0  0  0  0  0  0  0
   -0.3465   -0.7140    0.0000 C   0  0  0  0  0  0  0  0  0  0  0  0
    6.8183   -1.5449    0.0000 O   0  0  0  0  0  0  0  0  0  0  0  0
   -2.4884    0.5094    0.0000 C   0  0  0  0  0  0  0  0  0  0  0  0
    6.8183   -3.2066    0.0000 O   0  0  0  0  0  0  0  0  0  0  0  0
   -1.0522    0.5344    0.0000 C   0  0  0  0  0  0  0  0  0  0  0  0
   -1.7745   -0.7057    0.0000 C   0  0  0  0  0  0  0  0  0  0  0  0
   -2.4884   -0.2923    0.0000 C   0  0  0  0  0  0  0  0  0  0  0  0
   -1.7662    0.9478    0.0000 C   0  0  0  0  0  0  0  0  0  0  0  0
   -3.2024    0.9227    0.0000 C   0  0  0  0  0  0  0  0  0  0  0  0
    6.8183   -0.7182    0.0000 C   0  0  0  0  0  0  0  0  0  0  0  0
    7.5406   -2.7933    0.0000 C   0  0  0  0  0  0  0  0  0  0  0  0
  2  1  1  0  0  0  0
  3  2  1  0  0  0  0
  4  1  2  0  0  0  0
  5  7  1  0  0  0  0
  6  1  1  0  0  0  0
  7  4  1  0  0  0  0
  8  6  1  0  0  0  0
  9  3  2  0  0  0  0
 10  5  2  0  0  0  0
 11  8  2  0  0  0  0
 12  2  2  0  0  0  0
 13 15  2  0  0  0  0
 14  6  2  0  0  0  0
 15 14  1  0  0  0  0
 16 10  1  0  0  0  0
 17 16  1  0  0  0  0
 18  9  1  0  0  0  0
 19 20  1  0  0  0  0
 20 17  1  0  0  0  0
 21 11  1  0  0  0  0
 22 26  1  0  0  0  0
 23 13  1  0  0  0  0
 24 19  2  0  0  0  0
 25 19  1  0  0  0  0
 26 25  2  0  0  0  0
 27 24  1  0  0  0  0
 28 22  1  0  0  0  0
 29 21  1  0  0  0  0
 30 23  1  0  0  0  0
  3  5  1  0  0  0  0
 13 11  1  0  0  0  0
 18 16  2  0  0  0  0
 22 27  2  0  0  0  0
M  END
>  <IDNUMBER>
F3139-1603

>  <Chemical_Name>
3-(3,4-dimethoxyphenyl)-7-[(4-methylphenyl)methoxy]-4H-chromen-4-one

>  <PriceCoeff>
1.00

>  <CAS>
637750-18-6

>  <MW>
402.44

>  <Description>
solid

>  <FSP3>
0.16

>  <clogP>
5.02

>  <TPSA>
53.99

>  <Acceptor>
5

>  <Donor>
0

>  <RotBonds>
6

>  <HAC>
30

>  <Collection>
General

$$$$
F3139-1606
  Mrv2219 10102508112D          

 30 33  0  0  0  0            999 V2000
    3.9582   -1.5449    0.0000 C   0  0  0  0  0  0  0  0  0  0  0  0
    3.2359   -1.9583    0.0000 C   0  0  0  0  0  0  0  0  0  0  0  0
    2.5219   -1.5449    0.0000 C   0  0  0  0  0  0  0  0  0  0  0  0
    3.9582   -0.7182    0.0000 C   0  0  0  0  0  0  0  0  0  0  0  0
    2.5219   -0.7182    0.0000 C   0  0  0  0  0  0  0  0  0  0  0  0
    4.6722   -1.9583    0.0000 C   0  0  0  0  0  0  0  0  0  0  0  0
    3.2359   -0.3048    0.0000 O   0  0  0  0  0  0  0  0  0  0  0  0
    5.3903   -1.5449    0.0000 C   0  0  0  0  0  0  0  0  0  0  0  0
    1.8079   -1.9583    0.0000 C   0  0  0  0  0  0  0  0  0  0  0  0
    1.8079   -0.3048    0.0000 C   0  0  0  0  0  0  0  0  0  0  0  0
    6.1043   -1.9583    0.0000 C   0  0  0  0  0  0  0  0  0  0  0  0
    3.2359   -2.7850    0.0000 O   0  0  0  0  0  0  0  0  0  0  0  0
    6.1043   -2.7850    0.0000 C   0  0  0  0  0  0  0  0  0  0  0  0
    4.6722   -2.7850    0.0000 C   0  0  0  0  0  0  0  0  0  0  0  0
    5.3861   -3.1983    0.0000 C   0  0  0  0  0  0  0  0  0  0  0  0
    1.0940   -0.7182    0.0000 C   0  0  0  0  0  0  0  0  0  0  0  0
    0.3675   -0.3048    0.0000 O   0  0  0  0  0  0  0  0  0  0  0  0
    1.0940   -1.5449    0.0000 C   0  0  0  0  0  0  0  0  0  0  0  0
   -2.4884    0.5094    0.0000 C   0  0  0  0  0  0  0  0  0  0  0  0
   -1.0605   -0.2923    0.0000 C   0  0  0  0  0  0  0  0  0  0  0  0
   -0.3465   -0.7140    0.0000 C   0  0  0  0  0  0  0  0  0  0  0  0
    6.8183   -1.5449    0.0000 O   0  0  0  0  0  0  0  0  0  0  0  0
   -3.2066    0.9144    0.0000 F   0  0  0  0  0  0  0  0  0  0  0  0
    6.8183   -3.2066    0.0000 O   0  0  0  0  0  0  0  0  0  0  0  0
   -1.7662    0.9478    0.0000 C   0  0  0  0  0  0  0  0  0  0  0  0
   -2.4884   -0.2923    0.0000 C   0  0  0  0  0  0  0  0  0  0  0  0
   -1.7745   -0.7057    0.0000 C   0  0  0  0  0  0  0  0  0  0  0  0
   -1.0522    0.5344    0.0000 C   0  0  0  0  0  0  0  0  0  0  0  0
    6.8183   -0.7182    0.0000 C   0  0  0  0  0  0  0  0  0  0  0  0
    7.5406   -2.7933    0.0000 C   0  0  0  0  0  0  0  0  0  0  0  0
  2  1  1  0  0  0  0
  3  2  1  0  0  0  0
  4  1  2  0  0  0  0
  5  7  1  0  0  0  0
  6  1  1  0  0  0  0
  7  4  1  0  0  0  0
  8  6  1  0  0  0  0
  9  3  2  0  0  0  0
 10  5  2  0  0  0  0
 11  8  2  0  0  0  0
 12  2  2  0  0  0  0
 13 15  2  0  0  0  0
 14  6  2  0  0  0  0
 15 14  1  0  0  0  0
 16 10  1  0  0  0  0
 17 16  1  0  0  0  0
 18  9  1  0  0  0  0
 19 25  2  0  0  0  0
 20 21  1  0  0  0  0
 21 17  1  0  0  0  0
 22 11  1  0  0  0  0
 23 19  1  0  0  0  0
 24 13  1  0  0  0  0
 25 28  1  0  0  0  0
 26 27  2  0  0  0  0
 27 20  1  0  0  0  0
 28 20  2  0  0  0  0
 29 22  1  0  0  0  0
 30 24  1  0  0  0  0
  3  5  1  0  0  0  0
 13 11  1  0  0  0  0
 18 16  2  0  0  0  0
 19 26  1  0  0  0  0
M  END
>  <IDNUMBER>
F3139-1606

>  <Chemical_Name>
3-(3,4-dimethoxyphenyl)-7-[(4-fluorophenyl)methoxy]-4H-chromen-4-one

>  <PriceCoeff>
1.00

>  <CAS>
637750-22-2

>  <MW>
406.40

>  <Description>
solid

>  <FSP3>
0.12

>  <clogP>
4.66

>  <TPSA>
53.99

>  <Acceptor>
5

>  <Donor>
0

>  <RotBonds>
6

>  <HAC>
30

>  <Collection>
General

>  <PPDS>
+

$$$$
F3139-1607
  Mrv2219 10102508112D          

 30 33  0  0  0  0            999 V2000
    1.8625   -1.3542    0.0000 C   0  0  0  0  0  0  0  0  0  0  0  0
    1.1417   -1.7667    0.0000 C   0  0  0  0  0  0  0  0  0  0  0  0
    0.4292   -1.3542    0.0000 C   0  0  0  0  0  0  0  0  0  0  0  0
    1.8625   -0.5292    0.0000 C   0  0  0  0  0  0  0  0  0  0  0  0
    0.4292   -0.5292    0.0000 C   0  0  0  0  0  0  0  0  0  0  0  0
    2.5750   -1.7750    0.0000 C   0  0  0  0  0  0  0  0  0  0  0  0
    1.1417   -0.1167    0.0000 O   0  0  0  0  0  0  0  0  0  0  0  0
    3.2917   -1.3542    0.0000 C   0  0  0  0  0  0  0  0  0  0  0  0
   -0.2833   -1.7667    0.0000 C   0  0  0  0  0  0  0  0  0  0  0  0
   -0.2833   -0.1167    0.0000 C   0  0  0  0  0  0  0  0  0  0  0  0
    4.0042   -1.7667    0.0000 C   0  0  0  0  0  0  0  0  0  0  0  0
    1.1417   -2.5917    0.0000 O   0  0  0  0  0  0  0  0  0  0  0  0
    4.0042   -2.6000    0.0000 C   0  0  0  0  0  0  0  0  0  0  0  0
    2.5750   -2.6000    0.0000 C   0  0  0  0  0  0  0  0  0  0  0  0
    3.2875   -3.0125    0.0000 C   0  0  0  0  0  0  0  0  0  0  0  0
   -1.0000   -0.5292    0.0000 C   0  0  0  0  0  0  0  0  0  0  0  0
   -1.7208   -0.1167    0.0000 O   0  0  0  0  0  0  0  0  0  0  0  0
   -0.9958   -1.3542    0.0000 C   0  0  0  0  0  0  0  0  0  0  0  0
   -4.5708    0.7333    0.0000 C   0  0  0  0  0  0  0  0  0  0  0  0
   -3.1500   -0.1042    0.0000 C   0  0  0  0  0  0  0  0  0  0  0  0
   -2.4333   -0.5250    0.0000 C   0  0  0  0  0  0  0  0  0  0  0  0
    4.7250   -1.3542    0.0000 O   0  0  0  0  0  0  0  0  0  0  0  0
   -5.2833    1.1458    0.0000 Cl  0  0  0  0  0  0  0  0  0  0  0  0
    4.7292   -3.0167    0.0000 O   0  0  0  0  0  0  0  0  0  0  0  0
   -4.5833   -0.0917    0.0000 C   0  0  0  0  0  0  0  0  0  0  0  0
   -3.8583    1.1375    0.0000 C   0  0  0  0  0  0  0  0  0  0  0  0
   -3.8625   -0.5125    0.0000 C   0  0  0  0  0  0  0  0  0  0  0  0
   -3.1458    0.7208    0.0000 C   0  0  0  0  0  0  0  0  0  0  0  0
    5.4375   -1.7750    0.0000 C   0  0  0  0  0  0  0  0  0  0  0  0
    4.7375   -3.8500    0.0000 C   0  0  0  0  0  0  0  0  0  0  0  0
  2  1  1  0  0  0  0
  3  2  1  0  0  0  0
  4  1  2  0  0  0  0
  5  7  1  0  0  0  0
  6  1  1  0  0  0  0
  7  4  1  0  0  0  0
  8  6  1  0  0  0  0
  9  3  2  0  0  0  0
 10  5  2  0  0  0  0
 11  8  2  0  0  0  0
 12  2  2  0  0  0  0
 13 15  2  0  0  0  0
 14  6  2  0  0  0  0
 15 14  1  0  0  0  0
 16 10  1  0  0  0  0
 17 16  1  0  0  0  0
 18  9  1  0  0  0  0
 19 26  2  0  0  0  0
 20 21  1  0  0  0  0
 21 17  1  0  0  0  0
 22 11  1  0  0  0  0
 23 19  1  0  0  0  0
 24 13  1  0  0  0  0
 25 27  2  0  0  0  0
 26 28  1  0  0  0  0
 27 20  1  0  0  0  0
 28 20  2  0  0  0  0
 29 22  1  0  0  0  0
 30 24  1  0  0  0  0
  5  3  1  0  0  0  0
 13 11  1  0  0  0  0
 16 18  2  0  0  0  0
 19 25  1  0  0  0  0
M  END
>  <IDNUMBER>
F3139-1607

>  <Chemical_Name>
7-[(4-chlorophenyl)methoxy]-3-(3,4-dimethoxyphenyl)-4H-chromen-4-one

>  <PriceCoeff>
1.00

>  <CAS>
637750-23-3

>  <MW>
422.86

>  <Description>
solid

>  <FSP3>
0.12

>  <clogP>
5.23

>  <TPSA>
53.99

>  <Acceptor>
5

>  <Donor>
0

>  <RotBonds>
6

>  <HAC>
30

>  <Collection>
General

>  <PPDS>
+

$$$$
F3139-1630
  Mrv2219 10102508112D          

 22 24  0  0  0  0            999 V2000
    4.8893    0.9645    0.0000 C   0  0  0  0  0  0  0  0  0  0  0  0
    4.1753    0.5511    0.0000 C   0  0  0  0  0  0  0  0  0  0  0  0
    3.4614    0.9603    0.0000 C   0  0  0  0  0  0  0  0  0  0  0  0
    4.8851    1.7870    0.0000 C   0  0  0  0  0  0  0  0  0  0  0  0
    3.4614    1.7787    0.0000 C   0  0  0  0  0  0  0  0  0  0  0  0
    4.1711    2.2004    0.0000 O   0  0  0  0  0  0  0  0  0  0  0  0
    2.7474    2.2004    0.0000 C   0  0  0  0  0  0  0  0  0  0  0  0
    5.6116    0.5469    0.0000 C   0  0  0  0  0  0  0  0  0  0  0  0
    2.7474    0.5469    0.0000 C   0  0  0  0  0  0  0  0  0  0  0  0
    1.3069    3.0271    0.0000 C   0  0  0  0  0  0  0  0  0  0  0  0
    4.1753   -0.2798    0.0000 O   0  0  0  0  0  0  0  0  0  0  0  0
    2.0334    1.7787    0.0000 C   0  0  0  0  0  0  0  0  0  0  0  0
    1.3069    2.2004    0.0000 O   0  0  0  0  0  0  0  0  0  0  0  0
    2.0209    3.4404    0.0000 O   0  0  0  0  0  0  0  0  0  0  0  0
    5.6116   -0.2798    0.0000 C   0  0  0  0  0  0  0  0  0  0  0  0
    6.3256    0.9603    0.0000 C   0  0  0  0  0  0  0  0  0  0  0  0
    2.0334    0.9603    0.0000 C   0  0  0  0  0  0  0  0  0  0  0  0
    7.0438   -0.2798    0.0000 C   0  0  0  0  0  0  0  0  0  0  0  0
    7.0396    0.5511    0.0000 C   0  0  0  0  0  0  0  0  0  0  0  0
    6.3256   -0.6931    0.0000 C   0  0  0  0  0  0  0  0  0  0  0  0
    7.7577   -0.6931    0.0000 Br  0  0  0  0  0  0  0  0  0  0  0  0
    0.5929    3.4404    0.0000 C   0  0  0  0  0  0  0  0  0  0  0  0
  2  1  1  0  0  0  0
  3  2  1  0  0  0  0
  4  1  2  0  0  0  0
  5  6  1  0  0  0  0
  6  4  1  0  0  0  0
  7  5  2  0  0  0  0
  8  1  1  0  0  0  0
  9  3  2  0  0  0  0
 10 13  1  0  0  0  0
 11  2  2  0  0  0  0
 12  7  1  0  0  0  0
 13 12  1  0  0  0  0
 14 10  2  0  0  0  0
 15  8  2  0  0  0  0
 16  8  1  0  0  0  0
 17  9  1  0  0  0  0
 18 19  1  0  0  0  0
 19 16  2  0  0  0  0
 20 15  1  0  0  0  0
 21 18  1  0  0  0  0
 22 10  1  0  0  0  0
 18 20  2  0  0  0  0
  3  5  1  0  0  0  0
 17 12  2  0  0  0  0
M  END
>  <IDNUMBER>
F3139-1630

>  <Chemical_Name>
3-(4-bromophenyl)-4-oxo-4H-chromen-7-yl acetate

>  <PriceCoeff>
1.00

>  <CAS>
610752-08-4

>  <MW>
359.17

>  <Description>
solid

>  <FSP3>
0.06

>  <clogP>
3.38

>  <TPSA>
52.60

>  <Acceptor>
4

>  <Donor>
0

>  <RotBonds>
3

>  <HAC>
22

>  <Collection>
General

>  <PPDS>
+

$$$$
F3139-1694
  Mrv2219 10102508112D          

 24 26  0  0  0  0            999 V2000
    4.8667   -0.5542    0.0000 C   0  0  0  0  0  0  0  0  0  0  0  0
    4.1417   -0.9667    0.0000 C   0  0  0  0  0  0  0  0  0  0  0  0
    3.4250   -0.5542    0.0000 C   0  0  0  0  0  0  0  0  0  0  0  0
    4.8667    0.2833    0.0000 C   0  0  0  0  0  0  0  0  0  0  0  0
    3.4292    0.2833    0.0000 C   0  0  0  0  0  0  0  0  0  0  0  0
    4.1417    0.7000    0.0000 O   0  0  0  0  0  0  0  0  0  0  0  0
    5.5750   -0.9667    0.0000 C   0  0  0  0  0  0  0  0  0  0  0  0
    2.7125   -0.9625    0.0000 C   0  0  0  0  0  0  0  0  0  0  0  0
    2.7125    0.6958    0.0000 C   0  0  0  0  0  0  0  0  0  0  0  0
    6.2875   -0.5542    0.0000 C   0  0  0  0  0  0  0  0  0  0  0  0
    2.0000   -0.5500    0.0000 C   0  0  0  0  0  0  0  0  0  0  0  0
    7.0000   -0.9667    0.0000 C   0  0  0  0  0  0  0  0  0  0  0  0
    4.1417   -1.7917    0.0000 O   0  0  0  0  0  0  0  0  0  0  0  0
    2.0000    0.2750    0.0000 C   0  0  0  0  0  0  0  0  0  0  0  0
    5.5667   -1.7917    0.0000 C   0  0  0  0  0  0  0  0  0  0  0  0
    7.0000   -1.8000    0.0000 C   0  0  0  0  0  0  0  0  0  0  0  0
    6.2792   -2.2042    0.0000 C   0  0  0  0  0  0  0  0  0  0  0  0
    2.7125   -1.7875    0.0000 O   0  0  0  0  0  0  0  0  0  0  0  0
    5.5792    0.6875    0.0000 C   0  0  0  0  0  0  0  0  0  0  0  0
    7.7167   -0.5542    0.0000 O   0  0  0  0  0  0  0  0  0  0  0  0
    1.2875    0.6875    0.0000 O   0  0  0  0  0  0  0  0  0  0  0  0
    7.7125   -2.2125    0.0000 O   0  0  0  0  0  0  0  0  0  0  0  0
    7.7125    0.2708    0.0000 C   0  0  0  0  0  0  0  0  0  0  0  0
    8.4292   -1.8000    0.0000 C   0  0  0  0  0  0  0  0  0  0  0  0
  2  1  1  0  0  0  0
  3  2  1  0  0  0  0
  4  1  2  0  0  0  0
  5  6  1  0  0  0  0
  6  4  1  0  0  0  0
  7  1  1  0  0  0  0
  8  3  2  0  0  0  0
  9  5  2  0  0  0  0
 10  7  1  0  0  0  0
 11  8  1  0  0  0  0
 12 10  2  0  0  0  0
 13  2  2  0  0  0  0
 14  9  1  0  0  0  0
 15  7  2  0  0  0  0
 16 17  2  0  0  0  0
 17 15  1  0  0  0  0
 18  8  1  0  0  0  0
 19  4  1  0  0  0  0
 20 12  1  0  0  0  0
 21 14  1  0  0  0  0
 22 16  1  0  0  0  0
 23 20  1  0  0  0  0
 24 22  1  0  0  0  0
  3  5  1  0  0  0  0
 16 12  1  0  0  0  0
 11 14  2  0  0  0  0
M  END
>  <IDNUMBER>
F3139-1694

>  <Chemical_Name>
3-(3,4-dimethoxyphenyl)-5,7-dihydroxy-2-methyl-4H-chromen-4-one

>  <PriceCoeff>
1.00

>  <CAS>
637750-97-1

>  <MW>
328.32

>  <Description>
solid

>  <FSP3>
0.17

>  <clogP>
2.92

>  <TPSA>
85.22

>  <Acceptor>
6

>  <Donor>
2

>  <RotBonds>
3

>  <HAC>
24

>  <Collection>
General

>  <PPDS>
+

$$$$
F3139-1697
  Mrv2219 10102508112D          

 27 29  0  0  0  0            999 V2000
    7.4125   -5.8167    0.0000 C   0  0  0  0  0  0  0  0  0  0  0  0
    6.6875   -6.2292    0.0000 C   0  0  0  0  0  0  0  0  0  0  0  0
    5.9667   -5.8167    0.0000 C   0  0  0  0  0  0  0  0  0  0  0  0
    7.4125   -4.9792    0.0000 C   0  0  0  0  0  0  0  0  0  0  0  0
    5.9750   -4.9792    0.0000 C   0  0  0  0  0  0  0  0  0  0  0  0
    8.1167   -6.2292    0.0000 C   0  0  0  0  0  0  0  0  0  0  0  0
    6.6917   -4.5625    0.0000 O   0  0  0  0  0  0  0  0  0  0  0  0
    3.1167   -4.9875    0.0000 C   0  0  0  0  0  0  0  0  0  0  0  0
    5.2542   -4.5667    0.0000 C   0  0  0  0  0  0  0  0  0  0  0  0
    8.8292   -5.8167    0.0000 C   0  0  0  0  0  0  0  0  0  0  0  0
    5.2542   -6.2250    0.0000 C   0  0  0  0  0  0  0  0  0  0  0  0
    9.5417   -6.2292    0.0000 C   0  0  0  0  0  0  0  0  0  0  0  0
    6.6875   -7.0542    0.0000 O   0  0  0  0  0  0  0  0  0  0  0  0
    3.8292   -4.5750    0.0000 O   0  0  0  0  0  0  0  0  0  0  0  0
    4.5417   -4.9875    0.0000 C   0  0  0  0  0  0  0  0  0  0  0  0
    9.5417   -7.0625    0.0000 C   0  0  0  0  0  0  0  0  0  0  0  0
    8.1167   -7.0542    0.0000 C   0  0  0  0  0  0  0  0  0  0  0  0
    3.1167   -5.8125    0.0000 O   0  0  0  0  0  0  0  0  0  0  0  0
    8.8292   -7.4667    0.0000 C   0  0  0  0  0  0  0  0  0  0  0  0
    4.5417   -5.8125    0.0000 C   0  0  0  0  0  0  0  0  0  0  0  0
    2.4042   -4.5750    0.0000 O   0  0  0  0  0  0  0  0  0  0  0  0
   10.2625   -5.8167    0.0000 O   0  0  0  0  0  0  0  0  0  0  0  0
   10.2542   -7.4750    0.0000 O   0  0  0  0  0  0  0  0  0  0  0  0
    1.6875   -4.9875    0.0000 C   0  0  0  0  0  0  0  0  0  0  0  0
   10.2542   -4.9917    0.0000 C   0  0  0  0  0  0  0  0  0  0  0  0
   10.9750   -7.0625    0.0000 C   0  0  0  0  0  0  0  0  0  0  0  0
    0.9750   -4.5750    0.0000 C   0  0  0  0  0  0  0  0  0  0  0  0
  2  1  1  0  0  0  0
  3  2  1  0  0  0  0
  4  1  2  0  0  0  0
  5  7  1  0  0  0  0
  6  1  1  0  0  0  0
  7  4  1  0  0  0  0
  8 14  1  0  0  0  0
  9  5  2  0  0  0  0
 10  6  1  0  0  0  0
 11  3  2  0  0  0  0
 12 10  2  0  0  0  0
 13  2  2  0  0  0  0
 14 15  1  0  0  0  0
 15  9  1  0  0  0  0
 16 19  2  0  0  0  0
 17  6  2  0  0  0  0
 18  8  2  0  0  0  0
 19 17  1  0  0  0  0
 20 11  1  0  0  0  0
 21  8  1  0  0  0  0
 22 12  1  0  0  0  0
 23 16  1  0  0  0  0
 24 21  1  0  0  0  0
 25 22  1  0  0  0  0
 26 23  1  0  0  0  0
 27 24  1  0  0  0  0
  3  5  1  0  0  0  0
 12 16  1  0  0  0  0
 20 15  2  0  0  0  0
M  END
>  <IDNUMBER>
F3139-1697

>  <Chemical_Name>
3-(3,4-dimethoxyphenyl)-4-oxo-4H-chromen-7-yl ethyl carbonate

>  <PriceCoeff>
1.00

>  <CAS>
637751-01-0

>  <MW>
370.35

>  <Description>
solid

>  <FSP3>
0.20

>  <clogP>
2.49

>  <TPSA>
80.29

>  <Acceptor>
7

>  <Donor>
0

>  <RotBonds>
7

>  <HAC>
27

>  <Collection>
General

>  <PPDS>
+

$$$$
F3139-2717
  Mrv2219 10102508112D          

 23 25  0  0  0  0            999 V2000
    4.4292   -0.3667    0.0000 C   0  0  0  0  0  0  0  0  0  0  0  0
    3.7042   -0.7792    0.0000 C   0  0  0  0  0  0  0  0  0  0  0  0
    2.9875   -0.3667    0.0000 C   0  0  0  0  0  0  0  0  0  0  0  0
    4.4292    0.4708    0.0000 C   0  0  0  0  0  0  0  0  0  0  0  0
    2.9917    0.4708    0.0000 C   0  0  0  0  0  0  0  0  0  0  0  0
    3.7042    0.8833    0.0000 O   0  0  0  0  0  0  0  0  0  0  0  0
    2.2750    0.8833    0.0000 C   0  0  0  0  0  0  0  0  0  0  0  0
    5.1375   -0.7792    0.0000 C   0  0  0  0  0  0  0  0  0  0  0  0
    2.2750   -0.7750    0.0000 C   0  0  0  0  0  0  0  0  0  0  0  0
    0.1292    0.4625    0.0000 C   0  0  0  0  0  0  0  0  0  0  0  0
    3.7042   -1.6042    0.0000 O   0  0  0  0  0  0  0  0  0  0  0  0
    1.5625    0.4625    0.0000 C   0  0  0  0  0  0  0  0  0  0  0  0
    0.8500    0.8750    0.0000 O   0  0  0  0  0  0  0  0  0  0  0  0
    0.1292   -0.3625    0.0000 O   0  0  0  0  0  0  0  0  0  0  0  0
    5.1292   -1.6042    0.0000 C   0  0  0  0  0  0  0  0  0  0  0  0
    5.8500   -0.3667    0.0000 C   0  0  0  0  0  0  0  0  0  0  0  0
    1.5625   -0.3625    0.0000 C   0  0  0  0  0  0  0  0  0  0  0  0
    6.5625   -1.6125    0.0000 C   0  0  0  0  0  0  0  0  0  0  0  0
    6.5625   -0.7792    0.0000 C   0  0  0  0  0  0  0  0  0  0  0  0
    5.8417   -2.0167    0.0000 C   0  0  0  0  0  0  0  0  0  0  0  0
    7.2750   -2.0250    0.0000 O   0  0  0  0  0  0  0  0  0  0  0  0
   -0.5833    0.8750    0.0000 C   0  0  0  0  0  0  0  0  0  0  0  0
    7.9917   -1.6125    0.0000 C   0  0  0  0  0  0  0  0  0  0  0  0
  2  1  1  0  0  0  0
  3  2  1  0  0  0  0
  4  1  2  0  0  0  0
  5  6  1  0  0  0  0
  6  4  1  0  0  0  0
  7  5  2  0  0  0  0
  8  1  1  0  0  0  0
  9  3  2  0  0  0  0
 10 13  1  0  0  0  0
 11  2  2  0  0  0  0
 12  7  1  0  0  0  0
 13 12  1  0  0  0  0
 14 10  2  0  0  0  0
 15  8  2  0  0  0  0
 16  8  1  0  0  0  0
 17  9  1  0  0  0  0
 18 19  1  0  0  0  0
 19 16  2  0  0  0  0
 20 15  1  0  0  0  0
 21 18  1  0  0  0  0
 22 10  1  0  0  0  0
 23 21  1  0  0  0  0
 18 20  2  0  0  0  0
  3  5  1  0  0  0  0
 17 12  2  0  0  0  0
M  END
>  <IDNUMBER>
F3139-2717

>  <Chemical_Name>
3-(4-methoxyphenyl)-4-oxo-4H-chromen-7-yl acetate

>  <PriceCoeff>
1.00

>  <CAS>
13293-49-7

>  <MW>
310.30

>  <Description>
solid

>  <FSP3>
0.11

>  <clogP>
2.45

>  <TPSA>
61.83

>  <Acceptor>
5

>  <Donor>
0

>  <RotBonds>
4

>  <HAC>
23

>  <Collection>
General

>  <PPDS>
+

$$$$
F3139-2843
  Mrv2219 10102508112D          

 27 30  0  0  0  0            999 V2000
    6.7431   -2.3716    0.0000 C   0  0  0  0  0  0  0  0  0  0  0  0
    6.0166   -2.7933    0.0000 C   0  0  0  0  0  0  0  0  0  0  0  0
    5.3027   -2.3841    0.0000 C   0  0  0  0  0  0  0  0  0  0  0  0
    6.7389   -1.5407    0.0000 C   0  0  0  0  0  0  0  0  0  0  0  0
    5.2985   -1.5449    0.0000 C   0  0  0  0  0  0  0  0  0  0  0  0
    6.0124   -1.1190    0.0000 O   0  0  0  0  0  0  0  0  0  0  0  0
    4.5762   -1.1315    0.0000 C   0  0  0  0  0  0  0  0  0  0  0  0
    7.4571   -2.7850    0.0000 C   0  0  0  0  0  0  0  0  0  0  0  0
    4.5762   -2.7933    0.0000 C   0  0  0  0  0  0  0  0  0  0  0  0
    6.0250   -3.6200    0.0000 O   0  0  0  0  0  0  0  0  0  0  0  0
    3.8622   -1.5532    0.0000 C   0  0  0  0  0  0  0  0  0  0  0  0
    3.1482   -1.1399    0.0000 N   0  0  0  0  0  0  0  0  0  0  0  0
    7.4571   -3.6117    0.0000 C   0  0  0  0  0  0  0  0  0  0  0  0
    8.1711   -2.3716    0.0000 C   0  0  0  0  0  0  0  0  0  0  0  0
    3.8622   -2.3799    0.0000 C   0  0  0  0  0  0  0  0  0  0  0  0
    2.4342   -1.5532    0.0000 C   0  0  0  0  0  0  0  0  0  0  0  0
    8.8851   -3.6117    0.0000 C   0  0  0  0  0  0  0  0  0  0  0  0
    8.1711   -4.0250    0.0000 C   0  0  0  0  0  0  0  0  0  0  0  0
    8.8851   -2.7808    0.0000 C   0  0  0  0  0  0  0  0  0  0  0  0
    1.0063   -2.3841    0.0000 C   0  0  0  0  0  0  0  0  0  0  0  0
    1.7203   -1.1399    0.0000 C   0  0  0  0  0  0  0  0  0  0  0  0
    2.4342   -2.3799    0.0000 C   0  0  0  0  0  0  0  0  0  0  0  0
    1.0063   -1.5532    0.0000 C   0  0  0  0  0  0  0  0  0  0  0  0
    1.7203   -2.7933    0.0000 C   0  0  0  0  0  0  0  0  0  0  0  0
    9.5991   -4.0125    0.0000 O   0  0  0  0  0  0  0  0  0  0  0  0
    0.2923   -2.7975    0.0000 C   0  0  0  0  0  0  0  0  0  0  0  0
   10.3130   -3.5991    0.0000 C   0  0  0  0  0  0  0  0  0  0  0  0
  2  1  1  0  0  0  0
  3  2  1  0  0  0  0
  4  1  2  0  0  0  0
  5  6  1  0  0  0  0
  6  4  1  0  0  0  0
  7  5  2  0  0  0  0
  8  1  1  0  0  0  0
  9  3  2  0  0  0  0
 10  2  2  0  0  0  0
 11  7  1  0  0  0  0
 12 11  1  0  0  0  0
 13  8  2  0  0  0  0
 14  8  1  0  0  0  0
 15  9  1  0  0  0  0
 16 12  1  0  0  0  0
 17 19  1  0  0  0  0
 18 13  1  0  0  0  0
 19 14  2  0  0  0  0
 20 24  2  0  0  0  0
 21 16  1  0  0  0  0
 22 16  2  0  0  0  0
 23 21  2  0  0  0  0
 24 22  1  0  0  0  0
 25 17  1  0  0  0  0
 26 20  1  0  0  0  0
 27 25  1  0  0  0  0
 17 18  2  0  0  0  0
  3  5  1  0  0  0  0
 15 11  2  0  0  0  0
 20 23  1  0  0  0  0
M  END
>  <IDNUMBER>
F3139-2843

>  <Chemical_Name>
3-(4-methoxyphenyl)-7-[(4-methylphenyl)amino]-4H-chromen-4-one

>  <PriceCoeff>
1.00

>  <CAS>
879926-82-6

>  <MW>
357.40

>  <Description>
solid

>  <FSP3>
0.09

>  <clogP>
5.30

>  <TPSA>
47.56

>  <Acceptor>
4

>  <Donor>
1

>  <RotBonds>
4

>  <HAC>
27

>  <Collection>
General

>  <PPDS>
+

$$$$
F3139-2868
  Mrv2219 10102508112D          

 23 26  0  0  0  0            999 V2000
    1.7924   -1.4872    0.0000 C   0  0  0  0  0  0  0  0  0  0  0  0
    0.3537   -1.5018    0.0000 C   0  0  0  0  0  0  0  0  0  0  0  0
    1.0658   -1.9087    0.0000 C   0  0  0  0  0  0  0  0  0  0  0  0
    0.3537   -0.6685    0.0000 C   0  0  0  0  0  0  0  0  0  0  0  0
    1.0609   -0.2374    0.0000 O   0  0  0  0  0  0  0  0  0  0  0  0
    1.7875   -0.6589    0.0000 C   0  0  0  0  0  0  0  0  0  0  0  0
   -0.3633   -0.2519    0.0000 C   0  0  0  0  0  0  0  0  0  0  0  0
    2.5045   -1.9038    0.0000 C   0  0  0  0  0  0  0  0  0  0  0  0
   -0.3633   -1.9087    0.0000 C   0  0  0  0  0  0  0  0  0  0  0  0
    3.9239   -1.8941    0.0000 C   0  0  0  0  0  0  0  0  0  0  0  0
    3.2166   -1.4872    0.0000 C   0  0  0  0  0  0  0  0  0  0  0  0
   -1.0754   -0.6685    0.0000 C   0  0  0  0  0  0  0  0  0  0  0  0
    3.9287   -2.7225    0.0000 C   0  0  0  0  0  0  0  0  0  0  0  0
    1.0754   -2.7322    0.0000 O   0  0  0  0  0  0  0  0  0  0  0  0
    4.6408   -1.4727    0.0000 O   0  0  0  0  0  0  0  0  0  0  0  0
    2.5045   -2.7225    0.0000 C   0  0  0  0  0  0  0  0  0  0  0  0
    4.6408   -3.1391    0.0000 O   0  0  0  0  0  0  0  0  0  0  0  0
   -1.0754   -1.4969    0.0000 C   0  0  0  0  0  0  0  0  0  0  0  0
    3.2166   -3.1294    0.0000 C   0  0  0  0  0  0  0  0  0  0  0  0
   -1.7875   -0.2519    0.0000 O   0  0  0  0  0  0  0  0  0  0  0  0
   -0.3730    0.5668    0.0000 C   0  0  0  0  0  0  0  0  0  0  0  0
    5.3626   -1.8893    0.0000 C   0  0  0  0  0  0  0  0  0  0  0  0
    5.3626   -2.7225    0.0000 C   0  0  0  0  0  0  0  0  0  0  0  0
  2  3  1  0  0  0  0
  3  1  1  0  0  0  0
  4  5  1  0  0  0  0
  5  6  1  0  0  0  0
  6  1  2  0  0  0  0
  7  4  2  0  0  0  0
  8  1  1  0  0  0  0
  9  2  2  0  0  0  0
 10 11  2  0  0  0  0
 11  8  1  0  0  0  0
 12  7  1  0  0  0  0
 13 19  2  0  0  0  0
 14  3  2  0  0  0  0
 15 10  1  0  0  0  0
 16  8  2  0  0  0  0
 17 13  1  0  0  0  0
 18  9  1  0  0  0  0
 19 16  1  0  0  0  0
 20 12  1  0  0  0  0
 21  7  1  0  0  0  0
 22 15  1  0  0  0  0
 23 17  1  0  0  0  0
  2  4  1  0  0  0  0
 13 10  1  0  0  0  0
 18 12  2  0  0  0  0
 23 22  1  0  0  0  0
M  END
>  <IDNUMBER>
F3139-2868

>  <Chemical_Name>
3-(2,3-dihydro-1,4-benzodioxin-6-yl)-7-hydroxy-8-methyl-4H-chromen-4-one

>  <PriceCoeff>
1.00

>  <CAS>
202914-32-7

>  <MW>
310.30

>  <Description>
solid

>  <FSP3>
0.17

>  <clogP>
3.09

>  <TPSA>
64.99

>  <Acceptor>
5

>  <Donor>
1

>  <RotBonds>
1

>  <HAC>
23

>  <Collection>
General

>  <PPDS>
+

$$$$
F3144-0137
  Mrv2219 10102508112D          

 17 18  0  0  0  0            999 V2000
    3.5736    1.2428    0.0000 C   0  0  0  0  0  0  0  0  0  0  0  0
    3.5736    2.0680    0.0000 C   0  0  0  0  0  0  0  0  0  0  0  0
    4.3571    0.9874    0.0000 N   0  0  0  0  0  0  0  0  0  0  0  0
    2.8589    0.8302    0.0000 N   0  0  0  0  0  0  0  0  0  0  0  0
    2.1441    2.0631    0.0000 N   0  0  0  0  0  0  0  0  0  0  0  0
    2.1441    1.2428    0.0000 C   0  0  0  0  0  0  0  0  0  0  0  0
    2.8540    2.4783    0.0000 C   0  0  0  0  0  0  0  0  0  0  0  0
    4.8409    1.6554    0.0000 C   0  0  0  0  0  0  0  0  0  0  0  0
    4.3571    2.3210    0.0000 N   0  0  0  0  0  0  0  0  0  0  0  0
    1.4294    0.8302    0.0000 O   0  0  0  0  0  0  0  0  0  0  0  0
    2.8540    3.3034    0.0000 O   0  0  0  0  0  0  0  0  0  0  0  0
    1.4246    2.4709    0.0000 C   0  0  0  0  0  0  0  0  0  0  0  0
    5.6662    1.6554    0.0000 Br  0  0  0  0  0  0  0  0  0  0  0  0
    2.8589    0.0000    0.0000 C   0  0  0  0  0  0  0  0  0  0  0  0
    0.7147    2.0606    0.0000 C   0  0  0  0  0  0  0  0  0  0  0  0
    0.0000    2.4709    0.0000 C   0  0  0  0  0  0  0  0  0  0  0  0
    4.6150    3.1045    0.0000 C   0  0  0  0  0  0  0  0  0  0  0  0
  2  1  2  0  0  0  0
  3  1  1  0  0  0  0
  4  1  1  0  0  0  0
  5  6  1  0  0  0  0
  6  4  1  0  0  0  0
  7  2  1  0  0  0  0
  8  3  2  0  0  0  0
  9  2  1  0  0  0  0
 10  6  2  0  0  0  0
 11  7  2  0  0  0  0
 12  5  1  0  0  0  0
 13  8  1  0  0  0  0
 14  4  1  0  0  0  0
 15 12  1  0  0  0  0
 16 15  2  0  0  0  0
 17  9  1  0  0  0  0
  9  8  1  0  0  0  0
  5  7  1  0  0  0  0
M  END
>  <IDNUMBER>
F3144-0137

>  <Chemical_Name>
8-bromo-3,7-dimethyl-1-(prop-2-en-1-yl)-2,3,6,7-tetrahydro-1H-purine-2,6-dione

>  <PriceCoeff>
1.00

>  <CAS>
16877-88-6

>  <MW>
299.12

>  <Description>
solid

>  <FSP3>
0.30

>  <clogP>
1.63

>  <TPSA>
58.44

>  <Acceptor>
3

>  <Donor>
1

>  <RotBonds>
2

>  <HAC>
17

>  <Collection>
General

>  <PPDS>
+

$$$$
F3145-4553
  Mrv2219 10102508112D          

 17 18  0  0  0  0            999 V2000
    0.7443    0.2321    0.0000 C   0  0  0  0  0  0  0  0  0  0  0  0
    1.4406    1.4658    0.0000 C   0  0  0  0  0  0  0  0  0  0  0  0
    0.7443    1.0571    0.0000 C   0  0  0  0  0  0  0  0  0  0  0  0
    2.1597    1.0571    0.0000 C   0  0  0  0  0  0  0  0  0  0  0  0
   -0.7089    0.2195    0.0000 N   0  0  0  0  0  0  0  0  0  0  0  0
    1.4406   -0.1817    0.0000 C   0  0  0  0  0  0  0  0  0  0  0  0
    2.1597    0.2422    0.0000 C   0  0  0  0  0  0  0  0  0  0  0  0
    0.0177   -0.1918    0.0000 C   0  0  0  0  0  0  0  0  0  0  0  0
   -2.9140   -0.0480    0.0000 O   0  0  0  0  0  0  0  0  0  0  0  0
    1.4406    2.2908    0.0000 Cl  0  0  0  0  0  0  0  0  0  0  0  0
    0.0177    1.4809    0.0000 O   0  0  0  0  0  0  0  0  0  0  0  0
    2.8989   -0.1539    0.0000 Cl  0  0  0  0  0  0  0  0  0  0  0  0
   -2.1394    0.2094    0.0000 C   0  0  0  0  0  0  0  0  0  0  0  0
   -1.4128   -0.2044    0.0000 C   0  0  0  0  0  0  0  0  0  0  0  0
   -3.3984    0.6332    0.0000 C   0  0  0  0  0  0  0  0  0  0  0  0
   -2.1394    1.0294    0.0000 C   0  0  0  0  0  0  0  0  0  0  0  0
   -2.9266    1.2842    0.0000 C   0  0  0  0  0  0  0  0  0  0  0  0
  2  3  1  0  0  0  0
  3  1  2  0  0  0  0
  4  7  1  0  0  0  0
  5  8  2  0  0  0  0
  6  1  1  0  0  0  0
  7  6  2  0  0  0  0
  8  1  1  0  0  0  0
  9 13  1  0  0  0  0
 10  2  1  0  0  0  0
 11  3  1  0  0  0  0
 12  7  1  0  0  0  0
 13 14  1  0  0  0  0
 14  5  1  0  0  0  0
 15  9  1  0  0  0  0
 16 13  1  0  0  0  0
 17 16  1  0  0  0  0
  2  4  2  0  0  0  0
 17 15  1  0  0  0  0
M  END
>  <IDNUMBER>
F3145-4553

>  <Chemical_Name>
2,4-dichloro-6-[(E)-{[(oxolan-2-yl)methyl]imino}methyl]phenol

>  <PriceCoeff>
1.00

>  <MW>
274.14

>  <Description>
solid

>  <FSP3>
0.42

>  <clogP>
2.93

>  <TPSA>
41.82

>  <Acceptor>
3

>  <Donor>
2

>  <RotBonds>
3

>  <HAC>
17

>  <Collection>
General

$$$$
F3146-0160
  Mrv2219 10102508112D          

 14 14  0  0  0  0            999 V2000
    0.0167   -1.0607    0.0000 C   0  0  0  0  0  0  0  0  0  0  0  0
    0.7280   -0.6531    0.0000 N   0  0  0  0  0  0  0  0  0  0  0  0
   -0.6946   -0.6489    0.0000 O   0  0  0  0  0  0  0  0  0  0  0  0
    0.0125   -1.8843    0.0000 O   0  0  0  0  0  0  0  0  0  0  0  0
    1.4393   -1.0732    0.0000 C   0  0  0  0  0  0  0  0  0  0  0  0
    0.7363    0.1705    0.0000 C   0  0  0  0  0  0  0  0  0  0  0  0
   -1.4059   -1.0524    0.0000 C   0  0  0  0  0  0  0  0  0  0  0  0
    1.4517    0.5740    0.0000 C   0  0  0  0  0  0  0  0  0  0  0  0
    2.1588   -0.6656    0.0000 C   0  0  0  0  0  0  0  0  0  0  0  0
    2.1630    0.1580    0.0000 C   0  0  0  0  0  0  0  0  0  0  0  0
    2.8826    0.5615    0.0000 O   0  0  0  0  0  0  0  0  0  0  0  0
   -2.1297   -1.4725    0.0000 C   0  0  0  0  0  0  0  0  0  0  0  0
   -0.9941   -1.7762    0.0000 C   0  0  0  0  0  0  0  0  0  0  0  0
   -1.8219   -0.3369    0.0000 C   0  0  0  0  0  0  0  0  0  0  0  0
  2  1  1  0  0  0  0
  3  1  1  0  0  0  0
  4  1  2  0  0  0  0
  5  2  1  0  0  0  0
  6  2  1  0  0  0  0
  7  3  1  0  0  0  0
  8  6  1  0  0  0  0
  9  5  1  0  0  0  0
 10  8  1  0  0  0  0
 11 10  1  0  0  0  0
 12  7  1  0  0  0  0
 13  7  1  0  0  0  0
 14  7  1  0  0  0  0
 10  9  1  0  0  0  0
M  END
>  <IDNUMBER>
F3146-0160

>  <Chemical_Name>
tert-butyl 4-hydroxypiperidine-1-carboxylate

>  <PriceCoeff>
1.50

>  <CAS>
109384-19-2

>  <MW>
201.27

>  <Description>
solid

>  <FSP3>
0.90

>  <clogP>
1.38

>  <TPSA>
49.77

>  <Acceptor>
3

>  <Donor>
1

>  <RotBonds>
2

>  <HAC>
14

>  <Collection>
Advanced

>  <PPDS>
+

$$$$
F3157-0003
  Mrv2219 10102508112D          

 13 13  0  0  0  0            999 V2000
    2.9722   -2.8433    0.0000 C   0  0  0  0  0  0  0  0  0  0  0  0
    3.6914   -2.4360    0.0000 O   0  0  0  0  0  0  0  0  0  0  0  0
    2.2614   -2.4360    0.0000 C   0  0  0  0  0  0  0  0  0  0  0  0
    1.5464   -1.2014    0.0000 C   0  0  0  0  0  0  0  0  0  0  0  0
    0.1164   -0.3741    0.0000 C   0  0  0  0  0  0  0  0  0  0  0  0
    2.9805   -3.6706    0.0000 O   0  0  0  0  0  0  0  0  0  0  0  0
    2.2614   -1.6129    0.0000 C   0  0  0  0  0  0  0  0  0  0  0  0
    1.5464   -0.3741    0.0000 C   0  0  0  0  0  0  0  0  0  0  0  0
    0.8273   -1.6129    0.0000 C   0  0  0  0  0  0  0  0  0  0  0  0
    0.8273    0.0374    0.0000 C   0  0  0  0  0  0  0  0  0  0  0  0
    0.1164   -1.2014    0.0000 C   0  0  0  0  0  0  0  0  0  0  0  0
   -0.5944    0.0374    0.0000 O   0  0  0  0  0  0  0  0  0  0  0  0
   -1.3052   -0.3783    0.0000 C   0  0  0  0  0  0  0  0  0  0  0  0
  2  1  2  0  0  0  0
  3  1  1  0  0  0  0
  4  7  1  0  0  0  0
  5 11  2  0  0  0  0
  6  1  1  0  0  0  0
  7  3  1  0  0  0  0
  8  4  1  0  0  0  0
  9  4  2  0  0  0  0
 10  8  2  0  0  0  0
 11  9  1  0  0  0  0
 12  5  1  0  0  0  0
 13 12  1  0  0  0  0
 10  5  1  0  0  0  0
M  END
>  <IDNUMBER>
F3157-0003

>  <Chemical_Name>
3-(4-methoxyphenyl)propanoic acid

>  <PriceCoeff>
1.00

>  <CAS>
1929-29-9

>  <MW>
180.20

>  <Description>
solid

>  <FSP3>
0.30

>  <clogP>
1.71

>  <TPSA>
46.53

>  <Acceptor>
3

>  <Donor>
0

>  <RotBonds>
4

>  <HAC>
13

>  <Collection>
General

>  <PPDS>
+

$$$$
F3161-0035
  Mrv2219 10102508112D          

 23 26  0  0  0  0            999 V2000
    3.2003   -0.5083    0.0000 C   0  0  0  0  0  0  0  0  0  0  0  0
    1.0525   -1.7362    0.0000 C   0  0  0  0  0  0  0  0  0  0  0  0
    1.0525   -2.5503    0.0000 C   0  0  0  0  0  0  0  0  0  0  0  0
    3.2003   -1.3224    0.0000 C   0  0  0  0  0  0  0  0  0  0  0  0
    1.7699   -1.3224    0.0000 C   0  0  0  0  0  0  0  0  0  0  0  0
    2.4851   -1.7362    0.0000 C   0  0  0  0  0  0  0  0  0  0  0  0
    3.9266   -0.0967    0.0000 C   0  0  0  0  0  0  0  0  0  0  0  0
    1.7699   -2.9574    0.0000 C   0  0  0  0  0  0  0  0  0  0  0  0
    2.4851   -0.0967    0.0000 C   0  0  0  0  0  0  0  0  0  0  0  0
    2.4851   -2.5503    0.0000 C   0  0  0  0  0  0  0  0  0  0  0  0
    1.7699   -0.5083    0.0000 C   0  0  0  0  0  0  0  0  0  0  0  0
    4.6418   -1.3224    0.0000 C   0  0  0  0  0  0  0  0  0  0  0  0
    0.3329   -1.3224    0.0000 C   0  0  0  0  0  0  0  0  0  0  0  0
    4.6418   -0.5083    0.0000 C   0  0  0  0  0  0  0  0  0  0  0  0
    3.9266    0.7196    0.0000 C   0  0  0  0  0  0  0  0  0  0  0  0
    0.3329   -2.9574    0.0000 C   0  0  0  0  0  0  0  0  0  0  0  0
    3.2272    1.1582    0.0000 O   0  0  0  0  0  0  0  0  0  0  0  0
    3.2003    0.0854    0.0000 C   0  0  0  0  0  0  0  0  0  0  0  0
   -0.3890   -1.7362    0.0000 C   0  0  0  0  0  0  0  0  0  0  0  0
   -0.3890   -2.5503    0.0000 C   0  0  0  0  0  0  0  0  0  0  0  0
    1.0525   -1.0885    0.0000 C   0  0  0  0  0  0  0  0  0  0  0  0
   -1.0300   -2.8832    0.0000 O   0  0  0  0  0  0  0  0  0  0  0  0
    4.6171    1.1379    0.0000 C   0  0  0  0  0  0  0  0  0  0  0  0
  2  5  1  0  0  0  0
  3  2  1  0  0  0  0
  4  1  1  0  0  0  0
  5 11  1  0  0  0  0
  6  4  1  0  0  0  0
  7  1  1  0  0  0  0
  8 10  1  0  0  0  0
  9  1  1  0  0  0  0
 10  6  1  0  0  0  0
 11  9  1  0  0  0  0
 12  4  1  0  0  0  0
 13  2  1  0  0  0  0
 14  7  1  0  0  0  0
 15  7  1  0  0  0  0
 16  3  1  0  0  0  0
 17 15  2  0  0  0  0
 18  1  1  0  0  0  0
 19 13  1  0  0  0  0
 20 19  1  0  0  0  0
 21  2  1  0  0  0  0
 22 20  1  0  0  0  0
 23 15  1  0  0  0  0
 12 14  1  0  0  0  0
  5  6  1  0  0  0  0
  3  8  2  0  0  0  0
 16 20  1  0  0  0  0
M  END
>  <IDNUMBER>
F3161-0035

>  <Chemical_Name>
1-{7-hydroxy-9a,11a-dimethyl-1H,2H,3H,3aH,3bH,4H,6H,7H,8H,9H,9aH,9bH,10H,11H,11aH-cyclopenta[a]phenanthren-1-yl}ethan-1-one

>  <PriceCoeff>
1.00

>  <CAS>
145-13-1

>  <MW>
316.48

>  <Description>
solid

>  <FSP3>
0.86

>  <clogP>
4.03

>  <TPSA>
37.30

>  <Acceptor>
2

>  <Donor>
1

>  <RotBonds>
1

>  <HAC>
23

>  <Collection>
General

>  <PPDS>
+

$$$$
F3162-0015
  Mrv2219 10102508112D          

 16 18  0  0  0  0            999 V2000
    0.4808    0.2592    0.0000 C   0  0  0  0  0  0  0  0  0  0  0  0
   -0.1881    0.7400    0.0000 N   0  0  0  0  0  0  0  0  0  0  0  0
    0.2258   -0.5310    0.0000 N   0  0  0  0  0  0  0  0  0  0  0  0
   -0.6020   -0.5310    0.0000 C   0  0  0  0  0  0  0  0  0  0  0  0
   -0.8529    0.2508    0.0000 C   0  0  0  0  0  0  0  0  0  0  0  0
    1.2710    0.5100    0.0000 C   0  0  0  0  0  0  0  0  0  0  0  0
   -1.1497   -1.1455    0.0000 C   0  0  0  0  0  0  0  0  0  0  0  0
   -1.6639    0.4264    0.0000 C   0  0  0  0  0  0  0  0  0  0  0  0
   -1.9524   -0.9700    0.0000 C   0  0  0  0  0  0  0  0  0  0  0  0
   -2.2157   -0.1881    0.0000 C   0  0  0  0  0  0  0  0  0  0  0  0
    1.8855   -0.0418    0.0000 C   0  0  0  0  0  0  0  0  0  0  0  0
    1.4423    1.3169    0.0000 C   0  0  0  0  0  0  0  0  0  0  0  0
   -2.5042   -1.5929    0.0000 C   0  0  0  0  0  0  0  0  0  0  0  0
    2.2242    1.5761    0.0000 C   0  0  0  0  0  0  0  0  0  0  0  0
    2.6715    0.2090    0.0000 C   0  0  0  0  0  0  0  0  0  0  0  0
    2.8387    1.0159    0.0000 C   0  0  0  0  0  0  0  0  0  0  0  0
  2  1  2  0  0  0  0
  3  1  1  0  0  0  0
  4  3  1  0  0  0  0
  5  2  1  0  0  0  0
  6  1  1  0  0  0  0
  7  4  1  0  0  0  0
  8  5  1  0  0  0  0
  9  7  2  0  0  0  0
 10  8  2  0  0  0  0
 11  6  2  0  0  0  0
 12  6  1  0  0  0  0
 13  9  1  0  0  0  0
 14 12  2  0  0  0  0
 15 11  1  0  0  0  0
 16 14  1  0  0  0  0
  5  4  2  0  0  0  0
 16 15  2  0  0  0  0
  9 10  1  0  0  0  0
M  END
>  <IDNUMBER>
F3162-0015

>  <Chemical_Name>
6-methyl-2-phenyl-1H-1,3-benzodiazole

>  <PriceCoeff>
1.00

>  <CAS>
2963-65-7

>  <MW>
208.26

>  <Description>
solid

>  <FSP3>
0.07

>  <clogP>
4.16

>  <TPSA>
28.68

>  <Acceptor>
2

>  <Donor>
2

>  <RotBonds>
1

>  <HAC>
16

>  <Collection>
General

>  <PPDS>
+

$$$$
F3164-0800
  Mrv2219 10102508112D          

 21 22  0  0  0  0            999 V2000
    3.9521   -4.7308    0.0000 C   0  0  0  0  0  0  0  0  0  0  0  0
    3.9521   -3.9019    0.0000 C   0  0  0  0  0  0  0  0  0  0  0  0
    3.2362   -5.1412    0.0000 N   0  0  0  0  0  0  0  0  0  0  0  0
    2.5162   -4.7308    0.0000 C   0  0  0  0  0  0  0  0  0  0  0  0
    2.5162   -3.9019    0.0000 N   0  0  0  0  0  0  0  0  0  0  0  0
    4.7393   -4.9862    0.0000 N   0  0  0  0  0  0  0  0  0  0  0  0
    3.2362   -3.4833    0.0000 C   0  0  0  0  0  0  0  0  0  0  0  0
    4.7393   -3.6466    0.0000 N   0  0  0  0  0  0  0  0  0  0  0  0
    5.2249   -4.3122    0.0000 C   0  0  0  0  0  0  0  0  0  0  0  0
    1.7918   -5.1412    0.0000 O   0  0  0  0  0  0  0  0  0  0  0  0
    3.2362   -2.6585    0.0000 O   0  0  0  0  0  0  0  0  0  0  0  0
    3.2362   -5.9742    0.0000 C   0  0  0  0  0  0  0  0  0  0  0  0
    4.9946   -2.8553    0.0000 C   0  0  0  0  0  0  0  0  0  0  0  0
    4.4378   -2.2399    0.0000 C   0  0  0  0  0  0  0  0  0  0  0  0
    3.4958    1.9342    0.0000 C   0  0  0  0  0  0  0  0  0  0  0  0
    4.0610    1.3271    0.0000 C   0  0  0  0  0  0  0  0  0  0  0  0
    3.8182    0.5401    0.0000 C   0  0  0  0  0  0  0  0  0  0  0  0
    4.3750   -0.0670    0.0000 C   0  0  0  0  0  0  0  0  0  0  0  0
    4.1322   -0.8498    0.0000 C   0  0  0  0  0  0  0  0  0  0  0  0
    4.6890   -1.4569    0.0000 C   0  0  0  0  0  0  0  0  0  0  0  0
    3.7345    2.7213    0.0000 C   0  0  0  0  0  0  0  0  0  0  0  0
  2  1  2  0  0  0  0
  3  1  1  0  0  0  0
  4  3  1  0  0  0  0
  5  4  1  0  0  0  0
  6  1  1  0  0  0  0
  7  2  1  0  0  0  0
  8  2  1  0  0  0  0
  9  6  2  0  0  0  0
 10  4  2  0  0  0  0
 11  7  2  0  0  0  0
 12  3  1  0  0  0  0
 13  8  1  0  0  0  0
 14 13  1  0  0  0  0
 15 16  1  0  0  0  0
 16 17  1  0  0  0  0
 17 18  1  0  0  0  0
 18 19  1  0  0  0  0
 19 20  1  0  0  0  0
 20 14  1  0  0  0  0
 21 15  1  0  0  0  0
  9  8  1  0  0  0  0
  5  7  1  0  0  0  0
M  END
>  <IDNUMBER>
F3164-0800

>  <Chemical_Name>
3-methyl-7-nonyl-2,3,6,7-tetrahydro-1H-purine-2,6-dione

>  <PriceCoeff>
1.00

>  <CAS>
374916-80-0

>  <MW>
292.38

>  <Description>
solid

>  <FSP3>
0.67

>  <clogP>
3.56

>  <TPSA>
67.23

>  <Acceptor>
3

>  <Donor>
2

>  <RotBonds>
8

>  <HAC>
21

>  <Collection>
General

>  <PPDS>
+

$$$$
F3168-0273
  Mrv2219 10102508112D          

 33 37  0  0  0  0            999 V2000
    7.5871   -4.5489    0.0000 N   0  0  0  0  0  0  0  0  0  0  0  0
    6.1552   -4.5489    0.0000 C   0  0  0  0  0  0  0  0  0  0  0  0
    6.1552   -5.3665    0.0000 C   0  0  0  0  0  0  0  0  0  0  0  0
    7.5871   -5.3665    0.0000 C   0  0  0  0  0  0  0  0  0  0  0  0
    6.8649   -5.7774    0.0000 N   0  0  0  0  0  0  0  0  0  0  0  0
    6.8732   -4.1380    0.0000 C   0  0  0  0  0  0  0  0  0  0  0  0
    5.3790   -4.2875    0.0000 C   0  0  0  0  0  0  0  0  0  0  0  0
    4.8976   -4.9598    0.0000 C   0  0  0  0  0  0  0  0  0  0  0  0
    5.3790   -5.6198    0.0000 S   0  0  0  0  0  0  0  0  0  0  0  0
    8.2968   -4.1380    0.0000 C   0  0  0  0  0  0  0  0  0  0  0  0
    3.7271   -4.1339    0.0000 N   0  0  0  0  0  0  0  0  0  0  0  0
    4.0758   -4.8727    0.0000 C   0  0  0  0  0  0  0  0  0  0  0  0
    8.2926   -3.3121    0.0000 C   0  0  0  0  0  0  0  0  0  0  0  0
    8.3093   -5.7692    0.0000 S   0  0  0  0  0  0  0  0  0  0  0  0
    2.9054   -4.0633    0.0000 C   0  0  0  0  0  0  0  0  0  0  0  0
    5.0428   -3.5404    0.0000 C   0  0  0  0  0  0  0  0  0  0  0  0
    9.0024   -2.8929    0.0000 C   0  0  0  0  0  0  0  0  0  0  0  0
    6.8774   -3.3163    0.0000 O   0  0  0  0  0  0  0  0  0  0  0  0
    4.2252   -3.4532    0.0000 C   0  0  0  0  0  0  0  0  0  0  0  0
    9.0148   -4.5448    0.0000 C   0  0  0  0  0  0  0  0  0  0  0  0
    9.7245   -3.3038    0.0000 C   0  0  0  0  0  0  0  0  0  0  0  0
    2.4447   -4.7482    0.0000 O   0  0  0  0  0  0  0  0  0  0  0  0
    9.7287   -4.1256    0.0000 C   0  0  0  0  0  0  0  0  0  0  0  0
    8.3175   -6.5992    0.0000 C   0  0  0  0  0  0  0  0  0  0  0  0
    8.9899   -2.0711    0.0000 Cl  0  0  0  0  0  0  0  0  0  0  0  0
   10.4467   -2.8805    0.0000 F   0  0  0  0  0  0  0  0  0  0  0  0
    9.0314   -7.0019    0.0000 C   0  0  0  0  0  0  0  0  0  0  0  0
    2.5567   -3.3287    0.0000 C   0  0  0  0  0  0  0  0  0  0  0  0
    9.0314   -7.8319    0.0000 C   0  0  0  0  0  0  0  0  0  0  0  0
    9.7412   -6.5868    0.0000 C   0  0  0  0  0  0  0  0  0  0  0  0
   10.4634   -6.9894    0.0000 C   0  0  0  0  0  0  0  0  0  0  0  0
    9.7494   -8.2346    0.0000 C   0  0  0  0  0  0  0  0  0  0  0  0
   10.4716   -7.8195    0.0000 C   0  0  0  0  0  0  0  0  0  0  0  0
  2  6  1  0  0  0  0
  3  2  2  0  0  0  0
  4  1  1  0  0  0  0
  5  4  2  0  0  0  0
  6  1  1  0  0  0  0
  7  2  1  0  0  0  0
  8  7  2  0  0  0  0
  9  3  1  0  0  0  0
 10  1  1  0  0  0  0
 11 19  1  0  0  0  0
 12  8  1  0  0  0  0
 13 10  1  0  0  0  0
 14  4  1  0  0  0  0
 15 11  1  0  0  0  0
 16  7  1  0  0  0  0
 17 13  2  0  0  0  0
 18  6  2  0  0  0  0
 19 16  1  0  0  0  0
 20 10  2  0  0  0  0
 21 23  2  0  0  0  0
 22 15  2  0  0  0  0
 23 20  1  0  0  0  0
 24 14  1  0  0  0  0
 25 17  1  0  0  0  0
 26 21  1  0  0  0  0
 27 24  1  0  0  0  0
 28 15  1  0  0  0  0
 29 27  2  0  0  0  0
 30 27  1  0  0  0  0
 31 30  2  0  0  0  0
 32 29  1  0  0  0  0
 33 31  1  0  0  0  0
  3  5  1  0  0  0  0
 21 17  1  0  0  0  0
  9  8  1  0  0  0  0
 12 11  1  0  0  0  0
 33 32  2  0  0  0  0
M  END
>  <IDNUMBER>
F3168-0273

>  <Chemical_Name>
11-acetyl-5-(benzylsulfanyl)-4-(3-chloro-4-fluorophenyl)-8-thia-4,6,11-triazatricyclo[7.4.0.0?,?]trideca-1(9),2(7),5-trien-3-one

>  <PriceCoeff>
1.00

>  <CAS>
892281-51-5

>  <MW>
500.01

>  <Description>
solid

>  <FSP3>
0.21

>  <clogP>
4.50

>  <TPSA>
106.52

>  <Acceptor>
3

>  <Donor>
0

>  <RotBonds>
5

>  <HAC>
33

>  <Collection>
General

>  <PPDS>
+

$$$$
F3168-0276
  Mrv2219 10102508112D          

 38 42  0  0  0  0            999 V2000
    7.5615   -3.8802    0.0000 N   0  0  0  0  0  0  0  0  0  0  0  0
    6.1313   -3.8802    0.0000 C   0  0  0  0  0  0  0  0  0  0  0  0
    6.1313   -4.7052    0.0000 C   0  0  0  0  0  0  0  0  0  0  0  0
    7.5615   -4.7052    0.0000 C   0  0  0  0  0  0  0  0  0  0  0  0
    6.8444   -5.1115    0.0000 N   0  0  0  0  0  0  0  0  0  0  0  0
    6.8444   -3.4698    0.0000 C   0  0  0  0  0  0  0  0  0  0  0  0
    5.3520   -3.6233    0.0000 C   0  0  0  0  0  0  0  0  0  0  0  0
    4.8669   -4.2824    0.0000 C   0  0  0  0  0  0  0  0  0  0  0  0
    5.3520   -4.9622    0.0000 S   0  0  0  0  0  0  0  0  0  0  0  0
    8.2746   -3.4698    0.0000 C   0  0  0  0  0  0  0  0  0  0  0  0
    3.7061   -3.4491    0.0000 N   0  0  0  0  0  0  0  0  0  0  0  0
    4.0419   -4.1953    0.0000 C   0  0  0  0  0  0  0  0  0  0  0  0
    8.2746   -2.6366    0.0000 C   0  0  0  0  0  0  0  0  0  0  0  0
    8.2746   -5.1115    0.0000 S   0  0  0  0  0  0  0  0  0  0  0  0
    2.8771   -3.3579    0.0000 C   0  0  0  0  0  0  0  0  0  0  0  0
   10.4137   -4.6679    0.0000 N   0  0  0  0  0  0  0  0  0  0  0  0
    5.0120   -2.8729    0.0000 C   0  0  0  0  0  0  0  0  0  0  0  0
   11.1350   -5.0742    0.0000 C   0  0  0  0  0  0  0  0  0  0  0  0
    8.9793   -2.2179    0.0000 C   0  0  0  0  0  0  0  0  0  0  0  0
   11.8439   -4.6555    0.0000 C   0  0  0  0  0  0  0  0  0  0  0  0
    9.7006   -5.0908    0.0000 C   0  0  0  0  0  0  0  0  0  0  0  0
    6.8444   -2.6408    0.0000 O   0  0  0  0  0  0  0  0  0  0  0  0
   12.5611   -5.0617    0.0000 C   0  0  0  0  0  0  0  0  0  0  0  0
    4.1912   -2.7858    0.0000 C   0  0  0  0  0  0  0  0  0  0  0  0
    8.9793   -3.8720    0.0000 C   0  0  0  0  0  0  0  0  0  0  0  0
    9.7048   -2.6366    0.0000 C   0  0  0  0  0  0  0  0  0  0  0  0
    2.3920   -4.0212    0.0000 O   0  0  0  0  0  0  0  0  0  0  0  0
    9.7131   -5.9116    0.0000 O   0  0  0  0  0  0  0  0  0  0  0  0
    9.7006   -3.4698    0.0000 C   0  0  0  0  0  0  0  0  0  0  0  0
   11.1433   -5.8992    0.0000 C   0  0  0  0  0  0  0  0  0  0  0  0
    8.9835   -4.6804    0.0000 C   0  0  0  0  0  0  0  0  0  0  0  0
   12.5735   -5.8867    0.0000 C   0  0  0  0  0  0  0  0  0  0  0  0
   11.8397   -3.8347    0.0000 F   0  0  0  0  0  0  0  0  0  0  0  0
    8.9835   -1.3971    0.0000 Cl  0  0  0  0  0  0  0  0  0  0  0  0
   10.4137   -2.2303    0.0000 F   0  0  0  0  0  0  0  0  0  0  0  0
   11.8563   -6.3054    0.0000 C   0  0  0  0  0  0  0  0  0  0  0  0
   13.2866   -6.3054    0.0000 F   0  0  0  0  0  0  0  0  0  0  0  0
    2.5495   -2.6034    0.0000 C   0  0  0  0  0  0  0  0  0  0  0  0
  2  6  1  0  0  0  0
  3  2  2  0  0  0  0
  4  1  1  0  0  0  0
  5  4  2  0  0  0  0
  6  1  1  0  0  0  0
  7  2  1  0  0  0  0
  8  7  2  0  0  0  0
  9  3  1  0  0  0  0
 10  1  1  0  0  0  0
 11 24  1  0  0  0  0
 12  8  1  0  0  0  0
 13 10  1  0  0  0  0
 14  4  1  0  0  0  0
 15 11  1  0  0  0  0
 16 21  1  0  0  0  0
 17  7  1  0  0  0  0
 18 16  1  0  0  0  0
 19 13  2  0  0  0  0
 20 18  1  0  0  0  0
 21 31  1  0  0  0  0
 22  6  2  0  0  0  0
 23 20  2  0  0  0  0
 24 17  1  0  0  0  0
 25 10  2  0  0  0  0
 26 29  2  0  0  0  0
 27 15  2  0  0  0  0
 28 21  2  0  0  0  0
 29 25  1  0  0  0  0
 30 18  2  0  0  0  0
 31 14  1  0  0  0  0
 32 36  2  0  0  0  0
 33 20  1  0  0  0  0
 34 19  1  0  0  0  0
 35 26  1  0  0  0  0
 36 30  1  0  0  0  0
 37 32  1  0  0  0  0
 38 15  1  0  0  0  0
  3  5  1  0  0  0  0
 26 19  1  0  0  0  0
  9  8  1  0  0  0  0
 11 12  1  0  0  0  0
 32 23  1  0  0  0  0
M  END
>  <IDNUMBER>
F3168-0276

>  <Chemical_Name>
2-{[11-acetyl-4-(3-chloro-4-fluorophenyl)-3-oxo-8-thia-4,6,11-triazatricyclo[7.4.0.0?,?]trideca-1(9),2(7),5-trien-5-yl]sulfanyl}-N-(2,4-difluorophenyl)acetamide

>  <PriceCoeff>
1.00

>  <CAS>
892281-86-6

>  <MW>
579.01

>  <Description>
solid

>  <FSP3>
0.20

>  <clogP>
3.50

>  <TPSA>
135.62

>  <Acceptor>
4

>  <Donor>
1

>  <RotBonds>
6

>  <HAC>
38

>  <Collection>
General

>  <PPDS>
+

$$$$
F3168-0277
  Mrv2219 10102508112D          

 31 34  0  0  0  0            999 V2000
    7.6212   -4.6019    0.0000 N   0  0  0  0  0  0  0  0  0  0  0  0
    6.1887   -4.5727    0.0000 C   0  0  0  0  0  0  0  0  0  0  0  0
    6.1762   -5.3890    0.0000 C   0  0  0  0  0  0  0  0  0  0  0  0
    6.8758   -5.8221    0.0000 N   0  0  0  0  0  0  0  0  0  0  0  0
    7.6088   -5.4140    0.0000 C   0  0  0  0  0  0  0  0  0  0  0  0
    6.9133   -4.1729    0.0000 C   0  0  0  0  0  0  0  0  0  0  0  0
    5.4140   -4.3021    0.0000 C   0  0  0  0  0  0  0  0  0  0  0  0
    4.9143   -4.9601    0.0000 C   0  0  0  0  0  0  0  0  0  0  0  0
    5.3890   -5.6264    0.0000 S   0  0  0  0  0  0  0  0  0  0  0  0
    8.3459   -4.1896    0.0000 C   0  0  0  0  0  0  0  0  0  0  0  0
    3.7606   -4.1105    0.0000 N   0  0  0  0  0  0  0  0  0  0  0  0
    4.0897   -4.8643    0.0000 C   0  0  0  0  0  0  0  0  0  0  0  0
    8.3501   -3.3733    0.0000 C   0  0  0  0  0  0  0  0  0  0  0  0
    2.9403   -4.0272    0.0000 C   0  0  0  0  0  0  0  0  0  0  0  0
    5.0892   -3.5400    0.0000 C   0  0  0  0  0  0  0  0  0  0  0  0
    9.0747   -2.9735    0.0000 C   0  0  0  0  0  0  0  0  0  0  0  0
    6.9341   -3.3484    0.0000 O   0  0  0  0  0  0  0  0  0  0  0  0
    8.3251   -5.8388    0.0000 S   0  0  0  0  0  0  0  0  0  0  0  0
    4.2729   -3.4358    0.0000 C   0  0  0  0  0  0  0  0  0  0  0  0
    9.0580   -4.6227    0.0000 C   0  0  0  0  0  0  0  0  0  0  0  0
    9.7869   -3.3900    0.0000 C   0  0  0  0  0  0  0  0  0  0  0  0
    2.4613   -4.7019    0.0000 O   0  0  0  0  0  0  0  0  0  0  0  0
    9.7744   -4.2146    0.0000 C   0  0  0  0  0  0  0  0  0  0  0  0
    9.0747   -2.1406    0.0000 Cl  0  0  0  0  0  0  0  0  0  0  0  0
    8.3126   -6.6717    0.0000 C   0  0  0  0  0  0  0  0  0  0  0  0
    2.5987   -3.2776    0.0000 C   0  0  0  0  0  0  0  0  0  0  0  0
   10.5240   -2.9860    0.0000 C   0  0  0  0  0  0  0  0  0  0  0  0
    9.0248   -7.0882    0.0000 C   0  0  0  0  0  0  0  0  0  0  0  0
    9.0123   -7.9211    0.0000 C   0  0  0  0  0  0  0  0  0  0  0  0
    8.2959   -8.3209    0.0000 C   0  0  0  0  0  0  0  0  0  0  0  0
    9.7244   -8.3459    0.0000 C   0  0  0  0  0  0  0  0  0  0  0  0
  2  6  1  0  0  0  0
  3  2  2  0  0  0  0
  4  5  2  0  0  0  0
  5  1  1  0  0  0  0
  6  1  1  0  0  0  0
  7  2  1  0  0  0  0
  8  7  2  0  0  0  0
  9  3  1  0  0  0  0
 10  1  1  0  0  0  0
 11 19  1  0  0  0  0
 12  8  1  0  0  0  0
 13 10  1  0  0  0  0
 14 11  1  0  0  0  0
 15  7  1  0  0  0  0
 16 13  2  0  0  0  0
 17  6  2  0  0  0  0
 18  5  1  0  0  0  0
 19 15  1  0  0  0  0
 20 10  2  0  0  0  0
 21 23  2  0  0  0  0
 22 14  2  0  0  0  0
 23 20  1  0  0  0  0
 24 16  1  0  0  0  0
 25 18  1  0  0  0  0
 26 14  1  0  0  0  0
 27 21  1  0  0  0  0
 28 25  1  0  0  0  0
 29 28  1  0  0  0  0
 30 29  1  0  0  0  0
 31 29  1  0  0  0  0
  3  4  1  0  0  0  0
 21 16  1  0  0  0  0
  9  8  1  0  0  0  0
 12 11  1  0  0  0  0
M  END
>  <IDNUMBER>
F3168-0277

>  <Chemical_Name>
11-acetyl-4-(3-chloro-4-methylphenyl)-5-[(3-methylbutyl)sulfanyl]-8-thia-4,6,11-triazatricyclo[7.4.0.0?,?]trideca-1(9),2(7),5-trien-3-one

>  <PriceCoeff>
1.00

>  <CAS>
892281-93-5

>  <MW>
476.05

>  <Description>
solid

>  <FSP3>
0.43

>  <clogP>
5.27

>  <TPSA>
106.52

>  <Acceptor>
3

>  <Donor>
0

>  <RotBonds>
6

>  <HAC>
31

>  <Collection>
General

>  <PPDS>
+

$$$$
F3168-0278
  Mrv2219 10102508112D          

 38 42  0  0  0  0            999 V2000
    6.1235   -3.8599    0.0000 C   0  0  0  0  0  0  0  0  0  0  0  0
    6.1235   -4.6890    0.0000 C   0  0  0  0  0  0  0  0  0  0  0  0
    7.5497   -3.8599    0.0000 N   0  0  0  0  0  0  0  0  0  0  0  0
    7.5497   -4.6890    0.0000 C   0  0  0  0  0  0  0  0  0  0  0  0
    6.8408   -5.1036    0.0000 N   0  0  0  0  0  0  0  0  0  0  0  0
    6.8408   -3.4494    0.0000 C   0  0  0  0  0  0  0  0  0  0  0  0
    5.3400   -3.6069    0.0000 C   0  0  0  0  0  0  0  0  0  0  0  0
    4.8549   -4.2703    0.0000 C   0  0  0  0  0  0  0  0  0  0  0  0
    5.3400   -4.9420    0.0000 S   0  0  0  0  0  0  0  0  0  0  0  0
    3.6982   -3.4328    0.0000 N   0  0  0  0  0  0  0  0  0  0  0  0
    4.0341   -4.1832    0.0000 C   0  0  0  0  0  0  0  0  0  0  0  0
    8.2629   -5.1036    0.0000 S   0  0  0  0  0  0  0  0  0  0  0  0
    2.8773   -3.3375    0.0000 C   0  0  0  0  0  0  0  0  0  0  0  0
    8.2629   -3.4494    0.0000 C   0  0  0  0  0  0  0  0  0  0  0  0
    9.0091   -7.1517    0.0000 N   0  0  0  0  0  0  0  0  0  0  0  0
    5.0000   -2.8524    0.0000 C   0  0  0  0  0  0  0  0  0  0  0  0
    9.7263   -7.5497    0.0000 C   0  0  0  0  0  0  0  0  0  0  0  0
    9.7429   -8.3748    0.0000 C   0  0  0  0  0  0  0  0  0  0  0  0
    8.9925   -6.3226    0.0000 C   0  0  0  0  0  0  0  0  0  0  0  0
    6.8408   -2.6285    0.0000 O   0  0  0  0  0  0  0  0  0  0  0  0
   10.4644   -8.7728    0.0000 C   0  0  0  0  0  0  0  0  0  0  0  0
    4.1832   -2.7654    0.0000 C   0  0  0  0  0  0  0  0  0  0  0  0
    2.3798   -4.0092    0.0000 O   0  0  0  0  0  0  0  0  0  0  0  0
    9.6932   -5.8873    0.0000 O   0  0  0  0  0  0  0  0  0  0  0  0
   10.4271   -7.1186    0.0000 C   0  0  0  0  0  0  0  0  0  0  0  0
    8.2711   -5.9204    0.0000 C   0  0  0  0  0  0  0  0  0  0  0  0
    8.2629   -2.6161    0.0000 C   0  0  0  0  0  0  0  0  0  0  0  0
    8.9718   -3.8557    0.0000 C   0  0  0  0  0  0  0  0  0  0  0  0
   11.1733   -8.3457    0.0000 C   0  0  0  0  0  0  0  0  0  0  0  0
    9.0422   -8.7976    0.0000 F   0  0  0  0  0  0  0  0  0  0  0  0
    9.6932   -2.6161    0.0000 C   0  0  0  0  0  0  0  0  0  0  0  0
   11.1484   -7.5166    0.0000 C   0  0  0  0  0  0  0  0  0  0  0  0
    8.9718   -2.2057    0.0000 C   0  0  0  0  0  0  0  0  0  0  0  0
    9.6890   -3.4494    0.0000 C   0  0  0  0  0  0  0  0  0  0  0  0
   11.8947   -8.7437    0.0000 F   0  0  0  0  0  0  0  0  0  0  0  0
   10.4022   -2.2140    0.0000 O   0  0  0  0  0  0  0  0  0  0  0  0
    2.5373   -2.5912    0.0000 C   0  0  0  0  0  0  0  0  0  0  0  0
   10.4022   -1.3847    0.0000 C   0  0  0  0  0  0  0  0  0  0  0  0
  2  1  2  0  0  0  0
  3  6  1  0  0  0  0
  4  3  1  0  0  0  0
  5  2  1  0  0  0  0
  6  1  1  0  0  0  0
  7  1  1  0  0  0  0
  8  7  2  0  0  0  0
  9  2  1  0  0  0  0
 10 22  1  0  0  0  0
 11  8  1  0  0  0  0
 12  4  1  0  0  0  0
 13 10  1  0  0  0  0
 14  3  1  0  0  0  0
 15 19  1  0  0  0  0
 16  7  1  0  0  0  0
 17 15  1  0  0  0  0
 18 17  1  0  0  0  0
 19 26  1  0  0  0  0
 20  6  2  0  0  0  0
 21 18  2  0  0  0  0
 22 16  1  0  0  0  0
 23 13  2  0  0  0  0
 24 19  2  0  0  0  0
 25 17  2  0  0  0  0
 26 12  1  0  0  0  0
 27 14  1  0  0  0  0
 28 14  2  0  0  0  0
 29 32  2  0  0  0  0
 30 18  1  0  0  0  0
 31 34  2  0  0  0  0
 32 25  1  0  0  0  0
 33 27  2  0  0  0  0
 34 28  1  0  0  0  0
 35 29  1  0  0  0  0
 36 31  1  0  0  0  0
 37 13  1  0  0  0  0
 38 36  1  0  0  0  0
  9  8  1  0  0  0  0
  4  5  2  0  0  0  0
 11 10  1  0  0  0  0
 33 31  1  0  0  0  0
 29 21  1  0  0  0  0
M  END
>  <IDNUMBER>
F3168-0278

>  <Chemical_Name>
2-{[11-acetyl-4-(4-methoxyphenyl)-3-oxo-8-thia-4,6,11-triazatricyclo[7.4.0.0?,?]trideca-1(9),2(7),5-trien-5-yl]sulfanyl}-N-(2,4-difluorophenyl)acetamide

>  <PriceCoeff>
1.00

>  <CAS>
892282-39-2

>  <MW>
556.60

>  <Description>
solid

>  <FSP3>
0.23

>  <clogP>
2.72

>  <TPSA>
144.85

>  <Acceptor>
5

>  <Donor>
1

>  <RotBonds>
7

>  <HAC>
38

>  <Collection>
General

>  <PPDS>
+

$$$$
F3171-0076
  Mrv2219 10102508112D          

 22 23  0  0  0  0            999 V2000
    4.4342   -1.7453    0.0000 N   0  0  0  0  0  0  0  0  0  0  0  0
    8.0041   -1.3194    0.0000 N   0  0  0  0  0  0  0  0  0  0  0  0
    8.0834   -0.5010    0.0000 N   0  0  0  0  0  0  0  0  0  0  0  0
    4.3465   -2.5678    0.0000 N   0  0  0  0  0  0  0  0  0  0  0  0
    3.6743   -1.4071    0.0000 C   0  0  0  0  0  0  0  0  0  0  0  0
    8.7556   -1.6576    0.0000 C   0  0  0  0  0  0  0  0  0  0  0  0
    3.1232   -2.0209    0.0000 C   0  0  0  0  0  0  0  0  0  0  0  0
    9.3067   -1.0439    0.0000 C   0  0  0  0  0  0  0  0  0  0  0  0
    3.5365   -2.7349    0.0000 C   0  0  0  0  0  0  0  0  0  0  0  0
    8.8934   -0.3299    0.0000 C   0  0  0  0  0  0  0  0  0  0  0  0
    7.2901   -1.7411    0.0000 C   0  0  0  0  0  0  0  0  0  0  0  0
    5.1481   -1.3320    0.0000 C   0  0  0  0  0  0  0  0  0  0  0  0
    5.8621   -1.7453    0.0000 C   0  0  0  0  0  0  0  0  0  0  0  0
    6.5761   -1.3320    0.0000 C   0  0  0  0  0  0  0  0  0  0  0  0
    7.2901   -2.5678    0.0000 O   0  0  0  0  0  0  0  0  0  0  0  0
    5.1398   -0.5052    0.0000 O   0  0  0  0  0  0  0  0  0  0  0  0
   10.1251   -1.1273    0.0000 Cl  0  0  0  0  0  0  0  0  0  0  0  0
    2.3048   -1.9415    0.0000 Cl  0  0  0  0  0  0  0  0  0  0  0  0
    3.5073   -0.6055    0.0000 C   0  0  0  0  0  0  0  0  0  0  0  0
    8.9310   -2.4676    0.0000 C   0  0  0  0  0  0  0  0  0  0  0  0
    9.2233    0.4259    0.0000 C   0  0  0  0  0  0  0  0  0  0  0  0
    3.2066   -3.4947    0.0000 C   0  0  0  0  0  0  0  0  0  0  0  0
  2 11  1  0  0  0  0
  3  2  1  0  0  0  0
  4  1  1  0  0  0  0
  5  1  1  0  0  0  0
  6  2  1  0  0  0  0
  7  5  2  0  0  0  0
  8  6  2  0  0  0  0
  9  4  2  0  0  0  0
 10  3  2  0  0  0  0
 11 14  1  0  0  0  0
 12  1  1  0  0  0  0
 13 12  1  0  0  0  0
 14 13  1  0  0  0  0
 15 11  2  0  0  0  0
 16 12  2  0  0  0  0
 17  8  1  0  0  0  0
 18  7  1  0  0  0  0
 19  5  1  0  0  0  0
 20  6  1  0  0  0  0
 21 10  1  0  0  0  0
 22  9  1  0  0  0  0
  7  9  1  0  0  0  0
  8 10  1  0  0  0  0
M  END
>  <IDNUMBER>
F3171-0076

>  <Chemical_Name>
1,4-bis(4-chloro-3,5-dimethyl-1H-pyrazol-1-yl)butane-1,4-dione

>  <PriceCoeff>
1.00

>  <MW>
343.21

>  <Description>
solid

>  <FSP3>
0.43

>  <clogP>
4.15

>  <TPSA>
69.78

>  <Acceptor>
4

>  <Donor>
0

>  <RotBonds>
5

>  <HAC>
22

>  <Collection>
General

$$$$
F3176-0003
  Mrv2219 10102508112D          

 18 20  0  0  0  0            999 V2000
    2.1435    1.2424    0.0000 C   0  0  0  0  0  0  0  0  0  0  0  0
    2.1435    2.0674    0.0000 C   0  0  0  0  0  0  0  0  0  0  0  0
    2.9268    0.9846    0.0000 N   0  0  0  0  0  0  0  0  0  0  0  0
    1.4241    0.8250    0.0000 N   0  0  0  0  0  0  0  0  0  0  0  0
    0.7145    2.0674    0.0000 N   0  0  0  0  0  0  0  0  0  0  0  0
    0.7145    1.2424    0.0000 C   0  0  0  0  0  0  0  0  0  0  0  0
    3.4130    1.6549    0.0000 C   0  0  0  0  0  0  0  0  0  0  0  0
    1.4241    2.4750    0.0000 C   0  0  0  0  0  0  0  0  0  0  0  0
    2.9268    2.3203    0.0000 N   0  0  0  0  0  0  0  0  0  0  0  0
    4.2380    1.6549    0.0000 N   0  0  0  0  0  0  0  0  0  0  0  0
    0.0000    0.8299    0.0000 O   0  0  0  0  0  0  0  0  0  0  0  0
    1.4241    3.2951    0.0000 O   0  0  0  0  0  0  0  0  0  0  0  0
    1.4241    0.0000    0.0000 C   0  0  0  0  0  0  0  0  0  0  0  0
    0.0000    2.4750    0.0000 C   0  0  0  0  0  0  0  0  0  0  0  0
    4.7217    0.9846    0.0000 C   0  0  0  0  0  0  0  0  0  0  0  0
    4.7217    2.3203    0.0000 C   0  0  0  0  0  0  0  0  0  0  0  0
    5.5049    2.0674    0.0000 C   0  0  0  0  0  0  0  0  0  0  0  0
    5.5049    1.2424    0.0000 C   0  0  0  0  0  0  0  0  0  0  0  0
  2  1  2  0  0  0  0
  3  1  1  0  0  0  0
  4  1  1  0  0  0  0
  5  6  1  0  0  0  0
  6  4  1  0  0  0  0
  7  3  2  0  0  0  0
  8  2  1  0  0  0  0
  9  2  1  0  0  0  0
 10  7  1  0  0  0  0
 11  6  2  0  0  0  0
 12  8  2  0  0  0  0
 13  4  1  0  0  0  0
 14  5  1  0  0  0  0
 15 10  1  0  0  0  0
 16 10  1  0  0  0  0
 17 16  1  0  0  0  0
 18 15  1  0  0  0  0
  9  7  1  0  0  0  0
  5  8  1  0  0  0  0
 17 18  1  0  0  0  0
M  END
>  <IDNUMBER>
F3176-0003

>  <Chemical_Name>
1,3-dimethyl-8-(pyrrolidin-1-yl)-2,3,6,7-tetrahydro-1H-purine-2,6-dione

>  <PriceCoeff>
1.50

>  <CAS>
30958-51-1

>  <MW>
249.27

>  <Description>
solid

>  <FSP3>
0.55

>  <clogP>
0.80

>  <TPSA>
72.54

>  <Acceptor>
4

>  <Donor>
3

>  <RotBonds>
1

>  <HAC>
18

>  <Collection>
Advanced

>  <PPDS>
+

$$$$
F3176-0004
  Mrv2219 10102508112D          

 19 21  0  0  0  0            999 V2000
    2.1435    1.2424    0.0000 C   0  0  0  0  0  0  0  0  0  0  0  0
    2.1435    2.0674    0.0000 C   0  0  0  0  0  0  0  0  0  0  0  0
    2.9268    0.9846    0.0000 N   0  0  0  0  0  0  0  0  0  0  0  0
    1.4241    0.8250    0.0000 N   0  0  0  0  0  0  0  0  0  0  0  0
    0.7145    2.0674    0.0000 N   0  0  0  0  0  0  0  0  0  0  0  0
    0.7145    1.2424    0.0000 C   0  0  0  0  0  0  0  0  0  0  0  0
    3.4130    1.6549    0.0000 C   0  0  0  0  0  0  0  0  0  0  0  0
    1.4241    2.4750    0.0000 C   0  0  0  0  0  0  0  0  0  0  0  0
    2.9268    2.3203    0.0000 N   0  0  0  0  0  0  0  0  0  0  0  0
    4.2380    1.6549    0.0000 N   0  0  0  0  0  0  0  0  0  0  0  0
    0.0000    0.8299    0.0000 O   0  0  0  0  0  0  0  0  0  0  0  0
    1.4241    3.2951    0.0000 O   0  0  0  0  0  0  0  0  0  0  0  0
    1.4241    0.0000    0.0000 C   0  0  0  0  0  0  0  0  0  0  0  0
    0.0000    2.4750    0.0000 C   0  0  0  0  0  0  0  0  0  0  0  0
    4.6505    0.9404    0.0000 C   0  0  0  0  0  0  0  0  0  0  0  0
    4.6505    2.3645    0.0000 C   0  0  0  0  0  0  0  0  0  0  0  0
    5.4755    2.3645    0.0000 C   0  0  0  0  0  0  0  0  0  0  0  0
    5.4755    0.9404    0.0000 C   0  0  0  0  0  0  0  0  0  0  0  0
    5.8880    1.6549    0.0000 C   0  0  0  0  0  0  0  0  0  0  0  0
  2  1  2  0  0  0  0
  3  1  1  0  0  0  0
  4  1  1  0  0  0  0
  5  6  1  0  0  0  0
  6  4  1  0  0  0  0
  7  3  2  0  0  0  0
  8  2  1  0  0  0  0
  9  2  1  0  0  0  0
 10  7  1  0  0  0  0
 11  6  2  0  0  0  0
 12  8  2  0  0  0  0
 13  4  1  0  0  0  0
 14  5  1  0  0  0  0
 15 10  1  0  0  0  0
 16 10  1  0  0  0  0
 17 16  1  0  0  0  0
 18 15  1  0  0  0  0
 19 17  1  0  0  0  0
  9  7  1  0  0  0  0
  5  8  1  0  0  0  0
 19 18  1  0  0  0  0
M  END
>  <IDNUMBER>
F3176-0004

>  <Chemical_Name>
1,3-dimethyl-8-(piperidin-1-yl)-2,3,6,7-tetrahydro-1H-purine-2,6-dione

>  <PriceCoeff>
1.50

>  <CAS>
961-48-8

>  <MW>
263.30

>  <Description>
solid

>  <FSP3>
0.58

>  <clogP>
1.35

>  <TPSA>
72.54

>  <Acceptor>
4

>  <Donor>
3

>  <RotBonds>
1

>  <HAC>
19

>  <Collection>
Advanced

>  <PPDS>
+

$$$$
F3176-0005
  Mrv2219 10102508112D          

 19 21  0  0  0  0            999 V2000
    2.1435    1.2424    0.0000 C   0  0  0  0  0  0  0  0  0  0  0  0
    2.1435    2.0674    0.0000 C   0  0  0  0  0  0  0  0  0  0  0  0
    2.9268    0.9846    0.0000 N   0  0  0  0  0  0  0  0  0  0  0  0
    1.4241    0.8250    0.0000 N   0  0  0  0  0  0  0  0  0  0  0  0
    0.7145    2.0674    0.0000 N   0  0  0  0  0  0  0  0  0  0  0  0
    0.7145    1.2424    0.0000 C   0  0  0  0  0  0  0  0  0  0  0  0
    3.4130    1.6549    0.0000 C   0  0  0  0  0  0  0  0  0  0  0  0
    1.4241    2.4750    0.0000 C   0  0  0  0  0  0  0  0  0  0  0  0
    2.9268    2.3203    0.0000 N   0  0  0  0  0  0  0  0  0  0  0  0
    4.2380    1.6549    0.0000 N   0  0  0  0  0  0  0  0  0  0  0  0
    0.0000    0.8299    0.0000 O   0  0  0  0  0  0  0  0  0  0  0  0
    1.4241    3.2951    0.0000 O   0  0  0  0  0  0  0  0  0  0  0  0
    1.4241    0.0000    0.0000 C   0  0  0  0  0  0  0  0  0  0  0  0
    0.0000    2.4750    0.0000 C   0  0  0  0  0  0  0  0  0  0  0  0
    5.8880    1.6549    0.0000 O   0  0  0  0  0  0  0  0  0  0  0  0
    4.6505    0.9404    0.0000 C   0  0  0  0  0  0  0  0  0  0  0  0
    4.6505    2.3645    0.0000 C   0  0  0  0  0  0  0  0  0  0  0  0
    5.4755    2.3645    0.0000 C   0  0  0  0  0  0  0  0  0  0  0  0
    5.4755    0.9404    0.0000 C   0  0  0  0  0  0  0  0  0  0  0  0
  2  1  2  0  0  0  0
  3  1  1  0  0  0  0
  4  1  1  0  0  0  0
  5  6  1  0  0  0  0
  6  4  1  0  0  0  0
  7  3  2  0  0  0  0
  8  2  1  0  0  0  0
  9  2  1  0  0  0  0
 10  7  1  0  0  0  0
 11  6  2  0  0  0  0
 12  8  2  0  0  0  0
 13  4  1  0  0  0  0
 14  5  1  0  0  0  0
 15 18  1  0  0  0  0
 16 10  1  0  0  0  0
 17 10  1  0  0  0  0
 18 17  1  0  0  0  0
 19 16  1  0  0  0  0
  9  7  1  0  0  0  0
  5  8  1  0  0  0  0
 15 19  1  0  0  0  0
M  END
>  <IDNUMBER>
F3176-0005

>  <Chemical_Name>
1,3-dimethyl-8-(morpholin-4-yl)-2,3,6,7-tetrahydro-1H-purine-2,6-dione

>  <PriceCoeff>
1.50

>  <CAS>
30958-49-7

>  <MW>
265.27

>  <Description>
solid

>  <FSP3>
0.55

>  <clogP>
-0.03

>  <TPSA>
81.77

>  <Acceptor>
5

>  <Donor>
3

>  <RotBonds>
1

>  <HAC>
19

>  <Collection>
Advanced

>  <PPDS>
+

$$$$
F3176-0006
  Mrv2219 10102508112D          

 20 22  0  0  0  0            999 V2000
    2.1435    1.2424    0.0000 C   0  0  0  0  0  0  0  0  0  0  0  0
    2.1435    2.0674    0.0000 C   0  0  0  0  0  0  0  0  0  0  0  0
    2.9268    0.9846    0.0000 N   0  0  0  0  0  0  0  0  0  0  0  0
    1.4241    0.8250    0.0000 N   0  0  0  0  0  0  0  0  0  0  0  0
    0.7145    2.0674    0.0000 N   0  0  0  0  0  0  0  0  0  0  0  0
    0.7145    1.2424    0.0000 C   0  0  0  0  0  0  0  0  0  0  0  0
    3.4130    1.6549    0.0000 C   0  0  0  0  0  0  0  0  0  0  0  0
    1.4241    2.4750    0.0000 C   0  0  0  0  0  0  0  0  0  0  0  0
    2.9268    2.3203    0.0000 N   0  0  0  0  0  0  0  0  0  0  0  0
    4.2380    1.6549    0.0000 N   0  0  0  0  0  0  0  0  0  0  0  0
    0.0000    0.8299    0.0000 O   0  0  0  0  0  0  0  0  0  0  0  0
    1.4241    3.2951    0.0000 O   0  0  0  0  0  0  0  0  0  0  0  0
    1.4241    0.0000    0.0000 C   0  0  0  0  0  0  0  0  0  0  0  0
    0.0000    2.4750    0.0000 C   0  0  0  0  0  0  0  0  0  0  0  0
    4.5915    0.9109    0.0000 C   0  0  0  0  0  0  0  0  0  0  0  0
    4.5915    2.3940    0.0000 C   0  0  0  0  0  0  0  0  0  0  0  0
    5.3993    2.5781    0.0000 C   0  0  0  0  0  0  0  0  0  0  0  0
    5.3993    0.7268    0.0000 C   0  0  0  0  0  0  0  0  0  0  0  0
    6.0427    1.2424    0.0000 C   0  0  0  0  0  0  0  0  0  0  0  0
    6.0427    2.0674    0.0000 C   0  0  0  0  0  0  0  0  0  0  0  0
  2  1  2  0  0  0  0
  3  1  1  0  0  0  0
  4  1  1  0  0  0  0
  5  6  1  0  0  0  0
  6  4  1  0  0  0  0
  7  3  2  0  0  0  0
  8  2  1  0  0  0  0
  9  2  1  0  0  0  0
 10  7  1  0  0  0  0
 11  6  2  0  0  0  0
 12  8  2  0  0  0  0
 13  4  1  0  0  0  0
 14  5  1  0  0  0  0
 15 10  1  0  0  0  0
 16 10  1  0  0  0  0
 17 16  1  0  0  0  0
 18 15  1  0  0  0  0
 19 18  1  0  0  0  0
 20 17  1  0  0  0  0
  9  7  1  0  0  0  0
  5  8  1  0  0  0  0
 20 19  1  0  0  0  0
M  END
>  <IDNUMBER>
F3176-0006

>  <Chemical_Name>
8-(azepan-1-yl)-1,3-dimethyl-2,3,6,7-tetrahydro-1H-purine-2,6-dione

>  <PriceCoeff>
1.50

>  <CAS>
332116-03-7

>  <MW>
277.32

>  <Description>
solid

>  <FSP3>
0.62

>  <clogP>
1.91

>  <TPSA>
72.54

>  <Acceptor>
4

>  <Donor>
3

>  <RotBonds>
1

>  <HAC>
20

>  <Collection>
Advanced

>  <PPDS>
+

$$$$
F3176-0007
  Mrv2219 10102508112D          

 22 24  0  0  0  0            999 V2000
    2.1434    1.2423    0.0000 C   0  0  0  0  0  0  0  0  0  0  0  0
    2.1434    2.0673    0.0000 C   0  0  0  0  0  0  0  0  0  0  0  0
    2.9267    0.9845    0.0000 N   0  0  0  0  0  0  0  0  0  0  0  0
    1.4290    0.8250    0.0000 N   0  0  0  0  0  0  0  0  0  0  0  0
    0.7145    2.0624    0.0000 N   0  0  0  0  0  0  0  0  0  0  0  0
    0.7145    1.2423    0.0000 C   0  0  0  0  0  0  0  0  0  0  0  0
    1.4241    2.4749    0.0000 C   0  0  0  0  0  0  0  0  0  0  0  0
    3.4128    1.6548    0.0000 C   0  0  0  0  0  0  0  0  0  0  0  0
    2.9267    2.3202    0.0000 N   0  0  0  0  0  0  0  0  0  0  0  0
    4.2378    1.6548    0.0000 N   0  0  0  0  0  0  0  0  0  0  0  0
    0.0000    0.8299    0.0000 O   0  0  0  0  0  0  0  0  0  0  0  0
    1.4241    3.2950    0.0000 O   0  0  0  0  0  0  0  0  0  0  0  0
    4.6503    0.9403    0.0000 C   0  0  0  0  0  0  0  0  0  0  0  0
    1.4241    0.0000    0.0000 C   0  0  0  0  0  0  0  0  0  0  0  0
    0.0000    2.4749    0.0000 C   0  0  0  0  0  0  0  0  0  0  0  0
    5.4752    0.9403    0.0000 C   0  0  0  0  0  0  0  0  0  0  0  0
    4.6503    2.3644    0.0000 C   0  0  0  0  0  0  0  0  0  0  0  0
    5.8877    0.2259    0.0000 C   0  0  0  0  0  0  0  0  0  0  0  0
    5.8877    1.6548    0.0000 C   0  0  0  0  0  0  0  0  0  0  0  0
    6.7127    1.6548    0.0000 C   0  0  0  0  0  0  0  0  0  0  0  0
    6.7127    0.2259    0.0000 C   0  0  0  0  0  0  0  0  0  0  0  0
    7.1252    0.9403    0.0000 C   0  0  0  0  0  0  0  0  0  0  0  0
  2  1  2  0  0  0  0
  3  1  1  0  0  0  0
  4  1  1  0  0  0  0
  5  6  1  0  0  0  0
  6  4  1  0  0  0  0
  7  2  1  0  0  0  0
  8  3  2  0  0  0  0
  9  2  1  0  0  0  0
 10  8  1  0  0  0  0
 11  6  2  0  0  0  0
 12  7  2  0  0  0  0
 13 10  1  0  0  0  0
 14  4  1  0  0  0  0
 15  5  1  0  0  0  0
 16 13  1  0  0  0  0
 17 10  1  0  0  0  0
 18 16  2  0  0  0  0
 19 16  1  0  0  0  0
 20 19  2  0  0  0  0
 21 18  1  0  0  0  0
 22 20  1  0  0  0  0
  9  8  1  0  0  0  0
  5  7  1  0  0  0  0
 22 21  2  0  0  0  0
M  END
>  <IDNUMBER>
F3176-0007

>  <Chemical_Name>
8-[benzyl(methyl)amino]-1,3-dimethyl-2,3,6,7-tetrahydro-1H-purine-2,6-dione

>  <PriceCoeff>
1.50

>  <CAS>
40799-92-6

>  <MW>
299.33

>  <Description>
solid

>  <FSP3>
0.27

>  <clogP>
2.45

>  <TPSA>
72.54

>  <Acceptor>
4

>  <Donor>
3

>  <RotBonds>
3

>  <HAC>
22

>  <Collection>
Advanced

>  <PPDS>
+

$$$$
F3176-0009
  Mrv2219 10102508112D          

 16 17  0  0  0  0            999 V2000
    2.1435    1.2424    0.0000 C   0  0  0  0  0  0  0  0  0  0  0  0
    2.1435    2.0674    0.0000 C   0  0  0  0  0  0  0  0  0  0  0  0
    1.4241    0.8250    0.0000 N   0  0  0  0  0  0  0  0  0  0  0  0
    0.7145    2.0674    0.0000 N   0  0  0  0  0  0  0  0  0  0  0  0
    0.7145    1.2424    0.0000 C   0  0  0  0  0  0  0  0  0  0  0  0
    1.4241    2.4750    0.0000 C   0  0  0  0  0  0  0  0  0  0  0  0
    2.9268    0.9846    0.0000 N   0  0  0  0  0  0  0  0  0  0  0  0
    2.9268    2.3203    0.0000 N   0  0  0  0  0  0  0  0  0  0  0  0
    3.4130    1.6549    0.0000 C   0  0  0  0  0  0  0  0  0  0  0  0
    0.0000    0.8299    0.0000 O   0  0  0  0  0  0  0  0  0  0  0  0
    1.4241    3.2951    0.0000 O   0  0  0  0  0  0  0  0  0  0  0  0
    4.2380    1.6549    0.0000 N   0  0  0  0  0  0  0  0  0  0  0  0
    1.4241    0.0000    0.0000 C   0  0  0  0  0  0  0  0  0  0  0  0
    0.0000    2.4750    0.0000 C   0  0  0  0  0  0  0  0  0  0  0  0
    4.6505    2.3645    0.0000 C   0  0  0  0  0  0  0  0  0  0  0  0
    5.4755    2.3645    0.0000 C   0  0  0  0  0  0  0  0  0  0  0  0
  2  1  2  0  0  0  0
  3  1  1  0  0  0  0
  4  5  1  0  0  0  0
  5  3  1  0  0  0  0
  6  2  1  0  0  0  0
  7  1  1  0  0  0  0
  8  2  1  0  0  0  0
  9  7  2  0  0  0  0
 10  5  2  0  0  0  0
 11  6  2  0  0  0  0
 12  9  1  0  0  0  0
 13  3  1  0  0  0  0
 14  4  1  0  0  0  0
 15 12  1  0  0  0  0
 16 15  1  0  0  0  0
  8  9  1  0  0  0  0
  4  6  1  0  0  0  0
M  END
>  <IDNUMBER>
F3176-0009

>  <Chemical_Name>
8-(ethylamino)-1,3-dimethyl-2,3,6,7-tetrahydro-1H-purine-2,6-dione

>  <PriceCoeff>
1.50

>  <CAS>
5426-46-0

>  <MW>
223.23

>  <Description>
solid

>  <FSP3>
0.44

>  <clogP>
1.06

>  <TPSA>
81.33

>  <Acceptor>
4

>  <Donor>
3

>  <RotBonds>
2

>  <HAC>
16

>  <Collection>
Advanced

>  <PPDS>
+

$$$$
F3176-0122
  Mrv2219 10102508112D          

 18 19  0  0  0  0            999 V2000
    2.1435    1.2424    0.0000 C   0  0  0  0  0  0  0  0  0  0  0  0
    2.1435    2.0674    0.0000 C   0  0  0  0  0  0  0  0  0  0  0  0
    1.4241    0.8250    0.0000 N   0  0  0  0  0  0  0  0  0  0  0  0
    0.7145    2.0674    0.0000 N   0  0  0  0  0  0  0  0  0  0  0  0
    0.7145    1.2424    0.0000 C   0  0  0  0  0  0  0  0  0  0  0  0
    1.4241    2.4750    0.0000 C   0  0  0  0  0  0  0  0  0  0  0  0
    2.9268    0.9846    0.0000 N   0  0  0  0  0  0  0  0  0  0  0  0
    2.9268    2.3203    0.0000 N   0  0  0  0  0  0  0  0  0  0  0  0
    3.4130    1.6549    0.0000 C   0  0  0  0  0  0  0  0  0  0  0  0
    0.0000    0.8299    0.0000 O   0  0  0  0  0  0  0  0  0  0  0  0
    1.4241    3.2951    0.0000 O   0  0  0  0  0  0  0  0  0  0  0  0
    4.2380    1.6549    0.0000 N   0  0  0  0  0  0  0  0  0  0  0  0
    1.4241    0.0000    0.0000 C   0  0  0  0  0  0  0  0  0  0  0  0
    0.0000    2.4750    0.0000 C   0  0  0  0  0  0  0  0  0  0  0  0
    4.6505    2.3645    0.0000 C   0  0  0  0  0  0  0  0  0  0  0  0
    5.4755    2.3645    0.0000 C   0  0  0  0  0  0  0  0  0  0  0  0
    5.8880    3.0741    0.0000 C   0  0  0  0  0  0  0  0  0  0  0  0
    6.7130    3.0741    0.0000 C   0  0  0  0  0  0  0  0  0  0  0  0
  2  1  2  0  0  0  0
  3  1  1  0  0  0  0
  4  5  1  0  0  0  0
  5  3  1  0  0  0  0
  6  2  1  0  0  0  0
  7  1  1  0  0  0  0
  8  2  1  0  0  0  0
  9  7  2  0  0  0  0
 10  5  2  0  0  0  0
 11  6  2  0  0  0  0
 12  9  1  0  0  0  0
 13  3  1  0  0  0  0
 14  4  1  0  0  0  0
 15 12  1  0  0  0  0
 16 15  1  0  0  0  0
 17 16  1  0  0  0  0
 18 17  1  0  0  0  0
  8  9  1  0  0  0  0
  4  6  1  0  0  0  0
M  END
>  <IDNUMBER>
F3176-0122

>  <Chemical_Name>
8-(butylamino)-1,3-dimethyl-2,3,6,7-tetrahydro-1H-purine-2,6-dione

>  <PriceCoeff>
1.00

>  <CAS>
108776-34-7

>  <MW>
251.28

>  <Description>
solid

>  <FSP3>
0.55

>  <clogP>
2.11

>  <TPSA>
81.33

>  <Acceptor>
4

>  <Donor>
3

>  <RotBonds>
4

>  <HAC>
18

>  <Collection>
General

>  <PPDS>
+

$$$$
F3176-0123
  Mrv2219 10102508112D          

 18 19  0  0  0  0            999 V2000
    2.1435    1.2424    0.0000 C   0  0  0  0  0  0  0  0  0  0  0  0
    2.1435    2.0674    0.0000 C   0  0  0  0  0  0  0  0  0  0  0  0
    1.4241    0.8250    0.0000 N   0  0  0  0  0  0  0  0  0  0  0  0
    0.7145    2.0674    0.0000 N   0  0  0  0  0  0  0  0  0  0  0  0
    0.7145    1.2424    0.0000 C   0  0  0  0  0  0  0  0  0  0  0  0
    1.4241    2.4750    0.0000 C   0  0  0  0  0  0  0  0  0  0  0  0
    2.9268    0.9846    0.0000 N   0  0  0  0  0  0  0  0  0  0  0  0
    3.4130    1.6549    0.0000 C   0  0  0  0  0  0  0  0  0  0  0  0
    2.9268    2.3203    0.0000 N   0  0  0  0  0  0  0  0  0  0  0  0
    0.0000    0.8299    0.0000 O   0  0  0  0  0  0  0  0  0  0  0  0
    1.4241    3.2951    0.0000 O   0  0  0  0  0  0  0  0  0  0  0  0
    4.2380    1.6549    0.0000 N   0  0  0  0  0  0  0  0  0  0  0  0
    1.4241    0.0000    0.0000 C   0  0  0  0  0  0  0  0  0  0  0  0
    0.0000    2.4750    0.0000 C   0  0  0  0  0  0  0  0  0  0  0  0
    5.0409    1.0582    0.0000 C   0  0  0  0  0  0  0  0  0  0  0  0
    5.7996    1.3750    0.0000 C   0  0  0  0  0  0  0  0  0  0  0  0
    6.4552    0.8741    0.0000 C   0  0  0  0  0  0  0  0  0  0  0  0
    5.9027    2.1926    0.0000 C   0  0  0  0  0  0  0  0  0  0  0  0
  2  1  2  0  0  0  0
  3  1  1  0  0  0  0
  4  5  1  0  0  0  0
  5  3  1  0  0  0  0
  6  2  1  0  0  0  0
  7  1  1  0  0  0  0
  8  7  2  0  0  0  0
  9  2  1  0  0  0  0
 10  5  2  0  0  0  0
 11  6  2  0  0  0  0
 12  8  1  0  0  0  0
 13  3  1  0  0  0  0
 14  4  1  0  0  0  0
 15 12  1  0  0  0  0
 16 15  1  0  0  0  0
 17 16  1  0  0  0  0
 18 16  1  0  0  0  0
  9  8  1  0  0  0  0
  4  6  1  0  0  0  0
M  END
>  <IDNUMBER>
F3176-0123

>  <Chemical_Name>
1,3-dimethyl-8-[(2-methylpropyl)amino]-2,3,6,7-tetrahydro-1H-purine-2,6-dione

>  <PriceCoeff>
1.50

>  <CAS>
32086-99-0

>  <MW>
251.28

>  <Description>
solid

>  <FSP3>
0.55

>  <clogP>
1.98

>  <TPSA>
81.33

>  <Acceptor>
4

>  <Donor>
3

>  <RotBonds>
3

>  <HAC>
18

>  <Collection>
Advanced

>  <PPDS>
+

$$$$
F3182-0011
  Mrv2219 10102508112D          

 20 20  0  0  0  0            999 V2000
    2.0018   -0.5410    0.0000 N   0  0  0  0  0  0  0  0  0  0  0  0
    1.7480   -1.3277    0.0000 C   0  0  0  0  0  0  0  0  0  0  0  0
    1.3360   -0.0666    0.0000 C   0  0  0  0  0  0  0  0  0  0  0  0
    9.7553   -1.8021    0.0000 C   0  0  0  0  0  0  0  0  0  0  0  0
    0.6784   -0.5410    0.0000 C   0  0  0  0  0  0  0  0  0  0  0  0
    0.9282   -1.3277    0.0000 C   0  0  0  0  0  0  0  0  0  0  0  0
    2.2515   -2.0393    0.0000 O   0  0  0  0  0  0  0  0  0  0  0  0
    1.3360    0.7574    0.0000 O   0  0  0  0  0  0  0  0  0  0  0  0
    9.9301   -1.0031    0.0000 O   0  0  0  0  0  0  0  0  0  0  0  0
    2.7885   -0.2913    0.0000 C   0  0  0  0  0  0  0  0  0  0  0  0
   10.3672   -2.3597    0.0000 O   0  0  0  0  0  0  0  0  0  0  0  0
    8.9688   -2.0601    0.0000 C   0  0  0  0  0  0  0  0  0  0  0  0
    3.3877   -0.8408    0.0000 C   0  0  0  0  0  0  0  0  0  0  0  0
    8.3570   -1.5025    0.0000 C   0  0  0  0  0  0  0  0  0  0  0  0
    7.5787   -1.7522    0.0000 C   0  0  0  0  0  0  0  0  0  0  0  0
    4.1744   -0.5910    0.0000 C   0  0  0  0  0  0  0  0  0  0  0  0
    4.7861   -1.1487    0.0000 C   0  0  0  0  0  0  0  0  0  0  0  0
    5.5728   -0.8990    0.0000 C   0  0  0  0  0  0  0  0  0  0  0  0
    6.1845   -1.4525    0.0000 C   0  0  0  0  0  0  0  0  0  0  0  0
    6.9669   -1.2028    0.0000 C   0  0  0  0  0  0  0  0  0  0  0  0
  2  1  1  0  0  0  0
  3  1  1  0  0  0  0
  4 12  1  0  0  0  0
  5  3  1  0  0  0  0
  6  2  1  0  0  0  0
  7  2  2  0  0  0  0
  8  3  2  0  0  0  0
  9  4  2  0  0  0  0
 10  1  1  0  0  0  0
 11  4  1  0  0  0  0
 12 14  1  0  0  0  0
 13 10  1  0  0  0  0
 14 15  1  0  0  0  0
 15 20  1  0  0  0  0
 16 13  1  0  0  0  0
 17 16  1  0  0  0  0
 18 17  1  0  0  0  0
 19 18  1  0  0  0  0
 20 19  1  0  0  0  0
  5  6  1  0  0  0  0
M  END
>  <IDNUMBER>
F3182-0011

>  <Chemical_Name>
11-(2,5-dioxopyrrolidin-1-yl)undecanoic acid

>  <PriceCoeff>
1.00

>  <CAS>
501074-27-7

>  <MW>
283.36

>  <Description>
solid

>  <FSP3>
0.80

>  <clogP>
2.73

>  <TPSA>
74.68

>  <Acceptor>
4

>  <Donor>
0

>  <RotBonds>
11

>  <HAC>
20

>  <Collection>
General

>  <PPDS>
+

$$$$
F3188-0005
  Mrv2219 10102508112D          

 28 30  0  0  0  0            999 V2000
    4.1292   -2.6917    0.0000 N   0  0  0  0  0  0  0  0  0  0  0  0
    4.6167   -3.3542    0.0000 C   0  0  0  0  0  0  0  0  0  0  0  0
    4.6125   -2.0167    0.0000 C   0  0  0  0  0  0  0  0  0  0  0  0
    5.4042   -3.0917    0.0000 C   0  0  0  0  0  0  0  0  0  0  0  0
    5.4000   -2.2667    0.0000 C   0  0  0  0  0  0  0  0  0  0  0  0
    3.3042   -2.6917    0.0000 C   0  0  0  0  0  0  0  0  0  0  0  0
    6.0667   -3.5792    0.0000 N   0  0  0  0  0  0  0  0  0  0  0  0
    7.4042   -4.5417    0.0000 N   0  0  0  0  0  0  0  0  0  0  0  0
    8.0750   -5.0292    0.0000 C   0  0  0  0  0  0  0  0  0  0  0  0
    2.8917   -1.9792    0.0000 C   0  0  0  0  0  0  0  0  0  0  0  0
    2.0667   -1.9875    0.0000 C   0  0  0  0  0  0  0  0  0  0  0  0
    4.3667   -4.1417    0.0000 O   0  0  0  0  0  0  0  0  0  0  0  0
    2.9000   -3.4125    0.0000 C   0  0  0  0  0  0  0  0  0  0  0  0
    4.3542   -1.2375    0.0000 O   0  0  0  0  0  0  0  0  0  0  0  0
    7.4875   -3.7167    0.0000 C   0  0  0  0  0  0  0  0  0  0  0  0
    6.6500   -4.8792    0.0000 C   0  0  0  0  0  0  0  0  0  0  0  0
    6.8167   -3.2375    0.0000 C   0  0  0  0  0  0  0  0  0  0  0  0
    5.9792   -4.4000    0.0000 C   0  0  0  0  0  0  0  0  0  0  0  0
    8.8292   -4.6917    0.0000 O   0  0  0  0  0  0  0  0  0  0  0  0
    1.6542   -2.7042    0.0000 C   0  0  0  0  0  0  0  0  0  0  0  0
    7.9875   -5.8500    0.0000 O   0  0  0  0  0  0  0  0  0  0  0  0
    2.0792   -3.4167    0.0000 C   0  0  0  0  0  0  0  0  0  0  0  0
    3.3000   -1.2667    0.0000 O   0  0  0  0  0  0  0  0  0  0  0  0
    0.8292   -2.7042    0.0000 O   0  0  0  0  0  0  0  0  0  0  0  0
    7.2375   -6.1792    0.0000 C   0  0  0  0  0  0  0  0  0  0  0  0
    2.8875   -0.5542    0.0000 C   0  0  0  0  0  0  0  0  0  0  0  0
    0.4167   -1.9917    0.0000 C   0  0  0  0  0  0  0  0  0  0  0  0
    7.1500   -7.0042    0.0000 C   0  0  0  0  0  0  0  0  0  0  0  0
  2  1  1  0  0  0  0
  3  1  1  0  0  0  0
  4  2  1  0  0  0  0
  5  3  1  0  0  0  0
  6  1  1  0  0  0  0
  7  4  1  0  0  0  0
  8 16  1  0  0  0  0
  9  8  1  0  0  0  0
 10  6  2  0  0  0  0
 11 10  1  0  0  0  0
 12  2  2  0  0  0  0
 13  6  1  0  0  0  0
 14  3  2  0  0  0  0
 15 17  1  0  0  0  0
 16 18  1  0  0  0  0
 17  7  1  0  0  0  0
 18  7  1  0  0  0  0
 19  9  2  0  0  0  0
 20 22  1  0  0  0  0
 21  9  1  0  0  0  0
 22 13  2  0  0  0  0
 23 10  1  0  0  0  0
 24 20  1  0  0  0  0
 25 21  1  0  0  0  0
 26 23  1  0  0  0  0
 27 24  1  0  0  0  0
 28 25  1  0  0  0  0
  5  4  1  0  0  0  0
 20 11  2  0  0  0  0
  8 15  1  0  0  0  0
M  END
>  <IDNUMBER>
F3188-0005

>  <Chemical_Name>
ethyl 4-[1-(2,4-dimethoxyphenyl)-2,5-dioxopyrrolidin-3-yl]piperazine-1-carboxylate

>  <PriceCoeff>
1.00

>  <CAS>
857494-13-4

>  <MW>
391.42

>  <Description>
solid

>  <FSP3>
0.53

>  <clogP>
2.50

>  <TPSA>
88.62

>  <Acceptor>
6

>  <Donor>
1

>  <RotBonds>
7

>  <HAC>
28

>  <Collection>
General

>  <PPDS>
+

$$$$
F3188-0006
  Mrv2219 10102508112D          

 28 30  0  0  0  0            999 V2000
    5.1417   -1.2667    0.0000 N   0  0  0  0  0  0  0  0  0  0  0  0
    5.6292   -1.9375    0.0000 C   0  0  0  0  0  0  0  0  0  0  0  0
    5.6250   -0.6000    0.0000 C   0  0  0  0  0  0  0  0  0  0  0  0
    4.3167   -1.2750    0.0000 C   0  0  0  0  0  0  0  0  0  0  0  0
    6.4167   -1.6750    0.0000 C   0  0  0  0  0  0  0  0  0  0  0  0
    6.4125   -0.8500    0.0000 C   0  0  0  0  0  0  0  0  0  0  0  0
    7.0792   -2.1542    0.0000 N   0  0  0  0  0  0  0  0  0  0  0  0
    8.4167   -3.1167    0.0000 N   0  0  0  0  0  0  0  0  0  0  0  0
    9.0875   -3.6042    0.0000 C   0  0  0  0  0  0  0  0  0  0  0  0
    3.9125   -1.9917    0.0000 C   0  0  0  0  0  0  0  0  0  0  0  0
    5.3792   -2.7167    0.0000 O   0  0  0  0  0  0  0  0  0  0  0  0
    3.9042   -0.5625    0.0000 C   0  0  0  0  0  0  0  0  0  0  0  0
    5.3667    0.1833    0.0000 O   0  0  0  0  0  0  0  0  0  0  0  0
    8.5000   -2.3000    0.0000 C   0  0  0  0  0  0  0  0  0  0  0  0
    7.6625   -3.4542    0.0000 C   0  0  0  0  0  0  0  0  0  0  0  0
    7.8292   -1.8167    0.0000 C   0  0  0  0  0  0  0  0  0  0  0  0
    6.9917   -2.9792    0.0000 C   0  0  0  0  0  0  0  0  0  0  0  0
    9.8417   -3.2667    0.0000 O   0  0  0  0  0  0  0  0  0  0  0  0
    3.0792   -0.5667    0.0000 C   0  0  0  0  0  0  0  0  0  0  0  0
    3.0917   -1.9917    0.0000 C   0  0  0  0  0  0  0  0  0  0  0  0
    9.0000   -4.4292    0.0000 O   0  0  0  0  0  0  0  0  0  0  0  0
    2.6667   -1.2792    0.0000 C   0  0  0  0  0  0  0  0  0  0  0  0
    4.3125    0.1583    0.0000 O   0  0  0  0  0  0  0  0  0  0  0  0
    2.6792   -2.7167    0.0000 O   0  0  0  0  0  0  0  0  0  0  0  0
    8.2500   -4.7625    0.0000 C   0  0  0  0  0  0  0  0  0  0  0  0
    3.9000    0.8708    0.0000 C   0  0  0  0  0  0  0  0  0  0  0  0
    1.8542   -2.7250    0.0000 C   0  0  0  0  0  0  0  0  0  0  0  0
    8.1625   -5.5792    0.0000 C   0  0  0  0  0  0  0  0  0  0  0  0
  2  1  1  0  0  0  0
  3  1  1  0  0  0  0
  4  1  1  0  0  0  0
  5  2  1  0  0  0  0
  6  3  1  0  0  0  0
  7  5  1  0  0  0  0
  8 15  1  0  0  0  0
  9  8  1  0  0  0  0
 10  4  1  0  0  0  0
 11  2  2  0  0  0  0
 12  4  2  0  0  0  0
 13  3  2  0  0  0  0
 14 16  1  0  0  0  0
 15 17  1  0  0  0  0
 16  7  1  0  0  0  0
 17  7  1  0  0  0  0
 18  9  2  0  0  0  0
 19 12  1  0  0  0  0
 20 10  2  0  0  0  0
 21  9  1  0  0  0  0
 22 19  2  0  0  0  0
 23 12  1  0  0  0  0
 24 20  1  0  0  0  0
 25 21  1  0  0  0  0
 26 23  1  0  0  0  0
 27 24  1  0  0  0  0
 28 25  1  0  0  0  0
  6  5  1  0  0  0  0
 22 20  1  0  0  0  0
  8 14  1  0  0  0  0
M  END
>  <IDNUMBER>
F3188-0006

>  <Chemical_Name>
ethyl 4-[1-(2,5-dimethoxyphenyl)-2,5-dioxopyrrolidin-3-yl]piperazine-1-carboxylate

>  <PriceCoeff>
1.00

>  <CAS>
857494-14-5

>  <MW>
391.42

>  <Description>
solid

>  <FSP3>
0.53

>  <clogP>
2.50

>  <TPSA>
88.62

>  <Acceptor>
6

>  <Donor>
1

>  <RotBonds>
7

>  <HAC>
28

>  <Collection>
General

>  <PPDS>
+

$$$$
F3188-0012
  Mrv2219 10102508112D          

 25 27  0  0  0  0            999 V2000
    4.9625   -0.9417    0.0000 N   0  0  0  0  0  0  0  0  0  0  0  0
    5.4542   -1.6042    0.0000 C   0  0  0  0  0  0  0  0  0  0  0  0
    5.4417   -0.2667    0.0000 C   0  0  0  0  0  0  0  0  0  0  0  0
    6.2375   -1.3417    0.0000 C   0  0  0  0  0  0  0  0  0  0  0  0
    6.2292   -0.5167    0.0000 C   0  0  0  0  0  0  0  0  0  0  0  0
    4.1375   -0.9417    0.0000 C   0  0  0  0  0  0  0  0  0  0  0  0
    6.9000   -1.8250    0.0000 N   0  0  0  0  0  0  0  0  0  0  0  0
    8.2375   -2.7917    0.0000 N   0  0  0  0  0  0  0  0  0  0  0  0
    8.9042   -3.2750    0.0000 C   0  0  0  0  0  0  0  0  0  0  0  0
    5.2000   -2.3917    0.0000 O   0  0  0  0  0  0  0  0  0  0  0  0
    5.1875    0.5125    0.0000 O   0  0  0  0  0  0  0  0  0  0  0  0
    3.7292   -1.6625    0.0000 C   0  0  0  0  0  0  0  0  0  0  0  0
    8.3167   -1.9667    0.0000 C   0  0  0  0  0  0  0  0  0  0  0  0
    7.4792   -3.1292    0.0000 C   0  0  0  0  0  0  0  0  0  0  0  0
    7.6500   -1.4875    0.0000 C   0  0  0  0  0  0  0  0  0  0  0  0
    6.8167   -2.6500    0.0000 C   0  0  0  0  0  0  0  0  0  0  0  0
    9.6542   -2.9417    0.0000 O   0  0  0  0  0  0  0  0  0  0  0  0
    8.8167   -4.0917    0.0000 O   0  0  0  0  0  0  0  0  0  0  0  0
    2.9125   -1.6667    0.0000 C   0  0  0  0  0  0  0  0  0  0  0  0
    3.7250   -0.2292    0.0000 C   0  0  0  0  0  0  0  0  0  0  0  0
    2.9000   -0.2375    0.0000 C   0  0  0  0  0  0  0  0  0  0  0  0
    2.4917   -0.9542    0.0000 C   0  0  0  0  0  0  0  0  0  0  0  0
    8.0667   -4.4292    0.0000 C   0  0  0  0  0  0  0  0  0  0  0  0
    2.5042   -2.3875    0.0000 C   0  0  0  0  0  0  0  0  0  0  0  0
    7.9792   -5.2542    0.0000 C   0  0  0  0  0  0  0  0  0  0  0  0
  2  1  1  0  0  0  0
  3  1  1  0  0  0  0
  4  2  1  0  0  0  0
  5  3  1  0  0  0  0
  6  1  1  0  0  0  0
  7  4  1  0  0  0  0
  8 14  1  0  0  0  0
  9  8  1  0  0  0  0
 10  2  2  0  0  0  0
 11  3  2  0  0  0  0
 12  6  1  0  0  0  0
 13 15  1  0  0  0  0
 14 16  1  0  0  0  0
 15  7  1  0  0  0  0
 16  7  1  0  0  0  0
 17  9  2  0  0  0  0
 18  9  1  0  0  0  0
 19 12  2  0  0  0  0
 20  6  2  0  0  0  0
 21 20  1  0  0  0  0
 22 21  2  0  0  0  0
 23 18  1  0  0  0  0
 24 19  1  0  0  0  0
 25 23  1  0  0  0  0
  5  4  1  0  0  0  0
 22 19  1  0  0  0  0
  8 13  1  0  0  0  0
M  END
>  <IDNUMBER>
F3188-0012

>  <Chemical_Name>
ethyl 4-[1-(3-methylphenyl)-2,5-dioxopyrrolidin-3-yl]piperazine-1-carboxylate

>  <PriceCoeff>
1.00

>  <CAS>
857494-08-7

>  <MW>
345.39

>  <Description>
solid

>  <FSP3>
0.50

>  <clogP>
2.88

>  <TPSA>
70.16

>  <Acceptor>
4

>  <Donor>
1

>  <RotBonds>
5

>  <HAC>
25

>  <Collection>
General

>  <PPDS>
+

$$$$
F3188-0013
  Mrv2219 10102508112D          

 30 32  0  0  0  0            999 V2000
    4.9625   -0.9417    0.0000 N   0  0  0  0  0  0  0  0  0  0  0  0
    5.4542   -1.6042    0.0000 C   0  0  0  0  0  0  0  0  0  0  0  0
    5.4417   -0.2667    0.0000 C   0  0  0  0  0  0  0  0  0  0  0  0
    6.2375   -1.3417    0.0000 C   0  0  0  0  0  0  0  0  0  0  0  0
    6.2292   -0.5167    0.0000 C   0  0  0  0  0  0  0  0  0  0  0  0
    6.9000   -1.8250    0.0000 N   0  0  0  0  0  0  0  0  0  0  0  0
    8.2375   -2.7917    0.0000 N   0  0  0  0  0  0  0  0  0  0  0  0
    8.9042   -3.2750    0.0000 C   0  0  0  0  0  0  0  0  0  0  0  0
    4.1375   -0.9417    0.0000 C   0  0  0  0  0  0  0  0  0  0  0  0
    1.6542    0.4708    0.0000 C   0  0  0  0  0  0  0  0  0  0  0  0
    5.2000   -2.3917    0.0000 O   0  0  0  0  0  0  0  0  0  0  0  0
    5.1875    0.5125    0.0000 O   0  0  0  0  0  0  0  0  0  0  0  0
    8.3167   -1.9667    0.0000 C   0  0  0  0  0  0  0  0  0  0  0  0
    7.4792   -3.1292    0.0000 C   0  0  0  0  0  0  0  0  0  0  0  0
    7.6500   -1.4875    0.0000 C   0  0  0  0  0  0  0  0  0  0  0  0
    6.8167   -2.6500    0.0000 C   0  0  0  0  0  0  0  0  0  0  0  0
    9.6542   -2.9417    0.0000 O   0  0  0  0  0  0  0  0  0  0  0  0
    1.2500   -0.2417    0.0000 C   0  0  0  0  0  0  0  0  0  0  0  0
    2.4792    0.4750    0.0000 C   0  0  0  0  0  0  0  0  0  0  0  0
    1.6667   -0.9625    0.0000 C   0  0  0  0  0  0  0  0  0  0  0  0
    8.8167   -4.0917    0.0000 O   0  0  0  0  0  0  0  0  0  0  0  0
    2.8917   -0.2375    0.0000 C   0  0  0  0  0  0  0  0  0  0  0  0
    3.7167   -0.2292    0.0000 C   0  0  0  0  0  0  0  0  0  0  0  0
    2.4917   -0.9542    0.0000 C   0  0  0  0  0  0  0  0  0  0  0  0
    1.2417    1.1833    0.0000 O   0  0  0  0  0  0  0  0  0  0  0  0
    0.4250   -0.2500    0.0000 O   0  0  0  0  0  0  0  0  0  0  0  0
    8.0667   -4.4292    0.0000 C   0  0  0  0  0  0  0  0  0  0  0  0
    1.6542    1.9000    0.0000 C   0  0  0  0  0  0  0  0  0  0  0  0
    0.0042    0.4625    0.0000 C   0  0  0  0  0  0  0  0  0  0  0  0
    7.9792   -5.2542    0.0000 C   0  0  0  0  0  0  0  0  0  0  0  0
  2  1  1  0  0  0  0
  3  1  1  0  0  0  0
  4  2  1  0  0  0  0
  5  3  1  0  0  0  0
  6  4  1  0  0  0  0
  7 14  1  0  0  0  0
  8  7  1  0  0  0  0
  9  1  1  0  0  0  0
 10 19  1  0  0  0  0
 11  2  2  0  0  0  0
 12  3  2  0  0  0  0
 13 15  1  0  0  0  0
 14 16  1  0  0  0  0
 15  6  1  0  0  0  0
 16  6  1  0  0  0  0
 17  8  2  0  0  0  0
 18 20  1  0  0  0  0
 19 22  2  0  0  0  0
 20 24  2  0  0  0  0
 21  8  1  0  0  0  0
 22 23  1  0  0  0  0
 23  9  1  0  0  0  0
 24 22  1  0  0  0  0
 25 10  1  0  0  0  0
 26 18  1  0  0  0  0
 27 21  1  0  0  0  0
 28 25  1  0  0  0  0
 29 26  1  0  0  0  0
 30 27  1  0  0  0  0
  5  4  1  0  0  0  0
  7 13  1  0  0  0  0
 18 10  2  0  0  0  0
M  END
>  <IDNUMBER>
F3188-0013

>  <Chemical_Name>
ethyl 4-{1-[2-(3,4-dimethoxyphenyl)ethyl]-2,5-dioxopyrrolidin-3-yl}piperazine-1-carboxylate

>  <PriceCoeff>
1.00

>  <CAS>
857494-04-3

>  <MW>
419.47

>  <Description>
solid

>  <FSP3>
0.57

>  <clogP>
3.34

>  <TPSA>
88.62

>  <Acceptor>
6

>  <Donor>
1

>  <RotBonds>
9

>  <HAC>
30

>  <Collection>
General

>  <PPDS>
+

$$$$
F3188-0014
  Mrv2219 10102508112D          

 28 30  0  0  0  0            999 V2000
    4.5500   -0.9417    0.0000 N   0  0  0  0  0  0  0  0  0  0  0  0
    5.0417   -1.6042    0.0000 C   0  0  0  0  0  0  0  0  0  0  0  0
    5.0292   -0.2667    0.0000 C   0  0  0  0  0  0  0  0  0  0  0  0
    5.8250   -1.3417    0.0000 C   0  0  0  0  0  0  0  0  0  0  0  0
    5.8167   -0.5167    0.0000 C   0  0  0  0  0  0  0  0  0  0  0  0
    6.4875   -1.8250    0.0000 N   0  0  0  0  0  0  0  0  0  0  0  0
    7.8250   -2.7917    0.0000 N   0  0  0  0  0  0  0  0  0  0  0  0
    8.4917   -3.2750    0.0000 C   0  0  0  0  0  0  0  0  0  0  0  0
    3.7250   -0.9417    0.0000 C   0  0  0  0  0  0  0  0  0  0  0  0
    4.7875   -2.3917    0.0000 O   0  0  0  0  0  0  0  0  0  0  0  0
    4.7750    0.5125    0.0000 O   0  0  0  0  0  0  0  0  0  0  0  0
    0.8375   -0.2417    0.0000 C   0  0  0  0  0  0  0  0  0  0  0  0
    7.9042   -1.9667    0.0000 C   0  0  0  0  0  0  0  0  0  0  0  0
    7.0667   -3.1292    0.0000 C   0  0  0  0  0  0  0  0  0  0  0  0
    7.2375   -1.4875    0.0000 C   0  0  0  0  0  0  0  0  0  0  0  0
    6.4042   -2.6500    0.0000 C   0  0  0  0  0  0  0  0  0  0  0  0
    9.2417   -2.9417    0.0000 O   0  0  0  0  0  0  0  0  0  0  0  0
    1.2542   -0.9542    0.0000 O   0  0  0  0  0  0  0  0  0  0  0  0
    3.3125   -0.2292    0.0000 C   0  0  0  0  0  0  0  0  0  0  0  0
    3.3167   -1.6625    0.0000 C   0  0  0  0  0  0  0  0  0  0  0  0
    8.4042   -4.0917    0.0000 O   0  0  0  0  0  0  0  0  0  0  0  0
    2.0792   -0.9542    0.0000 C   0  0  0  0  0  0  0  0  0  0  0  0
    0.0125   -0.2542    0.0000 F   0  0  0  0  0  0  0  0  0  0  0  0
    1.2417    0.4708    0.0000 F   0  0  0  0  0  0  0  0  0  0  0  0
    2.4875   -0.2375    0.0000 C   0  0  0  0  0  0  0  0  0  0  0  0
    2.5000   -1.6667    0.0000 C   0  0  0  0  0  0  0  0  0  0  0  0
    7.6542   -4.4292    0.0000 C   0  0  0  0  0  0  0  0  0  0  0  0
    7.5667   -5.2542    0.0000 C   0  0  0  0  0  0  0  0  0  0  0  0
  2  1  1  0  0  0  0
  3  1  1  0  0  0  0
  4  2  1  0  0  0  0
  5  3  1  0  0  0  0
  6  4  1  0  0  0  0
  7 14  1  0  0  0  0
  8  7  1  0  0  0  0
  9  1  1  0  0  0  0
 10  2  2  0  0  0  0
 11  3  2  0  0  0  0
 12 18  1  0  0  0  0
 13 15  1  0  0  0  0
 14 16  1  0  0  0  0
 15  6  1  0  0  0  0
 16  6  1  0  0  0  0
 17  8  2  0  0  0  0
 18 22  1  0  0  0  0
 19  9  2  0  0  0  0
 20  9  1  0  0  0  0
 21  8  1  0  0  0  0
 22 26  1  0  0  0  0
 23 12  1  0  0  0  0
 24 12  1  0  0  0  0
 25 19  1  0  0  0  0
 26 20  2  0  0  0  0
 27 21  1  0  0  0  0
 28 27  1  0  0  0  0
  5  4  1  0  0  0  0
 22 25  2  0  0  0  0
  7 13  1  0  0  0  0
M  END
>  <IDNUMBER>
F3188-0014

>  <Chemical_Name>
ethyl 4-{1-[4-(difluoromethoxy)phenyl]-2,5-dioxopyrrolidin-3-yl}piperazine-1-carboxylate

>  <PriceCoeff>
1.00

>  <CAS>
857494-10-1

>  <MW>
397.37

>  <Description>
solid

>  <FSP3>
0.50

>  <clogP>
2.91

>  <TPSA>
79.39

>  <Acceptor>
5

>  <Donor>
1

>  <RotBonds>
7

>  <HAC>
28

>  <Collection>
General

>  <PPDS>
+

$$$$
F3188-0015
  Mrv2219 10102508112D          

 28 30  0  0  0  0            999 V2000
    5.5792   -0.9417    0.0000 N   0  0  0  0  0  0  0  0  0  0  0  0
    6.0750   -1.6042    0.0000 C   0  0  0  0  0  0  0  0  0  0  0  0
    6.0667   -0.2667    0.0000 C   0  0  0  0  0  0  0  0  0  0  0  0
    6.8542   -1.3417    0.0000 C   0  0  0  0  0  0  0  0  0  0  0  0
    6.8542   -0.5167    0.0000 C   0  0  0  0  0  0  0  0  0  0  0  0
    7.5167   -1.8250    0.0000 N   0  0  0  0  0  0  0  0  0  0  0  0
    8.8542   -2.7917    0.0000 N   0  0  0  0  0  0  0  0  0  0  0  0
    9.5250   -3.2750    0.0000 C   0  0  0  0  0  0  0  0  0  0  0  0
    4.7542   -0.9417    0.0000 C   0  0  0  0  0  0  0  0  0  0  0  0
    5.8167   -2.3917    0.0000 O   0  0  0  0  0  0  0  0  0  0  0  0
    1.8667   -0.2417    0.0000 C   0  0  0  0  0  0  0  0  0  0  0  0
    5.8042    0.5125    0.0000 O   0  0  0  0  0  0  0  0  0  0  0  0
    2.2875   -0.9542    0.0000 S   0  0  0  0  0  0  0  0  0  0  0  0
    8.1042   -3.1292    0.0000 C   0  0  0  0  0  0  0  0  0  0  0  0
    8.9417   -1.9667    0.0000 C   0  0  0  0  0  0  0  0  0  0  0  0
    7.4375   -2.6500    0.0000 C   0  0  0  0  0  0  0  0  0  0  0  0
    8.2667   -1.4875    0.0000 C   0  0  0  0  0  0  0  0  0  0  0  0
   10.2792   -2.9417    0.0000 O   0  0  0  0  0  0  0  0  0  0  0  0
    4.3417   -0.2292    0.0000 C   0  0  0  0  0  0  0  0  0  0  0  0
    4.3542   -1.6625    0.0000 C   0  0  0  0  0  0  0  0  0  0  0  0
    3.1125   -0.9542    0.0000 C   0  0  0  0  0  0  0  0  0  0  0  0
    9.4417   -4.0917    0.0000 O   0  0  0  0  0  0  0  0  0  0  0  0
    1.0417   -0.2542    0.0000 F   0  0  0  0  0  0  0  0  0  0  0  0
    2.2792    0.4708    0.0000 F   0  0  0  0  0  0  0  0  0  0  0  0
    3.5167   -0.2375    0.0000 C   0  0  0  0  0  0  0  0  0  0  0  0
    3.5292   -1.6667    0.0000 C   0  0  0  0  0  0  0  0  0  0  0  0
    8.6875   -4.4292    0.0000 C   0  0  0  0  0  0  0  0  0  0  0  0
    8.6042   -5.2542    0.0000 C   0  0  0  0  0  0  0  0  0  0  0  0
  2  1  1  0  0  0  0
  3  1  1  0  0  0  0
  4  2  1  0  0  0  0
  5  3  1  0  0  0  0
  6  4  1  0  0  0  0
  7 15  1  0  0  0  0
  8  7  1  0  0  0  0
  9  1  1  0  0  0  0
 10  2  2  0  0  0  0
 11 13  1  0  0  0  0
 12  3  2  0  0  0  0
 13 21  1  0  0  0  0
 14 16  1  0  0  0  0
 15 17  1  0  0  0  0
 16  6  1  0  0  0  0
 17  6  1  0  0  0  0
 18  8  2  0  0  0  0
 19  9  2  0  0  0  0
 20  9  1  0  0  0  0
 21 26  1  0  0  0  0
 22  8  1  0  0  0  0
 23 11  1  0  0  0  0
 24 11  1  0  0  0  0
 25 19  1  0  0  0  0
 26 20  2  0  0  0  0
 27 22  1  0  0  0  0
 28 27  1  0  0  0  0
  5  4  1  0  0  0  0
 21 25  2  0  0  0  0
  7 14  1  0  0  0  0
M  END
>  <IDNUMBER>
F3188-0015

>  <Chemical_Name>
ethyl 4-(1-{4-[(difluoromethyl)sulfanyl]phenyl}-2,5-dioxopyrrolidin-3-yl)piperazine-1-carboxylate

>  <PriceCoeff>
1.00

>  <CAS>
857494-09-8

>  <MW>
413.44

>  <Description>
solid

>  <FSP3>
0.50

>  <clogP>
3.38

>  <TPSA>
95.46

>  <Acceptor>
4

>  <Donor>
1

>  <RotBonds>
7

>  <HAC>
28

>  <Collection>
General

>  <PPDS>
+

$$$$
F3188-0032
  Mrv2219 10102508112D          

 28 30  0  0  0  0            999 V2000
    4.5500   -0.9417    0.0000 N   0  0  0  0  0  0  0  0  0  0  0  0
    5.0417   -1.6042    0.0000 C   0  0  0  0  0  0  0  0  0  0  0  0
    5.0292   -0.2667    0.0000 C   0  0  0  0  0  0  0  0  0  0  0  0
    5.8250   -1.3417    0.0000 C   0  0  0  0  0  0  0  0  0  0  0  0
    5.8167   -0.5167    0.0000 C   0  0  0  0  0  0  0  0  0  0  0  0
    3.7250   -0.9417    0.0000 C   0  0  0  0  0  0  0  0  0  0  0  0
    6.4875   -1.8250    0.0000 N   0  0  0  0  0  0  0  0  0  0  0  0
    7.8250   -2.7917    0.0000 N   0  0  0  0  0  0  0  0  0  0  0  0
    8.4917   -3.2750    0.0000 C   0  0  0  0  0  0  0  0  0  0  0  0
    3.3125   -0.2292    0.0000 C   0  0  0  0  0  0  0  0  0  0  0  0
    3.7167    0.4833    0.0000 O   0  0  0  0  0  0  0  0  0  0  0  0
    4.7875   -2.3917    0.0000 O   0  0  0  0  0  0  0  0  0  0  0  0
    3.3042    1.1958    0.0000 C   0  0  0  0  0  0  0  0  0  0  0  0
    4.7750    0.5125    0.0000 O   0  0  0  0  0  0  0  0  0  0  0  0
    7.9042   -1.9667    0.0000 C   0  0  0  0  0  0  0  0  0  0  0  0
    7.0667   -3.1292    0.0000 C   0  0  0  0  0  0  0  0  0  0  0  0
    7.2375   -1.4875    0.0000 C   0  0  0  0  0  0  0  0  0  0  0  0
    6.4042   -2.6500    0.0000 C   0  0  0  0  0  0  0  0  0  0  0  0
    9.2417   -2.9417    0.0000 O   0  0  0  0  0  0  0  0  0  0  0  0
    8.4042   -4.0917    0.0000 O   0  0  0  0  0  0  0  0  0  0  0  0
    3.7167    1.9125    0.0000 F   0  0  0  0  0  0  0  0  0  0  0  0
    2.4792    1.1958    0.0000 F   0  0  0  0  0  0  0  0  0  0  0  0
    3.3167   -1.6625    0.0000 C   0  0  0  0  0  0  0  0  0  0  0  0
    2.4875   -0.2375    0.0000 C   0  0  0  0  0  0  0  0  0  0  0  0
    7.6542   -4.4292    0.0000 C   0  0  0  0  0  0  0  0  0  0  0  0
    2.5000   -1.6667    0.0000 C   0  0  0  0  0  0  0  0  0  0  0  0
    2.0792   -0.9542    0.0000 C   0  0  0  0  0  0  0  0  0  0  0  0
    7.5667   -5.2542    0.0000 C   0  0  0  0  0  0  0  0  0  0  0  0
  2  1  1  0  0  0  0
  3  1  1  0  0  0  0
  4  2  1  0  0  0  0
  5  3  1  0  0  0  0
  6  1  1  0  0  0  0
  7  4  1  0  0  0  0
  8 16  1  0  0  0  0
  9  8  1  0  0  0  0
 10  6  2  0  0  0  0
 11 10  1  0  0  0  0
 12  2  2  0  0  0  0
 13 11  1  0  0  0  0
 14  3  2  0  0  0  0
 15 17  1  0  0  0  0
 16 18  1  0  0  0  0
 17  7  1  0  0  0  0
 18  7  1  0  0  0  0
 19  9  2  0  0  0  0
 20  9  1  0  0  0  0
 21 13  1  0  0  0  0
 22 13  1  0  0  0  0
 23  6  1  0  0  0  0
 24 10  1  0  0  0  0
 25 20  1  0  0  0  0
 26 23  2  0  0  0  0
 27 26  1  0  0  0  0
 28 25  1  0  0  0  0
  5  4  1  0  0  0  0
 27 24  2  0  0  0  0
  8 15  1  0  0  0  0
M  END
>  <IDNUMBER>
F3188-0032

>  <Chemical_Name>
ethyl 4-{1-[2-(difluoromethoxy)phenyl]-2,5-dioxopyrrolidin-3-yl}piperazine-1-carboxylate

>  <PriceCoeff>
1.00

>  <MW>
397.37

>  <Description>
solid

>  <FSP3>
0.50

>  <clogP>
2.91

>  <TPSA>
79.39

>  <Acceptor>
5

>  <Donor>
1

>  <RotBonds>
7

>  <HAC>
28

>  <Collection>
General

$$$$
F3188-0038
  Mrv2219 10102508112D          

 26 28  0  0  0  0            999 V2000
    0.6873   -1.4913    0.0000 N   0  0  0  0  0  0  0  0  0  0  0  0
    1.1664   -0.8165    0.0000 C   0  0  0  0  0  0  0  0  0  0  0  0
    1.1789   -2.1536    0.0000 C   0  0  0  0  0  0  0  0  0  0  0  0
    1.9620   -1.8912    0.0000 C   0  0  0  0  0  0  0  0  0  0  0  0
    1.9537   -1.0664    0.0000 C   0  0  0  0  0  0  0  0  0  0  0  0
    4.0489   -2.5243    0.0000 C   0  0  0  0  0  0  0  0  0  0  0  0
    2.6285   -2.3786    0.0000 S   0  0  0  0  0  0  0  0  0  0  0  0
    3.3783   -2.0411    0.0000 C   0  0  0  0  0  0  0  0  0  0  0  0
    3.9656   -3.3408    0.0000 C   0  0  0  0  0  0  0  0  0  0  0  0
   -0.1333   -1.4913    0.0000 C   0  0  0  0  0  0  0  0  0  0  0  0
    0.9123   -0.0292    0.0000 O   0  0  0  0  0  0  0  0  0  0  0  0
    0.9247   -2.9409    0.0000 O   0  0  0  0  0  0  0  0  0  0  0  0
    4.6279   -3.8282    0.0000 O   0  0  0  0  0  0  0  0  0  0  0  0
   -0.5457   -2.2119    0.0000 C   0  0  0  0  0  0  0  0  0  0  0  0
   -0.5499   -0.7790    0.0000 C   0  0  0  0  0  0  0  0  0  0  0  0
    3.2116   -3.6782    0.0000 O   0  0  0  0  0  0  0  0  0  0  0  0
   -1.3621   -2.2161    0.0000 C   0  0  0  0  0  0  0  0  0  0  0  0
   -1.3746   -0.7873    0.0000 C   0  0  0  0  0  0  0  0  0  0  0  0
   -1.7828   -1.5038    0.0000 C   0  0  0  0  0  0  0  0  0  0  0  0
    4.7987   -2.1869    0.0000 C   0  0  0  0  0  0  0  0  0  0  0  0
    3.4616   -1.2247    0.0000 C   0  0  0  0  0  0  0  0  0  0  0  0
   -2.6076   -1.5038    0.0000 C   0  0  0  0  0  0  0  0  0  0  0  0
    2.5410   -3.1991    0.0000 C   0  0  0  0  0  0  0  0  0  0  0  0
    4.8779   -1.3621    0.0000 C   0  0  0  0  0  0  0  0  0  0  0  0
    4.2031   -0.8790    0.0000 C   0  0  0  0  0  0  0  0  0  0  0  0
   -3.0242   -0.7915    0.0000 C   0  0  0  0  0  0  0  0  0  0  0  0
  2  1  1  0  0  0  0
  3  1  1  0  0  0  0
  4  3  1  0  0  0  0
  5  2  1  0  0  0  0
  6  8  2  0  0  0  0
  7  4  1  0  0  0  0
  8  7  1  0  0  0  0
  9  6  1  0  0  0  0
 10  1  1  0  0  0  0
 11  2  2  0  0  0  0
 12  3  2  0  0  0  0
 13  9  2  0  0  0  0
 14 10  1  0  0  0  0
 15 10  2  0  0  0  0
 16  9  1  0  0  0  0
 17 14  2  0  0  0  0
 18 15  1  0  0  0  0
 19 18  2  0  0  0  0
 20  6  1  0  0  0  0
 21  8  1  0  0  0  0
 22 19  1  0  0  0  0
 23 16  1  0  0  0  0
 24 25  1  0  0  0  0
 25 21  2  0  0  0  0
 26 22  1  0  0  0  0
  5  4  1  0  0  0  0
 17 19  1  0  0  0  0
 24 20  2  0  0  0  0
M  END
>  <IDNUMBER>
F3188-0038

>  <Chemical_Name>
methyl 2-{[1-(4-ethylphenyl)-2,5-dioxopyrrolidin-3-yl]sulfanyl}benzoate

>  <PriceCoeff>
1.00

>  <CAS>
857494-40-7

>  <MW>
369.43

>  <Description>
solid

>  <FSP3>
0.25

>  <clogP>
4.06

>  <TPSA>
88.98

>  <Acceptor>
4

>  <Donor>
0

>  <RotBonds>
6

>  <HAC>
26

>  <Collection>
General

>  <PPDS>
+

$$$$
F3188-0042
  Mrv2219 10102508112D          

 26 28  0  0  0  0            999 V2000
    5.4375   -1.8625    0.0000 N   0  0  0  0  0  0  0  0  0  0  0  0
    5.9292   -2.5292    0.0000 C   0  0  0  0  0  0  0  0  0  0  0  0
    5.9167   -1.1917    0.0000 C   0  0  0  0  0  0  0  0  0  0  0  0
    6.7125   -2.2667    0.0000 C   0  0  0  0  0  0  0  0  0  0  0  0
    6.7042   -1.4417    0.0000 C   0  0  0  0  0  0  0  0  0  0  0  0
    8.8000   -2.8917    0.0000 C   0  0  0  0  0  0  0  0  0  0  0  0
    7.3792   -2.7500    0.0000 S   0  0  0  0  0  0  0  0  0  0  0  0
    8.1292   -2.4125    0.0000 C   0  0  0  0  0  0  0  0  0  0  0  0
    8.7167   -3.7167    0.0000 C   0  0  0  0  0  0  0  0  0  0  0  0
    4.6167   -1.8667    0.0000 C   0  0  0  0  0  0  0  0  0  0  0  0
    5.6750   -3.3125    0.0000 O   0  0  0  0  0  0  0  0  0  0  0  0
    5.6625   -0.4042    0.0000 O   0  0  0  0  0  0  0  0  0  0  0  0
    9.3792   -4.1917    0.0000 O   0  0  0  0  0  0  0  0  0  0  0  0
    4.2000   -1.1542    0.0000 C   0  0  0  0  0  0  0  0  0  0  0  0
    7.9625   -4.0542    0.0000 O   0  0  0  0  0  0  0  0  0  0  0  0
    9.5500   -2.5542    0.0000 C   0  0  0  0  0  0  0  0  0  0  0  0
    3.3750   -1.1625    0.0000 C   0  0  0  0  0  0  0  0  0  0  0  0
    8.2125   -1.5917    0.0000 C   0  0  0  0  0  0  0  0  0  0  0  0
    7.2917   -3.5667    0.0000 C   0  0  0  0  0  0  0  0  0  0  0  0
    2.9542   -0.4500    0.0000 C   0  0  0  0  0  0  0  0  0  0  0  0
    2.9667   -1.8792    0.0000 C   0  0  0  0  0  0  0  0  0  0  0  0
    9.6292   -1.7292    0.0000 C   0  0  0  0  0  0  0  0  0  0  0  0
    8.9542   -1.2542    0.0000 C   0  0  0  0  0  0  0  0  0  0  0  0
    2.1417   -1.8875    0.0000 C   0  0  0  0  0  0  0  0  0  0  0  0
    2.1292   -0.4542    0.0000 C   0  0  0  0  0  0  0  0  0  0  0  0
    1.7250   -1.1667    0.0000 C   0  0  0  0  0  0  0  0  0  0  0  0
  2  1  1  0  0  0  0
  3  1  1  0  0  0  0
  4  2  1  0  0  0  0
  5  3  1  0  0  0  0
  6  8  2  0  0  0  0
  7  4  1  0  0  0  0
  8  7  1  0  0  0  0
  9  6  1  0  0  0  0
 10  1  1  0  0  0  0
 11  2  2  0  0  0  0
 12  3  2  0  0  0  0
 13  9  2  0  0  0  0
 14 10  1  0  0  0  0
 15  9  1  0  0  0  0
 16  6  1  0  0  0  0
 17 14  1  0  0  0  0
 18  8  1  0  0  0  0
 19 15  1  0  0  0  0
 20 17  2  0  0  0  0
 21 17  1  0  0  0  0
 22 23  1  0  0  0  0
 23 18  2  0  0  0  0
 24 21  2  0  0  0  0
 25 20  1  0  0  0  0
 26 24  1  0  0  0  0
  5  4  1  0  0  0  0
 26 25  2  0  0  0  0
 22 16  2  0  0  0  0
M  END
>  <IDNUMBER>
F3188-0042

>  <Chemical_Name>
methyl 2-{[2,5-dioxo-1-(2-phenylethyl)pyrrolidin-3-yl]sulfanyl}benzoate

>  <PriceCoeff>
1.00

>  <CAS>
857494-41-8

>  <MW>
369.43

>  <Description>
solid

>  <FSP3>
0.25

>  <clogP>
4.30

>  <TPSA>
88.98

>  <Acceptor>
4

>  <Donor>
0

>  <RotBonds>
7

>  <HAC>
26

>  <Collection>
General

>  <PPDS>
+

$$$$
F3188-0079
  Mrv2219 10102508112D          

 27 29  0  0  0  0            999 V2000
    4.1542   -7.1917    0.0000 N   0  0  0  0  0  0  0  0  0  0  0  0
    4.6417   -7.8542    0.0000 C   0  0  0  0  0  0  0  0  0  0  0  0
    4.6375   -6.5167    0.0000 C   0  0  0  0  0  0  0  0  0  0  0  0
    5.4292   -7.5917    0.0000 C   0  0  0  0  0  0  0  0  0  0  0  0
    5.4250   -6.7667    0.0000 C   0  0  0  0  0  0  0  0  0  0  0  0
    8.5750   -8.5917    0.0000 C   0  0  0  0  0  0  0  0  0  0  0  0
    7.7875   -8.3417    0.0000 N   0  0  0  0  0  0  0  0  0  0  0  0
    6.2167   -7.8417    0.0000 N   0  0  0  0  0  0  0  0  0  0  0  0
    3.3292   -7.1917    0.0000 C   0  0  0  0  0  0  0  0  0  0  0  0
    8.7500   -9.4000    0.0000 O   0  0  0  0  0  0  0  0  0  0  0  0
    4.3917   -8.6417    0.0000 O   0  0  0  0  0  0  0  0  0  0  0  0
    4.3792   -5.7375    0.0000 O   0  0  0  0  0  0  0  0  0  0  0  0
    9.1792   -8.0375    0.0000 O   0  0  0  0  0  0  0  0  0  0  0  0
    7.1750   -8.9000    0.0000 C   0  0  0  0  0  0  0  0  0  0  0  0
    7.6042   -7.5375    0.0000 C   0  0  0  0  0  0  0  0  0  0  0  0
    6.3917   -8.6500    0.0000 C   0  0  0  0  0  0  0  0  0  0  0  0
    6.8167   -7.2875    0.0000 C   0  0  0  0  0  0  0  0  0  0  0  0
    2.9167   -6.4792    0.0000 C   0  0  0  0  0  0  0  0  0  0  0  0
    9.4625   -9.8125    0.0000 C   0  0  0  0  0  0  0  0  0  0  0  0
    2.9250   -7.9125    0.0000 C   0  0  0  0  0  0  0  0  0  0  0  0
    3.3250   -5.7667    0.0000 C   0  0  0  0  0  0  0  0  0  0  0  0
    9.4542  -10.6375    0.0000 C   0  0  0  0  0  0  0  0  0  0  0  0
   10.1750  -10.2250    0.0000 C   0  0  0  0  0  0  0  0  0  0  0  0
   10.1750   -9.4000    0.0000 C   0  0  0  0  0  0  0  0  0  0  0  0
    2.0917   -6.4875    0.0000 C   0  0  0  0  0  0  0  0  0  0  0  0
    2.1042   -7.9167    0.0000 C   0  0  0  0  0  0  0  0  0  0  0  0
    1.6792   -7.2042    0.0000 C   0  0  0  0  0  0  0  0  0  0  0  0
  2  1  1  0  0  0  0
  3  1  1  0  0  0  0
  4  2  1  0  0  0  0
  5  3  1  0  0  0  0
  6  7  1  0  0  0  0
  7 15  1  0  0  0  0
  8  4  1  0  0  0  0
  9  1  1  0  0  0  0
 10  6  1  0  0  0  0
 11  2  2  0  0  0  0
 12  3  2  0  0  0  0
 13  6  2  0  0  0  0
 14 16  1  0  0  0  0
 15 17  1  0  0  0  0
 16  8  1  0  0  0  0
 17  8  1  0  0  0  0
 18  9  2  0  0  0  0
 19 10  1  0  0  0  0
 20  9  1  0  0  0  0
 21 18  1  0  0  0  0
 22 19  1  0  0  0  0
 23 19  1  0  0  0  0
 24 19  1  0  0  0  0
 25 18  1  0  0  0  0
 26 20  2  0  0  0  0
 27 26  1  0  0  0  0
  4  5  1  0  0  0  0
 27 25  2  0  0  0  0
  7 14  1  0  0  0  0
M  END
>  <IDNUMBER>
F3188-0079

>  <Chemical_Name>
tert-butyl 4-[1-(2-methylphenyl)-2,5-dioxopyrrolidin-3-yl]piperazine-1-carboxylate

>  <PriceCoeff>
1.00

>  <CAS>
887847-48-5

>  <MW>
373.45

>  <Description>
solid

>  <FSP3>
0.55

>  <clogP>
3.22

>  <TPSA>
70.16

>  <Acceptor>
4

>  <Donor>
1

>  <RotBonds>
4

>  <HAC>
27

>  <Collection>
General

>  <PPDS>
+

$$$$
F3188-0100
  Mrv2219 10102508112D          

 27 30  0  0  0  0            999 V2000
    5.6857   -6.3662    0.0000 N   0  0  0  0  0  0  0  0  0  0  0  0
    6.1741   -7.0299    0.0000 C   0  0  0  0  0  0  0  0  0  0  0  0
    6.1658   -5.6982    0.0000 C   0  0  0  0  0  0  0  0  0  0  0  0
    6.9548   -6.7669    0.0000 C   0  0  0  0  0  0  0  0  0  0  0  0
    8.3783   -6.9047    0.0000 C   0  0  0  0  0  0  0  0  0  0  0  0
    4.8633   -6.3787    0.0000 C   0  0  0  0  0  0  0  0  0  0  0  0
    7.6310   -7.2511    0.0000 C   0  0  0  0  0  0  0  0  0  0  0  0
    6.9548   -5.9487    0.0000 C   0  0  0  0  0  0  0  0  0  0  0  0
    8.4576   -6.0781    0.0000 N   0  0  0  0  0  0  0  0  0  0  0  0
    5.9278   -7.8189    0.0000 O   0  0  0  0  0  0  0  0  0  0  0  0
    5.9028   -4.9134    0.0000 O   0  0  0  0  0  0  0  0  0  0  0  0
    4.4459   -5.6649    0.0000 C   0  0  0  0  0  0  0  0  0  0  0  0
    4.4584   -7.0925    0.0000 C   0  0  0  0  0  0  0  0  0  0  0  0
    9.0462   -7.3889    0.0000 C   0  0  0  0  0  0  0  0  0  0  0  0
    3.6318   -7.1051    0.0000 C   0  0  0  0  0  0  0  0  0  0  0  0
    3.6193   -5.6649    0.0000 C   0  0  0  0  0  0  0  0  0  0  0  0
    8.6162   -4.4375    0.0000 O   0  0  0  0  0  0  0  0  0  0  0  0
    3.2102   -6.3870    0.0000 C   0  0  0  0  0  0  0  0  0  0  0  0
    9.2090   -5.7400    0.0000 C   0  0  0  0  0  0  0  0  0  0  0  0
    7.7813   -5.6022    0.0000 C   0  0  0  0  0  0  0  0  0  0  0  0
    7.5434   -8.0694    0.0000 C   0  0  0  0  0  0  0  0  0  0  0  0
    7.8648   -4.7757    0.0000 C   0  0  0  0  0  0  0  0  0  0  0  0
    9.2842   -4.9218    0.0000 C   0  0  0  0  0  0  0  0  0  0  0  0
    8.9711   -8.2071    0.0000 C   0  0  0  0  0  0  0  0  0  0  0  0
    3.1977   -4.9510    0.0000 C   0  0  0  0  0  0  0  0  0  0  0  0
    3.2228   -7.8189    0.0000 C   0  0  0  0  0  0  0  0  0  0  0  0
    8.2154   -8.5453    0.0000 C   0  0  0  0  0  0  0  0  0  0  0  0
  2  1  1  0  0  0  0
  3  1  1  0  0  0  0
  4  2  1  0  0  0  0
  5  7  1  0  0  0  0
  6  1  1  0  0  0  0
  7  4  1  0  0  0  0
  8  3  1  0  0  0  0
  9  5  1  0  0  0  0
 10  2  2  0  0  0  0
 11  3  2  0  0  0  0
 12  6  2  0  0  0  0
 13  6  1  0  0  0  0
 14  5  2  0  0  0  0
 15 13  2  0  0  0  0
 16 12  1  0  0  0  0
 17 22  1  0  0  0  0
 18 15  1  0  0  0  0
 19  9  1  0  0  0  0
 20  9  1  0  0  0  0
 21  7  1  0  0  0  0
 22 20  1  0  0  0  0
 23 19  1  0  0  0  0
 24 27  1  0  0  0  0
 25 16  1  0  0  0  0
 26 15  1  0  0  0  0
 27 21  1  0  0  0  0
  4  8  1  0  0  0  0
 18 16  2  0  0  0  0
 24 14  1  0  0  0  0
 17 23  1  0  0  0  0
M  END
>  <IDNUMBER>
F3188-0100

>  <Chemical_Name>
1-(3,5-dimethylphenyl)-3-[2-(morpholin-4-yl)cyclohex-2-en-1-yl]pyrrolidine-2,5-dione

>  <PriceCoeff>
1.50

>  <MW>
368.48

>  <Description>
solid

>  <FSP3>
0.55

>  <clogP>
2.45

>  <TPSA>
32.93

>  <Acceptor>
3

>  <Donor>
1

>  <RotBonds>
3

>  <HAC>
27

>  <Collection>
Advanced

$$$$
F3188-0112
  Mrv2219 10102508112D          

 25 28  0  0  0  0            999 V2000
    3.8547   -6.0383    0.0000 N   0  0  0  0  0  0  0  0  0  0  0  0
    4.3423   -5.3674    0.0000 C   0  0  0  0  0  0  0  0  0  0  0  0
    4.3506   -6.7051    0.0000 C   0  0  0  0  0  0  0  0  0  0  0  0
    5.1299   -6.4425    0.0000 C   0  0  0  0  0  0  0  0  0  0  0  0
    5.1299   -5.6174    0.0000 C   0  0  0  0  0  0  0  0  0  0  0  0
    8.7928   -5.5632    0.0000 N   0  0  0  0  0  0  0  0  0  0  0  0
    5.7924   -6.9176    0.0000 N   0  0  0  0  0  0  0  0  0  0  0  0
    4.0797   -4.5798    0.0000 O   0  0  0  0  0  0  0  0  0  0  0  0
    8.0427   -5.9050    0.0000 C   0  0  0  0  0  0  0  0  0  0  0  0
    4.0922   -7.4885    0.0000 O   0  0  0  0  0  0  0  0  0  0  0  0
    3.0296   -6.0425    0.0000 C   0  0  0  0  0  0  0  0  0  0  0  0
    7.3676   -5.4257    0.0000 C   0  0  0  0  0  0  0  0  0  0  0  0
    7.9677   -6.7259    0.0000 C   0  0  0  0  0  0  0  0  0  0  0  0
    6.5425   -6.5800    0.0000 C   0  0  0  0  0  0  0  0  0  0  0  0
    6.6258   -5.7674    0.0000 C   0  0  0  0  0  0  0  0  0  0  0  0
    7.2176   -7.0634    0.0000 C   0  0  0  0  0  0  0  0  0  0  0  0
    9.4679   -6.0425    0.0000 C   0  0  0  0  0  0  0  0  0  0  0  0
    8.8678   -4.7423    0.0000 C   0  0  0  0  0  0  0  0  0  0  0  0
    2.5420   -5.3799    0.0000 C   0  0  0  0  0  0  0  0  0  0  0  0
    2.5545   -6.7176    0.0000 C   0  0  0  0  0  0  0  0  0  0  0  0
    9.6262   -4.4048    0.0000 C   0  0  0  0  0  0  0  0  0  0  0  0
   10.2055   -5.7049    0.0000 C   0  0  0  0  0  0  0  0  0  0  0  0
    1.7669   -6.4675    0.0000 C   0  0  0  0  0  0  0  0  0  0  0  0
    1.7627   -5.6424    0.0000 C   0  0  0  0  0  0  0  0  0  0  0  0
   10.2930   -4.8798    0.0000 C   0  0  0  0  0  0  0  0  0  0  0  0
  2  1  1  0  0  0  0
  3  1  1  0  0  0  0
  4  3  1  0  0  0  0
  5  2  1  0  0  0  0
  6  9  1  0  0  0  0
  7  4  1  0  0  0  0
  8  2  2  0  0  0  0
  9 13  2  0  0  0  0
 10  3  2  0  0  0  0
 11  1  1  0  0  0  0
 12 15  2  0  0  0  0
 13 16  1  0  0  0  0
 14  7  1  0  0  0  0
 15 14  1  0  0  0  0
 16 14  2  0  0  0  0
 17  6  1  0  0  0  0
 18  6  1  0  0  0  0
 19 11  1  0  0  0  0
 20 11  1  0  0  0  0
 21 18  1  0  0  0  0
 22 17  1  0  0  0  0
 23 20  1  0  0  0  0
 24 19  1  0  0  0  0
 25 21  1  0  0  0  0
  5  4  1  0  0  0  0
 23 24  1  0  0  0  0
  9 12  1  0  0  0  0
 25 22  1  0  0  0  0
M  END
>  <IDNUMBER>
F3188-0112

>  <Chemical_Name>
1-cyclopentyl-3-{[4-(piperidin-1-yl)phenyl]amino}pyrrolidine-2,5-dione

>  <PriceCoeff>
1.00

>  <CAS>
1008091-55-1

>  <MW>
341.45

>  <Description>
solid

>  <FSP3>
0.60

>  <clogP>
3.87

>  <TPSA>
52.65

>  <Acceptor>
4

>  <Donor>
2

>  <RotBonds>
4

>  <HAC>
25

>  <Collection>
General

>  <PPDS>
+

$$$$
F3188-0113
  Mrv2219 10102508112D          

 25 28  0  0  0  0            999 V2000
    3.6542   -6.4875    0.0000 N   0  0  0  0  0  0  0  0  0  0  0  0
    4.1375   -5.8167    0.0000 C   0  0  0  0  0  0  0  0  0  0  0  0
    4.1417   -7.1542    0.0000 C   0  0  0  0  0  0  0  0  0  0  0  0
    4.9292   -6.8917    0.0000 C   0  0  0  0  0  0  0  0  0  0  0  0
    4.9250   -6.0667    0.0000 C   0  0  0  0  0  0  0  0  0  0  0  0
    8.5917   -6.0125    0.0000 N   0  0  0  0  0  0  0  0  0  0  0  0
    5.5917   -7.3667    0.0000 N   0  0  0  0  0  0  0  0  0  0  0  0
    3.8792   -5.0292    0.0000 O   0  0  0  0  0  0  0  0  0  0  0  0
    7.8417   -6.3542    0.0000 C   0  0  0  0  0  0  0  0  0  0  0  0
    3.8917   -7.9375    0.0000 O   0  0  0  0  0  0  0  0  0  0  0  0
    2.8292   -6.4917    0.0000 C   0  0  0  0  0  0  0  0  0  0  0  0
   10.0917   -5.3292    0.0000 O   0  0  0  0  0  0  0  0  0  0  0  0
    7.7625   -7.1750    0.0000 C   0  0  0  0  0  0  0  0  0  0  0  0
    7.1667   -5.8750    0.0000 C   0  0  0  0  0  0  0  0  0  0  0  0
    6.3417   -7.0292    0.0000 C   0  0  0  0  0  0  0  0  0  0  0  0
    7.0125   -7.5125    0.0000 C   0  0  0  0  0  0  0  0  0  0  0  0
    6.4167   -6.2167    0.0000 C   0  0  0  0  0  0  0  0  0  0  0  0
    9.2625   -6.4917    0.0000 C   0  0  0  0  0  0  0  0  0  0  0  0
    8.6667   -5.1917    0.0000 C   0  0  0  0  0  0  0  0  0  0  0  0
    9.4167   -4.8542    0.0000 C   0  0  0  0  0  0  0  0  0  0  0  0
   10.0042   -6.1542    0.0000 C   0  0  0  0  0  0  0  0  0  0  0  0
    2.3500   -7.1667    0.0000 C   0  0  0  0  0  0  0  0  0  0  0  0
    2.3417   -5.8292    0.0000 C   0  0  0  0  0  0  0  0  0  0  0  0
    1.5542   -6.0917    0.0000 C   0  0  0  0  0  0  0  0  0  0  0  0
    1.5625   -6.9167    0.0000 C   0  0  0  0  0  0  0  0  0  0  0  0
  2  1  1  0  0  0  0
  3  1  1  0  0  0  0
  4  3  1  0  0  0  0
  5  2  1  0  0  0  0
  6  9  1  0  0  0  0
  7  4  1  0  0  0  0
  8  2  2  0  0  0  0
  9 14  1  0  0  0  0
 10  3  2  0  0  0  0
 11  1  1  0  0  0  0
 12 20  1  0  0  0  0
 13 16  1  0  0  0  0
 14 17  2  0  0  0  0
 15  7  1  0  0  0  0
 16 15  2  0  0  0  0
 17 15  1  0  0  0  0
 18  6  1  0  0  0  0
 19  6  1  0  0  0  0
 20 19  1  0  0  0  0
 21 18  1  0  0  0  0
 22 11  1  0  0  0  0
 23 11  1  0  0  0  0
 24 23  1  0  0  0  0
 25 22  1  0  0  0  0
  5  4  1  0  0  0  0
 25 24  1  0  0  0  0
  9 13  2  0  0  0  0
 12 21  1  0  0  0  0
M  END
>  <IDNUMBER>
F3188-0113

>  <Chemical_Name>
1-cyclopentyl-3-{[4-(morpholin-4-yl)phenyl]amino}pyrrolidine-2,5-dione

>  <PriceCoeff>
1.00

>  <MW>
343.42

>  <Description>
solid

>  <FSP3>
0.58

>  <clogP>
2.49

>  <TPSA>
61.88

>  <Acceptor>
5

>  <Donor>
2

>  <RotBonds>
4

>  <HAC>
25

>  <Collection>
General

$$$$
F3188-0115
  Mrv2219 10102508112D          

 23 26  0  0  0  0            999 V2000
    5.0167   -6.2667    0.0000 N   0  0  0  0  0  0  0  0  0  0  0  0
    5.5042   -5.5917    0.0000 C   0  0  0  0  0  0  0  0  0  0  0  0
    5.5125   -6.9292    0.0000 C   0  0  0  0  0  0  0  0  0  0  0  0
    6.2917   -6.6667    0.0000 C   0  0  0  0  0  0  0  0  0  0  0  0
    6.2917   -5.8417    0.0000 C   0  0  0  0  0  0  0  0  0  0  0  0
    6.9542   -7.1500    0.0000 N   0  0  0  0  0  0  0  0  0  0  0  0
    9.1292   -6.9500    0.0000 C   0  0  0  0  0  0  0  0  0  0  0  0
    8.3792   -7.2917    0.0000 C   0  0  0  0  0  0  0  0  0  0  0  0
    4.2000   -6.2667    0.0000 C   0  0  0  0  0  0  0  0  0  0  0  0
    5.2417   -4.8125    0.0000 O   0  0  0  0  0  0  0  0  0  0  0  0
    9.2042   -6.1292    0.0000 C   0  0  0  0  0  0  0  0  0  0  0  0
    9.8792   -7.2792    0.0000 O   0  0  0  0  0  0  0  0  0  0  0  0
    7.7042   -6.8125    0.0000 C   0  0  0  0  0  0  0  0  0  0  0  0
    5.2542   -7.7167    0.0000 O   0  0  0  0  0  0  0  0  0  0  0  0
   10.0125   -5.9542    0.0000 O   0  0  0  0  0  0  0  0  0  0  0  0
   10.4292   -6.6625    0.0000 C   0  0  0  0  0  0  0  0  0  0  0  0
    8.5292   -5.6542    0.0000 C   0  0  0  0  0  0  0  0  0  0  0  0
    7.7875   -5.9917    0.0000 C   0  0  0  0  0  0  0  0  0  0  0  0
    3.7792   -5.5542    0.0000 C   0  0  0  0  0  0  0  0  0  0  0  0
    3.7917   -6.9875    0.0000 C   0  0  0  0  0  0  0  0  0  0  0  0
    2.9667   -6.9917    0.0000 C   0  0  0  0  0  0  0  0  0  0  0  0
    2.9542   -5.5625    0.0000 C   0  0  0  0  0  0  0  0  0  0  0  0
    2.5500   -6.2792    0.0000 C   0  0  0  0  0  0  0  0  0  0  0  0
  2  1  1  0  0  0  0
  3  1  1  0  0  0  0
  4  3  1  0  0  0  0
  5  2  1  0  0  0  0
  6  4  1  0  0  0  0
  7  8  1  0  0  0  0
  8 13  2  0  0  0  0
  9  1  1  0  0  0  0
 10  2  2  0  0  0  0
 11 17  1  0  0  0  0
 12  7  1  0  0  0  0
 13  6  1  0  0  0  0
 14  3  2  0  0  0  0
 15 11  1  0  0  0  0
 16 12  1  0  0  0  0
 17 18  2  0  0  0  0
 18 13  1  0  0  0  0
 19  9  2  0  0  0  0
 20  9  1  0  0  0  0
 21 20  2  0  0  0  0
 22 19  1  0  0  0  0
 23 21  1  0  0  0  0
  5  4  1  0  0  0  0
 23 22  2  0  0  0  0
  7 11  2  0  0  0  0
 15 16  1  0  0  0  0
M  END
>  <IDNUMBER>
F3188-0115

>  <Chemical_Name>
3-[(2H-1,3-benzodioxol-5-yl)amino]-1-phenylpyrrolidine-2,5-dione

>  <PriceCoeff>
1.00

>  <CAS>
1008051-74-8

>  <MW>
310.30

>  <Description>
solid

>  <FSP3>
0.18

>  <clogP>
2.58

>  <TPSA>
67.87

>  <Acceptor>
5

>  <Donor>
1

>  <RotBonds>
3

>  <HAC>
23

>  <Collection>
General

>  <PPDS>
+

$$$$
F3188-0116
  Mrv2219 10102508112D          

 21 23  0  0  0  0            999 V2000
    3.1250   -6.4125    0.0000 N   0  0  0  0  0  0  0  0  0  0  0  0
    3.6167   -7.0792    0.0000 C   0  0  0  0  0  0  0  0  0  0  0  0
    3.6042   -5.7417    0.0000 C   0  0  0  0  0  0  0  0  0  0  0  0
    4.4000   -6.8167    0.0000 C   0  0  0  0  0  0  0  0  0  0  0  0
    4.3917   -5.9917    0.0000 C   0  0  0  0  0  0  0  0  0  0  0  0
    5.0625   -7.2917    0.0000 N   0  0  0  0  0  0  0  0  0  0  0  0
    7.2292   -7.0917    0.0000 C   0  0  0  0  0  0  0  0  0  0  0  0
    2.3000   -6.4167    0.0000 C   0  0  0  0  0  0  0  0  0  0  0  0
    6.4792   -7.4375    0.0000 C   0  0  0  0  0  0  0  0  0  0  0  0
    7.3125   -6.2792    0.0000 C   0  0  0  0  0  0  0  0  0  0  0  0
    7.9875   -7.4250    0.0000 O   0  0  0  0  0  0  0  0  0  0  0  0
    5.8125   -6.9542    0.0000 C   0  0  0  0  0  0  0  0  0  0  0  0
    3.3625   -7.8625    0.0000 O   0  0  0  0  0  0  0  0  0  0  0  0
    3.3500   -4.9542    0.0000 O   0  0  0  0  0  0  0  0  0  0  0  0
    8.1167   -6.1000    0.0000 O   0  0  0  0  0  0  0  0  0  0  0  0
    8.5292   -6.8042    0.0000 C   0  0  0  0  0  0  0  0  0  0  0  0
    6.6375   -5.8000    0.0000 C   0  0  0  0  0  0  0  0  0  0  0  0
    5.8917   -6.1417    0.0000 C   0  0  0  0  0  0  0  0  0  0  0  0
    1.8792   -5.7042    0.0000 C   0  0  0  0  0  0  0  0  0  0  0  0
    2.2917   -4.9875    0.0000 C   0  0  0  0  0  0  0  0  0  0  0  0
    1.0542   -5.7042    0.0000 C   0  0  0  0  0  0  0  0  0  0  0  0
  2  1  1  0  0  0  0
  3  1  1  0  0  0  0
  4  2  1  0  0  0  0
  5  3  1  0  0  0  0
  6  4  1  0  0  0  0
  7  9  1  0  0  0  0
  8  1  1  0  0  0  0
  9 12  2  0  0  0  0
 10 17  1  0  0  0  0
 11  7  1  0  0  0  0
 12  6  1  0  0  0  0
 13  2  2  0  0  0  0
 14  3  2  0  0  0  0
 15 10  1  0  0  0  0
 16 11  1  0  0  0  0
 17 18  2  0  0  0  0
 18 12  1  0  0  0  0
 19  8  1  0  0  0  0
 20 19  1  0  0  0  0
 21 19  1  0  0  0  0
  5  4  1  0  0  0  0
 10  7  2  0  0  0  0
 15 16  1  0  0  0  0
M  END
>  <IDNUMBER>
F3188-0116

>  <Chemical_Name>
3-[(2H-1,3-benzodioxol-5-yl)amino]-1-(2-methylpropyl)pyrrolidine-2,5-dione

>  <PriceCoeff>
1.00

>  <CAS>
1008051-91-9

>  <MW>
290.31

>  <Description>
solid

>  <FSP3>
0.47

>  <clogP>
3.21

>  <TPSA>
67.87

>  <Acceptor>
5

>  <Donor>
1

>  <RotBonds>
4

>  <HAC>
21

>  <Collection>
General

>  <PPDS>
+

$$$$
F3188-0121
  Mrv2219 10102508112D          

 23 26  0  0  0  0            999 V2000
    4.3542   -6.4125    0.0000 N   0  0  0  0  0  0  0  0  0  0  0  0
    4.8375   -5.7417    0.0000 C   0  0  0  0  0  0  0  0  0  0  0  0
    4.8417   -7.0792    0.0000 C   0  0  0  0  0  0  0  0  0  0  0  0
    5.6292   -6.8167    0.0000 C   0  0  0  0  0  0  0  0  0  0  0  0
    5.6250   -5.9917    0.0000 C   0  0  0  0  0  0  0  0  0  0  0  0
    6.2917   -7.2917    0.0000 N   0  0  0  0  0  0  0  0  0  0  0  0
    8.4625   -7.0917    0.0000 C   0  0  0  0  0  0  0  0  0  0  0  0
    7.7125   -7.4375    0.0000 C   0  0  0  0  0  0  0  0  0  0  0  0
    4.5792   -4.9542    0.0000 O   0  0  0  0  0  0  0  0  0  0  0  0
    8.5417   -6.2792    0.0000 C   0  0  0  0  0  0  0  0  0  0  0  0
    9.2167   -7.4250    0.0000 O   0  0  0  0  0  0  0  0  0  0  0  0
    7.0417   -6.9542    0.0000 C   0  0  0  0  0  0  0  0  0  0  0  0
    4.5917   -7.8625    0.0000 O   0  0  0  0  0  0  0  0  0  0  0  0
    3.5292   -6.4167    0.0000 C   0  0  0  0  0  0  0  0  0  0  0  0
    9.3417   -6.1000    0.0000 O   0  0  0  0  0  0  0  0  0  0  0  0
    9.7625   -6.8042    0.0000 C   0  0  0  0  0  0  0  0  0  0  0  0
    7.8667   -5.8000    0.0000 C   0  0  0  0  0  0  0  0  0  0  0  0
    7.1167   -6.1417    0.0000 C   0  0  0  0  0  0  0  0  0  0  0  0
    3.1167   -5.7042    0.0000 C   0  0  0  0  0  0  0  0  0  0  0  0
    3.1292   -7.1375    0.0000 C   0  0  0  0  0  0  0  0  0  0  0  0
    2.3042   -7.1375    0.0000 C   0  0  0  0  0  0  0  0  0  0  0  0
    2.3000   -5.7125    0.0000 C   0  0  0  0  0  0  0  0  0  0  0  0
    1.8875   -6.4250    0.0000 C   0  0  0  0  0  0  0  0  0  0  0  0
  2  1  1  0  0  0  0
  3  1  1  0  0  0  0
  4  3  1  0  0  0  0
  5  2  1  0  0  0  0
  6  4  1  0  0  0  0
  7  8  1  0  0  0  0
  8 12  2  0  0  0  0
  9  2  2  0  0  0  0
 10 17  1  0  0  0  0
 11  7  1  0  0  0  0
 12  6  1  0  0  0  0
 13  3  2  0  0  0  0
 14  1  1  0  0  0  0
 15 10  1  0  0  0  0
 16 11  1  0  0  0  0
 17 18  2  0  0  0  0
 18 12  1  0  0  0  0
 19 14  1  0  0  0  0
 20 14  1  0  0  0  0
 21 20  1  0  0  0  0
 22 19  1  0  0  0  0
 23 21  1  0  0  0  0
  5  4  1  0  0  0  0
 23 22  1  0  0  0  0
  7 10  2  0  0  0  0
 15 16  1  0  0  0  0
M  END
>  <IDNUMBER>
F3188-0121

>  <Chemical_Name>
3-[(2H-1,3-benzodioxol-5-yl)amino]-1-cyclohexylpyrrolidine-2,5-dione

>  <PriceCoeff>
1.00

>  <CAS>
1008214-36-5

>  <MW>
316.35

>  <Description>
solid

>  <FSP3>
0.53

>  <clogP>
3.69

>  <TPSA>
67.87

>  <Acceptor>
5

>  <Donor>
1

>  <RotBonds>
3

>  <HAC>
23

>  <Collection>
General

>  <PPDS>
+

$$$$
F3188-0123
  Mrv2219 10102508112D          

 25 28  0  0  0  0            999 V2000
    4.3542   -6.4125    0.0000 N   0  0  0  0  0  0  0  0  0  0  0  0
    4.8417   -7.0792    0.0000 C   0  0  0  0  0  0  0  0  0  0  0  0
    4.8375   -5.7417    0.0000 C   0  0  0  0  0  0  0  0  0  0  0  0
    5.6292   -6.8167    0.0000 C   0  0  0  0  0  0  0  0  0  0  0  0
    5.6250   -5.9917    0.0000 C   0  0  0  0  0  0  0  0  0  0  0  0
    6.2917   -7.2917    0.0000 N   0  0  0  0  0  0  0  0  0  0  0  0
    3.5292   -6.4167    0.0000 C   0  0  0  0  0  0  0  0  0  0  0  0
    8.4625   -7.0917    0.0000 C   0  0  0  0  0  0  0  0  0  0  0  0
    7.7125   -7.4375    0.0000 C   0  0  0  0  0  0  0  0  0  0  0  0
    8.5417   -6.2792    0.0000 C   0  0  0  0  0  0  0  0  0  0  0  0
    9.2167   -7.4250    0.0000 O   0  0  0  0  0  0  0  0  0  0  0  0
    7.0417   -6.9542    0.0000 C   0  0  0  0  0  0  0  0  0  0  0  0
    4.5917   -7.8625    0.0000 O   0  0  0  0  0  0  0  0  0  0  0  0
    4.5792   -4.9542    0.0000 O   0  0  0  0  0  0  0  0  0  0  0  0
    9.3417   -6.1000    0.0000 O   0  0  0  0  0  0  0  0  0  0  0  0
    9.7625   -6.8042    0.0000 C   0  0  0  0  0  0  0  0  0  0  0  0
    7.8667   -5.8000    0.0000 C   0  0  0  0  0  0  0  0  0  0  0  0
    3.1125   -5.7042    0.0000 C   0  0  0  0  0  0  0  0  0  0  0  0
    7.1167   -6.1417    0.0000 C   0  0  0  0  0  0  0  0  0  0  0  0
    2.2875   -5.7042    0.0000 C   0  0  0  0  0  0  0  0  0  0  0  0
    1.8750   -4.9917    0.0000 C   0  0  0  0  0  0  0  0  0  0  0  0
    1.8792   -6.4250    0.0000 C   0  0  0  0  0  0  0  0  0  0  0  0
    1.0625   -6.4292    0.0000 C   0  0  0  0  0  0  0  0  0  0  0  0
    1.0500   -5.0000    0.0000 C   0  0  0  0  0  0  0  0  0  0  0  0
    0.6417   -5.7167    0.0000 C   0  0  0  0  0  0  0  0  0  0  0  0
  2  1  1  0  0  0  0
  3  1  1  0  0  0  0
  4  2  1  0  0  0  0
  5  3  1  0  0  0  0
  6  4  1  0  0  0  0
  7  1  1  0  0  0  0
  8  9  1  0  0  0  0
  9 12  2  0  0  0  0
 10 17  1  0  0  0  0
 11  8  1  0  0  0  0
 12  6  1  0  0  0  0
 13  2  2  0  0  0  0
 14  3  2  0  0  0  0
 15 10  1  0  0  0  0
 16 11  1  0  0  0  0
 17 19  2  0  0  0  0
 18  7  1  0  0  0  0
 19 12  1  0  0  0  0
 20 18  1  0  0  0  0
 21 20  2  0  0  0  0
 22 20  1  0  0  0  0
 23 22  2  0  0  0  0
 24 21  1  0  0  0  0
 25 23  1  0  0  0  0
  5  4  1  0  0  0  0
 25 24  2  0  0  0  0
 10  8  2  0  0  0  0
 15 16  1  0  0  0  0
M  END
>  <IDNUMBER>
F3188-0123

>  <Chemical_Name>
3-[(2H-1,3-benzodioxol-5-yl)amino]-1-(2-phenylethyl)pyrrolidine-2,5-dione

>  <PriceCoeff>
1.00

>  <CAS>
1008051-75-9

>  <MW>
338.36

>  <Description>
solid

>  <FSP3>
0.26

>  <clogP>
3.85

>  <TPSA>
67.87

>  <Acceptor>
5

>  <Donor>
1

>  <RotBonds>
5

>  <HAC>
25

>  <Collection>
General

>  <PPDS>
+

$$$$
F3188-0124
  Mrv2219 10102508112D          

 24 27  0  0  0  0            999 V2000
    4.2042   -2.3042    0.0000 N   0  0  0  0  0  0  0  0  0  0  0  0
    4.6917   -1.6292    0.0000 C   0  0  0  0  0  0  0  0  0  0  0  0
    4.7000   -2.9667    0.0000 C   0  0  0  0  0  0  0  0  0  0  0  0
    5.4792   -2.7042    0.0000 C   0  0  0  0  0  0  0  0  0  0  0  0
    5.4792   -1.8792    0.0000 C   0  0  0  0  0  0  0  0  0  0  0  0
    3.3875   -2.3042    0.0000 C   0  0  0  0  0  0  0  0  0  0  0  0
    6.1417   -3.1875    0.0000 N   0  0  0  0  0  0  0  0  0  0  0  0
    8.3167   -2.9875    0.0000 C   0  0  0  0  0  0  0  0  0  0  0  0
    7.5667   -3.3292    0.0000 C   0  0  0  0  0  0  0  0  0  0  0  0
    4.4292   -0.8500    0.0000 O   0  0  0  0  0  0  0  0  0  0  0  0
    8.3917   -2.1667    0.0000 C   0  0  0  0  0  0  0  0  0  0  0  0
    9.0667   -3.3167    0.0000 O   0  0  0  0  0  0  0  0  0  0  0  0
    6.8917   -2.8500    0.0000 C   0  0  0  0  0  0  0  0  0  0  0  0
    4.4417   -3.7542    0.0000 O   0  0  0  0  0  0  0  0  0  0  0  0
    9.2000   -1.9917    0.0000 O   0  0  0  0  0  0  0  0  0  0  0  0
    2.9667   -1.5917    0.0000 C   0  0  0  0  0  0  0  0  0  0  0  0
    9.6167   -2.7000    0.0000 C   0  0  0  0  0  0  0  0  0  0  0  0
    7.7167   -1.6917    0.0000 C   0  0  0  0  0  0  0  0  0  0  0  0
    6.9750   -2.0292    0.0000 C   0  0  0  0  0  0  0  0  0  0  0  0
    2.1417   -1.6000    0.0000 C   0  0  0  0  0  0  0  0  0  0  0  0
    2.9792   -3.0250    0.0000 C   0  0  0  0  0  0  0  0  0  0  0  0
    2.1542   -3.0292    0.0000 C   0  0  0  0  0  0  0  0  0  0  0  0
    1.7375   -2.3167    0.0000 C   0  0  0  0  0  0  0  0  0  0  0  0
    1.7292   -0.8875    0.0000 C   0  0  0  0  0  0  0  0  0  0  0  0
  2  1  1  0  0  0  0
  3  1  1  0  0  0  0
  4  3  1  0  0  0  0
  5  2  1  0  0  0  0
  6  1  1  0  0  0  0
  7  4  1  0  0  0  0
  8  9  1  0  0  0  0
  9 13  2  0  0  0  0
 10  2  2  0  0  0  0
 11 18  1  0  0  0  0
 12  8  1  0  0  0  0
 13  7  1  0  0  0  0
 14  3  2  0  0  0  0
 15 11  1  0  0  0  0
 16  6  2  0  0  0  0
 17 12  1  0  0  0  0
 18 19  2  0  0  0  0
 19 13  1  0  0  0  0
 20 16  1  0  0  0  0
 21  6  1  0  0  0  0
 22 21  2  0  0  0  0
 23 22  1  0  0  0  0
 24 20  1  0  0  0  0
  5  4  1  0  0  0  0
 23 20  2  0  0  0  0
  8 11  2  0  0  0  0
 15 17  1  0  0  0  0
M  END
>  <IDNUMBER>
F3188-0124

>  <Chemical_Name>
3-[(2H-1,3-benzodioxol-5-yl)amino]-1-(3-methylphenyl)pyrrolidine-2,5-dione

>  <PriceCoeff>
1.00

>  <CAS>
1008268-27-6

>  <MW>
324.33

>  <Description>
solid

>  <FSP3>
0.22

>  <clogP>
3.08

>  <TPSA>
67.87

>  <Acceptor>
5

>  <Donor>
1

>  <RotBonds>
3

>  <HAC>
24

>  <Collection>
General

>  <PPDS>
+

$$$$
F3191-0224
  Mrv2219 10102508112D          

 14 14  0  0  0  0            999 V2000
    7.4164   -2.9517    0.0000 C   0  0  0  0  0  0  0  0  0  0  0  0
    6.6951   -3.3703    0.0000 C   0  0  0  0  0  0  0  0  0  0  0  0
    7.4123   -2.1309    0.0000 O   0  0  0  0  0  0  0  0  0  0  0  0
    6.6951   -4.1953    0.0000 C   0  0  0  0  0  0  0  0  0  0  0  0
    5.9862   -2.9599    0.0000 C   0  0  0  0  0  0  0  0  0  0  0  0
    8.1336   -3.3621    0.0000 O   0  0  0  0  0  0  0  0  0  0  0  0
    5.2773   -4.1953    0.0000 C   0  0  0  0  0  0  0  0  0  0  0  0
    5.2773   -3.3703    0.0000 C   0  0  0  0  0  0  0  0  0  0  0  0
    5.9862   -4.6058    0.0000 C   0  0  0  0  0  0  0  0  0  0  0  0
    4.5560   -4.6182    0.0000 O   0  0  0  0  0  0  0  0  0  0  0  0
    2.4169   -4.2202    0.0000 O   0  0  0  0  0  0  0  0  0  0  0  0
    3.8347   -4.2078    0.0000 C   0  0  0  0  0  0  0  0  0  0  0  0
    3.1258   -4.6306    0.0000 C   0  0  0  0  0  0  0  0  0  0  0  0
    1.7080   -4.6431    0.0000 C   0  0  0  0  0  0  0  0  0  0  0  0
  2  1  1  0  0  0  0
  3  1  2  0  0  0  0
  4  2  1  0  0  0  0
  5  2  2  0  0  0  0
  6  1  1  0  0  0  0
  7  8  2  0  0  0  0
  8  5  1  0  0  0  0
  9  4  2  0  0  0  0
 10  7  1  0  0  0  0
 11 13  1  0  0  0  0
 12 10  1  0  0  0  0
 13 12  1  0  0  0  0
 14 11  1  0  0  0  0
  9  7  1  0  0  0  0
M  END
>  <IDNUMBER>
F3191-0224

>  <Chemical_Name>
4-(2-methoxyethoxy)benzoic acid

>  <PriceCoeff>
1.00

>  <CAS>
27890-92-2

>  <MW>
196.20

>  <Description>
solid

>  <FSP3>
0.30

>  <clogP>
1.43

>  <TPSA>
55.76

>  <Acceptor>
4

>  <Donor>
0

>  <RotBonds>
5

>  <HAC>
14

>  <Collection>
General

>  <PPDS>
+

$$$$
F3205-0001
  Mrv2219 10102508112D          

 24 27  0  0  0  0            999 V2000
    3.7750   -2.6625    0.0000 N   0  0  0  0  0  0  0  0  0  0  0  0
    4.2542   -1.9917    0.0000 C   0  0  0  0  0  0  0  0  0  0  0  0
    4.2667   -3.3292    0.0000 C   0  0  0  0  0  0  0  0  0  0  0  0
    5.0500   -3.0667    0.0000 C   0  0  0  0  0  0  0  0  0  0  0  0
    5.0417   -2.2417    0.0000 C   0  0  0  0  0  0  0  0  0  0  0  0
    2.9542   -2.6667    0.0000 C   0  0  0  0  0  0  0  0  0  0  0  0
    5.7125   -3.5417    0.0000 N   0  0  0  0  0  0  0  0  0  0  0  0
    7.8792   -3.3417    0.0000 C   0  0  0  0  0  0  0  0  0  0  0  0
    7.1292   -3.6875    0.0000 C   0  0  0  0  0  0  0  0  0  0  0  0
    4.0000   -1.2042    0.0000 O   0  0  0  0  0  0  0  0  0  0  0  0
    7.9625   -2.5292    0.0000 C   0  0  0  0  0  0  0  0  0  0  0  0
    8.6375   -3.6750    0.0000 O   0  0  0  0  0  0  0  0  0  0  0  0
    6.4625   -3.2042    0.0000 C   0  0  0  0  0  0  0  0  0  0  0  0
    4.0125   -4.1125    0.0000 O   0  0  0  0  0  0  0  0  0  0  0  0
    8.7667   -2.3500    0.0000 O   0  0  0  0  0  0  0  0  0  0  0  0
    9.1792   -3.0542    0.0000 C   0  0  0  0  0  0  0  0  0  0  0  0
    2.5417   -3.3792    0.0000 C   0  0  0  0  0  0  0  0  0  0  0  0
    7.2875   -2.0500    0.0000 C   0  0  0  0  0  0  0  0  0  0  0  0
    6.5417   -2.3917    0.0000 C   0  0  0  0  0  0  0  0  0  0  0  0
    2.5375   -1.9542    0.0000 C   0  0  0  0  0  0  0  0  0  0  0  0
    2.9667   -4.0917    0.0000 C   0  0  0  0  0  0  0  0  0  0  0  0
    1.7250   -3.3875    0.0000 C   0  0  0  0  0  0  0  0  0  0  0  0
    1.7125   -1.9542    0.0000 C   0  0  0  0  0  0  0  0  0  0  0  0
    1.3042   -2.6750    0.0000 C   0  0  0  0  0  0  0  0  0  0  0  0
  2  1  1  0  0  0  0
  3  1  1  0  0  0  0
  4  3  1  0  0  0  0
  5  2  1  0  0  0  0
  6  1  1  0  0  0  0
  7  4  1  0  0  0  0
  8  9  1  0  0  0  0
  9 13  2  0  0  0  0
 10  2  2  0  0  0  0
 11 18  1  0  0  0  0
 12  8  1  0  0  0  0
 13  7  1  0  0  0  0
 14  3  2  0  0  0  0
 15 11  1  0  0  0  0
 16 12  1  0  0  0  0
 17  6  1  0  0  0  0
 18 19  2  0  0  0  0
 19 13  1  0  0  0  0
 20  6  2  0  0  0  0
 21 17  1  0  0  0  0
 22 17  2  0  0  0  0
 23 20  1  0  0  0  0
 24 23  2  0  0  0  0
  5  4  1  0  0  0  0
 24 22  1  0  0  0  0
  8 11  2  0  0  0  0
 15 16  1  0  0  0  0
M  END
>  <IDNUMBER>
F3205-0001

>  <Chemical_Name>
3-[(2H-1,3-benzodioxol-5-yl)amino]-1-(2-methylphenyl)pyrrolidine-2,5-dione

>  <PriceCoeff>
1.00

>  <CAS>
1008268-26-5

>  <MW>
324.33

>  <Description>
solid

>  <FSP3>
0.22

>  <clogP>
2.68

>  <TPSA>
67.87

>  <Acceptor>
5

>  <Donor>
1

>  <RotBonds>
3

>  <HAC>
24

>  <Collection>
General

>  <PPDS>
+

$$$$
F3205-0002
  Mrv2219 10102508112D          

 24 27  0  0  0  0            999 V2000
    3.6375   -2.5875    0.0000 N   0  0  0  0  0  0  0  0  0  0  0  0
    4.1292   -3.2542    0.0000 C   0  0  0  0  0  0  0  0  0  0  0  0
    4.1167   -1.9167    0.0000 C   0  0  0  0  0  0  0  0  0  0  0  0
    4.9125   -2.9917    0.0000 C   0  0  0  0  0  0  0  0  0  0  0  0
    4.9042   -2.1667    0.0000 C   0  0  0  0  0  0  0  0  0  0  0  0
    5.5750   -3.4667    0.0000 N   0  0  0  0  0  0  0  0  0  0  0  0
    7.7417   -3.2667    0.0000 C   0  0  0  0  0  0  0  0  0  0  0  0
    2.8167   -2.5917    0.0000 C   0  0  0  0  0  0  0  0  0  0  0  0
    6.9917   -3.6125    0.0000 C   0  0  0  0  0  0  0  0  0  0  0  0
    7.8250   -2.4542    0.0000 C   0  0  0  0  0  0  0  0  0  0  0  0
    8.5000   -3.6000    0.0000 O   0  0  0  0  0  0  0  0  0  0  0  0
    6.3250   -3.1292    0.0000 C   0  0  0  0  0  0  0  0  0  0  0  0
    3.8750   -4.0375    0.0000 O   0  0  0  0  0  0  0  0  0  0  0  0
    3.8625   -1.1292    0.0000 O   0  0  0  0  0  0  0  0  0  0  0  0
    8.6292   -2.2750    0.0000 O   0  0  0  0  0  0  0  0  0  0  0  0
    9.0417   -2.9792    0.0000 C   0  0  0  0  0  0  0  0  0  0  0  0
    7.1500   -1.9750    0.0000 C   0  0  0  0  0  0  0  0  0  0  0  0
    6.4042   -2.3167    0.0000 C   0  0  0  0  0  0  0  0  0  0  0  0
    2.4000   -1.8792    0.0000 C   0  0  0  0  0  0  0  0  0  0  0  0
    2.8042   -1.1667    0.0000 C   0  0  0  0  0  0  0  0  0  0  0  0
    1.5750   -1.8917    0.0000 C   0  0  0  0  0  0  0  0  0  0  0  0
    1.1542   -1.1792    0.0000 C   0  0  0  0  0  0  0  0  0  0  0  0
    2.3917   -0.4542    0.0000 C   0  0  0  0  0  0  0  0  0  0  0  0
    1.5625   -0.4625    0.0000 C   0  0  0  0  0  0  0  0  0  0  0  0
  2  1  1  0  0  0  0
  3  1  1  0  0  0  0
  4  2  1  0  0  0  0
  5  3  1  0  0  0  0
  6  4  1  0  0  0  0
  7  9  1  0  0  0  0
  8  1  1  0  0  0  0
  9 12  2  0  0  0  0
 10 17  1  0  0  0  0
 11  7  1  0  0  0  0
 12  6  1  0  0  0  0
 13  2  2  0  0  0  0
 14  3  2  0  0  0  0
 15 10  1  0  0  0  0
 16 11  1  0  0  0  0
 17 18  2  0  0  0  0
 18 12  1  0  0  0  0
 19  8  1  0  0  0  0
 20 19  2  0  0  0  0
 21 19  1  0  0  0  0
 22 21  2  0  0  0  0
 23 20  1  0  0  0  0
 24 22  1  0  0  0  0
  5  4  1  0  0  0  0
 24 23  2  0  0  0  0
  7 10  2  0  0  0  0
 15 16  1  0  0  0  0
M  END
>  <IDNUMBER>
F3205-0002

>  <Chemical_Name>
3-[(2H-1,3-benzodioxol-5-yl)amino]-1-benzylpyrrolidine-2,5-dione

>  <PriceCoeff>
1.00

>  <MW>
324.33

>  <Description>
solid

>  <FSP3>
0.22

>  <clogP>
3.33

>  <TPSA>
67.87

>  <Acceptor>
5

>  <Donor>
1

>  <RotBonds>
4

>  <HAC>
24

>  <Collection>
General

$$$$
F3205-0003
  Mrv2219 10102508112D          

 28 30  0  0  0  0            999 V2000
    4.3417   -6.1292    0.0000 N   0  0  0  0  0  0  0  0  0  0  0  0
    4.8375   -6.8000    0.0000 C   0  0  0  0  0  0  0  0  0  0  0  0
    4.8292   -5.4625    0.0000 C   0  0  0  0  0  0  0  0  0  0  0  0
    5.6167   -6.5375    0.0000 C   0  0  0  0  0  0  0  0  0  0  0  0
    5.6167   -5.7125    0.0000 C   0  0  0  0  0  0  0  0  0  0  0  0
    8.2792   -8.4625    0.0000 C   0  0  0  0  0  0  0  0  0  0  0  0
    7.6125   -7.9750    0.0000 N   0  0  0  0  0  0  0  0  0  0  0  0
    6.2792   -7.0167    0.0000 N   0  0  0  0  0  0  0  0  0  0  0  0
    3.5250   -6.1375    0.0000 C   0  0  0  0  0  0  0  0  0  0  0  0
    8.1917   -9.2792    0.0000 O   0  0  0  0  0  0  0  0  0  0  0  0
    4.5792   -7.5792    0.0000 O   0  0  0  0  0  0  0  0  0  0  0  0
    4.5667   -4.6792    0.0000 O   0  0  0  0  0  0  0  0  0  0  0  0
    9.0292   -8.1250    0.0000 O   0  0  0  0  0  0  0  0  0  0  0  0
    7.6917   -7.1542    0.0000 C   0  0  0  0  0  0  0  0  0  0  0  0
    6.8542   -8.3042    0.0000 C   0  0  0  0  0  0  0  0  0  0  0  0
    7.0292   -6.6750    0.0000 C   0  0  0  0  0  0  0  0  0  0  0  0
    6.1917   -7.8292    0.0000 C   0  0  0  0  0  0  0  0  0  0  0  0
    8.8625   -9.7667    0.0000 C   0  0  0  0  0  0  0  0  0  0  0  0
    3.1042   -5.4250    0.0000 C   0  0  0  0  0  0  0  0  0  0  0  0
    2.2792   -5.4292    0.0000 C   0  0  0  0  0  0  0  0  0  0  0  0
    8.7792  -10.5875    0.0000 C   0  0  0  0  0  0  0  0  0  0  0  0
    9.6167   -9.4292    0.0000 C   0  0  0  0  0  0  0  0  0  0  0  0
    8.2167  -10.2875    0.0000 C   0  0  0  0  0  0  0  0  0  0  0  0
    1.8667   -4.7167    0.0000 C   0  0  0  0  0  0  0  0  0  0  0  0
    1.8792   -6.1500    0.0000 C   0  0  0  0  0  0  0  0  0  0  0  0
    1.0542   -6.1542    0.0000 C   0  0  0  0  0  0  0  0  0  0  0  0
    1.0417   -4.7250    0.0000 C   0  0  0  0  0  0  0  0  0  0  0  0
    0.6292   -5.4417    0.0000 C   0  0  0  0  0  0  0  0  0  0  0  0
  2  1  1  0  0  0  0
  3  1  1  0  0  0  0
  4  2  1  0  0  0  0
  5  3  1  0  0  0  0
  6  7  1  0  0  0  0
  7 15  1  0  0  0  0
  8  4  1  0  0  0  0
  9  1  1  0  0  0  0
 10  6  1  0  0  0  0
 11  2  2  0  0  0  0
 12  3  2  0  0  0  0
 13  6  2  0  0  0  0
 14 16  1  0  0  0  0
 15 17  1  0  0  0  0
 16  8  1  0  0  0  0
 17  8  1  0  0  0  0
 18 10  1  0  0  0  0
 19  9  1  0  0  0  0
 20 19  1  0  0  0  0
 21 18  1  0  0  0  0
 22 18  1  0  0  0  0
 23 18  1  0  0  0  0
 24 20  2  0  0  0  0
 25 20  1  0  0  0  0
 26 25  2  0  0  0  0
 27 24  1  0  0  0  0
 28 26  1  0  0  0  0
  5  4  1  0  0  0  0
  7 14  1  0  0  0  0
 28 27  2  0  0  0  0
M  END
>  <IDNUMBER>
F3205-0003

>  <Chemical_Name>
tert-butyl 4-[2,5-dioxo-1-(2-phenylethyl)pyrrolidin-3-yl]piperazine-1-carboxylate

>  <PriceCoeff>
1.00

>  <CAS>
881484-41-9

>  <MW>
387.47

>  <Description>
solid

>  <FSP3>
0.57

>  <clogP>
4.39

>  <TPSA>
70.16

>  <Acceptor>
4

>  <Donor>
1

>  <RotBonds>
6

>  <HAC>
28

>  <Collection>
General

>  <PPDS>
+

$$$$
F3205-0008
  Mrv2219 10102508112D          

 26 29  0  0  0  0            999 V2000
    4.4250   -6.3375    0.0000 N   0  0  0  0  0  0  0  0  0  0  0  0
    4.9167   -7.0042    0.0000 C   0  0  0  0  0  0  0  0  0  0  0  0
    4.9042   -5.6667    0.0000 C   0  0  0  0  0  0  0  0  0  0  0  0
    5.7000   -6.7417    0.0000 C   0  0  0  0  0  0  0  0  0  0  0  0
    7.1125   -6.8875    0.0000 C   0  0  0  0  0  0  0  0  0  0  0  0
    6.3667   -7.2250    0.0000 C   0  0  0  0  0  0  0  0  0  0  0  0
    5.6917   -5.9167    0.0000 C   0  0  0  0  0  0  0  0  0  0  0  0
    7.2000   -6.0667    0.0000 N   0  0  0  0  0  0  0  0  0  0  0  0
    3.6042   -6.3417    0.0000 C   0  0  0  0  0  0  0  0  0  0  0  0
    4.6625   -7.7875    0.0000 O   0  0  0  0  0  0  0  0  0  0  0  0
    4.6500   -4.8792    0.0000 O   0  0  0  0  0  0  0  0  0  0  0  0
    7.7792   -7.3667    0.0000 C   0  0  0  0  0  0  0  0  0  0  0  0
    3.1917   -5.6292    0.0000 C   0  0  0  0  0  0  0  0  0  0  0  0
    3.2042   -7.0542    0.0000 C   0  0  0  0  0  0  0  0  0  0  0  0
    2.3792   -7.0667    0.0000 C   0  0  0  0  0  0  0  0  0  0  0  0
    2.3667   -5.6375    0.0000 C   0  0  0  0  0  0  0  0  0  0  0  0
    1.9542   -6.3542    0.0000 C   0  0  0  0  0  0  0  0  0  0  0  0
    6.5292   -5.5875    0.0000 C   0  0  0  0  0  0  0  0  0  0  0  0
    7.9542   -5.7292    0.0000 C   0  0  0  0  0  0  0  0  0  0  0  0
    6.2792   -8.0500    0.0000 C   0  0  0  0  0  0  0  0  0  0  0  0
    7.7000   -8.1917    0.0000 C   0  0  0  0  0  0  0  0  0  0  0  0
    1.1292   -6.3625    0.0000 C   0  0  0  0  0  0  0  0  0  0  0  0
    6.9417   -8.5292    0.0000 C   0  0  0  0  0  0  0  0  0  0  0  0
    6.6167   -4.7625    0.0000 C   0  0  0  0  0  0  0  0  0  0  0  0
    8.0417   -4.9125    0.0000 C   0  0  0  0  0  0  0  0  0  0  0  0
    7.3750   -4.4292    0.0000 C   0  0  0  0  0  0  0  0  0  0  0  0
  2  1  1  0  0  0  0
  3  1  1  0  0  0  0
  4  2  1  0  0  0  0
  5  6  1  0  0  0  0
  6  4  1  0  0  0  0
  7  3  1  0  0  0  0
  8  5  1  0  0  0  0
  9  1  1  0  0  0  0
 10  2  2  0  0  0  0
 11  3  2  0  0  0  0
 12  5  2  0  0  0  0
 13  9  2  0  0  0  0
 14  9  1  0  0  0  0
 15 14  2  0  0  0  0
 16 13  1  0  0  0  0
 17 15  1  0  0  0  0
 18  8  1  0  0  0  0
 19  8  1  0  0  0  0
 20  6  1  0  0  0  0
 21 23  1  0  0  0  0
 22 17  1  0  0  0  0
 23 20  1  0  0  0  0
 24 18  1  0  0  0  0
 25 19  1  0  0  0  0
 26 25  1  0  0  0  0
  7  4  1  0  0  0  0
 17 16  2  0  0  0  0
 21 12  1  0  0  0  0
 26 24  1  0  0  0  0
M  END
>  <IDNUMBER>
F3205-0008

>  <Chemical_Name>
1-(4-methylphenyl)-3-[2-(piperidin-1-yl)cyclohex-2-en-1-yl]pyrrolidine-2,5-dione

>  <PriceCoeff>
1.50

>  <CAS>
881482-85-5

>  <MW>
352.47

>  <Description>
solid

>  <FSP3>
0.55

>  <clogP>
3.46

>  <TPSA>
40.62

>  <Acceptor>
2

>  <Donor>
1

>  <RotBonds>
3

>  <HAC>
26

>  <Collection>
Advanced

>  <PPDS>
+

$$$$
F3205-0010
  Mrv2219 10102508112D          

 25 28  0  0  0  0            999 V2000
    4.4246   -6.3370    0.0000 N   0  0  0  0  0  0  0  0  0  0  0  0
    4.9163   -7.0036    0.0000 C   0  0  0  0  0  0  0  0  0  0  0  0
    4.9038   -5.6662    0.0000 C   0  0  0  0  0  0  0  0  0  0  0  0
    5.6995   -6.7411    0.0000 C   0  0  0  0  0  0  0  0  0  0  0  0
    7.1119   -6.8869    0.0000 C   0  0  0  0  0  0  0  0  0  0  0  0
    6.3662   -7.2244    0.0000 C   0  0  0  0  0  0  0  0  0  0  0  0
    5.6912   -5.9162    0.0000 C   0  0  0  0  0  0  0  0  0  0  0  0
    7.1994   -6.0662    0.0000 N   0  0  0  0  0  0  0  0  0  0  0  0
    4.6621   -7.7869    0.0000 O   0  0  0  0  0  0  0  0  0  0  0  0
    3.6039   -6.3412    0.0000 C   0  0  0  0  0  0  0  0  0  0  0  0
    4.6496   -4.8788    0.0000 O   0  0  0  0  0  0  0  0  0  0  0  0
    7.7786   -7.3661    0.0000 C   0  0  0  0  0  0  0  0  0  0  0  0
    7.9535   -5.7287    0.0000 C   0  0  0  0  0  0  0  0  0  0  0  0
    6.5287   -5.5870    0.0000 C   0  0  0  0  0  0  0  0  0  0  0  0
    6.2787   -8.0493    0.0000 C   0  0  0  0  0  0  0  0  0  0  0  0
    3.1914   -5.6287    0.0000 C   0  0  0  0  0  0  0  0  0  0  0  0
    3.2039   -7.0536    0.0000 C   0  0  0  0  0  0  0  0  0  0  0  0
    7.6994   -8.1910    0.0000 C   0  0  0  0  0  0  0  0  0  0  0  0
    6.9411   -8.5285    0.0000 C   0  0  0  0  0  0  0  0  0  0  0  0
    6.6162   -4.7621    0.0000 C   0  0  0  0  0  0  0  0  0  0  0  0
    8.0410   -4.9121    0.0000 C   0  0  0  0  0  0  0  0  0  0  0  0
    2.3790   -7.0661    0.0000 C   0  0  0  0  0  0  0  0  0  0  0  0
    2.3665   -5.6370    0.0000 C   0  0  0  0  0  0  0  0  0  0  0  0
    7.3744   -4.4288    0.0000 C   0  0  0  0  0  0  0  0  0  0  0  0
    1.9540   -6.3537    0.0000 C   0  0  0  0  0  0  0  0  0  0  0  0
  2  1  1  0  0  0  0
  3  1  1  0  0  0  0
  4  2  1  0  0  0  0
  5  6  1  0  0  0  0
  6  4  1  0  0  0  0
  7  3  1  0  0  0  0
  8  5  1  0  0  0  0
  9  2  2  0  0  0  0
 10  1  1  0  0  0  0
 11  3  2  0  0  0  0
 12  5  2  0  0  0  0
 13  8  1  0  0  0  0
 14  8  1  0  0  0  0
 15  6  1  0  0  0  0
 16 10  2  0  0  0  0
 17 10  1  0  0  0  0
 18 19  1  0  0  0  0
 19 15  1  0  0  0  0
 20 14  1  0  0  0  0
 21 13  1  0  0  0  0
 22 17  2  0  0  0  0
 23 16  1  0  0  0  0
 24 20  1  0  0  0  0
 25 22  1  0  0  0  0
  7  4  1  0  0  0  0
 25 23  2  0  0  0  0
 12 18  1  0  0  0  0
 24 21  1  0  0  0  0
M  END
>  <IDNUMBER>
F3205-0010

>  <Chemical_Name>
1-phenyl-3-[2-(piperidin-1-yl)cyclohex-2-en-1-yl]pyrrolidine-2,5-dione

>  <PriceCoeff>
1.50

>  <MW>
338.44

>  <Description>
solid

>  <FSP3>
0.52

>  <clogP>
2.96

>  <TPSA>
40.62

>  <Acceptor>
2

>  <Donor>
1

>  <RotBonds>
3

>  <HAC>
25

>  <Collection>
Advanced

$$$$
F3205-0012
  Mrv2219 10102508112D          

 31 35  0  0  0  0            999 V2000
    4.4250   -6.3375    0.0000 N   0  0  0  0  0  0  0  0  0  0  0  0
    4.9167   -7.0042    0.0000 C   0  0  0  0  0  0  0  0  0  0  0  0
    4.9042   -5.6667    0.0000 C   0  0  0  0  0  0  0  0  0  0  0  0
    5.7000   -6.7417    0.0000 C   0  0  0  0  0  0  0  0  0  0  0  0
    7.1125   -6.8875    0.0000 C   0  0  0  0  0  0  0  0  0  0  0  0
    6.3667   -7.2250    0.0000 C   0  0  0  0  0  0  0  0  0  0  0  0
    5.6917   -5.9167    0.0000 C   0  0  0  0  0  0  0  0  0  0  0  0
    7.2000   -6.0667    0.0000 N   0  0  0  0  0  0  0  0  0  0  0  0
    1.1375   -6.3542    0.0000 N   0  0  0  0  0  0  0  0  0  0  0  0
    3.6042   -6.3417    0.0000 C   0  0  0  0  0  0  0  0  0  0  0  0
    4.6625   -7.7875    0.0000 O   0  0  0  0  0  0  0  0  0  0  0  0
    1.9542   -6.3542    0.0000 C   0  0  0  0  0  0  0  0  0  0  0  0
    4.6500   -4.8792    0.0000 O   0  0  0  0  0  0  0  0  0  0  0  0
    7.7792   -7.3667    0.0000 C   0  0  0  0  0  0  0  0  0  0  0  0
    3.2042   -7.0542    0.0000 C   0  0  0  0  0  0  0  0  0  0  0  0
    3.1917   -5.6292    0.0000 C   0  0  0  0  0  0  0  0  0  0  0  0
    2.3667   -5.6375    0.0000 C   0  0  0  0  0  0  0  0  0  0  0  0
    2.3792   -7.0667    0.0000 C   0  0  0  0  0  0  0  0  0  0  0  0
   -0.5125   -6.3667    0.0000 O   0  0  0  0  0  0  0  0  0  0  0  0
    6.5292   -5.5875    0.0000 C   0  0  0  0  0  0  0  0  0  0  0  0
    7.9542   -5.7292    0.0000 C   0  0  0  0  0  0  0  0  0  0  0  0
    6.2792   -8.0500    0.0000 C   0  0  0  0  0  0  0  0  0  0  0  0
    0.7167   -5.6417    0.0000 C   0  0  0  0  0  0  0  0  0  0  0  0
    0.7292   -7.0792    0.0000 C   0  0  0  0  0  0  0  0  0  0  0  0
   -0.0958   -7.0792    0.0000 C   0  0  0  0  0  0  0  0  0  0  0  0
   -0.1000   -5.6500    0.0000 C   0  0  0  0  0  0  0  0  0  0  0  0
    7.7000   -8.1917    0.0000 C   0  0  0  0  0  0  0  0  0  0  0  0
    6.9417   -8.5292    0.0000 C   0  0  0  0  0  0  0  0  0  0  0  0
    8.0417   -4.9125    0.0000 C   0  0  0  0  0  0  0  0  0  0  0  0
    6.6167   -4.7625    0.0000 C   0  0  0  0  0  0  0  0  0  0  0  0
    7.3750   -4.4292    0.0000 C   0  0  0  0  0  0  0  0  0  0  0  0
  2  1  1  0  0  0  0
  3  1  1  0  0  0  0
  4  2  1  0  0  0  0
  5  6  1  0  0  0  0
  6  4  1  0  0  0  0
  7  3  1  0  0  0  0
  8  5  1  0  0  0  0
  9 12  1  0  0  0  0
 10  1  1  0  0  0  0
 11  2  2  0  0  0  0
 12 17  2  0  0  0  0
 13  3  2  0  0  0  0
 14  5  2  0  0  0  0
 15 10  1  0  0  0  0
 16 10  2  0  0  0  0
 17 16  1  0  0  0  0
 18 15  2  0  0  0  0
 19 25  1  0  0  0  0
 20  8  1  0  0  0  0
 21  8  1  0  0  0  0
 22  6  1  0  0  0  0
 23  9  1  0  0  0  0
 24  9  1  0  0  0  0
 25 24  1  0  0  0  0
 26 23  1  0  0  0  0
 27 28  1  0  0  0  0
 28 22  1  0  0  0  0
 29 21  1  0  0  0  0
 30 20  1  0  0  0  0
 31 29  1  0  0  0  0
  7  4  1  0  0  0  0
 12 18  1  0  0  0  0
 27 14  1  0  0  0  0
 19 26  1  0  0  0  0
 30 31  1  0  0  0  0
M  END
>  <IDNUMBER>
F3205-0012

>  <Chemical_Name>
1-[4-(morpholin-4-yl)phenyl]-3-[2-(piperidin-1-yl)cyclohex-2-en-1-yl]pyrrolidine-2,5-dione

>  <PriceCoeff>
1.00

>  <CAS>
881482-93-5

>  <MW>
423.55

>  <Description>
solid

>  <FSP3>
0.60

>  <clogP>
2.41

>  <TPSA>
53.09

>  <Acceptor>
4

>  <Donor>
2

>  <RotBonds>
4

>  <HAC>
31

>  <Collection>
General

>  <PPDS>
+

$$$$
F3205-0014
  Mrv2219 10102508112D          

 27 30  0  0  0  0            999 V2000
    4.4250   -6.3375    0.0000 N   0  0  0  0  0  0  0  0  0  0  0  0
    4.9167   -7.0042    0.0000 C   0  0  0  0  0  0  0  0  0  0  0  0
    4.9042   -5.6667    0.0000 C   0  0  0  0  0  0  0  0  0  0  0  0
    5.7000   -6.7417    0.0000 C   0  0  0  0  0  0  0  0  0  0  0  0
    7.1125   -6.8875    0.0000 C   0  0  0  0  0  0  0  0  0  0  0  0
    6.3667   -7.2250    0.0000 C   0  0  0  0  0  0  0  0  0  0  0  0
    5.6917   -5.9167    0.0000 C   0  0  0  0  0  0  0  0  0  0  0  0
    7.2000   -6.0667    0.0000 N   0  0  0  0  0  0  0  0  0  0  0  0
    3.6042   -6.3417    0.0000 C   0  0  0  0  0  0  0  0  0  0  0  0
    4.6625   -7.7875    0.0000 O   0  0  0  0  0  0  0  0  0  0  0  0
    4.6500   -4.8792    0.0000 O   0  0  0  0  0  0  0  0  0  0  0  0
    7.7792   -7.3667    0.0000 C   0  0  0  0  0  0  0  0  0  0  0  0
    3.1917   -5.6292    0.0000 C   0  0  0  0  0  0  0  0  0  0  0  0
    3.2042   -7.0542    0.0000 C   0  0  0  0  0  0  0  0  0  0  0  0
    1.9542   -6.3542    0.0000 C   0  0  0  0  0  0  0  0  0  0  0  0
    2.3792   -7.0667    0.0000 C   0  0  0  0  0  0  0  0  0  0  0  0
    2.3667   -5.6375    0.0000 C   0  0  0  0  0  0  0  0  0  0  0  0
    6.5292   -5.5875    0.0000 C   0  0  0  0  0  0  0  0  0  0  0  0
    7.9542   -5.7292    0.0000 C   0  0  0  0  0  0  0  0  0  0  0  0
    6.2792   -8.0500    0.0000 C   0  0  0  0  0  0  0  0  0  0  0  0
    1.1292   -6.3625    0.0000 O   0  0  0  0  0  0  0  0  0  0  0  0
    7.7000   -8.1917    0.0000 C   0  0  0  0  0  0  0  0  0  0  0  0
    0.7167   -5.6500    0.0000 C   0  0  0  0  0  0  0  0  0  0  0  0
    6.9417   -8.5292    0.0000 C   0  0  0  0  0  0  0  0  0  0  0  0
    8.0417   -4.9125    0.0000 C   0  0  0  0  0  0  0  0  0  0  0  0
    6.6167   -4.7625    0.0000 C   0  0  0  0  0  0  0  0  0  0  0  0
    7.3750   -4.4292    0.0000 C   0  0  0  0  0  0  0  0  0  0  0  0
  2  1  1  0  0  0  0
  3  1  1  0  0  0  0
  4  2  1  0  0  0  0
  5  6  1  0  0  0  0
  6  4  1  0  0  0  0
  7  3  1  0  0  0  0
  8  5  1  0  0  0  0
  9  1  1  0  0  0  0
 10  2  2  0  0  0  0
 11  3  2  0  0  0  0
 12  5  2  0  0  0  0
 13  9  2  0  0  0  0
 14  9  1  0  0  0  0
 15 16  1  0  0  0  0
 16 14  2  0  0  0  0
 17 13  1  0  0  0  0
 18  8  1  0  0  0  0
 19  8  1  0  0  0  0
 20  6  1  0  0  0  0
 21 15  1  0  0  0  0
 22 24  1  0  0  0  0
 23 21  1  0  0  0  0
 24 20  1  0  0  0  0
 25 19  1  0  0  0  0
 26 18  1  0  0  0  0
 27 25  1  0  0  0  0
  7  4  1  0  0  0  0
 15 17  2  0  0  0  0
 22 12  1  0  0  0  0
 27 26  1  0  0  0  0
M  END
>  <IDNUMBER>
F3205-0014

>  <Chemical_Name>
1-(4-methoxyphenyl)-3-[2-(piperidin-1-yl)cyclohex-2-en-1-yl]pyrrolidine-2,5-dione

>  <PriceCoeff>
1.50

>  <CAS>
881482-89-9

>  <MW>
368.47

>  <Description>
solid

>  <FSP3>
0.55

>  <clogP>
3.05

>  <TPSA>
49.85

>  <Acceptor>
3

>  <Donor>
1

>  <RotBonds>
4

>  <HAC>
27

>  <Collection>
Advanced

>  <PPDS>
+

$$$$
F3205-0015
  Mrv2219 10102508112D          

 24 26  0  0  0  0            999 V2000
    4.0571   -2.8688    0.0000 N   0  0  0  0  0  0  0  0  0  0  0  0
    4.5532   -3.5317    0.0000 C   0  0  0  0  0  0  0  0  0  0  0  0
    4.5449   -2.1932    0.0000 C   0  0  0  0  0  0  0  0  0  0  0  0
    5.3330   -3.2690    0.0000 C   0  0  0  0  0  0  0  0  0  0  0  0
    5.3330   -2.4434    0.0000 C   0  0  0  0  0  0  0  0  0  0  0  0
    5.9959   -3.7527    0.0000 N   0  0  0  0  0  0  0  0  0  0  0  0
    3.2398   -2.8688    0.0000 C   0  0  0  0  0  0  0  0  0  0  0  0
    4.2947   -4.3197    0.0000 O   0  0  0  0  0  0  0  0  0  0  0  0
    4.2822   -1.4135    0.0000 O   0  0  0  0  0  0  0  0  0  0  0  0
    6.7464   -3.4149    0.0000 C   0  0  0  0  0  0  0  0  0  0  0  0
    2.8187   -2.1557    0.0000 C   0  0  0  0  0  0  0  0  0  0  0  0
    8.2475   -2.7312    0.0000 C   0  0  0  0  0  0  0  0  0  0  0  0
    1.9806   -0.7422    0.0000 C   0  0  0  0  0  0  0  0  0  0  0  0
    7.4219   -3.8945    0.0000 C   0  0  0  0  0  0  0  0  0  0  0  0
    6.8298   -2.5935    0.0000 C   0  0  0  0  0  0  0  0  0  0  0  0
    3.2314   -1.4427    0.0000 C   0  0  0  0  0  0  0  0  0  0  0  0
    1.9931   -2.1682    0.0000 C   0  0  0  0  0  0  0  0  0  0  0  0
    8.1724   -3.5525    0.0000 C   0  0  0  0  0  0  0  0  0  0  0  0
    7.5721   -2.2558    0.0000 C   0  0  0  0  0  0  0  0  0  0  0  0
    1.5803   -1.4636    0.0000 C   0  0  0  0  0  0  0  0  0  0  0  0
    2.8145   -0.7380    0.0000 C   0  0  0  0  0  0  0  0  0  0  0  0
    9.0563   -2.5560    0.0000 O   0  0  0  0  0  0  0  0  0  0  0  0
    1.5678   -0.0292    0.0000 C   0  0  0  0  0  0  0  0  0  0  0  0
    9.4734   -3.2648    0.0000 C   0  0  0  0  0  0  0  0  0  0  0  0
  2  1  1  0  0  0  0
  3  1  1  0  0  0  0
  4  2  1  0  0  0  0
  5  3  1  0  0  0  0
  6  4  1  0  0  0  0
  7  1  1  0  0  0  0
  8  2  2  0  0  0  0
  9  3  2  0  0  0  0
 10  6  1  0  0  0  0
 11  7  1  0  0  0  0
 12 19  1  0  0  0  0
 13 20  1  0  0  0  0
 14 10  2  0  0  0  0
 15 10  1  0  0  0  0
 16 11  2  0  0  0  0
 17 11  1  0  0  0  0
 18 14  1  0  0  0  0
 19 15  2  0  0  0  0
 20 17  2  0  0  0  0
 21 16  1  0  0  0  0
 22 12  1  0  0  0  0
 23 13  1  0  0  0  0
 24 22  1  0  0  0  0
  5  4  1  0  0  0  0
 13 21  2  0  0  0  0
 18 12  2  0  0  0  0
M  END
>  <IDNUMBER>
F3205-0015

>  <Chemical_Name>
3-[(4-methoxyphenyl)amino]-1-[(4-methylphenyl)methyl]pyrrolidine-2,5-dione

>  <PriceCoeff>
1.00

>  <CAS>
1008080-67-8

>  <MW>
324.37

>  <Description>
solid

>  <FSP3>
0.26

>  <clogP>
3.83

>  <TPSA>
58.64

>  <Acceptor>
4

>  <Donor>
1

>  <RotBonds>
5

>  <HAC>
24

>  <Collection>
General

>  <PPDS>
+

$$$$
F3205-0025
  Mrv2219 10102508112D          

 25 27  0  0  0  0            999 V2000
    4.7792   -5.9667    0.0000 N   0  0  0  0  0  0  0  0  0  0  0  0
    5.2625   -5.3000    0.0000 C   0  0  0  0  0  0  0  0  0  0  0  0
    5.2667   -6.6375    0.0000 C   0  0  0  0  0  0  0  0  0  0  0  0
    6.0542   -6.3750    0.0000 C   0  0  0  0  0  0  0  0  0  0  0  0
    3.9542   -5.9750    0.0000 C   0  0  0  0  0  0  0  0  0  0  0  0
    6.0500   -5.5500    0.0000 C   0  0  0  0  0  0  0  0  0  0  0  0
    7.4667   -6.5167    0.0000 C   0  0  0  0  0  0  0  0  0  0  0  0
    8.1375   -6.9917    0.0000 C   0  0  0  0  0  0  0  0  0  0  0  0
    6.7167   -6.8542    0.0000 S   0  0  0  0  0  0  0  0  0  0  0  0
    3.5542   -6.6917    0.0000 C   0  0  0  0  0  0  0  0  0  0  0  0
    8.0542   -7.8167    0.0000 C   0  0  0  0  0  0  0  0  0  0  0  0
    2.7292   -6.7000    0.0000 C   0  0  0  0  0  0  0  0  0  0  0  0
    7.5417   -5.7000    0.0000 N   0  0  0  0  0  0  0  0  0  0  0  0
    5.0042   -4.5167    0.0000 O   0  0  0  0  0  0  0  0  0  0  0  0
    5.0167   -7.4167    0.0000 O   0  0  0  0  0  0  0  0  0  0  0  0
    3.5417   -5.2667    0.0000 C   0  0  0  0  0  0  0  0  0  0  0  0
    2.3125   -5.9875    0.0000 C   0  0  0  0  0  0  0  0  0  0  0  0
    8.7292   -8.3042    0.0000 O   0  0  0  0  0  0  0  0  0  0  0  0
    2.7167   -5.2667    0.0000 C   0  0  0  0  0  0  0  0  0  0  0  0
    2.3292   -7.4167    0.0000 Cl  0  0  0  0  0  0  0  0  0  0  0  0
    7.3042   -8.1625    0.0000 O   0  0  0  0  0  0  0  0  0  0  0  0
    8.8875   -6.6542    0.0000 C   0  0  0  0  0  0  0  0  0  0  0  0
    8.2917   -5.3542    0.0000 C   0  0  0  0  0  0  0  0  0  0  0  0
    1.4875   -5.9917    0.0000 C   0  0  0  0  0  0  0  0  0  0  0  0
    8.9667   -5.8375    0.0000 C   0  0  0  0  0  0  0  0  0  0  0  0
  2  1  1  0  0  0  0
  3  1  1  0  0  0  0
  4  3  1  0  0  0  0
  5  1  1  0  0  0  0
  6  2  1  0  0  0  0
  7  9  1  0  0  0  0
  8  7  2  0  0  0  0
  9  4  1  0  0  0  0
 10  5  1  0  0  0  0
 11  8  1  0  0  0  0
 12 10  2  0  0  0  0
 13  7  1  0  0  0  0
 14  2  2  0  0  0  0
 15  3  2  0  0  0  0
 16  5  2  0  0  0  0
 17 19  2  0  0  0  0
 18 11  2  0  0  0  0
 19 16  1  0  0  0  0
 20 12  1  0  0  0  0
 21 11  1  0  0  0  0
 22  8  1  0  0  0  0
 23 13  2  0  0  0  0
 24 17  1  0  0  0  0
 25 23  1  0  0  0  0
  6  4  1  0  0  0  0
 17 12  1  0  0  0  0
 25 22  2  0  0  0  0
M  END
>  <IDNUMBER>
F3205-0025

>  <Chemical_Name>
2-{[1-(3-chloro-4-methylphenyl)-2,5-dioxopyrrolidin-3-yl]sulfanyl}pyridine-3-carboxylic acid

>  <PriceCoeff>
1.00

>  <CAS>
881483-69-8

>  <MW>
376.81

>  <Description>
solid

>  <FSP3>
0.18

>  <clogP>
3.00

>  <TPSA>
112.87

>  <Acceptor>
5

>  <Donor>
1

>  <RotBonds>
4

>  <HAC>
25

>  <Collection>
General

>  <PPDS>
+

$$$$
F3205-0026
  Mrv2219 10102508112D          

 20 21  0  0  0  0            999 V2000
    4.7792   -5.9667    0.0000 N   0  0  0  0  0  0  0  0  0  0  0  0
    5.2667   -6.6375    0.0000 C   0  0  0  0  0  0  0  0  0  0  0  0
    5.2625   -5.3000    0.0000 C   0  0  0  0  0  0  0  0  0  0  0  0
    6.0542   -6.3750    0.0000 C   0  0  0  0  0  0  0  0  0  0  0  0
    6.0500   -5.5500    0.0000 C   0  0  0  0  0  0  0  0  0  0  0  0
    8.1375   -6.9917    0.0000 C   0  0  0  0  0  0  0  0  0  0  0  0
    6.7167   -6.8542    0.0000 S   0  0  0  0  0  0  0  0  0  0  0  0
    7.4667   -6.5167    0.0000 C   0  0  0  0  0  0  0  0  0  0  0  0
    8.0542   -7.8167    0.0000 C   0  0  0  0  0  0  0  0  0  0  0  0
    5.0167   -7.4167    0.0000 O   0  0  0  0  0  0  0  0  0  0  0  0
    5.0042   -4.5167    0.0000 O   0  0  0  0  0  0  0  0  0  0  0  0
    8.7292   -8.3042    0.0000 O   0  0  0  0  0  0  0  0  0  0  0  0
    3.9542   -5.9750    0.0000 C   0  0  0  0  0  0  0  0  0  0  0  0
    3.4750   -6.6500    0.0000 C   0  0  0  0  0  0  0  0  0  0  0  0
    2.6917   -6.4000    0.0000 C   0  0  0  0  0  0  0  0  0  0  0  0
    7.3042   -8.1625    0.0000 O   0  0  0  0  0  0  0  0  0  0  0  0
    8.8875   -6.6542    0.0000 C   0  0  0  0  0  0  0  0  0  0  0  0
    7.5417   -5.7000    0.0000 C   0  0  0  0  0  0  0  0  0  0  0  0
    8.9667   -5.8375    0.0000 C   0  0  0  0  0  0  0  0  0  0  0  0
    8.2917   -5.3542    0.0000 C   0  0  0  0  0  0  0  0  0  0  0  0
  2  1  1  0  0  0  0
  3  1  1  0  0  0  0
  4  2  1  0  0  0  0
  5  3  1  0  0  0  0
  6  8  2  0  0  0  0
  7  4  1  0  0  0  0
  8  7  1  0  0  0  0
  9  6  1  0  0  0  0
 10  2  2  0  0  0  0
 11  3  2  0  0  0  0
 12  9  2  0  0  0  0
 13  1  1  0  0  0  0
 14 13  1  0  0  0  0
 15 14  2  0  0  0  0
 16  9  1  0  0  0  0
 17  6  1  0  0  0  0
 18  8  1  0  0  0  0
 19 20  1  0  0  0  0
 20 18  2  0  0  0  0
  5  4  1  0  0  0  0
 17 19  2  0  0  0  0
M  END
>  <IDNUMBER>
F3205-0026

>  <Chemical_Name>
2-{[2,5-dioxo-1-(prop-2-en-1-yl)pyrrolidin-3-yl]sulfanyl}benzoic acid

>  <PriceCoeff>
1.00

>  <CAS>
881483-57-4

>  <MW>
291.32

>  <Description>
solid

>  <FSP3>
0.21

>  <clogP>
2.01

>  <TPSA>
99.98

>  <Acceptor>
4

>  <Donor>
0

>  <RotBonds>
5

>  <HAC>
20

>  <Collection>
General

>  <PPDS>
+

$$$$
F3205-0032
  Mrv2219 10102508112D          

 23 25  0  0  0  0            999 V2000
    4.4145   -6.4093    0.0000 N   0  0  0  0  0  0  0  0  0  0  0  0
    4.9017   -7.0756    0.0000 C   0  0  0  0  0  0  0  0  0  0  0  0
    4.8975   -5.7388    0.0000 C   0  0  0  0  0  0  0  0  0  0  0  0
    5.6888   -6.8133    0.0000 C   0  0  0  0  0  0  0  0  0  0  0  0
    5.6846   -5.9887    0.0000 C   0  0  0  0  0  0  0  0  0  0  0  0
    9.3495   -5.9345    0.0000 N   0  0  0  0  0  0  0  0  0  0  0  0
    6.3510   -7.2880    0.0000 N   0  0  0  0  0  0  0  0  0  0  0  0
    8.5999   -6.2760    0.0000 C   0  0  0  0  0  0  0  0  0  0  0  0
    4.6519   -7.8585    0.0000 O   0  0  0  0  0  0  0  0  0  0  0  0
    4.6394   -4.9517    0.0000 O   0  0  0  0  0  0  0  0  0  0  0  0
    3.5899   -6.4135    0.0000 C   0  0  0  0  0  0  0  0  0  0  0  0
   10.8487   -5.2516    0.0000 O   0  0  0  0  0  0  0  0  0  0  0  0
    3.1109   -7.0881    0.0000 C   0  0  0  0  0  0  0  0  0  0  0  0
    7.9252   -5.7971    0.0000 C   0  0  0  0  0  0  0  0  0  0  0  0
    8.5207   -7.0881    0.0000 C   0  0  0  0  0  0  0  0  0  0  0  0
    7.1006   -6.9507    0.0000 C   0  0  0  0  0  0  0  0  0  0  0  0
    2.2905   -7.0007    0.0000 C   0  0  0  0  0  0  0  0  0  0  0  0
    7.1756   -6.1386    0.0000 C   0  0  0  0  0  0  0  0  0  0  0  0
    7.7711   -7.4338    0.0000 C   0  0  0  0  0  0  0  0  0  0  0  0
   10.0117   -6.4135    0.0000 C   0  0  0  0  0  0  0  0  0  0  0  0
    9.4245   -5.1141    0.0000 C   0  0  0  0  0  0  0  0  0  0  0  0
   10.1741   -4.7768    0.0000 C   0  0  0  0  0  0  0  0  0  0  0  0
   10.7613   -6.0761    0.0000 C   0  0  0  0  0  0  0  0  0  0  0  0
  2  1  1  0  0  0  0
  3  1  1  0  0  0  0
  4  2  1  0  0  0  0
  5  3  1  0  0  0  0
  6  8  1  0  0  0  0
  7  4  1  0  0  0  0
  8 15  2  0  0  0  0
  9  2  2  0  0  0  0
 10  3  2  0  0  0  0
 11  1  1  0  0  0  0
 12 22  1  0  0  0  0
 13 11  1  0  0  0  0
 14 18  2  0  0  0  0
 15 19  1  0  0  0  0
 16  7  1  0  0  0  0
 17 13  2  0  0  0  0
 18 16  1  0  0  0  0
 19 16  2  0  0  0  0
 20  6  1  0  0  0  0
 21  6  1  0  0  0  0
 22 21  1  0  0  0  0
 23 20  1  0  0  0  0
  5  4  1  0  0  0  0
 14  8  1  0  0  0  0
 12 23  1  0  0  0  0
M  END
>  <IDNUMBER>
F3205-0032

>  <Chemical_Name>
3-{[4-(morpholin-4-yl)phenyl]amino}-1-(prop-2-en-1-yl)pyrrolidine-2,5-dione

>  <PriceCoeff>
1.00

>  <CAS>
1008091-53-9

>  <MW>
315.37

>  <Description>
solid

>  <FSP3>
0.41

>  <clogP>
1.88

>  <TPSA>
61.88

>  <Acceptor>
5

>  <Donor>
2

>  <RotBonds>
5

>  <HAC>
23

>  <Collection>
General

>  <PPDS>
+

$$$$
F3205-0033
  Mrv2219 10102508112D          

 22 23  0  0  0  0            999 V2000
    4.4120   -6.4057    0.0000 N   0  0  0  0  0  0  0  0  0  0  0  0
    4.8990   -7.0717    0.0000 C   0  0  0  0  0  0  0  0  0  0  0  0
    4.8948   -5.7356    0.0000 C   0  0  0  0  0  0  0  0  0  0  0  0
    5.6856   -6.8094    0.0000 C   0  0  0  0  0  0  0  0  0  0  0  0
    7.0966   -6.9468    0.0000 C   0  0  0  0  0  0  0  0  0  0  0  0
    5.6814   -5.9853    0.0000 C   0  0  0  0  0  0  0  0  0  0  0  0
    7.7667   -7.4296    0.0000 C   0  0  0  0  0  0  0  0  0  0  0  0
    6.3474   -7.2839    0.0000 S   0  0  0  0  0  0  0  0  0  0  0  0
    7.6835   -8.2537    0.0000 C   0  0  0  0  0  0  0  0  0  0  0  0
    7.1716   -6.1352    0.0000 N   0  0  0  0  0  0  0  0  0  0  0  0
    4.6492   -7.8541    0.0000 O   0  0  0  0  0  0  0  0  0  0  0  0
    4.6368   -4.9489    0.0000 O   0  0  0  0  0  0  0  0  0  0  0  0
    8.3578   -8.7324    0.0000 O   0  0  0  0  0  0  0  0  0  0  0  0
    3.5879   -6.4099    0.0000 C   0  0  0  0  0  0  0  0  0  0  0  0
    6.9343   -8.5950    0.0000 O   0  0  0  0  0  0  0  0  0  0  0  0
    8.5159   -7.0841    0.0000 C   0  0  0  0  0  0  0  0  0  0  0  0
    3.1716   -5.6981    0.0000 C   0  0  0  0  0  0  0  0  0  0  0  0
    1.9271   -4.9947    0.0000 O   0  0  0  0  0  0  0  0  0  0  0  0
    7.9208   -5.7938    0.0000 C   0  0  0  0  0  0  0  0  0  0  0  0
    2.3517   -5.7064    0.0000 C   0  0  0  0  0  0  0  0  0  0  0  0
    1.1030   -4.9989    0.0000 C   0  0  0  0  0  0  0  0  0  0  0  0
    8.5950   -6.2725    0.0000 C   0  0  0  0  0  0  0  0  0  0  0  0
  2  1  1  0  0  0  0
  3  1  1  0  0  0  0
  4  2  1  0  0  0  0
  5  8  1  0  0  0  0
  6  3  1  0  0  0  0
  7  5  2  0  0  0  0
  8  4  1  0  0  0  0
  9  7  1  0  0  0  0
 10  5  1  0  0  0  0
 11  2  2  0  0  0  0
 12  3  2  0  0  0  0
 13  9  2  0  0  0  0
 14  1  1  0  0  0  0
 15  9  1  0  0  0  0
 16  7  1  0  0  0  0
 17 14  1  0  0  0  0
 18 20  1  0  0  0  0
 19 10  2  0  0  0  0
 20 17  1  0  0  0  0
 21 18  1  0  0  0  0
 22 19  1  0  0  0  0
  6  4  1  0  0  0  0
 16 22  2  0  0  0  0
M  END
>  <IDNUMBER>
F3205-0033

>  <Chemical_Name>
2-{[1-(3-methoxypropyl)-2,5-dioxopyrrolidin-3-yl]sulfanyl}pyridine-3-carboxylic acid

>  <PriceCoeff>
1.00

>  <CAS>
881483-65-4

>  <MW>
324.35

>  <Description>
solid

>  <FSP3>
0.43

>  <clogP>
1.11

>  <TPSA>
122.10

>  <Acceptor>
6

>  <Donor>
1

>  <RotBonds>
7

>  <HAC>
22

>  <Collection>
General

>  <PPDS>
+

$$$$
F3205-0034
  Mrv2219 10102508112D          

 25 27  0  0  0  0            999 V2000
    5.3792   -5.9667    0.0000 N   0  0  0  0  0  0  0  0  0  0  0  0
    5.8750   -6.6375    0.0000 C   0  0  0  0  0  0  0  0  0  0  0  0
    5.8667   -5.3000    0.0000 C   0  0  0  0  0  0  0  0  0  0  0  0
    6.6542   -6.3750    0.0000 C   0  0  0  0  0  0  0  0  0  0  0  0
    6.6542   -5.5500    0.0000 C   0  0  0  0  0  0  0  0  0  0  0  0
   10.3167   -5.4917    0.0000 N   0  0  0  0  0  0  0  0  0  0  0  0
    7.3167   -6.8542    0.0000 N   0  0  0  0  0  0  0  0  0  0  0  0
    9.5667   -5.8375    0.0000 C   0  0  0  0  0  0  0  0  0  0  0  0
    5.6167   -7.4167    0.0000 O   0  0  0  0  0  0  0  0  0  0  0  0
    5.6042   -4.5167    0.0000 O   0  0  0  0  0  0  0  0  0  0  0  0
   11.8167   -4.8167    0.0000 O   0  0  0  0  0  0  0  0  0  0  0  0
    4.5625   -5.9750    0.0000 C   0  0  0  0  0  0  0  0  0  0  0  0
    9.4917   -6.6542    0.0000 C   0  0  0  0  0  0  0  0  0  0  0  0
    8.8917   -5.3542    0.0000 C   0  0  0  0  0  0  0  0  0  0  0  0
    8.0667   -6.5167    0.0000 C   0  0  0  0  0  0  0  0  0  0  0  0
    8.1500   -5.7000    0.0000 C   0  0  0  0  0  0  0  0  0  0  0  0
    8.7417   -6.9917    0.0000 C   0  0  0  0  0  0  0  0  0  0  0  0
   10.9917   -5.9792    0.0000 C   0  0  0  0  0  0  0  0  0  0  0  0
   10.3917   -4.6750    0.0000 C   0  0  0  0  0  0  0  0  0  0  0  0
    4.1417   -5.2625    0.0000 C   0  0  0  0  0  0  0  0  0  0  0  0
    2.9000   -4.5542    0.0000 O   0  0  0  0  0  0  0  0  0  0  0  0
   11.1500   -4.3375    0.0000 C   0  0  0  0  0  0  0  0  0  0  0  0
   11.7375   -5.6375    0.0000 C   0  0  0  0  0  0  0  0  0  0  0  0
    3.3167   -5.2667    0.0000 C   0  0  0  0  0  0  0  0  0  0  0  0
    2.0667   -4.5625    0.0000 C   0  0  0  0  0  0  0  0  0  0  0  0
  2  1  1  0  0  0  0
  3  1  1  0  0  0  0
  4  2  1  0  0  0  0
  5  3  1  0  0  0  0
  6  8  1  0  0  0  0
  7  4  1  0  0  0  0
  8 13  2  0  0  0  0
  9  2  2  0  0  0  0
 10  3  2  0  0  0  0
 11 22  1  0  0  0  0
 12  1  1  0  0  0  0
 13 17  1  0  0  0  0
 14 16  2  0  0  0  0
 15  7  1  0  0  0  0
 16 15  1  0  0  0  0
 17 15  2  0  0  0  0
 18  6  1  0  0  0  0
 19  6  1  0  0  0  0
 20 12  1  0  0  0  0
 21 24  1  0  0  0  0
 22 19  1  0  0  0  0
 23 18  1  0  0  0  0
 24 20  1  0  0  0  0
 25 21  1  0  0  0  0
  5  4  1  0  0  0  0
 14  8  1  0  0  0  0
 11 23  1  0  0  0  0
M  END
>  <IDNUMBER>
F3205-0034

>  <Chemical_Name>
1-(3-methoxypropyl)-3-{[4-(morpholin-4-yl)phenyl]amino}pyrrolidine-2,5-dione

>  <PriceCoeff>
1.00

>  <CAS>
1009609-11-3

>  <MW>
347.41

>  <Description>
solid

>  <FSP3>
0.56

>  <clogP>
1.55

>  <TPSA>
71.11

>  <Acceptor>
6

>  <Donor>
2

>  <RotBonds>
7

>  <HAC>
25

>  <Collection>
General

>  <PPDS>
+

$$$$
F3205-0035
  Mrv2219 10102508112D          

 25 27  0  0  0  0            999 V2000
    4.2417   -6.4875    0.0000 N   0  0  0  0  0  0  0  0  0  0  0  0
    4.7375   -7.1542    0.0000 C   0  0  0  0  0  0  0  0  0  0  0  0
    4.7292   -5.8167    0.0000 C   0  0  0  0  0  0  0  0  0  0  0  0
    5.5167   -6.8917    0.0000 C   0  0  0  0  0  0  0  0  0  0  0  0
    5.5167   -6.0667    0.0000 C   0  0  0  0  0  0  0  0  0  0  0  0
    9.1792   -6.0125    0.0000 N   0  0  0  0  0  0  0  0  0  0  0  0
    6.1792   -7.3667    0.0000 N   0  0  0  0  0  0  0  0  0  0  0  0
    8.4292   -6.3542    0.0000 C   0  0  0  0  0  0  0  0  0  0  0  0
    4.4792   -7.9375    0.0000 O   0  0  0  0  0  0  0  0  0  0  0  0
    4.4667   -5.0292    0.0000 O   0  0  0  0  0  0  0  0  0  0  0  0
    3.4250   -6.4917    0.0000 C   0  0  0  0  0  0  0  0  0  0  0  0
    7.7542   -5.8750    0.0000 C   0  0  0  0  0  0  0  0  0  0  0  0
    8.3542   -7.1667    0.0000 C   0  0  0  0  0  0  0  0  0  0  0  0
    6.9292   -7.0292    0.0000 C   0  0  0  0  0  0  0  0  0  0  0  0
    7.6042   -7.5125    0.0000 C   0  0  0  0  0  0  0  0  0  0  0  0
    7.0125   -6.2167    0.0000 C   0  0  0  0  0  0  0  0  0  0  0  0
    3.0042   -5.7792    0.0000 C   0  0  0  0  0  0  0  0  0  0  0  0
    9.8542   -6.4917    0.0000 C   0  0  0  0  0  0  0  0  0  0  0  0
    9.2542   -5.1917    0.0000 C   0  0  0  0  0  0  0  0  0  0  0  0
    1.7625   -5.0750    0.0000 O   0  0  0  0  0  0  0  0  0  0  0  0
    2.1792   -5.7875    0.0000 C   0  0  0  0  0  0  0  0  0  0  0  0
    0.9375   -5.0792    0.0000 C   0  0  0  0  0  0  0  0  0  0  0  0
   10.0125   -4.8542    0.0000 C   0  0  0  0  0  0  0  0  0  0  0  0
   10.6000   -6.1542    0.0000 C   0  0  0  0  0  0  0  0  0  0  0  0
   10.6792   -5.3292    0.0000 C   0  0  0  0  0  0  0  0  0  0  0  0
  2  1  1  0  0  0  0
  3  1  1  0  0  0  0
  4  2  1  0  0  0  0
  5  3  1  0  0  0  0
  6  8  1  0  0  0  0
  7  4  1  0  0  0  0
  8 12  1  0  0  0  0
  9  2  2  0  0  0  0
 10  3  2  0  0  0  0
 11  1  1  0  0  0  0
 12 16  2  0  0  0  0
 13 15  1  0  0  0  0
 14  7  1  0  0  0  0
 15 14  2  0  0  0  0
 16 14  1  0  0  0  0
 17 11  1  0  0  0  0
 18  6  1  0  0  0  0
 19  6  1  0  0  0  0
 20 21  1  0  0  0  0
 21 17  1  0  0  0  0
 22 20  1  0  0  0  0
 23 19  1  0  0  0  0
 24 18  1  0  0  0  0
 25 23  1  0  0  0  0
  5  4  1  0  0  0  0
  8 13  2  0  0  0  0
 25 24  1  0  0  0  0
M  END
>  <IDNUMBER>
F3205-0035

>  <Chemical_Name>
1-(3-methoxypropyl)-3-{[4-(piperidin-1-yl)phenyl]amino}pyrrolidine-2,5-dione

>  <PriceCoeff>
1.00

>  <CAS>
1009270-29-4

>  <MW>
345.44

>  <Description>
solid

>  <FSP3>
0.58

>  <clogP>
2.93

>  <TPSA>
61.88

>  <Acceptor>
5

>  <Donor>
2

>  <RotBonds>
7

>  <HAC>
25

>  <Collection>
General

$$$$
F3205-0036
  Mrv2219 10102508112D          

 28 31  0  0  0  0            999 V2000
    4.2417   -6.4875    0.0000 N   0  0  0  0  0  0  0  0  0  0  0  0
    4.7375   -7.1542    0.0000 C   0  0  0  0  0  0  0  0  0  0  0  0
    4.7292   -5.8167    0.0000 C   0  0  0  0  0  0  0  0  0  0  0  0
    5.5167   -6.8917    0.0000 C   0  0  0  0  0  0  0  0  0  0  0  0
    5.5167   -6.0667    0.0000 C   0  0  0  0  0  0  0  0  0  0  0  0
    9.1792   -6.0125    0.0000 N   0  0  0  0  0  0  0  0  0  0  0  0
    6.1792   -7.3667    0.0000 N   0  0  0  0  0  0  0  0  0  0  0  0
    3.4250   -6.4917    0.0000 C   0  0  0  0  0  0  0  0  0  0  0  0
    8.4292   -6.3542    0.0000 C   0  0  0  0  0  0  0  0  0  0  0  0
    4.4792   -7.9375    0.0000 O   0  0  0  0  0  0  0  0  0  0  0  0
    4.4667   -5.0292    0.0000 O   0  0  0  0  0  0  0  0  0  0  0  0
   10.6792   -5.3292    0.0000 O   0  0  0  0  0  0  0  0  0  0  0  0
    8.3542   -7.1667    0.0000 C   0  0  0  0  0  0  0  0  0  0  0  0
    7.7542   -5.8750    0.0000 C   0  0  0  0  0  0  0  0  0  0  0  0
    6.9292   -7.0292    0.0000 C   0  0  0  0  0  0  0  0  0  0  0  0
    3.0042   -5.7792    0.0000 C   0  0  0  0  0  0  0  0  0  0  0  0
    7.6042   -7.5125    0.0000 C   0  0  0  0  0  0  0  0  0  0  0  0
    7.0125   -6.2167    0.0000 C   0  0  0  0  0  0  0  0  0  0  0  0
    2.1667   -4.3625    0.0000 C   0  0  0  0  0  0  0  0  0  0  0  0
    3.4167   -5.0667    0.0000 C   0  0  0  0  0  0  0  0  0  0  0  0
    2.1792   -5.7917    0.0000 C   0  0  0  0  0  0  0  0  0  0  0  0
    1.7667   -5.0792    0.0000 C   0  0  0  0  0  0  0  0  0  0  0  0
    3.0000   -4.3542    0.0000 C   0  0  0  0  0  0  0  0  0  0  0  0
    9.2542   -5.1917    0.0000 C   0  0  0  0  0  0  0  0  0  0  0  0
    9.8542   -6.4917    0.0000 C   0  0  0  0  0  0  0  0  0  0  0  0
   10.6000   -6.1542    0.0000 C   0  0  0  0  0  0  0  0  0  0  0  0
   10.0125   -4.8542    0.0000 C   0  0  0  0  0  0  0  0  0  0  0  0
    1.7542   -3.6500    0.0000 C   0  0  0  0  0  0  0  0  0  0  0  0
  2  1  1  0  0  0  0
  3  1  1  0  0  0  0
  4  2  1  0  0  0  0
  5  3  1  0  0  0  0
  6  9  1  0  0  0  0
  7  4  1  0  0  0  0
  8  1  1  0  0  0  0
  9 14  1  0  0  0  0
 10  2  2  0  0  0  0
 11  3  2  0  0  0  0
 12 26  1  0  0  0  0
 13 17  1  0  0  0  0
 14 18  2  0  0  0  0
 15  7  1  0  0  0  0
 16  8  1  0  0  0  0
 17 15  2  0  0  0  0
 18 15  1  0  0  0  0
 19 22  1  0  0  0  0
 20 16  2  0  0  0  0
 21 16  1  0  0  0  0
 22 21  2  0  0  0  0
 23 20  1  0  0  0  0
 24  6  1  0  0  0  0
 25  6  1  0  0  0  0
 26 25  1  0  0  0  0
 27 24  1  0  0  0  0
 28 19  1  0  0  0  0
  5  4  1  0  0  0  0
 19 23  2  0  0  0  0
  9 13  2  0  0  0  0
 12 27  1  0  0  0  0
M  END
>  <IDNUMBER>
F3205-0036

>  <Chemical_Name>
1-[(4-methylphenyl)methyl]-3-{[4-(morpholin-4-yl)phenyl]amino}pyrrolidine-2,5-dione

>  <PriceCoeff>
1.00

>  <CAS>
1008668-63-0

>  <MW>
379.45

>  <Description>
solid

>  <FSP3>
0.36

>  <clogP>
3.19

>  <TPSA>
61.88

>  <Acceptor>
5

>  <Donor>
2

>  <RotBonds>
5

>  <HAC>
28

>  <Collection>
General

>  <PPDS>
+

$$$$
F3205-0038
  Mrv2219 10102508112D          

 22 24  0  0  0  0            999 V2000
    5.3792   -5.9667    0.0000 N   0  0  0  0  0  0  0  0  0  0  0  0
    5.8667   -5.3000    0.0000 C   0  0  0  0  0  0  0  0  0  0  0  0
    5.8750   -6.6375    0.0000 C   0  0  0  0  0  0  0  0  0  0  0  0
    6.6542   -6.3750    0.0000 C   0  0  0  0  0  0  0  0  0  0  0  0
    6.6542   -5.5500    0.0000 C   0  0  0  0  0  0  0  0  0  0  0  0
    8.0667   -6.5167    0.0000 C   0  0  0  0  0  0  0  0  0  0  0  0
    8.7417   -6.9917    0.0000 C   0  0  0  0  0  0  0  0  0  0  0  0
    7.3167   -6.8542    0.0000 S   0  0  0  0  0  0  0  0  0  0  0  0
    8.6625   -7.8167    0.0000 C   0  0  0  0  0  0  0  0  0  0  0  0
    8.1500   -5.7000    0.0000 N   0  0  0  0  0  0  0  0  0  0  0  0
    5.6042   -4.5167    0.0000 O   0  0  0  0  0  0  0  0  0  0  0  0
    5.6167   -7.4167    0.0000 O   0  0  0  0  0  0  0  0  0  0  0  0
    4.5625   -5.9750    0.0000 C   0  0  0  0  0  0  0  0  0  0  0  0
    9.3292   -8.3042    0.0000 O   0  0  0  0  0  0  0  0  0  0  0  0
    7.9042   -8.1625    0.0000 O   0  0  0  0  0  0  0  0  0  0  0  0
    9.4917   -6.6542    0.0000 C   0  0  0  0  0  0  0  0  0  0  0  0
    8.8917   -5.3542    0.0000 C   0  0  0  0  0  0  0  0  0  0  0  0
    4.0667   -5.3167    0.0000 C   0  0  0  0  0  0  0  0  0  0  0  0
    4.0792   -6.6500    0.0000 C   0  0  0  0  0  0  0  0  0  0  0  0
    9.5667   -5.8375    0.0000 C   0  0  0  0  0  0  0  0  0  0  0  0
    3.2917   -6.4000    0.0000 C   0  0  0  0  0  0  0  0  0  0  0  0
    3.2875   -5.5750    0.0000 C   0  0  0  0  0  0  0  0  0  0  0  0
  2  1  1  0  0  0  0
  3  1  1  0  0  0  0
  4  3  1  0  0  0  0
  5  2  1  0  0  0  0
  6  8  1  0  0  0  0
  7  6  2  0  0  0  0
  8  4  1  0  0  0  0
  9  7  1  0  0  0  0
 10  6  1  0  0  0  0
 11  2  2  0  0  0  0
 12  3  2  0  0  0  0
 13  1  1  0  0  0  0
 14  9  2  0  0  0  0
 15  9  1  0  0  0  0
 16  7  1  0  0  0  0
 17 10  2  0  0  0  0
 18 13  1  0  0  0  0
 19 13  1  0  0  0  0
 20 17  1  0  0  0  0
 21 19  1  0  0  0  0
 22 18  1  0  0  0  0
  5  4  1  0  0  0  0
 21 22  1  0  0  0  0
 16 20  2  0  0  0  0
M  END
>  <IDNUMBER>
F3205-0038

>  <Chemical_Name>
2-[(1-cyclopentyl-2,5-dioxopyrrolidin-3-yl)sulfanyl]pyridine-3-carboxylic acid

>  <PriceCoeff>
1.00

>  <CAS>
881483-73-4

>  <MW>
320.36

>  <Description>
solid

>  <FSP3>
0.47

>  <clogP>
2.06

>  <TPSA>
112.87

>  <Acceptor>
5

>  <Donor>
1

>  <RotBonds>
4

>  <HAC>
22

>  <Collection>
General

>  <PPDS>
+

$$$$
F3205-0039
  Mrv2219 10102508112D          

 21 22  0  0  0  0            999 V2000
    4.2417   -6.4875    0.0000 N   0  0  0  0  0  0  0  0  0  0  0  0
    4.7375   -7.1542    0.0000 C   0  0  0  0  0  0  0  0  0  0  0  0
    4.7292   -5.8167    0.0000 C   0  0  0  0  0  0  0  0  0  0  0  0
    5.5167   -6.8917    0.0000 C   0  0  0  0  0  0  0  0  0  0  0  0
    5.5167   -6.0667    0.0000 C   0  0  0  0  0  0  0  0  0  0  0  0
    6.1792   -7.3667    0.0000 N   0  0  0  0  0  0  0  0  0  0  0  0
    4.4792   -7.9375    0.0000 O   0  0  0  0  0  0  0  0  0  0  0  0
    4.4667   -5.0292    0.0000 O   0  0  0  0  0  0  0  0  0  0  0  0
    3.4250   -6.4917    0.0000 C   0  0  0  0  0  0  0  0  0  0  0  0
    6.9292   -7.0292    0.0000 C   0  0  0  0  0  0  0  0  0  0  0  0
    8.4292   -6.3542    0.0000 C   0  0  0  0  0  0  0  0  0  0  0  0
    7.6042   -7.5125    0.0000 C   0  0  0  0  0  0  0  0  0  0  0  0
    7.0125   -6.2167    0.0000 C   0  0  0  0  0  0  0  0  0  0  0  0
    8.3542   -7.1667    0.0000 C   0  0  0  0  0  0  0  0  0  0  0  0
    7.7542   -5.8750    0.0000 C   0  0  0  0  0  0  0  0  0  0  0  0
    3.0042   -5.7792    0.0000 C   0  0  0  0  0  0  0  0  0  0  0  0
    9.1792   -6.0125    0.0000 O   0  0  0  0  0  0  0  0  0  0  0  0
    1.7625   -5.0750    0.0000 O   0  0  0  0  0  0  0  0  0  0  0  0
    2.1792   -5.7875    0.0000 C   0  0  0  0  0  0  0  0  0  0  0  0
    9.8542   -6.4917    0.0000 C   0  0  0  0  0  0  0  0  0  0  0  0
    0.9375   -5.0792    0.0000 C   0  0  0  0  0  0  0  0  0  0  0  0
  2  1  1  0  0  0  0
  3  1  1  0  0  0  0
  4  2  1  0  0  0  0
  5  3  1  0  0  0  0
  6  4  1  0  0  0  0
  7  2  2  0  0  0  0
  8  3  2  0  0  0  0
  9  1  1  0  0  0  0
 10  6  1  0  0  0  0
 11 15  1  0  0  0  0
 12 10  2  0  0  0  0
 13 10  1  0  0  0  0
 14 12  1  0  0  0  0
 15 13  2  0  0  0  0
 16  9  1  0  0  0  0
 17 11  1  0  0  0  0
 18 19  1  0  0  0  0
 19 16  1  0  0  0  0
 20 17  1  0  0  0  0
 21 18  1  0  0  0  0
  5  4  1  0  0  0  0
 14 11  2  0  0  0  0
M  END
>  <IDNUMBER>
F3205-0039

>  <Chemical_Name>
3-[(4-methoxyphenyl)amino]-1-(3-methoxypropyl)pyrrolidine-2,5-dione

>  <PriceCoeff>
1.00

>  <CAS>
1009339-08-5

>  <MW>
292.33

>  <Description>
solid

>  <FSP3>
0.47

>  <clogP>
2.20

>  <TPSA>
67.87

>  <Acceptor>
5

>  <Donor>
1

>  <RotBonds>
7

>  <HAC>
21

>  <Collection>
General

>  <PPDS>
+

$$$$
F3205-0041
  Mrv2219 10102508112D          

 24 27  0  0  0  0            999 V2000
    5.1153   -6.0697    0.0000 N   0  0  0  0  0  0  0  0  0  0  0  0
    5.6050   -6.7436    0.0000 C   0  0  0  0  0  0  0  0  0  0  0  0
    5.6008   -5.3999    0.0000 C   0  0  0  0  0  0  0  0  0  0  0  0
    6.3962   -6.4799    0.0000 C   0  0  0  0  0  0  0  0  0  0  0  0
    6.3920   -5.6510    0.0000 C   0  0  0  0  0  0  0  0  0  0  0  0
    4.2865   -6.0780    0.0000 C   0  0  0  0  0  0  0  0  0  0  0  0
    7.0617   -6.9613    0.0000 N   0  0  0  0  0  0  0  0  0  0  0  0
    3.8720   -5.3664    0.0000 C   0  0  0  0  0  0  0  0  0  0  0  0
    8.3929   -7.9240    0.0000 N   0  0  0  0  0  0  0  0  0  0  0  0
    5.3539   -7.5264    0.0000 O   0  0  0  0  0  0  0  0  0  0  0  0
    5.3413   -4.6130    0.0000 O   0  0  0  0  0  0  0  0  0  0  0  0
    7.8110   -6.6180    0.0000 C   0  0  0  0  0  0  0  0  0  0  0  0
    6.9738   -7.7775    0.0000 C   0  0  0  0  0  0  0  0  0  0  0  0
    3.0432   -5.3664    0.0000 C   0  0  0  0  0  0  0  0  0  0  0  0
    8.4808   -7.0994    0.0000 C   0  0  0  0  0  0  0  0  0  0  0  0
    7.6394   -8.2547    0.0000 C   0  0  0  0  0  0  0  0  0  0  0  0
    3.8846   -6.7980    0.0000 C   0  0  0  0  0  0  0  0  0  0  0  0
    9.0668   -8.4054    0.0000 C   0  0  0  0  0  0  0  0  0  0  0  0
    4.2739   -4.6506    0.0000 C   0  0  0  0  0  0  0  0  0  0  0  0
    3.0558   -6.8064    0.0000 C   0  0  0  0  0  0  0  0  0  0  0  0
    2.6372   -6.0906    0.0000 C   0  0  0  0  0  0  0  0  0  0  0  0
    2.6288   -4.6632    0.0000 C   0  0  0  0  0  0  0  0  0  0  0  0
    3.8595   -3.9432    0.0000 C   0  0  0  0  0  0  0  0  0  0  0  0
    3.0390   -3.9474    0.0000 C   0  0  0  0  0  0  0  0  0  0  0  0
  2  1  1  0  0  0  0
  3  1  1  0  0  0  0
  4  2  1  0  0  0  0
  5  3  1  0  0  0  0
  6  1  1  0  0  0  0
  7  4  1  0  0  0  0
  8  6  2  0  0  0  0
  9 16  1  0  0  0  0
 10  2  2  0  0  0  0
 11  3  2  0  0  0  0
 12  7  1  0  0  0  0
 13  7  1  0  0  0  0
 14  8  1  0  0  0  0
 15 12  1  0  0  0  0
 16 13  1  0  0  0  0
 17  6  1  0  0  0  0
 18  9  1  0  0  0  0
 19  8  1  0  0  0  0
 20 17  2  0  0  0  0
 21 20  1  0  0  0  0
 22 14  1  0  0  0  0
 23 19  2  0  0  0  0
 24 23  1  0  0  0  0
  5  4  1  0  0  0  0
 21 14  2  0  0  0  0
 22 24  2  0  0  0  0
 15  9  1  0  0  0  0
M  END
>  <IDNUMBER>
F3205-0041

>  <Chemical_Name>
3-(4-methylpiperazin-1-yl)-1-(naphthalen-1-yl)pyrrolidine-2,5-dione

>  <PriceCoeff>
1.00

>  <CAS>
881484-49-7

>  <MW>
323.39

>  <Description>
solid

>  <FSP3>
0.37

>  <clogP>
1.48

>  <TPSA>
43.86

>  <Acceptor>
4

>  <Donor>
2

>  <RotBonds>
2

>  <HAC>
24

>  <Collection>
General

>  <PPDS>
+

$$$$
F3205-0042
  Mrv2219 10102508112D          

 20 21  0  0  0  0            999 V2000
    4.6750   -6.4125    0.0000 N   0  0  0  0  0  0  0  0  0  0  0  0
    5.1667   -7.0792    0.0000 C   0  0  0  0  0  0  0  0  0  0  0  0
    5.1542   -5.7417    0.0000 C   0  0  0  0  0  0  0  0  0  0  0  0
    5.9500   -6.8167    0.0000 C   0  0  0  0  0  0  0  0  0  0  0  0
    5.9417   -5.9917    0.0000 C   0  0  0  0  0  0  0  0  0  0  0  0
    6.6125   -7.2917    0.0000 N   0  0  0  0  0  0  0  0  0  0  0  0
    4.9125   -7.8625    0.0000 O   0  0  0  0  0  0  0  0  0  0  0  0
    4.9000   -4.9542    0.0000 O   0  0  0  0  0  0  0  0  0  0  0  0
    3.8542   -6.4167    0.0000 C   0  0  0  0  0  0  0  0  0  0  0  0
    7.3625   -6.9542    0.0000 C   0  0  0  0  0  0  0  0  0  0  0  0
    8.8625   -6.2792    0.0000 C   0  0  0  0  0  0  0  0  0  0  0  0
    9.6125   -5.9375    0.0000 F   0  0  0  0  0  0  0  0  0  0  0  0
    7.4417   -6.1417    0.0000 C   0  0  0  0  0  0  0  0  0  0  0  0
    8.0292   -7.4375    0.0000 C   0  0  0  0  0  0  0  0  0  0  0  0
    8.1875   -5.8000    0.0000 C   0  0  0  0  0  0  0  0  0  0  0  0
    8.7792   -7.0917    0.0000 C   0  0  0  0  0  0  0  0  0  0  0  0
    3.4375   -5.7042    0.0000 C   0  0  0  0  0  0  0  0  0  0  0  0
    2.1917   -5.0000    0.0000 O   0  0  0  0  0  0  0  0  0  0  0  0
    2.6125   -5.7125    0.0000 C   0  0  0  0  0  0  0  0  0  0  0  0
    1.3667   -5.0042    0.0000 C   0  0  0  0  0  0  0  0  0  0  0  0
  2  1  1  0  0  0  0
  3  1  1  0  0  0  0
  4  2  1  0  0  0  0
  5  3  1  0  0  0  0
  6  4  1  0  0  0  0
  7  2  2  0  0  0  0
  8  3  2  0  0  0  0
  9  1  1  0  0  0  0
 10  6  1  0  0  0  0
 11 16  2  0  0  0  0
 12 11  1  0  0  0  0
 13 10  1  0  0  0  0
 14 10  2  0  0  0  0
 15 13  2  0  0  0  0
 16 14  1  0  0  0  0
 17  9  1  0  0  0  0
 18 19  1  0  0  0  0
 19 17  1  0  0  0  0
 20 18  1  0  0  0  0
  5  4  1  0  0  0  0
 11 15  1  0  0  0  0
M  END
>  <IDNUMBER>
F3205-0042

>  <Chemical_Name>
3-[(4-fluorophenyl)amino]-1-(3-methoxypropyl)pyrrolidine-2,5-dione

>  <PriceCoeff>
1.00

>  <CAS>
1009261-02-2

>  <MW>
280.29

>  <Description>
solid

>  <FSP3>
0.43

>  <clogP>
2.54

>  <TPSA>
58.64

>  <Acceptor>
4

>  <Donor>
1

>  <RotBonds>
6

>  <HAC>
20

>  <Collection>
General

>  <PPDS>
+

$$$$
F3205-0043
  Mrv2219 10102508112D          

 19 20  0  0  0  0            999 V2000
    4.6750   -6.4125    0.0000 N   0  0  0  0  0  0  0  0  0  0  0  0
    5.1667   -7.0792    0.0000 C   0  0  0  0  0  0  0  0  0  0  0  0
    5.1542   -5.7417    0.0000 C   0  0  0  0  0  0  0  0  0  0  0  0
    5.9500   -6.8167    0.0000 C   0  0  0  0  0  0  0  0  0  0  0  0
    5.9417   -5.9917    0.0000 C   0  0  0  0  0  0  0  0  0  0  0  0
    6.6125   -7.2917    0.0000 N   0  0  0  0  0  0  0  0  0  0  0  0
    4.9125   -7.8625    0.0000 O   0  0  0  0  0  0  0  0  0  0  0  0
    4.9000   -4.9542    0.0000 O   0  0  0  0  0  0  0  0  0  0  0  0
    3.8542   -6.4167    0.0000 C   0  0  0  0  0  0  0  0  0  0  0  0
    3.4375   -5.7042    0.0000 C   0  0  0  0  0  0  0  0  0  0  0  0
    7.3625   -6.9542    0.0000 C   0  0  0  0  0  0  0  0  0  0  0  0
    2.6125   -5.7125    0.0000 C   0  0  0  0  0  0  0  0  0  0  0  0
    8.8625   -6.2792    0.0000 C   0  0  0  0  0  0  0  0  0  0  0  0
    8.0292   -7.4375    0.0000 C   0  0  0  0  0  0  0  0  0  0  0  0
    7.4417   -6.1417    0.0000 C   0  0  0  0  0  0  0  0  0  0  0  0
    8.7792   -7.0917    0.0000 C   0  0  0  0  0  0  0  0  0  0  0  0
    8.1875   -5.8000    0.0000 C   0  0  0  0  0  0  0  0  0  0  0  0
    9.6125   -5.9375    0.0000 C   0  0  0  0  0  0  0  0  0  0  0  0
   10.2792   -6.4167    0.0000 C   0  0  0  0  0  0  0  0  0  0  0  0
  2  1  1  0  0  0  0
  3  1  1  0  0  0  0
  4  2  1  0  0  0  0
  5  3  1  0  0  0  0
  6  4  1  0  0  0  0
  7  2  2  0  0  0  0
  8  3  2  0  0  0  0
  9  1  1  0  0  0  0
 10  9  1  0  0  0  0
 11  6  1  0  0  0  0
 12 10  2  0  0  0  0
 13 17  1  0  0  0  0
 14 11  2  0  0  0  0
 15 11  1  0  0  0  0
 16 14  1  0  0  0  0
 17 15  2  0  0  0  0
 18 13  1  0  0  0  0
 19 18  1  0  0  0  0
  5  4  1  0  0  0  0
 16 13  2  0  0  0  0
M  END
>  <IDNUMBER>
F3205-0043

>  <Chemical_Name>
3-[(4-ethylphenyl)amino]-1-(prop-2-en-1-yl)pyrrolidine-2,5-dione

>  <PriceCoeff>
1.00

>  <CAS>
1008668-03-8

>  <MW>
258.32

>  <Description>
solid

>  <FSP3>
0.33

>  <clogP>
3.46

>  <TPSA>
49.41

>  <Acceptor>
3

>  <Donor>
1

>  <RotBonds>
5

>  <HAC>
19

>  <Collection>
General

>  <PPDS>
+

$$$$
F3205-0045
  Mrv2219 10102508112D          

 23 25  0  0  0  0            999 V2000
    5.1905   -6.1301    0.0000 N   0  0  0  0  0  0  0  0  0  0  0  0
    5.6874   -6.8023    0.0000 C   0  0  0  0  0  0  0  0  0  0  0  0
    5.6791   -5.4619    0.0000 C   0  0  0  0  0  0  0  0  0  0  0  0
    6.4683   -6.5393    0.0000 C   0  0  0  0  0  0  0  0  0  0  0  0
    6.4683   -5.7125    0.0000 C   0  0  0  0  0  0  0  0  0  0  0  0
   10.1138   -5.6415    0.0000 N   0  0  0  0  0  0  0  0  0  0  0  0
    7.1323   -7.0195    0.0000 N   0  0  0  0  0  0  0  0  0  0  0  0
    9.3621   -5.9923    0.0000 C   0  0  0  0  0  0  0  0  0  0  0  0
    5.4285   -7.5832    0.0000 O   0  0  0  0  0  0  0  0  0  0  0  0
    5.4160   -4.6769    0.0000 O   0  0  0  0  0  0  0  0  0  0  0  0
    4.3720   -6.1384    0.0000 C   0  0  0  0  0  0  0  0  0  0  0  0
    3.9503   -5.4243    0.0000 C   0  0  0  0  0  0  0  0  0  0  0  0
    8.6940   -5.5162    0.0000 C   0  0  0  0  0  0  0  0  0  0  0  0
    9.2870   -6.8066    0.0000 C   0  0  0  0  0  0  0  0  0  0  0  0
    7.8839   -6.6771    0.0000 C   0  0  0  0  0  0  0  0  0  0  0  0
    3.1235   -5.4285    0.0000 C   0  0  0  0  0  0  0  0  0  0  0  0
    7.9465   -5.8628    0.0000 C   0  0  0  0  0  0  0  0  0  0  0  0
    8.5479   -7.1448    0.0000 C   0  0  0  0  0  0  0  0  0  0  0  0
   10.7902   -6.1175    0.0000 C   0  0  0  0  0  0  0  0  0  0  0  0
   10.1847   -4.8147    0.0000 C   0  0  0  0  0  0  0  0  0  0  0  0
   10.9406   -4.4723    0.0000 C   0  0  0  0  0  0  0  0  0  0  0  0
   11.5377   -5.7751    0.0000 C   0  0  0  0  0  0  0  0  0  0  0  0
   11.6170   -4.9525    0.0000 C   0  0  0  0  0  0  0  0  0  0  0  0
  2  1  1  0  0  0  0
  3  1  1  0  0  0  0
  4  2  1  0  0  0  0
  5  3  1  0  0  0  0
  6  8  1  0  0  0  0
  7  4  1  0  0  0  0
  8 14  2  0  0  0  0
  9  2  2  0  0  0  0
 10  3  2  0  0  0  0
 11  1  1  0  0  0  0
 12 11  1  0  0  0  0
 13 17  2  0  0  0  0
 14 18  1  0  0  0  0
 15  7  1  0  0  0  0
 16 12  2  0  0  0  0
 17 15  1  0  0  0  0
 18 15  2  0  0  0  0
 19  6  1  0  0  0  0
 20  6  1  0  0  0  0
 21 20  1  0  0  0  0
 22 19  1  0  0  0  0
 23 21  1  0  0  0  0
  5  4  1  0  0  0  0
  8 13  1  0  0  0  0
 23 22  1  0  0  0  0
M  END
>  <IDNUMBER>
F3205-0045

>  <Chemical_Name>
3-{[4-(piperidin-1-yl)phenyl]amino}-1-(prop-2-en-1-yl)pyrrolidine-2,5-dione

>  <PriceCoeff>
1.00

>  <CAS>
1009697-81-7

>  <MW>
313.39

>  <Description>
solid

>  <FSP3>
0.44

>  <clogP>
3.27

>  <TPSA>
52.65

>  <Acceptor>
4

>  <Donor>
2

>  <RotBonds>
5

>  <HAC>
23

>  <Collection>
General

>  <PPDS>
+

$$$$
F3205-0048
  Mrv2219 10102508112D          

 22 23  0  0  0  0            999 V2000
    4.6750   -6.4125    0.0000 N   0  0  0  0  0  0  0  0  0  0  0  0
    5.1667   -7.0792    0.0000 C   0  0  0  0  0  0  0  0  0  0  0  0
    5.1542   -5.7417    0.0000 C   0  0  0  0  0  0  0  0  0  0  0  0
    5.9500   -6.8167    0.0000 C   0  0  0  0  0  0  0  0  0  0  0  0
    5.9417   -5.9917    0.0000 C   0  0  0  0  0  0  0  0  0  0  0  0
    8.0292   -7.4375    0.0000 C   0  0  0  0  0  0  0  0  0  0  0  0
    6.6125   -7.2917    0.0000 S   0  0  0  0  0  0  0  0  0  0  0  0
    7.3625   -6.9542    0.0000 C   0  0  0  0  0  0  0  0  0  0  0  0
    7.9542   -8.2625    0.0000 C   0  0  0  0  0  0  0  0  0  0  0  0
    4.9125   -7.8625    0.0000 O   0  0  0  0  0  0  0  0  0  0  0  0
    4.9000   -4.9542    0.0000 O   0  0  0  0  0  0  0  0  0  0  0  0
    8.6250   -8.7417    0.0000 O   0  0  0  0  0  0  0  0  0  0  0  0
    3.8542   -6.4167    0.0000 C   0  0  0  0  0  0  0  0  0  0  0  0
    7.2000   -8.6042    0.0000 O   0  0  0  0  0  0  0  0  0  0  0  0
    8.7792   -7.0917    0.0000 C   0  0  0  0  0  0  0  0  0  0  0  0
    3.4375   -5.7042    0.0000 C   0  0  0  0  0  0  0  0  0  0  0  0
    7.4417   -6.1417    0.0000 C   0  0  0  0  0  0  0  0  0  0  0  0
    2.1917   -5.0000    0.0000 O   0  0  0  0  0  0  0  0  0  0  0  0
    2.6125   -5.7125    0.0000 C   0  0  0  0  0  0  0  0  0  0  0  0
    1.3667   -5.0042    0.0000 C   0  0  0  0  0  0  0  0  0  0  0  0
    8.8625   -6.2792    0.0000 C   0  0  0  0  0  0  0  0  0  0  0  0
    8.1875   -5.8000    0.0000 C   0  0  0  0  0  0  0  0  0  0  0  0
  2  1  1  0  0  0  0
  3  1  1  0  0  0  0
  4  2  1  0  0  0  0
  5  3  1  0  0  0  0
  6  8  2  0  0  0  0
  7  4  1  0  0  0  0
  8  7  1  0  0  0  0
  9  6  1  0  0  0  0
 10  2  2  0  0  0  0
 11  3  2  0  0  0  0
 12  9  2  0  0  0  0
 13  1  1  0  0  0  0
 14  9  1  0  0  0  0
 15  6  1  0  0  0  0
 16 13  1  0  0  0  0
 17  8  1  0  0  0  0
 18 19  1  0  0  0  0
 19 16  1  0  0  0  0
 20 18  1  0  0  0  0
 21 22  1  0  0  0  0
 22 17  2  0  0  0  0
  5  4  1  0  0  0  0
 15 21  2  0  0  0  0
M  END
>  <IDNUMBER>
F3205-0048

>  <Chemical_Name>
2-{[1-(3-methoxypropyl)-2,5-dioxopyrrolidin-3-yl]sulfanyl}benzoic acid

>  <PriceCoeff>
1.00

>  <CAS>
881483-45-0

>  <MW>
323.36

>  <Description>
solid

>  <FSP3>
0.40

>  <clogP>
1.68

>  <TPSA>
109.21

>  <Acceptor>
5

>  <Donor>
0

>  <RotBonds>
7

>  <HAC>
22

>  <Collection>
General

>  <PPDS>
+

$$$$
F3205-0055
  Mrv2219 10102508112D          

 20 22  0  0  0  0            999 V2000
   -1.5097    0.1206    0.0000 N   0  0  0  0  0  0  0  0  0  0  0  0
   -0.9940   -0.5240    0.0000 C   0  0  0  0  0  0  0  0  0  0  0  0
   -1.0606    0.8193    0.0000 C   0  0  0  0  0  0  0  0  0  0  0  0
   -0.2204   -0.2288    0.0000 C   0  0  0  0  0  0  0  0  0  0  0  0
   -0.2620    0.5989    0.0000 C   0  0  0  0  0  0  0  0  0  0  0  0
    0.4658   -0.6780    0.0000 N   0  0  0  0  0  0  0  0  0  0  0  0
    1.8383   -1.5846    0.0000 N   0  0  0  0  0  0  0  0  0  0  0  0
   -1.2061   -1.3143    0.0000 O   0  0  0  0  0  0  0  0  0  0  0  0
   -1.3558    1.5846    0.0000 O   0  0  0  0  0  0  0  0  0  0  0  0
    0.4159   -1.5014    0.0000 C   0  0  0  0  0  0  0  0  0  0  0  0
    1.2020   -0.3036    0.0000 C   0  0  0  0  0  0  0  0  0  0  0  0
    1.8882   -0.7611    0.0000 C   0  0  0  0  0  0  0  0  0  0  0  0
    1.1022   -1.9506    0.0000 C   0  0  0  0  0  0  0  0  0  0  0  0
    2.5246   -2.0380    0.0000 C   0  0  0  0  0  0  0  0  0  0  0  0
   -2.3332    0.0831    0.0000 C   0  0  0  0  0  0  0  0  0  0  0  0
    2.4747   -2.8573    0.0000 C   0  0  0  0  0  0  0  0  0  0  0  0
    3.2607   -1.6636    0.0000 C   0  0  0  0  0  0  0  0  0  0  0  0
    3.9470   -2.1128    0.0000 C   0  0  0  0  0  0  0  0  0  0  0  0
    3.1609   -3.3106    0.0000 C   0  0  0  0  0  0  0  0  0  0  0  0
    3.9053   -2.9446    0.0000 C   0  0  0  0  0  0  0  0  0  0  0  0
  2  1  1  0  0  0  0
  3  1  1  0  0  0  0
  4  2  1  0  0  0  0
  5  3  1  0  0  0  0
  6  4  1  0  0  0  0
  7 12  1  0  0  0  0
  8  2  2  0  0  0  0
  9  3  2  0  0  0  0
 10  6  1  0  0  0  0
 11  6  1  0  0  0  0
 12 11  1  0  0  0  0
 13 10  1  0  0  0  0
 14  7  1  0  0  0  0
 15  1  1  0  0  0  0
 16 14  2  0  0  0  0
 17 14  1  0  0  0  0
 18 17  2  0  0  0  0
 19 16  1  0  0  0  0
 20 18  1  0  0  0  0
  5  4  1  0  0  0  0
  7 13  1  0  0  0  0
 20 19  2  0  0  0  0
M  END
>  <IDNUMBER>
F3205-0055

>  <Chemical_Name>
1-methyl-3-(4-phenylpiperazin-1-yl)pyrrolidine-2,5-dione

>  <PriceCoeff>
1.50

>  <CAS>
313378-65-3

>  <MW>
273.33

>  <Description>
solid

>  <FSP3>
0.47

>  <clogP>
2.35

>  <TPSA>
43.86

>  <Acceptor>
3

>  <Donor>
2

>  <RotBonds>
2

>  <HAC>
20

>  <Collection>
Advanced

>  <PPDS>
+

$$$$
F3205-0061
  Mrv2219 10102508112D          

 26 28  0  0  0  0            999 V2000
   -0.7995    0.9042    0.0000 N   0  0  0  0  0  0  0  0  0  0  0  0
   -0.3097    1.5697    0.0000 C   0  0  0  0  0  0  0  0  0  0  0  0
   -0.3097    0.2344    0.0000 C   0  0  0  0  0  0  0  0  0  0  0  0
    0.4772    0.4855    0.0000 C   0  0  0  0  0  0  0  0  0  0  0  0
   -1.6283    0.9042    0.0000 C   0  0  0  0  0  0  0  0  0  0  0  0
    0.4814    1.3144    0.0000 C   0  0  0  0  0  0  0  0  0  0  0  0
    2.6163   -0.0753    0.0000 C   0  0  0  0  0  0  0  0  0  0  0  0
    1.1470   -0.0042    0.0000 S   0  0  0  0  0  0  0  0  0  0  0  0
    1.9088    0.3391    0.0000 C   0  0  0  0  0  0  0  0  0  0  0  0
   -2.0427    0.1967    0.0000 C   0  0  0  0  0  0  0  0  0  0  0  0
    2.6163   -0.9042    0.0000 C   0  0  0  0  0  0  0  0  0  0  0  0
   -2.8590    0.1967    0.0000 C   0  0  0  0  0  0  0  0  0  0  0  0
   -0.5609    2.3609    0.0000 O   0  0  0  0  0  0  0  0  0  0  0  0
   -0.5734   -0.5568    0.0000 O   0  0  0  0  0  0  0  0  0  0  0  0
   -2.0427    1.6200    0.0000 C   0  0  0  0  0  0  0  0  0  0  0  0
   -3.2650    0.9125    0.0000 C   0  0  0  0  0  0  0  0  0  0  0  0
    3.3321   -1.3228    0.0000 O   0  0  0  0  0  0  0  0  0  0  0  0
   -2.8590    1.6200    0.0000 C   0  0  0  0  0  0  0  0  0  0  0  0
   -3.2776   -0.5191    0.0000 Cl  0  0  0  0  0  0  0  0  0  0  0  0
    1.9005   -1.3228    0.0000 O   0  0  0  0  0  0  0  0  0  0  0  0
    3.3321    0.3348    0.0000 C   0  0  0  0  0  0  0  0  0  0  0  0
   -4.1022    0.9167    0.0000 O   0  0  0  0  0  0  0  0  0  0  0  0
    1.9088    1.1637    0.0000 C   0  0  0  0  0  0  0  0  0  0  0  0
   -4.5083    1.6325    0.0000 C   0  0  0  0  0  0  0  0  0  0  0  0
    3.3321    1.1637    0.0000 C   0  0  0  0  0  0  0  0  0  0  0  0
    2.6163    1.5697    0.0000 C   0  0  0  0  0  0  0  0  0  0  0  0
  2  1  1  0  0  0  0
  3  1  1  0  0  0  0
  4  3  1  0  0  0  0
  5  1  1  0  0  0  0
  6  2  1  0  0  0  0
  7  9  2  0  0  0  0
  8  4  1  0  0  0  0
  9  8  1  0  0  0  0
 10  5  2  0  0  0  0
 11  7  1  0  0  0  0
 12 10  1  0  0  0  0
 13  2  2  0  0  0  0
 14  3  2  0  0  0  0
 15  5  1  0  0  0  0
 16 18  1  0  0  0  0
 17 11  2  0  0  0  0
 18 15  2  0  0  0  0
 19 12  1  0  0  0  0
 20 11  1  0  0  0  0
 21  7  1  0  0  0  0
 22 16  1  0  0  0  0
 23  9  1  0  0  0  0
 24 22  1  0  0  0  0
 25 26  1  0  0  0  0
 26 23  2  0  0  0  0
  6  4  1  0  0  0  0
 12 16  2  0  0  0  0
 25 21  2  0  0  0  0
M  END
>  <IDNUMBER>
F3205-0061

>  <Chemical_Name>
2-{[1-(3-chloro-4-methoxyphenyl)-2,5-dioxopyrrolidin-3-yl]sulfanyl}benzoic acid

>  <PriceCoeff>
1.00

>  <CAS>
881483-53-0

>  <MW>
391.83

>  <Description>
solid

>  <FSP3>
0.17

>  <clogP>
2.85

>  <TPSA>
109.21

>  <Acceptor>
5

>  <Donor>
0

>  <RotBonds>
5

>  <HAC>
26

>  <Collection>
General

>  <PPDS>
+

$$$$
F3205-0063
  Mrv2219 10102508112D          

 28 30  0  0  0  0            999 V2000
    2.7975    0.2463    0.0000 N   0  0  0  0  0  0  0  0  0  0  0  0
    3.2818    0.9102    0.0000 C   0  0  0  0  0  0  0  0  0  0  0  0
    3.2818   -0.4301    0.0000 C   0  0  0  0  0  0  0  0  0  0  0  0
    4.0626   -0.1796    0.0000 C   0  0  0  0  0  0  0  0  0  0  0  0
    4.0709    0.6513    0.0000 C   0  0  0  0  0  0  0  0  0  0  0  0
    5.4906   -0.1796    0.0000 C   0  0  0  0  0  0  0  0  0  0  0  0
    6.2045   -0.6012    0.0000 C   0  0  0  0  0  0  0  0  0  0  0  0
    4.7766   -0.5929    0.0000 S   0  0  0  0  0  0  0  0  0  0  0  0
   -0.9102    0.9728    0.0000 C   0  0  0  0  0  0  0  0  0  0  0  0
    6.1920   -1.4280    0.0000 C   0  0  0  0  0  0  0  0  0  0  0  0
    1.9708    0.2463    0.0000 C   0  0  0  0  0  0  0  0  0  0  0  0
    5.5031    0.6471    0.0000 N   0  0  0  0  0  0  0  0  0  0  0  0
    3.0313    1.6993    0.0000 O   0  0  0  0  0  0  0  0  0  0  0  0
    3.0230   -1.2150    0.0000 O   0  0  0  0  0  0  0  0  0  0  0  0
   -0.4968    0.2588    0.0000 O   0  0  0  0  0  0  0  0  0  0  0  0
    6.9060   -1.8455    0.0000 O   0  0  0  0  0  0  0  0  0  0  0  0
    1.5574    0.9603    0.0000 C   0  0  0  0  0  0  0  0  0  0  0  0
    1.5574   -0.4635    0.0000 C   0  0  0  0  0  0  0  0  0  0  0  0
   -0.5970    1.7745    0.0000 F   0  0  0  0  0  0  0  0  0  0  0  0
   -1.7536    1.1106    0.0000 F   0  0  0  0  0  0  0  0  0  0  0  0
   -1.2776    1.6242    0.0000 F   0  0  0  0  0  0  0  0  0  0  0  0
    0.3299    0.2505    0.0000 C   0  0  0  0  0  0  0  0  0  0  0  0
    5.4780   -1.8413    0.0000 O   0  0  0  0  0  0  0  0  0  0  0  0
    0.7432    0.9603    0.0000 C   0  0  0  0  0  0  0  0  0  0  0  0
    0.7390   -0.4635    0.0000 C   0  0  0  0  0  0  0  0  0  0  0  0
    6.9185   -0.1921    0.0000 C   0  0  0  0  0  0  0  0  0  0  0  0
    6.2171    1.0480    0.0000 C   0  0  0  0  0  0  0  0  0  0  0  0
    6.9268    0.6346    0.0000 C   0  0  0  0  0  0  0  0  0  0  0  0
  2  1  1  0  0  0  0
  3  1  1  0  0  0  0
  4  3  1  0  0  0  0
  5  2  1  0  0  0  0
  6  8  1  0  0  0  0
  7  6  1  0  0  0  0
  8  4  1  0  0  0  0
  9 15  1  0  0  0  0
 10  7  1  0  0  0  0
 11  1  1  0  0  0  0
 12  6  2  0  0  0  0
 13  2  2  0  0  0  0
 14  3  2  0  0  0  0
 15 22  1  0  0  0  0
 16 10  2  0  0  0  0
 17 11  1  0  0  0  0
 18 11  2  0  0  0  0
 19  9  1  0  0  0  0
 20  9  1  0  0  0  0
 21  9  1  0  0  0  0
 22 25  2  0  0  0  0
 23 10  1  0  0  0  0
 24 17  2  0  0  0  0
 25 18  1  0  0  0  0
 26  7  2  0  0  0  0
 27 12  1  0  0  0  0
 28 27  2  0  0  0  0
  4  5  1  0  0  0  0
 22 24  1  0  0  0  0
 28 26  1  0  0  0  0
M  END
>  <IDNUMBER>
F3205-0063

>  <Chemical_Name>
2-({2,5-dioxo-1-[4-(trifluoromethoxy)phenyl]pyrrolidin-3-yl}sulfanyl)pyridine-3-carboxylic acid

>  <PriceCoeff>
1.00

>  <CAS>
280133-24-6

>  <MW>
412.34

>  <Description>
solid

>  <FSP3>
0.18

>  <clogP>
2.71

>  <TPSA>
122.10

>  <Acceptor>
6

>  <Donor>
1

>  <RotBonds>
5

>  <HAC>
28

>  <Collection>
General

>  <PPDS>
+

$$$$
F3205-0064
  Mrv2219 10102508112D          

 26 28  0  0  0  0            999 V2000
   -0.1331   -0.1415    0.0000 N   0  0  0  0  0  0  0  0  0  0  0  0
   -0.9569   -0.1373    0.0000 C   0  0  0  0  0  0  0  0  0  0  0  0
   -1.4354    0.5325    0.0000 C   0  0  0  0  0  0  0  0  0  0  0  0
    0.3537    0.5200    0.0000 C   0  0  0  0  0  0  0  0  0  0  0  0
    0.3495   -0.8155    0.0000 C   0  0  0  0  0  0  0  0  0  0  0  0
    1.1275   -0.5659    0.0000 C   0  0  0  0  0  0  0  0  0  0  0  0
    1.1400    0.2579    0.0000 C   0  0  0  0  0  0  0  0  0  0  0  0
    3.2743   -0.9985    0.0000 C   0  0  0  0  0  0  0  0  0  0  0  0
    1.8390   -0.9860    0.0000 S   0  0  0  0  0  0  0  0  0  0  0  0
   -1.1815    1.3188    0.0000 C   0  0  0  0  0  0  0  0  0  0  0  0
   -1.4436   -0.8030    0.0000 S   0  0  0  0  0  0  0  0  0  0  0  0
    2.5629   -0.5783    0.0000 C   0  0  0  0  0  0  0  0  0  0  0  0
    3.2618   -1.8223    0.0000 C   0  0  0  0  0  0  0  0  0  0  0  0
   -2.2217    0.2829    0.0000 C   0  0  0  0  0  0  0  0  0  0  0  0
   -2.2300   -0.5409    0.0000 C   0  0  0  0  0  0  0  0  0  0  0  0
    0.1040    1.3064    0.0000 O   0  0  0  0  0  0  0  0  0  0  0  0
    0.0916   -1.5976    0.0000 O   0  0  0  0  0  0  0  0  0  0  0  0
   -0.3702    1.4811    0.0000 O   0  0  0  0  0  0  0  0  0  0  0  0
    3.9733   -2.2384    0.0000 O   0  0  0  0  0  0  0  0  0  0  0  0
    2.5504   -2.2259    0.0000 O   0  0  0  0  0  0  0  0  0  0  0  0
   -1.7224    1.9304    0.0000 O   0  0  0  0  0  0  0  0  0  0  0  0
    3.9940   -0.5908    0.0000 C   0  0  0  0  0  0  0  0  0  0  0  0
    2.5712    0.2496    0.0000 C   0  0  0  0  0  0  0  0  0  0  0  0
   -1.4686    2.7085    0.0000 C   0  0  0  0  0  0  0  0  0  0  0  0
    3.9982    0.2371    0.0000 C   0  0  0  0  0  0  0  0  0  0  0  0
    3.2868    0.6573    0.0000 C   0  0  0  0  0  0  0  0  0  0  0  0
  2  1  1  0  0  0  0
  3  2  2  0  0  0  0
  4  1  1  0  0  0  0
  5  1  1  0  0  0  0
  6  5  1  0  0  0  0
  7  4  1  0  0  0  0
  8 12  1  0  0  0  0
  9  6  1  0  0  0  0
 10  3  1  0  0  0  0
 11  2  1  0  0  0  0
 12  9  1  0  0  0  0
 13  8  1  0  0  0  0
 14  3  1  0  0  0  0
 15 11  1  0  0  0  0
 16  4  2  0  0  0  0
 17  5  2  0  0  0  0
 18 10  2  0  0  0  0
 19 13  2  0  0  0  0
 20 13  1  0  0  0  0
 21 10  1  0  0  0  0
 22  8  2  0  0  0  0
 23 12  2  0  0  0  0
 24 21  1  0  0  0  0
 25 26  2  0  0  0  0
 26 23  1  0  0  0  0
  6  7  1  0  0  0  0
 15 14  2  0  0  0  0
 25 22  1  0  0  0  0
M  END
>  <IDNUMBER>
F3205-0064

>  <Chemical_Name>
2-({1-[3-(methoxycarbonyl)thiophen-2-yl]-2,5-dioxopyrrolidin-3-yl}sulfanyl)benzoic acid

>  <PriceCoeff>
1.00

>  <CAS>
881484-69-1

>  <MW>
391.42

>  <Description>
solid

>  <FSP3>
0.18

>  <clogP>
2.29

>  <TPSA>
154.52

>  <Acceptor>
6

>  <Donor>
0

>  <RotBonds>
6

>  <HAC>
26

>  <Collection>
General

>  <PPDS>
+

$$$$
F3205-0077
  Mrv2219 10102508112D          

 29 32  0  0  0  0            999 V2000
   -0.1211    0.6847    0.0000 N   0  0  0  0  0  0  0  0  0  0  0  0
    0.3675    0.0083    0.0000 C   0  0  0  0  0  0  0  0  0  0  0  0
    0.3675    1.3486    0.0000 C   0  0  0  0  0  0  0  0  0  0  0  0
    1.1524    0.2630    0.0000 C   0  0  0  0  0  0  0  0  0  0  0  0
    1.1524    1.0898    0.0000 C   0  0  0  0  0  0  0  0  0  0  0  0
    1.8205   -0.2171    0.0000 N   0  0  0  0  0  0  0  0  0  0  0  0
    3.1482   -1.2025    0.0000 N   0  0  0  0  0  0  0  0  0  0  0  0
   -0.9478    0.6847    0.0000 C   0  0  0  0  0  0  0  0  0  0  0  0
    0.1044   -0.7766    0.0000 O   0  0  0  0  0  0  0  0  0  0  0  0
   -3.8329    1.3987    0.0000 C   0  0  0  0  0  0  0  0  0  0  0  0
    0.1127    2.1294    0.0000 O   0  0  0  0  0  0  0  0  0  0  0  0
   -3.4196    0.6847    0.0000 S   0  0  0  0  0  0  0  0  0  0  0  0
    1.7286   -1.0439    0.0000 C   0  0  0  0  0  0  0  0  0  0  0  0
    2.5678    0.1085    0.0000 C   0  0  0  0  0  0  0  0  0  0  0  0
    3.2359   -0.3800    0.0000 C   0  0  0  0  0  0  0  0  0  0  0  0
    2.3841   -1.5324    0.0000 C   0  0  0  0  0  0  0  0  0  0  0  0
    3.8121   -1.6910    0.0000 C   0  0  0  0  0  0  0  0  0  0  0  0
   -1.3528   -0.0293    0.0000 C   0  0  0  0  0  0  0  0  0  0  0  0
   -1.3528    1.3987    0.0000 C   0  0  0  0  0  0  0  0  0  0  0  0
   -2.5929    0.6847    0.0000 C   0  0  0  0  0  0  0  0  0  0  0  0
   -3.4196    2.1169    0.0000 F   0  0  0  0  0  0  0  0  0  0  0  0
   -4.6680    1.3987    0.0000 F   0  0  0  0  0  0  0  0  0  0  0  0
   -2.1795    1.3987    0.0000 C   0  0  0  0  0  0  0  0  0  0  0  0
   -2.1795   -0.0293    0.0000 C   0  0  0  0  0  0  0  0  0  0  0  0
    3.7202   -2.5094    0.0000 C   0  0  0  0  0  0  0  0  0  0  0  0
    4.5636   -1.3570    0.0000 C   0  0  0  0  0  0  0  0  0  0  0  0
    5.2275   -1.8413    0.0000 C   0  0  0  0  0  0  0  0  0  0  0  0
    4.3883   -2.9979    0.0000 C   0  0  0  0  0  0  0  0  0  0  0  0
    5.1398   -2.6680    0.0000 C   0  0  0  0  0  0  0  0  0  0  0  0
  2  1  1  0  0  0  0
  3  1  1  0  0  0  0
  4  2  1  0  0  0  0
  5  3  1  0  0  0  0
  6  4  1  0  0  0  0
  7 15  1  0  0  0  0
  8  1  1  0  0  0  0
  9  2  2  0  0  0  0
 10 12  1  0  0  0  0
 11  3  2  0  0  0  0
 12 20  1  0  0  0  0
 13  6  1  0  0  0  0
 14  6  1  0  0  0  0
 15 14  1  0  0  0  0
 16 13  1  0  0  0  0
 17  7  1  0  0  0  0
 18  8  1  0  0  0  0
 19  8  2  0  0  0  0
 20 23  2  0  0  0  0
 21 10  1  0  0  0  0
 22 10  1  0  0  0  0
 23 19  1  0  0  0  0
 24 18  2  0  0  0  0
 25 17  2  0  0  0  0
 26 17  1  0  0  0  0
 27 26  2  0  0  0  0
 28 25  1  0  0  0  0
 29 27  1  0  0  0  0
  5  4  1  0  0  0  0
 20 24  1  0  0  0  0
  7 16  1  0  0  0  0
 29 28  2  0  0  0  0
M  END
>  <IDNUMBER>
F3205-0077

>  <Chemical_Name>
1-{4-[(difluoromethyl)sulfanyl]phenyl}-3-(4-phenylpiperazin-1-yl)pyrrolidine-2,5-dione

>  <PriceCoeff>
1.00

>  <CAS>
881484-81-7

>  <MW>
417.47

>  <Description>
solid

>  <FSP3>
0.33

>  <clogP>
4.15

>  <TPSA>
69.16

>  <Acceptor>
3

>  <Donor>
2

>  <RotBonds>
5

>  <HAC>
29

>  <Collection>
General

>  <PPDS>
+

$$$$
F3205-0078
  Mrv2219 10102508112D          

 26 28  0  0  0  0            999 V2000
    0.0667   -0.0625    0.0000 N   0  0  0  0  0  0  0  0  0  0  0  0
   -0.7583   -0.0625    0.0000 C   0  0  0  0  0  0  0  0  0  0  0  0
   -1.2458    0.6083    0.0000 C   0  0  0  0  0  0  0  0  0  0  0  0
    0.5500    0.6083    0.0000 C   0  0  0  0  0  0  0  0  0  0  0  0
    0.5500   -0.7292    0.0000 C   0  0  0  0  0  0  0  0  0  0  0  0
    1.3375   -0.4792    0.0000 C   0  0  0  0  0  0  0  0  0  0  0  0
    1.3375    0.3458    0.0000 C   0  0  0  0  0  0  0  0  0  0  0  0
    2.7542   -0.4750    0.0000 C   0  0  0  0  0  0  0  0  0  0  0  0
    3.4667   -0.8875    0.0000 C   0  0  0  0  0  0  0  0  0  0  0  0
    2.0417   -0.8875    0.0000 S   0  0  0  0  0  0  0  0  0  0  0  0
   -0.9958    1.3958    0.0000 C   0  0  0  0  0  0  0  0  0  0  0  0
   -1.2458   -0.7292    0.0000 S   0  0  0  0  0  0  0  0  0  0  0  0
    3.4667   -1.7125    0.0000 C   0  0  0  0  0  0  0  0  0  0  0  0
   -2.0333    0.3500    0.0000 C   0  0  0  0  0  0  0  0  0  0  0  0
    2.7542    0.3458    0.0000 N   0  0  0  0  0  0  0  0  0  0  0  0
   -2.0333   -0.4750    0.0000 C   0  0  0  0  0  0  0  0  0  0  0  0
    0.2917    1.3875    0.0000 O   0  0  0  0  0  0  0  0  0  0  0  0
    0.2917   -1.5167    0.0000 O   0  0  0  0  0  0  0  0  0  0  0  0
   -0.1833    1.5625    0.0000 O   0  0  0  0  0  0  0  0  0  0  0  0
    4.1792   -2.1250    0.0000 O   0  0  0  0  0  0  0  0  0  0  0  0
    2.7542   -2.1250    0.0000 O   0  0  0  0  0  0  0  0  0  0  0  0
   -1.5458    2.0083    0.0000 O   0  0  0  0  0  0  0  0  0  0  0  0
    4.1792   -0.4750    0.0000 C   0  0  0  0  0  0  0  0  0  0  0  0
    3.4667    0.7583    0.0000 C   0  0  0  0  0  0  0  0  0  0  0  0
   -1.2875    2.7875    0.0000 C   0  0  0  0  0  0  0  0  0  0  0  0
    4.1792    0.3500    0.0000 C   0  0  0  0  0  0  0  0  0  0  0  0
  2  1  1  0  0  0  0
  3  2  2  0  0  0  0
  4  1  1  0  0  0  0
  5  1  1  0  0  0  0
  6  5  1  0  0  0  0
  7  4  1  0  0  0  0
  8 10  1  0  0  0  0
  9  8  1  0  0  0  0
 10  6  1  0  0  0  0
 11  3  1  0  0  0  0
 12  2  1  0  0  0  0
 13  9  1  0  0  0  0
 14  3  1  0  0  0  0
 15  8  2  0  0  0  0
 16 12  1  0  0  0  0
 17  4  2  0  0  0  0
 18  5  2  0  0  0  0
 19 11  2  0  0  0  0
 20 13  2  0  0  0  0
 21 13  1  0  0  0  0
 22 11  1  0  0  0  0
 23  9  2  0  0  0  0
 24 15  1  0  0  0  0
 25 22  1  0  0  0  0
 26 24  2  0  0  0  0
  7  6  1  0  0  0  0
 16 14  2  0  0  0  0
 26 23  1  0  0  0  0
M  END
>  <IDNUMBER>
F3205-0078

>  <Chemical_Name>
2-({1-[3-(methoxycarbonyl)thiophen-2-yl]-2,5-dioxopyrrolidin-3-yl}sulfanyl)pyridine-3-carboxylic acid

>  <PriceCoeff>
1.00

>  <CAS>
881484-85-1

>  <MW>
392.41

>  <Description>
solid

>  <FSP3>
0.19

>  <clogP>
1.73

>  <TPSA>
167.41

>  <Acceptor>
7

>  <Donor>
1

>  <RotBonds>
6

>  <HAC>
26

>  <Collection>
General

>  <PPDS>
+

$$$$
F3205-0085
  Mrv2219 10102508112D          

 23 25  0  0  0  0            999 V2000
   -0.2740    0.1079    0.0000 N   0  0  0  0  0  0  0  0  0  0  0  0
    0.2159    0.7679    0.0000 C   0  0  0  0  0  0  0  0  0  0  0  0
    0.2034   -0.5646    0.0000 C   0  0  0  0  0  0  0  0  0  0  0  0
    0.9962   -0.3155    0.0000 C   0  0  0  0  0  0  0  0  0  0  0  0
    1.0004    0.5064    0.0000 C   0  0  0  0  0  0  0  0  0  0  0  0
    1.7061   -0.7389    0.0000 N   0  0  0  0  0  0  0  0  0  0  0  0
   -0.0332    1.5525    0.0000 O   0  0  0  0  0  0  0  0  0  0  0  0
   -0.0581   -1.3491    0.0000 O   0  0  0  0  0  0  0  0  0  0  0  0
   -1.0959    0.1121    0.0000 C   0  0  0  0  0  0  0  0  0  0  0  0
    3.8397    0.4981    0.0000 C   0  0  0  0  0  0  0  0  0  0  0  0
    4.5496    0.9173    0.0000 N   0  0  0  0  0  0  0  0  0  0  0  0
    2.4201   -0.3280    0.0000 C   0  0  0  0  0  0  0  0  0  0  0  0
    3.1299    0.9091    0.0000 C   0  0  0  0  0  0  0  0  0  0  0  0
    3.8397   -0.3280    0.0000 C   0  0  0  0  0  0  0  0  0  0  0  0
    3.1299   -0.7389    0.0000 C   0  0  0  0  0  0  0  0  0  0  0  0
    2.4201    0.4981    0.0000 C   0  0  0  0  0  0  0  0  0  0  0  0
    5.2677    0.5064    0.0000 C   0  0  0  0  0  0  0  0  0  0  0  0
    4.5496    1.7393    0.0000 C   0  0  0  0  0  0  0  0  0  0  0  0
   -1.5026    0.8302    0.0000 C   0  0  0  0  0  0  0  0  0  0  0  0
   -1.5151   -0.5895    0.0000 C   0  0  0  0  0  0  0  0  0  0  0  0
   -2.3412   -0.5853    0.0000 C   0  0  0  0  0  0  0  0  0  0  0  0
   -2.3245    0.8426    0.0000 C   0  0  0  0  0  0  0  0  0  0  0  0
   -2.7480    0.1328    0.0000 C   0  0  0  0  0  0  0  0  0  0  0  0
  2  1  1  0  0  0  0
  3  1  1  0  0  0  0
  4  3  1  0  0  0  0
  5  2  1  0  0  0  0
  6  4  1  0  0  0  0
  7  2  2  0  0  0  0
  8  3  2  0  0  0  0
  9  1  1  0  0  0  0
 10 13  2  0  0  0  0
 11 10  1  0  0  0  0
 12  6  1  0  0  0  0
 13 16  1  0  0  0  0
 14 15  2  0  0  0  0
 15 12  1  0  0  0  0
 16 12  2  0  0  0  0
 17 11  1  0  0  0  0
 18 11  1  0  0  0  0
 19  9  1  0  0  0  0
 20  9  1  0  0  0  0
 21 20  1  0  0  0  0
 22 19  1  0  0  0  0
 23 21  1  0  0  0  0
  5  4  1  0  0  0  0
 23 22  1  0  0  0  0
 10 14  1  0  0  0  0
M  END
>  <IDNUMBER>
F3205-0085

>  <Chemical_Name>
1-cyclohexyl-3-{[4-(dimethylamino)phenyl]amino}pyrrolidine-2,5-dione

>  <PriceCoeff>
1.00

>  <CAS>
1025032-07-8

>  <MW>
315.41

>  <Description>
solid

>  <FSP3>
0.56

>  <clogP>
3.76

>  <TPSA>
52.65

>  <Acceptor>
4

>  <Donor>
2

>  <RotBonds>
4

>  <HAC>
23

>  <Collection>
General

>  <PPDS>
+

$$$$
F3205-0092
  Mrv2219 10102508112D          

 22 23  0  0  0  0            999 V2000
    0.0749   -0.3287    0.0000 N   0  0  0  0  0  0  0  0  0  0  0  0
    0.5534   -1.0027    0.0000 C   0  0  0  0  0  0  0  0  0  0  0  0
    0.5659    0.3328    0.0000 C   0  0  0  0  0  0  0  0  0  0  0  0
    1.3397   -0.7531    0.0000 C   0  0  0  0  0  0  0  0  0  0  0  0
    1.3522    0.0707    0.0000 C   0  0  0  0  0  0  0  0  0  0  0  0
    2.0511   -1.1733    0.0000 N   0  0  0  0  0  0  0  0  0  0  0  0
    0.2913   -1.7848    0.0000 O   0  0  0  0  0  0  0  0  0  0  0  0
    0.3162    1.1191    0.0000 O   0  0  0  0  0  0  0  0  0  0  0  0
    4.1979    0.0707    0.0000 C   0  0  0  0  0  0  0  0  0  0  0  0
    4.9094    0.4826    0.0000 N   0  0  0  0  0  0  0  0  0  0  0  0
   -0.7489   -0.3245    0.0000 C   0  0  0  0  0  0  0  0  0  0  0  0
    2.7709   -0.7614    0.0000 C   0  0  0  0  0  0  0  0  0  0  0  0
    3.4823    0.4826    0.0000 C   0  0  0  0  0  0  0  0  0  0  0  0
    4.1979   -0.7614    0.0000 C   0  0  0  0  0  0  0  0  0  0  0  0
    3.4823   -1.1733    0.0000 C   0  0  0  0  0  0  0  0  0  0  0  0
    2.7751    0.0707    0.0000 C   0  0  0  0  0  0  0  0  0  0  0  0
   -1.1566    0.3952    0.0000 C   0  0  0  0  0  0  0  0  0  0  0  0
   -2.3798    1.1191    0.0000 O   0  0  0  0  0  0  0  0  0  0  0  0
    5.6208    0.0749    0.0000 C   0  0  0  0  0  0  0  0  0  0  0  0
    4.9052    1.3064    0.0000 C   0  0  0  0  0  0  0  0  0  0  0  0
   -1.9803    0.4077    0.0000 C   0  0  0  0  0  0  0  0  0  0  0  0
   -3.2035    1.1316    0.0000 C   0  0  0  0  0  0  0  0  0  0  0  0
  2  1  1  0  0  0  0
  3  1  1  0  0  0  0
  4  2  1  0  0  0  0
  5  3  1  0  0  0  0
  6  4  1  0  0  0  0
  7  2  2  0  0  0  0
  8  3  2  0  0  0  0
  9 13  2  0  0  0  0
 10  9  1  0  0  0  0
 11  1  1  0  0  0  0
 12  6  1  0  0  0  0
 13 16  1  0  0  0  0
 14 15  2  0  0  0  0
 15 12  1  0  0  0  0
 16 12  2  0  0  0  0
 17 11  1  0  0  0  0
 18 21  1  0  0  0  0
 19 10  1  0  0  0  0
 20 10  1  0  0  0  0
 21 17  1  0  0  0  0
 22 18  1  0  0  0  0
  5  4  1  0  0  0  0
  9 14  1  0  0  0  0
M  END
>  <IDNUMBER>
F3205-0092

>  <Chemical_Name>
3-{[4-(dimethylamino)phenyl]amino}-1-(3-methoxypropyl)pyrrolidine-2,5-dione

>  <PriceCoeff>
1.00

>  <CAS>
1009697-83-9

>  <MW>
305.37

>  <Description>
solid

>  <FSP3>
0.50

>  <clogP>
2.26

>  <TPSA>
61.88

>  <Acceptor>
5

>  <Donor>
2

>  <RotBonds>
7

>  <HAC>
22

>  <Collection>
General

>  <PPDS>
+

$$$$
F3205-0093
  Mrv2219 10102508112D          

 27 29  0  0  0  0            999 V2000
    2.3625    0.6208    0.0000 N   0  0  0  0  0  0  0  0  0  0  0  0
    2.8542    1.2875    0.0000 C   0  0  0  0  0  0  0  0  0  0  0  0
    2.8417   -0.0542    0.0000 C   0  0  0  0  0  0  0  0  0  0  0  0
    3.6375    0.1958    0.0000 C   0  0  0  0  0  0  0  0  0  0  0  0
    3.6417    1.0250    0.0000 C   0  0  0  0  0  0  0  0  0  0  0  0
    5.7792   -0.2167    0.0000 C   0  0  0  0  0  0  0  0  0  0  0  0
    4.3500   -0.2167    0.0000 S   0  0  0  0  0  0  0  0  0  0  0  0
    5.0667    0.1875    0.0000 C   0  0  0  0  0  0  0  0  0  0  0  0
    5.7792   -1.0500    0.0000 C   0  0  0  0  0  0  0  0  0  0  0  0
    1.5375    0.6333    0.0000 C   0  0  0  0  0  0  0  0  0  0  0  0
    2.6042    2.0833    0.0000 O   0  0  0  0  0  0  0  0  0  0  0  0
    2.5792   -0.8375    0.0000 O   0  0  0  0  0  0  0  0  0  0  0  0
   -0.1083    0.6458    0.0000 C   0  0  0  0  0  0  0  0  0  0  0  0
   -0.9333    0.6500    0.0000 N   0  0  0  0  0  0  0  0  0  0  0  0
    5.0667   -1.4625    0.0000 O   0  0  0  0  0  0  0  0  0  0  0  0
    1.1250   -0.0792    0.0000 C   0  0  0  0  0  0  0  0  0  0  0  0
    1.1292    1.3500    0.0000 C   0  0  0  0  0  0  0  0  0  0  0  0
    0.3125    1.3583    0.0000 C   0  0  0  0  0  0  0  0  0  0  0  0
    0.3000   -0.0750    0.0000 C   0  0  0  0  0  0  0  0  0  0  0  0
    6.4917   -1.4625    0.0000 O   0  0  0  0  0  0  0  0  0  0  0  0
    6.4917    0.1875    0.0000 C   0  0  0  0  0  0  0  0  0  0  0  0
    5.0667    1.0208    0.0000 C   0  0  0  0  0  0  0  0  0  0  0  0
   -1.3583   -0.0542    0.0000 C   0  0  0  0  0  0  0  0  0  0  0  0
   -1.3458    1.3708    0.0000 C   0  0  0  0  0  0  0  0  0  0  0  0
    6.4917   -2.2875    0.0000 C   0  0  0  0  0  0  0  0  0  0  0  0
    6.4917    1.0208    0.0000 C   0  0  0  0  0  0  0  0  0  0  0  0
    5.7792    1.4333    0.0000 C   0  0  0  0  0  0  0  0  0  0  0  0
  2  1  1  0  0  0  0
  3  1  1  0  0  0  0
  4  3  1  0  0  0  0
  5  2  1  0  0  0  0
  6  8  1  0  0  0  0
  7  4  1  0  0  0  0
  8  7  1  0  0  0  0
  9  6  1  0  0  0  0
 10  1  1  0  0  0  0
 11  2  2  0  0  0  0
 12  3  2  0  0  0  0
 13 18  2  0  0  0  0
 14 13  1  0  0  0  0
 15  9  2  0  0  0  0
 16 10  1  0  0  0  0
 17 10  2  0  0  0  0
 18 17  1  0  0  0  0
 19 16  2  0  0  0  0
 20  9  1  0  0  0  0
 21  6  2  0  0  0  0
 22  8  2  0  0  0  0
 23 14  1  0  0  0  0
 24 14  1  0  0  0  0
 25 20  1  0  0  0  0
 26 27  2  0  0  0  0
 27 22  1  0  0  0  0
  5  4  1  0  0  0  0
 13 19  1  0  0  0  0
 26 21  1  0  0  0  0
M  END
>  <IDNUMBER>
F3205-0093

>  <Chemical_Name>
methyl 2-({1-[4-(dimethylamino)phenyl]-2,5-dioxopyrrolidin-3-yl}sulfanyl)benzoate

>  <PriceCoeff>
1.00

>  <CAS>
881485-09-2

>  <MW>
384.45

>  <Description>
solid

>  <FSP3>
0.25

>  <clogP>
3.20

>  <TPSA>
92.22

>  <Acceptor>
5

>  <Donor>
1

>  <RotBonds>
6

>  <HAC>
27

>  <Collection>
General

>  <PPDS>
+

$$$$
F3205-0099
  Mrv2219 10102508112D          

 25 27  0  0  0  0            999 V2000
    1.6702   -0.1169    0.0000 N   0  0  0  0  0  0  0  0  0  0  0  0
    2.1587    0.5469    0.0000 C   0  0  0  0  0  0  0  0  0  0  0  0
    2.1587   -0.7891    0.0000 C   0  0  0  0  0  0  0  0  0  0  0  0
    2.9353   -0.5386    0.0000 C   0  0  0  0  0  0  0  0  0  0  0  0
    2.9436    0.2964    0.0000 C   0  0  0  0  0  0  0  0  0  0  0  0
    3.6492   -0.9437    0.0000 N   0  0  0  0  0  0  0  0  0  0  0  0
    0.8434   -0.1169    0.0000 C   0  0  0  0  0  0  0  0  0  0  0  0
    1.9039    1.3361    0.0000 O   0  0  0  0  0  0  0  0  0  0  0  0
    1.8956   -1.5783    0.0000 O   0  0  0  0  0  0  0  0  0  0  0  0
    5.7995    0.2881    0.0000 C   0  0  0  0  0  0  0  0  0  0  0  0
    6.5135    0.7098    0.0000 N   0  0  0  0  0  0  0  0  0  0  0  0
    0.4301   -0.8309    0.0000 C   0  0  0  0  0  0  0  0  0  0  0  0
    0.4301    0.5970    0.0000 C   0  0  0  0  0  0  0  0  0  0  0  0
    4.3715   -0.5386    0.0000 C   0  0  0  0  0  0  0  0  0  0  0  0
    5.0855    0.7015    0.0000 C   0  0  0  0  0  0  0  0  0  0  0  0
    5.7995   -0.5386    0.0000 C   0  0  0  0  0  0  0  0  0  0  0  0
    4.3715    0.2881    0.0000 C   0  0  0  0  0  0  0  0  0  0  0  0
    5.0855   -0.9520    0.0000 C   0  0  0  0  0  0  0  0  0  0  0  0
   -0.3966    0.5970    0.0000 C   0  0  0  0  0  0  0  0  0  0  0  0
   -0.3966   -0.8309    0.0000 C   0  0  0  0  0  0  0  0  0  0  0  0
   -0.8100   -0.1169    0.0000 C   0  0  0  0  0  0  0  0  0  0  0  0
    7.2317    0.2964    0.0000 C   0  0  0  0  0  0  0  0  0  0  0  0
    6.5135    1.5365    0.0000 C   0  0  0  0  0  0  0  0  0  0  0  0
   -1.6367   -0.1169    0.0000 C   0  0  0  0  0  0  0  0  0  0  0  0
   -2.0500    0.5970    0.0000 C   0  0  0  0  0  0  0  0  0  0  0  0
  2  1  1  0  0  0  0
  3  1  1  0  0  0  0
  4  3  1  0  0  0  0
  5  2  1  0  0  0  0
  6  4  1  0  0  0  0
  7  1  1  0  0  0  0
  8  2  2  0  0  0  0
  9  3  2  0  0  0  0
 10 16  1  0  0  0  0
 11 10  1  0  0  0  0
 12  7  1  0  0  0  0
 13  7  2  0  0  0  0
 14  6  1  0  0  0  0
 15 17  1  0  0  0  0
 16 18  2  0  0  0  0
 17 14  2  0  0  0  0
 18 14  1  0  0  0  0
 19 13  1  0  0  0  0
 20 12  2  0  0  0  0
 21 19  2  0  0  0  0
 22 11  1  0  0  0  0
 23 11  1  0  0  0  0
 24 21  1  0  0  0  0
 25 24  1  0  0  0  0
  4  5  1  0  0  0  0
 21 20  1  0  0  0  0
 15 10  2  0  0  0  0
M  END
>  <IDNUMBER>
F3205-0099

>  <Chemical_Name>
3-{[4-(dimethylamino)phenyl]amino}-1-(4-ethylphenyl)pyrrolidine-2,5-dione

>  <PriceCoeff>
1.00

>  <CAS>
1009338-81-1

>  <MW>
337.42

>  <Description>
solid

>  <FSP3>
0.30

>  <clogP>
3.68

>  <TPSA>
52.65

>  <Acceptor>
4

>  <Donor>
2

>  <RotBonds>
5

>  <HAC>
25

>  <Collection>
General

>  <PPDS>
+

$$$$
F3205-0101
  Mrv2219 10102508112D          

 26 29  0  0  0  0            999 V2000
    1.4572    0.5261    0.0000 N   0  0  0  0  0  0  0  0  0  0  0  0
    1.9457    1.1983    0.0000 C   0  0  0  0  0  0  0  0  0  0  0  0
    1.9415   -0.1420    0.0000 C   0  0  0  0  0  0  0  0  0  0  0  0
    2.7223    0.1085    0.0000 C   0  0  0  0  0  0  0  0  0  0  0  0
    2.7306    0.9394    0.0000 C   0  0  0  0  0  0  0  0  0  0  0  0
    3.4363   -0.3048    0.0000 N   0  0  0  0  0  0  0  0  0  0  0  0
    0.6305    0.5261    0.0000 C   0  0  0  0  0  0  0  0  0  0  0  0
    5.5866    0.1085    0.0000 C   0  0  0  0  0  0  0  0  0  0  0  0
    4.8726   -0.3048    0.0000 C   0  0  0  0  0  0  0  0  0  0  0  0
    1.6827    1.9874    0.0000 O   0  0  0  0  0  0  0  0  0  0  0  0
    5.5866    0.9352    0.0000 C   0  0  0  0  0  0  0  0  0  0  0  0
    6.3674   -0.1503    0.0000 O   0  0  0  0  0  0  0  0  0  0  0  0
    4.1586    0.1085    0.0000 C   0  0  0  0  0  0  0  0  0  0  0  0
    1.6827   -0.9269    0.0000 O   0  0  0  0  0  0  0  0  0  0  0  0
    6.3757    1.1858    0.0000 O   0  0  0  0  0  0  0  0  0  0  0  0
   -1.0021    0.5344    0.0000 C   0  0  0  0  0  0  0  0  0  0  0  0
    6.8559    0.5219    0.0000 C   0  0  0  0  0  0  0  0  0  0  0  0
   -1.8288    0.5386    0.0000 N   0  0  0  0  0  0  0  0  0  0  0  0
    0.2171   -0.1796    0.0000 C   0  0  0  0  0  0  0  0  0  0  0  0
    0.2171    1.2401    0.0000 C   0  0  0  0  0  0  0  0  0  0  0  0
   -0.5970   -0.1796    0.0000 C   0  0  0  0  0  0  0  0  0  0  0  0
   -0.5970    1.2401    0.0000 C   0  0  0  0  0  0  0  0  0  0  0  0
    4.8768    1.3486    0.0000 C   0  0  0  0  0  0  0  0  0  0  0  0
    4.1628    0.9352    0.0000 C   0  0  0  0  0  0  0  0  0  0  0  0
   -2.2505   -0.1796    0.0000 C   0  0  0  0  0  0  0  0  0  0  0  0
   -2.2421    1.2526    0.0000 C   0  0  0  0  0  0  0  0  0  0  0  0
  2  1  1  0  0  0  0
  3  1  1  0  0  0  0
  4  3  1  0  0  0  0
  5  2  1  0  0  0  0
  6  4  1  0  0  0  0
  7  1  1  0  0  0  0
  8  9  2  0  0  0  0
  9 13  1  0  0  0  0
 10  2  2  0  0  0  0
 11 23  2  0  0  0  0
 12  8  1  0  0  0  0
 13  6  1  0  0  0  0
 14  3  2  0  0  0  0
 15 11  1  0  0  0  0
 16 22  1  0  0  0  0
 17 12  1  0  0  0  0
 18 16  1  0  0  0  0
 19  7  2  0  0  0  0
 20  7  1  0  0  0  0
 21 19  1  0  0  0  0
 22 20  2  0  0  0  0
 23 24  1  0  0  0  0
 24 13  2  0  0  0  0
 25 18  1  0  0  0  0
 26 18  1  0  0  0  0
  4  5  1  0  0  0  0
 21 16  2  0  0  0  0
 11  8  1  0  0  0  0
 15 17  1  0  0  0  0
M  END
>  <IDNUMBER>
F3205-0101

>  <Chemical_Name>
3-[(2H-1,3-benzodioxol-5-yl)amino]-1-[4-(dimethylamino)phenyl]pyrrolidine-2,5-dione

>  <PriceCoeff>
1.00

>  <CAS>
1008077-20-0

>  <MW>
353.37

>  <Description>
solid

>  <FSP3>
0.26

>  <clogP>
2.75

>  <TPSA>
71.11

>  <Acceptor>
6

>  <Donor>
2

>  <RotBonds>
4

>  <HAC>
26

>  <Collection>
General

>  <PPDS>
+

$$$$
F3205-0102
  Mrv2219 10102508112D          

 24 26  0  0  0  0            999 V2000
   -0.5712    1.6262    0.0000 N   0  0  0  0  0  0  0  0  0  0  0  0
   -0.1584    0.9132    0.0000 C   0  0  0  0  0  0  0  0  0  0  0  0
   -0.0208    2.2350    0.0000 C   0  0  0  0  0  0  0  0  0  0  0  0
    0.6422    1.0841    0.0000 C   0  0  0  0  0  0  0  0  0  0  0  0
    0.7298    1.8972    0.0000 C   0  0  0  0  0  0  0  0  0  0  0  0
    1.2552    0.5254    0.0000 N   0  0  0  0  0  0  0  0  0  0  0  0
    2.4769   -0.5879    0.0000 N   0  0  0  0  0  0  0  0  0  0  0  0
   -1.3886    1.7138    0.0000 C   0  0  0  0  0  0  0  0  0  0  0  0
    3.0815   -1.1426    0.0000 C   0  0  0  0  0  0  0  0  0  0  0  0
   -0.4962    0.1584    0.0000 O   0  0  0  0  0  0  0  0  0  0  0  0
   -0.1834    3.0481    0.0000 O   0  0  0  0  0  0  0  0  0  0  0  0
    1.0800   -0.2794    0.0000 C   0  0  0  0  0  0  0  0  0  0  0  0
    2.0391    0.7756    0.0000 C   0  0  0  0  0  0  0  0  0  0  0  0
    2.6520    0.2210    0.0000 C   0  0  0  0  0  0  0  0  0  0  0  0
    1.6888   -0.8381    0.0000 C   0  0  0  0  0  0  0  0  0  0  0  0
    3.8654   -0.8924    0.0000 C   0  0  0  0  0  0  0  0  0  0  0  0
    2.9022   -1.9515    0.0000 C   0  0  0  0  0  0  0  0  0  0  0  0
    4.2950   -2.2559    0.0000 C   0  0  0  0  0  0  0  0  0  0  0  0
    3.5069   -2.5061    0.0000 C   0  0  0  0  0  0  0  0  0  0  0  0
    4.4701   -1.4428    0.0000 C   0  0  0  0  0  0  0  0  0  0  0  0
    4.9079   -2.8146    0.0000 F   0  0  0  0  0  0  0  0  0  0  0  0
   -1.8764    1.0466    0.0000 C   0  0  0  0  0  0  0  0  0  0  0  0
   -2.6979    1.1342    0.0000 C   0  0  0  0  0  0  0  0  0  0  0  0
   -1.5470    0.2960    0.0000 C   0  0  0  0  0  0  0  0  0  0  0  0
  2  1  1  0  0  0  0
  3  1  1  0  0  0  0
  4  2  1  0  0  0  0
  5  3  1  0  0  0  0
  6  4  1  0  0  0  0
  7 14  1  0  0  0  0
  8  1  1  0  0  0  0
  9  7  1  0  0  0  0
 10  2  2  0  0  0  0
 11  3  2  0  0  0  0
 12  6  1  0  0  0  0
 13  6  1  0  0  0  0
 14 13  1  0  0  0  0
 15 12  1  0  0  0  0
 16  9  1  0  0  0  0
 17  9  2  0  0  0  0
 18 19  2  0  0  0  0
 19 17  1  0  0  0  0
 20 16  2  0  0  0  0
 21 18  1  0  0  0  0
 22  8  1  0  0  0  0
 23 22  1  0  0  0  0
 24 22  1  0  0  0  0
  5  4  1  0  0  0  0
  7 15  1  0  0  0  0
 18 20  1  0  0  0  0
M  END
>  <IDNUMBER>
F3205-0102

>  <Chemical_Name>
3-[4-(4-fluorophenyl)piperazin-1-yl]-1-(2-methylpropyl)pyrrolidine-2,5-dione

>  <PriceCoeff>
1.00

>  <CAS>
881485-25-2

>  <MW>
333.40

>  <Description>
solid

>  <FSP3>
0.56

>  <clogP>
4.12

>  <TPSA>
43.86

>  <Acceptor>
3

>  <Donor>
2

>  <RotBonds>
4

>  <HAC>
24

>  <Collection>
General

>  <PPDS>
+

$$$$
F3205-0103
  Mrv2219 10102508112D          

 24 27  0  0  0  0            999 V2000
    0.9575    0.7483    0.0000 N   0  0  0  0  0  0  0  0  0  0  0  0
    1.4467    1.4131    0.0000 C   0  0  0  0  0  0  0  0  0  0  0  0
    1.4424    0.0753    0.0000 C   0  0  0  0  0  0  0  0  0  0  0  0
    2.2243    0.3261    0.0000 C   0  0  0  0  0  0  0  0  0  0  0  0
    2.2326    1.1623    0.0000 C   0  0  0  0  0  0  0  0  0  0  0  0
    2.9393   -0.0878    0.0000 N   0  0  0  0  0  0  0  0  0  0  0  0
    0.1296    0.7483    0.0000 C   0  0  0  0  0  0  0  0  0  0  0  0
    5.0924    0.3261    0.0000 C   0  0  0  0  0  0  0  0  0  0  0  0
    4.3775   -0.0920    0.0000 C   0  0  0  0  0  0  0  0  0  0  0  0
    1.1833    2.2033    0.0000 O   0  0  0  0  0  0  0  0  0  0  0  0
    5.0924    1.1623    0.0000 C   0  0  0  0  0  0  0  0  0  0  0  0
    5.8827    0.0710    0.0000 O   0  0  0  0  0  0  0  0  0  0  0  0
    3.6625    0.3261    0.0000 C   0  0  0  0  0  0  0  0  0  0  0  0
    1.1833   -0.7066    0.0000 O   0  0  0  0  0  0  0  0  0  0  0  0
    5.8869    1.4131    0.0000 O   0  0  0  0  0  0  0  0  0  0  0  0
    6.3718    0.7400    0.0000 C   0  0  0  0  0  0  0  0  0  0  0  0
   -0.2843    1.4633    0.0000 C   0  0  0  0  0  0  0  0  0  0  0  0
   -0.2843    0.0376    0.0000 C   0  0  0  0  0  0  0  0  0  0  0  0
    4.3817    1.5637    0.0000 C   0  0  0  0  0  0  0  0  0  0  0  0
    3.6667    1.1540    0.0000 C   0  0  0  0  0  0  0  0  0  0  0  0
   -1.5052    0.7525    0.0000 C   0  0  0  0  0  0  0  0  0  0  0  0
   -1.0996    1.4633    0.0000 C   0  0  0  0  0  0  0  0  0  0  0  0
   -1.0996    0.0376    0.0000 C   0  0  0  0  0  0  0  0  0  0  0  0
   -2.3329    0.7609    0.0000 O   0  0  0  0  0  0  0  0  0  0  0  0
  2  1  1  0  0  0  0
  3  1  1  0  0  0  0
  4  3  1  0  0  0  0
  5  2  1  0  0  0  0
  6  4  1  0  0  0  0
  7  1  1  0  0  0  0
  8  9  2  0  0  0  0
  9 13  1  0  0  0  0
 10  2  2  0  0  0  0
 11 19  2  0  0  0  0
 12  8  1  0  0  0  0
 13  6  1  0  0  0  0
 14  3  2  0  0  0  0
 15 11  1  0  0  0  0
 16 12  1  0  0  0  0
 17  7  1  0  0  0  0
 18  7  2  0  0  0  0
 19 20  1  0  0  0  0
 20 13  2  0  0  0  0
 21 23  2  0  0  0  0
 22 17  2  0  0  0  0
 23 18  1  0  0  0  0
 24 21  1  0  0  0  0
  4  5  1  0  0  0  0
 21 22  1  0  0  0  0
 11  8  1  0  0  0  0
 15 16  1  0  0  0  0
M  END
>  <IDNUMBER>
F3205-0103

>  <Chemical_Name>
3-[(2H-1,3-benzodioxol-5-yl)amino]-1-(4-hydroxyphenyl)pyrrolidine-2,5-dione

>  <PriceCoeff>
1.00

>  <CAS>
1008248-12-1

>  <MW>
326.30

>  <Description>
solid

>  <FSP3>
0.18

>  <clogP>
1.91

>  <TPSA>
88.10

>  <Acceptor>
6

>  <Donor>
2

>  <RotBonds>
3

>  <HAC>
24

>  <Collection>
General

>  <PPDS>
+

$$$$
F3205-0104
  Mrv2219 10102508112D          

 27 29  0  0  0  0            999 V2000
    1.5644   -0.0541    0.0000 N   0  0  0  0  0  0  0  0  0  0  0  0
    0.7406   -0.0499    0.0000 C   0  0  0  0  0  0  0  0  0  0  0  0
    0.2538    0.6199    0.0000 C   0  0  0  0  0  0  0  0  0  0  0  0
    2.0511    0.6074    0.0000 C   0  0  0  0  0  0  0  0  0  0  0  0
    2.0387   -0.7281    0.0000 C   0  0  0  0  0  0  0  0  0  0  0  0
    2.8250   -0.4785    0.0000 C   0  0  0  0  0  0  0  0  0  0  0  0
    2.8333    0.3453    0.0000 C   0  0  0  0  0  0  0  0  0  0  0  0
    4.9676   -0.9111    0.0000 C   0  0  0  0  0  0  0  0  0  0  0  0
    3.5364   -0.8987    0.0000 S   0  0  0  0  0  0  0  0  0  0  0  0
    0.5159    1.4062    0.0000 C   0  0  0  0  0  0  0  0  0  0  0  0
    0.2496   -0.7156    0.0000 S   0  0  0  0  0  0  0  0  0  0  0  0
    4.2562   -0.4910    0.0000 C   0  0  0  0  0  0  0  0  0  0  0  0
    4.9593   -1.7349    0.0000 C   0  0  0  0  0  0  0  0  0  0  0  0
   -0.5325    0.3702    0.0000 C   0  0  0  0  0  0  0  0  0  0  0  0
   -0.5325   -0.4535    0.0000 C   0  0  0  0  0  0  0  0  0  0  0  0
    1.8015    1.3937    0.0000 O   0  0  0  0  0  0  0  0  0  0  0  0
    1.7848   -1.5102    0.0000 O   0  0  0  0  0  0  0  0  0  0  0  0
    1.3230    1.5685    0.0000 O   0  0  0  0  0  0  0  0  0  0  0  0
    4.2437   -2.1385    0.0000 O   0  0  0  0  0  0  0  0  0  0  0  0
   -0.0333    2.0178    0.0000 O   0  0  0  0  0  0  0  0  0  0  0  0
    5.6666   -2.1510    0.0000 O   0  0  0  0  0  0  0  0  0  0  0  0
    5.6832   -0.5034    0.0000 C   0  0  0  0  0  0  0  0  0  0  0  0
    4.2603    0.3370    0.0000 C   0  0  0  0  0  0  0  0  0  0  0  0
    0.2289    2.7958    0.0000 C   0  0  0  0  0  0  0  0  0  0  0  0
    5.6583   -2.9748    0.0000 C   0  0  0  0  0  0  0  0  0  0  0  0
    5.6915    0.3245    0.0000 C   0  0  0  0  0  0  0  0  0  0  0  0
    4.9801    0.7447    0.0000 C   0  0  0  0  0  0  0  0  0  0  0  0
  2  1  1  0  0  0  0
  3  2  2  0  0  0  0
  4  1  1  0  0  0  0
  5  1  1  0  0  0  0
  6  5  1  0  0  0  0
  7  4  1  0  0  0  0
  8 12  1  0  0  0  0
  9  6  1  0  0  0  0
 10  3  1  0  0  0  0
 11  2  1  0  0  0  0
 12  9  1  0  0  0  0
 13  8  1  0  0  0  0
 14  3  1  0  0  0  0
 15 11  1  0  0  0  0
 16  4  2  0  0  0  0
 17  5  2  0  0  0  0
 18 10  2  0  0  0  0
 19 13  2  0  0  0  0
 20 10  1  0  0  0  0
 21 13  1  0  0  0  0
 22  8  2  0  0  0  0
 23 12  2  0  0  0  0
 24 20  1  0  0  0  0
 25 21  1  0  0  0  0
 26 27  2  0  0  0  0
 27 23  1  0  0  0  0
  6  7  1  0  0  0  0
 15 14  2  0  0  0  0
 26 22  1  0  0  0  0
M  END
>  <IDNUMBER>
F3205-0104

>  <Chemical_Name>
methyl 2-(3-{[2-(methoxycarbonyl)phenyl]sulfanyl}-2,5-dioxopyrrolidin-1-yl)thiophene-3-carboxylate

>  <PriceCoeff>
1.00

>  <CAS>
881485-29-6

>  <MW>
405.44

>  <Description>
solid

>  <FSP3>
0.22

>  <clogP>
3.25

>  <TPSA>
143.52

>  <Acceptor>
6

>  <Donor>
0

>  <RotBonds>
7

>  <HAC>
27

>  <Collection>
General

>  <PPDS>
+

$$$$
F3205-0105
  Mrv2219 10102508112D          

 28 30  0  0  0  0            999 V2000
    0.5553    1.1231    0.0000 N   0  0  0  0  0  0  0  0  0  0  0  0
    1.0397    1.7870    0.0000 C   0  0  0  0  0  0  0  0  0  0  0  0
    1.0313    0.4509    0.0000 C   0  0  0  0  0  0  0  0  0  0  0  0
    1.8205    0.7015    0.0000 C   0  0  0  0  0  0  0  0  0  0  0  0
    1.8205    1.5365    0.0000 C   0  0  0  0  0  0  0  0  0  0  0  0
    3.9624    0.2839    0.0000 C   0  0  0  0  0  0  0  0  0  0  0  0
    2.5344    0.2881    0.0000 S   0  0  0  0  0  0  0  0  0  0  0  0
    3.2484    0.7015    0.0000 C   0  0  0  0  0  0  0  0  0  0  0  0
   -3.1523    1.8496    0.0000 C   0  0  0  0  0  0  0  0  0  0  0  0
    3.9624   -0.5428    0.0000 C   0  0  0  0  0  0  0  0  0  0  0  0
   -0.2714    1.1231    0.0000 C   0  0  0  0  0  0  0  0  0  0  0  0
    0.7808    2.5761    0.0000 O   0  0  0  0  0  0  0  0  0  0  0  0
    0.7766   -0.3299    0.0000 O   0  0  0  0  0  0  0  0  0  0  0  0
   -2.7390    1.1356    0.0000 O   0  0  0  0  0  0  0  0  0  0  0  0
    4.6764   -0.9562    0.0000 O   0  0  0  0  0  0  0  0  0  0  0  0
   -0.6847    0.4134    0.0000 C   0  0  0  0  0  0  0  0  0  0  0  0
   -0.6847    1.8371    0.0000 C   0  0  0  0  0  0  0  0  0  0  0  0
   -3.9958    1.9874    0.0000 F   0  0  0  0  0  0  0  0  0  0  0  0
   -3.5198    2.5010    0.0000 F   0  0  0  0  0  0  0  0  0  0  0  0
   -2.8392    2.6513    0.0000 F   0  0  0  0  0  0  0  0  0  0  0  0
   -1.9123    1.1273    0.0000 C   0  0  0  0  0  0  0  0  0  0  0  0
    3.2442   -0.9520    0.0000 O   0  0  0  0  0  0  0  0  0  0  0  0
   -1.5031    0.4134    0.0000 C   0  0  0  0  0  0  0  0  0  0  0  0
   -1.4989    1.8371    0.0000 C   0  0  0  0  0  0  0  0  0  0  0  0
    4.6764    0.6972    0.0000 C   0  0  0  0  0  0  0  0  0  0  0  0
    3.2567    1.5282    0.0000 C   0  0  0  0  0  0  0  0  0  0  0  0
    4.6847    1.5282    0.0000 C   0  0  0  0  0  0  0  0  0  0  0  0
    3.9707    1.9373    0.0000 C   0  0  0  0  0  0  0  0  0  0  0  0
  2  1  1  0  0  0  0
  3  1  1  0  0  0  0
  4  3  1  0  0  0  0
  5  2  1  0  0  0  0
  6  8  1  0  0  0  0
  7  4  1  0  0  0  0
  8  7  1  0  0  0  0
  9 14  1  0  0  0  0
 10  6  1  0  0  0  0
 11  1  1  0  0  0  0
 12  2  2  0  0  0  0
 13  3  2  0  0  0  0
 14 21  1  0  0  0  0
 15 10  2  0  0  0  0
 16 11  2  0  0  0  0
 17 11  1  0  0  0  0
 18  9  1  0  0  0  0
 19  9  1  0  0  0  0
 20  9  1  0  0  0  0
 21 24  1  0  0  0  0
 22 10  1  0  0  0  0
 23 16  1  0  0  0  0
 24 17  2  0  0  0  0
 25  6  2  0  0  0  0
 26  8  2  0  0  0  0
 27 28  2  0  0  0  0
 28 26  1  0  0  0  0
  4  5  1  0  0  0  0
 23 21  2  0  0  0  0
 27 25  1  0  0  0  0
M  END
>  <IDNUMBER>
F3205-0105

>  <Chemical_Name>
2-({2,5-dioxo-1-[4-(trifluoromethoxy)phenyl]pyrrolidin-3-yl}sulfanyl)benzoic acid

>  <PriceCoeff>
1.00

>  <CAS>
278609-78-2

>  <MW>
411.35

>  <Description>
solid

>  <FSP3>
0.17

>  <clogP>
3.27

>  <TPSA>
109.21

>  <Acceptor>
5

>  <Donor>
0

>  <RotBonds>
5

>  <HAC>
28

>  <Collection>
General

>  <PPDS>
+

$$$$
F3210-0017
  Mrv2219 10102508112D          

 28 30  0  0  0  0            999 V2000
    4.4008   -2.2839    0.0000 C   0  0  0  0  0  0  0  0  0  0  0  0
    3.5115   -3.2818    0.0000 C   0  0  0  0  0  0  0  0  0  0  0  0
    5.4738    0.0251    0.0000 N   0  0  0  0  0  0  0  0  0  0  0  0
    5.8914   -0.6806    0.0000 C   0  0  0  0  0  0  0  0  0  0  0  0
    3.5949   -2.4593    0.0000 C   0  0  0  0  0  0  0  0  0  0  0  0
    4.7390   -1.5282    0.0000 C   0  0  0  0  0  0  0  0  0  0  0  0
    2.0710   -2.4551    0.0000 N   0  3  0  0  0  0  0  0  0  0  0  0
    2.7975   -3.6994    0.0000 C   0  0  0  0  0  0  0  0  0  0  0  0
    4.8142   -2.9979    0.0000 C   0  0  0  0  0  0  0  0  0  0  0  0
    2.0835   -3.2860    0.0000 C   0  0  0  0  0  0  0  0  0  0  0  0
    5.5532   -1.4405    0.0000 N   0  0  0  0  0  0  0  0  0  0  0  0
    4.2630   -3.6117    0.0000 O   0  0  0  0  0  0  0  0  0  0  0  0
    6.0250    0.6471    0.0000 C   0  0  0  0  0  0  0  0  0  0  0  0
    6.7807    0.3089    0.0000 N   0  0  0  0  0  0  0  0  0  0  0  0
    6.6930   -0.5136    0.0000 S   0  0  0  0  0  0  0  0  0  0  0  0
    5.8496    1.4530    0.0000 C   0  0  0  0  0  0  0  0  0  0  0  0
    1.3695   -3.6994    0.0000 C   0  0  0  0  0  0  0  0  0  0  0  0
    2.7975   -4.5261    0.0000 C   0  0  0  0  0  0  0  0  0  0  0  0
    2.7933   -2.0417    0.0000 O   0  5  0  0  0  0  0  0  0  0  0  0
    1.3570   -2.0459    0.0000 O   0  0  0  0  0  0  0  0  0  0  0  0
    4.2505   -0.8643    0.0000 O   0  0  0  0  0  0  0  0  0  0  0  0
    6.4634    2.0125    0.0000 C   0  0  0  0  0  0  0  0  0  0  0  0
    7.2442    1.7536    0.0000 O   0  0  0  0  0  0  0  0  0  0  0  0
    1.3695   -4.5261    0.0000 C   0  0  0  0  0  0  0  0  0  0  0  0
    2.0835   -4.9394    0.0000 C   0  0  0  0  0  0  0  0  0  0  0  0
    0.6513   -4.9394    0.0000 Cl  0  0  0  0  0  0  0  0  0  0  0  0
    5.6409   -3.0856    0.0000 C   0  0  0  0  0  0  0  0  0  0  0  0
    6.2880    2.8141    0.0000 C   0  0  0  0  0  0  0  0  0  0  0  0
  2  5  2  0  0  0  0
  3  4  2  0  0  0  0
  4 11  1  0  0  0  0
  5  1  1  0  0  0  0
  6  1  1  0  0  0  0
  7 10  1  0  0  0  0
  8  2  1  0  0  0  0
  9  1  2  0  0  0  0
 10  8  2  0  0  0  0
 11  6  1  0  0  0  0
 12  9  1  0  0  0  0
 13  3  1  0  0  0  0
 14 15  1  0  0  0  0
 15  4  1  0  0  0  0
 16 13  1  0  0  0  0
 17 10  1  0  0  0  0
 18  8  1  0  0  0  0
 19  7  1  0  0  0  0
 20  7  2  0  0  0  0
 21  6  2  0  0  0  0
 22 16  1  0  0  0  0
 23 22  2  0  0  0  0
 24 25  1  0  0  0  0
 25 18  2  0  0  0  0
 26 24  1  0  0  0  0
 27  9  1  0  0  0  0
 28 22  1  0  0  0  0
 12  2  1  0  0  0  0
 13 14  2  0  0  0  0
 24 17  2  0  0  0  0
M  CHG  2   7   1  19  -1
M  END
>  <IDNUMBER>
F3210-0017

>  <Chemical_Name>
5-(4-chloro-2-nitrophenyl)-2-methyl-N-[3-(2-oxopropyl)-1,2,4-thiadiazol-5-yl]furan-3-carboxamide

>  <PriceCoeff>
1.00

>  <CAS>
900136-75-6

>  <MW>
420.83

>  <Description>
solid

>  <FSP3>
0.18

>  <clogP>
2.40

>  <TPSA>
156.47

>  <Acceptor>
7

>  <Donor>
1

>  <RotBonds>
6

>  <HAC>
28

>  <Collection>
General

>  <PPDS>
+

$$$$
F3210-0020
  Mrv2219 10102508112D          

 19 20  0  0  0  0            999 V2000
    4.4008   -2.2839    0.0000 C   0  0  0  0  0  0  0  0  0  0  0  0
    3.5115   -3.2818    0.0000 C   0  0  0  0  0  0  0  0  0  0  0  0
    3.5949   -2.4593    0.0000 C   0  0  0  0  0  0  0  0  0  0  0  0
    2.0710   -2.4551    0.0000 N   0  3  0  0  0  0  0  0  0  0  0  0
    2.7975   -3.6994    0.0000 C   0  0  0  0  0  0  0  0  0  0  0  0
    4.8142   -2.9979    0.0000 C   0  0  0  0  0  0  0  0  0  0  0  0
    2.0835   -3.2860    0.0000 C   0  0  0  0  0  0  0  0  0  0  0  0
    4.2630   -3.6117    0.0000 O   0  0  0  0  0  0  0  0  0  0  0  0
    4.7390   -1.5282    0.0000 C   0  0  0  0  0  0  0  0  0  0  0  0
    1.3695   -3.6994    0.0000 C   0  0  0  0  0  0  0  0  0  0  0  0
    2.7975   -4.5261    0.0000 C   0  0  0  0  0  0  0  0  0  0  0  0
    2.7933   -2.0417    0.0000 O   0  5  0  0  0  0  0  0  0  0  0  0
    1.3570   -2.0459    0.0000 O   0  0  0  0  0  0  0  0  0  0  0  0
    4.2505   -0.8643    0.0000 O   0  0  0  0  0  0  0  0  0  0  0  0
    1.3695   -4.5261    0.0000 C   0  0  0  0  0  0  0  0  0  0  0  0
    5.5532   -1.4405    0.0000 O   0  0  0  0  0  0  0  0  0  0  0  0
    2.0835   -4.9394    0.0000 C   0  0  0  0  0  0  0  0  0  0  0  0
    0.6513   -4.9394    0.0000 Cl  0  0  0  0  0  0  0  0  0  0  0  0
    5.6409   -3.0856    0.0000 C   0  0  0  0  0  0  0  0  0  0  0  0
  2  3  2  0  0  0  0
  3  1  1  0  0  0  0
  4  7  1  0  0  0  0
  5  2  1  0  0  0  0
  6  1  2  0  0  0  0
  7  5  2  0  0  0  0
  8  6  1  0  0  0  0
  9  1  1  0  0  0  0
 10  7  1  0  0  0  0
 11  5  1  0  0  0  0
 12  4  1  0  0  0  0
 13  4  2  0  0  0  0
 14  9  2  0  0  0  0
 15 17  1  0  0  0  0
 16  9  1  0  0  0  0
 17 11  2  0  0  0  0
 18 15  1  0  0  0  0
 19  6  1  0  0  0  0
  8  2  1  0  0  0  0
 15 10  2  0  0  0  0
M  CHG  2   4   1  12  -1
M  END
>  <IDNUMBER>
F3210-0020

>  <Chemical_Name>
5-(4-chloro-2-nitrophenyl)-2-methylfuran-3-carboxylic acid

>  <PriceCoeff>
1.00

>  <CAS>
900136-77-8

>  <MW>
281.65

>  <Description>
solid

>  <FSP3>
0.08

>  <clogP>
3.86

>  <TPSA>
93.58

>  <Acceptor>
5

>  <Donor>
0

>  <RotBonds>
3

>  <HAC>
19

>  <Collection>
General

>  <PPDS>
+

$$$$
F3215-0073
  Mrv2219 10102508112D          

 29 32  0  0  0  0            999 V2000
    0.8405    2.3343    0.0000 N   0  0  0  0  0  0  0  0  0  0  0  0
    0.2289    2.8918    0.0000 C   0  0  0  0  0  0  0  0  0  0  0  0
    0.5118    1.5811    0.0000 C   0  0  0  0  0  0  0  0  0  0  0  0
   -0.3079    1.6685    0.0000 C   0  0  0  0  0  0  0  0  0  0  0  0
   -0.4826    2.4716    0.0000 S   0  0  0  0  0  0  0  0  0  0  0  0
   -1.6227   -4.1984    0.0000 N   0  3  0  0  0  0  0  0  0  0  0  0
   -0.6075   -1.0610    0.0000 C   0  0  0  0  0  0  0  0  0  0  0  0
    1.6519    2.5048    0.0000 N   0  0  0  0  0  0  0  0  0  0  0  0
   -0.8613    1.0568    0.0000 C   0  0  0  0  0  0  0  0  0  0  0  0
   -0.8613   -1.8474    0.0000 C   0  0  0  0  0  0  0  0  0  0  0  0
   -1.0943   -0.3912    0.0000 O   0  0  0  0  0  0  0  0  0  0  0  0
   -0.6075    0.2704    0.0000 C   0  0  0  0  0  0  0  0  0  0  0  0
   -1.6685   -2.0139    0.0000 C   0  0  0  0  0  0  0  0  0  0  0  0
   -1.3689   -3.4119    0.0000 C   0  0  0  0  0  0  0  0  0  0  0  0
   -1.9223   -2.8003    0.0000 C   0  0  0  0  0  0  0  0  0  0  0  0
    0.1790   -0.8031    0.0000 C   0  0  0  0  0  0  0  0  0  0  0  0
    0.3163    3.7031    0.0000 S   0  0  0  0  0  0  0  0  0  0  0  0
    0.1790    0.0208    0.0000 C   0  0  0  0  0  0  0  0  0  0  0  0
   -0.3079   -2.4591    0.0000 C   0  0  0  0  0  0  0  0  0  0  0  0
   -2.4299   -4.3689    0.0000 O   0  5  0  0  0  0  0  0  0  0  0  0
    0.9237    0.8696    0.0000 O   0  0  0  0  0  0  0  0  0  0  0  0
   -1.0735   -4.8100    0.0000 O   0  0  0  0  0  0  0  0  0  0  0  0
   -0.5617   -3.2372    0.0000 C   0  0  0  0  0  0  0  0  0  0  0  0
    3.2622    2.8460    0.0000 O   0  0  0  0  0  0  0  0  0  0  0  0
    1.9016    3.2912    0.0000 C   0  0  0  0  0  0  0  0  0  0  0  0
    2.2011    1.8932    0.0000 C   0  0  0  0  0  0  0  0  0  0  0  0
   -2.2177   -1.4022    0.0000 Cl  0  0  0  0  0  0  0  0  0  0  0  0
    2.7129    3.4577    0.0000 C   0  0  0  0  0  0  0  0  0  0  0  0
    3.0083    2.0679    0.0000 C   0  0  0  0  0  0  0  0  0  0  0  0
  2  1  1  0  0  0  0
  3  1  1  0  0  0  0
  4  3  1  0  0  0  0
  5  2  1  0  0  0  0
  6 14  1  0  0  0  0
  7 11  1  0  0  0  0
  8  1  1  0  0  0  0
  9  4  2  0  0  0  0
 10  7  1  0  0  0  0
 11 12  1  0  0  0  0
 12  9  1  0  0  0  0
 13 10  2  0  0  0  0
 14 23  1  0  0  0  0
 15 13  1  0  0  0  0
 16 18  1  0  0  0  0
 17  2  2  0  0  0  0
 18 12  2  0  0  0  0
 19 10  1  0  0  0  0
 20  6  1  0  0  0  0
 21  3  2  0  0  0  0
 22  6  2  0  0  0  0
 23 19  2  0  0  0  0
 24 29  1  0  0  0  0
 25  8  1  0  0  0  0
 26  8  1  0  0  0  0
 27 13  1  0  0  0  0
 28 25  1  0  0  0  0
 29 26  1  0  0  0  0
  4  5  1  0  0  0  0
 28 24  1  0  0  0  0
  7 16  2  0  0  0  0
 15 14  2  0  0  0  0
M  CHG  2   6   1  20  -1
M  END
>  <IDNUMBER>
F3215-0073

>  <Chemical_Name>
(5E)-5-{[5-(2-chloro-4-nitrophenyl)furan-2-yl]methylidene}-3-(morpholin-4-yl)-2-sulfanylidene-1,3-thiazolidin-4-one

>  <PriceCoeff>
1.00

>  <CAS>
635295-88-4

>  <MW>
451.90

>  <Description>
solid

>  <FSP3>
0.22

>  <clogP>
4.29

>  <TPSA>
146.45

>  <Acceptor>
6

>  <Donor>
1

>  <RotBonds>
4

>  <HAC>
29

>  <Collection>
General

$$$$
F3215-0209
  Mrv2219 10102508112D          

 23 25  0  0  0  0            999 V2000
    8.2375   -3.7292    0.0000 C   0  0  0  0  0  0  0  0  0  0  0  0
    8.2292   -4.5625    0.0000 N   0  3  0  0  0  0  0  0  0  0  0  0
    5.3792   -3.7250    0.0000 C   0  0  0  0  0  0  0  0  0  0  0  0
    6.1000   -3.3167    0.0000 C   0  0  0  0  0  0  0  0  0  0  0  0
    4.6625   -3.3042    0.0000 O   0  0  0  0  0  0  0  0  0  0  0  0
    7.5292   -3.3167    0.0000 C   0  0  0  0  0  0  0  0  0  0  0  0
    6.8125   -3.7292    0.0000 N   0  0  0  0  0  0  0  0  0  0  0  0
    4.6542   -4.9667    0.0000 O   0  0  0  0  0  0  0  0  0  0  0  0
    8.9542   -3.3250    0.0000 C   0  0  0  0  0  0  0  0  0  0  0  0
    3.9417   -3.7250    0.0000 C   0  0  0  0  0  0  0  0  0  0  0  0
    7.5167   -4.9750    0.0000 O   0  5  0  0  0  0  0  0  0  0  0  0
    5.3792   -4.5542    0.0000 C   0  0  0  0  0  0  0  0  0  0  0  0
    3.9417   -4.5542    0.0000 C   0  0  0  0  0  0  0  0  0  0  0  0
    8.9417   -4.9792    0.0000 O   0  0  0  0  0  0  0  0  0  0  0  0
    6.1000   -2.4917    0.0000 O   0  0  0  0  0  0  0  0  0  0  0  0
    7.5250   -2.4917    0.0000 C   0  0  0  0  0  0  0  0  0  0  0  0
    8.9542   -2.5000    0.0000 C   0  0  0  0  0  0  0  0  0  0  0  0
    8.2375   -2.0792    0.0000 C   0  0  0  0  0  0  0  0  0  0  0  0
    9.6667   -2.0792    0.0000 Cl  0  0  0  0  0  0  0  0  0  0  0  0
    3.2292   -3.3125    0.0000 C   0  0  0  0  0  0  0  0  0  0  0  0
    3.2292   -4.9667    0.0000 C   0  0  0  0  0  0  0  0  0  0  0  0
    2.5167   -3.7250    0.0000 C   0  0  0  0  0  0  0  0  0  0  0  0
    2.5167   -4.5542    0.0000 C   0  0  0  0  0  0  0  0  0  0  0  0
  2  1  1  0  0  0  0
  3  4  1  0  0  0  0
  4  7  1  0  0  0  0
  5  3  1  0  0  0  0
  6  1  2  0  0  0  0
  7  6  1  0  0  0  0
  8 12  1  0  0  0  0
  9  1  1  0  0  0  0
 10  5  1  0  0  0  0
 11  2  1  0  0  0  0
 12  3  1  0  0  0  0
 13  8  1  0  0  0  0
 14  2  2  0  0  0  0
 15  4  2  0  0  0  0
 16  6  1  0  0  0  0
 17  9  2  0  0  0  0
 18 17  1  0  0  0  0
 19 17  1  0  0  0  0
 20 10  2  0  0  0  0
 21 13  2  0  0  0  0
 22 20  1  0  0  0  0
 23 21  1  0  0  0  0
 18 16  2  0  0  0  0
 10 13  1  0  0  0  0
 22 23  2  0  0  0  0
M  CHG  2   2   1  11  -1
M  END
>  <IDNUMBER>
F3215-0209

>  <Chemical_Name>
N-(4-chloro-2-nitrophenyl)-2,3-dihydro-1,4-benzodioxine-2-carboxamide

>  <PriceCoeff>
1.00

>  <CAS>
838871-29-7

>  <MW>
334.71

>  <Description>
solid

>  <FSP3>
0.13

>  <clogP>
3.22

>  <TPSA>
90.70

>  <Acceptor>
5

>  <Donor>
1

>  <RotBonds>
3

>  <HAC>
23

>  <Collection>
General

>  <PPDS>
+

$$$$
F3215-0274
  Mrv2219 10102508112D          

 27 29  0  0  0  0            999 V2000
    3.5070   -0.8549    0.0000 C   0  0  0  0  0  0  0  0  0  0  0  0
    2.4562   -1.6680    0.0000 C   0  0  0  0  0  0  0  0  0  0  0  0
    2.6939   -0.8799    0.0000 C   0  0  0  0  0  0  0  0  0  0  0  0
    2.1642   -3.2818    0.0000 N   0  3  0  0  0  0  0  0  0  0  0  0
    3.9699   -0.1668    0.0000 C   0  0  0  0  0  0  0  0  0  0  0  0
    1.6806   -1.9433    0.0000 C   0  0  0  0  0  0  0  0  0  0  0  0
    3.7822   -1.6388    0.0000 C   0  0  0  0  0  0  0  0  0  0  0  0
    1.5304   -2.7522    0.0000 C   0  0  0  0  0  0  0  0  0  0  0  0
    3.1317   -2.1392    0.0000 O   0  0  0  0  0  0  0  0  0  0  0  0
    4.7956   -0.2294    0.0000 N   0  0  0  0  0  0  0  0  0  0  0  0
    0.7548   -3.0274    0.0000 C   0  0  0  0  0  0  0  0  0  0  0  0
    1.0550   -1.4053    0.0000 C   0  0  0  0  0  0  0  0  0  0  0  0
    5.2584    0.4504    0.0000 C   0  0  0  0  0  0  0  0  0  0  0  0
    2.0058   -4.0950    0.0000 O   0  5  0  0  0  0  0  0  0  0  0  0
    2.9441   -3.0066    0.0000 O   0  0  0  0  0  0  0  0  0  0  0  0
    3.6154    0.5713    0.0000 O   0  0  0  0  0  0  0  0  0  0  0  0
    6.0799    0.3878    0.0000 C   0  0  0  0  0  0  0  0  0  0  0  0
    0.1293   -2.4895    0.0000 C   0  0  0  0  0  0  0  0  0  0  0  0
    0.2794   -1.6763    0.0000 C   0  0  0  0  0  0  0  0  0  0  0  0
   -0.5880   -2.8940    0.0000 Cl  0  0  0  0  0  0  0  0  0  0  0  0
    4.5787   -1.8682    0.0000 C   0  0  0  0  0  0  0  0  0  0  0  0
    6.4344   -0.3545    0.0000 O   0  0  0  0  0  0  0  0  0  0  0  0
    4.8956    1.1968    0.0000 C   0  0  0  0  0  0  0  0  0  0  0  0
    6.5470    1.0717    0.0000 C   0  0  0  0  0  0  0  0  0  0  0  0
    7.2600   -0.4170    0.0000 C   0  0  0  0  0  0  0  0  0  0  0  0
    5.3585    1.8723    0.0000 C   0  0  0  0  0  0  0  0  0  0  0  0
    6.1842    1.8140    0.0000 C   0  0  0  0  0  0  0  0  0  0  0  0
  2  3  2  0  0  0  0
  3  1  1  0  0  0  0
  4  8  1  0  0  0  0
  5  1  1  0  0  0  0
  6  2  1  0  0  0  0
  7  1  2  0  0  0  0
  8  6  1  0  0  0  0
  9  7  1  0  0  0  0
 10  5  1  0  0  0  0
 11  8  2  0  0  0  0
 12  6  2  0  0  0  0
 13 10  1  0  0  0  0
 14  4  1  0  0  0  0
 15  4  2  0  0  0  0
 16  5  2  0  0  0  0
 17 13  2  0  0  0  0
 18 19  2  0  0  0  0
 19 12  1  0  0  0  0
 20 18  1  0  0  0  0
 21  7  1  0  0  0  0
 22 17  1  0  0  0  0
 23 13  1  0  0  0  0
 24 17  1  0  0  0  0
 25 22  1  0  0  0  0
 26 23  2  0  0  0  0
 27 26  1  0  0  0  0
  2  9  1  0  0  0  0
 27 24  2  0  0  0  0
 11 18  1  0  0  0  0
M  CHG  2   4   1  14  -1
M  END
>  <IDNUMBER>
F3215-0274

>  <Chemical_Name>
5-(4-chloro-2-nitrophenyl)-N-(2-methoxyphenyl)-2-methylfuran-3-carboxamide

>  <PriceCoeff>
1.00

>  <CAS>
876871-41-9

>  <MW>
386.79

>  <Description>
solid

>  <FSP3>
0.11

>  <clogP>
4.06

>  <TPSA>
94.61

>  <Acceptor>
5

>  <Donor>
1

>  <RotBonds>
5

>  <HAC>
27

>  <Collection>
General

>  <PPDS>
+

$$$$
F3215-0278
  Mrv2219 10102508112D          

 29 31  0  0  0  0            999 V2000
    3.5065   -0.8548    0.0000 C   0  0  0  0  0  0  0  0  0  0  0  0
    2.4558   -1.6678    0.0000 C   0  0  0  0  0  0  0  0  0  0  0  0
    2.6935   -0.8798    0.0000 C   0  0  0  0  0  0  0  0  0  0  0  0
    2.1639   -3.2813    0.0000 N   0  3  0  0  0  0  0  0  0  0  0  0
    1.6804   -1.9430    0.0000 C   0  0  0  0  0  0  0  0  0  0  0  0
    3.9693   -0.1668    0.0000 C   0  0  0  0  0  0  0  0  0  0  0  0
    3.7817   -1.6386    0.0000 C   0  0  0  0  0  0  0  0  0  0  0  0
    1.5302   -2.7518    0.0000 C   0  0  0  0  0  0  0  0  0  0  0  0
    3.1313   -2.1389    0.0000 O   0  0  0  0  0  0  0  0  0  0  0  0
    4.7949   -0.2294    0.0000 N   0  0  0  0  0  0  0  0  0  0  0  0
    0.7547   -3.0270    0.0000 C   0  0  0  0  0  0  0  0  0  0  0  0
    1.0548   -1.4051    0.0000 C   0  0  0  0  0  0  0  0  0  0  0  0
    2.0055   -4.0944    0.0000 O   0  5  0  0  0  0  0  0  0  0  0  0
    7.4716    2.4350    0.0000 C   0  0  0  0  0  0  0  0  0  0  0  0
    2.9437   -3.0062    0.0000 O   0  0  0  0  0  0  0  0  0  0  0  0
    6.6543    2.4974    0.0000 N   0  0  0  0  0  0  0  0  0  0  0  0
    3.6149    0.5712    0.0000 O   0  0  0  0  0  0  0  0  0  0  0  0
    7.9428    3.1146    0.0000 O   0  0  0  0  0  0  0  0  0  0  0  0
    0.1293   -2.4891    0.0000 C   0  0  0  0  0  0  0  0  0  0  0  0
    5.2576    0.4503    0.0000 C   0  0  0  0  0  0  0  0  0  0  0  0
    6.1833    1.8137    0.0000 C   0  0  0  0  0  0  0  0  0  0  0  0
    0.2794   -1.6761    0.0000 C   0  0  0  0  0  0  0  0  0  0  0  0
   -0.5879   -2.8936    0.0000 Cl  0  0  0  0  0  0  0  0  0  0  0  0
    4.5780   -1.8679    0.0000 C   0  0  0  0  0  0  0  0  0  0  0  0
    4.8949    1.1966    0.0000 C   0  0  0  0  0  0  0  0  0  0  0  0
    6.0790    0.3877    0.0000 C   0  0  0  0  0  0  0  0  0  0  0  0
    6.5461    1.0715    0.0000 C   0  0  0  0  0  0  0  0  0  0  0  0
    5.3577    1.8720    0.0000 C   0  0  0  0  0  0  0  0  0  0  0  0
    7.8344    1.6887    0.0000 C   0  0  0  0  0  0  0  0  0  0  0  0
  2  3  2  0  0  0  0
  3  1  1  0  0  0  0
  4  8  1  0  0  0  0
  5  2  1  0  0  0  0
  6  1  1  0  0  0  0
  7  1  2  0  0  0  0
  8  5  1  0  0  0  0
  9  7  1  0  0  0  0
 10  6  1  0  0  0  0
 11  8  2  0  0  0  0
 12  5  2  0  0  0  0
 13  4  1  0  0  0  0
 14 16  1  0  0  0  0
 15  4  2  0  0  0  0
 16 21  1  0  0  0  0
 17  6  2  0  0  0  0
 18 14  2  0  0  0  0
 19 22  2  0  0  0  0
 20 10  1  0  0  0  0
 21 27  2  0  0  0  0
 22 12  1  0  0  0  0
 23 19  1  0  0  0  0
 24  7  1  0  0  0  0
 25 20  1  0  0  0  0
 26 20  2  0  0  0  0
 27 26  1  0  0  0  0
 28 25  2  0  0  0  0
 29 14  1  0  0  0  0
  2  9  1  0  0  0  0
 21 28  1  0  0  0  0
 11 19  1  0  0  0  0
M  CHG  2   4   1  13  -1
M  END
>  <IDNUMBER>
F3215-0278

>  <Chemical_Name>
5-(4-chloro-2-nitrophenyl)-N-(4-acetamidophenyl)-2-methylfuran-3-carboxamide

>  <PriceCoeff>
1.00

>  <CAS>
876874-52-1

>  <MW>
413.81

>  <Description>
solid

>  <FSP3>
0.10

>  <clogP>
3.66

>  <TPSA>
114.48

>  <Acceptor>
5

>  <Donor>
2

>  <RotBonds>
5

>  <HAC>
29

>  <Collection>
General

>  <PPDS>
+

$$$$
F3215-0283
  Mrv2219 10102508112D          

 28 30  0  0  0  0            999 V2000
    3.5070   -0.8549    0.0000 C   0  0  0  0  0  0  0  0  0  0  0  0
    2.4562   -1.6680    0.0000 C   0  0  0  0  0  0  0  0  0  0  0  0
    2.6939   -0.8799    0.0000 C   0  0  0  0  0  0  0  0  0  0  0  0
    2.1642   -3.2818    0.0000 N   0  3  0  0  0  0  0  0  0  0  0  0
    1.6806   -1.9433    0.0000 C   0  0  0  0  0  0  0  0  0  0  0  0
    3.9699   -0.1668    0.0000 C   0  0  0  0  0  0  0  0  0  0  0  0
    3.7822   -1.6388    0.0000 C   0  0  0  0  0  0  0  0  0  0  0  0
    1.5304   -2.7522    0.0000 C   0  0  0  0  0  0  0  0  0  0  0  0
    3.1317   -2.1392    0.0000 O   0  0  0  0  0  0  0  0  0  0  0  0
    4.7956   -0.2294    0.0000 N   0  0  0  0  0  0  0  0  0  0  0  0
    0.7548   -3.0274    0.0000 C   0  0  0  0  0  0  0  0  0  0  0  0
    1.0550   -1.4053    0.0000 C   0  0  0  0  0  0  0  0  0  0  0  0
    2.0058   -4.0950    0.0000 O   0  5  0  0  0  0  0  0  0  0  0  0
    6.5470    1.0717    0.0000 C   0  0  0  0  0  0  0  0  0  0  0  0
    2.9441   -3.0066    0.0000 O   0  0  0  0  0  0  0  0  0  0  0  0
    7.3684    1.0091    0.0000 C   0  0  0  0  0  0  0  0  0  0  0  0
    3.6154    0.5713    0.0000 O   0  0  0  0  0  0  0  0  0  0  0  0
    5.2584    0.4504    0.0000 C   0  0  0  0  0  0  0  0  0  0  0  0
    6.0799    0.3878    0.0000 C   0  0  0  0  0  0  0  0  0  0  0  0
    7.8355    1.6847    0.0000 O   0  0  0  0  0  0  0  0  0  0  0  0
    0.1293   -2.4895    0.0000 C   0  0  0  0  0  0  0  0  0  0  0  0
    0.2794   -1.6763    0.0000 C   0  0  0  0  0  0  0  0  0  0  0  0
   -0.5880   -2.8940    0.0000 Cl  0  0  0  0  0  0  0  0  0  0  0  0
    4.5787   -1.8682    0.0000 C   0  0  0  0  0  0  0  0  0  0  0  0
    6.1842    1.8140    0.0000 C   0  0  0  0  0  0  0  0  0  0  0  0
    5.3585    1.8723    0.0000 C   0  0  0  0  0  0  0  0  0  0  0  0
    4.8956    1.1968    0.0000 C   0  0  0  0  0  0  0  0  0  0  0  0
    7.7229    0.2585    0.0000 C   0  0  0  0  0  0  0  0  0  0  0  0
  2  3  2  0  0  0  0
  3  1  1  0  0  0  0
  4  8  1  0  0  0  0
  5  2  1  0  0  0  0
  6  1  1  0  0  0  0
  7  1  2  0  0  0  0
  8  5  1  0  0  0  0
  9  7  1  0  0  0  0
 10  6  1  0  0  0  0
 11  8  2  0  0  0  0
 12  5  2  0  0  0  0
 13  4  1  0  0  0  0
 14 19  1  0  0  0  0
 15  4  2  0  0  0  0
 16 14  1  0  0  0  0
 17  6  2  0  0  0  0
 18 10  1  0  0  0  0
 19 18  2  0  0  0  0
 20 16  2  0  0  0  0
 21 22  2  0  0  0  0
 22 12  1  0  0  0  0
 23 21  1  0  0  0  0
 24  7  1  0  0  0  0
 25 26  1  0  0  0  0
 26 27  2  0  0  0  0
 27 18  1  0  0  0  0
 28 16  1  0  0  0  0
  2  9  1  0  0  0  0
 25 14  2  0  0  0  0
 11 21  1  0  0  0  0
M  CHG  2   4   1  13  -1
M  END
>  <IDNUMBER>
F3215-0283

>  <Chemical_Name>
N-(3-acetylphenyl)-5-(4-chloro-2-nitrophenyl)-2-methylfuran-3-carboxamide

>  <PriceCoeff>
1.00

>  <CAS>
876873-04-0

>  <MW>
398.80

>  <Description>
solid

>  <FSP3>
0.10

>  <clogP>
4.48

>  <TPSA>
102.45

>  <Acceptor>
5

>  <Donor>
1

>  <RotBonds>
5

>  <HAC>
28

>  <Collection>
General

>  <PPDS>
+

$$$$
F3215-0287
  Mrv2219 10102508112D          

 29 31  0  0  0  0            999 V2000
    3.5065   -0.8548    0.0000 C   0  0  0  0  0  0  0  0  0  0  0  0
    2.4558   -1.6678    0.0000 C   0  0  0  0  0  0  0  0  0  0  0  0
    6.6543    2.4974    0.0000 S   0  0  0  0  0  0  0  0  0  0  0  0
    2.6935   -0.8798    0.0000 C   0  0  0  0  0  0  0  0  0  0  0  0
    2.1639   -3.2813    0.0000 N   0  3  0  0  0  0  0  0  0  0  0  0
    1.6804   -1.9430    0.0000 C   0  0  0  0  0  0  0  0  0  0  0  0
    3.9693   -0.1668    0.0000 C   0  0  0  0  0  0  0  0  0  0  0  0
    3.7817   -1.6386    0.0000 C   0  0  0  0  0  0  0  0  0  0  0  0
    1.5302   -2.7518    0.0000 C   0  0  0  0  0  0  0  0  0  0  0  0
    3.1313   -2.1389    0.0000 O   0  0  0  0  0  0  0  0  0  0  0  0
    4.7949   -0.2294    0.0000 N   0  0  0  0  0  0  0  0  0  0  0  0
    6.1833    1.8137    0.0000 C   0  0  0  0  0  0  0  0  0  0  0  0
    0.7547   -3.0270    0.0000 C   0  0  0  0  0  0  0  0  0  0  0  0
    1.0548   -1.4051    0.0000 C   0  0  0  0  0  0  0  0  0  0  0  0
    5.9332    2.9102    0.0000 O   0  0  0  0  0  0  0  0  0  0  0  0
    7.2340    1.9095    0.0000 O   0  0  0  0  0  0  0  0  0  0  0  0
    2.0055   -4.0944    0.0000 O   0  5  0  0  0  0  0  0  0  0  0  0
    2.9437   -3.0062    0.0000 O   0  0  0  0  0  0  0  0  0  0  0  0
    3.6149    0.5712    0.0000 O   0  0  0  0  0  0  0  0  0  0  0  0
    7.1297    3.1729    0.0000 N   0  0  0  0  0  0  0  0  0  0  0  0
    5.3577    1.8720    0.0000 C   0  0  0  0  0  0  0  0  0  0  0  0
    6.5461    1.0715    0.0000 C   0  0  0  0  0  0  0  0  0  0  0  0
    5.2576    0.4503    0.0000 C   0  0  0  0  0  0  0  0  0  0  0  0
    0.1293   -2.4891    0.0000 C   0  0  0  0  0  0  0  0  0  0  0  0
    0.2794   -1.6761    0.0000 C   0  0  0  0  0  0  0  0  0  0  0  0
    4.8949    1.1966    0.0000 C   0  0  0  0  0  0  0  0  0  0  0  0
    6.0790    0.3877    0.0000 C   0  0  0  0  0  0  0  0  0  0  0  0
   -0.5879   -2.8936    0.0000 Cl  0  0  0  0  0  0  0  0  0  0  0  0
    4.5780   -1.8679    0.0000 C   0  0  0  0  0  0  0  0  0  0  0  0
  2  4  2  0  0  0  0
  3 12  1  0  0  0  0
  4  1  1  0  0  0  0
  5  9  1  0  0  0  0
  6  2  1  0  0  0  0
  7  1  1  0  0  0  0
  8  1  2  0  0  0  0
  9  6  1  0  0  0  0
 10  8  1  0  0  0  0
 11  7  1  0  0  0  0
 12 22  2  0  0  0  0
 13  9  2  0  0  0  0
 14  6  2  0  0  0  0
 15  3  2  0  0  0  0
 16  3  2  0  0  0  0
 17  5  1  0  0  0  0
 18  5  2  0  0  0  0
 19  7  2  0  0  0  0
 20  3  1  0  0  0  0
 21 26  2  0  0  0  0
 22 27  1  0  0  0  0
 23 11  1  0  0  0  0
 24 25  2  0  0  0  0
 25 14  1  0  0  0  0
 26 23  1  0  0  0  0
 27 23  2  0  0  0  0
 28 24  1  0  0  0  0
 29  8  1  0  0  0  0
  2 10  1  0  0  0  0
 12 21  1  0  0  0  0
 13 24  1  0  0  0  0
M  CHG  2   5   1  17  -1
M  END
>  <IDNUMBER>
F3215-0287

>  <Chemical_Name>
5-(4-chloro-2-nitrophenyl)-2-methyl-N-(4-sulfamoylphenyl)furan-3-carboxamide

>  <PriceCoeff>
1.00

>  <CAS>
890617-00-2

>  <MW>
435.84

>  <Description>
solid

>  <FSP3>
0.06

>  <clogP>
3.06

>  <TPSA>
153.92

>  <Acceptor>
6

>  <Donor>
2

>  <RotBonds>
5

>  <HAC>
29

>  <Collection>
General

>  <PPDS>
+

$$$$
F3215-0290
  Mrv2219 10102508112D          

 28 30  0  0  0  0            999 V2000
    3.5070   -0.8549    0.0000 C   0  0  0  0  0  0  0  0  0  0  0  0
    2.4562   -1.6680    0.0000 C   0  0  0  0  0  0  0  0  0  0  0  0
    2.6939   -0.8799    0.0000 C   0  0  0  0  0  0  0  0  0  0  0  0
    2.1642   -3.2818    0.0000 N   0  3  0  0  0  0  0  0  0  0  0  0
    1.6806   -1.9433    0.0000 C   0  0  0  0  0  0  0  0  0  0  0  0
    3.9699   -0.1668    0.0000 C   0  0  0  0  0  0  0  0  0  0  0  0
    3.7822   -1.6388    0.0000 C   0  0  0  0  0  0  0  0  0  0  0  0
    1.5304   -2.7522    0.0000 C   0  0  0  0  0  0  0  0  0  0  0  0
    3.1317   -2.1392    0.0000 O   0  0  0  0  0  0  0  0  0  0  0  0
    4.7956   -0.2294    0.0000 N   0  0  0  0  0  0  0  0  0  0  0  0
    0.7548   -3.0274    0.0000 C   0  0  0  0  0  0  0  0  0  0  0  0
    1.0550   -1.4053    0.0000 C   0  0  0  0  0  0  0  0  0  0  0  0
    2.0058   -4.0950    0.0000 O   0  5  0  0  0  0  0  0  0  0  0  0
    2.9441   -3.0066    0.0000 O   0  0  0  0  0  0  0  0  0  0  0  0
    3.6154    0.5713    0.0000 O   0  0  0  0  0  0  0  0  0  0  0  0
    6.6553    2.4978    0.0000 C   0  0  0  0  0  0  0  0  0  0  0  0
    6.1842    1.8140    0.0000 C   0  0  0  0  0  0  0  0  0  0  0  0
    6.2968    3.2401    0.0000 O   0  0  0  0  0  0  0  0  0  0  0  0
    5.2584    0.4504    0.0000 C   0  0  0  0  0  0  0  0  0  0  0  0
    0.1293   -2.4895    0.0000 C   0  0  0  0  0  0  0  0  0  0  0  0
    5.3585    1.8723    0.0000 C   0  0  0  0  0  0  0  0  0  0  0  0
    6.5470    1.0717    0.0000 C   0  0  0  0  0  0  0  0  0  0  0  0
    0.2794   -1.6763    0.0000 C   0  0  0  0  0  0  0  0  0  0  0  0
    4.8956    1.1968    0.0000 C   0  0  0  0  0  0  0  0  0  0  0  0
    6.0799    0.3878    0.0000 C   0  0  0  0  0  0  0  0  0  0  0  0
   -0.5880   -2.8940    0.0000 Cl  0  0  0  0  0  0  0  0  0  0  0  0
    4.5787   -1.8682    0.0000 C   0  0  0  0  0  0  0  0  0  0  0  0
    7.4727    2.4353    0.0000 C   0  0  0  0  0  0  0  0  0  0  0  0
  2  3  2  0  0  0  0
  3  1  1  0  0  0  0
  4  8  1  0  0  0  0
  5  2  1  0  0  0  0
  6  1  1  0  0  0  0
  7  1  2  0  0  0  0
  8  5  1  0  0  0  0
  9  7  1  0  0  0  0
 10  6  1  0  0  0  0
 11  8  2  0  0  0  0
 12  5  2  0  0  0  0
 13  4  1  0  0  0  0
 14  4  2  0  0  0  0
 15  6  2  0  0  0  0
 16 17  1  0  0  0  0
 17 22  2  0  0  0  0
 18 16  2  0  0  0  0
 19 10  1  0  0  0  0
 20 23  2  0  0  0  0
 21 24  2  0  0  0  0
 22 25  1  0  0  0  0
 23 12  1  0  0  0  0
 24 19  1  0  0  0  0
 25 19  2  0  0  0  0
 26 20  1  0  0  0  0
 27  7  1  0  0  0  0
 28 16  1  0  0  0  0
  2  9  1  0  0  0  0
 17 21  1  0  0  0  0
 11 20  1  0  0  0  0
M  CHG  2   4   1  13  -1
M  END
>  <IDNUMBER>
F3215-0290

>  <Chemical_Name>
N-(4-acetylphenyl)-5-(4-chloro-2-nitrophenyl)-2-methylfuran-3-carboxamide

>  <PriceCoeff>
1.00

>  <CAS>
876873-87-9

>  <MW>
398.80

>  <Description>
solid

>  <FSP3>
0.10

>  <clogP>
4.48

>  <TPSA>
102.45

>  <Acceptor>
5

>  <Donor>
1

>  <RotBonds>
5

>  <HAC>
28

>  <Collection>
General

>  <PPDS>
+

$$$$
F3222-0033
  Mrv2219 10102508112D          

 17 19  0  0  0  0            999 V2000
    7.4006   -5.7847    0.0000 C   0  0  0  0  0  0  0  0  0  0  0  0
    6.6842   -5.3641    0.0000 C   0  0  0  0  0  0  0  0  0  0  0  0
    5.9721   -5.7847    0.0000 C   0  0  0  0  0  0  0  0  0  0  0  0
    7.3964   -6.6092    0.0000 C   0  0  0  0  0  0  0  0  0  0  0  0
    6.6842   -7.0257    0.0000 N   0  0  0  0  0  0  0  0  0  0  0  0
    5.9638   -6.6092    0.0000 C   0  0  0  0  0  0  0  0  0  0  0  0
    5.2516   -5.3724    0.0000 C   0  0  0  0  0  0  0  0  0  0  0  0
    6.6842   -4.5395    0.0000 O   0  0  0  0  0  0  0  0  0  0  0  0
    5.2516   -7.0257    0.0000 C   0  0  0  0  0  0  0  0  0  0  0  0
    4.5395   -5.7847    0.0000 C   0  0  0  0  0  0  0  0  0  0  0  0
    8.1127   -5.3724    0.0000 C   0  0  0  0  0  0  0  0  0  0  0  0
    4.5395   -6.6134    0.0000 C   0  0  0  0  0  0  0  0  0  0  0  0
    8.1085   -7.0257    0.0000 C   0  0  0  0  0  0  0  0  0  0  0  0
    3.8273   -5.3724    0.0000 O   0  0  0  0  0  0  0  0  0  0  0  0
    3.1152   -5.7889    0.0000 C   0  0  0  0  0  0  0  0  0  0  0  0
    8.8249   -5.7889    0.0000 C   0  0  0  0  0  0  0  0  0  0  0  0
    8.8249   -6.6134    0.0000 C   0  0  0  0  0  0  0  0  0  0  0  0
  2  1  1  0  0  0  0
  3  2  1  0  0  0  0
  4  1  2  0  0  0  0
  5  4  1  0  0  0  0
  6  5  1  0  0  0  0
  7  3  2  0  0  0  0
  8  2  2  0  0  0  0
  9  6  2  0  0  0  0
 10  7  1  0  0  0  0
 11  1  1  0  0  0  0
 12  9  1  0  0  0  0
 13  4  1  0  0  0  0
 14 10  1  0  0  0  0
 15 14  1  0  0  0  0
 16 11  1  0  0  0  0
 17 16  1  0  0  0  0
 17 13  1  0  0  0  0
  6  3  1  0  0  0  0
 12 10  2  0  0  0  0
M  END
>  <IDNUMBER>
F3222-0033

>  <Chemical_Name>
7-methoxy-1,2,3,4,9,10-hexahydroacridin-9-one

>  <PriceCoeff>
1.00

>  <CAS>
5778-47-2

>  <MW>
229.27

>  <Description>
solid

>  <FSP3>
0.36

>  <clogP>
1.87

>  <TPSA>
38.33

>  <Acceptor>
3

>  <Donor>
1

>  <RotBonds>
1

>  <HAC>
17

>  <Collection>
General

>  <PPDS>
+

$$$$
F3222-1424
  Mrv2219 10102508112D          

 36 40  0  0  0  0            999 V2000
    4.9275  -10.4689    0.0000 C   0  0  0  0  0  0  0  0  0  0  0  0
    5.1681  -11.2528    0.0000 C   0  0  0  0  0  0  0  0  0  0  0  0
    6.2838  -10.0458    0.0000 N   0  0  0  0  0  0  0  0  0  0  0  0
    6.5369  -10.8297    0.0000 C   0  0  0  0  0  0  0  0  0  0  0  0
    5.9769  -11.4353    0.0000 N   0  0  0  0  0  0  0  0  0  0  0  0
    5.4792   -9.8592    0.0000 C   0  0  0  0  0  0  0  0  0  0  0  0
    4.0938  -10.4689    0.0000 C   0  0  0  0  0  0  0  0  0  0  0  0
    3.8367  -11.2404    0.0000 C   0  0  0  0  0  0  0  0  0  0  0  0
    4.4962  -11.7339    0.0000 S   0  0  0  0  0  0  0  0  0  0  0  0
    2.4762  -10.8049    0.0000 N   0  0  0  0  0  0  0  0  0  0  0  0
    3.0237  -11.4146    0.0000 C   0  0  0  0  0  0  0  0  0  0  0  0
    7.3415  -10.9998    0.0000 S   0  0  0  0  0  0  0  0  0  0  0  0
    1.6591  -10.9542    0.0000 C   0  0  0  0  0  0  0  0  0  0  0  0
    9.2495   -9.9712    0.0000 N   0  0  0  0  0  0  0  0  0  0  0  0
    3.5380   -9.8550    0.0000 C   0  0  0  0  0  0  0  0  0  0  0  0
    6.8437   -9.4444    0.0000 C   0  0  0  0  0  0  0  0  0  0  0  0
    8.6895  -10.5809    0.0000 C   0  0  0  0  0  0  0  0  0  0  0  0
    5.2179   -9.0711    0.0000 O   0  0  0  0  0  0  0  0  0  0  0  0
   10.0458  -10.1536    0.0000 C   0  0  0  0  0  0  0  0  0  0  0  0
    2.7292  -10.0209    0.0000 C   0  0  0  0  0  0  0  0  0  0  0  0
    1.3854  -11.7464    0.0000 O   0  0  0  0  0  0  0  0  0  0  0  0
    8.9384  -11.3524    0.0000 O   0  0  0  0  0  0  0  0  0  0  0  0
   10.6058   -9.5439    0.0000 C   0  0  0  0  0  0  0  0  0  0  0  0
    7.8932  -10.4067    0.0000 C   0  0  0  0  0  0  0  0  0  0  0  0
    1.1116  -10.3320    0.0000 C   0  0  0  0  0  0  0  0  0  0  0  0
   10.2947  -10.9376    0.0000 C   0  0  0  0  0  0  0  0  0  0  0  0
    6.5949   -8.6522    0.0000 C   0  0  0  0  0  0  0  0  0  0  0  0
    7.6443   -9.6186    0.0000 C   0  0  0  0  0  0  0  0  0  0  0  0
   10.3569   -8.7517    0.0000 C   0  0  0  0  0  0  0  0  0  0  0  0
   11.4104   -9.7223    0.0000 C   0  0  0  0  0  0  0  0  0  0  0  0
    9.5564   -8.5775    0.0000 C   0  0  0  0  0  0  0  0  0  0  0  0
   11.1035  -11.1159    0.0000 C   0  0  0  0  0  0  0  0  0  0  0  0
    7.1466   -8.0425    0.0000 C   0  0  0  0  0  0  0  0  0  0  0  0
   11.6593  -10.5062    0.0000 C   0  0  0  0  0  0  0  0  0  0  0  0
    8.2042   -9.0130    0.0000 C   0  0  0  0  0  0  0  0  0  0  0  0
    7.9554   -8.2167    0.0000 C   0  0  0  0  0  0  0  0  0  0  0  0
  2  1  2  0  0  0  0
  3  6  1  0  0  0  0
  4  3  1  0  0  0  0
  5  2  1  0  0  0  0
  6  1  1  0  0  0  0
  7  1  1  0  0  0  0
  8  7  2  0  0  0  0
  9  2  1  0  0  0  0
 10 20  1  0  0  0  0
 11  8  1  0  0  0  0
 12  4  1  0  0  0  0
 13 10  1  0  0  0  0
 14 17  1  0  0  0  0
 15  7  1  0  0  0  0
 16  3  1  0  0  0  0
 17 24  1  0  0  0  0
 18  6  2  0  0  0  0
 19 14  1  0  0  0  0
 20 15  1  0  0  0  0
 21 13  2  0  0  0  0
 22 17  2  0  0  0  0
 23 19  1  0  0  0  0
 24 12  1  0  0  0  0
 25 13  1  0  0  0  0
 26 19  2  0  0  0  0
 27 16  1  0  0  0  0
 28 16  2  0  0  0  0
 29 23  1  0  0  0  0
 30 23  2  0  0  0  0
 31 29  1  0  0  0  0
 32 26  1  0  0  0  0
 33 27  2  0  0  0  0
 34 32  2  0  0  0  0
 35 28  1  0  0  0  0
 36 35  2  0  0  0  0
  8  9  1  0  0  0  0
  5  4  2  0  0  0  0
 11 10  1  0  0  0  0
 33 36  1  0  0  0  0
 30 34  1  0  0  0  0
M  END
>  <IDNUMBER>
F3222-1424

>  <Chemical_Name>
2-({11-acetyl-3-oxo-4-phenyl-8-thia-4,6,11-triazatricyclo[7.4.0.0?,?]trideca-1(9),2(7),5-trien-5-yl}sulfanyl)-N-(2-ethylphenyl)acetamide

>  <PriceCoeff>
1.00

>  <CAS>
1185046-06-3

>  <MW>
518.65

>  <Description>
solid

>  <FSP3>
0.26

>  <clogP>
2.76

>  <TPSA>
135.62

>  <Acceptor>
4

>  <Donor>
1

>  <RotBonds>
7

>  <HAC>
36

>  <Collection>
General

>  <PPDS>
+

$$$$
F3222-1432
  Mrv2219 10102508112D          

 37 41  0  0  0  0            999 V2000
    6.5196   -9.6589    0.0000 C   0  0  0  0  0  0  0  0  0  0  0  0
    6.6026  -10.4894    0.0000 C   0  0  0  0  0  0  0  0  0  0  0  0
    7.9397   -9.5301    0.0000 N   0  0  0  0  0  0  0  0  0  0  0  0
    8.0227  -10.3523    0.0000 C   0  0  0  0  0  0  0  0  0  0  0  0
    7.3542  -10.8299    0.0000 N   0  0  0  0  0  0  0  0  0  0  0  0
    7.1923   -9.1813    0.0000 C   0  0  0  0  0  0  0  0  0  0  0  0
    5.7056   -9.4845    0.0000 C   0  0  0  0  0  0  0  0  0  0  0  0
    5.2987  -10.1904    0.0000 C   0  0  0  0  0  0  0  0  0  0  0  0
    5.8344  -10.8050    0.0000 S   0  0  0  0  0  0  0  0  0  0  0  0
    4.0529   -9.4845    0.0000 N   0  0  0  0  0  0  0  0  0  0  0  0
    4.4723  -10.1904    0.0000 C   0  0  0  0  0  0  0  0  0  0  0  0
    8.7744  -10.6804    0.0000 S   0  0  0  0  0  0  0  0  0  0  0  0
    3.2265   -9.4596    0.0000 C   0  0  0  0  0  0  0  0  0  0  0  0
    5.2987   -8.7744    0.0000 C   0  0  0  0  0  0  0  0  0  0  0  0
    8.6124   -9.0443    0.0000 C   0  0  0  0  0  0  0  0  0  0  0  0
    7.1051   -8.3591    0.0000 O   0  0  0  0  0  0  0  0  0  0  0  0
   10.1821  -10.5434    0.0000 C   0  0  0  0  0  0  0  0  0  0  0  0
    4.4640   -8.7744    0.0000 C   0  0  0  0  0  0  0  0  0  0  0  0
   10.2693  -11.3614    0.0000 N   0  0  0  0  0  0  0  0  0  0  0  0
    2.7947  -10.1779    0.0000 O   0  0  0  0  0  0  0  0  0  0  0  0
   10.8548  -10.0575    0.0000 O   0  0  0  0  0  0  0  0  0  0  0  0
    9.4471  -10.2070    0.0000 C   0  0  0  0  0  0  0  0  0  0  0  0
    9.5966  -11.8472    0.0000 C   0  0  0  0  0  0  0  0  0  0  0  0
    8.2719  -12.8065    0.0000 C   0  0  0  0  0  0  0  0  0  0  0  0
    9.6796  -12.6612    0.0000 C   0  0  0  0  0  0  0  0  0  0  0  0
    8.8574  -11.5109    0.0000 C   0  0  0  0  0  0  0  0  0  0  0  0
    9.0111  -13.1428    0.0000 C   0  0  0  0  0  0  0  0  0  0  0  0
    8.1889  -11.9885    0.0000 C   0  0  0  0  0  0  0  0  0  0  0  0
    7.5909  -13.2841    0.0000 O   0  0  0  0  0  0  0  0  0  0  0  0
    2.8196   -8.7370    0.0000 C   0  0  0  0  0  0  0  0  0  0  0  0
    8.5377   -8.2138    0.0000 C   0  0  0  0  0  0  0  0  0  0  0  0
    9.3682   -9.3848    0.0000 C   0  0  0  0  0  0  0  0  0  0  0  0
    7.6739  -14.1063    0.0000 C   0  0  0  0  0  0  0  0  0  0  0  0
    7.0012  -14.5879    0.0000 C   0  0  0  0  0  0  0  0  0  0  0  0
   10.0409   -8.8990    0.0000 C   0  0  0  0  0  0  0  0  0  0  0  0
    9.2062   -7.7404    0.0000 C   0  0  0  0  0  0  0  0  0  0  0  0
    9.9579   -8.0768    0.0000 C   0  0  0  0  0  0  0  0  0  0  0  0
  2  1  2  0  0  0  0
  3  6  1  0  0  0  0
  4  3  1  0  0  0  0
  5  2  1  0  0  0  0
  6  1  1  0  0  0  0
  7  1  1  0  0  0  0
  8  7  2  0  0  0  0
  9  2  1  0  0  0  0
 10 18  1  0  0  0  0
 11  8  1  0  0  0  0
 12  4  1  0  0  0  0
 13 10  1  0  0  0  0
 14  7  1  0  0  0  0
 15  3  1  0  0  0  0
 16  6  2  0  0  0  0
 17 22  1  0  0  0  0
 18 14  1  0  0  0  0
 19 17  1  0  0  0  0
 20 13  2  0  0  0  0
 21 17  2  0  0  0  0
 22 12  1  0  0  0  0
 23 19  1  0  0  0  0
 24 28  1  0  0  0  0
 25 23  2  0  0  0  0
 26 23  1  0  0  0  0
 27 25  1  0  0  0  0
 28 26  2  0  0  0  0
 29 24  1  0  0  0  0
 30 13  1  0  0  0  0
 31 15  1  0  0  0  0
 32 15  2  0  0  0  0
 33 29  1  0  0  0  0
 34 33  1  0  0  0  0
 35 32  1  0  0  0  0
 36 31  2  0  0  0  0
 37 35  2  0  0  0  0
  8  9  1  0  0  0  0
  5  4  2  0  0  0  0
 11 10  1  0  0  0  0
 36 37  1  0  0  0  0
 24 27  2  0  0  0  0
M  END
>  <IDNUMBER>
F3222-1432

>  <Chemical_Name>
2-({11-acetyl-3-oxo-4-phenyl-8-thia-4,6,11-triazatricyclo[7.4.0.0?,?]trideca-1(9),2(7),5-trien-5-yl}sulfanyl)-N-(4-ethoxyphenyl)acetamide

>  <PriceCoeff>
1.00

>  <CAS>
1215753-68-6

>  <MW>
534.65

>  <Description>
solid

>  <FSP3>
0.26

>  <clogP>
3.21

>  <TPSA>
144.85

>  <Acceptor>
5

>  <Donor>
1

>  <RotBonds>
8

>  <HAC>
37

>  <Collection>
General

>  <PPDS>
+

$$$$
F3222-1433
  Mrv2219 10102508112D          

 37 41  0  0  0  0            999 V2000
    7.7124   -9.6757    0.0000 N   0  0  0  0  0  0  0  0  0  0  0  0
    6.3177   -9.9912    0.0000 C   0  0  0  0  0  0  0  0  0  0  0  0
    6.5045  -10.7964    0.0000 C   0  0  0  0  0  0  0  0  0  0  0  0
    7.8992  -10.4768    0.0000 C   0  0  0  0  0  0  0  0  0  0  0  0
    7.2972  -11.0372    0.0000 N   0  0  0  0  0  0  0  0  0  0  0  0
    6.9278   -9.4308    0.0000 C   0  0  0  0  0  0  0  0  0  0  0  0
    5.4916   -9.9165    0.0000 C   0  0  0  0  0  0  0  0  0  0  0  0
    5.1720  -10.6719    0.0000 C   0  0  0  0  0  0  0  0  0  0  0  0
    5.7822  -11.2116    0.0000 S   0  0  0  0  0  0  0  0  0  0  0  0
    3.8520  -10.1157    0.0000 N   0  0  0  0  0  0  0  0  0  0  0  0
    8.3184   -9.1071    0.0000 C   0  0  0  0  0  0  0  0  0  0  0  0
    4.3502  -10.7757    0.0000 C   0  0  0  0  0  0  0  0  0  0  0  0
    8.6837  -10.7134    0.0000 S   0  0  0  0  0  0  0  0  0  0  0  0
    3.0260  -10.2112    0.0000 C   0  0  0  0  0  0  0  0  0  0  0  0
    4.9935   -9.2689    0.0000 C   0  0  0  0  0  0  0  0  0  0  0  0
    6.7286   -8.6172    0.0000 O   0  0  0  0  0  0  0  0  0  0  0  0
   10.0659  -10.3979    0.0000 C   0  0  0  0  0  0  0  0  0  0  0  0
    4.1716   -9.3644    0.0000 C   0  0  0  0  0  0  0  0  0  0  0  0
   10.2527  -11.1991    0.0000 N   0  0  0  0  0  0  0  0  0  0  0  0
    8.1358   -8.3059    0.0000 C   0  0  0  0  0  0  0  0  0  0  0  0
    2.6940  -10.9750    0.0000 O   0  0  0  0  0  0  0  0  0  0  0  0
   10.6636   -9.8418    0.0000 O   0  0  0  0  0  0  0  0  0  0  0  0
    9.2897  -10.1613    0.0000 C   0  0  0  0  0  0  0  0  0  0  0  0
    9.6508  -11.7595    0.0000 C   0  0  0  0  0  0  0  0  0  0  0  0
    8.4471  -12.8885    0.0000 C   0  0  0  0  0  0  0  0  0  0  0  0
    8.8705  -11.5187    0.0000 C   0  0  0  0  0  0  0  0  0  0  0  0
    9.8376  -12.5564    0.0000 C   0  0  0  0  0  0  0  0  0  0  0  0
    8.2727  -12.0791    0.0000 C   0  0  0  0  0  0  0  0  0  0  0  0
    9.2316  -13.1293    0.0000 C   0  0  0  0  0  0  0  0  0  0  0  0
    9.1071   -9.3437    0.0000 C   0  0  0  0  0  0  0  0  0  0  0  0
    2.5321   -9.5429    0.0000 C   0  0  0  0  0  0  0  0  0  0  0  0
    7.3471   -8.0610    0.0000 C   0  0  0  0  0  0  0  0  0  0  0  0
    8.7335   -7.7373    0.0000 C   0  0  0  0  0  0  0  0  0  0  0  0
    7.8369  -13.4488    0.0000 C   0  0  0  0  0  0  0  0  0  0  0  0
    9.7131   -8.7916    0.0000 C   0  0  0  0  0  0  0  0  0  0  0  0
    8.0319  -14.2500    0.0000 C   0  0  0  0  0  0  0  0  0  0  0  0
    9.5304   -7.9821    0.0000 C   0  0  0  0  0  0  0  0  0  0  0  0
  2  6  1  0  0  0  0
  3  2  2  0  0  0  0
  4  1  1  0  0  0  0
  5  4  2  0  0  0  0
  6  1  1  0  0  0  0
  7  2  1  0  0  0  0
  8  7  2  0  0  0  0
  9  3  1  0  0  0  0
 10 18  1  0  0  0  0
 11  1  1  0  0  0  0
 12  8  1  0  0  0  0
 13  4  1  0  0  0  0
 14 10  1  0  0  0  0
 15  7  1  0  0  0  0
 16  6  2  0  0  0  0
 17 23  1  0  0  0  0
 18 15  1  0  0  0  0
 19 17  1  0  0  0  0
 20 11  1  0  0  0  0
 21 14  2  0  0  0  0
 22 17  2  0  0  0  0
 23 13  1  0  0  0  0
 24 19  1  0  0  0  0
 25 29  2  0  0  0  0
 26 24  1  0  0  0  0
 27 24  2  0  0  0  0
 28 26  2  0  0  0  0
 29 27  1  0  0  0  0
 30 11  2  0  0  0  0
 31 14  1  0  0  0  0
 32 20  1  0  0  0  0
 33 20  2  0  0  0  0
 34 25  1  0  0  0  0
 35 30  1  0  0  0  0
 36 34  1  0  0  0  0
 37 35  2  0  0  0  0
  5  3  1  0  0  0  0
 33 37  1  0  0  0  0
  8  9  1  0  0  0  0
 12 10  1  0  0  0  0
 28 25  1  0  0  0  0
M  END
>  <IDNUMBER>
F3222-1433

>  <Chemical_Name>
2-{[11-acetyl-4-(2-methylphenyl)-3-oxo-8-thia-4,6,11-triazatricyclo[7.4.0.0?,?]trideca-1(9),2(7),5-trien-5-yl]sulfanyl}-N-(4-ethylphenyl)acetamide

>  <PriceCoeff>
1.00

>  <CAS>
1189883-35-9

>  <MW>
532.68

>  <Description>
solid

>  <FSP3>
0.29

>  <clogP>
4.13

>  <TPSA>
135.62

>  <Acceptor>
4

>  <Donor>
1

>  <RotBonds>
7

>  <HAC>
37

>  <Collection>
General

>  <PPDS>
+

$$$$
F3222-1434
  Mrv2219 10102508112D          

 36 40  0  0  0  0            999 V2000
    6.3259  -10.3352    0.0000 N   0  0  0  0  0  0  0  0  0  0  0  0
    4.8952  -10.4101    0.0000 C   0  0  0  0  0  0  0  0  0  0  0  0
    4.9451  -11.2336    0.0000 C   0  0  0  0  0  0  0  0  0  0  0  0
    6.3675  -11.1545    0.0000 C   0  0  0  0  0  0  0  0  0  0  0  0
    5.6771  -11.6079    0.0000 N   0  0  0  0  0  0  0  0  0  0  0  0
    5.5897   -9.9609    0.0000 C   0  0  0  0  0  0  0  0  0  0  0  0
    4.1050  -10.1980    0.0000 C   0  0  0  0  0  0  0  0  0  0  0  0
    3.6600  -10.8967    0.0000 C   0  0  0  0  0  0  0  0  0  0  0  0
    4.1715  -11.5288    0.0000 S   0  0  0  0  0  0  0  0  0  0  0  0
    2.4372  -10.1314    0.0000 N   0  0  0  0  0  0  0  0  0  0  0  0
    7.0163   -9.8861    0.0000 C   0  0  0  0  0  0  0  0  0  0  0  0
    2.8323  -10.8593    0.0000 C   0  0  0  0  0  0  0  0  0  0  0  0
    7.1161  -11.5206    0.0000 S   0  0  0  0  0  0  0  0  0  0  0  0
    1.6220  -10.1106    0.0000 C   0  0  0  0  0  0  0  0  0  0  0  0
    8.5884  -12.2567    0.0000 N   0  0  0  0  0  0  0  0  0  0  0  0
    3.7224   -9.4618    0.0000 C   0  0  0  0  0  0  0  0  0  0  0  0
    7.9022  -12.7184    0.0000 C   0  0  0  0  0  0  0  0  0  0  0  0
    5.5440   -9.1374    0.0000 O   0  0  0  0  0  0  0  0  0  0  0  0
    9.3329  -12.6310    0.0000 C   0  0  0  0  0  0  0  0  0  0  0  0
    2.8989   -9.4244    0.0000 C   0  0  0  0  0  0  0  0  0  0  0  0
    6.9664   -9.0584    0.0000 C   0  0  0  0  0  0  0  0  0  0  0  0
    1.1895  -10.8177    0.0000 O   0  0  0  0  0  0  0  0  0  0  0  0
    9.3870  -13.4503    0.0000 C   0  0  0  0  0  0  0  0  0  0  0  0
    7.9521  -13.5419    0.0000 O   0  0  0  0  0  0  0  0  0  0  0  0
    7.1661  -12.3441    0.0000 C   0  0  0  0  0  0  0  0  0  0  0  0
    8.8130  -14.0617    0.0000 Cl  0  0  0  0  0  0  0  0  0  0  0  0
    7.7483  -10.2604    0.0000 C   0  0  0  0  0  0  0  0  0  0  0  0
    1.2269   -9.3870    0.0000 C   0  0  0  0  0  0  0  0  0  0  0  0
   10.0191  -12.1694    0.0000 C   0  0  0  0  0  0  0  0  0  0  0  0
    6.2261   -8.6758    0.0000 C   0  0  0  0  0  0  0  0  0  0  0  0
    7.6527   -8.6092    0.0000 C   0  0  0  0  0  0  0  0  0  0  0  0
    9.9443  -13.7290    0.0000 C   0  0  0  0  0  0  0  0  0  0  0  0
    8.4387   -9.8070    0.0000 C   0  0  0  0  0  0  0  0  0  0  0  0
   10.7470  -12.5312    0.0000 C   0  0  0  0  0  0  0  0  0  0  0  0
   10.6222  -13.2674    0.0000 C   0  0  0  0  0  0  0  0  0  0  0  0
    8.3888   -8.9835    0.0000 C   0  0  0  0  0  0  0  0  0  0  0  0
  2  6  1  0  0  0  0
  3  2  2  0  0  0  0
  4  1  1  0  0  0  0
  5  4  2  0  0  0  0
  6  1  1  0  0  0  0
  7  2  1  0  0  0  0
  8  7  2  0  0  0  0
  9  3  1  0  0  0  0
 10 20  1  0  0  0  0
 11  1  1  0  0  0  0
 12  8  1  0  0  0  0
 13  4  1  0  0  0  0
 14 10  1  0  0  0  0
 15 17  1  0  0  0  0
 16  7  1  0  0  0  0
 17 25  1  0  0  0  0
 18  6  2  0  0  0  0
 19 15  1  0  0  0  0
 20 16  1  0  0  0  0
 21 11  1  0  0  0  0
 22 14  2  0  0  0  0
 23 19  1  0  0  0  0
 24 17  2  0  0  0  0
 25 13  1  0  0  0  0
 26 23  1  0  0  0  0
 27 11  2  0  0  0  0
 28 14  1  0  0  0  0
 29 19  2  0  0  0  0
 30 21  1  0  0  0  0
 31 21  2  0  0  0  0
 32 23  2  0  0  0  0
 33 27  1  0  0  0  0
 34 29  1  0  0  0  0
 35 34  2  0  0  0  0
 36 33  2  0  0  0  0
  3  5  1  0  0  0  0
 31 36  1  0  0  0  0
  8  9  1  0  0  0  0
 12 10  1  0  0  0  0
 35 32  1  0  0  0  0
M  END
>  <IDNUMBER>
F3222-1434

>  <Chemical_Name>
2-{[11-acetyl-4-(2-methylphenyl)-3-oxo-8-thia-4,6,11-triazatricyclo[7.4.0.0?,?]trideca-1(9),2(7),5-trien-5-yl]sulfanyl}-N-(2-chlorophenyl)acetamide

>  <PriceCoeff>
1.00

>  <CAS>
1189733-40-1

>  <MW>
539.07

>  <Description>
solid

>  <FSP3>
0.23

>  <clogP>
3.22

>  <TPSA>
135.62

>  <Acceptor>
4

>  <Donor>
1

>  <RotBonds>
6

>  <HAC>
36

>  <Collection>
General

>  <PPDS>
+

$$$$
F3222-1435
  Mrv2219 10102508112D          

 37 41  0  0  0  0            999 V2000
    6.3883  -10.0690    0.0000 N   0  0  0  0  0  0  0  0  0  0  0  0
    4.9576  -10.1065    0.0000 C   0  0  0  0  0  0  0  0  0  0  0  0
    4.9826  -10.9341    0.0000 C   0  0  0  0  0  0  0  0  0  0  0  0
    6.4132  -10.8967    0.0000 C   0  0  0  0  0  0  0  0  0  0  0  0
    5.7145  -11.3209    0.0000 N   0  0  0  0  0  0  0  0  0  0  0  0
    5.6646   -9.6739    0.0000 C   0  0  0  0  0  0  0  0  0  0  0  0
    4.1591   -9.8736    0.0000 C   0  0  0  0  0  0  0  0  0  0  0  0
    3.6974  -10.5556    0.0000 C   0  0  0  0  0  0  0  0  0  0  0  0
    4.1965  -11.2086    0.0000 S   0  0  0  0  0  0  0  0  0  0  0  0
    2.5121   -9.7488    0.0000 N   0  0  0  0  0  0  0  0  0  0  0  0
    7.0995   -9.6323    0.0000 C   0  0  0  0  0  0  0  0  0  0  0  0
    2.8697  -10.4974    0.0000 C   0  0  0  0  0  0  0  0  0  0  0  0
    7.1411  -11.2835    0.0000 S   0  0  0  0  0  0  0  0  0  0  0  0
    1.6844   -9.6822    0.0000 C   0  0  0  0  0  0  0  0  0  0  0  0
    9.2622  -10.8094    0.0000 N   0  0  0  0  0  0  0  0  0  0  0  0
    3.7972   -9.1250    0.0000 C   0  0  0  0  0  0  0  0  0  0  0  0
    8.5635  -11.2461    0.0000 C   0  0  0  0  0  0  0  0  0  0  0  0
    5.6314   -8.8380    0.0000 O   0  0  0  0  0  0  0  0  0  0  0  0
    9.9942  -11.2044    0.0000 C   0  0  0  0  0  0  0  0  0  0  0  0
    2.9737   -9.0750    0.0000 C   0  0  0  0  0  0  0  0  0  0  0  0
    7.0662   -8.8088    0.0000 C   0  0  0  0  0  0  0  0  0  0  0  0
    1.2020  -10.3602    0.0000 O   0  0  0  0  0  0  0  0  0  0  0  0
   10.6846  -10.7719    0.0000 C   0  0  0  0  0  0  0  0  0  0  0  0
    8.5884  -12.0571    0.0000 O   0  0  0  0  0  0  0  0  0  0  0  0
    7.8481  -10.8551    0.0000 C   0  0  0  0  0  0  0  0  0  0  0  0
   10.6721   -9.9360    0.0000 O   0  0  0  0  0  0  0  0  0  0  0  0
    7.8231  -10.0233    0.0000 C   0  0  0  0  0  0  0  0  0  0  0  0
    1.3226   -8.9253    0.0000 C   0  0  0  0  0  0  0  0  0  0  0  0
   10.0191  -12.0279    0.0000 C   0  0  0  0  0  0  0  0  0  0  0  0
    6.3426   -8.4138    0.0000 C   0  0  0  0  0  0  0  0  0  0  0  0
    7.7774   -8.3721    0.0000 C   0  0  0  0  0  0  0  0  0  0  0  0
   11.4207  -11.1587    0.0000 C   0  0  0  0  0  0  0  0  0  0  0  0
    9.9484   -9.5492    0.0000 C   0  0  0  0  0  0  0  0  0  0  0  0
    8.5261   -9.5949    0.0000 C   0  0  0  0  0  0  0  0  0  0  0  0
   10.7470  -12.4189    0.0000 C   0  0  0  0  0  0  0  0  0  0  0  0
    8.5011   -8.7631    0.0000 C   0  0  0  0  0  0  0  0  0  0  0  0
   11.4457  -11.9822    0.0000 C   0  0  0  0  0  0  0  0  0  0  0  0
  2  6  1  0  0  0  0
  3  2  2  0  0  0  0
  4  1  1  0  0  0  0
  5  4  2  0  0  0  0
  6  1  1  0  0  0  0
  7  2  1  0  0  0  0
  8  7  2  0  0  0  0
  9  3  1  0  0  0  0
 10 20  1  0  0  0  0
 11  1  1  0  0  0  0
 12  8  1  0  0  0  0
 13  4  1  0  0  0  0
 14 10  1  0  0  0  0
 15 17  1  0  0  0  0
 16  7  1  0  0  0  0
 17 25  1  0  0  0  0
 18  6  2  0  0  0  0
 19 15  1  0  0  0  0
 20 16  1  0  0  0  0
 21 11  1  0  0  0  0
 22 14  2  0  0  0  0
 23 19  1  0  0  0  0
 24 17  2  0  0  0  0
 25 13  1  0  0  0  0
 26 23  1  0  0  0  0
 27 11  2  0  0  0  0
 28 14  1  0  0  0  0
 29 19  2  0  0  0  0
 30 21  1  0  0  0  0
 31 21  2  0  0  0  0
 32 23  2  0  0  0  0
 33 26  1  0  0  0  0
 34 27  1  0  0  0  0
 35 29  1  0  0  0  0
 36 34  2  0  0  0  0
 37 35  2  0  0  0  0
  5  3  1  0  0  0  0
 31 36  1  0  0  0  0
  8  9  1  0  0  0  0
 12 10  1  0  0  0  0
 32 37  1  0  0  0  0
M  END
>  <IDNUMBER>
F3222-1435

>  <Chemical_Name>
2-{[11-acetyl-4-(2-methylphenyl)-3-oxo-8-thia-4,6,11-triazatricyclo[7.4.0.0?,?]trideca-1(9),2(7),5-trien-5-yl]sulfanyl}-N-(2-methoxyphenyl)acetamide

>  <PriceCoeff>
1.00

>  <CAS>
1216861-77-6

>  <MW>
534.65

>  <Description>
solid

>  <FSP3>
0.26

>  <clogP>
2.59

>  <TPSA>
144.85

>  <Acceptor>
5

>  <Donor>
1

>  <RotBonds>
7

>  <HAC>
37

>  <Collection>
General

>  <PPDS>
+

$$$$
F3222-1436
  Mrv2219 10102508112D          

 37 41  0  0  0  0            999 V2000
    7.6585  -10.2572    0.0000 N   0  0  0  0  0  0  0  0  0  0  0  0
    6.2283  -10.3320    0.0000 C   0  0  0  0  0  0  0  0  0  0  0  0
    6.2782  -11.1511    0.0000 C   0  0  0  0  0  0  0  0  0  0  0  0
    7.7001  -11.0680    0.0000 C   0  0  0  0  0  0  0  0  0  0  0  0
    7.0100  -11.5252    0.0000 N   0  0  0  0  0  0  0  0  0  0  0  0
    6.9227   -9.8830    0.0000 C   0  0  0  0  0  0  0  0  0  0  0  0
    5.4383  -10.1200    0.0000 C   0  0  0  0  0  0  0  0  0  0  0  0
    4.9934  -10.8143    0.0000 C   0  0  0  0  0  0  0  0  0  0  0  0
    5.5049  -11.4421    0.0000 S   0  0  0  0  0  0  0  0  0  0  0  0
    3.7794  -10.0451    0.0000 N   0  0  0  0  0  0  0  0  0  0  0  0
    8.3488   -9.8040    0.0000 C   0  0  0  0  0  0  0  0  0  0  0  0
    4.1661  -10.7769    0.0000 C   0  0  0  0  0  0  0  0  0  0  0  0
    8.4486  -11.4379    0.0000 S   0  0  0  0  0  0  0  0  0  0  0  0
    2.9561  -10.0285    0.0000 C   0  0  0  0  0  0  0  0  0  0  0  0
    5.0559   -9.3841    0.0000 C   0  0  0  0  0  0  0  0  0  0  0  0
    6.8770   -9.0597    0.0000 O   0  0  0  0  0  0  0  0  0  0  0  0
    9.2343  -12.6354    0.0000 C   0  0  0  0  0  0  0  0  0  0  0  0
    4.2326   -9.3425    0.0000 C   0  0  0  0  0  0  0  0  0  0  0  0
    9.2842  -13.4586    0.0000 N   0  0  0  0  0  0  0  0  0  0  0  0
   10.8060  -15.0219    0.0000 C   0  0  0  0  0  0  0  0  0  0  0  0
   10.0202  -13.8246    0.0000 C   0  0  0  0  0  0  0  0  0  0  0  0
   10.0701  -14.6477    0.0000 C   0  0  0  0  0  0  0  0  0  0  0  0
   11.5045  -14.5604    0.0000 C   0  0  0  0  0  0  0  0  0  0  0  0
    8.2989   -8.9724    0.0000 C   0  0  0  0  0  0  0  0  0  0  0  0
    2.5238  -10.7311    0.0000 O   0  0  0  0  0  0  0  0  0  0  0  0
    9.9204  -12.1780    0.0000 O   0  0  0  0  0  0  0  0  0  0  0  0
    8.4985  -12.2654    0.0000 C   0  0  0  0  0  0  0  0  0  0  0  0
   11.4546  -13.7372    0.0000 C   0  0  0  0  0  0  0  0  0  0  0  0
   10.7144  -13.3713    0.0000 C   0  0  0  0  0  0  0  0  0  0  0  0
    9.0805  -10.1781    0.0000 C   0  0  0  0  0  0  0  0  0  0  0  0
    2.5612   -9.3092    0.0000 C   0  0  0  0  0  0  0  0  0  0  0  0
   10.8435  -15.8452    0.0000 C   0  0  0  0  0  0  0  0  0  0  0  0
   12.2529  -14.9346    0.0000 C   0  0  0  0  0  0  0  0  0  0  0  0
    7.5587   -8.5940    0.0000 C   0  0  0  0  0  0  0  0  0  0  0  0
    8.9849   -8.5234    0.0000 C   0  0  0  0  0  0  0  0  0  0  0  0
    9.7707   -9.7208    0.0000 C   0  0  0  0  0  0  0  0  0  0  0  0
    9.7208   -8.8976    0.0000 C   0  0  0  0  0  0  0  0  0  0  0  0
  2  6  1  0  0  0  0
  3  2  2  0  0  0  0
  4  1  1  0  0  0  0
  5  4  2  0  0  0  0
  6  1  1  0  0  0  0
  7  2  1  0  0  0  0
  8  7  2  0  0  0  0
  9  3  1  0  0  0  0
 10 18  1  0  0  0  0
 11  1  1  0  0  0  0
 12  8  1  0  0  0  0
 13  4  1  0  0  0  0
 14 10  1  0  0  0  0
 15  7  1  0  0  0  0
 16  6  2  0  0  0  0
 17 27  1  0  0  0  0
 18 15  1  0  0  0  0
 19 17  1  0  0  0  0
 20 22  2  0  0  0  0
 21 19  1  0  0  0  0
 22 21  1  0  0  0  0
 23 28  2  0  0  0  0
 24 11  1  0  0  0  0
 25 14  2  0  0  0  0
 26 17  2  0  0  0  0
 27 13  1  0  0  0  0
 28 29  1  0  0  0  0
 29 21  2  0  0  0  0
 30 11  2  0  0  0  0
 31 14  1  0  0  0  0
 32 20  1  0  0  0  0
 33 23  1  0  0  0  0
 34 24  1  0  0  0  0
 35 24  2  0  0  0  0
 36 30  1  0  0  0  0
 37 36  2  0  0  0  0
  5  3  1  0  0  0  0
 35 37  1  0  0  0  0
  8  9  1  0  0  0  0
 12 10  1  0  0  0  0
 20 23  1  0  0  0  0
M  END
>  <IDNUMBER>
F3222-1436

>  <Chemical_Name>
2-{[11-acetyl-4-(2-methylphenyl)-3-oxo-8-thia-4,6,11-triazatricyclo[7.4.0.0?,?]trideca-1(9),2(7),5-trien-5-yl]sulfanyl}-N-(3,4-dimethylphenyl)acetamide

>  <PriceCoeff>
1.00

>  <CAS>
1189691-40-4

>  <MW>
532.68

>  <Description>
solid

>  <FSP3>
0.29

>  <clogP>
4.05

>  <TPSA>
135.62

>  <Acceptor>
4

>  <Donor>
1

>  <RotBonds>
6

>  <HAC>
37

>  <Collection>
General

>  <PPDS>
+

$$$$
F3222-1437
  Mrv2219 10102508112D          

 37 41  0  0  0  0            999 V2000
    7.2073   -9.5516    0.0000 N   0  0  0  0  0  0  0  0  0  0  0  0
    5.7924   -9.7384    0.0000 C   0  0  0  0  0  0  0  0  0  0  0  0
    5.9044  -10.5599    0.0000 C   0  0  0  0  0  0  0  0  0  0  0  0
    7.3235  -10.3690    0.0000 C   0  0  0  0  0  0  0  0  0  0  0  0
    6.6762  -10.8669    0.0000 N   0  0  0  0  0  0  0  0  0  0  0  0
    6.4397   -9.2404    0.0000 C   0  0  0  0  0  0  0  0  0  0  0  0
    4.9709   -9.6097    0.0000 C   0  0  0  0  0  0  0  0  0  0  0  0
    4.5974  -10.3234    0.0000 C   0  0  0  0  0  0  0  0  0  0  0  0
    5.1576  -10.9209    0.0000 S   0  0  0  0  0  0  0  0  0  0  0  0
    3.3277   -9.6637    0.0000 N   0  0  0  0  0  0  0  0  0  0  0  0
    7.8587   -9.0371    0.0000 C   0  0  0  0  0  0  0  0  0  0  0  0
    3.7634  -10.3607    0.0000 C   0  0  0  0  0  0  0  0  0  0  0  0
    8.0828  -10.6678    0.0000 S   0  0  0  0  0  0  0  0  0  0  0  0
    2.4937   -9.6886    0.0000 C   0  0  0  0  0  0  0  0  0  0  0  0
    4.5310   -8.9126    0.0000 C   0  0  0  0  0  0  0  0  0  0  0  0
    6.3152   -8.4147    0.0000 O   0  0  0  0  0  0  0  0  0  0  0  0
    9.4894  -10.4728    0.0000 C   0  0  0  0  0  0  0  0  0  0  0  0
    3.7012   -8.9417    0.0000 C   0  0  0  0  0  0  0  0  0  0  0  0
    9.6097  -11.2819    0.0000 N   0  0  0  0  0  0  0  0  0  0  0  0
    7.7425   -8.2155    0.0000 C   0  0  0  0  0  0  0  0  0  0  0  0
    2.0954  -10.4188    0.0000 O   0  0  0  0  0  0  0  0  0  0  0  0
   10.1367   -9.9624    0.0000 O   0  0  0  0  0  0  0  0  0  0  0  0
    8.7383  -10.1698    0.0000 C   0  0  0  0  0  0  0  0  0  0  0  0
    8.9624  -11.7881    0.0000 C   0  0  0  0  0  0  0  0  0  0  0  0
    9.0744  -12.6096    0.0000 C   0  0  0  0  0  0  0  0  0  0  0  0
    9.3027  -14.2320    0.0000 C   0  0  0  0  0  0  0  0  0  0  0  0
    9.8379  -12.9125    0.0000 C   0  0  0  0  0  0  0  0  0  0  0  0
    8.4272  -13.1117    0.0000 C   0  0  0  0  0  0  0  0  0  0  0  0
    8.5434  -13.9291    0.0000 C   0  0  0  0  0  0  0  0  0  0  0  0
    9.9500  -13.7341    0.0000 C   0  0  0  0  0  0  0  0  0  0  0  0
    8.6181   -9.3400    0.0000 C   0  0  0  0  0  0  0  0  0  0  0  0
    2.0539   -8.9790    0.0000 C   0  0  0  0  0  0  0  0  0  0  0  0
    6.9749   -7.9085    0.0000 C   0  0  0  0  0  0  0  0  0  0  0  0
    8.3940   -7.7094    0.0000 C   0  0  0  0  0  0  0  0  0  0  0  0
    9.4147  -15.0660    0.0000 C   0  0  0  0  0  0  0  0  0  0  0  0
    9.2736   -8.8421    0.0000 C   0  0  0  0  0  0  0  0  0  0  0  0
    9.1533   -8.0206    0.0000 C   0  0  0  0  0  0  0  0  0  0  0  0
  2  6  1  0  0  0  0
  3  2  2  0  0  0  0
  4  1  1  0  0  0  0
  5  4  2  0  0  0  0
  6  1  1  0  0  0  0
  7  2  1  0  0  0  0
  8  7  2  0  0  0  0
  9  3  1  0  0  0  0
 10 18  1  0  0  0  0
 11  1  1  0  0  0  0
 12  8  1  0  0  0  0
 13  4  1  0  0  0  0
 14 10  1  0  0  0  0
 15  7  1  0  0  0  0
 16  6  2  0  0  0  0
 17 23  1  0  0  0  0
 18 15  1  0  0  0  0
 19 17  1  0  0  0  0
 20 11  1  0  0  0  0
 21 14  2  0  0  0  0
 22 17  2  0  0  0  0
 23 13  1  0  0  0  0
 24 19  1  0  0  0  0
 25 24  1  0  0  0  0
 26 29  1  0  0  0  0
 27 25  2  0  0  0  0
 28 25  1  0  0  0  0
 29 28  2  0  0  0  0
 30 27  1  0  0  0  0
 31 11  2  0  0  0  0
 32 14  1  0  0  0  0
 33 20  1  0  0  0  0
 34 20  2  0  0  0  0
 35 26  1  0  0  0  0
 36 31  1  0  0  0  0
 37 36  2  0  0  0  0
  5  3  1  0  0  0  0
 34 37  1  0  0  0  0
  8  9  1  0  0  0  0
 12 10  1  0  0  0  0
 30 26  2  0  0  0  0
M  END
>  <IDNUMBER>
F3222-1437

>  <Chemical_Name>
2-{[11-acetyl-4-(2-methylphenyl)-3-oxo-8-thia-4,6,11-triazatricyclo[7.4.0.0?,?]trideca-1(9),2(7),5-trien-5-yl]sulfanyl}-N-[(4-methylphenyl)methyl]acetamide

>  <PriceCoeff>
1.00

>  <CAS>
1216754-49-2

>  <MW>
532.68

>  <Description>
solid

>  <FSP3>
0.29

>  <clogP>
3.50

>  <TPSA>
135.62

>  <Acceptor>
4

>  <Donor>
1

>  <RotBonds>
7

>  <HAC>
37

>  <Collection>
General

>  <PPDS>
+

$$$$
F3222-1438
  Mrv2219 10102508112D          

 37 41  0  0  0  0            999 V2000
    7.7857   -9.9318    0.0000 N   0  0  0  0  0  0  0  0  0  0  0  0
    6.3550  -10.0066    0.0000 C   0  0  0  0  0  0  0  0  0  0  0  0
    6.4049  -10.8218    0.0000 C   0  0  0  0  0  0  0  0  0  0  0  0
    7.8273  -10.7470    0.0000 C   0  0  0  0  0  0  0  0  0  0  0  0
    7.1369  -11.1962    0.0000 N   0  0  0  0  0  0  0  0  0  0  0  0
    7.0496   -9.5575    0.0000 C   0  0  0  0  0  0  0  0  0  0  0  0
    5.5648   -9.7945    0.0000 C   0  0  0  0  0  0  0  0  0  0  0  0
    5.1198  -10.4850    0.0000 C   0  0  0  0  0  0  0  0  0  0  0  0
    5.6314  -11.1213    0.0000 S   0  0  0  0  0  0  0  0  0  0  0  0
    3.9053   -9.7239    0.0000 N   0  0  0  0  0  0  0  0  0  0  0  0
    8.4761   -9.4743    0.0000 C   0  0  0  0  0  0  0  0  0  0  0  0
    4.2921  -10.4475    0.0000 C   0  0  0  0  0  0  0  0  0  0  0  0
    8.5760  -11.1088    0.0000 S   0  0  0  0  0  0  0  0  0  0  0  0
    3.0818   -9.6989    0.0000 C   0  0  0  0  0  0  0  0  0  0  0  0
    5.1822   -9.0584    0.0000 C   0  0  0  0  0  0  0  0  0  0  0  0
    7.0038   -8.7340    0.0000 O   0  0  0  0  0  0  0  0  0  0  0  0
    9.3620  -12.3066    0.0000 C   0  0  0  0  0  0  0  0  0  0  0  0
    4.3587   -9.0127    0.0000 C   0  0  0  0  0  0  0  0  0  0  0  0
    9.4119  -13.1301    0.0000 N   0  0  0  0  0  0  0  0  0  0  0  0
    8.4262   -8.6508    0.0000 C   0  0  0  0  0  0  0  0  0  0  0  0
    2.6493  -10.4101    0.0000 O   0  0  0  0  0  0  0  0  0  0  0  0
   10.0483  -11.8574    0.0000 O   0  0  0  0  0  0  0  0  0  0  0  0
    8.6259  -11.9406    0.0000 C   0  0  0  0  0  0  0  0  0  0  0  0
   10.1481  -13.5044    0.0000 C   0  0  0  0  0  0  0  0  0  0  0  0
   11.6329  -14.2406    0.0000 C   0  0  0  0  0  0  0  0  0  0  0  0
   10.1980  -14.3279    0.0000 C   0  0  0  0  0  0  0  0  0  0  0  0
   10.8426  -13.0428    0.0000 C   0  0  0  0  0  0  0  0  0  0  0  0
   10.9341  -14.6980    0.0000 C   0  0  0  0  0  0  0  0  0  0  0  0
   11.5829  -13.4129    0.0000 C   0  0  0  0  0  0  0  0  0  0  0  0
    9.2081   -9.8486    0.0000 C   0  0  0  0  0  0  0  0  0  0  0  0
   12.3815  -14.6107    0.0000 O   0  0  0  0  0  0  0  0  0  0  0  0
    2.6868   -8.9835    0.0000 C   0  0  0  0  0  0  0  0  0  0  0  0
    7.6859   -8.2640    0.0000 C   0  0  0  0  0  0  0  0  0  0  0  0
    9.1125   -8.2017    0.0000 C   0  0  0  0  0  0  0  0  0  0  0  0
   12.4397  -15.4384    0.0000 C   0  0  0  0  0  0  0  0  0  0  0  0
    9.8985   -9.3995    0.0000 C   0  0  0  0  0  0  0  0  0  0  0  0
    9.8486   -8.5760    0.0000 C   0  0  0  0  0  0  0  0  0  0  0  0
  2  6  1  0  0  0  0
  3  2  2  0  0  0  0
  4  1  1  0  0  0  0
  5  4  2  0  0  0  0
  6  1  1  0  0  0  0
  7  2  1  0  0  0  0
  8  7  2  0  0  0  0
  9  3  1  0  0  0  0
 10 18  1  0  0  0  0
 11  1  1  0  0  0  0
 12  8  1  0  0  0  0
 13  4  1  0  0  0  0
 14 10  1  0  0  0  0
 15  7  1  0  0  0  0
 16  6  2  0  0  0  0
 17 23  1  0  0  0  0
 18 15  1  0  0  0  0
 19 17  1  0  0  0  0
 20 11  1  0  0  0  0
 21 14  2  0  0  0  0
 22 17  2  0  0  0  0
 23 13  1  0  0  0  0
 24 19  1  0  0  0  0
 25 29  2  0  0  0  0
 26 24  1  0  0  0  0
 27 24  2  0  0  0  0
 28 26  2  0  0  0  0
 29 27  1  0  0  0  0
 30 11  2  0  0  0  0
 31 25  1  0  0  0  0
 32 14  1  0  0  0  0
 33 20  1  0  0  0  0
 34 20  2  0  0  0  0
 35 31  1  0  0  0  0
 36 30  1  0  0  0  0
 37 36  2  0  0  0  0
  5  3  1  0  0  0  0
 34 37  1  0  0  0  0
  8  9  1  0  0  0  0
 12 10  1  0  0  0  0
 28 25  1  0  0  0  0
M  END
>  <IDNUMBER>
F3222-1438

>  <Chemical_Name>
2-{[11-acetyl-4-(2-methylphenyl)-3-oxo-8-thia-4,6,11-triazatricyclo[7.4.0.0?,?]trideca-1(9),2(7),5-trien-5-yl]sulfanyl}-N-(4-methoxyphenyl)acetamide

>  <PriceCoeff>
1.00

>  <CAS>
1216560-68-7

>  <MW>
534.65

>  <Description>
solid

>  <FSP3>
0.26

>  <clogP>
3.18

>  <TPSA>
144.85

>  <Acceptor>
5

>  <Donor>
1

>  <RotBonds>
7

>  <HAC>
37

>  <Collection>
General

>  <PPDS>
+

$$$$
F3222-1439
  Mrv2219 10102508112D          

 37 41  0  0  0  0            999 V2000
    6.0106   -9.9011    0.0000 N   0  0  0  0  0  0  0  0  0  0  0  0
    4.5902  -10.0135    0.0000 C   0  0  0  0  0  0  0  0  0  0  0  0
    4.6610  -10.8383    0.0000 C   0  0  0  0  0  0  0  0  0  0  0  0
    6.0773  -10.7258    0.0000 C   0  0  0  0  0  0  0  0  0  0  0  0
    5.4025  -11.1881    0.0000 N   0  0  0  0  0  0  0  0  0  0  0  0
    5.2650   -9.5512    0.0000 C   0  0  0  0  0  0  0  0  0  0  0  0
    3.7780   -9.8386    0.0000 C   0  0  0  0  0  0  0  0  0  0  0  0
    3.3656  -10.5384    0.0000 C   0  0  0  0  0  0  0  0  0  0  0  0
    3.8905  -11.1632    0.0000 S   0  0  0  0  0  0  0  0  0  0  0  0
    2.1285   -9.8011    0.0000 N   0  0  0  0  0  0  0  0  0  0  0  0
    6.6896   -9.4220    0.0000 C   0  0  0  0  0  0  0  0  0  0  0  0
    2.5284  -10.5259    0.0000 C   0  0  0  0  0  0  0  0  0  0  0  0
    6.8270  -11.0632    0.0000 S   0  0  0  0  0  0  0  0  0  0  0  0
    1.3038   -9.7761    0.0000 C   0  0  0  0  0  0  0  0  0  0  0  0
    8.9139  -10.4759    0.0000 N   0  0  0  0  0  0  0  0  0  0  0  0
    3.3739   -9.1221    0.0000 C   0  0  0  0  0  0  0  0  0  0  0  0
    9.6636  -10.8258    0.0000 C   0  0  0  0  0  0  0  0  0  0  0  0
    8.2474  -10.9465    0.0000 C   0  0  0  0  0  0  0  0  0  0  0  0
    5.1901   -8.7222    0.0000 O   0  0  0  0  0  0  0  0  0  0  0  0
    9.7344  -11.6380    0.0000 C   0  0  0  0  0  0  0  0  0  0  0  0
    2.5492   -9.1013    0.0000 C   0  0  0  0  0  0  0  0  0  0  0  0
    6.6146   -8.6015    0.0000 C   0  0  0  0  0  0  0  0  0  0  0  0
    0.8664  -10.4884    0.0000 O   0  0  0  0  0  0  0  0  0  0  0  0
   10.4842  -11.9879    0.0000 C   0  0  0  0  0  0  0  0  0  0  0  0
    8.3141  -11.7630    0.0000 O   0  0  0  0  0  0  0  0  0  0  0  0
   10.3384  -10.3467    0.0000 C   0  0  0  0  0  0  0  0  0  0  0  0
    7.5018  -10.6008    0.0000 C   0  0  0  0  0  0  0  0  0  0  0  0
   11.1507  -11.5255    0.0000 C   0  0  0  0  0  0  0  0  0  0  0  0
   11.0882  -10.6966    0.0000 C   0  0  0  0  0  0  0  0  0  0  0  0
    7.4393   -9.7719    0.0000 C   0  0  0  0  0  0  0  0  0  0  0  0
    0.9039   -9.0471    0.0000 C   0  0  0  0  0  0  0  0  0  0  0  0
    9.0513  -12.1129    0.0000 C   0  0  0  0  0  0  0  0  0  0  0  0
    5.8731   -8.2516    0.0000 C   0  0  0  0  0  0  0  0  0  0  0  0
    7.2894   -8.1349    0.0000 C   0  0  0  0  0  0  0  0  0  0  0  0
   11.9004  -11.8754    0.0000 C   0  0  0  0  0  0  0  0  0  0  0  0
    8.1141   -9.3012    0.0000 C   0  0  0  0  0  0  0  0  0  0  0  0
    8.0391   -8.4848    0.0000 C   0  0  0  0  0  0  0  0  0  0  0  0
  2  6  1  0  0  0  0
  3  2  2  0  0  0  0
  4  1  1  0  0  0  0
  5  4  2  0  0  0  0
  6  1  1  0  0  0  0
  7  2  1  0  0  0  0
  8  7  2  0  0  0  0
  9  3  1  0  0  0  0
 10 21  1  0  0  0  0
 11  1  1  0  0  0  0
 12  8  1  0  0  0  0
 13  4  1  0  0  0  0
 14 10  1  0  0  0  0
 15 18  1  0  0  0  0
 16  7  1  0  0  0  0
 17 15  1  0  0  0  0
 18 27  1  0  0  0  0
 19  6  2  0  0  0  0
 20 17  1  0  0  0  0
 21 16  1  0  0  0  0
 22 11  1  0  0  0  0
 23 14  2  0  0  0  0
 24 20  2  0  0  0  0
 25 18  2  0  0  0  0
 26 17  2  0  0  0  0
 27 13  1  0  0  0  0
 28 29  2  0  0  0  0
 29 26  1  0  0  0  0
 30 11  2  0  0  0  0
 31 14  1  0  0  0  0
 32 20  1  0  0  0  0
 33 22  1  0  0  0  0
 34 22  2  0  0  0  0
 35 28  1  0  0  0  0
 36 30  1  0  0  0  0
 37 36  2  0  0  0  0
  5  3  1  0  0  0  0
 34 37  1  0  0  0  0
  8  9  1  0  0  0  0
 12 10  1  0  0  0  0
 24 28  1  0  0  0  0
M  END
>  <IDNUMBER>
F3222-1439

>  <Chemical_Name>
2-{[11-acetyl-4-(2-methylphenyl)-3-oxo-8-thia-4,6,11-triazatricyclo[7.4.0.0?,?]trideca-1(9),2(7),5-trien-5-yl]sulfanyl}-N-(2,4-dimethylphenyl)acetamide

>  <PriceCoeff>
1.00

>  <CAS>
1185057-09-3

>  <MW>
532.68

>  <Description>
solid

>  <FSP3>
0.29

>  <clogP>
3.45

>  <TPSA>
135.62

>  <Acceptor>
4

>  <Donor>
1

>  <RotBonds>
6

>  <HAC>
37

>  <Collection>
General

>  <PPDS>
+

$$$$
F3222-1440
  Mrv2219 10102508112D          

 36 40  0  0  0  0            999 V2000
    7.1245  -10.2877    0.0000 N   0  0  0  0  0  0  0  0  0  0  0  0
    5.7154  -10.5247    0.0000 C   0  0  0  0  0  0  0  0  0  0  0  0
    5.8609  -11.3394    0.0000 C   0  0  0  0  0  0  0  0  0  0  0  0
    7.2700  -11.1025    0.0000 C   0  0  0  0  0  0  0  0  0  0  0  0
    6.6340  -11.6262    0.0000 N   0  0  0  0  0  0  0  0  0  0  0  0
    6.3514   -9.9926    0.0000 C   0  0  0  0  0  0  0  0  0  0  0  0
    4.8924  -10.4124    0.0000 C   0  0  0  0  0  0  0  0  0  0  0  0
    4.5308  -11.1524    0.0000 C   0  0  0  0  0  0  0  0  0  0  0  0
    5.1169  -11.7260    0.0000 S   0  0  0  0  0  0  0  0  0  0  0  0
    3.2464  -10.5289    0.0000 N   0  0  0  0  0  0  0  0  0  0  0  0
    7.7605   -9.7557    0.0000 C   0  0  0  0  0  0  0  0  0  0  0  0
    3.7078  -11.2147    0.0000 C   0  0  0  0  0  0  0  0  0  0  0  0
    8.0473  -11.3768    0.0000 S   0  0  0  0  0  0  0  0  0  0  0  0
    2.4109  -10.5745    0.0000 C   0  0  0  0  0  0  0  0  0  0  0  0
    9.5894  -11.9380    0.0000 N   0  0  0  0  0  0  0  0  0  0  0  0
    4.4268   -9.7308    0.0000 C   0  0  0  0  0  0  0  0  0  0  0  0
    9.4440  -11.1399    0.0000 C   0  0  0  0  0  0  0  0  0  0  0  0
    6.2018   -9.1821    0.0000 O   0  0  0  0  0  0  0  0  0  0  0  0
    8.9576  -12.4742    0.0000 C   0  0  0  0  0  0  0  0  0  0  0  0
    3.6038   -9.7931    0.0000 C   0  0  0  0  0  0  0  0  0  0  0  0
    7.6192   -8.9327    0.0000 C   0  0  0  0  0  0  0  0  0  0  0  0
    2.0451  -11.3145    0.0000 O   0  0  0  0  0  0  0  0  0  0  0  0
    9.0948  -13.2847    0.0000 C   0  0  0  0  0  0  0  0  0  0  0  0
   10.0757  -10.6037    0.0000 O   0  0  0  0  0  0  0  0  0  0  0  0
    8.6791  -10.8531    0.0000 C   0  0  0  0  0  0  0  0  0  0  0  0
    9.8679  -13.5715    0.0000 F   0  0  0  0  0  0  0  0  0  0  0  0
    8.5337  -10.0425    0.0000 C   0  0  0  0  0  0  0  0  0  0  0  0
    1.9495   -9.8762    0.0000 C   0  0  0  0  0  0  0  0  0  0  0  0
    8.1845  -12.1956    0.0000 C   0  0  0  0  0  0  0  0  0  0  0  0
    6.8460   -8.6542    0.0000 C   0  0  0  0  0  0  0  0  0  0  0  0
    8.2551   -8.4090    0.0000 C   0  0  0  0  0  0  0  0  0  0  0  0
    8.4671  -13.8209    0.0000 C   0  0  0  0  0  0  0  0  0  0  0  0
    9.1696   -9.5188    0.0000 C   0  0  0  0  0  0  0  0  0  0  0  0
    7.5568  -12.7236    0.0000 C   0  0  0  0  0  0  0  0  0  0  0  0
    9.0325   -8.6958    0.0000 C   0  0  0  0  0  0  0  0  0  0  0  0
    7.6982  -13.5341    0.0000 C   0  0  0  0  0  0  0  0  0  0  0  0
  2  6  1  0  0  0  0
  3  2  2  0  0  0  0
  4  1  1  0  0  0  0
  5  4  2  0  0  0  0
  6  1  1  0  0  0  0
  7  2  1  0  0  0  0
  8  7  2  0  0  0  0
  9  3  1  0  0  0  0
 10 20  1  0  0  0  0
 11  1  1  0  0  0  0
 12  8  1  0  0  0  0
 13  4  1  0  0  0  0
 14 10  1  0  0  0  0
 15 17  1  0  0  0  0
 16  7  1  0  0  0  0
 17 25  1  0  0  0  0
 18  6  2  0  0  0  0
 19 15  1  0  0  0  0
 20 16  1  0  0  0  0
 21 11  1  0  0  0  0
 22 14  2  0  0  0  0
 23 19  1  0  0  0  0
 24 17  2  0  0  0  0
 25 13  1  0  0  0  0
 26 23  1  0  0  0  0
 27 11  2  0  0  0  0
 28 14  1  0  0  0  0
 29 19  2  0  0  0  0
 30 21  1  0  0  0  0
 31 21  2  0  0  0  0
 32 23  2  0  0  0  0
 33 27  1  0  0  0  0
 34 29  1  0  0  0  0
 35 33  2  0  0  0  0
 36 34  2  0  0  0  0
  3  5  1  0  0  0  0
 31 35  1  0  0  0  0
  8  9  1  0  0  0  0
 12 10  1  0  0  0  0
 32 36  1  0  0  0  0
M  END
>  <IDNUMBER>
F3222-1440

>  <Chemical_Name>
2-{[11-acetyl-4-(2-methylphenyl)-3-oxo-8-thia-4,6,11-triazatricyclo[7.4.0.0?,?]trideca-1(9),2(7),5-trien-5-yl]sulfanyl}-N-(2-fluorophenyl)acetamide

>  <PriceCoeff>
1.00

>  <CAS>
1189501-86-7

>  <MW>
522.61

>  <Description>
solid

>  <FSP3>
0.23

>  <clogP>
2.90

>  <TPSA>
135.62

>  <Acceptor>
4

>  <Donor>
1

>  <RotBonds>
6

>  <HAC>
36

>  <Collection>
General

>  <PPDS>
+

$$$$
F3222-1441
  Mrv2219 10102508112D          

 35 39  0  0  0  0            999 V2000
    7.5202  -10.5739    0.0000 N   0  0  0  0  0  0  0  0  0  0  0  0
    6.0950  -10.6487    0.0000 C   0  0  0  0  0  0  0  0  0  0  0  0
    6.1366  -11.4713    0.0000 C   0  0  0  0  0  0  0  0  0  0  0  0
    7.5658  -11.3924    0.0000 C   0  0  0  0  0  0  0  0  0  0  0  0
    6.8720  -11.8453    0.0000 N   0  0  0  0  0  0  0  0  0  0  0  0
    6.7848  -10.2000    0.0000 C   0  0  0  0  0  0  0  0  0  0  0  0
    5.3015  -10.4368    0.0000 C   0  0  0  0  0  0  0  0  0  0  0  0
    4.8528  -11.1348    0.0000 C   0  0  0  0  0  0  0  0  0  0  0  0
    5.3721  -11.7663    0.0000 S   0  0  0  0  0  0  0  0  0  0  0  0
    3.6438  -10.3703    0.0000 N   0  0  0  0  0  0  0  0  0  0  0  0
    8.2057  -10.1252    0.0000 C   0  0  0  0  0  0  0  0  0  0  0  0
    4.0302  -11.0974    0.0000 C   0  0  0  0  0  0  0  0  0  0  0  0
    8.3054  -11.7580    0.0000 S   0  0  0  0  0  0  0  0  0  0  0  0
    2.8211  -10.3495    0.0000 C   0  0  0  0  0  0  0  0  0  0  0  0
    4.9234   -9.7014    0.0000 C   0  0  0  0  0  0  0  0  0  0  0  0
    6.7432   -9.3773    0.0000 O   0  0  0  0  0  0  0  0  0  0  0  0
    9.0989  -12.9546    0.0000 C   0  0  0  0  0  0  0  0  0  0  0  0
    4.1007   -9.6640    0.0000 C   0  0  0  0  0  0  0  0  0  0  0  0
    9.1488  -13.7772    0.0000 N   0  0  0  0  0  0  0  0  0  0  0  0
    8.1558   -9.2984    0.0000 C   0  0  0  0  0  0  0  0  0  0  0  0
    2.3931  -11.0558    0.0000 O   0  0  0  0  0  0  0  0  0  0  0  0
    9.7845  -12.5017    0.0000 O   0  0  0  0  0  0  0  0  0  0  0  0
    8.3635  -12.5807    0.0000 C   0  0  0  0  0  0  0  0  0  0  0  0
    9.8842  -14.1470    0.0000 C   0  0  0  0  0  0  0  0  0  0  0  0
    8.9411  -10.4991    0.0000 C   0  0  0  0  0  0  0  0  0  0  0  0
    2.4223   -9.6266    0.0000 C   0  0  0  0  0  0  0  0  0  0  0  0
    7.4204   -8.9162    0.0000 C   0  0  0  0  0  0  0  0  0  0  0  0
    8.8496   -8.8496    0.0000 C   0  0  0  0  0  0  0  0  0  0  0  0
   10.5697  -13.6900    0.0000 C   0  0  0  0  0  0  0  0  0  0  0  0
    9.9340  -14.9696    0.0000 C   0  0  0  0  0  0  0  0  0  0  0  0
    9.6349  -10.0462    0.0000 C   0  0  0  0  0  0  0  0  0  0  0  0
    9.5850   -9.2236    0.0000 C   0  0  0  0  0  0  0  0  0  0  0  0
   11.3093  -14.0639    0.0000 C   0  0  0  0  0  0  0  0  0  0  0  0
   10.6694  -15.3353    0.0000 C   0  0  0  0  0  0  0  0  0  0  0  0
   11.3592  -14.8824    0.0000 C   0  0  0  0  0  0  0  0  0  0  0  0
  2  6  1  0  0  0  0
  3  2  2  0  0  0  0
  4  1  1  0  0  0  0
  5  4  2  0  0  0  0
  6  1  1  0  0  0  0
  7  2  1  0  0  0  0
  8  7  2  0  0  0  0
  9  3  1  0  0  0  0
 10 18  1  0  0  0  0
 11  1  1  0  0  0  0
 12  8  1  0  0  0  0
 13  4  1  0  0  0  0
 14 10  1  0  0  0  0
 15  7  1  0  0  0  0
 16  6  2  0  0  0  0
 17 23  1  0  0  0  0
 18 15  1  0  0  0  0
 19 17  1  0  0  0  0
 20 11  1  0  0  0  0
 21 14  2  0  0  0  0
 22 17  2  0  0  0  0
 23 13  1  0  0  0  0
 24 19  1  0  0  0  0
 25 11  2  0  0  0  0
 26 14  1  0  0  0  0
 27 20  1  0  0  0  0
 28 20  2  0  0  0  0
 29 24  1  0  0  0  0
 30 24  2  0  0  0  0
 31 25  1  0  0  0  0
 32 31  2  0  0  0  0
 33 29  2  0  0  0  0
 34 30  1  0  0  0  0
 35 34  2  0  0  0  0
  3  5  1  0  0  0  0
 28 32  1  0  0  0  0
  8  9  1  0  0  0  0
 12 10  1  0  0  0  0
 33 35  1  0  0  0  0
M  END
>  <IDNUMBER>
F3222-1441

>  <Chemical_Name>
2-{[11-acetyl-4-(2-methylphenyl)-3-oxo-8-thia-4,6,11-triazatricyclo[7.4.0.0?,?]trideca-1(9),2(7),5-trien-5-yl]sulfanyl}-N-phenylacetamide

>  <PriceCoeff>
1.00

>  <CAS>
1217092-97-1

>  <MW>
504.62

>  <Description>
solid

>  <FSP3>
0.23

>  <clogP>
3.10

>  <TPSA>
135.62

>  <Acceptor>
4

>  <Donor>
1

>  <RotBonds>
6

>  <HAC>
35

>  <Collection>
General

>  <PPDS>
+

$$$$
F3222-1442
  Mrv2219 10102508112D          

 37 41  0  0  0  0            999 V2000
    7.4162   -9.5892    0.0000 N   0  0  0  0  0  0  0  0  0  0  0  0
    6.2114  -10.3620    0.0000 C   0  0  0  0  0  0  0  0  0  0  0  0
    6.6601  -11.0600    0.0000 C   0  0  0  0  0  0  0  0  0  0  0  0
    7.8692  -10.2955    0.0000 C   0  0  0  0  0  0  0  0  0  0  0  0
    7.4828  -11.0226    0.0000 N   0  0  0  0  0  0  0  0  0  0  0  0
    6.5936   -9.6266    0.0000 C   0  0  0  0  0  0  0  0  0  0  0  0
    5.4220  -10.5739    0.0000 C   0  0  0  0  0  0  0  0  0  0  0  0
    5.3763  -11.3965    0.0000 C   0  0  0  0  0  0  0  0  0  0  0  0
    6.1366  -11.6957    0.0000 S   0  0  0  0  0  0  0  0  0  0  0  0
    3.9512  -11.3176    0.0000 N   0  0  0  0  0  0  0  0  0  0  0  0
    7.7944   -8.8538    0.0000 C   0  0  0  0  0  0  0  0  0  0  0  0
    4.6409  -11.7705    0.0000 C   0  0  0  0  0  0  0  0  0  0  0  0
    8.6918  -10.2748    0.0000 S   0  0  0  0  0  0  0  0  0  0  0  0
    3.2075  -11.6832    0.0000 C   0  0  0  0  0  0  0  0  0  0  0  0
    4.7282  -10.1252    0.0000 C   0  0  0  0  0  0  0  0  0  0  0  0
    6.1491   -8.9286    0.0000 O   0  0  0  0  0  0  0  0  0  0  0  0
   11.2054  -11.6416    0.0000 C   0  0  0  0  0  0  0  0  0  0  0  0
    9.9507  -10.9561    0.0000 C   0  0  0  0  0  0  0  0  0  0  0  0
   10.3745  -11.6583    0.0000 N   0  0  0  0  0  0  0  0  0  0  0  0
    3.9928  -10.4991    0.0000 C   0  0  0  0  0  0  0  0  0  0  0  0
    7.3457   -8.1683    0.0000 C   0  0  0  0  0  0  0  0  0  0  0  0
    3.1452  -12.5017    0.0000 O   0  0  0  0  0  0  0  0  0  0  0  0
   10.3578  -10.2332    0.0000 O   0  0  0  0  0  0  0  0  0  0  0  0
    9.1239  -10.9728    0.0000 C   0  0  0  0  0  0  0  0  0  0  0  0
   12.4311  -10.9062    0.0000 C   0  0  0  0  0  0  0  0  0  0  0  0
   12.4518  -12.3396    0.0000 C   0  0  0  0  0  0  0  0  0  0  0  0
   11.6084  -10.9187    0.0000 C   0  0  0  0  0  0  0  0  0  0  0  0
   11.6209  -12.3438    0.0000 C   0  0  0  0  0  0  0  0  0  0  0  0
   12.8631  -11.6292    0.0000 C   0  0  0  0  0  0  0  0  0  0  0  0
    8.6170   -8.8122    0.0000 C   0  0  0  0  0  0  0  0  0  0  0  0
    2.5220  -11.2220    0.0000 C   0  0  0  0  0  0  0  0  0  0  0  0
    6.5230   -8.2057    0.0000 C   0  0  0  0  0  0  0  0  0  0  0  0
    7.7196   -7.4329    0.0000 C   0  0  0  0  0  0  0  0  0  0  0  0
   12.8756  -13.0543    0.0000 C   0  0  0  0  0  0  0  0  0  0  0  0
   12.8175  -10.1709    0.0000 C   0  0  0  0  0  0  0  0  0  0  0  0
    8.9909   -8.0810    0.0000 C   0  0  0  0  0  0  0  0  0  0  0  0
    8.5422   -7.3830    0.0000 C   0  0  0  0  0  0  0  0  0  0  0  0
  2  6  1  0  0  0  0
  3  2  2  0  0  0  0
  4  1  1  0  0  0  0
  5  4  2  0  0  0  0
  6  1  1  0  0  0  0
  7  2  1  0  0  0  0
  8  7  2  0  0  0  0
  9  3  1  0  0  0  0
 10 20  1  0  0  0  0
 11  1  1  0  0  0  0
 12  8  1  0  0  0  0
 13  4  1  0  0  0  0
 14 10  1  0  0  0  0
 15  7  1  0  0  0  0
 16  6  2  0  0  0  0
 17 19  1  0  0  0  0
 18 24  1  0  0  0  0
 19 18  1  0  0  0  0
 20 15  1  0  0  0  0
 21 11  1  0  0  0  0
 22 14  2  0  0  0  0
 23 18  2  0  0  0  0
 24 13  1  0  0  0  0
 25 27  2  0  0  0  0
 26 28  1  0  0  0  0
 27 17  1  0  0  0  0
 28 17  2  0  0  0  0
 29 26  2  0  0  0  0
 30 11  2  0  0  0  0
 31 14  1  0  0  0  0
 32 21  1  0  0  0  0
 33 21  2  0  0  0  0
 34 26  1  0  0  0  0
 35 25  1  0  0  0  0
 36 30  1  0  0  0  0
 37 36  2  0  0  0  0
  5  3  1  0  0  0  0
 33 37  1  0  0  0  0
  8  9  1  0  0  0  0
 12 10  1  0  0  0  0
 29 25  1  0  0  0  0
M  END
>  <IDNUMBER>
F3222-1442

>  <Chemical_Name>
2-{[11-acetyl-4-(2-methylphenyl)-3-oxo-8-thia-4,6,11-triazatricyclo[7.4.0.0?,?]trideca-1(9),2(7),5-trien-5-yl]sulfanyl}-N-(3,5-dimethylphenyl)acetamide

>  <PriceCoeff>
1.00

>  <CAS>
1216843-86-5

>  <MW>
532.68

>  <Description>
solid

>  <FSP3>
0.29

>  <clogP>
4.10

>  <TPSA>
135.62

>  <Acceptor>
4

>  <Donor>
1

>  <RotBonds>
6

>  <HAC>
37

>  <Collection>
General

>  <PPDS>
+

$$$$
F3222-1443
  Mrv2219 10102508112D          

 37 41  0  0  0  0            999 V2000
    7.1536  -10.4475    0.0000 N   0  0  0  0  0  0  0  0  0  0  0  0
    5.7312  -10.5224    0.0000 C   0  0  0  0  0  0  0  0  0  0  0  0
    5.7769  -11.3459    0.0000 C   0  0  0  0  0  0  0  0  0  0  0  0
    7.2035  -11.2668    0.0000 C   0  0  0  0  0  0  0  0  0  0  0  0
    6.5048  -11.7202    0.0000 N   0  0  0  0  0  0  0  0  0  0  0  0
    6.4174  -10.0732    0.0000 C   0  0  0  0  0  0  0  0  0  0  0  0
    4.9326  -10.3103    0.0000 C   0  0  0  0  0  0  0  0  0  0  0  0
    4.4918  -11.0090    0.0000 C   0  0  0  0  0  0  0  0  0  0  0  0
    5.0075  -11.6411    0.0000 S   0  0  0  0  0  0  0  0  0  0  0  0
    3.2732  -10.2437    0.0000 N   0  0  0  0  0  0  0  0  0  0  0  0
    7.8481   -9.9984    0.0000 C   0  0  0  0  0  0  0  0  0  0  0  0
    3.6600  -10.9716    0.0000 C   0  0  0  0  0  0  0  0  0  0  0  0
    7.9479  -11.6329    0.0000 S   0  0  0  0  0  0  0  0  0  0  0  0
    2.4497  -10.2229    0.0000 C   0  0  0  0  0  0  0  0  0  0  0  0
    9.5242  -14.0243    0.0000 C   0  0  0  0  0  0  0  0  0  0  0  0
    8.7881  -13.6541    0.0000 N   0  0  0  0  0  0  0  0  0  0  0  0
    4.5583   -9.5741    0.0000 C   0  0  0  0  0  0  0  0  0  0  0  0
    8.7382  -12.8307    0.0000 C   0  0  0  0  0  0  0  0  0  0  0  0
    6.3800   -9.2497    0.0000 O   0  0  0  0  0  0  0  0  0  0  0  0
    3.7348   -9.5367    0.0000 C   0  0  0  0  0  0  0  0  0  0  0  0
   10.2105  -13.5668    0.0000 C   0  0  0  0  0  0  0  0  0  0  0  0
    9.5741  -14.8478    0.0000 C   0  0  0  0  0  0  0  0  0  0  0  0
    7.7982   -9.1707    0.0000 C   0  0  0  0  0  0  0  0  0  0  0  0
    2.0255  -10.9299    0.0000 O   0  0  0  0  0  0  0  0  0  0  0  0
    9.4244  -12.3690    0.0000 O   0  0  0  0  0  0  0  0  0  0  0  0
    8.0020  -12.4563    0.0000 C   0  0  0  0  0  0  0  0  0  0  0  0
   10.9549  -13.9286    0.0000 C   0  0  0  0  0  0  0  0  0  0  0  0
   10.3103  -15.2138    0.0000 C   0  0  0  0  0  0  0  0  0  0  0  0
   11.0090  -14.7604    0.0000 C   0  0  0  0  0  0  0  0  0  0  0  0
    8.5760  -10.3727    0.0000 C   0  0  0  0  0  0  0  0  0  0  0  0
    2.0587   -9.4993    0.0000 C   0  0  0  0  0  0  0  0  0  0  0  0
   10.1606  -12.7433    0.0000 C   0  0  0  0  0  0  0  0  0  0  0  0
    7.0538   -8.7881    0.0000 C   0  0  0  0  0  0  0  0  0  0  0  0
    8.4886   -8.7215    0.0000 C   0  0  0  0  0  0  0  0  0  0  0  0
   10.3477  -16.0373    0.0000 C   0  0  0  0  0  0  0  0  0  0  0  0
    9.2747   -9.9193    0.0000 C   0  0  0  0  0  0  0  0  0  0  0  0
    9.2248   -9.0958    0.0000 C   0  0  0  0  0  0  0  0  0  0  0  0
  2  6  1  0  0  0  0
  3  2  2  0  0  0  0
  4  1  1  0  0  0  0
  5  4  2  0  0  0  0
  6  1  1  0  0  0  0
  7  2  1  0  0  0  0
  8  7  2  0  0  0  0
  9  3  1  0  0  0  0
 10 20  1  0  0  0  0
 11  1  1  0  0  0  0
 12  8  1  0  0  0  0
 13  4  1  0  0  0  0
 14 10  1  0  0  0  0
 15 16  1  0  0  0  0
 16 18  1  0  0  0  0
 17  7  1  0  0  0  0
 18 26  1  0  0  0  0
 19  6  2  0  0  0  0
 20 17  1  0  0  0  0
 21 15  1  0  0  0  0
 22 15  2  0  0  0  0
 23 11  1  0  0  0  0
 24 14  2  0  0  0  0
 25 18  2  0  0  0  0
 26 13  1  0  0  0  0
 27 21  2  0  0  0  0
 28 22  1  0  0  0  0
 29 28  2  0  0  0  0
 30 11  2  0  0  0  0
 31 14  1  0  0  0  0
 32 21  1  0  0  0  0
 33 23  1  0  0  0  0
 34 23  2  0  0  0  0
 35 28  1  0  0  0  0
 36 30  1  0  0  0  0
 37 36  2  0  0  0  0
  5  3  1  0  0  0  0
 34 37  1  0  0  0  0
  8  9  1  0  0  0  0
 12 10  1  0  0  0  0
 27 29  1  0  0  0  0
M  END
>  <IDNUMBER>
F3222-1443

>  <Chemical_Name>
2-{[11-acetyl-4-(2-methylphenyl)-3-oxo-8-thia-4,6,11-triazatricyclo[7.4.0.0?,?]trideca-1(9),2(7),5-trien-5-yl]sulfanyl}-N-(2,5-dimethylphenyl)acetamide

>  <PriceCoeff>
1.00

>  <CAS>
1185076-56-5

>  <MW>
532.68

>  <Description>
solid

>  <FSP3>
0.29

>  <clogP>
3.45

>  <TPSA>
135.62

>  <Acceptor>
4

>  <Donor>
1

>  <RotBonds>
6

>  <HAC>
37

>  <Collection>
General

>  <PPDS>
+

$$$$
F3222-1444
  Mrv2219 10102508112D          

 37 41  0  0  0  0            999 V2000
    1.7372   -8.7026    0.0000 C   0  0  0  0  0  0  0  0  0  0  0  0
    3.1586   -8.6278    0.0000 N   0  0  0  0  0  0  0  0  0  0  0  0
    1.7829   -9.5172    0.0000 C   0  0  0  0  0  0  0  0  0  0  0  0
    2.4230   -8.2538    0.0000 C   0  0  0  0  0  0  0  0  0  0  0  0
    2.5102   -9.8912    0.0000 N   0  0  0  0  0  0  0  0  0  0  0  0
    3.2084   -9.4424    0.0000 C   0  0  0  0  0  0  0  0  0  0  0  0
    0.9393   -8.4906    0.0000 C   0  0  0  0  0  0  0  0  0  0  0  0
    0.4987   -9.1806    0.0000 C   0  0  0  0  0  0  0  0  0  0  0  0
    1.0141   -9.8164    0.0000 S   0  0  0  0  0  0  0  0  0  0  0  0
   -0.7189   -8.4200    0.0000 N   0  0  0  0  0  0  0  0  0  0  0  0
   -0.3324   -9.1432    0.0000 C   0  0  0  0  0  0  0  0  0  0  0  0
   -1.5418   -8.3951    0.0000 C   0  0  0  0  0  0  0  0  0  0  0  0
    3.9523   -9.8040    0.0000 S   0  0  0  0  0  0  0  0  0  0  0  0
    3.8651   -8.1790    0.0000 C   0  0  0  0  0  0  0  0  0  0  0  0
    0.5652   -7.7550    0.0000 C   0  0  0  0  0  0  0  0  0  0  0  0
    2.3856   -7.4309    0.0000 O   0  0  0  0  0  0  0  0  0  0  0  0
    4.7420  -11.0009    0.0000 C   0  0  0  0  0  0  0  0  0  0  0  0
   -0.2576   -7.7094    0.0000 C   0  0  0  0  0  0  0  0  0  0  0  0
    5.4235  -10.5479    0.0000 N   0  0  0  0  0  0  0  0  0  0  0  0
    6.1633  -10.9219    0.0000 C   0  0  0  0  0  0  0  0  0  0  0  0
   -1.9657   -9.1058    0.0000 O   0  0  0  0  0  0  0  0  0  0  0  0
    6.2215  -11.7365    0.0000 C   0  0  0  0  0  0  0  0  0  0  0  0
    4.7919  -11.8238    0.0000 O   0  0  0  0  0  0  0  0  0  0  0  0
    4.0064  -10.6351    0.0000 C   0  0  0  0  0  0  0  0  0  0  0  0
    6.9613  -12.1105    0.0000 C   0  0  0  0  0  0  0  0  0  0  0  0
    3.8276   -7.3478    0.0000 C   0  0  0  0  0  0  0  0  0  0  0  0
    7.0194  -12.9417    0.0000 O   0  0  0  0  0  0  0  0  0  0  0  0
   -1.9325   -7.6802    0.0000 C   0  0  0  0  0  0  0  0  0  0  0  0
    7.5847  -10.8263    0.0000 C   0  0  0  0  0  0  0  0  0  0  0  0
    6.8491  -10.4606    0.0000 C   0  0  0  0  0  0  0  0  0  0  0  0
    7.6470  -11.6450    0.0000 C   0  0  0  0  0  0  0  0  0  0  0  0
    4.5259   -6.9072    0.0000 C   0  0  0  0  0  0  0  0  0  0  0  0
    3.0962   -6.9613    0.0000 C   0  0  0  0  0  0  0  0  0  0  0  0
    6.4875  -13.3199    0.0000 C   0  0  0  0  0  0  0  0  0  0  0  0
    3.0671   -6.1384    0.0000 C   0  0  0  0  0  0  0  0  0  0  0  0
    4.4926   -6.0761    0.0000 C   0  0  0  0  0  0  0  0  0  0  0  0
    3.7570   -5.7020    0.0000 C   0  0  0  0  0  0  0  0  0  0  0  0
  2  4  1  0  0  0  0
  3  1  2  0  0  0  0
  4  1  1  0  0  0  0
  5  3  1  0  0  0  0
  6  2  1  0  0  0  0
  7  1  1  0  0  0  0
  8  7  2  0  0  0  0
  9  3  1  0  0  0  0
 10 18  1  0  0  0  0
 11  8  1  0  0  0  0
 12 10  1  0  0  0  0
 13  6  1  0  0  0  0
 14  2  1  0  0  0  0
 15  7  1  0  0  0  0
 16  4  2  0  0  0  0
 17 24  1  0  0  0  0
 18 15  1  0  0  0  0
 19 17  1  0  0  0  0
 20 19  1  0  0  0  0
 21 12  2  0  0  0  0
 22 20  1  0  0  0  0
 23 17  2  0  0  0  0
 24 13  1  0  0  0  0
 25 22  2  0  0  0  0
 26 14  1  0  0  0  0
 27 25  1  0  0  0  0
 28 12  1  0  0  0  0
 29 30  1  0  0  0  0
 30 20  2  0  0  0  0
 31 29  2  0  0  0  0
 32 26  1  0  0  0  0
 33 26  2  0  0  0  0
 34 27  1  0  0  0  0
 35 33  1  0  0  0  0
 36 32  2  0  0  0  0
 37 35  2  0  0  0  0
  9  8  1  0  0  0  0
 10 11  1  0  0  0  0
  6  5  2  0  0  0  0
 36 37  1  0  0  0  0
 31 25  1  0  0  0  0
M  END
>  <IDNUMBER>
F3222-1444

>  <Chemical_Name>
2-({11-acetyl-4-benzyl-3-oxo-8-thia-4,6,11-triazatricyclo[7.4.0.0?,?]trideca-1(9),2(7),5-trien-5-yl}sulfanyl)-N-(3-methoxyphenyl)acetamide

>  <PriceCoeff>
1.00

>  <CAS>
1215822-05-1

>  <MW>
534.65

>  <Description>
solid

>  <FSP3>
0.26

>  <clogP>
2.46

>  <TPSA>
144.85

>  <Acceptor>
5

>  <Donor>
1

>  <RotBonds>
8

>  <HAC>
37

>  <Collection>
General

>  <PPDS>
+

$$$$
F3222-1448
  Mrv2219 10102508112D          

 37 41  0  0  0  0            999 V2000
    6.7372   -9.0065    0.0000 C   0  0  0  0  0  0  0  0  0  0  0  0
    8.1337   -8.7446    0.0000 N   0  0  0  0  0  0  0  0  0  0  0  0
    6.8868   -9.8169    0.0000 C   0  0  0  0  0  0  0  0  0  0  0  0
    7.3564   -8.4661    0.0000 C   0  0  0  0  0  0  0  0  0  0  0  0
    7.6599  -10.0870    0.0000 N   0  0  0  0  0  0  0  0  0  0  0  0
    8.2833   -9.5551    0.0000 C   0  0  0  0  0  0  0  0  0  0  0  0
    5.9101   -8.8943    0.0000 C   0  0  0  0  0  0  0  0  0  0  0  0
    5.5610   -9.6507    0.0000 C   0  0  0  0  0  0  0  0  0  0  0  0
    6.1595  -10.2159    0.0000 S   0  0  0  0  0  0  0  0  0  0  0  0
    4.2518   -9.0397    0.0000 N   0  0  0  0  0  0  0  0  0  0  0  0
    4.7298   -9.7172    0.0000 C   0  0  0  0  0  0  0  0  0  0  0  0
    3.4288   -9.1145    0.0000 C   0  0  0  0  0  0  0  0  0  0  0  0
    9.0646   -9.8169    0.0000 S   0  0  0  0  0  0  0  0  0  0  0  0
    8.7571   -8.2085    0.0000 C   0  0  0  0  0  0  0  0  0  0  0  0
    5.4405   -8.2210    0.0000 C   0  0  0  0  0  0  0  0  0  0  0  0
    7.1985   -7.6474    0.0000 O   0  0  0  0  0  0  0  0  0  0  0  0
    8.5908  -11.1760    0.0000 C   0  0  0  0  0  0  0  0  0  0  0  0
    4.6051   -8.2833    0.0000 C   0  0  0  0  0  0  0  0  0  0  0  0
    8.7446  -11.9865    0.0000 N   0  0  0  0  0  0  0  0  0  0  0  0
    3.0839   -9.8543    0.0000 O   0  0  0  0  0  0  0  0  0  0  0  0
    7.8220  -10.8892    0.0000 O   0  0  0  0  0  0  0  0  0  0  0  0
    9.2184  -10.6274    0.0000 C   0  0  0  0  0  0  0  0  0  0  0  0
    8.1170  -12.5351    0.0000 C   0  0  0  0  0  0  0  0  0  0  0  0
    9.5384   -8.4703    0.0000 C   0  0  0  0  0  0  0  0  0  0  0  0
    6.8702  -13.6074    0.0000 C   0  0  0  0  0  0  0  0  0  0  0  0
    8.2791  -13.3331    0.0000 C   0  0  0  0  0  0  0  0  0  0  0  0
    7.3315  -12.2690    0.0000 C   0  0  0  0  0  0  0  0  0  0  0  0
    7.6474  -13.8775    0.0000 C   0  0  0  0  0  0  0  0  0  0  0  0
    6.7081  -12.7969    0.0000 C   0  0  0  0  0  0  0  0  0  0  0  0
    6.2385  -14.1518    0.0000 O   0  0  0  0  0  0  0  0  0  0  0  0
    2.9550   -8.4329    0.0000 C   0  0  0  0  0  0  0  0  0  0  0  0
    9.6922   -9.2891    0.0000 C   0  0  0  0  0  0  0  0  0  0  0  0
   10.1619   -7.9425    0.0000 C   0  0  0  0  0  0  0  0  0  0  0  0
    5.4654  -13.8941    0.0000 C   0  0  0  0  0  0  0  0  0  0  0  0
   10.9266   -8.1960    0.0000 C   0  0  0  0  0  0  0  0  0  0  0  0
   10.4611   -9.5551    0.0000 C   0  0  0  0  0  0  0  0  0  0  0  0
   11.0845   -9.0148    0.0000 C   0  0  0  0  0  0  0  0  0  0  0  0
  2  4  1  0  0  0  0
  3  1  2  0  0  0  0
  4  1  1  0  0  0  0
  5  3  1  0  0  0  0
  6  2  1  0  0  0  0
  7  1  1  0  0  0  0
  8  7  2  0  0  0  0
  9  3  1  0  0  0  0
 10 18  1  0  0  0  0
 11  8  1  0  0  0  0
 12 10  1  0  0  0  0
 13  6  1  0  0  0  0
 14  2  1  0  0  0  0
 15  7  1  0  0  0  0
 16  4  2  0  0  0  0
 17 22  1  0  0  0  0
 18 15  1  0  0  0  0
 19 17  1  0  0  0  0
 20 12  2  0  0  0  0
 21 17  2  0  0  0  0
 22 13  1  0  0  0  0
 23 19  1  0  0  0  0
 24 14  1  0  0  0  0
 25 29  2  0  0  0  0
 26 23  1  0  0  0  0
 27 23  2  0  0  0  0
 28 26  2  0  0  0  0
 29 27  1  0  0  0  0
 30 25  1  0  0  0  0
 31 12  1  0  0  0  0
 32 24  1  0  0  0  0
 33 24  2  0  0  0  0
 34 30  1  0  0  0  0
 35 33  1  0  0  0  0
 36 32  2  0  0  0  0
 37 35  2  0  0  0  0
  9  8  1  0  0  0  0
 10 11  1  0  0  0  0
  6  5  2  0  0  0  0
 36 37  1  0  0  0  0
 25 28  1  0  0  0  0
M  END
>  <IDNUMBER>
F3222-1448

>  <Chemical_Name>
2-({11-acetyl-4-benzyl-3-oxo-8-thia-4,6,11-triazatricyclo[7.4.0.0?,?]trideca-1(9),2(7),5-trien-5-yl}sulfanyl)-N-(4-methoxyphenyl)acetamide

>  <PriceCoeff>
1.00

>  <CAS>
1189858-02-3

>  <MW>
534.65

>  <Description>
solid

>  <FSP3>
0.26

>  <clogP>
2.46

>  <TPSA>
144.85

>  <Acceptor>
5

>  <Donor>
1

>  <RotBonds>
8

>  <HAC>
37

>  <Collection>
General

>  <PPDS>
+

$$$$
F3222-1449
  Mrv2219 10102508112D          

 36 40  0  0  0  0            999 V2000
    5.7953   -9.3481    0.0000 C   0  0  0  0  0  0  0  0  0  0  0  0
    7.2181   -9.2732    0.0000 N   0  0  0  0  0  0  0  0  0  0  0  0
    5.8410  -10.1636    0.0000 C   0  0  0  0  0  0  0  0  0  0  0  0
    6.4817   -8.8988    0.0000 C   0  0  0  0  0  0  0  0  0  0  0  0
    6.5691  -10.5380    0.0000 N   0  0  0  0  0  0  0  0  0  0  0  0
    7.2680  -10.0887    0.0000 C   0  0  0  0  0  0  0  0  0  0  0  0
    4.9965   -9.1359    0.0000 C   0  0  0  0  0  0  0  0  0  0  0  0
    4.5555   -9.8266    0.0000 C   0  0  0  0  0  0  0  0  0  0  0  0
    5.0714  -10.4631    0.0000 S   0  0  0  0  0  0  0  0  0  0  0  0
    3.3366   -9.0652    0.0000 N   0  0  0  0  0  0  0  0  0  0  0  0
    3.7235   -9.7891    0.0000 C   0  0  0  0  0  0  0  0  0  0  0  0
    2.5128   -9.0403    0.0000 C   0  0  0  0  0  0  0  0  0  0  0  0
    8.0127  -10.4506    0.0000 S   0  0  0  0  0  0  0  0  0  0  0  0
    7.9253   -8.8239    0.0000 C   0  0  0  0  0  0  0  0  0  0  0  0
    4.6221   -8.3996    0.0000 C   0  0  0  0  0  0  0  0  0  0  0  0
    6.4443   -8.0793    0.0000 O   0  0  0  0  0  0  0  0  0  0  0  0
    8.8031  -11.6488    0.0000 C   0  0  0  0  0  0  0  0  0  0  0  0
    3.7984   -8.3538    0.0000 C   0  0  0  0  0  0  0  0  0  0  0  0
    8.8531  -12.4725    0.0000 N   0  0  0  0  0  0  0  0  0  0  0  0
    2.0885   -9.7517    0.0000 O   0  0  0  0  0  0  0  0  0  0  0  0
    9.4896  -11.1995    0.0000 O   0  0  0  0  0  0  0  0  0  0  0  0
    8.0668  -11.2826    0.0000 C   0  0  0  0  0  0  0  0  0  0  0  0
    9.5894  -12.8469    0.0000 C   0  0  0  0  0  0  0  0  0  0  0  0
   11.0622  -13.5833    0.0000 C   0  0  0  0  0  0  0  0  0  0  0  0
    7.8879   -7.9919    0.0000 C   0  0  0  0  0  0  0  0  0  0  0  0
   11.8110  -13.9452    0.0000 F   0  0  0  0  0  0  0  0  0  0  0  0
   10.2759  -12.3934    0.0000 C   0  0  0  0  0  0  0  0  0  0  0  0
    9.6394  -13.6707    0.0000 C   0  0  0  0  0  0  0  0  0  0  0  0
   10.3757  -14.0409    0.0000 C   0  0  0  0  0  0  0  0  0  0  0  0
   11.0122  -12.7596    0.0000 C   0  0  0  0  0  0  0  0  0  0  0  0
    2.1217   -8.3247    0.0000 C   0  0  0  0  0  0  0  0  0  0  0  0
    8.5868   -7.5509    0.0000 C   0  0  0  0  0  0  0  0  0  0  0  0
    7.1557   -7.6050    0.0000 C   0  0  0  0  0  0  0  0  0  0  0  0
    8.5535   -6.7189    0.0000 C   0  0  0  0  0  0  0  0  0  0  0  0
    7.1265   -6.7813    0.0000 C   0  0  0  0  0  0  0  0  0  0  0  0
    7.8172   -6.3444    0.0000 C   0  0  0  0  0  0  0  0  0  0  0  0
  2  4  1  0  0  0  0
  3  1  2  0  0  0  0
  4  1  1  0  0  0  0
  5  3  1  0  0  0  0
  6  2  1  0  0  0  0
  7  1  1  0  0  0  0
  8  7  2  0  0  0  0
  9  3  1  0  0  0  0
 10 18  1  0  0  0  0
 11  8  1  0  0  0  0
 12 10  1  0  0  0  0
 13  6  1  0  0  0  0
 14  2  1  0  0  0  0
 15  7  1  0  0  0  0
 16  4  2  0  0  0  0
 17 22  1  0  0  0  0
 18 15  1  0  0  0  0
 19 17  1  0  0  0  0
 20 12  2  0  0  0  0
 21 17  2  0  0  0  0
 22 13  1  0  0  0  0
 23 19  1  0  0  0  0
 24 29  2  0  0  0  0
 25 14  1  0  0  0  0
 26 24  1  0  0  0  0
 27 23  1  0  0  0  0
 28 23  2  0  0  0  0
 29 28  1  0  0  0  0
 30 27  2  0  0  0  0
 31 12  1  0  0  0  0
 32 25  1  0  0  0  0
 33 25  2  0  0  0  0
 34 32  2  0  0  0  0
 35 33  1  0  0  0  0
 36 35  2  0  0  0  0
  9  8  1  0  0  0  0
 10 11  1  0  0  0  0
  6  5  2  0  0  0  0
 34 36  1  0  0  0  0
 24 30  1  0  0  0  0
M  END
>  <IDNUMBER>
F3222-1449

>  <Chemical_Name>
2-({11-acetyl-4-benzyl-3-oxo-8-thia-4,6,11-triazatricyclo[7.4.0.0?,?]trideca-1(9),2(7),5-trien-5-yl}sulfanyl)-N-(4-fluorophenyl)acetamide

>  <PriceCoeff>
1.00

>  <CAS>
1189971-94-5

>  <MW>
522.61

>  <Description>
solid

>  <FSP3>
0.23

>  <clogP>
2.78

>  <TPSA>
135.62

>  <Acceptor>
4

>  <Donor>
1

>  <RotBonds>
7

>  <HAC>
36

>  <Collection>
General

>  <PPDS>
+

$$$$
F3222-1451
  Mrv2219 10102508112D          

 36 40  0  0  0  0            999 V2000
    5.8045   -9.6630    0.0000 C   0  0  0  0  0  0  0  0  0  0  0  0
    7.1861   -9.3519    0.0000 N   0  0  0  0  0  0  0  0  0  0  0  0
    5.9787  -10.4721    0.0000 C   0  0  0  0  0  0  0  0  0  0  0  0
    6.3978   -9.1112    0.0000 C   0  0  0  0  0  0  0  0  0  0  0  0
    6.7629  -10.7086    0.0000 N   0  0  0  0  0  0  0  0  0  0  0  0
    7.3686  -10.1567    0.0000 C   0  0  0  0  0  0  0  0  0  0  0  0
    4.9705   -9.5884    0.0000 C   0  0  0  0  0  0  0  0  0  0  0  0
    4.6469  -10.3559    0.0000 C   0  0  0  0  0  0  0  0  0  0  0  0
    5.2693  -10.9036    0.0000 S   0  0  0  0  0  0  0  0  0  0  0  0
    3.3233   -9.8000    0.0000 N   0  0  0  0  0  0  0  0  0  0  0  0
    3.8212  -10.4597    0.0000 C   0  0  0  0  0  0  0  0  0  0  0  0
    2.4936   -9.8995    0.0000 C   0  0  0  0  0  0  0  0  0  0  0  0
    8.1570  -10.3974    0.0000 S   0  0  0  0  0  0  0  0  0  0  0  0
    7.7835   -8.7918    0.0000 C   0  0  0  0  0  0  0  0  0  0  0  0
    4.4727   -8.9287    0.0000 C   0  0  0  0  0  0  0  0  0  0  0  0
    6.2028   -8.3021    0.0000 O   0  0  0  0  0  0  0  0  0  0  0  0
    7.7420  -11.7624    0.0000 C   0  0  0  0  0  0  0  0  0  0  0  0
    3.6387   -9.0407    0.0000 C   0  0  0  0  0  0  0  0  0  0  0  0
    6.9496  -11.5176    0.0000 N   0  0  0  0  0  0  0  0  0  0  0  0
    6.3273  -12.0902    0.0000 C   0  0  0  0  0  0  0  0  0  0  0  0
    2.1824  -10.6588    0.0000 O   0  0  0  0  0  0  0  0  0  0  0  0
    5.5514  -11.8620    0.0000 C   0  0  0  0  0  0  0  0  0  0  0  0
    7.9205  -12.5632    0.0000 O   0  0  0  0  0  0  0  0  0  0  0  0
    8.3395  -11.2023    0.0000 C   0  0  0  0  0  0  0  0  0  0  0  0
    4.9415  -12.4138    0.0000 C   0  0  0  0  0  0  0  0  0  0  0  0
    8.5760   -9.0282    0.0000 C   0  0  0  0  0  0  0  0  0  0  0  0
    4.1490  -12.1773    0.0000 Cl  0  0  0  0  0  0  0  0  0  0  0  0
    1.9957   -9.2481    0.0000 C   0  0  0  0  0  0  0  0  0  0  0  0
    5.9165  -13.4469    0.0000 C   0  0  0  0  0  0  0  0  0  0  0  0
    6.5222  -12.8868    0.0000 C   0  0  0  0  0  0  0  0  0  0  0  0
    5.1199  -13.2063    0.0000 C   0  0  0  0  0  0  0  0  0  0  0  0
    8.7544   -9.8373    0.0000 C   0  0  0  0  0  0  0  0  0  0  0  0
    9.1776   -8.4764    0.0000 C   0  0  0  0  0  0  0  0  0  0  0  0
    9.5386  -10.0821    0.0000 C   0  0  0  0  0  0  0  0  0  0  0  0
    9.9493   -8.7046    0.0000 C   0  0  0  0  0  0  0  0  0  0  0  0
   10.1360   -9.5137    0.0000 C   0  0  0  0  0  0  0  0  0  0  0  0
  2  4  1  0  0  0  0
  3  1  2  0  0  0  0
  4  1  1  0  0  0  0
  5  3  1  0  0  0  0
  6  2  1  0  0  0  0
  7  1  1  0  0  0  0
  8  7  2  0  0  0  0
  9  3  1  0  0  0  0
 10 18  1  0  0  0  0
 11  8  1  0  0  0  0
 12 10  1  0  0  0  0
 13  6  1  0  0  0  0
 14  2  1  0  0  0  0
 15  7  1  0  0  0  0
 16  4  2  0  0  0  0
 17 24  1  0  0  0  0
 18 15  1  0  0  0  0
 19 17  1  0  0  0  0
 20 19  1  0  0  0  0
 21 12  2  0  0  0  0
 22 20  2  0  0  0  0
 23 17  2  0  0  0  0
 24 13  1  0  0  0  0
 25 22  1  0  0  0  0
 26 14  1  0  0  0  0
 27 25  1  0  0  0  0
 28 12  1  0  0  0  0
 29 30  2  0  0  0  0
 30 20  1  0  0  0  0
 31 29  1  0  0  0  0
 32 26  1  0  0  0  0
 33 26  2  0  0  0  0
 34 32  2  0  0  0  0
 35 33  1  0  0  0  0
 36 35  2  0  0  0  0
  9  8  1  0  0  0  0
 10 11  1  0  0  0  0
  6  5  2  0  0  0  0
 34 36  1  0  0  0  0
 25 31  2  0  0  0  0
M  END
>  <IDNUMBER>
F3222-1451

>  <Chemical_Name>
2-({11-acetyl-4-benzyl-3-oxo-8-thia-4,6,11-triazatricyclo[7.4.0.0?,?]trideca-1(9),2(7),5-trien-5-yl}sulfanyl)-N-(3-chlorophenyl)acetamide

>  <PriceCoeff>
1.00

>  <CAS>
1189449-19-1

>  <MW>
539.07

>  <Description>
solid

>  <FSP3>
0.23

>  <clogP>
3.35

>  <TPSA>
135.62

>  <Acceptor>
4

>  <Donor>
1

>  <RotBonds>
7

>  <HAC>
36

>  <Collection>
General

>  <PPDS>
+

$$$$
F3222-1452
  Mrv2219 10102508112D          

 37 41  0  0  0  0            999 V2000
    5.6934   -9.3243    0.0000 C   0  0  0  0  0  0  0  0  0  0  0  0
    7.0752   -9.0049    0.0000 N   0  0  0  0  0  0  0  0  0  0  0  0
    5.8801  -10.1335    0.0000 C   0  0  0  0  0  0  0  0  0  0  0  0
    6.2868   -8.7683    0.0000 C   0  0  0  0  0  0  0  0  0  0  0  0
    6.6644  -10.3618    0.0000 N   0  0  0  0  0  0  0  0  0  0  0  0
    7.2620   -9.8099    0.0000 C   0  0  0  0  0  0  0  0  0  0  0  0
    4.8593   -9.2538    0.0000 C   0  0  0  0  0  0  0  0  0  0  0  0
    4.5439  -10.0215    0.0000 C   0  0  0  0  0  0  0  0  0  0  0  0
    5.1581  -10.5610    0.0000 S   0  0  0  0  0  0  0  0  0  0  0  0
    3.2119   -9.4655    0.0000 N   0  0  0  0  0  0  0  0  0  0  0  0
    3.7140  -10.1253    0.0000 C   0  0  0  0  0  0  0  0  0  0  0  0
    2.3944   -9.5651    0.0000 C   0  0  0  0  0  0  0  0  0  0  0  0
    8.0463  -10.0464    0.0000 S   0  0  0  0  0  0  0  0  0  0  0  0
    7.6728   -8.4446    0.0000 C   0  0  0  0  0  0  0  0  0  0  0  0
    6.8470  -11.1793    0.0000 N   0  0  0  0  0  0  0  0  0  0  0  0
    4.3614   -8.5940    0.0000 C   0  0  0  0  0  0  0  0  0  0  0  0
    6.2412  -11.7436    0.0000 C   0  0  0  0  0  0  0  0  0  0  0  0
    7.6313  -11.4200    0.0000 C   0  0  0  0  0  0  0  0  0  0  0  0
    6.0918   -7.9591    0.0000 O   0  0  0  0  0  0  0  0  0  0  0  0
    6.4237  -12.5404    0.0000 C   0  0  0  0  0  0  0  0  0  0  0  0
    3.5355   -8.7019    0.0000 C   0  0  0  0  0  0  0  0  0  0  0  0
    2.0832  -10.3245    0.0000 O   0  0  0  0  0  0  0  0  0  0  0  0
    5.8262  -13.1006    0.0000 C   0  0  0  0  0  0  0  0  0  0  0  0
    7.8222  -12.2167    0.0000 O   0  0  0  0  0  0  0  0  0  0  0  0
    5.4527  -11.5071    0.0000 C   0  0  0  0  0  0  0  0  0  0  0  0
    8.2330  -10.8556    0.0000 C   0  0  0  0  0  0  0  0  0  0  0  0
    5.0336  -12.8516    0.0000 C   0  0  0  0  0  0  0  0  0  0  0  0
    8.4654   -8.6894    0.0000 C   0  0  0  0  0  0  0  0  0  0  0  0
    4.8469  -12.0631    0.0000 C   0  0  0  0  0  0  0  0  0  0  0  0
    1.8964   -8.9135    0.0000 C   0  0  0  0  0  0  0  0  0  0  0  0
    7.2205  -12.7976    0.0000 C   0  0  0  0  0  0  0  0  0  0  0  0
    4.4236  -13.4367    0.0000 C   0  0  0  0  0  0  0  0  0  0  0  0
    9.0671   -8.1210    0.0000 C   0  0  0  0  0  0  0  0  0  0  0  0
    8.6521   -9.4904    0.0000 C   0  0  0  0  0  0  0  0  0  0  0  0
    9.8389   -8.3575    0.0000 C   0  0  0  0  0  0  0  0  0  0  0  0
    9.4281   -9.7269    0.0000 C   0  0  0  0  0  0  0  0  0  0  0  0
   10.0257   -9.1625    0.0000 C   0  0  0  0  0  0  0  0  0  0  0  0
  2  4  1  0  0  0  0
  3  1  2  0  0  0  0
  4  1  1  0  0  0  0
  5  3  1  0  0  0  0
  6  2  1  0  0  0  0
  7  1  1  0  0  0  0
  8  7  2  0  0  0  0
  9  3  1  0  0  0  0
 10 21  1  0  0  0  0
 11  8  1  0  0  0  0
 12 10  1  0  0  0  0
 13  6  1  0  0  0  0
 14  2  1  0  0  0  0
 15 18  1  0  0  0  0
 16  7  1  0  0  0  0
 17 15  1  0  0  0  0
 18 26  1  0  0  0  0
 19  4  2  0  0  0  0
 20 17  1  0  0  0  0
 21 16  1  0  0  0  0
 22 12  2  0  0  0  0
 23 20  2  0  0  0  0
 24 18  2  0  0  0  0
 25 17  2  0  0  0  0
 26 13  1  0  0  0  0
 27 29  2  0  0  0  0
 28 14  1  0  0  0  0
 29 25  1  0  0  0  0
 30 12  1  0  0  0  0
 31 20  1  0  0  0  0
 32 27  1  0  0  0  0
 33 28  2  0  0  0  0
 34 28  1  0  0  0  0
 35 33  1  0  0  0  0
 36 34  2  0  0  0  0
 37 36  1  0  0  0  0
  9  8  1  0  0  0  0
 10 11  1  0  0  0  0
  6  5  2  0  0  0  0
 37 35  2  0  0  0  0
 27 23  1  0  0  0  0
M  END
>  <IDNUMBER>
F3222-1452

>  <Chemical_Name>
2-({11-acetyl-4-benzyl-3-oxo-8-thia-4,6,11-triazatricyclo[7.4.0.0?,?]trideca-1(9),2(7),5-trien-5-yl}sulfanyl)-N-(2,4-dimethylphenyl)acetamide

>  <PriceCoeff>
1.00

>  <CAS>
1189865-08-4

>  <MW>
532.68

>  <Description>
solid

>  <FSP3>
0.29

>  <clogP>
2.73

>  <TPSA>
135.62

>  <Acceptor>
4

>  <Donor>
1

>  <RotBonds>
7

>  <HAC>
37

>  <Collection>
General

>  <PPDS>
+

$$$$
F3222-1453
  Mrv2219 10102508112D          

 37 41  0  0  0  0            999 V2000
    5.7266   -8.9882    0.0000 C   0  0  0  0  0  0  0  0  0  0  0  0
    7.0752   -8.5774    0.0000 N   0  0  0  0  0  0  0  0  0  0  0  0
    5.9548   -9.7767    0.0000 C   0  0  0  0  0  0  0  0  0  0  0  0
    6.2785   -8.3948    0.0000 C   0  0  0  0  0  0  0  0  0  0  0  0
    6.7598   -9.9634    0.0000 N   0  0  0  0  0  0  0  0  0  0  0  0
    7.3200   -9.3659    0.0000 C   0  0  0  0  0  0  0  0  0  0  0  0
    4.8842   -8.9675    0.0000 C   0  0  0  0  0  0  0  0  0  0  0  0
    4.6186   -9.7518    0.0000 C   0  0  0  0  0  0  0  0  0  0  0  0
    5.2701  -10.2498    0.0000 S   0  0  0  0  0  0  0  0  0  0  0  0
    3.2534   -9.2870    0.0000 N   0  0  0  0  0  0  0  0  0  0  0  0
    3.8011   -9.9136    0.0000 C   0  0  0  0  0  0  0  0  0  0  0  0
    2.4442   -9.4406    0.0000 C   0  0  0  0  0  0  0  0  0  0  0  0
    8.1168   -9.5526    0.0000 S   0  0  0  0  0  0  0  0  0  0  0  0
    7.6437   -7.9798    0.0000 C   0  0  0  0  0  0  0  0  0  0  0  0
    8.0214  -11.7270    0.0000 N   0  0  0  0  0  0  0  0  0  0  0  0
    4.3489   -8.3533    0.0000 C   0  0  0  0  0  0  0  0  0  0  0  0
    7.4487  -12.3288    0.0000 C   0  0  0  0  0  0  0  0  0  0  0  0
    7.6853  -13.1089    0.0000 C   0  0  0  0  0  0  0  0  0  0  0  0
    7.7931  -10.9427    0.0000 C   0  0  0  0  0  0  0  0  0  0  0  0
    6.0378   -7.5981    0.0000 O   0  0  0  0  0  0  0  0  0  0  0  0
    7.1209  -13.7106    0.0000 C   0  0  0  0  0  0  0  0  0  0  0  0
    3.5273   -8.5069    0.0000 C   0  0  0  0  0  0  0  0  0  0  0  0
    2.1828  -10.2124    0.0000 O   0  0  0  0  0  0  0  0  0  0  0  0
    6.9964  -10.7477    0.0000 O   0  0  0  0  0  0  0  0  0  0  0  0
    6.6395  -12.1296    0.0000 C   0  0  0  0  0  0  0  0  0  0  0  0
    8.3575  -10.3452    0.0000 C   0  0  0  0  0  0  0  0  0  0  0  0
    6.3159  -13.5239    0.0000 C   0  0  0  0  0  0  0  0  0  0  0  0
    8.4695  -13.2998    0.0000 F   0  0  0  0  0  0  0  0  0  0  0  0
    8.4446   -8.1666    0.0000 C   0  0  0  0  0  0  0  0  0  0  0  0
    6.0793  -12.7271    0.0000 C   0  0  0  0  0  0  0  0  0  0  0  0
    5.7308  -14.1214    0.0000 F   0  0  0  0  0  0  0  0  0  0  0  0
    1.9047   -8.8181    0.0000 C   0  0  0  0  0  0  0  0  0  0  0  0
    9.0131   -7.5608    0.0000 C   0  0  0  0  0  0  0  0  0  0  0  0
    8.6812   -8.9633    0.0000 C   0  0  0  0  0  0  0  0  0  0  0  0
    9.8016   -7.7475    0.0000 C   0  0  0  0  0  0  0  0  0  0  0  0
    9.4737   -9.1418    0.0000 C   0  0  0  0  0  0  0  0  0  0  0  0
   10.0381   -8.5401    0.0000 C   0  0  0  0  0  0  0  0  0  0  0  0
  2  4  1  0  0  0  0
  3  1  2  0  0  0  0
  4  1  1  0  0  0  0
  5  3  1  0  0  0  0
  6  2  1  0  0  0  0
  7  1  1  0  0  0  0
  8  7  2  0  0  0  0
  9  3  1  0  0  0  0
 10 22  1  0  0  0  0
 11  8  1  0  0  0  0
 12 10  1  0  0  0  0
 13  6  1  0  0  0  0
 14  2  1  0  0  0  0
 15 19  1  0  0  0  0
 16  7  1  0  0  0  0
 17 15  1  0  0  0  0
 18 17  2  0  0  0  0
 19 26  1  0  0  0  0
 20  4  2  0  0  0  0
 21 18  1  0  0  0  0
 22 16  1  0  0  0  0
 23 12  2  0  0  0  0
 24 19  2  0  0  0  0
 25 17  1  0  0  0  0
 26 13  1  0  0  0  0
 27 30  1  0  0  0  0
 28 18  1  0  0  0  0
 29 14  1  0  0  0  0
 30 25  2  0  0  0  0
 31 27  1  0  0  0  0
 32 12  1  0  0  0  0
 33 29  2  0  0  0  0
 34 29  1  0  0  0  0
 35 33  1  0  0  0  0
 36 34  2  0  0  0  0
 37 36  1  0  0  0  0
  9  8  1  0  0  0  0
 10 11  1  0  0  0  0
  6  5  2  0  0  0  0
 37 35  2  0  0  0  0
 27 21  2  0  0  0  0
M  END
>  <IDNUMBER>
F3222-1453

>  <Chemical_Name>
2-({11-acetyl-4-benzyl-3-oxo-8-thia-4,6,11-triazatricyclo[7.4.0.0?,?]trideca-1(9),2(7),5-trien-5-yl}sulfanyl)-N-(2,4-difluorophenyl)acetamide

>  <PriceCoeff>
1.00

>  <CAS>
1189865-84-6

>  <MW>
540.60

>  <Description>
solid

>  <FSP3>
0.23

>  <clogP>
2.41

>  <TPSA>
135.62

>  <Acceptor>
4

>  <Donor>
1

>  <RotBonds>
7

>  <HAC>
37

>  <Collection>
General

>  <PPDS>
+

$$$$
F3222-1454
  Mrv2219 10102508112D          

 36 40  0  0  0  0            999 V2000
    5.6707   -9.3119    0.0000 C   0  0  0  0  0  0  0  0  0  0  0  0
    7.0470   -8.9813    0.0000 N   0  0  0  0  0  0  0  0  0  0  0  0
    5.8567  -10.1097    0.0000 C   0  0  0  0  0  0  0  0  0  0  0  0
    6.2659   -8.7457    0.0000 C   0  0  0  0  0  0  0  0  0  0  0  0
    6.6378  -10.3411    0.0000 N   0  0  0  0  0  0  0  0  0  0  0  0
    7.2288   -9.7873    0.0000 C   0  0  0  0  0  0  0  0  0  0  0  0
    4.8399   -9.2293    0.0000 C   0  0  0  0  0  0  0  0  0  0  0  0
    4.5299   -9.9981    0.0000 C   0  0  0  0  0  0  0  0  0  0  0  0
    5.1457  -10.5312    0.0000 S   0  0  0  0  0  0  0  0  0  0  0  0
    3.2032   -9.4401    0.0000 N   0  0  0  0  0  0  0  0  0  0  0  0
    3.6992  -10.1055    0.0000 C   0  0  0  0  0  0  0  0  0  0  0  0
    2.3848   -9.5475    0.0000 C   0  0  0  0  0  0  0  0  0  0  0  0
    8.0142  -10.0229    0.0000 S   0  0  0  0  0  0  0  0  0  0  0  0
    7.6422   -8.4316    0.0000 C   0  0  0  0  0  0  0  0  0  0  0  0
    7.7910  -12.1886    0.0000 N   0  0  0  0  0  0  0  0  0  0  0  0
    4.3563   -8.5804    0.0000 C   0  0  0  0  0  0  0  0  0  0  0  0
    7.6050  -11.3744    0.0000 C   0  0  0  0  0  0  0  0  0  0  0  0
    6.0757   -7.9398    0.0000 O   0  0  0  0  0  0  0  0  0  0  0  0
    7.1916  -12.7383    0.0000 C   0  0  0  0  0  0  0  0  0  0  0  0
    3.5256   -8.6837    0.0000 C   0  0  0  0  0  0  0  0  0  0  0  0
    2.0749  -10.3039    0.0000 O   0  0  0  0  0  0  0  0  0  0  0  0
    6.4022  -12.4986    0.0000 C   0  0  0  0  0  0  0  0  0  0  0  0
    6.8238  -11.1470    0.0000 O   0  0  0  0  0  0  0  0  0  0  0  0
    8.2002  -10.8288    0.0000 C   0  0  0  0  0  0  0  0  0  0  0  0
    6.2121  -11.7050    0.0000 F   0  0  0  0  0  0  0  0  0  0  0  0
    8.4357   -8.6672    0.0000 C   0  0  0  0  0  0  0  0  0  0  0  0
    1.8889   -8.8945    0.0000 C   0  0  0  0  0  0  0  0  0  0  0  0
    7.3694  -13.5443    0.0000 C   0  0  0  0  0  0  0  0  0  0  0  0
    5.7947  -13.0689    0.0000 C   0  0  0  0  0  0  0  0  0  0  0  0
    8.6217   -9.4731    0.0000 C   0  0  0  0  0  0  0  0  0  0  0  0
    9.0309   -8.1010    0.0000 C   0  0  0  0  0  0  0  0  0  0  0  0
    6.7701  -14.1023    0.0000 C   0  0  0  0  0  0  0  0  0  0  0  0
    5.9807  -13.8625    0.0000 C   0  0  0  0  0  0  0  0  0  0  0  0
    9.3905   -9.7087    0.0000 C   0  0  0  0  0  0  0  0  0  0  0  0
    9.7997   -8.3365    0.0000 C   0  0  0  0  0  0  0  0  0  0  0  0
    9.9939   -9.1425    0.0000 C   0  0  0  0  0  0  0  0  0  0  0  0
  2  4  1  0  0  0  0
  3  1  2  0  0  0  0
  4  1  1  0  0  0  0
  5  3  1  0  0  0  0
  6  2  1  0  0  0  0
  7  1  1  0  0  0  0
  8  7  2  0  0  0  0
  9  3  1  0  0  0  0
 10 20  1  0  0  0  0
 11  8  1  0  0  0  0
 12 10  1  0  0  0  0
 13  6  1  0  0  0  0
 14  2  1  0  0  0  0
 15 17  1  0  0  0  0
 16  7  1  0  0  0  0
 17 24  1  0  0  0  0
 18  4  2  0  0  0  0
 19 15  1  0  0  0  0
 20 16  1  0  0  0  0
 21 12  2  0  0  0  0
 22 19  1  0  0  0  0
 23 17  2  0  0  0  0
 24 13  1  0  0  0  0
 25 22  1  0  0  0  0
 26 14  1  0  0  0  0
 27 12  1  0  0  0  0
 28 19  2  0  0  0  0
 29 22  2  0  0  0  0
 30 26  1  0  0  0  0
 31 26  2  0  0  0  0
 32 28  1  0  0  0  0
 33 32  2  0  0  0  0
 34 30  2  0  0  0  0
 35 31  1  0  0  0  0
 36 35  2  0  0  0  0
  9  8  1  0  0  0  0
 10 11  1  0  0  0  0
  6  5  2  0  0  0  0
 34 36  1  0  0  0  0
 33 29  1  0  0  0  0
M  END
>  <IDNUMBER>
F3222-1454

>  <Chemical_Name>
2-({11-acetyl-4-benzyl-3-oxo-8-thia-4,6,11-triazatricyclo[7.4.0.0?,?]trideca-1(9),2(7),5-trien-5-yl}sulfanyl)-N-(2-fluorophenyl)acetamide

>  <PriceCoeff>
1.00

>  <CAS>
1189862-88-1

>  <MW>
522.61

>  <Description>
solid

>  <FSP3>
0.23

>  <clogP>
2.18

>  <TPSA>
135.62

>  <Acceptor>
4

>  <Donor>
1

>  <RotBonds>
7

>  <HAC>
36

>  <Collection>
General

>  <PPDS>
+

$$$$
F3222-1456
  Mrv2219 10102508112D          

 37 41  0  0  0  0            999 V2000
    5.6364   -9.0416    0.0000 C   0  0  0  0  0  0  0  0  0  0  0  0
    7.0102   -8.6961    0.0000 N   0  0  0  0  0  0  0  0  0  0  0  0
    5.8238   -9.8450    0.0000 C   0  0  0  0  0  0  0  0  0  0  0  0
    6.2234   -8.4713    0.0000 C   0  0  0  0  0  0  0  0  0  0  0  0
    6.6105  -10.0698    0.0000 N   0  0  0  0  0  0  0  0  0  0  0  0
    7.2100   -9.5078    0.0000 C   0  0  0  0  0  0  0  0  0  0  0  0
    4.7955   -8.9791    0.0000 C   0  0  0  0  0  0  0  0  0  0  0  0
    4.4833   -9.7451    0.0000 C   0  0  0  0  0  0  0  0  0  0  0  0
    5.1119  -10.2779    0.0000 S   0  0  0  0  0  0  0  0  0  0  0  0
    3.1471   -9.1956    0.0000 N   0  0  0  0  0  0  0  0  0  0  0  0
    3.6591   -9.8575    0.0000 C   0  0  0  0  0  0  0  0  0  0  0  0
    2.3145   -9.3080    0.0000 C   0  0  0  0  0  0  0  0  0  0  0  0
    7.9967   -9.7326    0.0000 S   0  0  0  0  0  0  0  0  0  0  0  0
    7.6096   -8.1341    0.0000 C   0  0  0  0  0  0  0  0  0  0  0  0
    4.2877   -8.3214    0.0000 C   0  0  0  0  0  0  0  0  0  0  0  0
    6.0236   -7.6596    0.0000 O   0  0  0  0  0  0  0  0  0  0  0  0
    7.1850  -12.4884    0.0000 C   0  0  0  0  0  0  0  0  0  0  0  0
    7.5971  -11.1022    0.0000 C   0  0  0  0  0  0  0  0  0  0  0  0
    7.7969  -11.9139    0.0000 N   0  0  0  0  0  0  0  0  0  0  0  0
    3.4593   -8.4338    0.0000 C   0  0  0  0  0  0  0  0  0  0  0  0
    2.0231  -10.0698    0.0000 O   0  0  0  0  0  0  0  0  0  0  0  0
    6.8104  -10.8774    0.0000 O   0  0  0  0  0  0  0  0  0  0  0  0
    8.1966  -10.5444    0.0000 C   0  0  0  0  0  0  0  0  0  0  0  0
    5.7946  -12.8173    0.0000 C   0  0  0  0  0  0  0  0  0  0  0  0
    6.7854  -13.8538    0.0000 C   0  0  0  0  0  0  0  0  0  0  0  0
    6.3940  -12.2553    0.0000 C   0  0  0  0  0  0  0  0  0  0  0  0
    7.3848  -13.2793    0.0000 C   0  0  0  0  0  0  0  0  0  0  0  0
    5.9944  -13.6165    0.0000 C   0  0  0  0  0  0  0  0  0  0  0  0
    8.4089   -8.3672    0.0000 C   0  0  0  0  0  0  0  0  0  0  0  0
    1.8150   -8.6586    0.0000 C   0  0  0  0  0  0  0  0  0  0  0  0
    6.9727  -14.6530    0.0000 C   0  0  0  0  0  0  0  0  0  0  0  0
    4.9953  -12.5883    0.0000 C   0  0  0  0  0  0  0  0  0  0  0  0
    9.0041   -7.7969    0.0000 C   0  0  0  0  0  0  0  0  0  0  0  0
    8.6045   -9.1707    0.0000 C   0  0  0  0  0  0  0  0  0  0  0  0
    9.7826   -8.0217    0.0000 C   0  0  0  0  0  0  0  0  0  0  0  0
    9.3830   -9.4037    0.0000 C   0  0  0  0  0  0  0  0  0  0  0  0
    9.9824   -8.8335    0.0000 C   0  0  0  0  0  0  0  0  0  0  0  0
  2  4  1  0  0  0  0
  3  1  2  0  0  0  0
  4  1  1  0  0  0  0
  5  3  1  0  0  0  0
  6  2  1  0  0  0  0
  7  1  1  0  0  0  0
  8  7  2  0  0  0  0
  9  3  1  0  0  0  0
 10 20  1  0  0  0  0
 11  8  1  0  0  0  0
 12 10  1  0  0  0  0
 13  6  1  0  0  0  0
 14  2  1  0  0  0  0
 15  7  1  0  0  0  0
 16  4  2  0  0  0  0
 17 19  1  0  0  0  0
 18 23  1  0  0  0  0
 19 18  1  0  0  0  0
 20 15  1  0  0  0  0
 21 12  2  0  0  0  0
 22 18  2  0  0  0  0
 23 13  1  0  0  0  0
 24 26  2  0  0  0  0
 25 27  1  0  0  0  0
 26 17  1  0  0  0  0
 27 17  2  0  0  0  0
 28 25  2  0  0  0  0
 29 14  1  0  0  0  0
 30 12  1  0  0  0  0
 31 25  1  0  0  0  0
 32 24  1  0  0  0  0
 33 29  2  0  0  0  0
 34 29  1  0  0  0  0
 35 33  1  0  0  0  0
 36 34  2  0  0  0  0
 37 36  1  0  0  0  0
  9  8  1  0  0  0  0
 10 11  1  0  0  0  0
  6  5  2  0  0  0  0
 37 35  2  0  0  0  0
 24 28  1  0  0  0  0
M  END
>  <IDNUMBER>
F3222-1456

>  <Chemical_Name>
2-({11-acetyl-4-benzyl-3-oxo-8-thia-4,6,11-triazatricyclo[7.4.0.0?,?]trideca-1(9),2(7),5-trien-5-yl}sulfanyl)-N-(3,5-dimethylphenyl)acetamide

>  <PriceCoeff>
1.00

>  <CAS>
1185112-30-4

>  <MW>
532.68

>  <Description>
solid

>  <FSP3>
0.29

>  <clogP>
3.38

>  <TPSA>
135.62

>  <Acceptor>
4

>  <Donor>
1

>  <RotBonds>
7

>  <HAC>
37

>  <Collection>
General

>  <PPDS>
+

$$$$
F3222-1464
  Mrv2219 10102508112D          

 36 40  0  0  0  0            999 V2000
    6.7307   -7.9098    0.0000 C   0  0  0  0  0  0  0  0  0  0  0  0
    5.3563   -7.5528    0.0000 N   0  0  0  0  0  0  0  0  0  0  0  0
    6.5272   -8.7070    0.0000 C   0  0  0  0  0  0  0  0  0  0  0  0
    6.1452   -7.3286    0.0000 C   0  0  0  0  0  0  0  0  0  0  0  0
    5.7341   -8.9230    0.0000 N   0  0  0  0  0  0  0  0  0  0  0  0
    5.1487   -8.3500    0.0000 C   0  0  0  0  0  0  0  0  0  0  0  0
    7.5652   -7.8517    0.0000 C   0  0  0  0  0  0  0  0  0  0  0  0
    7.8642   -8.6240    0.0000 C   0  0  0  0  0  0  0  0  0  0  0  0
    7.2247   -9.1597    0.0000 S   0  0  0  0  0  0  0  0  0  0  0  0
    9.2095   -8.1009    0.0000 N   0  0  0  0  0  0  0  0  0  0  0  0
    8.6821   -8.7486    0.0000 C   0  0  0  0  0  0  0  0  0  0  0  0
   10.0192   -8.2337    0.0000 C   0  0  0  0  0  0  0  0  0  0  0  0
    4.7708   -6.9756    0.0000 C   0  0  0  0  0  0  0  0  0  0  0  0
    4.3639   -8.5700    0.0000 S   0  0  0  0  0  0  0  0  0  0  0  0
    8.0759   -7.2123    0.0000 C   0  0  0  0  0  0  0  0  0  0  0  0
    3.9778   -7.1998    0.0000 C   0  0  0  0  0  0  0  0  0  0  0  0
    6.3570   -6.5272    0.0000 O   0  0  0  0  0  0  0  0  0  0  0  0
    4.7376   -9.9527    0.0000 C   0  0  0  0  0  0  0  0  0  0  0  0
    8.9063   -7.3286    0.0000 C   0  0  0  0  0  0  0  0  0  0  0  0
    3.3301   -6.6808    0.0000 O   0  0  0  0  0  0  0  0  0  0  0  0
    4.5259  -10.7541    0.0000 N   0  0  0  0  0  0  0  0  0  0  0  0
   10.3139   -8.9977    0.0000 O   0  0  0  0  0  0  0  0  0  0  0  0
    3.6788   -7.9721    0.0000 C   0  0  0  0  0  0  0  0  0  0  0  0
    2.6449   -7.1293    0.0000 C   0  0  0  0  0  0  0  0  0  0  0  0
    2.8692   -7.9265    0.0000 C   0  0  0  0  0  0  0  0  0  0  0  0
    5.5224   -9.7160    0.0000 O   0  0  0  0  0  0  0  0  0  0  0  0
    4.1522   -9.3714    0.0000 C   0  0  0  0  0  0  0  0  0  0  0  0
    5.1238  -11.3353    0.0000 C   0  0  0  0  0  0  0  0  0  0  0  0
    6.2905  -12.4855    0.0000 C   0  0  0  0  0  0  0  0  0  0  0  0
    4.9120  -12.1201    0.0000 C   0  0  0  0  0  0  0  0  0  0  0  0
    5.9210  -11.1236    0.0000 C   0  0  0  0  0  0  0  0  0  0  0  0
    5.4975  -12.7056    0.0000 C   0  0  0  0  0  0  0  0  0  0  0  0
    6.5064  -11.6883    0.0000 C   0  0  0  0  0  0  0  0  0  0  0  0
   10.5299   -7.5901    0.0000 C   0  0  0  0  0  0  0  0  0  0  0  0
    6.8801  -13.0792    0.0000 C   0  0  0  0  0  0  0  0  0  0  0  0
    6.6684  -13.8806    0.0000 C   0  0  0  0  0  0  0  0  0  0  0  0
  2  4  1  0  0  0  0
  3  1  2  0  0  0  0
  4  1  1  0  0  0  0
  5  3  1  0  0  0  0
  6  2  1  0  0  0  0
  7  1  1  0  0  0  0
  8  7  2  0  0  0  0
  9  3  1  0  0  0  0
 10 19  1  0  0  0  0
 11  8  1  0  0  0  0
 12 10  1  0  0  0  0
 13  2  1  0  0  0  0
 14  6  1  0  0  0  0
 15  7  1  0  0  0  0
 16 13  1  0  0  0  0
 17  4  2  0  0  0  0
 18 27  1  0  0  0  0
 19 15  1  0  0  0  0
 20 16  1  0  0  0  0
 21 18  1  0  0  0  0
 22 12  2  0  0  0  0
 23 16  2  0  0  0  0
 24 20  1  0  0  0  0
 25 23  1  0  0  0  0
 26 18  2  0  0  0  0
 27 14  1  0  0  0  0
 28 21  1  0  0  0  0
 29 33  2  0  0  0  0
 30 28  1  0  0  0  0
 31 28  2  0  0  0  0
 32 30  2  0  0  0  0
 33 31  1  0  0  0  0
 34 12  1  0  0  0  0
 35 29  1  0  0  0  0
 36 35  1  0  0  0  0
  9  8  1  0  0  0  0
 10 11  1  0  0  0  0
  6  5  2  0  0  0  0
 25 24  2  0  0  0  0
 29 32  1  0  0  0  0
M  END
>  <IDNUMBER>
F3222-1464

>  <Chemical_Name>
2-({11-acetyl-4-[(furan-2-yl)methyl]-3-oxo-8-thia-4,6,11-triazatricyclo[7.4.0.0?,?]trideca-1(9),2(7),5-trien-5-yl}sulfanyl)-N-(4-ethylphenyl)acetamide

>  <PriceCoeff>
1.00

>  <CAS>
1189706-81-7

>  <MW>
522.64

>  <Description>
solid

>  <FSP3>
0.31

>  <clogP>
2.58

>  <TPSA>
148.76

>  <Acceptor>
5

>  <Donor>
1

>  <RotBonds>
8

>  <HAC>
36

>  <Collection>
General

>  <PPDS>
+

$$$$
F3222-1466
  Mrv2219 10102508112D          

 35 39  0  0  0  0            999 V2000
    7.3374   -9.5336    0.0000 C   0  0  0  0  0  0  0  0  0  0  0  0
    5.9066   -9.4588    0.0000 N   0  0  0  0  0  0  0  0  0  0  0  0
    7.2917  -10.3489    0.0000 C   0  0  0  0  0  0  0  0  0  0  0  0
    6.6428   -9.0844    0.0000 C   0  0  0  0  0  0  0  0  0  0  0  0
    6.5554  -10.7233    0.0000 N   0  0  0  0  0  0  0  0  0  0  0  0
    5.8649  -10.2741    0.0000 C   0  0  0  0  0  0  0  0  0  0  0  0
    8.1277   -9.3215    0.0000 C   0  0  0  0  0  0  0  0  0  0  0  0
    8.5770  -10.0120    0.0000 C   0  0  0  0  0  0  0  0  0  0  0  0
    8.0612  -10.6484    0.0000 S   0  0  0  0  0  0  0  0  0  0  0  0
    9.7874   -9.2508    0.0000 N   0  0  0  0  0  0  0  0  0  0  0  0
    9.4006   -9.9746    0.0000 C   0  0  0  0  0  0  0  0  0  0  0  0
   10.6110   -9.2259    0.0000 C   0  0  0  0  0  0  0  0  0  0  0  0
    5.2036   -9.0012    0.0000 C   0  0  0  0  0  0  0  0  0  0  0  0
    5.1204  -10.6359    0.0000 S   0  0  0  0  0  0  0  0  0  0  0  0
    8.5104   -8.5853    0.0000 C   0  0  0  0  0  0  0  0  0  0  0  0
    5.2410   -8.1777    0.0000 C   0  0  0  0  0  0  0  0  0  0  0  0
    6.6885   -8.2608    0.0000 O   0  0  0  0  0  0  0  0  0  0  0  0
    3.6937  -10.5361    0.0000 C   0  0  0  0  0  0  0  0  0  0  0  0
    9.3340   -8.5395    0.0000 C   0  0  0  0  0  0  0  0  0  0  0  0
    4.6587   -7.5912    0.0000 O   0  0  0  0  0  0  0  0  0  0  0  0
    3.0115  -10.0744    0.0000 N   0  0  0  0  0  0  0  0  0  0  0  0
   11.0435   -9.9329    0.0000 O   0  0  0  0  0  0  0  0  0  0  0  0
    5.9772   -7.7908    0.0000 C   0  0  0  0  0  0  0  0  0  0  0  0
    5.0331   -6.8632    0.0000 C   0  0  0  0  0  0  0  0  0  0  0  0
    5.8442   -6.9797    0.0000 C   0  0  0  0  0  0  0  0  0  0  0  0
    3.6313  -11.3597    0.0000 O   0  0  0  0  0  0  0  0  0  0  0  0
    4.4341  -10.1742    0.0000 C   0  0  0  0  0  0  0  0  0  0  0  0
    2.2628  -10.4321    0.0000 C   0  0  0  0  0  0  0  0  0  0  0  0
    0.7737  -11.1476    0.0000 C   0  0  0  0  0  0  0  0  0  0  0  0
    2.2004  -11.2557    0.0000 C   0  0  0  0  0  0  0  0  0  0  0  0
    1.5848   -9.9621    0.0000 C   0  0  0  0  0  0  0  0  0  0  0  0
    1.4642  -11.6175    0.0000 C   0  0  0  0  0  0  0  0  0  0  0  0
    0.8403  -10.3240    0.0000 C   0  0  0  0  0  0  0  0  0  0  0  0
   11.0103   -8.5021    0.0000 C   0  0  0  0  0  0  0  0  0  0  0  0
    0.0167  -11.5052    0.0000 C   0  0  0  0  0  0  0  0  0  0  0  0
  2  4  1  0  0  0  0
  3  1  2  0  0  0  0
  4  1  1  0  0  0  0
  5  3  1  0  0  0  0
  6  2  1  0  0  0  0
  7  1  1  0  0  0  0
  8  7  2  0  0  0  0
  9  3  1  0  0  0  0
 10 19  1  0  0  0  0
 11  8  1  0  0  0  0
 12 10  1  0  0  0  0
 13  2  1  0  0  0  0
 14  6  1  0  0  0  0
 15  7  1  0  0  0  0
 16 13  1  0  0  0  0
 17  4  2  0  0  0  0
 18 27  1  0  0  0  0
 19 15  1  0  0  0  0
 20 16  1  0  0  0  0
 21 18  1  0  0  0  0
 22 12  2  0  0  0  0
 23 16  2  0  0  0  0
 24 20  1  0  0  0  0
 25 23  1  0  0  0  0
 26 18  2  0  0  0  0
 27 14  1  0  0  0  0
 28 21  1  0  0  0  0
 29 33  1  0  0  0  0
 30 28  2  0  0  0  0
 31 28  1  0  0  0  0
 32 30  1  0  0  0  0
 33 31  2  0  0  0  0
 34 12  1  0  0  0  0
 35 29  1  0  0  0  0
  9  8  1  0  0  0  0
 10 11  1  0  0  0  0
  6  5  2  0  0  0  0
 25 24  2  0  0  0  0
 32 29  2  0  0  0  0
M  END
>  <IDNUMBER>
F3222-1466

>  <Chemical_Name>
2-({11-acetyl-4-[(furan-2-yl)methyl]-3-oxo-8-thia-4,6,11-triazatricyclo[7.4.0.0?,?]trideca-1(9),2(7),5-trien-5-yl}sulfanyl)-N-(4-methylphenyl)acetamide

>  <PriceCoeff>
1.00

>  <CAS>
1215481-48-3

>  <MW>
508.61

>  <Description>
solid

>  <FSP3>
0.28

>  <clogP>
2.05

>  <TPSA>
148.76

>  <Acceptor>
5

>  <Donor>
1

>  <RotBonds>
7

>  <HAC>
35

>  <Collection>
General

>  <PPDS>
+

$$$$
F3222-1467
  Mrv2219 10102508112D          

 36 40  0  0  0  0            999 V2000
    6.0723   -8.9882    0.0000 C   0  0  0  0  0  0  0  0  0  0  0  0
    4.7160   -8.5485    0.0000 N   0  0  0  0  0  0  0  0  0  0  0  0
    5.8110   -9.7803    0.0000 C   0  0  0  0  0  0  0  0  0  0  0  0
    5.5248   -8.3867    0.0000 C   0  0  0  0  0  0  0  0  0  0  0  0
    5.0063   -9.9421    0.0000 N   0  0  0  0  0  0  0  0  0  0  0  0
    4.4588   -9.3324    0.0000 C   0  0  0  0  0  0  0  0  0  0  0  0
    6.9060   -8.9964    0.0000 C   0  0  0  0  0  0  0  0  0  0  0  0
    7.1548   -9.7845    0.0000 C   0  0  0  0  0  0  0  0  0  0  0  0
    6.4746  -10.2656    0.0000 S   0  0  0  0  0  0  0  0  0  0  0  0
    8.5278   -9.3448    0.0000 N   0  0  0  0  0  0  0  0  0  0  0  0
    7.9636   -9.9670    0.0000 C   0  0  0  0  0  0  0  0  0  0  0  0
    9.3241   -9.5232    0.0000 C   0  0  0  0  0  0  0  0  0  0  0  0
    4.1726   -7.9387    0.0000 C   0  0  0  0  0  0  0  0  0  0  0  0
    3.6625   -9.4983    0.0000 S   0  0  0  0  0  0  0  0  0  0  0  0
    7.4535   -8.3867    0.0000 C   0  0  0  0  0  0  0  0  0  0  0  0
    3.3638   -8.1130    0.0000 C   0  0  0  0  0  0  0  0  0  0  0  0
    5.7861   -7.5945    0.0000 O   0  0  0  0  0  0  0  0  0  0  0  0
    3.9569  -10.9044    0.0000 C   0  0  0  0  0  0  0  0  0  0  0  0
    8.2747   -8.5609    0.0000 C   0  0  0  0  0  0  0  0  0  0  0  0
    3.6956  -11.6883    0.0000 N   0  0  0  0  0  0  0  0  0  0  0  0
    4.5335  -13.6999    0.0000 C   0  0  0  0  0  0  0  0  0  0  0  0
    2.7541   -7.5572    0.0000 O   0  0  0  0  0  0  0  0  0  0  0  0
    4.2556  -12.3063    0.0000 C   0  0  0  0  0  0  0  0  0  0  0  0
    3.9943  -13.0820    0.0000 C   0  0  0  0  0  0  0  0  0  0  0  0
    5.3381  -13.5299    0.0000 C   0  0  0  0  0  0  0  0  0  0  0  0
    9.5730  -10.3030    0.0000 O   0  0  0  0  0  0  0  0  0  0  0  0
    3.0279   -8.8637    0.0000 C   0  0  0  0  0  0  0  0  0  0  0  0
    2.0449   -7.9636    0.0000 C   0  0  0  0  0  0  0  0  0  0  0  0
    2.2191   -8.7766    0.0000 C   0  0  0  0  0  0  0  0  0  0  0  0
    4.7533  -10.7178    0.0000 O   0  0  0  0  0  0  0  0  0  0  0  0
    3.4012  -10.2822    0.0000 C   0  0  0  0  0  0  0  0  0  0  0  0
    5.6119  -12.7460    0.0000 C   0  0  0  0  0  0  0  0  0  0  0  0
    5.0644  -12.1445    0.0000 C   0  0  0  0  0  0  0  0  0  0  0  0
    9.8716   -8.9135    0.0000 C   0  0  0  0  0  0  0  0  0  0  0  0
    4.2597  -14.4839    0.0000 C   0  0  0  0  0  0  0  0  0  0  0  0
    5.8898  -14.1521    0.0000 C   0  0  0  0  0  0  0  0  0  0  0  0
  2  4  1  0  0  0  0
  3  1  2  0  0  0  0
  4  1  1  0  0  0  0
  5  3  1  0  0  0  0
  6  2  1  0  0  0  0
  7  1  1  0  0  0  0
  8  7  2  0  0  0  0
  9  3  1  0  0  0  0
 10 19  1  0  0  0  0
 11  8  1  0  0  0  0
 12 10  1  0  0  0  0
 13  2  1  0  0  0  0
 14  6  1  0  0  0  0
 15  7  1  0  0  0  0
 16 13  1  0  0  0  0
 17  4  2  0  0  0  0
 18 31  1  0  0  0  0
 19 15  1  0  0  0  0
 20 18  1  0  0  0  0
 21 24  2  0  0  0  0
 22 16  1  0  0  0  0
 23 20  1  0  0  0  0
 24 23  1  0  0  0  0
 25 32  2  0  0  0  0
 26 12  2  0  0  0  0
 27 16  2  0  0  0  0
 28 22  1  0  0  0  0
 29 27  1  0  0  0  0
 30 18  2  0  0  0  0
 31 14  1  0  0  0  0
 32 33  1  0  0  0  0
 33 23  2  0  0  0  0
 34 12  1  0  0  0  0
 35 21  1  0  0  0  0
 36 25  1  0  0  0  0
  9  8  1  0  0  0  0
 10 11  1  0  0  0  0
  6  5  2  0  0  0  0
 29 28  2  0  0  0  0
 25 21  1  0  0  0  0
M  END
>  <IDNUMBER>
F3222-1467

>  <Chemical_Name>
2-({11-acetyl-4-[(furan-2-yl)methyl]-3-oxo-8-thia-4,6,11-triazatricyclo[7.4.0.0?,?]trideca-1(9),2(7),5-trien-5-yl}sulfanyl)-N-(3,4-dimethylphenyl)acetamide

>  <PriceCoeff>
1.00

>  <CAS>
1189711-83-8

>  <MW>
522.64

>  <Description>
solid

>  <FSP3>
0.31

>  <clogP>
2.50

>  <TPSA>
148.76

>  <Acceptor>
5

>  <Donor>
1

>  <RotBonds>
7

>  <HAC>
36

>  <Collection>
General

>  <PPDS>
+

$$$$
F3222-1846
  Mrv2219 10102508112D          

 27 30  0  0  0  0            999 V2000
    1.3375    0.0498    0.0000 C   0  0  0  0  0  0  0  0  0  0  0  0
    1.3458   -0.7768    0.0000 C   0  0  0  0  0  0  0  0  0  0  0  0
    2.7580    0.0457    0.0000 N   0  0  0  0  0  0  0  0  0  0  0  0
    2.0478   -1.1838    0.0000 N   0  0  0  0  0  0  0  0  0  0  0  0
    2.7580   -0.7768    0.0000 C   0  0  0  0  0  0  0  0  0  0  0  0
    2.0478    0.4611    0.0000 C   0  0  0  0  0  0  0  0  0  0  0  0
    0.5525    0.3073    0.0000 C   0  0  0  0  0  0  0  0  0  0  0  0
    0.0623   -0.3656    0.0000 C   0  0  0  0  0  0  0  0  0  0  0  0
    0.5525   -1.0384    0.0000 S   0  0  0  0  0  0  0  0  0  0  0  0
   -1.1090    0.4818    0.0000 N   0  0  0  0  0  0  0  0  0  0  0  0
   -0.7684   -0.2783    0.0000 C   0  0  0  0  0  0  0  0  0  0  0  0
   -1.9273    0.5690    0.0000 C   0  0  0  0  0  0  0  0  0  0  0  0
    3.4641    0.4486    0.0000 C   0  0  0  0  0  0  0  0  0  0  0  0
    0.2160    1.0675    0.0000 C   0  0  0  0  0  0  0  0  0  0  0  0
    2.0478    1.2710    0.0000 O   0  0  0  0  0  0  0  0  0  0  0  0
   -0.6189    1.1589    0.0000 C   0  0  0  0  0  0  0  0  0  0  0  0
    3.4641   -1.1880    0.0000 S   0  0  0  0  0  0  0  0  0  0  0  0
   -2.4008   -0.0914    0.0000 O   0  0  0  0  0  0  0  0  0  0  0  0
    3.4641    1.2668    0.0000 C   0  0  0  0  0  0  0  0  0  0  0  0
    4.1661    0.0332    0.0000 C   0  0  0  0  0  0  0  0  0  0  0  0
    4.8889    1.2668    0.0000 C   0  0  0  0  0  0  0  0  0  0  0  0
    4.1661    1.6698    0.0000 C   0  0  0  0  0  0  0  0  0  0  0  0
    4.8847    0.4361    0.0000 C   0  0  0  0  0  0  0  0  0  0  0  0
    5.5991    1.6780    0.0000 O   0  0  0  0  0  0  0  0  0  0  0  0
   -2.2512    1.3167    0.0000 C   0  0  0  0  0  0  0  0  0  0  0  0
    3.4641   -2.0062    0.0000 C   0  0  0  0  0  0  0  0  0  0  0  0
    5.5991    2.5005    0.0000 C   0  0  0  0  0  0  0  0  0  0  0  0
  2  1  2  0  0  0  0
  3  6  1  0  0  0  0
  4  2  1  0  0  0  0
  5  3  1  0  0  0  0
  6  1  1  0  0  0  0
  7  1  1  0  0  0  0
  8  7  2  0  0  0  0
  9  2  1  0  0  0  0
 10 16  1  0  0  0  0
 11  8  1  0  0  0  0
 12 10  1  0  0  0  0
 13  3  1  0  0  0  0
 14  7  1  0  0  0  0
 15  6  2  0  0  0  0
 16 14  1  0  0  0  0
 17  5  1  0  0  0  0
 18 12  2  0  0  0  0
 19 13  1  0  0  0  0
 20 13  2  0  0  0  0
 21 23  2  0  0  0  0
 22 19  2  0  0  0  0
 23 20  1  0  0  0  0
 24 21  1  0  0  0  0
 25 12  1  0  0  0  0
 26 17  1  0  0  0  0
 27 24  1  0  0  0  0
  8  9  1  0  0  0  0
 10 11  1  0  0  0  0
  4  5  2  0  0  0  0
 22 21  1  0  0  0  0
M  END
>  <IDNUMBER>
F3222-1846

>  <Chemical_Name>
11-acetyl-4-(4-methoxyphenyl)-5-(methylsulfanyl)-8-thia-4,6,11-triazatricyclo[7.4.0.0?,?]trideca-1(9),2(7),5-trien-3-one

>  <PriceCoeff>
1.00

>  <MW>
401.50

>  <Description>
solid

>  <FSP3>
0.32

>  <clogP>
2.15

>  <TPSA>
115.75

>  <Acceptor>
4

>  <Donor>
0

>  <RotBonds>
4

>  <HAC>
27

>  <Collection>
General

$$$$
F3222-1848
  Mrv2219 10102508112D          

 34 38  0  0  0  0            999 V2000
    1.3411    0.0500    0.0000 C   0  0  0  0  0  0  0  0  0  0  0  0
    1.3494   -0.7789    0.0000 C   0  0  0  0  0  0  0  0  0  0  0  0
    2.7655    0.0458    0.0000 N   0  0  0  0  0  0  0  0  0  0  0  0
    2.7655   -0.7789    0.0000 C   0  0  0  0  0  0  0  0  0  0  0  0
    2.0533   -1.1870    0.0000 N   0  0  0  0  0  0  0  0  0  0  0  0
    2.0533    0.4623    0.0000 C   0  0  0  0  0  0  0  0  0  0  0  0
    0.5539    0.3081    0.0000 C   0  0  0  0  0  0  0  0  0  0  0  0
    0.0625   -0.3665    0.0000 C   0  0  0  0  0  0  0  0  0  0  0  0
    0.5539   -1.0413    0.0000 S   0  0  0  0  0  0  0  0  0  0  0  0
   -1.1121    0.4831    0.0000 N   0  0  0  0  0  0  0  0  0  0  0  0
   -0.7705   -0.2791    0.0000 C   0  0  0  0  0  0  0  0  0  0  0  0
    3.4735   -1.1912    0.0000 S   0  0  0  0  0  0  0  0  0  0  0  0
   -1.9324    0.5705    0.0000 C   0  0  0  0  0  0  0  0  0  0  0  0
    3.4735    0.4498    0.0000 C   0  0  0  0  0  0  0  0  0  0  0  0
    0.2166    1.0704    0.0000 C   0  0  0  0  0  0  0  0  0  0  0  0
    2.0533    1.2745    0.0000 O   0  0  0  0  0  0  0  0  0  0  0  0
   -0.6205    1.1620    0.0000 C   0  0  0  0  0  0  0  0  0  0  0  0
   -2.4073   -0.0917    0.0000 O   0  0  0  0  0  0  0  0  0  0  0  0
    3.4735    1.2703    0.0000 C   0  0  0  0  0  0  0  0  0  0  0  0
    4.1774    0.0333    0.0000 C   0  0  0  0  0  0  0  0  0  0  0  0
    3.4735   -2.0116    0.0000 C   0  0  0  0  0  0  0  0  0  0  0  0
    4.8979   -2.0116    0.0000 C   0  0  0  0  0  0  0  0  0  0  0  0
    4.9021    1.2703    0.0000 C   0  0  0  0  0  0  0  0  0  0  0  0
    5.6101   -2.4157    0.0000 C   0  0  0  0  0  0  0  0  0  0  0  0
    4.1857   -2.4240    0.0000 C   0  0  0  0  0  0  0  0  0  0  0  0
    4.1774    1.6743    0.0000 C   0  0  0  0  0  0  0  0  0  0  0  0
    4.8979    0.4373    0.0000 C   0  0  0  0  0  0  0  0  0  0  0  0
    6.3265   -2.0033    0.0000 F   0  0  0  0  0  0  0  0  0  0  0  0
    5.6143    1.6826    0.0000 O   0  0  0  0  0  0  0  0  0  0  0  0
   -2.2574    1.3203    0.0000 C   0  0  0  0  0  0  0  0  0  0  0  0
    4.8979   -3.6610    0.0000 C   0  0  0  0  0  0  0  0  0  0  0  0
    5.6143   -3.2486    0.0000 C   0  0  0  0  0  0  0  0  0  0  0  0
    4.1857   -3.2486    0.0000 C   0  0  0  0  0  0  0  0  0  0  0  0
    5.6143    2.5073    0.0000 C   0  0  0  0  0  0  0  0  0  0  0  0
  2  1  2  0  0  0  0
  3  6  1  0  0  0  0
  4  3  1  0  0  0  0
  5  2  1  0  0  0  0
  6  1  1  0  0  0  0
  7  1  1  0  0  0  0
  8  7  2  0  0  0  0
  9  2  1  0  0  0  0
 10 17  1  0  0  0  0
 11  8  1  0  0  0  0
 12  4  1  0  0  0  0
 13 10  1  0  0  0  0
 14  3  1  0  0  0  0
 15  7  1  0  0  0  0
 16  6  2  0  0  0  0
 17 15  1  0  0  0  0
 18 13  2  0  0  0  0
 19 14  1  0  0  0  0
 20 14  2  0  0  0  0
 21 12  1  0  0  0  0
 22 25  1  0  0  0  0
 23 27  2  0  0  0  0
 24 22  2  0  0  0  0
 25 21  1  0  0  0  0
 26 19  2  0  0  0  0
 27 20  1  0  0  0  0
 28 24  1  0  0  0  0
 29 23  1  0  0  0  0
 30 13  1  0  0  0  0
 31 33  1  0  0  0  0
 32 31  2  0  0  0  0
 33 25  2  0  0  0  0
 34 29  1  0  0  0  0
  8  9  1  0  0  0  0
  5  4  2  0  0  0  0
 10 11  1  0  0  0  0
 26 23  1  0  0  0  0
 24 32  1  0  0  0  0
M  END
>  <IDNUMBER>
F3222-1848

>  <Chemical_Name>
11-acetyl-5-{[(3-fluorophenyl)methyl]sulfanyl}-4-(4-methoxyphenyl)-8-thia-4,6,11-triazatricyclo[7.4.0.0?,?]trideca-1(9),2(7),5-trien-3-one

>  <PriceCoeff>
1.00

>  <CAS>
931722-45-1

>  <MW>
495.59

>  <Description>
solid

>  <FSP3>
0.24

>  <clogP>
3.86

>  <TPSA>
115.75

>  <Acceptor>
4

>  <Donor>
0

>  <RotBonds>
6

>  <HAC>
34

>  <Collection>
General

$$$$
F3222-1857
  Mrv2219 10102508112D          

 33 37  0  0  0  0            999 V2000
    3.3048   -0.5280    0.0000 N   0  0  0  0  0  0  0  0  0  0  0  0
    1.8873   -0.5238    0.0000 C   0  0  0  0  0  0  0  0  0  0  0  0
    1.8873   -1.3510    0.0000 C   0  0  0  0  0  0  0  0  0  0  0  0
    3.3048   -1.3510    0.0000 C   0  0  0  0  0  0  0  0  0  0  0  0
    2.5981   -1.7584    0.0000 N   0  0  0  0  0  0  0  0  0  0  0  0
    2.5981   -0.1122    0.0000 C   0  0  0  0  0  0  0  0  0  0  0  0
    1.0974   -0.2661    0.0000 C   0  0  0  0  0  0  0  0  0  0  0  0
    0.6028   -0.9395    0.0000 C   0  0  0  0  0  0  0  0  0  0  0  0
    1.0974   -1.6129    0.0000 S   0  0  0  0  0  0  0  0  0  0  0  0
    4.0073   -0.1247    0.0000 C   0  0  0  0  0  0  0  0  0  0  0  0
   -0.5695   -0.0915    0.0000 N   0  0  0  0  0  0  0  0  0  0  0  0
   -0.2245   -0.8522    0.0000 C   0  0  0  0  0  0  0  0  0  0  0  0
    4.0073    0.6942    0.0000 C   0  0  0  0  0  0  0  0  0  0  0  0
    4.0073   -1.7626    0.0000 S   0  0  0  0  0  0  0  0  0  0  0  0
   -1.3801   -0.0042    0.0000 C   0  0  0  0  0  0  0  0  0  0  0  0
    0.7607    0.4946    0.0000 C   0  0  0  0  0  0  0  0  0  0  0  0
    4.7182    1.0974    0.0000 C   0  0  0  0  0  0  0  0  0  0  0  0
    2.5981    0.6984    0.0000 O   0  0  0  0  0  0  0  0  0  0  0  0
   -0.0706    0.5861    0.0000 C   0  0  0  0  0  0  0  0  0  0  0  0
    4.7182   -0.5404    0.0000 C   0  0  0  0  0  0  0  0  0  0  0  0
    5.4373    0.6942    0.0000 C   0  0  0  0  0  0  0  0  0  0  0  0
   -1.8582   -0.6651    0.0000 O   0  0  0  0  0  0  0  0  0  0  0  0
    5.4290   -0.1372    0.0000 C   0  0  0  0  0  0  0  0  0  0  0  0
    4.0073   -2.5815    0.0000 C   0  0  0  0  0  0  0  0  0  0  0  0
    4.7140    1.9205    0.0000 Cl  0  0  0  0  0  0  0  0  0  0  0  0
    4.7182   -2.9930    0.0000 C   0  0  0  0  0  0  0  0  0  0  0  0
   -1.7085    0.7441    0.0000 C   0  0  0  0  0  0  0  0  0  0  0  0
    6.1481    1.1099    0.0000 C   0  0  0  0  0  0  0  0  0  0  0  0
    4.7182   -3.8161    0.0000 C   0  0  0  0  0  0  0  0  0  0  0  0
    5.4290   -2.5732    0.0000 C   0  0  0  0  0  0  0  0  0  0  0  0
    6.1481   -2.9847    0.0000 C   0  0  0  0  0  0  0  0  0  0  0  0
    5.4373   -4.2276    0.0000 C   0  0  0  0  0  0  0  0  0  0  0  0
    6.1523   -3.8161    0.0000 C   0  0  0  0  0  0  0  0  0  0  0  0
  2  6  1  0  0  0  0
  3  2  2  0  0  0  0
  4  1  1  0  0  0  0
  5  4  2  0  0  0  0
  6  1  1  0  0  0  0
  7  2  1  0  0  0  0
  8  7  2  0  0  0  0
  9  3  1  0  0  0  0
 10  1  1  0  0  0  0
 11 19  1  0  0  0  0
 12  8  1  0  0  0  0
 13 10  1  0  0  0  0
 14  4  1  0  0  0  0
 15 11  1  0  0  0  0
 16  7  1  0  0  0  0
 17 13  2  0  0  0  0
 18  6  2  0  0  0  0
 19 16  1  0  0  0  0
 20 10  2  0  0  0  0
 21 23  2  0  0  0  0
 22 15  2  0  0  0  0
 23 20  1  0  0  0  0
 24 14  1  0  0  0  0
 25 17  1  0  0  0  0
 26 24  1  0  0  0  0
 27 15  1  0  0  0  0
 28 21  1  0  0  0  0
 29 26  2  0  0  0  0
 30 26  1  0  0  0  0
 31 30  2  0  0  0  0
 32 29  1  0  0  0  0
 33 31  1  0  0  0  0
  5  3  1  0  0  0  0
 17 21  1  0  0  0  0
  8  9  1  0  0  0  0
 11 12  1  0  0  0  0
 32 33  2  0  0  0  0
M  END
>  <IDNUMBER>
F3222-1857

>  <Chemical_Name>
11-acetyl-5-(benzylsulfanyl)-4-(3-chloro-4-methylphenyl)-8-thia-4,6,11-triazatricyclo[7.4.0.0?,?]trideca-1(9),2(7),5-trien-3-one

>  <PriceCoeff>
1.00

>  <CAS>
892304-54-0

>  <MW>
496.04

>  <Description>
solid

>  <FSP3>
0.24

>  <clogP>
4.85

>  <TPSA>
106.52

>  <Acceptor>
3

>  <Donor>
0

>  <RotBonds>
5

>  <HAC>
33

>  <Collection>
General

>  <PPDS>
+

$$$$
F3222-2276
  Mrv2219 10102508112D          

 33 37  0  0  0  0            999 V2000
    4.8387   -3.2896    0.0000 N   0  0  0  0  0  0  0  0  0  0  0  0
    5.5091   -4.5638    0.0000 C   0  0  0  0  0  0  0  0  0  0  0  0
    6.2378   -4.1766    0.0000 C   0  0  0  0  0  0  0  0  0  0  0  0
    5.5715   -2.9149    0.0000 C   0  0  0  0  0  0  0  0  0  0  0  0
    6.2711   -3.3521    0.0000 N   0  0  0  0  0  0  0  0  0  0  0  0
    4.8095   -4.1141    0.0000 C   0  0  0  0  0  0  0  0  0  0  0  0
    5.6507   -5.3758    0.0000 C   0  0  0  0  0  0  0  0  0  0  0  0
    6.4627   -5.4883    0.0000 C   0  0  0  0  0  0  0  0  0  0  0  0
    6.8249   -4.7637    0.0000 S   0  0  0  0  0  0  0  0  0  0  0  0
    6.2586   -6.8999    0.0000 N   0  0  0  0  0  0  0  0  0  0  0  0
    4.1474   -2.8524    0.0000 C   0  0  0  0  0  0  0  0  0  0  0  0
    6.7708   -6.2503    0.0000 C   0  0  0  0  0  0  0  0  0  0  0  0
    5.6007   -2.0904    0.0000 S   0  0  0  0  0  0  0  0  0  0  0  0
    6.5584   -7.6744    0.0000 C   0  0  0  0  0  0  0  0  0  0  0  0
    5.1385   -6.0212    0.0000 C   0  0  0  0  0  0  0  0  0  0  0  0
    4.0642   -4.4972    0.0000 O   0  0  0  0  0  0  0  0  0  0  0  0
    5.4508   -6.7874    0.0000 C   0  0  0  0  0  0  0  0  0  0  0  0
    3.4146   -3.2397    0.0000 C   0  0  0  0  0  0  0  0  0  0  0  0
    7.3746   -7.7993    0.0000 O   0  0  0  0  0  0  0  0  0  0  0  0
    6.3335   -1.7031    0.0000 C   0  0  0  0  0  0  0  0  0  0  0  0
    6.4252    0.7828    0.0000 C   0  0  0  0  0  0  0  0  0  0  0  0
    6.3627   -0.8786    0.0000 C   0  0  0  0  0  0  0  0  0  0  0  0
    6.4460    1.6073    0.0000 Cl  0  0  0  0  0  0  0  0  0  0  0  0
    7.1247    0.3331    0.0000 C   0  0  0  0  0  0  0  0  0  0  0  0
    5.7006    0.3873    0.0000 C   0  0  0  0  0  0  0  0  0  0  0  0
    7.0956   -0.4914    0.0000 C   0  0  0  0  0  0  0  0  0  0  0  0
    5.6714   -0.4414    0.0000 C   0  0  0  0  0  0  0  0  0  0  0  0
    4.1766   -2.0279    0.0000 C   0  0  0  0  0  0  0  0  0  0  0  0
    6.0379   -8.3115    0.0000 C   0  0  0  0  0  0  0  0  0  0  0  0
    3.3854   -4.0642    0.0000 C   0  0  0  0  0  0  0  0  0  0  0  0
    2.7150   -2.8024    0.0000 C   0  0  0  0  0  0  0  0  0  0  0  0
    3.4853   -1.5907    0.0000 C   0  0  0  0  0  0  0  0  0  0  0  0
    2.7525   -1.9738    0.0000 C   0  0  0  0  0  0  0  0  0  0  0  0
  2  6  1  0  0  0  0
  3  2  2  0  0  0  0
  4  1  1  0  0  0  0
  5  4  2  0  0  0  0
  6  1  1  0  0  0  0
  7  2  1  0  0  0  0
  8  7  2  0  0  0  0
  9  3  1  0  0  0  0
 10 17  1  0  0  0  0
 11  1  1  0  0  0  0
 12  8  1  0  0  0  0
 13  4  1  0  0  0  0
 14 10  1  0  0  0  0
 15  7  1  0  0  0  0
 16  6  2  0  0  0  0
 17 15  1  0  0  0  0
 18 11  1  0  0  0  0
 19 14  2  0  0  0  0
 20 13  1  0  0  0  0
 21 25  1  0  0  0  0
 22 20  1  0  0  0  0
 23 21  1  0  0  0  0
 24 26  1  0  0  0  0
 25 27  2  0  0  0  0
 26 22  2  0  0  0  0
 27 22  1  0  0  0  0
 28 11  2  0  0  0  0
 29 14  1  0  0  0  0
 30 18  1  0  0  0  0
 31 18  2  0  0  0  0
 32 28  1  0  0  0  0
 33 32  2  0  0  0  0
  3  5  1  0  0  0  0
 31 33  1  0  0  0  0
  8  9  1  0  0  0  0
 12 10  1  0  0  0  0
 24 21  2  0  0  0  0
M  END
>  <IDNUMBER>
F3222-2276

>  <Chemical_Name>
11-acetyl-5-{[(4-chlorophenyl)methyl]sulfanyl}-4-(2-methylphenyl)-8-thia-4,6,11-triazatricyclo[7.4.0.0?,?]trideca-1(9),2(7),5-trien-3-one

>  <PriceCoeff>
1.00

>  <CAS>
1216893-50-3

>  <MW>
496.04

>  <Description>
solid

>  <FSP3>
0.24

>  <clogP>
4.85

>  <TPSA>
106.52

>  <Acceptor>
3

>  <Donor>
0

>  <RotBonds>
5

>  <HAC>
33

>  <Collection>
General

>  <PPDS>
+

$$$$
F3222-2277
  Mrv2219 10102508112D          

 34 38  0  0  0  0            999 V2000
    4.8387   -2.8649    0.0000 N   0  0  0  0  0  0  0  0  0  0  0  0
    5.5091   -4.1391    0.0000 C   0  0  0  0  0  0  0  0  0  0  0  0
    6.2378   -3.7519    0.0000 C   0  0  0  0  0  0  0  0  0  0  0  0
    5.5715   -2.4901    0.0000 C   0  0  0  0  0  0  0  0  0  0  0  0
    6.2711   -2.9274    0.0000 N   0  0  0  0  0  0  0  0  0  0  0  0
    4.8095   -3.6894    0.0000 C   0  0  0  0  0  0  0  0  0  0  0  0
    5.6507   -4.9511    0.0000 C   0  0  0  0  0  0  0  0  0  0  0  0
    6.4627   -5.0635    0.0000 C   0  0  0  0  0  0  0  0  0  0  0  0
    6.8249   -4.3390    0.0000 S   0  0  0  0  0  0  0  0  0  0  0  0
    6.2586   -6.4751    0.0000 N   0  0  0  0  0  0  0  0  0  0  0  0
    4.1474   -2.4277    0.0000 C   0  0  0  0  0  0  0  0  0  0  0  0
    6.3627   -0.4539    0.0000 C   0  0  0  0  0  0  0  0  0  0  0  0
    5.6007   -1.6657    0.0000 S   0  0  0  0  0  0  0  0  0  0  0  0
    6.7708   -5.8256    0.0000 C   0  0  0  0  0  0  0  0  0  0  0  0
    6.5584   -7.2497    0.0000 C   0  0  0  0  0  0  0  0  0  0  0  0
    6.3335   -1.2784    0.0000 C   0  0  0  0  0  0  0  0  0  0  0  0
    5.1385   -5.5965    0.0000 C   0  0  0  0  0  0  0  0  0  0  0  0
    4.0642   -4.0642    0.0000 O   0  0  0  0  0  0  0  0  0  0  0  0
    5.4508   -6.3627    0.0000 C   0  0  0  0  0  0  0  0  0  0  0  0
    7.0956   -0.0667    0.0000 C   0  0  0  0  0  0  0  0  0  0  0  0
    5.6714   -0.0167    0.0000 C   0  0  0  0  0  0  0  0  0  0  0  0
    3.4146   -2.8149    0.0000 C   0  0  0  0  0  0  0  0  0  0  0  0
    7.3746   -7.3746    0.0000 O   0  0  0  0  0  0  0  0  0  0  0  0
    7.8076   -0.5039    0.0000 Cl  0  0  0  0  0  0  0  0  0  0  0  0
    4.9344   -0.4122    0.0000 F   0  0  0  0  0  0  0  0  0  0  0  0
    4.1766   -1.6032    0.0000 C   0  0  0  0  0  0  0  0  0  0  0  0
    6.0379   -7.8868    0.0000 C   0  0  0  0  0  0  0  0  0  0  0  0
    6.4252    1.2075    0.0000 C   0  0  0  0  0  0  0  0  0  0  0  0
    7.1247    0.7578    0.0000 C   0  0  0  0  0  0  0  0  0  0  0  0
    5.7006    0.8120    0.0000 C   0  0  0  0  0  0  0  0  0  0  0  0
    3.3854   -3.6394    0.0000 C   0  0  0  0  0  0  0  0  0  0  0  0
    2.7150   -2.3777    0.0000 C   0  0  0  0  0  0  0  0  0  0  0  0
    3.4853   -1.1660    0.0000 C   0  0  0  0  0  0  0  0  0  0  0  0
    2.7525   -1.5490    0.0000 C   0  0  0  0  0  0  0  0  0  0  0  0
  2  6  1  0  0  0  0
  3  2  2  0  0  0  0
  4  1  1  0  0  0  0
  5  4  2  0  0  0  0
  6  1  1  0  0  0  0
  7  2  1  0  0  0  0
  8  7  2  0  0  0  0
  9  3  1  0  0  0  0
 10 19  1  0  0  0  0
 11  1  1  0  0  0  0
 12 16  1  0  0  0  0
 13  4  1  0  0  0  0
 14  8  1  0  0  0  0
 15 10  1  0  0  0  0
 16 13  1  0  0  0  0
 17  7  1  0  0  0  0
 18  6  2  0  0  0  0
 19 17  1  0  0  0  0
 20 12  2  0  0  0  0
 21 12  1  0  0  0  0
 22 11  1  0  0  0  0
 23 15  2  0  0  0  0
 24 20  1  0  0  0  0
 25 21  1  0  0  0  0
 26 11  2  0  0  0  0
 27 15  1  0  0  0  0
 28 30  1  0  0  0  0
 29 20  1  0  0  0  0
 30 21  2  0  0  0  0
 31 22  1  0  0  0  0
 32 22  2  0  0  0  0
 33 26  1  0  0  0  0
 34 33  2  0  0  0  0
  3  5  1  0  0  0  0
 32 34  1  0  0  0  0
  8  9  1  0  0  0  0
 14 10  1  0  0  0  0
 29 28  2  0  0  0  0
M  END
>  <IDNUMBER>
F3222-2277

>  <Chemical_Name>
11-acetyl-5-{[(2-chloro-6-fluorophenyl)methyl]sulfanyl}-4-(2-methylphenyl)-8-thia-4,6,11-triazatricyclo[7.4.0.0?,?]trideca-1(9),2(7),5-trien-3-one

>  <PriceCoeff>
1.00

>  <CAS>
1185006-47-6

>  <MW>
514.03

>  <Description>
solid

>  <FSP3>
0.24

>  <clogP>
4.99

>  <TPSA>
106.52

>  <Acceptor>
3

>  <Donor>
0

>  <RotBonds>
5

>  <HAC>
34

>  <Collection>
General

>  <PPDS>
+

$$$$
F3222-2278
  Mrv2219 10102508112D          

 33 37  0  0  0  0            999 V2000
    4.8387   -3.2896    0.0000 N   0  0  0  0  0  0  0  0  0  0  0  0
    5.5091   -4.5638    0.0000 C   0  0  0  0  0  0  0  0  0  0  0  0
    6.2378   -4.1766    0.0000 C   0  0  0  0  0  0  0  0  0  0  0  0
    5.5715   -2.9149    0.0000 C   0  0  0  0  0  0  0  0  0  0  0  0
    6.2711   -3.3521    0.0000 N   0  0  0  0  0  0  0  0  0  0  0  0
    4.8095   -4.1141    0.0000 C   0  0  0  0  0  0  0  0  0  0  0  0
    5.6507   -5.3758    0.0000 C   0  0  0  0  0  0  0  0  0  0  0  0
    6.4627   -5.4883    0.0000 C   0  0  0  0  0  0  0  0  0  0  0  0
    6.8249   -4.7637    0.0000 S   0  0  0  0  0  0  0  0  0  0  0  0
    6.2586   -6.8999    0.0000 N   0  0  0  0  0  0  0  0  0  0  0  0
    4.1474   -2.8524    0.0000 C   0  0  0  0  0  0  0  0  0  0  0  0
    6.7708   -6.2503    0.0000 C   0  0  0  0  0  0  0  0  0  0  0  0
    5.6007   -2.0904    0.0000 S   0  0  0  0  0  0  0  0  0  0  0  0
    6.5584   -7.6744    0.0000 C   0  0  0  0  0  0  0  0  0  0  0  0
    5.1385   -6.0212    0.0000 C   0  0  0  0  0  0  0  0  0  0  0  0
    4.0642   -4.4972    0.0000 O   0  0  0  0  0  0  0  0  0  0  0  0
    5.4508   -6.7874    0.0000 C   0  0  0  0  0  0  0  0  0  0  0  0
    3.4146   -3.2397    0.0000 C   0  0  0  0  0  0  0  0  0  0  0  0
    7.3746   -7.7993    0.0000 O   0  0  0  0  0  0  0  0  0  0  0  0
    6.3335   -1.7031    0.0000 C   0  0  0  0  0  0  0  0  0  0  0  0
    6.4335    0.7703    0.0000 C   0  0  0  0  0  0  0  0  0  0  0  0
    6.3627   -0.8786    0.0000 C   0  0  0  0  0  0  0  0  0  0  0  0
    6.4751    1.5948    0.0000 Br  0  0  0  0  0  0  0  0  0  0  0  0
    5.7006    0.3956    0.0000 C   0  0  0  0  0  0  0  0  0  0  0  0
    7.1247    0.3331    0.0000 C   0  0  0  0  0  0  0  0  0  0  0  0
    5.6632   -0.4372    0.0000 C   0  0  0  0  0  0  0  0  0  0  0  0
    7.0956   -0.4914    0.0000 C   0  0  0  0  0  0  0  0  0  0  0  0
    4.1766   -2.0279    0.0000 C   0  0  0  0  0  0  0  0  0  0  0  0
    6.0379   -8.3115    0.0000 C   0  0  0  0  0  0  0  0  0  0  0  0
    3.3854   -4.0642    0.0000 C   0  0  0  0  0  0  0  0  0  0  0  0
    2.7150   -2.8024    0.0000 C   0  0  0  0  0  0  0  0  0  0  0  0
    3.4853   -1.5907    0.0000 C   0  0  0  0  0  0  0  0  0  0  0  0
    2.7525   -1.9738    0.0000 C   0  0  0  0  0  0  0  0  0  0  0  0
  2  6  1  0  0  0  0
  3  2  2  0  0  0  0
  4  1  1  0  0  0  0
  5  4  2  0  0  0  0
  6  1  1  0  0  0  0
  7  2  1  0  0  0  0
  8  7  2  0  0  0  0
  9  3  1  0  0  0  0
 10 17  1  0  0  0  0
 11  1  1  0  0  0  0
 12  8  1  0  0  0  0
 13  4  1  0  0  0  0
 14 10  1  0  0  0  0
 15  7  1  0  0  0  0
 16  6  2  0  0  0  0
 17 15  1  0  0  0  0
 18 11  1  0  0  0  0
 19 14  2  0  0  0  0
 20 13  1  0  0  0  0
 21 25  1  0  0  0  0
 22 20  1  0  0  0  0
 23 21  1  0  0  0  0
 24 26  1  0  0  0  0
 25 27  2  0  0  0  0
 26 22  2  0  0  0  0
 27 22  1  0  0  0  0
 28 11  2  0  0  0  0
 29 14  1  0  0  0  0
 30 18  1  0  0  0  0
 31 18  2  0  0  0  0
 32 28  1  0  0  0  0
 33 32  2  0  0  0  0
  3  5  1  0  0  0  0
 31 33  1  0  0  0  0
  8  9  1  0  0  0  0
 12 10  1  0  0  0  0
 21 24  2  0  0  0  0
M  END
>  <IDNUMBER>
F3222-2278

>  <Chemical_Name>
11-acetyl-5-{[(4-bromophenyl)methyl]sulfanyl}-4-(2-methylphenyl)-8-thia-4,6,11-triazatricyclo[7.4.0.0?,?]trideca-1(9),2(7),5-trien-3-one

>  <PriceCoeff>
1.00

>  <CAS>
1216755-43-9

>  <MW>
540.50

>  <Description>
solid

>  <FSP3>
0.24

>  <clogP>
5.00

>  <TPSA>
106.52

>  <Acceptor>
3

>  <Donor>
0

>  <RotBonds>
5

>  <HAC>
33

>  <Collection>
General

>  <PPDS>
+

$$$$
F3222-2280
  Mrv2219 10102508112D          

 36 40  0  0  0  0            999 V2000
    5.7890   -3.5026    0.0000 C   0  0  0  0  0  0  0  0  0  0  0  0
    6.4595   -2.2365    0.0000 N   0  0  0  0  0  0  0  0  0  0  0  0
    5.0644   -3.1236    0.0000 C   0  0  0  0  0  0  0  0  0  0  0  0
    6.4887   -3.0611    0.0000 C   0  0  0  0  0  0  0  0  0  0  0  0
    5.0269   -2.2906    0.0000 N   0  0  0  0  0  0  0  0  0  0  0  0
    5.7266   -1.8533    0.0000 C   0  0  0  0  0  0  0  0  0  0  0  0
    5.6516   -4.3147    0.0000 C   0  0  0  0  0  0  0  0  0  0  0  0
    4.8395   -4.4355    0.0000 C   0  0  0  0  0  0  0  0  0  0  0  0
    4.4729   -3.7025    0.0000 S   0  0  0  0  0  0  0  0  0  0  0  0
    5.0394   -5.8473    0.0000 N   0  0  0  0  0  0  0  0  0  0  0  0
    4.5271   -5.1976    0.0000 C   0  0  0  0  0  0  0  0  0  0  0  0
    4.7395   -6.6137    0.0000 C   0  0  0  0  0  0  0  0  0  0  0  0
    5.6974   -1.0287    0.0000 S   0  0  0  0  0  0  0  0  0  0  0  0
    7.1634   -1.7784    0.0000 C   0  0  0  0  0  0  0  0  0  0  0  0
    6.1597   -4.9644    0.0000 C   0  0  0  0  0  0  0  0  0  0  0  0
    7.2384   -3.4401    0.0000 O   0  0  0  0  0  0  0  0  0  0  0  0
    6.3638    0.2332    0.0000 C   0  0  0  0  0  0  0  0  0  0  0  0
    5.8515   -5.7266    0.0000 C   0  0  0  0  0  0  0  0  0  0  0  0
    5.6349    0.6330    0.0000 N   0  0  0  0  0  0  0  0  0  0  0  0
    3.9274   -6.7386    0.0000 O   0  0  0  0  0  0  0  0  0  0  0  0
    4.9269    0.1957    0.0000 C   0  0  0  0  0  0  0  0  0  0  0  0
    7.0635    0.6705    0.0000 O   0  0  0  0  0  0  0  0  0  0  0  0
    6.3888   -0.5914    0.0000 C   0  0  0  0  0  0  0  0  0  0  0  0
    4.9519   -0.6289    0.0000 C   0  0  0  0  0  0  0  0  0  0  0  0
    7.9006   -2.1532    0.0000 C   0  0  0  0  0  0  0  0  0  0  0  0
    4.2481   -1.0537    0.0000 C   0  0  0  0  0  0  0  0  0  0  0  0
    5.2518   -7.2592    0.0000 C   0  0  0  0  0  0  0  0  0  0  0  0
    3.4984    0.1582    0.0000 C   0  0  0  0  0  0  0  0  0  0  0  0
    4.2023    0.5955    0.0000 C   0  0  0  0  0  0  0  0  0  0  0  0
    3.5151   -0.6664    0.0000 C   0  0  0  0  0  0  0  0  0  0  0  0
    4.2730   -1.8783    0.0000 C   0  0  0  0  0  0  0  0  0  0  0  0
    7.9506   -2.9778    0.0000 C   0  0  0  0  0  0  0  0  0  0  0  0
    8.5878   -1.7034    0.0000 C   0  0  0  0  0  0  0  0  0  0  0  0
    8.6877   -3.3527    0.0000 C   0  0  0  0  0  0  0  0  0  0  0  0
    9.3249   -2.0658    0.0000 C   0  0  0  0  0  0  0  0  0  0  0  0
    9.3874   -2.8904    0.0000 C   0  0  0  0  0  0  0  0  0  0  0  0
  2  4  1  0  0  0  0
  3  1  2  0  0  0  0
  4  1  1  0  0  0  0
  5  3  1  0  0  0  0
  6  2  1  0  0  0  0
  7  1  1  0  0  0  0
  8  7  2  0  0  0  0
  9  3  1  0  0  0  0
 10 18  1  0  0  0  0
 11  8  1  0  0  0  0
 12 10  1  0  0  0  0
 13  6  1  0  0  0  0
 14  2  1  0  0  0  0
 15  7  1  0  0  0  0
 16  4  2  0  0  0  0
 17 23  1  0  0  0  0
 18 15  1  0  0  0  0
 19 17  1  0  0  0  0
 20 12  2  0  0  0  0
 21 19  1  0  0  0  0
 22 17  2  0  0  0  0
 23 13  1  0  0  0  0
 24 21  2  0  0  0  0
 25 14  1  0  0  0  0
 26 24  1  0  0  0  0
 27 12  1  0  0  0  0
 28 29  2  0  0  0  0
 29 21  1  0  0  0  0
 30 28  1  0  0  0  0
 31 26  1  0  0  0  0
 32 25  1  0  0  0  0
 33 25  2  0  0  0  0
 34 32  2  0  0  0  0
 35 33  1  0  0  0  0
 36 35  2  0  0  0  0
  9  8  1  0  0  0  0
 10 11  1  0  0  0  0
  6  5  2  0  0  0  0
 34 36  1  0  0  0  0
 26 30  2  0  0  0  0
M  END
>  <IDNUMBER>
F3222-2280

>  <Chemical_Name>
2-({11-acetyl-4-benzyl-3-oxo-8-thia-4,6,11-triazatricyclo[7.4.0.0?,?]trideca-1(9),2(7),5-trien-5-yl}sulfanyl)-N-(3-methylphenyl)acetamide

>  <PriceCoeff>
1.00

>  <CAS>
1189926-11-1

>  <MW>
518.65

>  <Description>
solid

>  <FSP3>
0.26

>  <clogP>
2.88

>  <TPSA>
135.62

>  <Acceptor>
4

>  <Donor>
1

>  <RotBonds>
7

>  <HAC>
36

>  <Collection>
General

$$$$
F3222-2361
  Mrv2219 10102508112D          

 38 43  0  0  0  0            999 V2000
    6.4542   -7.7875    0.0000 C   0  0  0  0  0  0  0  0  0  0  0  0
    6.4542   -8.6167    0.0000 C   0  0  0  0  0  0  0  0  0  0  0  0
    5.0292   -7.7875    0.0000 N   0  0  0  0  0  0  0  0  0  0  0  0
    5.0292   -8.6167    0.0000 C   0  0  0  0  0  0  0  0  0  0  0  0
    5.7417   -9.0292    0.0000 N   0  0  0  0  0  0  0  0  0  0  0  0
    5.7417   -7.3750    0.0000 C   0  0  0  0  0  0  0  0  0  0  0  0
    7.2417   -7.5292    0.0000 C   0  0  0  0  0  0  0  0  0  0  0  0
    7.7250   -8.2000    0.0000 C   0  0  0  0  0  0  0  0  0  0  0  0
    7.2417   -8.8667    0.0000 S   0  0  0  0  0  0  0  0  0  0  0  0
    2.8792   -9.8542    0.0000 N   0  0  0  0  0  0  0  0  0  0  0  0
    8.8792   -7.3542    0.0000 N   0  0  0  0  0  0  0  0  0  0  0  0
    2.1667  -10.2667    0.0000 C   0  0  0  0  0  0  0  0  0  0  0  0
    2.8792   -9.0292    0.0000 C   0  0  0  0  0  0  0  0  0  0  0  0
    8.5417   -8.1125    0.0000 C   0  0  0  0  0  0  0  0  0  0  0  0
    4.3125   -9.0292    0.0000 S   0  0  0  0  0  0  0  0  0  0  0  0
    9.7042   -7.2667    0.0000 C   0  0  0  0  0  0  0  0  0  0  0  0
    7.5792   -6.7792    0.0000 C   0  0  0  0  0  0  0  0  0  0  0  0
    2.1667  -11.0917    0.0000 C   0  0  0  0  0  0  0  0  0  0  0  0
    4.3167   -7.3750    0.0000 C   0  0  0  0  0  0  0  0  0  0  0  0
    5.7417   -6.5500    0.0000 O   0  0  0  0  0  0  0  0  0  0  0  0
    8.4000   -6.6917    0.0000 C   0  0  0  0  0  0  0  0  0  0  0  0
    1.4542   -9.8542    0.0000 C   0  0  0  0  0  0  0  0  0  0  0  0
    3.5917   -8.6167    0.0000 C   0  0  0  0  0  0  0  0  0  0  0  0
    2.8792  -11.5042    0.0000 O   0  0  0  0  0  0  0  0  0  0  0  0
    2.1667   -8.6167    0.0000 O   0  0  0  0  0  0  0  0  0  0  0  0
   10.1917   -7.9375    0.0000 O   0  0  0  0  0  0  0  0  0  0  0  0
    1.4542  -11.5042    0.0000 C   0  0  0  0  0  0  0  0  0  0  0  0
    3.5917  -10.2667    0.0000 C   0  0  0  0  0  0  0  0  0  0  0  0
    0.7375  -10.2667    0.0000 C   0  0  0  0  0  0  0  0  0  0  0  0
    0.7375  -11.0917    0.0000 C   0  0  0  0  0  0  0  0  0  0  0  0
    3.5917  -11.0917    0.0000 C   0  0  0  0  0  0  0  0  0  0  0  0
   10.0417   -6.5167    0.0000 C   0  0  0  0  0  0  0  0  0  0  0  0
    4.3167   -6.5417    0.0000 C   0  0  0  0  0  0  0  0  0  0  0  0
    3.6000   -7.7875    0.0000 C   0  0  0  0  0  0  0  0  0  0  0  0
    0.0167   -9.8542    0.0000 C   0  0  0  0  0  0  0  0  0  0  0  0
    3.6042   -6.1292    0.0000 C   0  0  0  0  0  0  0  0  0  0  0  0
    2.8792   -7.3750    0.0000 C   0  0  0  0  0  0  0  0  0  0  0  0
    2.8792   -6.5417    0.0000 C   0  0  0  0  0  0  0  0  0  0  0  0
  2  1  2  0  0  0  0
  3  6  1  0  0  0  0
  4  3  1  0  0  0  0
  5  2  1  0  0  0  0
  6  1  1  0  0  0  0
  7  1  1  0  0  0  0
  8  7  2  0  0  0  0
  9  2  1  0  0  0  0
 10 13  1  0  0  0  0
 11 21  1  0  0  0  0
 12 10  1  0  0  0  0
 13 23  1  0  0  0  0
 14  8  1  0  0  0  0
 15  4  1  0  0  0  0
 16 11  1  0  0  0  0
 17  7  1  0  0  0  0
 18 12  1  0  0  0  0
 19  3  1  0  0  0  0
 20  6  2  0  0  0  0
 21 17  1  0  0  0  0
 22 12  2  0  0  0  0
 23 15  1  0  0  0  0
 24 31  1  0  0  0  0
 25 13  2  0  0  0  0
 26 16  2  0  0  0  0
 27 18  2  0  0  0  0
 28 10  1  0  0  0  0
 29 22  1  0  0  0  0
 30 29  2  0  0  0  0
 31 28  1  0  0  0  0
 32 16  1  0  0  0  0
 33 19  1  0  0  0  0
 34 19  2  0  0  0  0
 35 29  1  0  0  0  0
 36 33  2  0  0  0  0
 37 34  1  0  0  0  0
 38 37  2  0  0  0  0
  8  9  1  0  0  0  0
  5  4  2  0  0  0  0
 14 11  1  0  0  0  0
 36 38  1  0  0  0  0
 24 18  1  0  0  0  0
 30 27  1  0  0  0  0
M  END
>  <IDNUMBER>
F3222-2361

>  <Chemical_Name>
11-acetyl-5-{[2-(6-methyl-3,4-dihydro-2H-1,4-benzoxazin-4-yl)-2-oxoethyl]sulfanyl}-4-phenyl-8-thia-4,6,11-triazatricyclo[7.4.0.0?,?]trideca-1(9),2(7),5-trien-3-one

>  <PriceCoeff>
1.00

>  <CAS>
1189680-72-5

>  <MW>
546.66

>  <Description>
solid

>  <FSP3>
0.29

>  <clogP>
3.18

>  <TPSA>
136.06

>  <Acceptor>
5

>  <Donor>
0

>  <RotBonds>
6

>  <HAC>
38

>  <Collection>
General

>  <PPDS>
+

$$$$
F3222-2362
  Mrv2219 10102508112D          

 37 41  0  0  0  0            999 V2000
    4.7628   -9.0843    0.0000 C   0  0  0  0  0  0  0  0  0  0  0  0
    5.4872   -8.6971    0.0000 C   0  0  0  0  0  0  0  0  0  0  0  0
    4.0967   -7.8103    0.0000 N   0  0  0  0  0  0  0  0  0  0  0  0
    4.8253   -7.4356    0.0000 C   0  0  0  0  0  0  0  0  0  0  0  0
    5.5247   -7.8728    0.0000 N   0  0  0  0  0  0  0  0  0  0  0  0
    4.0634   -8.6347    0.0000 C   0  0  0  0  0  0  0  0  0  0  0  0
    4.9002   -9.8961    0.0000 C   0  0  0  0  0  0  0  0  0  0  0  0
    5.7120  -10.0086    0.0000 C   0  0  0  0  0  0  0  0  0  0  0  0
    6.0825   -9.2841    0.0000 S   0  0  0  0  0  0  0  0  0  0  0  0
    5.5122  -11.4199    0.0000 N   0  0  0  0  0  0  0  0  0  0  0  0
    6.0243  -10.7704    0.0000 C   0  0  0  0  0  0  0  0  0  0  0  0
    4.8585   -6.6113    0.0000 S   0  0  0  0  0  0  0  0  0  0  0  0
    5.8120  -12.1943    0.0000 C   0  0  0  0  0  0  0  0  0  0  0  0
    4.3964  -10.5414    0.0000 C   0  0  0  0  0  0  0  0  0  0  0  0
    3.4014   -7.3690    0.0000 C   0  0  0  0  0  0  0  0  0  0  0  0
    3.3140   -9.0177    0.0000 O   0  0  0  0  0  0  0  0  0  0  0  0
    5.6204   -5.3998    0.0000 C   0  0  0  0  0  0  0  0  0  0  0  0
    4.7004  -11.3075    0.0000 C   0  0  0  0  0  0  0  0  0  0  0  0
    6.3490   -5.0126    0.0000 N   0  0  0  0  0  0  0  0  0  0  0  0
    6.6238  -12.3192    0.0000 O   0  0  0  0  0  0  0  0  0  0  0  0
    6.4365   -2.5271    0.0000 C   0  0  0  0  0  0  0  0  0  0  0  0
    4.9210   -4.9585    0.0000 O   0  0  0  0  0  0  0  0  0  0  0  0
    5.5872   -6.2241    0.0000 C   0  0  0  0  0  0  0  0  0  0  0  0
    5.7120   -2.9226    0.0000 C   0  0  0  0  0  0  0  0  0  0  0  0
    7.1442   -2.9768    0.0000 C   0  0  0  0  0  0  0  0  0  0  0  0
    6.3823   -4.1883    0.0000 C   0  0  0  0  0  0  0  0  0  0  0  0
    6.4614   -1.7028    0.0000 C   0  0  0  0  0  0  0  0  0  0  0  0
    7.1109   -3.8011    0.0000 C   0  0  0  0  0  0  0  0  0  0  0  0
    5.6871   -3.7511    0.0000 C   0  0  0  0  0  0  0  0  0  0  0  0
    5.2957  -12.8313    0.0000 C   0  0  0  0  0  0  0  0  0  0  0  0
    2.6728   -7.7562    0.0000 C   0  0  0  0  0  0  0  0  0  0  0  0
    3.4389   -6.5364    0.0000 C   0  0  0  0  0  0  0  0  0  0  0  0
    7.1817   -1.3114    0.0000 C   0  0  0  0  0  0  0  0  0  0  0  0
    5.7495   -1.2782    0.0000 C   0  0  0  0  0  0  0  0  0  0  0  0
    2.7395   -6.0992    0.0000 C   0  0  0  0  0  0  0  0  0  0  0  0
    1.9734   -7.3107    0.0000 C   0  0  0  0  0  0  0  0  0  0  0  0
    2.0151   -6.4864    0.0000 C   0  0  0  0  0  0  0  0  0  0  0  0
  2  1  2  0  0  0  0
  3  6  1  0  0  0  0
  4  3  1  0  0  0  0
  5  2  1  0  0  0  0
  6  1  1  0  0  0  0
  7  1  1  0  0  0  0
  8  7  2  0  0  0  0
  9  2  1  0  0  0  0
 10 18  1  0  0  0  0
 11  8  1  0  0  0  0
 12  4  1  0  0  0  0
 13 10  1  0  0  0  0
 14  7  1  0  0  0  0
 15  3  1  0  0  0  0
 16  6  2  0  0  0  0
 17 23  1  0  0  0  0
 18 14  1  0  0  0  0
 19 17  1  0  0  0  0
 20 13  2  0  0  0  0
 21 24  1  0  0  0  0
 22 17  2  0  0  0  0
 23 12  1  0  0  0  0
 24 29  2  0  0  0  0
 25 28  1  0  0  0  0
 26 19  1  0  0  0  0
 27 21  1  0  0  0  0
 28 26  2  0  0  0  0
 29 26  1  0  0  0  0
 30 13  1  0  0  0  0
 31 15  1  0  0  0  0
 32 15  2  0  0  0  0
 33 27  1  0  0  0  0
 34 27  1  0  0  0  0
 35 32  1  0  0  0  0
 36 31  2  0  0  0  0
 37 35  2  0  0  0  0
  8  9  1  0  0  0  0
  5  4  2  0  0  0  0
 11 10  1  0  0  0  0
 36 37  1  0  0  0  0
 25 21  2  0  0  0  0
M  END
>  <IDNUMBER>
F3222-2362

>  <Chemical_Name>
2-({11-acetyl-3-oxo-4-phenyl-8-thia-4,6,11-triazatricyclo[7.4.0.0?,?]trideca-1(9),2(7),5-trien-5-yl}sulfanyl)-N-[4-(propan-2-yl)phenyl]acetamide

>  <PriceCoeff>
1.00

>  <CAS>
1215611-82-7

>  <MW>
532.68

>  <Description>
solid

>  <FSP3>
0.29

>  <clogP>
4.03

>  <TPSA>
135.62

>  <Acceptor>
4

>  <Donor>
1

>  <RotBonds>
7

>  <HAC>
37

>  <Collection>
General

>  <PPDS>
+

$$$$
F3222-2363
  Mrv2219 10102508112D          

 34 38  0  0  0  0            999 V2000
    5.5372  -10.2417    0.0000 C   0  0  0  0  0  0  0  0  0  0  0  0
    6.2616   -9.8587    0.0000 C   0  0  0  0  0  0  0  0  0  0  0  0
    4.8710   -8.9719    0.0000 N   0  0  0  0  0  0  0  0  0  0  0  0
    5.5996   -8.5930    0.0000 C   0  0  0  0  0  0  0  0  0  0  0  0
    6.2991   -9.0301    0.0000 N   0  0  0  0  0  0  0  0  0  0  0  0
    4.8378   -9.7962    0.0000 C   0  0  0  0  0  0  0  0  0  0  0  0
    5.6746  -11.0535    0.0000 C   0  0  0  0  0  0  0  0  0  0  0  0
    6.4864  -11.1701    0.0000 C   0  0  0  0  0  0  0  0  0  0  0  0
    6.8569  -10.4415    0.0000 S   0  0  0  0  0  0  0  0  0  0  0  0
    5.0251   -4.8336    0.0000 N   0  3  0  0  0  0  0  0  0  0  0  0
    6.2866  -12.5815    0.0000 N   0  0  0  0  0  0  0  0  0  0  0  0
    6.7987  -11.9320    0.0000 C   0  0  0  0  0  0  0  0  0  0  0  0
    5.6329   -7.7687    0.0000 S   0  0  0  0  0  0  0  0  0  0  0  0
    6.5863  -13.3516    0.0000 C   0  0  0  0  0  0  0  0  0  0  0  0
    5.7245   -5.2874    0.0000 C   0  0  0  0  0  0  0  0  0  0  0  0
    5.1708  -11.6947    0.0000 C   0  0  0  0  0  0  0  0  0  0  0  0
    4.1758   -8.5223    0.0000 C   0  0  0  0  0  0  0  0  0  0  0  0
    4.0884  -10.1709    0.0000 O   0  0  0  0  0  0  0  0  0  0  0  0
    5.0626   -4.0009    0.0000 O   0  5  0  0  0  0  0  0  0  0  0  0
    5.4747  -12.4649    0.0000 C   0  0  0  0  0  0  0  0  0  0  0  0
    4.2965   -5.2207    0.0000 O   0  0  0  0  0  0  0  0  0  0  0  0
    5.6954   -6.1117    0.0000 C   0  0  0  0  0  0  0  0  0  0  0  0
    7.3982  -13.4807    0.0000 O   0  0  0  0  0  0  0  0  0  0  0  0
    6.3615   -7.3815    0.0000 C   0  0  0  0  0  0  0  0  0  0  0  0
    6.3948   -6.5572    0.0000 C   0  0  0  0  0  0  0  0  0  0  0  0
    6.0701  -13.9928    0.0000 C   0  0  0  0  0  0  0  0  0  0  0  0
    6.4614   -4.9085    0.0000 C   0  0  0  0  0  0  0  0  0  0  0  0
    7.1567   -5.3456    0.0000 C   0  0  0  0  0  0  0  0  0  0  0  0
    3.4472   -8.9094    0.0000 C   0  0  0  0  0  0  0  0  0  0  0  0
    4.2133   -7.6979    0.0000 C   0  0  0  0  0  0  0  0  0  0  0  0
    7.1234   -6.1700    0.0000 C   0  0  0  0  0  0  0  0  0  0  0  0
    2.7478   -8.4723    0.0000 C   0  0  0  0  0  0  0  0  0  0  0  0
    3.5138   -7.2608    0.0000 C   0  0  0  0  0  0  0  0  0  0  0  0
    2.7894   -7.6480    0.0000 C   0  0  0  0  0  0  0  0  0  0  0  0
  2  1  2  0  0  0  0
  3  6  1  0  0  0  0
  4  3  1  0  0  0  0
  5  2  1  0  0  0  0
  6  1  1  0  0  0  0
  7  1  1  0  0  0  0
  8  7  2  0  0  0  0
  9  2  1  0  0  0  0
 10 15  1  0  0  0  0
 11 20  1  0  0  0  0
 12  8  1  0  0  0  0
 13  4  1  0  0  0  0
 14 11  1  0  0  0  0
 15 22  1  0  0  0  0
 16  7  1  0  0  0  0
 17  3  1  0  0  0  0
 18  6  2  0  0  0  0
 19 10  1  0  0  0  0
 20 16  1  0  0  0  0
 21 10  2  0  0  0  0
 22 25  2  0  0  0  0
 23 14  2  0  0  0  0
 24 13  1  0  0  0  0
 25 24  1  0  0  0  0
 26 14  1  0  0  0  0
 27 28  1  0  0  0  0
 28 31  2  0  0  0  0
 29 17  1  0  0  0  0
 30 17  2  0  0  0  0
 31 25  1  0  0  0  0
 32 29  2  0  0  0  0
 33 30  1  0  0  0  0
 34 33  2  0  0  0  0
  8  9  1  0  0  0  0
  5  4  2  0  0  0  0
 12 11  1  0  0  0  0
 32 34  1  0  0  0  0
 27 15  2  0  0  0  0
M  CHG  2  10   1  19  -1
M  END
>  <IDNUMBER>
F3222-2363

>  <Chemical_Name>
11-acetyl-5-{[(3-nitrophenyl)methyl]sulfanyl}-4-phenyl-8-thia-4,6,11-triazatricyclo[7.4.0.0?,?]trideca-1(9),2(7),5-trien-3-one

>  <PriceCoeff>
1.00

>  <CAS>
946236-34-6

>  <MW>
492.57

>  <Description>
solid

>  <FSP3>
0.21

>  <clogP>
3.38

>  <TPSA>
149.66

>  <Acceptor>
5

>  <Donor>
0

>  <RotBonds>
6

>  <HAC>
34

>  <Collection>
General

>  <PPDS>
+

$$$$
F3222-2364
  Mrv2219 10102508112D          

 37 41  0  0  0  0            999 V2000
    4.8637   -9.4608    0.0000 N   0  0  0  0  0  0  0  0  0  0  0  0
    5.5340  -10.7308    0.0000 C   0  0  0  0  0  0  0  0  0  0  0  0
    6.2628  -10.3477    0.0000 C   0  0  0  0  0  0  0  0  0  0  0  0
    5.5965   -9.0818    0.0000 C   0  0  0  0  0  0  0  0  0  0  0  0
    6.2961   -9.5190    0.0000 N   0  0  0  0  0  0  0  0  0  0  0  0
    4.8345  -10.2853    0.0000 C   0  0  0  0  0  0  0  0  0  0  0  0
    5.6756  -11.5428    0.0000 C   0  0  0  0  0  0  0  0  0  0  0  0
    6.4876  -11.6594    0.0000 C   0  0  0  0  0  0  0  0  0  0  0  0
    6.8499  -10.9307    0.0000 S   0  0  0  0  0  0  0  0  0  0  0  0
    6.2836  -13.0710    0.0000 N   0  0  0  0  0  0  0  0  0  0  0  0
    4.1724   -9.0235    0.0000 C   0  0  0  0  0  0  0  0  0  0  0  0
    6.7957  -12.4214    0.0000 C   0  0  0  0  0  0  0  0  0  0  0  0
    5.6257   -8.2573    0.0000 S   0  0  0  0  0  0  0  0  0  0  0  0
    6.5834  -13.8413    0.0000 C   0  0  0  0  0  0  0  0  0  0  0  0
    5.1635  -12.1841    0.0000 C   0  0  0  0  0  0  0  0  0  0  0  0
    7.9117   -4.6221    0.0000 C   0  0  0  0  0  0  0  0  0  0  0  0
    4.0891  -10.6600    0.0000 O   0  0  0  0  0  0  0  0  0  0  0  0
    7.8826   -5.4466    0.0000 C   0  0  0  0  0  0  0  0  0  0  0  0
    6.3877   -7.0456    0.0000 C   0  0  0  0  0  0  0  0  0  0  0  0
    5.4758  -12.9461    0.0000 C   0  0  0  0  0  0  0  0  0  0  0  0
    7.1205   -6.6583    0.0000 N   0  0  0  0  0  0  0  0  0  0  0  0
    7.1497   -5.8338    0.0000 C   0  0  0  0  0  0  0  0  0  0  0  0
    7.2122   -4.1766    0.0000 C   0  0  0  0  0  0  0  0  0  0  0  0
    3.4395   -9.4108    0.0000 C   0  0  0  0  0  0  0  0  0  0  0  0
    7.3996  -13.9705    0.0000 O   0  0  0  0  0  0  0  0  0  0  0  0
    5.6881   -6.6001    0.0000 O   0  0  0  0  0  0  0  0  0  0  0  0
    6.3585   -7.8701    0.0000 C   0  0  0  0  0  0  0  0  0  0  0  0
    6.4876   -4.5638    0.0000 C   0  0  0  0  0  0  0  0  0  0  0  0
    8.6571   -4.2390    0.0000 F   0  0  0  0  0  0  0  0  0  0  0  0
    6.4585   -5.3966    0.0000 C   0  0  0  0  0  0  0  0  0  0  0  0
    4.2016   -8.1991    0.0000 C   0  0  0  0  0  0  0  0  0  0  0  0
    6.0629  -14.4826    0.0000 C   0  0  0  0  0  0  0  0  0  0  0  0
    7.2330   -3.3521    0.0000 C   0  0  0  0  0  0  0  0  0  0  0  0
    3.4104  -10.2353    0.0000 C   0  0  0  0  0  0  0  0  0  0  0  0
    2.7400   -8.9694    0.0000 C   0  0  0  0  0  0  0  0  0  0  0  0
    3.5103   -7.7618    0.0000 C   0  0  0  0  0  0  0  0  0  0  0  0
    2.7775   -8.1366    0.0000 C   0  0  0  0  0  0  0  0  0  0  0  0
  2  6  1  0  0  0  0
  3  2  2  0  0  0  0
  4  1  1  0  0  0  0
  5  4  2  0  0  0  0
  6  1  1  0  0  0  0
  7  2  1  0  0  0  0
  8  7  2  0  0  0  0
  9  3  1  0  0  0  0
 10 20  1  0  0  0  0
 11  1  1  0  0  0  0
 12  8  1  0  0  0  0
 13  4  1  0  0  0  0
 14 10  1  0  0  0  0
 15  7  1  0  0  0  0
 16 18  1  0  0  0  0
 17  6  2  0  0  0  0
 18 22  2  0  0  0  0
 19 27  1  0  0  0  0
 20 15  1  0  0  0  0
 21 19  1  0  0  0  0
 22 21  1  0  0  0  0
 23 28  1  0  0  0  0
 24 11  1  0  0  0  0
 25 14  2  0  0  0  0
 26 19  2  0  0  0  0
 27 13  1  0  0  0  0
 28 30  2  0  0  0  0
 29 16  1  0  0  0  0
 30 22  1  0  0  0  0
 31 11  2  0  0  0  0
 32 14  1  0  0  0  0
 33 23  1  0  0  0  0
 34 24  1  0  0  0  0
 35 24  2  0  0  0  0
 36 31  1  0  0  0  0
 37 36  2  0  0  0  0
  5  3  1  0  0  0  0
 35 37  1  0  0  0  0
  8  9  1  0  0  0  0
 12 10  1  0  0  0  0
 23 16  2  0  0  0  0
M  END
>  <IDNUMBER>
F3222-2364

>  <Chemical_Name>
2-{[11-acetyl-4-(2-methylphenyl)-3-oxo-8-thia-4,6,11-triazatricyclo[7.4.0.0?,?]trideca-1(9),2(7),5-trien-5-yl]sulfanyl}-N-(3-fluoro-4-methylphenyl)acetamide

>  <PriceCoeff>
1.00

>  <CAS>
1189866-67-8

>  <MW>
536.64

>  <Description>
solid

>  <FSP3>
0.26

>  <clogP>
4.00

>  <TPSA>
135.62

>  <Acceptor>
4

>  <Donor>
1

>  <RotBonds>
6

>  <HAC>
37

>  <Collection>
General

>  <PPDS>
+

$$$$
F3222-2365
  Mrv2219 10102508112D          

 38 42  0  0  0  0            999 V2000
    4.0842   -7.8103    0.0000 N   0  0  0  0  0  0  0  0  0  0  0  0
    4.7503   -9.0843    0.0000 C   0  0  0  0  0  0  0  0  0  0  0  0
    5.4747   -8.6971    0.0000 C   0  0  0  0  0  0  0  0  0  0  0  0
    4.8128   -7.4356    0.0000 C   0  0  0  0  0  0  0  0  0  0  0  0
    5.5122   -7.8728    0.0000 N   0  0  0  0  0  0  0  0  0  0  0  0
    4.0509   -8.6347    0.0000 C   0  0  0  0  0  0  0  0  0  0  0  0
    4.8877   -9.8961    0.0000 C   0  0  0  0  0  0  0  0  0  0  0  0
    5.6996  -10.0086    0.0000 C   0  0  0  0  0  0  0  0  0  0  0  0
    6.0701   -9.2841    0.0000 S   0  0  0  0  0  0  0  0  0  0  0  0
    5.4997  -11.4199    0.0000 N   0  0  0  0  0  0  0  0  0  0  0  0
    3.3889   -7.3732    0.0000 C   0  0  0  0  0  0  0  0  0  0  0  0
    6.0118  -10.7704    0.0000 C   0  0  0  0  0  0  0  0  0  0  0  0
    4.8461   -6.6113    0.0000 S   0  0  0  0  0  0  0  0  0  0  0  0
    5.7995  -12.1943    0.0000 C   0  0  0  0  0  0  0  0  0  0  0  0
    4.3839  -10.5414    0.0000 C   0  0  0  0  0  0  0  0  0  0  0  0
    3.3015   -9.0177    0.0000 O   0  0  0  0  0  0  0  0  0  0  0  0
    5.6079   -5.3998    0.0000 C   0  0  0  0  0  0  0  0  0  0  0  0
    4.6879  -11.3075    0.0000 C   0  0  0  0  0  0  0  0  0  0  0  0
    6.3365   -5.0126    0.0000 N   0  0  0  0  0  0  0  0  0  0  0  0
    6.4489   -1.7028    0.0000 C   0  0  0  0  0  0  0  0  0  0  0  0
    6.4240   -2.5271    0.0000 C   0  0  0  0  0  0  0  0  0  0  0  0
    2.6603   -7.7604    0.0000 C   0  0  0  0  0  0  0  0  0  0  0  0
    6.6113  -12.3192    0.0000 O   0  0  0  0  0  0  0  0  0  0  0  0
    4.9085   -4.9585    0.0000 O   0  0  0  0  0  0  0  0  0  0  0  0
    5.7370   -1.2782    0.0000 O   0  0  0  0  0  0  0  0  0  0  0  0
    5.5747   -6.2241    0.0000 C   0  0  0  0  0  0  0  0  0  0  0  0
    7.1317   -2.9768    0.0000 C   0  0  0  0  0  0  0  0  0  0  0  0
    5.6996   -2.9226    0.0000 C   0  0  0  0  0  0  0  0  0  0  0  0
    6.3698   -4.1883    0.0000 C   0  0  0  0  0  0  0  0  0  0  0  0
    7.0984   -3.8011    0.0000 C   0  0  0  0  0  0  0  0  0  0  0  0
    5.6746   -3.7511    0.0000 C   0  0  0  0  0  0  0  0  0  0  0  0
    3.4222   -6.5489    0.0000 C   0  0  0  0  0  0  0  0  0  0  0  0
    5.2832  -12.8313    0.0000 C   0  0  0  0  0  0  0  0  0  0  0  0
    7.1692   -1.3114    0.0000 C   0  0  0  0  0  0  0  0  0  0  0  0
    2.6271   -8.5847    0.0000 C   0  0  0  0  0  0  0  0  0  0  0  0
    1.9609   -7.3232    0.0000 C   0  0  0  0  0  0  0  0  0  0  0  0
    2.7270   -6.1117    0.0000 C   0  0  0  0  0  0  0  0  0  0  0  0
    1.9901   -6.4947    0.0000 C   0  0  0  0  0  0  0  0  0  0  0  0
  2  6  1  0  0  0  0
  3  2  2  0  0  0  0
  4  1  1  0  0  0  0
  5  4  2  0  0  0  0
  6  1  1  0  0  0  0
  7  2  1  0  0  0  0
  8  7  2  0  0  0  0
  9  3  1  0  0  0  0
 10 18  1  0  0  0  0
 11  1  1  0  0  0  0
 12  8  1  0  0  0  0
 13  4  1  0  0  0  0
 14 10  1  0  0  0  0
 15  7  1  0  0  0  0
 16  6  2  0  0  0  0
 17 26  1  0  0  0  0
 18 15  1  0  0  0  0
 19 17  1  0  0  0  0
 20 21  1  0  0  0  0
 21 28  2  0  0  0  0
 22 11  1  0  0  0  0
 23 14  2  0  0  0  0
 24 17  2  0  0  0  0
 25 20  2  0  0  0  0
 26 13  1  0  0  0  0
 27 30  2  0  0  0  0
 28 31  1  0  0  0  0
 29 19  1  0  0  0  0
 30 29  1  0  0  0  0
 31 29  2  0  0  0  0
 32 11  2  0  0  0  0
 33 14  1  0  0  0  0
 34 20  1  0  0  0  0
 35 22  1  0  0  0  0
 36 22  2  0  0  0  0
 37 32  1  0  0  0  0
 38 37  2  0  0  0  0
  5  3  1  0  0  0  0
 36 38  1  0  0  0  0
  8  9  1  0  0  0  0
 12 10  1  0  0  0  0
 27 21  1  0  0  0  0
M  END
>  <IDNUMBER>
F3222-2365

>  <Chemical_Name>
2-{[11-acetyl-4-(2-methylphenyl)-3-oxo-8-thia-4,6,11-triazatricyclo[7.4.0.0?,?]trideca-1(9),2(7),5-trien-5-yl]sulfanyl}-N-(4-acetylphenyl)acetamide

>  <PriceCoeff>
1.00

>  <CAS>
1185090-27-0

>  <MW>
546.66

>  <Description>
solid

>  <FSP3>
0.25

>  <clogP>
3.01

>  <TPSA>
152.69

>  <Acceptor>
5

>  <Donor>
1

>  <RotBonds>
7

>  <HAC>
38

>  <Collection>
General

>  <PPDS>
+

$$$$
F3222-2447
  Mrv2219 10102508112D          

 36 40  0  0  0  0            999 V2000
    4.7600   -9.6863    0.0000 C   0  0  0  0  0  0  0  0  0  0  0  0
    4.0443   -9.2744    0.0000 C   0  0  0  0  0  0  0  0  0  0  0  0
    5.4714   -8.4422    0.0000 N   0  0  0  0  0  0  0  0  0  0  0  0
    4.7475   -8.0303    0.0000 C   0  0  0  0  0  0  0  0  0  0  0  0
    4.0443   -8.4422    0.0000 N   0  0  0  0  0  0  0  0  0  0  0  0
    5.4839   -9.2744    0.0000 C   0  0  0  0  0  0  0  0  0  0  0  0
    4.5852  -10.5018    0.0000 C   0  0  0  0  0  0  0  0  0  0  0  0
    3.7697  -10.5850    0.0000 C   0  0  0  0  0  0  0  0  0  0  0  0
    3.4243   -9.8403    0.0000 S   0  0  0  0  0  0  0  0  0  0  0  0
    3.9112  -12.0122    0.0000 N   0  0  0  0  0  0  0  0  0  0  0  0
    3.4243  -11.3381    0.0000 C   0  0  0  0  0  0  0  0  0  0  0  0
    4.7600   -7.2065    0.0000 S   0  0  0  0  0  0  0  0  0  0  0  0
    3.5824  -12.7736    0.0000 C   0  0  0  0  0  0  0  0  0  0  0  0
    5.4714   -5.9707    0.0000 C   0  0  0  0  0  0  0  0  0  0  0  0
    4.7600   -5.5588    0.0000 N   0  0  0  0  0  0  0  0  0  0  0  0
    5.0678  -11.1759    0.0000 C   0  0  0  0  0  0  0  0  0  0  0  0
    6.1829   -8.0303    0.0000 C   0  0  0  0  0  0  0  0  0  0  0  0
    6.1954   -9.6988    0.0000 O   0  0  0  0  0  0  0  0  0  0  0  0
    4.7225  -11.9331    0.0000 C   0  0  0  0  0  0  0  0  0  0  0  0
    5.4714   -6.7904    0.0000 C   0  0  0  0  0  0  0  0  0  0  0  0
    2.7503  -12.8735    0.0000 O   0  0  0  0  0  0  0  0  0  0  0  0
    6.1829   -5.5588    0.0000 O   0  0  0  0  0  0  0  0  0  0  0  0
    4.0443   -5.9707    0.0000 C   0  0  0  0  0  0  0  0  0  0  0  0
    4.7600   -4.7350    0.0000 C   0  0  0  0  0  0  0  0  0  0  0  0
    4.0734  -13.4477    0.0000 C   0  0  0  0  0  0  0  0  0  0  0  0
    6.1829   -7.2065    0.0000 C   0  0  0  0  0  0  0  0  0  0  0  0
    6.9069   -8.4422    0.0000 C   0  0  0  0  0  0  0  0  0  0  0  0
    3.3328   -5.5588    0.0000 C   0  0  0  0  0  0  0  0  0  0  0  0
    4.0443   -6.7904    0.0000 C   0  0  0  0  0  0  0  0  0  0  0  0
    5.4714   -4.3231    0.0000 C   0  0  0  0  0  0  0  0  0  0  0  0
    6.8944   -6.7904    0.0000 C   0  0  0  0  0  0  0  0  0  0  0  0
    2.6130   -5.9707    0.0000 C   0  0  0  0  0  0  0  0  0  0  0  0
    3.3328   -7.2065    0.0000 C   0  0  0  0  0  0  0  0  0  0  0  0
    7.6184   -8.0303    0.0000 C   0  0  0  0  0  0  0  0  0  0  0  0
    7.6184   -7.2065    0.0000 C   0  0  0  0  0  0  0  0  0  0  0  0
    2.6130   -6.7904    0.0000 C   0  0  0  0  0  0  0  0  0  0  0  0
  2  1  2  0  0  0  0
  3  6  1  0  0  0  0
  4  3  1  0  0  0  0
  5  2  1  0  0  0  0
  6  1  1  0  0  0  0
  7  1  1  0  0  0  0
  8  7  2  0  0  0  0
  9  2  1  0  0  0  0
 10 19  1  0  0  0  0
 11  8  1  0  0  0  0
 12  4  1  0  0  0  0
 13 10  1  0  0  0  0
 14 20  1  0  0  0  0
 15 14  1  0  0  0  0
 16  7  1  0  0  0  0
 17  3  1  0  0  0  0
 18  6  2  0  0  0  0
 19 16  1  0  0  0  0
 20 12  1  0  0  0  0
 21 13  2  0  0  0  0
 22 14  2  0  0  0  0
 23 15  1  0  0  0  0
 24 15  1  0  0  0  0
 25 13  1  0  0  0  0
 26 17  2  0  0  0  0
 27 17  1  0  0  0  0
 28 23  2  0  0  0  0
 29 23  1  0  0  0  0
 30 24  1  0  0  0  0
 31 26  1  0  0  0  0
 32 28  1  0  0  0  0
 33 29  2  0  0  0  0
 34 27  2  0  0  0  0
 35 34  1  0  0  0  0
 36 33  1  0  0  0  0
  8  9  1  0  0  0  0
  5  4  2  0  0  0  0
 11 10  1  0  0  0  0
 31 35  2  0  0  0  0
 32 36  2  0  0  0  0
M  END
>  <IDNUMBER>
F3222-2447

>  <Chemical_Name>
2-({11-acetyl-3-oxo-4-phenyl-8-thia-4,6,11-triazatricyclo[7.4.0.0?,?]trideca-1(9),2(7),5-trien-5-yl}sulfanyl)-N-ethyl-N-phenylacetamide

>  <PriceCoeff>
1.00

>  <CAS>
1216625-54-5

>  <MW>
518.65

>  <Description>
solid

>  <FSP3>
0.26

>  <clogP>
3.21

>  <TPSA>
126.83

>  <Acceptor>
4

>  <Donor>
0

>  <RotBonds>
8

>  <HAC>
36

>  <Collection>
General

>  <PPDS>
+

$$$$
F3222-2450
  Mrv2219 10102508112D          

 32 36  0  0  0  0            999 V2000
    4.7002   -9.6828    0.0000 C   0  0  0  0  0  0  0  0  0  0  0  0
    3.9861   -9.2718    0.0000 C   0  0  0  0  0  0  0  0  0  0  0  0
    5.4061   -8.4455    0.0000 N   0  0  0  0  0  0  0  0  0  0  0  0
    4.6878   -8.0344    0.0000 C   0  0  0  0  0  0  0  0  0  0  0  0
    3.9861   -8.4455    0.0000 N   0  0  0  0  0  0  0  0  0  0  0  0
    5.4103   -9.2718    0.0000 C   0  0  0  0  0  0  0  0  0  0  0  0
    4.5216  -10.4924    0.0000 C   0  0  0  0  0  0  0  0  0  0  0  0
    3.7120  -10.5755    0.0000 C   0  0  0  0  0  0  0  0  0  0  0  0
    3.3675   -9.8323    0.0000 S   0  0  0  0  0  0  0  0  0  0  0  0
    3.8407  -12.0080    0.0000 N   0  0  0  0  0  0  0  0  0  0  0  0
    3.3633  -11.3354    0.0000 C   0  0  0  0  0  0  0  0  0  0  0  0
    4.7002   -7.2040    0.0000 S   0  0  0  0  0  0  0  0  0  0  0  0
    3.5169  -12.7595    0.0000 C   0  0  0  0  0  0  0  0  0  0  0  0
    4.9992  -11.1652    0.0000 C   0  0  0  0  0  0  0  0  0  0  0  0
    6.1203   -8.0344    0.0000 C   0  0  0  0  0  0  0  0  0  0  0  0
    6.1328   -9.6953    0.0000 O   0  0  0  0  0  0  0  0  0  0  0  0
    4.6629  -11.9250    0.0000 C   0  0  0  0  0  0  0  0  0  0  0  0
    2.6906  -12.8592    0.0000 O   0  0  0  0  0  0  0  0  0  0  0  0
    5.4061   -6.7929    0.0000 C   0  0  0  0  0  0  0  0  0  0  0  0
    4.7002   -5.5680    0.0000 C   0  0  0  0  0  0  0  0  0  0  0  0
    4.7002   -4.7376    0.0000 C   0  0  0  0  0  0  0  0  0  0  0  0
    5.4061   -5.9708    0.0000 C   0  0  0  0  0  0  0  0  0  0  0  0
    3.9736   -4.3141    0.0000 Br  0  0  0  0  0  0  0  0  0  0  0  0
    4.0110  -13.4405    0.0000 C   0  0  0  0  0  0  0  0  0  0  0  0
    6.1203   -4.7376    0.0000 C   0  0  0  0  0  0  0  0  0  0  0  0
    6.1203   -7.2040    0.0000 C   0  0  0  0  0  0  0  0  0  0  0  0
    6.8386   -8.4455    0.0000 C   0  0  0  0  0  0  0  0  0  0  0  0
    5.4061   -4.3266    0.0000 C   0  0  0  0  0  0  0  0  0  0  0  0
    6.1203   -5.5680    0.0000 C   0  0  0  0  0  0  0  0  0  0  0  0
    7.5527   -8.0344    0.0000 C   0  0  0  0  0  0  0  0  0  0  0  0
    6.8303   -6.7929    0.0000 C   0  0  0  0  0  0  0  0  0  0  0  0
    7.5527   -7.2040    0.0000 C   0  0  0  0  0  0  0  0  0  0  0  0
  2  1  2  0  0  0  0
  3  6  1  0  0  0  0
  4  3  1  0  0  0  0
  5  2  1  0  0  0  0
  6  1  1  0  0  0  0
  7  1  1  0  0  0  0
  8  7  2  0  0  0  0
  9  2  1  0  0  0  0
 10 17  1  0  0  0  0
 11  8  1  0  0  0  0
 12  4  1  0  0  0  0
 13 10  1  0  0  0  0
 14  7  1  0  0  0  0
 15  3  1  0  0  0  0
 16  6  2  0  0  0  0
 17 14  1  0  0  0  0
 18 13  2  0  0  0  0
 19 12  1  0  0  0  0
 20 22  1  0  0  0  0
 21 20  2  0  0  0  0
 22 19  1  0  0  0  0
 23 21  1  0  0  0  0
 24 13  1  0  0  0  0
 25 29  1  0  0  0  0
 26 15  2  0  0  0  0
 27 15  1  0  0  0  0
 28 25  2  0  0  0  0
 29 22  2  0  0  0  0
 30 27  2  0  0  0  0
 31 26  1  0  0  0  0
 32 30  1  0  0  0  0
  8  9  1  0  0  0  0
  5  4  2  0  0  0  0
 10 11  1  0  0  0  0
 31 32  2  0  0  0  0
 21 28  1  0  0  0  0
M  END
>  <IDNUMBER>
F3222-2450

>  <Chemical_Name>
11-acetyl-5-{[(3-bromophenyl)methyl]sulfanyl}-4-phenyl-8-thia-4,6,11-triazatricyclo[7.4.0.0?,?]trideca-1(9),2(7),5-trien-3-one

>  <PriceCoeff>
1.00

>  <CAS>
1185169-52-1

>  <MW>
526.47

>  <Description>
solid

>  <FSP3>
0.21

>  <clogP>
4.50

>  <TPSA>
106.52

>  <Acceptor>
3

>  <Donor>
0

>  <RotBonds>
5

>  <HAC>
32

>  <Collection>
General

>  <PPDS>
+

$$$$
F3222-2452
  Mrv2219 10102508112D          

 36 40  0  0  0  0            999 V2000
    4.7556   -9.6773    0.0000 C   0  0  0  0  0  0  0  0  0  0  0  0
    4.0447   -9.2658    0.0000 C   0  0  0  0  0  0  0  0  0  0  0  0
    5.4622   -8.4345    0.0000 N   0  0  0  0  0  0  0  0  0  0  0  0
    4.7514   -8.0229    0.0000 C   0  0  0  0  0  0  0  0  0  0  0  0
    4.0447   -8.4345    0.0000 N   0  0  0  0  0  0  0  0  0  0  0  0
    5.4747   -9.2658    0.0000 C   0  0  0  0  0  0  0  0  0  0  0  0
    4.5810  -10.4921    0.0000 C   0  0  0  0  0  0  0  0  0  0  0  0
    3.7662  -10.5752    0.0000 C   0  0  0  0  0  0  0  0  0  0  0  0
    3.4295   -9.8187    0.0000 S   0  0  0  0  0  0  0  0  0  0  0  0
    3.9034  -12.0011    0.0000 N   0  0  0  0  0  0  0  0  0  0  0  0
    3.4212  -11.3277    0.0000 C   0  0  0  0  0  0  0  0  0  0  0  0
    4.7556   -7.1998    0.0000 S   0  0  0  0  0  0  0  0  0  0  0  0
    3.5708  -12.7618    0.0000 C   0  0  0  0  0  0  0  0  0  0  0  0
    6.1772   -8.0229    0.0000 C   0  0  0  0  0  0  0  0  0  0  0  0
    5.0549  -11.1656    0.0000 C   0  0  0  0  0  0  0  0  0  0  0  0
    6.1897   -9.6898    0.0000 O   0  0  0  0  0  0  0  0  0  0  0  0
    5.4622   -5.9652    0.0000 C   0  0  0  0  0  0  0  0  0  0  0  0
    4.7264  -11.9138    0.0000 C   0  0  0  0  0  0  0  0  0  0  0  0
    4.7556   -5.5537    0.0000 N   0  0  0  0  0  0  0  0  0  0  0  0
    2.7478  -12.8616    0.0000 O   0  0  0  0  0  0  0  0  0  0  0  0
    6.1772   -5.5537    0.0000 O   0  0  0  0  0  0  0  0  0  0  0  0
    5.4622   -6.7841    0.0000 C   0  0  0  0  0  0  0  0  0  0  0  0
    6.1772   -7.1998    0.0000 C   0  0  0  0  0  0  0  0  0  0  0  0
    6.9005   -8.4345    0.0000 C   0  0  0  0  0  0  0  0  0  0  0  0
    4.0447   -5.9652    0.0000 C   0  0  0  0  0  0  0  0  0  0  0  0
    6.8964   -6.7841    0.0000 C   0  0  0  0  0  0  0  0  0  0  0  0
    7.6114   -8.0229    0.0000 C   0  0  0  0  0  0  0  0  0  0  0  0
    7.6114   -7.1998    0.0000 C   0  0  0  0  0  0  0  0  0  0  0  0
    3.3214   -5.5537    0.0000 C   0  0  0  0  0  0  0  0  0  0  0  0
    4.0697  -13.4353    0.0000 C   0  0  0  0  0  0  0  0  0  0  0  0
    8.3347   -6.7841    0.0000 C   0  0  0  0  0  0  0  0  0  0  0  0
    2.6106   -5.9652    0.0000 C   0  0  0  0  0  0  0  0  0  0  0  0
    3.3214   -4.7306    0.0000 C   0  0  0  0  0  0  0  0  0  0  0  0
    1.8956   -5.5537    0.0000 C   0  0  0  0  0  0  0  0  0  0  0  0
    2.6106   -4.3191    0.0000 C   0  0  0  0  0  0  0  0  0  0  0  0
    1.8956   -4.7306    0.0000 C   0  0  0  0  0  0  0  0  0  0  0  0
  2  1  2  0  0  0  0
  3  6  1  0  0  0  0
  4  3  1  0  0  0  0
  5  2  1  0  0  0  0
  6  1  1  0  0  0  0
  7  1  1  0  0  0  0
  8  7  2  0  0  0  0
  9  2  1  0  0  0  0
 10 18  1  0  0  0  0
 11  8  1  0  0  0  0
 12  4  1  0  0  0  0
 13 10  1  0  0  0  0
 14  3  1  0  0  0  0
 15  7  1  0  0  0  0
 16  6  2  0  0  0  0
 17 22  1  0  0  0  0
 18 15  1  0  0  0  0
 19 17  1  0  0  0  0
 20 13  2  0  0  0  0
 21 17  2  0  0  0  0
 22 12  1  0  0  0  0
 23 14  2  0  0  0  0
 24 14  1  0  0  0  0
 25 19  1  0  0  0  0
 26 23  1  0  0  0  0
 27 24  2  0  0  0  0
 28 27  1  0  0  0  0
 29 25  1  0  0  0  0
 30 13  1  0  0  0  0
 31 28  1  0  0  0  0
 32 29  1  0  0  0  0
 33 29  2  0  0  0  0
 34 32  2  0  0  0  0
 35 33  1  0  0  0  0
 36 35  2  0  0  0  0
  8  9  1  0  0  0  0
  5  4  2  0  0  0  0
 11 10  1  0  0  0  0
 26 28  2  0  0  0  0
 34 36  1  0  0  0  0
M  END
>  <IDNUMBER>
F3222-2452

>  <Chemical_Name>
2-{[11-acetyl-4-(4-methylphenyl)-3-oxo-8-thia-4,6,11-triazatricyclo[7.4.0.0?,?]trideca-1(9),2(7),5-trien-5-yl]sulfanyl}-N-benzylacetamide

>  <PriceCoeff>
1.00

>  <CAS>
1219221-47-2

>  <MW>
518.65

>  <Description>
solid

>  <FSP3>
0.26

>  <clogP>
3.00

>  <TPSA>
135.62

>  <Acceptor>
4

>  <Donor>
1

>  <RotBonds>
7

>  <HAC>
36

>  <Collection>
General

>  <PPDS>
+

$$$$
F3222-2453
  Mrv2219 10102508112D          

 37 41  0  0  0  0            999 V2000
    5.0918   -9.0475    0.0000 C   0  0  0  0  0  0  0  0  0  0  0  0
    4.3786   -8.6328    0.0000 C   0  0  0  0  0  0  0  0  0  0  0  0
    5.8008   -7.8035    0.0000 N   0  0  0  0  0  0  0  0  0  0  0  0
    5.0794   -7.3930    0.0000 C   0  0  0  0  0  0  0  0  0  0  0  0
    4.3786   -7.8035    0.0000 N   0  0  0  0  0  0  0  0  0  0  0  0
    5.8091   -8.6328    0.0000 C   0  0  0  0  0  0  0  0  0  0  0  0
    4.9135   -9.8560    0.0000 C   0  0  0  0  0  0  0  0  0  0  0  0
    4.1049   -9.9431    0.0000 C   0  0  0  0  0  0  0  0  0  0  0  0
    3.7608   -9.1843    0.0000 S   0  0  0  0  0  0  0  0  0  0  0  0
    4.2459  -11.3611    0.0000 N   0  0  0  0  0  0  0  0  0  0  0  0
    3.7608  -10.6894    0.0000 C   0  0  0  0  0  0  0  0  0  0  0  0
    5.0918   -6.5721    0.0000 S   0  0  0  0  0  0  0  0  0  0  0  0
    3.9101  -12.1282    0.0000 C   0  0  0  0  0  0  0  0  0  0  0  0
    6.5223   -7.3930    0.0000 C   0  0  0  0  0  0  0  0  0  0  0  0
    5.3986  -10.5277    0.0000 C   0  0  0  0  0  0  0  0  0  0  0  0
    6.5223   -9.0557    0.0000 O   0  0  0  0  0  0  0  0  0  0  0  0
    5.8008   -5.3488    0.0000 C   0  0  0  0  0  0  0  0  0  0  0  0
    5.0545  -11.2823    0.0000 C   0  0  0  0  0  0  0  0  0  0  0  0
    5.0918   -4.9384    0.0000 N   0  0  0  0  0  0  0  0  0  0  0  0
    3.0891  -12.2194    0.0000 O   0  0  0  0  0  0  0  0  0  0  0  0
    6.5099   -4.9384    0.0000 O   0  0  0  0  0  0  0  0  0  0  0  0
    5.8008   -6.1616    0.0000 C   0  0  0  0  0  0  0  0  0  0  0  0
    6.5223   -6.5721    0.0000 C   0  0  0  0  0  0  0  0  0  0  0  0
    7.2313   -7.8035    0.0000 C   0  0  0  0  0  0  0  0  0  0  0  0
    4.3786   -5.3488    0.0000 C   0  0  0  0  0  0  0  0  0  0  0  0
    7.2313   -6.1616    0.0000 C   0  0  0  0  0  0  0  0  0  0  0  0
    7.9528   -7.3930    0.0000 C   0  0  0  0  0  0  0  0  0  0  0  0
    7.9528   -6.5721    0.0000 C   0  0  0  0  0  0  0  0  0  0  0  0
    2.9481   -6.1616    0.0000 C   0  0  0  0  0  0  0  0  0  0  0  0
    4.3786   -6.1616    0.0000 C   0  0  0  0  0  0  0  0  0  0  0  0
    3.6696   -4.9384    0.0000 C   0  0  0  0  0  0  0  0  0  0  0  0
    3.6696   -6.5721    0.0000 C   0  0  0  0  0  0  0  0  0  0  0  0
    2.9481   -5.3488    0.0000 C   0  0  0  0  0  0  0  0  0  0  0  0
    4.4076  -12.7916    0.0000 C   0  0  0  0  0  0  0  0  0  0  0  0
    2.2308   -6.5803    0.0000 C   0  0  0  0  0  0  0  0  0  0  0  0
    8.6743   -6.1616    0.0000 C   0  0  0  0  0  0  0  0  0  0  0  0
    1.5218   -6.1616    0.0000 C   0  0  0  0  0  0  0  0  0  0  0  0
  2  1  2  0  0  0  0
  3  6  1  0  0  0  0
  4  3  1  0  0  0  0
  5  2  1  0  0  0  0
  6  1  1  0  0  0  0
  7  1  1  0  0  0  0
  8  7  2  0  0  0  0
  9  2  1  0  0  0  0
 10 18  1  0  0  0  0
 11  8  1  0  0  0  0
 12  4  1  0  0  0  0
 13 10  1  0  0  0  0
 14  3  1  0  0  0  0
 15  7  1  0  0  0  0
 16  6  2  0  0  0  0
 17 22  1  0  0  0  0
 18 15  1  0  0  0  0
 19 17  1  0  0  0  0
 20 13  2  0  0  0  0
 21 17  2  0  0  0  0
 22 12  1  0  0  0  0
 23 14  2  0  0  0  0
 24 14  1  0  0  0  0
 25 19  1  0  0  0  0
 26 23  1  0  0  0  0
 27 24  2  0  0  0  0
 28 27  1  0  0  0  0
 29 33  2  0  0  0  0
 30 25  1  0  0  0  0
 31 25  2  0  0  0  0
 32 30  2  0  0  0  0
 33 31  1  0  0  0  0
 34 13  1  0  0  0  0
 35 29  1  0  0  0  0
 36 28  1  0  0  0  0
 37 35  1  0  0  0  0
  8  9  1  0  0  0  0
  5  4  2  0  0  0  0
 11 10  1  0  0  0  0
 26 28  2  0  0  0  0
 32 29  1  0  0  0  0
M  END
>  <IDNUMBER>
F3222-2453

>  <Chemical_Name>
2-{[11-acetyl-4-(4-methylphenyl)-3-oxo-8-thia-4,6,11-triazatricyclo[7.4.0.0?,?]trideca-1(9),2(7),5-trien-5-yl]sulfanyl}-N-(4-ethylphenyl)acetamide

>  <PriceCoeff>
1.00

>  <CAS>
1219148-50-1

>  <MW>
532.68

>  <Description>
solid

>  <FSP3>
0.29

>  <clogP>
4.13

>  <TPSA>
135.62

>  <Acceptor>
4

>  <Donor>
1

>  <RotBonds>
7

>  <HAC>
37

>  <Collection>
General

>  <PPDS>
+

$$$$
F3222-2454
  Mrv2219 10102508112D          

 36 40  0  0  0  0            999 V2000
    5.4732   -9.0817    0.0000 C   0  0  0  0  0  0  0  0  0  0  0  0
    6.2057   -8.6946    0.0000 C   0  0  0  0  0  0  0  0  0  0  0  0
    4.8114   -7.8081    0.0000 N   0  0  0  0  0  0  0  0  0  0  0  0
    5.5356   -7.4335    0.0000 C   0  0  0  0  0  0  0  0  0  0  0  0
    6.2349   -7.8706    0.0000 N   0  0  0  0  0  0  0  0  0  0  0  0
    4.7740   -8.6322    0.0000 C   0  0  0  0  0  0  0  0  0  0  0  0
    5.6188   -9.8934    0.0000 C   0  0  0  0  0  0  0  0  0  0  0  0
    6.4305  -10.0058    0.0000 C   0  0  0  0  0  0  0  0  0  0  0  0
    6.7968   -9.2815    0.0000 S   0  0  0  0  0  0  0  0  0  0  0  0
    6.2224  -11.4167    0.0000 N   0  0  0  0  0  0  0  0  0  0  0  0
    6.7343  -10.7674    0.0000 C   0  0  0  0  0  0  0  0  0  0  0  0
    5.5730   -6.6095    0.0000 S   0  0  0  0  0  0  0  0  0  0  0  0
    6.5221  -12.1908    0.0000 C   0  0  0  0  0  0  0  0  0  0  0  0
    4.1122   -7.3669    0.0000 C   0  0  0  0  0  0  0  0  0  0  0  0
    5.1111  -10.5384    0.0000 C   0  0  0  0  0  0  0  0  0  0  0  0
    4.0330   -9.0151    0.0000 O   0  0  0  0  0  0  0  0  0  0  0  0
    6.3348   -5.3983    0.0000 C   0  0  0  0  0  0  0  0  0  0  0  0
    5.4191  -11.3043    0.0000 C   0  0  0  0  0  0  0  0  0  0  0  0
    7.0589   -5.0112    0.0000 N   0  0  0  0  0  0  0  0  0  0  0  0
    7.3419  -12.3157    0.0000 O   0  0  0  0  0  0  0  0  0  0  0  0
    5.6355   -4.9571    0.0000 O   0  0  0  0  0  0  0  0  0  0  0  0
    6.2973   -6.2224    0.0000 C   0  0  0  0  0  0  0  0  0  0  0  0
    4.1579   -6.5428    0.0000 C   0  0  0  0  0  0  0  0  0  0  0  0
    3.3755   -7.7457    0.0000 C   0  0  0  0  0  0  0  0  0  0  0  0
    7.0964   -4.1871    0.0000 C   0  0  0  0  0  0  0  0  0  0  0  0
    3.4629   -6.0975    0.0000 C   0  0  0  0  0  0  0  0  0  0  0  0
    2.6887   -7.2962    0.0000 C   0  0  0  0  0  0  0  0  0  0  0  0
    2.7345   -6.4721    0.0000 C   0  0  0  0  0  0  0  0  0  0  0  0
    7.1588   -2.5389    0.0000 C   0  0  0  0  0  0  0  0  0  0  0  0
    6.3972   -3.7459    0.0000 C   0  0  0  0  0  0  0  0  0  0  0  0
    7.8206   -3.8001    0.0000 C   0  0  0  0  0  0  0  0  0  0  0  0
    6.4305   -2.9135    0.0000 C   0  0  0  0  0  0  0  0  0  0  0  0
    7.8581   -2.9759    0.0000 C   0  0  0  0  0  0  0  0  0  0  0  0
    6.0101  -12.8277    0.0000 C   0  0  0  0  0  0  0  0  0  0  0  0
    2.0395   -6.0184    0.0000 C   0  0  0  0  0  0  0  0  0  0  0  0
    7.2046   -1.7148    0.0000 C   0  0  0  0  0  0  0  0  0  0  0  0
  2  1  2  0  0  0  0
  3  6  1  0  0  0  0
  4  3  1  0  0  0  0
  5  2  1  0  0  0  0
  6  1  1  0  0  0  0
  7  1  1  0  0  0  0
  8  7  2  0  0  0  0
  9  2  1  0  0  0  0
 10 18  1  0  0  0  0
 11  8  1  0  0  0  0
 12  4  1  0  0  0  0
 13 10  1  0  0  0  0
 14  3  1  0  0  0  0
 15  7  1  0  0  0  0
 16  6  2  0  0  0  0
 17 22  1  0  0  0  0
 18 15  1  0  0  0  0
 19 17  1  0  0  0  0
 20 13  2  0  0  0  0
 21 17  2  0  0  0  0
 22 12  1  0  0  0  0
 23 14  2  0  0  0  0
 24 14  1  0  0  0  0
 25 19  1  0  0  0  0
 26 23  1  0  0  0  0
 27 24  2  0  0  0  0
 28 27  1  0  0  0  0
 29 33  1  0  0  0  0
 30 25  2  0  0  0  0
 31 25  1  0  0  0  0
 32 30  1  0  0  0  0
 33 31  2  0  0  0  0
 34 13  1  0  0  0  0
 35 28  1  0  0  0  0
 36 29  1  0  0  0  0
  8  9  1  0  0  0  0
  5  4  2  0  0  0  0
 11 10  1  0  0  0  0
 26 28  2  0  0  0  0
 29 32  2  0  0  0  0
M  END
>  <IDNUMBER>
F3222-2454

>  <Chemical_Name>
2-{[11-acetyl-4-(4-methylphenyl)-3-oxo-8-thia-4,6,11-triazatricyclo[7.4.0.0?,?]trideca-1(9),2(7),5-trien-5-yl]sulfanyl}-N-(4-methylphenyl)acetamide

>  <PriceCoeff>
1.00

>  <CAS>
1189647-63-9

>  <MW>
518.65

>  <Description>
solid

>  <FSP3>
0.26

>  <clogP>
3.60

>  <TPSA>
135.62

>  <Acceptor>
4

>  <Donor>
1

>  <RotBonds>
6

>  <HAC>
36

>  <Collection>
General

>  <PPDS>
+

$$$$
F3222-2455
  Mrv2219 10102508112D          

 37 41  0  0  0  0            999 V2000
    5.8856  -10.3061    0.0000 C   0  0  0  0  0  0  0  0  0  0  0  0
    6.6182   -9.9190    0.0000 C   0  0  0  0  0  0  0  0  0  0  0  0
    5.2238   -9.0324    0.0000 N   0  0  0  0  0  0  0  0  0  0  0  0
    5.9481   -8.6578    0.0000 C   0  0  0  0  0  0  0  0  0  0  0  0
    6.6473   -9.0948    0.0000 N   0  0  0  0  0  0  0  0  0  0  0  0
    5.1863   -9.8565    0.0000 C   0  0  0  0  0  0  0  0  0  0  0  0
    6.0313  -11.1177    0.0000 C   0  0  0  0  0  0  0  0  0  0  0  0
    6.8429  -11.2301    0.0000 C   0  0  0  0  0  0  0  0  0  0  0  0
    7.2093  -10.5059    0.0000 S   0  0  0  0  0  0  0  0  0  0  0  0
    6.6348  -12.6411    0.0000 N   0  0  0  0  0  0  0  0  0  0  0  0
    7.1468  -11.9918    0.0000 C   0  0  0  0  0  0  0  0  0  0  0  0
    5.9855   -7.8336    0.0000 S   0  0  0  0  0  0  0  0  0  0  0  0
    6.9345  -13.4153    0.0000 C   0  0  0  0  0  0  0  0  0  0  0  0
    4.5245   -8.5911    0.0000 C   0  0  0  0  0  0  0  0  0  0  0  0
    7.4715   -6.2353    0.0000 N   0  0  0  0  0  0  0  0  0  0  0  0
    5.5235  -11.7629    0.0000 C   0  0  0  0  0  0  0  0  0  0  0  0
    6.7472   -6.6224    0.0000 C   0  0  0  0  0  0  0  0  0  0  0  0
    4.4454  -10.2394    0.0000 O   0  0  0  0  0  0  0  0  0  0  0  0
    7.5089   -5.4111    0.0000 C   0  0  0  0  0  0  0  0  0  0  0  0
    5.8315  -12.5288    0.0000 C   0  0  0  0  0  0  0  0  0  0  0  0
    7.7545  -13.5402    0.0000 O   0  0  0  0  0  0  0  0  0  0  0  0
    6.0480   -6.1811    0.0000 O   0  0  0  0  0  0  0  0  0  0  0  0
    8.2332   -5.0240    0.0000 C   0  0  0  0  0  0  0  0  0  0  0  0
    6.7098   -7.4465    0.0000 C   0  0  0  0  0  0  0  0  0  0  0  0
    4.5703   -7.7670    0.0000 C   0  0  0  0  0  0  0  0  0  0  0  0
    3.7878   -8.9699    0.0000 C   0  0  0  0  0  0  0  0  0  0  0  0
    3.1010   -8.5204    0.0000 C   0  0  0  0  0  0  0  0  0  0  0  0
    3.8752   -7.3216    0.0000 C   0  0  0  0  0  0  0  0  0  0  0  0
    3.1468   -7.6963    0.0000 C   0  0  0  0  0  0  0  0  0  0  0  0
    6.4226  -14.0522    0.0000 C   0  0  0  0  0  0  0  0  0  0  0  0
    6.8097   -4.9699    0.0000 C   0  0  0  0  0  0  0  0  0  0  0  0
    8.9450   -5.4611    0.0000 C   0  0  0  0  0  0  0  0  0  0  0  0
    8.2707   -4.1999    0.0000 C   0  0  0  0  0  0  0  0  0  0  0  0
    2.4517   -7.2425    0.0000 C   0  0  0  0  0  0  0  0  0  0  0  0
    8.9283   -6.2935    0.0000 C   0  0  0  0  0  0  0  0  0  0  0  0
    6.8429   -4.1374    0.0000 C   0  0  0  0  0  0  0  0  0  0  0  0
    7.5714   -3.7628    0.0000 C   0  0  0  0  0  0  0  0  0  0  0  0
  2  1  2  0  0  0  0
  3  6  1  0  0  0  0
  4  3  1  0  0  0  0
  5  2  1  0  0  0  0
  6  1  1  0  0  0  0
  7  1  1  0  0  0  0
  8  7  2  0  0  0  0
  9  2  1  0  0  0  0
 10 20  1  0  0  0  0
 11  8  1  0  0  0  0
 12  4  1  0  0  0  0
 13 10  1  0  0  0  0
 14  3  1  0  0  0  0
 15 17  1  0  0  0  0
 16  7  1  0  0  0  0
 17 24  1  0  0  0  0
 18  6  2  0  0  0  0
 19 15  1  0  0  0  0
 20 16  1  0  0  0  0
 21 13  2  0  0  0  0
 22 17  2  0  0  0  0
 23 19  1  0  0  0  0
 24 12  1  0  0  0  0
 25 14  2  0  0  0  0
 26 14  1  0  0  0  0
 27 26  2  0  0  0  0
 28 25  1  0  0  0  0
 29 27  1  0  0  0  0
 30 13  1  0  0  0  0
 31 19  2  0  0  0  0
 32 23  1  0  0  0  0
 33 23  2  0  0  0  0
 34 29  1  0  0  0  0
 35 32  1  0  0  0  0
 36 31  1  0  0  0  0
 37 36  2  0  0  0  0
  8  9  1  0  0  0  0
  5  4  2  0  0  0  0
 11 10  1  0  0  0  0
 28 29  2  0  0  0  0
 33 37  1  0  0  0  0
M  END
>  <IDNUMBER>
F3222-2455

>  <Chemical_Name>
2-{[11-acetyl-4-(4-methylphenyl)-3-oxo-8-thia-4,6,11-triazatricyclo[7.4.0.0?,?]trideca-1(9),2(7),5-trien-5-yl]sulfanyl}-N-(2-ethylphenyl)acetamide

>  <PriceCoeff>
1.00

>  <CAS>
1189427-12-0

>  <MW>
532.68

>  <Description>
solid

>  <FSP3>
0.29

>  <clogP>
3.26

>  <TPSA>
135.62

>  <Acceptor>
4

>  <Donor>
1

>  <RotBonds>
7

>  <HAC>
37

>  <Collection>
General

>  <PPDS>
+

$$$$
F3222-2456
  Mrv2219 10102508112D          

 37 41  0  0  0  0            999 V2000
    5.1239   -9.0823    0.0000 C   0  0  0  0  0  0  0  0  0  0  0  0
    5.8565   -8.6952    0.0000 C   0  0  0  0  0  0  0  0  0  0  0  0
    4.4621   -7.8086    0.0000 N   0  0  0  0  0  0  0  0  0  0  0  0
    5.1863   -7.4340    0.0000 C   0  0  0  0  0  0  0  0  0  0  0  0
    5.8856   -7.8711    0.0000 N   0  0  0  0  0  0  0  0  0  0  0  0
    4.4246   -8.6328    0.0000 C   0  0  0  0  0  0  0  0  0  0  0  0
    5.2696   -9.8940    0.0000 C   0  0  0  0  0  0  0  0  0  0  0  0
    6.0812  -10.0064    0.0000 C   0  0  0  0  0  0  0  0  0  0  0  0
    6.4475   -9.2821    0.0000 S   0  0  0  0  0  0  0  0  0  0  0  0
    5.8731  -11.4174    0.0000 N   0  0  0  0  0  0  0  0  0  0  0  0
    6.3851  -10.7681    0.0000 C   0  0  0  0  0  0  0  0  0  0  0  0
    5.2238   -6.6099    0.0000 S   0  0  0  0  0  0  0  0  0  0  0  0
    6.1728  -12.1916    0.0000 C   0  0  0  0  0  0  0  0  0  0  0  0
    3.7628   -7.3674    0.0000 C   0  0  0  0  0  0  0  0  0  0  0  0
    4.7618  -10.5391    0.0000 C   0  0  0  0  0  0  0  0  0  0  0  0
    3.6837   -9.0157    0.0000 O   0  0  0  0  0  0  0  0  0  0  0  0
    5.9855   -5.3986    0.0000 C   0  0  0  0  0  0  0  0  0  0  0  0
    5.0698  -11.3050    0.0000 C   0  0  0  0  0  0  0  0  0  0  0  0
    6.7098   -5.0115    0.0000 N   0  0  0  0  0  0  0  0  0  0  0  0
    6.9928  -12.3165    0.0000 O   0  0  0  0  0  0  0  0  0  0  0  0
    5.2862   -4.9574    0.0000 O   0  0  0  0  0  0  0  0  0  0  0  0
    5.9481   -6.2228    0.0000 C   0  0  0  0  0  0  0  0  0  0  0  0
    3.8086   -6.5432    0.0000 C   0  0  0  0  0  0  0  0  0  0  0  0
    3.0261   -7.7462    0.0000 C   0  0  0  0  0  0  0  0  0  0  0  0
    6.7472   -4.1874    0.0000 C   0  0  0  0  0  0  0  0  0  0  0  0
    6.8055   -2.5266    0.0000 C   0  0  0  0  0  0  0  0  0  0  0  0
    2.3393   -7.2967    0.0000 C   0  0  0  0  0  0  0  0  0  0  0  0
    3.1135   -6.0979    0.0000 C   0  0  0  0  0  0  0  0  0  0  0  0
    2.3767   -6.4725    0.0000 C   0  0  0  0  0  0  0  0  0  0  0  0
    7.4715   -3.8003    0.0000 C   0  0  0  0  0  0  0  0  0  0  0  0
    6.0480   -3.7503    0.0000 C   0  0  0  0  0  0  0  0  0  0  0  0
    7.5089   -2.9761    0.0000 C   0  0  0  0  0  0  0  0  0  0  0  0
    6.0812   -2.9220    0.0000 C   0  0  0  0  0  0  0  0  0  0  0  0
    6.8222   -1.7024    0.0000 O   0  0  0  0  0  0  0  0  0  0  0  0
    5.6609  -12.8285    0.0000 C   0  0  0  0  0  0  0  0  0  0  0  0
    1.6900   -6.0188    0.0000 C   0  0  0  0  0  0  0  0  0  0  0  0
    7.5464   -1.3111    0.0000 C   0  0  0  0  0  0  0  0  0  0  0  0
  2  1  2  0  0  0  0
  3  6  1  0  0  0  0
  4  3  1  0  0  0  0
  5  2  1  0  0  0  0
  6  1  1  0  0  0  0
  7  1  1  0  0  0  0
  8  7  2  0  0  0  0
  9  2  1  0  0  0  0
 10 18  1  0  0  0  0
 11  8  1  0  0  0  0
 12  4  1  0  0  0  0
 13 10  1  0  0  0  0
 14  3  1  0  0  0  0
 15  7  1  0  0  0  0
 16  6  2  0  0  0  0
 17 22  1  0  0  0  0
 18 15  1  0  0  0  0
 19 17  1  0  0  0  0
 20 13  2  0  0  0  0
 21 17  2  0  0  0  0
 22 12  1  0  0  0  0
 23 14  2  0  0  0  0
 24 14  1  0  0  0  0
 25 19  1  0  0  0  0
 26 33  2  0  0  0  0
 27 24  2  0  0  0  0
 28 23  1  0  0  0  0
 29 27  1  0  0  0  0
 30 25  1  0  0  0  0
 31 25  2  0  0  0  0
 32 30  2  0  0  0  0
 33 31  1  0  0  0  0
 34 26  1  0  0  0  0
 35 13  1  0  0  0  0
 36 29  1  0  0  0  0
 37 34  1  0  0  0  0
  8  9  1  0  0  0  0
  5  4  2  0  0  0  0
 11 10  1  0  0  0  0
 28 29  2  0  0  0  0
 32 26  1  0  0  0  0
M  END
>  <IDNUMBER>
F3222-2456

>  <Chemical_Name>
2-{[11-acetyl-4-(4-methylphenyl)-3-oxo-8-thia-4,6,11-triazatricyclo[7.4.0.0?,?]trideca-1(9),2(7),5-trien-5-yl]sulfanyl}-N-(4-methoxyphenyl)acetamide

>  <PriceCoeff>
1.00

>  <CAS>
1189691-26-6

>  <MW>
534.65

>  <Description>
solid

>  <FSP3>
0.26

>  <clogP>
3.18

>  <TPSA>
144.85

>  <Acceptor>
5

>  <Donor>
1

>  <RotBonds>
7

>  <HAC>
37

>  <Collection>
General

>  <PPDS>
+

$$$$
F3222-2457
  Mrv2219 10102508112D          

 36 40  0  0  0  0            999 V2000
    5.8869  -10.7330    0.0000 C   0  0  0  0  0  0  0  0  0  0  0  0
    6.6113  -10.3541    0.0000 C   0  0  0  0  0  0  0  0  0  0  0  0
    5.2207   -9.4673    0.0000 N   0  0  0  0  0  0  0  0  0  0  0  0
    5.9494   -9.0843    0.0000 C   0  0  0  0  0  0  0  0  0  0  0  0
    6.6488   -9.5214    0.0000 N   0  0  0  0  0  0  0  0  0  0  0  0
    5.1875  -10.2916    0.0000 C   0  0  0  0  0  0  0  0  0  0  0  0
    6.0243  -11.5448    0.0000 C   0  0  0  0  0  0  0  0  0  0  0  0
    6.8361  -11.6655    0.0000 C   0  0  0  0  0  0  0  0  0  0  0  0
    7.2066  -10.9328    0.0000 S   0  0  0  0  0  0  0  0  0  0  0  0
    6.6363  -13.0769    0.0000 N   0  0  0  0  0  0  0  0  0  0  0  0
    7.1484  -12.4274    0.0000 C   0  0  0  0  0  0  0  0  0  0  0  0
    5.9826   -8.2600    0.0000 S   0  0  0  0  0  0  0  0  0  0  0  0
    6.9361  -13.8429    0.0000 C   0  0  0  0  0  0  0  0  0  0  0  0
    4.5255   -9.0219    0.0000 C   0  0  0  0  0  0  0  0  0  0  0  0
    5.5205  -12.1943    0.0000 C   0  0  0  0  0  0  0  0  0  0  0  0
    4.4381  -10.6705    0.0000 O   0  0  0  0  0  0  0  0  0  0  0  0
    6.7445   -7.0485    0.0000 C   0  0  0  0  0  0  0  0  0  0  0  0
    5.8245  -12.9562    0.0000 C   0  0  0  0  0  0  0  0  0  0  0  0
    7.4731   -6.6613    0.0000 N   0  0  0  0  0  0  0  0  0  0  0  0
    7.7479  -13.9761    0.0000 O   0  0  0  0  0  0  0  0  0  0  0  0
    6.0451   -6.6113    0.0000 O   0  0  0  0  0  0  0  0  0  0  0  0
    6.7112   -7.8728    0.0000 C   0  0  0  0  0  0  0  0  0  0  0  0
    4.5630   -8.1975    0.0000 C   0  0  0  0  0  0  0  0  0  0  0  0
    3.7886   -9.3965    0.0000 C   0  0  0  0  0  0  0  0  0  0  0  0
    7.5064   -5.8369    0.0000 C   0  0  0  0  0  0  0  0  0  0  0  0
    7.5730   -4.1883    0.0000 C   0  0  0  0  0  0  0  0  0  0  0  0
    3.0975   -8.9469    0.0000 C   0  0  0  0  0  0  0  0  0  0  0  0
    3.8760   -7.7479    0.0000 C   0  0  0  0  0  0  0  0  0  0  0  0
    3.1391   -8.1226    0.0000 C   0  0  0  0  0  0  0  0  0  0  0  0
    7.6105   -3.3640    0.0000 F   0  0  0  0  0  0  0  0  0  0  0  0
    6.8070   -5.3998    0.0000 C   0  0  0  0  0  0  0  0  0  0  0  0
    8.2350   -5.4498    0.0000 C   0  0  0  0  0  0  0  0  0  0  0  0
    8.2683   -4.6254    0.0000 C   0  0  0  0  0  0  0  0  0  0  0  0
    6.8361   -4.5713    0.0000 C   0  0  0  0  0  0  0  0  0  0  0  0
    6.4198  -14.4882    0.0000 C   0  0  0  0  0  0  0  0  0  0  0  0
    2.4397   -7.6730    0.0000 C   0  0  0  0  0  0  0  0  0  0  0  0
  2  1  2  0  0  0  0
  3  6  1  0  0  0  0
  4  3  1  0  0  0  0
  5  2  1  0  0  0  0
  6  1  1  0  0  0  0
  7  1  1  0  0  0  0
  8  7  2  0  0  0  0
  9  2  1  0  0  0  0
 10 18  1  0  0  0  0
 11  8  1  0  0  0  0
 12  4  1  0  0  0  0
 13 10  1  0  0  0  0
 14  3  1  0  0  0  0
 15  7  1  0  0  0  0
 16  6  2  0  0  0  0
 17 22  1  0  0  0  0
 18 15  1  0  0  0  0
 19 17  1  0  0  0  0
 20 13  2  0  0  0  0
 21 17  2  0  0  0  0
 22 12  1  0  0  0  0
 23 14  2  0  0  0  0
 24 14  1  0  0  0  0
 25 19  1  0  0  0  0
 26 33  2  0  0  0  0
 27 24  2  0  0  0  0
 28 23  1  0  0  0  0
 29 27  1  0  0  0  0
 30 26  1  0  0  0  0
 31 25  1  0  0  0  0
 32 25  2  0  0  0  0
 33 32  1  0  0  0  0
 34 31  2  0  0  0  0
 35 13  1  0  0  0  0
 36 29  1  0  0  0  0
  8  9  1  0  0  0  0
  5  4  2  0  0  0  0
 11 10  1  0  0  0  0
 28 29  2  0  0  0  0
 34 26  1  0  0  0  0
M  END
>  <IDNUMBER>
F3222-2457

>  <Chemical_Name>
2-{[11-acetyl-4-(4-methylphenyl)-3-oxo-8-thia-4,6,11-triazatricyclo[7.4.0.0?,?]trideca-1(9),2(7),5-trien-5-yl]sulfanyl}-N-(4-fluorophenyl)acetamide

>  <PriceCoeff>
1.00

>  <CAS>
1216377-62-6

>  <MW>
522.61

>  <Description>
solid

>  <FSP3>
0.23

>  <clogP>
3.50

>  <TPSA>
135.62

>  <Acceptor>
4

>  <Donor>
1

>  <RotBonds>
6

>  <HAC>
36

>  <Collection>
General

>  <PPDS>
+

$$$$
F3222-2458
  Mrv2219 10102508112D          

 37 41  0  0  0  0            999 V2000
    4.9329  -10.7068    0.0000 C   0  0  0  0  0  0  0  0  0  0  0  0
    4.2003  -10.3196    0.0000 C   0  0  0  0  0  0  0  0  0  0  0  0
    5.5990   -9.4329    0.0000 N   0  0  0  0  0  0  0  0  0  0  0  0
    4.8705   -9.0583    0.0000 C   0  0  0  0  0  0  0  0  0  0  0  0
    4.1711   -9.4954    0.0000 N   0  0  0  0  0  0  0  0  0  0  0  0
    5.6323  -10.2572    0.0000 C   0  0  0  0  0  0  0  0  0  0  0  0
    4.7873  -11.5185    0.0000 C   0  0  0  0  0  0  0  0  0  0  0  0
    3.9755  -11.6309    0.0000 C   0  0  0  0  0  0  0  0  0  0  0  0
    3.6133  -10.9066    0.0000 S   0  0  0  0  0  0  0  0  0  0  0  0
    4.1836  -13.0421    0.0000 N   0  0  0  0  0  0  0  0  0  0  0  0
    3.6716  -12.3927    0.0000 C   0  0  0  0  0  0  0  0  0  0  0  0
    4.8372   -8.2341    0.0000 S   0  0  0  0  0  0  0  0  0  0  0  0
    3.8839  -13.8164    0.0000 C   0  0  0  0  0  0  0  0  0  0  0  0
    6.2942   -8.9917    0.0000 C   0  0  0  0  0  0  0  0  0  0  0  0
    3.3469   -6.6355    0.0000 N   0  0  0  0  0  0  0  0  0  0  0  0
    5.2993  -12.1637    0.0000 C   0  0  0  0  0  0  0  0  0  0  0  0
    3.3136   -5.8113    0.0000 C   0  0  0  0  0  0  0  0  0  0  0  0
    2.5851   -5.4242    0.0000 C   0  0  0  0  0  0  0  0  0  0  0  0
    4.0754   -7.0227    0.0000 C   0  0  0  0  0  0  0  0  0  0  0  0
    6.3733  -10.6401    0.0000 O   0  0  0  0  0  0  0  0  0  0  0  0
    2.5518   -4.5999    0.0000 C   0  0  0  0  0  0  0  0  0  0  0  0
    4.9871  -12.9297    0.0000 C   0  0  0  0  0  0  0  0  0  0  0  0
    3.0639  -13.9413    0.0000 O   0  0  0  0  0  0  0  0  0  0  0  0
    4.7748   -6.5814    0.0000 O   0  0  0  0  0  0  0  0  0  0  0  0
    4.0130   -5.3700    0.0000 C   0  0  0  0  0  0  0  0  0  0  0  0
    4.1087   -7.8469    0.0000 C   0  0  0  0  0  0  0  0  0  0  0  0
    6.2484   -8.1674    0.0000 C   0  0  0  0  0  0  0  0  0  0  0  0
    7.0310   -9.3705    0.0000 C   0  0  0  0  0  0  0  0  0  0  0  0
    3.2470   -4.1628    0.0000 C   0  0  0  0  0  0  0  0  0  0  0  0
    1.8733   -5.8613    0.0000 F   0  0  0  0  0  0  0  0  0  0  0  0
    3.9755   -4.5375    0.0000 C   0  0  0  0  0  0  0  0  0  0  0  0
    6.9436   -7.7220    0.0000 C   0  0  0  0  0  0  0  0  0  0  0  0
    7.7220   -8.9209    0.0000 C   0  0  0  0  0  0  0  0  0  0  0  0
    3.2012   -3.3386    0.0000 F   0  0  0  0  0  0  0  0  0  0  0  0
    7.6721   -8.0967    0.0000 C   0  0  0  0  0  0  0  0  0  0  0  0
    4.4001  -14.4533    0.0000 C   0  0  0  0  0  0  0  0  0  0  0  0
    8.3714   -7.6429    0.0000 C   0  0  0  0  0  0  0  0  0  0  0  0
  2  1  2  0  0  0  0
  3  6  1  0  0  0  0
  4  3  1  0  0  0  0
  5  2  1  0  0  0  0
  6  1  1  0  0  0  0
  7  1  1  0  0  0  0
  8  7  2  0  0  0  0
  9  2  1  0  0  0  0
 10 22  1  0  0  0  0
 11  8  1  0  0  0  0
 12  4  1  0  0  0  0
 13 10  1  0  0  0  0
 14  3  1  0  0  0  0
 15 19  1  0  0  0  0
 16  7  1  0  0  0  0
 17 15  1  0  0  0  0
 18 17  2  0  0  0  0
 19 26  1  0  0  0  0
 20  6  2  0  0  0  0
 21 18  1  0  0  0  0
 22 16  1  0  0  0  0
 23 13  2  0  0  0  0
 24 19  2  0  0  0  0
 25 17  1  0  0  0  0
 26 12  1  0  0  0  0
 27 14  2  0  0  0  0
 28 14  1  0  0  0  0
 29 31  1  0  0  0  0
 30 18  1  0  0  0  0
 31 25  2  0  0  0  0
 32 27  1  0  0  0  0
 33 28  2  0  0  0  0
 34 29  1  0  0  0  0
 35 33  1  0  0  0  0
 36 13  1  0  0  0  0
 37 35  1  0  0  0  0
  9  8  1  0  0  0  0
  4  5  2  0  0  0  0
 10 11  1  0  0  0  0
 35 32  2  0  0  0  0
 29 21  2  0  0  0  0
M  END
>  <IDNUMBER>
F3222-2458

>  <Chemical_Name>
2-{[11-acetyl-4-(4-methylphenyl)-3-oxo-8-thia-4,6,11-triazatricyclo[7.4.0.0?,?]trideca-1(9),2(7),5-trien-5-yl]sulfanyl}-N-(2,4-difluorophenyl)acetamide

>  <PriceCoeff>
1.00

>  <CAS>
1190016-78-4

>  <MW>
540.60

>  <Description>
solid

>  <FSP3>
0.23

>  <clogP>
3.14

>  <TPSA>
135.62

>  <Acceptor>
4

>  <Donor>
1

>  <RotBonds>
6

>  <HAC>
37

>  <Collection>
General

>  <PPDS>
+

$$$$
F3222-2459
  Mrv2219 10102508112D          

 36 40  0  0  0  0            999 V2000
    4.3762   -9.4438    0.0000 C   0  0  0  0  0  0  0  0  0  0  0  0
    3.6682   -9.0339    0.0000 C   0  0  0  0  0  0  0  0  0  0  0  0
    5.0842   -8.2100    0.0000 N   0  0  0  0  0  0  0  0  0  0  0  0
    4.3720   -7.7919    0.0000 C   0  0  0  0  0  0  0  0  0  0  0  0
    3.6682   -8.2100    0.0000 N   0  0  0  0  0  0  0  0  0  0  0  0
    5.0966   -9.0339    0.0000 C   0  0  0  0  0  0  0  0  0  0  0  0
    4.2023  -10.2512    0.0000 C   0  0  0  0  0  0  0  0  0  0  0  0
    3.3950  -10.3381    0.0000 C   0  0  0  0  0  0  0  0  0  0  0  0
    3.0555   -9.5929    0.0000 S   0  0  0  0  0  0  0  0  0  0  0  0
    3.5316  -11.7541    0.0000 N   0  0  0  0  0  0  0  0  0  0  0  0
    3.0472  -11.0916    0.0000 C   0  0  0  0  0  0  0  0  0  0  0  0
    4.3762   -6.9721    0.0000 S   0  0  0  0  0  0  0  0  0  0  0  0
    3.2045  -12.5200    0.0000 C   0  0  0  0  0  0  0  0  0  0  0  0
    5.7922   -7.7919    0.0000 C   0  0  0  0  0  0  0  0  0  0  0  0
    4.3762   -5.3409    0.0000 N   0  0  0  0  0  0  0  0  0  0  0  0
    4.6867  -10.9219    0.0000 C   0  0  0  0  0  0  0  0  0  0  0  0
    5.0842   -5.7425    0.0000 C   0  0  0  0  0  0  0  0  0  0  0  0
    5.8046   -9.4521    0.0000 O   0  0  0  0  0  0  0  0  0  0  0  0
    3.6682   -5.7425    0.0000 C   0  0  0  0  0  0  0  0  0  0  0  0
    4.3472  -11.6754    0.0000 C   0  0  0  0  0  0  0  0  0  0  0  0
    2.3765  -12.6111    0.0000 O   0  0  0  0  0  0  0  0  0  0  0  0
    2.9603   -5.3409    0.0000 C   0  0  0  0  0  0  0  0  0  0  0  0
    5.7922   -5.3409    0.0000 O   0  0  0  0  0  0  0  0  0  0  0  0
    5.0842   -6.5622    0.0000 C   0  0  0  0  0  0  0  0  0  0  0  0
    5.7922   -6.9721    0.0000 C   0  0  0  0  0  0  0  0  0  0  0  0
    6.5126   -8.2100    0.0000 C   0  0  0  0  0  0  0  0  0  0  0  0
    2.9603   -4.5128    0.0000 F   0  0  0  0  0  0  0  0  0  0  0  0
    6.5084   -6.5622    0.0000 C   0  0  0  0  0  0  0  0  0  0  0  0
    7.2288   -7.7919    0.0000 C   0  0  0  0  0  0  0  0  0  0  0  0
    7.2288   -6.9721    0.0000 C   0  0  0  0  0  0  0  0  0  0  0  0
    3.6931  -13.1907    0.0000 C   0  0  0  0  0  0  0  0  0  0  0  0
    3.6682   -6.5622    0.0000 C   0  0  0  0  0  0  0  0  0  0  0  0
    2.2399   -5.7425    0.0000 C   0  0  0  0  0  0  0  0  0  0  0  0
    7.9492   -6.5622    0.0000 C   0  0  0  0  0  0  0  0  0  0  0  0
    2.9603   -6.9721    0.0000 C   0  0  0  0  0  0  0  0  0  0  0  0
    2.2399   -6.5622    0.0000 C   0  0  0  0  0  0  0  0  0  0  0  0
  2  1  2  0  0  0  0
  3  6  1  0  0  0  0
  4  3  1  0  0  0  0
  5  2  1  0  0  0  0
  6  1  1  0  0  0  0
  7  1  1  0  0  0  0
  8  7  2  0  0  0  0
  9  2  1  0  0  0  0
 10 20  1  0  0  0  0
 11  8  1  0  0  0  0
 12  4  1  0  0  0  0
 13 10  1  0  0  0  0
 14  3  1  0  0  0  0
 15 17  1  0  0  0  0
 16  7  1  0  0  0  0
 17 24  1  0  0  0  0
 18  6  2  0  0  0  0
 19 15  1  0  0  0  0
 20 16  1  0  0  0  0
 21 13  2  0  0  0  0
 22 19  1  0  0  0  0
 23 17  2  0  0  0  0
 24 12  1  0  0  0  0
 25 14  2  0  0  0  0
 26 14  1  0  0  0  0
 27 22  1  0  0  0  0
 28 25  1  0  0  0  0
 29 26  2  0  0  0  0
 30 29  1  0  0  0  0
 31 13  1  0  0  0  0
 32 19  2  0  0  0  0
 33 22  2  0  0  0  0
 34 30  1  0  0  0  0
 35 32  1  0  0  0  0
 36 35  2  0  0  0  0
  8  9  1  0  0  0  0
  5  4  2  0  0  0  0
 11 10  1  0  0  0  0
 28 30  2  0  0  0  0
 33 36  1  0  0  0  0
M  END
>  <IDNUMBER>
F3222-2459

>  <Chemical_Name>
2-{[11-acetyl-4-(4-methylphenyl)-3-oxo-8-thia-4,6,11-triazatricyclo[7.4.0.0?,?]trideca-1(9),2(7),5-trien-5-yl]sulfanyl}-N-(2-fluorophenyl)acetamide

>  <PriceCoeff>
1.00

>  <CAS>
1189958-55-1

>  <MW>
522.61

>  <Description>
solid

>  <FSP3>
0.23

>  <clogP>
2.90

>  <TPSA>
135.62

>  <Acceptor>
4

>  <Donor>
1

>  <RotBonds>
6

>  <HAC>
36

>  <Collection>
General

>  <PPDS>
+

$$$$
F3222-2460
  Mrv2219 10102508112D          

 37 41  0  0  0  0            999 V2000
    5.1239   -9.0823    0.0000 C   0  0  0  0  0  0  0  0  0  0  0  0
    5.8565   -8.6952    0.0000 C   0  0  0  0  0  0  0  0  0  0  0  0
    4.4621   -7.8086    0.0000 N   0  0  0  0  0  0  0  0  0  0  0  0
    5.1863   -7.4340    0.0000 C   0  0  0  0  0  0  0  0  0  0  0  0
    5.8856   -7.8711    0.0000 N   0  0  0  0  0  0  0  0  0  0  0  0
    4.4246   -8.6328    0.0000 C   0  0  0  0  0  0  0  0  0  0  0  0
    5.2696   -9.8940    0.0000 C   0  0  0  0  0  0  0  0  0  0  0  0
    6.0812  -10.0064    0.0000 C   0  0  0  0  0  0  0  0  0  0  0  0
    6.4475   -9.2821    0.0000 S   0  0  0  0  0  0  0  0  0  0  0  0
    5.8731  -11.4174    0.0000 N   0  0  0  0  0  0  0  0  0  0  0  0
    6.3851  -10.7681    0.0000 C   0  0  0  0  0  0  0  0  0  0  0  0
    5.2238   -6.6099    0.0000 S   0  0  0  0  0  0  0  0  0  0  0  0
    6.1728  -12.1916    0.0000 C   0  0  0  0  0  0  0  0  0  0  0  0
    3.7628   -7.3674    0.0000 C   0  0  0  0  0  0  0  0  0  0  0  0
    4.7618  -10.5391    0.0000 C   0  0  0  0  0  0  0  0  0  0  0  0
    3.6837   -9.0157    0.0000 O   0  0  0  0  0  0  0  0  0  0  0  0
    5.9855   -5.3986    0.0000 C   0  0  0  0  0  0  0  0  0  0  0  0
    5.0698  -11.3050    0.0000 C   0  0  0  0  0  0  0  0  0  0  0  0
    6.7098   -5.0115    0.0000 N   0  0  0  0  0  0  0  0  0  0  0  0
    6.9928  -12.3165    0.0000 O   0  0  0  0  0  0  0  0  0  0  0  0
    6.7472   -4.1874    0.0000 C   0  0  0  0  0  0  0  0  0  0  0  0
    5.2862   -4.9574    0.0000 O   0  0  0  0  0  0  0  0  0  0  0  0
    5.9481   -6.2228    0.0000 C   0  0  0  0  0  0  0  0  0  0  0  0
    3.0386   -7.7545    0.0000 C   0  0  0  0  0  0  0  0  0  0  0  0
    3.8003   -6.5350    0.0000 C   0  0  0  0  0  0  0  0  0  0  0  0
    6.0480   -3.7461    0.0000 C   0  0  0  0  0  0  0  0  0  0  0  0
    2.3393   -7.3092    0.0000 C   0  0  0  0  0  0  0  0  0  0  0  0
    3.1093   -6.0979    0.0000 C   0  0  0  0  0  0  0  0  0  0  0  0
    2.3767   -6.4850    0.0000 C   0  0  0  0  0  0  0  0  0  0  0  0
    6.0812   -2.9137    0.0000 C   0  0  0  0  0  0  0  0  0  0  0  0
    5.6609  -12.8285    0.0000 C   0  0  0  0  0  0  0  0  0  0  0  0
    7.5089   -2.9761    0.0000 C   0  0  0  0  0  0  0  0  0  0  0  0
    7.4715   -3.8003    0.0000 C   0  0  0  0  0  0  0  0  0  0  0  0
    6.8097   -2.5391    0.0000 C   0  0  0  0  0  0  0  0  0  0  0  0
    5.3737   -2.4642    0.0000 C   0  0  0  0  0  0  0  0  0  0  0  0
    1.6775   -6.0355    0.0000 C   0  0  0  0  0  0  0  0  0  0  0  0
    4.6369   -2.8388    0.0000 C   0  0  0  0  0  0  0  0  0  0  0  0
  2  1  2  0  0  0  0
  3  6  1  0  0  0  0
  4  3  1  0  0  0  0
  5  2  1  0  0  0  0
  6  1  1  0  0  0  0
  7  1  1  0  0  0  0
  8  7  2  0  0  0  0
  9  2  1  0  0  0  0
 10 18  1  0  0  0  0
 11  8  1  0  0  0  0
 12  4  1  0  0  0  0
 13 10  1  0  0  0  0
 14  3  1  0  0  0  0
 15  7  1  0  0  0  0
 16  6  2  0  0  0  0
 17 23  1  0  0  0  0
 18 15  1  0  0  0  0
 19 17  1  0  0  0  0
 20 13  2  0  0  0  0
 21 19  1  0  0  0  0
 22 17  2  0  0  0  0
 23 12  1  0  0  0  0
 24 14  1  0  0  0  0
 25 14  2  0  0  0  0
 26 21  1  0  0  0  0
 27 24  2  0  0  0  0
 28 25  1  0  0  0  0
 29 28  2  0  0  0  0
 30 26  2  0  0  0  0
 31 13  1  0  0  0  0
 32 33  1  0  0  0  0
 33 21  2  0  0  0  0
 34 32  2  0  0  0  0
 35 30  1  0  0  0  0
 36 29  1  0  0  0  0
 37 35  1  0  0  0  0
  8  9  1  0  0  0  0
  5  4  2  0  0  0  0
 11 10  1  0  0  0  0
 27 29  1  0  0  0  0
 34 30  1  0  0  0  0
M  END
>  <IDNUMBER>
F3222-2460

>  <Chemical_Name>
2-{[11-acetyl-4-(4-methylphenyl)-3-oxo-8-thia-4,6,11-triazatricyclo[7.4.0.0?,?]trideca-1(9),2(7),5-trien-5-yl]sulfanyl}-N-(3-ethylphenyl)acetamide

>  <PriceCoeff>
1.00

>  <CAS>
1189728-13-9

>  <MW>
532.68

>  <Description>
solid

>  <FSP3>
0.29

>  <clogP>
4.13

>  <TPSA>
135.62

>  <Acceptor>
4

>  <Donor>
1

>  <RotBonds>
7

>  <HAC>
37

>  <Collection>
General

>  <PPDS>
+

$$$$
F3222-2461
  Mrv2219 10102508112D          

 37 41  0  0  0  0            999 V2000
    5.4732   -9.0817    0.0000 C   0  0  0  0  0  0  0  0  0  0  0  0
    6.2057   -8.6946    0.0000 C   0  0  0  0  0  0  0  0  0  0  0  0
    4.8114   -7.8081    0.0000 N   0  0  0  0  0  0  0  0  0  0  0  0
    5.5356   -7.4335    0.0000 C   0  0  0  0  0  0  0  0  0  0  0  0
    6.2349   -7.8706    0.0000 N   0  0  0  0  0  0  0  0  0  0  0  0
    4.7740   -8.6322    0.0000 C   0  0  0  0  0  0  0  0  0  0  0  0
    5.6188   -9.8934    0.0000 C   0  0  0  0  0  0  0  0  0  0  0  0
    6.4305  -10.0058    0.0000 C   0  0  0  0  0  0  0  0  0  0  0  0
    6.7968   -9.2815    0.0000 S   0  0  0  0  0  0  0  0  0  0  0  0
    6.2224  -11.4167    0.0000 N   0  0  0  0  0  0  0  0  0  0  0  0
    6.7343  -10.7674    0.0000 C   0  0  0  0  0  0  0  0  0  0  0  0
    5.5730   -6.6095    0.0000 S   0  0  0  0  0  0  0  0  0  0  0  0
    6.5221  -12.1908    0.0000 C   0  0  0  0  0  0  0  0  0  0  0  0
    4.1122   -7.3669    0.0000 C   0  0  0  0  0  0  0  0  0  0  0  0
    5.1111  -10.5384    0.0000 C   0  0  0  0  0  0  0  0  0  0  0  0
    4.0330   -9.0151    0.0000 O   0  0  0  0  0  0  0  0  0  0  0  0
    7.0964   -4.1871    0.0000 C   0  0  0  0  0  0  0  0  0  0  0  0
    6.3348   -5.3983    0.0000 C   0  0  0  0  0  0  0  0  0  0  0  0
    7.0589   -5.0112    0.0000 N   0  0  0  0  0  0  0  0  0  0  0  0
    5.4191  -11.3043    0.0000 C   0  0  0  0  0  0  0  0  0  0  0  0
    7.3419  -12.3157    0.0000 O   0  0  0  0  0  0  0  0  0  0  0  0
    5.6355   -4.9571    0.0000 O   0  0  0  0  0  0  0  0  0  0  0  0
    6.2973   -6.2224    0.0000 C   0  0  0  0  0  0  0  0  0  0  0  0
    3.3880   -7.7540    0.0000 C   0  0  0  0  0  0  0  0  0  0  0  0
    4.1496   -6.5346    0.0000 C   0  0  0  0  0  0  0  0  0  0  0  0
    6.4305   -2.9135    0.0000 C   0  0  0  0  0  0  0  0  0  0  0  0
    7.8581   -2.9759    0.0000 C   0  0  0  0  0  0  0  0  0  0  0  0
    6.3972   -3.7459    0.0000 C   0  0  0  0  0  0  0  0  0  0  0  0
    7.8206   -3.8001    0.0000 C   0  0  0  0  0  0  0  0  0  0  0  0
    7.1588   -2.5389    0.0000 C   0  0  0  0  0  0  0  0  0  0  0  0
    2.6887   -7.3087    0.0000 C   0  0  0  0  0  0  0  0  0  0  0  0
    3.4587   -6.0975    0.0000 C   0  0  0  0  0  0  0  0  0  0  0  0
    2.7262   -6.4846    0.0000 C   0  0  0  0  0  0  0  0  0  0  0  0
    6.0101  -12.8277    0.0000 C   0  0  0  0  0  0  0  0  0  0  0  0
    8.5948   -2.5846    0.0000 C   0  0  0  0  0  0  0  0  0  0  0  0
    5.7229   -2.4640    0.0000 C   0  0  0  0  0  0  0  0  0  0  0  0
    2.0270   -6.0351    0.0000 C   0  0  0  0  0  0  0  0  0  0  0  0
  2  1  2  0  0  0  0
  3  6  1  0  0  0  0
  4  3  1  0  0  0  0
  5  2  1  0  0  0  0
  6  1  1  0  0  0  0
  7  1  1  0  0  0  0
  8  7  2  0  0  0  0
  9  2  1  0  0  0  0
 10 20  1  0  0  0  0
 11  8  1  0  0  0  0
 12  4  1  0  0  0  0
 13 10  1  0  0  0  0
 14  3  1  0  0  0  0
 15  7  1  0  0  0  0
 16  6  2  0  0  0  0
 17 19  1  0  0  0  0
 18 23  1  0  0  0  0
 19 18  1  0  0  0  0
 20 15  1  0  0  0  0
 21 13  2  0  0  0  0
 22 18  2  0  0  0  0
 23 12  1  0  0  0  0
 24 14  1  0  0  0  0
 25 14  2  0  0  0  0
 26 28  2  0  0  0  0
 27 29  1  0  0  0  0
 28 17  1  0  0  0  0
 29 17  2  0  0  0  0
 30 27  2  0  0  0  0
 31 24  2  0  0  0  0
 32 25  1  0  0  0  0
 33 32  2  0  0  0  0
 34 13  1  0  0  0  0
 35 27  1  0  0  0  0
 36 26  1  0  0  0  0
 37 33  1  0  0  0  0
  8  9  1  0  0  0  0
  5  4  2  0  0  0  0
 11 10  1  0  0  0  0
 31 33  1  0  0  0  0
 30 26  1  0  0  0  0
M  END
>  <IDNUMBER>
F3222-2461

>  <Chemical_Name>
2-{[11-acetyl-4-(4-methylphenyl)-3-oxo-8-thia-4,6,11-triazatricyclo[7.4.0.0?,?]trideca-1(9),2(7),5-trien-5-yl]sulfanyl}-N-(3,5-dimethylphenyl)acetamide

>  <PriceCoeff>
1.00

>  <CAS>
1184972-49-3

>  <MW>
532.68

>  <Description>
solid

>  <FSP3>
0.29

>  <clogP>
4.10

>  <TPSA>
135.62

>  <Acceptor>
4

>  <Donor>
1

>  <RotBonds>
6

>  <HAC>
37

>  <Collection>
General

>  <PPDS>
+

$$$$
F3222-2462
  Mrv2219 10102508112D          

 36 40  0  0  0  0            999 V2000
    5.4108   -9.0817    0.0000 C   0  0  0  0  0  0  0  0  0  0  0  0
    6.1433   -8.6946    0.0000 C   0  0  0  0  0  0  0  0  0  0  0  0
    4.7490   -7.8081    0.0000 N   0  0  0  0  0  0  0  0  0  0  0  0
    5.4732   -7.4335    0.0000 C   0  0  0  0  0  0  0  0  0  0  0  0
    6.1724   -7.8706    0.0000 N   0  0  0  0  0  0  0  0  0  0  0  0
    4.7115   -8.6322    0.0000 C   0  0  0  0  0  0  0  0  0  0  0  0
    5.5564   -9.8934    0.0000 C   0  0  0  0  0  0  0  0  0  0  0  0
    6.3680  -10.0058    0.0000 C   0  0  0  0  0  0  0  0  0  0  0  0
    6.7343   -9.2815    0.0000 S   0  0  0  0  0  0  0  0  0  0  0  0
    6.1599  -11.4167    0.0000 N   0  0  0  0  0  0  0  0  0  0  0  0
    6.6719  -10.7674    0.0000 C   0  0  0  0  0  0  0  0  0  0  0  0
    5.5106   -6.6095    0.0000 S   0  0  0  0  0  0  0  0  0  0  0  0
    6.4596  -12.1908    0.0000 C   0  0  0  0  0  0  0  0  0  0  0  0
    4.0497   -7.3669    0.0000 C   0  0  0  0  0  0  0  0  0  0  0  0
    5.0487  -10.5384    0.0000 C   0  0  0  0  0  0  0  0  0  0  0  0
    3.9706   -9.0151    0.0000 O   0  0  0  0  0  0  0  0  0  0  0  0
    6.2723   -5.3983    0.0000 C   0  0  0  0  0  0  0  0  0  0  0  0
    5.3567  -11.3043    0.0000 C   0  0  0  0  0  0  0  0  0  0  0  0
    6.9966   -5.0112    0.0000 N   0  0  0  0  0  0  0  0  0  0  0  0
    7.2795  -12.3157    0.0000 O   0  0  0  0  0  0  0  0  0  0  0  0
    5.5730   -4.9571    0.0000 O   0  0  0  0  0  0  0  0  0  0  0  0
    6.2349   -6.2224    0.0000 C   0  0  0  0  0  0  0  0  0  0  0  0
    4.0955   -6.5428    0.0000 C   0  0  0  0  0  0  0  0  0  0  0  0
    3.3131   -7.7457    0.0000 C   0  0  0  0  0  0  0  0  0  0  0  0
    7.0340   -4.1871    0.0000 C   0  0  0  0  0  0  0  0  0  0  0  0
    7.0922   -2.5264    0.0000 C   0  0  0  0  0  0  0  0  0  0  0  0
    2.6263   -7.2962    0.0000 C   0  0  0  0  0  0  0  0  0  0  0  0
    3.4005   -6.0975    0.0000 C   0  0  0  0  0  0  0  0  0  0  0  0
    2.6720   -6.4721    0.0000 C   0  0  0  0  0  0  0  0  0  0  0  0
    7.1089   -1.7023    0.0000 Cl  0  0  0  0  0  0  0  0  0  0  0  0
    7.7582   -3.8001    0.0000 C   0  0  0  0  0  0  0  0  0  0  0  0
    6.3348   -3.7501    0.0000 C   0  0  0  0  0  0  0  0  0  0  0  0
    7.7957   -2.9759    0.0000 C   0  0  0  0  0  0  0  0  0  0  0  0
    6.3680   -2.9218    0.0000 C   0  0  0  0  0  0  0  0  0  0  0  0
    5.9477  -12.8277    0.0000 C   0  0  0  0  0  0  0  0  0  0  0  0
    1.9771   -6.0184    0.0000 C   0  0  0  0  0  0  0  0  0  0  0  0
  2  1  2  0  0  0  0
  3  6  1  0  0  0  0
  4  3  1  0  0  0  0
  5  2  1  0  0  0  0
  6  1  1  0  0  0  0
  7  1  1  0  0  0  0
  8  7  2  0  0  0  0
  9  2  1  0  0  0  0
 10 18  1  0  0  0  0
 11  8  1  0  0  0  0
 12  4  1  0  0  0  0
 13 10  1  0  0  0  0
 14  3  1  0  0  0  0
 15  7  1  0  0  0  0
 16  6  2  0  0  0  0
 17 22  1  0  0  0  0
 18 15  1  0  0  0  0
 19 17  1  0  0  0  0
 20 13  2  0  0  0  0
 21 17  2  0  0  0  0
 22 12  1  0  0  0  0
 23 14  2  0  0  0  0
 24 14  1  0  0  0  0
 25 19  1  0  0  0  0
 26 34  1  0  0  0  0
 27 24  2  0  0  0  0
 28 23  1  0  0  0  0
 29 27  1  0  0  0  0
 30 26  1  0  0  0  0
 31 25  2  0  0  0  0
 32 25  1  0  0  0  0
 33 31  1  0  0  0  0
 34 32  2  0  0  0  0
 35 13  1  0  0  0  0
 36 29  1  0  0  0  0
  8  9  1  0  0  0  0
  5  4  2  0  0  0  0
 11 10  1  0  0  0  0
 28 29  2  0  0  0  0
 33 26  2  0  0  0  0
M  END
>  <IDNUMBER>
F3222-2462

>  <Chemical_Name>
2-{[11-acetyl-4-(4-methylphenyl)-3-oxo-8-thia-4,6,11-triazatricyclo[7.4.0.0?,?]trideca-1(9),2(7),5-trien-5-yl]sulfanyl}-N-(4-chlorophenyl)acetamide

>  <PriceCoeff>
1.00

>  <CAS>
1185080-84-5

>  <MW>
539.07

>  <Description>
solid

>  <FSP3>
0.23

>  <clogP>
4.07

>  <TPSA>
135.62

>  <Acceptor>
4

>  <Donor>
1

>  <RotBonds>
6

>  <HAC>
36

>  <Collection>
General

>  <PPDS>
+

$$$$
F3222-2464
  Mrv2219 10102508112D          

 37 41  0  0  0  0            999 V2000
    5.8364   -9.4957    0.0000 C   0  0  0  0  0  0  0  0  0  0  0  0
    6.5608   -9.1085    0.0000 C   0  0  0  0  0  0  0  0  0  0  0  0
    5.1703   -8.2218    0.0000 N   0  0  0  0  0  0  0  0  0  0  0  0
    5.8989   -7.8471    0.0000 C   0  0  0  0  0  0  0  0  0  0  0  0
    6.5982   -8.2843    0.0000 N   0  0  0  0  0  0  0  0  0  0  0  0
    5.1370   -9.0460    0.0000 C   0  0  0  0  0  0  0  0  0  0  0  0
    5.9738  -10.3074    0.0000 C   0  0  0  0  0  0  0  0  0  0  0  0
    6.7856  -10.4198    0.0000 C   0  0  0  0  0  0  0  0  0  0  0  0
    7.1561   -9.6955    0.0000 S   0  0  0  0  0  0  0  0  0  0  0  0
    6.5857  -11.8311    0.0000 N   0  0  0  0  0  0  0  0  0  0  0  0
    7.0978  -11.1816    0.0000 C   0  0  0  0  0  0  0  0  0  0  0  0
    7.4557   -4.6001    0.0000 C   0  0  0  0  0  0  0  0  0  0  0  0
    5.9322   -7.0229    0.0000 S   0  0  0  0  0  0  0  0  0  0  0  0
    6.8855  -12.6053    0.0000 C   0  0  0  0  0  0  0  0  0  0  0  0
    4.4752   -7.7805    0.0000 C   0  0  0  0  0  0  0  0  0  0  0  0
    7.4225   -5.4243    0.0000 N   0  0  0  0  0  0  0  0  0  0  0  0
    5.4700  -10.9526    0.0000 C   0  0  0  0  0  0  0  0  0  0  0  0
    6.6939   -5.8115    0.0000 C   0  0  0  0  0  0  0  0  0  0  0  0
    4.3877   -9.4290    0.0000 O   0  0  0  0  0  0  0  0  0  0  0  0
    8.1843   -4.2129    0.0000 C   0  0  0  0  0  0  0  0  0  0  0  0
    5.7740  -11.7187    0.0000 C   0  0  0  0  0  0  0  0  0  0  0  0
    6.7606   -4.1629    0.0000 C   0  0  0  0  0  0  0  0  0  0  0  0
    7.6972  -12.7302    0.0000 O   0  0  0  0  0  0  0  0  0  0  0  0
    5.9946   -5.3701    0.0000 O   0  0  0  0  0  0  0  0  0  0  0  0
    6.6607   -6.6357    0.0000 C   0  0  0  0  0  0  0  0  0  0  0  0
    3.7466   -8.1676    0.0000 C   0  0  0  0  0  0  0  0  0  0  0  0
    4.5126   -6.9479    0.0000 C   0  0  0  0  0  0  0  0  0  0  0  0
    6.7856   -3.3345    0.0000 C   0  0  0  0  0  0  0  0  0  0  0  0
    8.2176   -3.3886    0.0000 C   0  0  0  0  0  0  0  0  0  0  0  0
    6.0238   -4.5584    0.0000 F   0  0  0  0  0  0  0  0  0  0  0  0
    7.5099   -2.9390    0.0000 C   0  0  0  0  0  0  0  0  0  0  0  0
    3.8133   -6.5108    0.0000 C   0  0  0  0  0  0  0  0  0  0  0  0
    3.0472   -7.7222    0.0000 C   0  0  0  0  0  0  0  0  0  0  0  0
    8.9586   -3.0015    0.0000 F   0  0  0  0  0  0  0  0  0  0  0  0
    3.0889   -6.8980    0.0000 C   0  0  0  0  0  0  0  0  0  0  0  0
    6.3692  -13.2422    0.0000 C   0  0  0  0  0  0  0  0  0  0  0  0
    2.3771   -6.4483    0.0000 C   0  0  0  0  0  0  0  0  0  0  0  0
  2  1  2  0  0  0  0
  3  6  1  0  0  0  0
  4  3  1  0  0  0  0
  5  2  1  0  0  0  0
  6  1  1  0  0  0  0
  7  1  1  0  0  0  0
  8  7  2  0  0  0  0
  9  2  1  0  0  0  0
 10 21  1  0  0  0  0
 11  8  1  0  0  0  0
 12 16  1  0  0  0  0
 13  4  1  0  0  0  0
 14 10  1  0  0  0  0
 15  3  1  0  0  0  0
 16 18  1  0  0  0  0
 17  7  1  0  0  0  0
 18 25  1  0  0  0  0
 19  6  2  0  0  0  0
 20 12  2  0  0  0  0
 21 17  1  0  0  0  0
 22 12  1  0  0  0  0
 23 14  2  0  0  0  0
 24 18  2  0  0  0  0
 25 13  1  0  0  0  0
 26 15  1  0  0  0  0
 27 15  2  0  0  0  0
 28 22  2  0  0  0  0
 29 20  1  0  0  0  0
 30 22  1  0  0  0  0
 31 28  1  0  0  0  0
 32 27  1  0  0  0  0
 33 26  2  0  0  0  0
 34 29  1  0  0  0  0
 35 32  2  0  0  0  0
 36 14  1  0  0  0  0
 37 35  1  0  0  0  0
  8  9  1  0  0  0  0
  5  4  2  0  0  0  0
 11 10  1  0  0  0  0
 33 35  1  0  0  0  0
 29 31  2  0  0  0  0
M  END
>  <IDNUMBER>
F3222-2464

>  <Chemical_Name>
2-{[11-acetyl-4-(4-methylphenyl)-3-oxo-8-thia-4,6,11-triazatricyclo[7.4.0.0?,?]trideca-1(9),2(7),5-trien-5-yl]sulfanyl}-N-(2,5-difluorophenyl)acetamide

>  <PriceCoeff>
1.00

>  <CAS>
1215539-40-4

>  <MW>
540.60

>  <Description>
solid

>  <FSP3>
0.23

>  <clogP>
3.14

>  <TPSA>
135.62

>  <Acceptor>
4

>  <Donor>
1

>  <RotBonds>
6

>  <HAC>
37

>  <Collection>
General

>  <PPDS>
+

$$$$
F3222-2465
  Mrv2219 10102508112D          

 38 42  0  0  0  0            999 V2000
    5.3118  -10.6818    0.0000 C   0  0  0  0  0  0  0  0  0  0  0  0
    4.5832  -10.3029    0.0000 C   0  0  0  0  0  0  0  0  0  0  0  0
    5.9737   -9.4163    0.0000 N   0  0  0  0  0  0  0  0  0  0  0  0
    5.2493   -9.0333    0.0000 C   0  0  0  0  0  0  0  0  0  0  0  0
    4.5500   -9.4704    0.0000 N   0  0  0  0  0  0  0  0  0  0  0  0
    6.0111  -10.2405    0.0000 C   0  0  0  0  0  0  0  0  0  0  0  0
    5.1702  -11.4935    0.0000 C   0  0  0  0  0  0  0  0  0  0  0  0
    4.3585  -11.6142    0.0000 C   0  0  0  0  0  0  0  0  0  0  0  0
    3.9880  -10.8816    0.0000 S   0  0  0  0  0  0  0  0  0  0  0  0
    4.5625  -13.0254    0.0000 N   0  0  0  0  0  0  0  0  0  0  0  0
    4.0504  -12.3760    0.0000 C   0  0  0  0  0  0  0  0  0  0  0  0
    5.2119   -8.2091    0.0000 S   0  0  0  0  0  0  0  0  0  0  0  0
    4.2627  -13.7914    0.0000 C   0  0  0  0  0  0  0  0  0  0  0  0
    6.6730   -8.9709    0.0000 C   0  0  0  0  0  0  0  0  0  0  0  0
    5.6739  -12.1429    0.0000 C   0  0  0  0  0  0  0  0  0  0  0  0
    6.7562  -10.6193    0.0000 O   0  0  0  0  0  0  0  0  0  0  0  0
    4.4501   -6.9977    0.0000 C   0  0  0  0  0  0  0  0  0  0  0  0
    5.3700  -12.9047    0.0000 C   0  0  0  0  0  0  0  0  0  0  0  0
    2.9265   -4.5750    0.0000 C   0  0  0  0  0  0  0  0  0  0  0  0
    3.7257   -6.6106    0.0000 N   0  0  0  0  0  0  0  0  0  0  0  0
    2.1897   -4.1878    0.0000 C   0  0  0  0  0  0  0  0  0  0  0  0
    2.9639   -5.3992    0.0000 C   0  0  0  0  0  0  0  0  0  0  0  0
    3.6883   -5.7863    0.0000 C   0  0  0  0  0  0  0  0  0  0  0  0
    3.4468  -13.9246    0.0000 O   0  0  0  0  0  0  0  0  0  0  0  0
    5.1494   -6.5606    0.0000 O   0  0  0  0  0  0  0  0  0  0  0  0
    2.1522   -3.3636    0.0000 O   0  0  0  0  0  0  0  0  0  0  0  0
    4.4875   -7.8219    0.0000 C   0  0  0  0  0  0  0  0  0  0  0  0
    7.3973   -9.3580    0.0000 C   0  0  0  0  0  0  0  0  0  0  0  0
    6.6355   -8.1424    0.0000 C   0  0  0  0  0  0  0  0  0  0  0  0
    7.3307   -7.7053    0.0000 C   0  0  0  0  0  0  0  0  0  0  0  0
    8.0967   -8.9167    0.0000 C   0  0  0  0  0  0  0  0  0  0  0  0
    8.0592   -8.0925    0.0000 C   0  0  0  0  0  0  0  0  0  0  0  0
    4.7748  -14.4366    0.0000 C   0  0  0  0  0  0  0  0  0  0  0  0
    3.6341   -4.1254    0.0000 C   0  0  0  0  0  0  0  0  0  0  0  0
    4.3585   -4.5250    0.0000 C   0  0  0  0  0  0  0  0  0  0  0  0
    4.3876   -5.3492    0.0000 C   0  0  0  0  0  0  0  0  0  0  0  0
    1.4903   -4.6457    0.0000 C   0  0  0  0  0  0  0  0  0  0  0  0
    8.7586   -7.6429    0.0000 C   0  0  0  0  0  0  0  0  0  0  0  0
  2  1  2  0  0  0  0
  3  6  1  0  0  0  0
  4  3  1  0  0  0  0
  5  2  1  0  0  0  0
  6  1  1  0  0  0  0
  7  1  1  0  0  0  0
  8  7  2  0  0  0  0
  9  2  1  0  0  0  0
 10 18  1  0  0  0  0
 11  8  1  0  0  0  0
 12  4  1  0  0  0  0
 13 10  1  0  0  0  0
 14  3  1  0  0  0  0
 15  7  1  0  0  0  0
 16  6  2  0  0  0  0
 17 27  1  0  0  0  0
 18 15  1  0  0  0  0
 19 22  1  0  0  0  0
 20 17  1  0  0  0  0
 21 19  1  0  0  0  0
 22 23  2  0  0  0  0
 23 20  1  0  0  0  0
 24 13  2  0  0  0  0
 25 17  2  0  0  0  0
 26 21  2  0  0  0  0
 27 12  1  0  0  0  0
 28 14  1  0  0  0  0
 29 14  2  0  0  0  0
 30 29  1  0  0  0  0
 31 28  2  0  0  0  0
 32 30  2  0  0  0  0
 33 13  1  0  0  0  0
 34 35  1  0  0  0  0
 35 36  2  0  0  0  0
 36 23  1  0  0  0  0
 37 21  1  0  0  0  0
 38 32  1  0  0  0  0
  9  8  1  0  0  0  0
  4  5  2  0  0  0  0
 10 11  1  0  0  0  0
 32 31  1  0  0  0  0
 34 19  2  0  0  0  0
M  END
>  <IDNUMBER>
F3222-2465

>  <Chemical_Name>
2-{[11-acetyl-4-(4-methylphenyl)-3-oxo-8-thia-4,6,11-triazatricyclo[7.4.0.0?,?]trideca-1(9),2(7),5-trien-5-yl]sulfanyl}-N-(3-acetylphenyl)acetamide

>  <PriceCoeff>
1.00

>  <CAS>
1189470-35-6

>  <MW>
546.66

>  <Description>
solid

>  <FSP3>
0.25

>  <clogP>
3.01

>  <TPSA>
152.69

>  <Acceptor>
5

>  <Donor>
1

>  <RotBonds>
7

>  <HAC>
38

>  <Collection>
General

>  <PPDS>
+

$$$$
F3222-2466
  Mrv2219 10102508112D          

 38 42  0  0  0  0            999 V2000
    5.1106   -9.0588    0.0000 C   0  0  0  0  0  0  0  0  0  0  0  0
    4.4007   -8.6435    0.0000 C   0  0  0  0  0  0  0  0  0  0  0  0
    5.8205   -7.8133    0.0000 N   0  0  0  0  0  0  0  0  0  0  0  0
    5.1064   -7.4023    0.0000 C   0  0  0  0  0  0  0  0  0  0  0  0
    4.4007   -7.8133    0.0000 N   0  0  0  0  0  0  0  0  0  0  0  0
    5.8330   -8.6435    0.0000 C   0  0  0  0  0  0  0  0  0  0  0  0
    4.9363   -9.8683    0.0000 C   0  0  0  0  0  0  0  0  0  0  0  0
    4.1225   -9.9555    0.0000 C   0  0  0  0  0  0  0  0  0  0  0  0
    3.7779   -9.1958    0.0000 S   0  0  0  0  0  0  0  0  0  0  0  0
    4.2637  -11.3753    0.0000 N   0  0  0  0  0  0  0  0  0  0  0  0
    3.7779  -10.7028    0.0000 C   0  0  0  0  0  0  0  0  0  0  0  0
    5.1106   -6.5802    0.0000 S   0  0  0  0  0  0  0  0  0  0  0  0
    3.9356  -12.1433    0.0000 C   0  0  0  0  0  0  0  0  0  0  0  0
    6.5428   -7.4023    0.0000 C   0  0  0  0  0  0  0  0  0  0  0  0
    5.4219  -10.5409    0.0000 C   0  0  0  0  0  0  0  0  0  0  0  0
    6.5428   -9.0670    0.0000 O   0  0  0  0  0  0  0  0  0  0  0  0
    5.8205   -5.3555    0.0000 C   0  0  0  0  0  0  0  0  0  0  0  0
    5.0815  -11.2964    0.0000 C   0  0  0  0  0  0  0  0  0  0  0  0
    5.1106   -4.9445    0.0000 N   0  0  0  0  0  0  0  0  0  0  0  0
    2.2460   -6.5885    0.0000 C   0  0  0  0  0  0  0  0  0  0  0  0
    2.9684   -6.1693    0.0000 C   0  0  0  0  0  0  0  0  0  0  0  0
    3.1054  -12.2346    0.0000 O   0  0  0  0  0  0  0  0  0  0  0  0
    6.5304   -4.9445    0.0000 O   0  0  0  0  0  0  0  0  0  0  0  0
    1.5361   -6.1693    0.0000 O   0  0  0  0  0  0  0  0  0  0  0  0
    5.8205   -6.1693    0.0000 C   0  0  0  0  0  0  0  0  0  0  0  0
    7.2611   -7.8133    0.0000 C   0  0  0  0  0  0  0  0  0  0  0  0
    6.5428   -6.5802    0.0000 C   0  0  0  0  0  0  0  0  0  0  0  0
    3.6865   -6.5802    0.0000 C   0  0  0  0  0  0  0  0  0  0  0  0
    2.9684   -5.3555    0.0000 C   0  0  0  0  0  0  0  0  0  0  0  0
    4.4007   -5.3555    0.0000 C   0  0  0  0  0  0  0  0  0  0  0  0
    4.4007   -6.1693    0.0000 C   0  0  0  0  0  0  0  0  0  0  0  0
    3.6865   -4.9445    0.0000 C   0  0  0  0  0  0  0  0  0  0  0  0
    7.9751   -7.4023    0.0000 C   0  0  0  0  0  0  0  0  0  0  0  0
    7.2528   -6.1693    0.0000 C   0  0  0  0  0  0  0  0  0  0  0  0
    7.9751   -6.5802    0.0000 C   0  0  0  0  0  0  0  0  0  0  0  0
    4.4256  -12.8076    0.0000 C   0  0  0  0  0  0  0  0  0  0  0  0
    2.2460   -7.4147    0.0000 C   0  0  0  0  0  0  0  0  0  0  0  0
    8.6975   -6.1693    0.0000 C   0  0  0  0  0  0  0  0  0  0  0  0
  2  1  2  0  0  0  0
  3  6  1  0  0  0  0
  4  3  1  0  0  0  0
  5  2  1  0  0  0  0
  6  1  1  0  0  0  0
  7  1  1  0  0  0  0
  8  7  2  0  0  0  0
  9  2  1  0  0  0  0
 10 18  1  0  0  0  0
 11  8  1  0  0  0  0
 12  4  1  0  0  0  0
 13 10  1  0  0  0  0
 14  3  1  0  0  0  0
 15  7  1  0  0  0  0
 16  6  2  0  0  0  0
 17 25  1  0  0  0  0
 18 15  1  0  0  0  0
 19 17  1  0  0  0  0
 20 21  1  0  0  0  0
 21 29  2  0  0  0  0
 22 13  2  0  0  0  0
 23 17  2  0  0  0  0
 24 20  2  0  0  0  0
 25 12  1  0  0  0  0
 26 14  1  0  0  0  0
 27 14  2  0  0  0  0
 28 31  2  0  0  0  0
 29 32  1  0  0  0  0
 30 19  1  0  0  0  0
 31 30  1  0  0  0  0
 32 30  2  0  0  0  0
 33 26  2  0  0  0  0
 34 27  1  0  0  0  0
 35 34  2  0  0  0  0
 36 13  1  0  0  0  0
 37 20  1  0  0  0  0
 38 35  1  0  0  0  0
  8  9  1  0  0  0  0
  5  4  2  0  0  0  0
 11 10  1  0  0  0  0
 33 35  1  0  0  0  0
 28 21  1  0  0  0  0
M  END
>  <IDNUMBER>
F3222-2466

>  <Chemical_Name>
2-{[11-acetyl-4-(4-methylphenyl)-3-oxo-8-thia-4,6,11-triazatricyclo[7.4.0.0?,?]trideca-1(9),2(7),5-trien-5-yl]sulfanyl}-N-(4-acetylphenyl)acetamide

>  <PriceCoeff>
1.00

>  <CAS>
1189986-87-5

>  <MW>
546.66

>  <Description>
solid

>  <FSP3>
0.25

>  <clogP>
3.01

>  <TPSA>
152.69

>  <Acceptor>
5

>  <Donor>
1

>  <RotBonds>
7

>  <HAC>
38

>  <Collection>
General

>  <PPDS>
+

$$$$
F3222-2467
  Mrv2219 10102508112D          

 38 42  0  0  0  0            999 V2000
    4.7628   -9.0843    0.0000 C   0  0  0  0  0  0  0  0  0  0  0  0
    5.4872   -8.6971    0.0000 C   0  0  0  0  0  0  0  0  0  0  0  0
    4.0967   -7.8103    0.0000 N   0  0  0  0  0  0  0  0  0  0  0  0
    4.8253   -7.4356    0.0000 C   0  0  0  0  0  0  0  0  0  0  0  0
    5.5247   -7.8728    0.0000 N   0  0  0  0  0  0  0  0  0  0  0  0
    4.0634   -8.6347    0.0000 C   0  0  0  0  0  0  0  0  0  0  0  0
    4.9002   -9.8961    0.0000 C   0  0  0  0  0  0  0  0  0  0  0  0
    5.7120  -10.0086    0.0000 C   0  0  0  0  0  0  0  0  0  0  0  0
    6.0825   -9.2841    0.0000 S   0  0  0  0  0  0  0  0  0  0  0  0
    5.5122  -11.4199    0.0000 N   0  0  0  0  0  0  0  0  0  0  0  0
    6.0243  -10.7704    0.0000 C   0  0  0  0  0  0  0  0  0  0  0  0
    4.8585   -6.6113    0.0000 S   0  0  0  0  0  0  0  0  0  0  0  0
    5.8120  -12.1943    0.0000 C   0  0  0  0  0  0  0  0  0  0  0  0
    3.4014   -7.3690    0.0000 C   0  0  0  0  0  0  0  0  0  0  0  0
    4.3964  -10.5414    0.0000 C   0  0  0  0  0  0  0  0  0  0  0  0
    3.3140   -9.0177    0.0000 O   0  0  0  0  0  0  0  0  0  0  0  0
    5.6204   -5.3998    0.0000 C   0  0  0  0  0  0  0  0  0  0  0  0
    4.7004  -11.3075    0.0000 C   0  0  0  0  0  0  0  0  0  0  0  0
    6.3490   -5.0126    0.0000 N   0  0  0  0  0  0  0  0  0  0  0  0
    6.6238  -12.3192    0.0000 O   0  0  0  0  0  0  0  0  0  0  0  0
    4.9210   -4.9585    0.0000 O   0  0  0  0  0  0  0  0  0  0  0  0
    5.5872   -6.2241    0.0000 C   0  0  0  0  0  0  0  0  0  0  0  0
    3.4389   -6.5447    0.0000 C   0  0  0  0  0  0  0  0  0  0  0  0
    2.6645   -7.7479    0.0000 C   0  0  0  0  0  0  0  0  0  0  0  0
    6.3823   -4.1883    0.0000 C   0  0  0  0  0  0  0  0  0  0  0  0
    6.4489   -2.5396    0.0000 C   0  0  0  0  0  0  0  0  0  0  0  0
    1.9734   -7.2983    0.0000 C   0  0  0  0  0  0  0  0  0  0  0  0
    2.7520   -6.0992    0.0000 C   0  0  0  0  0  0  0  0  0  0  0  0
    2.0151   -6.4739    0.0000 C   0  0  0  0  0  0  0  0  0  0  0  0
    5.6829   -3.7469    0.0000 C   0  0  0  0  0  0  0  0  0  0  0  0
    7.1109   -3.8011    0.0000 C   0  0  0  0  0  0  0  0  0  0  0  0
    5.7120   -2.9143    0.0000 C   0  0  0  0  0  0  0  0  0  0  0  0
    7.1442   -2.9768    0.0000 C   0  0  0  0  0  0  0  0  0  0  0  0
    6.4864   -1.7153    0.0000 O   0  0  0  0  0  0  0  0  0  0  0  0
    5.2957  -12.8313    0.0000 C   0  0  0  0  0  0  0  0  0  0  0  0
    7.2233   -1.3364    0.0000 C   0  0  0  0  0  0  0  0  0  0  0  0
    1.3239   -6.0201    0.0000 C   0  0  0  0  0  0  0  0  0  0  0  0
    7.2608   -0.5121    0.0000 C   0  0  0  0  0  0  0  0  0  0  0  0
  2  1  2  0  0  0  0
  3  6  1  0  0  0  0
  4  3  1  0  0  0  0
  5  2  1  0  0  0  0
  6  1  1  0  0  0  0
  7  1  1  0  0  0  0
  8  7  2  0  0  0  0
  9  2  1  0  0  0  0
 10 18  1  0  0  0  0
 11  8  1  0  0  0  0
 12  4  1  0  0  0  0
 13 10  1  0  0  0  0
 14  3  1  0  0  0  0
 15  7  1  0  0  0  0
 16  6  2  0  0  0  0
 17 22  1  0  0  0  0
 18 15  1  0  0  0  0
 19 17  1  0  0  0  0
 20 13  2  0  0  0  0
 21 17  2  0  0  0  0
 22 12  1  0  0  0  0
 23 14  2  0  0  0  0
 24 14  1  0  0  0  0
 25 19  1  0  0  0  0
 26 33  1  0  0  0  0
 27 24  2  0  0  0  0
 28 23  1  0  0  0  0
 29 27  1  0  0  0  0
 30 25  2  0  0  0  0
 31 25  1  0  0  0  0
 32 30  1  0  0  0  0
 33 31  2  0  0  0  0
 34 26  1  0  0  0  0
 35 13  1  0  0  0  0
 36 34  1  0  0  0  0
 37 29  1  0  0  0  0
 38 36  1  0  0  0  0
  8  9  1  0  0  0  0
  5  4  2  0  0  0  0
 11 10  1  0  0  0  0
 28 29  2  0  0  0  0
 26 32  2  0  0  0  0
M  END
>  <IDNUMBER>
F3222-2467

>  <Chemical_Name>
2-{[11-acetyl-4-(4-methylphenyl)-3-oxo-8-thia-4,6,11-triazatricyclo[7.4.0.0?,?]trideca-1(9),2(7),5-trien-5-yl]sulfanyl}-N-(4-ethoxyphenyl)acetamide

>  <PriceCoeff>
1.00

>  <CAS>
1215477-25-0

>  <MW>
548.68

>  <Description>
solid

>  <FSP3>
0.29

>  <clogP>
3.71

>  <TPSA>
144.85

>  <Acceptor>
5

>  <Donor>
1

>  <RotBonds>
8

>  <HAC>
38

>  <Collection>
General

>  <PPDS>
+

$$$$
F3222-2468
  Mrv2219 10102508112D          

 37 41  0  0  0  0            999 V2000
    5.4732   -9.0817    0.0000 C   0  0  0  0  0  0  0  0  0  0  0  0
    6.2057   -8.6946    0.0000 C   0  0  0  0  0  0  0  0  0  0  0  0
    4.8114   -7.8081    0.0000 N   0  0  0  0  0  0  0  0  0  0  0  0
    5.5356   -7.4335    0.0000 C   0  0  0  0  0  0  0  0  0  0  0  0
    6.2349   -7.8706    0.0000 N   0  0  0  0  0  0  0  0  0  0  0  0
    4.7740   -8.6322    0.0000 C   0  0  0  0  0  0  0  0  0  0  0  0
    5.6188   -9.8934    0.0000 C   0  0  0  0  0  0  0  0  0  0  0  0
    6.4305  -10.0058    0.0000 C   0  0  0  0  0  0  0  0  0  0  0  0
    6.7968   -9.2815    0.0000 S   0  0  0  0  0  0  0  0  0  0  0  0
    6.2224  -11.4167    0.0000 N   0  0  0  0  0  0  0  0  0  0  0  0
    6.7343  -10.7674    0.0000 C   0  0  0  0  0  0  0  0  0  0  0  0
    5.5730   -6.6095    0.0000 S   0  0  0  0  0  0  0  0  0  0  0  0
    6.5221  -12.1908    0.0000 C   0  0  0  0  0  0  0  0  0  0  0  0
    4.1122   -7.3669    0.0000 C   0  0  0  0  0  0  0  0  0  0  0  0
    5.1111  -10.5384    0.0000 C   0  0  0  0  0  0  0  0  0  0  0  0
    7.8581   -2.9759    0.0000 C   0  0  0  0  0  0  0  0  0  0  0  0
    4.0330   -9.0151    0.0000 O   0  0  0  0  0  0  0  0  0  0  0  0
    7.8206   -3.8001    0.0000 C   0  0  0  0  0  0  0  0  0  0  0  0
    6.3348   -5.3983    0.0000 C   0  0  0  0  0  0  0  0  0  0  0  0
    5.4191  -11.3043    0.0000 C   0  0  0  0  0  0  0  0  0  0  0  0
    7.0589   -5.0112    0.0000 N   0  0  0  0  0  0  0  0  0  0  0  0
    7.0964   -4.1871    0.0000 C   0  0  0  0  0  0  0  0  0  0  0  0
    7.1546   -2.5264    0.0000 C   0  0  0  0  0  0  0  0  0  0  0  0
    7.3419  -12.3157    0.0000 O   0  0  0  0  0  0  0  0  0  0  0  0
    5.6355   -4.9571    0.0000 O   0  0  0  0  0  0  0  0  0  0  0  0
    6.2973   -6.2224    0.0000 C   0  0  0  0  0  0  0  0  0  0  0  0
    4.1579   -6.5428    0.0000 C   0  0  0  0  0  0  0  0  0  0  0  0
    3.3755   -7.7457    0.0000 C   0  0  0  0  0  0  0  0  0  0  0  0
    6.4305   -2.9218    0.0000 C   0  0  0  0  0  0  0  0  0  0  0  0
    8.5948   -2.5888    0.0000 F   0  0  0  0  0  0  0  0  0  0  0  0
    6.3972   -3.7501    0.0000 C   0  0  0  0  0  0  0  0  0  0  0  0
    7.1713   -1.7023    0.0000 F   0  0  0  0  0  0  0  0  0  0  0  0
    2.6887   -7.2962    0.0000 C   0  0  0  0  0  0  0  0  0  0  0  0
    3.4629   -6.0975    0.0000 C   0  0  0  0  0  0  0  0  0  0  0  0
    2.7345   -6.4721    0.0000 C   0  0  0  0  0  0  0  0  0  0  0  0
    6.0101  -12.8277    0.0000 C   0  0  0  0  0  0  0  0  0  0  0  0
    2.0395   -6.0184    0.0000 C   0  0  0  0  0  0  0  0  0  0  0  0
  2  1  2  0  0  0  0
  3  6  1  0  0  0  0
  4  3  1  0  0  0  0
  5  2  1  0  0  0  0
  6  1  1  0  0  0  0
  7  1  1  0  0  0  0
  8  7  2  0  0  0  0
  9  2  1  0  0  0  0
 10 20  1  0  0  0  0
 11  8  1  0  0  0  0
 12  4  1  0  0  0  0
 13 10  1  0  0  0  0
 14  3  1  0  0  0  0
 15  7  1  0  0  0  0
 16 18  2  0  0  0  0
 17  6  2  0  0  0  0
 18 22  1  0  0  0  0
 19 26  1  0  0  0  0
 20 15  1  0  0  0  0
 21 19  1  0  0  0  0
 22 21  1  0  0  0  0
 23 29  2  0  0  0  0
 24 13  2  0  0  0  0
 25 19  2  0  0  0  0
 26 12  1  0  0  0  0
 27 14  2  0  0  0  0
 28 14  1  0  0  0  0
 29 31  1  0  0  0  0
 30 16  1  0  0  0  0
 31 22  2  0  0  0  0
 32 23  1  0  0  0  0
 33 28  2  0  0  0  0
 34 27  1  0  0  0  0
 35 33  1  0  0  0  0
 36 13  1  0  0  0  0
 37 35  1  0  0  0  0
  8  9  1  0  0  0  0
  5  4  2  0  0  0  0
 11 10  1  0  0  0  0
 34 35  2  0  0  0  0
 16 23  1  0  0  0  0
M  END
>  <IDNUMBER>
F3222-2468

>  <Chemical_Name>
2-{[11-acetyl-4-(4-methylphenyl)-3-oxo-8-thia-4,6,11-triazatricyclo[7.4.0.0?,?]trideca-1(9),2(7),5-trien-5-yl]sulfanyl}-N-(3,4-difluorophenyl)acetamide

>  <PriceCoeff>
1.00

>  <CAS>
1216750-64-9

>  <MW>
540.60

>  <Description>
solid

>  <FSP3>
0.23

>  <clogP>
3.67

>  <TPSA>
135.62

>  <Acceptor>
4

>  <Donor>
1

>  <RotBonds>
6

>  <HAC>
37

>  <Collection>
General

>  <PPDS>
+

$$$$
F3222-2469
  Mrv2219 10102508112D          

 35 39  0  0  0  0            999 V2000
    4.8710   -8.9719    0.0000 N   0  0  0  0  0  0  0  0  0  0  0  0
    5.5372  -10.2417    0.0000 C   0  0  0  0  0  0  0  0  0  0  0  0
    6.2616   -9.8587    0.0000 C   0  0  0  0  0  0  0  0  0  0  0  0
    5.5996   -8.5930    0.0000 C   0  0  0  0  0  0  0  0  0  0  0  0
    6.2991   -9.0301    0.0000 N   0  0  0  0  0  0  0  0  0  0  0  0
    4.8378   -9.7962    0.0000 C   0  0  0  0  0  0  0  0  0  0  0  0
    5.6746  -11.0535    0.0000 C   0  0  0  0  0  0  0  0  0  0  0  0
    6.4864  -11.1701    0.0000 C   0  0  0  0  0  0  0  0  0  0  0  0
    6.8569  -10.4415    0.0000 S   0  0  0  0  0  0  0  0  0  0  0  0
    5.0251   -4.8336    0.0000 N   0  3  0  0  0  0  0  0  0  0  0  0
    6.2866  -12.5815    0.0000 N   0  0  0  0  0  0  0  0  0  0  0  0
    4.1758   -8.5348    0.0000 C   0  0  0  0  0  0  0  0  0  0  0  0
    6.7987  -11.9320    0.0000 C   0  0  0  0  0  0  0  0  0  0  0  0
    5.6329   -7.7687    0.0000 S   0  0  0  0  0  0  0  0  0  0  0  0
    6.5863  -13.3516    0.0000 C   0  0  0  0  0  0  0  0  0  0  0  0
    5.7245   -5.2874    0.0000 C   0  0  0  0  0  0  0  0  0  0  0  0
    5.1708  -11.6947    0.0000 C   0  0  0  0  0  0  0  0  0  0  0  0
    4.0884  -10.1709    0.0000 O   0  0  0  0  0  0  0  0  0  0  0  0
    5.0626   -4.0009    0.0000 O   0  5  0  0  0  0  0  0  0  0  0  0
    5.4747  -12.4649    0.0000 C   0  0  0  0  0  0  0  0  0  0  0  0
    4.2965   -5.2207    0.0000 O   0  0  0  0  0  0  0  0  0  0  0  0
    5.6954   -6.1117    0.0000 C   0  0  0  0  0  0  0  0  0  0  0  0
    3.4472   -8.9219    0.0000 C   0  0  0  0  0  0  0  0  0  0  0  0
    7.3982  -13.4807    0.0000 O   0  0  0  0  0  0  0  0  0  0  0  0
    6.3615   -7.3815    0.0000 C   0  0  0  0  0  0  0  0  0  0  0  0
    6.3948   -6.5572    0.0000 C   0  0  0  0  0  0  0  0  0  0  0  0
    4.2091   -7.7104    0.0000 C   0  0  0  0  0  0  0  0  0  0  0  0
    6.0701  -13.9928    0.0000 C   0  0  0  0  0  0  0  0  0  0  0  0
    6.4614   -4.9085    0.0000 C   0  0  0  0  0  0  0  0  0  0  0  0
    7.1567   -5.3456    0.0000 C   0  0  0  0  0  0  0  0  0  0  0  0
    3.4139   -9.7463    0.0000 C   0  0  0  0  0  0  0  0  0  0  0  0
    2.7478   -8.4806    0.0000 C   0  0  0  0  0  0  0  0  0  0  0  0
    7.1234   -6.1700    0.0000 C   0  0  0  0  0  0  0  0  0  0  0  0
    3.5138   -7.2733    0.0000 C   0  0  0  0  0  0  0  0  0  0  0  0
    2.7769   -7.6480    0.0000 C   0  0  0  0  0  0  0  0  0  0  0  0
  2  6  1  0  0  0  0
  3  2  2  0  0  0  0
  4  1  1  0  0  0  0
  5  4  2  0  0  0  0
  6  1  1  0  0  0  0
  7  2  1  0  0  0  0
  8  7  2  0  0  0  0
  9  3  1  0  0  0  0
 10 16  1  0  0  0  0
 11 20  1  0  0  0  0
 12  1  1  0  0  0  0
 13  8  1  0  0  0  0
 14  4  1  0  0  0  0
 15 11  1  0  0  0  0
 16 22  1  0  0  0  0
 17  7  1  0  0  0  0
 18  6  2  0  0  0  0
 19 10  1  0  0  0  0
 20 17  1  0  0  0  0
 21 10  2  0  0  0  0
 22 26  2  0  0  0  0
 23 12  1  0  0  0  0
 24 15  2  0  0  0  0
 25 14  1  0  0  0  0
 26 25  1  0  0  0  0
 27 12  2  0  0  0  0
 28 15  1  0  0  0  0
 29 30  1  0  0  0  0
 30 33  2  0  0  0  0
 31 23  1  0  0  0  0
 32 23  2  0  0  0  0
 33 26  1  0  0  0  0
 34 27  1  0  0  0  0
 35 34  2  0  0  0  0
  3  5  1  0  0  0  0
 32 35  1  0  0  0  0
  8  9  1  0  0  0  0
 13 11  1  0  0  0  0
 29 16  2  0  0  0  0
M  CHG  2  10   1  19  -1
M  END
>  <IDNUMBER>
F3222-2469

>  <Chemical_Name>
11-acetyl-4-(2-methylphenyl)-5-{[(3-nitrophenyl)methyl]sulfanyl}-8-thia-4,6,11-triazatricyclo[7.4.0.0?,?]trideca-1(9),2(7),5-trien-3-one

>  <PriceCoeff>
1.00

>  <CAS>
1185172-93-3

>  <MW>
506.60

>  <Description>
solid

>  <FSP3>
0.24

>  <clogP>
3.88

>  <TPSA>
149.66

>  <Acceptor>
5

>  <Donor>
0

>  <RotBonds>
6

>  <HAC>
35

>  <Collection>
General

>  <PPDS>
+

$$$$
F3222-2557
  Mrv2219 10102508112D          

 36 40  0  0  0  0            999 V2000
    4.4368   -9.7109    0.0000 C   0  0  0  0  0  0  0  0  0  0  0  0
    3.7036   -8.4903    0.0000 N   0  0  0  0  0  0  0  0  0  0  0  0
    5.1534   -9.2902    0.0000 C   0  0  0  0  0  0  0  0  0  0  0  0
    3.7161   -9.3152    0.0000 C   0  0  0  0  0  0  0  0  0  0  0  0
    5.1284   -8.4736    0.0000 N   0  0  0  0  0  0  0  0  0  0  0  0
    4.4160   -8.0737    0.0000 C   0  0  0  0  0  0  0  0  0  0  0  0
    4.6160  -10.5275    0.0000 C   0  0  0  0  0  0  0  0  0  0  0  0
    5.4408  -10.5983    0.0000 C   0  0  0  0  0  0  0  0  0  0  0  0
    5.7658   -9.8401    0.0000 S   0  0  0  0  0  0  0  0  0  0  0  0
    5.3159  -12.0273    0.0000 N   0  0  0  0  0  0  0  0  0  0  0  0
    5.8033  -11.3399    0.0000 C   0  0  0  0  0  0  0  0  0  0  0  0
    5.6658  -12.7772    0.0000 C   0  0  0  0  0  0  0  0  0  0  0  0
    4.4118   -7.2530    0.0000 S   0  0  0  0  0  0  0  0  0  0  0  0
    5.8283   -7.2280    0.0000 C   0  0  0  0  0  0  0  0  0  0  0  0
    2.9995   -8.0862    0.0000 C   0  0  0  0  0  0  0  0  0  0  0  0
    6.5407   -6.7906    0.0000 N   0  0  0  0  0  0  0  0  0  0  0  0
    4.1410  -11.2024    0.0000 C   0  0  0  0  0  0  0  0  0  0  0  0
    2.9870   -7.2613    0.0000 C   0  0  0  0  0  0  0  0  0  0  0  0
    3.0037   -9.7359    0.0000 O   0  0  0  0  0  0  0  0  0  0  0  0
    4.4910  -11.9648    0.0000 C   0  0  0  0  0  0  0  0  0  0  0  0
    2.3121   -6.7864    0.0000 O   0  0  0  0  0  0  0  0  0  0  0  0
    5.1242   -6.8156    0.0000 C   0  0  0  0  0  0  0  0  0  0  0  0
    6.4782  -12.8479    0.0000 O   0  0  0  0  0  0  0  0  0  0  0  0
    5.8658   -8.0404    0.0000 O   0  0  0  0  0  0  0  0  0  0  0  0
    3.6494   -6.7656    0.0000 C   0  0  0  0  0  0  0  0  0  0  0  0
    2.5538   -5.9907    0.0000 C   0  0  0  0  0  0  0  0  0  0  0  0
    6.5365   -5.9782    0.0000 C   0  0  0  0  0  0  0  0  0  0  0  0
    3.3787   -5.9907    0.0000 C   0  0  0  0  0  0  0  0  0  0  0  0
    7.2655   -7.1988    0.0000 C   0  0  0  0  0  0  0  0  0  0  0  0
    5.1909  -13.4521    0.0000 C   0  0  0  0  0  0  0  0  0  0  0  0
    7.2405   -5.5658    0.0000 C   0  0  0  0  0  0  0  0  0  0  0  0
    5.8116   -5.5908    0.0000 C   0  0  0  0  0  0  0  0  0  0  0  0
    7.9654   -6.7656    0.0000 C   0  0  0  0  0  0  0  0  0  0  0  0
    5.7908   -4.7742    0.0000 C   0  0  0  0  0  0  0  0  0  0  0  0
    7.2238   -4.7409    0.0000 C   0  0  0  0  0  0  0  0  0  0  0  0
    6.5032   -4.3410    0.0000 C   0  0  0  0  0  0  0  0  0  0  0  0
  2  4  1  0  0  0  0
  3  1  2  0  0  0  0
  4  1  1  0  0  0  0
  5  3  1  0  0  0  0
  6  2  1  0  0  0  0
  7  1  1  0  0  0  0
  8  7  2  0  0  0  0
  9  3  1  0  0  0  0
 10 20  1  0  0  0  0
 11  8  1  0  0  0  0
 12 10  1  0  0  0  0
 13  6  1  0  0  0  0
 14 22  1  0  0  0  0
 15  2  1  0  0  0  0
 16 14  1  0  0  0  0
 17  7  1  0  0  0  0
 18 15  1  0  0  0  0
 19  4  2  0  0  0  0
 20 17  1  0  0  0  0
 21 18  1  0  0  0  0
 22 13  1  0  0  0  0
 23 12  2  0  0  0  0
 24 14  2  0  0  0  0
 25 18  2  0  0  0  0
 26 21  1  0  0  0  0
 27 16  1  0  0  0  0
 28 25  1  0  0  0  0
 29 16  1  0  0  0  0
 30 12  1  0  0  0  0
 31 27  2  0  0  0  0
 32 27  1  0  0  0  0
 33 29  1  0  0  0  0
 34 32  2  0  0  0  0
 35 31  1  0  0  0  0
 36 34  1  0  0  0  0
  9  8  1  0  0  0  0
 10 11  1  0  0  0  0
  6  5  2  0  0  0  0
 28 26  2  0  0  0  0
 36 35  2  0  0  0  0
M  END
>  <IDNUMBER>
F3222-2557

>  <Chemical_Name>
2-({11-acetyl-4-[(furan-2-yl)methyl]-3-oxo-8-thia-4,6,11-triazatricyclo[7.4.0.0?,?]trideca-1(9),2(7),5-trien-5-yl}sulfanyl)-N-ethyl-N-phenylacetamide

>  <PriceCoeff>
1.00

>  <CAS>
1189980-89-9

>  <MW>
522.64

>  <Description>
solid

>  <FSP3>
0.31

>  <clogP>
2.16

>  <TPSA>
139.97

>  <Acceptor>
5

>  <Donor>
0

>  <RotBonds>
9

>  <HAC>
36

>  <Collection>
General

>  <PPDS>
+

$$$$
F3222-2558
  Mrv2219 10102508112D          

 35 39  0  0  0  0            999 V2000
    5.8265   -8.8751    0.0000 C   0  0  0  0  0  0  0  0  0  0  0  0
    6.4887   -7.6090    0.0000 N   0  0  0  0  0  0  0  0  0  0  0  0
    5.0977   -8.4961    0.0000 C   0  0  0  0  0  0  0  0  0  0  0  0
    6.5262   -8.4336    0.0000 C   0  0  0  0  0  0  0  0  0  0  0  0
    5.0644   -7.6632    0.0000 N   0  0  0  0  0  0  0  0  0  0  0  0
    5.7641   -7.2259    0.0000 C   0  0  0  0  0  0  0  0  0  0  0  0
    5.6849   -9.6873    0.0000 C   0  0  0  0  0  0  0  0  0  0  0  0
    4.8728   -9.8080    0.0000 C   0  0  0  0  0  0  0  0  0  0  0  0
    4.5021   -9.0750    0.0000 S   0  0  0  0  0  0  0  0  0  0  0  0
    5.0769  -11.2198    0.0000 N   0  0  0  0  0  0  0  0  0  0  0  0
    4.5646  -10.5701    0.0000 C   0  0  0  0  0  0  0  0  0  0  0  0
    4.7770  -11.9862    0.0000 C   0  0  0  0  0  0  0  0  0  0  0  0
    7.1967   -7.1509    0.0000 C   0  0  0  0  0  0  0  0  0  0  0  0
    5.7266   -6.4013    0.0000 S   0  0  0  0  0  0  0  0  0  0  0  0
    6.1889  -10.3370    0.0000 C   0  0  0  0  0  0  0  0  0  0  0  0
    7.9339   -7.5257    0.0000 C   0  0  0  0  0  0  0  0  0  0  0  0
    7.2717   -8.8127    0.0000 O   0  0  0  0  0  0  0  0  0  0  0  0
    6.3971   -5.1393    0.0000 C   0  0  0  0  0  0  0  0  0  0  0  0
    5.8848  -11.0991    0.0000 C   0  0  0  0  0  0  0  0  0  0  0  0
    5.6641   -4.7395    0.0000 N   0  0  0  0  0  0  0  0  0  0  0  0
    8.7002   -7.2259    0.0000 O   0  0  0  0  0  0  0  0  0  0  0  0
    3.9607  -12.1111    0.0000 O   0  0  0  0  0  0  0  0  0  0  0  0
    7.9880   -8.3504    0.0000 C   0  0  0  0  0  0  0  0  0  0  0  0
    9.2208   -7.8589    0.0000 C   0  0  0  0  0  0  0  0  0  0  0  0
    4.9644   -5.1768    0.0000 C   0  0  0  0  0  0  0  0  0  0  0  0
    8.7835   -8.5586    0.0000 C   0  0  0  0  0  0  0  0  0  0  0  0
    7.0967   -4.7020    0.0000 O   0  0  0  0  0  0  0  0  0  0  0  0
    6.4263   -5.9640    0.0000 C   0  0  0  0  0  0  0  0  0  0  0  0
    4.9852   -6.0014    0.0000 C   0  0  0  0  0  0  0  0  0  0  0  0
    4.2772   -6.4263    0.0000 C   0  0  0  0  0  0  0  0  0  0  0  0
    5.2893  -12.6317    0.0000 C   0  0  0  0  0  0  0  0  0  0  0  0
    3.5276   -5.2143    0.0000 C   0  0  0  0  0  0  0  0  0  0  0  0
    4.2356   -4.7770    0.0000 C   0  0  0  0  0  0  0  0  0  0  0  0
    3.5526   -6.0389    0.0000 C   0  0  0  0  0  0  0  0  0  0  0  0
    4.3022   -7.2509    0.0000 C   0  0  0  0  0  0  0  0  0  0  0  0
  2  4  1  0  0  0  0
  3  1  2  0  0  0  0
  4  1  1  0  0  0  0
  5  3  1  0  0  0  0
  6  2  1  0  0  0  0
  7  1  1  0  0  0  0
  8  7  2  0  0  0  0
  9  3  1  0  0  0  0
 10 19  1  0  0  0  0
 11  8  1  0  0  0  0
 12 10  1  0  0  0  0
 13  2  1  0  0  0  0
 14  6  1  0  0  0  0
 15  7  1  0  0  0  0
 16 13  1  0  0  0  0
 17  4  2  0  0  0  0
 18 28  1  0  0  0  0
 19 15  1  0  0  0  0
 20 18  1  0  0  0  0
 21 16  1  0  0  0  0
 22 12  2  0  0  0  0
 23 16  2  0  0  0  0
 24 21  1  0  0  0  0
 25 20  1  0  0  0  0
 26 23  1  0  0  0  0
 27 18  2  0  0  0  0
 28 14  1  0  0  0  0
 29 25  2  0  0  0  0
 30 29  1  0  0  0  0
 31 12  1  0  0  0  0
 32 33  2  0  0  0  0
 33 25  1  0  0  0  0
 34 32  1  0  0  0  0
 35 30  1  0  0  0  0
  9  8  1  0  0  0  0
 10 11  1  0  0  0  0
  6  5  2  0  0  0  0
 26 24  2  0  0  0  0
 30 34  2  0  0  0  0
M  END
>  <IDNUMBER>
F3222-2558

>  <Chemical_Name>
2-({11-acetyl-4-[(furan-2-yl)methyl]-3-oxo-8-thia-4,6,11-triazatricyclo[7.4.0.0?,?]trideca-1(9),2(7),5-trien-5-yl}sulfanyl)-N-(3-methylphenyl)acetamide

>  <PriceCoeff>
1.00

>  <CAS>
1185063-82-4

>  <MW>
508.61

>  <Description>
solid

>  <FSP3>
0.28

>  <clogP>
2.05

>  <TPSA>
148.76

>  <Acceptor>
5

>  <Donor>
1

>  <RotBonds>
7

>  <HAC>
35

>  <Collection>
General

>  <PPDS>
+

$$$$
F3222-2641
  Mrv2219 10102508112D          

 36 40  0  0  0  0            999 V2000
    4.4511   -7.8114    0.0000 N   0  0  0  0  0  0  0  0  0  0  0  0
    5.1132   -9.0855    0.0000 C   0  0  0  0  0  0  0  0  0  0  0  0
    5.8460   -8.6983    0.0000 C   0  0  0  0  0  0  0  0  0  0  0  0
    5.1757   -7.4366    0.0000 C   0  0  0  0  0  0  0  0  0  0  0  0
    5.8752   -7.8738    0.0000 N   0  0  0  0  0  0  0  0  0  0  0  0
    4.4136   -8.6358    0.0000 C   0  0  0  0  0  0  0  0  0  0  0  0
    5.2590   -9.8975    0.0000 C   0  0  0  0  0  0  0  0  0  0  0  0
    6.0709  -10.0099    0.0000 C   0  0  0  0  0  0  0  0  0  0  0  0
    6.4373   -9.2854    0.0000 S   0  0  0  0  0  0  0  0  0  0  0  0
    5.8627  -11.4214    0.0000 N   0  0  0  0  0  0  0  0  0  0  0  0
    3.7516   -7.3741    0.0000 C   0  0  0  0  0  0  0  0  0  0  0  0
    6.3748  -10.7719    0.0000 C   0  0  0  0  0  0  0  0  0  0  0  0
    5.2132   -6.6122    0.0000 S   0  0  0  0  0  0  0  0  0  0  0  0
    6.1625  -12.1959    0.0000 C   0  0  0  0  0  0  0  0  0  0  0  0
    4.7509  -10.5428    0.0000 C   0  0  0  0  0  0  0  0  0  0  0  0
    3.6725   -9.0189    0.0000 O   0  0  0  0  0  0  0  0  0  0  0  0
    5.9751   -5.4005    0.0000 C   0  0  0  0  0  0  0  0  0  0  0  0
    5.0591  -11.3089    0.0000 C   0  0  0  0  0  0  0  0  0  0  0  0
    6.6996   -5.0133    0.0000 N   0  0  0  0  0  0  0  0  0  0  0  0
    3.0271   -7.7614    0.0000 C   0  0  0  0  0  0  0  0  0  0  0  0
    6.9828  -12.3208    0.0000 O   0  0  0  0  0  0  0  0  0  0  0  0
    5.2756   -4.9591    0.0000 O   0  0  0  0  0  0  0  0  0  0  0  0
    5.9377   -6.2250    0.0000 C   0  0  0  0  0  0  0  0  0  0  0  0
    6.7371   -4.1889    0.0000 C   0  0  0  0  0  0  0  0  0  0  0  0
    6.7996   -2.5399    0.0000 C   0  0  0  0  0  0  0  0  0  0  0  0
    6.0376   -3.7474    0.0000 C   0  0  0  0  0  0  0  0  0  0  0  0
    7.4616   -3.8016    0.0000 C   0  0  0  0  0  0  0  0  0  0  0  0
    6.0709   -2.9147    0.0000 C   0  0  0  0  0  0  0  0  0  0  0  0
    7.4991   -2.9772    0.0000 C   0  0  0  0  0  0  0  0  0  0  0  0
    3.7891   -6.5497    0.0000 C   0  0  0  0  0  0  0  0  0  0  0  0
    5.6503  -12.8330    0.0000 C   0  0  0  0  0  0  0  0  0  0  0  0
    2.9897   -8.5858    0.0000 C   0  0  0  0  0  0  0  0  0  0  0  0
    2.3277   -7.3243    0.0000 C   0  0  0  0  0  0  0  0  0  0  0  0
    6.8453   -1.7155    0.0000 C   0  0  0  0  0  0  0  0  0  0  0  0
    3.0896   -6.1126    0.0000 C   0  0  0  0  0  0  0  0  0  0  0  0
    2.3609   -6.4955    0.0000 C   0  0  0  0  0  0  0  0  0  0  0  0
  2  6  1  0  0  0  0
  3  2  2  0  0  0  0
  4  1  1  0  0  0  0
  5  4  2  0  0  0  0
  6  1  1  0  0  0  0
  7  2  1  0  0  0  0
  8  7  2  0  0  0  0
  9  3  1  0  0  0  0
 10 18  1  0  0  0  0
 11  1  1  0  0  0  0
 12  8  1  0  0  0  0
 13  4  1  0  0  0  0
 14 10  1  0  0  0  0
 15  7  1  0  0  0  0
 16  6  2  0  0  0  0
 17 23  1  0  0  0  0
 18 15  1  0  0  0  0
 19 17  1  0  0  0  0
 20 11  1  0  0  0  0
 21 14  2  0  0  0  0
 22 17  2  0  0  0  0
 23 13  1  0  0  0  0
 24 19  1  0  0  0  0
 25 29  1  0  0  0  0
 26 24  2  0  0  0  0
 27 24  1  0  0  0  0
 28 26  1  0  0  0  0
 29 27  2  0  0  0  0
 30 11  2  0  0  0  0
 31 14  1  0  0  0  0
 32 20  1  0  0  0  0
 33 20  2  0  0  0  0
 34 25  1  0  0  0  0
 35 30  1  0  0  0  0
 36 35  2  0  0  0  0
  3  5  1  0  0  0  0
 33 36  1  0  0  0  0
  8  9  1  0  0  0  0
 12 10  1  0  0  0  0
 25 28  2  0  0  0  0
M  END
>  <IDNUMBER>
F3222-2641

>  <Chemical_Name>
2-{[11-acetyl-4-(2-methylphenyl)-3-oxo-8-thia-4,6,11-triazatricyclo[7.4.0.0?,?]trideca-1(9),2(7),5-trien-5-yl]sulfanyl}-N-(4-methylphenyl)acetamide

>  <PriceCoeff>
1.00

>  <CAS>
1185101-31-8

>  <MW>
518.65

>  <Description>
solid

>  <FSP3>
0.26

>  <clogP>
3.60

>  <TPSA>
135.62

>  <Acceptor>
4

>  <Donor>
1

>  <RotBonds>
6

>  <HAC>
36

>  <Collection>
General

>  <PPDS>
+

$$$$
F3222-2642
  Mrv2219 10102508112D          

 37 41  0  0  0  0            999 V2000
    6.5107   -9.0583    0.0000 C   0  0  0  0  0  0  0  0  0  0  0  0
    7.1725   -7.7845    0.0000 N   0  0  0  0  0  0  0  0  0  0  0  0
    5.7821   -8.6712    0.0000 C   0  0  0  0  0  0  0  0  0  0  0  0
    7.2100   -8.6087    0.0000 C   0  0  0  0  0  0  0  0  0  0  0  0
    5.7489   -7.8469    0.0000 N   0  0  0  0  0  0  0  0  0  0  0  0
    6.4482   -7.4098    0.0000 C   0  0  0  0  0  0  0  0  0  0  0  0
    6.3691   -9.8700    0.0000 C   0  0  0  0  0  0  0  0  0  0  0  0
    5.5573   -9.9824    0.0000 C   0  0  0  0  0  0  0  0  0  0  0  0
    5.1869   -9.2581    0.0000 S   0  0  0  0  0  0  0  0  0  0  0  0
    5.7614  -11.3936    0.0000 N   0  0  0  0  0  0  0  0  0  0  0  0
    5.2493  -10.7442    0.0000 C   0  0  0  0  0  0  0  0  0  0  0  0
    7.7595   -4.0587    0.0000 C   0  0  0  0  0  0  0  0  0  0  0  0
    5.4616  -12.1679    0.0000 C   0  0  0  0  0  0  0  0  0  0  0  0
    6.4108   -6.5856    0.0000 S   0  0  0  0  0  0  0  0  0  0  0  0
    7.7803   -4.8872    0.0000 N   0  0  0  0  0  0  0  0  0  0  0  0
    7.8802   -7.3349    0.0000 C   0  0  0  0  0  0  0  0  0  0  0  0
    6.8728  -10.5152    0.0000 C   0  0  0  0  0  0  0  0  0  0  0  0
    7.0809   -5.3201    0.0000 C   0  0  0  0  0  0  0  0  0  0  0  0
    7.9551   -8.9917    0.0000 O   0  0  0  0  0  0  0  0  0  0  0  0
    8.4713   -3.6258    0.0000 C   0  0  0  0  0  0  0  0  0  0  0  0
    6.5689  -11.2812    0.0000 C   0  0  0  0  0  0  0  0  0  0  0  0
    7.0352   -3.6591    0.0000 C   0  0  0  0  0  0  0  0  0  0  0  0
    4.6457  -12.2928    0.0000 O   0  0  0  0  0  0  0  0  0  0  0  0
    6.3483   -4.9246    0.0000 O   0  0  0  0  0  0  0  0  0  0  0  0
    7.1101   -6.1485    0.0000 C   0  0  0  0  0  0  0  0  0  0  0  0
    7.0227   -2.8266    0.0000 C   0  0  0  0  0  0  0  0  0  0  0  0
    8.4547   -2.8016    0.0000 C   0  0  0  0  0  0  0  0  0  0  0  0
    6.3233   -4.0879    0.0000 F   0  0  0  0  0  0  0  0  0  0  0  0
    8.6170   -7.7095    0.0000 C   0  0  0  0  0  0  0  0  0  0  0  0
    7.7345   -2.4145    0.0000 C   0  0  0  0  0  0  0  0  0  0  0  0
    9.1582   -2.3603    0.0000 F   0  0  0  0  0  0  0  0  0  0  0  0
    5.9737  -12.8048    0.0000 C   0  0  0  0  0  0  0  0  0  0  0  0
    9.3081   -7.2475    0.0000 C   0  0  0  0  0  0  0  0  0  0  0  0
    8.6712   -8.5338    0.0000 C   0  0  0  0  0  0  0  0  0  0  0  0
   10.0449   -7.6221    0.0000 C   0  0  0  0  0  0  0  0  0  0  0  0
    9.4080   -8.9042    0.0000 C   0  0  0  0  0  0  0  0  0  0  0  0
   10.0906   -8.4464    0.0000 C   0  0  0  0  0  0  0  0  0  0  0  0
  2  4  1  0  0  0  0
  3  1  2  0  0  0  0
  4  1  1  0  0  0  0
  5  3  1  0  0  0  0
  6  2  1  0  0  0  0
  7  1  1  0  0  0  0
  8  7  2  0  0  0  0
  9  3  1  0  0  0  0
 10 21  1  0  0  0  0
 11  8  1  0  0  0  0
 12 15  1  0  0  0  0
 13 10  1  0  0  0  0
 14  6  1  0  0  0  0
 15 18  1  0  0  0  0
 16  2  1  0  0  0  0
 17  7  1  0  0  0  0
 18 25  1  0  0  0  0
 19  4  2  0  0  0  0
 20 12  2  0  0  0  0
 21 17  1  0  0  0  0
 22 12  1  0  0  0  0
 23 13  2  0  0  0  0
 24 18  2  0  0  0  0
 25 14  1  0  0  0  0
 26 22  2  0  0  0  0
 27 20  1  0  0  0  0
 28 22  1  0  0  0  0
 29 16  1  0  0  0  0
 30 26  1  0  0  0  0
 31 27  1  0  0  0  0
 32 13  1  0  0  0  0
 33 29  2  0  0  0  0
 34 29  1  0  0  0  0
 35 33  1  0  0  0  0
 36 34  2  0  0  0  0
 37 36  1  0  0  0  0
  9  8  1  0  0  0  0
 10 11  1  0  0  0  0
  6  5  2  0  0  0  0
 37 35  2  0  0  0  0
 30 27  2  0  0  0  0
M  END
>  <IDNUMBER>
F3222-2642

>  <Chemical_Name>
2-({11-acetyl-4-benzyl-3-oxo-8-thia-4,6,11-triazatricyclo[7.4.0.0?,?]trideca-1(9),2(7),5-trien-5-yl}sulfanyl)-N-(2,5-difluorophenyl)acetamide

>  <PriceCoeff>
1.00

>  <CAS>
1215612-33-1

>  <MW>
540.60

>  <Description>
solid

>  <FSP3>
0.23

>  <clogP>
2.41

>  <TPSA>
135.62

>  <Acceptor>
4

>  <Donor>
1

>  <RotBonds>
7

>  <HAC>
37

>  <Collection>
General

>  <PPDS>
+

$$$$
F3222-2787
  Mrv2219 10102508112D          

 37 41  0  0  0  0            999 V2000
    4.8082   -8.2218    0.0000 N   0  0  0  0  0  0  0  0  0  0  0  0
    5.4742   -9.4957    0.0000 C   0  0  0  0  0  0  0  0  0  0  0  0
    6.1987   -9.1085    0.0000 C   0  0  0  0  0  0  0  0  0  0  0  0
    5.5367   -7.8472    0.0000 C   0  0  0  0  0  0  0  0  0  0  0  0
    6.2361   -8.2843    0.0000 N   0  0  0  0  0  0  0  0  0  0  0  0
    4.7749   -9.0461    0.0000 C   0  0  0  0  0  0  0  0  0  0  0  0
    5.6116  -10.3074    0.0000 C   0  0  0  0  0  0  0  0  0  0  0  0
    6.4235  -10.4198    0.0000 C   0  0  0  0  0  0  0  0  0  0  0  0
    6.7939   -9.6955    0.0000 S   0  0  0  0  0  0  0  0  0  0  0  0
    6.2236  -11.8311    0.0000 N   0  0  0  0  0  0  0  0  0  0  0  0
    4.1131   -7.7848    0.0000 C   0  0  0  0  0  0  0  0  0  0  0  0
    6.7356  -11.1817    0.0000 C   0  0  0  0  0  0  0  0  0  0  0  0
    7.0936   -4.6001    0.0000 C   0  0  0  0  0  0  0  0  0  0  0  0
    5.5700   -7.0229    0.0000 S   0  0  0  0  0  0  0  0  0  0  0  0
    6.5234  -12.6054    0.0000 C   0  0  0  0  0  0  0  0  0  0  0  0
    7.0604   -5.4244    0.0000 N   0  0  0  0  0  0  0  0  0  0  0  0
    5.1079  -10.9527    0.0000 C   0  0  0  0  0  0  0  0  0  0  0  0
    6.3318   -5.8115    0.0000 C   0  0  0  0  0  0  0  0  0  0  0  0
    4.0256   -9.4290    0.0000 O   0  0  0  0  0  0  0  0  0  0  0  0
    7.8222   -4.2130    0.0000 C   0  0  0  0  0  0  0  0  0  0  0  0
    5.4119  -11.7187    0.0000 C   0  0  0  0  0  0  0  0  0  0  0  0
    6.3985   -4.1630    0.0000 C   0  0  0  0  0  0  0  0  0  0  0  0
    3.3844   -8.1718    0.0000 C   0  0  0  0  0  0  0  0  0  0  0  0
    7.3351  -12.7302    0.0000 O   0  0  0  0  0  0  0  0  0  0  0  0
    5.6324   -5.3702    0.0000 O   0  0  0  0  0  0  0  0  0  0  0  0
    6.2986   -6.6358    0.0000 C   0  0  0  0  0  0  0  0  0  0  0  0
    6.4235   -3.3345    0.0000 C   0  0  0  0  0  0  0  0  0  0  0  0
    7.8555   -3.3886    0.0000 C   0  0  0  0  0  0  0  0  0  0  0  0
    5.6616   -4.5584    0.0000 F   0  0  0  0  0  0  0  0  0  0  0  0
    7.1478   -2.9391    0.0000 C   0  0  0  0  0  0  0  0  0  0  0  0
    8.5965   -3.0016    0.0000 F   0  0  0  0  0  0  0  0  0  0  0  0
    4.1463   -6.9604    0.0000 C   0  0  0  0  0  0  0  0  0  0  0  0
    6.0071  -13.2423    0.0000 C   0  0  0  0  0  0  0  0  0  0  0  0
    3.3512   -8.9962    0.0000 C   0  0  0  0  0  0  0  0  0  0  0  0
    2.6851   -7.7348    0.0000 C   0  0  0  0  0  0  0  0  0  0  0  0
    3.4511   -6.5234    0.0000 C   0  0  0  0  0  0  0  0  0  0  0  0
    2.7143   -6.9063    0.0000 C   0  0  0  0  0  0  0  0  0  0  0  0
  2  6  1  0  0  0  0
  3  2  2  0  0  0  0
  4  1  1  0  0  0  0
  5  4  2  0  0  0  0
  6  1  1  0  0  0  0
  7  2  1  0  0  0  0
  8  7  2  0  0  0  0
  9  3  1  0  0  0  0
 10 21  1  0  0  0  0
 11  1  1  0  0  0  0
 12  8  1  0  0  0  0
 13 16  1  0  0  0  0
 14  4  1  0  0  0  0
 15 10  1  0  0  0  0
 16 18  1  0  0  0  0
 17  7  1  0  0  0  0
 18 26  1  0  0  0  0
 19  6  2  0  0  0  0
 20 13  2  0  0  0  0
 21 17  1  0  0  0  0
 22 13  1  0  0  0  0
 23 11  1  0  0  0  0
 24 15  2  0  0  0  0
 25 18  2  0  0  0  0
 26 14  1  0  0  0  0
 27 22  2  0  0  0  0
 28 20  1  0  0  0  0
 29 22  1  0  0  0  0
 30 27  1  0  0  0  0
 31 28  1  0  0  0  0
 32 11  2  0  0  0  0
 33 15  1  0  0  0  0
 34 23  1  0  0  0  0
 35 23  2  0  0  0  0
 36 32  1  0  0  0  0
 37 36  2  0  0  0  0
  5  3  1  0  0  0  0
 35 37  1  0  0  0  0
  8  9  1  0  0  0  0
 12 10  1  0  0  0  0
 28 30  2  0  0  0  0
M  END
>  <IDNUMBER>
F3222-2787

>  <Chemical_Name>
2-{[11-acetyl-4-(2-methylphenyl)-3-oxo-8-thia-4,6,11-triazatricyclo[7.4.0.0?,?]trideca-1(9),2(7),5-trien-5-yl]sulfanyl}-N-(2,5-difluorophenyl)acetamide

>  <PriceCoeff>
1.00

>  <CAS>
1189886-74-5

>  <MW>
540.60

>  <Description>
solid

>  <FSP3>
0.23

>  <clogP>
3.14

>  <TPSA>
135.62

>  <Acceptor>
4

>  <Donor>
1

>  <RotBonds>
6

>  <HAC>
37

>  <Collection>
General

>  <PPDS>
+

$$$$
F3222-2788
  Mrv2219 10102508112D          

 38 42  0  0  0  0            999 V2000
    6.5067   -9.0860    0.0000 C   0  0  0  0  0  0  0  0  0  0  0  0
    7.1764   -7.8172    0.0000 N   0  0  0  0  0  0  0  0  0  0  0  0
    5.7828   -8.7033    0.0000 C   0  0  0  0  0  0  0  0  0  0  0  0
    7.2056   -8.6409    0.0000 C   0  0  0  0  0  0  0  0  0  0  0  0
    5.7454   -7.8754    0.0000 N   0  0  0  0  0  0  0  0  0  0  0  0
    6.4443   -7.4385    0.0000 C   0  0  0  0  0  0  0  0  0  0  0  0
    6.3694   -9.8973    0.0000 C   0  0  0  0  0  0  0  0  0  0  0  0
    5.5581  -10.0138    0.0000 C   0  0  0  0  0  0  0  0  0  0  0  0
    5.1920   -9.2857    0.0000 S   0  0  0  0  0  0  0  0  0  0  0  0
    5.7578  -11.4241    0.0000 N   0  0  0  0  0  0  0  0  0  0  0  0
    5.2461  -10.7751    0.0000 C   0  0  0  0  0  0  0  0  0  0  0  0
    7.7797   -4.9174    0.0000 N   0  0  0  0  0  0  0  0  0  0  0  0
    5.4583  -12.1854    0.0000 C   0  0  0  0  0  0  0  0  0  0  0  0
    6.4151   -6.6148    0.0000 S   0  0  0  0  0  0  0  0  0  0  0  0
    7.0808   -5.3460    0.0000 C   0  0  0  0  0  0  0  0  0  0  0  0
    7.7298   -4.0854    0.0000 C   0  0  0  0  0  0  0  0  0  0  0  0
    7.8796   -7.3637    0.0000 C   0  0  0  0  0  0  0  0  0  0  0  0
    6.8769  -10.5380    0.0000 C   0  0  0  0  0  0  0  0  0  0  0  0
    7.9545   -9.0153    0.0000 O   0  0  0  0  0  0  0  0  0  0  0  0
    6.5691  -11.3076    0.0000 C   0  0  0  0  0  0  0  0  0  0  0  0
    7.1058   -6.1780    0.0000 C   0  0  0  0  0  0  0  0  0  0  0  0
    8.4245   -3.6361    0.0000 C   0  0  0  0  0  0  0  0  0  0  0  0
    4.6470  -12.3102    0.0000 O   0  0  0  0  0  0  0  0  0  0  0  0
    6.3527   -4.9549    0.0000 O   0  0  0  0  0  0  0  0  0  0  0  0
    8.6159   -7.7381    0.0000 C   0  0  0  0  0  0  0  0  0  0  0  0
    8.3788   -2.8124    0.0000 C   0  0  0  0  0  0  0  0  0  0  0  0
    7.0017   -3.7110    0.0000 C   0  0  0  0  0  0  0  0  0  0  0  0
    8.3621   -5.2170    0.0000 C   0  0  0  0  0  0  0  0  0  0  0  0
    5.9700  -12.8344    0.0000 C   0  0  0  0  0  0  0  0  0  0  0  0
    6.9560   -2.8873    0.0000 C   0  0  0  0  0  0  0  0  0  0  0  0
    7.6507   -2.4379    0.0000 C   0  0  0  0  0  0  0  0  0  0  0  0
    9.0735   -2.3589    0.0000 C   0  0  0  0  0  0  0  0  0  0  0  0
    9.3024   -7.2805    0.0000 C   0  0  0  0  0  0  0  0  0  0  0  0
    8.6659   -8.5618    0.0000 C   0  0  0  0  0  0  0  0  0  0  0  0
    8.4038   -6.0449    0.0000 C   0  0  0  0  0  0  0  0  0  0  0  0
    9.4022   -8.9280    0.0000 C   0  0  0  0  0  0  0  0  0  0  0  0
   10.0470   -7.6549    0.0000 C   0  0  0  0  0  0  0  0  0  0  0  0
   10.0887   -8.4786    0.0000 C   0  0  0  0  0  0  0  0  0  0  0  0
  2  4  1  0  0  0  0
  3  1  2  0  0  0  0
  4  1  1  0  0  0  0
  5  3  1  0  0  0  0
  6  2  1  0  0  0  0
  7  1  1  0  0  0  0
  8  7  2  0  0  0  0
  9  3  1  0  0  0  0
 10 20  1  0  0  0  0
 11  8  1  0  0  0  0
 12 15  1  0  0  0  0
 13 10  1  0  0  0  0
 14  6  1  0  0  0  0
 15 21  1  0  0  0  0
 16 12  1  0  0  0  0
 17  2  1  0  0  0  0
 18  7  1  0  0  0  0
 19  4  2  0  0  0  0
 20 18  1  0  0  0  0
 21 14  1  0  0  0  0
 22 16  1  0  0  0  0
 23 13  2  0  0  0  0
 24 15  2  0  0  0  0
 25 17  1  0  0  0  0
 26 22  2  0  0  0  0
 27 16  2  0  0  0  0
 28 12  1  0  0  0  0
 29 13  1  0  0  0  0
 30 27  1  0  0  0  0
 31 30  2  0  0  0  0
 32 26  1  0  0  0  0
 33 25  2  0  0  0  0
 34 25  1  0  0  0  0
 35 28  1  0  0  0  0
 36 34  2  0  0  0  0
 37 33  1  0  0  0  0
 38 36  1  0  0  0  0
  9  8  1  0  0  0  0
 10 11  1  0  0  0  0
  6  5  2  0  0  0  0
 38 37  2  0  0  0  0
 31 26  1  0  0  0  0
M  END
>  <IDNUMBER>
F3222-2788

>  <Chemical_Name>
2-({11-acetyl-4-benzyl-3-oxo-8-thia-4,6,11-triazatricyclo[7.4.0.0?,?]trideca-1(9),2(7),5-trien-5-yl}sulfanyl)-N-ethyl-N-(3-methylphenyl)acetamide

>  <PriceCoeff>
1.00

>  <CAS>
1189456-55-0

>  <MW>
546.70

>  <Description>
solid

>  <FSP3>
0.31

>  <clogP>
3.49

>  <TPSA>
126.83

>  <Acceptor>
4

>  <Donor>
0

>  <RotBonds>
9

>  <HAC>
38

>  <Collection>
General

$$$$
F3222-2791
  Mrv2219 10102508112D          

 36 40  0  0  0  0            999 V2000
    6.2006   -8.8741    0.0000 C   0  0  0  0  0  0  0  0  0  0  0  0
    6.8628   -7.6081    0.0000 N   0  0  0  0  0  0  0  0  0  0  0  0
    5.4719   -8.4951    0.0000 C   0  0  0  0  0  0  0  0  0  0  0  0
    6.9002   -8.4327    0.0000 C   0  0  0  0  0  0  0  0  0  0  0  0
    5.4386   -7.6623    0.0000 N   0  0  0  0  0  0  0  0  0  0  0  0
    6.1382   -7.2251    0.0000 C   0  0  0  0  0  0  0  0  0  0  0  0
    6.0590   -9.6861    0.0000 C   0  0  0  0  0  0  0  0  0  0  0  0
    5.2470   -9.8069    0.0000 C   0  0  0  0  0  0  0  0  0  0  0  0
    4.8764   -9.0740    0.0000 S   0  0  0  0  0  0  0  0  0  0  0  0
    5.4511  -11.2186    0.0000 N   0  0  0  0  0  0  0  0  0  0  0  0
    4.9389  -10.5689    0.0000 C   0  0  0  0  0  0  0  0  0  0  0  0
    5.1512  -11.9848    0.0000 C   0  0  0  0  0  0  0  0  0  0  0  0
    7.5707   -7.1501    0.0000 C   0  0  0  0  0  0  0  0  0  0  0  0
    6.1007   -6.4005    0.0000 S   0  0  0  0  0  0  0  0  0  0  0  0
    6.5629  -10.3358    0.0000 C   0  0  0  0  0  0  0  0  0  0  0  0
    8.3077   -7.5249    0.0000 C   0  0  0  0  0  0  0  0  0  0  0  0
    7.6456   -8.8116    0.0000 O   0  0  0  0  0  0  0  0  0  0  0  0
    6.7711   -5.1388    0.0000 C   0  0  0  0  0  0  0  0  0  0  0  0
    6.2589  -11.0978    0.0000 C   0  0  0  0  0  0  0  0  0  0  0  0
    7.4707   -4.7015    0.0000 N   0  0  0  0  0  0  0  0  0  0  0  0
    9.0740   -7.2251    0.0000 O   0  0  0  0  0  0  0  0  0  0  0  0
    4.3350  -12.1098    0.0000 O   0  0  0  0  0  0  0  0  0  0  0  0
    8.3619   -8.3494    0.0000 C   0  0  0  0  0  0  0  0  0  0  0  0
    9.5945   -7.8580    0.0000 C   0  0  0  0  0  0  0  0  0  0  0  0
    7.4499   -3.8770    0.0000 C   0  0  0  0  0  0  0  0  0  0  0  0
    9.1572   -8.5576    0.0000 C   0  0  0  0  0  0  0  0  0  0  0  0
    6.0382   -4.7390    0.0000 O   0  0  0  0  0  0  0  0  0  0  0  0
    6.8003   -5.9633    0.0000 C   0  0  0  0  0  0  0  0  0  0  0  0
    6.7253   -3.4730    0.0000 C   0  0  0  0  0  0  0  0  0  0  0  0
    6.7128   -2.6485    0.0000 C   0  0  0  0  0  0  0  0  0  0  0  0
    5.6635  -12.6303    0.0000 C   0  0  0  0  0  0  0  0  0  0  0  0
    8.1370   -2.6235    0.0000 C   0  0  0  0  0  0  0  0  0  0  0  0
    8.1495   -3.4522    0.0000 C   0  0  0  0  0  0  0  0  0  0  0  0
    7.4207   -2.2154    0.0000 C   0  0  0  0  0  0  0  0  0  0  0  0
    5.9841   -2.2404    0.0000 C   0  0  0  0  0  0  0  0  0  0  0  0
    5.2720   -2.6735    0.0000 C   0  0  0  0  0  0  0  0  0  0  0  0
  2  4  1  0  0  0  0
  3  1  2  0  0  0  0
  4  1  1  0  0  0  0
  5  3  1  0  0  0  0
  6  2  1  0  0  0  0
  7  1  1  0  0  0  0
  8  7  2  0  0  0  0
  9  3  1  0  0  0  0
 10 19  1  0  0  0  0
 11  8  1  0  0  0  0
 12 10  1  0  0  0  0
 13  2  1  0  0  0  0
 14  6  1  0  0  0  0
 15  7  1  0  0  0  0
 16 13  1  0  0  0  0
 17  4  2  0  0  0  0
 18 28  1  0  0  0  0
 19 15  1  0  0  0  0
 20 18  1  0  0  0  0
 21 16  1  0  0  0  0
 22 12  2  0  0  0  0
 23 16  2  0  0  0  0
 24 21  1  0  0  0  0
 25 20  1  0  0  0  0
 26 23  1  0  0  0  0
 27 18  2  0  0  0  0
 28 14  1  0  0  0  0
 29 25  1  0  0  0  0
 30 29  2  0  0  0  0
 31 12  1  0  0  0  0
 32 33  1  0  0  0  0
 33 25  2  0  0  0  0
 34 32  2  0  0  0  0
 35 30  1  0  0  0  0
 36 35  1  0  0  0  0
  9  8  1  0  0  0  0
 10 11  1  0  0  0  0
  6  5  2  0  0  0  0
 26 24  2  0  0  0  0
 30 34  1  0  0  0  0
M  END
>  <IDNUMBER>
F3222-2791

>  <Chemical_Name>
2-({11-acetyl-4-[(furan-2-yl)methyl]-3-oxo-8-thia-4,6,11-triazatricyclo[7.4.0.0?,?]trideca-1(9),2(7),5-trien-5-yl}sulfanyl)-N-(3-ethylphenyl)acetamide

>  <PriceCoeff>
1.00

>  <CAS>
1185080-69-6

>  <MW>
522.64

>  <Description>
solid

>  <FSP3>
0.31

>  <clogP>
2.58

>  <TPSA>
148.76

>  <Acceptor>
5

>  <Donor>
1

>  <RotBonds>
8

>  <HAC>
36

>  <Collection>
General

>  <PPDS>
+

$$$$
F3228-0092
  Mrv2219 10102508112D          

 31 34  0  0  0  0            999 V2000
    3.7369   -2.5595    0.0000 C   0  0  0  0  0  0  0  0  0  0  0  0
    3.0230   -2.1461    0.0000 C   0  0  0  0  0  0  0  0  0  0  0  0
    4.4509   -2.1461    0.0000 C   0  0  0  0  0  0  0  0  0  0  0  0
    3.0230   -1.3194    0.0000 C   0  0  0  0  0  0  0  0  0  0  0  0
    4.4509   -1.3194    0.0000 C   0  0  0  0  0  0  0  0  0  0  0  0
    2.3090   -2.5595    0.0000 C   0  0  0  0  0  0  0  0  0  0  0  0
    3.7369   -0.9061    0.0000 O   0  0  0  0  0  0  0  0  0  0  0  0
    5.1649   -2.5595    0.0000 C   0  0  0  0  0  0  0  0  0  0  0  0
    2.3090   -0.9061    0.0000 C   0  0  0  0  0  0  0  0  0  0  0  0
    1.5908   -2.1461    0.0000 C   0  0  0  0  0  0  0  0  0  0  0  0
    5.8914   -2.1461    0.0000 C   0  0  0  0  0  0  0  0  0  0  0  0
    6.6054   -2.5595    0.0000 C   0  0  0  0  0  0  0  0  0  0  0  0
    3.7369   -3.3862    0.0000 O   0  0  0  0  0  0  0  0  0  0  0  0
    1.5908   -1.3194    0.0000 C   0  0  0  0  0  0  0  0  0  0  0  0
    6.6054   -3.3862    0.0000 C   0  0  0  0  0  0  0  0  0  0  0  0
    5.1649   -3.3862    0.0000 C   0  0  0  0  0  0  0  0  0  0  0  0
    5.8789   -3.7996    0.0000 C   0  0  0  0  0  0  0  0  0  0  0  0
    0.8685   -0.9061    0.0000 O   0  0  0  0  0  0  0  0  0  0  0  0
    2.3090   -3.3862    0.0000 O   0  0  0  0  0  0  0  0  0  0  0  0
   -1.9999   -0.0919    0.0000 C   0  0  0  0  0  0  0  0  0  0  0  0
   -0.5637   -0.9144    0.0000 C   0  0  0  0  0  0  0  0  0  0  0  0
    0.1545   -1.3194    0.0000 C   0  0  0  0  0  0  0  0  0  0  0  0
    7.3151   -2.1461    0.0000 O   0  0  0  0  0  0  0  0  0  0  0  0
   -2.7139    0.3089    0.0000 Cl  0  0  0  0  0  0  0  0  0  0  0  0
    7.3193   -3.8079    0.0000 O   0  0  0  0  0  0  0  0  0  0  0  0
   -1.9916   -0.9311    0.0000 C   0  0  0  0  0  0  0  0  0  0  0  0
   -1.2860    0.3215    0.0000 C   0  0  0  0  0  0  0  0  0  0  0  0
   -0.5720   -0.0877    0.0000 C   0  0  0  0  0  0  0  0  0  0  0  0
   -1.2734   -1.3320    0.0000 C   0  0  0  0  0  0  0  0  0  0  0  0
    7.3151   -1.3194    0.0000 C   0  0  0  0  0  0  0  0  0  0  0  0
    8.0333   -3.3945    0.0000 C   0  0  0  0  0  0  0  0  0  0  0  0
  2  1  1  0  0  0  0
  3  1  1  0  0  0  0
  4  2  1  0  0  0  0
  5  3  2  0  0  0  0
  6  2  2  0  0  0  0
  7  5  1  0  0  0  0
  8  3  1  0  0  0  0
  9  4  2  0  0  0  0
 10  6  1  0  0  0  0
 11  8  1  0  0  0  0
 12 11  2  0  0  0  0
 13  1  2  0  0  0  0
 14 10  2  0  0  0  0
 15 17  2  0  0  0  0
 16  8  2  0  0  0  0
 17 16  1  0  0  0  0
 18 14  1  0  0  0  0
 19  6  1  0  0  0  0
 20 26  1  0  0  0  0
 21 22  1  0  0  0  0
 22 18  1  0  0  0  0
 23 12  1  0  0  0  0
 24 20  1  0  0  0  0
 25 15  1  0  0  0  0
 26 29  2  0  0  0  0
 27 28  1  0  0  0  0
 28 21  2  0  0  0  0
 29 21  1  0  0  0  0
 30 23  1  0  0  0  0
 31 25  1  0  0  0  0
  7  4  1  0  0  0  0
 14  9  1  0  0  0  0
 15 12  1  0  0  0  0
 20 27  2  0  0  0  0
M  END
>  <IDNUMBER>
F3228-0092

>  <Chemical_Name>
7-[(4-chlorophenyl)methoxy]-3-(3,4-dimethoxyphenyl)-5-hydroxy-4H-chromen-4-one

>  <PriceCoeff>
1.00

>  <CAS>
671769-62-3

>  <MW>
438.86

>  <Description>
solid

>  <FSP3>
0.12

>  <clogP>
5.79

>  <TPSA>
74.22

>  <Acceptor>
6

>  <Donor>
1

>  <RotBonds>
6

>  <HAC>
31

>  <Collection>
General

>  <PPDS>
+

$$$$
F3228-0103
  Mrv2219 10102508112D          

 19 20  0  0  0  0            999 V2000
    2.7349   -2.7975    0.0000 C   0  0  0  0  0  0  0  0  0  0  0  0
    2.7349   -1.9708    0.0000 C   0  0  0  0  0  0  0  0  0  0  0  0
    2.0209   -1.5574    0.0000 C   0  0  0  0  0  0  0  0  0  0  0  0
    3.4572   -3.2108    0.0000 C   0  0  0  0  0  0  0  0  0  0  0  0
    4.1711   -2.7975    0.0000 C   0  0  0  0  0  0  0  0  0  0  0  0
    1.3069   -1.9708    0.0000 C   0  0  0  0  0  0  0  0  0  0  0  0
    2.0209   -3.2108    0.0000 C   0  0  0  0  0  0  0  0  0  0  0  0
    4.8893   -3.2108    0.0000 C   0  0  0  0  0  0  0  0  0  0  0  0
    1.3069   -2.7975    0.0000 C   0  0  0  0  0  0  0  0  0  0  0  0
    6.3173   -3.2108    0.0000 N   0  0  0  0  0  0  0  0  0  0  0  0
    3.4572   -4.0376    0.0000 O   0  0  0  0  0  0  0  0  0  0  0  0
    5.6033   -2.7975    0.0000 C   0  0  0  0  0  0  0  0  0  0  0  0
    2.0209   -0.7307    0.0000 Cl  0  0  0  0  0  0  0  0  0  0  0  0
    3.4488   -1.5532    0.0000 O   0  0  0  0  0  0  0  0  0  0  0  0
    0.5887   -3.2108    0.0000 Cl  0  0  0  0  0  0  0  0  0  0  0  0
    7.0312   -2.7975    0.0000 C   0  0  0  0  0  0  0  0  0  0  0  0
    5.5991   -1.9708    0.0000 C   0  0  0  0  0  0  0  0  0  0  0  0
    7.0312   -1.9958    0.0000 C   0  0  0  0  0  0  0  0  0  0  0  0
    6.3131   -1.5574    0.0000 C   0  0  0  0  0  0  0  0  0  0  0  0
  2  1  1  0  0  0  0
  3  2  2  0  0  0  0
  4  1  1  0  0  0  0
  5  4  1  0  0  0  0
  6  9  2  0  0  0  0
  7  1  2  0  0  0  0
  8  5  2  0  0  0  0
  9  7  1  0  0  0  0
 10 12  2  0  0  0  0
 11  4  2  0  0  0  0
 12  8  1  0  0  0  0
 13  3  1  0  0  0  0
 14  2  1  0  0  0  0
 15  9  1  0  0  0  0
 16 10  1  0  0  0  0
 17 12  1  0  0  0  0
 18 19  1  0  0  0  0
 19 17  2  0  0  0  0
  6  3  1  0  0  0  0
 18 16  2  0  0  0  0
M  END
>  <IDNUMBER>
F3228-0103

>  <Chemical_Name>
(2E)-1-(3,5-dichloro-2-hydroxyphenyl)-3-(pyridin-2-yl)prop-2-en-1-one

>  <PriceCoeff>
1.00

>  <MW>
294.13

>  <Description>
solid

>  <FSP3>
0.00

>  <clogP>
3.73

>  <TPSA>
50.19

>  <Acceptor>
3

>  <Donor>
2

>  <RotBonds>
3

>  <HAC>
19

>  <Collection>
General

$$$$
F3228-0111
  Mrv2219 10102508112D          

 25 27  0  0  0  0            999 V2000
    5.2750   -0.4292    0.0000 C   0  0  0  0  0  0  0  0  0  0  0  0
    4.5542   -0.0125    0.0000 O   0  0  0  0  0  0  0  0  0  0  0  0
    3.8375   -0.4292    0.0000 C   0  0  0  0  0  0  0  0  0  0  0  0
    3.8292   -1.2667    0.0000 C   0  0  0  0  0  0  0  0  0  0  0  0
    5.2750   -1.2667    0.0000 C   0  0  0  0  0  0  0  0  0  0  0  0
    4.5500   -1.6792    0.0000 C   0  0  0  0  0  0  0  0  0  0  0  0
    5.9875   -0.0250    0.0000 C   0  0  0  0  0  0  0  0  0  0  0  0
    7.4167    0.7958    0.0000 C   0  0  0  0  0  0  0  0  0  0  0  0
    3.1167   -0.0167    0.0000 C   0  0  0  0  0  0  0  0  0  0  0  0
    7.4167   -0.0292    0.0000 C   0  0  0  0  0  0  0  0  0  0  0  0
    6.7042    1.2083    0.0000 C   0  0  0  0  0  0  0  0  0  0  0  0
    6.7042   -0.4417    0.0000 C   0  0  0  0  0  0  0  0  0  0  0  0
    5.9917    0.7958    0.0000 C   0  0  0  0  0  0  0  0  0  0  0  0
    2.4042   -0.4375    0.0000 C   0  0  0  0  0  0  0  0  0  0  0  0
    3.1167   -1.6750    0.0000 C   0  0  0  0  0  0  0  0  0  0  0  0
    2.4042   -1.2625    0.0000 C   0  0  0  0  0  0  0  0  0  0  0  0
    4.5500   -2.5042    0.0000 O   0  0  0  0  0  0  0  0  0  0  0  0
    3.1250    0.8083    0.0000 Cl  0  0  0  0  0  0  0  0  0  0  0  0
    8.1417    1.2083    0.0000 O   0  0  0  0  0  0  0  0  0  0  0  0
    6.7042    2.0333    0.0000 O   0  0  0  0  0  0  0  0  0  0  0  0
    8.1292   -0.4417    0.0000 O   0  0  0  0  0  0  0  0  0  0  0  0
    1.6917   -1.6750    0.0000 Cl  0  0  0  0  0  0  0  0  0  0  0  0
    8.1417    2.0333    0.0000 C   0  0  0  0  0  0  0  0  0  0  0  0
    5.9917    2.4458    0.0000 C   0  0  0  0  0  0  0  0  0  0  0  0
    8.8417   -0.0292    0.0000 C   0  0  0  0  0  0  0  0  0  0  0  0
  2  1  1  0  0  0  0
  3  2  1  0  0  0  0
  4  6  1  0  0  0  0
  5  1  2  0  0  0  0
  6  5  1  0  0  0  0
  7  1  1  0  0  0  0
  8 11  1  0  0  0  0
  9  3  2  0  0  0  0
 10 12  1  0  0  0  0
 11 13  2  0  0  0  0
 12  7  2  0  0  0  0
 13  7  1  0  0  0  0
 14  9  1  0  0  0  0
 15  4  2  0  0  0  0
 16 15  1  0  0  0  0
 17  6  2  0  0  0  0
 18  9  1  0  0  0  0
 19  8  1  0  0  0  0
 20 11  1  0  0  0  0
 21 10  1  0  0  0  0
 22 16  1  0  0  0  0
 23 19  1  0  0  0  0
 24 20  1  0  0  0  0
 25 21  1  0  0  0  0
  8 10  2  0  0  0  0
  4  3  1  0  0  0  0
 16 14  2  0  0  0  0
M  END
>  <IDNUMBER>
F3228-0111

>  <Chemical_Name>
6,8-dichloro-2-(3,4,5-trimethoxyphenyl)-4H-chromen-4-one

>  <PriceCoeff>
1.00

>  <CAS>
878046-78-7

>  <MW>
381.21

>  <Description>
solid

>  <FSP3>
0.17

>  <clogP>
4.21

>  <TPSA>
53.99

>  <Acceptor>
5

>  <Donor>
0

>  <RotBonds>
4

>  <HAC>
25

>  <Collection>
General

$$$$
F3228-0115
  Mrv2219 10102508112D          

 20 22  0  0  0  0            999 V2000
    4.1474   -1.8567    0.0000 C   0  0  0  0  0  0  0  0  0  0  0  0
    2.7162   -2.6578    0.0000 C   0  0  0  0  0  0  0  0  0  0  0  0
    3.4464   -1.4395    0.0000 O   0  0  0  0  0  0  0  0  0  0  0  0
    3.4172   -3.0834    0.0000 C   0  0  0  0  0  0  0  0  0  0  0  0
    4.8734   -1.4562    0.0000 C   0  0  0  0  0  0  0  0  0  0  0  0
    2.7287   -1.8400    0.0000 C   0  0  0  0  0  0  0  0  0  0  0  0
    4.1349   -2.6829    0.0000 C   0  0  0  0  0  0  0  0  0  0  0  0
    5.5743   -1.8901    0.0000 C   0  0  0  0  0  0  0  0  0  0  0  0
    6.3003   -1.4895    0.0000 C   0  0  0  0  0  0  0  0  0  0  0  0
    4.8817   -0.6384    0.0000 C   0  0  0  0  0  0  0  0  0  0  0  0
    2.0027   -3.0709    0.0000 C   0  0  0  0  0  0  0  0  0  0  0  0
    3.4047   -3.9096    0.0000 O   0  0  0  0  0  0  0  0  0  0  0  0
    2.0195   -1.4186    0.0000 C   0  0  0  0  0  0  0  0  0  0  0  0
    6.3128   -0.6634    0.0000 C   0  0  0  0  0  0  0  0  0  0  0  0
    5.5618   -2.7162    0.0000 Cl  0  0  0  0  0  0  0  0  0  0  0  0
    5.5994   -0.2378    0.0000 C   0  0  0  0  0  0  0  0  0  0  0  0
    1.2935   -2.6578    0.0000 C   0  0  0  0  0  0  0  0  0  0  0  0
    1.2935   -1.8275    0.0000 C   0  0  0  0  0  0  0  0  0  0  0  0
    7.0388   -0.2629    0.0000 Cl  0  0  0  0  0  0  0  0  0  0  0  0
    0.5758   -3.0667    0.0000 C   0  0  0  0  0  0  0  0  0  0  0  0
  2  4  1  0  0  0  0
  3  1  1  0  0  0  0
  4  7  1  0  0  0  0
  5  1  1  0  0  0  0
  6  3  1  0  0  0  0
  7  1  1  0  0  0  0
  8  5  2  0  0  0  0
  9  8  1  0  0  0  0
 10  5  1  0  0  0  0
 11  2  1  0  0  0  0
 12  4  2  0  0  0  0
 13  6  1  0  0  0  0
 14 16  1  0  0  0  0
 15  8  1  0  0  0  0
 16 10  2  0  0  0  0
 17 11  2  0  0  0  0
 18 13  2  0  0  0  0
 19 14  1  0  0  0  0
 20 17  1  0  0  0  0
  2  6  2  0  0  0  0
 14  9  2  0  0  0  0
 17 18  1  0  0  0  0
M  END
>  <IDNUMBER>
F3228-0115

>  <Chemical_Name>
2-(2,4-dichlorophenyl)-6-methyl-3,4-dihydro-2H-1-benzopyran-4-one

>  <PriceCoeff>
1.00

>  <CAS>
879923-21-4

>  <MW>
307.17

>  <Description>
solid

>  <FSP3>
0.19

>  <clogP>
5.40

>  <TPSA>
26.30

>  <Acceptor>
2

>  <Donor>
0

>  <RotBonds>
1

>  <HAC>
20

>  <Collection>
General

>  <PPDS>
+

$$$$
F3228-0128
  Mrv2219 10102508112D          

 20 22  0  0  0  0            999 V2000
    3.1427    0.6794    0.0000 C   0  0  0  0  0  0  0  0  0  0  0  0
    1.7094    0.6848    0.0000 C   0  0  0  0  0  0  0  0  0  0  0  0
    2.4260    0.2707    0.0000 C   0  0  0  0  0  0  0  0  0  0  0  0
    1.7094    1.5129    0.0000 C   0  0  0  0  0  0  0  0  0  0  0  0
    0.9927    1.9216    0.0000 C   0  0  0  0  0  0  0  0  0  0  0  0
    2.4260    1.9376    0.0000 O   0  0  0  0  0  0  0  0  0  0  0  0
    3.1427    1.5129    0.0000 C   0  0  0  0  0  0  0  0  0  0  0  0
    0.9927    0.2813    0.0000 C   0  0  0  0  0  0  0  0  0  0  0  0
    0.2761    1.5129    0.0000 C   0  0  0  0  0  0  0  0  0  0  0  0
    3.8434    0.2813    0.0000 C   0  0  0  0  0  0  0  0  0  0  0  0
    2.4207   -0.5468    0.0000 O   0  0  0  0  0  0  0  0  0  0  0  0
    0.9874    2.7498    0.0000 C   0  0  0  0  0  0  0  0  0  0  0  0
    0.2761    0.6848    0.0000 C   0  0  0  0  0  0  0  0  0  0  0  0
    1.6934    3.1638    0.0000 O   0  0  0  0  0  0  0  0  0  0  0  0
   -0.4300    1.9216    0.0000 O   0  0  0  0  0  0  0  0  0  0  0  0
    3.8434   -0.5468    0.0000 C   0  0  0  0  0  0  0  0  0  0  0  0
    4.5547    0.6954    0.0000 C   0  0  0  0  0  0  0  0  0  0  0  0
    5.2607    0.2813    0.0000 C   0  0  0  0  0  0  0  0  0  0  0  0
    4.5547   -0.9555    0.0000 C   0  0  0  0  0  0  0  0  0  0  0  0
    5.2713   -0.5468    0.0000 C   0  0  0  0  0  0  0  0  0  0  0  0
  2  3  1  0  0  0  0
  3  1  1  0  0  0  0
  4  6  1  0  0  0  0
  5  4  2  0  0  0  0
  6  7  1  0  0  0  0
  7  1  2  0  0  0  0
  8  2  2  0  0  0  0
  9  5  1  0  0  0  0
 10  1  1  0  0  0  0
 11  3  2  0  0  0  0
 12  5  1  0  0  0  0
 13  8  1  0  0  0  0
 14 12  2  0  0  0  0
 15  9  1  0  0  0  0
 16 10  2  0  0  0  0
 17 10  1  0  0  0  0
 18 17  2  0  0  0  0
 19 16  1  0  0  0  0
 20 18  1  0  0  0  0
  2  4  1  0  0  0  0
 20 19  2  0  0  0  0
 13  9  2  0  0  0  0
M  END
>  <IDNUMBER>
F3228-0128

>  <Chemical_Name>
7-hydroxy-4-oxo-3-phenyl-4H-chromene-8-carbaldehyde

>  <PriceCoeff>
1.00

>  <CAS>
856791-64-5

>  <MW>
266.25

>  <Description>
solid

>  <FSP3>
0.00

>  <clogP>
2.84

>  <TPSA>
63.60

>  <Acceptor>
4

>  <Donor>
1

>  <RotBonds>
2

>  <HAC>
20

>  <Collection>
General

>  <PPDS>
+

$$$$
F3228-0133
  Mrv2219 10102508112D          

 21 23  0  0  0  0            999 V2000
    2.8674   -1.6563    0.0000 C   0  0  0  0  0  0  0  0  0  0  0  0
    3.5816   -1.2525    0.0000 C   0  0  0  0  0  0  0  0  0  0  0  0
    2.1531   -1.2525    0.0000 C   0  0  0  0  0  0  0  0  0  0  0  0
    2.1531   -0.4219    0.0000 C   0  0  0  0  0  0  0  0  0  0  0  0
    3.5816   -0.4219    0.0000 C   0  0  0  0  0  0  0  0  0  0  0  0
    2.8674   -0.0104    0.0000 O   0  0  0  0  0  0  0  0  0  0  0  0
    1.4363   -1.6563    0.0000 C   0  0  0  0  0  0  0  0  0  0  0  0
    1.4363   -0.0104    0.0000 C   0  0  0  0  0  0  0  0  0  0  0  0
    4.3011   -1.6563    0.0000 C   0  0  0  0  0  0  0  0  0  0  0  0
    2.8674   -2.4869    0.0000 O   0  0  0  0  0  0  0  0  0  0  0  0
    0.7220   -1.2525    0.0000 C   0  0  0  0  0  0  0  0  0  0  0  0
    0.7220   -0.4270    0.0000 C   0  0  0  0  0  0  0  0  0  0  0  0
    4.3011   -2.4869    0.0000 C   0  0  0  0  0  0  0  0  0  0  0  0
    5.0101   -1.2525    0.0000 C   0  0  0  0  0  0  0  0  0  0  0  0
    5.7243   -2.4869    0.0000 C   0  0  0  0  0  0  0  0  0  0  0  0
    5.7243   -1.6563    0.0000 C   0  0  0  0  0  0  0  0  0  0  0  0
    5.0101   -2.8984    0.0000 C   0  0  0  0  0  0  0  0  0  0  0  0
    0.0000    0.0000    0.0000 O   0  0  0  0  0  0  0  0  0  0  0  0
    1.4389   -2.4869    0.0000 C   0  0  0  0  0  0  0  0  0  0  0  0
    6.4308   -2.8984    0.0000 O   0  0  0  0  0  0  0  0  0  0  0  0
    7.1528   -2.4792    0.0000 C   0  0  0  0  0  0  0  0  0  0  0  0
  2  1  1  0  0  0  0
  3  1  1  0  0  0  0
  4  3  1  0  0  0  0
  5  2  2  0  0  0  0
  6  4  1  0  0  0  0
  7  3  2  0  0  0  0
  8  4  2  0  0  0  0
  9  2  1  0  0  0  0
 10  1  2  0  0  0  0
 11  7  1  0  0  0  0
 12 11  2  0  0  0  0
 13  9  2  0  0  0  0
 14  9  1  0  0  0  0
 15 16  1  0  0  0  0
 16 14  2  0  0  0  0
 17 13  1  0  0  0  0
 18 12  1  0  0  0  0
 19  7  1  0  0  0  0
 20 15  1  0  0  0  0
 21 20  1  0  0  0  0
  5  6  1  0  0  0  0
  8 12  1  0  0  0  0
 15 17  2  0  0  0  0
M  END
>  <IDNUMBER>
F3228-0133

>  <Chemical_Name>
7-hydroxy-3-(4-methoxyphenyl)-5-methyl-4H-chromen-4-one

>  <PriceCoeff>
1.00

>  <CAS>
128672-43-5

>  <MW>
282.29

>  <Description>
solid

>  <FSP3>
0.12

>  <clogP>
3.14

>  <TPSA>
55.76

>  <Acceptor>
4

>  <Donor>
1

>  <RotBonds>
2

>  <HAC>
21

>  <Collection>
General

>  <PPDS>
+

$$$$
F3228-0134
  Mrv2219 10102508112D          

 21 23  0  0  0  0            999 V2000
    2.2277    1.1588    0.0000 C   0  0  0  0  0  0  0  0  0  0  0  0
    0.7937    1.1694    0.0000 C   0  0  0  0  0  0  0  0  0  0  0  0
    1.5080    0.7566    0.0000 C   0  0  0  0  0  0  0  0  0  0  0  0
    0.7937    1.9948    0.0000 C   0  0  0  0  0  0  0  0  0  0  0  0
    1.5080    2.4075    0.0000 O   0  0  0  0  0  0  0  0  0  0  0  0
    2.2277    1.9948    0.0000 C   0  0  0  0  0  0  0  0  0  0  0  0
    0.0794    2.4075    0.0000 C   0  0  0  0  0  0  0  0  0  0  0  0
    0.0794    0.7566    0.0000 C   0  0  0  0  0  0  0  0  0  0  0  0
    2.9262    0.7566    0.0000 C   0  0  0  0  0  0  0  0  0  0  0  0
   -0.6296    1.9843    0.0000 C   0  0  0  0  0  0  0  0  0  0  0  0
    1.4975   -0.0688    0.0000 O   0  0  0  0  0  0  0  0  0  0  0  0
   -0.6296    1.1694    0.0000 C   0  0  0  0  0  0  0  0  0  0  0  0
    2.9262   -0.0688    0.0000 C   0  0  0  0  0  0  0  0  0  0  0  0
    3.6405    1.1588    0.0000 C   0  0  0  0  0  0  0  0  0  0  0  0
    4.3495   -0.0688    0.0000 C   0  0  0  0  0  0  0  0  0  0  0  0
    4.3495    0.7566    0.0000 C   0  0  0  0  0  0  0  0  0  0  0  0
    3.6405   -0.4816    0.0000 C   0  0  0  0  0  0  0  0  0  0  0  0
   -1.3440    2.4075    0.0000 O   0  0  0  0  0  0  0  0  0  0  0  0
    0.0688    3.2171    0.0000 C   0  0  0  0  0  0  0  0  0  0  0  0
    5.0533   -0.4816    0.0000 O   0  0  0  0  0  0  0  0  0  0  0  0
    5.7677   -0.0688    0.0000 C   0  0  0  0  0  0  0  0  0  0  0  0
  2  3  1  0  0  0  0
  3  1  1  0  0  0  0
  4  5  1  0  0  0  0
  5  6  1  0  0  0  0
  6  1  2  0  0  0  0
  7  4  2  0  0  0  0
  8  2  2  0  0  0  0
  9  1  1  0  0  0  0
 10  7  1  0  0  0  0
 11  3  2  0  0  0  0
 12  8  1  0  0  0  0
 13  9  2  0  0  0  0
 14  9  1  0  0  0  0
 15 16  1  0  0  0  0
 16 14  2  0  0  0  0
 17 13  1  0  0  0  0
 18 10  1  0  0  0  0
 19  7  1  0  0  0  0
 20 15  1  0  0  0  0
 21 20  1  0  0  0  0
 15 17  2  0  0  0  0
  2  4  1  0  0  0  0
 12 10  2  0  0  0  0
M  END
>  <IDNUMBER>
F3228-0134

>  <Chemical_Name>
7-hydroxy-3-(4-methoxyphenyl)-8-methyl-4H-chromen-4-one

>  <PriceCoeff>
1.00

>  <CAS>
116718-51-5

>  <MW>
282.29

>  <Description>
solid

>  <FSP3>
0.12

>  <clogP>
3.09

>  <TPSA>
55.76

>  <Acceptor>
4

>  <Donor>
1

>  <RotBonds>
2

>  <HAC>
21

>  <Collection>
General

>  <PPDS>
+

$$$$
F3228-0143
  Mrv2219 10102508112D          

 22 24  0  0  0  0            999 V2000
    3.4175   -3.6247    0.0000 C   0  0  0  0  0  0  0  0  0  0  0  0
    2.7000   -2.3917    0.0000 C   0  0  0  0  0  0  0  0  0  0  0  0
    4.1350   -3.2208    0.0000 C   0  0  0  0  0  0  0  0  0  0  0  0
    2.7000   -3.2208    0.0000 C   0  0  0  0  0  0  0  0  0  0  0  0
    3.4175   -1.9665    0.0000 O   0  0  0  0  0  0  0  0  0  0  0  0
    4.1350   -2.3917    0.0000 C   0  0  0  0  0  0  0  0  0  0  0  0
    1.9825   -1.9825    0.0000 C   0  0  0  0  0  0  0  0  0  0  0  0
    1.9825   -3.6247    0.0000 C   0  0  0  0  0  0  0  0  0  0  0  0
    4.8471   -3.6247    0.0000 C   0  0  0  0  0  0  0  0  0  0  0  0
    1.2756   -2.3917    0.0000 C   0  0  0  0  0  0  0  0  0  0  0  0
    3.4175   -4.4539    0.0000 O   0  0  0  0  0  0  0  0  0  0  0  0
    1.2756   -3.2208    0.0000 C   0  0  0  0  0  0  0  0  0  0  0  0
    5.5540   -3.2208    0.0000 C   0  0  0  0  0  0  0  0  0  0  0  0
    4.8471   -4.4539    0.0000 C   0  0  0  0  0  0  0  0  0  0  0  0
    4.8525   -1.9771    0.0000 C   0  0  0  0  0  0  0  0  0  0  0  0
    6.2715   -4.4539    0.0000 C   0  0  0  0  0  0  0  0  0  0  0  0
    6.2715   -3.6247    0.0000 C   0  0  0  0  0  0  0  0  0  0  0  0
    5.5540   -4.8684    0.0000 C   0  0  0  0  0  0  0  0  0  0  0  0
    0.5634   -1.9825    0.0000 O   0  0  0  0  0  0  0  0  0  0  0  0
    1.9825   -1.1534    0.0000 C   0  0  0  0  0  0  0  0  0  0  0  0
    6.9837   -4.8684    0.0000 O   0  0  0  0  0  0  0  0  0  0  0  0
    7.6906   -4.4539    0.0000 C   0  0  0  0  0  0  0  0  0  0  0  0
  2  4  1  0  0  0  0
  3  1  1  0  0  0  0
  4  1  1  0  0  0  0
  5  2  1  0  0  0  0
  6  3  2  0  0  0  0
  7  2  2  0  0  0  0
  8  4  2  0  0  0  0
  9  3  1  0  0  0  0
 10 12  2  0  0  0  0
 11  1  2  0  0  0  0
 12  8  1  0  0  0  0
 13  9  1  0  0  0  0
 14  9  2  0  0  0  0
 15  6  1  0  0  0  0
 16 18  2  0  0  0  0
 17 13  2  0  0  0  0
 18 14  1  0  0  0  0
 19 10  1  0  0  0  0
 20  7  1  0  0  0  0
 21 16  1  0  0  0  0
 22 21  1  0  0  0  0
  5  6  1  0  0  0  0
 10  7  1  0  0  0  0
 16 17  1  0  0  0  0
M  END
>  <IDNUMBER>
F3228-0143

>  <Chemical_Name>
7-hydroxy-3-(4-methoxyphenyl)-2,8-dimethyl-4H-chromen-4-one

>  <PriceCoeff>
1.00

>  <CAS>
433954-10-0

>  <MW>
296.32

>  <Description>
solid

>  <FSP3>
0.17

>  <clogP>
3.29

>  <TPSA>
55.76

>  <Acceptor>
4

>  <Donor>
1

>  <RotBonds>
2

>  <HAC>
22

>  <Collection>
General

>  <PPDS>
+

$$$$
F3228-0172
  Mrv2219 10102508112D          

 19 21  0  0  0  0            999 V2000
    7.8154    0.1217    0.0000 C   0  0  0  0  0  0  0  0  0  0  0  0
    7.8154   -0.7143    0.0000 C   0  0  0  0  0  0  0  0  0  0  0  0
    6.3814    0.1217    0.0000 C   0  0  0  0  0  0  0  0  0  0  0  0
    7.0958    0.5344    0.0000 O   0  0  0  0  0  0  0  0  0  0  0  0
    7.0958   -1.1165    0.0000 C   0  0  0  0  0  0  0  0  0  0  0  0
    6.3814   -0.7038    0.0000 C   0  0  0  0  0  0  0  0  0  0  0  0
    5.6671    0.5238    0.0000 C   0  0  0  0  0  0  0  0  0  0  0  0
    8.5139    0.5238    0.0000 C   0  0  0  0  0  0  0  0  0  0  0  0
    5.6671   -1.1165    0.0000 C   0  0  0  0  0  0  0  0  0  0  0  0
    7.0852   -1.9420    0.0000 O   0  0  0  0  0  0  0  0  0  0  0  0
    9.2282    0.1111    0.0000 C   0  0  0  0  0  0  0  0  0  0  0  0
    8.5139    1.3440    0.0000 C   0  0  0  0  0  0  0  0  0  0  0  0
    4.9581    0.1111    0.0000 C   0  0  0  0  0  0  0  0  0  0  0  0
    4.9581   -0.7038    0.0000 C   0  0  0  0  0  0  0  0  0  0  0  0
    9.9426    1.3440    0.0000 C   0  0  0  0  0  0  0  0  0  0  0  0
    9.2282    1.7567    0.0000 C   0  0  0  0  0  0  0  0  0  0  0  0
    9.9372    0.5185    0.0000 C   0  0  0  0  0  0  0  0  0  0  0  0
   10.6569    1.7567    0.0000 Cl  0  0  0  0  0  0  0  0  0  0  0  0
    4.2437    0.5238    0.0000 O   0  0  0  0  0  0  0  0  0  0  0  0
  2  1  2  0  0  0  0
  3  4  1  0  0  0  0
  4  1  1  0  0  0  0
  5  2  1  0  0  0  0
  6  3  1  0  0  0  0
  7  3  2  0  0  0  0
  8  1  1  0  0  0  0
  9  6  2  0  0  0  0
 10  5  2  0  0  0  0
 11  8  2  0  0  0  0
 12  8  1  0  0  0  0
 13  7  1  0  0  0  0
 14 13  2  0  0  0  0
 15 16  1  0  0  0  0
 16 12  2  0  0  0  0
 17 11  1  0  0  0  0
 18 15  1  0  0  0  0
 19 13  1  0  0  0  0
 15 17  2  0  0  0  0
  5  6  1  0  0  0  0
  9 14  1  0  0  0  0
M  END
>  <IDNUMBER>
F3228-0172

>  <Chemical_Name>
2-(4-chlorophenyl)-7-hydroxy-4H-chromen-4-one

>  <PriceCoeff>
1.00

>  <CAS>
22609-52-5

>  <MW>
272.68

>  <Description>
solid

>  <FSP3>
0.00

>  <clogP>
3.92

>  <TPSA>
46.53

>  <Acceptor>
3

>  <Donor>
1

>  <RotBonds>
1

>  <HAC>
19

>  <Collection>
General

$$$$
F3228-0173
  Mrv2219 10102508112D          

 20 22  0  0  0  0            999 V2000
    7.3607   -0.1639    0.0000 C   0  0  0  0  0  0  0  0  0  0  0  0
    6.6586   -0.5793    0.0000 C   0  0  0  0  0  0  0  0  0  0  0  0
    7.3607    0.6611    0.0000 C   0  0  0  0  0  0  0  0  0  0  0  0
    5.9389   -0.1639    0.0000 C   0  0  0  0  0  0  0  0  0  0  0  0
    6.6527    1.0707    0.0000 O   0  0  0  0  0  0  0  0  0  0  0  0
    5.9389    0.6611    0.0000 C   0  0  0  0  0  0  0  0  0  0  0  0
    8.0804   -0.5793    0.0000 C   0  0  0  0  0  0  0  0  0  0  0  0
    5.2309    1.0648    0.0000 C   0  0  0  0  0  0  0  0  0  0  0  0
    5.2309   -0.5852    0.0000 C   0  0  0  0  0  0  0  0  0  0  0  0
    8.0804    1.0707    0.0000 O   0  0  0  0  0  0  0  0  0  0  0  0
    6.6586   -1.4043    0.0000 O   0  0  0  0  0  0  0  0  0  0  0  0
    8.0804   -1.4043    0.0000 C   0  0  0  0  0  0  0  0  0  0  0  0
    8.7941   -0.1639    0.0000 C   0  0  0  0  0  0  0  0  0  0  0  0
    4.5171    0.6495    0.0000 C   0  0  0  0  0  0  0  0  0  0  0  0
    4.5171   -0.1755    0.0000 C   0  0  0  0  0  0  0  0  0  0  0  0
    9.5138   -1.3926    0.0000 C   0  0  0  0  0  0  0  0  0  0  0  0
    9.5022   -0.5676    0.0000 C   0  0  0  0  0  0  0  0  0  0  0  0
    8.7941   -1.8139    0.0000 C   0  0  0  0  0  0  0  0  0  0  0  0
   10.2219   -1.8139    0.0000 Cl  0  0  0  0  0  0  0  0  0  0  0  0
    3.7974    1.0648    0.0000 O   0  0  0  0  0  0  0  0  0  0  0  0
  2  1  2  0  0  0  0
  3  1  1  0  0  0  0
  4  2  1  0  0  0  0
  5  3  1  0  0  0  0
  6  5  1  0  0  0  0
  7  1  1  0  0  0  0
  8  6  2  0  0  0  0
  9  4  2  0  0  0  0
 10  3  2  0  0  0  0
 11  2  1  0  0  0  0
 12  7  2  0  0  0  0
 13  7  1  0  0  0  0
 14  8  1  0  0  0  0
 15  9  1  0  0  0  0
 16 17  1  0  0  0  0
 17 13  2  0  0  0  0
 18 12  1  0  0  0  0
 19 16  1  0  0  0  0
 20 14  1  0  0  0  0
 16 18  2  0  0  0  0
  6  4  1  0  0  0  0
 14 15  2  0  0  0  0
M  END
>  <IDNUMBER>
F3228-0173

>  <Chemical_Name>
3-(4-chlorophenyl)-4,7-dihydroxy-2H-chromen-2-one

>  <PriceCoeff>
1.00

>  <CAS>
890634-62-5

>  <MW>
288.68

>  <Description>
solid

>  <FSP3>
0.00

>  <clogP>
3.85

>  <TPSA>
66.76

>  <Acceptor>
4

>  <Donor>
2

>  <RotBonds>
1

>  <HAC>
20

>  <Collection>
General

>  <PPDS>
+

$$$$
F3228-0184
  Mrv2219 10102508112D          

 21 23  0  0  0  0            999 V2000
    4.1467   -2.9696    0.0000 C   0  0  0  0  0  0  0  0  0  0  0  0
    4.8588   -3.3861    0.0000 C   0  0  0  0  0  0  0  0  0  0  0  0
    5.5709   -2.9696    0.0000 C   0  0  0  0  0  0  0  0  0  0  0  0
    5.5709   -2.1412    0.0000 C   0  0  0  0  0  0  0  0  0  0  0  0
    4.1467   -2.1412    0.0000 C   0  0  0  0  0  0  0  0  0  0  0  0
    4.8588   -1.7294    0.0000 O   0  0  0  0  0  0  0  0  0  0  0  0
    3.4346   -3.3861    0.0000 C   0  0  0  0  0  0  0  0  0  0  0  0
    3.4346   -1.7343    0.0000 C   0  0  0  0  0  0  0  0  0  0  0  0
    2.7225   -2.9696    0.0000 C   0  0  0  0  0  0  0  0  0  0  0  0
    2.7225   -2.1509    0.0000 C   0  0  0  0  0  0  0  0  0  0  0  0
    4.8540   -4.2049    0.0000 O   0  0  0  0  0  0  0  0  0  0  0  0
    6.2830   -1.7343    0.0000 C   0  0  0  0  0  0  0  0  0  0  0  0
    3.4346   -4.2049    0.0000 O   0  0  0  0  0  0  0  0  0  0  0  0
    2.0104   -1.7343    0.0000 O   0  0  0  0  0  0  0  0  0  0  0  0
    6.2830   -0.9156    0.0000 C   0  0  0  0  0  0  0  0  0  0  0  0
    6.9952   -2.1509    0.0000 C   0  0  0  0  0  0  0  0  0  0  0  0
    4.1467   -4.6118    0.0000 C   0  0  0  0  0  0  0  0  0  0  0  0
    1.2983   -2.1509    0.0000 C   0  0  0  0  0  0  0  0  0  0  0  0
    7.7073   -1.7343    0.0000 C   0  0  0  0  0  0  0  0  0  0  0  0
    6.9952   -0.4990    0.0000 C   0  0  0  0  0  0  0  0  0  0  0  0
    7.7169   -0.9156    0.0000 C   0  0  0  0  0  0  0  0  0  0  0  0
  2  1  1  0  0  0  0
  3  2  1  0  0  0  0
  4  6  1  0  0  0  0
  5  1  1  0  0  0  0
  6  5  1  0  0  0  0
  7  1  2  0  0  0  0
  8  5  2  0  0  0  0
  9  7  1  0  0  0  0
 10  9  2  0  0  0  0
 11  2  2  0  0  0  0
 12  4  1  0  0  0  0
 13  7  1  0  0  0  0
 14 10  1  0  0  0  0
 15 12  1  0  0  0  0
 16 12  2  0  0  0  0
 17 13  1  0  0  0  0
 18 14  1  0  0  0  0
 19 16  1  0  0  0  0
 20 15  2  0  0  0  0
 21 19  2  0  0  0  0
 10  8  1  0  0  0  0
  4  3  2  0  0  0  0
 21 20  1  0  0  0  0
M  END
>  <IDNUMBER>
F3228-0184

>  <Chemical_Name>
5,7-dimethoxy-2-phenyl-4H-chromen-4-one

>  <PriceCoeff>
1.00

>  <CAS>
21392-57-4

>  <MW>
282.29

>  <Description>
solid

>  <FSP3>
0.12

>  <clogP>
3.62

>  <TPSA>
44.76

>  <Acceptor>
4

>  <Donor>
0

>  <RotBonds>
3

>  <HAC>
21

>  <Collection>
General

$$$$
F3228-0186
  Mrv2219 10102508112D          

 24 26  0  0  0  0            999 V2000
    0.6249   -1.0076    0.0000 C   0  0  0  0  0  0  0  0  0  0  0  0
    1.3370   -1.4291    0.0000 C   0  0  0  0  0  0  0  0  0  0  0  0
    2.0637   -1.0173    0.0000 C   0  0  0  0  0  0  0  0  0  0  0  0
    2.0637   -0.1793    0.0000 C   0  0  0  0  0  0  0  0  0  0  0  0
    0.6249   -0.1793    0.0000 C   0  0  0  0  0  0  0  0  0  0  0  0
    1.3419    0.2422    0.0000 O   0  0  0  0  0  0  0  0  0  0  0  0
   -2.2235   -0.1793    0.0000 C   0  0  0  0  0  0  0  0  0  0  0  0
   -0.0872   -1.4242    0.0000 C   0  0  0  0  0  0  0  0  0  0  0  0
   -0.7993   -0.1793    0.0000 C   0  0  0  0  0  0  0  0  0  0  0  0
   -0.0872    0.2276    0.0000 C   0  0  0  0  0  0  0  0  0  0  0  0
   -1.5114    0.2276    0.0000 O   0  0  0  0  0  0  0  0  0  0  0  0
   -0.7993   -1.0076    0.0000 C   0  0  0  0  0  0  0  0  0  0  0  0
   -2.9356    0.2276    0.0000 N   0  0  0  0  0  0  0  0  0  0  0  0
    1.3370   -2.2526    0.0000 O   0  0  0  0  0  0  0  0  0  0  0  0
   -2.2235   -1.0076    0.0000 O   0  0  0  0  0  0  0  0  0  0  0  0
    2.7661    0.2276    0.0000 C   0  0  0  0  0  0  0  0  0  0  0  0
   -0.0823   -2.2429    0.0000 O   0  0  0  0  0  0  0  0  0  0  0  0
   -2.9356    1.0560    0.0000 C   0  0  0  0  0  0  0  0  0  0  0  0
   -3.6574   -0.1793    0.0000 C   0  0  0  0  0  0  0  0  0  0  0  0
    3.4782   -0.1793    0.0000 C   0  0  0  0  0  0  0  0  0  0  0  0
    2.7661    1.0464    0.0000 C   0  0  0  0  0  0  0  0  0  0  0  0
    3.4782    1.4629    0.0000 C   0  0  0  0  0  0  0  0  0  0  0  0
    4.2000    0.2180    0.0000 C   0  0  0  0  0  0  0  0  0  0  0  0
    4.2000    1.0464    0.0000 C   0  0  0  0  0  0  0  0  0  0  0  0
  2  1  1  0  0  0  0
  3  2  1  0  0  0  0
  4  6  1  0  0  0  0
  5  1  1  0  0  0  0
  6  5  1  0  0  0  0
  7 11  1  0  0  0  0
  8  1  2  0  0  0  0
  9 12  2  0  0  0  0
 10  5  2  0  0  0  0
 11  9  1  0  0  0  0
 12  8  1  0  0  0  0
 13  7  1  0  0  0  0
 14  2  2  0  0  0  0
 15  7  2  0  0  0  0
 16  4  1  0  0  0  0
 17  8  1  0  0  0  0
 18 13  1  0  0  0  0
 19 13  1  0  0  0  0
 20 16  2  0  0  0  0
 21 16  1  0  0  0  0
 22 21  2  0  0  0  0
 23 20  1  0  0  0  0
 24 22  1  0  0  0  0
  9 10  1  0  0  0  0
  4  3  2  0  0  0  0
 24 23  2  0  0  0  0
M  END
>  <IDNUMBER>
F3228-0186

>  <Chemical_Name>
5-hydroxy-4-oxo-2-phenyl-4H-chromen-7-yl N,N-dimethylcarbamate

>  <PriceCoeff>
1.00

>  <CAS>
890635-37-7

>  <MW>
325.32

>  <Description>
solid

>  <FSP3>
0.11

>  <clogP>
3.51

>  <TPSA>
76.07

>  <Acceptor>
5

>  <Donor>
1

>  <RotBonds>
4

>  <HAC>
24

>  <Collection>
General

>  <PPDS>
+

$$$$
F3228-0187
  Mrv2219 10102508112D          

 13 13  0  0  0  0            999 V2000
    4.3281   -0.8714    0.0000 C   0  0  0  0  0  0  0  0  0  0  0  0
    3.6251   -0.4590    0.0000 C   0  0  0  0  0  0  0  0  0  0  0  0
    6.4719   -2.1089    0.0000 C   0  0  0  0  0  0  0  0  0  0  0  0
    4.3281   -1.6964    0.0000 C   0  0  0  0  0  0  0  0  0  0  0  0
    7.1806   -1.6964    0.0000 O   0  0  0  0  0  0  0  0  0  0  0  0
    5.0427   -2.1089    0.0000 C   0  0  0  0  0  0  0  0  0  0  0  0
    3.6251   -2.0973    0.0000 C   0  0  0  0  0  0  0  0  0  0  0  0
    2.9164   -0.8714    0.0000 C   0  0  0  0  0  0  0  0  0  0  0  0
    5.7573   -1.6964    0.0000 C   0  0  0  0  0  0  0  0  0  0  0  0
    5.0427   -0.4531    0.0000 O   0  0  0  0  0  0  0  0  0  0  0  0
    6.4719   -2.9164    0.0000 O   0  0  0  0  0  0  0  0  0  0  0  0
    2.9164   -1.6964    0.0000 C   0  0  0  0  0  0  0  0  0  0  0  0
    2.2134   -0.4590    0.0000 O   0  0  0  0  0  0  0  0  0  0  0  0
  2  1  2  0  0  0  0
  3  9  1  0  0  0  0
  4  1  1  0  0  0  0
  5  3  2  0  0  0  0
  6  4  1  0  0  0  0
  7  4  2  0  0  0  0
  8  2  1  0  0  0  0
  9  6  1  0  0  0  0
 10  1  1  0  0  0  0
 11  3  1  0  0  0  0
 12  7  1  0  0  0  0
 13  8  1  0  0  0  0
 12  8  2  0  0  0  0
M  END
>  <IDNUMBER>
F3228-0187

>  <Chemical_Name>
3-(2,4-dihydroxyphenyl)propanoic acid

>  <PriceCoeff>
1.00

>  <CAS>
5631-68-5

>  <MW>
182.17

>  <Description>
solid

>  <FSP3>
0.22

>  <clogP>
1.45

>  <TPSA>
77.76

>  <Acceptor>
4

>  <Donor>
2

>  <RotBonds>
3

>  <HAC>
13

>  <Collection>
General

>  <PPDS>
+

$$$$
F3228-0188
  Mrv2219 10102508112D          

 23 25  0  0  0  0            999 V2000
    5.7925   -1.7068    0.0000 C   0  0  0  0  0  0  0  0  0  0  0  0
    5.0736   -2.1218    0.0000 C   0  0  0  0  0  0  0  0  0  0  0  0
    4.3546   -1.7068    0.0000 C   0  0  0  0  0  0  0  0  0  0  0  0
    4.3546   -0.8768    0.0000 C   0  0  0  0  0  0  0  0  0  0  0  0
    5.7925   -0.8768    0.0000 C   0  0  0  0  0  0  0  0  0  0  0  0
    3.6473   -2.1101    0.0000 C   0  0  0  0  0  0  0  0  0  0  0  0
    5.0736   -0.4559    0.0000 O   0  0  0  0  0  0  0  0  0  0  0  0
    6.5114   -2.1218    0.0000 C   0  0  0  0  0  0  0  0  0  0  0  0
    3.6473   -0.4618    0.0000 C   0  0  0  0  0  0  0  0  0  0  0  0
    2.9343   -1.7068    0.0000 C   0  0  0  0  0  0  0  0  0  0  0  0
    5.0736   -2.9459    0.0000 O   0  0  0  0  0  0  0  0  0  0  0  0
    2.9343   -0.8768    0.0000 C   0  0  0  0  0  0  0  0  0  0  0  0
    6.5114   -2.9459    0.0000 C   0  0  0  0  0  0  0  0  0  0  0  0
    3.6532   -2.9343    0.0000 O   0  0  0  0  0  0  0  0  0  0  0  0
    2.2270   -0.4618    0.0000 O   0  0  0  0  0  0  0  0  0  0  0  0
    5.7925   -3.3551    0.0000 O   0  0  0  0  0  0  0  0  0  0  0  0
    7.2245   -1.7068    0.0000 C   0  0  0  0  0  0  0  0  0  0  0  0
    7.2245   -3.3551    0.0000 C   0  0  0  0  0  0  0  0  0  0  0  0
    4.3663   -3.3492    0.0000 C   0  0  0  0  0  0  0  0  0  0  0  0
    5.7925   -4.1793    0.0000 C   0  0  0  0  0  0  0  0  0  0  0  0
    1.5139   -0.8768    0.0000 C   0  0  0  0  0  0  0  0  0  0  0  0
    7.9318   -2.1101    0.0000 C   0  0  0  0  0  0  0  0  0  0  0  0
    7.9318   -2.9459    0.0000 C   0  0  0  0  0  0  0  0  0  0  0  0
  2  1  1  0  0  0  0
  3  2  1  0  0  0  0
  4  7  1  0  0  0  0
  5  1  2  0  0  0  0
  6  3  2  0  0  0  0
  7  5  1  0  0  0  0
  8  1  1  0  0  0  0
  9  4  2  0  0  0  0
 10  6  1  0  0  0  0
 11  2  2  0  0  0  0
 12  9  1  0  0  0  0
 13  8  2  0  0  0  0
 14  6  1  0  0  0  0
 15 12  1  0  0  0  0
 16 13  1  0  0  0  0
 17  8  1  0  0  0  0
 18 13  1  0  0  0  0
 19 14  1  0  0  0  0
 20 16  1  0  0  0  0
 21 15  1  0  0  0  0
 22 17  2  0  0  0  0
 23 22  1  0  0  0  0
  3  4  1  0  0  0  0
 23 18  2  0  0  0  0
 10 12  2  0  0  0  0
M  END
>  <IDNUMBER>
F3228-0188

>  <Chemical_Name>
5,7-dimethoxy-3-(2-methoxyphenyl)-4H-chromen-4-one

>  <PriceCoeff>
1.00

>  <MW>
312.32

>  <Description>
solid

>  <FSP3>
0.17

>  <clogP>
2.48

>  <TPSA>
53.99

>  <Acceptor>
5

>  <Donor>
0

>  <RotBonds>
4

>  <HAC>
23

>  <Collection>
General

$$$$
F3229-0031
  Mrv2219 10102508112D          

 29 31  0  0  0  0            999 V2000
    1.1293   -2.2044    0.0000 N   0  0  0  0  0  0  0  0  0  0  0  0
    1.8794   -1.7627    0.0000 C   0  0  0  0  0  0  0  0  0  0  0  0
    1.8794   -0.9376    0.0000 C   0  0  0  0  0  0  0  0  0  0  0  0
    0.4626   -1.7627    0.0000 C   0  0  0  0  0  0  0  0  0  0  0  0
    3.3045   -3.4128    0.0000 C   0  0  0  0  0  0  0  0  0  0  0  0
    1.8794   -3.4045    0.0000 C   0  0  0  0  0  0  0  0  0  0  0  0
    2.5545   -3.0296    0.0000 N   0  0  0  0  0  0  0  0  0  0  0  0
    1.1668   -2.9921    0.0000 C   0  0  0  0  0  0  0  0  0  0  0  0
    3.3045   -4.2380    0.0000 C   0  0  0  0  0  0  0  0  0  0  0  0
    4.0172   -3.0004    0.0000 C   0  0  0  0  0  0  0  0  0  0  0  0
    1.1668   -0.5168    0.0000 C   0  0  0  0  0  0  0  0  0  0  0  0
    2.6003   -2.1752    0.0000 O   0  0  0  0  0  0  0  0  0  0  0  0
    0.4626   -0.9376    0.0000 C   0  0  0  0  0  0  0  0  0  0  0  0
    4.7297   -3.4128    0.0000 C   0  0  0  0  0  0  0  0  0  0  0  0
    4.0172   -4.6505    0.0000 C   0  0  0  0  0  0  0  0  0  0  0  0
    1.8794   -0.1125    0.0000 C   0  0  0  0  0  0  0  0  0  0  0  0
   -0.2250   -2.1877    0.0000 O   0  0  0  0  0  0  0  0  0  0  0  0
    1.8794   -4.2297    0.0000 O   0  0  0  0  0  0  0  0  0  0  0  0
    4.7297   -4.2422    0.0000 C   0  0  0  0  0  0  0  0  0  0  0  0
    2.5920   -1.3502    0.0000 C   0  0  0  0  0  0  0  0  0  0  0  0
    2.5878   -4.6422    0.0000 C   0  0  0  0  0  0  0  0  0  0  0  0
    4.0172   -2.1752    0.0000 C   0  0  0  0  0  0  0  0  0  0  0  0
    2.5920    0.3084    0.0000 C   0  0  0  0  0  0  0  0  0  0  0  0
    1.1626    0.2959    0.0000 C   0  0  0  0  0  0  0  0  0  0  0  0
    5.4423   -4.6547    0.0000 C   0  0  0  0  0  0  0  0  0  0  0  0
    3.3045   -0.9293    0.0000 C   0  0  0  0  0  0  0  0  0  0  0  0
    2.5795    1.1334    0.0000 C   0  0  0  0  0  0  0  0  0  0  0  0
    1.1501    1.1126    0.0000 C   0  0  0  0  0  0  0  0  0  0  0  0
    1.8627    1.5377    0.0000 C   0  0  0  0  0  0  0  0  0  0  0  0
  2  1  1  0  0  0  0
  3  2  1  0  0  0  0
  4  1  1  0  0  0  0
  5  7  1  0  0  0  0
  6  8  1  0  0  0  0
  7  6  1  0  0  0  0
  8  1  1  0  0  0  0
  9  5  2  0  0  0  0
 10  5  1  0  0  0  0
 11 13  1  0  0  0  0
 12  2  2  0  0  0  0
 13  4  1  0  0  0  0
 14 10  2  0  0  0  0
 15  9  1  0  0  0  0
 16  3  1  0  0  0  0
 17  4  2  0  0  0  0
 18  6  2  0  0  0  0
 19 14  1  0  0  0  0
 20  3  1  0  0  0  0
 21  9  1  0  0  0  0
 22 10  1  0  0  0  0
 23 16  2  0  0  0  0
 24 16  1  0  0  0  0
 25 19  1  0  0  0  0
 26 20  1  0  0  0  0
 27 23  1  0  0  0  0
 28 24  2  0  0  0  0
 29 28  1  0  0  0  0
 11  3  1  0  0  0  0
 29 27  2  0  0  0  0
 19 15  2  0  0  0  0
M  END
>  <IDNUMBER>
F3229-0031

>  <Chemical_Name>
2-(3-ethyl-2,6-dioxo-3-phenylpiperidin-1-yl)-N-(2,4,6-trimethylphenyl)acetamide

>  <PriceCoeff>
1.00

>  <CAS>
923222-43-9

>  <MW>
392.49

>  <Description>
solid

>  <FSP3>
0.38

>  <clogP>
3.97

>  <TPSA>
66.48

>  <Acceptor>
3

>  <Donor>
1

>  <RotBonds>
5

>  <HAC>
29

>  <Collection>
General

>  <PPDS>
+

$$$$
F3229-0039
  Mrv2219 10102508112D          

 19 20  0  0  0  0            999 V2000
   -0.2122    0.6617    0.0000 N   0  0  0  0  0  0  0  0  0  0  0  0
   -0.3995   -0.1540    0.0000 C   0  0  0  0  0  0  0  0  0  0  0  0
   -0.8116    1.1112    0.0000 C   0  0  0  0  0  0  0  0  0  0  0  0
    1.2528    0.3329    0.0000 C   0  0  0  0  0  0  0  0  0  0  0  0
    0.6409    0.8823    0.0000 C   0  0  0  0  0  0  0  0  0  0  0  0
    2.0518    0.5951    0.0000 N   0  0  0  0  0  0  0  0  0  0  0  0
    4.0371   -0.2622    0.0000 C   0  0  0  0  0  0  0  0  0  0  0  0
    2.6512    0.0333    0.0000 C   0  0  0  0  0  0  0  0  0  0  0  0
   -1.4733    0.6325    0.0000 C   0  0  0  0  0  0  0  0  0  0  0  0
   -1.2236   -0.1540    0.0000 C   0  0  0  0  0  0  0  0  0  0  0  0
    3.4252    0.2871    0.0000 C   0  0  0  0  0  0  0  0  0  0  0  0
   -0.8199    1.9685    0.0000 O   0  0  0  0  0  0  0  0  0  0  0  0
    0.0791   -0.7907    0.0000 O   0  0  0  0  0  0  0  0  0  0  0  0
    3.8705   -1.0738    0.0000 C   0  0  0  0  0  0  0  0  0  0  0  0
    1.0780   -0.4786    0.0000 O   0  0  0  0  0  0  0  0  0  0  0  0
    3.0839   -1.3277    0.0000 C   0  0  0  0  0  0  0  0  0  0  0  0
    2.4722   -0.7741    0.0000 C   0  0  0  0  0  0  0  0  0  0  0  0
    4.8236   -0.0042    0.0000 C   0  0  0  0  0  0  0  0  0  0  0  0
    4.4823   -1.6231    0.0000 C   0  0  0  0  0  0  0  0  0  0  0  0
  2  1  1  0  0  0  0
  3  1  1  0  0  0  0
  4  5  1  0  0  0  0
  5  1  1  0  0  0  0
  6  4  1  0  0  0  0
  7 11  2  0  0  0  0
  8  6  1  0  0  0  0
  9  3  1  0  0  0  0
 10  2  1  0  0  0  0
 11  8  1  0  0  0  0
 12  3  2  0  0  0  0
 13  2  2  0  0  0  0
 14 16  2  0  0  0  0
 15  4  2  0  0  0  0
 16 17  1  0  0  0  0
 17  8  2  0  0  0  0
 18  7  1  0  0  0  0
 19 14  1  0  0  0  0
 10  9  1  0  0  0  0
 14  7  1  0  0  0  0
M  END
>  <IDNUMBER>
F3229-0039

>  <Chemical_Name>
N-(3,4-dimethylphenyl)-2-(2,5-dioxopyrrolidin-1-yl)acetamide

>  <PriceCoeff>
1.50

>  <CAS>
923113-53-5

>  <MW>
260.29

>  <Description>
solid

>  <FSP3>
0.36

>  <clogP>
1.56

>  <TPSA>
66.48

>  <Acceptor>
3

>  <Donor>
1

>  <RotBonds>
3

>  <HAC>
19

>  <Collection>
Advanced

>  <PPDS>
+

$$$$
F3229-0069
  Mrv2219 10102508112D          

 20 21  0  0  0  0            999 V2000
    3.3194   -2.5428    0.0000 C   0  0  0  0  0  0  0  0  0  0  0  0
    3.3194   -1.7160    0.0000 C   0  0  0  0  0  0  0  0  0  0  0  0
    2.6054   -2.9561    0.0000 N   0  0  0  0  0  0  0  0  0  0  0  0
    1.8831   -1.7160    0.0000 N   0  0  0  0  0  0  0  0  0  0  0  0
    1.8831   -2.5428    0.0000 C   0  0  0  0  0  0  0  0  0  0  0  0
    2.6054   -1.3027    0.0000 C   0  0  0  0  0  0  0  0  0  0  0  0
    4.1002   -2.7975    0.0000 N   0  0  0  0  0  0  0  0  0  0  0  0
    4.1002   -1.4572    0.0000 N   0  0  0  0  0  0  0  0  0  0  0  0
    4.5887   -2.1336    0.0000 C   0  0  0  0  0  0  0  0  0  0  0  0
    1.1649   -2.9603    0.0000 O   0  0  0  0  0  0  0  0  0  0  0  0
    2.6054   -0.4760    0.0000 O   0  0  0  0  0  0  0  0  0  0  0  0
    4.3590   -0.6681    0.0000 C   0  0  0  0  0  0  0  0  0  0  0  0
    2.6054   -3.7828    0.0000 C   0  0  0  0  0  0  0  0  0  0  0  0
    1.1649   -1.3027    0.0000 C   0  0  0  0  0  0  0  0  0  0  0  0
    5.3778    0.3089    0.0000 N   0  0  0  0  0  0  0  0  0  0  0  0
    5.1649   -0.4927    0.0000 C   0  0  0  0  0  0  0  0  0  0  0  0
    6.1753    0.5344    0.0000 C   0  0  0  0  0  0  0  0  0  0  0  0
    4.7891    0.8977    0.0000 C   0  0  0  0  0  0  0  0  0  0  0  0
    4.9978    1.6910    0.0000 C   0  0  0  0  0  0  0  0  0  0  0  0
    6.3799    1.3277    0.0000 C   0  0  0  0  0  0  0  0  0  0  0  0
  2  1  2  0  0  0  0
  3  1  1  0  0  0  0
  4  5  1  0  0  0  0
  5  3  1  0  0  0  0
  6  2  1  0  0  0  0
  7  1  1  0  0  0  0
  8  2  1  0  0  0  0
  9  7  2  0  0  0  0
 10  5  2  0  0  0  0
 11  6  2  0  0  0  0
 12  8  1  0  0  0  0
 13  3  1  0  0  0  0
 14  4  1  0  0  0  0
 15 16  1  0  0  0  0
 16 12  1  0  0  0  0
 17 15  1  0  0  0  0
 18 15  1  0  0  0  0
 19 18  1  0  0  0  0
 20 17  1  0  0  0  0
  9  8  1  0  0  0  0
  4  6  1  0  0  0  0
M  END
>  <IDNUMBER>
F3229-0069

>  <Chemical_Name>
7-[2-(diethylamino)ethyl]-1,3-dimethyl-2,3,6,7-tetrahydro-1H-purine-2,6-dione

>  <PriceCoeff>
1.00

>  <CAS>
314-35-2

>  <MW>
279.34

>  <Description>
solid

>  <FSP3>
0.62

>  <clogP>
1.14

>  <TPSA>
61.68

>  <Acceptor>
3

>  <Donor>
2

>  <RotBonds>
5

>  <HAC>
20

>  <Collection>
General

>  <PPDS>
+

$$$$
F3230-0004
  Mrv2219 10102508112D          

 21 22  0  0  0  0            999 V2000
    4.1002   -3.8246    0.0000 N   0  0  0  0  0  0  0  0  0  0  0  0
    3.2735   -3.8246    0.0000 N   0  0  0  0  0  0  0  0  0  0  0  0
    4.3507   -3.0355    0.0000 C   0  0  0  0  0  0  0  0  0  0  0  0
    3.6868   -2.5553    0.0000 C   0  0  0  0  0  0  0  0  0  0  0  0
    3.0104   -3.0355    0.0000 C   0  0  0  0  0  0  0  0  0  0  0  0
    4.6847   -4.4133    0.0000 C   0  0  0  0  0  0  0  0  0  0  0  0
    5.3987   -3.9958    0.0000 C   0  0  0  0  0  0  0  0  0  0  0  0
    5.9791   -4.5762    0.0000 C   0  0  0  0  0  0  0  0  0  0  0  0
    6.8058   -4.5762    0.0000 N   0  0  0  0  0  0  0  0  0  0  0  0
    3.6826   -1.7286    0.0000 Br  0  0  0  0  0  0  0  0  0  0  0  0
    5.7661   -5.3778    0.0000 O   0  0  0  0  0  0  0  0  0  0  0  0
    7.2191   -3.8622    0.0000 C   0  0  0  0  0  0  0  0  0  0  0  0
    5.0647   -2.6221    0.0000 C   0  0  0  0  0  0  0  0  0  0  0  0
    2.2088   -2.8225    0.0000 C   0  0  0  0  0  0  0  0  0  0  0  0
    8.0458   -2.4342    0.0000 C   0  0  0  0  0  0  0  0  0  0  0  0
    6.8058   -3.1565    0.0000 C   0  0  0  0  0  0  0  0  0  0  0  0
    8.0458   -3.8622    0.0000 C   0  0  0  0  0  0  0  0  0  0  0  0
    8.4592   -3.1482    0.0000 C   0  0  0  0  0  0  0  0  0  0  0  0
    7.2191   -2.4426    0.0000 C   0  0  0  0  0  0  0  0  0  0  0  0
    4.4634   -5.2108    0.0000 C   0  0  0  0  0  0  0  0  0  0  0  0
    8.4550   -1.7203    0.0000 C   0  0  0  0  0  0  0  0  0  0  0  0
  2  1  1  0  0  0  0
  3  1  1  0  0  0  0
  4  3  2  0  0  0  0
  5  2  2  0  0  0  0
  6  1  1  0  0  0  0
  7  6  1  0  0  0  0
  8  7  1  0  0  0  0
  9  8  1  0  0  0  0
 10  4  1  0  0  0  0
 11  8  2  0  0  0  0
 12  9  1  0  0  0  0
 13  3  1  0  0  0  0
 14  5  1  0  0  0  0
 15 18  2  0  0  0  0
 16 12  1  0  0  0  0
 17 12  2  0  0  0  0
 18 17  1  0  0  0  0
 19 16  2  0  0  0  0
 20  6  1  0  0  0  0
 21 15  1  0  0  0  0
  5  4  1  0  0  0  0
 15 19  1  0  0  0  0
M  END
>  <IDNUMBER>
F3230-0004

>  <Chemical_Name>
3-(4-bromo-3,5-dimethyl-1H-pyrazol-1-yl)-N-(4-methylphenyl)butanamide

>  <PriceCoeff>
1.00

>  <CAS>
890596-71-1

>  <MW>
350.25

>  <Description>
solid

>  <FSP3>
0.38

>  <clogP>
3.76

>  <TPSA>
46.92

>  <Acceptor>
2

>  <Donor>
1

>  <RotBonds>
4

>  <HAC>
21

>  <Collection>
General

>  <PPDS>
+

$$$$
F3230-0005
  Mrv2219 10102508112D          

 19 20  0  0  0  0            999 V2000
    4.5044   -3.8169    0.0000 N   0  0  0  0  0  0  0  0  0  0  0  0
    3.6794   -3.8169    0.0000 N   0  0  0  0  0  0  0  0  0  0  0  0
    4.7544   -3.0293    0.0000 C   0  0  0  0  0  0  0  0  0  0  0  0
    4.0918   -2.5418    0.0000 C   0  0  0  0  0  0  0  0  0  0  0  0
    3.4169   -3.0293    0.0000 C   0  0  0  0  0  0  0  0  0  0  0  0
    5.0878   -4.4002    0.0000 C   0  0  0  0  0  0  0  0  0  0  0  0
    5.8002   -3.9793    0.0000 C   0  0  0  0  0  0  0  0  0  0  0  0
    6.5128   -4.3919    0.0000 O   0  0  0  0  0  0  0  0  0  0  0  0
    4.0876   -1.7168    0.0000 Cl  0  0  0  0  0  0  0  0  0  0  0  0
    5.7919   -3.1543    0.0000 O   0  0  0  0  0  0  0  0  0  0  0  0
    7.2253   -3.9751    0.0000 C   0  0  0  0  0  0  0  0  0  0  0  0
    5.4670   -2.6126    0.0000 C   0  0  0  0  0  0  0  0  0  0  0  0
    8.6421   -3.1543    0.0000 C   0  0  0  0  0  0  0  0  0  0  0  0
    2.6168   -2.8126    0.0000 C   0  0  0  0  0  0  0  0  0  0  0  0
    9.3546   -2.7418    0.0000 Cl  0  0  0  0  0  0  0  0  0  0  0  0
    7.2253   -3.1543    0.0000 C   0  0  0  0  0  0  0  0  0  0  0  0
    7.9296   -4.3794    0.0000 C   0  0  0  0  0  0  0  0  0  0  0  0
    8.6421   -3.9793    0.0000 C   0  0  0  0  0  0  0  0  0  0  0  0
    7.9296   -2.7501    0.0000 C   0  0  0  0  0  0  0  0  0  0  0  0
  2  1  1  0  0  0  0
  3  1  1  0  0  0  0
  4  3  2  0  0  0  0
  5  2  2  0  0  0  0
  6  1  1  0  0  0  0
  7  6  1  0  0  0  0
  8  7  1  0  0  0  0
  9  4  1  0  0  0  0
 10  7  2  0  0  0  0
 11  8  1  0  0  0  0
 12  3  1  0  0  0  0
 13 18  2  0  0  0  0
 14  5  1  0  0  0  0
 15 13  1  0  0  0  0
 16 11  1  0  0  0  0
 17 11  2  0  0  0  0
 18 17  1  0  0  0  0
 19 16  2  0  0  0  0
  5  4  1  0  0  0  0
 19 13  1  0  0  0  0
M  END
>  <IDNUMBER>
F3230-0005

>  <Chemical_Name>
4-chlorophenyl 2-(4-chloro-3,5-dimethyl-1H-pyrazol-1-yl)acetate

>  <PriceCoeff>
1.00

>  <CAS>
890596-75-5

>  <MW>
299.15

>  <Description>
solid

>  <FSP3>
0.23

>  <clogP>
3.64

>  <TPSA>
44.12

>  <Acceptor>
3

>  <Donor>
0

>  <RotBonds>
4

>  <HAC>
19

>  <Collection>
General

>  <PPDS>
+

$$$$
F3230-0009
  Mrv2219 10102508112D          

 23 24  0  0  0  0            999 V2000
    3.7870   -4.3089    0.0000 N   0  0  0  0  0  0  0  0  0  0  0  0
    2.9603   -4.3089    0.0000 N   0  0  0  0  0  0  0  0  0  0  0  0
    3.3737   -3.0355    0.0000 C   0  0  0  0  0  0  0  0  0  0  0  0
    4.0376   -3.5198    0.0000 C   0  0  0  0  0  0  0  0  0  0  0  0
    2.6973   -3.5198    0.0000 C   0  0  0  0  0  0  0  0  0  0  0  0
    9.4738   -3.2317    0.0000 C   0  0  0  0  0  0  0  0  0  0  0  0
    5.9122   -4.4760    0.0000 C   0  0  0  0  0  0  0  0  0  0  0  0
    4.3715   -4.8893    0.0000 C   0  0  0  0  0  0  0  0  0  0  0  0
    5.1983   -4.8893    0.0000 C   0  0  0  0  0  0  0  0  0  0  0  0
    8.7598   -3.6492    0.0000 C   0  0  0  0  0  0  0  0  0  0  0  0
    3.3695   -2.2088    0.0000 Cl  0  0  0  0  0  0  0  0  0  0  0  0
    9.4738   -2.4050    0.0000 O   0  0  0  0  0  0  0  0  0  0  0  0
    6.6262   -4.8893    0.0000 O   0  0  0  0  0  0  0  0  0  0  0  0
    5.9039   -3.6492    0.0000 O   0  0  0  0  0  0  0  0  0  0  0  0
    8.0458   -3.2359    0.0000 C   0  0  0  0  0  0  0  0  0  0  0  0
    8.7598   -4.4717    0.0000 C   0  0  0  0  0  0  0  0  0  0  0  0
    7.3402   -4.4634    0.0000 C   0  0  0  0  0  0  0  0  0  0  0  0
    4.7515   -3.0981    0.0000 C   0  0  0  0  0  0  0  0  0  0  0  0
   10.1878   -3.6450    0.0000 O   0  0  0  0  0  0  0  0  0  0  0  0
    1.8956   -3.2985    0.0000 C   0  0  0  0  0  0  0  0  0  0  0  0
    8.0458   -4.8768    0.0000 C   0  0  0  0  0  0  0  0  0  0  0  0
    7.3402   -3.6492    0.0000 C   0  0  0  0  0  0  0  0  0  0  0  0
   10.9017   -3.2234    0.0000 C   0  0  0  0  0  0  0  0  0  0  0  0
  2  1  1  0  0  0  0
  3  4  2  0  0  0  0
  4  1  1  0  0  0  0
  5  2  2  0  0  0  0
  6 10  1  0  0  0  0
  7  9  1  0  0  0  0
  8  1  1  0  0  0  0
  9  8  1  0  0  0  0
 10 15  1  0  0  0  0
 11  3  1  0  0  0  0
 12  6  2  0  0  0  0
 13  7  1  0  0  0  0
 14  7  2  0  0  0  0
 15 22  2  0  0  0  0
 16 21  1  0  0  0  0
 17 13  1  0  0  0  0
 18  4  1  0  0  0  0
 19  6  1  0  0  0  0
 20  5  1  0  0  0  0
 21 17  2  0  0  0  0
 22 17  1  0  0  0  0
 23 19  1  0  0  0  0
  5  3  1  0  0  0  0
 10 16  2  0  0  0  0
M  END
>  <IDNUMBER>
F3230-0009

>  <Chemical_Name>
methyl 4-{[3-(4-chloro-3,5-dimethyl-1H-pyrazol-1-yl)propanoyl]oxy}benzoate

>  <PriceCoeff>
1.00

>  <CAS>
890596-87-9

>  <MW>
336.77

>  <Description>
solid

>  <FSP3>
0.31

>  <clogP>
3.28

>  <TPSA>
70.42

>  <Acceptor>
5

>  <Donor>
0

>  <RotBonds>
7

>  <HAC>
23

>  <Collection>
General

>  <PPDS>
+

$$$$
F3230-0010
  Mrv2219 10102508112D          

 23 24  0  0  0  0            999 V2000
    3.7870   -4.3089    0.0000 N   0  0  0  0  0  0  0  0  0  0  0  0
    2.9603   -4.3089    0.0000 N   0  0  0  0  0  0  0  0  0  0  0  0
    4.0376   -3.5198    0.0000 C   0  0  0  0  0  0  0  0  0  0  0  0
    3.3737   -3.0355    0.0000 C   0  0  0  0  0  0  0  0  0  0  0  0
    2.6973   -3.5198    0.0000 C   0  0  0  0  0  0  0  0  0  0  0  0
    4.3715   -4.8893    0.0000 C   0  0  0  0  0  0  0  0  0  0  0  0
    5.9122   -4.4760    0.0000 C   0  0  0  0  0  0  0  0  0  0  0  0
    5.1983   -4.8893    0.0000 C   0  0  0  0  0  0  0  0  0  0  0  0
    7.3402   -4.4634    0.0000 C   0  0  0  0  0  0  0  0  0  0  0  0
    6.6262   -4.8893    0.0000 N   0  0  0  0  0  0  0  0  0  0  0  0
    7.3402   -3.6492    0.0000 C   0  0  0  0  0  0  0  0  0  0  0  0
    8.0458   -4.8768    0.0000 C   0  0  0  0  0  0  0  0  0  0  0  0
    3.3695   -2.2088    0.0000 Cl  0  0  0  0  0  0  0  0  0  0  0  0
    5.9039   -3.6492    0.0000 O   0  0  0  0  0  0  0  0  0  0  0  0
    8.7598   -4.4717    0.0000 C   0  0  0  0  0  0  0  0  0  0  0  0
    8.0458   -3.2359    0.0000 C   0  0  0  0  0  0  0  0  0  0  0  0
    4.7515   -3.0981    0.0000 C   0  0  0  0  0  0  0  0  0  0  0  0
    1.8956   -3.2985    0.0000 C   0  0  0  0  0  0  0  0  0  0  0  0
    8.7598   -3.6492    0.0000 C   0  0  0  0  0  0  0  0  0  0  0  0
    8.0416   -2.4092    0.0000 Cl  0  0  0  0  0  0  0  0  0  0  0  0
    8.0458   -5.7035    0.0000 O   0  0  0  0  0  0  0  0  0  0  0  0
    3.9499   -5.6033    0.0000 C   0  0  0  0  0  0  0  0  0  0  0  0
    8.7598   -6.1169    0.0000 C   0  0  0  0  0  0  0  0  0  0  0  0
  2  1  1  0  0  0  0
  3  1  1  0  0  0  0
  4  3  2  0  0  0  0
  5  2  2  0  0  0  0
  6  1  1  0  0  0  0
  7  8  1  0  0  0  0
  8  6  1  0  0  0  0
  9 10  1  0  0  0  0
 10  7  1  0  0  0  0
 11  9  1  0  0  0  0
 12  9  2  0  0  0  0
 13  4  1  0  0  0  0
 14  7  2  0  0  0  0
 15 12  1  0  0  0  0
 16 11  2  0  0  0  0
 17  3  1  0  0  0  0
 18  5  1  0  0  0  0
 19 15  2  0  0  0  0
 20 16  1  0  0  0  0
 21 12  1  0  0  0  0
 22  6  1  0  0  0  0
 23 21  1  0  0  0  0
  5  4  1  0  0  0  0
 16 19  1  0  0  0  0
M  END
>  <IDNUMBER>
F3230-0010

>  <Chemical_Name>
N-(5-chloro-2-methoxyphenyl)-3-(4-chloro-3,5-dimethyl-1H-pyrazol-1-yl)butanamide

>  <PriceCoeff>
1.00

>  <CAS>
890596-90-4

>  <MW>
356.25

>  <Description>
solid

>  <FSP3>
0.38

>  <clogP>
3.51

>  <TPSA>
56.15

>  <Acceptor>
3

>  <Donor>
1

>  <RotBonds>
5

>  <HAC>
23

>  <Collection>
General

>  <PPDS>
+

$$$$
F3230-0012
  Mrv2219 10102508112D          

 29 31  0  0  0  0            999 V2000
    4.1917   -3.7542    0.0000 N   0  0  0  0  0  0  0  0  0  0  0  0
    9.4917   -4.3375    0.0000 S   0  0  0  0  0  0  0  0  0  0  0  0
    3.3667   -3.7542    0.0000 N   0  0  0  0  0  0  0  0  0  0  0  0
    4.4500   -2.9667    0.0000 C   0  0  0  0  0  0  0  0  0  0  0  0
    3.7792   -2.4792    0.0000 C   0  0  0  0  0  0  0  0  0  0  0  0
    3.1125   -2.9667    0.0000 C   0  0  0  0  0  0  0  0  0  0  0  0
    8.6667   -4.3375    0.0000 N   0  0  0  0  0  0  0  0  0  0  0  0
    6.3167   -3.9167    0.0000 C   0  0  0  0  0  0  0  0  0  0  0  0
    5.6042   -4.3375    0.0000 C   0  0  0  0  0  0  0  0  0  0  0  0
    7.0292   -4.3292    0.0000 N   0  0  0  0  0  0  0  0  0  0  0  0
    4.7792   -4.3375    0.0000 C   0  0  0  0  0  0  0  0  0  0  0  0
   10.3167   -4.3375    0.0000 C   0  0  0  0  0  0  0  0  0  0  0  0
    9.4875   -3.5125    0.0000 O   0  0  0  0  0  0  0  0  0  0  0  0
    9.4875   -5.1625    0.0000 O   0  0  0  0  0  0  0  0  0  0  0  0
    8.2542   -3.6250    0.0000 C   0  0  0  0  0  0  0  0  0  0  0  0
    8.2542   -5.0417    0.0000 C   0  0  0  0  0  0  0  0  0  0  0  0
    7.4375   -3.6167    0.0000 C   0  0  0  0  0  0  0  0  0  0  0  0
    7.4375   -5.0417    0.0000 C   0  0  0  0  0  0  0  0  0  0  0  0
    6.3125   -3.0917    0.0000 O   0  0  0  0  0  0  0  0  0  0  0  0
    3.7792   -1.6542    0.0000 Cl  0  0  0  0  0  0  0  0  0  0  0  0
   10.7250   -3.6292    0.0000 C   0  0  0  0  0  0  0  0  0  0  0  0
   10.7167   -5.0500    0.0000 C   0  0  0  0  0  0  0  0  0  0  0  0
    5.1625   -2.5500    0.0000 C   0  0  0  0  0  0  0  0  0  0  0  0
    2.3125   -2.7500    0.0000 C   0  0  0  0  0  0  0  0  0  0  0  0
   11.5375   -5.0500    0.0000 C   0  0  0  0  0  0  0  0  0  0  0  0
   11.5375   -3.6292    0.0000 C   0  0  0  0  0  0  0  0  0  0  0  0
   11.9500   -4.3417    0.0000 C   0  0  0  0  0  0  0  0  0  0  0  0
    4.3625   -5.0500    0.0000 C   0  0  0  0  0  0  0  0  0  0  0  0
   12.7750   -4.3417    0.0000 C   0  0  0  0  0  0  0  0  0  0  0  0
  2  7  1  0  0  0  0
  3  1  1  0  0  0  0
  4  1  1  0  0  0  0
  5  4  2  0  0  0  0
  6  3  2  0  0  0  0
  7 16  1  0  0  0  0
  8  9  1  0  0  0  0
  9 11  1  0  0  0  0
 10  8  1  0  0  0  0
 11  1  1  0  0  0  0
 12  2  1  0  0  0  0
 13  2  2  0  0  0  0
 14  2  2  0  0  0  0
 15 17  1  0  0  0  0
 16 18  1  0  0  0  0
 17 10  1  0  0  0  0
 18 10  1  0  0  0  0
 19  8  2  0  0  0  0
 20  5  1  0  0  0  0
 21 12  1  0  0  0  0
 22 12  2  0  0  0  0
 23  4  1  0  0  0  0
 24  6  1  0  0  0  0
 25 22  1  0  0  0  0
 26 21  2  0  0  0  0
 27 25  2  0  0  0  0
 28 11  1  0  0  0  0
 29 27  1  0  0  0  0
  6  5  1  0  0  0  0
 15  7  1  0  0  0  0
 26 27  1  0  0  0  0
M  END
>  <IDNUMBER>
F3230-0012

>  <Chemical_Name>
3-(4-chloro-3,5-dimethyl-1H-pyrazol-1-yl)-1-[4-(4-methylbenzenesulfonyl)piperazin-1-yl]butan-1-one

>  <PriceCoeff>
1.00

>  <CAS>
890596-96-0

>  <MW>
438.97

>  <Description>
solid

>  <FSP3>
0.50

>  <clogP>
3.80

>  <TPSA>
83.89

>  <Acceptor>
4

>  <Donor>
0

>  <RotBonds>
6

>  <HAC>
29

>  <Collection>
General

>  <PPDS>
+

$$$$
F3230-0014
  Mrv2219 10102508112D          

 22 23  0  0  0  0            999 V2000
    4.1917   -3.7542    0.0000 N   0  0  0  0  0  0  0  0  0  0  0  0
    3.3667   -3.7542    0.0000 N   0  0  0  0  0  0  0  0  0  0  0  0
    3.7792   -2.4792    0.0000 C   0  0  0  0  0  0  0  0  0  0  0  0
    4.4500   -2.9667    0.0000 C   0  0  0  0  0  0  0  0  0  0  0  0
    3.1125   -2.9667    0.0000 C   0  0  0  0  0  0  0  0  0  0  0  0
    7.7417   -3.9125    0.0000 C   0  0  0  0  0  0  0  0  0  0  0  0
    7.0292   -4.3292    0.0000 N   0  0  0  0  0  0  0  0  0  0  0  0
    6.3167   -3.9167    0.0000 C   0  0  0  0  0  0  0  0  0  0  0  0
    5.6042   -4.3375    0.0000 C   0  0  0  0  0  0  0  0  0  0  0  0
    4.7792   -4.3375    0.0000 C   0  0  0  0  0  0  0  0  0  0  0  0
    7.7417   -3.0917    0.0000 C   0  0  0  0  0  0  0  0  0  0  0  0
    8.4500   -4.3167    0.0000 C   0  0  0  0  0  0  0  0  0  0  0  0
    3.7792   -1.6542    0.0000 Cl  0  0  0  0  0  0  0  0  0  0  0  0
    6.3125   -3.0917    0.0000 O   0  0  0  0  0  0  0  0  0  0  0  0
    9.1625   -3.9167    0.0000 C   0  0  0  0  0  0  0  0  0  0  0  0
    8.4417   -2.6875    0.0000 C   0  0  0  0  0  0  0  0  0  0  0  0
    5.1625   -2.5500    0.0000 C   0  0  0  0  0  0  0  0  0  0  0  0
    9.1625   -3.0917    0.0000 C   0  0  0  0  0  0  0  0  0  0  0  0
    2.3125   -2.7500    0.0000 C   0  0  0  0  0  0  0  0  0  0  0  0
    8.4417   -1.8625    0.0000 Cl  0  0  0  0  0  0  0  0  0  0  0  0
    8.4417   -5.1500    0.0000 O   0  0  0  0  0  0  0  0  0  0  0  0
    9.1542   -5.5625    0.0000 C   0  0  0  0  0  0  0  0  0  0  0  0
  2  1  1  0  0  0  0
  3  4  2  0  0  0  0
  4  1  1  0  0  0  0
  5  2  2  0  0  0  0
  6  7  1  0  0  0  0
  7  8  1  0  0  0  0
  8  9  1  0  0  0  0
  9 10  1  0  0  0  0
 10  1  1  0  0  0  0
 11  6  1  0  0  0  0
 12  6  2  0  0  0  0
 13  3  1  0  0  0  0
 14  8  2  0  0  0  0
 15 12  1  0  0  0  0
 16 11  2  0  0  0  0
 17  4  1  0  0  0  0
 18 15  2  0  0  0  0
 19  5  1  0  0  0  0
 20 16  1  0  0  0  0
 21 12  1  0  0  0  0
 22 21  1  0  0  0  0
  5  3  1  0  0  0  0
 16 18  1  0  0  0  0
M  END
>  <IDNUMBER>
F3230-0014

>  <Chemical_Name>
N-(5-chloro-2-methoxyphenyl)-3-(4-chloro-3,5-dimethyl-1H-pyrazol-1-yl)propanamide

>  <PriceCoeff>
1.50

>  <CAS>
890597-02-1

>  <MW>
342.22

>  <Description>
solid

>  <FSP3>
0.33

>  <clogP>
3.20

>  <TPSA>
56.15

>  <Acceptor>
3

>  <Donor>
1

>  <RotBonds>
5

>  <HAC>
22

>  <Collection>
Advanced

>  <PPDS>
+

$$$$
F3230-0020
  Mrv2219 10102508112D          

 22 23  0  0  0  0            999 V2000
    4.1948   -3.9572    0.0000 N   0  0  0  0  0  0  0  0  0  0  0  0
    3.3692   -3.9572    0.0000 N   0  0  0  0  0  0  0  0  0  0  0  0
    4.4533   -3.1691    0.0000 C   0  0  0  0  0  0  0  0  0  0  0  0
    3.7820   -2.6895    0.0000 C   0  0  0  0  0  0  0  0  0  0  0  0
    3.1148   -3.1691    0.0000 C   0  0  0  0  0  0  0  0  0  0  0  0
    4.7828   -4.5451    0.0000 C   0  0  0  0  0  0  0  0  0  0  0  0
    6.3214   -4.1281    0.0000 C   0  0  0  0  0  0  0  0  0  0  0  0
    5.6084   -4.5451    0.0000 C   0  0  0  0  0  0  0  0  0  0  0  0
    7.7475   -4.1198    0.0000 C   0  0  0  0  0  0  0  0  0  0  0  0
    7.0345   -4.5409    0.0000 N   0  0  0  0  0  0  0  0  0  0  0  0
    7.7475   -3.3025    0.0000 C   0  0  0  0  0  0  0  0  0  0  0  0
    8.4563   -4.5326    0.0000 C   0  0  0  0  0  0  0  0  0  0  0  0
    3.7820   -1.8639    0.0000 Cl  0  0  0  0  0  0  0  0  0  0  0  0
    6.3172   -3.3025    0.0000 O   0  0  0  0  0  0  0  0  0  0  0  0
    9.1694   -4.1198    0.0000 C   0  0  0  0  0  0  0  0  0  0  0  0
    8.4480   -2.8939    0.0000 C   0  0  0  0  0  0  0  0  0  0  0  0
    5.1664   -2.7563    0.0000 C   0  0  0  0  0  0  0  0  0  0  0  0
    2.3142   -2.9564    0.0000 C   0  0  0  0  0  0  0  0  0  0  0  0
    9.1694   -3.3025    0.0000 C   0  0  0  0  0  0  0  0  0  0  0  0
    8.4480   -2.0682    0.0000 Cl  0  0  0  0  0  0  0  0  0  0  0  0
    4.1948   -5.1288    0.0000 C   0  0  0  0  0  0  0  0  0  0  0  0
    8.4480   -5.3582    0.0000 C   0  0  0  0  0  0  0  0  0  0  0  0
  2  1  1  0  0  0  0
  3  1  1  0  0  0  0
  4  3  2  0  0  0  0
  5  2  2  0  0  0  0
  6  1  1  0  0  0  0
  7  8  1  0  0  0  0
  8  6  1  0  0  0  0
  9 10  1  0  0  0  0
 10  7  1  0  0  0  0
 11  9  1  0  0  0  0
 12  9  2  0  0  0  0
 13  4  1  0  0  0  0
 14  7  2  0  0  0  0
 15 12  1  0  0  0  0
 16 11  2  0  0  0  0
 17  3  1  0  0  0  0
 18  5  1  0  0  0  0
 19 15  2  0  0  0  0
 20 16  1  0  0  0  0
 21  6  1  0  0  0  0
 22 12  1  0  0  0  0
  5  4  1  0  0  0  0
 16 19  1  0  0  0  0
M  END
>  <IDNUMBER>
F3230-0020

>  <Chemical_Name>
N-(5-chloro-2-methylphenyl)-3-(4-chloro-3,5-dimethyl-1H-pyrazol-1-yl)butanamide

>  <PriceCoeff>
1.50

>  <CAS>
890597-20-3

>  <MW>
340.25

>  <Description>
solid

>  <FSP3>
0.38

>  <clogP>
3.93

>  <TPSA>
46.92

>  <Acceptor>
2

>  <Donor>
1

>  <RotBonds>
4

>  <HAC>
22

>  <Collection>
Advanced

>  <PPDS>
+

$$$$
F3230-0028
  Mrv2219 10102508112D          

 30 32  0  0  0  0            999 V2000
   10.6262   -4.4760    0.0000 S   0  0  0  0  0  0  0  0  0  0  0  0
    6.1502   -3.0605    0.0000 N   0  0  0  0  0  0  0  0  0  0  0  0
    5.3235   -3.0605    0.0000 N   0  0  0  0  0  0  0  0  0  0  0  0
    6.4049   -2.2714    0.0000 C   0  0  0  0  0  0  0  0  0  0  0  0
    5.7369   -1.7912    0.0000 C   0  0  0  0  0  0  0  0  0  0  0  0
    5.0647   -2.2714    0.0000 C   0  0  0  0  0  0  0  0  0  0  0  0
    9.7995   -4.4760    0.0000 N   0  0  0  0  0  0  0  0  0  0  0  0
   11.4529   -4.4760    0.0000 C   0  0  0  0  0  0  0  0  0  0  0  0
    7.4446   -4.8893    0.0000 C   0  0  0  0  0  0  0  0  0  0  0  0
    6.7306   -4.4760    0.0000 C   0  0  0  0  0  0  0  0  0  0  0  0
    8.1586   -4.4717    0.0000 N   0  0  0  0  0  0  0  0  0  0  0  0
    6.7306   -3.6492    0.0000 C   0  0  0  0  0  0  0  0  0  0  0  0
   11.8620   -3.7703    0.0000 C   0  0  0  0  0  0  0  0  0  0  0  0
   10.6220   -3.6492    0.0000 O   0  0  0  0  0  0  0  0  0  0  0  0
   10.6220   -5.3027    0.0000 O   0  0  0  0  0  0  0  0  0  0  0  0
    9.3861   -3.7620    0.0000 C   0  0  0  0  0  0  0  0  0  0  0  0
    9.3861   -5.1857    0.0000 C   0  0  0  0  0  0  0  0  0  0  0  0
   11.8537   -5.1899    0.0000 C   0  0  0  0  0  0  0  0  0  0  0  0
    8.5677   -3.7578    0.0000 C   0  0  0  0  0  0  0  0  0  0  0  0
    8.5677   -5.1857    0.0000 C   0  0  0  0  0  0  0  0  0  0  0  0
    7.4404   -5.7160    0.0000 O   0  0  0  0  0  0  0  0  0  0  0  0
   12.6762   -3.7703    0.0000 C   0  0  0  0  0  0  0  0  0  0  0  0
    5.7285   -0.9645    0.0000 Br  0  0  0  0  0  0  0  0  0  0  0  0
    7.1189   -1.8580    0.0000 C   0  0  0  0  0  0  0  0  0  0  0  0
   12.6762   -5.1899    0.0000 C   0  0  0  0  0  0  0  0  0  0  0  0
   13.0896   -4.4843    0.0000 C   0  0  0  0  0  0  0  0  0  0  0  0
    4.2630   -2.0585    0.0000 C   0  0  0  0  0  0  0  0  0  0  0  0
   11.4404   -3.0480    0.0000 C   0  0  0  0  0  0  0  0  0  0  0  0
    7.4446   -3.2317    0.0000 C   0  0  0  0  0  0  0  0  0  0  0  0
   13.9163   -4.4843    0.0000 C   0  0  0  0  0  0  0  0  0  0  0  0
  2 12  1  0  0  0  0
  3  2  1  0  0  0  0
  4  2  1  0  0  0  0
  5  4  2  0  0  0  0
  6  3  2  0  0  0  0
  7  1  1  0  0  0  0
  8  1  1  0  0  0  0
  9 11  1  0  0  0  0
 10  9  1  0  0  0  0
 11 20  1  0  0  0  0
 12 10  1  0  0  0  0
 13  8  1  0  0  0  0
 14  1  2  0  0  0  0
 15  1  2  0  0  0  0
 16  7  1  0  0  0  0
 17  7  1  0  0  0  0
 18  8  2  0  0  0  0
 19 16  1  0  0  0  0
 20 17  1  0  0  0  0
 21  9  2  0  0  0  0
 22 13  2  0  0  0  0
 23  5  1  0  0  0  0
 24  4  1  0  0  0  0
 25 18  1  0  0  0  0
 26 25  2  0  0  0  0
 27  6  1  0  0  0  0
 28 13  1  0  0  0  0
 29 12  1  0  0  0  0
 30 26  1  0  0  0  0
 11 19  1  0  0  0  0
 22 26  1  0  0  0  0
  6  5  1  0  0  0  0
M  END
>  <IDNUMBER>
F3230-0028

>  <Chemical_Name>
3-(4-bromo-3,5-dimethyl-1H-pyrazol-1-yl)-1-[4-(2,4-dimethylbenzenesulfonyl)piperazin-1-yl]butan-1-one

>  <PriceCoeff>
1.00

>  <CAS>
890597-46-3

>  <MW>
497.45

>  <Description>
solid

>  <FSP3>
0.52

>  <clogP>
4.44

>  <TPSA>
83.89

>  <Acceptor>
4

>  <Donor>
0

>  <RotBonds>
6

>  <HAC>
30

>  <Collection>
General

>  <PPDS>
+

$$$$
F3230-0044
  Mrv2219 10102508112D          

 25 27  0  0  0  0            999 V2000
    2.2125    0.1708    0.0000 N   0  0  0  0  0  0  0  0  0  0  0  0
    1.4625   -0.1542    0.0000 N   0  0  0  0  0  0  0  0  0  0  0  0
    2.1292    0.9958    0.0000 C   0  0  0  0  0  0  0  0  0  0  0  0
    1.3167    1.1708    0.0000 C   0  0  0  0  0  0  0  0  0  0  0  0
    0.9042    0.4583    0.0000 C   0  0  0  0  0  0  0  0  0  0  0  0
    7.2125   -0.2375    0.0000 C   0  0  0  0  0  0  0  0  0  0  0  0
    7.9292   -1.4792    0.0000 C   0  0  0  0  0  0  0  0  0  0  0  0
    7.9292    0.1833    0.0000 O   0  0  0  0  0  0  0  0  0  0  0  0
    8.6500   -0.2375    0.0000 C   0  0  0  0  0  0  0  0  0  0  0  0
    7.2042   -1.0667    0.0000 C   0  0  0  0  0  0  0  0  0  0  0  0
    8.6500   -1.0667    0.0000 C   0  0  0  0  0  0  0  0  0  0  0  0
    2.9250   -0.2417    0.0000 C   0  0  0  0  0  0  0  0  0  0  0  0
    6.4917    0.1750    0.0000 C   0  0  0  0  0  0  0  0  0  0  0  0
    6.4917   -1.4792    0.0000 C   0  0  0  0  0  0  0  0  0  0  0  0
    9.3667    0.1708    0.0000 O   0  0  0  0  0  0  0  0  0  0  0  0
    0.9875    1.9208    0.0000 Cl  0  0  0  0  0  0  0  0  0  0  0  0
    3.6417    0.1708    0.0000 C   0  0  0  0  0  0  0  0  0  0  0  0
    5.7792   -0.2375    0.0000 C   0  0  0  0  0  0  0  0  0  0  0  0
    5.0667    0.1708    0.0000 O   0  0  0  0  0  0  0  0  0  0  0  0
    5.7792   -1.0667    0.0000 C   0  0  0  0  0  0  0  0  0  0  0  0
    2.7417    1.5458    0.0000 C   0  0  0  0  0  0  0  0  0  0  0  0
    4.3542   -0.2417    0.0000 C   0  0  0  0  0  0  0  0  0  0  0  0
    0.0875    0.3708    0.0000 C   0  0  0  0  0  0  0  0  0  0  0  0
    7.9292   -2.3042    0.0000 C   0  0  0  0  0  0  0  0  0  0  0  0
    3.6417    0.9958    0.0000 O   0  0  0  0  0  0  0  0  0  0  0  0
  2  1  1  0  0  0  0
  3  1  1  0  0  0  0
  4  3  2  0  0  0  0
  5  2  2  0  0  0  0
  6 13  2  0  0  0  0
  7 10  1  0  0  0  0
  8  6  1  0  0  0  0
  9  8  1  0  0  0  0
 10 14  2  0  0  0  0
 11  7  2  0  0  0  0
 12  1  1  0  0  0  0
 13 18  1  0  0  0  0
 14 20  1  0  0  0  0
 15  9  2  0  0  0  0
 16  4  1  0  0  0  0
 17 12  1  0  0  0  0
 18 19  1  0  0  0  0
 19 22  1  0  0  0  0
 20 18  2  0  0  0  0
 21  3  1  0  0  0  0
 22 17  1  0  0  0  0
 23  5  1  0  0  0  0
 24  7  1  0  0  0  0
 25 17  1  0  0  0  0
  5  4  1  0  0  0  0
 10  6  1  0  0  0  0
  9 11  1  0  0  0  0
M  END
>  <IDNUMBER>
F3230-0044

>  <Chemical_Name>
7-[3-(4-chloro-3,5-dimethyl-1H-pyrazol-1-yl)-2-hydroxypropoxy]-4-methyl-2H-chromen-2-one

>  <PriceCoeff>
1.00

>  <CAS>
890598-07-9

>  <MW>
362.81

>  <Description>
solid

>  <FSP3>
0.33

>  <clogP>
2.82

>  <TPSA>
73.58

>  <Acceptor>
5

>  <Donor>
1

>  <RotBonds>
5

>  <HAC>
25

>  <Collection>
General

>  <PPDS>
+

$$$$
F3230-0069
  Mrv2219 10102508112D          

 20 21  0  0  0  0            999 V2000
    4.0875    0.0083    0.0000 N   0  0  0  0  0  0  0  0  0  0  0  0
    3.8378   -0.7784    0.0000 N   0  0  0  0  0  0  0  0  0  0  0  0
    2.7514    0.0083    0.0000 C   0  0  0  0  0  0  0  0  0  0  0  0
    3.4215    0.4952    0.0000 C   0  0  0  0  0  0  0  0  0  0  0  0
    3.0136   -0.7784    0.0000 C   0  0  0  0  0  0  0  0  0  0  0  0
    6.1604   -0.7035    0.0000 C   0  0  0  0  0  0  0  0  0  0  0  0
    4.9200    0.0083    0.0000 C   0  0  0  0  0  0  0  0  0  0  0  0
    5.3320   -0.7035    0.0000 C   0  0  0  0  0  0  0  0  0  0  0  0
    6.5683   -1.4235    0.0000 N   0  0  0  0  0  0  0  0  0  0  0  0
    1.9647    0.2580    0.0000 Br  0  0  0  0  0  0  0  0  0  0  0  0
    6.5683    0.0125    0.0000 O   0  0  0  0  0  0  0  0  0  0  0  0
    7.3925   -1.4277    0.0000 C   0  0  0  0  0  0  0  0  0  0  0  0
    3.4215    1.3236    0.0000 C   0  0  0  0  0  0  0  0  0  0  0  0
    9.0325   -1.4360    0.0000 C   0  0  0  0  0  0  0  0  0  0  0  0
    2.5224   -1.4527    0.0000 C   0  0  0  0  0  0  0  0  0  0  0  0
    9.8566   -1.4402    0.0000 F   0  0  0  0  0  0  0  0  0  0  0  0
    7.7962   -0.7160    0.0000 C   0  0  0  0  0  0  0  0  0  0  0  0
    7.7962   -2.1395    0.0000 C   0  0  0  0  0  0  0  0  0  0  0  0
    8.6204   -2.1478    0.0000 C   0  0  0  0  0  0  0  0  0  0  0  0
    8.6204   -0.7160    0.0000 C   0  0  0  0  0  0  0  0  0  0  0  0
  2  1  1  0  0  0  0
  3  4  2  0  0  0  0
  4  1  1  0  0  0  0
  5  2  2  0  0  0  0
  6  8  1  0  0  0  0
  7  1  1  0  0  0  0
  8  7  1  0  0  0  0
  9  6  1  0  0  0  0
 10  3  1  0  0  0  0
 11  6  2  0  0  0  0
 12  9  1  0  0  0  0
 13  4  1  0  0  0  0
 14 19  2  0  0  0  0
 15  5  1  0  0  0  0
 16 14  1  0  0  0  0
 17 12  1  0  0  0  0
 18 12  2  0  0  0  0
 19 18  1  0  0  0  0
 20 17  2  0  0  0  0
  3  5  1  0  0  0  0
 20 14  1  0  0  0  0
M  END
>  <IDNUMBER>
F3230-0069

>  <Chemical_Name>
3-(4-bromo-3,5-dimethyl-1H-pyrazol-1-yl)-N-(4-fluorophenyl)propanamide

>  <PriceCoeff>
1.00

>  <CAS>
890598-69-3

>  <MW>
340.19

>  <Description>
solid

>  <FSP3>
0.29

>  <clogP>
3.35

>  <TPSA>
46.92

>  <Acceptor>
2

>  <Donor>
1

>  <RotBonds>
4

>  <HAC>
20

>  <Collection>
General

>  <PPDS>
+

$$$$
F3230-0073
  Mrv2219 10102508112D          

 22 23  0  0  0  0            999 V2000
    1.1661    0.0000    0.0000 N   0  0  0  0  0  0  0  0  0  0  0  0
    0.9162   -0.7871    0.0000 N   0  0  0  0  0  0  0  0  0  0  0  0
   -0.1707    0.0000    0.0000 C   0  0  0  0  0  0  0  0  0  0  0  0
    0.4915    0.4873    0.0000 C   0  0  0  0  0  0  0  0  0  0  0  0
    0.0875   -0.7913    0.0000 C   0  0  0  0  0  0  0  0  0  0  0  0
    3.2359   -0.7163    0.0000 C   0  0  0  0  0  0  0  0  0  0  0  0
    1.9907    0.0000    0.0000 C   0  0  0  0  0  0  0  0  0  0  0  0
    2.4030   -0.7163    0.0000 C   0  0  0  0  0  0  0  0  0  0  0  0
    5.7014   -0.7288    0.0000 C   0  0  0  0  0  0  0  0  0  0  0  0
    3.6399   -1.4285    0.0000 N   0  0  0  0  0  0  0  0  0  0  0  0
    6.1137   -0.0125    0.0000 C   0  0  0  0  0  0  0  0  0  0  0  0
    4.8768   -0.7246    0.0000 C   0  0  0  0  0  0  0  0  0  0  0  0
    4.4645   -1.4368    0.0000 C   0  0  0  0  0  0  0  0  0  0  0  0
   -0.9620    0.2499    0.0000 Br  0  0  0  0  0  0  0  0  0  0  0  0
    3.6399    0.0083    0.0000 O   0  0  0  0  0  0  0  0  0  0  0  0
    5.7014    0.6997    0.0000 O   0  0  0  0  0  0  0  0  0  0  0  0
    0.4915    1.3202    0.0000 C   0  0  0  0  0  0  0  0  0  0  0  0
   -0.3998   -1.4618    0.0000 C   0  0  0  0  0  0  0  0  0  0  0  0
    6.1137   -1.4410    0.0000 C   0  0  0  0  0  0  0  0  0  0  0  0
    5.6972   -2.1531    0.0000 C   0  0  0  0  0  0  0  0  0  0  0  0
    4.8726   -2.1531    0.0000 C   0  0  0  0  0  0  0  0  0  0  0  0
    6.9383   -0.0167    0.0000 C   0  0  0  0  0  0  0  0  0  0  0  0
  2  1  1  0  0  0  0
  3  4  2  0  0  0  0
  4  1  1  0  0  0  0
  5  2  2  0  0  0  0
  6  8  1  0  0  0  0
  7  1  1  0  0  0  0
  8  7  1  0  0  0  0
  9 12  2  0  0  0  0
 10  6  1  0  0  0  0
 11  9  1  0  0  0  0
 12 13  1  0  0  0  0
 13 10  1  0  0  0  0
 14  3  1  0  0  0  0
 15  6  2  0  0  0  0
 16 11  2  0  0  0  0
 17  4  1  0  0  0  0
 18  5  1  0  0  0  0
 19 20  2  0  0  0  0
 20 21  1  0  0  0  0
 21 13  2  0  0  0  0
 22 11  1  0  0  0  0
  3  5  1  0  0  0  0
  9 19  1  0  0  0  0
M  END
>  <IDNUMBER>
F3230-0073

>  <Chemical_Name>
N-(3-acetylphenyl)-3-(4-bromo-3,5-dimethyl-1H-pyrazol-1-yl)propanamide

>  <PriceCoeff>
1.50

>  <CAS>
890598-81-9

>  <MW>
364.24

>  <Description>
solid

>  <FSP3>
0.31

>  <clogP>
2.86

>  <TPSA>
63.99

>  <Acceptor>
3

>  <Donor>
1

>  <RotBonds>
5

>  <HAC>
22

>  <Collection>
Advanced

>  <PPDS>
+

$$$$
F3234-0943
  Mrv2219 10102508112D          

 18 20  0  0  0  0            999 V2000
    5.6189   -2.2868    0.0000 C   0  0  0  0  0  0  0  0  0  0  0  0
    5.6103   -1.4810    0.0000 C   0  0  0  0  0  0  0  0  0  0  0  0
    6.3420   -2.6963    0.0000 N   0  0  0  0  0  0  0  0  0  0  0  0
    7.0563   -1.4635    0.0000 N   0  0  0  0  0  0  0  0  0  0  0  0
    7.0607   -2.2868    0.0000 C   0  0  0  0  0  0  0  0  0  0  0  0
    4.9177   -2.7049    0.0000 N   0  0  0  0  0  0  0  0  0  0  0  0
    4.1946   -1.4374    0.0000 N   0  0  0  0  0  0  0  0  0  0  0  0
    4.1946   -2.2868    0.0000 C   0  0  0  0  0  0  0  0  0  0  0  0
    4.9177   -1.0367    0.0000 C   0  0  0  0  0  0  0  0  0  0  0  0
    7.7794   -2.6919    0.0000 N   0  0  0  0  0  0  0  0  0  0  0  0
    8.4851   -1.4549    0.0000 C   0  0  0  0  0  0  0  0  0  0  0  0
    8.4851   -2.2781    0.0000 C   0  0  0  0  0  0  0  0  0  0  0  0
    3.4672   -2.7441    0.0000 O   0  0  0  0  0  0  0  0  0  0  0  0
    4.9177   -0.2135    0.0000 O   0  0  0  0  0  0  0  0  0  0  0  0
    3.3627   -1.2153    0.0000 C   0  0  0  0  0  0  0  0  0  0  0  0
    4.9177   -3.5282    0.0000 C   0  0  0  0  0  0  0  0  0  0  0  0
    9.2386   -2.7049    0.0000 C   0  0  0  0  0  0  0  0  0  0  0  0
    3.1405   -0.3833    0.0000 C   0  0  0  0  0  0  0  0  0  0  0  0
  2  1  2  0  0  0  0
  3  1  1  0  0  0  0
  4  2  1  0  0  0  0
  5  3  2  0  0  0  0
  6  1  1  0  0  0  0
  7  8  1  0  0  0  0
  8  6  1  0  0  0  0
  9  2  1  0  0  0  0
 10  5  1  0  0  0  0
 11  4  1  0  0  0  0
 12 10  1  0  0  0  0
 13  8  2  0  0  0  0
 14  9  2  0  0  0  0
 15  7  1  0  0  0  0
 16  6  1  0  0  0  0
 17 12  1  0  0  0  0
 18 15  1  0  0  0  0
  4  5  1  0  0  0  0
  9  7  1  0  0  0  0
 11 12  2  0  0  0  0
M  END
>  <IDNUMBER>
F3234-0943

>  <Chemical_Name>
3-ethyl-1,7-dimethyl-1H,2H,3H,4H,8H-imidazo[1,2-g]purine-2,4-dione

>  <PriceCoeff>
1.50

>  <CAS>
923504-10-3

>  <MW>
247.25

>  <Description>
solid

>  <FSP3>
0.36

>  <clogP>
1.30

>  <TPSA>
73.71

>  <Acceptor>
3

>  <Donor>
1

>  <RotBonds>
1

>  <HAC>
18

>  <Collection>
Advanced

$$$$
F3238-0138
  Mrv2219 10102508112D          

 17 18  0  0  0  0            999 V2000
    6.7938  -16.8518    0.0000 N   0  0  0  0  0  0  0  0  0  0  0  0
    5.9767  -16.8393    0.0000 S   0  0  0  0  0  0  0  0  0  0  0  0
    7.2832  -16.1923    0.0000 C   0  0  0  0  0  0  0  0  0  0  0  0
    7.2708  -17.5319    0.0000 N   0  0  0  0  0  0  0  0  0  0  0  0
    8.0671  -16.4536    0.0000 C   0  0  0  0  0  0  0  0  0  0  0  0
    8.0547  -17.2831    0.0000 C   0  0  0  0  0  0  0  0  0  0  0  0
    5.1555  -16.8351    0.0000 N   0  0  0  0  0  0  0  0  0  0  0  0
    5.9850  -16.0181    0.0000 O   0  0  0  0  0  0  0  0  0  0  0  0
    5.9643  -17.6606    0.0000 O   0  0  0  0  0  0  0  0  0  0  0  0
    8.7390  -15.9808    0.0000 Br  0  0  0  0  0  0  0  0  0  0  0  0
    3.5131  -16.8144    0.0000 O   0  0  0  0  0  0  0  0  0  0  0  0
    4.7407  -17.5361    0.0000 C   0  0  0  0  0  0  0  0  0  0  0  0
    4.7449  -16.1176    0.0000 C   0  0  0  0  0  0  0  0  0  0  0  0
    7.0344  -15.4084    0.0000 C   0  0  0  0  0  0  0  0  0  0  0  0
    8.7224  -17.7808    0.0000 C   0  0  0  0  0  0  0  0  0  0  0  0
    3.9319  -16.1052    0.0000 C   0  0  0  0  0  0  0  0  0  0  0  0
    3.9112  -17.5319    0.0000 C   0  0  0  0  0  0  0  0  0  0  0  0
  2  1  1  0  0  0  0
  3  1  1  0  0  0  0
  4  1  1  0  0  0  0
  5  3  2  0  0  0  0
  6  4  2  0  0  0  0
  7  2  1  0  0  0  0
  8  2  2  0  0  0  0
  9  2  2  0  0  0  0
 10  5  1  0  0  0  0
 11 16  1  0  0  0  0
 12  7  1  0  0  0  0
 13  7  1  0  0  0  0
 14  3  1  0  0  0  0
 15  6  1  0  0  0  0
 16 13  1  0  0  0  0
 17 12  1  0  0  0  0
  5  6  1  0  0  0  0
 11 17  1  0  0  0  0
M  END
>  <IDNUMBER>
F3238-0138

>  <Chemical_Name>
4-[(4-bromo-3,5-dimethyl-1H-pyrazol-1-yl)sulfonyl]morpholine

>  <PriceCoeff>
1.00

>  <MW>
324.19

>  <Description>
solid

>  <FSP3>
0.67

>  <clogP>
1.57

>  <TPSA>
28.68

>  <Acceptor>
4

>  <Donor>
0

>  <RotBonds>
2

>  <HAC>
17

>  <Collection>
General

$$$$
F3244-0167
  Mrv2219 10102508112D          

 25 28  0  0  0  0            999 V2000
    4.6683   -2.3861    0.0000 C   0  0  0  0  0  0  0  0  0  0  0  0
    5.9652   -2.0993    0.0000 C   0  0  0  0  0  0  0  0  0  0  0  0
    5.2128   -1.7709    0.0000 O   0  0  0  0  0  0  0  0  0  0  0  0
    5.0798   -3.0970    0.0000 N   0  0  0  0  0  0  0  0  0  0  0  0
    5.8904   -2.9182    0.0000 N   0  0  0  0  0  0  0  0  0  0  0  0
   -0.3076   -4.2443    0.0000 N   0  3  0  0  0  0  0  0  0  0  0  0
    2.5482   -2.5856    0.0000 C   0  0  0  0  0  0  0  0  0  0  0  0
    3.8452   -2.3113    0.0000 C   0  0  0  0  0  0  0  0  0  0  0  0
    3.3048   -2.9224    0.0000 O   0  0  0  0  0  0  0  0  0  0  0  0
    1.8374   -3.0055    0.0000 C   0  0  0  0  0  0  0  0  0  0  0  0
    6.6761   -1.6753    0.0000 C   0  0  0  0  0  0  0  0  0  0  0  0
    1.8374   -3.8327    0.0000 C   0  0  0  0  0  0  0  0  0  0  0  0
    0.4115   -3.8327    0.0000 C   0  0  0  0  0  0  0  0  0  0  0  0
    2.6313   -1.7709    0.0000 C   0  0  0  0  0  0  0  0  0  0  0  0
    3.4212   -1.5880    0.0000 C   0  0  0  0  0  0  0  0  0  0  0  0
    1.1224   -4.2443    0.0000 C   0  0  0  0  0  0  0  0  0  0  0  0
    1.1224   -2.5939    0.0000 C   0  0  0  0  0  0  0  0  0  0  0  0
   -1.0184   -3.8327    0.0000 O   0  5  0  0  0  0  0  0  0  0  0  0
    7.4368   -2.0120    0.0000 O   0  0  0  0  0  0  0  0  0  0  0  0
   -0.3076   -5.0673    0.0000 O   0  0  0  0  0  0  0  0  0  0  0  0
    6.7592   -0.8647    0.0000 C   0  0  0  0  0  0  0  0  0  0  0  0
    0.4115   -3.0055    0.0000 C   0  0  0  0  0  0  0  0  0  0  0  0
    7.9730   -1.3967    0.0000 C   0  0  0  0  0  0  0  0  0  0  0  0
    7.5490   -0.6776    0.0000 C   0  0  0  0  0  0  0  0  0  0  0  0
    2.5482   -4.2443    0.0000 Cl  0  0  0  0  0  0  0  0  0  0  0  0
  2  3  1  0  0  0  0
  3  1  1  0  0  0  0
  4  1  2  0  0  0  0
  5  4  1  0  0  0  0
  6 13  1  0  0  0  0
  7  9  1  0  0  0  0
  8  1  1  0  0  0  0
  9  8  1  0  0  0  0
 10  7  1  0  0  0  0
 11  2  1  0  0  0  0
 12 10  1  0  0  0  0
 13 22  2  0  0  0  0
 14 15  1  0  0  0  0
 15  8  2  0  0  0  0
 16 12  2  0  0  0  0
 17 10  2  0  0  0  0
 18  6  1  0  0  0  0
 19 11  1  0  0  0  0
 20  6  2  0  0  0  0
 21 11  2  0  0  0  0
 22 17  1  0  0  0  0
 23 19  1  0  0  0  0
 24 21  1  0  0  0  0
 25 12  1  0  0  0  0
  2  5  2  0  0  0  0
  7 14  2  0  0  0  0
 24 23  2  0  0  0  0
 13 16  1  0  0  0  0
M  CHG  2   6   1  18  -1
M  END
>  <IDNUMBER>
F3244-0167

>  <Chemical_Name>
2-[5-(2-chloro-4-nitrophenyl)furan-2-yl]-5-(furan-2-yl)-1,3,4-oxadiazole

>  <PriceCoeff>
1.00

>  <CAS>
890641-87-9

>  <MW>
357.70

>  <Description>
solid

>  <FSP3>
0.00

>  <clogP>
3.87

>  <TPSA>
108.34

>  <Acceptor>
7

>  <Donor>
0

>  <RotBonds>
4

>  <HAC>
25

>  <Collection>
General

>  <PPDS>
+

$$$$
F3244-0173
  Mrv2219 10102508112D          

 26 29  0  0  0  0            999 V2000
    5.9250   -4.4417    0.0000 C   0  0  0  0  0  0  0  0  0  0  0  0
    6.2542   -3.6917    0.0000 C   0  0  0  0  0  0  0  0  0  0  0  0
    7.0792   -2.6417    0.0000 C   0  0  0  0  0  0  0  0  0  0  0  0
    7.0417   -3.4667    0.0000 O   0  0  0  0  0  0  0  0  0  0  0  0
    3.6250   -7.9375    0.0000 N   0  3  0  0  0  0  0  0  0  0  0  0
    3.6167   -7.1042    0.0000 C   0  0  0  0  0  0  0  0  0  0  0  0
    5.1292   -4.6292    0.0000 C   0  0  0  0  0  0  0  0  0  0  0  0
    5.7917   -3.0042    0.0000 N   0  0  0  0  0  0  0  0  0  0  0  0
    6.3042   -2.3542    0.0000 N   0  0  0  0  0  0  0  0  0  0  0  0
    5.0500   -5.4500    0.0000 C   0  0  0  0  0  0  0  0  0  0  0  0
    6.3542   -5.1667    0.0000 C   0  0  0  0  0  0  0  0  0  0  0  0
    5.8042   -5.7792    0.0000 O   0  0  0  0  0  0  0  0  0  0  0  0
    4.3375   -6.6917    0.0000 C   0  0  0  0  0  0  0  0  0  0  0  0
    7.7625   -2.1792    0.0000 C   0  0  0  0  0  0  0  0  0  0  0  0
    4.3375   -5.8667    0.0000 C   0  0  0  0  0  0  0  0  0  0  0  0
    2.9042   -6.6917    0.0000 C   0  0  0  0  0  0  0  0  0  0  0  0
    2.9042   -8.3500    0.0000 O   0  5  0  0  0  0  0  0  0  0  0  0
    8.5375   -2.4667    0.0000 O   0  0  0  0  0  0  0  0  0  0  0  0
    4.3375   -8.3500    0.0000 O   0  0  0  0  0  0  0  0  0  0  0  0
    7.7917   -1.3542    0.0000 C   0  0  0  0  0  0  0  0  0  0  0  0
    9.0417   -1.8167    0.0000 C   0  0  0  0  0  0  0  0  0  0  0  0
    3.6167   -5.4542    0.0000 C   0  0  0  0  0  0  0  0  0  0  0  0
    8.5750   -1.1292    0.0000 C   0  0  0  0  0  0  0  0  0  0  0  0
    2.9042   -5.8667    0.0000 C   0  0  0  0  0  0  0  0  0  0  0  0
    2.1917   -7.1042    0.0000 Cl  0  0  0  0  0  0  0  0  0  0  0  0
    7.1750   -5.2500    0.0000 C   0  0  0  0  0  0  0  0  0  0  0  0
  2  1  1  0  0  0  0
  3  4  1  0  0  0  0
  4  2  1  0  0  0  0
  5  6  1  0  0  0  0
  6 13  2  0  0  0  0
  7  1  1  0  0  0  0
  8  2  2  0  0  0  0
  9  8  1  0  0  0  0
 10  7  2  0  0  0  0
 11  1  2  0  0  0  0
 12 11  1  0  0  0  0
 13 15  1  0  0  0  0
 14  3  1  0  0  0  0
 15 10  1  0  0  0  0
 16 24  2  0  0  0  0
 17  5  1  0  0  0  0
 18 14  1  0  0  0  0
 19  5  2  0  0  0  0
 20 14  2  0  0  0  0
 21 18  1  0  0  0  0
 22 15  2  0  0  0  0
 23 20  1  0  0  0  0
 24 22  1  0  0  0  0
 25 16  1  0  0  0  0
 26 11  1  0  0  0  0
 12 10  1  0  0  0  0
  9  3  2  0  0  0  0
  6 16  1  0  0  0  0
 23 21  2  0  0  0  0
M  CHG  2   5   1  17  -1
M  END
>  <IDNUMBER>
F3244-0173

>  <Chemical_Name>
2-[5-(4-chloro-3-nitrophenyl)-2-methylfuran-3-yl]-5-(furan-2-yl)-1,3,4-oxadiazole

>  <PriceCoeff>
1.00

>  <CAS>
890641-99-3

>  <MW>
371.73

>  <Description>
solid

>  <FSP3>
0.06

>  <clogP>
3.96

>  <TPSA>
108.34

>  <Acceptor>
7

>  <Donor>
0

>  <RotBonds>
4

>  <HAC>
26

>  <Collection>
General

>  <PPDS>
+

$$$$
F3244-0174
  Mrv2219 10102508112D          

 26 29  0  0  0  0            999 V2000
    5.9250   -4.4417    0.0000 C   0  0  0  0  0  0  0  0  0  0  0  0
    6.2542   -3.6917    0.0000 C   0  0  0  0  0  0  0  0  0  0  0  0
    5.0500   -5.4500    0.0000 C   0  0  0  0  0  0  0  0  0  0  0  0
    7.0792   -2.6417    0.0000 C   0  0  0  0  0  0  0  0  0  0  0  0
    5.1292   -4.6292    0.0000 C   0  0  0  0  0  0  0  0  0  0  0  0
    7.0417   -3.4667    0.0000 O   0  0  0  0  0  0  0  0  0  0  0  0
    5.0542   -7.1042    0.0000 N   0  3  0  0  0  0  0  0  0  0  0  0
    5.7917   -3.0042    0.0000 N   0  0  0  0  0  0  0  0  0  0  0  0
    6.3042   -2.3542    0.0000 N   0  0  0  0  0  0  0  0  0  0  0  0
    4.3375   -5.8667    0.0000 C   0  0  0  0  0  0  0  0  0  0  0  0
    6.3542   -5.1667    0.0000 C   0  0  0  0  0  0  0  0  0  0  0  0
    4.3375   -6.6917    0.0000 C   0  0  0  0  0  0  0  0  0  0  0  0
    5.8042   -5.7792    0.0000 O   0  0  0  0  0  0  0  0  0  0  0  0
    7.7625   -2.1792    0.0000 C   0  0  0  0  0  0  0  0  0  0  0  0
    3.6167   -7.1042    0.0000 C   0  0  0  0  0  0  0  0  0  0  0  0
    3.6167   -5.4542    0.0000 C   0  0  0  0  0  0  0  0  0  0  0  0
    5.0542   -7.9292    0.0000 O   0  5  0  0  0  0  0  0  0  0  0  0
    8.5375   -2.4667    0.0000 O   0  0  0  0  0  0  0  0  0  0  0  0
    5.7667   -6.6917    0.0000 O   0  0  0  0  0  0  0  0  0  0  0  0
    7.7917   -1.3542    0.0000 C   0  0  0  0  0  0  0  0  0  0  0  0
    9.0417   -1.8167    0.0000 C   0  0  0  0  0  0  0  0  0  0  0  0
    8.5750   -1.1292    0.0000 C   0  0  0  0  0  0  0  0  0  0  0  0
    2.9042   -6.6917    0.0000 C   0  0  0  0  0  0  0  0  0  0  0  0
    2.9042   -5.8667    0.0000 C   0  0  0  0  0  0  0  0  0  0  0  0
    2.1917   -7.1042    0.0000 Cl  0  0  0  0  0  0  0  0  0  0  0  0
    7.1750   -5.2500    0.0000 C   0  0  0  0  0  0  0  0  0  0  0  0
  2  1  1  0  0  0  0
  3  5  2  0  0  0  0
  4  6  1  0  0  0  0
  5  1  1  0  0  0  0
  6  2  1  0  0  0  0
  7 12  1  0  0  0  0
  8  2  2  0  0  0  0
  9  8  1  0  0  0  0
 10  3  1  0  0  0  0
 11  1  2  0  0  0  0
 12 10  1  0  0  0  0
 13 11  1  0  0  0  0
 14  4  1  0  0  0  0
 15 12  2  0  0  0  0
 16 10  2  0  0  0  0
 17  7  1  0  0  0  0
 18 14  1  0  0  0  0
 19  7  2  0  0  0  0
 20 14  2  0  0  0  0
 21 18  1  0  0  0  0
 22 20  1  0  0  0  0
 23 24  2  0  0  0  0
 24 16  1  0  0  0  0
 25 23  1  0  0  0  0
 26 11  1  0  0  0  0
 13  3  1  0  0  0  0
  9  4  2  0  0  0  0
 15 23  1  0  0  0  0
 22 21  2  0  0  0  0
M  CHG  2   7   1  17  -1
M  END
>  <IDNUMBER>
F3244-0174

>  <Chemical_Name>
2-[5-(4-chloro-2-nitrophenyl)-2-methylfuran-3-yl]-5-(furan-2-yl)-1,3,4-oxadiazole

>  <PriceCoeff>
1.00

>  <CAS>
890642-02-1

>  <MW>
371.73

>  <Description>
solid

>  <FSP3>
0.06

>  <clogP>
4.11

>  <TPSA>
108.34

>  <Acceptor>
7

>  <Donor>
0

>  <RotBonds>
4

>  <HAC>
26

>  <Collection>
General

>  <PPDS>
+

$$$$
F3244-0178
  Mrv2219 10102508112D          

 19 20  0  0  0  0            999 V2000
    5.9072   -3.5809    0.0000 C   0  0  0  0  0  0  0  0  0  0  0  0
    5.0348   -4.5779    0.0000 C   0  0  0  0  0  0  0  0  0  0  0  0
    5.1138   -3.7554    0.0000 C   0  0  0  0  0  0  0  0  0  0  0  0
    6.3351   -4.2996    0.0000 C   0  0  0  0  0  0  0  0  0  0  0  0
    2.1851   -6.2354    0.0000 N   0  3  0  0  0  0  0  0  0  0  0  0
    5.7868   -4.9102    0.0000 O   0  0  0  0  0  0  0  0  0  0  0  0
    4.3245   -4.9892    0.0000 C   0  0  0  0  0  0  0  0  0  0  0  0
    6.2354   -2.8207    0.0000 C   0  0  0  0  0  0  0  0  0  0  0  0
    4.3245   -5.8200    0.0000 C   0  0  0  0  0  0  0  0  0  0  0  0
    2.8955   -5.8200    0.0000 C   0  0  0  0  0  0  0  0  0  0  0  0
    3.6058   -6.2312    0.0000 C   0  0  0  0  0  0  0  0  0  0  0  0
    3.6058   -4.5779    0.0000 C   0  0  0  0  0  0  0  0  0  0  0  0
    1.4706   -5.8242    0.0000 O   0  5  0  0  0  0  0  0  0  0  0  0
    2.1851   -7.0580    0.0000 O   0  0  0  0  0  0  0  0  0  0  0  0
    2.8955   -4.9975    0.0000 C   0  0  0  0  0  0  0  0  0  0  0  0
    5.7369   -2.1602    0.0000 O   0  0  0  0  0  0  0  0  0  0  0  0
    5.0348   -6.2312    0.0000 Cl  0  0  0  0  0  0  0  0  0  0  0  0
    7.0455   -2.7210    0.0000 O   0  0  0  0  0  0  0  0  0  0  0  0
    7.1535   -4.3785    0.0000 C   0  0  0  0  0  0  0  0  0  0  0  0
  2  3  2  0  0  0  0
  3  1  1  0  0  0  0
  4  1  2  0  0  0  0
  5 10  1  0  0  0  0
  6  4  1  0  0  0  0
  7  2  1  0  0  0  0
  8  1  1  0  0  0  0
  9  7  1  0  0  0  0
 10 15  2  0  0  0  0
 11  9  2  0  0  0  0
 12  7  2  0  0  0  0
 13  5  1  0  0  0  0
 14  5  2  0  0  0  0
 15 12  1  0  0  0  0
 16  8  2  0  0  0  0
 17  9  1  0  0  0  0
 18  8  1  0  0  0  0
 19  4  1  0  0  0  0
  6  2  1  0  0  0  0
 10 11  1  0  0  0  0
M  CHG  2   5   1  13  -1
M  END
>  <IDNUMBER>
F3244-0178

>  <Chemical_Name>
5-(2-chloro-4-nitrophenyl)-2-methylfuran-3-carboxylic acid

>  <PriceCoeff>
1.00

>  <MW>
281.65

>  <Description>
solid

>  <FSP3>
0.08

>  <clogP>
3.61

>  <TPSA>
93.58

>  <Acceptor>
5

>  <Donor>
0

>  <RotBonds>
3

>  <HAC>
19

>  <Collection>
General

$$$$
F3259-0257
  Mrv2219 10102508112D          

 21 23  0  0  0  0            999 V2000
    4.7044   -4.0473    0.0000 C   0  0  0  0  0  0  0  0  0  0  0  0
    4.7044   -3.2640    0.0000 C   0  0  0  0  0  0  0  0  0  0  0  0
    4.0094   -4.4474    0.0000 N   0  0  0  0  0  0  0  0  0  0  0  0
    3.3356   -3.2640    0.0000 N   0  0  0  0  0  0  0  0  0  0  0  0
    3.3356   -4.0600    0.0000 C   0  0  0  0  0  0  0  0  0  0  0  0
    4.0094   -2.8681    0.0000 C   0  0  0  0  0  0  0  0  0  0  0  0
    6.0647   -3.2724    0.0000 N   0  0  0  0  0  0  0  0  0  0  0  0
    5.3740   -4.4517    0.0000 N   0  0  0  0  0  0  0  0  0  0  0  0
    6.0520   -4.0684    0.0000 C   0  0  0  0  0  0  0  0  0  0  0  0
    6.6584   -2.6912    0.0000 C   0  0  0  0  0  0  0  0  0  0  0  0
    7.4587   -2.9102    0.0000 C   0  0  0  0  0  0  0  0  0  0  0  0
    2.6533   -4.4517    0.0000 O   0  0  0  0  0  0  0  0  0  0  0  0
    4.0094   -2.0764    0.0000 O   0  0  0  0  0  0  0  0  0  0  0  0
    8.0399   -2.3247    0.0000 C   0  0  0  0  0  0  0  0  0  0  0  0
    4.0094   -5.2350    0.0000 C   0  0  0  0  0  0  0  0  0  0  0  0
    2.5691   -3.0619    0.0000 C   0  0  0  0  0  0  0  0  0  0  0  0
    7.8209   -1.5162    0.0000 Cl  0  0  0  0  0  0  0  0  0  0  0  0
    7.6609   -3.7062    0.0000 C   0  0  0  0  0  0  0  0  0  0  0  0
    8.8359   -2.5438    0.0000 C   0  0  0  0  0  0  0  0  0  0  0  0
    8.4652   -3.9294    0.0000 C   0  0  0  0  0  0  0  0  0  0  0  0
    9.0507   -3.3482    0.0000 C   0  0  0  0  0  0  0  0  0  0  0  0
  2  1  2  0  0  0  0
  3  1  1  0  0  0  0
  4  5  1  0  0  0  0
  5  3  1  0  0  0  0
  6  2  1  0  0  0  0
  7  2  1  0  0  0  0
  8  1  1  0  0  0  0
  9  8  2  0  0  0  0
 10  7  1  0  0  0  0
 11 10  1  0  0  0  0
 12  5  2  0  0  0  0
 13  6  2  0  0  0  0
 14 11  1  0  0  0  0
 15  3  1  0  0  0  0
 16  4  1  0  0  0  0
 17 14  1  0  0  0  0
 18 11  2  0  0  0  0
 19 14  2  0  0  0  0
 20 18  1  0  0  0  0
 21 20  2  0  0  0  0
  9  7  1  0  0  0  0
  6  4  1  0  0  0  0
 21 19  1  0  0  0  0
M  END
>  <IDNUMBER>
F3259-0257

>  <Chemical_Name>
7-[(2-chlorophenyl)methyl]-1,3-dimethyl-2,3,6,7-tetrahydro-1H-purine-2,6-dione

>  <PriceCoeff>
1.00

>  <CAS>
343347-87-5

>  <MW>
304.73

>  <Description>
solid

>  <FSP3>
0.21

>  <clogP>
2.19

>  <TPSA>
58.44

>  <Acceptor>
3

>  <Donor>
1

>  <RotBonds>
2

>  <HAC>
21

>  <Collection>
General

>  <PPDS>
+

$$$$
F3259-0258
  Mrv2219 10102508112D          

 20 22  0  0  0  0            999 V2000
    4.8277   -3.9648    0.0000 C   0  0  0  0  0  0  0  0  0  0  0  0
    4.8277   -3.1820    0.0000 C   0  0  0  0  0  0  0  0  0  0  0  0
    4.1332   -4.3605    0.0000 N   0  0  0  0  0  0  0  0  0  0  0  0
    3.4640   -3.1820    0.0000 N   0  0  0  0  0  0  0  0  0  0  0  0
    3.4640   -3.9691    0.0000 C   0  0  0  0  0  0  0  0  0  0  0  0
    4.1332   -2.7822    0.0000 C   0  0  0  0  0  0  0  0  0  0  0  0
    5.4969   -4.3605    0.0000 N   0  0  0  0  0  0  0  0  0  0  0  0
    6.1914   -3.1862    0.0000 N   0  0  0  0  0  0  0  0  0  0  0  0
    6.1788   -3.9817    0.0000 C   0  0  0  0  0  0  0  0  0  0  0  0
    6.1914   -2.3528    0.0000 C   0  0  0  0  0  0  0  0  0  0  0  0
    2.7822   -4.3605    0.0000 O   0  0  0  0  0  0  0  0  0  0  0  0
    4.1332   -1.9867    0.0000 O   0  0  0  0  0  0  0  0  0  0  0  0
    4.1332   -5.1518    0.0000 C   0  0  0  0  0  0  0  0  0  0  0  0
    2.7021   -2.9716    0.0000 C   0  0  0  0  0  0  0  0  0  0  0  0
    6.9111   -1.9362    0.0000 C   0  0  0  0  0  0  0  0  0  0  0  0
    7.6309   -2.3528    0.0000 C   0  0  0  0  0  0  0  0  0  0  0  0
    6.9069   -1.1112    0.0000 C   0  0  0  0  0  0  0  0  0  0  0  0
    7.6182   -0.6945    0.0000 C   0  0  0  0  0  0  0  0  0  0  0  0
    8.3506   -1.9362    0.0000 C   0  0  0  0  0  0  0  0  0  0  0  0
    8.3464   -1.1028    0.0000 C   0  0  0  0  0  0  0  0  0  0  0  0
  2  1  2  0  0  0  0
  3  1  1  0  0  0  0
  4  5  1  0  0  0  0
  5  3  1  0  0  0  0
  6  2  1  0  0  0  0
  7  1  1  0  0  0  0
  8  2  1  0  0  0  0
  9  7  2  0  0  0  0
 10  8  1  0  0  0  0
 11  5  2  0  0  0  0
 12  6  2  0  0  0  0
 13  3  1  0  0  0  0
 14  4  1  0  0  0  0
 15 10  1  0  0  0  0
 16 15  2  0  0  0  0
 17 15  1  0  0  0  0
 18 17  2  0  0  0  0
 19 16  1  0  0  0  0
 20 18  1  0  0  0  0
  9  8  1  0  0  0  0
  6  4  1  0  0  0  0
 20 19  2  0  0  0  0
M  END
>  <IDNUMBER>
F3259-0258

>  <Chemical_Name>
7-benzyl-1,3-dimethyl-2,3,6,7-tetrahydro-1H-purine-2,6-dione

>  <PriceCoeff>
1.50

>  <CAS>
1807-85-8

>  <MW>
270.29

>  <Description>
solid

>  <FSP3>
0.21

>  <clogP>
1.48

>  <TPSA>
58.44

>  <Acceptor>
3

>  <Donor>
1

>  <RotBonds>
2

>  <HAC>
20

>  <Collection>
Advanced

>  <PPDS>
+

$$$$
F3259-0259
  Mrv2219 10102508112D          

 15 16  0  0  0  0            999 V2000
    0.1877   -0.5282    0.0000 C   0  0  0  0  0  0  0  0  0  0  0  0
    0.1964    0.2837    0.0000 C   0  0  0  0  0  0  0  0  0  0  0  0
   -0.5238   -0.9429    0.0000 N   0  0  0  0  0  0  0  0  0  0  0  0
   -1.2179    0.2837    0.0000 N   0  0  0  0  0  0  0  0  0  0  0  0
   -1.2179   -0.5369    0.0000 C   0  0  0  0  0  0  0  0  0  0  0  0
   -0.5238    0.6940    0.0000 C   0  0  0  0  0  0  0  0  0  0  0  0
    0.8905   -0.9473    0.0000 N   0  0  0  0  0  0  0  0  0  0  0  0
    1.6107    0.2750    0.0000 N   0  0  0  0  0  0  0  0  0  0  0  0
    1.5889   -0.5500    0.0000 C   0  0  0  0  0  0  0  0  0  0  0  0
   -1.9337   -0.9473    0.0000 O   0  0  0  0  0  0  0  0  0  0  0  0
   -0.5238    1.5190    0.0000 O   0  0  0  0  0  0  0  0  0  0  0  0
   -0.5238   -1.7592    0.0000 C   0  0  0  0  0  0  0  0  0  0  0  0
   -2.0123    0.4976    0.0000 C   0  0  0  0  0  0  0  0  0  0  0  0
    1.6107    1.1393    0.0000 C   0  0  0  0  0  0  0  0  0  0  0  0
    2.3484    1.5714    0.0000 C   0  0  0  0  0  0  0  0  0  0  0  0
  2  1  2  0  0  0  0
  3  1  1  0  0  0  0
  4  5  1  0  0  0  0
  5  3  1  0  0  0  0
  6  2  1  0  0  0  0
  7  1  1  0  0  0  0
  8  2  1  0  0  0  0
  9  7  2  0  0  0  0
 10  5  2  0  0  0  0
 11  6  2  0  0  0  0
 12  3  1  0  0  0  0
 13  4  1  0  0  0  0
 14  8  1  0  0  0  0
 15 14  1  0  0  0  0
  8  9  1  0  0  0  0
  6  4  1  0  0  0  0
M  END
>  <IDNUMBER>
F3259-0259

>  <Chemical_Name>
7-ethyl-1,3-dimethyl-2,3,6,7-tetrahydro-1H-purine-2,6-dione

>  <PriceCoeff>
1.00

>  <CAS>
23043-88-1

>  <MW>
208.22

>  <Description>
solid

>  <FSP3>
0.44

>  <clogP>
0.49

>  <TPSA>
58.44

>  <Acceptor>
3

>  <Donor>
1

>  <RotBonds>
1

>  <HAC>
15

>  <Collection>
General

>  <PPDS>
+

$$$$
F3259-0260
  Mrv2219 10102508112D          

 16 17  0  0  0  0            999 V2000
    3.2634    2.7775    0.0000 C   0  0  0  0  0  0  0  0  0  0  0  0
    2.8509    2.0716    0.0000 C   0  0  0  0  0  0  0  0  0  0  0  0
    4.0884    2.7775    0.0000 N   0  0  0  0  0  0  0  0  0  0  0  0
    4.0884    1.3566    0.0000 N   0  0  0  0  0  0  0  0  0  0  0  0
    4.5009    2.0716    0.0000 C   0  0  0  0  0  0  0  0  0  0  0  0
    3.2634    1.3566    0.0000 C   0  0  0  0  0  0  0  0  0  0  0  0
    2.7134    3.3916    0.0000 N   0  0  0  0  0  0  0  0  0  0  0  0
    2.0487    2.2366    0.0000 N   0  0  0  0  0  0  0  0  0  0  0  0
    1.9571    3.0616    0.0000 C   0  0  0  0  0  0  0  0  0  0  0  0
    5.3259    2.0716    0.0000 O   0  0  0  0  0  0  0  0  0  0  0  0
    2.8509    0.6416    0.0000 O   0  0  0  0  0  0  0  0  0  0  0  0
    4.5009    3.4925    0.0000 C   0  0  0  0  0  0  0  0  0  0  0  0
    4.5009    0.6416    0.0000 C   0  0  0  0  0  0  0  0  0  0  0  0
    1.4346    1.6866    0.0000 C   0  0  0  0  0  0  0  0  0  0  0  0
    0.6509    1.9387    0.0000 C   0  0  0  0  0  0  0  0  0  0  0  0
    0.0321    1.3887    0.0000 C   0  0  0  0  0  0  0  0  0  0  0  0
  2  1  2  0  0  0  0
  3  1  1  0  0  0  0
  4  5  1  0  0  0  0
  5  3  1  0  0  0  0
  6  2  1  0  0  0  0
  7  1  1  0  0  0  0
  8  2  1  0  0  0  0
  9  7  2  0  0  0  0
 10  5  2  0  0  0  0
 11  6  2  0  0  0  0
 12  3  1  0  0  0  0
 13  4  1  0  0  0  0
 14  8  1  0  0  0  0
 15 14  1  0  0  0  0
 16 15  1  0  0  0  0
  8  9  1  0  0  0  0
  4  6  1  0  0  0  0
M  END
>  <IDNUMBER>
F3259-0260

>  <Chemical_Name>
1,3-dimethyl-7-propyl-2,3,6,7-tetrahydro-1H-purine-2,6-dione

>  <PriceCoeff>
1.50

>  <CAS>
27760-74-3

>  <MW>
222.24

>  <Description>
solid

>  <FSP3>
0.50

>  <clogP>
1.02

>  <TPSA>
58.44

>  <Acceptor>
3

>  <Donor>
1

>  <RotBonds>
2

>  <HAC>
16

>  <Collection>
Advanced

>  <PPDS>
+

$$$$
F3259-0261
  Mrv2219 10102508112D          

 17 18  0  0  0  0            999 V2000
    4.0311    2.8034    0.0000 C   0  0  0  0  0  0  0  0  0  0  0  0
    3.6189    2.0888    0.0000 C   0  0  0  0  0  0  0  0  0  0  0  0
    4.8557    2.8034    0.0000 N   0  0  0  0  0  0  0  0  0  0  0  0
    4.8557    1.3742    0.0000 N   0  0  0  0  0  0  0  0  0  0  0  0
    5.2679    2.0888    0.0000 C   0  0  0  0  0  0  0  0  0  0  0  0
    4.0311    1.3742    0.0000 C   0  0  0  0  0  0  0  0  0  0  0  0
    3.4814    3.4172    0.0000 N   0  0  0  0  0  0  0  0  0  0  0  0
    2.8081    2.2629    0.0000 N   0  0  0  0  0  0  0  0  0  0  0  0
    2.7256    3.0783    0.0000 C   0  0  0  0  0  0  0  0  0  0  0  0
    6.0925    2.0888    0.0000 O   0  0  0  0  0  0  0  0  0  0  0  0
    3.6189    0.6596    0.0000 O   0  0  0  0  0  0  0  0  0  0  0  0
    5.2679    3.5134    0.0000 C   0  0  0  0  0  0  0  0  0  0  0  0
    5.2679    0.6596    0.0000 C   0  0  0  0  0  0  0  0  0  0  0  0
    2.2034    1.7132    0.0000 C   0  0  0  0  0  0  0  0  0  0  0  0
    1.4155    1.9605    0.0000 C   0  0  0  0  0  0  0  0  0  0  0  0
    0.8017    1.4108    0.0000 C   0  0  0  0  0  0  0  0  0  0  0  0
    0.0184    1.6628    0.0000 C   0  0  0  0  0  0  0  0  0  0  0  0
  2  1  2  0  0  0  0
  3  1  1  0  0  0  0
  4  5  1  0  0  0  0
  5  3  1  0  0  0  0
  6  2  1  0  0  0  0
  7  1  1  0  0  0  0
  8  2  1  0  0  0  0
  9  7  2  0  0  0  0
 10  5  2  0  0  0  0
 11  6  2  0  0  0  0
 12  3  1  0  0  0  0
 13  4  1  0  0  0  0
 14  8  1  0  0  0  0
 15 14  1  0  0  0  0
 16 15  1  0  0  0  0
 17 16  1  0  0  0  0
  8  9  1  0  0  0  0
  4  6  1  0  0  0  0
M  END
>  <IDNUMBER>
F3259-0261

>  <Chemical_Name>
7-butyl-1,3-dimethyl-2,3,6,7-tetrahydro-1H-purine-2,6-dione

>  <PriceCoeff>
1.50

>  <CAS>
1021-65-4

>  <MW>
236.27

>  <Description>
solid

>  <FSP3>
0.55

>  <clogP>
1.55

>  <TPSA>
58.44

>  <Acceptor>
1

>  <Donor>
3

>  <RotBonds>
3

>  <HAC>
17

>  <Collection>
Advanced

>  <PPDS>
+

$$$$
F3259-0262
  Mrv2219 10102508112D          

 18 19  0  0  0  0            999 V2000
    4.9702   -4.0819    0.0000 C   0  0  0  0  0  0  0  0  0  0  0  0
    4.9702   -3.2759    0.0000 C   0  0  0  0  0  0  0  0  0  0  0  0
    4.2552   -4.4892    0.0000 N   0  0  0  0  0  0  0  0  0  0  0  0
    3.5663   -3.2759    0.0000 N   0  0  0  0  0  0  0  0  0  0  0  0
    3.5663   -4.0862    0.0000 C   0  0  0  0  0  0  0  0  0  0  0  0
    4.2552   -2.8643    0.0000 C   0  0  0  0  0  0  0  0  0  0  0  0
    5.6592   -4.4892    0.0000 N   0  0  0  0  0  0  0  0  0  0  0  0
    6.3742   -3.2803    0.0000 N   0  0  0  0  0  0  0  0  0  0  0  0
    6.3612   -4.0992    0.0000 C   0  0  0  0  0  0  0  0  0  0  0  0
    2.8643   -4.4892    0.0000 O   0  0  0  0  0  0  0  0  0  0  0  0
    4.2552   -2.0453    0.0000 O   0  0  0  0  0  0  0  0  0  0  0  0
    4.2552   -5.3038    0.0000 C   0  0  0  0  0  0  0  0  0  0  0  0
    2.7819   -3.0593    0.0000 C   0  0  0  0  0  0  0  0  0  0  0  0
    7.2018   -3.0593    0.0000 C   0  0  0  0  0  0  0  0  0  0  0  0
    7.4228   -2.2273    0.0000 C   0  0  0  0  0  0  0  0  0  0  0  0
    8.4671   -1.1830    0.0000 C   0  0  0  0  0  0  0  0  0  0  0  0
    8.2461   -2.0063    0.0000 C   0  0  0  0  0  0  0  0  0  0  0  0
    9.2991   -0.9620    0.0000 C   0  0  0  0  0  0  0  0  0  0  0  0
  2  1  2  0  0  0  0
  3  1  1  0  0  0  0
  4  5  1  0  0  0  0
  5  3  1  0  0  0  0
  6  2  1  0  0  0  0
  7  1  1  0  0  0  0
  8  2  1  0  0  0  0
  9  7  2  0  0  0  0
 10  5  2  0  0  0  0
 11  6  2  0  0  0  0
 12  3  1  0  0  0  0
 13  4  1  0  0  0  0
 14  8  1  0  0  0  0
 15 14  1  0  0  0  0
 16 17  1  0  0  0  0
 17 15  1  0  0  0  0
 18 16  1  0  0  0  0
  9  8  1  0  0  0  0
  6  4  1  0  0  0  0
M  END
>  <IDNUMBER>
F3259-0262

>  <Chemical_Name>
1,3-dimethyl-7-pentyl-2,3,6,7-tetrahydro-1H-purine-2,6-dione

>  <PriceCoeff>
1.00

>  <CAS>
1086-06-2

>  <MW>
250.30

>  <Description>
solid

>  <FSP3>
0.58

>  <clogP>
2.08

>  <TPSA>
58.44

>  <Acceptor>
3

>  <Donor>
1

>  <RotBonds>
4

>  <HAC>
18

>  <Collection>
General

>  <PPDS>
+

$$$$
F3259-0263
  Mrv2219 10102508112D          

 17 18  0  0  0  0            999 V2000
    4.9702   -4.0819    0.0000 C   0  0  0  0  0  0  0  0  0  0  0  0
    4.9702   -3.2759    0.0000 C   0  0  0  0  0  0  0  0  0  0  0  0
    4.2552   -4.4892    0.0000 N   0  0  0  0  0  0  0  0  0  0  0  0
    3.5663   -3.2759    0.0000 N   0  0  0  0  0  0  0  0  0  0  0  0
    3.5663   -4.0862    0.0000 C   0  0  0  0  0  0  0  0  0  0  0  0
    4.2552   -2.8643    0.0000 C   0  0  0  0  0  0  0  0  0  0  0  0
    5.6592   -4.4892    0.0000 N   0  0  0  0  0  0  0  0  0  0  0  0
    6.3742   -3.2803    0.0000 N   0  0  0  0  0  0  0  0  0  0  0  0
    6.3612   -4.0992    0.0000 C   0  0  0  0  0  0  0  0  0  0  0  0
    2.8643   -4.4892    0.0000 O   0  0  0  0  0  0  0  0  0  0  0  0
    4.2552   -2.0453    0.0000 O   0  0  0  0  0  0  0  0  0  0  0  0
    7.2018   -3.0593    0.0000 C   0  0  0  0  0  0  0  0  0  0  0  0
    4.2552   -5.3038    0.0000 C   0  0  0  0  0  0  0  0  0  0  0  0
    2.7819   -3.0593    0.0000 C   0  0  0  0  0  0  0  0  0  0  0  0
    7.4141   -2.2273    0.0000 C   0  0  0  0  0  0  0  0  0  0  0  0
    8.2461   -2.0063    0.0000 C   0  0  0  0  0  0  0  0  0  0  0  0
    6.8032   -1.6250    0.0000 C   0  0  0  0  0  0  0  0  0  0  0  0
  2  1  2  0  0  0  0
  3  1  1  0  0  0  0
  4  5  1  0  0  0  0
  5  3  1  0  0  0  0
  6  2  1  0  0  0  0
  7  1  1  0  0  0  0
  8  2  1  0  0  0  0
  9  7  2  0  0  0  0
 10  5  2  0  0  0  0
 11  6  2  0  0  0  0
 12  8  1  0  0  0  0
 13  3  1  0  0  0  0
 14  4  1  0  0  0  0
 15 12  1  0  0  0  0
 16 15  1  0  0  0  0
 17 15  1  0  0  0  0
  9  8  1  0  0  0  0
  6  4  1  0  0  0  0
M  END
>  <IDNUMBER>
F3259-0263

>  <Chemical_Name>
1,3-dimethyl-7-(2-methylpropyl)-2,3,6,7-tetrahydro-1H-purine-2,6-dione

>  <PriceCoeff>
1.00

>  <CAS>
90162-60-0

>  <MW>
236.27

>  <Description>
solid

>  <FSP3>
0.55

>  <clogP>
1.42

>  <TPSA>
58.44

>  <Acceptor>
3

>  <Donor>
1

>  <RotBonds>
2

>  <HAC>
17

>  <Collection>
General

>  <PPDS>
+

$$$$
F3259-0265
  Mrv2219 10102508112D          

 17 18  0  0  0  0            999 V2000
    3.2203    2.6660    0.0000 C   0  0  0  0  0  0  0  0  0  0  0  0
    2.8081    1.9514    0.0000 C   0  0  0  0  0  0  0  0  0  0  0  0
    4.0449    2.6660    0.0000 N   0  0  0  0  0  0  0  0  0  0  0  0
    4.0449    1.2368    0.0000 N   0  0  0  0  0  0  0  0  0  0  0  0
    4.4571    1.9514    0.0000 C   0  0  0  0  0  0  0  0  0  0  0  0
    3.2203    1.2368    0.0000 C   0  0  0  0  0  0  0  0  0  0  0  0
    2.6706    3.2798    0.0000 N   0  0  0  0  0  0  0  0  0  0  0  0
    2.0064    2.1254    0.0000 N   0  0  0  0  0  0  0  0  0  0  0  0
    1.9148    2.9500    0.0000 C   0  0  0  0  0  0  0  0  0  0  0  0
    1.3926    1.5758    0.0000 C   0  0  0  0  0  0  0  0  0  0  0  0
    5.2817    1.9514    0.0000 O   0  0  0  0  0  0  0  0  0  0  0  0
    2.8081    0.5313    0.0000 O   0  0  0  0  0  0  0  0  0  0  0  0
    4.4571    3.3897    0.0000 C   0  0  0  0  0  0  0  0  0  0  0  0
    4.4571    0.5313    0.0000 C   0  0  0  0  0  0  0  0  0  0  0  0
    0.6093    1.8277    0.0000 C   0  0  0  0  0  0  0  0  0  0  0  0
   -0.0091    1.2780    0.0000 O   0  0  0  0  0  0  0  0  0  0  0  0
    0.4306    2.6339    0.0000 C   0  0  0  0  0  0  0  0  0  0  0  0
  2  1  2  0  0  0  0
  3  1  1  0  0  0  0
  4  5  1  0  0  0  0
  5  3  1  0  0  0  0
  6  2  1  0  0  0  0
  7  1  1  0  0  0  0
  8  2  1  0  0  0  0
  9  7  2  0  0  0  0
 10  8  1  0  0  0  0
 11  5  2  0  0  0  0
 12  6  2  0  0  0  0
 13  3  1  0  0  0  0
 14  4  1  0  0  0  0
 15 10  1  0  0  0  0
 16 15  2  0  0  0  0
 17 15  1  0  0  0  0
  9  8  1  0  0  0  0
  6  4  1  0  0  0  0
M  END
>  <IDNUMBER>
F3259-0265

>  <Chemical_Name>
1,3-dimethyl-7-(2-oxopropyl)-2,3,6,7-tetrahydro-1H-purine-2,6-dione

>  <PriceCoeff>
1.00

>  <CAS>
10226-64-9

>  <MW>
236.23

>  <Description>
solid

>  <FSP3>
0.40

>  <clogP>
-0.53

>  <TPSA>
75.51

>  <Acceptor>
4

>  <Donor>
1

>  <RotBonds>
2

>  <HAC>
17

>  <Collection>
General

>  <PPDS>
+

$$$$
F3259-0266
  Mrv2219 10102508112D          

 21 23  0  0  0  0            999 V2000
    4.9959    2.6675    0.0000 C   0  0  0  0  0  0  0  0  0  0  0  0
    4.5834    1.9525    0.0000 C   0  0  0  0  0  0  0  0  0  0  0  0
    5.8209    2.6675    0.0000 N   0  0  0  0  0  0  0  0  0  0  0  0
    5.8209    1.2375    0.0000 N   0  0  0  0  0  0  0  0  0  0  0  0
    6.2334    1.9525    0.0000 C   0  0  0  0  0  0  0  0  0  0  0  0
    4.9959    1.2375    0.0000 C   0  0  0  0  0  0  0  0  0  0  0  0
    4.4459    3.2816    0.0000 N   0  0  0  0  0  0  0  0  0  0  0  0
    3.7812    2.1266    0.0000 N   0  0  0  0  0  0  0  0  0  0  0  0
    3.6896    2.9425    0.0000 C   0  0  0  0  0  0  0  0  0  0  0  0
    3.1671    1.5766    0.0000 C   0  0  0  0  0  0  0  0  0  0  0  0
    7.0584    1.9525    0.0000 O   0  0  0  0  0  0  0  0  0  0  0  0
    4.5834    0.5225    0.0000 O   0  0  0  0  0  0  0  0  0  0  0  0
    6.2334    3.3916    0.0000 C   0  0  0  0  0  0  0  0  0  0  0  0
    6.2334    0.5225    0.0000 C   0  0  0  0  0  0  0  0  0  0  0  0
    2.3834    1.8241    0.0000 C   0  0  0  0  0  0  0  0  0  0  0  0
    0.8112    2.3375    0.0000 C   0  0  0  0  0  0  0  0  0  0  0  0
    1.7646    1.2741    0.0000 C   0  0  0  0  0  0  0  0  0  0  0  0
    2.2046    2.6354    0.0000 C   0  0  0  0  0  0  0  0  0  0  0  0
    1.4209    2.8875    0.0000 C   0  0  0  0  0  0  0  0  0  0  0  0
    0.9809    1.5354    0.0000 C   0  0  0  0  0  0  0  0  0  0  0  0
    0.0275    2.5941    0.0000 C   0  0  0  0  0  0  0  0  0  0  0  0
  2  1  2  0  0  0  0
  3  1  1  0  0  0  0
  4  5  1  0  0  0  0
  5  3  1  0  0  0  0
  6  2  1  0  0  0  0
  7  1  1  0  0  0  0
  8  2  1  0  0  0  0
  9  7  2  0  0  0  0
 10  8  1  0  0  0  0
 11  5  2  0  0  0  0
 12  6  2  0  0  0  0
 13  3  1  0  0  0  0
 14  4  1  0  0  0  0
 15 10  1  0  0  0  0
 16 19  1  0  0  0  0
 17 15  2  0  0  0  0
 18 15  1  0  0  0  0
 19 18  2  0  0  0  0
 20 17  1  0  0  0  0
 21 16  1  0  0  0  0
  8  9  1  0  0  0  0
  4  6  1  0  0  0  0
 20 16  2  0  0  0  0
M  END
>  <IDNUMBER>
F3259-0266

>  <Chemical_Name>
1,3-dimethyl-7-[(4-methylphenyl)methyl]-2,3,6,7-tetrahydro-1H-purine-2,6-dione

>  <PriceCoeff>
1.50

>  <CAS>
70404-22-7

>  <MW>
284.31

>  <Description>
solid

>  <FSP3>
0.27

>  <clogP>
1.98

>  <TPSA>
58.44

>  <Acceptor>
3

>  <Donor>
1

>  <RotBonds>
2

>  <HAC>
21

>  <Collection>
Advanced

$$$$
F3259-0267
  Mrv2219 10102508112D          

 21 23  0  0  0  0            999 V2000
    5.5978    2.2263    0.0000 C   0  0  0  0  0  0  0  0  0  0  0  0
    4.8832    1.8140    0.0000 C   0  0  0  0  0  0  0  0  0  0  0  0
    6.3124    1.8140    0.0000 N   0  0  0  0  0  0  0  0  0  0  0  0
    5.5978    0.5772    0.0000 N   0  0  0  0  0  0  0  0  0  0  0  0
    6.3124    0.9895    0.0000 C   0  0  0  0  0  0  0  0  0  0  0  0
    4.8832    0.9895    0.0000 C   0  0  0  0  0  0  0  0  0  0  0  0
    5.4329    3.0324    0.0000 N   0  0  0  0  0  0  0  0  0  0  0  0
    4.2739    2.3728    0.0000 N   0  0  0  0  0  0  0  0  0  0  0  0
    4.6083    3.1195    0.0000 C   0  0  0  0  0  0  0  0  0  0  0  0
    7.0270    0.5772    0.0000 O   0  0  0  0  0  0  0  0  0  0  0  0
    4.1686    0.5772    0.0000 O   0  0  0  0  0  0  0  0  0  0  0  0
    3.4677    2.1942    0.0000 C   0  0  0  0  0  0  0  0  0  0  0  0
    7.0270    2.2263    0.0000 C   0  0  0  0  0  0  0  0  0  0  0  0
    5.5978   -0.2382    0.0000 C   0  0  0  0  0  0  0  0  0  0  0  0
    2.9180    2.8126    0.0000 C   0  0  0  0  0  0  0  0  0  0  0  0
    2.1072    2.6339    0.0000 C   0  0  0  0  0  0  0  0  0  0  0  0
    1.5575    3.2523    0.0000 C   0  0  0  0  0  0  0  0  0  0  0  0
    1.8552    1.8506    0.0000 C   0  0  0  0  0  0  0  0  0  0  0  0
    1.0490    1.6857    0.0000 C   0  0  0  0  0  0  0  0  0  0  0  0
    0.7467    3.0783    0.0000 C   0  0  0  0  0  0  0  0  0  0  0  0
    0.4993    2.2950    0.0000 C   0  0  0  0  0  0  0  0  0  0  0  0
  2  1  2  0  0  0  0
  3  1  1  0  0  0  0
  4  5  1  0  0  0  0
  5  3  1  0  0  0  0
  6  2  1  0  0  0  0
  7  1  1  0  0  0  0
  8  2  1  0  0  0  0
  9  7  2  0  0  0  0
 10  5  2  0  0  0  0
 11  6  2  0  0  0  0
 12  8  1  0  0  0  0
 13  3  1  0  0  0  0
 14  4  1  0  0  0  0
 15 12  1  0  0  0  0
 16 15  1  0  0  0  0
 17 16  2  0  0  0  0
 18 16  1  0  0  0  0
 19 18  2  0  0  0  0
 20 17  1  0  0  0  0
 21 19  1  0  0  0  0
  8  9  1  0  0  0  0
  4  6  1  0  0  0  0
 20 21  2  0  0  0  0
M  END
>  <IDNUMBER>
F3259-0267

>  <Chemical_Name>
1,3-dimethyl-7-(2-phenylethyl)-2,3,6,7-tetrahydro-1H-purine-2,6-dione

>  <PriceCoeff>
1.50

>  <CAS>
374545-12-7

>  <MW>
284.31

>  <Description>
oil

>  <FSP3>
0.27

>  <clogP>
2.06

>  <TPSA>
58.44

>  <Acceptor>
3

>  <Donor>
1

>  <RotBonds>
3

>  <HAC>
21

>  <Collection>
Advanced

>  <PPDS>
+

$$$$
F3259-0268
  Mrv2219 10102508112D          

 22 24  0  0  0  0            999 V2000
    5.5703    2.7347    0.0000 C   0  0  0  0  0  0  0  0  0  0  0  0
    5.1580    2.0201    0.0000 C   0  0  0  0  0  0  0  0  0  0  0  0
    6.3948    2.7347    0.0000 N   0  0  0  0  0  0  0  0  0  0  0  0
    6.3948    1.3055    0.0000 N   0  0  0  0  0  0  0  0  0  0  0  0
    6.8071    2.0201    0.0000 C   0  0  0  0  0  0  0  0  0  0  0  0
    5.5703    1.3055    0.0000 C   0  0  0  0  0  0  0  0  0  0  0  0
    5.0206    3.3485    0.0000 N   0  0  0  0  0  0  0  0  0  0  0  0
    4.3472    2.1942    0.0000 N   0  0  0  0  0  0  0  0  0  0  0  0
    4.2648    3.0187    0.0000 C   0  0  0  0  0  0  0  0  0  0  0  0
    7.6316    2.0201    0.0000 O   0  0  0  0  0  0  0  0  0  0  0  0
    5.1580    0.5909    0.0000 O   0  0  0  0  0  0  0  0  0  0  0  0
    6.8071    3.4585    0.0000 C   0  0  0  0  0  0  0  0  0  0  0  0
    6.8071    0.5909    0.0000 C   0  0  0  0  0  0  0  0  0  0  0  0
    3.7379    1.6445    0.0000 C   0  0  0  0  0  0  0  0  0  0  0  0
    1.5575    1.6032    0.0000 C   0  0  0  0  0  0  0  0  0  0  0  0
    2.9546    1.8964    0.0000 C   0  0  0  0  0  0  0  0  0  0  0  0
    2.3408    1.3421    0.0000 C   0  0  0  0  0  0  0  0  0  0  0  0
    1.3880    2.4049    0.0000 C   0  0  0  0  0  0  0  0  0  0  0  0
    0.9391    1.0535    0.0000 C   0  0  0  0  0  0  0  0  0  0  0  0
    0.1558    1.3009    0.0000 C   0  0  0  0  0  0  0  0  0  0  0  0
    0.5955    2.6614    0.0000 C   0  0  0  0  0  0  0  0  0  0  0  0
   -0.0091    2.1117    0.0000 C   0  0  0  0  0  0  0  0  0  0  0  0
  2  1  2  0  0  0  0
  3  1  1  0  0  0  0
  4  5  1  0  0  0  0
  5  3  1  0  0  0  0
  6  2  1  0  0  0  0
  7  1  1  0  0  0  0
  8  2  1  0  0  0  0
  9  7  2  0  0  0  0
 10  5  2  0  0  0  0
 11  6  2  0  0  0  0
 12  3  1  0  0  0  0
 13  4  1  0  0  0  0
 14  8  1  0  0  0  0
 15 17  1  0  0  0  0
 16 14  1  0  0  0  0
 17 16  1  0  0  0  0
 18 15  2  0  0  0  0
 19 15  1  0  0  0  0
 20 19  2  0  0  0  0
 21 18  1  0  0  0  0
 22 20  1  0  0  0  0
  8  9  1  0  0  0  0
  4  6  1  0  0  0  0
 21 22  2  0  0  0  0
M  END
>  <IDNUMBER>
F3259-0268

>  <Chemical_Name>
1,3-dimethyl-7-(3-phenylpropyl)-2,3,6,7-tetrahydro-1H-purine-2,6-dione

>  <PriceCoeff>
1.00

>  <CAS>
374600-85-8

>  <MW>
298.34

>  <Description>
solid

>  <FSP3>
0.31

>  <clogP>
2.44

>  <TPSA>
58.44

>  <Acceptor>
3

>  <Donor>
1

>  <RotBonds>
4

>  <HAC>
22

>  <Collection>
General

>  <PPDS>
+

$$$$
F3259-0270
  Mrv2219 10102508112D          

 17 18  0  0  0  0            999 V2000
    4.0311    2.8034    0.0000 C   0  0  0  0  0  0  0  0  0  0  0  0
    3.6189    2.0888    0.0000 C   0  0  0  0  0  0  0  0  0  0  0  0
    4.8557    2.8034    0.0000 N   0  0  0  0  0  0  0  0  0  0  0  0
    4.8557    1.3742    0.0000 N   0  0  0  0  0  0  0  0  0  0  0  0
    5.2679    2.0888    0.0000 C   0  0  0  0  0  0  0  0  0  0  0  0
    4.0311    1.3742    0.0000 C   0  0  0  0  0  0  0  0  0  0  0  0
    3.4814    3.4172    0.0000 N   0  0  0  0  0  0  0  0  0  0  0  0
    2.8081    2.2629    0.0000 N   0  0  0  0  0  0  0  0  0  0  0  0
    2.7256    3.0783    0.0000 C   0  0  0  0  0  0  0  0  0  0  0  0
    6.0925    2.0888    0.0000 O   0  0  0  0  0  0  0  0  0  0  0  0
    3.6189    0.6596    0.0000 O   0  0  0  0  0  0  0  0  0  0  0  0
    5.2679    3.5134    0.0000 C   0  0  0  0  0  0  0  0  0  0  0  0
    5.2679    0.6596    0.0000 C   0  0  0  0  0  0  0  0  0  0  0  0
    1.4155    1.9605    0.0000 C   0  0  0  0  0  0  0  0  0  0  0  0
    0.8017    1.4108    0.0000 C   0  0  0  0  0  0  0  0  0  0  0  0
    2.2034    1.7132    0.0000 C   0  0  0  0  0  0  0  0  0  0  0  0
    0.0184    1.6628    0.0000 C   0  0  0  0  0  0  0  0  0  0  0  0
  2  1  2  0  0  0  0
  3  1  1  0  0  0  0
  4  5  1  0  0  0  0
  5  3  1  0  0  0  0
  6  2  1  0  0  0  0
  7  1  1  0  0  0  0
  8  2  1  0  0  0  0
  9  7  2  0  0  0  0
 10  5  2  0  0  0  0
 11  6  2  0  0  0  0
 12  3  1  0  0  0  0
 13  4  1  0  0  0  0
 14 16  1  0  0  0  0
 15 14  2  0  0  0  0
 16  8  1  0  0  0  0
 17 15  1  0  0  0  0
  8  9  1  0  0  0  0
  4  6  1  0  0  0  0
M  END
>  <IDNUMBER>
F3259-0270

>  <Chemical_Name>
7-[(2E)-but-2-en-1-yl]-1,3-dimethyl-2,3,6,7-tetrahydro-1H-purine-2,6-dione

>  <PriceCoeff>
1.00

>  <CAS>
1556019-89-6

>  <MW>
234.25

>  <Description>
solid

>  <FSP3>
0.36

>  <clogP>
1.26

>  <TPSA>
58.44

>  <Acceptor>
3

>  <Donor>
1

>  <RotBonds>
2

>  <HAC>
17

>  <Collection>
General

>  <PPDS>
+

$$$$
F3259-0273
  Mrv2219 10102508112D          

 16 17  0  0  0  0            999 V2000
    3.8411   -4.6878    0.0000 C   0  0  0  0  0  0  0  0  0  0  0  0
    3.8411   -3.8759    0.0000 C   0  0  0  0  0  0  0  0  0  0  0  0
    3.1209   -5.0981    0.0000 N   0  0  0  0  0  0  0  0  0  0  0  0
    2.4269   -3.8759    0.0000 N   0  0  0  0  0  0  0  0  0  0  0  0
    2.4269   -4.6922    0.0000 C   0  0  0  0  0  0  0  0  0  0  0  0
    3.1209   -3.4613    0.0000 C   0  0  0  0  0  0  0  0  0  0  0  0
    4.5351   -5.0981    0.0000 N   0  0  0  0  0  0  0  0  0  0  0  0
    5.2553   -3.8803    0.0000 N   0  0  0  0  0  0  0  0  0  0  0  0
    5.2422   -4.7053    0.0000 C   0  0  0  0  0  0  0  0  0  0  0  0
    1.7198   -5.0981    0.0000 O   0  0  0  0  0  0  0  0  0  0  0  0
    3.1209   -2.6364    0.0000 O   0  0  0  0  0  0  0  0  0  0  0  0
    3.1209   -5.9187    0.0000 C   0  0  0  0  0  0  0  0  0  0  0  0
    1.6368   -3.6577    0.0000 C   0  0  0  0  0  0  0  0  0  0  0  0
    6.1151   -3.8803    0.0000 C   0  0  0  0  0  0  0  0  0  0  0  0
    7.4027   -3.1340    0.0000 Br  0  0  0  0  0  0  0  0  0  0  0  0
    6.5385   -3.1340    0.0000 C   0  0  0  0  0  0  0  0  0  0  0  0
  2  1  2  0  0  0  0
  3  1  1  0  0  0  0
  4  5  1  0  0  0  0
  5  3  1  0  0  0  0
  6  2  1  0  0  0  0
  7  1  1  0  0  0  0
  8  2  1  0  0  0  0
  9  7  2  0  0  0  0
 10  5  2  0  0  0  0
 11  6  2  0  0  0  0
 12  3  1  0  0  0  0
 13  4  1  0  0  0  0
 14  8  1  0  0  0  0
 15 16  1  0  0  0  0
 16 14  1  0  0  0  0
  9  8  1  0  0  0  0
  6  4  1  0  0  0  0
M  END
>  <IDNUMBER>
F3259-0273

>  <Chemical_Name>
7-(2-bromoethyl)-1,3-dimethyl-2,3,6,7-tetrahydro-1H-purine-2,6-dione

>  <PriceCoeff>
1.00

>  <CAS>
23146-05-6

>  <MW>
287.12

>  <Description>
solid

>  <FSP3>
0.44

>  <clogP>
0.69

>  <TPSA>
58.44

>  <Acceptor>
3

>  <Donor>
1

>  <RotBonds>
2

>  <HAC>
16

>  <Collection>
General

>  <PPDS>
+

$$$$
F3259-0309
  Mrv2219 10102508112D          

 18 19  0  0  0  0            999 V2000
   -0.3501   -0.5445    0.0000 C   0  0  0  0  0  0  0  0  0  0  0  0
   -0.3501    0.2549    0.0000 C   0  0  0  0  0  0  0  0  0  0  0  0
    0.3371   -0.9595    0.0000 N   0  0  0  0  0  0  0  0  0  0  0  0
   -1.0632   -0.9509    0.0000 N   0  0  0  0  0  0  0  0  0  0  0  0
   -1.7590    0.2549    0.0000 N   0  0  0  0  0  0  0  0  0  0  0  0
    1.0417    0.2549    0.0000 N   0  0  0  0  0  0  0  0  0  0  0  0
   -1.7590   -0.5575    0.0000 C   0  0  0  0  0  0  0  0  0  0  0  0
   -1.0632    0.6699    0.0000 C   0  0  0  0  0  0  0  0  0  0  0  0
    1.0287   -0.5619    0.0000 C   0  0  0  0  0  0  0  0  0  0  0  0
    1.8931    0.2549    0.0000 C   0  0  0  0  0  0  0  0  0  0  0  0
   -2.4592   -0.9595    0.0000 O   0  0  0  0  0  0  0  0  0  0  0  0
   -1.0632    1.4738    0.0000 O   0  0  0  0  0  0  0  0  0  0  0  0
    1.7245   -0.9725    0.0000 N   0  0  0  0  0  0  0  0  0  0  0  0
    2.3210    0.9941    0.0000 C   0  0  0  0  0  0  0  0  0  0  0  0
   -1.0632   -1.7634    0.0000 C   0  0  0  0  0  0  0  0  0  0  0  0
   -2.5414    0.4624    0.0000 C   0  0  0  0  0  0  0  0  0  0  0  0
    3.1682    0.9941    0.0000 C   0  0  0  0  0  0  0  0  0  0  0  0
    1.8845    1.7331    0.0000 C   0  0  0  0  0  0  0  0  0  0  0  0
  2  1  2  0  0  0  0
  3  1  1  0  0  0  0
  4  1  1  0  0  0  0
  5  7  1  0  0  0  0
  6  2  1  0  0  0  0
  7  4  1  0  0  0  0
  8  2  1  0  0  0  0
  9  3  2  0  0  0  0
 10  6  1  0  0  0  0
 11  7  2  0  0  0  0
 12  8  2  0  0  0  0
 13  9  1  0  0  0  0
 14 10  1  0  0  0  0
 15  4  1  0  0  0  0
 16  5  1  0  0  0  0
 17 14  2  0  0  0  0
 18 14  1  0  0  0  0
  6  9  1  0  0  0  0
  8  5  1  0  0  0  0
M  END
>  <IDNUMBER>
F3259-0309

>  <Chemical_Name>
8-amino-1,3-dimethyl-7-(2-methylprop-2-en-1-yl)-2,3,6,7-tetrahydro-1H-purine-2,6-dione

>  <PriceCoeff>
1.00

>  <CAS>
902047-64-7

>  <MW>
249.27

>  <Description>
solid

>  <FSP3>
0.36

>  <clogP>
0.86

>  <TPSA>
84.46

>  <Acceptor>
3

>  <Donor>
2

>  <RotBonds>
2

>  <HAC>
18

>  <Collection>
General

>  <PPDS>
+

$$$$
F3259-0498
  Mrv2219 10102508112D          

 23 25  0  0  0  0            999 V2000
    1.0750   -1.3949    0.0000 C   0  0  0  0  0  0  0  0  0  0  0  0
    1.0750   -0.5802    0.0000 C   0  0  0  0  0  0  0  0  0  0  0  0
    0.3583   -1.8044    0.0000 N   0  0  0  0  0  0  0  0  0  0  0  0
   -0.3327   -0.5802    0.0000 N   0  0  0  0  0  0  0  0  0  0  0  0
   -0.3327   -1.3992    0.0000 C   0  0  0  0  0  0  0  0  0  0  0  0
    0.3583   -0.1792    0.0000 C   0  0  0  0  0  0  0  0  0  0  0  0
    2.4742   -0.5930    0.0000 N   0  0  0  0  0  0  0  0  0  0  0  0
    1.7660   -1.8087    0.0000 N   0  0  0  0  0  0  0  0  0  0  0  0
    2.4614   -1.4120    0.0000 C   0  0  0  0  0  0  0  0  0  0  0  0
    3.0628   -0.0128    0.0000 C   0  0  0  0  0  0  0  0  0  0  0  0
    3.8648   -0.2346    0.0000 N   0  0  0  0  0  0  0  0  0  0  0  0
   -1.0323   -1.8087    0.0000 O   0  0  0  0  0  0  0  0  0  0  0  0
    5.4559   -0.6698    0.0000 N   0  0  0  0  0  0  0  0  0  0  0  0
    0.3583    0.6356    0.0000 O   0  0  0  0  0  0  0  0  0  0  0  0
    0.3583   -2.6149    0.0000 C   0  0  0  0  0  0  0  0  0  0  0  0
   -1.0835   -0.1579    0.0000 C   0  0  0  0  0  0  0  0  0  0  0  0
    4.0738   -1.0281    0.0000 C   0  0  0  0  0  0  0  0  0  0  0  0
    4.4449    0.3540    0.0000 C   0  0  0  0  0  0  0  0  0  0  0  0
    5.2469    0.1280    0.0000 C   0  0  0  0  0  0  0  0  0  0  0  0
    4.8672   -1.2541    0.0000 C   0  0  0  0  0  0  0  0  0  0  0  0
    6.2749   -0.4522    0.0000 C   0  0  0  0  0  0  0  0  0  0  0  0
    7.6826   -0.8318    0.0000 O   0  0  0  0  0  0  0  0  0  0  0  0
    6.8721   -1.0494    0.0000 C   0  0  0  0  0  0  0  0  0  0  0  0
  2  1  2  0  0  0  0
  3  1  1  0  0  0  0
  4  5  1  0  0  0  0
  5  3  1  0  0  0  0
  6  2  1  0  0  0  0
  7  2  1  0  0  0  0
  8  1  1  0  0  0  0
  9  8  2  0  0  0  0
 10  7  1  0  0  0  0
 11 10  1  0  0  0  0
 12  5  2  0  0  0  0
 13 19  1  0  0  0  0
 14  6  2  0  0  0  0
 15  3  1  0  0  0  0
 16  4  1  0  0  0  0
 17 11  1  0  0  0  0
 18 11  1  0  0  0  0
 19 18  1  0  0  0  0
 20 17  1  0  0  0  0
 21 13  1  0  0  0  0
 22 23  1  0  0  0  0
 23 21  1  0  0  0  0
  9  7  1  0  0  0  0
  6  4  1  0  0  0  0
 13 20  1  0  0  0  0
M  END
>  <IDNUMBER>
F3259-0498

>  <Chemical_Name>
7-{[4-(2-hydroxyethyl)piperazin-1-yl]methyl}-1,3-dimethyl-2,3,6,7-tetrahydro-1H-purine-2,6-dione

>  <PriceCoeff>
1.00

>  <CAS>
14340-40-0

>  <MW>
322.36

>  <Description>
solid

>  <FSP3>
0.64

>  <clogP>
-1.51

>  <TPSA>
85.15

>  <Acceptor>
6

>  <Donor>
4

>  <RotBonds>
4

>  <HAC>
23

>  <Collection>
General

>  <PPDS>
+

$$$$
F3260-0165
  Mrv2219 10102508112D          

 21 23  0  0  0  0            999 V2000
    4.2822    1.2375    0.0000 C   0  0  0  0  0  0  0  0  0  0  0  0
    4.2822    2.0625    0.0000 C   0  0  0  0  0  0  0  0  0  0  0  0
    2.8531    2.0625    0.0000 N   0  0  0  0  0  0  0  0  0  0  0  0
    5.0703    0.9846    0.0000 N   0  0  0  0  0  0  0  0  0  0  0  0
    3.5677    0.8250    0.0000 N   0  0  0  0  0  0  0  0  0  0  0  0
    2.8531    1.2375    0.0000 C   0  0  0  0  0  0  0  0  0  0  0  0
    3.5677    2.4750    0.0000 C   0  0  0  0  0  0  0  0  0  0  0  0
    5.5540    1.6500    0.0000 C   0  0  0  0  0  0  0  0  0  0  0  0
    5.0703    2.3178    0.0000 N   0  0  0  0  0  0  0  0  0  0  0  0
    2.1386    2.4750    0.0000 C   0  0  0  0  0  0  0  0  0  0  0  0
    2.2712    0.6556    0.0000 O   0  0  0  0  0  0  0  0  0  0  0  0
    3.5677    3.2951    0.0000 O   0  0  0  0  0  0  0  0  0  0  0  0
    6.3790    1.6500    0.0000 S   0  0  0  0  0  0  0  0  0  0  0  0
    3.5677    0.0000    0.0000 C   0  0  0  0  0  0  0  0  0  0  0  0
    5.3257    3.1011    0.0000 C   0  0  0  0  0  0  0  0  0  0  0  0
    1.4241    2.0625    0.0000 C   0  0  0  0  0  0  0  0  0  0  0  0
    0.7096    2.4750    0.0000 C   0  0  0  0  0  0  0  0  0  0  0  0
    1.4241    1.2375    0.0000 C   0  0  0  0  0  0  0  0  0  0  0  0
    0.7096    0.8250    0.0000 C   0  0  0  0  0  0  0  0  0  0  0  0
    0.0000    2.0625    0.0000 C   0  0  0  0  0  0  0  0  0  0  0  0
    0.0000    1.2375    0.0000 C   0  0  0  0  0  0  0  0  0  0  0  0
  2  1  2  0  0  0  0
  3  6  1  0  0  0  0
  4  1  1  0  0  0  0
  5  1  1  0  0  0  0
  6  5  1  0  0  0  0
  7  2  1  0  0  0  0
  8  4  2  0  0  0  0
  9  2  1  0  0  0  0
 10  3  1  0  0  0  0
 11  6  2  0  0  0  0
 12  7  2  0  0  0  0
 13  8  1  0  0  0  0
 14  5  1  0  0  0  0
 15  9  1  0  0  0  0
 16 10  1  0  0  0  0
 17 16  2  0  0  0  0
 18 16  1  0  0  0  0
 19 18  2  0  0  0  0
 20 17  1  0  0  0  0
 21 19  1  0  0  0  0
  9  8  1  0  0  0  0
  3  7  1  0  0  0  0
 21 20  2  0  0  0  0
M  END
>  <IDNUMBER>
F3260-0165

>  <Chemical_Name>
1-benzyl-3,7-dimethyl-8-sulfanyl-2,3,6,7-tetrahydro-1H-purine-2,6-dione

>  <PriceCoeff>
1.00

>  <CAS>
1228-89-3

>  <MW>
302.35

>  <Description>
solid

>  <FSP3>
0.21

>  <clogP>
2.53

>  <TPSA>
97.24

>  <Acceptor>
3

>  <Donor>
2

>  <RotBonds>
2

>  <HAC>
21

>  <Collection>
General

>  <PPDS>
+

$$$$
F3260-0380
  Mrv2219 10102508112D          

 20 21  0  0  0  0            999 V2000
    2.1386    1.2375    0.0000 C   0  0  0  0  0  0  0  0  0  0  0  0
    2.1386    2.0625    0.0000 C   0  0  0  0  0  0  0  0  0  0  0  0
    2.9268    0.9846    0.0000 N   0  0  0  0  0  0  0  0  0  0  0  0
    1.4241    0.8250    0.0000 N   0  0  0  0  0  0  0  0  0  0  0  0
    0.7096    2.0625    0.0000 N   0  0  0  0  0  0  0  0  0  0  0  0
    0.7096    1.2375    0.0000 C   0  0  0  0  0  0  0  0  0  0  0  0
    1.4241    2.4750    0.0000 C   0  0  0  0  0  0  0  0  0  0  0  0
    3.4130    1.6500    0.0000 C   0  0  0  0  0  0  0  0  0  0  0  0
    2.9268    2.3178    0.0000 N   0  0  0  0  0  0  0  0  0  0  0  0
    0.1277    0.6556    0.0000 O   0  0  0  0  0  0  0  0  0  0  0  0
    1.4241    3.2951    0.0000 O   0  0  0  0  0  0  0  0  0  0  0  0
    4.2380    1.6500    0.0000 N   0  0  0  0  0  0  0  0  0  0  0  0
    1.4241    0.0000    0.0000 C   0  0  0  0  0  0  0  0  0  0  0  0
    0.0000    2.4750    0.0000 C   0  0  0  0  0  0  0  0  0  0  0  0
    3.1821    3.1011    0.0000 C   0  0  0  0  0  0  0  0  0  0  0  0
    4.6505    0.9404    0.0000 C   0  0  0  0  0  0  0  0  0  0  0  0
    3.9875    3.2730    0.0000 C   0  0  0  0  0  0  0  0  0  0  0  0
    5.4755    0.9404    0.0000 C   0  0  0  0  0  0  0  0  0  0  0  0
    5.8880    0.2259    0.0000 C   0  0  0  0  0  0  0  0  0  0  0  0
    6.7130    0.2259    0.0000 C   0  0  0  0  0  0  0  0  0  0  0  0
  2  1  2  0  0  0  0
  3  1  1  0  0  0  0
  4  1  1  0  0  0  0
  5  6  1  0  0  0  0
  6  4  1  0  0  0  0
  7  2  1  0  0  0  0
  8  3  2  0  0  0  0
  9  2  1  0  0  0  0
 10  6  2  0  0  0  0
 11  7  2  0  0  0  0
 12  8  1  0  0  0  0
 13  4  1  0  0  0  0
 14  5  1  0  0  0  0
 15  9  1  0  0  0  0
 16 12  1  0  0  0  0
 17 15  1  0  0  0  0
 18 16  1  0  0  0  0
 19 18  1  0  0  0  0
 20 19  1  0  0  0  0
  8  9  1  0  0  0  0
  7  5  1  0  0  0  0
M  END
>  <IDNUMBER>
F3260-0380

>  <Chemical_Name>
8-(butylamino)-7-ethyl-1,3-dimethyl-2,3,6,7-tetrahydro-1H-purine-2,6-dione

>  <PriceCoeff>
1.00

>  <CAS>
681839-34-9

>  <MW>
279.34

>  <Description>
solid

>  <FSP3>
0.62

>  <clogP>
2.63

>  <TPSA>
70.47

>  <Acceptor>
3

>  <Donor>
2

>  <RotBonds>
5

>  <HAC>
20

>  <Collection>
General

>  <PPDS>
+

$$$$
F3260-0381
  Mrv2219 10102508112D          

 20 21  0  0  0  0            999 V2000
    2.1386    1.2375    0.0000 C   0  0  0  0  0  0  0  0  0  0  0  0
    2.1386    2.0625    0.0000 C   0  0  0  0  0  0  0  0  0  0  0  0
    2.9268    0.9846    0.0000 N   0  0  0  0  0  0  0  0  0  0  0  0
    1.4241    0.8250    0.0000 N   0  0  0  0  0  0  0  0  0  0  0  0
    0.7096    2.0625    0.0000 N   0  0  0  0  0  0  0  0  0  0  0  0
    0.7096    1.2375    0.0000 C   0  0  0  0  0  0  0  0  0  0  0  0
    1.4241    2.4750    0.0000 C   0  0  0  0  0  0  0  0  0  0  0  0
    3.4130    1.6500    0.0000 C   0  0  0  0  0  0  0  0  0  0  0  0
    2.9268    2.3178    0.0000 N   0  0  0  0  0  0  0  0  0  0  0  0
    4.2380    1.6500    0.0000 N   0  0  0  0  0  0  0  0  0  0  0  0
    0.1277    0.6556    0.0000 O   0  0  0  0  0  0  0  0  0  0  0  0
    1.4241    3.2951    0.0000 O   0  0  0  0  0  0  0  0  0  0  0  0
    1.4241    0.0000    0.0000 C   0  0  0  0  0  0  0  0  0  0  0  0
    0.0000    2.4750    0.0000 C   0  0  0  0  0  0  0  0  0  0  0  0
    3.1821    3.1011    0.0000 C   0  0  0  0  0  0  0  0  0  0  0  0
    4.6505    0.9404    0.0000 C   0  0  0  0  0  0  0  0  0  0  0  0
    5.4755    0.9404    0.0000 C   0  0  0  0  0  0  0  0  0  0  0  0
    3.9875    3.2730    0.0000 C   0  0  0  0  0  0  0  0  0  0  0  0
    5.8880    0.2259    0.0000 C   0  0  0  0  0  0  0  0  0  0  0  0
    5.8880    1.6500    0.0000 C   0  0  0  0  0  0  0  0  0  0  0  0
  2  1  2  0  0  0  0
  3  1  1  0  0  0  0
  4  1  1  0  0  0  0
  5  6  1  0  0  0  0
  6  4  1  0  0  0  0
  7  2  1  0  0  0  0
  8  3  2  0  0  0  0
  9  2  1  0  0  0  0
 10  8  1  0  0  0  0
 11  6  2  0  0  0  0
 12  7  2  0  0  0  0
 13  4  1  0  0  0  0
 14  5  1  0  0  0  0
 15  9  1  0  0  0  0
 16 10  1  0  0  0  0
 17 16  1  0  0  0  0
 18 15  1  0  0  0  0
 19 17  1  0  0  0  0
 20 17  1  0  0  0  0
  8  9  1  0  0  0  0
  7  5  1  0  0  0  0
M  END
>  <IDNUMBER>
F3260-0381

>  <Chemical_Name>
7-ethyl-1,3-dimethyl-8-[(2-methylpropyl)amino]-2,3,6,7-tetrahydro-1H-purine-2,6-dione

>  <PriceCoeff>
1.50

>  <CAS>
923232-63-7

>  <MW>
279.34

>  <Description>
solid

>  <FSP3>
0.62

>  <clogP>
2.50

>  <TPSA>
70.47

>  <Acceptor>
3

>  <Donor>
2

>  <RotBonds>
4

>  <HAC>
20

>  <Collection>
Advanced

>  <PPDS>
+

$$$$
F3260-0382
  Mrv2219 10102508112D          

 21 22  0  0  0  0            999 V2000
    2.1386    1.7310    0.0000 C   0  0  0  0  0  0  0  0  0  0  0  0
    2.1386    2.5511    0.0000 C   0  0  0  0  0  0  0  0  0  0  0  0
    2.9268    1.4781    0.0000 N   0  0  0  0  0  0  0  0  0  0  0  0
    1.4241    1.3185    0.0000 N   0  0  0  0  0  0  0  0  0  0  0  0
    0.7096    2.5511    0.0000 N   0  0  0  0  0  0  0  0  0  0  0  0
    0.7096    1.7310    0.0000 C   0  0  0  0  0  0  0  0  0  0  0  0
    1.4241    2.9636    0.0000 C   0  0  0  0  0  0  0  0  0  0  0  0
    3.4130    2.1484    0.0000 C   0  0  0  0  0  0  0  0  0  0  0  0
    2.9268    2.8089    0.0000 N   0  0  0  0  0  0  0  0  0  0  0  0
    0.1277    1.1540    0.0000 O   0  0  0  0  0  0  0  0  0  0  0  0
    1.4241    3.7886    0.0000 O   0  0  0  0  0  0  0  0  0  0  0  0
    4.2380    2.1484    0.0000 N   0  0  0  0  0  0  0  0  0  0  0  0
    1.4241    0.4935    0.0000 C   0  0  0  0  0  0  0  0  0  0  0  0
    0.0000    2.9636    0.0000 C   0  0  0  0  0  0  0  0  0  0  0  0
    3.1821    3.5898    0.0000 C   0  0  0  0  0  0  0  0  0  0  0  0
    4.6505    1.4290    0.0000 C   0  0  0  0  0  0  0  0  0  0  0  0
    3.9875    3.7665    0.0000 C   0  0  0  0  0  0  0  0  0  0  0  0
    5.4755    1.4290    0.0000 C   0  0  0  0  0  0  0  0  0  0  0  0
    6.7130    0.7145    0.0000 C   0  0  0  0  0  0  0  0  0  0  0  0
    5.8880    0.7145    0.0000 C   0  0  0  0  0  0  0  0  0  0  0  0
    7.1255    0.0000    0.0000 C   0  0  0  0  0  0  0  0  0  0  0  0
  2  1  2  0  0  0  0
  3  1  1  0  0  0  0
  4  1  1  0  0  0  0
  5  6  1  0  0  0  0
  6  4  1  0  0  0  0
  7  2  1  0  0  0  0
  8  3  2  0  0  0  0
  9  2  1  0  0  0  0
 10  6  2  0  0  0  0
 11  7  2  0  0  0  0
 12  8  1  0  0  0  0
 13  4  1  0  0  0  0
 14  5  1  0  0  0  0
 15  9  1  0  0  0  0
 16 12  1  0  0  0  0
 17 15  1  0  0  0  0
 18 16  1  0  0  0  0
 19 20  1  0  0  0  0
 20 18  1  0  0  0  0
 21 19  1  0  0  0  0
  8  9  1  0  0  0  0
  7  5  1  0  0  0  0
M  END
>  <IDNUMBER>
F3260-0382

>  <Chemical_Name>
7-ethyl-1,3-dimethyl-8-(pentylamino)-2,3,6,7-tetrahydro-1H-purine-2,6-dione

>  <PriceCoeff>
1.00

>  <CAS>
906212-56-4

>  <MW>
293.36

>  <Description>
solid

>  <FSP3>
0.64

>  <clogP>
3.16

>  <TPSA>
70.47

>  <Acceptor>
3

>  <Donor>
2

>  <RotBonds>
6

>  <HAC>
21

>  <Collection>
General

>  <PPDS>
+

$$$$
F3260-0407
  Mrv2219 10102508112D          

 17 18  0  0  0  0            999 V2000
    2.0131    1.2389    0.0000 C   0  0  0  0  0  0  0  0  0  0  0  0
    2.0131    2.0648    0.0000 C   0  0  0  0  0  0  0  0  0  0  0  0
    2.7973    0.9857    0.0000 N   0  0  0  0  0  0  0  0  0  0  0  0
    3.2840    1.6518    0.0000 C   0  0  0  0  0  0  0  0  0  0  0  0
    1.2930    0.8259    0.0000 N   0  0  0  0  0  0  0  0  0  0  0  0
    2.7973    2.3204    0.0000 N   0  0  0  0  0  0  0  0  0  0  0  0
    0.5826    1.2389    0.0000 C   0  0  0  0  0  0  0  0  0  0  0  0
    0.5826    2.0648    0.0000 N   0  0  0  0  0  0  0  0  0  0  0  0
    1.2930    2.4777    0.0000 C   0  0  0  0  0  0  0  0  0  0  0  0
    4.1099    1.6518    0.0000 N   0  0  0  0  0  0  0  0  0  0  0  0
    0.0000    0.6563    0.0000 O   0  0  0  0  0  0  0  0  0  0  0  0
    1.2930    3.2987    0.0000 O   0  0  0  0  0  0  0  0  0  0  0  0
    3.0529    3.1045    0.0000 C   0  0  0  0  0  0  0  0  0  0  0  0
    1.2930    0.0000    0.0000 C   0  0  0  0  0  0  0  0  0  0  0  0
    4.5228    2.3622    0.0000 C   0  0  0  0  0  0  0  0  0  0  0  0
    4.5228    0.9414    0.0000 C   0  0  0  0  0  0  0  0  0  0  0  0
    3.8591    3.2766    0.0000 C   0  0  0  0  0  0  0  0  0  0  0  0
  2  1  2  0  0  0  0
  3  1  1  0  0  0  0
  4  3  2  0  0  0  0
  5  1  1  0  0  0  0
  6  2  1  0  0  0  0
  7  5  1  0  0  0  0
  8  7  1  0  0  0  0
  9  2  1  0  0  0  0
 10  4  1  0  0  0  0
 11  7  2  0  0  0  0
 12  9  2  0  0  0  0
 13  6  1  0  0  0  0
 14  5  1  0  0  0  0
 15 10  1  0  0  0  0
 16 10  1  0  0  0  0
 17 13  1  0  0  0  0
  8  9  1  0  0  0  0
  6  4  1  0  0  0  0
M  END
>  <IDNUMBER>
F3260-0407

>  <Chemical_Name>
8-(dimethylamino)-7-ethyl-3-methyl-2,3,6,7-tetrahydro-1H-purine-2,6-dione

>  <PriceCoeff>
1.50

>  <CAS>
923183-57-7

>  <MW>
237.26

>  <Description>
solid

>  <FSP3>
0.50

>  <clogP>
0.56

>  <TPSA>
70.47

>  <Acceptor>
3

>  <Donor>
3

>  <RotBonds>
2

>  <HAC>
17

>  <Collection>
Advanced

>  <PPDS>
+

$$$$
F3260-0408
  Mrv2219 10102508112D          

 17 18  0  0  0  0            999 V2000
    2.0109    1.2375    0.0000 C   0  0  0  0  0  0  0  0  0  0  0  0
    2.7942    0.9846    0.0000 N   0  0  0  0  0  0  0  0  0  0  0  0
    2.0109    2.0625    0.0000 C   0  0  0  0  0  0  0  0  0  0  0  0
    1.2915    0.8250    0.0000 N   0  0  0  0  0  0  0  0  0  0  0  0
    0.5819    1.2375    0.0000 C   0  0  0  0  0  0  0  0  0  0  0  0
    0.5819    2.0625    0.0000 N   0  0  0  0  0  0  0  0  0  0  0  0
    3.2804    1.6500    0.0000 C   0  0  0  0  0  0  0  0  0  0  0  0
    1.2915    2.4750    0.0000 C   0  0  0  0  0  0  0  0  0  0  0  0
    2.7942    2.3178    0.0000 N   0  0  0  0  0  0  0  0  0  0  0  0
    0.0000    0.6556    0.0000 O   0  0  0  0  0  0  0  0  0  0  0  0
    1.2915    3.2951    0.0000 O   0  0  0  0  0  0  0  0  0  0  0  0
    4.1054    1.6500    0.0000 N   0  0  0  0  0  0  0  0  0  0  0  0
    1.2915    0.0000    0.0000 C   0  0  0  0  0  0  0  0  0  0  0  0
    3.0496    3.1011    0.0000 C   0  0  0  0  0  0  0  0  0  0  0  0
    4.5179    2.3596    0.0000 C   0  0  0  0  0  0  0  0  0  0  0  0
    3.8549    3.2730    0.0000 C   0  0  0  0  0  0  0  0  0  0  0  0
    5.3429    2.3596    0.0000 C   0  0  0  0  0  0  0  0  0  0  0  0
  2  1  1  0  0  0  0
  3  1  2  0  0  0  0
  4  1  1  0  0  0  0
  5  4  1  0  0  0  0
  6  5  1  0  0  0  0
  7  2  2  0  0  0  0
  8  3  1  0  0  0  0
  9  3  1  0  0  0  0
 10  5  2  0  0  0  0
 11  8  2  0  0  0  0
 12  7  1  0  0  0  0
 13  4  1  0  0  0  0
 14  9  1  0  0  0  0
 15 12  1  0  0  0  0
 16 14  1  0  0  0  0
 17 15  1  0  0  0  0
  9  7  1  0  0  0  0
  6  8  1  0  0  0  0
M  END
>  <IDNUMBER>
F3260-0408

>  <Chemical_Name>
7-ethyl-8-(ethylamino)-3-methyl-2,3,6,7-tetrahydro-1H-purine-2,6-dione

>  <PriceCoeff>
1.50

>  <CAS>
923680-45-9

>  <MW>
237.26

>  <Description>
solid

>  <FSP3>
0.50

>  <clogP>
0.95

>  <TPSA>
79.26

>  <Acceptor>
3

>  <Donor>
3

>  <RotBonds>
3

>  <HAC>
17

>  <Collection>
Advanced

$$$$
F3260-0409
  Mrv2219 10102508112D          

 18 19  0  0  0  0            999 V2000
    2.0109    1.2375    0.0000 C   0  0  0  0  0  0  0  0  0  0  0  0
    2.7942    0.9846    0.0000 N   0  0  0  0  0  0  0  0  0  0  0  0
    2.0109    2.0625    0.0000 C   0  0  0  0  0  0  0  0  0  0  0  0
    1.2915    0.8250    0.0000 N   0  0  0  0  0  0  0  0  0  0  0  0
    0.5819    1.2375    0.0000 C   0  0  0  0  0  0  0  0  0  0  0  0
    0.5819    2.0625    0.0000 N   0  0  0  0  0  0  0  0  0  0  0  0
    3.2804    1.6500    0.0000 C   0  0  0  0  0  0  0  0  0  0  0  0
    1.2915    2.4750    0.0000 C   0  0  0  0  0  0  0  0  0  0  0  0
    2.7942    2.3178    0.0000 N   0  0  0  0  0  0  0  0  0  0  0  0
    0.0000    0.6556    0.0000 O   0  0  0  0  0  0  0  0  0  0  0  0
    1.2915    3.2951    0.0000 O   0  0  0  0  0  0  0  0  0  0  0  0
    4.1054    1.6500    0.0000 N   0  0  0  0  0  0  0  0  0  0  0  0
    1.2915    0.0000    0.0000 C   0  0  0  0  0  0  0  0  0  0  0  0
    3.0496    3.1011    0.0000 C   0  0  0  0  0  0  0  0  0  0  0  0
    4.5179    2.3596    0.0000 C   0  0  0  0  0  0  0  0  0  0  0  0
    3.8549    3.2730    0.0000 C   0  0  0  0  0  0  0  0  0  0  0  0
    5.3429    2.3596    0.0000 C   0  0  0  0  0  0  0  0  0  0  0  0
    5.7554    3.0741    0.0000 C   0  0  0  0  0  0  0  0  0  0  0  0
  2  1  1  0  0  0  0
  3  1  2  0  0  0  0
  4  1  1  0  0  0  0
  5  4  1  0  0  0  0
  6  5  1  0  0  0  0
  7  2  2  0  0  0  0
  8  3  1  0  0  0  0
  9  3  1  0  0  0  0
 10  5  2  0  0  0  0
 11  8  2  0  0  0  0
 12  7  1  0  0  0  0
 13  4  1  0  0  0  0
 14  9  1  0  0  0  0
 15 12  1  0  0  0  0
 16 14  1  0  0  0  0
 17 15  1  0  0  0  0
 18 17  1  0  0  0  0
  9  7  1  0  0  0  0
  6  8  1  0  0  0  0
M  END
>  <IDNUMBER>
F3260-0409

>  <Chemical_Name>
7-ethyl-3-methyl-8-(propylamino)-2,3,6,7-tetrahydro-1H-purine-2,6-dione

>  <PriceCoeff>
1.00

>  <CAS>
923113-55-7

>  <MW>
251.28

>  <Description>
solid

>  <FSP3>
0.55

>  <clogP>
1.48

>  <TPSA>
79.26

>  <Acceptor>
3

>  <Donor>
3

>  <RotBonds>
4

>  <HAC>
18

>  <Collection>
General

>  <PPDS>
+

$$$$
F3260-0607
  Mrv2219 10102508112D          

 17 18  0  0  0  0            999 V2000
    2.8580    1.2375    0.0000 C   0  0  0  0  0  0  0  0  0  0  0  0
    2.8580    2.0625    0.0000 C   0  0  0  0  0  0  0  0  0  0  0  0
    3.6266    0.9919    0.0000 N   0  0  0  0  0  0  0  0  0  0  0  0
    2.1435    0.8250    0.0000 N   0  0  0  0  0  0  0  0  0  0  0  0
    1.4290    2.0625    0.0000 N   0  0  0  0  0  0  0  0  0  0  0  0
    1.4290    1.2375    0.0000 C   0  0  0  0  0  0  0  0  0  0  0  0
    2.1435    2.4750    0.0000 C   0  0  0  0  0  0  0  0  0  0  0  0
    4.1201    1.6500    0.0000 C   0  0  0  0  0  0  0  0  0  0  0  0
    3.6266    2.3399    0.0000 N   0  0  0  0  0  0  0  0  0  0  0  0
    0.7096    0.8250    0.0000 O   0  0  0  0  0  0  0  0  0  0  0  0
    2.1435    3.2951    0.0000 O   0  0  0  0  0  0  0  0  0  0  0  0
    4.8346    1.2375    0.0000 Br  0  0  0  0  0  0  0  0  0  0  0  0
    0.7096    2.4750    0.0000 C   0  0  0  0  0  0  0  0  0  0  0  0
    2.1435    0.0000    0.0000 C   0  0  0  0  0  0  0  0  0  0  0  0
    4.3411    2.7500    0.0000 C   0  0  0  0  0  0  0  0  0  0  0  0
    0.0000    2.0625    0.0000 C   0  0  0  0  0  0  0  0  0  0  0  0
    5.0556    2.3399    0.0000 C   0  0  0  0  0  0  0  0  0  0  0  0
  2  1  2  0  0  0  0
  3  1  1  0  0  0  0
  4  1  1  0  0  0  0
  5  6  1  0  0  0  0
  6  4  1  0  0  0  0
  7  2  1  0  0  0  0
  8  3  2  0  0  0  0
  9  2  1  0  0  0  0
 10  6  2  0  0  0  0
 11  7  2  0  0  0  0
 12  8  1  0  0  0  0
 13  5  1  0  0  0  0
 14  4  1  0  0  0  0
 15  9  1  0  0  0  0
 16 13  1  0  0  0  0
 17 15  1  0  0  0  0
  8  9  1  0  0  0  0
  7  5  1  0  0  0  0
M  END
>  <IDNUMBER>
F3260-0607

>  <Chemical_Name>
8-bromo-1,7-diethyl-3-methyl-2,3,6,7-tetrahydro-1H-purine-2,6-dione

>  <PriceCoeff>
1.00

>  <CAS>
1040668-61-8

>  <MW>
301.14

>  <Description>
solid

>  <FSP3>
0.50

>  <clogP>
1.92

>  <TPSA>
58.44

>  <Acceptor>
3

>  <Donor>
1

>  <RotBonds>
2

>  <HAC>
17

>  <Collection>
General

>  <PPDS>
+

$$$$
F3260-0609
  Mrv2219 10102508112D          

 18 19  0  0  0  0            999 V2000
    2.8601    1.2384    0.0000 C   0  0  0  0  0  0  0  0  0  0  0  0
    2.8601    2.0640    0.0000 C   0  0  0  0  0  0  0  0  0  0  0  0
    3.6292    0.9926    0.0000 N   0  0  0  0  0  0  0  0  0  0  0  0
    2.1451    0.8256    0.0000 N   0  0  0  0  0  0  0  0  0  0  0  0
    1.4300    2.0640    0.0000 N   0  0  0  0  0  0  0  0  0  0  0  0
    1.4300    1.2384    0.0000 C   0  0  0  0  0  0  0  0  0  0  0  0
    2.1451    2.4768    0.0000 C   0  0  0  0  0  0  0  0  0  0  0  0
    4.1230    1.6512    0.0000 C   0  0  0  0  0  0  0  0  0  0  0  0
    3.6292    2.3416    0.0000 N   0  0  0  0  0  0  0  0  0  0  0  0
    0.7101    0.8256    0.0000 O   0  0  0  0  0  0  0  0  0  0  0  0
    2.1451    3.2975    0.0000 O   0  0  0  0  0  0  0  0  0  0  0  0
    4.9240    1.4423    0.0000 Br  0  0  0  0  0  0  0  0  0  0  0  0
    0.7101    2.4768    0.0000 C   0  0  0  0  0  0  0  0  0  0  0  0
    2.1451    0.0000    0.0000 C   0  0  0  0  0  0  0  0  0  0  0  0
    4.3442    2.7520    0.0000 C   0  0  0  0  0  0  0  0  0  0  0  0
    5.0592    2.3416    0.0000 C   0  0  0  0  0  0  0  0  0  0  0  0
    0.0000    2.0640    0.0000 C   0  0  0  0  0  0  0  0  0  0  0  0
    5.7742    2.7520    0.0000 C   0  0  0  0  0  0  0  0  0  0  0  0
  2  1  2  0  0  0  0
  3  1  1  0  0  0  0
  4  1  1  0  0  0  0
  5  6  1  0  0  0  0
  6  4  1  0  0  0  0
  7  2  1  0  0  0  0
  8  3  2  0  0  0  0
  9  2  1  0  0  0  0
 10  6  2  0  0  0  0
 11  7  2  0  0  0  0
 12  8  1  0  0  0  0
 13  5  1  0  0  0  0
 14  4  1  0  0  0  0
 15  9  1  0  0  0  0
 16 15  1  0  0  0  0
 17 13  1  0  0  0  0
 18 16  1  0  0  0  0
  8  9  1  0  0  0  0
  7  5  1  0  0  0  0
M  END
>  <IDNUMBER>
F3260-0609

>  <Chemical_Name>
8-bromo-1-ethyl-3-methyl-7-propyl-2,3,6,7-tetrahydro-1H-purine-2,6-dione

>  <PriceCoeff>
1.00

>  <CAS>
1040668-66-3

>  <MW>
315.17

>  <Description>
solid

>  <FSP3>
0.55

>  <clogP>
2.44

>  <TPSA>
58.44

>  <Acceptor>
3

>  <Donor>
1

>  <RotBonds>
3

>  <HAC>
18

>  <Collection>
General

>  <PPDS>
+

$$$$
F3260-0610
  Mrv2219 10102508112D          

 18 19  0  0  0  0            999 V2000
    2.8580    1.2375    0.0000 C   0  0  0  0  0  0  0  0  0  0  0  0
    2.8580    2.0625    0.0000 C   0  0  0  0  0  0  0  0  0  0  0  0
    3.6266    0.9919    0.0000 N   0  0  0  0  0  0  0  0  0  0  0  0
    2.1435    0.8250    0.0000 N   0  0  0  0  0  0  0  0  0  0  0  0
    1.4290    2.0625    0.0000 N   0  0  0  0  0  0  0  0  0  0  0  0
    1.4290    1.2375    0.0000 C   0  0  0  0  0  0  0  0  0  0  0  0
    2.1435    2.4750    0.0000 C   0  0  0  0  0  0  0  0  0  0  0  0
    4.1201    1.6500    0.0000 C   0  0  0  0  0  0  0  0  0  0  0  0
    3.6266    2.3399    0.0000 N   0  0  0  0  0  0  0  0  0  0  0  0
    0.7096    0.8250    0.0000 O   0  0  0  0  0  0  0  0  0  0  0  0
    2.1435    3.2951    0.0000 O   0  0  0  0  0  0  0  0  0  0  0  0
    4.8346    1.2375    0.0000 Br  0  0  0  0  0  0  0  0  0  0  0  0
    4.3411    2.7500    0.0000 C   0  0  0  0  0  0  0  0  0  0  0  0
    0.7096    2.4750    0.0000 C   0  0  0  0  0  0  0  0  0  0  0  0
    2.1435    0.0000    0.0000 C   0  0  0  0  0  0  0  0  0  0  0  0
    5.0556    2.3399    0.0000 C   0  0  0  0  0  0  0  0  0  0  0  0
    4.3411    3.5750    0.0000 C   0  0  0  0  0  0  0  0  0  0  0  0
    0.0000    2.0625    0.0000 C   0  0  0  0  0  0  0  0  0  0  0  0
  2  1  2  0  0  0  0
  3  1  1  0  0  0  0
  4  1  1  0  0  0  0
  5  6  1  0  0  0  0
  6  4  1  0  0  0  0
  7  2  1  0  0  0  0
  8  3  2  0  0  0  0
  9  2  1  0  0  0  0
 10  6  2  0  0  0  0
 11  7  2  0  0  0  0
 12  8  1  0  0  0  0
 13  9  1  0  0  0  0
 14  5  1  0  0  0  0
 15  4  1  0  0  0  0
 16 13  1  0  0  0  0
 17 13  1  0  0  0  0
 18 14  1  0  0  0  0
  8  9  1  0  0  0  0
  7  5  1  0  0  0  0
M  END
>  <IDNUMBER>
F3260-0610

>  <Chemical_Name>
8-bromo-1-ethyl-3-methyl-7-(propan-2-yl)-2,3,6,7-tetrahydro-1H-purine-2,6-dione

>  <PriceCoeff>
1.00

>  <CAS>
1040668-72-1

>  <MW>
315.17

>  <Description>
solid

>  <FSP3>
0.55

>  <clogP>
2.22

>  <TPSA>
58.44

>  <Acceptor>
3

>  <Donor>
1

>  <RotBonds>
2

>  <HAC>
18

>  <Collection>
General

>  <PPDS>
+

$$$$
F3260-0633
  Mrv2219 10102508112D          

 22 24  0  0  0  0            999 V2000
    5.0016    1.2375    0.0000 C   0  0  0  0  0  0  0  0  0  0  0  0
    5.0016    2.0625    0.0000 C   0  0  0  0  0  0  0  0  0  0  0  0
    3.5677    2.0625    0.0000 N   0  0  0  0  0  0  0  0  0  0  0  0
    5.7701    0.9919    0.0000 N   0  0  0  0  0  0  0  0  0  0  0  0
    4.2871    0.8250    0.0000 N   0  0  0  0  0  0  0  0  0  0  0  0
    3.5677    1.2375    0.0000 C   0  0  0  0  0  0  0  0  0  0  0  0
    4.2871    2.4701    0.0000 C   0  0  0  0  0  0  0  0  0  0  0  0
    6.2636    1.6500    0.0000 C   0  0  0  0  0  0  0  0  0  0  0  0
    5.7701    2.3399    0.0000 N   0  0  0  0  0  0  0  0  0  0  0  0
    2.8531    2.4701    0.0000 C   0  0  0  0  0  0  0  0  0  0  0  0
    2.8531    0.8250    0.0000 O   0  0  0  0  0  0  0  0  0  0  0  0
    4.2871    3.2951    0.0000 O   0  0  0  0  0  0  0  0  0  0  0  0
    7.0886    1.6426    0.0000 S   0  0  0  0  0  0  0  0  0  0  0  0
    4.2871    0.0000    0.0000 C   0  0  0  0  0  0  0  0  0  0  0  0
    2.1386    2.0625    0.0000 C   0  0  0  0  0  0  0  0  0  0  0  0
    6.0132    3.1183    0.0000 C   0  0  0  0  0  0  0  0  0  0  0  0
    0.7145    1.2375    0.0000 C   0  0  0  0  0  0  0  0  0  0  0  0
    1.4290    2.4701    0.0000 C   0  0  0  0  0  0  0  0  0  0  0  0
    2.1386    1.2375    0.0000 C   0  0  0  0  0  0  0  0  0  0  0  0
    1.4290    0.8250    0.0000 C   0  0  0  0  0  0  0  0  0  0  0  0
    0.7145    2.0625    0.0000 C   0  0  0  0  0  0  0  0  0  0  0  0
    0.0000    0.8250    0.0000 C   0  0  0  0  0  0  0  0  0  0  0  0
  2  1  2  0  0  0  0
  3  6  1  0  0  0  0
  4  1  1  0  0  0  0
  5  1  1  0  0  0  0
  6  5  1  0  0  0  0
  7  2  1  0  0  0  0
  8  4  2  0  0  0  0
  9  2  1  0  0  0  0
 10  3  1  0  0  0  0
 11  6  2  0  0  0  0
 12  7  2  0  0  0  0
 13  8  1  0  0  0  0
 14  5  1  0  0  0  0
 15 10  1  0  0  0  0
 16  9  1  0  0  0  0
 17 20  1  0  0  0  0
 18 15  2  0  0  0  0
 19 15  1  0  0  0  0
 20 19  2  0  0  0  0
 21 18  1  0  0  0  0
 22 17  1  0  0  0  0
  8  9  1  0  0  0  0
  7  3  1  0  0  0  0
 21 17  2  0  0  0  0
M  END
>  <IDNUMBER>
F3260-0633

>  <Chemical_Name>
3,7-dimethyl-1-[(4-methylphenyl)methyl]-8-sulfanyl-2,3,6,7-tetrahydro-1H-purine-2,6-dione

>  <PriceCoeff>
1.00

>  <CAS>
1040669-23-5

>  <MW>
316.38

>  <Description>
solid

>  <FSP3>
0.27

>  <clogP>
3.03

>  <TPSA>
97.24

>  <Acceptor>
3

>  <Donor>
2

>  <RotBonds>
2

>  <HAC>
22

>  <Collection>
General

>  <PPDS>
+

$$$$
F3260-0725
  Mrv2219 10102508112D          

 19 20  0  0  0  0            999 V2000
    2.1435    1.2375    0.0000 C   0  0  0  0  0  0  0  0  0  0  0  0
    2.1435    2.0625    0.0000 C   0  0  0  0  0  0  0  0  0  0  0  0
    2.9121    0.9919    0.0000 N   0  0  0  0  0  0  0  0  0  0  0  0
    1.4290    0.8250    0.0000 N   0  0  0  0  0  0  0  0  0  0  0  0
    0.7145    2.0625    0.0000 N   0  0  0  0  0  0  0  0  0  0  0  0
    0.7145    1.2375    0.0000 C   0  0  0  0  0  0  0  0  0  0  0  0
    1.4290    2.4701    0.0000 C   0  0  0  0  0  0  0  0  0  0  0  0
    3.4056    1.6500    0.0000 C   0  0  0  0  0  0  0  0  0  0  0  0
    2.9121    2.3399    0.0000 N   0  0  0  0  0  0  0  0  0  0  0  0
    0.0000    0.8250    0.0000 O   0  0  0  0  0  0  0  0  0  0  0  0
    1.4290    3.2951    0.0000 O   0  0  0  0  0  0  0  0  0  0  0  0
    4.2306    1.6426    0.0000 N   0  0  0  0  0  0  0  0  0  0  0  0
    1.4290    0.0000    0.0000 C   0  0  0  0  0  0  0  0  0  0  0  0
    0.0000    2.4701    0.0000 C   0  0  0  0  0  0  0  0  0  0  0  0
    3.5161    3.1993    0.0000 C   0  0  0  0  0  0  0  0  0  0  0  0
    5.8953    3.0520    0.0000 O   0  0  0  0  0  0  0  0  0  0  0  0
    4.6505    2.3547    0.0000 C   0  0  0  0  0  0  0  0  0  0  0  0
    5.4755    2.3473    0.0000 C   0  0  0  0  0  0  0  0  0  0  0  0
    3.1674    3.9482    0.0000 C   0  0  0  0  0  0  0  0  0  0  0  0
  2  1  2  0  0  0  0
  3  1  1  0  0  0  0
  4  1  1  0  0  0  0
  5  6  1  0  0  0  0
  6  4  1  0  0  0  0
  7  2  1  0  0  0  0
  8  3  2  0  0  0  0
  9  2  1  0  0  0  0
 10  6  2  0  0  0  0
 11  7  2  0  0  0  0
 12  8  1  0  0  0  0
 13  4  1  0  0  0  0
 14  5  1  0  0  0  0
 15  9  1  0  0  0  0
 16 18  1  0  0  0  0
 17 12  1  0  0  0  0
 18 17  1  0  0  0  0
 19 15  1  0  0  0  0
  8  9  1  0  0  0  0
  7  5  1  0  0  0  0
M  END
>  <IDNUMBER>
F3260-0725

>  <Chemical_Name>
7-ethyl-8-[(2-hydroxyethyl)amino]-1,3-dimethyl-2,3,6,7-tetrahydro-1H-purine-2,6-dione

>  <PriceCoeff>
1.50

>  <CAS>
682761-53-1

>  <MW>
267.28

>  <Description>
solid

>  <FSP3>
0.55

>  <clogP>
0.28

>  <TPSA>
90.70

>  <Acceptor>
4

>  <Donor>
3

>  <RotBonds>
4

>  <HAC>
19

>  <Collection>
Advanced

>  <PPDS>
+

$$$$
F3260-0811
  Mrv2219 10102508112D          

 21 22  0  0  0  0            999 V2000
    2.1459    1.2438    0.0000 C   0  0  0  0  0  0  0  0  0  0  0  0
    2.1459    2.0697    0.0000 C   0  0  0  0  0  0  0  0  0  0  0  0
    2.9300    0.9857    0.0000 N   0  0  0  0  0  0  0  0  0  0  0  0
    1.4306    0.8259    0.0000 N   0  0  0  0  0  0  0  0  0  0  0  0
    0.7153    2.0697    0.0000 N   0  0  0  0  0  0  0  0  0  0  0  0
    0.7153    1.2438    0.0000 C   0  0  0  0  0  0  0  0  0  0  0  0
    1.4306    2.4777    0.0000 C   0  0  0  0  0  0  0  0  0  0  0  0
    3.4167    1.6567    0.0000 C   0  0  0  0  0  0  0  0  0  0  0  0
    2.9300    2.3229    0.0000 N   0  0  0  0  0  0  0  0  0  0  0  0
    4.2426    1.6567    0.0000 N   0  0  0  0  0  0  0  0  0  0  0  0
    0.0000    0.8308    0.0000 O   0  0  0  0  0  0  0  0  0  0  0  0
    1.4257    3.2987    0.0000 O   0  0  0  0  0  0  0  0  0  0  0  0
    1.4257    0.0000    0.0000 C   0  0  0  0  0  0  0  0  0  0  0  0
    0.0000    2.4777    0.0000 C   0  0  0  0  0  0  0  0  0  0  0  0
    3.4167    2.9890    0.0000 C   0  0  0  0  0  0  0  0  0  0  0  0
    4.6556    2.3671    0.0000 C   0  0  0  0  0  0  0  0  0  0  0  0
    5.4815    2.3671    0.0000 C   0  0  0  0  0  0  0  0  0  0  0  0
    3.0775    3.7412    0.0000 C   0  0  0  0  0  0  0  0  0  0  0  0
    5.8944    1.6567    0.0000 C   0  0  0  0  0  0  0  0  0  0  0  0
    5.8944    3.0775    0.0000 C   0  0  0  0  0  0  0  0  0  0  0  0
    3.5642    4.4048    0.0000 C   0  0  0  0  0  0  0  0  0  0  0  0
  2  1  2  0  0  0  0
  3  1  1  0  0  0  0
  4  1  1  0  0  0  0
  5  6  1  0  0  0  0
  6  4  1  0  0  0  0
  7  2  1  0  0  0  0
  8  3  2  0  0  0  0
  9  2  1  0  0  0  0
 10  8  1  0  0  0  0
 11  6  2  0  0  0  0
 12  7  2  0  0  0  0
 13  4  1  0  0  0  0
 14  5  1  0  0  0  0
 15  9  1  0  0  0  0
 16 10  1  0  0  0  0
 17 16  1  0  0  0  0
 18 15  1  0  0  0  0
 19 17  1  0  0  0  0
 20 17  1  0  0  0  0
 21 18  1  0  0  0  0
  8  9  1  0  0  0  0
  5  7  1  0  0  0  0
M  END
>  <IDNUMBER>
F3260-0811

>  <Chemical_Name>
1,3-dimethyl-8-[(2-methylpropyl)amino]-7-propyl-2,3,6,7-tetrahydro-1H-purine-2,6-dione

>  <PriceCoeff>
1.00

>  <MW>
293.36

>  <Description>
solid

>  <FSP3>
0.64

>  <clogP>
3.03

>  <TPSA>
70.47

>  <Acceptor>
3

>  <Donor>
2

>  <RotBonds>
5

>  <HAC>
21

>  <Collection>
General

$$$$
F3260-0814
  Mrv2219 10102508112D          

 18 19  0  0  0  0            999 V2000
    2.1456    1.2436    0.0000 C   0  0  0  0  0  0  0  0  0  0  0  0
    2.1456    2.0694    0.0000 C   0  0  0  0  0  0  0  0  0  0  0  0
    1.4304    0.8258    0.0000 N   0  0  0  0  0  0  0  0  0  0  0  0
    0.7152    1.2436    0.0000 C   0  0  0  0  0  0  0  0  0  0  0  0
    0.7152    2.0694    0.0000 N   0  0  0  0  0  0  0  0  0  0  0  0
    2.9296    0.9855    0.0000 N   0  0  0  0  0  0  0  0  0  0  0  0
    1.4304    2.4774    0.0000 C   0  0  0  0  0  0  0  0  0  0  0  0
    2.9296    2.3225    0.0000 N   0  0  0  0  0  0  0  0  0  0  0  0
    3.4162    1.6565    0.0000 C   0  0  0  0  0  0  0  0  0  0  0  0
    3.4162    2.9886    0.0000 C   0  0  0  0  0  0  0  0  0  0  0  0
    3.0771    3.7407    0.0000 C   0  0  0  0  0  0  0  0  0  0  0  0
    0.0000    0.8307    0.0000 O   0  0  0  0  0  0  0  0  0  0  0  0
    1.4255    3.2983    0.0000 O   0  0  0  0  0  0  0  0  0  0  0  0
    2.2587    3.8291    0.0000 O   0  0  0  0  0  0  0  0  0  0  0  0
    1.4255    0.0000    0.0000 C   0  0  0  0  0  0  0  0  0  0  0  0
    3.5637    4.4042    0.0000 N   0  0  0  0  0  0  0  0  0  0  0  0
    3.2294    5.1637    0.0000 C   0  0  0  0  0  0  0  0  0  0  0  0
    3.7112    5.8272    0.0000 C   0  0  0  0  0  0  0  0  0  0  0  0
  2  1  2  0  0  0  0
  3  1  1  0  0  0  0
  4  3  1  0  0  0  0
  5  4  1  0  0  0  0
  6  1  1  0  0  0  0
  7  2  1  0  0  0  0
  8  2  1  0  0  0  0
  9  6  2  0  0  0  0
 10  8  1  0  0  0  0
 11 10  1  0  0  0  0
 12  4  2  0  0  0  0
 13  7  2  0  0  0  0
 14 11  2  0  0  0  0
 15  3  1  0  0  0  0
 16 11  1  0  0  0  0
 17 16  1  0  0  0  0
 18 17  1  0  0  0  0
  9  8  1  0  0  0  0
  5  7  1  0  0  0  0
M  END
>  <IDNUMBER>
F3260-0814

>  <Chemical_Name>
N-ethyl-2-(3-methyl-2,6-dioxo-2,3,6,7-tetrahydro-1H-purin-7-yl)acetamide

>  <PriceCoeff>
1.50

>  <CAS>
1105197-81-6

>  <MW>
251.24

>  <Description>
solid

>  <FSP3>
0.40

>  <clogP>
-1.23

>  <TPSA>
96.33

>  <Acceptor>
4

>  <Donor>
3

>  <RotBonds>
3

>  <HAC>
18

>  <Collection>
Advanced

>  <PPDS>
+

$$$$
F3260-0820
  Mrv2219 10102508112D          

 19 20  0  0  0  0            999 V2000
    2.1456    1.2436    0.0000 C   0  0  0  0  0  0  0  0  0  0  0  0
    2.1456    2.0694    0.0000 C   0  0  0  0  0  0  0  0  0  0  0  0
    1.4304    0.8258    0.0000 N   0  0  0  0  0  0  0  0  0  0  0  0
    0.7152    1.2436    0.0000 C   0  0  0  0  0  0  0  0  0  0  0  0
    0.7152    2.0694    0.0000 N   0  0  0  0  0  0  0  0  0  0  0  0
    2.9296    0.9855    0.0000 N   0  0  0  0  0  0  0  0  0  0  0  0
    1.4304    2.4774    0.0000 C   0  0  0  0  0  0  0  0  0  0  0  0
    2.9296    2.3225    0.0000 N   0  0  0  0  0  0  0  0  0  0  0  0
    3.4162    1.6565    0.0000 C   0  0  0  0  0  0  0  0  0  0  0  0
    3.4162    2.9886    0.0000 C   0  0  0  0  0  0  0  0  0  0  0  0
    3.0771    3.7407    0.0000 C   0  0  0  0  0  0  0  0  0  0  0  0
    0.0000    0.8307    0.0000 O   0  0  0  0  0  0  0  0  0  0  0  0
    1.4255    3.2983    0.0000 O   0  0  0  0  0  0  0  0  0  0  0  0
    2.2587    3.8291    0.0000 O   0  0  0  0  0  0  0  0  0  0  0  0
    1.4255    0.0000    0.0000 C   0  0  0  0  0  0  0  0  0  0  0  0
    3.5637    4.4042    0.0000 N   0  0  0  0  0  0  0  0  0  0  0  0
    3.2294    5.1637    0.0000 C   0  0  0  0  0  0  0  0  0  0  0  0
    3.7112    5.8272    0.0000 C   0  0  0  0  0  0  0  0  0  0  0  0
    3.3769    6.5867    0.0000 C   0  0  0  0  0  0  0  0  0  0  0  0
  2  1  2  0  0  0  0
  3  1  1  0  0  0  0
  4  3  1  0  0  0  0
  5  4  1  0  0  0  0
  6  1  1  0  0  0  0
  7  2  1  0  0  0  0
  8  2  1  0  0  0  0
  9  6  2  0  0  0  0
 10  8  1  0  0  0  0
 11 10  1  0  0  0  0
 12  4  2  0  0  0  0
 13  7  2  0  0  0  0
 14 11  2  0  0  0  0
 15  3  1  0  0  0  0
 16 11  1  0  0  0  0
 17 16  1  0  0  0  0
 18 17  1  0  0  0  0
 19 18  1  0  0  0  0
  9  8  1  0  0  0  0
  5  7  1  0  0  0  0
M  END
>  <IDNUMBER>
F3260-0820

>  <Chemical_Name>
2-(3-methyl-2,6-dioxo-2,3,6,7-tetrahydro-1H-purin-7-yl)-N-propylacetamide

>  <PriceCoeff>
1.00

>  <CAS>
1105245-10-0

>  <MW>
265.27

>  <Description>
solid

>  <FSP3>
0.45

>  <clogP>
-0.70

>  <TPSA>
96.33

>  <Acceptor>
4

>  <Donor>
3

>  <RotBonds>
4

>  <HAC>
19

>  <Collection>
General

>  <PPDS>
+

$$$$
F3260-0822
  Mrv2219 10102508112D          

 20 21  0  0  0  0            999 V2000
    2.1443    1.2429    0.0000 C   0  0  0  0  0  0  0  0  0  0  0  0
    2.1443    2.0682    0.0000 C   0  0  0  0  0  0  0  0  0  0  0  0
    1.4296    0.8253    0.0000 N   0  0  0  0  0  0  0  0  0  0  0  0
    0.7147    1.2429    0.0000 C   0  0  0  0  0  0  0  0  0  0  0  0
    0.7147    2.0682    0.0000 N   0  0  0  0  0  0  0  0  0  0  0  0
    2.9279    0.9849    0.0000 N   0  0  0  0  0  0  0  0  0  0  0  0
    1.4296    2.4760    0.0000 C   0  0  0  0  0  0  0  0  0  0  0  0
    2.9279    2.3212    0.0000 N   0  0  0  0  0  0  0  0  0  0  0  0
    3.4143    1.6555    0.0000 C   0  0  0  0  0  0  0  0  0  0  0  0
    3.4143    2.9868    0.0000 C   0  0  0  0  0  0  0  0  0  0  0  0
    3.0753    3.7385    0.0000 C   0  0  0  0  0  0  0  0  0  0  0  0
    0.0000    0.8302    0.0000 O   0  0  0  0  0  0  0  0  0  0  0  0
    1.4247    3.2963    0.0000 O   0  0  0  0  0  0  0  0  0  0  0  0
    3.5616    4.4017    0.0000 N   0  0  0  0  0  0  0  0  0  0  0  0
    2.2573    3.8268    0.0000 O   0  0  0  0  0  0  0  0  0  0  0  0
    1.4247    0.0000    0.0000 C   0  0  0  0  0  0  0  0  0  0  0  0
    3.2275    5.1606    0.0000 C   0  0  0  0  0  0  0  0  0  0  0  0
    3.7090    5.8239    0.0000 C   0  0  0  0  0  0  0  0  0  0  0  0
    4.5318    5.7428    0.0000 C   0  0  0  0  0  0  0  0  0  0  0  0
    3.3749    6.5828    0.0000 C   0  0  0  0  0  0  0  0  0  0  0  0
  2  1  2  0  0  0  0
  3  1  1  0  0  0  0
  4  3  1  0  0  0  0
  5  4  1  0  0  0  0
  6  1  1  0  0  0  0
  7  2  1  0  0  0  0
  8  2  1  0  0  0  0
  9  6  2  0  0  0  0
 10  8  1  0  0  0  0
 11 10  1  0  0  0  0
 12  4  2  0  0  0  0
 13  7  2  0  0  0  0
 14 11  1  0  0  0  0
 15 11  2  0  0  0  0
 16  3  1  0  0  0  0
 17 14  1  0  0  0  0
 18 17  1  0  0  0  0
 19 18  1  0  0  0  0
 20 18  1  0  0  0  0
  9  8  1  0  0  0  0
  5  7  1  0  0  0  0
M  END
>  <IDNUMBER>
F3260-0822

>  <Chemical_Name>
2-(3-methyl-2,6-dioxo-2,3,6,7-tetrahydro-1H-purin-7-yl)-N-(2-methylpropyl)acetamide

>  <PriceCoeff>
1.00

>  <CAS>
1105197-86-1

>  <MW>
279.30

>  <Description>
solid

>  <FSP3>
0.50

>  <clogP>
-0.30

>  <TPSA>
96.33

>  <Acceptor>
4

>  <Donor>
3

>  <RotBonds>
4

>  <HAC>
20

>  <Collection>
General

>  <PPDS>
+

$$$$
F3260-0825
  Mrv2219 10102508112D          

 19 20  0  0  0  0            999 V2000
    2.1456    1.2436    0.0000 C   0  0  0  0  0  0  0  0  0  0  0  0
    2.1456    2.0694    0.0000 C   0  0  0  0  0  0  0  0  0  0  0  0
    1.4304    0.8258    0.0000 N   0  0  0  0  0  0  0  0  0  0  0  0
    0.7152    1.2436    0.0000 C   0  0  0  0  0  0  0  0  0  0  0  0
    0.7152    2.0694    0.0000 N   0  0  0  0  0  0  0  0  0  0  0  0
    2.9296    0.9855    0.0000 N   0  0  0  0  0  0  0  0  0  0  0  0
    1.4304    2.4774    0.0000 C   0  0  0  0  0  0  0  0  0  0  0  0
    2.9296    2.3225    0.0000 N   0  0  0  0  0  0  0  0  0  0  0  0
    3.4162    1.6565    0.0000 C   0  0  0  0  0  0  0  0  0  0  0  0
    3.4162    2.9886    0.0000 C   0  0  0  0  0  0  0  0  0  0  0  0
    3.0771    3.7407    0.0000 C   0  0  0  0  0  0  0  0  0  0  0  0
    0.0000    0.8307    0.0000 O   0  0  0  0  0  0  0  0  0  0  0  0
    1.4255    3.2983    0.0000 O   0  0  0  0  0  0  0  0  0  0  0  0
    2.2587    3.8291    0.0000 O   0  0  0  0  0  0  0  0  0  0  0  0
    1.4255    0.0000    0.0000 C   0  0  0  0  0  0  0  0  0  0  0  0
    3.5637    4.4042    0.0000 N   0  0  0  0  0  0  0  0  0  0  0  0
    3.3769    6.5867    0.0000 O   0  0  0  0  0  0  0  0  0  0  0  0
    3.2294    5.1637    0.0000 C   0  0  0  0  0  0  0  0  0  0  0  0
    3.7112    5.8272    0.0000 C   0  0  0  0  0  0  0  0  0  0  0  0
  2  1  2  0  0  0  0
  3  1  1  0  0  0  0
  4  3  1  0  0  0  0
  5  4  1  0  0  0  0
  6  1  1  0  0  0  0
  7  2  1  0  0  0  0
  8  2  1  0  0  0  0
  9  6  2  0  0  0  0
 10  8  1  0  0  0  0
 11 10  1  0  0  0  0
 12  4  2  0  0  0  0
 13  7  2  0  0  0  0
 14 11  2  0  0  0  0
 15  3  1  0  0  0  0
 16 11  1  0  0  0  0
 17 19  1  0  0  0  0
 18 16  1  0  0  0  0
 19 18  1  0  0  0  0
  9  8  1  0  0  0  0
  5  7  1  0  0  0  0
M  END
>  <IDNUMBER>
F3260-0825

>  <Chemical_Name>
N-(2-hydroxyethyl)-2-(3-methyl-2,6-dioxo-2,3,6,7-tetrahydro-1H-purin-7-yl)acetamide

>  <PriceCoeff>
1.00

>  <CAS>
1105245-14-4

>  <MW>
267.24

>  <Description>
solid

>  <FSP3>
0.40

>  <clogP>
-2.08

>  <TPSA>
116.56

>  <Acceptor>
5

>  <Donor>
4

>  <RotBonds>
4

>  <HAC>
19

>  <Collection>
General

>  <PPDS>
+

$$$$
F3260-0883
  Mrv2219 10102508112D          

 20 22  0  0  0  0            999 V2000
    2.9527    0.3781    0.0000 C   0  0  0  0  0  0  0  0  0  0  0  0
    3.2071   -0.4125    0.0000 C   0  0  0  0  0  0  0  0  0  0  0  0
    3.6195    0.8559    0.0000 N   0  0  0  0  0  0  0  0  0  0  0  0
    2.1484    0.5534    0.0000 N   0  0  0  0  0  0  0  0  0  0  0  0
    4.2830    0.3781    0.0000 C   0  0  0  0  0  0  0  0  0  0  0  0
    1.8390   -0.8456    0.0000 N   0  0  0  0  0  0  0  0  0  0  0  0
    1.5915   -0.0550    0.0000 C   0  0  0  0  0  0  0  0  0  0  0  0
    2.6502   -1.0209    0.0000 C   0  0  0  0  0  0  0  0  0  0  0  0
    4.0320   -0.4125    0.0000 N   0  0  0  0  0  0  0  0  0  0  0  0
    5.0667    0.6359    0.0000 N   0  0  0  0  0  0  0  0  0  0  0  0
    0.7872    0.1203    0.0000 O   0  0  0  0  0  0  0  0  0  0  0  0
    2.8977   -1.8081    0.0000 O   0  0  0  0  0  0  0  0  0  0  0  0
    1.2890   -1.4540    0.0000 C   0  0  0  0  0  0  0  0  0  0  0  0
    1.8906    1.3371    0.0000 C   0  0  0  0  0  0  0  0  0  0  0  0
    4.5167   -1.0759    0.0000 C   0  0  0  0  0  0  0  0  0  0  0  0
    5.3245    1.4231    0.0000 C   0  0  0  0  0  0  0  0  0  0  0  0
    5.7473    0.1512    0.0000 C   0  0  0  0  0  0  0  0  0  0  0  0
    0.4778   -1.2787    0.0000 C   0  0  0  0  0  0  0  0  0  0  0  0
    6.4073    0.6462    0.0000 C   0  0  0  0  0  0  0  0  0  0  0  0
    6.1563    1.4231    0.0000 C   0  0  0  0  0  0  0  0  0  0  0  0
  2  1  2  0  0  0  0
  3  1  1  0  0  0  0
  4  1  1  0  0  0  0
  5  3  2  0  0  0  0
  6  7  1  0  0  0  0
  7  4  1  0  0  0  0
  8  2  1  0  0  0  0
  9  2  1  0  0  0  0
 10  5  1  0  0  0  0
 11  7  2  0  0  0  0
 12  8  2  0  0  0  0
 13  6  1  0  0  0  0
 14  4  1  0  0  0  0
 15  9  1  0  0  0  0
 16 10  1  0  0  0  0
 17 10  1  0  0  0  0
 18 13  1  0  0  0  0
 19 17  1  0  0  0  0
 20 16  1  0  0  0  0
  5  9  1  0  0  0  0
  6  8  1  0  0  0  0
 20 19  1  0  0  0  0
M  END
>  <IDNUMBER>
F3260-0883

>  <Chemical_Name>
1-ethyl-3,7-dimethyl-8-(pyrrolidin-1-yl)-2,3,6,7-tetrahydro-1H-purine-2,6-dione

>  <PriceCoeff>
1.50

>  <CAS>
1203256-28-3

>  <MW>
277.32

>  <Description>
solid

>  <FSP3>
0.62

>  <clogP>
1.31

>  <TPSA>
61.68

>  <Acceptor>
3

>  <Donor>
2

>  <RotBonds>
2

>  <HAC>
20

>  <Collection>
Advanced

>  <PPDS>
+

$$$$
F3260-0886
  Mrv2219 10102508112D          

 21 22  0  0  0  0            999 V2000
    2.9526   -0.6943    0.0000 C   0  0  0  0  0  0  0  0  0  0  0  0
    3.2069   -1.4883    0.0000 C   0  0  0  0  0  0  0  0  0  0  0  0
    3.6194   -0.2165    0.0000 N   0  0  0  0  0  0  0  0  0  0  0  0
    2.1483   -0.5259    0.0000 N   0  0  0  0  0  0  0  0  0  0  0  0
    1.8389   -1.9214    0.0000 N   0  0  0  0  0  0  0  0  0  0  0  0
    1.5915   -1.1274    0.0000 C   0  0  0  0  0  0  0  0  0  0  0  0
    2.6501   -2.0967    0.0000 C   0  0  0  0  0  0  0  0  0  0  0  0
    4.2828   -0.6943    0.0000 C   0  0  0  0  0  0  0  0  0  0  0  0
    4.0319   -1.4883    0.0000 N   0  0  0  0  0  0  0  0  0  0  0  0
    0.7872   -0.9521    0.0000 O   0  0  0  0  0  0  0  0  0  0  0  0
    2.8976   -2.8804    0.0000 O   0  0  0  0  0  0  0  0  0  0  0  0
    5.0665   -0.4366    0.0000 N   0  0  0  0  0  0  0  0  0  0  0  0
    1.2890   -2.5298    0.0000 C   0  0  0  0  0  0  0  0  0  0  0  0
    1.8905    0.2646    0.0000 C   0  0  0  0  0  0  0  0  0  0  0  0
    4.5165   -2.1551    0.0000 C   0  0  0  0  0  0  0  0  0  0  0  0
    6.0152    0.6290    0.0000 C   0  0  0  0  0  0  0  0  0  0  0  0
    6.9639    1.6980    0.0000 O   0  0  0  0  0  0  0  0  0  0  0  0
    5.2383    0.3781    0.0000 C   0  0  0  0  0  0  0  0  0  0  0  0
    6.1870    1.4402    0.0000 C   0  0  0  0  0  0  0  0  0  0  0  0
    7.1357    2.5126    0.0000 C   0  0  0  0  0  0  0  0  0  0  0  0
    0.4778   -2.3545    0.0000 C   0  0  0  0  0  0  0  0  0  0  0  0
  2  1  2  0  0  0  0
  3  1  1  0  0  0  0
  4  1  1  0  0  0  0
  5  6  1  0  0  0  0
  6  4  1  0  0  0  0
  7  2  1  0  0  0  0
  8  3  2  0  0  0  0
  9  2  1  0  0  0  0
 10  6  2  0  0  0  0
 11  7  2  0  0  0  0
 12  8  1  0  0  0  0
 13  5  1  0  0  0  0
 14  4  1  0  0  0  0
 15  9  1  0  0  0  0
 16 18  1  0  0  0  0
 17 19  1  0  0  0  0
 18 12  1  0  0  0  0
 19 16  1  0  0  0  0
 20 17  1  0  0  0  0
 21 13  1  0  0  0  0
  8  9  1  0  0  0  0
  5  7  1  0  0  0  0
M  END
>  <IDNUMBER>
F3260-0886

>  <Chemical_Name>
1-ethyl-8-[(3-methoxypropyl)amino]-3,7-dimethyl-2,3,6,7-tetrahydro-1H-purine-2,6-dione

>  <PriceCoeff>
1.50

>  <CAS>
1203138-96-8

>  <MW>
295.34

>  <Description>
solid

>  <FSP3>
0.62

>  <clogP>
1.40

>  <TPSA>
79.70

>  <Acceptor>
4

>  <Donor>
2

>  <RotBonds>
6

>  <HAC>
21

>  <Collection>
Advanced

>  <PPDS>
+

$$$$
F3260-0895
  Mrv2219 10102508112D          

 21 22  0  0  0  0            999 V2000
    2.9526   -0.6943    0.0000 C   0  0  0  0  0  0  0  0  0  0  0  0
    3.2069   -1.4883    0.0000 C   0  0  0  0  0  0  0  0  0  0  0  0
    3.6194   -0.2165    0.0000 N   0  0  0  0  0  0  0  0  0  0  0  0
    2.1483   -0.5259    0.0000 N   0  0  0  0  0  0  0  0  0  0  0  0
    1.8389   -1.9214    0.0000 N   0  0  0  0  0  0  0  0  0  0  0  0
    1.5915   -1.1274    0.0000 C   0  0  0  0  0  0  0  0  0  0  0  0
    2.6501   -2.0967    0.0000 C   0  0  0  0  0  0  0  0  0  0  0  0
    4.2828   -0.6943    0.0000 C   0  0  0  0  0  0  0  0  0  0  0  0
    4.0319   -1.4883    0.0000 N   0  0  0  0  0  0  0  0  0  0  0  0
    0.7872   -0.9521    0.0000 O   0  0  0  0  0  0  0  0  0  0  0  0
    2.8976   -2.8804    0.0000 O   0  0  0  0  0  0  0  0  0  0  0  0
    5.0665   -0.4366    0.0000 N   0  0  0  0  0  0  0  0  0  0  0  0
    1.2890   -2.5298    0.0000 C   0  0  0  0  0  0  0  0  0  0  0  0
    1.8905    0.2646    0.0000 C   0  0  0  0  0  0  0  0  0  0  0  0
    4.5165   -2.1551    0.0000 C   0  0  0  0  0  0  0  0  0  0  0  0
    5.2383    0.3781    0.0000 C   0  0  0  0  0  0  0  0  0  0  0  0
    0.4778   -2.3545    0.0000 C   0  0  0  0  0  0  0  0  0  0  0  0
    6.0152    0.6290    0.0000 C   0  0  0  0  0  0  0  0  0  0  0  0
    6.9639    1.6980    0.0000 C   0  0  0  0  0  0  0  0  0  0  0  0
    6.1870    1.4402    0.0000 C   0  0  0  0  0  0  0  0  0  0  0  0
    7.1357    2.5126    0.0000 C   0  0  0  0  0  0  0  0  0  0  0  0
  2  1  2  0  0  0  0
  3  1  1  0  0  0  0
  4  1  1  0  0  0  0
  5  6  1  0  0  0  0
  6  4  1  0  0  0  0
  7  2  1  0  0  0  0
  8  3  2  0  0  0  0
  9  2  1  0  0  0  0
 10  6  2  0  0  0  0
 11  7  2  0  0  0  0
 12  8  1  0  0  0  0
 13  5  1  0  0  0  0
 14  4  1  0  0  0  0
 15  9  1  0  0  0  0
 16 12  1  0  0  0  0
 17 13  1  0  0  0  0
 18 16  1  0  0  0  0
 19 20  1  0  0  0  0
 20 18  1  0  0  0  0
 21 19  1  0  0  0  0
  8  9  1  0  0  0  0
  5  7  1  0  0  0  0
M  END
>  <IDNUMBER>
F3260-0895

>  <Chemical_Name>
1-ethyl-3,7-dimethyl-8-(pentylamino)-2,3,6,7-tetrahydro-1H-purine-2,6-dione

>  <PriceCoeff>
1.00

>  <CAS>
1202988-50-8

>  <MW>
293.36

>  <Description>
solid

>  <FSP3>
0.64

>  <clogP>
3.16

>  <TPSA>
70.47

>  <Acceptor>
3

>  <Donor>
2

>  <RotBonds>
6

>  <HAC>
21

>  <Collection>
General

>  <PPDS>
+

$$$$
F3264-0150
  Mrv2219 10102508112D          

 27 30  0  0  0  0            999 V2000
    5.9964   -6.4104    0.0000 C   0  0  0  0  0  0  0  0  0  0  0  0
    4.6666   -6.2139    0.0000 N   0  0  0  0  0  0  0  0  0  0  0  0
    7.4181   -6.3518    0.0000 C   0  0  0  0  0  0  0  0  0  0  0  0
    5.2605   -6.7992    0.0000 C   0  0  0  0  0  0  0  0  0  0  0  0
    7.4516   -7.1798    0.0000 C   0  0  0  0  0  0  0  0  0  0  0  0
    6.6905   -5.9755    0.0000 C   0  0  0  0  0  0  0  0  0  0  0  0
    8.2461   -7.3931    0.0000 N   0  0  0  0  0  0  0  0  0  0  0  0
    5.0346   -5.4737    0.0000 C   0  0  0  0  0  0  0  0  0  0  0  0
    8.7102   -6.7031    0.0000 C   0  0  0  0  0  0  0  0  0  0  0  0
    8.1834   -6.0591    0.0000 S   0  0  0  0  0  0  0  0  0  0  0  0
    5.8501   -5.5866    0.0000 C   0  0  0  0  0  0  0  0  0  0  0  0
    6.7616   -7.6189    0.0000 S   0  0  0  0  0  0  0  0  0  0  0  0
    6.0340   -7.2383    0.0000 C   0  0  0  0  0  0  0  0  0  0  0  0
    6.6655   -5.1684    0.0000 C   0  0  0  0  0  0  0  0  0  0  0  0
    3.8512   -6.3602    0.0000 C   0  0  0  0  0  0  0  0  0  0  0  0
    3.3160   -5.7246    0.0000 C   0  0  0  0  0  0  0  0  0  0  0  0
    5.1433   -7.6189    0.0000 O   0  0  0  0  0  0  0  0  0  0  0  0
    4.6458   -4.7419    0.0000 O   0  0  0  0  0  0  0  0  0  0  0  0
    9.5340   -6.6655    0.0000 O   0  0  0  0  0  0  0  0  0  0  0  0
    7.3554   -4.7336    0.0000 C   0  0  0  0  0  0  0  0  0  0  0  0
    3.6045   -4.9468    0.0000 O   0  0  0  0  0  0  0  0  0  0  0  0
    2.5006   -5.8626    0.0000 O   0  0  0  0  0  0  0  0  0  0  0  0
    8.0913   -5.1225    0.0000 O   0  0  0  0  0  0  0  0  0  0  0  0
    5.9379   -4.7712    0.0000 C   0  0  0  0  0  0  0  0  0  0  0  0
    7.3387   -3.9140    0.0000 C   0  0  0  0  0  0  0  0  0  0  0  0
    5.9128   -3.9558    0.0000 C   0  0  0  0  0  0  0  0  0  0  0  0
    6.6111   -3.5251    0.0000 C   0  0  0  0  0  0  0  0  0  0  0  0
  2  4  1  0  0  0  0
  3  6  1  0  0  0  0
  4  1  1  0  0  0  0
  5 12  1  0  0  0  0
  6  1  1  0  0  0  0
  7  5  1  0  0  0  0
  8 11  1  0  0  0  0
  9 10  1  0  0  0  0
 10  3  1  0  0  0  0
 11  1  1  0  0  0  0
 12 13  1  0  0  0  0
 13  1  1  0  0  0  0
 14  6  1  0  0  0  0
 15  2  1  0  0  0  0
 16 15  1  0  0  0  0
 17  4  2  0  0  0  0
 18  8  2  0  0  0  0
 19  9  2  0  0  0  0
 20 14  1  0  0  0  0
 21 16  2  0  0  0  0
 22 16  1  0  0  0  0
 23 20  1  0  0  0  0
 24 14  2  0  0  0  0
 25 20  2  0  0  0  0
 26 24  1  0  0  0  0
 27 26  2  0  0  0  0
  8  2  1  0  0  0  0
  5  3  2  0  0  0  0
  7  9  1  0  0  0  0
 25 27  1  0  0  0  0
M  END
>  <IDNUMBER>
F3264-0150

>  <Chemical_Name>
2-[7'-(2-hydroxyphenyl)-2,2',5-trioxo-2',3',5',7'-tetrahydrospiro[pyrrolidine-3,6'-thiopyrano[2,3-d][1,3]thiazol]-1-yl]acetic acid

>  <PriceCoeff>
1.00

>  <MW>
406.43

>  <Description>
solid

>  <FSP3>
0.29

>  <clogP>
0.45

>  <TPSA>
174.61

>  <Acceptor>
6

>  <Donor>
2

>  <RotBonds>
3

>  <HAC>
27

>  <Collection>
General

$$$$
F3269-0032
  Mrv2219 10102508112D          

 24 26  0  0  0  0            999 V2000
    3.0217   -2.6346    0.0000 N   0  0  0  0  0  0  0  0  0  0  0  0
    3.5128   -3.2964    0.0000 C   0  0  0  0  0  0  0  0  0  0  0  0
    4.2953   -3.0342    0.0000 S   0  0  0  0  0  0  0  0  0  0  0  0
    3.5004   -1.9603    0.0000 C   0  0  0  0  0  0  0  0  0  0  0  0
    4.2870   -2.2101    0.0000 C   0  0  0  0  0  0  0  0  0  0  0  0
    0.9532   -1.9354    0.0000 N   0  0  0  0  0  0  0  0  0  0  0  0
    0.4662   -1.2653    0.0000 C   0  0  0  0  0  0  0  0  0  0  0  0
    0.4745   -2.6096    0.0000 C   0  0  0  0  0  0  0  0  0  0  0  0
    2.1893   -2.6388    0.0000 C   0  0  0  0  0  0  0  0  0  0  0  0
    1.7772   -1.9271    0.0000 C   0  0  0  0  0  0  0  0  0  0  0  0
    4.9488   -1.7231    0.0000 N   0  0  0  0  0  0  0  0  0  0  0  0
    3.2631   -4.0747    0.0000 O   0  0  0  0  0  0  0  0  0  0  0  0
    3.2381   -1.1779    0.0000 O   0  0  0  0  0  0  0  0  0  0  0  0
   -0.3204   -2.3516    0.0000 C   0  0  0  0  0  0  0  0  0  0  0  0
   -0.3204   -1.5275    0.0000 C   0  0  0  0  0  0  0  0  0  0  0  0
    0.7159   -0.4787    0.0000 O   0  0  0  0  0  0  0  0  0  0  0  0
    0.7284   -3.3880    0.0000 O   0  0  0  0  0  0  0  0  0  0  0  0
    5.7062   -2.0519    0.0000 C   0  0  0  0  0  0  0  0  0  0  0  0
    7.2171   -2.7137    0.0000 C   0  0  0  0  0  0  0  0  0  0  0  0
    7.9704   -3.0384    0.0000 Br  0  0  0  0  0  0  0  0  0  0  0  0
    6.3680   -1.5608    0.0000 C   0  0  0  0  0  0  0  0  0  0  0  0
    5.7978   -2.8718    0.0000 C   0  0  0  0  0  0  0  0  0  0  0  0
    7.1172   -1.8896    0.0000 C   0  0  0  0  0  0  0  0  0  0  0  0
    6.5470   -3.2007    0.0000 C   0  0  0  0  0  0  0  0  0  0  0  0
  2  1  1  0  0  0  0
  3  2  1  0  0  0  0
  4  1  1  0  0  0  0
  5  4  1  0  0  0  0
  6 10  1  0  0  0  0
  7  6  1  0  0  0  0
  8  6  1  0  0  0  0
  9  1  1  0  0  0  0
 10  9  1  0  0  0  0
 11  5  1  0  0  0  0
 12  2  2  0  0  0  0
 13  4  2  0  0  0  0
 14  8  1  0  0  0  0
 15  7  1  0  0  0  0
 16  7  2  0  0  0  0
 17  8  2  0  0  0  0
 18 11  1  0  0  0  0
 19 24  2  0  0  0  0
 20 19  1  0  0  0  0
 21 18  1  0  0  0  0
 22 18  2  0  0  0  0
 23 21  2  0  0  0  0
 24 22  1  0  0  0  0
  3  5  1  0  0  0  0
 15 14  1  0  0  0  0
 23 19  1  0  0  0  0
M  END
>  <IDNUMBER>
F3269-0032

>  <Chemical_Name>
5-[(4-bromophenyl)amino]-3-[2-(2,5-dioxopyrrolidin-1-yl)ethyl]-1,3-thiazolidine-2,4-dione

>  <PriceCoeff>
1.00

>  <CAS>
1025750-24-6

>  <MW>
412.26

>  <Description>
solid

>  <FSP3>
0.33

>  <clogP>
1.63

>  <TPSA>
112.09

>  <Acceptor>
5

>  <Donor>
1

>  <RotBonds>
5

>  <HAC>
24

>  <Collection>
General

>  <PPDS>
+

$$$$
F3269-0033
  Mrv2219 10102508112D          

 23 25  0  0  0  0            999 V2000
    3.0217   -2.6346    0.0000 N   0  0  0  0  0  0  0  0  0  0  0  0
    3.5128   -3.2964    0.0000 C   0  0  0  0  0  0  0  0  0  0  0  0
    4.2953   -3.0342    0.0000 S   0  0  0  0  0  0  0  0  0  0  0  0
    3.5004   -1.9603    0.0000 C   0  0  0  0  0  0  0  0  0  0  0  0
    4.2870   -2.2101    0.0000 C   0  0  0  0  0  0  0  0  0  0  0  0
    0.9532   -1.9354    0.0000 N   0  0  0  0  0  0  0  0  0  0  0  0
    0.4662   -1.2653    0.0000 C   0  0  0  0  0  0  0  0  0  0  0  0
    0.4745   -2.6096    0.0000 C   0  0  0  0  0  0  0  0  0  0  0  0
    2.1893   -2.6388    0.0000 C   0  0  0  0  0  0  0  0  0  0  0  0
    1.7772   -1.9271    0.0000 C   0  0  0  0  0  0  0  0  0  0  0  0
    4.9488   -1.7231    0.0000 N   0  0  0  0  0  0  0  0  0  0  0  0
    3.2631   -4.0747    0.0000 O   0  0  0  0  0  0  0  0  0  0  0  0
    3.2381   -1.1779    0.0000 O   0  0  0  0  0  0  0  0  0  0  0  0
   -0.3204   -2.3516    0.0000 C   0  0  0  0  0  0  0  0  0  0  0  0
   -0.3204   -1.5275    0.0000 C   0  0  0  0  0  0  0  0  0  0  0  0
    0.7159   -0.4787    0.0000 O   0  0  0  0  0  0  0  0  0  0  0  0
    0.7284   -3.3880    0.0000 O   0  0  0  0  0  0  0  0  0  0  0  0
    5.7062   -2.0519    0.0000 C   0  0  0  0  0  0  0  0  0  0  0  0
    5.7978   -2.8718    0.0000 C   0  0  0  0  0  0  0  0  0  0  0  0
    6.3680   -1.5608    0.0000 C   0  0  0  0  0  0  0  0  0  0  0  0
    6.5470   -3.2007    0.0000 C   0  0  0  0  0  0  0  0  0  0  0  0
    7.1172   -1.8896    0.0000 C   0  0  0  0  0  0  0  0  0  0  0  0
    7.2171   -2.7137    0.0000 C   0  0  0  0  0  0  0  0  0  0  0  0
  2  1  1  0  0  0  0
  3  2  1  0  0  0  0
  4  1  1  0  0  0  0
  5  4  1  0  0  0  0
  6 10  1  0  0  0  0
  7  6  1  0  0  0  0
  8  6  1  0  0  0  0
  9  1  1  0  0  0  0
 10  9  1  0  0  0  0
 11  5  1  0  0  0  0
 12  2  2  0  0  0  0
 13  4  2  0  0  0  0
 14  8  1  0  0  0  0
 15  7  1  0  0  0  0
 16  7  2  0  0  0  0
 17  8  2  0  0  0  0
 18 11  1  0  0  0  0
 19 18  2  0  0  0  0
 20 18  1  0  0  0  0
 21 19  1  0  0  0  0
 22 20  2  0  0  0  0
 23 22  1  0  0  0  0
  3  5  1  0  0  0  0
 15 14  1  0  0  0  0
 21 23  2  0  0  0  0
M  END
>  <IDNUMBER>
F3269-0033

>  <Chemical_Name>
3-[2-(2,5-dioxopyrrolidin-1-yl)ethyl]-5-(phenylamino)-1,3-thiazolidine-2,4-dione

>  <PriceCoeff>
1.00

>  <CAS>
1025687-77-7

>  <MW>
333.36

>  <Description>
solid

>  <FSP3>
0.33

>  <clogP>
0.47

>  <TPSA>
112.09

>  <Acceptor>
5

>  <Donor>
1

>  <RotBonds>
5

>  <HAC>
23

>  <Collection>
General

>  <PPDS>
+

$$$$
F3269-0037
  Mrv2219 10102508112D          

 24 26  0  0  0  0            999 V2000
    3.0250   -2.6375    0.0000 N   0  0  0  0  0  0  0  0  0  0  0  0
    3.5167   -3.3000    0.0000 C   0  0  0  0  0  0  0  0  0  0  0  0
    4.3000   -3.0375    0.0000 S   0  0  0  0  0  0  0  0  0  0  0  0
    3.5042   -1.9625    0.0000 C   0  0  0  0  0  0  0  0  0  0  0  0
    4.2917   -2.2125    0.0000 C   0  0  0  0  0  0  0  0  0  0  0  0
    0.9542   -1.9375    0.0000 N   0  0  0  0  0  0  0  0  0  0  0  0
    0.4750   -1.2667    0.0000 C   0  0  0  0  0  0  0  0  0  0  0  0
    0.4792   -2.6042    0.0000 C   0  0  0  0  0  0  0  0  0  0  0  0
    2.1917   -2.6417    0.0000 C   0  0  0  0  0  0  0  0  0  0  0  0
    1.7792   -1.9292    0.0000 C   0  0  0  0  0  0  0  0  0  0  0  0
    4.9542   -1.7250    0.0000 N   0  0  0  0  0  0  0  0  0  0  0  0
    3.2667   -4.0792    0.0000 O   0  0  0  0  0  0  0  0  0  0  0  0
    3.2417   -1.1792    0.0000 O   0  0  0  0  0  0  0  0  0  0  0  0
   -0.3083   -2.3542    0.0000 C   0  0  0  0  0  0  0  0  0  0  0  0
   -0.3083   -1.5292    0.0000 C   0  0  0  0  0  0  0  0  0  0  0  0
    0.7292   -0.4875    0.0000 O   0  0  0  0  0  0  0  0  0  0  0  0
    0.7417   -3.3875    0.0000 O   0  0  0  0  0  0  0  0  0  0  0  0
    5.7125   -2.0542    0.0000 C   0  0  0  0  0  0  0  0  0  0  0  0
    7.2250   -2.7167    0.0000 C   0  0  0  0  0  0  0  0  0  0  0  0
    6.3750   -1.5625    0.0000 C   0  0  0  0  0  0  0  0  0  0  0  0
    5.8042   -2.8750    0.0000 C   0  0  0  0  0  0  0  0  0  0  0  0
    7.1250   -1.8917    0.0000 C   0  0  0  0  0  0  0  0  0  0  0  0
    6.5542   -3.2042    0.0000 C   0  0  0  0  0  0  0  0  0  0  0  0
    7.9792   -3.0417    0.0000 C   0  0  0  0  0  0  0  0  0  0  0  0
  2  1  1  0  0  0  0
  3  2  1  0  0  0  0
  4  1  1  0  0  0  0
  5  4  1  0  0  0  0
  6 10  1  0  0  0  0
  7  6  1  0  0  0  0
  8  6  1  0  0  0  0
  9  1  1  0  0  0  0
 10  9  1  0  0  0  0
 11  5  1  0  0  0  0
 12  2  2  0  0  0  0
 13  4  2  0  0  0  0
 14  8  1  0  0  0  0
 15  7  1  0  0  0  0
 16  7  2  0  0  0  0
 17  8  2  0  0  0  0
 18 11  1  0  0  0  0
 19 23  2  0  0  0  0
 20 18  1  0  0  0  0
 21 18  2  0  0  0  0
 22 20  2  0  0  0  0
 23 21  1  0  0  0  0
 24 19  1  0  0  0  0
  3  5  1  0  0  0  0
 15 14  1  0  0  0  0
 22 19  1  0  0  0  0
M  END
>  <IDNUMBER>
F3269-0037

>  <Chemical_Name>
3-[2-(2,5-dioxopyrrolidin-1-yl)ethyl]-5-[(4-methylphenyl)amino]-1,3-thiazolidine-2,4-dione

>  <PriceCoeff>
1.00

>  <CAS>
1025031-50-8

>  <MW>
347.39

>  <Description>
solid

>  <FSP3>
0.38

>  <clogP>
0.97

>  <TPSA>
112.09

>  <Acceptor>
5

>  <Donor>
1

>  <RotBonds>
5

>  <HAC>
24

>  <Collection>
General

>  <PPDS>
+

$$$$
F3271-0040
  Mrv2219 10102508112D          

 27 29  0  0  0  0            999 V2000
    4.4647   -9.4904    0.0000 C   0  0  0  0  0  0  0  0  0  0  0  0
   -0.0078  -10.5190    0.0000 N   0  3  0  0  0  0  0  0  0  0  0  0
    3.1246   -9.4944    0.0000 C   0  0  0  0  0  0  0  0  0  0  0  0
    3.7985   -9.9736    0.0000 O   0  0  0  0  0  0  0  0  0  0  0  0
    5.2517   -9.7398    0.0000 C   0  0  0  0  0  0  0  0  0  0  0  0
    2.3415   -9.7476    0.0000 C   0  0  0  0  0  0  0  0  0  0  0  0
    5.8595   -9.1905    0.0000 N   0  0  0  0  0  0  0  0  0  0  0  0
    2.1778  -10.5540    0.0000 C   0  0  0  0  0  0  0  0  0  0  0  0
    0.7753  -10.2618    0.0000 C   0  0  0  0  0  0  0  0  0  0  0  0
    4.2076   -8.7074    0.0000 C   0  0  0  0  0  0  0  0  0  0  0  0
    3.3817   -8.7074    0.0000 C   0  0  0  0  0  0  0  0  0  0  0  0
    1.3948  -10.8151    0.0000 C   0  0  0  0  0  0  0  0  0  0  0  0
    9.7125   -6.7010    0.0000 N   0  0  0  0  0  0  0  0  0  0  0  0
    7.0867   -8.0918    0.0000 N   0  0  0  0  0  0  0  0  0  0  0  0
    1.7337   -9.1982    0.0000 C   0  0  0  0  0  0  0  0  0  0  0  0
    9.0970   -7.2503    0.0000 C   0  0  0  0  0  0  0  0  0  0  0  0
   -0.6272   -9.9619    0.0000 O   0  5  0  0  0  0  0  0  0  0  0  0
    5.4231  -10.5463    0.0000 S   0  0  0  0  0  0  0  0  0  0  0  0
   -0.1831  -11.3254    0.0000 O   0  0  0  0  0  0  0  0  0  0  0  0
    0.9506   -9.4476    0.0000 C   0  0  0  0  0  0  0  0  0  0  0  0
    5.6842   -8.3840    0.0000 C   0  0  0  0  0  0  0  0  0  0  0  0
    6.6426   -9.4476    0.0000 C   0  0  0  0  0  0  0  0  0  0  0  0
    7.2581   -8.8983    0.0000 C   0  0  0  0  0  0  0  0  0  0  0  0
    6.3036   -7.8347    0.0000 C   0  0  0  0  0  0  0  0  0  0  0  0
    2.7973  -11.1034    0.0000 Cl  0  0  0  0  0  0  0  0  0  0  0  0
    8.4853   -7.7996    0.0000 C   0  0  0  0  0  0  0  0  0  0  0  0
    7.7061   -7.5425    0.0000 C   0  0  0  0  0  0  0  0  0  0  0  0
  2  9  1  0  0  0  0
  3  4  1  0  0  0  0
  4  1  1  0  0  0  0
  5  1  1  0  0  0  0
  6  3  1  0  0  0  0
  7  5  1  0  0  0  0
  8  6  1  0  0  0  0
  9 20  2  0  0  0  0
 10  1  2  0  0  0  0
 11 10  1  0  0  0  0
 12  8  2  0  0  0  0
 13 16  3  0  0  0  0
 14 23  1  0  0  0  0
 15  6  2  0  0  0  0
 16 26  1  0  0  0  0
 17  2  1  0  0  0  0
 18  5  2  0  0  0  0
 19  2  2  0  0  0  0
 20 15  1  0  0  0  0
 21  7  1  0  0  0  0
 22  7  1  0  0  0  0
 23 22  1  0  0  0  0
 24 21  1  0  0  0  0
 25  8  1  0  0  0  0
 26 27  1  0  0  0  0
 27 14  1  0  0  0  0
 11  3  2  0  0  0  0
 14 24  1  0  0  0  0
 12  9  1  0  0  0  0
M  CHG  2   2   1  17  -1
M  END
>  <IDNUMBER>
F3271-0040

>  <Chemical_Name>
3-{4-[5-(2-chloro-4-nitrophenyl)furan-2-carbothioyl]piperazin-1-yl}propanenitrile

>  <PriceCoeff>
1.00

>  <CAS>
579443-34-8

>  <MW>
404.87

>  <Description>
solid

>  <FSP3>
0.33

>  <clogP>
3.17

>  <TPSA>
118.64

>  <Acceptor>
5

>  <Donor>
2

>  <RotBonds>
6

>  <HAC>
27

>  <Collection>
General

>  <PPDS>
+

$$$$
F3271-0041
  Mrv2219 10102508112D          

 26 28  0  0  0  0            999 V2000
    5.0685   -9.4663    0.0000 C   0  0  0  0  0  0  0  0  0  0  0  0
    0.5966  -10.4956    0.0000 N   0  3  0  0  0  0  0  0  0  0  0  0
    3.7350   -9.4741    0.0000 C   0  0  0  0  0  0  0  0  0  0  0  0
    4.4018   -9.9576    0.0000 O   0  0  0  0  0  0  0  0  0  0  0  0
    5.8599   -9.7236    0.0000 C   0  0  0  0  0  0  0  0  0  0  0  0
    2.9515   -9.7236    0.0000 C   0  0  0  0  0  0  0  0  0  0  0  0
    6.4720   -9.1699    0.0000 N   0  0  0  0  0  0  0  0  0  0  0  0
    7.7002   -8.0705    0.0000 N   0  0  0  0  0  0  0  0  0  0  0  0
    2.7838  -10.5307    0.0000 C   0  0  0  0  0  0  0  0  0  0  0  0
    1.3801  -10.2382    0.0000 C   0  0  0  0  0  0  0  0  0  0  0  0
    4.8111   -8.6827    0.0000 C   0  0  0  0  0  0  0  0  0  0  0  0
    3.9885   -8.6827    0.0000 C   0  0  0  0  0  0  0  0  0  0  0  0
    1.9923  -10.7958    0.0000 C   0  0  0  0  0  0  0  0  0  0  0  0
    8.3162   -7.5130    0.0000 C   0  0  0  0  0  0  0  0  0  0  0  0
    2.3393   -9.1739    0.0000 C   0  0  0  0  0  0  0  0  0  0  0  0
   -0.0195   -9.9459    0.0000 O   0  5  0  0  0  0  0  0  0  0  0  0
    6.0276  -10.5307    0.0000 S   0  0  0  0  0  0  0  0  0  0  0  0
    0.4250  -11.3026    0.0000 O   0  0  0  0  0  0  0  0  0  0  0  0
    6.2966   -8.3669    0.0000 C   0  0  0  0  0  0  0  0  0  0  0  0
    7.2557   -9.4313    0.0000 C   0  0  0  0  0  0  0  0  0  0  0  0
    7.8639   -8.8815    0.0000 C   0  0  0  0  0  0  0  0  0  0  0  0
    6.9125   -7.8132    0.0000 C   0  0  0  0  0  0  0  0  0  0  0  0
    1.5556   -9.4313    0.0000 C   0  0  0  0  0  0  0  0  0  0  0  0
    9.0998   -7.7703    0.0000 O   0  0  0  0  0  0  0  0  0  0  0  0
    3.4036  -11.0804    0.0000 Cl  0  0  0  0  0  0  0  0  0  0  0  0
    8.1446   -6.7060    0.0000 C   0  0  0  0  0  0  0  0  0  0  0  0
  2 10  1  0  0  0  0
  3  4  1  0  0  0  0
  4  1  1  0  0  0  0
  5  1  1  0  0  0  0
  6  3  1  0  0  0  0
  7  5  1  0  0  0  0
  8 21  1  0  0  0  0
  9  6  1  0  0  0  0
 10 23  2  0  0  0  0
 11  1  2  0  0  0  0
 12 11  1  0  0  0  0
 13  9  2  0  0  0  0
 14  8  1  0  0  0  0
 15  6  2  0  0  0  0
 16  2  1  0  0  0  0
 17  5  2  0  0  0  0
 18  2  2  0  0  0  0
 19  7  1  0  0  0  0
 20  7  1  0  0  0  0
 21 20  1  0  0  0  0
 22 19  1  0  0  0  0
 23 15  1  0  0  0  0
 24 14  2  0  0  0  0
 25  9  1  0  0  0  0
 26 14  1  0  0  0  0
 12  3  2  0  0  0  0
 22  8  1  0  0  0  0
 13 10  1  0  0  0  0
M  CHG  2   2   1  16  -1
M  END
>  <IDNUMBER>
F3271-0041

>  <Chemical_Name>
1-{4-[5-(2-chloro-4-nitrophenyl)furan-2-carbothioyl]piperazin-1-yl}ethan-1-one

>  <PriceCoeff>
1.00

>  <CAS>
714247-81-1

>  <MW>
393.84

>  <Description>
solid

>  <FSP3>
0.29

>  <clogP>
2.56

>  <TPSA>
111.92

>  <Acceptor>
5

>  <Donor>
1

>  <RotBonds>
5

>  <HAC>
26

>  <Collection>
General

>  <PPDS>
+

$$$$
F3275-0015
  Mrv2219 10102508112D          

 15 15  0  0  0  0            999 V2000
    6.1946    0.7211    0.0000 C   0  0  0  0  0  0  0  0  0  0  0  0
    5.3677    0.7211    0.0000 C   0  0  0  0  0  0  0  0  0  0  0  0
    4.9542    1.4373    0.0000 C   0  0  0  0  0  0  0  0  0  0  0  0
    6.6106    1.4373    0.0000 O   0  0  0  0  0  0  0  0  0  0  0  0
    4.1273    1.4373    0.0000 C   0  0  0  0  0  0  0  0  0  0  0  0
    6.6106    0.0000    0.0000 O   0  0  0  0  0  0  0  0  0  0  0  0
    2.4833    1.4447    0.0000 C   0  0  0  0  0  0  0  0  0  0  0  0
    3.7089    2.1535    0.0000 C   0  0  0  0  0  0  0  0  0  0  0  0
    3.7089    0.7285    0.0000 C   0  0  0  0  0  0  0  0  0  0  0  0
    2.8894    2.1535    0.0000 C   0  0  0  0  0  0  0  0  0  0  0  0
    2.8894    0.7310    0.0000 C   0  0  0  0  0  0  0  0  0  0  0  0
    1.6539    1.4520    0.0000 O   0  0  0  0  0  0  0  0  0  0  0  0
    1.2355    2.1682    0.0000 C   0  0  0  0  0  0  0  0  0  0  0  0
    0.4086    2.1682    0.0000 C   0  0  0  0  0  0  0  0  0  0  0  0
    0.0000    2.8820    0.0000 C   0  0  0  0  0  0  0  0  0  0  0  0
  2  1  1  0  0  0  0
  3  2  2  0  0  0  0
  4  1  2  0  0  0  0
  5  3  1  0  0  0  0
  6  1  1  0  0  0  0
  7 11  2  0  0  0  0
  8  5  1  0  0  0  0
  9  5  2  0  0  0  0
 10  8  2  0  0  0  0
 11  9  1  0  0  0  0
 12  7  1  0  0  0  0
 13 12  1  0  0  0  0
 14 13  1  0  0  0  0
 15 14  1  0  0  0  0
 10  7  1  0  0  0  0
M  END
>  <IDNUMBER>
F3275-0015

>  <Chemical_Name>
(2E)-3-(4-propoxyphenyl)prop-2-enoic acid

>  <PriceCoeff>
1.00

>  <CAS>
151539-67-2

>  <MW>
206.24

>  <Description>
solid

>  <FSP3>
0.25

>  <clogP>
2.86

>  <TPSA>
46.53

>  <Acceptor>
3

>  <Donor>
0

>  <RotBonds>
5

>  <HAC>
15

>  <Collection>
General

>  <PPDS>
+

$$$$
F3275-0017
  Mrv2219 10102508112D          

 24 25  0  0  0  0            999 V2000
    3.0595    0.7565    0.0000 N   0  0  0  0  0  0  0  0  0  0  0  0
    2.4609   -2.0369    0.0000 N   0  0  0  0  0  0  0  0  0  0  0  0
    2.5440   -2.8600    0.0000 N   0  0  0  0  0  0  0  0  0  0  0  0
    1.6628   -1.8623    0.0000 C   0  0  0  0  0  0  0  0  0  0  0  0
    3.5459    1.4217    0.0000 C   0  0  0  0  0  0  0  0  0  0  0  0
    1.2513   -2.5815    0.0000 C   0  0  0  0  0  0  0  0  0  0  0  0
    3.0595    2.0909    0.0000 C   0  0  0  0  0  0  0  0  0  0  0  0
    1.7875   -3.1842    0.0000 C   0  0  0  0  0  0  0  0  0  0  0  0
    2.2739    1.0059    0.0000 C   0  0  0  0  0  0  0  0  0  0  0  0
    2.2739    1.8332    0.0000 C   0  0  0  0  0  0  0  0  0  0  0  0
    3.0097   -1.4341    0.0000 C   0  0  0  0  0  0  0  0  0  0  0  0
    3.3090   -0.0291    0.0000 C   0  0  0  0  0  0  0  0  0  0  0  0
    2.7602   -0.6402    0.0000 C   0  0  0  0  0  0  0  0  0  0  0  0
    0.4282   -2.6729    0.0000 Cl  0  0  0  0  0  0  0  0  0  0  0  0
    1.3261   -1.0974    0.0000 C   0  0  0  0  0  0  0  0  0  0  0  0
    4.3690    1.4300    0.0000 C   0  0  0  0  0  0  0  0  0  0  0  0
    3.3090    2.8766    0.0000 C   0  0  0  0  0  0  0  0  0  0  0  0
    1.5963   -3.9948    0.0000 C   0  0  0  0  0  0  0  0  0  0  0  0
    1.9621   -0.4656    0.0000 O   0  0  0  0  0  0  0  0  0  0  0  0
    1.5630    0.5944    0.0000 C   0  0  0  0  0  0  0  0  0  0  0  0
    1.5630    2.2447    0.0000 C   0  0  0  0  0  0  0  0  0  0  0  0
    0.8480    1.8332    0.0000 C   0  0  0  0  0  0  0  0  0  0  0  0
    0.8480    1.0059    0.0000 C   0  0  0  0  0  0  0  0  0  0  0  0
    5.7532   -0.4656    0.0000 Cl  0  0  0  0  0  0  0  0  0  0  0  0
  3  2  1  0  0  0  0
  4  2  1  0  0  0  0
  5  1  1  0  0  0  0
  6  4  2  0  0  0  0
  7  5  2  0  0  0  0
  8  3  2  0  0  0  0
  9  1  1  0  0  0  0
 10  9  1  0  0  0  0
 11 13  1  0  0  0  0
 12  1  1  0  0  0  0
 13 12  1  0  0  0  0
 14  6  1  0  0  0  0
 15  4  1  0  0  0  0
 16  5  1  0  0  0  0
 17  7  1  0  0  0  0
 18  8  1  0  0  0  0
 19 13  1  0  0  0  0
 20  9  2  0  0  0  0
 21 10  2  0  0  0  0
 22 23  2  0  0  0  0
 23 20  1  0  0  0  0
 10  7  1  0  0  0  0
 21 22  1  0  0  0  0
  6  8  1  0  0  0  0
  2 11  1  0  0  0  0
M  END
>  <IDNUMBER>
F3275-0017

>  <Chemical_Name>
1-(4-chloro-3,5-dimethyl-1H-pyrazol-1-yl)-3-(2,3-dimethyl-1H-indol-1-yl)propan-2-ol hydrochloride

>  <PriceCoeff>
1.00

>  <CAS>
1189670-86-7

>  <MW>
331.84

>  <Description>
solid

>  <FSP3>
0.39

>  <clogP>
4.17

>  <TPSA>
42.98

>  <Acceptor>
2

>  <Donor>
1

>  <RotBonds>
4

>  <HAC>
23

>  <Collection>
General

>  <PPDS>
+

$$$$
F3275-0038
  Mrv2219 10102508112D          

 23 24  0  0  0  0            999 V2000
   12.0416  -27.5487    0.0000 N   0  0  0  0  0  0  0  0  0  0  0  0
   12.1293  -28.3629    0.0000 N   0  0  0  0  0  0  0  0  0  0  0  0
   12.8015  -27.2063    0.0000 C   0  0  0  0  0  0  0  0  0  0  0  0
   13.3526  -27.8200    0.0000 C   0  0  0  0  0  0  0  0  0  0  0  0
   12.9435  -28.5382    0.0000 C   0  0  0  0  0  0  0  0  0  0  0  0
   11.3276  -27.1353    0.0000 C   0  0  0  0  0  0  0  0  0  0  0  0
    8.4592  -27.1353    0.0000 C   0  0  0  0  0  0  0  0  0  0  0  0
    7.7452  -27.5487    0.0000 C   0  0  0  0  0  0  0  0  0  0  0  0
    7.0312  -27.1353    0.0000 C   0  0  0  0  0  0  0  0  0  0  0  0
    9.1815  -27.5487    0.0000 O   0  0  0  0  0  0  0  0  0  0  0  0
    8.4592  -26.3086    0.0000 C   0  0  0  0  0  0  0  0  0  0  0  0
   14.1710  -27.7324    0.0000 Br  0  0  0  0  0  0  0  0  0  0  0  0
   10.6137  -27.5487    0.0000 C   0  0  0  0  0  0  0  0  0  0  0  0
    7.7452  -28.3754    0.0000 C   0  0  0  0  0  0  0  0  0  0  0  0
    9.8955  -27.1353    0.0000 C   0  0  0  0  0  0  0  0  0  0  0  0
   12.9685  -26.3963    0.0000 C   0  0  0  0  0  0  0  0  0  0  0  0
    7.0312  -26.3086    0.0000 C   0  0  0  0  0  0  0  0  0  0  0  0
    7.7452  -25.8953    0.0000 C   0  0  0  0  0  0  0  0  0  0  0  0
   13.2817  -29.2898    0.0000 C   0  0  0  0  0  0  0  0  0  0  0  0
   10.6137  -28.3754    0.0000 O   0  0  0  0  0  0  0  0  0  0  0  0
    8.4592  -28.7887    0.0000 C   0  0  0  0  0  0  0  0  0  0  0  0
    7.0312  -28.7887    0.0000 C   0  0  0  0  0  0  0  0  0  0  0  0
    7.7410  -25.0685    0.0000 C   0  0  0  0  0  0  0  0  0  0  0  0
  2  1  1  0  0  0  0
  3  1  1  0  0  0  0
  4  3  2  0  0  0  0
  5  2  2  0  0  0  0
  6  1  1  0  0  0  0
  7 10  1  0  0  0  0
  8  7  2  0  0  0  0
  9  8  1  0  0  0  0
 10 15  1  0  0  0  0
 11  7  1  0  0  0  0
 12  4  1  0  0  0  0
 13  6  1  0  0  0  0
 14  8  1  0  0  0  0
 15 13  1  0  0  0  0
 16  3  1  0  0  0  0
 17 18  1  0  0  0  0
 18 11  2  0  0  0  0
 19  5  1  0  0  0  0
 20 13  1  0  0  0  0
 21 14  1  0  0  0  0
 22 14  1  0  0  0  0
 23 18  1  0  0  0  0
  5  4  1  0  0  0  0
 17  9  2  0  0  0  0
M  END
>  <IDNUMBER>
F3275-0038

>  <Chemical_Name>
1-(4-bromo-3,5-dimethyl-1H-pyrazol-1-yl)-3-[5-methyl-2-(propan-2-yl)phenoxy]propan-2-ol

>  <PriceCoeff>
1.00

>  <CAS>
1007043-58-4

>  <MW>
381.31

>  <Description>
solid

>  <FSP3>
0.50

>  <clogP>
4.32

>  <TPSA>
47.28

>  <Acceptor>
3

>  <Donor>
1

>  <RotBonds>
6

>  <HAC>
23

>  <Collection>
General

>  <PPDS>
+

$$$$
F3284-7941
  Mrv2219 10102508112D          

 13 14  0  0  0  0            999 V2000
    2.1699    1.8914    0.0000 C   0  0  0  0  0  0  0  0  0  0  0  0
    1.4633    1.4716    0.0000 C   0  0  0  0  0  0  0  0  0  0  0  0
    2.1699    0.2369    0.0000 O   0  0  0  0  0  0  0  0  0  0  0  0
    1.4633    0.6443    0.0000 C   0  0  0  0  0  0  0  0  0  0  0  0
    2.8808    0.6443    0.0000 C   0  0  0  0  0  0  0  0  0  0  0  0
    2.8808    1.4674    0.0000 C   0  0  0  0  0  0  0  0  0  0  0  0
    2.1699    2.7062    0.0000 O   0  0  0  0  0  0  0  0  0  0  0  0
    0.7524    1.8914    0.0000 C   0  0  0  0  0  0  0  0  0  0  0  0
    0.7482    0.2369    0.0000 C   0  0  0  0  0  0  0  0  0  0  0  0
    2.8725   -0.1788    0.0000 C   0  0  0  0  0  0  0  0  0  0  0  0
    3.5958    0.2328    0.0000 C   0  0  0  0  0  0  0  0  0  0  0  0
    0.0374    1.4798    0.0000 C   0  0  0  0  0  0  0  0  0  0  0  0
    0.0374    0.6443    0.0000 C   0  0  0  0  0  0  0  0  0  0  0  0
  2  1  1  0  0  0  0
  3  5  1  0  0  0  0
  4  2  2  0  0  0  0
  5  6  1  0  0  0  0
  6  1  1  0  0  0  0
  7  1  2  0  0  0  0
  8  2  1  0  0  0  0
  9  4  1  0  0  0  0
 10  5  1  0  0  0  0
 11  5  1  0  0  0  0
 12  8  2  0  0  0  0
 13 12  1  0  0  0  0
  4  3  1  0  0  0  0
  9 13  2  0  0  0  0
M  END
>  <IDNUMBER>
F3284-7941

>  <Chemical_Name>
2,2-dimethyl-3,4-dihydro-2H-1-benzopyran-4-one

>  <PriceCoeff>
1.50

>  <CAS>
3780-33-4

>  <MW>
176.21

>  <Description>
solid

>  <FSP3>
0.36

>  <clogP>
2.01

>  <TPSA>
26.30

>  <Acceptor>
2

>  <Donor>
0

>  <RotBonds>
0

>  <HAC>
13

>  <Collection>
Advanced

>  <PPDS>
+

$$$$
F3284-8018
  Mrv2219 10102508112D          

 14 15  0  0  0  0            999 V2000
   17.6545   -5.4889    0.0000 C   0  0  0  0  0  0  0  0  0  0  0  0
   18.1338   -4.8262    0.0000 O   0  0  0  0  0  0  0  0  0  0  0  0
   17.6545   -4.1553    0.0000 C   0  0  0  0  0  0  0  0  0  0  0  0
   16.8710   -5.2305    0.0000 C   0  0  0  0  0  0  0  0  0  0  0  0
   16.8710   -4.4053    0.0000 C   0  0  0  0  0  0  0  0  0  0  0  0
   17.9088   -3.3676    0.0000 C   0  0  0  0  0  0  0  0  0  0  0  0
   18.7090   -3.1925    0.0000 C   0  0  0  0  0  0  0  0  0  0  0  0
   17.9088   -6.2766    0.0000 O   0  0  0  0  0  0  0  0  0  0  0  0
   18.9673   -2.4048    0.0000 O   0  0  0  0  0  0  0  0  0  0  0  0
   19.2674   -3.8052    0.0000 O   0  0  0  0  0  0  0  0  0  0  0  0
   16.1583   -5.6431    0.0000 C   0  0  0  0  0  0  0  0  0  0  0  0
   16.1583   -3.9927    0.0000 C   0  0  0  0  0  0  0  0  0  0  0  0
   15.4414   -4.4136    0.0000 C   0  0  0  0  0  0  0  0  0  0  0  0
   15.4414   -5.2305    0.0000 C   0  0  0  0  0  0  0  0  0  0  0  0
  2  1  1  0  0  0  0
  3  2  1  0  0  0  0
  4  1  1  0  0  0  0
  5  4  1  0  0  0  0
  6  3  1  0  0  0  0
  7  6  1  0  0  0  0
  8  1  2  0  0  0  0
  9  7  2  0  0  0  0
 10  7  1  0  0  0  0
 11  4  2  0  0  0  0
 12  5  2  0  0  0  0
 13 14  2  0  0  0  0
 14 11  1  0  0  0  0
  5  3  1  0  0  0  0
 13 12  1  0  0  0  0
M  END
>  <IDNUMBER>
F3284-8018

>  <Chemical_Name>
2-(3-oxo-1,3-dihydro-2-benzofuran-1-yl)acetic acid

>  <PriceCoeff>
1.50

>  <CAS>
4743-58-2

>  <MW>
192.17

>  <Description>
solid

>  <FSP3>
0.20

>  <clogP>
1.30

>  <TPSA>
63.60

>  <Acceptor>
4

>  <Donor>
0

>  <RotBonds>
2

>  <HAC>
14

>  <Collection>
Advanced

>  <PPDS>
+

$$$$
F3284-8534
  Mrv2219 10102508112D          

 17 17  0  0  0  0            999 V2000
    0.1378   -0.9186    0.0000 C   0  0  0  0  0  0  0  0  0  0  0  0
    0.8560   -0.5052    0.0000 C   0  0  0  0  0  0  0  0  0  0  0  0
    0.1295   -1.7453    0.0000 C   0  0  0  0  0  0  0  0  0  0  0  0
    3.7119   -2.1587    0.0000 C   0  0  0  0  0  0  0  0  0  0  0  0
    2.9979   -1.7453    0.0000 C   0  0  0  0  0  0  0  0  0  0  0  0
    2.2839   -2.1587    0.0000 C   0  0  0  0  0  0  0  0  0  0  0  0
    1.5699   -1.7453    0.0000 C   0  0  0  0  0  0  0  0  0  0  0  0
    0.8434   -2.1587    0.0000 C   0  0  0  0  0  0  0  0  0  0  0  0
    1.5699   -0.9186    0.0000 C   0  0  0  0  0  0  0  0  0  0  0  0
    3.7119   -2.9854    0.0000 O   0  0  0  0  0  0  0  0  0  0  0  0
   -0.5720   -0.5010    0.0000 O   0  0  0  0  0  0  0  0  0  0  0  0
    0.8643    0.3215    0.0000 O   0  0  0  0  0  0  0  0  0  0  0  0
   -0.5845   -2.1545    0.0000 O   0  0  0  0  0  0  0  0  0  0  0  0
    4.4342   -1.7453    0.0000 O   0  0  0  0  0  0  0  0  0  0  0  0
   -1.2902   -0.9061    0.0000 C   0  0  0  0  0  0  0  0  0  0  0  0
    0.1420    0.7390    0.0000 C   0  0  0  0  0  0  0  0  0  0  0  0
   -0.5845   -2.9812    0.0000 C   0  0  0  0  0  0  0  0  0  0  0  0
  2  1  2  0  0  0  0
  3  1  1  0  0  0  0
  4  5  1  0  0  0  0
  5  6  2  0  0  0  0
  6  7  1  0  0  0  0
  7  8  1  0  0  0  0
  8  3  2  0  0  0  0
  9  2  1  0  0  0  0
 10  4  2  0  0  0  0
 11  1  1  0  0  0  0
 12  2  1  0  0  0  0
 13  3  1  0  0  0  0
 14  4  1  0  0  0  0
 15 11  1  0  0  0  0
 16 12  1  0  0  0  0
 17 13  1  0  0  0  0
  9  7  2  0  0  0  0
M  END
>  <IDNUMBER>
F3284-8534

>  <Chemical_Name>
(2E)-3-(3,4,5-trimethoxyphenyl)prop-2-enoic acid

>  <PriceCoeff>
1.00

>  <CAS>
20329-98-0

>  <MW>
238.24

>  <Description>
solid

>  <FSP3>
0.25

>  <clogP>
1.81

>  <TPSA>
64.99

>  <Acceptor>
5

>  <Donor>
0

>  <RotBonds>
5

>  <HAC>
17

>  <Collection>
General

$$$$
F3292-0438
  Mrv2219 10102508112D          

 22 25  0  0  0  0            999 V2000
    1.6417   -1.0167    0.0000 C   0  0  0  0  0  0  0  0  0  0  0  0
    3.7917    0.2125    0.0000 C   0  0  0  0  0  0  0  0  0  0  0  0
    1.6417   -1.8417    0.0000 C   0  0  0  0  0  0  0  0  0  0  0  0
    2.3542   -0.6125    0.0000 C   0  0  0  0  0  0  0  0  0  0  0  0
    3.7917   -0.6125    0.0000 C   0  0  0  0  0  0  0  0  0  0  0  0
    3.0792   -1.0250    0.0000 C   0  0  0  0  0  0  0  0  0  0  0  0
    0.9292   -2.2625    0.0000 C   0  0  0  0  0  0  0  0  0  0  0  0
    4.5792    0.4750    0.0000 C   0  0  0  0  0  0  0  0  0  0  0  0
    3.0667    0.6250    0.0000 C   0  0  0  0  0  0  0  0  0  0  0  0
    2.3542    0.2125    0.0000 C   0  0  0  0  0  0  0  0  0  0  0  0
    0.9292   -0.6042    0.0000 C   0  0  0  0  0  0  0  0  0  0  0  0
    3.0667   -1.8500    0.0000 C   0  0  0  0  0  0  0  0  0  0  0  0
    4.5792   -0.8625    0.0000 C   0  0  0  0  0  0  0  0  0  0  0  0
    2.3667   -2.2625    0.0000 C   0  0  0  0  0  0  0  0  0  0  0  0
    0.2167   -1.8417    0.0000 C   0  0  0  0  0  0  0  0  0  0  0  0
    5.0542   -0.1875    0.0000 C   0  0  0  0  0  0  0  0  0  0  0  0
   -0.5083   -2.2625    0.0000 O   0  0  0  0  0  0  0  0  0  0  0  0
    0.2167   -1.0167    0.0000 C   0  0  0  0  0  0  0  0  0  0  0  0
    5.3917    0.5208    0.0000 O   0  0  0  0  0  0  0  0  0  0  0  0
    1.5292   -0.2000    0.0000 C   0  0  0  0  0  0  0  0  0  0  0  0
    3.6667    1.0333    0.0000 C   0  0  0  0  0  0  0  0  0  0  0  0
    4.7792    1.2708    0.0000 C   0  0  0  0  0  0  0  0  0  0  0  0
  2  9  1  0  0  0  0
  3  1  1  0  0  0  0
  4  1  1  0  0  0  0
  5  6  1  0  0  0  0
  6  4  1  0  0  0  0
  7  3  2  0  0  0  0
  8  2  1  0  0  0  0
  9 10  1  0  0  0  0
 10  4  1  0  0  0  0
 11  1  1  0  0  0  0
 12  6  1  0  0  0  0
 13  5  1  0  0  0  0
 14  3  1  0  0  0  0
 15 18  1  0  0  0  0
 16 13  1  0  0  0  0
 17 15  2  0  0  0  0
 18 11  1  0  0  0  0
 19  8  1  0  0  0  0
 20  1  1  0  0  0  0
 21  2  1  0  0  0  0
 22  8  1  0  0  0  0
 12 14  1  0  0  0  0
 15  7  1  0  0  0  0
  2  5  1  0  0  0  0
 16  8  1  0  0  0  0
M  END
>  <IDNUMBER>
F3292-0438

>  <Chemical_Name>
1-hydroxy-1,9a,11a-trimethyl-1H,2H,3H,3aH,3bH,4H,5H,7H,8H,9H,9aH,9bH,10H,11H,11aH-cyclopenta[a]phenanthren-7-one

>  <PriceCoeff>
1.00

>  <MW>
302.45

>  <Description>
solid

>  <FSP3>
0.85

>  <clogP>
3.93

>  <TPSA>
37.30

>  <Acceptor>
2

>  <Donor>
1

>  <RotBonds>
0

>  <HAC>
22

>  <Collection>
General

$$$$
F3292-0442
  Mrv2219 10102508112D          

 26 29  0  0  0  0            999 V2000
    3.3586   -1.3310    0.0000 C   0  0  0  0  0  0  0  0  0  0  0  0
    2.6413   -1.7415    0.0000 C   0  0  0  0  0  0  0  0  0  0  0  0
    3.3503   -0.5017    0.0000 C   0  0  0  0  0  0  0  0  0  0  0  0
    4.0676   -0.0913    0.0000 C   0  0  0  0  0  0  0  0  0  0  0  0
    4.0676   -1.7457    0.0000 C   0  0  0  0  0  0  0  0  0  0  0  0
    1.9323   -1.3227    0.0000 C   0  0  0  0  0  0  0  0  0  0  0  0
    2.6413   -2.5625    0.0000 N   0  0  0  0  0  0  0  0  0  0  0  0
    4.7808   -0.5017    0.0000 C   0  0  0  0  0  0  0  0  0  0  0  0
    1.2190   -1.7332    0.0000 C   0  0  0  0  0  0  0  0  0  0  0  0
    4.7808   -1.3310    0.0000 C   0  0  0  0  0  0  0  0  0  0  0  0
    4.2335    0.7173    0.0000 O   0  0  0  0  0  0  0  0  0  0  0  0
    5.3903    0.0456    0.0000 O   0  0  0  0  0  0  0  0  0  0  0  0
    0.5017   -1.3186    0.0000 C   0  0  0  0  0  0  0  0  0  0  0  0
    4.0718   -2.5666    0.0000 C   0  0  0  0  0  0  0  0  0  0  0  0
    5.0545    0.7961    0.0000 C   0  0  0  0  0  0  0  0  0  0  0  0
    3.3503   -2.9730    0.0000 C   0  0  0  0  0  0  0  0  0  0  0  0
    1.2190   -2.5625    0.0000 O   0  0  0  0  0  0  0  0  0  0  0  0
    2.6371   -0.0913    0.0000 O   0  0  0  0  0  0  0  0  0  0  0  0
    0.5100   -0.4893    0.0000 C   0  0  0  0  0  0  0  0  0  0  0  0
   -0.2073   -1.7332    0.0000 C   0  0  0  0  0  0  0  0  0  0  0  0
   -0.2073   -0.0788    0.0000 C   0  0  0  0  0  0  0  0  0  0  0  0
   -0.9205   -1.3186    0.0000 C   0  0  0  0  0  0  0  0  0  0  0  0
   -0.9163   -0.4893    0.0000 C   0  0  0  0  0  0  0  0  0  0  0  0
    1.9281   -2.9730    0.0000 C   0  0  0  0  0  0  0  0  0  0  0  0
    2.6371    0.7297    0.0000 C   0  0  0  0  0  0  0  0  0  0  0  0
   -1.6254   -0.0746    0.0000 C   0  0  0  0  0  0  0  0  0  0  0  0
  2  1  1  0  0  0  0
  3  1  2  0  0  0  0
  4  3  1  0  0  0  0
  5  1  1  0  0  0  0
  6  2  1  0  0  0  0
  7  2  1  0  0  0  0
  8 10  1  0  0  0  0
  9  6  1  0  0  0  0
 10  5  2  0  0  0  0
 11  4  1  0  0  0  0
 12  8  1  0  0  0  0
 13  9  1  0  0  0  0
 14  5  1  0  0  0  0
 15 11  1  0  0  0  0
 16 14  1  0  0  0  0
 17  9  2  0  0  0  0
 18  3  1  0  0  0  0
 19 13  2  0  0  0  0
 20 13  1  0  0  0  0
 21 19  1  0  0  0  0
 22 20  2  0  0  0  0
 23 22  1  0  0  0  0
 24  7  1  0  0  0  0
 25 18  1  0  0  0  0
 26 23  1  0  0  0  0
  7 16  1  0  0  0  0
  4  8  2  0  0  0  0
 12 15  1  0  0  0  0
 21 23  2  0  0  0  0
M  END
>  <IDNUMBER>
F3292-0442

>  <Chemical_Name>
2-{4-methoxy-6-methyl-2H,5H,6H,7H,8H-[1,3]dioxolo[4,5-g]isoquinolin-5-yl}-1-(4-methylphenyl)ethan-1-one

>  <PriceCoeff>
1.00

>  <CAS>
370841-98-8

>  <MW>
353.41

>  <Description>
solid

>  <FSP3>
0.38

>  <clogP>
4.30

>  <TPSA>
48.00

>  <Acceptor>
4

>  <Donor>
1

>  <RotBonds>
4

>  <HAC>
26

>  <Collection>
General

>  <PPDS>
+

$$$$
F3292-0445
  Mrv2219 10102508112D          

 27 30  0  0  0  0            999 V2000
    3.3586   -1.3310    0.0000 C   0  0  0  0  0  0  0  0  0  0  0  0
    2.6413   -1.7415    0.0000 C   0  0  0  0  0  0  0  0  0  0  0  0
    3.3503   -0.5017    0.0000 C   0  0  0  0  0  0  0  0  0  0  0  0
    4.0676   -0.0913    0.0000 C   0  0  0  0  0  0  0  0  0  0  0  0
    4.0676   -1.7457    0.0000 C   0  0  0  0  0  0  0  0  0  0  0  0
    1.9323   -1.3227    0.0000 C   0  0  0  0  0  0  0  0  0  0  0  0
    2.6413   -2.5625    0.0000 N   0  0  0  0  0  0  0  0  0  0  0  0
    4.7808   -0.5017    0.0000 C   0  0  0  0  0  0  0  0  0  0  0  0
    1.2190   -1.7332    0.0000 C   0  0  0  0  0  0  0  0  0  0  0  0
    4.7808   -1.3310    0.0000 C   0  0  0  0  0  0  0  0  0  0  0  0
    4.2335    0.7173    0.0000 O   0  0  0  0  0  0  0  0  0  0  0  0
    0.5017   -1.3186    0.0000 C   0  0  0  0  0  0  0  0  0  0  0  0
    5.3903    0.0456    0.0000 O   0  0  0  0  0  0  0  0  0  0  0  0
    4.0718   -2.5666    0.0000 C   0  0  0  0  0  0  0  0  0  0  0  0
    5.0545    0.7961    0.0000 C   0  0  0  0  0  0  0  0  0  0  0  0
    3.3503   -2.9730    0.0000 C   0  0  0  0  0  0  0  0  0  0  0  0
   -0.2073   -1.7332    0.0000 C   0  0  0  0  0  0  0  0  0  0  0  0
    1.2190   -2.5625    0.0000 O   0  0  0  0  0  0  0  0  0  0  0  0
    2.6371   -0.0913    0.0000 O   0  0  0  0  0  0  0  0  0  0  0  0
   -0.9205   -1.3186    0.0000 C   0  0  0  0  0  0  0  0  0  0  0  0
    1.9281   -2.9730    0.0000 C   0  0  0  0  0  0  0  0  0  0  0  0
   -1.7124   -1.5715    0.0000 O   0  0  0  0  0  0  0  0  0  0  0  0
    0.5100   -0.4893    0.0000 C   0  0  0  0  0  0  0  0  0  0  0  0
   -0.2073   -0.0788    0.0000 C   0  0  0  0  0  0  0  0  0  0  0  0
   -0.9163   -0.4893    0.0000 C   0  0  0  0  0  0  0  0  0  0  0  0
    2.6371    0.7297    0.0000 C   0  0  0  0  0  0  0  0  0  0  0  0
   -2.1976   -0.8998    0.0000 C   0  0  0  0  0  0  0  0  0  0  0  0
  2  1  1  0  0  0  0
  3  1  2  0  0  0  0
  4  3  1  0  0  0  0
  5  1  1  0  0  0  0
  6  2  1  0  0  0  0
  7  2  1  0  0  0  0
  8 10  1  0  0  0  0
  9  6  1  0  0  0  0
 10  5  2  0  0  0  0
 11  4  1  0  0  0  0
 12  9  1  0  0  0  0
 13  8  1  0  0  0  0
 14  5  1  0  0  0  0
 15 11  1  0  0  0  0
 16 14  1  0  0  0  0
 17 12  1  0  0  0  0
 18  9  2  0  0  0  0
 19  3  1  0  0  0  0
 20 17  2  0  0  0  0
 21  7  1  0  0  0  0
 22 20  1  0  0  0  0
 23 12  2  0  0  0  0
 24 23  1  0  0  0  0
 25 24  2  0  0  0  0
 26 19  1  0  0  0  0
 27 22  1  0  0  0  0
  7 16  1  0  0  0  0
  4  8  2  0  0  0  0
 13 15  1  0  0  0  0
 20 25  1  0  0  0  0
M  END
>  <IDNUMBER>
F3292-0445

>  <Chemical_Name>
2-{4-methoxy-6-methyl-2H,5H,6H,7H,8H-[1,3]dioxolo[4,5-g]isoquinolin-5-yl}-1-(3-methoxyphenyl)ethan-1-one

>  <PriceCoeff>
1.00

>  <CAS>
376379-05-4

>  <MW>
369.41

>  <Description>
solid

>  <FSP3>
0.38

>  <clogP>
3.85

>  <TPSA>
57.23

>  <Acceptor>
5

>  <Donor>
1

>  <RotBonds>
5

>  <HAC>
27

>  <Collection>
General

>  <PPDS>
+

$$$$
F3298-0060
  Mrv2219 10102508112D          

 22 23  0  0  0  0            999 V2000
   -1.0464    0.6337    0.0000 N   0  0  0  0  0  0  0  0  0  0  0  0
    3.8063    2.0011    0.0000 C   0  0  0  0  0  0  0  0  0  0  0  0
   -1.6510    1.0506    0.0000 C   0  0  0  0  0  0  0  0  0  0  0  0
   -1.2382   -0.2168    0.0000 C   0  0  0  0  0  0  0  0  0  0  0  0
   -0.1959    0.8213    0.0000 C   0  0  0  0  0  0  0  0  0  0  0  0
    3.6063    1.2007    0.0000 C   0  0  0  0  0  0  0  0  0  0  0  0
    1.2007    0.5211    0.0000 C   0  0  0  0  0  0  0  0  0  0  0  0
    0.4127    0.2709    0.0000 C   0  0  0  0  0  0  0  0  0  0  0  0
    1.7677    0.0625    0.0000 N   0  0  0  0  0  0  0  0  0  0  0  0
    2.8141    0.9839    0.0000 C   0  0  0  0  0  0  0  0  0  0  0  0
   -2.3221    0.5712    0.0000 C   0  0  0  0  0  0  0  0  0  0  0  0
   -2.0636   -0.2168    0.0000 C   0  0  0  0  0  0  0  0  0  0  0  0
   -0.8880   -0.8880    0.0000 O   0  0  0  0  0  0  0  0  0  0  0  0
   -1.7885    1.8761    0.0000 O   0  0  0  0  0  0  0  0  0  0  0  0
    2.5432    0.2459    0.0000 C   0  0  0  0  0  0  0  0  0  0  0  0
    1.3674    1.3257    0.0000 O   0  0  0  0  0  0  0  0  0  0  0  0
    3.9939    2.7266    0.0000 F   0  0  0  0  0  0  0  0  0  0  0  0
    4.5901    2.3597    0.0000 F   0  0  0  0  0  0  0  0  0  0  0  0
    3.2936    2.6973    0.0000 F   0  0  0  0  0  0  0  0  0  0  0  0
    4.1940    0.6212    0.0000 C   0  0  0  0  0  0  0  0  0  0  0  0
    3.9814   -0.1793    0.0000 C   0  0  0  0  0  0  0  0  0  0  0  0
    3.1935   -0.3919    0.0000 C   0  0  0  0  0  0  0  0  0  0  0  0
  2  6  1  0  0  0  0
  3  1  1  0  0  0  0
  4  1  1  0  0  0  0
  5  1  1  0  0  0  0
  6 10  2  0  0  0  0
  7  8  1  0  0  0  0
  8  5  1  0  0  0  0
  9  7  1  0  0  0  0
 10 15  1  0  0  0  0
 11  3  1  0  0  0  0
 12  4  1  0  0  0  0
 13  4  2  0  0  0  0
 14  3  2  0  0  0  0
 15  9  1  0  0  0  0
 16  7  2  0  0  0  0
 17  2  1  0  0  0  0
 18  2  1  0  0  0  0
 19  2  1  0  0  0  0
 20 21  2  0  0  0  0
 21 22  1  0  0  0  0
 22 15  2  0  0  0  0
 11 12  1  0  0  0  0
  6 20  1  0  0  0  0
M  END
>  <IDNUMBER>
F3298-0060

>  <Chemical_Name>
3-(2,5-dioxopyrrolidin-1-yl)-N-[3-(trifluoromethyl)phenyl]propanamide

>  <PriceCoeff>
1.50

>  <MW>
314.26

>  <Description>
solid

>  <FSP3>
0.36

>  <clogP>
2.11

>  <TPSA>
66.48

>  <Acceptor>
3

>  <Donor>
1

>  <RotBonds>
4

>  <HAC>
22

>  <Collection>
Advanced

$$$$
F3310-1337
  Mrv2219 10102508112D          

 17 18  0  0  0  0            999 V2000
    4.8717   -2.1689    0.0000 C   0  0  0  0  0  0  0  0  0  0  0  0
    4.1543   -1.7560    0.0000 C   0  0  0  0  0  0  0  0  0  0  0  0
    3.4411   -2.1773    0.0000 C   0  0  0  0  0  0  0  0  0  0  0  0
    4.8717   -2.9948    0.0000 O   0  0  0  0  0  0  0  0  0  0  0  0
    2.0063   -2.1773    0.0000 O   0  0  0  0  0  0  0  0  0  0  0  0
    2.7278   -1.7643    0.0000 C   0  0  0  0  0  0  0  0  0  0  0  0
    5.5850   -1.7560    0.0000 O   0  0  0  0  0  0  0  0  0  0  0  0
    1.2930   -1.7685    0.0000 C   0  0  0  0  0  0  0  0  0  0  0  0
    0.5798   -2.1815    0.0000 C   0  0  0  0  0  0  0  0  0  0  0  0
    4.1543   -0.9302    0.0000 C   0  0  0  0  0  0  0  0  0  0  0  0
    3.4285   -0.5255    0.0000 C   0  0  0  0  0  0  0  0  0  0  0  0
    2.7195   -0.9427    0.0000 C   0  0  0  0  0  0  0  0  0  0  0  0
   -0.1334   -1.7685    0.0000 C   0  0  0  0  0  0  0  0  0  0  0  0
    0.5798   -3.0156    0.0000 C   0  0  0  0  0  0  0  0  0  0  0  0
   -0.8467   -2.1898    0.0000 C   0  0  0  0  0  0  0  0  0  0  0  0
   -0.1334   -3.4285    0.0000 C   0  0  0  0  0  0  0  0  0  0  0  0
   -0.8467   -3.0156    0.0000 C   0  0  0  0  0  0  0  0  0  0  0  0
  2  1  1  0  0  0  0
  3  2  1  0  0  0  0
  4  1  2  0  0  0  0
  5  6  1  0  0  0  0
  6  3  2  0  0  0  0
  7  1  1  0  0  0  0
  8  5  1  0  0  0  0
  9  8  1  0  0  0  0
 10  2  2  0  0  0  0
 11 10  1  0  0  0  0
 12 11  2  0  0  0  0
 13  9  2  0  0  0  0
 14  9  1  0  0  0  0
 15 13  1  0  0  0  0
 16 14  2  0  0  0  0
 17 16  1  0  0  0  0
 12  6  1  0  0  0  0
 15 17  2  0  0  0  0
M  END
>  <IDNUMBER>
F3310-1337

>  <Chemical_Name>
3-(benzyloxy)benzoic acid

>  <PriceCoeff>
1.00

>  <CAS>
69026-14-8

>  <MW>
228.25

>  <Description>
solid

>  <FSP3>
0.07

>  <clogP>
2.96

>  <TPSA>
46.53

>  <Acceptor>
3

>  <Donor>
0

>  <RotBonds>
4

>  <HAC>
17

>  <Collection>
General

>  <PPDS>
+

$$$$
F3316-0237
  Mrv2219 10102508112D          

 20 21  0  0  0  0            999 V2000
    1.0837   -1.5982    0.0000 N   0  0  0  0  0  0  0  0  0  0  0  0
    0.2552   -1.5564    0.0000 N   0  0  0  0  0  0  0  0  0  0  0  0
    3.5563   -3.0292    0.0000 S   0  0  0  0  0  0  0  0  0  0  0  0
    0.7322   -0.3054    0.0000 C   0  0  0  0  0  0  0  0  0  0  0  0
    1.3807   -0.8284    0.0000 C   0  0  0  0  0  0  0  0  0  0  0  0
    0.0419   -0.7573    0.0000 C   0  0  0  0  0  0  0  0  0  0  0  0
    3.5563   -2.2008    0.0000 O   0  0  0  0  0  0  0  0  0  0  0  0
    3.5563   -3.8576    0.0000 O   0  0  0  0  0  0  0  0  0  0  0  0
    2.7280   -3.0292    0.0000 N   0  0  0  0  0  0  0  0  0  0  0  0
    4.3847   -3.0292    0.0000 C   0  0  0  0  0  0  0  0  0  0  0  0
    1.4936   -2.3137    0.0000 C   0  0  0  0  0  0  0  0  0  0  0  0
    0.7322    0.5229    0.0000 Cl  0  0  0  0  0  0  0  0  0  0  0  0
    2.3220   -2.3137    0.0000 C   0  0  0  0  0  0  0  0  0  0  0  0
    2.1757   -0.6067    0.0000 C   0  0  0  0  0  0  0  0  0  0  0  0
   -0.7615   -0.5440    0.0000 C   0  0  0  0  0  0  0  0  0  0  0  0
    4.7947   -3.7446    0.0000 C   0  0  0  0  0  0  0  0  0  0  0  0
    4.7989   -2.3263    0.0000 C   0  0  0  0  0  0  0  0  0  0  0  0
    5.6148   -3.7446    0.0000 C   0  0  0  0  0  0  0  0  0  0  0  0
    5.6148   -2.3263    0.0000 C   0  0  0  0  0  0  0  0  0  0  0  0
    6.0291   -3.0375    0.0000 C   0  0  0  0  0  0  0  0  0  0  0  0
  2  1  1  0  0  0  0
  3  9  1  0  0  0  0
  4  5  2  0  0  0  0
  5  1  1  0  0  0  0
  6  2  2  0  0  0  0
  7  3  2  0  0  0  0
  8  3  2  0  0  0  0
  9 13  1  0  0  0  0
 10  3  1  0  0  0  0
 11  1  1  0  0  0  0
 12  4  1  0  0  0  0
 13 11  1  0  0  0  0
 14  5  1  0  0  0  0
 15  6  1  0  0  0  0
 16 10  2  0  0  0  0
 17 10  1  0  0  0  0
 18 16  1  0  0  0  0
 19 17  2  0  0  0  0
 20 19  1  0  0  0  0
  4  6  1  0  0  0  0
 18 20  2  0  0  0  0
M  END
>  <IDNUMBER>
F3316-0237

>  <Chemical_Name>
N-[2-(4-chloro-3,5-dimethyl-1H-pyrazol-1-yl)ethyl]benzenesulfonamide

>  <PriceCoeff>
1.00

>  <CAS>
957502-10-2

>  <MW>
313.80

>  <Description>
solid

>  <FSP3>
0.31

>  <clogP>
2.62

>  <TPSA>
72.37

>  <Acceptor>
3

>  <Donor>
1

>  <RotBonds>
5

>  <HAC>
20

>  <Collection>
General

>  <PPDS>
+

$$$$
F3316-0238
  Mrv2219 10102508112D          

 21 22  0  0  0  0            999 V2000
    1.0842   -1.5991    0.0000 N   0  0  0  0  0  0  0  0  0  0  0  0
    3.5581   -3.0307    0.0000 S   0  0  0  0  0  0  0  0  0  0  0  0
    0.2554   -1.5572    0.0000 N   0  0  0  0  0  0  0  0  0  0  0  0
    0.7326   -0.3056    0.0000 C   0  0  0  0  0  0  0  0  0  0  0  0
    1.3814   -0.8288    0.0000 C   0  0  0  0  0  0  0  0  0  0  0  0
    0.0419   -0.7577    0.0000 C   0  0  0  0  0  0  0  0  0  0  0  0
    4.3869   -3.0307    0.0000 C   0  0  0  0  0  0  0  0  0  0  0  0
    3.5581   -2.2018    0.0000 O   0  0  0  0  0  0  0  0  0  0  0  0
    3.5581   -3.8595    0.0000 O   0  0  0  0  0  0  0  0  0  0  0  0
    2.7293   -3.0307    0.0000 N   0  0  0  0  0  0  0  0  0  0  0  0
    1.4944   -2.3149    0.0000 C   0  0  0  0  0  0  0  0  0  0  0  0
    0.7326    0.5232    0.0000 Cl  0  0  0  0  0  0  0  0  0  0  0  0
    2.3232   -2.3149    0.0000 C   0  0  0  0  0  0  0  0  0  0  0  0
    4.7971   -3.7465    0.0000 C   0  0  0  0  0  0  0  0  0  0  0  0
    4.8013   -2.3274    0.0000 C   0  0  0  0  0  0  0  0  0  0  0  0
    2.1767   -0.6070    0.0000 C   0  0  0  0  0  0  0  0  0  0  0  0
   -0.7618   -0.5442    0.0000 C   0  0  0  0  0  0  0  0  0  0  0  0
    5.6176   -3.7465    0.0000 C   0  0  0  0  0  0  0  0  0  0  0  0
    5.6176   -2.3274    0.0000 C   0  0  0  0  0  0  0  0  0  0  0  0
    6.0320   -3.0390    0.0000 C   0  0  0  0  0  0  0  0  0  0  0  0
    6.8483   -3.0390    0.0000 C   0  0  0  0  0  0  0  0  0  0  0  0
  2 10  1  0  0  0  0
  3  1  1  0  0  0  0
  4  5  2  0  0  0  0
  5  1  1  0  0  0  0
  6  3  2  0  0  0  0
  7  2  1  0  0  0  0
  8  2  2  0  0  0  0
  9  2  2  0  0  0  0
 10 13  1  0  0  0  0
 11  1  1  0  0  0  0
 12  4  1  0  0  0  0
 13 11  1  0  0  0  0
 14  7  2  0  0  0  0
 15  7  1  0  0  0  0
 16  5  1  0  0  0  0
 17  6  1  0  0  0  0
 18 14  1  0  0  0  0
 19 15  2  0  0  0  0
 20 19  1  0  0  0  0
 21 20  1  0  0  0  0
  4  6  1  0  0  0  0
 18 20  2  0  0  0  0
M  END
>  <IDNUMBER>
F3316-0238

>  <Chemical_Name>
N-[2-(4-chloro-3,5-dimethyl-1H-pyrazol-1-yl)ethyl]-4-methylbenzene-1-sulfonamide

>  <PriceCoeff>
1.00

>  <CAS>
1014071-78-3

>  <MW>
327.83

>  <Description>
solid

>  <FSP3>
0.36

>  <clogP>
3.12

>  <TPSA>
72.37

>  <Acceptor>
3

>  <Donor>
1

>  <RotBonds>
5

>  <HAC>
21

>  <Collection>
General

>  <PPDS>
+

$$$$
F3316-0239
  Mrv2219 10102508112D          

 22 23  0  0  0  0            999 V2000
    3.7694   -3.0289    0.0000 S   0  0  0  0  0  0  0  0  0  0  0  0
    1.2927   -1.5981    0.0000 N   0  0  0  0  0  0  0  0  0  0  0  0
    0.4686   -1.5563    0.0000 N   0  0  0  0  0  0  0  0  0  0  0  0
    0.9455   -0.3054    0.0000 C   0  0  0  0  0  0  0  0  0  0  0  0
    1.5856   -0.8283    0.0000 C   0  0  0  0  0  0  0  0  0  0  0  0
    0.2552   -0.7572    0.0000 C   0  0  0  0  0  0  0  0  0  0  0  0
    4.5977   -3.0289    0.0000 C   0  0  0  0  0  0  0  0  0  0  0  0
    4.9993   -3.7443    0.0000 C   0  0  0  0  0  0  0  0  0  0  0  0
    3.7652   -2.2006    0.0000 O   0  0  0  0  0  0  0  0  0  0  0  0
    3.7652   -3.8572    0.0000 O   0  0  0  0  0  0  0  0  0  0  0  0
    2.9410   -3.0289    0.0000 N   0  0  0  0  0  0  0  0  0  0  0  0
    5.0077   -2.3261    0.0000 C   0  0  0  0  0  0  0  0  0  0  0  0
    1.6985   -2.3135    0.0000 C   0  0  0  0  0  0  0  0  0  0  0  0
    5.8234   -3.7443    0.0000 C   0  0  0  0  0  0  0  0  0  0  0  0
    0.9413    0.5229    0.0000 Cl  0  0  0  0  0  0  0  0  0  0  0  0
    2.5269   -2.3135    0.0000 C   0  0  0  0  0  0  0  0  0  0  0  0
    5.8234   -2.3261    0.0000 C   0  0  0  0  0  0  0  0  0  0  0  0
    2.3888   -0.6066    0.0000 C   0  0  0  0  0  0  0  0  0  0  0  0
    6.2376   -3.0372    0.0000 C   0  0  0  0  0  0  0  0  0  0  0  0
   -0.5480   -0.5439    0.0000 C   0  0  0  0  0  0  0  0  0  0  0  0
    4.5852   -4.4597    0.0000 C   0  0  0  0  0  0  0  0  0  0  0  0
    7.0576   -3.0372    0.0000 C   0  0  0  0  0  0  0  0  0  0  0  0
  2 13  1  0  0  0  0
  3  2  1  0  0  0  0
  4  5  2  0  0  0  0
  5  2  1  0  0  0  0
  6  3  2  0  0  0  0
  7  1  1  0  0  0  0
  8  7  2  0  0  0  0
  9  1  2  0  0  0  0
 10  1  2  0  0  0  0
 11  1  1  0  0  0  0
 12  7  1  0  0  0  0
 13 16  1  0  0  0  0
 14  8  1  0  0  0  0
 15  4  1  0  0  0  0
 16 11  1  0  0  0  0
 17 12  2  0  0  0  0
 18  5  1  0  0  0  0
 19 17  1  0  0  0  0
 20  6  1  0  0  0  0
 21  8  1  0  0  0  0
 22 19  1  0  0  0  0
 14 19  2  0  0  0  0
  4  6  1  0  0  0  0
M  END
>  <IDNUMBER>
F3316-0239

>  <Chemical_Name>
N-[2-(4-chloro-3,5-dimethyl-1H-pyrazol-1-yl)ethyl]-2,4-dimethylbenzene-1-sulfonamide

>  <PriceCoeff>
1.00

>  <MW>
341.86

>  <Description>
solid

>  <FSP3>
0.40

>  <clogP>
3.62

>  <TPSA>
72.37

>  <Acceptor>
3

>  <Donor>
1

>  <RotBonds>
5

>  <HAC>
22

>  <Collection>
General

$$$$
F3316-0240
  Mrv2219 10102508112D          

 22 23  0  0  0  0            999 V2000
    3.7734   -3.0321    0.0000 S   0  0  0  0  0  0  0  0  0  0  0  0
    1.2941   -1.5998    0.0000 N   0  0  0  0  0  0  0  0  0  0  0  0
    0.4691   -1.5579    0.0000 N   0  0  0  0  0  0  0  0  0  0  0  0
    0.9465   -0.3058    0.0000 C   0  0  0  0  0  0  0  0  0  0  0  0
    1.5873   -0.8292    0.0000 C   0  0  0  0  0  0  0  0  0  0  0  0
    0.2555   -0.7581    0.0000 C   0  0  0  0  0  0  0  0  0  0  0  0
    4.6026   -3.0321    0.0000 C   0  0  0  0  0  0  0  0  0  0  0  0
    5.0047   -3.7483    0.0000 C   0  0  0  0  0  0  0  0  0  0  0  0
    3.7692   -2.2029    0.0000 O   0  0  0  0  0  0  0  0  0  0  0  0
    3.7692   -3.8614    0.0000 O   0  0  0  0  0  0  0  0  0  0  0  0
    2.9442   -3.0321    0.0000 N   0  0  0  0  0  0  0  0  0  0  0  0
    5.8297   -3.7483    0.0000 C   0  0  0  0  0  0  0  0  0  0  0  0
    1.7004   -2.3160    0.0000 C   0  0  0  0  0  0  0  0  0  0  0  0
    6.2443   -3.0405    0.0000 C   0  0  0  0  0  0  0  0  0  0  0  0
    0.9423    0.5235    0.0000 Cl  0  0  0  0  0  0  0  0  0  0  0  0
    5.0130   -2.3286    0.0000 C   0  0  0  0  0  0  0  0  0  0  0  0
    2.5296   -2.3160    0.0000 C   0  0  0  0  0  0  0  0  0  0  0  0
    5.8297   -2.3286    0.0000 C   0  0  0  0  0  0  0  0  0  0  0  0
    2.3914   -0.6073    0.0000 C   0  0  0  0  0  0  0  0  0  0  0  0
   -0.5486   -0.5445    0.0000 C   0  0  0  0  0  0  0  0  0  0  0  0
    6.2359   -4.4644    0.0000 C   0  0  0  0  0  0  0  0  0  0  0  0
    7.0652   -3.0405    0.0000 C   0  0  0  0  0  0  0  0  0  0  0  0
  2 13  1  0  0  0  0
  3  2  1  0  0  0  0
  4  5  2  0  0  0  0
  5  2  1  0  0  0  0
  6  3  2  0  0  0  0
  7  1  1  0  0  0  0
  8  7  2  0  0  0  0
  9  1  2  0  0  0  0
 10  1  2  0  0  0  0
 11  1  1  0  0  0  0
 12  8  1  0  0  0  0
 13 17  1  0  0  0  0
 14 18  1  0  0  0  0
 15  4  1  0  0  0  0
 16  7  1  0  0  0  0
 17 11  1  0  0  0  0
 18 16  2  0  0  0  0
 19  5  1  0  0  0  0
 20  6  1  0  0  0  0
 21 12  1  0  0  0  0
 22 14  1  0  0  0  0
 12 14  2  0  0  0  0
  4  6  1  0  0  0  0
M  END
>  <IDNUMBER>
F3316-0240

>  <Chemical_Name>
N-[2-(4-chloro-3,5-dimethyl-1H-pyrazol-1-yl)ethyl]-3,4-dimethylbenzene-1-sulfonamide

>  <PriceCoeff>
1.00

>  <CAS>
1014072-54-8

>  <MW>
341.86

>  <Description>
solid

>  <FSP3>
0.40

>  <clogP>
3.57

>  <TPSA>
72.37

>  <Acceptor>
3

>  <Donor>
1

>  <RotBonds>
5

>  <HAC>
22

>  <Collection>
General

>  <PPDS>
+

$$$$
F3316-0241
  Mrv2219 10102508112D          

 23 24  0  0  0  0            999 V2000
    3.7694   -3.0289    0.0000 S   0  0  0  0  0  0  0  0  0  0  0  0
    1.2927   -1.5981    0.0000 N   0  0  0  0  0  0  0  0  0  0  0  0
    0.4686   -1.5563    0.0000 N   0  0  0  0  0  0  0  0  0  0  0  0
    0.9455   -0.3054    0.0000 C   0  0  0  0  0  0  0  0  0  0  0  0
    1.5856   -0.8283    0.0000 C   0  0  0  0  0  0  0  0  0  0  0  0
    0.2552   -0.7572    0.0000 C   0  0  0  0  0  0  0  0  0  0  0  0
    4.5977   -3.0289    0.0000 C   0  0  0  0  0  0  0  0  0  0  0  0
    4.9993   -3.7443    0.0000 C   0  0  0  0  0  0  0  0  0  0  0  0
    5.0077   -2.3261    0.0000 C   0  0  0  0  0  0  0  0  0  0  0  0
    3.7652   -2.2006    0.0000 O   0  0  0  0  0  0  0  0  0  0  0  0
    3.7652   -3.8572    0.0000 O   0  0  0  0  0  0  0  0  0  0  0  0
    2.9410   -3.0289    0.0000 N   0  0  0  0  0  0  0  0  0  0  0  0
    5.8234   -3.7443    0.0000 C   0  0  0  0  0  0  0  0  0  0  0  0
    5.8234   -2.3261    0.0000 C   0  0  0  0  0  0  0  0  0  0  0  0
    1.6985   -2.3135    0.0000 C   0  0  0  0  0  0  0  0  0  0  0  0
    0.9413    0.5229    0.0000 Cl  0  0  0  0  0  0  0  0  0  0  0  0
    6.2376   -3.0372    0.0000 C   0  0  0  0  0  0  0  0  0  0  0  0
    2.5269   -2.3135    0.0000 C   0  0  0  0  0  0  0  0  0  0  0  0
    2.3888   -0.6066    0.0000 C   0  0  0  0  0  0  0  0  0  0  0  0
   -0.5480   -0.5439    0.0000 C   0  0  0  0  0  0  0  0  0  0  0  0
    4.5852   -4.4597    0.0000 C   0  0  0  0  0  0  0  0  0  0  0  0
    4.5852   -1.6065    0.0000 C   0  0  0  0  0  0  0  0  0  0  0  0
    7.0576   -3.0372    0.0000 C   0  0  0  0  0  0  0  0  0  0  0  0
  2 15  1  0  0  0  0
  3  2  1  0  0  0  0
  4  5  2  0  0  0  0
  5  2  1  0  0  0  0
  6  3  2  0  0  0  0
  7  1  1  0  0  0  0
  8  7  2  0  0  0  0
  9  7  1  0  0  0  0
 10  1  2  0  0  0  0
 11  1  2  0  0  0  0
 12  1  1  0  0  0  0
 13  8  1  0  0  0  0
 14  9  2  0  0  0  0
 15 18  1  0  0  0  0
 16  4  1  0  0  0  0
 17 14  1  0  0  0  0
 18 12  1  0  0  0  0
 19  5  1  0  0  0  0
 20  6  1  0  0  0  0
 21  8  1  0  0  0  0
 22  9  1  0  0  0  0
 23 17  1  0  0  0  0
 13 17  2  0  0  0  0
  4  6  1  0  0  0  0
M  END
>  <IDNUMBER>
F3316-0241

>  <Chemical_Name>
N-[2-(4-chloro-3,5-dimethyl-1H-pyrazol-1-yl)ethyl]-2,4,6-trimethylbenzene-1-sulfonamide

>  <PriceCoeff>
1.00

>  <MW>
355.88

>  <Description>
solid

>  <FSP3>
0.44

>  <clogP>
4.12

>  <TPSA>
72.37

>  <Acceptor>
3

>  <Donor>
1

>  <RotBonds>
5

>  <HAC>
23

>  <Collection>
General

$$$$
F3316-0245
  Mrv2219 10102508112D          

 18 19  0  0  0  0            999 V2000
    2.1809   -1.6555    0.0000 N   0  0  0  0  0  0  0  0  0  0  0  0
    1.3636   -1.6055    0.0000 N   0  0  0  0  0  0  0  0  0  0  0  0
    1.8390   -0.3670    0.0000 C   0  0  0  0  0  0  0  0  0  0  0  0
    2.4812   -0.8799    0.0000 C   0  0  0  0  0  0  0  0  0  0  0  0
    1.1509   -0.8174    0.0000 C   0  0  0  0  0  0  0  0  0  0  0  0
    5.0582   -2.3561    0.0000 C   0  0  0  0  0  0  0  0  0  0  0  0
    4.6537   -3.0817    0.0000 C   0  0  0  0  0  0  0  0  0  0  0  0
    4.8080   -1.5805    0.0000 S   0  0  0  0  0  0  0  0  0  0  0  0
    5.8839   -2.3561    0.0000 C   0  0  0  0  0  0  0  0  0  0  0  0
    5.4669   -1.0926    0.0000 C   0  0  0  0  0  0  0  0  0  0  0  0
    2.5938   -2.3686    0.0000 C   0  0  0  0  0  0  0  0  0  0  0  0
    1.8307    0.4587    0.0000 Cl  0  0  0  0  0  0  0  0  0  0  0  0
    5.0582   -3.7947    0.0000 O   0  0  0  0  0  0  0  0  0  0  0  0
    6.1341   -1.5680    0.0000 C   0  0  0  0  0  0  0  0  0  0  0  0
    3.8281   -3.0817    0.0000 N   0  0  0  0  0  0  0  0  0  0  0  0
    3.2776   -0.6672    0.0000 C   0  0  0  0  0  0  0  0  0  0  0  0
    3.4194   -2.3686    0.0000 C   0  0  0  0  0  0  0  0  0  0  0  0
    0.3503   -0.6005    0.0000 C   0  0  0  0  0  0  0  0  0  0  0  0
  2  1  1  0  0  0  0
  3  4  2  0  0  0  0
  4  1  1  0  0  0  0
  5  2  2  0  0  0  0
  6  7  1  0  0  0  0
  7 15  1  0  0  0  0
  8  6  1  0  0  0  0
  9  6  2  0  0  0  0
 10  8  1  0  0  0  0
 11  1  1  0  0  0  0
 12  3  1  0  0  0  0
 13  7  2  0  0  0  0
 14  9  1  0  0  0  0
 15 17  1  0  0  0  0
 16  4  1  0  0  0  0
 17 11  1  0  0  0  0
 18  5  1  0  0  0  0
  3  5  1  0  0  0  0
 14 10  2  0  0  0  0
M  END
>  <IDNUMBER>
F3316-0245

>  <Chemical_Name>
N-[2-(4-chloro-3,5-dimethyl-1H-pyrazol-1-yl)ethyl]thiophene-2-carboxamide

>  <PriceCoeff>
1.50

>  <CAS>
957502-09-9

>  <MW>
283.78

>  <Description>
solid

>  <FSP3>
0.33

>  <clogP>
2.87

>  <TPSA>
75.16

>  <Acceptor>
2

>  <Donor>
1

>  <RotBonds>
4

>  <HAC>
18

>  <Collection>
Advanced

>  <PPDS>
+

$$$$
F3316-0246
  Mrv2219 10102508112D          

 20 21  0  0  0  0            999 V2000
    2.1044   -1.6576    0.0000 N   0  0  0  0  0  0  0  0  0  0  0  0
    1.2819   -1.6075    0.0000 N   0  0  0  0  0  0  0  0  0  0  0  0
    1.7578   -0.3675    0.0000 C   0  0  0  0  0  0  0  0  0  0  0  0
    2.3967   -0.8810    0.0000 C   0  0  0  0  0  0  0  0  0  0  0  0
    1.0689   -0.8184    0.0000 C   0  0  0  0  0  0  0  0  0  0  0  0
    4.5762   -3.0856    0.0000 C   0  0  0  0  0  0  0  0  0  0  0  0
    4.9853   -2.3591    0.0000 C   0  0  0  0  0  0  0  0  0  0  0  0
    2.5094   -2.3716    0.0000 C   0  0  0  0  0  0  0  0  0  0  0  0
    5.8120   -2.3591    0.0000 C   0  0  0  0  0  0  0  0  0  0  0  0
    1.7536    0.4592    0.0000 Cl  0  0  0  0  0  0  0  0  0  0  0  0
    4.9853   -3.7996    0.0000 O   0  0  0  0  0  0  0  0  0  0  0  0
    3.7495   -3.0856    0.0000 N   0  0  0  0  0  0  0  0  0  0  0  0
    6.2254   -1.6451    0.0000 C   0  0  0  0  0  0  0  0  0  0  0  0
    3.1983   -0.6681    0.0000 C   0  0  0  0  0  0  0  0  0  0  0  0
    3.3361   -2.3716    0.0000 C   0  0  0  0  0  0  0  0  0  0  0  0
    0.2673   -0.6012    0.0000 C   0  0  0  0  0  0  0  0  0  0  0  0
    7.0521   -1.6451    0.0000 Br  0  0  0  0  0  0  0  0  0  0  0  0
    4.5762   -1.6534    0.0000 C   0  0  0  0  0  0  0  0  0  0  0  0
    4.9853   -0.9394    0.0000 C   0  0  0  0  0  0  0  0  0  0  0  0
    5.8120   -0.9311    0.0000 C   0  0  0  0  0  0  0  0  0  0  0  0
  2  1  1  0  0  0  0
  3  4  2  0  0  0  0
  4  1  1  0  0  0  0
  5  2  2  0  0  0  0
  6 12  1  0  0  0  0
  7  6  1  0  0  0  0
  8  1  1  0  0  0  0
  9  7  2  0  0  0  0
 10  3  1  0  0  0  0
 11  6  2  0  0  0  0
 12 15  1  0  0  0  0
 13  9  1  0  0  0  0
 14  4  1  0  0  0  0
 15  8  1  0  0  0  0
 16  5  1  0  0  0  0
 17 13  1  0  0  0  0
 18  7  1  0  0  0  0
 19 18  2  0  0  0  0
 20 19  1  0  0  0  0
  3  5  1  0  0  0  0
 13 20  2  0  0  0  0
M  END
>  <IDNUMBER>
F3316-0246

>  <Chemical_Name>
3-bromo-N-[2-(4-chloro-3,5-dimethyl-1H-pyrazol-1-yl)ethyl]benzamide

>  <PriceCoeff>
1.00

>  <CAS>
1015845-47-2

>  <MW>
356.65

>  <Description>
solid

>  <FSP3>
0.29

>  <clogP>
3.64

>  <TPSA>
46.92

>  <Acceptor>
2

>  <Donor>
1

>  <RotBonds>
4

>  <HAC>
20

>  <Collection>
General

>  <PPDS>
+

$$$$
F3316-0247
  Mrv2219 10102508112D          

 22 23  0  0  0  0            999 V2000
    1.6075   -1.6576    0.0000 N   0  0  0  0  0  0  0  0  0  0  0  0
    0.7808   -1.6075    0.0000 N   0  0  0  0  0  0  0  0  0  0  0  0
    1.2568   -0.3675    0.0000 C   0  0  0  0  0  0  0  0  0  0  0  0
    1.9039   -0.8810    0.0000 C   0  0  0  0  0  0  0  0  0  0  0  0
    0.5679   -0.8184    0.0000 C   0  0  0  0  0  0  0  0  0  0  0  0
    6.5553   -1.6451    0.0000 N   0  3  0  0  0  0  0  0  0  0  0  0
    5.7285   -1.6451    0.0000 C   0  0  0  0  0  0  0  0  0  0  0  0
    4.0751   -3.0856    0.0000 C   0  0  0  0  0  0  0  0  0  0  0  0
    4.4885   -2.3591    0.0000 C   0  0  0  0  0  0  0  0  0  0  0  0
    5.3152   -2.3591    0.0000 C   0  0  0  0  0  0  0  0  0  0  0  0
    6.9686   -2.3591    0.0000 O   0  5  0  0  0  0  0  0  0  0  0  0
    6.9644   -0.9311    0.0000 O   0  0  0  0  0  0  0  0  0  0  0  0
    2.0084   -2.3716    0.0000 C   0  0  0  0  0  0  0  0  0  0  0  0
    1.2568    0.4592    0.0000 Cl  0  0  0  0  0  0  0  0  0  0  0  0
    4.4885   -3.7996    0.0000 O   0  0  0  0  0  0  0  0  0  0  0  0
    3.2484   -3.0856    0.0000 N   0  0  0  0  0  0  0  0  0  0  0  0
    2.6973   -0.6681    0.0000 C   0  0  0  0  0  0  0  0  0  0  0  0
    2.8434   -2.3716    0.0000 C   0  0  0  0  0  0  0  0  0  0  0  0
   -0.2338   -0.6012    0.0000 C   0  0  0  0  0  0  0  0  0  0  0  0
    5.3152   -0.9311    0.0000 C   0  0  0  0  0  0  0  0  0  0  0  0
    4.0751   -1.6534    0.0000 C   0  0  0  0  0  0  0  0  0  0  0  0
    4.4885   -0.9394    0.0000 C   0  0  0  0  0  0  0  0  0  0  0  0
  2  1  1  0  0  0  0
  3  4  2  0  0  0  0
  4  1  1  0  0  0  0
  5  2  2  0  0  0  0
  6  7  1  0  0  0  0
  7 10  1  0  0  0  0
  8 16  1  0  0  0  0
  9  8  1  0  0  0  0
 10  9  2  0  0  0  0
 11  6  1  0  0  0  0
 12  6  2  0  0  0  0
 13  1  1  0  0  0  0
 14  3  1  0  0  0  0
 15  8  2  0  0  0  0
 16 18  1  0  0  0  0
 17  4  1  0  0  0  0
 18 13  1  0  0  0  0
 19  5  1  0  0  0  0
 20 22  1  0  0  0  0
 21  9  1  0  0  0  0
 22 21  2  0  0  0  0
  5  3  1  0  0  0  0
 20  7  2  0  0  0  0
M  CHG  2   6   1  11  -1
M  END
>  <IDNUMBER>
F3316-0247

>  <Chemical_Name>
N-[2-(4-chloro-3,5-dimethyl-1H-pyrazol-1-yl)ethyl]-3-nitrobenzamide

>  <PriceCoeff>
1.00

>  <CAS>
1013991-51-9

>  <MW>
322.75

>  <Description>
solid

>  <FSP3>
0.29

>  <clogP>
2.75

>  <TPSA>
90.06

>  <Acceptor>
4

>  <Donor>
1

>  <RotBonds>
5

>  <HAC>
22

>  <Collection>
General

>  <PPDS>
+

$$$$
F3316-0301
  Mrv2219 10102508112D          

 20 21  0  0  0  0            999 V2000
    2.5771    1.5445    0.0000 N   0  0  0  0  0  0  0  0  0  0  0  0
    2.0525    2.1940    0.0000 N   0  0  0  0  0  0  0  0  0  0  0  0
    2.1149    0.8493    0.0000 C   0  0  0  0  0  0  0  0  0  0  0  0
    1.3156    1.0741    0.0000 C   0  0  0  0  0  0  0  0  0  0  0  0
    1.2781    1.9067    0.0000 C   0  0  0  0  0  0  0  0  0  0  0  0
    3.4014    1.5737    0.0000 C   0  0  0  0  0  0  0  0  0  0  0  0
    3.8468    0.8826    0.0000 C   0  0  0  0  0  0  0  0  0  0  0  0
    4.6753    0.9117    0.0000 N   0  0  0  0  0  0  0  0  0  0  0  0
    0.6661    0.5620    0.0000 Br  0  0  0  0  0  0  0  0  0  0  0  0
    3.4638    0.1457    0.0000 O   0  0  0  0  0  0  0  0  0  0  0  0
    5.1125    0.2206    0.0000 C   0  0  0  0  0  0  0  0  0  0  0  0
    2.3980    0.0832    0.0000 C   0  0  0  0  0  0  0  0  0  0  0  0
    5.9950   -1.1740    0.0000 C   0  0  0  0  0  0  0  0  0  0  0  0
    0.5912    2.3563    0.0000 C   0  0  0  0  0  0  0  0  0  0  0  0
    4.7253   -0.5121    0.0000 C   0  0  0  0  0  0  0  0  0  0  0  0
    5.9368    0.2581    0.0000 C   0  0  0  0  0  0  0  0  0  0  0  0
    6.3739   -0.4371    0.0000 C   0  0  0  0  0  0  0  0  0  0  0  0
    5.1707   -1.2032    0.0000 C   0  0  0  0  0  0  0  0  0  0  0  0
    6.4364   -1.8652    0.0000 O   0  0  0  0  0  0  0  0  0  0  0  0
    6.0575   -2.6020    0.0000 C   0  0  0  0  0  0  0  0  0  0  0  0
  2  1  1  0  0  0  0
  3  1  1  0  0  0  0
  4  3  2  0  0  0  0
  5  2  2  0  0  0  0
  6  1  1  0  0  0  0
  7  6  1  0  0  0  0
  8  7  1  0  0  0  0
  9  4  1  0  0  0  0
 10  7  2  0  0  0  0
 11  8  1  0  0  0  0
 12  3  1  0  0  0  0
 13 17  1  0  0  0  0
 14  5  1  0  0  0  0
 15 11  2  0  0  0  0
 16 11  1  0  0  0  0
 17 16  2  0  0  0  0
 18 15  1  0  0  0  0
 19 13  1  0  0  0  0
 20 19  1  0  0  0  0
  5  4  1  0  0  0  0
 18 13  2  0  0  0  0
M  END
>  <IDNUMBER>
F3316-0301

>  <Chemical_Name>
2-(4-bromo-3,5-dimethyl-1H-pyrazol-1-yl)-N-(4-methoxyphenyl)acetamide

>  <PriceCoeff>
1.00

>  <CAS>
957494-95-0

>  <MW>
338.20

>  <Description>
solid

>  <FSP3>
0.29

>  <clogP>
2.79

>  <TPSA>
56.15

>  <Acceptor>
3

>  <Donor>
1

>  <RotBonds>
4

>  <HAC>
20

>  <Collection>
General

>  <PPDS>
+

$$$$
F3318-0187
  Mrv2219 10102508112D          

 19 21  0  0  0  0            999 V2000
    1.9250    1.7083    0.0000 N   0  0  0  0  0  0  0  0  0  0  0  0
    2.1292    0.9083    0.0000 C   0  0  0  0  0  0  0  0  0  0  0  0
    2.4125    2.3708    0.0000 C   0  0  0  0  0  0  0  0  0  0  0  0
    1.1417    1.9583    0.0000 C   0  0  0  0  0  0  0  0  0  0  0  0
    1.1417    2.7833    0.0000 C   0  0  0  0  0  0  0  0  0  0  0  0
    1.9250    3.0458    0.0000 C   0  0  0  0  0  0  0  0  0  0  0  0
    2.9292    0.6958    0.0000 C   0  0  0  0  0  0  0  0  0  0  0  0
    1.5500    0.3333    0.0000 O   0  0  0  0  0  0  0  0  0  0  0  0
    3.1417   -0.0917    0.0000 C   0  0  0  0  0  0  0  0  0  0  0  0
    3.5042    1.2833    0.0000 C   0  0  0  0  0  0  0  0  0  0  0  0
    4.5167    0.2708    0.0000 C   0  0  0  0  0  0  0  0  0  0  0  0
    4.3042    1.0708    0.0000 C   0  0  0  0  0  0  0  0  0  0  0  0
    3.9375   -0.3125    0.0000 C   0  0  0  0  0  0  0  0  0  0  0  0
    5.3167    0.0583    0.0000 Cl  0  0  0  0  0  0  0  0  0  0  0  0
    3.2375    2.3708    0.0000 C   0  0  0  0  0  0  0  0  0  0  0  0
    0.4250    1.5458    0.0000 C   0  0  0  0  0  0  0  0  0  0  0  0
    0.4250    3.1958    0.0000 C   0  0  0  0  0  0  0  0  0  0  0  0
   -0.2875    1.9583    0.0000 C   0  0  0  0  0  0  0  0  0  0  0  0
   -0.2875    2.7833    0.0000 C   0  0  0  0  0  0  0  0  0  0  0  0
  2  1  1  0  0  0  0
  3  1  1  0  0  0  0
  4  1  1  0  0  0  0
  5  4  1  0  0  0  0
  6  3  1  0  0  0  0
  7  2  1  0  0  0  0
  8  2  2  0  0  0  0
  9  7  2  0  0  0  0
 10  7  1  0  0  0  0
 11 12  1  0  0  0  0
 12 10  2  0  0  0  0
 13  9  1  0  0  0  0
 14 11  1  0  0  0  0
 15  3  1  0  0  0  0
 16  4  2  0  0  0  0
 17  5  2  0  0  0  0
 18 16  1  0  0  0  0
 19 18  2  0  0  0  0
  6  5  1  0  0  0  0
 17 19  1  0  0  0  0
 13 11  2  0  0  0  0
M  END
>  <IDNUMBER>
F3318-0187

>  <Chemical_Name>
1-(4-chlorobenzoyl)-2-methyl-2,3-dihydro-1H-indole

>  <PriceCoeff>
1.00

>  <CAS>
879581-19-8

>  <MW>
271.74

>  <Description>
solid

>  <FSP3>
0.19

>  <clogP>
3.94

>  <TPSA>
20.31

>  <Acceptor>
1

>  <Donor>
0

>  <RotBonds>
2

>  <HAC>
19

>  <Collection>
General

>  <PPDS>
+

$$$$
F3323-0578
  Mrv2219 10102508112D          

 25 27  0  0  0  0            999 V2000
    6.5750   -6.4542    0.0000 N   0  0  0  0  0  0  0  0  0  0  0  0
    5.7750   -6.2750    0.0000 C   0  0  0  0  0  0  0  0  0  0  0  0
    5.1292   -6.7792    0.0000 C   0  0  0  0  0  0  0  0  0  0  0  0
    7.0875   -5.8125    0.0000 C   0  0  0  0  0  0  0  0  0  0  0  0
    6.9292   -7.1917    0.0000 C   0  0  0  0  0  0  0  0  0  0  0  0
    8.4167   -5.2917    0.0000 C   0  0  0  0  0  0  0  0  0  0  0  0
    7.9042   -5.9375    0.0000 C   0  0  0  0  0  0  0  0  0  0  0  0
    5.7667   -8.1250    0.0000 O   0  0  0  0  0  0  0  0  0  0  0  0
    5.1250   -7.6042    0.0000 C   0  0  0  0  0  0  0  0  0  0  0  0
    5.5917   -5.4667    0.0000 O   0  0  0  0  0  0  0  0  0  0  0  0
    6.5667   -7.9417    0.0000 C   0  0  0  0  0  0  0  0  0  0  0  0
    9.2292   -5.4167    0.0000 C   0  0  0  0  0  0  0  0  0  0  0  0
    8.1125   -4.5292    0.0000 C   0  0  0  0  0  0  0  0  0  0  0  0
    7.7542   -7.1917    0.0000 O   0  0  0  0  0  0  0  0  0  0  0  0
    8.2042   -6.7042    0.0000 O   0  0  0  0  0  0  0  0  0  0  0  0
    9.7417   -4.7750    0.0000 C   0  0  0  0  0  0  0  0  0  0  0  0
    8.6250   -3.8792    0.0000 C   0  0  0  0  0  0  0  0  0  0  0  0
    4.4125   -6.3667    0.0000 C   0  0  0  0  0  0  0  0  0  0  0  0
    9.4417   -4.0042    0.0000 C   0  0  0  0  0  0  0  0  0  0  0  0
    8.3250   -3.1125    0.0000 Cl  0  0  0  0  0  0  0  0  0  0  0  0
    9.5292   -6.1792    0.0000 O   0  0  0  0  0  0  0  0  0  0  0  0
    4.4125   -8.0250    0.0000 C   0  0  0  0  0  0  0  0  0  0  0  0
   10.3417   -6.3042    0.0000 C   0  0  0  0  0  0  0  0  0  0  0  0
    3.7000   -6.7875    0.0000 C   0  0  0  0  0  0  0  0  0  0  0  0
    3.7000   -7.6125    0.0000 C   0  0  0  0  0  0  0  0  0  0  0  0
  2  1  1  0  0  0  0
  3  2  1  0  0  0  0
  4  1  1  0  0  0  0
  5  1  1  0  0  0  0
  6  7  1  0  0  0  0
  7  4  1  0  0  0  0
  8 11  1  0  0  0  0
  9  3  1  0  0  0  0
 10  2  2  0  0  0  0
 11  5  1  0  0  0  0
 12  6  2  0  0  0  0
 13  6  1  0  0  0  0
 14  5  2  0  0  0  0
 15  7  2  0  0  0  0
 16 12  1  0  0  0  0
 17 13  2  0  0  0  0
 18  3  2  0  0  0  0
 19 17  1  0  0  0  0
 20 17  1  0  0  0  0
 21 12  1  0  0  0  0
 22  9  2  0  0  0  0
 23 21  1  0  0  0  0
 24 18  1  0  0  0  0
 25 24  2  0  0  0  0
  9  8  1  0  0  0  0
 22 25  1  0  0  0  0
 16 19  2  0  0  0  0
M  END
>  <IDNUMBER>
F3323-0578

>  <Chemical_Name>
4-[2-(5-chloro-2-methoxyphenyl)-2-oxoethyl]-2,3,4,5-tetrahydro-1,4-benzoxazepine-3,5-dione

>  <PriceCoeff>
1.00

>  <CAS>
903584-87-2

>  <MW>
359.76

>  <Description>
solid

>  <FSP3>
0.17

>  <clogP>
3.52

>  <TPSA>
72.91

>  <Acceptor>
5

>  <Donor>
0

>  <RotBonds>
4

>  <HAC>
25

>  <Collection>
General

>  <PPDS>
+

$$$$
F3323-0579
  Mrv2219 10102508112D          

 25 27  0  0  0  0            999 V2000
    6.5750   -6.4542    0.0000 N   0  0  0  0  0  0  0  0  0  0  0  0
    5.7750   -6.2750    0.0000 C   0  0  0  0  0  0  0  0  0  0  0  0
    5.1292   -6.7792    0.0000 C   0  0  0  0  0  0  0  0  0  0  0  0
    7.0875   -5.8125    0.0000 C   0  0  0  0  0  0  0  0  0  0  0  0
    6.9292   -7.1917    0.0000 C   0  0  0  0  0  0  0  0  0  0  0  0
    8.4167   -5.2917    0.0000 C   0  0  0  0  0  0  0  0  0  0  0  0
    7.9042   -5.9375    0.0000 C   0  0  0  0  0  0  0  0  0  0  0  0
    5.7667   -8.1250    0.0000 O   0  0  0  0  0  0  0  0  0  0  0  0
    5.1250   -7.6042    0.0000 C   0  0  0  0  0  0  0  0  0  0  0  0
    5.5917   -5.4667    0.0000 O   0  0  0  0  0  0  0  0  0  0  0  0
    6.5667   -7.9417    0.0000 C   0  0  0  0  0  0  0  0  0  0  0  0
    9.2292   -5.4167    0.0000 C   0  0  0  0  0  0  0  0  0  0  0  0
    8.1125   -4.5292    0.0000 C   0  0  0  0  0  0  0  0  0  0  0  0
    7.7542   -7.1917    0.0000 O   0  0  0  0  0  0  0  0  0  0  0  0
    8.2042   -6.7042    0.0000 O   0  0  0  0  0  0  0  0  0  0  0  0
    9.7417   -4.7750    0.0000 C   0  0  0  0  0  0  0  0  0  0  0  0
    8.6250   -3.8792    0.0000 C   0  0  0  0  0  0  0  0  0  0  0  0
    4.4125   -6.3667    0.0000 C   0  0  0  0  0  0  0  0  0  0  0  0
    9.4417   -4.0042    0.0000 C   0  0  0  0  0  0  0  0  0  0  0  0
    8.3250   -3.1125    0.0000 F   0  0  0  0  0  0  0  0  0  0  0  0
    9.5292   -6.1792    0.0000 O   0  0  0  0  0  0  0  0  0  0  0  0
    4.4125   -8.0250    0.0000 C   0  0  0  0  0  0  0  0  0  0  0  0
   10.3417   -6.3042    0.0000 C   0  0  0  0  0  0  0  0  0  0  0  0
    3.7000   -6.7875    0.0000 C   0  0  0  0  0  0  0  0  0  0  0  0
    3.7000   -7.6125    0.0000 C   0  0  0  0  0  0  0  0  0  0  0  0
  2  1  1  0  0  0  0
  3  2  1  0  0  0  0
  4  1  1  0  0  0  0
  5  1  1  0  0  0  0
  6  7  1  0  0  0  0
  7  4  1  0  0  0  0
  8 11  1  0  0  0  0
  9  3  1  0  0  0  0
 10  2  2  0  0  0  0
 11  5  1  0  0  0  0
 12  6  2  0  0  0  0
 13  6  1  0  0  0  0
 14  5  2  0  0  0  0
 15  7  2  0  0  0  0
 16 12  1  0  0  0  0
 17 13  2  0  0  0  0
 18  3  2  0  0  0  0
 19 17  1  0  0  0  0
 20 17  1  0  0  0  0
 21 12  1  0  0  0  0
 22  9  2  0  0  0  0
 23 21  1  0  0  0  0
 24 18  1  0  0  0  0
 25 24  2  0  0  0  0
  9  8  1  0  0  0  0
 22 25  1  0  0  0  0
 16 19  2  0  0  0  0
M  END
>  <IDNUMBER>
F3323-0579

>  <Chemical_Name>
4-[2-(5-fluoro-2-methoxyphenyl)-2-oxoethyl]-2,3,4,5-tetrahydro-1,4-benzoxazepine-3,5-dione

>  <PriceCoeff>
1.00

>  <CAS>
905428-14-0

>  <MW>
343.31

>  <Description>
solid

>  <FSP3>
0.17

>  <clogP>
2.95

>  <TPSA>
72.91

>  <Acceptor>
5

>  <Donor>
0

>  <RotBonds>
4

>  <HAC>
25

>  <Collection>
General

>  <PPDS>
+

$$$$
F3323-0583
  Mrv2219 10102508112D          

 24 26  0  0  0  0            999 V2000
    6.5750   -6.4542    0.0000 N   0  0  0  0  0  0  0  0  0  0  0  0
    5.7750   -6.2750    0.0000 C   0  0  0  0  0  0  0  0  0  0  0  0
    5.1292   -6.7792    0.0000 C   0  0  0  0  0  0  0  0  0  0  0  0
    7.0875   -5.8125    0.0000 C   0  0  0  0  0  0  0  0  0  0  0  0
    6.9292   -7.1917    0.0000 C   0  0  0  0  0  0  0  0  0  0  0  0
    7.9042   -5.9375    0.0000 C   0  0  0  0  0  0  0  0  0  0  0  0
    8.4167   -5.2917    0.0000 C   0  0  0  0  0  0  0  0  0  0  0  0
    5.7667   -8.1250    0.0000 O   0  0  0  0  0  0  0  0  0  0  0  0
    5.1250   -7.6042    0.0000 C   0  0  0  0  0  0  0  0  0  0  0  0
    5.5917   -5.4667    0.0000 O   0  0  0  0  0  0  0  0  0  0  0  0
    6.5667   -7.9417    0.0000 C   0  0  0  0  0  0  0  0  0  0  0  0
    7.7542   -7.1917    0.0000 O   0  0  0  0  0  0  0  0  0  0  0  0
    9.2292   -5.4167    0.0000 C   0  0  0  0  0  0  0  0  0  0  0  0
    8.2042   -6.7042    0.0000 O   0  0  0  0  0  0  0  0  0  0  0  0
    4.4125   -6.3667    0.0000 C   0  0  0  0  0  0  0  0  0  0  0  0
    9.5292   -6.1792    0.0000 O   0  0  0  0  0  0  0  0  0  0  0  0
    8.1125   -4.5292    0.0000 C   0  0  0  0  0  0  0  0  0  0  0  0
    4.4125   -8.0250    0.0000 C   0  0  0  0  0  0  0  0  0  0  0  0
    9.7417   -4.7750    0.0000 C   0  0  0  0  0  0  0  0  0  0  0  0
   10.3417   -6.3042    0.0000 C   0  0  0  0  0  0  0  0  0  0  0  0
    3.7000   -6.7875    0.0000 C   0  0  0  0  0  0  0  0  0  0  0  0
    8.6250   -3.8792    0.0000 C   0  0  0  0  0  0  0  0  0  0  0  0
    3.7000   -7.6125    0.0000 C   0  0  0  0  0  0  0  0  0  0  0  0
    9.4417   -4.0042    0.0000 C   0  0  0  0  0  0  0  0  0  0  0  0
  2  1  1  0  0  0  0
  3  2  1  0  0  0  0
  4  1  1  0  0  0  0
  5  1  1  0  0  0  0
  6  4  1  0  0  0  0
  7  6  1  0  0  0  0
  8 11  1  0  0  0  0
  9  3  1  0  0  0  0
 10  2  2  0  0  0  0
 11  5  1  0  0  0  0
 12  5  2  0  0  0  0
 13  7  2  0  0  0  0
 14  6  2  0  0  0  0
 15  3  2  0  0  0  0
 16 13  1  0  0  0  0
 17  7  1  0  0  0  0
 18  9  2  0  0  0  0
 19 13  1  0  0  0  0
 20 16  1  0  0  0  0
 21 15  1  0  0  0  0
 22 17  2  0  0  0  0
 23 21  2  0  0  0  0
 24 22  1  0  0  0  0
  9  8  1  0  0  0  0
 18 23  1  0  0  0  0
 19 24  2  0  0  0  0
M  END
>  <IDNUMBER>
F3323-0583

>  <Chemical_Name>
4-[2-(2-methoxyphenyl)-2-oxoethyl]-2,3,4,5-tetrahydro-1,4-benzoxazepine-3,5-dione

>  <PriceCoeff>
1.00

>  <CAS>
903194-21-8

>  <MW>
325.32

>  <Description>
solid

>  <FSP3>
0.17

>  <clogP>
2.77

>  <TPSA>
72.91

>  <Acceptor>
5

>  <Donor>
0

>  <RotBonds>
4

>  <HAC>
24

>  <Collection>
General

>  <PPDS>
+

$$$$
F3323-0587
  Mrv2219 10102508112D          

 25 27  0  0  0  0            999 V2000
    6.5750   -6.4542    0.0000 N   0  0  0  0  0  0  0  0  0  0  0  0
    5.7750   -6.2750    0.0000 C   0  0  0  0  0  0  0  0  0  0  0  0
    5.1292   -6.7792    0.0000 C   0  0  0  0  0  0  0  0  0  0  0  0
    6.9292   -7.1917    0.0000 C   0  0  0  0  0  0  0  0  0  0  0  0
    7.0875   -5.8125    0.0000 C   0  0  0  0  0  0  0  0  0  0  0  0
    7.9042   -5.9375    0.0000 C   0  0  0  0  0  0  0  0  0  0  0  0
    5.7667   -8.1250    0.0000 O   0  0  0  0  0  0  0  0  0  0  0  0
    5.1250   -7.6042    0.0000 C   0  0  0  0  0  0  0  0  0  0  0  0
    5.5917   -5.4667    0.0000 O   0  0  0  0  0  0  0  0  0  0  0  0
    6.5667   -7.9417    0.0000 C   0  0  0  0  0  0  0  0  0  0  0  0
    8.4167   -5.2917    0.0000 C   0  0  0  0  0  0  0  0  0  0  0  0
    7.7542   -7.1917    0.0000 O   0  0  0  0  0  0  0  0  0  0  0  0
    8.2042   -6.7042    0.0000 O   0  0  0  0  0  0  0  0  0  0  0  0
    9.2292   -5.4167    0.0000 C   0  0  0  0  0  0  0  0  0  0  0  0
    8.1125   -4.5292    0.0000 C   0  0  0  0  0  0  0  0  0  0  0  0
    9.4417   -4.0042    0.0000 C   0  0  0  0  0  0  0  0  0  0  0  0
    4.4125   -6.3667    0.0000 C   0  0  0  0  0  0  0  0  0  0  0  0
    8.6250   -3.8792    0.0000 C   0  0  0  0  0  0  0  0  0  0  0  0
    9.7417   -4.7750    0.0000 C   0  0  0  0  0  0  0  0  0  0  0  0
    9.9542   -3.3667    0.0000 O   0  0  0  0  0  0  0  0  0  0  0  0
    4.4125   -8.0250    0.0000 C   0  0  0  0  0  0  0  0  0  0  0  0
    9.6542   -2.5917    0.0000 C   0  0  0  0  0  0  0  0  0  0  0  0
    3.7000   -6.7875    0.0000 C   0  0  0  0  0  0  0  0  0  0  0  0
    8.8375   -2.4750    0.0000 C   0  0  0  0  0  0  0  0  0  0  0  0
    3.7000   -7.6125    0.0000 C   0  0  0  0  0  0  0  0  0  0  0  0
  2  1  1  0  0  0  0
  3  2  1  0  0  0  0
  4  1  1  0  0  0  0
  5  1  1  0  0  0  0
  6  5  1  0  0  0  0
  7 10  1  0  0  0  0
  8  3  1  0  0  0  0
  9  2  2  0  0  0  0
 10  4  1  0  0  0  0
 11  6  1  0  0  0  0
 12  4  2  0  0  0  0
 13  6  2  0  0  0  0
 14 11  2  0  0  0  0
 15 11  1  0  0  0  0
 16 18  1  0  0  0  0
 17  3  2  0  0  0  0
 18 15  2  0  0  0  0
 19 14  1  0  0  0  0
 20 16  1  0  0  0  0
 21  8  2  0  0  0  0
 22 20  1  0  0  0  0
 23 17  1  0  0  0  0
 24 22  1  0  0  0  0
 25 23  2  0  0  0  0
  8  7  1  0  0  0  0
 19 16  2  0  0  0  0
 21 25  1  0  0  0  0
M  END
>  <IDNUMBER>
F3323-0587

>  <Chemical_Name>
4-[2-(4-ethoxyphenyl)-2-oxoethyl]-2,3,4,5-tetrahydro-1,4-benzoxazepine-3,5-dione

>  <PriceCoeff>
1.00

>  <CAS>
903585-29-5

>  <MW>
339.34

>  <Description>
solid

>  <FSP3>
0.21

>  <clogP>
3.29

>  <TPSA>
72.91

>  <Acceptor>
5

>  <Donor>
0

>  <RotBonds>
5

>  <HAC>
25

>  <Collection>
General

>  <PPDS>
+

$$$$
F3323-0590
  Mrv2219 10102508112D          

 24 26  0  0  0  0            999 V2000
    6.5750   -6.4542    0.0000 N   0  0  0  0  0  0  0  0  0  0  0  0
    5.7750   -6.2750    0.0000 C   0  0  0  0  0  0  0  0  0  0  0  0
    5.1292   -6.7792    0.0000 C   0  0  0  0  0  0  0  0  0  0  0  0
    6.9292   -7.1917    0.0000 C   0  0  0  0  0  0  0  0  0  0  0  0
    7.9042   -5.9375    0.0000 C   0  0  0  0  0  0  0  0  0  0  0  0
    7.0875   -5.8125    0.0000 C   0  0  0  0  0  0  0  0  0  0  0  0
    5.7667   -8.1250    0.0000 O   0  0  0  0  0  0  0  0  0  0  0  0
    8.4167   -5.2917    0.0000 N   0  0  0  0  0  0  0  0  0  0  0  0
    5.1250   -7.6042    0.0000 C   0  0  0  0  0  0  0  0  0  0  0  0
    9.2292   -5.4167    0.0000 C   0  0  0  0  0  0  0  0  0  0  0  0
    5.5917   -5.4667    0.0000 O   0  0  0  0  0  0  0  0  0  0  0  0
    6.5667   -7.9417    0.0000 C   0  0  0  0  0  0  0  0  0  0  0  0
    7.7542   -7.1917    0.0000 O   0  0  0  0  0  0  0  0  0  0  0  0
    8.2042   -6.7042    0.0000 O   0  0  0  0  0  0  0  0  0  0  0  0
    9.7417   -4.7667    0.0000 C   0  0  0  0  0  0  0  0  0  0  0  0
    4.4125   -6.3667    0.0000 C   0  0  0  0  0  0  0  0  0  0  0  0
    9.5292   -6.1792    0.0000 C   0  0  0  0  0  0  0  0  0  0  0  0
    4.4125   -8.0250    0.0000 C   0  0  0  0  0  0  0  0  0  0  0  0
    9.4417   -4.0042    0.0000 C   0  0  0  0  0  0  0  0  0  0  0  0
   10.5542   -4.8917    0.0000 C   0  0  0  0  0  0  0  0  0  0  0  0
    3.7000   -6.7875    0.0000 C   0  0  0  0  0  0  0  0  0  0  0  0
   10.3500   -6.3042    0.0000 C   0  0  0  0  0  0  0  0  0  0  0  0
    3.7000   -7.6125    0.0000 C   0  0  0  0  0  0  0  0  0  0  0  0
   10.8625   -5.6625    0.0000 C   0  0  0  0  0  0  0  0  0  0  0  0
  2  1  1  0  0  0  0
  3  2  1  0  0  0  0
  4  1  1  0  0  0  0
  5  6  1  0  0  0  0
  6  1  1  0  0  0  0
  7 12  1  0  0  0  0
  8  5  1  0  0  0  0
  9  3  1  0  0  0  0
 10  8  1  0  0  0  0
 11  2  2  0  0  0  0
 12  4  1  0  0  0  0
 13  4  2  0  0  0  0
 14  5  2  0  0  0  0
 15 10  1  0  0  0  0
 16  3  2  0  0  0  0
 17 10  2  0  0  0  0
 18  9  2  0  0  0  0
 19 15  1  0  0  0  0
 20 15  2  0  0  0  0
 21 16  1  0  0  0  0
 22 17  1  0  0  0  0
 23 21  2  0  0  0  0
 24 22  2  0  0  0  0
  9  7  1  0  0  0  0
 18 23  1  0  0  0  0
 20 24  1  0  0  0  0
M  END
>  <IDNUMBER>
F3323-0590

>  <Chemical_Name>
2-(3,5-dioxo-2,3,4,5-tetrahydro-1,4-benzoxazepin-4-yl)-N-(2-methylphenyl)acetamide

>  <PriceCoeff>
1.00

>  <CAS>
903854-59-1

>  <MW>
324.33

>  <Description>
solid

>  <FSP3>
0.17

>  <clogP>
2.11

>  <TPSA>
75.71

>  <Acceptor>
4

>  <Donor>
1

>  <RotBonds>
3

>  <HAC>
24

>  <Collection>
General

>  <PPDS>
+

$$$$
F3323-0591
  Mrv2219 10102508112D          

 25 27  0  0  0  0            999 V2000
    6.5750   -6.4542    0.0000 N   0  0  0  0  0  0  0  0  0  0  0  0
    5.7750   -6.2750    0.0000 C   0  0  0  0  0  0  0  0  0  0  0  0
    5.1292   -6.7792    0.0000 C   0  0  0  0  0  0  0  0  0  0  0  0
   10.5625   -4.8917    0.0000 N   0  3  0  0  0  0  0  0  0  0  0  0
    6.9292   -7.1917    0.0000 C   0  0  0  0  0  0  0  0  0  0  0  0
    7.0875   -5.8125    0.0000 C   0  0  0  0  0  0  0  0  0  0  0  0
    7.9042   -5.9375    0.0000 C   0  0  0  0  0  0  0  0  0  0  0  0
    9.7417   -4.7750    0.0000 C   0  0  0  0  0  0  0  0  0  0  0  0
    5.7667   -8.1250    0.0000 O   0  0  0  0  0  0  0  0  0  0  0  0
    5.1250   -7.6042    0.0000 C   0  0  0  0  0  0  0  0  0  0  0  0
    8.4167   -5.2917    0.0000 C   0  0  0  0  0  0  0  0  0  0  0  0
    9.2292   -5.4167    0.0000 C   0  0  0  0  0  0  0  0  0  0  0  0
   10.8625   -5.6667    0.0000 O   0  5  0  0  0  0  0  0  0  0  0  0
    5.5917   -5.4667    0.0000 O   0  0  0  0  0  0  0  0  0  0  0  0
    6.5667   -7.9417    0.0000 C   0  0  0  0  0  0  0  0  0  0  0  0
   11.0792   -4.2542    0.0000 O   0  0  0  0  0  0  0  0  0  0  0  0
    7.7542   -7.1917    0.0000 O   0  0  0  0  0  0  0  0  0  0  0  0
    8.2042   -6.7042    0.0000 O   0  0  0  0  0  0  0  0  0  0  0  0
    4.4125   -6.3667    0.0000 C   0  0  0  0  0  0  0  0  0  0  0  0
    9.4417   -4.0042    0.0000 C   0  0  0  0  0  0  0  0  0  0  0  0
    8.1125   -4.5292    0.0000 C   0  0  0  0  0  0  0  0  0  0  0  0
    8.6250   -3.8792    0.0000 C   0  0  0  0  0  0  0  0  0  0  0  0
    4.4125   -8.0250    0.0000 C   0  0  0  0  0  0  0  0  0  0  0  0
    3.7000   -6.7875    0.0000 C   0  0  0  0  0  0  0  0  0  0  0  0
    3.7000   -7.6125    0.0000 C   0  0  0  0  0  0  0  0  0  0  0  0
  2  1  1  0  0  0  0
  3  2  1  0  0  0  0
  4  8  1  0  0  0  0
  5  1  1  0  0  0  0
  6  1  1  0  0  0  0
  7  6  1  0  0  0  0
  8 12  1  0  0  0  0
  9 15  1  0  0  0  0
 10  3  1  0  0  0  0
 11  7  1  0  0  0  0
 12 11  2  0  0  0  0
 13  4  1  0  0  0  0
 14  2  2  0  0  0  0
 15  5  1  0  0  0  0
 16  4  2  0  0  0  0
 17  5  2  0  0  0  0
 18  7  2  0  0  0  0
 19  3  2  0  0  0  0
 20 22  1  0  0  0  0
 21 11  1  0  0  0  0
 22 21  2  0  0  0  0
 23 10  2  0  0  0  0
 24 19  1  0  0  0  0
 25 24  2  0  0  0  0
 10  9  1  0  0  0  0
 23 25  1  0  0  0  0
  8 20  2  0  0  0  0
M  CHG  2   4   1  13  -1
M  END
>  <IDNUMBER>
F3323-0591

>  <Chemical_Name>
4-[2-(3-nitrophenyl)-2-oxoethyl]-2,3,4,5-tetrahydro-1,4-benzoxazepine-3,5-dione

>  <PriceCoeff>
1.00

>  <CAS>
904510-66-3

>  <MW>
340.29

>  <Description>
solid

>  <FSP3>
0.12

>  <clogP>
2.45

>  <TPSA>
106.82

>  <Acceptor>
6

>  <Donor>
0

>  <RotBonds>
4

>  <HAC>
25

>  <Collection>
General

>  <PPDS>
+

$$$$
F3323-0624
  Mrv2219 10102508112D          

 25 27  0  0  0  0            999 V2000
    6.5750   -6.4542    0.0000 N   0  0  0  0  0  0  0  0  0  0  0  0
    5.7750   -6.2750    0.0000 C   0  0  0  0  0  0  0  0  0  0  0  0
    5.1292   -6.7792    0.0000 C   0  0  0  0  0  0  0  0  0  0  0  0
    7.0875   -5.8125    0.0000 C   0  0  0  0  0  0  0  0  0  0  0  0
    6.9292   -7.1917    0.0000 C   0  0  0  0  0  0  0  0  0  0  0  0
    8.4167   -5.2917    0.0000 C   0  0  0  0  0  0  0  0  0  0  0  0
    7.9042   -5.9375    0.0000 C   0  0  0  0  0  0  0  0  0  0  0  0
    5.7667   -8.1250    0.0000 O   0  0  0  0  0  0  0  0  0  0  0  0
    5.1250   -7.6042    0.0000 C   0  0  0  0  0  0  0  0  0  0  0  0
    5.5917   -5.4667    0.0000 O   0  0  0  0  0  0  0  0  0  0  0  0
    6.5667   -7.9417    0.0000 C   0  0  0  0  0  0  0  0  0  0  0  0
    9.2292   -5.4167    0.0000 C   0  0  0  0  0  0  0  0  0  0  0  0
    8.1125   -4.5292    0.0000 C   0  0  0  0  0  0  0  0  0  0  0  0
    7.7542   -7.1917    0.0000 O   0  0  0  0  0  0  0  0  0  0  0  0
    8.2042   -6.7042    0.0000 O   0  0  0  0  0  0  0  0  0  0  0  0
    9.7417   -4.7750    0.0000 C   0  0  0  0  0  0  0  0  0  0  0  0
    8.6250   -3.8792    0.0000 C   0  0  0  0  0  0  0  0  0  0  0  0
    4.4125   -6.3667    0.0000 C   0  0  0  0  0  0  0  0  0  0  0  0
    9.4417   -4.0042    0.0000 C   0  0  0  0  0  0  0  0  0  0  0  0
    9.5292   -6.1792    0.0000 O   0  0  0  0  0  0  0  0  0  0  0  0
    4.4125   -8.0250    0.0000 C   0  0  0  0  0  0  0  0  0  0  0  0
    8.3167   -3.1167    0.0000 C   0  0  0  0  0  0  0  0  0  0  0  0
   10.3417   -6.3042    0.0000 C   0  0  0  0  0  0  0  0  0  0  0  0
    3.7000   -6.7875    0.0000 C   0  0  0  0  0  0  0  0  0  0  0  0
    3.7000   -7.6125    0.0000 C   0  0  0  0  0  0  0  0  0  0  0  0
  2  1  1  0  0  0  0
  3  2  1  0  0  0  0
  4  1  1  0  0  0  0
  5  1  1  0  0  0  0
  6  7  1  0  0  0  0
  7  4  1  0  0  0  0
  8 11  1  0  0  0  0
  9  3  1  0  0  0  0
 10  2  2  0  0  0  0
 11  5  1  0  0  0  0
 12  6  2  0  0  0  0
 13  6  1  0  0  0  0
 14  5  2  0  0  0  0
 15  7  2  0  0  0  0
 16 12  1  0  0  0  0
 17 13  2  0  0  0  0
 18  3  2  0  0  0  0
 19 17  1  0  0  0  0
 20 12  1  0  0  0  0
 21  9  2  0  0  0  0
 22 17  1  0  0  0  0
 23 20  1  0  0  0  0
 24 18  1  0  0  0  0
 25 24  2  0  0  0  0
  9  8  1  0  0  0  0
 21 25  1  0  0  0  0
 16 19  2  0  0  0  0
M  END
>  <IDNUMBER>
F3323-0624

>  <Chemical_Name>
4-[2-(2-methoxy-5-methylphenyl)-2-oxoethyl]-2,3,4,5-tetrahydro-1,4-benzoxazepine-3,5-dione

>  <PriceCoeff>
1.00

>  <CAS>
903186-56-1

>  <MW>
339.34

>  <Description>
solid

>  <FSP3>
0.21

>  <clogP>
3.26

>  <TPSA>
72.91

>  <Acceptor>
5

>  <Donor>
0

>  <RotBonds>
4

>  <HAC>
25

>  <Collection>
General

>  <PPDS>
+

$$$$
F3323-0626
  Mrv2219 10102508112D          

 27 29  0  0  0  0            999 V2000
    6.5750   -6.4542    0.0000 N   0  0  0  0  0  0  0  0  0  0  0  0
    5.7750   -6.2750    0.0000 C   0  0  0  0  0  0  0  0  0  0  0  0
   10.5625   -4.8917    0.0000 N   0  3  0  0  0  0  0  0  0  0  0  0
    9.7417   -4.7750    0.0000 C   0  0  0  0  0  0  0  0  0  0  0  0
    5.1292   -6.7792    0.0000 C   0  0  0  0  0  0  0  0  0  0  0  0
    6.9292   -7.1917    0.0000 C   0  0  0  0  0  0  0  0  0  0  0  0
    7.0875   -5.8125    0.0000 C   0  0  0  0  0  0  0  0  0  0  0  0
    9.2292   -5.4167    0.0000 C   0  0  0  0  0  0  0  0  0  0  0  0
    7.9042   -5.9375    0.0000 C   0  0  0  0  0  0  0  0  0  0  0  0
    5.7667   -8.1250    0.0000 O   0  0  0  0  0  0  0  0  0  0  0  0
    8.4167   -5.2917    0.0000 C   0  0  0  0  0  0  0  0  0  0  0  0
    5.1250   -7.6042    0.0000 C   0  0  0  0  0  0  0  0  0  0  0  0
    9.4417   -4.0042    0.0000 C   0  0  0  0  0  0  0  0  0  0  0  0
   10.8625   -5.6667    0.0000 O   0  5  0  0  0  0  0  0  0  0  0  0
    5.5917   -5.4667    0.0000 O   0  0  0  0  0  0  0  0  0  0  0  0
    6.5667   -7.9417    0.0000 C   0  0  0  0  0  0  0  0  0  0  0  0
   11.0792   -4.2542    0.0000 O   0  0  0  0  0  0  0  0  0  0  0  0
    7.7542   -7.1917    0.0000 O   0  0  0  0  0  0  0  0  0  0  0  0
    8.2042   -6.7042    0.0000 O   0  0  0  0  0  0  0  0  0  0  0  0
    8.1125   -4.5292    0.0000 C   0  0  0  0  0  0  0  0  0  0  0  0
    8.6250   -3.8792    0.0000 C   0  0  0  0  0  0  0  0  0  0  0  0
    4.4125   -6.3667    0.0000 C   0  0  0  0  0  0  0  0  0  0  0  0
    9.9542   -3.3667    0.0000 O   0  0  0  0  0  0  0  0  0  0  0  0
    4.4125   -8.0250    0.0000 C   0  0  0  0  0  0  0  0  0  0  0  0
    9.6542   -2.5917    0.0000 C   0  0  0  0  0  0  0  0  0  0  0  0
    3.7000   -6.7875    0.0000 C   0  0  0  0  0  0  0  0  0  0  0  0
    3.7000   -7.6125    0.0000 C   0  0  0  0  0  0  0  0  0  0  0  0
  2  1  1  0  0  0  0
  3  4  1  0  0  0  0
  4  8  1  0  0  0  0
  5  2  1  0  0  0  0
  6  1  1  0  0  0  0
  7  1  1  0  0  0  0
  8 11  2  0  0  0  0
  9  7  1  0  0  0  0
 10 16  1  0  0  0  0
 11  9  1  0  0  0  0
 12  5  1  0  0  0  0
 13 21  1  0  0  0  0
 14  3  1  0  0  0  0
 15  2  2  0  0  0  0
 16  6  1  0  0  0  0
 17  3  2  0  0  0  0
 18  6  2  0  0  0  0
 19  9  2  0  0  0  0
 20 11  1  0  0  0  0
 21 20  2  0  0  0  0
 22  5  2  0  0  0  0
 23 13  1  0  0  0  0
 24 12  2  0  0  0  0
 25 23  1  0  0  0  0
 26 22  1  0  0  0  0
 27 26  2  0  0  0  0
 12 10  1  0  0  0  0
 24 27  1  0  0  0  0
  4 13  2  0  0  0  0
M  CHG  2   3   1  14  -1
M  END
>  <IDNUMBER>
F3323-0626

>  <Chemical_Name>
4-[2-(4-methoxy-3-nitrophenyl)-2-oxoethyl]-2,3,4,5-tetrahydro-1,4-benzoxazepine-3,5-dione

>  <PriceCoeff>
1.00

>  <CAS>
903854-89-7

>  <MW>
370.31

>  <Description>
solid

>  <FSP3>
0.17

>  <clogP>
2.38

>  <TPSA>
116.05

>  <Acceptor>
7

>  <Donor>
0

>  <RotBonds>
5

>  <HAC>
27

>  <Collection>
General

>  <PPDS>
+

$$$$
F3323-0630
  Mrv2219 10102508112D          

 26 28  0  0  0  0            999 V2000
    6.5750   -6.4542    0.0000 N   0  0  0  0  0  0  0  0  0  0  0  0
    5.7750   -6.2750    0.0000 C   0  0  0  0  0  0  0  0  0  0  0  0
    5.1292   -6.7792    0.0000 C   0  0  0  0  0  0  0  0  0  0  0  0
    6.9292   -7.1917    0.0000 C   0  0  0  0  0  0  0  0  0  0  0  0
    7.0875   -5.8125    0.0000 C   0  0  0  0  0  0  0  0  0  0  0  0
    7.9042   -5.9375    0.0000 C   0  0  0  0  0  0  0  0  0  0  0  0
    5.7667   -8.1250    0.0000 O   0  0  0  0  0  0  0  0  0  0  0  0
    8.4167   -5.2917    0.0000 C   0  0  0  0  0  0  0  0  0  0  0  0
    5.1250   -7.6042    0.0000 C   0  0  0  0  0  0  0  0  0  0  0  0
    9.7417   -4.7750    0.0000 C   0  0  0  0  0  0  0  0  0  0  0  0
    9.2292   -5.4167    0.0000 C   0  0  0  0  0  0  0  0  0  0  0  0
    5.5917   -5.4667    0.0000 O   0  0  0  0  0  0  0  0  0  0  0  0
    6.5667   -7.9417    0.0000 C   0  0  0  0  0  0  0  0  0  0  0  0
    9.4417   -4.0042    0.0000 C   0  0  0  0  0  0  0  0  0  0  0  0
    7.7542   -7.1917    0.0000 O   0  0  0  0  0  0  0  0  0  0  0  0
    8.2042   -6.7042    0.0000 O   0  0  0  0  0  0  0  0  0  0  0  0
    8.1125   -4.5292    0.0000 C   0  0  0  0  0  0  0  0  0  0  0  0
    8.6250   -3.8792    0.0000 C   0  0  0  0  0  0  0  0  0  0  0  0
   10.5625   -4.9000    0.0000 F   0  0  0  0  0  0  0  0  0  0  0  0
    4.4125   -6.3667    0.0000 C   0  0  0  0  0  0  0  0  0  0  0  0
    9.9542   -3.3667    0.0000 O   0  0  0  0  0  0  0  0  0  0  0  0
    4.4125   -8.0250    0.0000 C   0  0  0  0  0  0  0  0  0  0  0  0
    9.6542   -2.5917    0.0000 C   0  0  0  0  0  0  0  0  0  0  0  0
    3.7000   -6.7875    0.0000 C   0  0  0  0  0  0  0  0  0  0  0  0
    8.8375   -2.4750    0.0000 C   0  0  0  0  0  0  0  0  0  0  0  0
    3.7000   -7.6125    0.0000 C   0  0  0  0  0  0  0  0  0  0  0  0
  2  1  1  0  0  0  0
  3  2  1  0  0  0  0
  4  1  1  0  0  0  0
  5  1  1  0  0  0  0
  6  5  1  0  0  0  0
  7 13  1  0  0  0  0
  8  6  1  0  0  0  0
  9  3  1  0  0  0  0
 10 11  1  0  0  0  0
 11  8  2  0  0  0  0
 12  2  2  0  0  0  0
 13  4  1  0  0  0  0
 14 18  1  0  0  0  0
 15  4  2  0  0  0  0
 16  6  2  0  0  0  0
 17  8  1  0  0  0  0
 18 17  2  0  0  0  0
 19 10  1  0  0  0  0
 20  3  2  0  0  0  0
 21 14  1  0  0  0  0
 22  9  2  0  0  0  0
 23 21  1  0  0  0  0
 24 20  1  0  0  0  0
 25 23  1  0  0  0  0
 26 24  2  0  0  0  0
  9  7  1  0  0  0  0
 22 26  1  0  0  0  0
 10 14  2  0  0  0  0
M  END
>  <IDNUMBER>
F3323-0630

>  <Chemical_Name>
4-[2-(4-ethoxy-3-fluorophenyl)-2-oxoethyl]-2,3,4,5-tetrahydro-1,4-benzoxazepine-3,5-dione

>  <PriceCoeff>
1.00

>  <CAS>
903196-83-8

>  <MW>
357.33

>  <Description>
solid

>  <FSP3>
0.21

>  <clogP>
3.28

>  <TPSA>
72.91

>  <Acceptor>
5

>  <Donor>
0

>  <RotBonds>
5

>  <HAC>
26

>  <Collection>
General

>  <PPDS>
+

$$$$
F3323-0631
  Mrv2219 10102508112D          

 25 27  0  0  0  0            999 V2000
    6.5750   -6.4542    0.0000 N   0  0  0  0  0  0  0  0  0  0  0  0
    5.7750   -6.2750    0.0000 C   0  0  0  0  0  0  0  0  0  0  0  0
    5.1292   -6.7792    0.0000 C   0  0  0  0  0  0  0  0  0  0  0  0
    6.9292   -7.1917    0.0000 C   0  0  0  0  0  0  0  0  0  0  0  0
    7.0875   -5.8125    0.0000 C   0  0  0  0  0  0  0  0  0  0  0  0
    7.9042   -5.9375    0.0000 C   0  0  0  0  0  0  0  0  0  0  0  0
    5.7667   -8.1250    0.0000 O   0  0  0  0  0  0  0  0  0  0  0  0
    8.4167   -5.2917    0.0000 C   0  0  0  0  0  0  0  0  0  0  0  0
    5.1250   -7.6042    0.0000 C   0  0  0  0  0  0  0  0  0  0  0  0
    9.7417   -4.7750    0.0000 C   0  0  0  0  0  0  0  0  0  0  0  0
    9.2292   -5.4167    0.0000 C   0  0  0  0  0  0  0  0  0  0  0  0
    5.5917   -5.4667    0.0000 O   0  0  0  0  0  0  0  0  0  0  0  0
    6.5667   -7.9417    0.0000 C   0  0  0  0  0  0  0  0  0  0  0  0
    9.4417   -4.0042    0.0000 C   0  0  0  0  0  0  0  0  0  0  0  0
    7.7542   -7.1917    0.0000 O   0  0  0  0  0  0  0  0  0  0  0  0
    8.2042   -6.7042    0.0000 O   0  0  0  0  0  0  0  0  0  0  0  0
    8.1125   -4.5292    0.0000 C   0  0  0  0  0  0  0  0  0  0  0  0
    8.6250   -3.8792    0.0000 C   0  0  0  0  0  0  0  0  0  0  0  0
   10.5625   -4.9000    0.0000 F   0  0  0  0  0  0  0  0  0  0  0  0
    4.4125   -6.3667    0.0000 C   0  0  0  0  0  0  0  0  0  0  0  0
    9.9542   -3.3667    0.0000 O   0  0  0  0  0  0  0  0  0  0  0  0
    4.4125   -8.0250    0.0000 C   0  0  0  0  0  0  0  0  0  0  0  0
    9.6542   -2.5917    0.0000 C   0  0  0  0  0  0  0  0  0  0  0  0
    3.7000   -6.7875    0.0000 C   0  0  0  0  0  0  0  0  0  0  0  0
    3.7000   -7.6125    0.0000 C   0  0  0  0  0  0  0  0  0  0  0  0
  2  1  1  0  0  0  0
  3  2  1  0  0  0  0
  4  1  1  0  0  0  0
  5  1  1  0  0  0  0
  6  5  1  0  0  0  0
  7 13  1  0  0  0  0
  8  6  1  0  0  0  0
  9  3  1  0  0  0  0
 10 11  1  0  0  0  0
 11  8  2  0  0  0  0
 12  2  2  0  0  0  0
 13  4  1  0  0  0  0
 14 18  1  0  0  0  0
 15  4  2  0  0  0  0
 16  6  2  0  0  0  0
 17  8  1  0  0  0  0
 18 17  2  0  0  0  0
 19 10  1  0  0  0  0
 20  3  2  0  0  0  0
 21 14  1  0  0  0  0
 22  9  2  0  0  0  0
 23 21  1  0  0  0  0
 24 20  1  0  0  0  0
 25 24  2  0  0  0  0
  9  7  1  0  0  0  0
 22 25  1  0  0  0  0
 10 14  2  0  0  0  0
M  END
>  <IDNUMBER>
F3323-0631

>  <Chemical_Name>
4-[2-(3-fluoro-4-methoxyphenyl)-2-oxoethyl]-2,3,4,5-tetrahydro-1,4-benzoxazepine-3,5-dione

>  <PriceCoeff>
1.00

>  <CAS>
898642-69-8

>  <MW>
343.31

>  <Description>
solid

>  <FSP3>
0.17

>  <clogP>
2.75

>  <TPSA>
72.91

>  <Acceptor>
5

>  <Donor>
0

>  <RotBonds>
4

>  <HAC>
25

>  <Collection>
General

>  <PPDS>
+

$$$$
F3323-0632
  Mrv2219 10102508112D          

 26 28  0  0  0  0            999 V2000
    6.5750   -6.4542    0.0000 N   0  0  0  0  0  0  0  0  0  0  0  0
    5.7750   -6.2750    0.0000 C   0  0  0  0  0  0  0  0  0  0  0  0
    5.1292   -6.7792    0.0000 C   0  0  0  0  0  0  0  0  0  0  0  0
    7.0875   -5.8125    0.0000 C   0  0  0  0  0  0  0  0  0  0  0  0
    6.9292   -7.1917    0.0000 C   0  0  0  0  0  0  0  0  0  0  0  0
    8.4167   -5.2917    0.0000 C   0  0  0  0  0  0  0  0  0  0  0  0
    7.9042   -5.9375    0.0000 C   0  0  0  0  0  0  0  0  0  0  0  0
    5.7667   -8.1250    0.0000 O   0  0  0  0  0  0  0  0  0  0  0  0
    5.1250   -7.6042    0.0000 C   0  0  0  0  0  0  0  0  0  0  0  0
    5.5917   -5.4667    0.0000 O   0  0  0  0  0  0  0  0  0  0  0  0
    6.5667   -7.9417    0.0000 C   0  0  0  0  0  0  0  0  0  0  0  0
    9.2292   -5.4167    0.0000 C   0  0  0  0  0  0  0  0  0  0  0  0
    8.1125   -4.5292    0.0000 C   0  0  0  0  0  0  0  0  0  0  0  0
    7.7542   -7.1917    0.0000 O   0  0  0  0  0  0  0  0  0  0  0  0
    8.2042   -6.7042    0.0000 O   0  0  0  0  0  0  0  0  0  0  0  0
    9.7417   -4.7750    0.0000 C   0  0  0  0  0  0  0  0  0  0  0  0
    8.6250   -3.8792    0.0000 C   0  0  0  0  0  0  0  0  0  0  0  0
    4.4125   -6.3667    0.0000 C   0  0  0  0  0  0  0  0  0  0  0  0
    9.4417   -4.0042    0.0000 C   0  0  0  0  0  0  0  0  0  0  0  0
    8.3250   -3.1125    0.0000 F   0  0  0  0  0  0  0  0  0  0  0  0
    9.5292   -6.1792    0.0000 O   0  0  0  0  0  0  0  0  0  0  0  0
    4.4125   -8.0250    0.0000 C   0  0  0  0  0  0  0  0  0  0  0  0
   10.3417   -6.3042    0.0000 C   0  0  0  0  0  0  0  0  0  0  0  0
    3.7000   -6.7875    0.0000 C   0  0  0  0  0  0  0  0  0  0  0  0
   10.8625   -5.6667    0.0000 C   0  0  0  0  0  0  0  0  0  0  0  0
    3.7000   -7.6125    0.0000 C   0  0  0  0  0  0  0  0  0  0  0  0
  2  1  1  0  0  0  0
  3  2  1  0  0  0  0
  4  1  1  0  0  0  0
  5  1  1  0  0  0  0
  6  7  1  0  0  0  0
  7  4  1  0  0  0  0
  8 11  1  0  0  0  0
  9  3  1  0  0  0  0
 10  2  2  0  0  0  0
 11  5  1  0  0  0  0
 12  6  2  0  0  0  0
 13  6  1  0  0  0  0
 14  5  2  0  0  0  0
 15  7  2  0  0  0  0
 16 12  1  0  0  0  0
 17 13  2  0  0  0  0
 18  3  2  0  0  0  0
 19 17  1  0  0  0  0
 20 17  1  0  0  0  0
 21 12  1  0  0  0  0
 22  9  2  0  0  0  0
 23 21  1  0  0  0  0
 24 18  1  0  0  0  0
 25 23  1  0  0  0  0
 26 24  2  0  0  0  0
  9  8  1  0  0  0  0
 22 26  1  0  0  0  0
 16 19  2  0  0  0  0
M  END
>  <IDNUMBER>
F3323-0632

>  <Chemical_Name>
4-[2-(2-ethoxy-5-fluorophenyl)-2-oxoethyl]-2,3,4,5-tetrahydro-1,4-benzoxazepine-3,5-dione

>  <PriceCoeff>
1.00

>  <CAS>
903858-01-5

>  <MW>
357.33

>  <Description>
solid

>  <FSP3>
0.21

>  <clogP>
3.48

>  <TPSA>
72.91

>  <Acceptor>
5

>  <Donor>
0

>  <RotBonds>
5

>  <HAC>
26

>  <Collection>
General

>  <PPDS>
+

$$$$
F3325-0002
  Mrv2219 10102508112D          

 22 24  0  0  0  0            999 V2000
    3.7119   -1.6659    0.0000 N   0  0  0  0  0  0  0  0  0  0  0  0
    4.2004   -0.9938    0.0000 C   0  0  0  0  0  0  0  0  0  0  0  0
    4.1962   -2.3340    0.0000 C   0  0  0  0  0  0  0  0  0  0  0  0
    4.9770   -2.0835    0.0000 C   0  0  0  0  0  0  0  0  0  0  0  0
    4.9853   -1.2526    0.0000 C   0  0  0  0  0  0  0  0  0  0  0  0
    5.6910   -2.4969    0.0000 N   0  0  0  0  0  0  0  0  0  0  0  0
    2.8852   -1.6659    0.0000 C   0  0  0  0  0  0  0  0  0  0  0  0
    3.9373   -0.2046    0.0000 O   0  0  0  0  0  0  0  0  0  0  0  0
    3.9373   -3.1190    0.0000 O   0  0  0  0  0  0  0  0  0  0  0  0
    2.4718   -2.3716    0.0000 C   0  0  0  0  0  0  0  0  0  0  0  0
    2.4718   -0.9520    0.0000 C   0  0  0  0  0  0  0  0  0  0  0  0
    6.4133   -2.0835    0.0000 C   0  0  0  0  0  0  0  0  0  0  0  0
    7.8412   -1.2568    0.0000 C   0  0  0  0  0  0  0  0  0  0  0  0
    1.2526   -1.6576    0.0000 C   0  0  0  0  0  0  0  0  0  0  0  0
    1.6576   -2.3716    0.0000 C   0  0  0  0  0  0  0  0  0  0  0  0
    1.6576   -0.9520    0.0000 C   0  0  0  0  0  0  0  0  0  0  0  0
    8.5594   -0.8434    0.0000 F   0  0  0  0  0  0  0  0  0  0  0  0
    6.4175   -1.2568    0.0000 C   0  0  0  0  0  0  0  0  0  0  0  0
    7.1272   -2.4969    0.0000 C   0  0  0  0  0  0  0  0  0  0  0  0
    7.1314   -0.8434    0.0000 C   0  0  0  0  0  0  0  0  0  0  0  0
    7.8412   -2.0835    0.0000 C   0  0  0  0  0  0  0  0  0  0  0  0
    0.4259   -1.6534    0.0000 O   0  0  0  0  0  0  0  0  0  0  0  0
  2  1  1  0  0  0  0
  3  1  1  0  0  0  0
  4  3  1  0  0  0  0
  5  2  1  0  0  0  0
  6  4  1  0  0  0  0
  7  1  1  0  0  0  0
  8  2  2  0  0  0  0
  9  3  2  0  0  0  0
 10  7  2  0  0  0  0
 11  7  1  0  0  0  0
 12  6  1  0  0  0  0
 13 21  1  0  0  0  0
 14 16  1  0  0  0  0
 15 10  1  0  0  0  0
 16 11  2  0  0  0  0
 17 13  1  0  0  0  0
 18 12  2  0  0  0  0
 19 12  1  0  0  0  0
 20 18  1  0  0  0  0
 21 19  2  0  0  0  0
 22 14  1  0  0  0  0
  5  4  1  0  0  0  0
 14 15  2  0  0  0  0
 13 20  2  0  0  0  0
M  END
>  <IDNUMBER>
F3325-0002

>  <Chemical_Name>
3-[(4-fluorophenyl)amino]-1-(4-hydroxyphenyl)pyrrolidine-2,5-dione

>  <PriceCoeff>
1.00

>  <MW>
300.28

>  <Description>
solid

>  <FSP3>
0.12

>  <clogP>
2.26

>  <TPSA>
69.64

>  <Acceptor>
4

>  <Donor>
2

>  <RotBonds>
3

>  <HAC>
22

>  <Collection>
General

$$$$
F3325-0009
  Mrv2219 10102508112D          

 27 29  0  0  0  0            999 V2000
    3.8477   -1.5207    0.0000 N   0  0  0  0  0  0  0  0  0  0  0  0
    4.3281   -2.1933    0.0000 C   0  0  0  0  0  0  0  0  0  0  0  0
    4.3364   -0.8565    0.0000 C   0  0  0  0  0  0  0  0  0  0  0  0
    5.1177   -1.9343    0.0000 C   0  0  0  0  0  0  0  0  0  0  0  0
    5.1177   -1.1071    0.0000 C   0  0  0  0  0  0  0  0  0  0  0  0
    7.7830   -3.8895    0.0000 C   0  0  0  0  0  0  0  0  0  0  0  0
    7.1188   -3.4007    0.0000 N   0  0  0  0  0  0  0  0  0  0  0  0
    5.7903   -2.4231    0.0000 N   0  0  0  0  0  0  0  0  0  0  0  0
    3.0247   -1.5207    0.0000 C   0  0  0  0  0  0  0  0  0  0  0  0
    8.5392   -3.5636    0.0000 O   0  0  0  0  0  0  0  0  0  0  0  0
    4.0775   -2.9746    0.0000 O   0  0  0  0  0  0  0  0  0  0  0  0
    4.0775   -0.0669    0.0000 O   0  0  0  0  0  0  0  0  0  0  0  0
    7.6870   -4.7124    0.0000 O   0  0  0  0  0  0  0  0  0  0  0  0
    7.2107   -2.5818    0.0000 C   0  0  0  0  0  0  0  0  0  0  0  0
    6.3585   -3.7349    0.0000 C   0  0  0  0  0  0  0  0  0  0  0  0
    6.5423   -2.0847    0.0000 C   0  0  0  0  0  0  0  0  0  0  0  0
    5.6942   -3.2461    0.0000 C   0  0  0  0  0  0  0  0  0  0  0  0
    9.2035   -4.0524    0.0000 C   0  0  0  0  0  0  0  0  0  0  0  0
    2.6194   -0.8063    0.0000 C   0  0  0  0  0  0  0  0  0  0  0  0
    2.6111   -2.2351    0.0000 C   0  0  0  0  0  0  0  0  0  0  0  0
    1.3786   -1.5165    0.0000 C   0  0  0  0  0  0  0  0  0  0  0  0
    1.7839   -2.2351    0.0000 C   0  0  0  0  0  0  0  0  0  0  0  0
    1.7922   -0.8063    0.0000 C   0  0  0  0  0  0  0  0  0  0  0  0
    0.5515   -1.5082    0.0000 O   0  0  0  0  0  0  0  0  0  0  0  0
    9.1032   -4.8670    0.0000 C   0  0  0  0  0  0  0  0  0  0  0  0
    9.9555   -3.7223    0.0000 C   0  0  0  0  0  0  0  0  0  0  0  0
    9.9179   -4.4660    0.0000 C   0  0  0  0  0  0  0  0  0  0  0  0
  2  1  1  0  0  0  0
  3  1  1  0  0  0  0
  4  2  1  0  0  0  0
  5  3  1  0  0  0  0
  6  7  1  0  0  0  0
  7 15  1  0  0  0  0
  8  4  1  0  0  0  0
  9  1  1  0  0  0  0
 10  6  1  0  0  0  0
 11  2  2  0  0  0  0
 12  3  2  0  0  0  0
 13  6  2  0  0  0  0
 14 16  1  0  0  0  0
 15 17  1  0  0  0  0
 16  8  1  0  0  0  0
 17  8  1  0  0  0  0
 18 10  1  0  0  0  0
 19  9  1  0  0  0  0
 20  9  2  0  0  0  0
 21 22  2  0  0  0  0
 22 20  1  0  0  0  0
 23 19  2  0  0  0  0
 24 21  1  0  0  0  0
 25 18  1  0  0  0  0
 26 18  1  0  0  0  0
 27 18  1  0  0  0  0
  4  5  1  0  0  0  0
 23 21  1  0  0  0  0
 14  7  1  0  0  0  0
M  END
>  <IDNUMBER>
F3325-0009

>  <Chemical_Name>
tert-butyl 4-[1-(4-hydroxyphenyl)-2,5-dioxopyrrolidin-3-yl]piperazine-1-carboxylate

>  <PriceCoeff>
1.00

>  <CAS>
881484-37-3

>  <MW>
375.42

>  <Description>
solid

>  <FSP3>
0.53

>  <clogP>
2.42

>  <TPSA>
90.39

>  <Acceptor>
5

>  <Donor>
2

>  <RotBonds>
4

>  <HAC>
27

>  <Collection>
General

>  <PPDS>
+

$$$$
F3325-0010
  Mrv2219 10102508112D          

 28 30  0  0  0  0            999 V2000
    3.7292   -1.9917    0.0000 N   0  0  0  0  0  0  0  0  0  0  0  0
    4.2125   -2.6542    0.0000 C   0  0  0  0  0  0  0  0  0  0  0  0
    4.2167   -1.3250    0.0000 C   0  0  0  0  0  0  0  0  0  0  0  0
    5.0000   -2.4042    0.0000 C   0  0  0  0  0  0  0  0  0  0  0  0
    5.0000   -1.5792    0.0000 C   0  0  0  0  0  0  0  0  0  0  0  0
    7.6542   -4.3542    0.0000 C   0  0  0  0  0  0  0  0  0  0  0  0
    6.9917   -3.8667    0.0000 N   0  0  0  0  0  0  0  0  0  0  0  0
    5.6667   -2.8875    0.0000 N   0  0  0  0  0  0  0  0  0  0  0  0
    2.9042   -1.9917    0.0000 C   0  0  0  0  0  0  0  0  0  0  0  0
    8.4042   -4.0250    0.0000 O   0  0  0  0  0  0  0  0  0  0  0  0
    3.9542   -3.4417    0.0000 O   0  0  0  0  0  0  0  0  0  0  0  0
    3.9625   -0.5375    0.0000 O   0  0  0  0  0  0  0  0  0  0  0  0
    7.5542   -5.1667    0.0000 O   0  0  0  0  0  0  0  0  0  0  0  0
    7.0792   -3.0417    0.0000 C   0  0  0  0  0  0  0  0  0  0  0  0
    6.2375   -4.1917    0.0000 C   0  0  0  0  0  0  0  0  0  0  0  0
    6.4167   -2.5542    0.0000 C   0  0  0  0  0  0  0  0  0  0  0  0
    5.5750   -3.7042    0.0000 C   0  0  0  0  0  0  0  0  0  0  0  0
    2.5042   -1.2792    0.0000 C   0  0  0  0  0  0  0  0  0  0  0  0
    9.0667   -4.5042    0.0000 C   0  0  0  0  0  0  0  0  0  0  0  0
    2.9167   -0.5667    0.0000 O   0  0  0  0  0  0  0  0  0  0  0  0
    2.5000   -2.7000    0.0000 C   0  0  0  0  0  0  0  0  0  0  0  0
    9.8250   -4.1792    0.0000 C   0  0  0  0  0  0  0  0  0  0  0  0
    9.7792   -4.9250    0.0000 C   0  0  0  0  0  0  0  0  0  0  0  0
    8.9750   -5.3292    0.0000 C   0  0  0  0  0  0  0  0  0  0  0  0
    1.6792   -1.2750    0.0000 C   0  0  0  0  0  0  0  0  0  0  0  0
    2.5042    0.1500    0.0000 C   0  0  0  0  0  0  0  0  0  0  0  0
    1.6667   -2.7000    0.0000 C   0  0  0  0  0  0  0  0  0  0  0  0
    1.2625   -1.9792    0.0000 C   0  0  0  0  0  0  0  0  0  0  0  0
  2  1  1  0  0  0  0
  3  1  1  0  0  0  0
  4  2  1  0  0  0  0
  5  3  1  0  0  0  0
  6  7  1  0  0  0  0
  7 15  1  0  0  0  0
  8  4  1  0  0  0  0
  9  1  1  0  0  0  0
 10  6  1  0  0  0  0
 11  2  2  0  0  0  0
 12  3  2  0  0  0  0
 13  6  2  0  0  0  0
 14 16  1  0  0  0  0
 15 17  1  0  0  0  0
 16  8  1  0  0  0  0
 17  8  1  0  0  0  0
 18  9  1  0  0  0  0
 19 10  1  0  0  0  0
 20 18  1  0  0  0  0
 21  9  2  0  0  0  0
 22 19  1  0  0  0  0
 23 19  1  0  0  0  0
 24 19  1  0  0  0  0
 25 18  2  0  0  0  0
 26 20  1  0  0  0  0
 27 21  1  0  0  0  0
 28 27  2  0  0  0  0
  4  5  1  0  0  0  0
 25 28  1  0  0  0  0
 14  7  1  0  0  0  0
M  END
>  <IDNUMBER>
F3325-0010

>  <Chemical_Name>
tert-butyl 4-[1-(2-methoxyphenyl)-2,5-dioxopyrrolidin-3-yl]piperazine-1-carboxylate

>  <PriceCoeff>
1.00

>  <CAS>
881484-25-9

>  <MW>
389.45

>  <Description>
solid

>  <FSP3>
0.55

>  <clogP>
3.21

>  <TPSA>
79.39

>  <Acceptor>
5

>  <Donor>
1

>  <RotBonds>
5

>  <HAC>
28

>  <Collection>
General

>  <PPDS>
+

$$$$
F3325-0013
  Mrv2219 10102508112D          

 18 19  0  0  0  0            999 V2000
   -0.4881   -1.8063    0.0000 N   0  0  0  0  0  0  0  0  0  0  0  0
   -0.0333   -2.4946    0.0000 C   0  0  0  0  0  0  0  0  0  0  0  0
    0.0292   -1.1555    0.0000 C   0  0  0  0  0  0  0  0  0  0  0  0
    0.7633   -2.2776    0.0000 C   0  0  0  0  0  0  0  0  0  0  0  0
    0.8009   -1.4559    0.0000 C   0  0  0  0  0  0  0  0  0  0  0  0
    1.4058   -2.7949    0.0000 N   0  0  0  0  0  0  0  0  0  0  0  0
    2.6823   -3.8294    0.0000 N   0  0  0  0  0  0  0  0  0  0  0  0
   -0.3337   -3.2662    0.0000 O   0  0  0  0  0  0  0  0  0  0  0  0
   -0.1877   -0.3629    0.0000 O   0  0  0  0  0  0  0  0  0  0  0  0
    1.2765   -3.6083    0.0000 C   0  0  0  0  0  0  0  0  0  0  0  0
    2.1692   -2.4904    0.0000 C   0  0  0  0  0  0  0  0  0  0  0  0
   -1.3140   -1.7646    0.0000 C   0  0  0  0  0  0  0  0  0  0  0  0
   -1.6895   -1.0304    0.0000 C   0  0  0  0  0  0  0  0  0  0  0  0
    2.8158   -3.0077    0.0000 C   0  0  0  0  0  0  0  0  0  0  0  0
    1.9147   -4.1215    0.0000 C   0  0  0  0  0  0  0  0  0  0  0  0
   -2.5154   -0.9886    0.0000 C   0  0  0  0  0  0  0  0  0  0  0  0
    3.3288   -4.3466    0.0000 C   0  0  0  0  0  0  0  0  0  0  0  0
    4.0964   -4.0547    0.0000 C   0  0  0  0  0  0  0  0  0  0  0  0
  2  1  1  0  0  0  0
  3  1  1  0  0  0  0
  4  2  1  0  0  0  0
  5  3  1  0  0  0  0
  6  4  1  0  0  0  0
  7 14  1  0  0  0  0
  8  2  2  0  0  0  0
  9  3  2  0  0  0  0
 10  6  1  0  0  0  0
 11  6  1  0  0  0  0
 12  1  1  0  0  0  0
 13 12  1  0  0  0  0
 14 11  1  0  0  0  0
 15 10  1  0  0  0  0
 16 13  2  0  0  0  0
 17  7  1  0  0  0  0
 18 17  1  0  0  0  0
  4  5  1  0  0  0  0
 15  7  1  0  0  0  0
M  END
>  <IDNUMBER>
F3325-0013

>  <Chemical_Name>
3-(4-ethylpiperazin-1-yl)-1-(prop-2-en-1-yl)pyrrolidine-2,5-dione

>  <PriceCoeff>
1.50

>  <CAS>
881484-13-5

>  <MW>
251.32

>  <Description>
solid

>  <FSP3>
0.69

>  <clogP>
0.81

>  <TPSA>
43.86

>  <Acceptor>
4

>  <Donor>
2

>  <RotBonds>
4

>  <HAC>
18

>  <Collection>
Advanced

>  <PPDS>
+

$$$$
F3325-0016
  Mrv2219 10102508112D          

 21 23  0  0  0  0            999 V2000
    3.8368   -2.3787    0.0000 N   0  0  0  0  0  0  0  0  0  0  0  0
    4.2909   -3.0661    0.0000 C   0  0  0  0  0  0  0  0  0  0  0  0
    4.3534   -1.7372    0.0000 C   0  0  0  0  0  0  0  0  0  0  0  0
    5.0865   -2.8536    0.0000 C   0  0  0  0  0  0  0  0  0  0  0  0
    5.1240   -2.0288    0.0000 C   0  0  0  0  0  0  0  0  0  0  0  0
    5.7281   -3.3660    0.0000 N   0  0  0  0  0  0  0  0  0  0  0  0
    3.0119   -2.3412    0.0000 C   0  0  0  0  0  0  0  0  0  0  0  0
    3.9909   -3.8410    0.0000 O   0  0  0  0  0  0  0  0  0  0  0  0
    4.1367   -0.9415    0.0000 O   0  0  0  0  0  0  0  0  0  0  0  0
    2.6370   -1.6039    0.0000 C   0  0  0  0  0  0  0  0  0  0  0  0
    1.8788   -0.1417    0.0000 C   0  0  0  0  0  0  0  0  0  0  0  0
    3.0869   -0.9165    0.0000 C   0  0  0  0  0  0  0  0  0  0  0  0
    1.8163   -1.5747    0.0000 C   0  0  0  0  0  0  0  0  0  0  0  0
    1.4372   -0.8415    0.0000 C   0  0  0  0  0  0  0  0  0  0  0  0
    2.7037   -0.1792    0.0000 C   0  0  0  0  0  0  0  0  0  0  0  0
    5.5989   -4.1784    0.0000 C   0  0  0  0  0  0  0  0  0  0  0  0
    6.4904   -3.0661    0.0000 C   0  0  0  0  0  0  0  0  0  0  0  0
    1.5039    0.5874    0.0000 C   0  0  0  0  0  0  0  0  0  0  0  0
    6.2363   -4.6991    0.0000 C   0  0  0  0  0  0  0  0  0  0  0  0
    7.1361   -3.5868    0.0000 C   0  0  0  0  0  0  0  0  0  0  0  0
    7.0028   -4.4033    0.0000 C   0  0  0  0  0  0  0  0  0  0  0  0
  2  1  1  0  0  0  0
  3  1  1  0  0  0  0
  4  2  1  0  0  0  0
  5  3  1  0  0  0  0
  6  4  1  0  0  0  0
  7  1  1  0  0  0  0
  8  2  2  0  0  0  0
  9  3  2  0  0  0  0
 10  7  1  0  0  0  0
 11 14  1  0  0  0  0
 12 10  2  0  0  0  0
 13 10  1  0  0  0  0
 14 13  2  0  0  0  0
 15 12  1  0  0  0  0
 16  6  1  0  0  0  0
 17  6  1  0  0  0  0
 18 11  1  0  0  0  0
 19 16  1  0  0  0  0
 20 17  1  0  0  0  0
 21 20  1  0  0  0  0
  4  5  1  0  0  0  0
 15 11  2  0  0  0  0
 19 21  1  0  0  0  0
M  END
>  <IDNUMBER>
F3325-0016

>  <Chemical_Name>
1-[(4-methylphenyl)methyl]-3-(piperidin-1-yl)pyrrolidine-2,5-dione

>  <PriceCoeff>
1.50

>  <MW>
286.37

>  <Description>
solid

>  <FSP3>
0.53

>  <clogP>
3.65

>  <TPSA>
40.62

>  <Acceptor>
2

>  <Donor>
1

>  <RotBonds>
3

>  <HAC>
21

>  <Collection>
Advanced

$$$$
F3325-0017
  Mrv2219 10102508112D          

 25 27  0  0  0  0            999 V2000
    3.8415   -2.3817    0.0000 N   0  0  0  0  0  0  0  0  0  0  0  0
    4.2961   -3.0699    0.0000 C   0  0  0  0  0  0  0  0  0  0  0  0
    4.3587   -1.7393    0.0000 C   0  0  0  0  0  0  0  0  0  0  0  0
    5.0928   -2.8529    0.0000 C   0  0  0  0  0  0  0  0  0  0  0  0
    6.5067   -2.9197    0.0000 C   0  0  0  0  0  0  0  0  0  0  0  0
    5.1303   -2.0313    0.0000 C   0  0  0  0  0  0  0  0  0  0  0  0
    7.1866   -3.3660    0.0000 C   0  0  0  0  0  0  0  0  0  0  0  0
    5.7727   -3.2951    0.0000 S   0  0  0  0  0  0  0  0  0  0  0  0
    7.1449   -4.1918    0.0000 C   0  0  0  0  0  0  0  0  0  0  0  0
    3.0156   -2.3441    0.0000 C   0  0  0  0  0  0  0  0  0  0  0  0
    6.5485   -2.1022    0.0000 N   0  0  0  0  0  0  0  0  0  0  0  0
    3.9958   -3.8457    0.0000 O   0  0  0  0  0  0  0  0  0  0  0  0
    4.1418   -0.9427    0.0000 O   0  0  0  0  0  0  0  0  0  0  0  0
    7.8373   -4.6423    0.0000 O   0  0  0  0  0  0  0  0  0  0  0  0
    2.6402   -1.6059    0.0000 C   0  0  0  0  0  0  0  0  0  0  0  0
    6.4108   -4.5672    0.0000 O   0  0  0  0  0  0  0  0  0  0  0  0
    1.8811   -0.1418    0.0000 C   0  0  0  0  0  0  0  0  0  0  0  0
    7.9207   -2.9948    0.0000 C   0  0  0  0  0  0  0  0  0  0  0  0
    3.0907   -0.9176    0.0000 C   0  0  0  0  0  0  0  0  0  0  0  0
    1.8186   -1.5766    0.0000 C   0  0  0  0  0  0  0  0  0  0  0  0
    1.4390   -0.8426    0.0000 C   0  0  0  0  0  0  0  0  0  0  0  0
    2.7070   -0.1794    0.0000 C   0  0  0  0  0  0  0  0  0  0  0  0
    7.2742   -1.7310    0.0000 C   0  0  0  0  0  0  0  0  0  0  0  0
    1.5058    0.5881    0.0000 C   0  0  0  0  0  0  0  0  0  0  0  0
    7.9624   -2.1689    0.0000 C   0  0  0  0  0  0  0  0  0  0  0  0
  2  1  1  0  0  0  0
  3  1  1  0  0  0  0
  4  2  1  0  0  0  0
  5  8  1  0  0  0  0
  6  3  1  0  0  0  0
  7  5  1  0  0  0  0
  8  4  1  0  0  0  0
  9  7  1  0  0  0  0
 10  1  1  0  0  0  0
 11  5  2  0  0  0  0
 12  2  2  0  0  0  0
 13  3  2  0  0  0  0
 14  9  2  0  0  0  0
 15 10  1  0  0  0  0
 16  9  1  0  0  0  0
 17 21  1  0  0  0  0
 18  7  2  0  0  0  0
 19 15  2  0  0  0  0
 20 15  1  0  0  0  0
 21 20  2  0  0  0  0
 22 19  1  0  0  0  0
 23 11  1  0  0  0  0
 24 17  1  0  0  0  0
 25 23  2  0  0  0  0
  6  4  1  0  0  0  0
 22 17  2  0  0  0  0
 18 25  1  0  0  0  0
M  END
>  <IDNUMBER>
F3325-0017

>  <Chemical_Name>
2-({1-[(4-methylphenyl)methyl]-2,5-dioxopyrrolidin-3-yl}sulfanyl)pyridine-3-carboxylic acid

>  <PriceCoeff>
1.00

>  <CAS>
881483-77-8

>  <MW>
356.40

>  <Description>
solid

>  <FSP3>
0.22

>  <clogP>
2.75

>  <TPSA>
112.87

>  <Acceptor>
5

>  <Donor>
1

>  <RotBonds>
5

>  <HAC>
25

>  <Collection>
General

>  <PPDS>
+

$$$$
F3325-0021
  Mrv2219 10102508112D          

 25 27  0  0  0  0            999 V2000
    3.0856   -2.3549    0.0000 N   0  0  0  0  0  0  0  0  0  0  0  0
    3.5741   -3.0187    0.0000 C   0  0  0  0  0  0  0  0  0  0  0  0
    3.5741   -1.6827    0.0000 C   0  0  0  0  0  0  0  0  0  0  0  0
    4.3632   -2.7599    0.0000 C   0  0  0  0  0  0  0  0  0  0  0  0
    4.3632   -1.9332    0.0000 C   0  0  0  0  0  0  0  0  0  0  0  0
    5.0271   -3.2484    0.0000 N   0  0  0  0  0  0  0  0  0  0  0  0
    2.2589   -2.3549    0.0000 C   0  0  0  0  0  0  0  0  0  0  0  0
    6.3632   -4.2254    0.0000 N   0  0  0  0  0  0  0  0  0  0  0  0
    3.3194   -3.8079    0.0000 O   0  0  0  0  0  0  0  0  0  0  0  0
    3.3236   -0.8935    0.0000 O   0  0  0  0  0  0  0  0  0  0  0  0
    1.8455   -1.6409    0.0000 C   0  0  0  0  0  0  0  0  0  0  0  0
    4.9394   -4.0709    0.0000 C   0  0  0  0  0  0  0  0  0  0  0  0
    5.7787   -2.9102    0.0000 C   0  0  0  0  0  0  0  0  0  0  0  0
    6.4508   -3.4070    0.0000 C   0  0  0  0  0  0  0  0  0  0  0  0
    5.6033   -4.5594    0.0000 C   0  0  0  0  0  0  0  0  0  0  0  0
    2.2589   -0.9186    0.0000 O   0  0  0  0  0  0  0  0  0  0  0  0
    1.8455   -3.0605    0.0000 C   0  0  0  0  0  0  0  0  0  0  0  0
    7.0270   -4.7139    0.0000 C   0  0  0  0  0  0  0  0  0  0  0  0
    1.0313   -1.6409    0.0000 C   0  0  0  0  0  0  0  0  0  0  0  0
    1.8455   -0.2046    0.0000 C   0  0  0  0  0  0  0  0  0  0  0  0
    1.0188   -0.2046    0.0000 C   0  0  0  0  0  0  0  0  0  0  0  0
    0.6055    0.5094    0.0000 C   0  0  0  0  0  0  0  0  0  0  0  0
    1.0313   -3.0605    0.0000 C   0  0  0  0  0  0  0  0  0  0  0  0
   -0.2213    0.5094    0.0000 C   0  0  0  0  0  0  0  0  0  0  0  0
    0.6263   -2.3466    0.0000 C   0  0  0  0  0  0  0  0  0  0  0  0
  2  1  1  0  0  0  0
  3  1  1  0  0  0  0
  4  2  1  0  0  0  0
  5  3  1  0  0  0  0
  6  4  1  0  0  0  0
  7  1  1  0  0  0  0
  8 14  1  0  0  0  0
  9  2  2  0  0  0  0
 10  3  2  0  0  0  0
 11  7  1  0  0  0  0
 12  6  1  0  0  0  0
 13  6  1  0  0  0  0
 14 13  1  0  0  0  0
 15 12  1  0  0  0  0
 16 11  1  0  0  0  0
 17  7  2  0  0  0  0
 18  8  1  0  0  0  0
 19 11  2  0  0  0  0
 20 16  1  0  0  0  0
 21 20  1  0  0  0  0
 22 21  1  0  0  0  0
 23 17  1  0  0  0  0
 24 22  1  0  0  0  0
 25 23  2  0  0  0  0
  4  5  1  0  0  0  0
 19 25  1  0  0  0  0
 15  8  1  0  0  0  0
M  END
>  <IDNUMBER>
F3325-0021

>  <Chemical_Name>
1-(2-butoxyphenyl)-3-(4-methylpiperazin-1-yl)pyrrolidine-2,5-dione

>  <PriceCoeff>
1.00

>  <MW>
345.44

>  <Description>
solid

>  <FSP3>
0.58

>  <clogP>
1.90

>  <TPSA>
31.29

>  <Acceptor>
5

>  <Donor>
2

>  <RotBonds>
6

>  <HAC>
25

>  <Collection>
General

$$$$
F3325-0024
  Mrv2219 10102508112D          

 20 21  0  0  0  0            999 V2000
    3.2667   -2.0042    0.0000 N   0  0  0  0  0  0  0  0  0  0  0  0
    3.7500   -2.6667    0.0000 C   0  0  0  0  0  0  0  0  0  0  0  0
    3.7542   -1.3375    0.0000 C   0  0  0  0  0  0  0  0  0  0  0  0
    4.5292   -2.4167    0.0000 C   0  0  0  0  0  0  0  0  0  0  0  0
    5.9625   -2.4167    0.0000 C   0  0  0  0  0  0  0  0  0  0  0  0
    4.5375   -1.5917    0.0000 C   0  0  0  0  0  0  0  0  0  0  0  0
    6.6750   -2.8375    0.0000 C   0  0  0  0  0  0  0  0  0  0  0  0
    5.2417   -2.8292    0.0000 S   0  0  0  0  0  0  0  0  0  0  0  0
    6.6667   -3.6625    0.0000 C   0  0  0  0  0  0  0  0  0  0  0  0
    5.9667   -1.5917    0.0000 N   0  0  0  0  0  0  0  0  0  0  0  0
    3.4917   -3.4542    0.0000 O   0  0  0  0  0  0  0  0  0  0  0  0
    3.4917   -0.5500    0.0000 O   0  0  0  0  0  0  0  0  0  0  0  0
    7.3792   -4.0667    0.0000 O   0  0  0  0  0  0  0  0  0  0  0  0
    2.4417   -2.0042    0.0000 C   0  0  0  0  0  0  0  0  0  0  0  0
    2.0375   -1.2875    0.0000 C   0  0  0  0  0  0  0  0  0  0  0  0
    1.2125   -1.2875    0.0000 C   0  0  0  0  0  0  0  0  0  0  0  0
    5.9542   -4.0667    0.0000 O   0  0  0  0  0  0  0  0  0  0  0  0
    7.3875   -2.4250    0.0000 C   0  0  0  0  0  0  0  0  0  0  0  0
    6.6792   -1.1875    0.0000 C   0  0  0  0  0  0  0  0  0  0  0  0
    7.3875   -1.5917    0.0000 C   0  0  0  0  0  0  0  0  0  0  0  0
  2  1  1  0  0  0  0
  3  1  1  0  0  0  0
  4  2  1  0  0  0  0
  5  8  1  0  0  0  0
  6  3  1  0  0  0  0
  7  5  1  0  0  0  0
  8  4  1  0  0  0  0
  9  7  1  0  0  0  0
 10  5  2  0  0  0  0
 11  2  2  0  0  0  0
 12  3  2  0  0  0  0
 13  9  2  0  0  0  0
 14  1  1  0  0  0  0
 15 14  1  0  0  0  0
 16 15  2  0  0  0  0
 17  9  1  0  0  0  0
 18  7  2  0  0  0  0
 19 10  1  0  0  0  0
 20 19  2  0  0  0  0
  6  4  1  0  0  0  0
 18 20  1  0  0  0  0
M  END
>  <IDNUMBER>
F3325-0024

>  <Chemical_Name>
2-{[2,5-dioxo-1-(prop-2-en-1-yl)pyrrolidin-3-yl]sulfanyl}pyridine-3-carboxylic acid

>  <PriceCoeff>
1.00

>  <MW>
292.31

>  <Description>
solid

>  <FSP3>
0.23

>  <clogP>
1.45

>  <TPSA>
120.67

>  <Acceptor>
5

>  <Donor>
1

>  <RotBonds>
5

>  <HAC>
20

>  <Collection>
General

$$$$
F3325-0080
  Mrv2219 10102508112D          

 27 29  0  0  0  0            999 V2000
    3.4454   -1.1277    0.0000 N   0  0  0  0  0  0  0  0  0  0  0  0
    3.9613   -1.7726    0.0000 C   0  0  0  0  0  0  0  0  0  0  0  0
    3.8947   -0.4287    0.0000 C   0  0  0  0  0  0  0  0  0  0  0  0
    4.7354   -1.4772    0.0000 C   0  0  0  0  0  0  0  0  0  0  0  0
    4.6937   -0.6492    0.0000 C   0  0  0  0  0  0  0  0  0  0  0  0
    7.4816   -3.2831    0.0000 C   0  0  0  0  0  0  0  0  0  0  0  0
    6.7951   -2.8254    0.0000 N   0  0  0  0  0  0  0  0  0  0  0  0
    5.4219   -1.9224    0.0000 N   0  0  0  0  0  0  0  0  0  0  0  0
    2.6256   -1.1651    0.0000 C   0  0  0  0  0  0  0  0  0  0  0  0
    8.2182   -2.9128    0.0000 O   0  0  0  0  0  0  0  0  0  0  0  0
    3.7492   -2.5632    0.0000 O   0  0  0  0  0  0  0  0  0  0  0  0
    3.5994    0.3371    0.0000 O   0  0  0  0  0  0  0  0  0  0  0  0
    7.4400   -4.1070    0.0000 O   0  0  0  0  0  0  0  0  0  0  0  0
    6.8450   -2.0015    0.0000 C   0  0  0  0  0  0  0  0  0  0  0  0
    6.0586   -3.1999    0.0000 C   0  0  0  0  0  0  0  0  0  0  0  0
    6.1584   -1.5521    0.0000 C   0  0  0  0  0  0  0  0  0  0  0  0
    5.3719   -2.7463    0.0000 C   0  0  0  0  0  0  0  0  0  0  0  0
    8.9130   -3.3622    0.0000 C   0  0  0  0  0  0  0  0  0  0  0  0
    2.1763   -0.4661    0.0000 C   0  0  0  0  0  0  0  0  0  0  0  0
    2.2512   -1.8975    0.0000 C   0  0  0  0  0  0  0  0  0  0  0  0
    1.4273   -1.9391    0.0000 C   0  0  0  0  0  0  0  0  0  0  0  0
    1.3524   -0.5118    0.0000 C   0  0  0  0  0  0  0  0  0  0  0  0
    0.9779   -1.2483    0.0000 C   0  0  0  0  0  0  0  0  0  0  0  0
    9.6496   -2.9960    0.0000 C   0  0  0  0  0  0  0  0  0  0  0  0
    8.8631   -4.1861    0.0000 C   0  0  0  0  0  0  0  0  0  0  0  0
    9.6246   -3.7742    0.0000 C   0  0  0  0  0  0  0  0  0  0  0  0
    0.1540   -1.2900    0.0000 C   0  0  0  0  0  0  0  0  0  0  0  0
  2  1  1  0  0  0  0
  3  1  1  0  0  0  0
  4  2  1  0  0  0  0
  5  3  1  0  0  0  0
  6  7  1  0  0  0  0
  7 15  1  0  0  0  0
  8  4  1  0  0  0  0
  9  1  1  0  0  0  0
 10  6  1  0  0  0  0
 11  2  2  0  0  0  0
 12  3  2  0  0  0  0
 13  6  2  0  0  0  0
 14 16  1  0  0  0  0
 15 17  1  0  0  0  0
 16  8  1  0  0  0  0
 17  8  1  0  0  0  0
 18 10  1  0  0  0  0
 19  9  2  0  0  0  0
 20  9  1  0  0  0  0
 21 20  2  0  0  0  0
 22 19  1  0  0  0  0
 23 21  1  0  0  0  0
 24 18  1  0  0  0  0
 25 18  1  0  0  0  0
 26 18  1  0  0  0  0
 27 23  1  0  0  0  0
  4  5  1  0  0  0  0
 22 23  2  0  0  0  0
 14  7  1  0  0  0  0
M  END
>  <IDNUMBER>
F3325-0080

>  <Chemical_Name>
tert-butyl 4-[1-(4-methylphenyl)-2,5-dioxopyrrolidin-3-yl]piperazine-1-carboxylate

>  <PriceCoeff>
1.00

>  <CAS>
893762-46-4

>  <MW>
373.45

>  <Description>
solid

>  <FSP3>
0.55

>  <clogP>
3.62

>  <TPSA>
70.16

>  <Acceptor>
4

>  <Donor>
1

>  <RotBonds>
4

>  <HAC>
27

>  <Collection>
General

>  <PPDS>
+

$$$$
F3325-0095
  Mrv2219 10102508112D          

 21 22  0  0  0  0            999 V2000
    0.2502   -2.6019    0.0000 N   0  0  0  0  0  0  0  0  0  0  0  0
    0.7423   -3.2691    0.0000 C   0  0  0  0  0  0  0  0  0  0  0  0
    0.7297   -1.9306    0.0000 C   0  0  0  0  0  0  0  0  0  0  0  0
    1.5261   -3.0065    0.0000 C   0  0  0  0  0  0  0  0  0  0  0  0
    2.9439   -3.0065    0.0000 C   0  0  0  0  0  0  0  0  0  0  0  0
    1.5178   -2.1808    0.0000 C   0  0  0  0  0  0  0  0  0  0  0  0
    3.6569   -3.4193    0.0000 C   0  0  0  0  0  0  0  0  0  0  0  0
    2.2309   -3.4193    0.0000 S   0  0  0  0  0  0  0  0  0  0  0  0
    3.6569   -4.2449    0.0000 C   0  0  0  0  0  0  0  0  0  0  0  0
   -0.5712   -2.6062    0.0000 C   0  0  0  0  0  0  0  0  0  0  0  0
    2.9439   -2.1808    0.0000 N   0  0  0  0  0  0  0  0  0  0  0  0
    0.4879   -4.0530    0.0000 O   0  0  0  0  0  0  0  0  0  0  0  0
    0.4754   -1.1426    0.0000 O   0  0  0  0  0  0  0  0  0  0  0  0
    4.3700   -4.6577    0.0000 O   0  0  0  0  0  0  0  0  0  0  0  0
    2.9439   -4.6577    0.0000 O   0  0  0  0  0  0  0  0  0  0  0  0
    4.3700   -3.0065    0.0000 C   0  0  0  0  0  0  0  0  0  0  0  0
   -0.9840   -3.3192    0.0000 C   0  0  0  0  0  0  0  0  0  0  0  0
    3.6569   -1.7680    0.0000 C   0  0  0  0  0  0  0  0  0  0  0  0
    4.3700   -2.1808    0.0000 C   0  0  0  0  0  0  0  0  0  0  0  0
   -1.8097   -3.3275    0.0000 C   0  0  0  0  0  0  0  0  0  0  0  0
   -0.5712   -4.0322    0.0000 C   0  0  0  0  0  0  0  0  0  0  0  0
  2  1  1  0  0  0  0
  3  1  1  0  0  0  0
  4  2  1  0  0  0  0
  5  8  1  0  0  0  0
  6  3  1  0  0  0  0
  7  5  1  0  0  0  0
  8  4  1  0  0  0  0
  9  7  1  0  0  0  0
 10  1  1  0  0  0  0
 11  5  2  0  0  0  0
 12  2  2  0  0  0  0
 13  3  2  0  0  0  0
 14  9  2  0  0  0  0
 15  9  1  0  0  0  0
 16  7  2  0  0  0  0
 17 10  1  0  0  0  0
 18 11  1  0  0  0  0
 19 18  2  0  0  0  0
 20 17  1  0  0  0  0
 21 17  1  0  0  0  0
  4  6  1  0  0  0  0
 16 19  1  0  0  0  0
M  END
>  <IDNUMBER>
F3325-0095

>  <Chemical_Name>
2-{[1-(2-methylpropyl)-2,5-dioxopyrrolidin-3-yl]sulfanyl}pyridine-3-carboxylic acid

>  <PriceCoeff>
1.00

>  <CAS>
924865-46-3

>  <MW>
308.35

>  <Description>
solid

>  <FSP3>
0.43

>  <clogP>
2.13

>  <TPSA>
112.87

>  <Acceptor>
5

>  <Donor>
1

>  <RotBonds>
5

>  <HAC>
21

>  <Collection>
General

>  <PPDS>
+

$$$$
F3325-0099
  Mrv2219 10102508112D          

 27 30  0  0  0  0            999 V2000
    4.8786   -1.3248    0.0000 N   0  0  0  0  0  0  0  0  0  0  0  0
    5.3661   -1.9915    0.0000 C   0  0  0  0  0  0  0  0  0  0  0  0
    5.3619   -0.6541    0.0000 C   0  0  0  0  0  0  0  0  0  0  0  0
    6.1535   -1.7290    0.0000 C   0  0  0  0  0  0  0  0  0  0  0  0
    6.1410   -0.9041    0.0000 C   0  0  0  0  0  0  0  0  0  0  0  0
    4.0537   -1.3290    0.0000 C   0  0  0  0  0  0  0  0  0  0  0  0
    6.8159   -2.2122    0.0000 N   0  0  0  0  0  0  0  0  0  0  0  0
    8.1533   -3.1746    0.0000 N   0  0  0  0  0  0  0  0  0  0  0  0
    5.1161   -2.7747    0.0000 O   0  0  0  0  0  0  0  0  0  0  0  0
    8.8240   -3.6538    0.0000 C   0  0  0  0  0  0  0  0  0  0  0  0
    5.1036    0.1333    0.0000 O   0  0  0  0  0  0  0  0  0  0  0  0
    3.6413   -0.6166    0.0000 C   0  0  0  0  0  0  0  0  0  0  0  0
    7.5658   -1.8665    0.0000 C   0  0  0  0  0  0  0  0  0  0  0  0
    6.7284   -3.0289    0.0000 C   0  0  0  0  0  0  0  0  0  0  0  0
    7.3992   -3.5121    0.0000 C   0  0  0  0  0  0  0  0  0  0  0  0
    8.2366   -2.3539    0.0000 C   0  0  0  0  0  0  0  0  0  0  0  0
    8.7365   -4.4787    0.0000 C   0  0  0  0  0  0  0  0  0  0  0  0
    9.5656   -3.3163    0.0000 C   0  0  0  0  0  0  0  0  0  0  0  0
   10.1530   -4.6245    0.0000 C   0  0  0  0  0  0  0  0  0  0  0  0
    2.8164   -0.6249    0.0000 C   0  0  0  0  0  0  0  0  0  0  0  0
    9.4031   -4.9619    0.0000 C   0  0  0  0  0  0  0  0  0  0  0  0
   10.2405   -3.7996    0.0000 C   0  0  0  0  0  0  0  0  0  0  0  0
    3.6496   -2.0415    0.0000 C   0  0  0  0  0  0  0  0  0  0  0  0
   10.8238   -5.1036    0.0000 F   0  0  0  0  0  0  0  0  0  0  0  0
    2.8289   -2.0540    0.0000 C   0  0  0  0  0  0  0  0  0  0  0  0
    2.4039   -1.3415    0.0000 C   0  0  0  0  0  0  0  0  0  0  0  0
    2.3997    0.0875    0.0000 C   0  0  0  0  0  0  0  0  0  0  0  0
  2  1  1  0  0  0  0
  3  1  1  0  0  0  0
  4  2  1  0  0  0  0
  5  3  1  0  0  0  0
  6  1  1  0  0  0  0
  7  4  1  0  0  0  0
  8 15  1  0  0  0  0
  9  2  2  0  0  0  0
 10  8  1  0  0  0  0
 11  3  2  0  0  0  0
 12  6  2  0  0  0  0
 13  7  1  0  0  0  0
 14  7  1  0  0  0  0
 15 14  1  0  0  0  0
 16 13  1  0  0  0  0
 17 10  2  0  0  0  0
 18 10  1  0  0  0  0
 19 22  1  0  0  0  0
 20 12  1  0  0  0  0
 21 17  1  0  0  0  0
 22 18  2  0  0  0  0
 23  6  1  0  0  0  0
 24 19  1  0  0  0  0
 25 23  2  0  0  0  0
 26 25  1  0  0  0  0
 27 20  1  0  0  0  0
  4  5  1  0  0  0  0
 20 26  2  0  0  0  0
 16  8  1  0  0  0  0
 21 19  2  0  0  0  0
M  END
>  <IDNUMBER>
F3325-0099

>  <Chemical_Name>
3-[4-(4-fluorophenyl)piperazin-1-yl]-1-(3-methylphenyl)pyrrolidine-2,5-dione

>  <PriceCoeff>
1.00

>  <CAS>
296797-95-0

>  <MW>
367.42

>  <Description>
solid

>  <FSP3>
0.33

>  <clogP>
3.96

>  <TPSA>
43.86

>  <Acceptor>
3

>  <Donor>
2

>  <RotBonds>
3

>  <HAC>
27

>  <Collection>
General

>  <PPDS>
+

$$$$
F3325-0107
  Mrv2219 10102508112D          

 25 27  0  0  0  0            999 V2000
    4.8777   -1.3246    0.0000 N   0  0  0  0  0  0  0  0  0  0  0  0
    5.3651   -1.9911    0.0000 C   0  0  0  0  0  0  0  0  0  0  0  0
    5.3609   -0.6540    0.0000 C   0  0  0  0  0  0  0  0  0  0  0  0
    6.1523   -1.7287    0.0000 C   0  0  0  0  0  0  0  0  0  0  0  0
    6.1398   -0.9039    0.0000 C   0  0  0  0  0  0  0  0  0  0  0  0
    6.8146   -2.2118    0.0000 N   0  0  0  0  0  0  0  0  0  0  0  0
    8.1517   -3.1740    0.0000 N   0  0  0  0  0  0  0  0  0  0  0  0
    8.8223   -3.6531    0.0000 C   0  0  0  0  0  0  0  0  0  0  0  0
    5.1151   -2.7742    0.0000 O   0  0  0  0  0  0  0  0  0  0  0  0
    5.1027    0.1333    0.0000 O   0  0  0  0  0  0  0  0  0  0  0  0
    7.5644   -1.8661    0.0000 C   0  0  0  0  0  0  0  0  0  0  0  0
    6.7272   -3.0283    0.0000 C   0  0  0  0  0  0  0  0  0  0  0  0
    7.3978   -3.5114    0.0000 C   0  0  0  0  0  0  0  0  0  0  0  0
    8.2350   -2.3535    0.0000 C   0  0  0  0  0  0  0  0  0  0  0  0
    4.0530   -1.3288    0.0000 C   0  0  0  0  0  0  0  0  0  0  0  0
    9.5638   -3.3157    0.0000 C   0  0  0  0  0  0  0  0  0  0  0  0
    8.7348   -4.4778    0.0000 C   0  0  0  0  0  0  0  0  0  0  0  0
   10.1511   -4.6236    0.0000 C   0  0  0  0  0  0  0  0  0  0  0  0
    9.4013   -4.9610    0.0000 C   0  0  0  0  0  0  0  0  0  0  0  0
   10.2386   -3.7988    0.0000 C   0  0  0  0  0  0  0  0  0  0  0  0
   10.8217   -5.1027    0.0000 F   0  0  0  0  0  0  0  0  0  0  0  0
    3.6364   -0.6165    0.0000 C   0  0  0  0  0  0  0  0  0  0  0  0
    2.3910    0.0875    0.0000 O   0  0  0  0  0  0  0  0  0  0  0  0
    2.8116   -0.6165    0.0000 C   0  0  0  0  0  0  0  0  0  0  0  0
    1.5662    0.0833    0.0000 C   0  0  0  0  0  0  0  0  0  0  0  0
  2  1  1  0  0  0  0
  3  1  1  0  0  0  0
  4  2  1  0  0  0  0
  5  3  1  0  0  0  0
  6  4  1  0  0  0  0
  7 13  1  0  0  0  0
  8  7  1  0  0  0  0
  9  2  2  0  0  0  0
 10  3  2  0  0  0  0
 11  6  1  0  0  0  0
 12  6  1  0  0  0  0
 13 12  1  0  0  0  0
 14 11  1  0  0  0  0
 15  1  1  0  0  0  0
 16  8  1  0  0  0  0
 17  8  2  0  0  0  0
 18 19  2  0  0  0  0
 19 17  1  0  0  0  0
 20 16  2  0  0  0  0
 21 18  1  0  0  0  0
 22 15  1  0  0  0  0
 23 24  1  0  0  0  0
 24 22  1  0  0  0  0
 25 23  1  0  0  0  0
  4  5  1  0  0  0  0
 14  7  1  0  0  0  0
 20 18  1  0  0  0  0
M  END
>  <IDNUMBER>
F3325-0107

>  <Chemical_Name>
3-[4-(4-fluorophenyl)piperazin-1-yl]-1-(3-methoxypropyl)pyrrolidine-2,5-dione

>  <PriceCoeff>
1.50

>  <CAS>
924865-49-6

>  <MW>
349.40

>  <Description>
solid

>  <FSP3>
0.56

>  <clogP>
3.10

>  <TPSA>
53.09

>  <Acceptor>
4

>  <Donor>
2

>  <RotBonds>
6

>  <HAC>
25

>  <Collection>
Advanced

>  <PPDS>
+

$$$$
F3325-0108
  Mrv2219 10102508112D          

 27 30  0  0  0  0            999 V2000
    4.8792   -1.3250    0.0000 N   0  0  0  0  0  0  0  0  0  0  0  0
    5.3667   -1.9917    0.0000 C   0  0  0  0  0  0  0  0  0  0  0  0
    5.3625   -0.6542    0.0000 C   0  0  0  0  0  0  0  0  0  0  0  0
    6.1542   -1.7292    0.0000 C   0  0  0  0  0  0  0  0  0  0  0  0
    6.1417   -0.9042    0.0000 C   0  0  0  0  0  0  0  0  0  0  0  0
    6.8167   -2.2125    0.0000 N   0  0  0  0  0  0  0  0  0  0  0  0
    4.0542   -1.3292    0.0000 C   0  0  0  0  0  0  0  0  0  0  0  0
    8.1542   -3.1750    0.0000 N   0  0  0  0  0  0  0  0  0  0  0  0
    5.1167   -2.7750    0.0000 O   0  0  0  0  0  0  0  0  0  0  0  0
    8.8250   -3.6542    0.0000 C   0  0  0  0  0  0  0  0  0  0  0  0
    5.1042    0.1333    0.0000 O   0  0  0  0  0  0  0  0  0  0  0  0
    6.7292   -3.0292    0.0000 C   0  0  0  0  0  0  0  0  0  0  0  0
    7.5667   -1.8667    0.0000 C   0  0  0  0  0  0  0  0  0  0  0  0
    8.2375   -2.3542    0.0000 C   0  0  0  0  0  0  0  0  0  0  0  0
    7.4000   -3.5125    0.0000 C   0  0  0  0  0  0  0  0  0  0  0  0
    3.6417   -0.6167    0.0000 C   0  0  0  0  0  0  0  0  0  0  0  0
    8.7375   -4.4792    0.0000 C   0  0  0  0  0  0  0  0  0  0  0  0
    9.5667   -3.3167    0.0000 C   0  0  0  0  0  0  0  0  0  0  0  0
   10.1542   -4.6250    0.0000 C   0  0  0  0  0  0  0  0  0  0  0  0
   10.2417   -3.8000    0.0000 C   0  0  0  0  0  0  0  0  0  0  0  0
    9.4042   -4.9625    0.0000 C   0  0  0  0  0  0  0  0  0  0  0  0
   10.8250   -5.1042    0.0000 F   0  0  0  0  0  0  0  0  0  0  0  0
    3.6500   -2.0417    0.0000 C   0  0  0  0  0  0  0  0  0  0  0  0
    4.0500    0.0958    0.0000 C   0  0  0  0  0  0  0  0  0  0  0  0
    2.8167   -0.6250    0.0000 C   0  0  0  0  0  0  0  0  0  0  0  0
    2.8292   -2.0542    0.0000 C   0  0  0  0  0  0  0  0  0  0  0  0
    2.4042   -1.3417    0.0000 C   0  0  0  0  0  0  0  0  0  0  0  0
  2  1  1  0  0  0  0
  3  1  1  0  0  0  0
  4  2  1  0  0  0  0
  5  3  1  0  0  0  0
  6  4  1  0  0  0  0
  7  1  1  0  0  0  0
  8 14  1  0  0  0  0
  9  2  2  0  0  0  0
 10  8  1  0  0  0  0
 11  3  2  0  0  0  0
 12  6  1  0  0  0  0
 13  6  1  0  0  0  0
 14 13  1  0  0  0  0
 15 12  1  0  0  0  0
 16  7  2  0  0  0  0
 17 10  2  0  0  0  0
 18 10  1  0  0  0  0
 19 20  1  0  0  0  0
 20 18  2  0  0  0  0
 21 17  1  0  0  0  0
 22 19  1  0  0  0  0
 23  7  1  0  0  0  0
 24 16  1  0  0  0  0
 25 16  1  0  0  0  0
 26 23  2  0  0  0  0
 27 26  1  0  0  0  0
  4  5  1  0  0  0  0
 25 27  2  0  0  0  0
 15  8  1  0  0  0  0
 21 19  2  0  0  0  0
M  END
>  <IDNUMBER>
F3325-0108

>  <Chemical_Name>
3-[4-(4-fluorophenyl)piperazin-1-yl]-1-(2-methylphenyl)pyrrolidine-2,5-dione

>  <PriceCoeff>
1.00

>  <CAS>
924861-16-5

>  <MW>
367.42

>  <Description>
solid

>  <FSP3>
0.33

>  <clogP>
3.56

>  <TPSA>
43.86

>  <Acceptor>
3

>  <Donor>
2

>  <RotBonds>
3

>  <HAC>
27

>  <Collection>
General

>  <PPDS>
+

$$$$
F3325-0110
  Mrv2219 10102508112D          

 32 35  0  0  0  0            999 V2000
    4.8786   -1.3248    0.0000 N   0  0  0  0  0  0  0  0  0  0  0  0
    5.3661   -1.9915    0.0000 C   0  0  0  0  0  0  0  0  0  0  0  0
    5.3619   -0.6541    0.0000 C   0  0  0  0  0  0  0  0  0  0  0  0
    6.1535   -1.7290    0.0000 C   0  0  0  0  0  0  0  0  0  0  0  0
    6.1410   -0.9041    0.0000 C   0  0  0  0  0  0  0  0  0  0  0  0
    6.8159   -2.2122    0.0000 N   0  0  0  0  0  0  0  0  0  0  0  0
    8.1533   -3.1746    0.0000 N   0  0  0  0  0  0  0  0  0  0  0  0
    4.0537   -1.3290    0.0000 C   0  0  0  0  0  0  0  0  0  0  0  0
    8.8240   -3.6538    0.0000 C   0  0  0  0  0  0  0  0  0  0  0  0
    1.5748    0.0833    0.0000 C   0  0  0  0  0  0  0  0  0  0  0  0
    5.1161   -2.7747    0.0000 O   0  0  0  0  0  0  0  0  0  0  0  0
    5.1036    0.1333    0.0000 O   0  0  0  0  0  0  0  0  0  0  0  0
    7.5658   -1.8665    0.0000 C   0  0  0  0  0  0  0  0  0  0  0  0
    6.7284   -3.0289    0.0000 C   0  0  0  0  0  0  0  0  0  0  0  0
    7.3992   -3.5121    0.0000 C   0  0  0  0  0  0  0  0  0  0  0  0
    8.2366   -2.3539    0.0000 C   0  0  0  0  0  0  0  0  0  0  0  0
    1.1666   -0.6291    0.0000 C   0  0  0  0  0  0  0  0  0  0  0  0
    2.3997    0.0875    0.0000 C   0  0  0  0  0  0  0  0  0  0  0  0
    8.7365   -4.4787    0.0000 C   0  0  0  0  0  0  0  0  0  0  0  0
    9.5656   -3.3163    0.0000 C   0  0  0  0  0  0  0  0  0  0  0  0
    1.5873   -1.3498    0.0000 C   0  0  0  0  0  0  0  0  0  0  0  0
    2.8122   -0.6166    0.0000 C   0  0  0  0  0  0  0  0  0  0  0  0
    3.6371   -0.6166    0.0000 C   0  0  0  0  0  0  0  0  0  0  0  0
   10.1530   -4.6245    0.0000 C   0  0  0  0  0  0  0  0  0  0  0  0
    2.4122   -1.3415    0.0000 C   0  0  0  0  0  0  0  0  0  0  0  0
   10.2405   -3.7996    0.0000 C   0  0  0  0  0  0  0  0  0  0  0  0
    9.4031   -4.9619    0.0000 C   0  0  0  0  0  0  0  0  0  0  0  0
    1.1541    0.7957    0.0000 O   0  0  0  0  0  0  0  0  0  0  0  0
   10.8238   -5.1036    0.0000 F   0  0  0  0  0  0  0  0  0  0  0  0
    0.3417   -0.6374    0.0000 O   0  0  0  0  0  0  0  0  0  0  0  0
    1.5665    1.5123    0.0000 C   0  0  0  0  0  0  0  0  0  0  0  0
   -0.0750    0.0708    0.0000 C   0  0  0  0  0  0  0  0  0  0  0  0
  2  1  1  0  0  0  0
  3  1  1  0  0  0  0
  4  2  1  0  0  0  0
  5  3  1  0  0  0  0
  6  4  1  0  0  0  0
  7 15  1  0  0  0  0
  8  1  1  0  0  0  0
  9  7  1  0  0  0  0
 10 18  1  0  0  0  0
 11  2  2  0  0  0  0
 12  3  2  0  0  0  0
 13  6  1  0  0  0  0
 14  6  1  0  0  0  0
 15 14  1  0  0  0  0
 16 13  1  0  0  0  0
 17 21  1  0  0  0  0
 18 22  2  0  0  0  0
 19  9  2  0  0  0  0
 20  9  1  0  0  0  0
 21 25  2  0  0  0  0
 22 23  1  0  0  0  0
 23  8  1  0  0  0  0
 24 26  1  0  0  0  0
 25 22  1  0  0  0  0
 26 20  2  0  0  0  0
 27 19  1  0  0  0  0
 28 10  1  0  0  0  0
 29 24  1  0  0  0  0
 30 17  1  0  0  0  0
 31 28  1  0  0  0  0
 32 30  1  0  0  0  0
  4  5  1  0  0  0  0
 16  7  1  0  0  0  0
 10 17  2  0  0  0  0
 27 24  2  0  0  0  0
M  END
>  <IDNUMBER>
F3325-0110

>  <Chemical_Name>
1-[2-(3,4-dimethoxyphenyl)ethyl]-3-[4-(4-fluorophenyl)piperazin-1-yl]pyrrolidine-2,5-dione

>  <PriceCoeff>
1.00

>  <CAS>
313378-56-2

>  <MW>
441.50

>  <Description>
solid

>  <FSP3>
0.42

>  <clogP>
4.42

>  <TPSA>
62.32

>  <Acceptor>
5

>  <Donor>
2

>  <RotBonds>
7

>  <HAC>
32

>  <Collection>
General

>  <PPDS>
+

$$$$
F3325-0111
  Mrv2219 10102508112D          

 27 30  0  0  0  0            999 V2000
    4.8786   -1.3248    0.0000 N   0  0  0  0  0  0  0  0  0  0  0  0
    5.3661   -1.9915    0.0000 C   0  0  0  0  0  0  0  0  0  0  0  0
    5.3619   -0.6541    0.0000 C   0  0  0  0  0  0  0  0  0  0  0  0
    6.1535   -1.7290    0.0000 C   0  0  0  0  0  0  0  0  0  0  0  0
    6.1410   -0.9041    0.0000 C   0  0  0  0  0  0  0  0  0  0  0  0
    4.0537   -1.3290    0.0000 C   0  0  0  0  0  0  0  0  0  0  0  0
    6.8159   -2.2122    0.0000 N   0  0  0  0  0  0  0  0  0  0  0  0
    8.1533   -3.1746    0.0000 N   0  0  0  0  0  0  0  0  0  0  0  0
    3.6413   -0.6166    0.0000 C   0  0  0  0  0  0  0  0  0  0  0  0
    5.1161   -2.7747    0.0000 O   0  0  0  0  0  0  0  0  0  0  0  0
    8.8240   -3.6538    0.0000 C   0  0  0  0  0  0  0  0  0  0  0  0
    5.1036    0.1333    0.0000 O   0  0  0  0  0  0  0  0  0  0  0  0
    7.5658   -1.8665    0.0000 C   0  0  0  0  0  0  0  0  0  0  0  0
    6.7284   -3.0289    0.0000 C   0  0  0  0  0  0  0  0  0  0  0  0
    7.3992   -3.5121    0.0000 C   0  0  0  0  0  0  0  0  0  0  0  0
    8.2366   -2.3539    0.0000 C   0  0  0  0  0  0  0  0  0  0  0  0
    8.7365   -4.4787    0.0000 C   0  0  0  0  0  0  0  0  0  0  0  0
    9.5656   -3.3163    0.0000 C   0  0  0  0  0  0  0  0  0  0  0  0
    2.8164   -0.6249    0.0000 C   0  0  0  0  0  0  0  0  0  0  0  0
   10.1530   -4.6245    0.0000 C   0  0  0  0  0  0  0  0  0  0  0  0
    9.4031   -4.9619    0.0000 C   0  0  0  0  0  0  0  0  0  0  0  0
   10.2405   -3.7996    0.0000 C   0  0  0  0  0  0  0  0  0  0  0  0
    3.6496   -2.0415    0.0000 C   0  0  0  0  0  0  0  0  0  0  0  0
    2.3997    0.0875    0.0000 Cl  0  0  0  0  0  0  0  0  0  0  0  0
   10.8238   -5.1036    0.0000 F   0  0  0  0  0  0  0  0  0  0  0  0
    2.8289   -2.0540    0.0000 C   0  0  0  0  0  0  0  0  0  0  0  0
    2.4039   -1.3415    0.0000 C   0  0  0  0  0  0  0  0  0  0  0  0
  2  1  1  0  0  0  0
  3  1  1  0  0  0  0
  4  2  1  0  0  0  0
  5  3  1  0  0  0  0
  6  1  1  0  0  0  0
  7  4  1  0  0  0  0
  8 15  1  0  0  0  0
  9  6  2  0  0  0  0
 10  2  2  0  0  0  0
 11  8  1  0  0  0  0
 12  3  2  0  0  0  0
 13  7  1  0  0  0  0
 14  7  1  0  0  0  0
 15 14  1  0  0  0  0
 16 13  1  0  0  0  0
 17 11  2  0  0  0  0
 18 11  1  0  0  0  0
 19  9  1  0  0  0  0
 20 22  1  0  0  0  0
 21 17  1  0  0  0  0
 22 18  2  0  0  0  0
 23  6  1  0  0  0  0
 24 19  1  0  0  0  0
 25 20  1  0  0  0  0
 26 23  2  0  0  0  0
 27 26  1  0  0  0  0
  4  5  1  0  0  0  0
 19 27  2  0  0  0  0
 16  8  1  0  0  0  0
 21 20  2  0  0  0  0
M  END
>  <IDNUMBER>
F3325-0111

>  <Chemical_Name>
1-(3-chlorophenyl)-3-[4-(4-fluorophenyl)piperazin-1-yl]pyrrolidine-2,5-dione

>  <PriceCoeff>
1.00

>  <CAS>
299408-56-3

>  <MW>
387.84

>  <Description>
solid

>  <FSP3>
0.30

>  <clogP>
4.41

>  <TPSA>
43.86

>  <Acceptor>
3

>  <Donor>
2

>  <RotBonds>
3

>  <HAC>
27

>  <Collection>
General

>  <PPDS>
+

$$$$
F3325-0112
  Mrv2219 10102508112D          

 28 31  0  0  0  0            999 V2000
    4.8786   -1.3248    0.0000 N   0  0  0  0  0  0  0  0  0  0  0  0
    5.3661   -1.9915    0.0000 C   0  0  0  0  0  0  0  0  0  0  0  0
    5.3619   -0.6541    0.0000 C   0  0  0  0  0  0  0  0  0  0  0  0
    6.1535   -1.7290    0.0000 C   0  0  0  0  0  0  0  0  0  0  0  0
    6.1410   -0.9041    0.0000 C   0  0  0  0  0  0  0  0  0  0  0  0
    4.0537   -1.3290    0.0000 C   0  0  0  0  0  0  0  0  0  0  0  0
    6.8159   -2.2122    0.0000 N   0  0  0  0  0  0  0  0  0  0  0  0
    8.1533   -3.1746    0.0000 N   0  0  0  0  0  0  0  0  0  0  0  0
    3.6413   -0.6166    0.0000 C   0  0  0  0  0  0  0  0  0  0  0  0
    5.1161   -2.7747    0.0000 O   0  0  0  0  0  0  0  0  0  0  0  0
    8.8240   -3.6538    0.0000 C   0  0  0  0  0  0  0  0  0  0  0  0
    5.1036    0.1333    0.0000 O   0  0  0  0  0  0  0  0  0  0  0  0
    7.5658   -1.8665    0.0000 C   0  0  0  0  0  0  0  0  0  0  0  0
    6.7284   -3.0289    0.0000 C   0  0  0  0  0  0  0  0  0  0  0  0
    7.3992   -3.5121    0.0000 C   0  0  0  0  0  0  0  0  0  0  0  0
    8.2366   -2.3539    0.0000 C   0  0  0  0  0  0  0  0  0  0  0  0
    8.7365   -4.4787    0.0000 C   0  0  0  0  0  0  0  0  0  0  0  0
    9.5656   -3.3163    0.0000 C   0  0  0  0  0  0  0  0  0  0  0  0
    2.8164   -0.6249    0.0000 C   0  0  0  0  0  0  0  0  0  0  0  0
   10.1530   -4.6245    0.0000 C   0  0  0  0  0  0  0  0  0  0  0  0
    9.4031   -4.9619    0.0000 C   0  0  0  0  0  0  0  0  0  0  0  0
   10.2405   -3.7996    0.0000 C   0  0  0  0  0  0  0  0  0  0  0  0
    3.6496   -2.0415    0.0000 C   0  0  0  0  0  0  0  0  0  0  0  0
   10.8238   -5.1036    0.0000 F   0  0  0  0  0  0  0  0  0  0  0  0
    2.3997    0.0875    0.0000 O   0  0  0  0  0  0  0  0  0  0  0  0
    2.8289   -2.0540    0.0000 C   0  0  0  0  0  0  0  0  0  0  0  0
    2.4039   -1.3415    0.0000 C   0  0  0  0  0  0  0  0  0  0  0  0
    2.8039    0.8082    0.0000 C   0  0  0  0  0  0  0  0  0  0  0  0
  2  1  1  0  0  0  0
  3  1  1  0  0  0  0
  4  2  1  0  0  0  0
  5  3  1  0  0  0  0
  6  1  1  0  0  0  0
  7  4  1  0  0  0  0
  8 15  1  0  0  0  0
  9  6  2  0  0  0  0
 10  2  2  0  0  0  0
 11  8  1  0  0  0  0
 12  3  2  0  0  0  0
 13  7  1  0  0  0  0
 14  7  1  0  0  0  0
 15 14  1  0  0  0  0
 16 13  1  0  0  0  0
 17 11  2  0  0  0  0
 18 11  1  0  0  0  0
 19  9  1  0  0  0  0
 20 22  1  0  0  0  0
 21 17  1  0  0  0  0
 22 18  2  0  0  0  0
 23  6  1  0  0  0  0
 24 20  1  0  0  0  0
 25 19  1  0  0  0  0
 26 23  2  0  0  0  0
 27 26  1  0  0  0  0
 28 25  1  0  0  0  0
  4  5  1  0  0  0  0
 19 27  2  0  0  0  0
 16  8  1  0  0  0  0
 21 20  2  0  0  0  0
M  END
>  <IDNUMBER>
F3325-0112

>  <Chemical_Name>
3-[4-(4-fluorophenyl)piperazin-1-yl]-1-(3-methoxyphenyl)pyrrolidine-2,5-dione

>  <PriceCoeff>
1.00

>  <CAS>
333398-51-9

>  <MW>
383.42

>  <Description>
solid

>  <FSP3>
0.33

>  <clogP>
3.55

>  <TPSA>
53.09

>  <Acceptor>
4

>  <Donor>
2

>  <RotBonds>
4

>  <HAC>
28

>  <Collection>
General

>  <PPDS>
+

$$$$
F3325-0115
  Mrv2219 10102508112D          

 23 25  0  0  0  0            999 V2000
    4.8815   -1.3256    0.0000 N   0  0  0  0  0  0  0  0  0  0  0  0
    5.3692   -1.9926    0.0000 C   0  0  0  0  0  0  0  0  0  0  0  0
    5.3650   -0.6545    0.0000 C   0  0  0  0  0  0  0  0  0  0  0  0
    6.1571   -1.7300    0.0000 C   0  0  0  0  0  0  0  0  0  0  0  0
    6.1446   -0.9046    0.0000 C   0  0  0  0  0  0  0  0  0  0  0  0
    6.8199   -2.2135    0.0000 N   0  0  0  0  0  0  0  0  0  0  0  0
    8.1580   -3.1765    0.0000 N   0  0  0  0  0  0  0  0  0  0  0  0
    5.1191   -2.7763    0.0000 O   0  0  0  0  0  0  0  0  0  0  0  0
    5.1066    0.1334    0.0000 O   0  0  0  0  0  0  0  0  0  0  0  0
    4.0561   -1.3298    0.0000 C   0  0  0  0  0  0  0  0  0  0  0  0
    7.5703   -1.8676    0.0000 C   0  0  0  0  0  0  0  0  0  0  0  0
    6.7324   -3.0306    0.0000 C   0  0  0  0  0  0  0  0  0  0  0  0
    8.8292   -3.6559    0.0000 C   0  0  0  0  0  0  0  0  0  0  0  0
    8.2414   -2.3553    0.0000 C   0  0  0  0  0  0  0  0  0  0  0  0
    7.4035   -3.5142    0.0000 C   0  0  0  0  0  0  0  0  0  0  0  0
    9.5795   -3.3266    0.0000 C   0  0  0  0  0  0  0  0  0  0  0  0
    3.6392   -0.6170    0.0000 C   0  0  0  0  0  0  0  0  0  0  0  0
    3.6434   -2.0427    0.0000 C   0  0  0  0  0  0  0  0  0  0  0  0
   10.2465   -3.8060    0.0000 C   0  0  0  0  0  0  0  0  0  0  0  0
    9.6587   -2.5054    0.0000 C   0  0  0  0  0  0  0  0  0  0  0  0
   10.4091   -2.1677    0.0000 C   0  0  0  0  0  0  0  0  0  0  0  0
   10.9969   -3.4683    0.0000 C   0  0  0  0  0  0  0  0  0  0  0  0
   11.0844   -2.6512    0.0000 C   0  0  0  0  0  0  0  0  0  0  0  0
  2  1  1  0  0  0  0
  3  1  1  0  0  0  0
  4  2  1  0  0  0  0
  5  3  1  0  0  0  0
  6  4  1  0  0  0  0
  7 15  1  0  0  0  0
  8  2  2  0  0  0  0
  9  3  2  0  0  0  0
 10  1  1  0  0  0  0
 11  6  1  0  0  0  0
 12  6  1  0  0  0  0
 13  7  1  0  0  0  0
 14 11  1  0  0  0  0
 15 12  1  0  0  0  0
 16 13  1  0  0  0  0
 17 10  1  0  0  0  0
 18 10  1  0  0  0  0
 19 16  2  0  0  0  0
 20 16  1  0  0  0  0
 21 20  2  0  0  0  0
 22 19  1  0  0  0  0
 23 21  1  0  0  0  0
  4  5  1  0  0  0  0
  7 14  1  0  0  0  0
 22 23  2  0  0  0  0
M  END
>  <IDNUMBER>
F3325-0115

>  <Chemical_Name>
3-(4-benzylpiperazin-1-yl)-1-(propan-2-yl)pyrrolidine-2,5-dione

>  <PriceCoeff>
1.50

>  <CAS>
924873-69-8

>  <MW>
315.41

>  <Description>
solid

>  <FSP3>
0.56

>  <clogP>
3.48

>  <TPSA>
43.86

>  <Acceptor>
4

>  <Donor>
2

>  <RotBonds>
4

>  <HAC>
23

>  <Collection>
Advanced

>  <PPDS>
+

$$$$
F3325-0119
  Mrv2219 10102508112D          

 28 31  0  0  0  0            999 V2000
    4.8815   -1.3256    0.0000 N   0  0  0  0  0  0  0  0  0  0  0  0
    5.3692   -1.9926    0.0000 C   0  0  0  0  0  0  0  0  0  0  0  0
    5.3650   -0.6545    0.0000 C   0  0  0  0  0  0  0  0  0  0  0  0
    6.1571   -1.7300    0.0000 C   0  0  0  0  0  0  0  0  0  0  0  0
    6.1446   -0.9046    0.0000 C   0  0  0  0  0  0  0  0  0  0  0  0
    6.8199   -2.2135    0.0000 N   0  0  0  0  0  0  0  0  0  0  0  0
    4.0561   -1.3298    0.0000 C   0  0  0  0  0  0  0  0  0  0  0  0
    8.1580   -3.1765    0.0000 N   0  0  0  0  0  0  0  0  0  0  0  0
    5.1191   -2.7763    0.0000 O   0  0  0  0  0  0  0  0  0  0  0  0
    5.1066    0.1334    0.0000 O   0  0  0  0  0  0  0  0  0  0  0  0
    7.5703   -1.8676    0.0000 C   0  0  0  0  0  0  0  0  0  0  0  0
    6.7324   -3.0306    0.0000 C   0  0  0  0  0  0  0  0  0  0  0  0
    3.6434   -0.6170    0.0000 C   0  0  0  0  0  0  0  0  0  0  0  0
    3.6517   -2.0427    0.0000 C   0  0  0  0  0  0  0  0  0  0  0  0
    8.8292   -3.6559    0.0000 C   0  0  0  0  0  0  0  0  0  0  0  0
    8.2414   -2.3553    0.0000 C   0  0  0  0  0  0  0  0  0  0  0  0
    7.4035   -3.5142    0.0000 C   0  0  0  0  0  0  0  0  0  0  0  0
    2.8305   -2.0552    0.0000 C   0  0  0  0  0  0  0  0  0  0  0  0
    2.8180   -0.6253    0.0000 C   0  0  0  0  0  0  0  0  0  0  0  0
    2.4053   -1.3423    0.0000 C   0  0  0  0  0  0  0  0  0  0  0  0
    9.5795   -3.3266    0.0000 C   0  0  0  0  0  0  0  0  0  0  0  0
    1.5799   -1.3423    0.0000 C   0  0  0  0  0  0  0  0  0  0  0  0
   10.2465   -3.8060    0.0000 C   0  0  0  0  0  0  0  0  0  0  0  0
    9.6587   -2.5054    0.0000 C   0  0  0  0  0  0  0  0  0  0  0  0
    1.1672   -0.6295    0.0000 C   0  0  0  0  0  0  0  0  0  0  0  0
   10.9969   -3.4683    0.0000 C   0  0  0  0  0  0  0  0  0  0  0  0
   10.4091   -2.1677    0.0000 C   0  0  0  0  0  0  0  0  0  0  0  0
   11.0844   -2.6512    0.0000 C   0  0  0  0  0  0  0  0  0  0  0  0
  2  1  1  0  0  0  0
  3  1  1  0  0  0  0
  4  2  1  0  0  0  0
  5  3  1  0  0  0  0
  6  4  1  0  0  0  0
  7  1  1  0  0  0  0
  8 17  1  0  0  0  0
  9  2  2  0  0  0  0
 10  3  2  0  0  0  0
 11  6  1  0  0  0  0
 12  6  1  0  0  0  0
 13  7  2  0  0  0  0
 14  7  1  0  0  0  0
 15  8  1  0  0  0  0
 16 11  1  0  0  0  0
 17 12  1  0  0  0  0
 18 14  2  0  0  0  0
 19 13  1  0  0  0  0
 20 18  1  0  0  0  0
 21 15  1  0  0  0  0
 22 20  1  0  0  0  0
 23 21  2  0  0  0  0
 24 21  1  0  0  0  0
 25 22  1  0  0  0  0
 26 23  1  0  0  0  0
 27 24  2  0  0  0  0
 28 27  1  0  0  0  0
  4  5  1  0  0  0  0
 19 20  2  0  0  0  0
 16  8  1  0  0  0  0
 26 28  2  0  0  0  0
M  END
>  <IDNUMBER>
F3325-0119

>  <Chemical_Name>
3-(4-benzylpiperazin-1-yl)-1-(4-ethylphenyl)pyrrolidine-2,5-dione

>  <PriceCoeff>
1.00

>  <CAS>
924873-70-1

>  <MW>
377.48

>  <Description>
solid

>  <FSP3>
0.39

>  <clogP>
4.46

>  <TPSA>
43.86

>  <Acceptor>
4

>  <Donor>
2

>  <RotBonds>
5

>  <HAC>
28

>  <Collection>
General

>  <PPDS>
+

$$$$
F3325-0121
  Mrv2219 10102508112D          

 30 34  0  0  0  0            999 V2000
    4.8792   -1.3250    0.0000 N   0  0  0  0  0  0  0  0  0  0  0  0
    5.3667   -1.9917    0.0000 C   0  0  0  0  0  0  0  0  0  0  0  0
    5.3625   -0.6542    0.0000 C   0  0  0  0  0  0  0  0  0  0  0  0
    6.1542   -1.7292    0.0000 C   0  0  0  0  0  0  0  0  0  0  0  0
    6.1417   -0.9042    0.0000 C   0  0  0  0  0  0  0  0  0  0  0  0
    6.8167   -2.2125    0.0000 N   0  0  0  0  0  0  0  0  0  0  0  0
    4.0542   -1.3292    0.0000 C   0  0  0  0  0  0  0  0  0  0  0  0
    8.1542   -3.1750    0.0000 N   0  0  0  0  0  0  0  0  0  0  0  0
    2.4000    0.0833    0.0000 C   0  0  0  0  0  0  0  0  0  0  0  0
    5.1167   -2.7750    0.0000 O   0  0  0  0  0  0  0  0  0  0  0  0
    2.8042    0.8083    0.0000 C   0  0  0  0  0  0  0  0  0  0  0  0
    1.5875    0.2458    0.0000 O   0  0  0  0  0  0  0  0  0  0  0  0
    5.1042    0.1333    0.0000 O   0  0  0  0  0  0  0  0  0  0  0  0
    2.2417    1.4125    0.0000 O   0  0  0  0  0  0  0  0  0  0  0  0
    1.4917    1.0708    0.0000 C   0  0  0  0  0  0  0  0  0  0  0  0
    2.8167   -0.6292    0.0000 C   0  0  0  0  0  0  0  0  0  0  0  0
    3.6375   -0.6167    0.0000 C   0  0  0  0  0  0  0  0  0  0  0  0
    6.7292   -3.0292    0.0000 C   0  0  0  0  0  0  0  0  0  0  0  0
    7.5667   -1.8667    0.0000 C   0  0  0  0  0  0  0  0  0  0  0  0
    8.8250   -3.6542    0.0000 C   0  0  0  0  0  0  0  0  0  0  0  0
    3.6292    0.8083    0.0000 C   0  0  0  0  0  0  0  0  0  0  0  0
    8.2375   -2.3542    0.0000 C   0  0  0  0  0  0  0  0  0  0  0  0
    7.4000   -3.5125    0.0000 C   0  0  0  0  0  0  0  0  0  0  0  0
    4.0500    0.0958    0.0000 C   0  0  0  0  0  0  0  0  0  0  0  0
    9.5750   -3.3250    0.0000 C   0  0  0  0  0  0  0  0  0  0  0  0
    9.6542   -2.5042    0.0000 C   0  0  0  0  0  0  0  0  0  0  0  0
   10.2417   -3.8042    0.0000 C   0  0  0  0  0  0  0  0  0  0  0  0
   10.9917   -3.4667    0.0000 C   0  0  0  0  0  0  0  0  0  0  0  0
   10.4042   -2.1667    0.0000 C   0  0  0  0  0  0  0  0  0  0  0  0
   11.0792   -2.6500    0.0000 C   0  0  0  0  0  0  0  0  0  0  0  0
  2  1  1  0  0  0  0
  3  1  1  0  0  0  0
  4  2  1  0  0  0  0
  5  3  1  0  0  0  0
  6  4  1  0  0  0  0
  7  1  1  0  0  0  0
  8 22  1  0  0  0  0
  9 16  2  0  0  0  0
 10  2  2  0  0  0  0
 11 21  2  0  0  0  0
 12  9  1  0  0  0  0
 13  3  2  0  0  0  0
 14 11  1  0  0  0  0
 15 12  1  0  0  0  0
 16 17  1  0  0  0  0
 17  7  1  0  0  0  0
 18  6  1  0  0  0  0
 19  6  1  0  0  0  0
 20  8  1  0  0  0  0
 21 24  1  0  0  0  0
 22 19  1  0  0  0  0
 23 18  1  0  0  0  0
 24 17  2  0  0  0  0
 25 20  1  0  0  0  0
 26 25  1  0  0  0  0
 27 25  2  0  0  0  0
 28 27  1  0  0  0  0
 29 26  2  0  0  0  0
 30 28  2  0  0  0  0
  4  5  1  0  0  0  0
  9 11  1  0  0  0  0
 23  8  1  0  0  0  0
 14 15  1  0  0  0  0
 29 30  1  0  0  0  0
M  END
>  <IDNUMBER>
F3325-0121

>  <Chemical_Name>
1-[(2H-1,3-benzodioxol-5-yl)methyl]-3-(4-benzylpiperazin-1-yl)pyrrolidine-2,5-dione

>  <PriceCoeff>
1.00

>  <CAS>
924861-19-8

>  <MW>
407.46

>  <Description>
solid

>  <FSP3>
0.39

>  <clogP>
4.18

>  <TPSA>
62.32

>  <Acceptor>
6

>  <Donor>
2

>  <RotBonds>
5

>  <HAC>
30

>  <Collection>
General

>  <PPDS>
+

$$$$
F3325-0124
  Mrv2219 10102508112D          

 23 25  0  0  0  0            999 V2000
    4.8792   -1.3250    0.0000 N   0  0  0  0  0  0  0  0  0  0  0  0
    5.3667   -1.9917    0.0000 C   0  0  0  0  0  0  0  0  0  0  0  0
    5.3625   -0.6542    0.0000 C   0  0  0  0  0  0  0  0  0  0  0  0
    6.1542   -1.7292    0.0000 C   0  0  0  0  0  0  0  0  0  0  0  0
    6.1417   -0.9042    0.0000 C   0  0  0  0  0  0  0  0  0  0  0  0
    6.8167   -2.2125    0.0000 N   0  0  0  0  0  0  0  0  0  0  0  0
    8.1542   -3.1750    0.0000 N   0  0  0  0  0  0  0  0  0  0  0  0
    5.1167   -2.7750    0.0000 O   0  0  0  0  0  0  0  0  0  0  0  0
    5.1042    0.1333    0.0000 O   0  0  0  0  0  0  0  0  0  0  0  0
    6.7292   -3.0292    0.0000 C   0  0  0  0  0  0  0  0  0  0  0  0
    7.5667   -1.8667    0.0000 C   0  0  0  0  0  0  0  0  0  0  0  0
    4.0542   -1.3292    0.0000 C   0  0  0  0  0  0  0  0  0  0  0  0
    8.8250   -3.6542    0.0000 C   0  0  0  0  0  0  0  0  0  0  0  0
    3.6375   -0.6167    0.0000 C   0  0  0  0  0  0  0  0  0  0  0  0
    7.4000   -3.5125    0.0000 C   0  0  0  0  0  0  0  0  0  0  0  0
    8.2375   -2.3542    0.0000 C   0  0  0  0  0  0  0  0  0  0  0  0
    2.8125   -0.6167    0.0000 C   0  0  0  0  0  0  0  0  0  0  0  0
    9.5750   -3.3250    0.0000 C   0  0  0  0  0  0  0  0  0  0  0  0
   10.2417   -3.8042    0.0000 C   0  0  0  0  0  0  0  0  0  0  0  0
    9.6542   -2.5042    0.0000 C   0  0  0  0  0  0  0  0  0  0  0  0
   10.4042   -2.1667    0.0000 C   0  0  0  0  0  0  0  0  0  0  0  0
   10.9917   -3.4667    0.0000 C   0  0  0  0  0  0  0  0  0  0  0  0
   11.0792   -2.6500    0.0000 C   0  0  0  0  0  0  0  0  0  0  0  0
  2  1  1  0  0  0  0
  3  1  1  0  0  0  0
  4  2  1  0  0  0  0
  5  3  1  0  0  0  0
  6  4  1  0  0  0  0
  7 16  1  0  0  0  0
  8  2  2  0  0  0  0
  9  3  2  0  0  0  0
 10  6  1  0  0  0  0
 11  6  1  0  0  0  0
 12  1  1  0  0  0  0
 13  7  1  0  0  0  0
 14 12  1  0  0  0  0
 15 10  1  0  0  0  0
 16 11  1  0  0  0  0
 17 14  2  0  0  0  0
 18 13  1  0  0  0  0
 19 18  2  0  0  0  0
 20 18  1  0  0  0  0
 21 20  2  0  0  0  0
 22 19  1  0  0  0  0
 23 21  1  0  0  0  0
  4  5  1  0  0  0  0
 15  7  1  0  0  0  0
 22 23  2  0  0  0  0
M  END
>  <IDNUMBER>
F3325-0124

>  <Chemical_Name>
3-(4-benzylpiperazin-1-yl)-1-(prop-2-en-1-yl)pyrrolidine-2,5-dione

>  <PriceCoeff>
1.50

>  <CAS>
924861-20-1

>  <MW>
313.39

>  <Description>
solid

>  <FSP3>
0.44

>  <clogP>
3.41

>  <TPSA>
43.86

>  <Acceptor>
4

>  <Donor>
2

>  <RotBonds>
5

>  <HAC>
23

>  <Collection>
Advanced

>  <PPDS>
+

$$$$
F3325-0126
  Mrv2219 10102508112D          

 28 31  0  0  0  0            999 V2000
    4.8815   -1.3256    0.0000 N   0  0  0  0  0  0  0  0  0  0  0  0
    5.3692   -1.9926    0.0000 C   0  0  0  0  0  0  0  0  0  0  0  0
    5.3650   -0.6545    0.0000 C   0  0  0  0  0  0  0  0  0  0  0  0
    6.1571   -1.7300    0.0000 C   0  0  0  0  0  0  0  0  0  0  0  0
    6.1446   -0.9046    0.0000 C   0  0  0  0  0  0  0  0  0  0  0  0
    6.8199   -2.2135    0.0000 N   0  0  0  0  0  0  0  0  0  0  0  0
    4.0561   -1.3298    0.0000 C   0  0  0  0  0  0  0  0  0  0  0  0
    8.1580   -3.1765    0.0000 N   0  0  0  0  0  0  0  0  0  0  0  0
    5.1191   -2.7763    0.0000 O   0  0  0  0  0  0  0  0  0  0  0  0
    5.1066    0.1334    0.0000 O   0  0  0  0  0  0  0  0  0  0  0  0
    7.5703   -1.8676    0.0000 C   0  0  0  0  0  0  0  0  0  0  0  0
    6.7324   -3.0306    0.0000 C   0  0  0  0  0  0  0  0  0  0  0  0
    3.6434   -0.6170    0.0000 C   0  0  0  0  0  0  0  0  0  0  0  0
    8.8292   -3.6559    0.0000 C   0  0  0  0  0  0  0  0  0  0  0  0
    7.4035   -3.5142    0.0000 C   0  0  0  0  0  0  0  0  0  0  0  0
    8.2414   -2.3553    0.0000 C   0  0  0  0  0  0  0  0  0  0  0  0
    9.5795   -3.3266    0.0000 C   0  0  0  0  0  0  0  0  0  0  0  0
    3.6517   -2.0427    0.0000 C   0  0  0  0  0  0  0  0  0  0  0  0
    4.0519    0.0958    0.0000 C   0  0  0  0  0  0  0  0  0  0  0  0
    2.8180   -0.6253    0.0000 C   0  0  0  0  0  0  0  0  0  0  0  0
   10.2465   -3.8060    0.0000 C   0  0  0  0  0  0  0  0  0  0  0  0
    9.6587   -2.5054    0.0000 C   0  0  0  0  0  0  0  0  0  0  0  0
    3.6309    0.8129    0.0000 C   0  0  0  0  0  0  0  0  0  0  0  0
    2.8305   -2.0552    0.0000 C   0  0  0  0  0  0  0  0  0  0  0  0
    2.4053   -1.3423    0.0000 C   0  0  0  0  0  0  0  0  0  0  0  0
   10.9969   -3.4683    0.0000 C   0  0  0  0  0  0  0  0  0  0  0  0
   10.4091   -2.1677    0.0000 C   0  0  0  0  0  0  0  0  0  0  0  0
   11.0844   -2.6512    0.0000 C   0  0  0  0  0  0  0  0  0  0  0  0
  2  1  1  0  0  0  0
  3  1  1  0  0  0  0
  4  2  1  0  0  0  0
  5  3  1  0  0  0  0
  6  4  1  0  0  0  0
  7  1  1  0  0  0  0
  8 15  1  0  0  0  0
  9  2  2  0  0  0  0
 10  3  2  0  0  0  0
 11  6  1  0  0  0  0
 12  6  1  0  0  0  0
 13  7  2  0  0  0  0
 14  8  1  0  0  0  0
 15 12  1  0  0  0  0
 16 11  1  0  0  0  0
 17 14  1  0  0  0  0
 18  7  1  0  0  0  0
 19 13  1  0  0  0  0
 20 13  1  0  0  0  0
 21 17  2  0  0  0  0
 22 17  1  0  0  0  0
 23 19  1  0  0  0  0
 24 18  2  0  0  0  0
 25 24  1  0  0  0  0
 26 21  1  0  0  0  0
 27 22  2  0  0  0  0
 28 27  1  0  0  0  0
  4  5  1  0  0  0  0
 20 25  2  0  0  0  0
 16  8  1  0  0  0  0
 26 28  2  0  0  0  0
M  END
>  <IDNUMBER>
F3325-0126

>  <Chemical_Name>
3-(4-benzylpiperazin-1-yl)-1-(2-ethylphenyl)pyrrolidine-2,5-dione

>  <PriceCoeff>
1.00

>  <CAS>
924873-72-3

>  <MW>
377.48

>  <Description>
solid

>  <FSP3>
0.39

>  <clogP>
4.06

>  <TPSA>
43.86

>  <Acceptor>
4

>  <Donor>
2

>  <RotBonds>
5

>  <HAC>
28

>  <Collection>
General

>  <PPDS>
+

$$$$
F3325-0127
  Mrv2219 10102508112D          

 27 30  0  0  0  0            999 V2000
    4.8815   -1.3256    0.0000 N   0  0  0  0  0  0  0  0  0  0  0  0
    5.3692   -1.9926    0.0000 C   0  0  0  0  0  0  0  0  0  0  0  0
    5.3650   -0.6545    0.0000 C   0  0  0  0  0  0  0  0  0  0  0  0
    6.1571   -1.7300    0.0000 C   0  0  0  0  0  0  0  0  0  0  0  0
    6.1446   -0.9046    0.0000 C   0  0  0  0  0  0  0  0  0  0  0  0
    6.8199   -2.2135    0.0000 N   0  0  0  0  0  0  0  0  0  0  0  0
    4.0561   -1.3298    0.0000 C   0  0  0  0  0  0  0  0  0  0  0  0
    8.1580   -3.1765    0.0000 N   0  0  0  0  0  0  0  0  0  0  0  0
    5.1191   -2.7763    0.0000 O   0  0  0  0  0  0  0  0  0  0  0  0
    5.1066    0.1334    0.0000 O   0  0  0  0  0  0  0  0  0  0  0  0
    7.5703   -1.8676    0.0000 C   0  0  0  0  0  0  0  0  0  0  0  0
    6.7324   -3.0306    0.0000 C   0  0  0  0  0  0  0  0  0  0  0  0
    3.6434   -0.6170    0.0000 C   0  0  0  0  0  0  0  0  0  0  0  0
    3.6517   -2.0427    0.0000 C   0  0  0  0  0  0  0  0  0  0  0  0
    8.8292   -3.6559    0.0000 C   0  0  0  0  0  0  0  0  0  0  0  0
    8.2414   -2.3553    0.0000 C   0  0  0  0  0  0  0  0  0  0  0  0
    7.4035   -3.5142    0.0000 C   0  0  0  0  0  0  0  0  0  0  0  0
    2.8305   -2.0552    0.0000 C   0  0  0  0  0  0  0  0  0  0  0  0
    2.8180   -0.6253    0.0000 C   0  0  0  0  0  0  0  0  0  0  0  0
    2.4053   -1.3423    0.0000 C   0  0  0  0  0  0  0  0  0  0  0  0
    9.5795   -3.3266    0.0000 C   0  0  0  0  0  0  0  0  0  0  0  0
    1.5799   -1.3423    0.0000 C   0  0  0  0  0  0  0  0  0  0  0  0
   10.2465   -3.8060    0.0000 C   0  0  0  0  0  0  0  0  0  0  0  0
    9.6587   -2.5054    0.0000 C   0  0  0  0  0  0  0  0  0  0  0  0
   10.4091   -2.1677    0.0000 C   0  0  0  0  0  0  0  0  0  0  0  0
   10.9969   -3.4683    0.0000 C   0  0  0  0  0  0  0  0  0  0  0  0
   11.0844   -2.6512    0.0000 C   0  0  0  0  0  0  0  0  0  0  0  0
  2  1  1  0  0  0  0
  3  1  1  0  0  0  0
  4  2  1  0  0  0  0
  5  3  1  0  0  0  0
  6  4  1  0  0  0  0
  7  1  1  0  0  0  0
  8 17  1  0  0  0  0
  9  2  2  0  0  0  0
 10  3  2  0  0  0  0
 11  6  1  0  0  0  0
 12  6  1  0  0  0  0
 13  7  2  0  0  0  0
 14  7  1  0  0  0  0
 15  8  1  0  0  0  0
 16 11  1  0  0  0  0
 17 12  1  0  0  0  0
 18 14  2  0  0  0  0
 19 13  1  0  0  0  0
 20 18  1  0  0  0  0
 21 15  1  0  0  0  0
 22 20  1  0  0  0  0
 23 21  2  0  0  0  0
 24 21  1  0  0  0  0
 25 24  2  0  0  0  0
 26 23  1  0  0  0  0
 27 25  1  0  0  0  0
  4  5  1  0  0  0  0
 19 20  2  0  0  0  0
 16  8  1  0  0  0  0
 26 27  2  0  0  0  0
M  END
>  <IDNUMBER>
F3325-0127

>  <Chemical_Name>
3-(4-benzylpiperazin-1-yl)-1-(4-methylphenyl)pyrrolidine-2,5-dione

>  <PriceCoeff>
1.00

>  <CAS>
354786-18-8

>  <MW>
363.45

>  <Description>
solid

>  <FSP3>
0.36

>  <clogP>
3.93

>  <TPSA>
43.86

>  <Acceptor>
4

>  <Donor>
2

>  <RotBonds>
4

>  <HAC>
27

>  <Collection>
General

>  <PPDS>
+

$$$$
F3325-0128
  Mrv2219 10102508112D          

 28 31  0  0  0  0            999 V2000
    4.8815   -1.3256    0.0000 N   0  0  0  0  0  0  0  0  0  0  0  0
    5.3692   -1.9926    0.0000 C   0  0  0  0  0  0  0  0  0  0  0  0
    5.3650   -0.6545    0.0000 C   0  0  0  0  0  0  0  0  0  0  0  0
    6.1571   -1.7300    0.0000 C   0  0  0  0  0  0  0  0  0  0  0  0
    6.1446   -0.9046    0.0000 C   0  0  0  0  0  0  0  0  0  0  0  0
    6.8199   -2.2135    0.0000 N   0  0  0  0  0  0  0  0  0  0  0  0
    4.0561   -1.3298    0.0000 C   0  0  0  0  0  0  0  0  0  0  0  0
    8.1580   -3.1765    0.0000 N   0  0  0  0  0  0  0  0  0  0  0  0
    5.1191   -2.7763    0.0000 O   0  0  0  0  0  0  0  0  0  0  0  0
    5.1066    0.1334    0.0000 O   0  0  0  0  0  0  0  0  0  0  0  0
    3.6434   -0.6170    0.0000 C   0  0  0  0  0  0  0  0  0  0  0  0
    6.7324   -3.0306    0.0000 C   0  0  0  0  0  0  0  0  0  0  0  0
    7.5703   -1.8676    0.0000 C   0  0  0  0  0  0  0  0  0  0  0  0
    8.8292   -3.6559    0.0000 C   0  0  0  0  0  0  0  0  0  0  0  0
    7.4035   -3.5142    0.0000 C   0  0  0  0  0  0  0  0  0  0  0  0
    8.2414   -2.3553    0.0000 C   0  0  0  0  0  0  0  0  0  0  0  0
    9.5795   -3.3266    0.0000 C   0  0  0  0  0  0  0  0  0  0  0  0
    4.0519    0.0958    0.0000 O   0  0  0  0  0  0  0  0  0  0  0  0
    3.6517   -2.0427    0.0000 C   0  0  0  0  0  0  0  0  0  0  0  0
    2.8180   -0.6253    0.0000 C   0  0  0  0  0  0  0  0  0  0  0  0
   10.2465   -3.8060    0.0000 C   0  0  0  0  0  0  0  0  0  0  0  0
    9.6587   -2.5054    0.0000 C   0  0  0  0  0  0  0  0  0  0  0  0
    3.4641    0.6836    0.0000 C   0  0  0  0  0  0  0  0  0  0  0  0
    2.8305   -2.0552    0.0000 C   0  0  0  0  0  0  0  0  0  0  0  0
    2.4053   -1.3423    0.0000 C   0  0  0  0  0  0  0  0  0  0  0  0
   10.9969   -3.4683    0.0000 C   0  0  0  0  0  0  0  0  0  0  0  0
   10.4091   -2.1677    0.0000 C   0  0  0  0  0  0  0  0  0  0  0  0
   11.0844   -2.6512    0.0000 C   0  0  0  0  0  0  0  0  0  0  0  0
  2  1  1  0  0  0  0
  3  1  1  0  0  0  0
  4  2  1  0  0  0  0
  5  3  1  0  0  0  0
  6  4  1  0  0  0  0
  7  1  1  0  0  0  0
  8 16  1  0  0  0  0
  9  2  2  0  0  0  0
 10  3  2  0  0  0  0
 11  7  2  0  0  0  0
 12  6  1  0  0  0  0
 13  6  1  0  0  0  0
 14  8  1  0  0  0  0
 15 12  1  0  0  0  0
 16 13  1  0  0  0  0
 17 14  1  0  0  0  0
 18 11  1  0  0  0  0
 19  7  1  0  0  0  0
 20 11  1  0  0  0  0
 21 17  2  0  0  0  0
 22 17  1  0  0  0  0
 23 18  1  0  0  0  0
 24 19  2  0  0  0  0
 25 24  1  0  0  0  0
 26 21  1  0  0  0  0
 27 22  2  0  0  0  0
 28 27  1  0  0  0  0
  4  5  1  0  0  0  0
 20 25  2  0  0  0  0
 15  8  1  0  0  0  0
 26 28  2  0  0  0  0
M  END
>  <IDNUMBER>
F3325-0128

>  <Chemical_Name>
3-(4-benzylpiperazin-1-yl)-1-(2-methoxyphenyl)pyrrolidine-2,5-dione

>  <PriceCoeff>
1.00

>  <CAS>
299408-83-6

>  <MW>
379.45

>  <Description>
solid

>  <FSP3>
0.36

>  <clogP>
3.52

>  <TPSA>
53.09

>  <Acceptor>
5

>  <Donor>
2

>  <RotBonds>
5

>  <HAC>
28

>  <Collection>
General

>  <PPDS>
+

$$$$
F3325-0130
  Mrv2219 10102508112D          

 21 22  0  0  0  0            999 V2000
    3.0342   -3.0384    0.0000 N   0  0  0  0  0  0  0  0  0  0  0  0
    3.5503   -3.6877    0.0000 C   0  0  0  0  0  0  0  0  0  0  0  0
    3.4837   -2.3475    0.0000 C   0  0  0  0  0  0  0  0  0  0  0  0
    4.3202   -3.3963    0.0000 C   0  0  0  0  0  0  0  0  0  0  0  0
    4.2828   -2.5639    0.0000 C   0  0  0  0  0  0  0  0  0  0  0  0
    5.0570   -3.7751    0.0000 N   0  0  0  0  0  0  0  0  0  0  0  0
    3.3339   -4.4826    0.0000 O   0  0  0  0  0  0  0  0  0  0  0  0
    3.1882   -1.5775    0.0000 O   0  0  0  0  0  0  0  0  0  0  0  0
    7.1421   -2.4265    0.0000 C   0  0  0  0  0  0  0  0  0  0  0  0
    7.8331   -1.9853    0.0000 N   0  0  0  0  0  0  0  0  0  0  0  0
    5.7562   -3.3256    0.0000 C   0  0  0  0  0  0  0  0  0  0  0  0
    6.4097   -2.0520    0.0000 C   0  0  0  0  0  0  0  0  0  0  0  0
    7.1838   -3.2589    0.0000 C   0  0  0  0  0  0  0  0  0  0  0  0
    2.2101   -3.0841    0.0000 C   0  0  0  0  0  0  0  0  0  0  0  0
    6.4846   -3.7002    0.0000 C   0  0  0  0  0  0  0  0  0  0  0  0
    5.7187   -2.5014    0.0000 C   0  0  0  0  0  0  0  0  0  0  0  0
    8.5699   -2.3599    0.0000 C   0  0  0  0  0  0  0  0  0  0  0  0
    7.7957   -1.1612    0.0000 C   0  0  0  0  0  0  0  0  0  0  0  0
    1.7648   -2.3890    0.0000 C   0  0  0  0  0  0  0  0  0  0  0  0
    0.9406   -2.4265    0.0000 C   0  0  0  0  0  0  0  0  0  0  0  0
    0.4912   -1.7398    0.0000 C   0  0  0  0  0  0  0  0  0  0  0  0
  2  1  1  0  0  0  0
  3  1  1  0  0  0  0
  4  2  1  0  0  0  0
  5  3  1  0  0  0  0
  6  4  1  0  0  0  0
  7  2  2  0  0  0  0
  8  3  2  0  0  0  0
  9 12  2  0  0  0  0
 10  9  1  0  0  0  0
 11  6  1  0  0  0  0
 12 16  1  0  0  0  0
 13 15  2  0  0  0  0
 14  1  1  0  0  0  0
 15 11  1  0  0  0  0
 16 11  2  0  0  0  0
 17 10  1  0  0  0  0
 18 10  1  0  0  0  0
 19 14  1  0  0  0  0
 20 19  1  0  0  0  0
 21 20  1  0  0  0  0
  5  4  1  0  0  0  0
 13  9  1  0  0  0  0
M  END
>  <IDNUMBER>
F3325-0130

>  <Chemical_Name>
1-butyl-3-{[4-(dimethylamino)phenyl]amino}pyrrolidine-2,5-dione

>  <PriceCoeff>
1.00

>  <CAS>
1025395-87-2

>  <MW>
289.37

>  <Description>
solid

>  <FSP3>
0.50

>  <clogP>
3.41

>  <TPSA>
52.65

>  <Acceptor>
4

>  <Donor>
2

>  <RotBonds>
6

>  <HAC>
21

>  <Collection>
General

>  <PPDS>
+

$$$$
F3325-0131
  Mrv2219 10102508112D          

 27 29  0  0  0  0            999 V2000
    3.0342   -3.0384    0.0000 N   0  0  0  0  0  0  0  0  0  0  0  0
    3.4837   -2.3475    0.0000 C   0  0  0  0  0  0  0  0  0  0  0  0
    3.5503   -3.6877    0.0000 C   0  0  0  0  0  0  0  0  0  0  0  0
    4.3202   -3.3963    0.0000 C   0  0  0  0  0  0  0  0  0  0  0  0
    4.2828   -2.5639    0.0000 C   0  0  0  0  0  0  0  0  0  0  0  0
    5.0570   -3.7751    0.0000 N   0  0  0  0  0  0  0  0  0  0  0  0
    2.2101   -3.0841    0.0000 C   0  0  0  0  0  0  0  0  0  0  0  0
   -0.2580   -3.2007    0.0000 C   0  0  0  0  0  0  0  0  0  0  0  0
    3.1882   -1.5775    0.0000 O   0  0  0  0  0  0  0  0  0  0  0  0
    3.3339   -4.4826    0.0000 O   0  0  0  0  0  0  0  0  0  0  0  0
    0.5661   -3.1632    0.0000 C   0  0  0  0  0  0  0  0  0  0  0  0
    7.1421   -2.4265    0.0000 C   0  0  0  0  0  0  0  0  0  0  0  0
    7.8331   -1.9853    0.0000 N   0  0  0  0  0  0  0  0  0  0  0  0
   -0.7076   -2.5097    0.0000 O   0  0  0  0  0  0  0  0  0  0  0  0
    1.7648   -2.3848    0.0000 C   0  0  0  0  0  0  0  0  0  0  0  0
    1.8397   -3.8126    0.0000 C   0  0  0  0  0  0  0  0  0  0  0  0
    1.0156   -3.8500    0.0000 C   0  0  0  0  0  0  0  0  0  0  0  0
    0.9406   -2.4265    0.0000 C   0  0  0  0  0  0  0  0  0  0  0  0
    5.7562   -3.3256    0.0000 C   0  0  0  0  0  0  0  0  0  0  0  0
    6.4097   -2.0520    0.0000 C   0  0  0  0  0  0  0  0  0  0  0  0
    7.1838   -3.2589    0.0000 C   0  0  0  0  0  0  0  0  0  0  0  0
   -0.6326   -3.9373    0.0000 O   0  0  0  0  0  0  0  0  0  0  0  0
    6.4846   -3.7002    0.0000 C   0  0  0  0  0  0  0  0  0  0  0  0
    5.7187   -2.5014    0.0000 C   0  0  0  0  0  0  0  0  0  0  0  0
    8.5699   -2.3599    0.0000 C   0  0  0  0  0  0  0  0  0  0  0  0
    7.7957   -1.1612    0.0000 C   0  0  0  0  0  0  0  0  0  0  0  0
   -1.4567   -3.9748    0.0000 C   0  0  0  0  0  0  0  0  0  0  0  0
  2  1  1  0  0  0  0
  3  1  1  0  0  0  0
  4  3  1  0  0  0  0
  5  2  1  0  0  0  0
  6  4  1  0  0  0  0
  7  1  1  0  0  0  0
  8 11  1  0  0  0  0
  9  2  2  0  0  0  0
 10  3  2  0  0  0  0
 11 17  1  0  0  0  0
 12 20  2  0  0  0  0
 13 12  1  0  0  0  0
 14  8  2  0  0  0  0
 15  7  2  0  0  0  0
 16  7  1  0  0  0  0
 17 16  2  0  0  0  0
 18 15  1  0  0  0  0
 19  6  1  0  0  0  0
 20 24  1  0  0  0  0
 21 23  2  0  0  0  0
 22  8  1  0  0  0  0
 23 19  1  0  0  0  0
 24 19  2  0  0  0  0
 25 13  1  0  0  0  0
 26 13  1  0  0  0  0
 27 22  1  0  0  0  0
  5  4  1  0  0  0  0
 18 11  2  0  0  0  0
 21 12  1  0  0  0  0
M  END
>  <IDNUMBER>
F3325-0131

>  <Chemical_Name>
methyl 4-(3-{[4-(dimethylamino)phenyl]amino}-2,5-dioxopyrrolidin-1-yl)benzoate

>  <PriceCoeff>
1.00

>  <CAS>
1025395-90-7

>  <MW>
367.40

>  <Description>
solid

>  <FSP3>
0.25

>  <clogP>
3.13

>  <TPSA>
78.95

>  <Acceptor>
6

>  <Donor>
2

>  <RotBonds>
6

>  <HAC>
27

>  <Collection>
General

>  <PPDS>
+

$$$$
F3325-0132
  Mrv2219 10102508112D          

 27 29  0  0  0  0            999 V2000
    3.0338   -3.0380    0.0000 N   0  0  0  0  0  0  0  0  0  0  0  0
    3.4833   -2.3471    0.0000 C   0  0  0  0  0  0  0  0  0  0  0  0
    3.5499   -3.6872    0.0000 C   0  0  0  0  0  0  0  0  0  0  0  0
    4.3198   -3.3959    0.0000 C   0  0  0  0  0  0  0  0  0  0  0  0
    4.2823   -2.5636    0.0000 C   0  0  0  0  0  0  0  0  0  0  0  0
    2.2098   -3.0838    0.0000 C   0  0  0  0  0  0  0  0  0  0  0  0
    0.4911   -1.7271    0.0000 C   0  0  0  0  0  0  0  0  0  0  0  0
    5.0563   -3.7746    0.0000 N   0  0  0  0  0  0  0  0  0  0  0  0
    0.9406   -2.4262    0.0000 C   0  0  0  0  0  0  0  0  0  0  0  0
    1.7645   -2.3846    0.0000 C   0  0  0  0  0  0  0  0  0  0  0  0
    3.1878   -1.5773    0.0000 O   0  0  0  0  0  0  0  0  0  0  0  0
    3.3334   -4.4821    0.0000 O   0  0  0  0  0  0  0  0  0  0  0  0
    7.1413   -2.4262    0.0000 C   0  0  0  0  0  0  0  0  0  0  0  0
    7.8322   -1.9851    0.0000 N   0  0  0  0  0  0  0  0  0  0  0  0
    0.0916   -1.1029    0.0000 F   0  0  0  0  0  0  0  0  0  0  0  0
    0.7615   -0.9156    0.0000 F   0  0  0  0  0  0  0  0  0  0  0  0
   -0.3578   -1.6397    0.0000 F   0  0  0  0  0  0  0  0  0  0  0  0
    5.7556   -3.3252    0.0000 C   0  0  0  0  0  0  0  0  0  0  0  0
    7.1829   -3.2585    0.0000 C   0  0  0  0  0  0  0  0  0  0  0  0
    6.4089   -2.0517    0.0000 C   0  0  0  0  0  0  0  0  0  0  0  0
    6.4838   -3.6997    0.0000 C   0  0  0  0  0  0  0  0  0  0  0  0
    5.7180   -2.5012    0.0000 C   0  0  0  0  0  0  0  0  0  0  0  0
    1.8395   -3.8120    0.0000 C   0  0  0  0  0  0  0  0  0  0  0  0
    0.5660   -3.1629    0.0000 C   0  0  0  0  0  0  0  0  0  0  0  0
    1.0155   -3.8495    0.0000 C   0  0  0  0  0  0  0  0  0  0  0  0
    7.7947   -1.1611    0.0000 C   0  0  0  0  0  0  0  0  0  0  0  0
    8.5688   -2.3596    0.0000 C   0  0  0  0  0  0  0  0  0  0  0  0
  2  1  1  0  0  0  0
  3  1  1  0  0  0  0
  4  3  1  0  0  0  0
  5  2  1  0  0  0  0
  6  1  1  0  0  0  0
  7  9  1  0  0  0  0
  8  4  1  0  0  0  0
  9 10  1  0  0  0  0
 10  6  2  0  0  0  0
 11  2  2  0  0  0  0
 12  3  2  0  0  0  0
 13 20  2  0  0  0  0
 14 13  1  0  0  0  0
 15  7  1  0  0  0  0
 16  7  1  0  0  0  0
 17  7  1  0  0  0  0
 18  8  1  0  0  0  0
 19 21  2  0  0  0  0
 20 22  1  0  0  0  0
 21 18  1  0  0  0  0
 22 18  2  0  0  0  0
 23  6  1  0  0  0  0
 24 25  1  0  0  0  0
 25 23  2  0  0  0  0
 26 14  1  0  0  0  0
 27 14  1  0  0  0  0
  5  4  1  0  0  0  0
  9 24  2  0  0  0  0
 19 13  1  0  0  0  0
M  END
>  <IDNUMBER>
F3325-0132

>  <Chemical_Name>
3-{[4-(dimethylamino)phenyl]amino}-1-[3-(trifluoromethyl)phenyl]pyrrolidine-2,5-dione

>  <PriceCoeff>
1.00

>  <CAS>
1025395-91-8

>  <MW>
377.36

>  <Description>
solid

>  <FSP3>
0.26

>  <clogP>
4.02

>  <TPSA>
52.65

>  <Acceptor>
4

>  <Donor>
2

>  <RotBonds>
4

>  <HAC>
27

>  <Collection>
General

>  <PPDS>
+

$$$$
F3325-0133
  Mrv2219 10102508112D          

 25 27  0  0  0  0            999 V2000
    3.0342   -3.0384    0.0000 N   0  0  0  0  0  0  0  0  0  0  0  0
    3.5503   -3.6877    0.0000 C   0  0  0  0  0  0  0  0  0  0  0  0
    3.4837   -2.3475    0.0000 C   0  0  0  0  0  0  0  0  0  0  0  0
    4.3202   -3.3963    0.0000 C   0  0  0  0  0  0  0  0  0  0  0  0
    4.2828   -2.5639    0.0000 C   0  0  0  0  0  0  0  0  0  0  0  0
    2.2101   -3.0841    0.0000 C   0  0  0  0  0  0  0  0  0  0  0  0
    5.0570   -3.7751    0.0000 N   0  0  0  0  0  0  0  0  0  0  0  0
    3.3339   -4.4826    0.0000 O   0  0  0  0  0  0  0  0  0  0  0  0
    3.1882   -1.5775    0.0000 O   0  0  0  0  0  0  0  0  0  0  0  0
    7.1421   -2.4265    0.0000 C   0  0  0  0  0  0  0  0  0  0  0  0
    7.8331   -1.9853    0.0000 N   0  0  0  0  0  0  0  0  0  0  0  0
    5.7562   -3.3256    0.0000 C   0  0  0  0  0  0  0  0  0  0  0  0
    7.1838   -3.2589    0.0000 C   0  0  0  0  0  0  0  0  0  0  0  0
    6.4097   -2.0520    0.0000 C   0  0  0  0  0  0  0  0  0  0  0  0
    1.7648   -2.3890    0.0000 C   0  0  0  0  0  0  0  0  0  0  0  0
    5.7187   -2.5014    0.0000 C   0  0  0  0  0  0  0  0  0  0  0  0
    6.4846   -3.7002    0.0000 C   0  0  0  0  0  0  0  0  0  0  0  0
    0.9406   -2.4265    0.0000 C   0  0  0  0  0  0  0  0  0  0  0  0
    8.5699   -2.3599    0.0000 C   0  0  0  0  0  0  0  0  0  0  0  0
    7.7957   -1.1612    0.0000 C   0  0  0  0  0  0  0  0  0  0  0  0
    0.4912   -1.7356    0.0000 C   0  0  0  0  0  0  0  0  0  0  0  0
    0.5661   -3.1632    0.0000 C   0  0  0  0  0  0  0  0  0  0  0  0
   -0.2497   -3.2007    0.0000 C   0  0  0  0  0  0  0  0  0  0  0  0
   -0.3247   -1.7773    0.0000 C   0  0  0  0  0  0  0  0  0  0  0  0
   -0.7076   -2.5097    0.0000 C   0  0  0  0  0  0  0  0  0  0  0  0
  2  1  1  0  0  0  0
  3  1  1  0  0  0  0
  4  2  1  0  0  0  0
  5  3  1  0  0  0  0
  6  1  1  0  0  0  0
  7  4  1  0  0  0  0
  8  2  2  0  0  0  0
  9  3  2  0  0  0  0
 10 13  1  0  0  0  0
 11 10  1  0  0  0  0
 12  7  1  0  0  0  0
 13 17  2  0  0  0  0
 14 16  1  0  0  0  0
 15  6  1  0  0  0  0
 16 12  2  0  0  0  0
 17 12  1  0  0  0  0
 18 15  1  0  0  0  0
 19 11  1  0  0  0  0
 20 11  1  0  0  0  0
 21 18  2  0  0  0  0
 22 18  1  0  0  0  0
 23 22  2  0  0  0  0
 24 21  1  0  0  0  0
 25 23  1  0  0  0  0
  5  4  1  0  0  0  0
 24 25  2  0  0  0  0
 10 14  2  0  0  0  0
M  END
>  <IDNUMBER>
F3325-0133

>  <Chemical_Name>
3-{[4-(dimethylamino)phenyl]amino}-1-(2-phenylethyl)pyrrolidine-2,5-dione

>  <PriceCoeff>
1.00

>  <CAS>
1025395-93-0

>  <MW>
337.42

>  <Description>
solid

>  <FSP3>
0.30

>  <clogP>
3.92

>  <TPSA>
52.65

>  <Acceptor>
4

>  <Donor>
2

>  <RotBonds>
6

>  <HAC>
25

>  <Collection>
General

>  <PPDS>
+

$$$$
F3325-0134
  Mrv2219 10102508112D          

 20 21  0  0  0  0            999 V2000
    3.0342   -3.0384    0.0000 N   0  0  0  0  0  0  0  0  0  0  0  0
    3.5503   -3.6877    0.0000 C   0  0  0  0  0  0  0  0  0  0  0  0
    3.4837   -2.3475    0.0000 C   0  0  0  0  0  0  0  0  0  0  0  0
    4.3202   -3.3963    0.0000 C   0  0  0  0  0  0  0  0  0  0  0  0
    4.2828   -2.5639    0.0000 C   0  0  0  0  0  0  0  0  0  0  0  0
    5.0570   -3.7751    0.0000 N   0  0  0  0  0  0  0  0  0  0  0  0
    3.3339   -4.4826    0.0000 O   0  0  0  0  0  0  0  0  0  0  0  0
    3.1882   -1.5775    0.0000 O   0  0  0  0  0  0  0  0  0  0  0  0
    7.1421   -2.4265    0.0000 C   0  0  0  0  0  0  0  0  0  0  0  0
    7.8331   -1.9853    0.0000 N   0  0  0  0  0  0  0  0  0  0  0  0
    2.2101   -3.0841    0.0000 C   0  0  0  0  0  0  0  0  0  0  0  0
    1.7648   -2.3890    0.0000 C   0  0  0  0  0  0  0  0  0  0  0  0
    5.7562   -3.3256    0.0000 C   0  0  0  0  0  0  0  0  0  0  0  0
    6.4097   -2.0520    0.0000 C   0  0  0  0  0  0  0  0  0  0  0  0
    7.1838   -3.2589    0.0000 C   0  0  0  0  0  0  0  0  0  0  0  0
    0.9406   -2.4265    0.0000 C   0  0  0  0  0  0  0  0  0  0  0  0
    6.4846   -3.7002    0.0000 C   0  0  0  0  0  0  0  0  0  0  0  0
    5.7187   -2.5014    0.0000 C   0  0  0  0  0  0  0  0  0  0  0  0
    8.5699   -2.3599    0.0000 C   0  0  0  0  0  0  0  0  0  0  0  0
    7.7957   -1.1612    0.0000 C   0  0  0  0  0  0  0  0  0  0  0  0
  2  1  1  0  0  0  0
  3  1  1  0  0  0  0
  4  2  1  0  0  0  0
  5  3  1  0  0  0  0
  6  4  1  0  0  0  0
  7  2  2  0  0  0  0
  8  3  2  0  0  0  0
  9 14  2  0  0  0  0
 10  9  1  0  0  0  0
 11  1  1  0  0  0  0
 12 11  1  0  0  0  0
 13  6  1  0  0  0  0
 14 18  1  0  0  0  0
 15 17  2  0  0  0  0
 16 12  2  0  0  0  0
 17 13  1  0  0  0  0
 18 13  2  0  0  0  0
 19 10  1  0  0  0  0
 20 10  1  0  0  0  0
  5  4  1  0  0  0  0
 15  9  1  0  0  0  0
M  END
>  <IDNUMBER>
F3325-0134

>  <Chemical_Name>
3-{[4-(dimethylamino)phenyl]amino}-1-(prop-2-en-1-yl)pyrrolidine-2,5-dione

>  <PriceCoeff>
1.00

>  <CAS>
1025396-01-3

>  <MW>
273.33

>  <Description>
solid

>  <FSP3>
0.33

>  <clogP>
2.59

>  <TPSA>
52.65

>  <Acceptor>
4

>  <Donor>
2

>  <RotBonds>
5

>  <HAC>
20

>  <Collection>
General

>  <PPDS>
+

$$$$
F3325-0135
  Mrv2219 10102508112D          

 24 26  0  0  0  0            999 V2000
    3.0336   -3.0378    0.0000 N   0  0  0  0  0  0  0  0  0  0  0  0
    3.5496   -3.6870    0.0000 C   0  0  0  0  0  0  0  0  0  0  0  0
    3.4830   -2.3470    0.0000 C   0  0  0  0  0  0  0  0  0  0  0  0
    4.3194   -3.3956    0.0000 C   0  0  0  0  0  0  0  0  0  0  0  0
    4.2820   -2.5634    0.0000 C   0  0  0  0  0  0  0  0  0  0  0  0
    5.0560   -3.7743    0.0000 N   0  0  0  0  0  0  0  0  0  0  0  0
    2.2097   -3.0835    0.0000 C   0  0  0  0  0  0  0  0  0  0  0  0
    3.3332   -4.4817    0.0000 O   0  0  0  0  0  0  0  0  0  0  0  0
    3.1876   -1.5772    0.0000 O   0  0  0  0  0  0  0  0  0  0  0  0
    7.1408   -2.4261    0.0000 C   0  0  0  0  0  0  0  0  0  0  0  0
    7.8316   -1.9849    0.0000 N   0  0  0  0  0  0  0  0  0  0  0  0
    5.7551   -3.3249    0.0000 C   0  0  0  0  0  0  0  0  0  0  0  0
    7.1825   -3.2583    0.0000 C   0  0  0  0  0  0  0  0  0  0  0  0
    6.4085   -2.0516    0.0000 C   0  0  0  0  0  0  0  0  0  0  0  0
    1.7644   -2.3886    0.0000 C   0  0  0  0  0  0  0  0  0  0  0  0
    5.7176   -2.5010    0.0000 C   0  0  0  0  0  0  0  0  0  0  0  0
    6.4834   -3.6994    0.0000 C   0  0  0  0  0  0  0  0  0  0  0  0
    7.7942   -1.1610    0.0000 C   0  0  0  0  0  0  0  0  0  0  0  0
    8.5682   -2.3595    0.0000 C   0  0  0  0  0  0  0  0  0  0  0  0
    2.1389   -1.6604    0.0000 C   0  0  0  0  0  0  0  0  0  0  0  0
    0.9405   -2.4344    0.0000 C   0  0  0  0  0  0  0  0  0  0  0  0
    0.4911   -1.7478    0.0000 C   0  0  0  0  0  0  0  0  0  0  0  0
    1.6895   -0.9655    0.0000 C   0  0  0  0  0  0  0  0  0  0  0  0
    0.8656   -1.0029    0.0000 C   0  0  0  0  0  0  0  0  0  0  0  0
  2  1  1  0  0  0  0
  3  1  1  0  0  0  0
  4  2  1  0  0  0  0
  5  3  1  0  0  0  0
  6  4  1  0  0  0  0
  7  1  1  0  0  0  0
  8  2  2  0  0  0  0
  9  3  2  0  0  0  0
 10 13  1  0  0  0  0
 11 10  1  0  0  0  0
 12  6  1  0  0  0  0
 13 17  2  0  0  0  0
 14 16  1  0  0  0  0
 15  7  1  0  0  0  0
 16 12  2  0  0  0  0
 17 12  1  0  0  0  0
 18 11  1  0  0  0  0
 19 11  1  0  0  0  0
 20 15  2  0  0  0  0
 21 15  1  0  0  0  0
 22 21  2  0  0  0  0
 23 20  1  0  0  0  0
 24 22  1  0  0  0  0
  5  4  1  0  0  0  0
 23 24  2  0  0  0  0
 10 14  2  0  0  0  0
M  END
>  <IDNUMBER>
F3325-0135

>  <Chemical_Name>
1-benzyl-3-{[4-(dimethylamino)phenyl]amino}pyrrolidine-2,5-dione

>  <PriceCoeff>
1.00

>  <CAS>
1025396-05-7

>  <MW>
323.39

>  <Description>
solid

>  <FSP3>
0.26

>  <clogP>
3.40

>  <TPSA>
52.65

>  <Acceptor>
4

>  <Donor>
2

>  <RotBonds>
5

>  <HAC>
24

>  <Collection>
General

>  <PPDS>
+

$$$$
F3325-0136
  Mrv2219 10102508112D          

 24 26  0  0  0  0            999 V2000
    3.0342   -3.0384    0.0000 N   0  0  0  0  0  0  0  0  0  0  0  0
    3.4837   -2.3475    0.0000 C   0  0  0  0  0  0  0  0  0  0  0  0
    3.5503   -3.6877    0.0000 C   0  0  0  0  0  0  0  0  0  0  0  0
    4.3202   -3.3963    0.0000 C   0  0  0  0  0  0  0  0  0  0  0  0
    4.2828   -2.5639    0.0000 C   0  0  0  0  0  0  0  0  0  0  0  0
    2.2101   -3.0841    0.0000 C   0  0  0  0  0  0  0  0  0  0  0  0
    5.0570   -3.7751    0.0000 N   0  0  0  0  0  0  0  0  0  0  0  0
    3.1882   -1.5775    0.0000 O   0  0  0  0  0  0  0  0  0  0  0  0
    3.3339   -4.4826    0.0000 O   0  0  0  0  0  0  0  0  0  0  0  0
    7.1421   -2.4265    0.0000 C   0  0  0  0  0  0  0  0  0  0  0  0
    1.7648   -2.3848    0.0000 C   0  0  0  0  0  0  0  0  0  0  0  0
    7.8331   -1.9853    0.0000 N   0  0  0  0  0  0  0  0  0  0  0  0
    5.7562   -3.3256    0.0000 C   0  0  0  0  0  0  0  0  0  0  0  0
    6.4097   -2.0520    0.0000 C   0  0  0  0  0  0  0  0  0  0  0  0
    7.1838   -3.2589    0.0000 C   0  0  0  0  0  0  0  0  0  0  0  0
    2.1394   -1.6524    0.0000 Cl  0  0  0  0  0  0  0  0  0  0  0  0
    6.4846   -3.7002    0.0000 C   0  0  0  0  0  0  0  0  0  0  0  0
    5.7187   -2.5014    0.0000 C   0  0  0  0  0  0  0  0  0  0  0  0
    1.8397   -3.8126    0.0000 C   0  0  0  0  0  0  0  0  0  0  0  0
    7.7957   -1.1612    0.0000 C   0  0  0  0  0  0  0  0  0  0  0  0
    8.5699   -2.3599    0.0000 C   0  0  0  0  0  0  0  0  0  0  0  0
    0.9406   -2.4265    0.0000 C   0  0  0  0  0  0  0  0  0  0  0  0
    1.0156   -3.8500    0.0000 C   0  0  0  0  0  0  0  0  0  0  0  0
    0.5661   -3.1632    0.0000 C   0  0  0  0  0  0  0  0  0  0  0  0
  2  1  1  0  0  0  0
  3  1  1  0  0  0  0
  4  3  1  0  0  0  0
  5  2  1  0  0  0  0
  6  1  1  0  0  0  0
  7  4  1  0  0  0  0
  8  2  2  0  0  0  0
  9  3  2  0  0  0  0
 10 14  2  0  0  0  0
 11  6  2  0  0  0  0
 12 10  1  0  0  0  0
 13  7  1  0  0  0  0
 14 18  1  0  0  0  0
 15 17  2  0  0  0  0
 16 11  1  0  0  0  0
 17 13  1  0  0  0  0
 18 13  2  0  0  0  0
 19  6  1  0  0  0  0
 20 12  1  0  0  0  0
 21 12  1  0  0  0  0
 22 11  1  0  0  0  0
 23 19  2  0  0  0  0
 24 23  1  0  0  0  0
  5  4  1  0  0  0  0
 22 24  2  0  0  0  0
 15 10  1  0  0  0  0
M  END
>  <IDNUMBER>
F3325-0136

>  <Chemical_Name>
1-(2-chlorophenyl)-3-{[4-(dimethylamino)phenyl]amino}pyrrolidine-2,5-dione

>  <PriceCoeff>
1.00

>  <CAS>
1025396-09-1

>  <MW>
343.81

>  <Description>
solid

>  <FSP3>
0.22

>  <clogP>
3.24

>  <TPSA>
52.65

>  <Acceptor>
4

>  <Donor>
2

>  <RotBonds>
4

>  <HAC>
24

>  <Collection>
General

>  <PPDS>
+

$$$$
F3325-0150
  Mrv2219 10102508112D          

 28 31  0  0  0  0            999 V2000
    2.0022   -2.4394    0.0000 N   0  0  0  0  0  0  0  0  0  0  0  0
    2.5268   -3.0845    0.0000 C   0  0  0  0  0  0  0  0  0  0  0  0
    2.4602   -1.7400    0.0000 C   0  0  0  0  0  0  0  0  0  0  0  0
    3.3010   -2.7890    0.0000 C   0  0  0  0  0  0  0  0  0  0  0  0
    3.2635   -1.9648    0.0000 C   0  0  0  0  0  0  0  0  0  0  0  0
    4.0378   -3.1636    0.0000 N   0  0  0  0  0  0  0  0  0  0  0  0
    1.1864   -2.4768    0.0000 C   0  0  0  0  0  0  0  0  0  0  0  0
    5.4988   -3.9129    0.0000 N   0  0  0  0  0  0  0  0  0  0  0  0
    2.3144   -3.8754    0.0000 O   0  0  0  0  0  0  0  0  0  0  0  0
    2.1646   -0.9741    0.0000 O   0  0  0  0  0  0  0  0  0  0  0  0
    4.7246   -2.7141    0.0000 C   0  0  0  0  0  0  0  0  0  0  0  0
    4.0753   -3.9837    0.0000 C   0  0  0  0  0  0  0  0  0  0  0  0
    4.7995   -4.3583    0.0000 C   0  0  0  0  0  0  0  0  0  0  0  0
    5.4572   -3.0887    0.0000 C   0  0  0  0  0  0  0  0  0  0  0  0
    0.7409   -1.7775    0.0000 C   0  0  0  0  0  0  0  0  0  0  0  0
    6.2232   -4.2876    0.0000 C   0  0  0  0  0  0  0  0  0  0  0  0
    1.1489   -1.0657    0.0000 O   0  0  0  0  0  0  0  0  0  0  0  0
    0.8160   -3.2094    0.0000 C   0  0  0  0  0  0  0  0  0  0  0  0
    6.2606   -5.1117    0.0000 C   0  0  0  0  0  0  0  0  0  0  0  0
    6.9183   -3.8462    0.0000 C   0  0  0  0  0  0  0  0  0  0  0  0
   -0.0832   -1.8232    0.0000 C   0  0  0  0  0  0  0  0  0  0  0  0
    0.7284   -0.3496    0.0000 C   0  0  0  0  0  0  0  0  0  0  0  0
   -0.0083   -3.2510    0.0000 C   0  0  0  0  0  0  0  0  0  0  0  0
   -0.0957   -0.3496    0.0000 C   0  0  0  0  0  0  0  0  0  0  0  0
   -0.4578   -2.5601    0.0000 C   0  0  0  0  0  0  0  0  0  0  0  0
    6.9974   -5.4863    0.0000 C   0  0  0  0  0  0  0  0  0  0  0  0
    7.6468   -4.2127    0.0000 C   0  0  0  0  0  0  0  0  0  0  0  0
    7.6926   -5.0451    0.0000 C   0  0  0  0  0  0  0  0  0  0  0  0
  2  1  1  0  0  0  0
  3  1  1  0  0  0  0
  4  2  1  0  0  0  0
  5  3  1  0  0  0  0
  6  4  1  0  0  0  0
  7  1  1  0  0  0  0
  8 13  1  0  0  0  0
  9  2  2  0  0  0  0
 10  3  2  0  0  0  0
 11  6  1  0  0  0  0
 12  6  1  0  0  0  0
 13 12  1  0  0  0  0
 14 11  1  0  0  0  0
 15  7  2  0  0  0  0
 16  8  1  0  0  0  0
 17 15  1  0  0  0  0
 18  7  1  0  0  0  0
 19 16  2  0  0  0  0
 20 16  1  0  0  0  0
 21 15  1  0  0  0  0
 22 17  1  0  0  0  0
 23 18  2  0  0  0  0
 24 22  1  0  0  0  0
 25 23  1  0  0  0  0
 26 19  1  0  0  0  0
 27 20  2  0  0  0  0
 28 27  1  0  0  0  0
  5  4  1  0  0  0  0
 21 25  2  0  0  0  0
  8 14  1  0  0  0  0
 26 28  2  0  0  0  0
M  END
>  <IDNUMBER>
F3325-0150

>  <Chemical_Name>
1-(2-ethoxyphenyl)-3-(4-phenylpiperazin-1-yl)pyrrolidine-2,5-dione

>  <PriceCoeff>
1.00

>  <CAS>
924865-57-6

>  <MW>
379.45

>  <Description>
solid

>  <FSP3>
0.36

>  <clogP>
3.76

>  <TPSA>
53.09

>  <Acceptor>
4

>  <Donor>
2

>  <RotBonds>
5

>  <HAC>
28

>  <Collection>
General

>  <PPDS>
+

$$$$
F3325-0151
  Mrv2219 10102508112D          

 22 24  0  0  0  0            999 V2000
    2.0022   -2.4394    0.0000 N   0  0  0  0  0  0  0  0  0  0  0  0
    2.5268   -3.0845    0.0000 C   0  0  0  0  0  0  0  0  0  0  0  0
    2.4602   -1.7400    0.0000 C   0  0  0  0  0  0  0  0  0  0  0  0
    3.3010   -2.7890    0.0000 C   0  0  0  0  0  0  0  0  0  0  0  0
    3.2635   -1.9648    0.0000 C   0  0  0  0  0  0  0  0  0  0  0  0
    4.0378   -3.1636    0.0000 N   0  0  0  0  0  0  0  0  0  0  0  0
    5.4988   -3.9129    0.0000 N   0  0  0  0  0  0  0  0  0  0  0  0
    2.3144   -3.8754    0.0000 O   0  0  0  0  0  0  0  0  0  0  0  0
    2.1646   -0.9741    0.0000 O   0  0  0  0  0  0  0  0  0  0  0  0
    4.0753   -3.9837    0.0000 C   0  0  0  0  0  0  0  0  0  0  0  0
    4.7246   -2.7141    0.0000 C   0  0  0  0  0  0  0  0  0  0  0  0
    5.4572   -3.0887    0.0000 C   0  0  0  0  0  0  0  0  0  0  0  0
    4.7995   -4.3583    0.0000 C   0  0  0  0  0  0  0  0  0  0  0  0
    6.2232   -4.2876    0.0000 C   0  0  0  0  0  0  0  0  0  0  0  0
    1.1864   -2.4768    0.0000 C   0  0  0  0  0  0  0  0  0  0  0  0
    6.9183   -3.8462    0.0000 C   0  0  0  0  0  0  0  0  0  0  0  0
    6.2606   -5.1117    0.0000 C   0  0  0  0  0  0  0  0  0  0  0  0
    0.7409   -1.7858    0.0000 C   0  0  0  0  0  0  0  0  0  0  0  0
   -0.0832   -1.8274    0.0000 C   0  0  0  0  0  0  0  0  0  0  0  0
    6.9974   -5.4863    0.0000 C   0  0  0  0  0  0  0  0  0  0  0  0
    7.6468   -4.2127    0.0000 C   0  0  0  0  0  0  0  0  0  0  0  0
    7.6926   -5.0451    0.0000 C   0  0  0  0  0  0  0  0  0  0  0  0
  2  1  1  0  0  0  0
  3  1  1  0  0  0  0
  4  2  1  0  0  0  0
  5  3  1  0  0  0  0
  6  4  1  0  0  0  0
  7 12  1  0  0  0  0
  8  2  2  0  0  0  0
  9  3  2  0  0  0  0
 10  6  1  0  0  0  0
 11  6  1  0  0  0  0
 12 11  1  0  0  0  0
 13 10  1  0  0  0  0
 14  7  1  0  0  0  0
 15  1  1  0  0  0  0
 16 14  1  0  0  0  0
 17 14  2  0  0  0  0
 18 15  1  0  0  0  0
 19 18  1  0  0  0  0
 20 17  1  0  0  0  0
 21 16  2  0  0  0  0
 22 20  2  0  0  0  0
  5  4  1  0  0  0  0
 13  7  1  0  0  0  0
 21 22  1  0  0  0  0
M  END
>  <IDNUMBER>
F3325-0151

>  <Chemical_Name>
3-(4-phenylpiperazin-1-yl)-1-propylpyrrolidine-2,5-dione

>  <PriceCoeff>
1.00

>  <CAS>
924861-22-3

>  <MW>
301.38

>  <Description>
solid

>  <FSP3>
0.53

>  <clogP>
3.41

>  <TPSA>
43.86

>  <Acceptor>
3

>  <Donor>
2

>  <RotBonds>
4

>  <HAC>
22

>  <Collection>
General

>  <PPDS>
+

$$$$
F3325-0153
  Mrv2219 10102508112D          

 27 30  0  0  0  0            999 V2000
    2.0021   -2.4392    0.0000 N   0  0  0  0  0  0  0  0  0  0  0  0
    2.5266   -3.0843    0.0000 C   0  0  0  0  0  0  0  0  0  0  0  0
    2.4600   -1.7399    0.0000 C   0  0  0  0  0  0  0  0  0  0  0  0
    3.3008   -2.7888    0.0000 C   0  0  0  0  0  0  0  0  0  0  0  0
    3.2633   -1.9647    0.0000 C   0  0  0  0  0  0  0  0  0  0  0  0
    1.1863   -2.4766    0.0000 C   0  0  0  0  0  0  0  0  0  0  0  0
    4.0375   -3.1634    0.0000 N   0  0  0  0  0  0  0  0  0  0  0  0
    5.4985   -3.9127    0.0000 N   0  0  0  0  0  0  0  0  0  0  0  0
    0.7409   -1.7774    0.0000 C   0  0  0  0  0  0  0  0  0  0  0  0
    2.3143   -3.8752    0.0000 O   0  0  0  0  0  0  0  0  0  0  0  0
    0.8159   -3.2092    0.0000 C   0  0  0  0  0  0  0  0  0  0  0  0
    2.1645   -0.9740    0.0000 O   0  0  0  0  0  0  0  0  0  0  0  0
    4.7243   -2.7139    0.0000 C   0  0  0  0  0  0  0  0  0  0  0  0
    4.0750   -3.9834    0.0000 C   0  0  0  0  0  0  0  0  0  0  0  0
    4.7992   -4.3580    0.0000 C   0  0  0  0  0  0  0  0  0  0  0  0
    5.4569   -3.0885    0.0000 C   0  0  0  0  0  0  0  0  0  0  0  0
   -0.0832   -1.8231    0.0000 C   0  0  0  0  0  0  0  0  0  0  0  0
    6.2228   -4.2873    0.0000 C   0  0  0  0  0  0  0  0  0  0  0  0
   -0.0083   -3.2508    0.0000 C   0  0  0  0  0  0  0  0  0  0  0  0
   -0.4578   -2.5599    0.0000 C   0  0  0  0  0  0  0  0  0  0  0  0
    1.1155   -1.0531    0.0000 C   0  0  0  0  0  0  0  0  0  0  0  0
    6.9179   -3.8460    0.0000 C   0  0  0  0  0  0  0  0  0  0  0  0
    6.2602   -5.1114    0.0000 C   0  0  0  0  0  0  0  0  0  0  0  0
   -1.2820   -2.6015    0.0000 C   0  0  0  0  0  0  0  0  0  0  0  0
    7.6463   -4.2124    0.0000 C   0  0  0  0  0  0  0  0  0  0  0  0
    6.9970   -5.4860    0.0000 C   0  0  0  0  0  0  0  0  0  0  0  0
    7.6921   -5.0448    0.0000 C   0  0  0  0  0  0  0  0  0  0  0  0
  2  1  1  0  0  0  0
  3  1  1  0  0  0  0
  4  2  1  0  0  0  0
  5  3  1  0  0  0  0
  6  1  1  0  0  0  0
  7  4  1  0  0  0  0
  8 15  1  0  0  0  0
  9  6  2  0  0  0  0
 10  2  2  0  0  0  0
 11  6  1  0  0  0  0
 12  3  2  0  0  0  0
 13  7  1  0  0  0  0
 14  7  1  0  0  0  0
 15 14  1  0  0  0  0
 16 13  1  0  0  0  0
 17  9  1  0  0  0  0
 18  8  1  0  0  0  0
 19 11  2  0  0  0  0
 20 19  1  0  0  0  0
 21  9  1  0  0  0  0
 22 18  1  0  0  0  0
 23 18  2  0  0  0  0
 24 20  1  0  0  0  0
 25 22  2  0  0  0  0
 26 23  1  0  0  0  0
 27 26  2  0  0  0  0
  5  4  1  0  0  0  0
 17 20  2  0  0  0  0
 16  8  1  0  0  0  0
 27 25  1  0  0  0  0
M  END
>  <IDNUMBER>
F3325-0153

>  <Chemical_Name>
1-(2,4-dimethylphenyl)-3-(4-phenylpiperazin-1-yl)pyrrolidine-2,5-dione

>  <PriceCoeff>
1.00

>  <CAS>
313377-73-0

>  <MW>
363.45

>  <Description>
solid

>  <FSP3>
0.36

>  <clogP>
3.74

>  <TPSA>
43.86

>  <Acceptor>
3

>  <Donor>
2

>  <RotBonds>
3

>  <HAC>
27

>  <Collection>
General

>  <PPDS>
+

$$$$
F3325-0155
  Mrv2219 10102508112D          

 26 29  0  0  0  0            999 V2000
    2.0022   -2.4394    0.0000 N   0  0  0  0  0  0  0  0  0  0  0  0
    2.5268   -3.0845    0.0000 C   0  0  0  0  0  0  0  0  0  0  0  0
    2.4602   -1.7400    0.0000 C   0  0  0  0  0  0  0  0  0  0  0  0
    3.3010   -2.7890    0.0000 C   0  0  0  0  0  0  0  0  0  0  0  0
    3.2635   -1.9648    0.0000 C   0  0  0  0  0  0  0  0  0  0  0  0
    4.0378   -3.1636    0.0000 N   0  0  0  0  0  0  0  0  0  0  0  0
    1.1864   -2.4768    0.0000 C   0  0  0  0  0  0  0  0  0  0  0  0
    5.4988   -3.9129    0.0000 N   0  0  0  0  0  0  0  0  0  0  0  0
    2.3144   -3.8754    0.0000 O   0  0  0  0  0  0  0  0  0  0  0  0
    2.1646   -0.9741    0.0000 O   0  0  0  0  0  0  0  0  0  0  0  0
    4.7246   -2.7141    0.0000 C   0  0  0  0  0  0  0  0  0  0  0  0
    4.0753   -3.9837    0.0000 C   0  0  0  0  0  0  0  0  0  0  0  0
    4.7995   -4.3583    0.0000 C   0  0  0  0  0  0  0  0  0  0  0  0
    5.4572   -3.0887    0.0000 C   0  0  0  0  0  0  0  0  0  0  0  0
    6.2232   -4.2876    0.0000 C   0  0  0  0  0  0  0  0  0  0  0  0
    0.7409   -1.7775    0.0000 C   0  0  0  0  0  0  0  0  0  0  0  0
    0.8160   -3.2094    0.0000 C   0  0  0  0  0  0  0  0  0  0  0  0
    1.1156   -1.0532    0.0000 C   0  0  0  0  0  0  0  0  0  0  0  0
    6.2606   -5.1117    0.0000 C   0  0  0  0  0  0  0  0  0  0  0  0
    6.9183   -3.8462    0.0000 C   0  0  0  0  0  0  0  0  0  0  0  0
   -0.0832   -1.8232    0.0000 C   0  0  0  0  0  0  0  0  0  0  0  0
   -0.0083   -3.2510    0.0000 C   0  0  0  0  0  0  0  0  0  0  0  0
    6.9974   -5.4863    0.0000 C   0  0  0  0  0  0  0  0  0  0  0  0
    7.6468   -4.2127    0.0000 C   0  0  0  0  0  0  0  0  0  0  0  0
   -0.4578   -2.5601    0.0000 C   0  0  0  0  0  0  0  0  0  0  0  0
    7.6926   -5.0451    0.0000 C   0  0  0  0  0  0  0  0  0  0  0  0
  2  1  1  0  0  0  0
  3  1  1  0  0  0  0
  4  2  1  0  0  0  0
  5  3  1  0  0  0  0
  6  4  1  0  0  0  0
  7  1  1  0  0  0  0
  8 13  1  0  0  0  0
  9  2  2  0  0  0  0
 10  3  2  0  0  0  0
 11  6  1  0  0  0  0
 12  6  1  0  0  0  0
 13 12  1  0  0  0  0
 14 11  1  0  0  0  0
 15  8  1  0  0  0  0
 16  7  2  0  0  0  0
 17  7  1  0  0  0  0
 18 16  1  0  0  0  0
 19 15  2  0  0  0  0
 20 15  1  0  0  0  0
 21 16  1  0  0  0  0
 22 17  2  0  0  0  0
 23 19  1  0  0  0  0
 24 20  2  0  0  0  0
 25 22  1  0  0  0  0
 26 24  1  0  0  0  0
  5  4  1  0  0  0  0
 21 25  2  0  0  0  0
 14  8  1  0  0  0  0
 23 26  2  0  0  0  0
M  END
>  <IDNUMBER>
F3325-0155

>  <Chemical_Name>
1-(2-methylphenyl)-3-(4-phenylpiperazin-1-yl)pyrrolidine-2,5-dione

>  <PriceCoeff>
1.00

>  <CAS>
500279-86-7

>  <MW>
349.43

>  <Description>
solid

>  <FSP3>
0.33

>  <clogP>
3.24

>  <TPSA>
43.86

>  <Acceptor>
3

>  <Donor>
2

>  <RotBonds>
3

>  <HAC>
26

>  <Collection>
General

>  <PPDS>
+

$$$$
F3325-0165
  Mrv2219 10102508112D          

 25 27  0  0  0  0            999 V2000
    8.8111   -3.1191    0.0000 N   0  3  0  0  0  0  0  0  0  0  0  0
    8.0980   -2.6938    0.0000 C   0  0  0  0  0  0  0  0  0  0  0  0
    3.1066   -1.4261    0.0000 N   0  0  0  0  0  0  0  0  0  0  0  0
    3.8197   -1.8431    0.0000 C   0  0  0  0  0  0  0  0  0  0  0  0
    3.1066   -3.0816    0.0000 S   0  0  0  0  0  0  0  0  0  0  0  0
    3.8197   -2.6688    0.0000 C   0  0  0  0  0  0  0  0  0  0  0  0
    4.5327   -3.0816    0.0000 C   0  0  0  0  0  0  0  0  0  0  0  0
    5.2458   -2.6688    0.0000 C   0  0  0  0  0  0  0  0  0  0  0  0
    2.3936   -1.8431    0.0000 C   0  0  0  0  0  0  0  0  0  0  0  0
    2.3852   -2.6688    0.0000 C   0  0  0  0  0  0  0  0  0  0  0  0
    7.3808   -3.1024    0.0000 C   0  0  0  0  0  0  0  0  0  0  0  0
    8.0980   -1.8682    0.0000 C   0  0  0  0  0  0  0  0  0  0  0  0
    8.7986   -3.9448    0.0000 O   0  5  0  0  0  0  0  0  0  0  0  0
    5.9546   -3.0899    0.0000 N   0  0  0  0  0  0  0  0  0  0  0  0
    9.5241   -2.7063    0.0000 O   0  0  0  0  0  0  0  0  0  0  0  0
    6.6719   -2.6813    0.0000 C   0  0  0  0  0  0  0  0  0  0  0  0
    4.5410   -1.4303    0.0000 O   0  0  0  0  0  0  0  0  0  0  0  0
    5.2541   -1.8514    0.0000 O   0  0  0  0  0  0  0  0  0  0  0  0
    7.3933   -1.4553    0.0000 C   0  0  0  0  0  0  0  0  0  0  0  0
    6.6802   -1.8556    0.0000 C   0  0  0  0  0  0  0  0  0  0  0  0
    8.8194   -1.4636    0.0000 Cl  0  0  0  0  0  0  0  0  0  0  0  0
    1.6763   -1.4303    0.0000 C   0  0  0  0  0  0  0  0  0  0  0  0
    1.6763   -3.0816    0.0000 C   0  0  0  0  0  0  0  0  0  0  0  0
    0.9633   -2.6688    0.0000 C   0  0  0  0  0  0  0  0  0  0  0  0
    0.9633   -1.8431    0.0000 C   0  0  0  0  0  0  0  0  0  0  0  0
  2  1  1  0  0  0  0
  3  4  1  0  0  0  0
  4  6  1  0  0  0  0
  5  6  1  0  0  0  0
  6  7  1  0  0  0  0
  7  8  1  0  0  0  0
  8 14  1  0  0  0  0
  9 10  1  0  0  0  0
 10  5  1  0  0  0  0
 11  2  2  0  0  0  0
 12  2  1  0  0  0  0
 13  1  1  0  0  0  0
 14 16  1  0  0  0  0
 15  1  2  0  0  0  0
 16 11  1  0  0  0  0
 17  4  2  0  0  0  0
 18  8  2  0  0  0  0
 19 12  2  0  0  0  0
 20 19  1  0  0  0  0
 21 12  1  0  0  0  0
 22  9  2  0  0  0  0
 23 10  2  0  0  0  0
 24 23  1  0  0  0  0
 25 22  1  0  0  0  0
 20 16  2  0  0  0  0
  3  9  1  0  0  0  0
 25 24  2  0  0  0  0
M  CHG  2   1   1  13  -1
M  END
>  <IDNUMBER>
F3325-0165

>  <Chemical_Name>
N-(4-chloro-3-nitrophenyl)-2-(3-oxo-3,4-dihydro-2H-1,4-benzothiazin-2-yl)acetamide

>  <PriceCoeff>
1.00

>  <CAS>
1017661-60-7

>  <MW>
377.80

>  <Description>
solid

>  <FSP3>
0.12

>  <clogP>
3.20

>  <TPSA>
126.64

>  <Acceptor>
4

>  <Donor>
2

>  <RotBonds>
4

>  <HAC>
25

>  <Collection>
General

>  <PPDS>
+

$$$$
F3329-0375
  Mrv2219 10102508112D          

 10 11  0  0  0  0            999 V2000
    3.7292   -1.1013    0.0000 C   0  0  0  0  0  0  0  0  0  0  0  0
    3.7504   -1.9262    0.0000 C   0  0  0  0  0  0  0  0  0  0  0  0
    5.1707   -1.8795    0.0000 N   0  0  0  0  0  0  0  0  0  0  0  0
    3.0021   -0.7271    0.0000 C   0  0  0  0  0  0  0  0  0  0  0  0
    3.0658   -2.3599    0.0000 N   0  0  0  0  0  0  0  0  0  0  0  0
    4.4691   -2.3132    0.0000 N   0  0  0  0  0  0  0  0  0  0  0  0
    2.3005   -1.1651    0.0000 N   0  0  0  0  0  0  0  0  0  0  0  0
    2.3387   -1.9815    0.0000 C   0  0  0  0  0  0  0  0  0  0  0  0
    5.1451   -1.0631    0.0000 C   0  0  0  0  0  0  0  0  0  0  0  0
    2.9638    0.0978    0.0000 O   0  0  0  0  0  0  0  0  0  0  0  0
  2  1  2  0  0  0  0
  3  9  2  0  0  0  0
  4  1  1  0  0  0  0
  5  2  1  0  0  0  0
  6  2  1  0  0  0  0
  7  4  2  0  0  0  0
  8  7  1  0  0  0  0
  9  1  1  0  0  0  0
 10  4  1  0  0  0  0
  6  3  1  0  0  0  0
  8  5  2  0  0  0  0
M  END
>  <IDNUMBER>
F3329-0375

>  <Chemical_Name>
1H-pyrazolo[3,4-d]pyrimidin-4-ol

>  <PriceCoeff>
1.00

>  <CAS>
315-30-0

>  <MW>
136.11

>  <Description>
solid

>  <FSP3>
0.00

>  <clogP>
0.03

>  <TPSA>
74.69

>  <Acceptor>
5

>  <Donor>
5

>  <RotBonds>
0

>  <HAC>
10

>  <Collection>
General

>  <PPDS>
+

$$$$
F3342-0153
  Mrv2219 10102508112D          

 37 39  0  0  0  0            999 V2000
    4.4292   -4.9542    0.0000 S   0  0  0  0  0  0  0  0  0  0  0  0
    5.1500   -5.3667    0.0000 N   0  0  0  0  0  0  0  0  0  0  0  0
    3.7167   -5.3750    0.0000 C   0  0  0  0  0  0  0  0  0  0  0  0
    5.8625   -4.9542    0.0000 C   0  0  0  0  0  0  0  0  0  0  0  0
    4.6500   -5.7542    0.0000 O   0  0  0  0  0  0  0  0  0  0  0  0
    4.4292   -4.1292    0.0000 O   0  0  0  0  0  0  0  0  0  0  0  0
    5.1500   -6.1917    0.0000 C   0  0  0  0  0  0  0  0  0  0  0  0
    8.0042   -5.3542    0.0000 N   0  0  0  0  0  0  0  0  0  0  0  0
    6.5792   -5.3625    0.0000 C   0  0  0  0  0  0  0  0  0  0  0  0
    7.2917   -4.9417    0.0000 C   0  0  0  0  0  0  0  0  0  0  0  0
    3.0042   -4.9625    0.0000 C   0  0  0  0  0  0  0  0  0  0  0  0
    3.7167   -6.2042    0.0000 C   0  0  0  0  0  0  0  0  0  0  0  0
    4.4417   -6.6042    0.0000 C   0  0  0  0  0  0  0  0  0  0  0  0
    5.8667   -6.5917    0.0000 C   0  0  0  0  0  0  0  0  0  0  0  0
    5.1542   -7.8417    0.0000 C   0  0  0  0  0  0  0  0  0  0  0  0
    5.8750   -7.4167    0.0000 C   0  0  0  0  0  0  0  0  0  0  0  0
    4.4417   -7.4292    0.0000 C   0  0  0  0  0  0  0  0  0  0  0  0
    3.0042   -6.6167    0.0000 C   0  0  0  0  0  0  0  0  0  0  0  0
    2.2917   -5.3750    0.0000 C   0  0  0  0  0  0  0  0  0  0  0  0
    2.2917   -6.2042    0.0000 C   0  0  0  0  0  0  0  0  0  0  0  0
    6.5792   -6.1875    0.0000 O   0  0  0  0  0  0  0  0  0  0  0  0
    5.1625   -8.6667    0.0000 F   0  0  0  0  0  0  0  0  0  0  0  0
    8.0042   -6.1792    0.0000 C   0  0  0  0  0  0  0  0  0  0  0  0
    8.7167   -4.9417    0.0000 C   0  0  0  0  0  0  0  0  0  0  0  0
    1.5750   -6.6167    0.0000 C   0  0  0  0  0  0  0  0  0  0  0  0
    9.4292   -5.3542    0.0000 C   0  0  0  0  0  0  0  0  0  0  0  0
    8.7167   -6.5917    0.0000 C   0  0  0  0  0  0  0  0  0  0  0  0
    9.4292   -6.1792    0.0000 C   0  0  0  0  0  0  0  0  0  0  0  0
   12.5829   -5.9032    0.0000 C   0  0  0  0  0  0  0  0  0  0  0  0
   12.2811   -5.1309    0.0000 O   0  0  0  0  0  0  0  0  0  0  0  0
   12.0637   -6.5495    0.0000 C   0  0  0  0  0  0  0  0  0  0  0  0
   13.3969   -6.0230    0.0000 O   0  0  0  0  0  0  0  0  0  0  0  0
   11.2428   -6.4234    0.0000 C   0  0  0  0  0  0  0  0  0  0  0  0
   12.3615   -7.3233    0.0000 C   0  0  0  0  0  0  0  0  0  0  0  0
   10.7221   -7.0658    0.0000 C   0  0  0  0  0  0  0  0  0  0  0  0
   11.8385   -7.9711    0.0000 C   0  0  0  0  0  0  0  0  0  0  0  0
   11.0200   -7.8397    0.0000 C   0  0  0  0  0  0  0  0  0  0  0  0
 11  3  2  0  0  0  0
 12  3  1  0  0  0  0
 13  7  2  0  0  0  0
 14  7  1  0  0  0  0
 15 16  1  0  0  0  0
 16 14  2  0  0  0  0
 17 13  1  0  0  0  0
 18 12  2  0  0  0  0
 19 11  1  0  0  0  0
 20 18  1  0  0  0  0
 21  9  1  0  0  0  0
 22 15  1  0  0  0  0
 23  8  1  0  0  0  0
 24  8  1  0  0  0  0
 25 20  1  0  0  0  0
 26 24  1  0  0  0  0
 27 23  1  0  0  0  0
 28 26  1  0  0  0  0
 20 19  2  0  0  0  0
 15 17  2  0  0  0  0
 28 27  1  0  0  0  0
  2  1  1  0  0  0  0
  3  1  1  0  0  0  0
  4  2  1  0  0  0  0
  5  1  2  0  0  0  0
  6  1  2  0  0  0  0
  7  2  1  0  0  0  0
  8 10  1  0  0  0  0
  9  4  1  0  0  0  0
 10  9  1  0  0  0  0
 30 29  2  0  0  0  0
 31 29  1  0  0  0  0
 32 29  1  0  0  0  0
 33 31  2  0  0  0  0
 34 31  1  0  0  0  0
 35 33  1  0  0  0  0
 36 34  2  0  0  0  0
 37 36  1  0  0  0  0
 37 35  2  0  0  0  0
M  END
>  <IDNUMBER>
F3342-0153

>  <Chemical_Name>
N-(4-fluorophenyl)-N-[2-hydroxy-3-(piperidin-1-yl)propyl]-4-methylbenzene-1-sulfonamide; benzoic acid

>  <PriceCoeff>
1.00

>  <CAS>
1331304-89-2

>  <MW>
406.51

>  <Description>
solid

>  <FSP3>
0.43

>  <clogP>
4.36

>  <TPSA>
69.23

>  <Acceptor>
4

>  <Donor>
2

>  <RotBonds>
7

>  <HAC>
28

>  <Collection>
General

$$$$
F3342-0157
  Mrv2219 10102508112D          

 38 40  0  0  0  0            999 V2000
    4.8780   -4.9280    0.0000 S   0  0  0  0  0  0  0  0  0  0  0  0
    5.5934   -5.3314    0.0000 N   0  0  0  0  0  0  0  0  0  0  0  0
    4.1669   -5.3438    0.0000 C   0  0  0  0  0  0  0  0  0  0  0  0
    6.3045   -4.9197    0.0000 C   0  0  0  0  0  0  0  0  0  0  0  0
    5.0943   -5.7181    0.0000 O   0  0  0  0  0  0  0  0  0  0  0  0
    4.8698   -4.1045    0.0000 O   0  0  0  0  0  0  0  0  0  0  0  0
    5.5934   -6.1548    0.0000 C   0  0  0  0  0  0  0  0  0  0  0  0
    9.8684   -5.3189    0.0000 C   0  0  0  0  0  0  0  0  0  0  0  0
    9.9557   -6.1423    0.0000 O   0  0  0  0  0  0  0  0  0  0  0  0
   10.6211   -4.9820    0.0000 C   0  0  0  0  0  0  0  0  0  0  0  0
   10.7584   -6.3128    0.0000 C   0  0  0  0  0  0  0  0  0  0  0  0
   11.1783   -5.5934    0.0000 C   0  0  0  0  0  0  0  0  0  0  0  0
    3.4475   -4.9321    0.0000 C   0  0  0  0  0  0  0  0  0  0  0  0
    4.1669   -6.1673    0.0000 C   0  0  0  0  0  0  0  0  0  0  0  0
    6.3045   -6.5623    0.0000 C   0  0  0  0  0  0  0  0  0  0  0  0
    4.8822   -6.5665    0.0000 C   0  0  0  0  0  0  0  0  0  0  0  0
    7.0156   -5.3314    0.0000 C   0  0  0  0  0  0  0  0  0  0  0  0
    8.4461   -5.3272    0.0000 N   0  0  0  0  0  0  0  0  0  0  0  0
    5.6016   -7.8016    0.0000 C   0  0  0  0  0  0  0  0  0  0  0  0
    4.8822   -7.3899    0.0000 C   0  0  0  0  0  0  0  0  0  0  0  0
    6.3170   -7.3857    0.0000 C   0  0  0  0  0  0  0  0  0  0  0  0
    3.4475   -6.5790    0.0000 C   0  0  0  0  0  0  0  0  0  0  0  0
    2.7364   -5.3438    0.0000 C   0  0  0  0  0  0  0  0  0  0  0  0
    2.7364   -6.1673    0.0000 C   0  0  0  0  0  0  0  0  0  0  0  0
    5.6058   -8.6250    0.0000 F   0  0  0  0  0  0  0  0  0  0  0  0
    9.1490   -4.9072    0.0000 C   0  0  0  0  0  0  0  0  0  0  0  0
    7.0156   -6.1548    0.0000 O   0  0  0  0  0  0  0  0  0  0  0  0
    7.7267   -4.9155    0.0000 C   0  0  0  0  0  0  0  0  0  0  0  0
    2.0253   -6.5790    0.0000 C   0  0  0  0  0  0  0  0  0  0  0  0
   14.3259   -5.8710    0.0000 C   0  0  0  0  0  0  0  0  0  0  0  0
   14.0247   -5.1002    0.0000 O   0  0  0  0  0  0  0  0  0  0  0  0
   13.8077   -6.5161    0.0000 C   0  0  0  0  0  0  0  0  0  0  0  0
   15.1384   -5.9906    0.0000 O   0  0  0  0  0  0  0  0  0  0  0  0
   12.9884   -6.3902    0.0000 C   0  0  0  0  0  0  0  0  0  0  0  0
   14.1050   -7.2884    0.0000 C   0  0  0  0  0  0  0  0  0  0  0  0
   12.4687   -7.0314    0.0000 C   0  0  0  0  0  0  0  0  0  0  0  0
   13.5830   -7.9349    0.0000 C   0  0  0  0  0  0  0  0  0  0  0  0
   12.7661   -7.8038    0.0000 C   0  0  0  0  0  0  0  0  0  0  0  0
 11  9  1  0  0  0  0
 12 10  1  0  0  0  0
 13  3  2  0  0  0  0
 14  3  1  0  0  0  0
 15  7  1  0  0  0  0
 16  7  2  0  0  0  0
 17  4  1  0  0  0  0
 18 28  1  0  0  0  0
 19 20  2  0  0  0  0
 20 16  1  0  0  0  0
 21 15  2  0  0  0  0
 22 14  2  0  0  0  0
 23 13  1  0  0  0  0
 24 22  1  0  0  0  0
 25 19  1  0  0  0  0
 26 18  1  0  0  0  0
 27 17  1  0  0  0  0
 28 17  1  0  0  0  0
 29 24  1  0  0  0  0
 24 23  2  0  0  0  0
 19 21  1  0  0  0  0
 12 11  2  0  0  0  0
  2  1  1  0  0  0  0
  3  1  1  0  0  0  0
  4  2  1  0  0  0  0
  5  1  2  0  0  0  0
  6  1  2  0  0  0  0
  7  2  1  0  0  0  0
  8 26  1  0  0  0  0
  9  8  1  0  0  0  0
 10  8  2  0  0  0  0
 31 30  2  0  0  0  0
 32 30  1  0  0  0  0
 33 30  1  0  0  0  0
 34 32  2  0  0  0  0
 35 32  1  0  0  0  0
 36 34  1  0  0  0  0
 37 35  2  0  0  0  0
 38 37  1  0  0  0  0
 38 36  2  0  0  0  0
M  END
>  <IDNUMBER>
F3342-0157

>  <Chemical_Name>
benzoic acid; {3-[N-(4-fluorophenyl)-4-methylbenzenesulfonamido]-2-hydroxypropyl}[(furan-2-yl)methyl]amine

>  <PriceCoeff>
1.00

>  <CAS>
1327617-11-7

>  <MW>
418.48

>  <Description>
solid

>  <FSP3>
0.24

>  <clogP>
3.65

>  <TPSA>
91.16

>  <Acceptor>
5

>  <Donor>
2

>  <RotBonds>
9

>  <HAC>
29

>  <Collection>
General

$$$$
F3342-0215
  Mrv2219 10102508112D          

 34 35  0  0  0  0            999 V2000
    6.3253   -5.5517    0.0000 S   0  0  0  0  0  0  0  0  0  0  0  0
    6.5498   -6.3419    0.0000 N   0  0  0  0  0  0  0  0  0  0  0  0
    7.3482   -6.5498    0.0000 C   0  0  0  0  0  0  0  0  0  0  0  0
    7.5646   -7.3399    0.0000 C   0  0  0  0  0  0  0  0  0  0  0  0
    7.9138   -5.9551    0.0000 C   0  0  0  0  0  0  0  0  0  0  0  0
    5.9759   -6.9365    0.0000 C   0  0  0  0  0  0  0  0  0  0  0  0
    6.8991   -4.9653    0.0000 O   0  0  0  0  0  0  0  0  0  0  0  0
    5.9177   -6.2671    0.0000 O   0  0  0  0  0  0  0  0  0  0  0  0
    2.3746   -7.0738    0.0000 C   0  0  0  0  0  0  0  0  0  0  0  0
    8.7123   -6.1547    0.0000 C   0  0  0  0  0  0  0  0  0  0  0  0
    8.3629   -7.5479    0.0000 C   0  0  0  0  0  0  0  0  0  0  0  0
    1.6135   -7.4024    0.0000 O   0  0  0  0  0  0  0  0  0  0  0  0
    8.9369   -6.9532    0.0000 C   0  0  0  0  0  0  0  0  0  0  0  0
    2.2873   -6.2546    0.0000 C   0  0  0  0  0  0  0  0  0  0  0  0
    1.0729   -6.7868    0.0000 C   0  0  0  0  0  0  0  0  0  0  0  0
    1.4888   -6.0799    0.0000 C   0  0  0  0  0  0  0  0  0  0  0  0
    5.1775   -6.7162    0.0000 C   0  0  0  0  0  0  0  0  0  0  0  0
    3.7968   -7.0862    0.0000 N   0  0  0  0  0  0  0  0  0  0  0  0
    5.5268   -5.3521    0.0000 C   0  0  0  0  0  0  0  0  0  0  0  0
    3.0857   -7.4897    0.0000 C   0  0  0  0  0  0  0  0  0  0  0  0
    6.9906   -7.9263    0.0000 C   0  0  0  0  0  0  0  0  0  0  0  0
    7.6893   -5.1692    0.0000 C   0  0  0  0  0  0  0  0  0  0  0  0
    4.9695   -5.9302    0.0000 O   0  0  0  0  0  0  0  0  0  0  0  0
    4.5953   -7.3025    0.0000 C   0  0  0  0  0  0  0  0  0  0  0  0
    9.7354   -7.1528    0.0000 C   0  0  0  0  0  0  0  0  0  0  0  0
   12.8829   -5.8002    0.0000 C   0  0  0  0  0  0  0  0  0  0  0  0
   12.5817   -5.0294    0.0000 O   0  0  0  0  0  0  0  0  0  0  0  0
   12.3647   -6.4453    0.0000 C   0  0  0  0  0  0  0  0  0  0  0  0
   13.6953   -5.9198    0.0000 O   0  0  0  0  0  0  0  0  0  0  0  0
   11.5454   -6.3195    0.0000 C   0  0  0  0  0  0  0  0  0  0  0  0
   12.6619   -7.2176    0.0000 C   0  0  0  0  0  0  0  0  0  0  0  0
   11.0257   -6.9606    0.0000 C   0  0  0  0  0  0  0  0  0  0  0  0
   12.1400   -7.8642    0.0000 C   0  0  0  0  0  0  0  0  0  0  0  0
   11.3230   -7.7330    0.0000 C   0  0  0  0  0  0  0  0  0  0  0  0
 11  4  1  0  0  0  0
 12  9  1  0  0  0  0
 13 10  1  0  0  0  0
 14  9  2  0  0  0  0
 15 12  1  0  0  0  0
 16 14  1  0  0  0  0
 17  6  1  0  0  0  0
 18 24  1  0  0  0  0
 19  1  1  0  0  0  0
 20 18  1  0  0  0  0
 21  4  1  0  0  0  0
 22  5  1  0  0  0  0
 23 17  1  0  0  0  0
 24 17  1  0  0  0  0
 25 13  1  0  0  0  0
 13 11  2  0  0  0  0
 16 15  2  0  0  0  0
  2  1  1  0  0  0  0
  3  2  1  0  0  0  0
  4  3  2  0  0  0  0
  5  3  1  0  0  0  0
  6  2  1  0  0  0  0
  7  1  2  0  0  0  0
  8  1  2  0  0  0  0
  9 20  1  0  0  0  0
 10  5  2  0  0  0  0
 27 26  2  0  0  0  0
 28 26  1  0  0  0  0
 29 26  1  0  0  0  0
 30 28  2  0  0  0  0
 31 28  1  0  0  0  0
 32 30  1  0  0  0  0
 33 31  2  0  0  0  0
 34 33  1  0  0  0  0
 34 32  2  0  0  0  0
M  END
>  <IDNUMBER>
F3342-0215

>  <Chemical_Name>
N-(3-{[(furan-2-yl)methyl]amino}-2-hydroxypropyl)-N-(2,4,6-trimethylphenyl)methanesulfonamide; benzoic acid

>  <PriceCoeff>
1.00

>  <CAS>
1323621-80-2

>  <MW>
366.48

>  <Description>
solid

>  <FSP3>
0.44

>  <clogP>
2.07

>  <TPSA>
91.16

>  <Acceptor>
5

>  <Donor>
2

>  <RotBonds>
8

>  <HAC>
25

>  <Collection>
General

$$$$
F3342-0440
  Mrv2219 10102508112D          

 38 40  0  0  0  0            999 V2000
    1.4197   -0.3214    0.0000 S   0  0  0  0  0  0  0  0  0  0  0  0
    2.1520   -0.7607    0.0000 N   0  0  0  0  0  0  0  0  0  0  0  0
    0.6753    0.0813    0.0000 C   0  0  0  0  0  0  0  0  0  0  0  0
    2.8842   -0.3214    0.0000 C   0  0  0  0  0  0  0  0  0  0  0  0
    1.8469    0.4108    0.0000 O   0  0  0  0  0  0  0  0  0  0  0  0
    1.0048   -1.0902    0.0000 O   0  0  0  0  0  0  0  0  0  0  0  0
    2.1520   -1.5784    0.0000 C   0  0  0  0  0  0  0  0  0  0  0  0
    4.3120    0.4841    0.0000 N   0  0  0  0  0  0  0  0  0  0  0  0
    3.6042   -0.7607    0.0000 C   0  0  0  0  0  0  0  0  0  0  0  0
    4.3120   -0.3214    0.0000 C   0  0  0  0  0  0  0  0  0  0  0  0
   -0.0447   -0.3214    0.0000 C   0  0  0  0  0  0  0  0  0  0  0  0
    0.6753    0.9234    0.0000 C   0  0  0  0  0  0  0  0  0  0  0  0
    1.4442   -2.0055    0.0000 C   0  0  0  0  0  0  0  0  0  0  0  0
    2.8598   -2.0055    0.0000 C   0  0  0  0  0  0  0  0  0  0  0  0
    2.1520   -3.2259    0.0000 C   0  0  0  0  0  0  0  0  0  0  0  0
    2.8598   -2.8232    0.0000 C   0  0  0  0  0  0  0  0  0  0  0  0
    1.4442   -2.8232    0.0000 C   0  0  0  0  0  0  0  0  0  0  0  0
   -0.0447    1.3505    0.0000 C   0  0  0  0  0  0  0  0  0  0  0  0
   -0.7525    0.0813    0.0000 C   0  0  0  0  0  0  0  0  0  0  0  0
   -0.7525    0.9234    0.0000 C   0  0  0  0  0  0  0  0  0  0  0  0
    3.6042   -1.5784    0.0000 O   0  0  0  0  0  0  0  0  0  0  0  0
    2.1520   -4.0558    0.0000 O   0  0  0  0  0  0  0  0  0  0  0  0
    5.0321    0.9112    0.0000 C   0  0  0  0  0  0  0  0  0  0  0  0
    3.5798    0.8990    0.0000 C   0  0  0  0  0  0  0  0  0  0  0  0
   -1.4604    1.3261    0.0000 C   0  0  0  0  0  0  0  0  0  0  0  0
    2.8842   -4.4585    0.0000 C   0  0  0  0  0  0  0  0  0  0  0  0
    5.0199    1.7410    0.0000 C   0  0  0  0  0  0  0  0  0  0  0  0
    3.5798    1.7410    0.0000 C   0  0  0  0  0  0  0  0  0  0  0  0
    4.3120    2.1682    0.0000 C   0  0  0  0  0  0  0  0  0  0  0  0
    8.1111   -0.5686    0.0000 C   0  0  0  0  0  0  0  0  0  0  0  0
    7.8164    0.1854    0.0000 O   0  0  0  0  0  0  0  0  0  0  0  0
    7.6042   -1.1996    0.0000 C   0  0  0  0  0  0  0  0  0  0  0  0
    8.9058   -0.6856    0.0000 O   0  0  0  0  0  0  0  0  0  0  0  0
    6.8027   -1.0765    0.0000 C   0  0  0  0  0  0  0  0  0  0  0  0
    7.8949   -1.9551    0.0000 C   0  0  0  0  0  0  0  0  0  0  0  0
    6.2943   -1.7037    0.0000 C   0  0  0  0  0  0  0  0  0  0  0  0
    7.3843   -2.5875    0.0000 C   0  0  0  0  0  0  0  0  0  0  0  0
    6.5852   -2.4592    0.0000 C   0  0  0  0  0  0  0  0  0  0  0  0
 11  3  1  0  0  0  0
 12  3  2  0  0  0  0
 13  7  1  0  0  0  0
 14  7  2  0  0  0  0
 15 16  2  0  0  0  0
 16 14  1  0  0  0  0
 17 13  2  0  0  0  0
 18 12  1  0  0  0  0
 19 11  2  0  0  0  0
 20 18  2  0  0  0  0
 21  9  1  0  0  0  0
 22 15  1  0  0  0  0
 23  8  1  0  0  0  0
 24  8  1  0  0  0  0
 25 20  1  0  0  0  0
 26 22  1  0  0  0  0
 27 23  1  0  0  0  0
 28 24  1  0  0  0  0
 29 28  1  0  0  0  0
 19 20  1  0  0  0  0
 15 17  1  0  0  0  0
 29 27  1  0  0  0  0
  2  1  1  0  0  0  0
  3  1  1  0  0  0  0
  4  2  1  0  0  0  0
  5  1  2  0  0  0  0
  6  1  2  0  0  0  0
  7  2  1  0  0  0  0
  8 10  1  0  0  0  0
  9  4  1  0  0  0  0
 10  9  1  0  0  0  0
 31 30  2  0  0  0  0
 32 30  1  0  0  0  0
 33 30  1  0  0  0  0
 34 32  2  0  0  0  0
 35 32  1  0  0  0  0
 36 34  1  0  0  0  0
 37 35  2  0  0  0  0
 38 37  1  0  0  0  0
 38 36  2  0  0  0  0
M  END
>  <IDNUMBER>
F3342-0440

>  <Chemical_Name>
N-[2-hydroxy-3-(piperidin-1-yl)propyl]-N-(4-methoxyphenyl)-4-methylbenzene-1-sulfonamide; benzoic acid

>  <PriceCoeff>
1.00

>  <CAS>
1331212-11-3

>  <MW>
418.55

>  <Description>
solid

>  <FSP3>
0.45

>  <clogP>
4.07

>  <TPSA>
78.46

>  <Acceptor>
5

>  <Donor>
2

>  <RotBonds>
8

>  <HAC>
29

>  <Collection>
General

$$$$
F3349-0202
  Mrv2219 10102508112D          

 23 25  0  0  0  0            999 V2000
    5.5667   -0.1167    0.0000 S   0  0  0  0  0  0  0  0  0  0  0  0
    2.2792   -0.1125    0.0000 N   0  0  0  0  0  0  0  0  0  0  0  0
    1.7917   -0.7750    0.0000 C   0  0  0  0  0  0  0  0  0  0  0  0
    1.8000    0.5583    0.0000 C   0  0  0  0  0  0  0  0  0  0  0  0
    6.3917   -0.1167    0.0000 N   0  0  0  0  0  0  0  0  0  0  0  0
    4.7417   -0.1167    0.0000 C   0  0  0  0  0  0  0  0  0  0  0  0
    3.1042   -0.1167    0.0000 C   0  0  0  0  0  0  0  0  0  0  0  0
    5.5667   -0.9417    0.0000 O   0  0  0  0  0  0  0  0  0  0  0  0
    5.5667    0.7083    0.0000 O   0  0  0  0  0  0  0  0  0  0  0  0
    1.0042   -0.5167    0.0000 C   0  0  0  0  0  0  0  0  0  0  0  0
    1.0125    0.3083    0.0000 C   0  0  0  0  0  0  0  0  0  0  0  0
    2.0542    1.3458    0.0000 O   0  0  0  0  0  0  0  0  0  0  0  0
    2.0417   -1.5625    0.0000 O   0  0  0  0  0  0  0  0  0  0  0  0
    4.3375    0.5958    0.0000 C   0  0  0  0  0  0  0  0  0  0  0  0
    4.3292   -0.8375    0.0000 C   0  0  0  0  0  0  0  0  0  0  0  0
    3.5167    0.5958    0.0000 C   0  0  0  0  0  0  0  0  0  0  0  0
    3.5042   -0.8292    0.0000 C   0  0  0  0  0  0  0  0  0  0  0  0
    6.8042   -0.8292    0.0000 C   0  0  0  0  0  0  0  0  0  0  0  0
    6.4000   -1.5417    0.0000 C   0  0  0  0  0  0  0  0  0  0  0  0
    7.6292   -0.8250    0.0000 C   0  0  0  0  0  0  0  0  0  0  0  0
    8.0500   -1.5292    0.0000 C   0  0  0  0  0  0  0  0  0  0  0  0
    6.8125   -2.2542    0.0000 C   0  0  0  0  0  0  0  0  0  0  0  0
    7.6375   -2.2542    0.0000 C   0  0  0  0  0  0  0  0  0  0  0  0
  2  7  1  0  0  0  0
  3  2  1  0  0  0  0
  4  2  1  0  0  0  0
  5  1  1  0  0  0  0
  6  1  1  0  0  0  0
  7 17  1  0  0  0  0
  8  1  2  0  0  0  0
  9  1  2  0  0  0  0
 10  3  1  0  0  0  0
 11  4  1  0  0  0  0
 12  4  2  0  0  0  0
 13  3  2  0  0  0  0
 14  6  2  0  0  0  0
 15  6  1  0  0  0  0
 16 14  1  0  0  0  0
 17 15  2  0  0  0  0
 18  5  1  0  0  0  0
 19 18  2  0  0  0  0
 20 18  1  0  0  0  0
 21 20  2  0  0  0  0
 22 19  1  0  0  0  0
 23 21  1  0  0  0  0
  7 16  2  0  0  0  0
 23 22  2  0  0  0  0
 10 11  1  0  0  0  0
M  END
>  <IDNUMBER>
F3349-0202

>  <Chemical_Name>
4-(2,5-dioxopyrrolidin-1-yl)-N-phenylbenzene-1-sulfonamide

>  <PriceCoeff>
1.00

>  <CAS>
112167-37-0

>  <MW>
330.36

>  <Description>
solid

>  <FSP3>
0.12

>  <clogP>
0.75

>  <TPSA>
91.93

>  <Acceptor>
5

>  <Donor>
1

>  <RotBonds>
4

>  <HAC>
23

>  <Collection>
General

>  <PPDS>
+

$$$$
F3349-0203
  Mrv2219 10102508112D          

 24 26  0  0  0  0            999 V2000
    2.3417    0.7958    0.0000 S   0  0  0  0  0  0  0  0  0  0  0  0
   -0.9458    0.8083    0.0000 N   0  0  0  0  0  0  0  0  0  0  0  0
    3.1667    0.7958    0.0000 N   0  0  0  0  0  0  0  0  0  0  0  0
   -1.4250    1.4750    0.0000 C   0  0  0  0  0  0  0  0  0  0  0  0
   -1.4333    0.1458    0.0000 C   0  0  0  0  0  0  0  0  0  0  0  0
    1.5167    0.7958    0.0000 C   0  0  0  0  0  0  0  0  0  0  0  0
   -0.1208    0.8000    0.0000 C   0  0  0  0  0  0  0  0  0  0  0  0
    2.3417   -0.0292    0.0000 O   0  0  0  0  0  0  0  0  0  0  0  0
    2.3417    1.6208    0.0000 O   0  0  0  0  0  0  0  0  0  0  0  0
    3.5792    0.0833    0.0000 C   0  0  0  0  0  0  0  0  0  0  0  0
   -2.2125    1.2250    0.0000 C   0  0  0  0  0  0  0  0  0  0  0  0
   -2.2208    0.4000    0.0000 C   0  0  0  0  0  0  0  0  0  0  0  0
   -1.1833   -0.6417    0.0000 O   0  0  0  0  0  0  0  0  0  0  0  0
   -1.1708    2.2583    0.0000 O   0  0  0  0  0  0  0  0  0  0  0  0
    1.1042    0.0833    0.0000 C   0  0  0  0  0  0  0  0  0  0  0  0
    1.1125    1.5083    0.0000 C   0  0  0  0  0  0  0  0  0  0  0  0
    0.2792    0.0833    0.0000 C   0  0  0  0  0  0  0  0  0  0  0  0
    0.2917    1.5083    0.0000 C   0  0  0  0  0  0  0  0  0  0  0  0
    4.4042    0.0958    0.0000 C   0  0  0  0  0  0  0  0  0  0  0  0
    3.1750   -0.6292    0.0000 C   0  0  0  0  0  0  0  0  0  0  0  0
    4.8125    0.8083    0.0000 C   0  0  0  0  0  0  0  0  0  0  0  0
    4.8250   -0.6167    0.0000 C   0  0  0  0  0  0  0  0  0  0  0  0
    3.5875   -1.3417    0.0000 C   0  0  0  0  0  0  0  0  0  0  0  0
    4.4125   -1.3417    0.0000 C   0  0  0  0  0  0  0  0  0  0  0  0
  2  7  1  0  0  0  0
  3  1  1  0  0  0  0
  4  2  1  0  0  0  0
  5  2  1  0  0  0  0
  6  1  1  0  0  0  0
  7 18  2  0  0  0  0
  8  1  2  0  0  0  0
  9  1  2  0  0  0  0
 10  3  1  0  0  0  0
 11  4  1  0  0  0  0
 12  5  1  0  0  0  0
 13  5  2  0  0  0  0
 14  4  2  0  0  0  0
 15  6  1  0  0  0  0
 16  6  2  0  0  0  0
 17 15  2  0  0  0  0
 18 16  1  0  0  0  0
 19 10  1  0  0  0  0
 20 10  2  0  0  0  0
 21 19  1  0  0  0  0
 22 19  2  0  0  0  0
 23 20  1  0  0  0  0
 24 23  2  0  0  0  0
  7 17  1  0  0  0  0
 24 22  1  0  0  0  0
 12 11  1  0  0  0  0
M  END
>  <IDNUMBER>
F3349-0203

>  <Chemical_Name>
4-(2,5-dioxopyrrolidin-1-yl)-N-(2-methylphenyl)benzene-1-sulfonamide

>  <PriceCoeff>
1.00

>  <CAS>
919243-80-4

>  <MW>
344.38

>  <Description>
solid

>  <FSP3>
0.18

>  <clogP>
0.69

>  <TPSA>
91.93

>  <Acceptor>
5

>  <Donor>
1

>  <RotBonds>
4

>  <HAC>
24

>  <Collection>
General

>  <PPDS>
+

$$$$
F3350-0558
  Mrv2219 10102508112D          

 28 30  0  0  0  0            999 V2000
    5.0369   -3.1413    0.0000 S   0  0  0  0  0  0  0  0  0  0  0  0
    7.8783   -4.7912    0.0000 N   0  0  0  0  0  0  0  0  0  0  0  0
    7.9658   -5.6161    0.0000 C   0  0  0  0  0  0  0  0  0  0  0  0
    8.6365   -4.4620    0.0000 C   0  0  0  0  0  0  0  0  0  0  0  0
    4.3245   -2.7372    0.0000 N   0  0  0  0  0  0  0  0  0  0  0  0
    5.7493   -3.5538    0.0000 C   0  0  0  0  0  0  0  0  0  0  0  0
    1.4290   -1.1291    0.0000 C   0  0  0  0  0  0  0  0  0  0  0  0
    7.1659   -4.3787    0.0000 C   0  0  0  0  0  0  0  0  0  0  0  0
    5.4494   -2.4372    0.0000 O   0  0  0  0  0  0  0  0  0  0  0  0
    4.6245   -3.8621    0.0000 O   0  0  0  0  0  0  0  0  0  0  0  0
    2.1540   -1.5290    0.0000 C   0  0  0  0  0  0  0  0  0  0  0  0
    9.1864   -5.0786    0.0000 C   0  0  0  0  0  0  0  0  0  0  0  0
    8.7740   -5.7910    0.0000 C   0  0  0  0  0  0  0  0  0  0  0  0
    7.3534   -6.1660    0.0000 O   0  0  0  0  0  0  0  0  0  0  0  0
    8.8157   -3.6538    0.0000 O   0  0  0  0  0  0  0  0  0  0  0  0
    0.7249   -1.5540    0.0000 O   0  0  0  0  0  0  0  0  0  0  0  0
    5.7493   -4.3787    0.0000 C   0  0  0  0  0  0  0  0  0  0  0  0
    6.4535   -3.1496    0.0000 C   0  0  0  0  0  0  0  0  0  0  0  0
    6.4618   -4.7870    0.0000 C   0  0  0  0  0  0  0  0  0  0  0  0
    7.1659   -3.5621    0.0000 C   0  0  0  0  0  0  0  0  0  0  0  0
    3.6038   -2.3372    0.0000 C   0  0  0  0  0  0  0  0  0  0  0  0
    2.1665   -2.3539    0.0000 C   0  0  0  0  0  0  0  0  0  0  0  0
    2.8664   -1.1124    0.0000 C   0  0  0  0  0  0  0  0  0  0  0  0
    1.4165   -0.3042    0.0000 O   0  0  0  0  0  0  0  0  0  0  0  0
    2.8914   -2.7622    0.0000 C   0  0  0  0  0  0  0  0  0  0  0  0
    3.5913   -1.5165    0.0000 C   0  0  0  0  0  0  0  0  0  0  0  0
    2.1248    0.1208    0.0000 C   0  0  0  0  0  0  0  0  0  0  0  0
    2.1123    0.9457    0.0000 C   0  0  0  0  0  0  0  0  0  0  0  0
  2  8  1  0  0  0  0
  3  2  1  0  0  0  0
  4  2  1  0  0  0  0
  5  1  1  0  0  0  0
  6  1  1  0  0  0  0
  7 11  1  0  0  0  0
  8 20  1  0  0  0  0
  9  1  2  0  0  0  0
 10  1  2  0  0  0  0
 11 23  1  0  0  0  0
 12  4  1  0  0  0  0
 13  3  1  0  0  0  0
 14  3  2  0  0  0  0
 15  4  2  0  0  0  0
 16  7  2  0  0  0  0
 17  6  2  0  0  0  0
 18  6  1  0  0  0  0
 19 17  1  0  0  0  0
 20 18  2  0  0  0  0
 21  5  1  0  0  0  0
 22 25  1  0  0  0  0
 23 26  2  0  0  0  0
 24  7  1  0  0  0  0
 25 21  2  0  0  0  0
 26 21  1  0  0  0  0
 27 24  1  0  0  0  0
 28 27  1  0  0  0  0
  8 19  2  0  0  0  0
 11 22  2  0  0  0  0
 12 13  1  0  0  0  0
M  END
>  <IDNUMBER>
F3350-0558

>  <Chemical_Name>
ethyl 4-[4-(2,5-dioxopyrrolidin-1-yl)benzenesulfonamido]benzoate

>  <PriceCoeff>
1.00

>  <CAS>
919693-35-9

>  <MW>
402.42

>  <Description>
solid

>  <FSP3>
0.21

>  <clogP>
1.61

>  <TPSA>
118.23

>  <Acceptor>
7

>  <Donor>
1

>  <RotBonds>
7

>  <HAC>
28

>  <Collection>
General

>  <PPDS>
+

$$$$
F3350-0559
  Mrv2219 10102508112D          

 27 29  0  0  0  0            999 V2000
    5.0271   -2.7557    0.0000 S   0  0  0  0  0  0  0  0  0  0  0  0
    7.8788   -4.4008    0.0000 N   0  0  0  0  0  0  0  0  0  0  0  0
    7.9582   -5.2275    0.0000 C   0  0  0  0  0  0  0  0  0  0  0  0
    8.6346   -4.0751    0.0000 C   0  0  0  0  0  0  0  0  0  0  0  0
    4.3131   -2.3466    0.0000 N   0  0  0  0  0  0  0  0  0  0  0  0
    5.7411   -3.1691    0.0000 C   0  0  0  0  0  0  0  0  0  0  0  0
    1.4572   -0.6806    0.0000 C   0  0  0  0  0  0  0  0  0  0  0  0
    7.1648   -3.9874    0.0000 C   0  0  0  0  0  0  0  0  0  0  0  0
    5.4405   -2.0459    0.0000 O   0  0  0  0  0  0  0  0  0  0  0  0
    4.6137   -3.4739    0.0000 O   0  0  0  0  0  0  0  0  0  0  0  0
    2.1712   -1.1023    0.0000 C   0  0  0  0  0  0  0  0  0  0  0  0
    9.1857   -4.6889    0.0000 C   0  0  0  0  0  0  0  0  0  0  0  0
    8.7723   -5.4029    0.0000 C   0  0  0  0  0  0  0  0  0  0  0  0
    7.3444   -5.7787    0.0000 O   0  0  0  0  0  0  0  0  0  0  0  0
    8.8099   -3.2693    0.0000 O   0  0  0  0  0  0  0  0  0  0  0  0
    0.7432   -1.0940    0.0000 O   0  0  0  0  0  0  0  0  0  0  0  0
    5.7411   -3.9874    0.0000 C   0  0  0  0  0  0  0  0  0  0  0  0
    6.4508   -2.7599    0.0000 C   0  0  0  0  0  0  0  0  0  0  0  0
    6.4551   -4.4008    0.0000 C   0  0  0  0  0  0  0  0  0  0  0  0
    7.1648   -3.1733    0.0000 C   0  0  0  0  0  0  0  0  0  0  0  0
    3.5991   -1.9332    0.0000 C   0  0  0  0  0  0  0  0  0  0  0  0
    2.8852   -0.6931    0.0000 C   0  0  0  0  0  0  0  0  0  0  0  0
    2.1712   -1.9207    0.0000 C   0  0  0  0  0  0  0  0  0  0  0  0
    1.4655    0.1461    0.0000 O   0  0  0  0  0  0  0  0  0  0  0  0
    3.5991   -1.1023    0.0000 C   0  0  0  0  0  0  0  0  0  0  0  0
    2.8810   -2.3423    0.0000 C   0  0  0  0  0  0  0  0  0  0  0  0
    2.1837    0.5511    0.0000 C   0  0  0  0  0  0  0  0  0  0  0  0
  2  8  1  0  0  0  0
  3  2  1  0  0  0  0
  4  2  1  0  0  0  0
  5  1  1  0  0  0  0
  6  1  1  0  0  0  0
  7 11  1  0  0  0  0
  8 20  1  0  0  0  0
  9  1  2  0  0  0  0
 10  1  2  0  0  0  0
 11 23  2  0  0  0  0
 12  4  1  0  0  0  0
 13  3  1  0  0  0  0
 14  3  2  0  0  0  0
 15  4  2  0  0  0  0
 16  7  2  0  0  0  0
 17  6  2  0  0  0  0
 18  6  1  0  0  0  0
 19 17  1  0  0  0  0
 20 18  2  0  0  0  0
 21  5  1  0  0  0  0
 22 25  2  0  0  0  0
 23 26  1  0  0  0  0
 24  7  1  0  0  0  0
 25 21  1  0  0  0  0
 26 21  2  0  0  0  0
 27 24  1  0  0  0  0
  8 19  2  0  0  0  0
 11 22  1  0  0  0  0
 12 13  1  0  0  0  0
M  END
>  <IDNUMBER>
F3350-0559

>  <Chemical_Name>
methyl 4-[4-(2,5-dioxopyrrolidin-1-yl)benzenesulfonamido]benzoate

>  <PriceCoeff>
1.00

>  <CAS>
311323-58-7

>  <MW>
388.39

>  <Description>
solid

>  <FSP3>
0.17

>  <clogP>
1.08

>  <TPSA>
118.23

>  <Acceptor>
7

>  <Donor>
1

>  <RotBonds>
6

>  <HAC>
27

>  <Collection>
General

>  <PPDS>
+

$$$$
F3350-0562
  Mrv2219 10102508112D          

 24 26  0  0  0  0            999 V2000
    4.6662   -2.1184    0.0000 S   0  0  0  0  0  0  0  0  0  0  0  0
    7.5101   -3.7697    0.0000 N   0  0  0  0  0  0  0  0  0  0  0  0
    7.5977   -4.5953    0.0000 C   0  0  0  0  0  0  0  0  0  0  0  0
    8.2690   -3.4402    0.0000 C   0  0  0  0  0  0  0  0  0  0  0  0
    3.9531   -1.7139    0.0000 N   0  0  0  0  0  0  0  0  0  0  0  0
    5.3792   -2.5312    0.0000 C   0  0  0  0  0  0  0  0  0  0  0  0
    6.7971   -3.3568    0.0000 C   0  0  0  0  0  0  0  0  0  0  0  0
    4.2534   -2.8397    0.0000 O   0  0  0  0  0  0  0  0  0  0  0  0
    5.0790   -1.4136    0.0000 O   0  0  0  0  0  0  0  0  0  0  0  0
    8.8195   -4.0574    0.0000 C   0  0  0  0  0  0  0  0  0  0  0  0
    8.4066   -4.7705    0.0000 C   0  0  0  0  0  0  0  0  0  0  0  0
    6.9847   -5.1458    0.0000 O   0  0  0  0  0  0  0  0  0  0  0  0
    8.4484   -2.6313    0.0000 O   0  0  0  0  0  0  0  0  0  0  0  0
    6.0840   -2.1267    0.0000 C   0  0  0  0  0  0  0  0  0  0  0  0
    5.3792   -3.3568    0.0000 C   0  0  0  0  0  0  0  0  0  0  0  0
    6.7971   -2.5395    0.0000 C   0  0  0  0  0  0  0  0  0  0  0  0
    6.0923   -3.7655    0.0000 C   0  0  0  0  0  0  0  0  0  0  0  0
    3.2317   -1.3135    0.0000 C   0  0  0  0  0  0  0  0  0  0  0  0
    1.7889   -0.4921    0.0000 C   0  0  0  0  0  0  0  0  0  0  0  0
    3.2150   -0.4796    0.0000 C   0  0  0  0  0  0  0  0  0  0  0  0
    2.5187   -1.7306    0.0000 C   0  0  0  0  0  0  0  0  0  0  0  0
    1.7931   -1.3260    0.0000 C   0  0  0  0  0  0  0  0  0  0  0  0
    2.4937   -0.0793    0.0000 C   0  0  0  0  0  0  0  0  0  0  0  0
    1.0675   -0.0876    0.0000 C   0  0  0  0  0  0  0  0  0  0  0  0
  2  7  1  0  0  0  0
  3  2  1  0  0  0  0
  4  2  1  0  0  0  0
  5  1  1  0  0  0  0
  6  1  1  0  0  0  0
  7 17  2  0  0  0  0
  8  1  2  0  0  0  0
  9  1  2  0  0  0  0
 10  4  1  0  0  0  0
 11  3  1  0  0  0  0
 12  3  2  0  0  0  0
 13  4  2  0  0  0  0
 14  6  1  0  0  0  0
 15  6  2  0  0  0  0
 16 14  2  0  0  0  0
 17 15  1  0  0  0  0
 18  5  1  0  0  0  0
 19 22  2  0  0  0  0
 20 18  1  0  0  0  0
 21 18  2  0  0  0  0
 22 21  1  0  0  0  0
 23 20  2  0  0  0  0
 24 19  1  0  0  0  0
  7 16  1  0  0  0  0
 19 23  1  0  0  0  0
 10 11  1  0  0  0  0
M  END
>  <IDNUMBER>
F3350-0562

>  <Chemical_Name>
4-(2,5-dioxopyrrolidin-1-yl)-N-(4-methylphenyl)benzene-1-sulfonamide

>  <PriceCoeff>
1.00

>  <CAS>
331432-28-1

>  <MW>
344.38

>  <Description>
solid

>  <FSP3>
0.18

>  <clogP>
1.25

>  <TPSA>
91.93

>  <Acceptor>
5

>  <Donor>
1

>  <RotBonds>
4

>  <HAC>
24

>  <Collection>
General

>  <PPDS>
+

$$$$
F3350-0564
  Mrv2219 10102508112D          

 26 28  0  0  0  0            999 V2000
    5.0151   -2.5681    0.0000 S   0  0  0  0  0  0  0  0  0  0  0  0
    7.8672   -4.2134    0.0000 N   0  0  0  0  0  0  0  0  0  0  0  0
    7.9465   -5.0402    0.0000 C   0  0  0  0  0  0  0  0  0  0  0  0
    8.6230   -3.8877    0.0000 C   0  0  0  0  0  0  0  0  0  0  0  0
    4.3011   -2.1589    0.0000 N   0  0  0  0  0  0  0  0  0  0  0  0
    5.7292   -2.9815    0.0000 C   0  0  0  0  0  0  0  0  0  0  0  0
    7.1531   -3.8000    0.0000 C   0  0  0  0  0  0  0  0  0  0  0  0
    4.6017   -3.2864    0.0000 O   0  0  0  0  0  0  0  0  0  0  0  0
    5.4286   -1.8583    0.0000 O   0  0  0  0  0  0  0  0  0  0  0  0
    1.4699   -0.4635    0.0000 C   0  0  0  0  0  0  0  0  0  0  0  0
    2.1798   -0.8894    0.0000 C   0  0  0  0  0  0  0  0  0  0  0  0
    9.1742   -4.5015    0.0000 C   0  0  0  0  0  0  0  0  0  0  0  0
    8.7608   -5.2156    0.0000 C   0  0  0  0  0  0  0  0  0  0  0  0
    7.3327   -5.5914    0.0000 O   0  0  0  0  0  0  0  0  0  0  0  0
    8.7984   -3.0817    0.0000 O   0  0  0  0  0  0  0  0  0  0  0  0
    6.4391   -2.5723    0.0000 C   0  0  0  0  0  0  0  0  0  0  0  0
    5.7292   -3.8000    0.0000 C   0  0  0  0  0  0  0  0  0  0  0  0
    7.1531   -2.9857    0.0000 C   0  0  0  0  0  0  0  0  0  0  0  0
    6.4433   -4.2134    0.0000 C   0  0  0  0  0  0  0  0  0  0  0  0
    0.7559   -0.8561    0.0000 O   0  0  0  0  0  0  0  0  0  0  0  0
    3.5870   -1.7330    0.0000 C   0  0  0  0  0  0  0  0  0  0  0  0
    2.1798   -1.7037    0.0000 C   0  0  0  0  0  0  0  0  0  0  0  0
    2.9106   -0.4886    0.0000 C   0  0  0  0  0  0  0  0  0  0  0  0
    2.8688   -2.1088    0.0000 C   0  0  0  0  0  0  0  0  0  0  0  0
    3.5996   -0.9020    0.0000 C   0  0  0  0  0  0  0  0  0  0  0  0
    1.4824    0.3633    0.0000 C   0  0  0  0  0  0  0  0  0  0  0  0
  2  7  1  0  0  0  0
  3  2  1  0  0  0  0
  4  2  1  0  0  0  0
  5  1  1  0  0  0  0
  6  1  1  0  0  0  0
  7 19  2  0  0  0  0
  8  1  2  0  0  0  0
  9  1  2  0  0  0  0
 10 11  1  0  0  0  0
 11 23  2  0  0  0  0
 12  4  1  0  0  0  0
 13  3  1  0  0  0  0
 14  3  2  0  0  0  0
 15  4  2  0  0  0  0
 16  6  1  0  0  0  0
 17  6  2  0  0  0  0
 18 16  2  0  0  0  0
 19 17  1  0  0  0  0
 20 10  2  0  0  0  0
 21  5  1  0  0  0  0
 22 24  2  0  0  0  0
 23 25  1  0  0  0  0
 24 21  1  0  0  0  0
 25 21  2  0  0  0  0
 26 10  1  0  0  0  0
  7 18  1  0  0  0  0
 11 22  1  0  0  0  0
 12 13  1  0  0  0  0
M  END
>  <IDNUMBER>
F3350-0564

>  <Chemical_Name>
N-(4-acetylphenyl)-4-(2,5-dioxopyrrolidin-1-yl)benzene-1-sulfonamide

>  <PriceCoeff>
1.00

>  <CAS>
331432-29-2

>  <MW>
372.40

>  <Description>
solid

>  <FSP3>
0.17

>  <clogP>
0.55

>  <TPSA>
109.00

>  <Acceptor>
6

>  <Donor>
1

>  <RotBonds>
5

>  <HAC>
26

>  <Collection>
General

>  <PPDS>
+

$$$$
F3350-0566
  Mrv2219 10102508112D          

 25 27  0  0  0  0            999 V2000
    4.3006   -2.5553    0.0000 S   0  0  0  0  0  0  0  0  0  0  0  0
    7.1565   -4.2129    0.0000 N   0  0  0  0  0  0  0  0  0  0  0  0
    3.5824   -2.1419    0.0000 N   0  0  0  0  0  0  0  0  0  0  0  0
    7.2400   -5.0396    0.0000 C   0  0  0  0  0  0  0  0  0  0  0  0
    7.9164   -3.8872    0.0000 C   0  0  0  0  0  0  0  0  0  0  0  0
    2.8601   -1.7286    0.0000 C   0  0  0  0  0  0  0  0  0  0  0  0
    5.0146   -2.9686    0.0000 C   0  0  0  0  0  0  0  0  0  0  0  0
    6.4425   -3.7996    0.0000 C   0  0  0  0  0  0  0  0  0  0  0  0
    4.7139   -1.8455    0.0000 O   0  0  0  0  0  0  0  0  0  0  0  0
    3.8872   -3.2735    0.0000 O   0  0  0  0  0  0  0  0  0  0  0  0
    8.4675   -4.5010    0.0000 C   0  0  0  0  0  0  0  0  0  0  0  0
    8.0458   -5.2233    0.0000 C   0  0  0  0  0  0  0  0  0  0  0  0
    6.6179   -5.5908    0.0000 O   0  0  0  0  0  0  0  0  0  0  0  0
    8.0917   -3.0814    0.0000 O   0  0  0  0  0  0  0  0  0  0  0  0
    2.8601   -0.8935    0.0000 C   0  0  0  0  0  0  0  0  0  0  0  0
    5.0104   -3.7953    0.0000 C   0  0  0  0  0  0  0  0  0  0  0  0
    5.7285   -2.5595    0.0000 C   0  0  0  0  0  0  0  0  0  0  0  0
    5.7285   -4.2004    0.0000 C   0  0  0  0  0  0  0  0  0  0  0  0
    6.4425   -2.9728    0.0000 C   0  0  0  0  0  0  0  0  0  0  0  0
    3.5741   -0.4802    0.0000 O   0  0  0  0  0  0  0  0  0  0  0  0
    2.1461   -2.1419    0.0000 C   0  0  0  0  0  0  0  0  0  0  0  0
    2.1461   -0.4802    0.0000 C   0  0  0  0  0  0  0  0  0  0  0  0
    3.5741    0.3465    0.0000 C   0  0  0  0  0  0  0  0  0  0  0  0
    1.4322   -1.7286    0.0000 C   0  0  0  0  0  0  0  0  0  0  0  0
    1.4322   -0.9019    0.0000 C   0  0  0  0  0  0  0  0  0  0  0  0
  2  8  1  0  0  0  0
  3  1  1  0  0  0  0
  4  2  1  0  0  0  0
  5  2  1  0  0  0  0
  6  3  1  0  0  0  0
  7  1  1  0  0  0  0
  8 19  1  0  0  0  0
  9  1  2  0  0  0  0
 10  1  2  0  0  0  0
 11  5  1  0  0  0  0
 12  4  1  0  0  0  0
 13  4  2  0  0  0  0
 14  5  2  0  0  0  0
 15  6  1  0  0  0  0
 16  7  2  0  0  0  0
 17  7  1  0  0  0  0
 18 16  1  0  0  0  0
 19 17  2  0  0  0  0
 20 15  1  0  0  0  0
 21  6  2  0  0  0  0
 22 15  2  0  0  0  0
 23 20  1  0  0  0  0
 24 21  1  0  0  0  0
 25 24  2  0  0  0  0
  8 18  2  0  0  0  0
 25 22  1  0  0  0  0
 11 12  1  0  0  0  0
M  END
>  <IDNUMBER>
F3350-0566

>  <Chemical_Name>
4-(2,5-dioxopyrrolidin-1-yl)-N-(2-methoxyphenyl)benzene-1-sulfonamide

>  <PriceCoeff>
1.00

>  <CAS>
919681-26-8

>  <MW>
360.38

>  <Description>
solid

>  <FSP3>
0.18

>  <clogP>
0.79

>  <TPSA>
101.16

>  <Acceptor>
6

>  <Donor>
1

>  <RotBonds>
5

>  <HAC>
25

>  <Collection>
General

>  <PPDS>
+

$$$$
F3350-0575
  Mrv2219 10102508112D          

 27 29  0  0  0  0            999 V2000
    3.6017   -2.5341    0.0000 S   0  0  0  0  0  0  0  0  0  0  0  0
    6.4847   -4.1667    0.0000 N   0  0  0  0  0  0  0  0  0  0  0  0
    2.8830   -2.1353    0.0000 N   0  0  0  0  0  0  0  0  0  0  0  0
    2.1560   -0.9139    0.0000 C   0  0  0  0  0  0  0  0  0  0  0  0
    6.5802   -4.9892    0.0000 C   0  0  0  0  0  0  0  0  0  0  0  0
    7.2407   -3.8260    0.0000 C   0  0  0  0  0  0  0  0  0  0  0  0
    2.1602   -1.7365    0.0000 C   0  0  0  0  0  0  0  0  0  0  0  0
    2.8581   -0.4902    0.0000 C   0  0  0  0  0  0  0  0  0  0  0  0
    4.3245   -2.9453    0.0000 C   0  0  0  0  0  0  0  0  0  0  0  0
    5.7619   -3.7554    0.0000 C   0  0  0  0  0  0  0  0  0  0  0  0
    4.0129   -1.8237    0.0000 O   0  0  0  0  0  0  0  0  0  0  0  0
    3.1946   -3.2652    0.0000 O   0  0  0  0  0  0  0  0  0  0  0  0
    7.8015   -4.4284    0.0000 C   0  0  0  0  0  0  0  0  0  0  0  0
    7.3903   -5.1595    0.0000 C   0  0  0  0  0  0  0  0  0  0  0  0
    5.9695   -5.5500    0.0000 O   0  0  0  0  0  0  0  0  0  0  0  0
    7.4069   -3.0159    0.0000 O   0  0  0  0  0  0  0  0  0  0  0  0
    2.8581    0.3323    0.0000 O   0  0  0  0  0  0  0  0  0  0  0  0
    4.3287   -3.7679    0.0000 C   0  0  0  0  0  0  0  0  0  0  0  0
    5.0348   -2.5299    0.0000 C   0  0  0  0  0  0  0  0  0  0  0  0
    5.0515   -4.1791    0.0000 C   0  0  0  0  0  0  0  0  0  0  0  0
    5.7494   -2.9329    0.0000 C   0  0  0  0  0  0  0  0  0  0  0  0
    3.5767   -0.9015    0.0000 O   0  0  0  0  0  0  0  0  0  0  0  0
    1.4374   -0.5027    0.0000 C   0  0  0  0  0  0  0  0  0  0  0  0
    1.4498   -2.1560    0.0000 C   0  0  0  0  0  0  0  0  0  0  0  0
    4.2871   -0.4860    0.0000 C   0  0  0  0  0  0  0  0  0  0  0  0
    0.7270   -0.9222    0.0000 C   0  0  0  0  0  0  0  0  0  0  0  0
    0.7353   -1.7489    0.0000 C   0  0  0  0  0  0  0  0  0  0  0  0
  2 10  1  0  0  0  0
  3  1  1  0  0  0  0
  4  7  1  0  0  0  0
  5  2  1  0  0  0  0
  6  2  1  0  0  0  0
  7  3  1  0  0  0  0
  8  4  1  0  0  0  0
  9  1  1  0  0  0  0
 10 21  1  0  0  0  0
 11  1  2  0  0  0  0
 12  1  2  0  0  0  0
 13  6  1  0  0  0  0
 14  5  1  0  0  0  0
 15  5  2  0  0  0  0
 16  6  2  0  0  0  0
 17  8  2  0  0  0  0
 18  9  2  0  0  0  0
 19  9  1  0  0  0  0
 20 18  1  0  0  0  0
 21 19  2  0  0  0  0
 22  8  1  0  0  0  0
 23  4  2  0  0  0  0
 24  7  2  0  0  0  0
 25 22  1  0  0  0  0
 26 27  2  0  0  0  0
 27 24  1  0  0  0  0
 10 20  2  0  0  0  0
 26 23  1  0  0  0  0
 13 14  1  0  0  0  0
M  END
>  <IDNUMBER>
F3350-0575

>  <Chemical_Name>
methyl 2-[4-(2,5-dioxopyrrolidin-1-yl)benzenesulfonamido]benzoate

>  <PriceCoeff>
1.00

>  <CAS>
919624-23-0

>  <MW>
388.39

>  <Description>
solid

>  <FSP3>
0.17

>  <clogP>
1.08

>  <TPSA>
118.23

>  <Acceptor>
7

>  <Donor>
1

>  <RotBonds>
6

>  <HAC>
27

>  <Collection>
General

>  <PPDS>
+

$$$$
F3350-0579
  Mrv2219 10102508112D          

 27 29  0  0  0  0            999 V2000
    5.0146    0.6847    0.0000 S   0  0  0  0  0  0  0  0  0  0  0  0
    7.8663    2.3549    0.0000 N   0  0  0  0  0  0  0  0  0  0  0  0
    8.6303    2.0250    0.0000 C   0  0  0  0  0  0  0  0  0  0  0  0
    7.9540    3.1774    0.0000 C   0  0  0  0  0  0  0  0  0  0  0  0
    4.3006    0.2630    0.0000 N   0  0  0  0  0  0  0  0  0  0  0  0
    5.7285    1.1023    0.0000 C   0  0  0  0  0  0  0  0  0  0  0  0
    7.1523    1.9373    0.0000 C   0  0  0  0  0  0  0  0  0  0  0  0
    5.4362   -0.0293    0.0000 O   0  0  0  0  0  0  0  0  0  0  0  0
    4.6012    1.3987    0.0000 O   0  0  0  0  0  0  0  0  0  0  0  0
    2.8726    0.2588    0.0000 C   0  0  0  0  0  0  0  0  0  0  0  0
    2.1587   -0.1545    0.0000 C   0  0  0  0  0  0  0  0  0  0  0  0
    3.5866   -0.1545    0.0000 C   0  0  0  0  0  0  0  0  0  0  0  0
    2.1587   -0.9812    0.0000 C   0  0  0  0  0  0  0  0  0  0  0  0
    8.7598    3.3527    0.0000 C   0  0  0  0  0  0  0  0  0  0  0  0
    9.1815    2.6388    0.0000 C   0  0  0  0  0  0  0  0  0  0  0  0
    8.8057    1.2108    0.0000 O   0  0  0  0  0  0  0  0  0  0  0  0
    7.3402    3.7285    0.0000 O   0  0  0  0  0  0  0  0  0  0  0  0
    5.7243    1.9248    0.0000 C   0  0  0  0  0  0  0  0  0  0  0  0
    6.4425    0.6972    0.0000 C   0  0  0  0  0  0  0  0  0  0  0  0
    6.4383    2.3423    0.0000 C   0  0  0  0  0  0  0  0  0  0  0  0
    7.1565    1.1148    0.0000 C   0  0  0  0  0  0  0  0  0  0  0  0
    2.8726   -1.3946    0.0000 C   0  0  0  0  0  0  0  0  0  0  0  0
    3.5866   -0.9812    0.0000 C   0  0  0  0  0  0  0  0  0  0  0  0
    1.4447    0.2588    0.0000 O   0  0  0  0  0  0  0  0  0  0  0  0
    1.4447   -1.3946    0.0000 O   0  0  0  0  0  0  0  0  0  0  0  0
    0.7265   -0.1545    0.0000 C   0  0  0  0  0  0  0  0  0  0  0  0
    1.4447   -2.2213    0.0000 C   0  0  0  0  0  0  0  0  0  0  0  0
  2  7  1  0  0  0  0
  3  2  1  0  0  0  0
  4  2  1  0  0  0  0
  5  1  1  0  0  0  0
  6  1  1  0  0  0  0
  7 21  2  0  0  0  0
  8  1  2  0  0  0  0
  9  1  2  0  0  0  0
 10 12  2  0  0  0  0
 11 10  1  0  0  0  0
 12  5  1  0  0  0  0
 13 22  1  0  0  0  0
 14  4  1  0  0  0  0
 15  3  1  0  0  0  0
 16  3  2  0  0  0  0
 17  4  2  0  0  0  0
 18  6  1  0  0  0  0
 19  6  2  0  0  0  0
 20 18  2  0  0  0  0
 21 19  1  0  0  0  0
 22 23  2  0  0  0  0
 23 12  1  0  0  0  0
 24 11  1  0  0  0  0
 25 13  1  0  0  0  0
 26 24  1  0  0  0  0
 27 25  1  0  0  0  0
  7 20  1  0  0  0  0
 13 11  2  0  0  0  0
 14 15  1  0  0  0  0
M  END
>  <IDNUMBER>
F3350-0579

>  <Chemical_Name>
N-(3,4-dimethoxyphenyl)-4-(2,5-dioxopyrrolidin-1-yl)benzene-1-sulfonamide

>  <PriceCoeff>
1.00

>  <CAS>
919681-34-8

>  <MW>
390.41

>  <Description>
solid

>  <FSP3>
0.22

>  <clogP>
0.45

>  <TPSA>
110.39

>  <Acceptor>
7

>  <Donor>
1

>  <RotBonds>
6

>  <HAC>
27

>  <Collection>
General

>  <PPDS>
+

$$$$
F3350-0581
  Mrv2219 10102508112D          

 25 28  0  0  0  0            999 V2000
    1.0417   -0.8500    0.0000 S   0  0  0  0  0  0  0  0  0  0  0  0
    0.7917   -0.0667    0.0000 N   0  0  0  0  0  0  0  0  0  0  0  0
    2.0792   -3.9792    0.0000 N   0  0  0  0  0  0  0  0  0  0  0  0
    1.6042   -4.6500    0.0000 C   0  0  0  0  0  0  0  0  0  0  0  0
    2.8750   -4.2250    0.0000 C   0  0  0  0  0  0  0  0  0  0  0  0
    0.0042    0.1958    0.0000 C   0  0  0  0  0  0  0  0  0  0  0  0
    1.3042   -1.6292    0.0000 C   0  0  0  0  0  0  0  0  0  0  0  0
    1.2875    0.6083    0.0000 C   0  0  0  0  0  0  0  0  0  0  0  0
    0.3292   -1.2542    0.0000 O   0  0  0  0  0  0  0  0  0  0  0  0
    1.7542   -0.4292    0.0000 O   0  0  0  0  0  0  0  0  0  0  0  0
    1.8250   -3.1917    0.0000 C   0  0  0  0  0  0  0  0  0  0  0  0
    0.0042    1.0208    0.0000 C   0  0  0  0  0  0  0  0  0  0  0  0
    2.8792   -5.0500    0.0000 C   0  0  0  0  0  0  0  0  0  0  0  0
    2.1000   -5.3125    0.0000 C   0  0  0  0  0  0  0  0  0  0  0  0
    3.5375   -3.7375    0.0000 O   0  0  0  0  0  0  0  0  0  0  0  0
    0.7792   -4.6542    0.0000 O   0  0  0  0  0  0  0  0  0  0  0  0
    0.7917    1.2833    0.0000 C   0  0  0  0  0  0  0  0  0  0  0  0
    2.1125   -1.7917    0.0000 C   0  0  0  0  0  0  0  0  0  0  0  0
    0.7542   -2.2417    0.0000 C   0  0  0  0  0  0  0  0  0  0  0  0
    1.0167   -3.0292    0.0000 C   0  0  0  0  0  0  0  0  0  0  0  0
    2.3750   -2.5750    0.0000 C   0  0  0  0  0  0  0  0  0  0  0  0
   -0.7083   -0.2167    0.0000 C   0  0  0  0  0  0  0  0  0  0  0  0
   -0.7083    1.4333    0.0000 C   0  0  0  0  0  0  0  0  0  0  0  0
   -1.4208    0.1958    0.0000 C   0  0  0  0  0  0  0  0  0  0  0  0
   -1.4208    1.0208    0.0000 C   0  0  0  0  0  0  0  0  0  0  0  0
  2  1  1  0  0  0  0
  3 11  1  0  0  0  0
  4  3  1  0  0  0  0
  5  3  1  0  0  0  0
  6  2  1  0  0  0  0
  7  1  1  0  0  0  0
  8  2  1  0  0  0  0
  9  1  2  0  0  0  0
 10  1  2  0  0  0  0
 11 20  2  0  0  0  0
 12  6  1  0  0  0  0
 13  5  1  0  0  0  0
 14  4  1  0  0  0  0
 15  5  2  0  0  0  0
 16  4  2  0  0  0  0
 17  8  1  0  0  0  0
 18  7  1  0  0  0  0
 19  7  2  0  0  0  0
 20 19  1  0  0  0  0
 21 18  2  0  0  0  0
 22  6  2  0  0  0  0
 23 12  2  0  0  0  0
 24 22  1  0  0  0  0
 25 24  2  0  0  0  0
 21 11  1  0  0  0  0
 12 17  1  0  0  0  0
 25 23  1  0  0  0  0
 14 13  1  0  0  0  0
M  END
>  <IDNUMBER>
F3350-0581

>  <Chemical_Name>
1-[4-(2,3-dihydro-1H-indole-1-sulfonyl)phenyl]pyrrolidine-2,5-dione

>  <PriceCoeff>
1.00

>  <CAS>
919623-84-0

>  <MW>
356.40

>  <Description>
solid

>  <FSP3>
0.22

>  <clogP>
1.37

>  <TPSA>
83.14

>  <Acceptor>
5

>  <Donor>
0

>  <RotBonds>
3

>  <HAC>
25

>  <Collection>
General

>  <PPDS>
+

$$$$
F3350-0586
  Mrv2219 10102508112D          

 26 28  0  0  0  0            999 V2000
    5.3274   -2.2035    0.0000 S   0  0  0  0  0  0  0  0  0  0  0  0
    8.1348   -3.9362    0.0000 N   0  0  0  0  0  0  0  0  0  0  0  0
    8.1973   -4.7651    0.0000 C   0  0  0  0  0  0  0  0  0  0  0  0
    8.9012   -3.6280    0.0000 C   0  0  0  0  0  0  0  0  0  0  0  0
    4.6277   -1.7786    0.0000 N   0  0  0  0  0  0  0  0  0  0  0  0
    6.0272   -2.6408    0.0000 C   0  0  0  0  0  0  0  0  0  0  0  0
    7.4267   -3.5030    0.0000 C   0  0  0  0  0  0  0  0  0  0  0  0
    5.7648   -1.5120    0.0000 O   0  0  0  0  0  0  0  0  0  0  0  0
    4.8984   -2.9157    0.0000 O   0  0  0  0  0  0  0  0  0  0  0  0
    9.4344   -4.2528    0.0000 C   0  0  0  0  0  0  0  0  0  0  0  0
    8.9970   -4.9651    0.0000 C   0  0  0  0  0  0  0  0  0  0  0  0
    7.5642   -5.2982    0.0000 O   0  0  0  0  0  0  0  0  0  0  0  0
    9.0970   -2.8283    0.0000 O   0  0  0  0  0  0  0  0  0  0  0  0
    6.0022   -3.4655    0.0000 C   0  0  0  0  0  0  0  0  0  0  0  0
    6.7520   -2.2535    0.0000 C   0  0  0  0  0  0  0  0  0  0  0  0
    6.7103   -3.8904    0.0000 C   0  0  0  0  0  0  0  0  0  0  0  0
    7.4517   -2.6866    0.0000 C   0  0  0  0  0  0  0  0  0  0  0  0
    3.9237   -1.3538    0.0000 C   0  0  0  0  0  0  0  0  0  0  0  0
    2.5159   -0.4790    0.0000 C   0  0  0  0  0  0  0  0  0  0  0  0
    3.9404   -0.5290    0.0000 C   0  0  0  0  0  0  0  0  0  0  0  0
    3.1906   -1.7411    0.0000 C   0  0  0  0  0  0  0  0  0  0  0  0
    2.4909   -1.3038    0.0000 C   0  0  0  0  0  0  0  0  0  0  0  0
    3.2406   -0.0917    0.0000 C   0  0  0  0  0  0  0  0  0  0  0  0
    1.8161   -0.0542    0.0000 O   0  0  0  0  0  0  0  0  0  0  0  0
    1.0913   -0.4416    0.0000 C   0  0  0  0  0  0  0  0  0  0  0  0
    0.3874   -0.0042    0.0000 C   0  0  0  0  0  0  0  0  0  0  0  0
  2  7  1  0  0  0  0
  3  2  1  0  0  0  0
  4  2  1  0  0  0  0
  5  1  1  0  0  0  0
  6  1  1  0  0  0  0
  7 17  1  0  0  0  0
  8  1  2  0  0  0  0
  9  1  2  0  0  0  0
 10  4  1  0  0  0  0
 11  3  1  0  0  0  0
 12  3  2  0  0  0  0
 13  4  2  0  0  0  0
 14  6  2  0  0  0  0
 15  6  1  0  0  0  0
 16 14  1  0  0  0  0
 17 15  2  0  0  0  0
 18  5  1  0  0  0  0
 19 22  2  0  0  0  0
 20 18  1  0  0  0  0
 21 18  2  0  0  0  0
 22 21  1  0  0  0  0
 23 20  2  0  0  0  0
 24 19  1  0  0  0  0
 25 24  1  0  0  0  0
 26 25  1  0  0  0  0
  7 16  2  0  0  0  0
 19 23  1  0  0  0  0
 10 11  1  0  0  0  0
M  END
>  <IDNUMBER>
F3350-0586

>  <Chemical_Name>
4-(2,5-dioxopyrrolidin-1-yl)-N-(4-ethoxyphenyl)benzene-1-sulfonamide

>  <PriceCoeff>
1.00

>  <CAS>
904051-99-6

>  <MW>
374.41

>  <Description>
solid

>  <FSP3>
0.22

>  <clogP>
1.32

>  <TPSA>
101.16

>  <Acceptor>
6

>  <Donor>
1

>  <RotBonds>
6

>  <HAC>
26

>  <Collection>
General

>  <PPDS>
+

$$$$
F3350-0588
  Mrv2219 10102508112D          

 27 29  0  0  0  0            999 V2000
    5.0042   -2.5292    0.0000 S   0  0  0  0  0  0  0  0  0  0  0  0
    7.8667   -4.1792    0.0000 N   0  0  0  0  0  0  0  0  0  0  0  0
    4.2917   -2.1292    0.0000 N   0  0  0  0  0  0  0  0  0  0  0  0
    7.9542   -5.0042    0.0000 C   0  0  0  0  0  0  0  0  0  0  0  0
    8.6167   -3.8500    0.0000 C   0  0  0  0  0  0  0  0  0  0  0  0
    3.5792   -1.7167    0.0000 C   0  0  0  0  0  0  0  0  0  0  0  0
    5.7250   -2.9417    0.0000 C   0  0  0  0  0  0  0  0  0  0  0  0
    3.5750   -0.9000    0.0000 C   0  0  0  0  0  0  0  0  0  0  0  0
    7.1500   -3.7667    0.0000 C   0  0  0  0  0  0  0  0  0  0  0  0
    5.4250   -1.8250    0.0000 O   0  0  0  0  0  0  0  0  0  0  0  0
    4.6000   -3.2542    0.0000 O   0  0  0  0  0  0  0  0  0  0  0  0
    2.8542   -0.4875    0.0000 C   0  0  0  0  0  0  0  0  0  0  0  0
    9.1750   -4.4667    0.0000 C   0  0  0  0  0  0  0  0  0  0  0  0
    8.7625   -5.1792    0.0000 C   0  0  0  0  0  0  0  0  0  0  0  0
    7.3375   -5.5542    0.0000 O   0  0  0  0  0  0  0  0  0  0  0  0
    8.7917   -3.0417    0.0000 O   0  0  0  0  0  0  0  0  0  0  0  0
    2.8625   -2.1375    0.0000 C   0  0  0  0  0  0  0  0  0  0  0  0
    5.7250   -3.7667    0.0000 C   0  0  0  0  0  0  0  0  0  0  0  0
    6.4375   -2.5375    0.0000 C   0  0  0  0  0  0  0  0  0  0  0  0
    6.4417   -4.1792    0.0000 C   0  0  0  0  0  0  0  0  0  0  0  0
    7.1500   -2.9500    0.0000 C   0  0  0  0  0  0  0  0  0  0  0  0
    2.1417   -0.9000    0.0000 C   0  0  0  0  0  0  0  0  0  0  0  0
    2.1417   -1.7250    0.0000 C   0  0  0  0  0  0  0  0  0  0  0  0
    4.2792   -0.4792    0.0000 O   0  0  0  0  0  0  0  0  0  0  0  0
    1.4292   -0.4917    0.0000 O   0  0  0  0  0  0  0  0  0  0  0  0
    4.2792    0.3458    0.0000 C   0  0  0  0  0  0  0  0  0  0  0  0
    0.7167   -0.9042    0.0000 C   0  0  0  0  0  0  0  0  0  0  0  0
  2  9  1  0  0  0  0
  3  1  1  0  0  0  0
  4  2  1  0  0  0  0
  5  2  1  0  0  0  0
  6  3  1  0  0  0  0
  7  1  1  0  0  0  0
  8  6  1  0  0  0  0
  9 21  1  0  0  0  0
 10  1  2  0  0  0  0
 11  1  2  0  0  0  0
 12  8  2  0  0  0  0
 13  5  1  0  0  0  0
 14  4  1  0  0  0  0
 15  4  2  0  0  0  0
 16  5  2  0  0  0  0
 17  6  2  0  0  0  0
 18  7  2  0  0  0  0
 19  7  1  0  0  0  0
 20 18  1  0  0  0  0
 21 19  2  0  0  0  0
 22 23  2  0  0  0  0
 23 17  1  0  0  0  0
 24  8  1  0  0  0  0
 25 22  1  0  0  0  0
 26 24  1  0  0  0  0
 27 25  1  0  0  0  0
  9 20  2  0  0  0  0
 22 12  1  0  0  0  0
 13 14  1  0  0  0  0
M  END
>  <IDNUMBER>
F3350-0588

>  <Chemical_Name>
N-(2,4-dimethoxyphenyl)-4-(2,5-dioxopyrrolidin-1-yl)benzene-1-sulfonamide

>  <PriceCoeff>
1.00

>  <CAS>
919648-74-1

>  <MW>
390.41

>  <Description>
solid

>  <FSP3>
0.22

>  <clogP>
0.80

>  <TPSA>
110.39

>  <Acceptor>
7

>  <Donor>
1

>  <RotBonds>
6

>  <HAC>
27

>  <Collection>
General

>  <PPDS>
+

$$$$
F3350-0589
  Mrv2219 10102508112D          

 24 26  0  0  0  0            999 V2000
    4.2984   -2.1450    0.0000 S   0  0  0  0  0  0  0  0  0  0  0  0
    7.1444   -3.8199    0.0000 N   0  0  0  0  0  0  0  0  0  0  0  0
    3.5932   -1.7295    0.0000 N   0  0  0  0  0  0  0  0  0  0  0  0
    7.2283   -4.6510    0.0000 C   0  0  0  0  0  0  0  0  0  0  0  0
    7.9083   -3.4925    0.0000 C   0  0  0  0  0  0  0  0  0  0  0  0
    2.8754   -1.3139    0.0000 C   0  0  0  0  0  0  0  0  0  0  0  0
    5.0162   -2.5606    0.0000 C   0  0  0  0  0  0  0  0  0  0  0  0
    6.4349   -3.4001    0.0000 C   0  0  0  0  0  0  0  0  0  0  0  0
    4.7266   -1.4398    0.0000 O   0  0  0  0  0  0  0  0  0  0  0  0
    3.8828   -2.8628    0.0000 O   0  0  0  0  0  0  0  0  0  0  0  0
    8.4540   -4.1179    0.0000 C   0  0  0  0  0  0  0  0  0  0  0  0
    8.0342   -4.8273    0.0000 C   0  0  0  0  0  0  0  0  0  0  0  0
    2.8880   -0.4954    0.0000 C   0  0  0  0  0  0  0  0  0  0  0  0
    6.6029   -5.1925    0.0000 O   0  0  0  0  0  0  0  0  0  0  0  0
    8.0888   -2.6865    0.0000 O   0  0  0  0  0  0  0  0  0  0  0  0
    5.0036   -3.3917    0.0000 C   0  0  0  0  0  0  0  0  0  0  0  0
    5.7297   -2.1576    0.0000 C   0  0  0  0  0  0  0  0  0  0  0  0
    5.7214   -3.8073    0.0000 C   0  0  0  0  0  0  0  0  0  0  0  0
    6.4392   -2.5815    0.0000 C   0  0  0  0  0  0  0  0  0  0  0  0
    3.6141   -0.0924    0.0000 F   0  0  0  0  0  0  0  0  0  0  0  0
    2.1660   -1.7252    0.0000 C   0  0  0  0  0  0  0  0  0  0  0  0
    2.1702   -0.0756    0.0000 C   0  0  0  0  0  0  0  0  0  0  0  0
    1.4524   -1.3139    0.0000 C   0  0  0  0  0  0  0  0  0  0  0  0
    1.4608   -0.4785    0.0000 C   0  0  0  0  0  0  0  0  0  0  0  0
  2  8  1  0  0  0  0
  3  1  1  0  0  0  0
  4  2  1  0  0  0  0
  5  2  1  0  0  0  0
  6  3  1  0  0  0  0
  7  1  1  0  0  0  0
  8 19  1  0  0  0  0
  9  1  2  0  0  0  0
 10  1  2  0  0  0  0
 11  5  1  0  0  0  0
 12  4  1  0  0  0  0
 13  6  1  0  0  0  0
 14  4  2  0  0  0  0
 15  5  2  0  0  0  0
 16  7  2  0  0  0  0
 17  7  1  0  0  0  0
 18 16  1  0  0  0  0
 19 17  2  0  0  0  0
 20 13  1  0  0  0  0
 21  6  2  0  0  0  0
 22 13  2  0  0  0  0
 23 21  1  0  0  0  0
 24 23  2  0  0  0  0
  8 18  2  0  0  0  0
 24 22  1  0  0  0  0
 11 12  1  0  0  0  0
M  END
>  <IDNUMBER>
F3350-0589

>  <Chemical_Name>
4-(2,5-dioxopyrrolidin-1-yl)-N-(2-fluorophenyl)benzene-1-sulfonamide

>  <PriceCoeff>
1.00

>  <CAS>
919681-14-4

>  <MW>
348.35

>  <Description>
solid

>  <FSP3>
0.12

>  <clogP>
0.64

>  <TPSA>
91.93

>  <Acceptor>
5

>  <Donor>
1

>  <RotBonds>
4

>  <HAC>
24

>  <Collection>
General

>  <PPDS>
+

$$$$
F3350-0591
  Mrv2219 10102508112D          

 24 26  0  0  0  0            999 V2000
    4.6632   -2.1391    0.0000 S   0  0  0  0  0  0  0  0  0  0  0  0
    7.5222   -3.7967    0.0000 N   0  0  0  0  0  0  0  0  0  0  0  0
    7.6017   -4.6213    0.0000 C   0  0  0  0  0  0  0  0  0  0  0  0
    8.2799   -3.4660    0.0000 C   0  0  0  0  0  0  0  0  0  0  0  0
    3.9557   -1.7330    0.0000 N   0  0  0  0  0  0  0  0  0  0  0  0
    5.3790   -2.5535    0.0000 C   0  0  0  0  0  0  0  0  0  0  0  0
    6.8064   -3.3781    0.0000 C   0  0  0  0  0  0  0  0  0  0  0  0
    5.0859   -1.4316    0.0000 O   0  0  0  0  0  0  0  0  0  0  0  0
    4.2571   -2.8549    0.0000 O   0  0  0  0  0  0  0  0  0  0  0  0
    8.8324   -4.0813    0.0000 C   0  0  0  0  0  0  0  0  0  0  0  0
    8.4138   -4.7971    0.0000 C   0  0  0  0  0  0  0  0  0  0  0  0
    6.9864   -5.1738    0.0000 O   0  0  0  0  0  0  0  0  0  0  0  0
    8.4557   -2.6539    0.0000 O   0  0  0  0  0  0  0  0  0  0  0  0
    5.3790   -3.3781    0.0000 C   0  0  0  0  0  0  0  0  0  0  0  0
    6.0948   -2.1474    0.0000 C   0  0  0  0  0  0  0  0  0  0  0  0
    6.0948   -3.7841    0.0000 C   0  0  0  0  0  0  0  0  0  0  0  0
    6.8064   -2.5535    0.0000 C   0  0  0  0  0  0  0  0  0  0  0  0
    3.2399   -1.3228    0.0000 C   0  0  0  0  0  0  0  0  0  0  0  0
    1.8000   -0.5065    0.0000 C   0  0  0  0  0  0  0  0  0  0  0  0
    1.0842   -0.0921    0.0000 F   0  0  0  0  0  0  0  0  0  0  0  0
    2.5158   -1.7455    0.0000 C   0  0  0  0  0  0  0  0  0  0  0  0
    3.2316   -0.4940    0.0000 C   0  0  0  0  0  0  0  0  0  0  0  0
    1.8000   -1.3311    0.0000 C   0  0  0  0  0  0  0  0  0  0  0  0
    2.5158   -0.0879    0.0000 C   0  0  0  0  0  0  0  0  0  0  0  0
  2  7  1  0  0  0  0
  3  2  1  0  0  0  0
  4  2  1  0  0  0  0
  5  1  1  0  0  0  0
  6  1  1  0  0  0  0
  7 17  1  0  0  0  0
  8  1  2  0  0  0  0
  9  1  2  0  0  0  0
 10  4  1  0  0  0  0
 11  3  1  0  0  0  0
 12  3  2  0  0  0  0
 13  4  2  0  0  0  0
 14  6  2  0  0  0  0
 15  6  1  0  0  0  0
 16 14  1  0  0  0  0
 17 15  2  0  0  0  0
 18  5  1  0  0  0  0
 19 24  2  0  0  0  0
 20 19  1  0  0  0  0
 21 18  1  0  0  0  0
 22 18  2  0  0  0  0
 23 21  2  0  0  0  0
 24 22  1  0  0  0  0
  7 16  2  0  0  0  0
 19 23  1  0  0  0  0
 10 11  1  0  0  0  0
M  END
>  <IDNUMBER>
F3350-0591

>  <Chemical_Name>
4-(2,5-dioxopyrrolidin-1-yl)-N-(4-fluorophenyl)benzene-1-sulfonamide

>  <PriceCoeff>
1.00

>  <CAS>
387-28-0

>  <MW>
348.35

>  <Description>
solid

>  <FSP3>
0.12

>  <clogP>
1.09

>  <TPSA>
91.93

>  <Acceptor>
5

>  <Donor>
1

>  <RotBonds>
4

>  <HAC>
24

>  <Collection>
General

>  <PPDS>
+

$$$$
F3350-0593
  Mrv2219 10102508112D          

 25 27  0  0  0  0            999 V2000
    4.2826   -2.7689    0.0000 S   0  0  0  0  0  0  0  0  0  0  0  0
    7.1099   -4.4703    0.0000 N   0  0  0  0  0  0  0  0  0  0  0  0
    7.1850   -5.2960    0.0000 C   0  0  0  0  0  0  0  0  0  0  0  0
    7.8730   -4.1533    0.0000 C   0  0  0  0  0  0  0  0  0  0  0  0
    3.5821   -2.3561    0.0000 N   0  0  0  0  0  0  0  0  0  0  0  0
    4.9957   -3.1943    0.0000 C   0  0  0  0  0  0  0  0  0  0  0  0
    6.4051   -4.0450    0.0000 C   0  0  0  0  0  0  0  0  0  0  0  0
    4.7163   -2.0684    0.0000 O   0  0  0  0  0  0  0  0  0  0  0  0
    3.8656   -3.4820    0.0000 O   0  0  0  0  0  0  0  0  0  0  0  0
    2.8690   -1.9308    0.0000 C   0  0  0  0  0  0  0  0  0  0  0  0
    8.4110   -4.7788    0.0000 C   0  0  0  0  0  0  0  0  0  0  0  0
    7.9856   -5.4836    0.0000 C   0  0  0  0  0  0  0  0  0  0  0  0
    6.5595   -5.8422    0.0000 O   0  0  0  0  0  0  0  0  0  0  0  0
    8.0607   -3.3527    0.0000 O   0  0  0  0  0  0  0  0  0  0  0  0
    2.8898   -1.1051    0.0000 C   0  0  0  0  0  0  0  0  0  0  0  0
    4.9790   -4.0199    0.0000 C   0  0  0  0  0  0  0  0  0  0  0  0
    5.7088   -2.8023    0.0000 C   0  0  0  0  0  0  0  0  0  0  0  0
    5.6921   -4.4453    0.0000 C   0  0  0  0  0  0  0  0  0  0  0  0
    6.4177   -3.2276    0.0000 C   0  0  0  0  0  0  0  0  0  0  0  0
    2.1767   -0.6797    0.0000 C   0  0  0  0  0  0  0  0  0  0  0  0
    2.1935    0.1459    0.0000 O   0  0  0  0  0  0  0  0  0  0  0  0
    1.4387   -1.9057    0.0000 C   0  0  0  0  0  0  0  0  0  0  0  0
    2.1434   -2.3311    0.0000 C   0  0  0  0  0  0  0  0  0  0  0  0
    1.4554   -1.0759    0.0000 C   0  0  0  0  0  0  0  0  0  0  0  0
    1.4887    0.5713    0.0000 C   0  0  0  0  0  0  0  0  0  0  0  0
  2  7  1  0  0  0  0
  3  2  1  0  0  0  0
  4  2  1  0  0  0  0
  5  1  1  0  0  0  0
  6  1  1  0  0  0  0
  7 19  1  0  0  0  0
  8  1  2  0  0  0  0
  9  1  2  0  0  0  0
 10  5  1  0  0  0  0
 11  4  1  0  0  0  0
 12  3  1  0  0  0  0
 13  3  2  0  0  0  0
 14  4  2  0  0  0  0
 15 10  1  0  0  0  0
 16  6  2  0  0  0  0
 17  6  1  0  0  0  0
 18 16  1  0  0  0  0
 19 17  2  0  0  0  0
 20 15  2  0  0  0  0
 21 20  1  0  0  0  0
 22 23  1  0  0  0  0
 23 10  2  0  0  0  0
 24 22  2  0  0  0  0
 25 21  1  0  0  0  0
  7 18  2  0  0  0  0
 24 20  1  0  0  0  0
 11 12  1  0  0  0  0
M  END
>  <IDNUMBER>
F3350-0593

>  <Chemical_Name>
4-(2,5-dioxopyrrolidin-1-yl)-N-(3-methoxyphenyl)benzene-1-sulfonamide

>  <PriceCoeff>
1.00

>  <CAS>
919624-08-1

>  <MW>
360.38

>  <Description>
solid

>  <FSP3>
0.18

>  <clogP>
0.79

>  <TPSA>
101.16

>  <Acceptor>
6

>  <Donor>
1

>  <RotBonds>
5

>  <HAC>
25

>  <Collection>
General

>  <PPDS>
+

$$$$
F3350-0608
  Mrv2219 10102508112D          

 26 28  0  0  0  0            999 V2000
    5.4014   -0.8750    0.0000 S   0  0  0  0  0  0  0  0  0  0  0  0
    8.2705   -2.5030    0.0000 N   0  0  0  0  0  0  0  0  0  0  0  0
    8.3588   -3.3317    0.0000 C   0  0  0  0  0  0  0  0  0  0  0  0
    9.0234   -2.1707    0.0000 C   0  0  0  0  0  0  0  0  0  0  0  0
    4.6863   -0.4712    0.0000 N   0  0  0  0  0  0  0  0  0  0  0  0
    6.1208   -1.2789    0.0000 C   0  0  0  0  0  0  0  0  0  0  0  0
    7.5511   -2.0950    0.0000 C   0  0  0  0  0  0  0  0  0  0  0  0
    5.8095   -0.1557    0.0000 O   0  0  0  0  0  0  0  0  0  0  0  0
    4.9976   -1.5944    0.0000 O   0  0  0  0  0  0  0  0  0  0  0  0
    9.5830   -2.7807    0.0000 C   0  0  0  0  0  0  0  0  0  0  0  0
    9.1665   -3.5000    0.0000 C   0  0  0  0  0  0  0  0  0  0  0  0
    7.7530   -3.8870    0.0000 O   0  0  0  0  0  0  0  0  0  0  0  0
    9.1917   -1.3630    0.0000 O   0  0  0  0  0  0  0  0  0  0  0  0
    6.1250   -2.1076    0.0000 C   0  0  0  0  0  0  0  0  0  0  0  0
    6.8275   -0.8708    0.0000 C   0  0  0  0  0  0  0  0  0  0  0  0
    6.8444   -2.5114    0.0000 C   0  0  0  0  0  0  0  0  0  0  0  0
    7.5469   -1.2746    0.0000 C   0  0  0  0  0  0  0  0  0  0  0  0
    3.9670   -0.0673    0.0000 C   0  0  0  0  0  0  0  0  0  0  0  0
    3.2602   -0.4838    0.0000 C   0  0  0  0  0  0  0  0  0  0  0  0
    1.8173   -1.3167    0.0000 C   0  0  0  0  0  0  0  0  0  0  0  0
    3.2602   -1.3167    0.0000 C   0  0  0  0  0  0  0  0  0  0  0  0
    2.5283   -0.0673    0.0000 C   0  0  0  0  0  0  0  0  0  0  0  0
    2.5283   -1.7332    0.0000 C   0  0  0  0  0  0  0  0  0  0  0  0
    1.8173   -0.4838    0.0000 C   0  0  0  0  0  0  0  0  0  0  0  0
    1.1022   -1.7332    0.0000 O   0  0  0  0  0  0  0  0  0  0  0  0
    0.3828   -1.3167    0.0000 C   0  0  0  0  0  0  0  0  0  0  0  0
  2  7  1  0  0  0  0
  3  2  1  0  0  0  0
  4  2  1  0  0  0  0
  5  1  1  0  0  0  0
  6  1  1  0  0  0  0
  7 17  1  0  0  0  0
  8  1  2  0  0  0  0
  9  1  2  0  0  0  0
 10  4  1  0  0  0  0
 11  3  1  0  0  0  0
 12  3  2  0  0  0  0
 13  4  2  0  0  0  0
 14  6  2  0  0  0  0
 15  6  1  0  0  0  0
 16 14  1  0  0  0  0
 17 15  2  0  0  0  0
 18  5  1  0  0  0  0
 19 18  1  0  0  0  0
 20 24  2  0  0  0  0
 21 19  1  0  0  0  0
 22 19  2  0  0  0  0
 23 21  2  0  0  0  0
 24 22  1  0  0  0  0
 25 20  1  0  0  0  0
 26 25  1  0  0  0  0
  7 16  2  0  0  0  0
 20 23  1  0  0  0  0
 10 11  1  0  0  0  0
M  END
>  <IDNUMBER>
F3350-0608

>  <Chemical_Name>
4-(2,5-dioxopyrrolidin-1-yl)-N-[(4-methoxyphenyl)methyl]benzene-1-sulfonamide

>  <PriceCoeff>
1.00

>  <CAS>
919623-30-6

>  <MW>
374.41

>  <Description>
solid

>  <FSP3>
0.22

>  <clogP>
0.78

>  <TPSA>
101.16

>  <Acceptor>
5

>  <Donor>
1

>  <RotBonds>
6

>  <HAC>
26

>  <Collection>
General

>  <PPDS>
+

$$$$
F3350-0613
  Mrv2219 10102508112D          

 24 26  0  0  0  0            999 V2000
    4.3006   -2.5470    0.0000 S   0  0  0  0  0  0  0  0  0  0  0  0
    7.1523   -4.1962    0.0000 N   0  0  0  0  0  0  0  0  0  0  0  0
    3.5866   -2.1336    0.0000 N   0  0  0  0  0  0  0  0  0  0  0  0
    7.2317   -5.0229    0.0000 C   0  0  0  0  0  0  0  0  0  0  0  0
    7.9081   -3.8622    0.0000 C   0  0  0  0  0  0  0  0  0  0  0  0
    2.8726   -1.7203    0.0000 C   0  0  0  0  0  0  0  0  0  0  0  0
    5.0146   -2.9603    0.0000 C   0  0  0  0  0  0  0  0  0  0  0  0
    6.4383   -3.7828    0.0000 C   0  0  0  0  0  0  0  0  0  0  0  0
    4.7139   -1.8330    0.0000 O   0  0  0  0  0  0  0  0  0  0  0  0
    3.8872   -3.2609    0.0000 O   0  0  0  0  0  0  0  0  0  0  0  0
    2.1587   -2.1336    0.0000 N   0  0  0  0  0  0  0  0  0  0  0  0
    8.4592   -4.4843    0.0000 C   0  0  0  0  0  0  0  0  0  0  0  0
    8.0458   -5.1983    0.0000 C   0  0  0  0  0  0  0  0  0  0  0  0
    6.6179   -5.5740    0.0000 O   0  0  0  0  0  0  0  0  0  0  0  0
    8.0834   -3.0605    0.0000 O   0  0  0  0  0  0  0  0  0  0  0  0
    5.7243   -2.5470    0.0000 C   0  0  0  0  0  0  0  0  0  0  0  0
    5.0146   -3.7828    0.0000 C   0  0  0  0  0  0  0  0  0  0  0  0
    6.4383   -2.9603    0.0000 C   0  0  0  0  0  0  0  0  0  0  0  0
    5.7285   -4.1879    0.0000 C   0  0  0  0  0  0  0  0  0  0  0  0
    2.8726   -0.8935    0.0000 C   0  0  0  0  0  0  0  0  0  0  0  0
    1.4447   -1.7203    0.0000 C   0  0  0  0  0  0  0  0  0  0  0  0
    2.1587   -0.4802    0.0000 C   0  0  0  0  0  0  0  0  0  0  0  0
    1.4447   -0.8935    0.0000 C   0  0  0  0  0  0  0  0  0  0  0  0
    2.1545    0.3465    0.0000 C   0  0  0  0  0  0  0  0  0  0  0  0
  2  8  1  0  0  0  0
  3  1  1  0  0  0  0
  4  2  1  0  0  0  0
  5  2  1  0  0  0  0
  6  3  1  0  0  0  0
  7  1  1  0  0  0  0
  8 19  2  0  0  0  0
  9  1  2  0  0  0  0
 10  1  2  0  0  0  0
 11  6  2  0  0  0  0
 12  5  1  0  0  0  0
 13  4  1  0  0  0  0
 14  4  2  0  0  0  0
 15  5  2  0  0  0  0
 16  7  1  0  0  0  0
 17  7  2  0  0  0  0
 18 16  2  0  0  0  0
 19 17  1  0  0  0  0
 20  6  1  0  0  0  0
 21 11  1  0  0  0  0
 22 20  2  0  0  0  0
 23 22  1  0  0  0  0
 24 22  1  0  0  0  0
  8 18  1  0  0  0  0
 21 23  2  0  0  0  0
 12 13  1  0  0  0  0
M  END
>  <IDNUMBER>
F3350-0613

>  <Chemical_Name>
4-(2,5-dioxopyrrolidin-1-yl)-N-(4-methylpyridin-2-yl)benzene-1-sulfonamide

>  <PriceCoeff>
1.00

>  <CAS>
946260-01-1

>  <MW>
345.37

>  <Description>
solid

>  <FSP3>
0.19

>  <clogP>
0.38

>  <TPSA>
104.82

>  <Acceptor>
5

>  <Donor>
2

>  <RotBonds>
4

>  <HAC>
24

>  <Collection>
General

>  <PPDS>
+

$$$$
F3350-0621
  Mrv2219 10102508112D          

 24 26  0  0  0  0            999 V2000
    4.5863   -2.6410    0.0000 S   0  0  0  0  0  0  0  0  0  0  0  0
    7.4231   -4.3156    0.0000 N   0  0  0  0  0  0  0  0  0  0  0  0
    7.5023   -5.1487    0.0000 C   0  0  0  0  0  0  0  0  0  0  0  0
    8.1854   -3.9907    0.0000 C   0  0  0  0  0  0  0  0  0  0  0  0
    5.2904   -3.0617    0.0000 C   0  0  0  0  0  0  0  0  0  0  0  0
    6.7108   -3.8990    0.0000 C   0  0  0  0  0  0  0  0  0  0  0  0
    1.6996   -0.8915    0.0000 S   0  0  0  0  0  0  0  0  0  0  0  0
    5.0029   -1.9370    0.0000 O   0  0  0  0  0  0  0  0  0  0  0  0
    4.1656   -3.3534    0.0000 O   0  0  0  0  0  0  0  0  0  0  0  0
    2.4536   -0.5666    0.0000 C   0  0  0  0  0  0  0  0  0  0  0  0
    3.8657   -2.2161    0.0000 N   0  0  0  0  0  0  0  0  0  0  0  0
    8.7270   -4.6155    0.0000 C   0  0  0  0  0  0  0  0  0  0  0  0
    8.3021   -5.3279    0.0000 C   0  0  0  0  0  0  0  0  0  0  0  0
    6.8775   -5.6903    0.0000 O   0  0  0  0  0  0  0  0  0  0  0  0
    8.3646   -3.1909    0.0000 O   0  0  0  0  0  0  0  0  0  0  0  0
    1.1497   -0.2791    0.0000 C   0  0  0  0  0  0  0  0  0  0  0  0
    2.3744    0.2582    0.0000 C   0  0  0  0  0  0  0  0  0  0  0  0
    1.5663    0.4332    0.0000 C   0  0  0  0  0  0  0  0  0  0  0  0
    5.2862   -3.8865    0.0000 C   0  0  0  0  0  0  0  0  0  0  0  0
    6.0110   -2.6535    0.0000 C   0  0  0  0  0  0  0  0  0  0  0  0
    5.9985   -4.3031    0.0000 C   0  0  0  0  0  0  0  0  0  0  0  0
    6.7150   -3.0784    0.0000 C   0  0  0  0  0  0  0  0  0  0  0  0
    3.1659   -0.9790    0.0000 C   0  0  0  0  0  0  0  0  0  0  0  0
    3.1617   -1.8037    0.0000 C   0  0  0  0  0  0  0  0  0  0  0  0
  2  6  1  0  0  0  0
  3  2  1  0  0  0  0
  4  2  1  0  0  0  0
  5  1  1  0  0  0  0
  6 22  1  0  0  0  0
  7 10  1  0  0  0  0
  8  1  2  0  0  0  0
  9  1  2  0  0  0  0
 10 23  1  0  0  0  0
 11  1  1  0  0  0  0
 12  4  1  0  0  0  0
 13  3  1  0  0  0  0
 14  3  2  0  0  0  0
 15  4  2  0  0  0  0
 16  7  1  0  0  0  0
 17 10  2  0  0  0  0
 18 17  1  0  0  0  0
 19  5  2  0  0  0  0
 20  5  1  0  0  0  0
 21 19  1  0  0  0  0
 22 20  2  0  0  0  0
 23 24  1  0  0  0  0
 24 11  1  0  0  0  0
  6 21  2  0  0  0  0
 16 18  2  0  0  0  0
 12 13  1  0  0  0  0
M  END
>  <IDNUMBER>
F3350-0621

>  <Chemical_Name>
4-(2,5-dioxopyrrolidin-1-yl)-N-[2-(thiophen-2-yl)ethyl]benzene-1-sulfonamide

>  <PriceCoeff>
1.00

>  <CAS>
919701-69-2

>  <MW>
364.44

>  <Description>
solid

>  <FSP3>
0.25

>  <clogP>
0.84

>  <TPSA>
120.17

>  <Acceptor>
4

>  <Donor>
1

>  <RotBonds>
6

>  <HAC>
24

>  <Collection>
General

>  <PPDS>
+

$$$$
F3350-0625
  Mrv2219 10102508112D          

 26 28  0  0  0  0            999 V2000
    4.3131    0.9603    0.0000 S   0  0  0  0  0  0  0  0  0  0  0  0
    7.1816    2.6054    0.0000 N   0  0  0  0  0  0  0  0  0  0  0  0
    7.9414    2.2755    0.0000 C   0  0  0  0  0  0  0  0  0  0  0  0
    7.2692    3.4279    0.0000 C   0  0  0  0  0  0  0  0  0  0  0  0
    3.5991    0.5469    0.0000 N   0  0  0  0  0  0  0  0  0  0  0  0
    5.0354    1.3736    0.0000 C   0  0  0  0  0  0  0  0  0  0  0  0
    6.4634    2.2004    0.0000 C   0  0  0  0  0  0  0  0  0  0  0  0
    3.9123    1.6743    0.0000 O   0  0  0  0  0  0  0  0  0  0  0  0
    4.7390    0.2380    0.0000 O   0  0  0  0  0  0  0  0  0  0  0  0
    2.1712   -1.1190    0.0000 C   0  0  0  0  0  0  0  0  0  0  0  0
    2.1712   -1.9457    0.0000 C   0  0  0  0  0  0  0  0  0  0  0  0
    2.8852    0.1253    0.0000 C   0  0  0  0  0  0  0  0  0  0  0  0
    8.0834    3.6033    0.0000 C   0  0  0  0  0  0  0  0  0  0  0  0
    8.4968    2.8810    0.0000 C   0  0  0  0  0  0  0  0  0  0  0  0
    2.8852   -0.7057    0.0000 C   0  0  0  0  0  0  0  0  0  0  0  0
    8.1085    1.4613    0.0000 O   0  0  0  0  0  0  0  0  0  0  0  0
    6.6638    3.9916    0.0000 O   0  0  0  0  0  0  0  0  0  0  0  0
    5.7494    0.9603    0.0000 C   0  0  0  0  0  0  0  0  0  0  0  0
    5.0354    2.1920    0.0000 C   0  0  0  0  0  0  0  0  0  0  0  0
    6.4676    1.3736    0.0000 C   0  0  0  0  0  0  0  0  0  0  0  0
    5.7536    2.6054    0.0000 C   0  0  0  0  0  0  0  0  0  0  0  0
    1.4572   -2.3591    0.0000 O   0  0  0  0  0  0  0  0  0  0  0  0
    1.4572   -0.7057    0.0000 C   0  0  0  0  0  0  0  0  0  0  0  0
    1.4572    0.1253    0.0000 C   0  0  0  0  0  0  0  0  0  0  0  0
    2.1712    0.5386    0.0000 C   0  0  0  0  0  0  0  0  0  0  0  0
    2.8852   -2.3591    0.0000 C   0  0  0  0  0  0  0  0  0  0  0  0
  2  7  1  0  0  0  0
  3  2  1  0  0  0  0
  4  2  1  0  0  0  0
  5  1  1  0  0  0  0
  6  1  1  0  0  0  0
  7 21  1  0  0  0  0
  8  1  2  0  0  0  0
  9  1  2  0  0  0  0
 10 15  2  0  0  0  0
 11 10  1  0  0  0  0
 12  5  1  0  0  0  0
 13  4  1  0  0  0  0
 14  3  1  0  0  0  0
 15 12  1  0  0  0  0
 16  3  2  0  0  0  0
 17  4  2  0  0  0  0
 18  6  2  0  0  0  0
 19  6  1  0  0  0  0
 20 18  1  0  0  0  0
 21 19  2  0  0  0  0
 22 11  2  0  0  0  0
 23 24  2  0  0  0  0
 24 25  1  0  0  0  0
 25 12  2  0  0  0  0
 26 11  1  0  0  0  0
  7 20  2  0  0  0  0
 23 10  1  0  0  0  0
 13 14  1  0  0  0  0
M  END
>  <IDNUMBER>
F3350-0625

>  <Chemical_Name>
N-(3-acetylphenyl)-4-(2,5-dioxopyrrolidin-1-yl)benzene-1-sulfonamide

>  <PriceCoeff>
1.00

>  <CAS>
919693-07-5

>  <MW>
372.40

>  <Description>
solid

>  <FSP3>
0.17

>  <clogP>
0.55

>  <TPSA>
109.00

>  <Acceptor>
6

>  <Donor>
1

>  <RotBonds>
5

>  <HAC>
26

>  <Collection>
General

>  <PPDS>
+

$$$$
F3350-0696
  Mrv2219 10102508112D          

 27 29  0  0  0  0            999 V2000
    1.8542   -3.3750    0.0000 S   0  0  0  0  0  0  0  0  0  0  0  0
    4.7167   -1.7292    0.0000 N   0  0  0  0  0  0  0  0  0  0  0  0
    4.0000   -2.1417    0.0000 C   0  0  0  0  0  0  0  0  0  0  0  0
    5.4667   -2.0750    0.0000 C   0  0  0  0  0  0  0  0  0  0  0  0
    4.8042   -0.9125    0.0000 C   0  0  0  0  0  0  0  0  0  0  0  0
    2.5667   -2.9625    0.0000 C   0  0  0  0  0  0  0  0  0  0  0  0
    1.1417   -3.7875    0.0000 N   0  0  0  0  0  0  0  0  0  0  0  0
    3.2875   -1.7292    0.0000 C   0  0  0  0  0  0  0  0  0  0  0  0
    2.5667   -2.1417    0.0000 C   0  0  0  0  0  0  0  0  0  0  0  0
    1.4417   -2.6542    0.0000 O   0  0  0  0  0  0  0  0  0  0  0  0
    2.2750   -4.0875    0.0000 O   0  0  0  0  0  0  0  0  0  0  0  0
    3.9917   -2.9667    0.0000 C   0  0  0  0  0  0  0  0  0  0  0  0
   -0.2875   -5.4417    0.0000 C   0  0  0  0  0  0  0  0  0  0  0  0
   -0.2875   -6.2667    0.0000 C   0  0  0  0  0  0  0  0  0  0  0  0
    0.4292   -4.2042    0.0000 C   0  0  0  0  0  0  0  0  0  0  0  0
    3.2792   -3.3750    0.0000 C   0  0  0  0  0  0  0  0  0  0  0  0
    5.6125   -0.7417    0.0000 C   0  0  0  0  0  0  0  0  0  0  0  0
    6.0250   -1.4625    0.0000 C   0  0  0  0  0  0  0  0  0  0  0  0
    0.4292   -5.0292    0.0000 C   0  0  0  0  0  0  0  0  0  0  0  0
    5.6375   -2.8792    0.0000 O   0  0  0  0  0  0  0  0  0  0  0  0
    4.1917   -0.3542    0.0000 O   0  0  0  0  0  0  0  0  0  0  0  0
   -1.0000   -6.6792    0.0000 O   0  0  0  0  0  0  0  0  0  0  0  0
    3.2875   -0.9000    0.0000 C   0  0  0  0  0  0  0  0  0  0  0  0
   -1.0000   -5.0292    0.0000 C   0  0  0  0  0  0  0  0  0  0  0  0
   -1.0000   -4.2042    0.0000 C   0  0  0  0  0  0  0  0  0  0  0  0
   -0.2875   -3.7917    0.0000 C   0  0  0  0  0  0  0  0  0  0  0  0
    0.4292   -6.6792    0.0000 C   0  0  0  0  0  0  0  0  0  0  0  0
  2  3  1  0  0  0  0
  3 12  1  0  0  0  0
  4  2  1  0  0  0  0
  5  2  1  0  0  0  0
  6  1  1  0  0  0  0
  7  1  1  0  0  0  0
  8  9  1  0  0  0  0
  9  6  2  0  0  0  0
 10  1  2  0  0  0  0
 11  1  2  0  0  0  0
 12 16  2  0  0  0  0
 13 19  2  0  0  0  0
 14 13  1  0  0  0  0
 15  7  1  0  0  0  0
 16  6  1  0  0  0  0
 17  5  1  0  0  0  0
 18  4  1  0  0  0  0
 19 15  1  0  0  0  0
 20  4  2  0  0  0  0
 21  5  2  0  0  0  0
 22 14  2  0  0  0  0
 23  8  1  0  0  0  0
 24 25  2  0  0  0  0
 25 26  1  0  0  0  0
 26 15  2  0  0  0  0
 27 14  1  0  0  0  0
  8  3  2  0  0  0  0
 13 24  1  0  0  0  0
 17 18  1  0  0  0  0
M  END
>  <IDNUMBER>
F3350-0696

>  <Chemical_Name>
N-(3-acetylphenyl)-4-(2,5-dioxopyrrolidin-1-yl)-3-methylbenzene-1-sulfonamide

>  <PriceCoeff>
1.00

>  <CAS>
946339-81-7

>  <MW>
386.42

>  <Description>
solid

>  <FSP3>
0.21

>  <clogP>
0.65

>  <TPSA>
109.00

>  <Acceptor>
6

>  <Donor>
1

>  <RotBonds>
5

>  <HAC>
27

>  <Collection>
General

>  <PPDS>
+

$$$$
F3366-5347
  Mrv2219 10102508112D          

  9 10  0  0  0  0            999 V2000
   -0.4098    2.5290    0.0000 N   0  0  0  0  0  0  0  0  0  0  0  0
    0.0787    1.8626    0.0000 C   0  0  0  0  0  0  0  0  0  0  0  0
   -0.3974    1.1879    0.0000 N   0  0  0  0  0  0  0  0  0  0  0  0
   -1.1921    2.2682    0.0000 C   0  0  0  0  0  0  0  0  0  0  0  0
   -1.1879    1.4362    0.0000 C   0  0  0  0  0  0  0  0  0  0  0  0
   -1.9081    2.6780    0.0000 C   0  0  0  0  0  0  0  0  0  0  0  0
   -1.9081    1.0306    0.0000 C   0  0  0  0  0  0  0  0  0  0  0  0
   -2.6159    1.4404    0.0000 C   0  0  0  0  0  0  0  0  0  0  0  0
   -2.6159    2.2600    0.0000 C   0  0  0  0  0  0  0  0  0  0  0  0
  2  1  2  0  0  0  0
  3  2  1  0  0  0  0
  4  1  1  0  0  0  0
  5  4  1  0  0  0  0
  6  4  2  0  0  0  0
  7  5  2  0  0  0  0
  8  9  2  0  0  0  0
  9  6  1  0  0  0  0
  5  3  1  0  0  0  0
  8  7  1  0  0  0  0
M  END
>  <IDNUMBER>
F3366-5347

>  <Chemical_Name>
1H-1,3-benzodiazole

>  <PriceCoeff>
1.00

>  <CAS>
51-17-2

>  <MW>
118.14

>  <Description>
solid

>  <FSP3>
0.00

>  <clogP>
1.56

>  <TPSA>
28.68

>  <Acceptor>
2

>  <Donor>
2

>  <RotBonds>
0

>  <HAC>
9

>  <Collection>
General

>  <PPDS>
+

$$$$
F3367-0007
  Mrv2219 10102508112D          

 28 31  0  0  0  0            999 V2000
    2.5792    1.9458    0.0000 N   0  0  0  0  0  0  0  0  0  0  0  0
    1.8875   -2.5875    0.0000 C   0  0  0  0  0  0  0  0  0  0  0  0
    1.1792   -3.0042    0.0000 C   0  0  0  0  0  0  0  0  0  0  0  0
    3.2417    2.4333    0.0000 C   0  0  0  0  0  0  0  0  0  0  0  0
    1.9042    2.4250    0.0000 C   0  0  0  0  0  0  0  0  0  0  0  0
    1.8792   -1.7625    0.0000 N   0  0  0  0  0  0  0  0  0  0  0  0
    2.5917   -1.3417    0.0000 C   0  0  0  0  0  0  0  0  0  0  0  0
    1.8917   -4.2417    0.0000 N   0  0  0  0  0  0  0  0  0  0  0  0
    1.1792   -3.8292    0.0000 C   0  0  0  0  0  0  0  0  0  0  0  0
    2.6042   -2.9917    0.0000 C   0  0  0  0  0  0  0  0  0  0  0  0
    2.5792    1.1208    0.0000 C   0  0  0  0  0  0  0  0  0  0  0  0
    2.5917   -0.5167    0.0000 C   0  0  0  0  0  0  0  0  0  0  0  0
    2.6042   -3.8250    0.0000 C   0  0  0  0  0  0  0  0  0  0  0  0
    0.4625   -2.5917    0.0000 C   0  0  0  0  0  0  0  0  0  0  0  0
    3.3125   -1.7542    0.0000 O   0  0  0  0  0  0  0  0  0  0  0  0
    2.1542    3.2083    0.0000 C   0  0  0  0  0  0  0  0  0  0  0  0
    2.9792    3.2208    0.0000 C   0  0  0  0  0  0  0  0  0  0  0  0
    1.1250    2.1625    0.0000 O   0  0  0  0  0  0  0  0  0  0  0  0
    4.0292    2.1833    0.0000 O   0  0  0  0  0  0  0  0  0  0  0  0
    0.4625   -4.2417    0.0000 C   0  0  0  0  0  0  0  0  0  0  0  0
    1.8667    0.7000    0.0000 C   0  0  0  0  0  0  0  0  0  0  0  0
    3.3000    0.7125    0.0000 C   0  0  0  0  0  0  0  0  0  0  0  0
    1.8750   -0.1167    0.0000 C   0  0  0  0  0  0  0  0  0  0  0  0
    3.3042   -0.1125    0.0000 C   0  0  0  0  0  0  0  0  0  0  0  0
   -0.2500   -3.0042    0.0000 C   0  0  0  0  0  0  0  0  0  0  0  0
   -0.2500   -3.8292    0.0000 C   0  0  0  0  0  0  0  0  0  0  0  0
   -0.9625   -2.5917    0.0000 Br  0  0  0  0  0  0  0  0  0  0  0  0
    3.3250   -4.2292    0.0000 C   0  0  0  0  0  0  0  0  0  0  0  0
  2  6  1  0  0  0  0
  3  2  1  0  0  0  0
  4  1  1  0  0  0  0
  5  1  1  0  0  0  0
  6  7  1  0  0  0  0
  7 12  1  0  0  0  0
  8 13  2  0  0  0  0
  9  3  1  0  0  0  0
 10  2  2  0  0  0  0
 11  1  1  0  0  0  0
 12 24  2  0  0  0  0
 13 10  1  0  0  0  0
 14  3  2  0  0  0  0
 15  7  2  0  0  0  0
 16  5  1  0  0  0  0
 17  4  1  0  0  0  0
 18  5  2  0  0  0  0
 19  4  2  0  0  0  0
 20  9  2  0  0  0  0
 21 11  1  0  0  0  0
 22 11  2  0  0  0  0
 23 21  2  0  0  0  0
 24 22  1  0  0  0  0
 25 14  1  0  0  0  0
 26 25  2  0  0  0  0
 27 25  1  0  0  0  0
 28 13  1  0  0  0  0
 16 17  1  0  0  0  0
 12 23  1  0  0  0  0
  8  9  1  0  0  0  0
 26 20  1  0  0  0  0
M  END
>  <IDNUMBER>
F3367-0007

>  <Chemical_Name>
N-(6-bromo-2-methylquinolin-4-yl)-4-(2,5-dioxopyrrolidin-1-yl)benzamide

>  <PriceCoeff>
1.00

>  <CAS>
940983-87-9

>  <MW>
438.27

>  <Description>
solid

>  <FSP3>
0.14

>  <clogP>
2.95

>  <TPSA>
79.37

>  <Acceptor>
4

>  <Donor>
2

>  <RotBonds>
3

>  <HAC>
28

>  <Collection>
General

>  <PPDS>
+

$$$$
F3367-0019
  Mrv2219 10102508112D          

 25 27  0  0  0  0            999 V2000
    2.2919   -0.8668    0.0000 S   0  0  0  0  0  0  0  0  0  0  0  0
   -1.4210   -0.1875    0.0000 N   0  0  0  0  0  0  0  0  0  0  0  0
   -1.0876    0.5709    0.0000 C   0  0  0  0  0  0  0  0  0  0  0  0
   -2.2377   -0.1042    0.0000 C   0  0  0  0  0  0  0  0  0  0  0  0
    3.1170   -0.8668    0.0000 N   0  0  0  0  0  0  0  0  0  0  0  0
    1.4669   -0.8751    0.0000 C   0  0  0  0  0  0  0  0  0  0  0  0
    2.2877   -0.0417    0.0000 O   0  0  0  0  0  0  0  0  0  0  0  0
    2.2877   -1.6919    0.0000 O   0  0  0  0  0  0  0  0  0  0  0  0
   -1.0001   -0.8918    0.0000 C   0  0  0  0  0  0  0  0  0  0  0  0
   -2.4211    0.6958    0.0000 C   0  0  0  0  0  0  0  0  0  0  0  0
   -1.7085    1.1209    0.0000 C   0  0  0  0  0  0  0  0  0  0  0  0
   -2.7836   -0.7250    0.0000 O   0  0  0  0  0  0  0  0  0  0  0  0
   -0.2834    0.7458    0.0000 O   0  0  0  0  0  0  0  0  0  0  0  0
    3.5296   -1.5794    0.0000 C   0  0  0  0  0  0  0  0  0  0  0  0
    1.0543   -0.1667    0.0000 C   0  0  0  0  0  0  0  0  0  0  0  0
    1.0543   -1.5877    0.0000 C   0  0  0  0  0  0  0  0  0  0  0  0
   -0.1750   -0.8876    0.0000 C   0  0  0  0  0  0  0  0  0  0  0  0
    4.3504   -1.5794    0.0000 C   0  0  0  0  0  0  0  0  0  0  0  0
    0.2292   -0.1667    0.0000 C   0  0  0  0  0  0  0  0  0  0  0  0
    0.2417   -1.5919    0.0000 C   0  0  0  0  0  0  0  0  0  0  0  0
    4.7630   -2.2877    0.0000 C   0  0  0  0  0  0  0  0  0  0  0  0
    3.5254   -3.0046    0.0000 C   0  0  0  0  0  0  0  0  0  0  0  0
    3.1128   -2.2919    0.0000 C   0  0  0  0  0  0  0  0  0  0  0  0
    4.3546   -3.0046    0.0000 C   0  0  0  0  0  0  0  0  0  0  0  0
    5.5881   -2.2794    0.0000 C   0  0  0  0  0  0  0  0  0  0  0  0
  2  9  1  0  0  0  0
  3  2  1  0  0  0  0
  4  2  1  0  0  0  0
  5  1  1  0  0  0  0
  6  1  1  0  0  0  0
  7  1  2  0  0  0  0
  8  1  2  0  0  0  0
  9 17  1  0  0  0  0
 10  4  1  0  0  0  0
 11  3  1  0  0  0  0
 12  4  2  0  0  0  0
 13  3  2  0  0  0  0
 14  5  1  0  0  0  0
 15  6  1  0  0  0  0
 16  6  2  0  0  0  0
 17 20  2  0  0  0  0
 18 14  1  0  0  0  0
 19 15  2  0  0  0  0
 20 16  1  0  0  0  0
 21 18  2  0  0  0  0
 22 23  1  0  0  0  0
 23 14  2  0  0  0  0
 24 22  2  0  0  0  0
 25 21  1  0  0  0  0
 17 19  1  0  0  0  0
 21 24  1  0  0  0  0
 10 11  1  0  0  0  0
M  END
>  <IDNUMBER>
F3367-0019

>  <Chemical_Name>
4-[(2,5-dioxopyrrolidin-1-yl)methyl]-N-(3-methylphenyl)benzene-1-sulfonamide

>  <PriceCoeff>
1.00

>  <CAS>
940984-02-1

>  <MW>
358.41

>  <Description>
solid

>  <FSP3>
0.22

>  <clogP>
1.91

>  <TPSA>
91.93

>  <Acceptor>
5

>  <Donor>
1

>  <RotBonds>
5

>  <HAC>
25

>  <Collection>
General

>  <PPDS>
+

$$$$
F3367-0020
  Mrv2219 10102508112D          

 24 26  0  0  0  0            999 V2000
    2.1837    0.3883    0.0000 S   0  0  0  0  0  0  0  0  0  0  0  0
   -1.5365    1.0730    0.0000 N   0  0  0  0  0  0  0  0  0  0  0  0
   -1.1983    1.8371    0.0000 C   0  0  0  0  0  0  0  0  0  0  0  0
   -2.3507    1.1524    0.0000 C   0  0  0  0  0  0  0  0  0  0  0  0
    3.0104    0.3883    0.0000 N   0  0  0  0  0  0  0  0  0  0  0  0
    1.3570    0.3841    0.0000 C   0  0  0  0  0  0  0  0  0  0  0  0
    2.1837    1.2150    0.0000 O   0  0  0  0  0  0  0  0  0  0  0  0
    2.1837   -0.4384    0.0000 O   0  0  0  0  0  0  0  0  0  0  0  0
   -1.1106    0.3633    0.0000 C   0  0  0  0  0  0  0  0  0  0  0  0
   -2.5302    1.9624    0.0000 C   0  0  0  0  0  0  0  0  0  0  0  0
   -1.8163    2.3799    0.0000 C   0  0  0  0  0  0  0  0  0  0  0  0
   -2.9018    0.5344    0.0000 O   0  0  0  0  0  0  0  0  0  0  0  0
   -0.3966    2.0125    0.0000 O   0  0  0  0  0  0  0  0  0  0  0  0
    0.9520   -0.3299    0.0000 C   0  0  0  0  0  0  0  0  0  0  0  0
    0.9437    1.0981    0.0000 C   0  0  0  0  0  0  0  0  0  0  0  0
   -0.2839    0.3716    0.0000 C   0  0  0  0  0  0  0  0  0  0  0  0
    3.4238   -0.3257    0.0000 C   0  0  0  0  0  0  0  0  0  0  0  0
    0.1295   -0.3382    0.0000 C   0  0  0  0  0  0  0  0  0  0  0  0
    0.1253    1.0898    0.0000 C   0  0  0  0  0  0  0  0  0  0  0  0
    3.0104   -1.0397    0.0000 C   0  0  0  0  0  0  0  0  0  0  0  0
    4.2505   -0.3174    0.0000 C   0  0  0  0  0  0  0  0  0  0  0  0
    4.6638   -1.0313    0.0000 C   0  0  0  0  0  0  0  0  0  0  0  0
    3.4238   -1.7536    0.0000 C   0  0  0  0  0  0  0  0  0  0  0  0
    4.2505   -1.7536    0.0000 C   0  0  0  0  0  0  0  0  0  0  0  0
  2  9  1  0  0  0  0
  3  2  1  0  0  0  0
  4  2  1  0  0  0  0
  5  1  1  0  0  0  0
  6  1  1  0  0  0  0
  7  1  2  0  0  0  0
  8  1  2  0  0  0  0
  9 16  1  0  0  0  0
 10  4  1  0  0  0  0
 11  3  1  0  0  0  0
 12  4  2  0  0  0  0
 13  3  2  0  0  0  0
 14  6  2  0  0  0  0
 15  6  1  0  0  0  0
 16 19  1  0  0  0  0
 17  5  1  0  0  0  0
 18 14  1  0  0  0  0
 19 15  2  0  0  0  0
 20 17  2  0  0  0  0
 21 17  1  0  0  0  0
 22 21  2  0  0  0  0
 23 20  1  0  0  0  0
 24 22  1  0  0  0  0
 18 16  2  0  0  0  0
 24 23  2  0  0  0  0
 10 11  1  0  0  0  0
M  END
>  <IDNUMBER>
F3367-0020

>  <Chemical_Name>
4-[(2,5-dioxopyrrolidin-1-yl)methyl]-N-phenylbenzene-1-sulfonamide

>  <PriceCoeff>
1.00

>  <CAS>
941252-21-7

>  <MW>
344.38

>  <Description>
solid

>  <FSP3>
0.18

>  <clogP>
1.41

>  <TPSA>
91.93

>  <Acceptor>
5

>  <Donor>
1

>  <RotBonds>
5

>  <HAC>
24

>  <Collection>
General

>  <PPDS>
+

$$$$
F3367-0021
  Mrv2219 10102508112D          

 25 27  0  0  0  0            999 V2000
    3.7129   -0.3001    0.0000 S   0  0  0  0  0  0  0  0  0  0  0  0
    0.0000    0.3834    0.0000 N   0  0  0  0  0  0  0  0  0  0  0  0
    0.3293    1.1459    0.0000 C   0  0  0  0  0  0  0  0  0  0  0  0
   -0.8209    0.4626    0.0000 C   0  0  0  0  0  0  0  0  0  0  0  0
    4.5380   -0.3001    0.0000 N   0  0  0  0  0  0  0  0  0  0  0  0
    2.8878   -0.3043    0.0000 C   0  0  0  0  0  0  0  0  0  0  0  0
    3.7046    0.5251    0.0000 O   0  0  0  0  0  0  0  0  0  0  0  0
    3.7046   -1.1251    0.0000 O   0  0  0  0  0  0  0  0  0  0  0  0
    0.4168   -0.3251    0.0000 C   0  0  0  0  0  0  0  0  0  0  0  0
    4.9505   -1.0126    0.0000 C   0  0  0  0  0  0  0  0  0  0  0  0
   -0.9959    1.2709    0.0000 C   0  0  0  0  0  0  0  0  0  0  0  0
   -0.2834    1.6877    0.0000 C   0  0  0  0  0  0  0  0  0  0  0  0
   -1.3627   -0.1542    0.0000 O   0  0  0  0  0  0  0  0  0  0  0  0
    1.1376    1.3209    0.0000 O   0  0  0  0  0  0  0  0  0  0  0  0
    5.7673   -1.0043    0.0000 C   0  0  0  0  0  0  0  0  0  0  0  0
    2.4795   -1.0168    0.0000 C   0  0  0  0  0  0  0  0  0  0  0  0
    2.4753    0.4084    0.0000 C   0  0  0  0  0  0  0  0  0  0  0  0
    1.2418   -0.3168    0.0000 C   0  0  0  0  0  0  0  0  0  0  0  0
    6.1799   -1.7169    0.0000 C   0  0  0  0  0  0  0  0  0  0  0  0
    1.6627   -1.0251    0.0000 C   0  0  0  0  0  0  0  0  0  0  0  0
    1.6502    0.4001    0.0000 C   0  0  0  0  0  0  0  0  0  0  0  0
    7.0049   -1.7127    0.0000 Cl  0  0  0  0  0  0  0  0  0  0  0  0
    4.9422   -2.4378    0.0000 C   0  0  0  0  0  0  0  0  0  0  0  0
    4.5297   -1.7252    0.0000 C   0  0  0  0  0  0  0  0  0  0  0  0
    5.7756   -2.4378    0.0000 C   0  0  0  0  0  0  0  0  0  0  0  0
  2  9  1  0  0  0  0
  3  2  1  0  0  0  0
  4  2  1  0  0  0  0
  5  1  1  0  0  0  0
  6  1  1  0  0  0  0
  7  1  2  0  0  0  0
  8  1  2  0  0  0  0
  9 18  1  0  0  0  0
 10  5  1  0  0  0  0
 11  4  1  0  0  0  0
 12  3  1  0  0  0  0
 13  4  2  0  0  0  0
 14  3  2  0  0  0  0
 15 10  1  0  0  0  0
 16  6  2  0  0  0  0
 17  6  1  0  0  0  0
 18 21  1  0  0  0  0
 19 15  2  0  0  0  0
 20 16  1  0  0  0  0
 21 17  2  0  0  0  0
 22 19  1  0  0  0  0
 23 24  1  0  0  0  0
 24 10  2  0  0  0  0
 25 23  2  0  0  0  0
 20 18  2  0  0  0  0
 19 25  1  0  0  0  0
 11 12  1  0  0  0  0
M  END
>  <IDNUMBER>
F3367-0021

>  <Chemical_Name>
N-(3-chlorophenyl)-4-[(2,5-dioxopyrrolidin-1-yl)methyl]benzene-1-sulfonamide

>  <PriceCoeff>
1.00

>  <CAS>
940984-05-4

>  <MW>
378.83

>  <Description>
solid

>  <FSP3>
0.18

>  <clogP>
2.32

>  <TPSA>
91.93

>  <Acceptor>
5

>  <Donor>
1

>  <RotBonds>
5

>  <HAC>
25

>  <Collection>
General

>  <PPDS>
+

$$$$
F3371-0262
  Mrv2219 10102508112D          

 14 15  0  0  0  0            999 V2000
    1.3984   -1.3362    0.0000 C   0  0  0  0  0  0  0  0  0  0  0  0
    1.3237   -2.1578    0.0000 C   0  0  0  0  0  0  0  0  0  0  0  0
    0.7345   -0.8507    0.0000 N   0  0  0  0  0  0  0  0  0  0  0  0
   -0.1079   -2.0209    0.0000 N   0  0  0  0  0  0  0  0  0  0  0  0
   -0.0249   -1.1951    0.0000 C   0  0  0  0  0  0  0  0  0  0  0  0
    0.5726   -2.5064    0.0000 C   0  0  0  0  0  0  0  0  0  0  0  0
    2.2034   -1.1577    0.0000 N   0  0  0  0  0  0  0  0  0  0  0  0
    2.0789   -2.4897    0.0000 N   0  0  0  0  0  0  0  0  0  0  0  0
    2.6267   -1.8673    0.0000 C   0  0  0  0  0  0  0  0  0  0  0  0
   -0.6929   -0.7138    0.0000 O   0  0  0  0  0  0  0  0  0  0  0  0
    0.4897   -3.3238    0.0000 O   0  0  0  0  0  0  0  0  0  0  0  0
    0.8133   -0.0332    0.0000 C   0  0  0  0  0  0  0  0  0  0  0  0
   -0.8548   -2.3570    0.0000 C   0  0  0  0  0  0  0  0  0  0  0  0
    2.2574   -3.2906    0.0000 C   0  0  0  0  0  0  0  0  0  0  0  0
  2  1  2  0  0  0  0
  3  1  1  0  0  0  0
  4  5  1  0  0  0  0
  5  3  1  0  0  0  0
  6  2  1  0  0  0  0
  7  1  1  0  0  0  0
  8  2  1  0  0  0  0
  9  7  2  0  0  0  0
 10  5  2  0  0  0  0
 11  6  2  0  0  0  0
 12  3  1  0  0  0  0
 13  4  1  0  0  0  0
 14  8  1  0  0  0  0
  8  9  1  0  0  0  0
  6  4  1  0  0  0  0
M  END
>  <IDNUMBER>
F3371-0262

>  <Chemical_Name>
1,3,7-trimethyl-2,3,6,7-tetrahydro-1H-purine-2,6-dione

>  <PriceCoeff>
1.50

>  <CAS>
58-08-2

>  <MW>
194.19

>  <Description>
solid

>  <FSP3>
0.38

>  <clogP>
-0.55

>  <TPSA>
58.44

>  <Acceptor>
3

>  <Donor>
1

>  <RotBonds>
0

>  <HAC>
14

>  <Collection>
Advanced

>  <PPDS>
+

$$$$
F3374-0020
  Mrv2219 10102508112D          

 28 30  0  0  0  0            999 V2000
    5.9749   -5.1017    0.0000 S   0  0  0  0  0  0  0  0  0  0  0  0
    1.6960   -0.1379    0.0000 N   0  3  0  0  0  0  0  0  0  0  0  0
    5.9612   -5.9198    0.0000 N   0  0  0  0  0  0  0  0  0  0  0  0
    5.9749   -4.2790    0.0000 C   0  0  0  0  0  0  0  0  0  0  0  0
    4.5501   -2.6244    0.0000 C   0  0  0  0  0  0  0  0  0  0  0  0
    4.5548   -1.8109    0.0000 N   0  0  0  0  0  0  0  0  0  0  0  0
    2.4038   -0.5562    0.0000 C   0  0  0  0  0  0  0  0  0  0  0  0
    3.1346   -0.1425    0.0000 C   0  0  0  0  0  0  0  0  0  0  0  0
    3.8469   -1.3926    0.0000 C   0  0  0  0  0  0  0  0  0  0  0  0
    3.8516   -0.5562    0.0000 C   0  0  0  0  0  0  0  0  0  0  0  0
    5.2580   -3.0472    0.0000 C   0  0  0  0  0  0  0  0  0  0  0  0
    5.2580   -3.8653    0.0000 C   0  0  0  0  0  0  0  0  0  0  0  0
    6.8022   -5.1017    0.0000 O   0  0  0  0  0  0  0  0  0  0  0  0
    5.1614   -5.0925    0.0000 O   0  0  0  0  0  0  0  0  0  0  0  0
    0.9698   -0.5424    0.0000 O   0  5  0  0  0  0  0  0  0  0  0  0
    1.7006    0.6894    0.0000 O   0  0  0  0  0  0  0  0  0  0  0  0
    3.8378   -3.0380    0.0000 O   0  0  0  0  0  0  0  0  0  0  0  0
    2.4038   -1.3835    0.0000 C   0  0  0  0  0  0  0  0  0  0  0  0
    3.1208   -1.8063    0.0000 C   0  0  0  0  0  0  0  0  0  0  0  0
    5.9198   -7.5606    0.0000 O   0  0  0  0  0  0  0  0  0  0  0  0
    5.2395   -6.3196    0.0000 C   0  0  0  0  0  0  0  0  0  0  0  0
    6.6597   -6.3426    0.0000 C   0  0  0  0  0  0  0  0  0  0  0  0
    4.5685   -0.1425    0.0000 Cl  0  0  0  0  0  0  0  0  0  0  0  0
    6.6781   -3.8653    0.0000 C   0  0  0  0  0  0  0  0  0  0  0  0
    5.9749   -2.6382    0.0000 C   0  0  0  0  0  0  0  0  0  0  0  0
    5.2257   -7.1332    0.0000 C   0  0  0  0  0  0  0  0  0  0  0  0
    6.6459   -7.1607    0.0000 C   0  0  0  0  0  0  0  0  0  0  0  0
    6.6873   -3.0518    0.0000 C   0  0  0  0  0  0  0  0  0  0  0  0
  2  7  1  0  0  0  0
  3  1  1  0  0  0  0
  4  1  1  0  0  0  0
  5 11  1  0  0  0  0
  6  5  1  0  0  0  0
  7 18  2  0  0  0  0
  8 10  2  0  0  0  0
  9  6  1  0  0  0  0
 10  9  1  0  0  0  0
 11 12  2  0  0  0  0
 12  4  1  0  0  0  0
 13  1  2  0  0  0  0
 14  1  2  0  0  0  0
 15  2  1  0  0  0  0
 16  2  2  0  0  0  0
 17  5  2  0  0  0  0
 18 19  1  0  0  0  0
 19  9  2  0  0  0  0
 20 27  1  0  0  0  0
 21  3  1  0  0  0  0
 22  3  1  0  0  0  0
 23 10  1  0  0  0  0
 24  4  2  0  0  0  0
 25 28  2  0  0  0  0
 26 21  1  0  0  0  0
 27 22  1  0  0  0  0
 28 24  1  0  0  0  0
 26 20  1  0  0  0  0
 25 11  1  0  0  0  0
  8  7  1  0  0  0  0
M  CHG  2   2   1  15  -1
M  END
>  <IDNUMBER>
F3374-0020

>  <Chemical_Name>
N-(2-chloro-4-nitrophenyl)-3-(morpholine-4-sulfonyl)benzamide

>  <PriceCoeff>
1.00

>  <CAS>
953852-20-5

>  <MW>
425.84

>  <Description>
solid

>  <FSP3>
0.24

>  <clogP>
2.11

>  <TPSA>
127.23

>  <Acceptor>
6

>  <Donor>
1

>  <RotBonds>
5

>  <HAC>
28

>  <Collection>
General

>  <PPDS>
+

$$$$
F3374-0032
  Mrv2219 10102508112D          

 28 30  0  0  0  0            999 V2000
    3.9000    3.6708    0.0000 S   0  0  0  0  0  0  0  0  0  0  0  0
    3.2167   -1.7167    0.0000 N   0  3  0  0  0  0  0  0  0  0  0  0
    2.5042   -1.3042    0.0000 C   0  0  0  0  0  0  0  0  0  0  0  0
    4.6167    4.0667    0.0000 N   0  0  0  0  0  0  0  0  0  0  0  0
    3.1917    3.2458    0.0000 C   0  0  0  0  0  0  0  0  0  0  0  0
    2.4917    1.1708    0.0000 C   0  0  0  0  0  0  0  0  0  0  0  0
    2.5042   -0.4792    0.0000 C   0  0  0  0  0  0  0  0  0  0  0  0
    1.7792    0.7583    0.0000 N   0  0  0  0  0  0  0  0  0  0  0  0
    2.4875    1.9958    0.0000 C   0  0  0  0  0  0  0  0  0  0  0  0
    3.2000    2.4208    0.0000 C   0  0  0  0  0  0  0  0  0  0  0  0
    3.4792    4.3750    0.0000 O   0  0  0  0  0  0  0  0  0  0  0  0
    4.3125    2.9583    0.0000 O   0  0  0  0  0  0  0  0  0  0  0  0
    1.7792   -1.7167    0.0000 C   0  0  0  0  0  0  0  0  0  0  0  0
    3.2167   -2.5417    0.0000 O   0  5  0  0  0  0  0  0  0  0  0  0
    3.9292   -1.3042    0.0000 O   0  0  0  0  0  0  0  0  0  0  0  0
    1.7792   -0.0667    0.0000 C   0  0  0  0  0  0  0  0  0  0  0  0
    3.2042    0.7625    0.0000 O   0  0  0  0  0  0  0  0  0  0  0  0
    6.0417    4.8792    0.0000 O   0  0  0  0  0  0  0  0  0  0  0  0
    1.0667   -1.3042    0.0000 C   0  0  0  0  0  0  0  0  0  0  0  0
    4.6167    4.8917    0.0000 C   0  0  0  0  0  0  0  0  0  0  0  0
    5.3250    3.6500    0.0000 C   0  0  0  0  0  0  0  0  0  0  0  0
    1.0667   -0.4792    0.0000 C   0  0  0  0  0  0  0  0  0  0  0  0
    1.7792   -2.5417    0.0000 Cl  0  0  0  0  0  0  0  0  0  0  0  0
    2.4750    3.6458    0.0000 C   0  0  0  0  0  0  0  0  0  0  0  0
    1.7667    2.4083    0.0000 C   0  0  0  0  0  0  0  0  0  0  0  0
    6.0375    4.0542    0.0000 C   0  0  0  0  0  0  0  0  0  0  0  0
    5.3375    5.2917    0.0000 C   0  0  0  0  0  0  0  0  0  0  0  0
    1.7667    3.2333    0.0000 C   0  0  0  0  0  0  0  0  0  0  0  0
  2  3  1  0  0  0  0
  3  7  1  0  0  0  0
  4  1  1  0  0  0  0
  5  1  1  0  0  0  0
  6  9  1  0  0  0  0
  7 16  2  0  0  0  0
  8  6  1  0  0  0  0
  9 10  2  0  0  0  0
 10  5  1  0  0  0  0
 11  1  2  0  0  0  0
 12  1  2  0  0  0  0
 13 19  1  0  0  0  0
 14  2  1  0  0  0  0
 15  2  2  0  0  0  0
 16  8  1  0  0  0  0
 17  6  2  0  0  0  0
 18 26  1  0  0  0  0
 19 22  2  0  0  0  0
 20  4  1  0  0  0  0
 21  4  1  0  0  0  0
 22 16  1  0  0  0  0
 23 13  1  0  0  0  0
 24  5  2  0  0  0  0
 25 28  2  0  0  0  0
 26 21  1  0  0  0  0
 27 20  1  0  0  0  0
 28 24  1  0  0  0  0
 27 18  1  0  0  0  0
 25  9  1  0  0  0  0
 13  3  2  0  0  0  0
M  CHG  2   2   1  14  -1
M  END
>  <IDNUMBER>
F3374-0032

>  <Chemical_Name>
N-(4-chloro-3-nitrophenyl)-3-(morpholine-4-sulfonyl)benzamide

>  <PriceCoeff>
1.00

>  <CAS>
953852-39-6

>  <MW>
425.84

>  <Description>
solid

>  <FSP3>
0.24

>  <clogP>
2.81

>  <TPSA>
127.23

>  <Acceptor>
6

>  <Donor>
1

>  <RotBonds>
5

>  <HAC>
28

>  <Collection>
General

>  <PPDS>
+

$$$$
F3374-0059
  Mrv2219 10102508112D          

 31 34  0  0  0  0            999 V2000
    3.7499   -0.8936    0.0000 N   0  0  0  0  0  0  0  0  0  0  0  0
   -0.7642   -0.1879    0.0000 C   0  0  0  0  0  0  0  0  0  0  0  0
   -1.1775    0.5262    0.0000 C   0  0  0  0  0  0  0  0  0  0  0  0
    4.2259   -1.5576    0.0000 C   0  0  0  0  0  0  0  0  0  0  0  0
    4.2259   -0.2297    0.0000 C   0  0  0  0  0  0  0  0  0  0  0  0
    0.0626   -0.1879    0.0000 N   0  0  0  0  0  0  0  0  0  0  0  0
    0.4803   -0.8936    0.0000 C   0  0  0  0  0  0  0  0  0  0  0  0
   -2.4261   -0.1879    0.0000 N   0  0  0  0  0  0  0  0  0  0  0  0
   -2.0043    0.5345    0.0000 C   0  0  0  0  0  0  0  0  0  0  0  0
   -0.7642    1.2402    0.0000 C   0  0  0  0  0  0  0  0  0  0  0  0
   -1.1733    1.9626    0.0000 C   0  0  0  0  0  0  0  0  0  0  0  0
   -0.7600    2.6766    0.0000 C   0  0  0  0  0  0  0  0  0  0  0  0
   -1.1775   -0.9062    0.0000 C   0  0  0  0  0  0  0  0  0  0  0  0
    2.9314   -0.8936    0.0000 C   0  0  0  0  0  0  0  0  0  0  0  0
    1.2945   -0.8936    0.0000 C   0  0  0  0  0  0  0  0  0  0  0  0
   -2.0127   -0.9062    0.0000 C   0  0  0  0  0  0  0  0  0  0  0  0
    0.0668   -1.6077    0.0000 O   0  0  0  0  0  0  0  0  0  0  0  0
    5.0026   -1.3028    0.0000 C   0  0  0  0  0  0  0  0  0  0  0  0
    5.0026   -0.4803    0.0000 C   0  0  0  0  0  0  0  0  0  0  0  0
    3.9629    0.5470    0.0000 O   0  0  0  0  0  0  0  0  0  0  0  0
    3.9754   -2.3343    0.0000 O   0  0  0  0  0  0  0  0  0  0  0  0
   -2.4178    1.2485    0.0000 C   0  0  0  0  0  0  0  0  0  0  0  0
    0.0668    2.6683    0.0000 O   0  0  0  0  0  0  0  0  0  0  0  0
   -2.0001    1.9626    0.0000 C   0  0  0  0  0  0  0  0  0  0  0  0
    2.5097   -0.1879    0.0000 C   0  0  0  0  0  0  0  0  0  0  0  0
    2.5222   -1.6077    0.0000 C   0  0  0  0  0  0  0  0  0  0  0  0
    1.7037   -0.1879    0.0000 C   0  0  0  0  0  0  0  0  0  0  0  0
    1.7037   -1.6077    0.0000 C   0  0  0  0  0  0  0  0  0  0  0  0
   -1.1733    3.3907    0.0000 O   0  0  0  0  0  0  0  0  0  0  0  0
   -2.4261   -1.6203    0.0000 C   0  0  0  0  0  0  0  0  0  0  0  0
   -0.7517    4.1007    0.0000 C   0  0  0  0  0  0  0  0  0  0  0  0
  2  6  1  0  0  0  0
  3  2  1  0  0  0  0
  4  1  1  0  0  0  0
  5  1  1  0  0  0  0
  6  7  1  0  0  0  0
  7 15  1  0  0  0  0
  8 16  2  0  0  0  0
  9  3  1  0  0  0  0
 10  3  2  0  0  0  0
 11 10  1  0  0  0  0
 12 11  1  0  0  0  0
 13  2  2  0  0  0  0
 14  1  1  0  0  0  0
 15 28  2  0  0  0  0
 16 13  1  0  0  0  0
 17  7  2  0  0  0  0
 18  4  1  0  0  0  0
 19  5  1  0  0  0  0
 20  5  2  0  0  0  0
 21  4  2  0  0  0  0
 22  9  2  0  0  0  0
 23 12  2  0  0  0  0
 24 11  2  0  0  0  0
 25 14  1  0  0  0  0
 26 14  2  0  0  0  0
 27 25  2  0  0  0  0
 28 26  1  0  0  0  0
 29 12  1  0  0  0  0
 30 16  1  0  0  0  0
 31 29  1  0  0  0  0
 19 18  1  0  0  0  0
 27 15  1  0  0  0  0
  9  8  1  0  0  0  0
 22 24  1  0  0  0  0
M  END
>  <IDNUMBER>
F3374-0059

>  <Chemical_Name>
methyl 4-[4-(2,5-dioxopyrrolidin-1-yl)benzamido]-2-methylquinoline-6-carboxylate

>  <PriceCoeff>
1.00

>  <CAS>
953853-07-1

>  <MW>
417.41

>  <Description>
solid

>  <FSP3>
0.17

>  <clogP>
2.13

>  <TPSA>
105.67

>  <Acceptor>
6

>  <Donor>
2

>  <RotBonds>
5

>  <HAC>
31

>  <Collection>
General

>  <PPDS>
+

$$$$
F3374-0266
  Mrv2219 10102508112D          

 30 33  0  0  0  0            999 V2000
    4.7025   -3.5337    0.0000 N   0  0  0  0  0  0  0  0  0  0  0  0
    5.4496   -3.2084    0.0000 C   0  0  0  0  0  0  0  0  0  0  0  0
    4.7759   -4.3496    0.0000 C   0  0  0  0  0  0  0  0  0  0  0  0
   -0.9854    0.6188    0.0000 N   0  3  0  0  0  0  0  0  0  0  0  0
    5.5825   -4.5284    0.0000 C   0  0  0  0  0  0  0  0  0  0  0  0
    5.9996   -3.8225    0.0000 C   0  0  0  0  0  0  0  0  0  0  0  0
    1.8609   -1.8700    0.0000 C   0  0  0  0  0  0  0  0  0  0  0  0
    1.8746   -1.0496    0.0000 N   0  0  0  0  0  0  0  0  0  0  0  0
   -0.2750    0.2016    0.0000 C   0  0  0  0  0  0  0  0  0  0  0  0
    0.4537    0.6141    0.0000 C   0  0  0  0  0  0  0  0  0  0  0  0
    3.9921   -3.1212    0.0000 C   0  0  0  0  0  0  0  0  0  0  0  0
    1.1596   -0.6325    0.0000 C   0  0  0  0  0  0  0  0  0  0  0  0
    1.1687    0.2016    0.0000 C   0  0  0  0  0  0  0  0  0  0  0  0
    5.6284   -2.4062    0.0000 O   0  0  0  0  0  0  0  0  0  0  0  0
    4.1662   -4.8996    0.0000 O   0  0  0  0  0  0  0  0  0  0  0  0
   -1.7050    0.2154    0.0000 O   0  5  0  0  0  0  0  0  0  0  0  0
    2.5759   -2.2871    0.0000 C   0  0  0  0  0  0  0  0  0  0  0  0
   -0.9762    1.4437    0.0000 O   0  0  0  0  0  0  0  0  0  0  0  0
    1.1459   -2.2734    0.0000 O   0  0  0  0  0  0  0  0  0  0  0  0
   -0.2750   -0.6234    0.0000 C   0  0  0  0  0  0  0  0  0  0  0  0
    0.4400   -1.0450    0.0000 C   0  0  0  0  0  0  0  0  0  0  0  0
    4.0012   -2.3009    0.0000 C   0  0  0  0  0  0  0  0  0  0  0  0
    3.2771   -3.5246    0.0000 C   0  0  0  0  0  0  0  0  0  0  0  0
    2.5759   -3.1121    0.0000 C   0  0  0  0  0  0  0  0  0  0  0  0
    3.2909   -1.8837    0.0000 C   0  0  0  0  0  0  0  0  0  0  0  0
    1.8837    0.6141    0.0000 Cl  0  0  0  0  0  0  0  0  0  0  0  0
    6.8200   -3.8225    0.0000 C   0  0  0  0  0  0  0  0  0  0  0  0
    5.9859   -5.2434    0.0000 C   0  0  0  0  0  0  0  0  0  0  0  0
    6.8109   -5.2525    0.0000 C   0  0  0  0  0  0  0  0  0  0  0  0
    7.2325   -4.5375    0.0000 C   0  0  0  0  0  0  0  0  0  0  0  0
  2  1  1  0  0  0  0
  3  1  1  0  0  0  0
  4  9  1  0  0  0  0
  5  3  1  0  0  0  0
  6  2  1  0  0  0  0
  7 17  1  0  0  0  0
  8  7  1  0  0  0  0
  9 20  2  0  0  0  0
 10 13  2  0  0  0  0
 11  1  1  0  0  0  0
 12  8  1  0  0  0  0
 13 12  1  0  0  0  0
 14  2  2  0  0  0  0
 15  3  2  0  0  0  0
 16  4  1  0  0  0  0
 17 24  1  0  0  0  0
 18  4  2  0  0  0  0
 19  7  2  0  0  0  0
 20 21  1  0  0  0  0
 21 12  2  0  0  0  0
 22 11  2  0  0  0  0
 23 11  1  0  0  0  0
 24 23  2  0  0  0  0
 25 22  1  0  0  0  0
 26 13  1  0  0  0  0
 27  6  1  0  0  0  0
 28  5  1  0  0  0  0
 29 28  2  0  0  0  0
 30 27  2  0  0  0  0
  5  6  2  0  0  0  0
 25 17  2  0  0  0  0
 29 30  1  0  0  0  0
  9 10  1  0  0  0  0
M  CHG  2   4   1  16  -1
M  END
>  <IDNUMBER>
F3374-0266

>  <Chemical_Name>
N-(2-chloro-4-nitrophenyl)-4-(1,3-dioxo-2,3-dihydro-1H-isoindol-2-yl)benzamide

>  <PriceCoeff>
1.00

>  <CAS>
955299-38-4

>  <MW>
421.79

>  <Description>
solid

>  <FSP3>
0.00

>  <clogP>
3.47

>  <TPSA>
109.62

>  <Acceptor>
5

>  <Donor>
1

>  <RotBonds>
4

>  <HAC>
30

>  <Collection>
General

>  <PPDS>
+

$$$$
F3374-0425
  Mrv2219 10102508112D          

 27 30  0  0  0  0            999 V2000
    3.7629   -0.8968    0.0000 N   0  0  0  0  0  0  0  0  0  0  0  0
    4.2406   -1.5630    0.0000 C   0  0  0  0  0  0  0  0  0  0  0  0
    4.2406   -0.2305    0.0000 C   0  0  0  0  0  0  0  0  0  0  0  0
    0.4819   -0.8968    0.0000 C   0  0  0  0  0  0  0  0  0  0  0  0
    0.0629   -0.1886    0.0000 N   0  0  0  0  0  0  0  0  0  0  0  0
   -1.1691    0.5363    0.0000 C   0  0  0  0  0  0  0  0  0  0  0  0
   -0.7668   -0.1802    0.0000 C   0  0  0  0  0  0  0  0  0  0  0  0
    2.9416   -0.8968    0.0000 C   0  0  0  0  0  0  0  0  0  0  0  0
    1.2990   -0.8968    0.0000 C   0  0  0  0  0  0  0  0  0  0  0  0
   -1.9988    0.5405    0.0000 C   0  0  0  0  0  0  0  0  0  0  0  0
   -2.4220   -0.1676    0.0000 N   0  0  0  0  0  0  0  0  0  0  0  0
   -0.7543    1.2445    0.0000 C   0  0  0  0  0  0  0  0  0  0  0  0
    0.0671   -1.6133    0.0000 O   0  0  0  0  0  0  0  0  0  0  0  0
    5.0200   -1.3074    0.0000 C   0  0  0  0  0  0  0  0  0  0  0  0
    5.0200   -0.4819    0.0000 C   0  0  0  0  0  0  0  0  0  0  0  0
    3.9766    0.5489    0.0000 O   0  0  0  0  0  0  0  0  0  0  0  0
    3.9892   -2.3424    0.0000 O   0  0  0  0  0  0  0  0  0  0  0  0
    2.5184   -0.1886    0.0000 C   0  0  0  0  0  0  0  0  0  0  0  0
    2.5310   -1.6133    0.0000 C   0  0  0  0  0  0  0  0  0  0  0  0
    1.7096   -0.1886    0.0000 C   0  0  0  0  0  0  0  0  0  0  0  0
    1.7096   -1.6133    0.0000 C   0  0  0  0  0  0  0  0  0  0  0  0
   -2.4094    1.2654    0.0000 C   0  0  0  0  0  0  0  0  0  0  0  0
   -1.1817   -0.8968    0.0000 C   0  0  0  0  0  0  0  0  0  0  0  0
   -1.1565    1.9694    0.0000 C   0  0  0  0  0  0  0  0  0  0  0  0
   -2.0113   -0.8842    0.0000 C   0  0  0  0  0  0  0  0  0  0  0  0
   -1.9862    1.9736    0.0000 C   0  0  0  0  0  0  0  0  0  0  0  0
   -0.7375    2.6734    0.0000 Cl  0  0  0  0  0  0  0  0  0  0  0  0
  2  1  1  0  0  0  0
  3  1  1  0  0  0  0
  4  9  1  0  0  0  0
  5  4  1  0  0  0  0
  6  7  1  0  0  0  0
  7  5  1  0  0  0  0
  8  1  1  0  0  0  0
  9 21  2  0  0  0  0
 10  6  1  0  0  0  0
 11 25  2  0  0  0  0
 12  6  2  0  0  0  0
 13  4  2  0  0  0  0
 14  2  1  0  0  0  0
 15  3  1  0  0  0  0
 16  3  2  0  0  0  0
 17  2  2  0  0  0  0
 18  8  1  0  0  0  0
 19  8  2  0  0  0  0
 20 18  2  0  0  0  0
 21 19  1  0  0  0  0
 22 10  2  0  0  0  0
 23  7  2  0  0  0  0
 24 12  1  0  0  0  0
 25 23  1  0  0  0  0
 26 24  2  0  0  0  0
 27 24  1  0  0  0  0
 15 14  1  0  0  0  0
 20  9  1  0  0  0  0
 10 11  1  0  0  0  0
 22 26  1  0  0  0  0
M  END
>  <IDNUMBER>
F3374-0425

>  <Chemical_Name>
N-(6-chloroquinolin-4-yl)-4-(2,5-dioxopyrrolidin-1-yl)benzamide

>  <PriceCoeff>
1.00

>  <CAS>
955314-97-3

>  <MW>
379.80

>  <Description>
solid

>  <FSP3>
0.10

>  <clogP>
2.31

>  <TPSA>
79.37

>  <Acceptor>
4

>  <Donor>
2

>  <RotBonds>
3

>  <HAC>
27

>  <Collection>
General

>  <PPDS>
+

$$$$
F3375-0129
  Mrv2219 10102508112D          

 25 27  0  0  0  0            999 V2000
   10.0500   -2.6430    0.0000 S   0  0  0  0  0  0  0  0  0  0  0  0
    2.4593   -5.3903    0.0000 N   0  3  0  0  0  0  0  0  0  0  0  0
    5.3152   -3.7244    0.0000 C   0  0  0  0  0  0  0  0  0  0  0  0
    6.0751   -4.0626    0.0000 O   0  0  0  0  0  0  0  0  0  0  0  0
    6.6179   -3.4446    0.0000 C   0  0  0  0  0  0  0  0  0  0  0  0
    4.6012   -4.1378    0.0000 C   0  0  0  0  0  0  0  0  0  0  0  0
    7.4446   -3.5240    0.0000 C   0  0  0  0  0  0  0  0  0  0  0  0
    3.8872   -3.7244    0.0000 C   0  0  0  0  0  0  0  0  0  0  0  0
    3.1733   -4.9645    0.0000 C   0  0  0  0  0  0  0  0  0  0  0  0
    9.2859   -2.3090    0.0000 C   0  0  0  0  0  0  0  0  0  0  0  0
    5.3987   -2.9060    0.0000 C   0  0  0  0  0  0  0  0  0  0  0  0
    6.1920   -2.7223    0.0000 C   0  0  0  0  0  0  0  0  0  0  0  0
    3.1733   -4.1378    0.0000 C   0  0  0  0  0  0  0  0  0  0  0  0
    7.9206   -2.8476    0.0000 N   0  0  0  0  0  0  0  0  0  0  0  0
    4.6095   -4.9645    0.0000 C   0  0  0  0  0  0  0  0  0  0  0  0
   10.7640   -3.0563    0.0000 O   0  0  0  0  0  0  0  0  0  0  0  0
   10.2629   -1.8413    0.0000 O   0  0  0  0  0  0  0  0  0  0  0  0
    1.7411   -4.9770    0.0000 O   0  5  0  0  0  0  0  0  0  0  0  0
    8.7473   -2.9311    0.0000 C   0  0  0  0  0  0  0  0  0  0  0  0
    2.4593   -6.2171    0.0000 O   0  0  0  0  0  0  0  0  0  0  0  0
    9.9706   -3.4614    0.0000 C   0  0  0  0  0  0  0  0  0  0  0  0
    7.7828   -4.2755    0.0000 O   0  0  0  0  0  0  0  0  0  0  0  0
    3.8956   -5.3778    0.0000 C   0  0  0  0  0  0  0  0  0  0  0  0
    9.1606   -3.6450    0.0000 C   0  0  0  0  0  0  0  0  0  0  0  0
    3.8830   -2.8977    0.0000 Cl  0  0  0  0  0  0  0  0  0  0  0  0
  2  9  1  0  0  0  0
  3  4  1  0  0  0  0
  4  5  1  0  0  0  0
  5  7  1  0  0  0  0
  6  3  1  0  0  0  0
  7 14  1  0  0  0  0
  8  6  2  0  0  0  0
  9 23  1  0  0  0  0
 10  1  1  0  0  0  0
 11 12  1  0  0  0  0
 12  5  2  0  0  0  0
 13  8  1  0  0  0  0
 14 19  1  0  0  0  0
 15  6  1  0  0  0  0
 16  1  2  0  0  0  0
 17  1  2  0  0  0  0
 18  2  1  0  0  0  0
 19 10  1  0  0  0  0
 20  2  2  0  0  0  0
 21  1  1  0  0  0  0
 22  7  2  0  0  0  0
 23 15  2  0  0  0  0
 24 21  1  0  0  0  0
 25  8  1  0  0  0  0
 24 19  1  0  0  0  0
  3 11  2  0  0  0  0
  9 13  2  0  0  0  0
M  CHG  2   2   1  18  -1
M  END
>  <IDNUMBER>
F3375-0129

>  <Chemical_Name>
5-(2-chloro-4-nitrophenyl)-N-(1,1-dioxo-1??-thiolan-3-yl)furan-2-carboxamide

>  <PriceCoeff>
1.00

>  <CAS>
951900-87-1

>  <MW>
384.79

>  <Description>
solid

>  <FSP3>
0.27

>  <clogP>
1.27

>  <TPSA>
127.90

>  <Acceptor>
6

>  <Donor>
1

>  <RotBonds>
4

>  <HAC>
25

>  <Collection>
General

>  <PPDS>
+

$$$$
F3375-0138
  Mrv2219 10102508112D          

 26 28  0  0  0  0            999 V2000
    8.9656   -2.6451    0.0000 S   0  0  0  0  0  0  0  0  0  0  0  0
    2.8036   -2.8954    0.0000 N   0  3  0  0  0  0  0  0  0  0  0  0
    5.5362   -3.4461    0.0000 C   0  0  0  0  0  0  0  0  0  0  0  0
    4.2346   -3.7214    0.0000 C   0  0  0  0  0  0  0  0  0  0  0  0
    6.3623   -3.5212    0.0000 C   0  0  0  0  0  0  0  0  0  0  0  0
    2.8078   -3.7297    0.0000 C   0  0  0  0  0  0  0  0  0  0  0  0
    3.5212   -4.1344    0.0000 C   0  0  0  0  0  0  0  0  0  0  0  0
    4.9938   -4.0594    0.0000 O   0  0  0  0  0  0  0  0  0  0  0  0
    8.2021   -2.3154    0.0000 C   0  0  0  0  0  0  0  0  0  0  0  0
    6.8379   -2.8536    0.0000 N   0  0  0  0  0  0  0  0  0  0  0  0
    7.6639   -2.9329    0.0000 C   0  0  0  0  0  0  0  0  0  0  0  0
    5.1107   -2.7202    0.0000 C   0  0  0  0  0  0  0  0  0  0  0  0
    4.3180   -2.9079    0.0000 C   0  0  0  0  0  0  0  0  0  0  0  0
    2.0944   -4.1344    0.0000 C   0  0  0  0  0  0  0  0  0  0  0  0
    3.5295   -4.9605    0.0000 C   0  0  0  0  0  0  0  0  0  0  0  0
    9.1783   -1.8440    0.0000 O   0  0  0  0  0  0  0  0  0  0  0  0
    9.6790   -3.0581    0.0000 O   0  0  0  0  0  0  0  0  0  0  0  0
    3.5170   -2.4824    0.0000 O   0  5  0  0  0  0  0  0  0  0  0  0
    8.0770   -3.6463    0.0000 C   0  0  0  0  0  0  0  0  0  0  0  0
    2.0818   -2.4824    0.0000 O   0  0  0  0  0  0  0  0  0  0  0  0
    8.8863   -3.4669    0.0000 C   0  0  0  0  0  0  0  0  0  0  0  0
    6.7002   -4.2721    0.0000 O   0  0  0  0  0  0  0  0  0  0  0  0
    2.0944   -4.9688    0.0000 C   0  0  0  0  0  0  0  0  0  0  0  0
    2.8161   -5.3818    0.0000 C   0  0  0  0  0  0  0  0  0  0  0  0
    1.3767   -5.3735    0.0000 Cl  0  0  0  0  0  0  0  0  0  0  0  0
    6.4999   -2.1027    0.0000 C   0  0  0  0  0  0  0  0  0  0  0  0
  2  6  1  0  0  0  0
  3  5  1  0  0  0  0
  4  8  1  0  0  0  0
  5 10  1  0  0  0  0
  6  7  2  0  0  0  0
  7  4  1  0  0  0  0
  8  3  1  0  0  0  0
  9  1  1  0  0  0  0
 10 11  1  0  0  0  0
 11  9  1  0  0  0  0
 12  3  2  0  0  0  0
 13 12  1  0  0  0  0
 14  6  1  0  0  0  0
 15  7  1  0  0  0  0
 16  1  2  0  0  0  0
 17  1  2  0  0  0  0
 18  2  1  0  0  0  0
 19 21  1  0  0  0  0
 20  2  2  0  0  0  0
 21  1  1  0  0  0  0
 22  5  2  0  0  0  0
 23 24  1  0  0  0  0
 24 15  2  0  0  0  0
 25 23  1  0  0  0  0
 26 10  1  0  0  0  0
 19 11  1  0  0  0  0
  4 13  2  0  0  0  0
 23 14  2  0  0  0  0
M  CHG  2   2   1  18  -1
M  END
>  <IDNUMBER>
F3375-0138

>  <Chemical_Name>
5-(4-chloro-2-nitrophenyl)-N-(1,1-dioxo-1??-thiolan-3-yl)-N-methylfuran-2-carboxamide

>  <PriceCoeff>
1.00

>  <CAS>
951901-03-4

>  <MW>
398.82

>  <Description>
solid

>  <FSP3>
0.31

>  <clogP>
1.44

>  <TPSA>
119.11

>  <Acceptor>
6

>  <Donor>
0

>  <RotBonds>
5

>  <HAC>
26

>  <Collection>
General

>  <PPDS>
+

$$$$
F3375-2581
  Mrv2219 10102508112D          

 24 26  0  0  0  0            999 V2000
    2.1904   -2.7775    0.0000 C   0  0  0  0  0  0  0  0  0  0  0  0
    2.5276   -2.0238    0.0000 C   0  0  0  0  0  0  0  0  0  0  0  0
    1.3908   -2.9524    0.0000 C   0  0  0  0  0  0  0  0  0  0  0  0
   -1.5449   -5.4384    0.0000 N   0  3  0  0  0  0  0  0  0  0  0  0
    1.3034   -3.7769    0.0000 C   0  0  0  0  0  0  0  0  0  0  0  0
    2.6109   -3.4979    0.0000 C   0  0  0  0  0  0  0  0  0  0  0  0
   -0.8327   -5.0220    0.0000 C   0  0  0  0  0  0  0  0  0  0  0  0
    2.0613   -4.1100    0.0000 O   0  0  0  0  0  0  0  0  0  0  0  0
    3.3480   -1.9363    0.0000 N   0  0  0  0  0  0  0  0  0  0  0  0
   -0.8327   -4.1891    0.0000 C   0  0  0  0  0  0  0  0  0  0  0  0
    0.5997   -4.1891    0.0000 C   0  0  0  0  0  0  0  0  0  0  0  0
   -0.1207   -5.4342    0.0000 C   0  0  0  0  0  0  0  0  0  0  0  0
   -0.1207   -3.7769    0.0000 C   0  0  0  0  0  0  0  0  0  0  0  0
   -2.2612   -5.0262    0.0000 O   0  5  0  0  0  0  0  0  0  0  0  0
   -1.5449   -6.2629    0.0000 O   0  0  0  0  0  0  0  0  0  0  0  0
    2.0405   -1.3617    0.0000 O   0  0  0  0  0  0  0  0  0  0  0  0
    0.5997   -5.0220    0.0000 C   0  0  0  0  0  0  0  0  0  0  0  0
    4.9845   -1.7656    0.0000 O   0  0  0  0  0  0  0  0  0  0  0  0
   -1.5449   -3.7769    0.0000 Cl  0  0  0  0  0  0  0  0  0  0  0  0
    3.4271   -3.5770    0.0000 C   0  0  0  0  0  0  0  0  0  0  0  0
    3.8269   -2.6026    0.0000 C   0  0  0  0  0  0  0  0  0  0  0  0
    3.6770   -1.1785    0.0000 C   0  0  0  0  0  0  0  0  0  0  0  0
    4.4972   -1.0910    0.0000 C   0  0  0  0  0  0  0  0  0  0  0  0
    4.6472   -2.5151    0.0000 C   0  0  0  0  0  0  0  0  0  0  0  0
  2  1  1  0  0  0  0
  3  1  1  0  0  0  0
  4  7  1  0  0  0  0
  5  3  2  0  0  0  0
  6  1  2  0  0  0  0
  7 12  1  0  0  0  0
  8  6  1  0  0  0  0
  9  2  1  0  0  0  0
 10 13  1  0  0  0  0
 11  5  1  0  0  0  0
 12 17  2  0  0  0  0
 13 11  2  0  0  0  0
 14  4  1  0  0  0  0
 15  4  2  0  0  0  0
 16  2  2  0  0  0  0
 17 11  1  0  0  0  0
 18 23  1  0  0  0  0
 19 10  1  0  0  0  0
 20  6  1  0  0  0  0
 21  9  1  0  0  0  0
 22  9  1  0  0  0  0
 23 22  1  0  0  0  0
 24 21  1  0  0  0  0
  5  8  1  0  0  0  0
 24 18  1  0  0  0  0
 10  7  2  0  0  0  0
M  CHG  2   4   1  14  -1
M  END
>  <IDNUMBER>
F3375-2581

>  <Chemical_Name>
4-[5-(3-chloro-4-nitrophenyl)-2-methylfuran-3-carbonyl]morpholine

>  <PriceCoeff>
1.00

>  <CAS>
874467-05-7

>  <MW>
350.75

>  <Description>
solid

>  <FSP3>
0.31

>  <clogP>
2.89

>  <TPSA>
85.82

>  <Acceptor>
5

>  <Donor>
0

>  <RotBonds>
4

>  <HAC>
24

>  <Collection>
General

>  <PPDS>
+

$$$$
F3376-1619
  Mrv2219 10102508112D          

 16 18  0  0  0  0            999 V2000
    5.1257   -6.8330    0.0000 C   0  0  0  0  0  0  0  0  0  0  0  0
    5.1143   -6.0195    0.0000 C   0  0  0  0  0  0  0  0  0  0  0  0
    5.8361   -7.2455    0.0000 N   0  0  0  0  0  0  0  0  0  0  0  0
    4.4268   -7.2455    0.0000 N   0  0  0  0  0  0  0  0  0  0  0  0
    3.7164   -5.9851    0.0000 N   0  0  0  0  0  0  0  0  0  0  0  0
    3.7164   -6.8330    0.0000 C   0  0  0  0  0  0  0  0  0  0  0  0
    4.4268   -5.5841    0.0000 C   0  0  0  0  0  0  0  0  0  0  0  0
    6.5466   -6.8330    0.0000 C   0  0  0  0  0  0  0  0  0  0  0  0
    6.5466   -5.9966    0.0000 N   0  0  0  0  0  0  0  0  0  0  0  0
    7.2684   -7.2455    0.0000 N   0  0  0  0  0  0  0  0  0  0  0  0
    2.9945   -7.2914    0.0000 O   0  0  0  0  0  0  0  0  0  0  0  0
    4.4268   -4.7591    0.0000 O   0  0  0  0  0  0  0  0  0  0  0  0
    4.4268   -8.0705    0.0000 C   0  0  0  0  0  0  0  0  0  0  0  0
    2.9830   -5.5497    0.0000 C   0  0  0  0  0  0  0  0  0  0  0  0
    7.9903   -5.9966    0.0000 C   0  0  0  0  0  0  0  0  0  0  0  0
    7.9903   -6.8330    0.0000 C   0  0  0  0  0  0  0  0  0  0  0  0
  2  1  2  0  0  0  0
  3  1  1  0  0  0  0
  4  1  1  0  0  0  0
  5  6  1  0  0  0  0
  6  4  1  0  0  0  0
  7  2  1  0  0  0  0
  8  3  2  0  0  0  0
  9  2  1  0  0  0  0
 10  8  1  0  0  0  0
 11  6  2  0  0  0  0
 12  7  2  0  0  0  0
 13  4  1  0  0  0  0
 14  5  1  0  0  0  0
 15  9  1  0  0  0  0
 16 10  1  0  0  0  0
  8  9  1  0  0  0  0
  7  5  1  0  0  0  0
 15 16  1  0  0  0  0
M  END
>  <IDNUMBER>
F3376-1619

>  <Chemical_Name>
1,3-dimethyl-1H,2H,3H,4H,6H,7H,8H-imidazo[1,2-g]purine-2,4-dione

>  <PriceCoeff>
1.50

>  <CAS>
49687-12-9

>  <MW>
221.22

>  <Description>
solid

>  <FSP3>
0.44

>  <clogP>
0.40

>  <TPSA>
70.47

>  <Acceptor>
3

>  <Donor>
2

>  <RotBonds>
0

>  <HAC>
16

>  <Collection>
Advanced

>  <PPDS>
+

$$$$
F3376-1857
  Mrv2219 10102508112D          

 25 28  0  0  0  0            999 V2000
    6.1474   -5.4669    0.0000 C   0  0  0  0  0  0  0  0  0  0  0  0
    4.7331   -5.4669    0.0000 C   0  0  0  0  0  0  0  0  0  0  0  0
    4.7217   -4.6571    0.0000 C   0  0  0  0  0  0  0  0  0  0  0  0
    6.1474   -4.6343    0.0000 N   0  0  0  0  0  0  0  0  0  0  0  0
    5.4402   -5.8775    0.0000 N   0  0  0  0  0  0  0  0  0  0  0  0
    6.8659   -5.8775    0.0000 N   0  0  0  0  0  0  0  0  0  0  0  0
    4.0374   -5.8775    0.0000 N   0  0  0  0  0  0  0  0  0  0  0  0
    4.0374   -4.2237    0.0000 C   0  0  0  0  0  0  0  0  0  0  0  0
    3.3303   -5.4669    0.0000 C   0  0  0  0  0  0  0  0  0  0  0  0
    7.5882   -4.6343    0.0000 C   0  0  0  0  0  0  0  0  0  0  0  0
    3.3303   -4.6229    0.0000 N   0  0  0  0  0  0  0  0  0  0  0  0
    7.5882   -5.4669    0.0000 C   0  0  0  0  0  0  0  0  0  0  0  0
    6.8659   -6.7100    0.0000 C   0  0  0  0  0  0  0  0  0  0  0  0
    6.1398   -7.1168    0.0000 C   0  0  0  0  0  0  0  0  0  0  0  0
    7.5768   -7.1206    0.0000 C   0  0  0  0  0  0  0  0  0  0  0  0
    2.6118   -5.9231    0.0000 O   0  0  0  0  0  0  0  0  0  0  0  0
    4.0374   -3.4026    0.0000 O   0  0  0  0  0  0  0  0  0  0  0  0
    4.0374   -6.6986    0.0000 C   0  0  0  0  0  0  0  0  0  0  0  0
    7.5768   -7.9418    0.0000 C   0  0  0  0  0  0  0  0  0  0  0  0
    6.1398   -7.9418    0.0000 C   0  0  0  0  0  0  0  0  0  0  0  0
    8.1204   -4.0983    0.0000 C   0  0  0  0  0  0  0  0  0  0  0  0
    8.3068   -5.8775    0.0000 C   0  0  0  0  0  0  0  0  0  0  0  0
    6.8583   -8.3599    0.0000 C   0  0  0  0  0  0  0  0  0  0  0  0
    5.4213   -8.3524    0.0000 Cl  0  0  0  0  0  0  0  0  0  0  0  0
    8.2915   -6.7062    0.0000 O   0  0  0  0  0  0  0  0  0  0  0  0
  2  5  1  0  0  0  0
  3  4  1  0  0  0  0
  4  1  1  0  0  0  0
  5  1  2  0  0  0  0
  6  1  1  0  0  0  0
  7  2  1  0  0  0  0
  8  3  1  0  0  0  0
  9  7  1  0  0  0  0
 10  4  1  0  0  0  0
 11  8  1  0  0  0  0
 12  6  1  0  0  0  0
 13  6  1  0  0  0  0
 14 13  2  0  0  0  0
 15 13  1  0  0  0  0
 16  9  2  0  0  0  0
 17  8  2  0  0  0  0
 18  7  1  0  0  0  0
 19 15  2  0  0  0  0
 20 14  1  0  0  0  0
 21 10  1  0  0  0  0
 22 12  1  0  0  0  0
 23 19  1  0  0  0  0
 24 20  1  0  0  0  0
 25 15  1  0  0  0  0
 12 10  2  0  0  0  0
  3  2  2  0  0  0  0
 11  9  1  0  0  0  0
 20 23  2  0  0  0  0
M  END
>  <IDNUMBER>
F3376-1857

>  <Chemical_Name>
8-(5-chloro-2-hydroxyphenyl)-1,6,7-trimethyl-1H,2H,3H,4H,8H-imidazo[1,2-g]purine-2,4-dione

>  <PriceCoeff>
1.00

>  <CAS>
1021209-42-6

>  <MW>
359.77

>  <Description>
solid

>  <FSP3>
0.19

>  <clogP>
2.96

>  <TPSA>
91.87

>  <Acceptor>
4

>  <Donor>
2

>  <RotBonds>
1

>  <HAC>
25

>  <Collection>
General

>  <PPDS>
+

$$$$
F3382-3365
  Mrv2219 10102508112D          

 23 25  0  0  0  0            999 V2000
    6.9417   -2.5000    0.0000 C   0  0  0  0  0  0  0  0  0  0  0  0
    5.5167   -2.5000    0.0000 C   0  0  0  0  0  0  0  0  0  0  0  0
    6.2292   -2.9125    0.0000 C   0  0  0  0  0  0  0  0  0  0  0  0
    5.5167   -1.6750    0.0000 C   0  0  0  0  0  0  0  0  0  0  0  0
    6.9417   -1.6750    0.0000 C   0  0  0  0  0  0  0  0  0  0  0  0
    6.2292   -1.2625    0.0000 N   0  0  0  0  0  0  0  0  0  0  0  0
    4.8042   -1.2625    0.0000 C   0  0  0  0  0  0  0  0  0  0  0  0
    4.0875   -1.6750    0.0000 C   0  0  0  0  0  0  0  0  0  0  0  0
    4.8042   -2.9125    0.0000 C   0  0  0  0  0  0  0  0  0  0  0  0
    7.6667   -2.9125    0.0000 C   0  0  0  0  0  0  0  0  0  0  0  0
    4.0875   -2.5000    0.0000 C   0  0  0  0  0  0  0  0  0  0  0  0
    3.3750   -1.2625    0.0000 N   0  0  0  0  0  0  0  0  0  0  0  0
    6.2292   -3.7375    0.0000 O   0  0  0  0  0  0  0  0  0  0  0  0
    7.6667   -3.7375    0.0000 O   0  0  0  0  0  0  0  0  0  0  0  0
    3.3667   -2.9125    0.0000 F   0  0  0  0  0  0  0  0  0  0  0  0
    8.3792   -2.5000    0.0000 O   0  0  0  0  0  0  0  0  0  0  0  0
    6.2292   -0.4375    0.0000 C   0  0  0  0  0  0  0  0  0  0  0  0
    2.6042   -1.5667    0.0000 C   0  0  0  0  0  0  0  0  0  0  0  0
    3.3250   -0.4417    0.0000 C   0  0  0  0  0  0  0  0  0  0  0  0
    9.0917   -2.9125    0.0000 C   0  0  0  0  0  0  0  0  0  0  0  0
    2.5292   -0.2292    0.0000 C   0  0  0  0  0  0  0  0  0  0  0  0
    2.0792   -0.9292    0.0000 C   0  0  0  0  0  0  0  0  0  0  0  0
    9.8125   -2.5000    0.0000 C   0  0  0  0  0  0  0  0  0  0  0  0
  2  3  1  0  0  0  0
  3  1  1  0  0  0  0
  4  6  1  0  0  0  0
  5  1  2  0  0  0  0
  6  5  1  0  0  0  0
  7  4  2  0  0  0  0
  8  7  1  0  0  0  0
  9  2  2  0  0  0  0
 10  1  1  0  0  0  0
 11  9  1  0  0  0  0
 12  8  1  0  0  0  0
 13  3  2  0  0  0  0
 14 10  2  0  0  0  0
 15 11  1  0  0  0  0
 16 10  1  0  0  0  0
 17  6  1  0  0  0  0
 18 12  1  0  0  0  0
 19 12  1  0  0  0  0
 20 16  1  0  0  0  0
 21 19  1  0  0  0  0
 22 18  1  0  0  0  0
 23 20  1  0  0  0  0
  4  2  1  0  0  0  0
  8 11  2  0  0  0  0
 21 22  1  0  0  0  0
M  END
>  <IDNUMBER>
F3382-3365

>  <Chemical_Name>
ethyl 6-fluoro-1-methyl-4-oxo-7-(pyrrolidin-1-yl)-1,4-dihydroquinoline-3-carboxylate

>  <PriceCoeff>
1.00

>  <MW>
318.34

>  <Description>
solid

>  <FSP3>
0.41

>  <clogP>
1.54

>  <TPSA>
49.85

>  <Acceptor>
5

>  <Donor>
2

>  <RotBonds>
4

>  <HAC>
23

>  <Collection>
General

$$$$
F3385-0004
  Mrv2219 10102508112D          

 19 21  0  0  0  0            999 V2000
    5.2750   -0.4292    0.0000 C   0  0  0  0  0  0  0  0  0  0  0  0
    5.2750   -1.2667    0.0000 C   0  0  0  0  0  0  0  0  0  0  0  0
    3.8292   -1.2667    0.0000 C   0  0  0  0  0  0  0  0  0  0  0  0
    4.5500   -1.6792    0.0000 C   0  0  0  0  0  0  0  0  0  0  0  0
    4.5542   -0.0125    0.0000 O   0  0  0  0  0  0  0  0  0  0  0  0
    3.8375   -0.4292    0.0000 C   0  0  0  0  0  0  0  0  0  0  0  0
    5.9875   -0.0250    0.0000 C   0  0  0  0  0  0  0  0  0  0  0  0
    3.1167   -1.6750    0.0000 C   0  0  0  0  0  0  0  0  0  0  0  0
    4.5500   -2.5042    0.0000 O   0  0  0  0  0  0  0  0  0  0  0  0
    3.1167   -0.0167    0.0000 C   0  0  0  0  0  0  0  0  0  0  0  0
    6.7042   -0.4417    0.0000 C   0  0  0  0  0  0  0  0  0  0  0  0
    5.9917    0.7958    0.0000 C   0  0  0  0  0  0  0  0  0  0  0  0
    2.4042   -1.2625    0.0000 C   0  0  0  0  0  0  0  0  0  0  0  0
    2.4042   -0.4375    0.0000 C   0  0  0  0  0  0  0  0  0  0  0  0
    6.7042    1.2083    0.0000 C   0  0  0  0  0  0  0  0  0  0  0  0
    7.4167   -0.0292    0.0000 C   0  0  0  0  0  0  0  0  0  0  0  0
    7.4167    0.7958    0.0000 C   0  0  0  0  0  0  0  0  0  0  0  0
    1.6917   -1.6750    0.0000 C   0  0  0  0  0  0  0  0  0  0  0  0
    8.1375    1.2083    0.0000 C   0  0  0  0  0  0  0  0  0  0  0  0
  2  1  2  0  0  0  0
  3  6  1  0  0  0  0
  4  2  1  0  0  0  0
  5  1  1  0  0  0  0
  6  5  1  0  0  0  0
  7  1  1  0  0  0  0
  8  3  2  0  0  0  0
  9  4  2  0  0  0  0
 10  6  2  0  0  0  0
 11  7  2  0  0  0  0
 12  7  1  0  0  0  0
 13 14  2  0  0  0  0
 14 10  1  0  0  0  0
 15 12  2  0  0  0  0
 16 11  1  0  0  0  0
 17 15  1  0  0  0  0
 18 13  1  0  0  0  0
 19 17  1  0  0  0  0
  3  4  1  0  0  0  0
 16 17  2  0  0  0  0
 13  8  1  0  0  0  0
M  END
>  <IDNUMBER>
F3385-0004

>  <Chemical_Name>
6-methyl-2-(4-methylphenyl)-4H-chromen-4-one

>  <PriceCoeff>
1.00

>  <CAS>
88952-74-3

>  <MW>
250.29

>  <Description>
solid

>  <FSP3>
0.12

>  <clogP>
4.48

>  <TPSA>
26.30

>  <Acceptor>
2

>  <Donor>
0

>  <RotBonds>
1

>  <HAC>
19

>  <Collection>
General

$$$$
F3385-0012
  Mrv2219 10102508112D          

 27 30  0  0  0  0            999 V2000
    2.9854   -2.2922    0.0000 C   0  0  0  0  0  0  0  0  0  0  0  0
    2.2714   -2.7056    0.0000 C   0  0  0  0  0  0  0  0  0  0  0  0
    1.5574   -2.2922    0.0000 C   0  0  0  0  0  0  0  0  0  0  0  0
    2.9854   -1.4655    0.0000 C   0  0  0  0  0  0  0  0  0  0  0  0
    1.5574   -1.4655    0.0000 C   0  0  0  0  0  0  0  0  0  0  0  0
    2.2714   -1.0522    0.0000 O   0  0  0  0  0  0  0  0  0  0  0  0
    0.8434   -2.7056    0.0000 C   0  0  0  0  0  0  0  0  0  0  0  0
    0.8434   -1.0522    0.0000 C   0  0  0  0  0  0  0  0  0  0  0  0
   -2.0292   -1.0397    0.0000 C   0  0  0  0  0  0  0  0  0  0  0  0
    3.6994   -2.7056    0.0000 C   0  0  0  0  0  0  0  0  0  0  0  0
    2.2714   -3.5323    0.0000 O   0  0  0  0  0  0  0  0  0  0  0  0
   -1.3152   -1.4572    0.0000 C   0  0  0  0  0  0  0  0  0  0  0  0
   -2.0250   -0.2171    0.0000 O   0  0  0  0  0  0  0  0  0  0  0  0
   -2.7432   -1.4530    0.0000 C   0  0  0  0  0  0  0  0  0  0  0  0
    0.1253   -1.4655    0.0000 C   0  0  0  0  0  0  0  0  0  0  0  0
   -0.5970   -1.0522    0.0000 O   0  0  0  0  0  0  0  0  0  0  0  0
    0.1253   -2.2922    0.0000 C   0  0  0  0  0  0  0  0  0  0  0  0
    4.4259   -2.2922    0.0000 C   0  0  0  0  0  0  0  0  0  0  0  0
    3.6994   -3.5365    0.0000 C   0  0  0  0  0  0  0  0  0  0  0  0
   -3.4529   -1.0397    0.0000 C   0  0  0  0  0  0  0  0  0  0  0  0
   -2.7390   -2.2714    0.0000 C   0  0  0  0  0  0  0  0  0  0  0  0
    4.4133   -3.9499    0.0000 C   0  0  0  0  0  0  0  0  0  0  0  0
   -4.1669   -1.4530    0.0000 C   0  0  0  0  0  0  0  0  0  0  0  0
   -3.4529   -2.6848    0.0000 C   0  0  0  0  0  0  0  0  0  0  0  0
    5.1398   -2.7056    0.0000 C   0  0  0  0  0  0  0  0  0  0  0  0
    5.1356   -3.5323    0.0000 C   0  0  0  0  0  0  0  0  0  0  0  0
   -4.1669   -2.2714    0.0000 C   0  0  0  0  0  0  0  0  0  0  0  0
  2  1  1  0  0  0  0
  3  2  1  0  0  0  0
  4  1  2  0  0  0  0
  5  6  1  0  0  0  0
  6  4  1  0  0  0  0
  7  3  2  0  0  0  0
  8  5  2  0  0  0  0
  9 12  1  0  0  0  0
 10  1  1  0  0  0  0
 11  2  2  0  0  0  0
 12 16  1  0  0  0  0
 13  9  2  0  0  0  0
 14  9  1  0  0  0  0
 15  8  1  0  0  0  0
 16 15  1  0  0  0  0
 17  7  1  0  0  0  0
 18 10  1  0  0  0  0
 19 10  2  0  0  0  0
 20 14  2  0  0  0  0
 21 14  1  0  0  0  0
 22 19  1  0  0  0  0
 23 20  1  0  0  0  0
 24 21  2  0  0  0  0
 25 18  2  0  0  0  0
 26 22  2  0  0  0  0
 27 24  1  0  0  0  0
  5  3  1  0  0  0  0
 25 26  1  0  0  0  0
 15 17  2  0  0  0  0
 23 27  2  0  0  0  0
M  END
>  <IDNUMBER>
F3385-0012

>  <Chemical_Name>
7-(2-oxo-2-phenylethoxy)-3-phenyl-4H-chromen-4-one

>  <PriceCoeff>
1.00

>  <CAS>
618390-20-8

>  <MW>
356.37

>  <Description>
solid

>  <FSP3>
0.04

>  <clogP>
4.04

>  <TPSA>
52.60

>  <Acceptor>
4

>  <Donor>
0

>  <RotBonds>
5

>  <HAC>
27

>  <Collection>
General

>  <PPDS>
+

$$$$
F3385-0022
  Mrv2219 10102508112D          

 23 25  0  0  0  0            999 V2000
    7.7542   -2.4042    0.0000 C   0  0  0  0  0  0  0  0  0  0  0  0
    7.0375   -2.8167    0.0000 C   0  0  0  0  0  0  0  0  0  0  0  0
    6.3250   -2.4042    0.0000 C   0  0  0  0  0  0  0  0  0  0  0  0
    7.7542   -1.5792    0.0000 C   0  0  0  0  0  0  0  0  0  0  0  0
    6.3250   -1.5792    0.0000 C   0  0  0  0  0  0  0  0  0  0  0  0
    7.0375   -1.1667    0.0000 O   0  0  0  0  0  0  0  0  0  0  0  0
    8.4667   -2.8250    0.0000 C   0  0  0  0  0  0  0  0  0  0  0  0
    5.6125   -2.8167    0.0000 C   0  0  0  0  0  0  0  0  0  0  0  0
    5.6125   -1.1667    0.0000 C   0  0  0  0  0  0  0  0  0  0  0  0
    2.7417   -1.1792    0.0000 C   0  0  0  0  0  0  0  0  0  0  0  0
    7.0375   -3.6417    0.0000 O   0  0  0  0  0  0  0  0  0  0  0  0
    2.7292   -0.3500    0.0000 O   0  0  0  0  0  0  0  0  0  0  0  0
    4.8917   -1.5875    0.0000 C   0  0  0  0  0  0  0  0  0  0  0  0
    9.1875   -2.4042    0.0000 C   0  0  0  0  0  0  0  0  0  0  0  0
    8.4667   -3.6500    0.0000 C   0  0  0  0  0  0  0  0  0  0  0  0
    4.1750   -1.1667    0.0000 O   0  0  0  0  0  0  0  0  0  0  0  0
    3.4625   -1.5875    0.0000 C   0  0  0  0  0  0  0  0  0  0  0  0
    2.0292   -1.5917    0.0000 N   0  0  0  0  0  0  0  0  0  0  0  0
    4.8917   -2.4042    0.0000 C   0  0  0  0  0  0  0  0  0  0  0  0
    9.9000   -3.6500    0.0000 C   0  0  0  0  0  0  0  0  0  0  0  0
    9.1792   -4.0625    0.0000 C   0  0  0  0  0  0  0  0  0  0  0  0
    9.9000   -2.8167    0.0000 C   0  0  0  0  0  0  0  0  0  0  0  0
   10.6250   -4.0667    0.0000 Br  0  0  0  0  0  0  0  0  0  0  0  0
  2  1  1  0  0  0  0
  3  2  1  0  0  0  0
  4  1  2  0  0  0  0
  5  6  1  0  0  0  0
  6  4  1  0  0  0  0
  7  1  1  0  0  0  0
  8  3  2  0  0  0  0
  9  5  2  0  0  0  0
 10 17  1  0  0  0  0
 11  2  2  0  0  0  0
 12 10  2  0  0  0  0
 13  9  1  0  0  0  0
 14  7  1  0  0  0  0
 15  7  2  0  0  0  0
 16 13  1  0  0  0  0
 17 16  1  0  0  0  0
 18 10  1  0  0  0  0
 19  8  1  0  0  0  0
 20 21  2  0  0  0  0
 21 15  1  0  0  0  0
 22 14  2  0  0  0  0
 23 20  1  0  0  0  0
 22 20  1  0  0  0  0
  5  3  1  0  0  0  0
 13 19  2  0  0  0  0
M  END
>  <IDNUMBER>
F3385-0022

>  <Chemical_Name>
2-{[3-(4-bromophenyl)-4-oxo-4H-chromen-7-yl]oxy}acetamide

>  <PriceCoeff>
1.00

>  <CAS>
610764-29-9

>  <MW>
374.19

>  <Description>
solid

>  <FSP3>
0.06

>  <clogP>
2.44

>  <TPSA>
78.62

>  <Acceptor>
4

>  <Donor>
1

>  <RotBonds>
4

>  <HAC>
23

>  <Collection>
General

>  <PPDS>
+

$$$$
F3385-0024
  Mrv2219 10102508112D          

 21 23  0  0  0  0            999 V2000
    2.1309   -1.7181    0.0000 C   0  0  0  0  0  0  0  0  0  0  0  0
    1.4178   -2.1392    0.0000 C   0  0  0  0  0  0  0  0  0  0  0  0
    0.7006   -1.7306    0.0000 C   0  0  0  0  0  0  0  0  0  0  0  0
    2.1309   -0.8882    0.0000 C   0  0  0  0  0  0  0  0  0  0  0  0
    0.6922   -0.8924    0.0000 C   0  0  0  0  0  0  0  0  0  0  0  0
    1.4053   -0.4754    0.0000 O   0  0  0  0  0  0  0  0  0  0  0  0
    2.8439   -2.1267    0.0000 C   0  0  0  0  0  0  0  0  0  0  0  0
   -0.0208   -2.1309    0.0000 C   0  0  0  0  0  0  0  0  0  0  0  0
   -0.0208   -0.4879    0.0000 C   0  0  0  0  0  0  0  0  0  0  0  0
    1.4178   -2.9648    0.0000 O   0  0  0  0  0  0  0  0  0  0  0  0
    2.8522   -2.9565    0.0000 C   0  0  0  0  0  0  0  0  0  0  0  0
    3.5570   -1.7139    0.0000 C   0  0  0  0  0  0  0  0  0  0  0  0
   -0.7256   -0.9007    0.0000 C   0  0  0  0  0  0  0  0  0  0  0  0
   -0.7339   -1.7181    0.0000 C   0  0  0  0  0  0  0  0  0  0  0  0
    4.2826   -2.9440    0.0000 C   0  0  0  0  0  0  0  0  0  0  0  0
    4.2701   -2.1184    0.0000 C   0  0  0  0  0  0  0  0  0  0  0  0
    3.5653   -3.3652    0.0000 C   0  0  0  0  0  0  0  0  0  0  0  0
    4.9956   -3.3568    0.0000 Br  0  0  0  0  0  0  0  0  0  0  0  0
   -1.4386   -0.4879    0.0000 O   0  0  0  0  0  0  0  0  0  0  0  0
   -2.1600   -0.8924    0.0000 C   0  0  0  0  0  0  0  0  0  0  0  0
   -2.8773   -0.4796    0.0000 C   0  0  0  0  0  0  0  0  0  0  0  0
  2  1  1  0  0  0  0
  3  2  1  0  0  0  0
  4  1  2  0  0  0  0
  5  6  1  0  0  0  0
  6  4  1  0  0  0  0
  7  1  1  0  0  0  0
  8  3  2  0  0  0  0
  9  5  2  0  0  0  0
 10  2  2  0  0  0  0
 11  7  2  0  0  0  0
 12  7  1  0  0  0  0
 13  9  1  0  0  0  0
 14  8  1  0  0  0  0
 15 16  1  0  0  0  0
 16 12  2  0  0  0  0
 17 11  1  0  0  0  0
 18 15  1  0  0  0  0
 19 13  1  0  0  0  0
 20 19  1  0  0  0  0
 21 20  1  0  0  0  0
 17 15  2  0  0  0  0
  5  3  1  0  0  0  0
 13 14  2  0  0  0  0
M  END
>  <IDNUMBER>
F3385-0024

>  <Chemical_Name>
3-(4-bromophenyl)-7-ethoxy-4H-chromen-4-one

>  <PriceCoeff>
1.00

>  <CAS>
610754-43-3

>  <MW>
345.19

>  <Description>
solid

>  <FSP3>
0.12

>  <clogP>
4.48

>  <TPSA>
35.53

>  <Acceptor>
3

>  <Donor>
0

>  <RotBonds>
3

>  <HAC>
21

>  <Collection>
General

>  <PPDS>
+

$$$$
F3385-0042
  Mrv2219 10102508112D          

 25 27  0  0  0  0            999 V2000
    5.3987   -1.6451    0.0000 C   0  0  0  0  0  0  0  0  0  0  0  0
    4.6722   -2.0585    0.0000 C   0  0  0  0  0  0  0  0  0  0  0  0
    3.9499   -1.6451    0.0000 C   0  0  0  0  0  0  0  0  0  0  0  0
    5.3987   -0.8142    0.0000 C   0  0  0  0  0  0  0  0  0  0  0  0
    3.9582   -0.8142    0.0000 C   0  0  0  0  0  0  0  0  0  0  0  0
    4.6764   -0.3925    0.0000 O   0  0  0  0  0  0  0  0  0  0  0  0
    1.0940   -0.8184    0.0000 C   0  0  0  0  0  0  0  0  0  0  0  0
    3.2359   -0.4008    0.0000 C   0  0  0  0  0  0  0  0  0  0  0  0
    6.1043   -2.0668    0.0000 C   0  0  0  0  0  0  0  0  0  0  0  0
    3.2359   -2.0585    0.0000 C   0  0  0  0  0  0  0  0  0  0  0  0
    4.6722   -2.8852    0.0000 O   0  0  0  0  0  0  0  0  0  0  0  0
    1.8079   -0.4050    0.0000 O   0  0  0  0  0  0  0  0  0  0  0  0
    2.5219   -0.8142    0.0000 C   0  0  0  0  0  0  0  0  0  0  0  0
    1.0940   -1.6451    0.0000 O   0  0  0  0  0  0  0  0  0  0  0  0
    6.1043   -2.8935    0.0000 C   0  0  0  0  0  0  0  0  0  0  0  0
    6.8183   -1.6534    0.0000 C   0  0  0  0  0  0  0  0  0  0  0  0
    2.5219   -1.6451    0.0000 C   0  0  0  0  0  0  0  0  0  0  0  0
    0.3800   -0.4050    0.0000 O   0  0  0  0  0  0  0  0  0  0  0  0
    7.5323   -2.8977    0.0000 C   0  0  0  0  0  0  0  0  0  0  0  0
    6.8183   -3.3068    0.0000 C   0  0  0  0  0  0  0  0  0  0  0  0
    7.5323   -2.0668    0.0000 C   0  0  0  0  0  0  0  0  0  0  0  0
    8.2463   -3.3110    0.0000 O   0  0  0  0  0  0  0  0  0  0  0  0
   -0.3382   -0.8184    0.0000 C   0  0  0  0  0  0  0  0  0  0  0  0
    8.9685   -2.8977    0.0000 C   0  0  0  0  0  0  0  0  0  0  0  0
   -1.0522   -0.4050    0.0000 C   0  0  0  0  0  0  0  0  0  0  0  0
  2  1  1  0  0  0  0
  3  2  1  0  0  0  0
  4  1  2  0  0  0  0
  5  6  1  0  0  0  0
  6  4  1  0  0  0  0
  7 12  1  0  0  0  0
  8  5  2  0  0  0  0
  9  1  1  0  0  0  0
 10  3  2  0  0  0  0
 11  2  2  0  0  0  0
 12 13  1  0  0  0  0
 13  8  1  0  0  0  0
 14  7  2  0  0  0  0
 15  9  2  0  0  0  0
 16  9  1  0  0  0  0
 17 10  1  0  0  0  0
 18  7  1  0  0  0  0
 19 21  1  0  0  0  0
 20 15  1  0  0  0  0
 21 16  2  0  0  0  0
 22 19  1  0  0  0  0
 23 18  1  0  0  0  0
 24 22  1  0  0  0  0
 25 23  1  0  0  0  0
 19 20  2  0  0  0  0
  3  5  1  0  0  0  0
 17 13  2  0  0  0  0
M  END
>  <IDNUMBER>
F3385-0042

>  <Chemical_Name>
ethyl 3-(4-methoxyphenyl)-4-oxo-4H-chromen-7-yl carbonate

>  <PriceCoeff>
1.00

>  <CAS>
637750-99-3

>  <MW>
340.33

>  <Description>
solid

>  <FSP3>
0.16

>  <clogP>
2.76

>  <TPSA>
71.06

>  <Acceptor>
6

>  <Donor>
0

>  <RotBonds>
6

>  <HAC>
25

>  <Collection>
General

>  <PPDS>
+

$$$$
F3385-0075
  Mrv2219 10102508112D          

 33 38  0  0  0  0            999 V2000
    6.0792   -1.4542    0.0000 C   0  0  0  0  0  0  0  0  0  0  0  0
    5.3542   -1.8667    0.0000 C   0  0  0  0  0  0  0  0  0  0  0  0
    4.6375   -1.4542    0.0000 C   0  0  0  0  0  0  0  0  0  0  0  0
    6.0792   -0.6250    0.0000 C   0  0  0  0  0  0  0  0  0  0  0  0
    4.6417   -0.6250    0.0000 C   0  0  0  0  0  0  0  0  0  0  0  0
    6.7875   -1.8750    0.0000 C   0  0  0  0  0  0  0  0  0  0  0  0
    5.3542   -0.2042    0.0000 O   0  0  0  0  0  0  0  0  0  0  0  0
    1.7792   -0.6292    0.0000 C   0  0  0  0  0  0  0  0  0  0  0  0
    1.0667   -0.2167    0.0000 C   0  0  0  0  0  0  0  0  0  0  0  0
   -0.3583   -0.2167    0.0000 C   0  0  0  0  0  0  0  0  0  0  0  0
    8.2125   -1.8750    0.0000 C   0  0  0  0  0  0  0  0  0  0  0  0
    7.5000   -1.4625    0.0000 C   0  0  0  0  0  0  0  0  0  0  0  0
    3.9250   -0.2125    0.0000 C   0  0  0  0  0  0  0  0  0  0  0  0
    2.5000   -0.2167    0.0000 O   0  0  0  0  0  0  0  0  0  0  0  0
    3.9250   -1.8667    0.0000 C   0  0  0  0  0  0  0  0  0  0  0  0
    0.3625   -0.6292    0.0000 C   0  0  0  0  0  0  0  0  0  0  0  0
   -0.3500    0.6125    0.0000 C   0  0  0  0  0  0  0  0  0  0  0  0
    8.2042   -2.7000    0.0000 C   0  0  0  0  0  0  0  0  0  0  0  0
   -1.1458   -0.4750    0.0000 O   0  0  0  0  0  0  0  0  0  0  0  0
    3.2125   -0.6250    0.0000 C   0  0  0  0  0  0  0  0  0  0  0  0
    5.3542   -2.6917    0.0000 O   0  0  0  0  0  0  0  0  0  0  0  0
   -1.1458    0.8750    0.0000 O   0  0  0  0  0  0  0  0  0  0  0  0
   -1.6333    0.2000    0.0000 C   0  0  0  0  0  0  0  0  0  0  0  0
    8.9292   -1.4542    0.0000 O   0  0  0  0  0  0  0  0  0  0  0  0
    1.7792   -1.4542    0.0000 O   0  0  0  0  0  0  0  0  0  0  0  0
    6.7792   -2.7000    0.0000 C   0  0  0  0  0  0  0  0  0  0  0  0
    8.9167   -3.1167    0.0000 O   0  0  0  0  0  0  0  0  0  0  0  0
    1.0750    0.6125    0.0000 C   0  0  0  0  0  0  0  0  0  0  0  0
    7.4917   -3.1125    0.0000 C   0  0  0  0  0  0  0  0  0  0  0  0
    0.3542    1.0208    0.0000 C   0  0  0  0  0  0  0  0  0  0  0  0
    3.2125   -1.4542    0.0000 C   0  0  0  0  0  0  0  0  0  0  0  0
    9.6417   -1.8792    0.0000 C   0  0  0  0  0  0  0  0  0  0  0  0
    9.6417   -2.7042    0.0000 C   0  0  0  0  0  0  0  0  0  0  0  0
  2  1  1  0  0  0  0
  3  2  1  0  0  0  0
  4  1  2  0  0  0  0
  5  7  1  0  0  0  0
  6  1  1  0  0  0  0
  7  4  1  0  0  0  0
  8 14  1  0  0  0  0
  9  8  1  0  0  0  0
 10 16  2  0  0  0  0
 11 12  2  0  0  0  0
 12  6  1  0  0  0  0
 13  5  2  0  0  0  0
 14 20  1  0  0  0  0
 15  3  2  0  0  0  0
 16  9  1  0  0  0  0
 17 30  2  0  0  0  0
 18 29  2  0  0  0  0
 19 10  1  0  0  0  0
 20 13  1  0  0  0  0
 21  2  2  0  0  0  0
 22 17  1  0  0  0  0
 23 19  1  0  0  0  0
 24 11  1  0  0  0  0
 25  8  2  0  0  0  0
 26  6  2  0  0  0  0
 27 18  1  0  0  0  0
 28  9  2  0  0  0  0
 29 26  1  0  0  0  0
 30 28  1  0  0  0  0
 31 15  1  0  0  0  0
 32 24  1  0  0  0  0
 33 27  1  0  0  0  0
  3  5  1  0  0  0  0
 18 11  1  0  0  0  0
 31 20  2  0  0  0  0
 32 33  1  0  0  0  0
 17 10  1  0  0  0  0
 23 22  1  0  0  0  0
M  END
>  <IDNUMBER>
F3385-0075

>  <Chemical_Name>
3-(2,3-dihydro-1,4-benzodioxin-6-yl)-4-oxo-4H-chromen-7-yl 2H-1,3-benzodioxole-5-carboxylate

>  <PriceCoeff>
1.00

>  <CAS>
637752-52-4

>  <MW>
444.39

>  <Description>
solid

>  <FSP3>
0.12

>  <clogP>
4.76

>  <TPSA>
89.52

>  <Acceptor>
8

>  <Donor>
0

>  <RotBonds>
4

>  <HAC>
33

>  <Collection>
General

>  <PPDS>
+

$$$$
F3385-0082
  Mrv2219 10102508112D          

 33 37  0  0  0  0            999 V2000
    1.3625   -3.1917    0.0000 C   0  0  0  0  0  0  0  0  0  0  0  0
    0.6417   -3.6125    0.0000 C   0  0  0  0  0  0  0  0  0  0  0  0
   -0.0708   -3.2000    0.0000 C   0  0  0  0  0  0  0  0  0  0  0  0
    1.3542   -2.3667    0.0000 C   0  0  0  0  0  0  0  0  0  0  0  0
   -0.0708   -2.3750    0.0000 C   0  0  0  0  0  0  0  0  0  0  0  0
    2.0792   -3.6042    0.0000 C   0  0  0  0  0  0  0  0  0  0  0  0
    0.6417   -1.9542    0.0000 O   0  0  0  0  0  0  0  0  0  0  0  0
   -2.9333   -2.3750    0.0000 C   0  0  0  0  0  0  0  0  0  0  0  0
   -3.6458   -1.9542    0.0000 C   0  0  0  0  0  0  0  0  0  0  0  0
   -5.0708   -1.9500    0.0000 C   0  0  0  0  0  0  0  0  0  0  0  0
   -0.7875   -1.9625    0.0000 C   0  0  0  0  0  0  0  0  0  0  0  0
    2.7875   -3.1917    0.0000 C   0  0  0  0  0  0  0  0  0  0  0  0
   -2.2125   -1.9667    0.0000 O   0  0  0  0  0  0  0  0  0  0  0  0
   -0.7875   -3.6167    0.0000 C   0  0  0  0  0  0  0  0  0  0  0  0
   -4.3583   -2.3625    0.0000 C   0  0  0  0  0  0  0  0  0  0  0  0
    3.5000   -3.6000    0.0000 C   0  0  0  0  0  0  0  0  0  0  0  0
   -5.0625   -1.1167    0.0000 C   0  0  0  0  0  0  0  0  0  0  0  0
   -5.8583   -2.2042    0.0000 O   0  0  0  0  0  0  0  0  0  0  0  0
   -1.5000   -2.3750    0.0000 C   0  0  0  0  0  0  0  0  0  0  0  0
    0.6500   -4.4375    0.0000 O   0  0  0  0  0  0  0  0  0  0  0  0
   -5.8500   -0.8625    0.0000 O   0  0  0  0  0  0  0  0  0  0  0  0
   -6.3375   -1.5292    0.0000 C   0  0  0  0  0  0  0  0  0  0  0  0
    3.5042   -4.4292    0.0000 C   0  0  0  0  0  0  0  0  0  0  0  0
   -2.9333   -3.2000    0.0000 O   0  0  0  0  0  0  0  0  0  0  0  0
    2.0667   -4.4292    0.0000 C   0  0  0  0  0  0  0  0  0  0  0  0
   -3.6375   -1.1292    0.0000 C   0  0  0  0  0  0  0  0  0  0  0  0
   -4.3458   -0.7125    0.0000 C   0  0  0  0  0  0  0  0  0  0  0  0
    2.7917   -4.8417    0.0000 C   0  0  0  0  0  0  0  0  0  0  0  0
   -1.5000   -3.2042    0.0000 C   0  0  0  0  0  0  0  0  0  0  0  0
    4.2125   -3.1792    0.0000 O   0  0  0  0  0  0  0  0  0  0  0  0
    4.2167   -4.8375    0.0000 O   0  0  0  0  0  0  0  0  0  0  0  0
    4.2042   -2.3542    0.0000 C   0  0  0  0  0  0  0  0  0  0  0  0
    4.9292   -4.4167    0.0000 C   0  0  0  0  0  0  0  0  0  0  0  0
  2  1  1  0  0  0  0
  3  2  1  0  0  0  0
  4  1  2  0  0  0  0
  5  7  1  0  0  0  0
  6  1  1  0  0  0  0
  7  4  1  0  0  0  0
  8 13  1  0  0  0  0
  9  8  1  0  0  0  0
 10 15  2  0  0  0  0
 11  5  2  0  0  0  0
 12  6  1  0  0  0  0
 13 19  1  0  0  0  0
 14  3  2  0  0  0  0
 15  9  1  0  0  0  0
 16 12  2  0  0  0  0
 17 27  2  0  0  0  0
 18 10  1  0  0  0  0
 19 11  1  0  0  0  0
 20  2  2  0  0  0  0
 21 17  1  0  0  0  0
 22 18  1  0  0  0  0
 23 28  2  0  0  0  0
 24  8  2  0  0  0  0
 25  6  2  0  0  0  0
 26  9  2  0  0  0  0
 27 26  1  0  0  0  0
 28 25  1  0  0  0  0
 29 14  1  0  0  0  0
 30 16  1  0  0  0  0
 31 23  1  0  0  0  0
 32 30  1  0  0  0  0
 33 31  1  0  0  0  0
  3  5  1  0  0  0  0
 16 23  1  0  0  0  0
 29 19  2  0  0  0  0
 17 10  1  0  0  0  0
 22 21  1  0  0  0  0
M  END
>  <IDNUMBER>
F3385-0082

>  <Chemical_Name>
3-(3,4-dimethoxyphenyl)-4-oxo-4H-chromen-7-yl 2H-1,3-benzodioxole-5-carboxylate

>  <PriceCoeff>
1.00

>  <CAS>
637752-69-3

>  <MW>
446.41

>  <Description>
solid

>  <FSP3>
0.12

>  <clogP>
4.50

>  <TPSA>
89.52

>  <Acceptor>
8

>  <Donor>
0

>  <RotBonds>
6

>  <HAC>
33

>  <Collection>
General

$$$$
F3385-0089
  Mrv2219 10102508112D          

 31 35  0  0  0  0            999 V2000
    2.4542    0.0208    0.0000 C   0  0  0  0  0  0  0  0  0  0  0  0
    1.7417   -0.3917    0.0000 C   0  0  0  0  0  0  0  0  0  0  0  0
    1.0292    0.0208    0.0000 C   0  0  0  0  0  0  0  0  0  0  0  0
    2.4542    0.8500    0.0000 C   0  0  0  0  0  0  0  0  0  0  0  0
    1.0250    0.8458    0.0000 C   0  0  0  0  0  0  0  0  0  0  0  0
    1.7375    1.2625    0.0000 O   0  0  0  0  0  0  0  0  0  0  0  0
   -1.8333    0.8458    0.0000 C   0  0  0  0  0  0  0  0  0  0  0  0
   -2.5458    1.2583    0.0000 C   0  0  0  0  0  0  0  0  0  0  0  0
   -3.9708    1.2708    0.0000 C   0  0  0  0  0  0  0  0  0  0  0  0
    0.3042    1.2583    0.0000 C   0  0  0  0  0  0  0  0  0  0  0  0
    3.1750   -0.3917    0.0000 C   0  0  0  0  0  0  0  0  0  0  0  0
   -1.1208    1.2500    0.0000 O   0  0  0  0  0  0  0  0  0  0  0  0
    0.3042   -0.4000    0.0000 C   0  0  0  0  0  0  0  0  0  0  0  0
   -3.2583    0.8583    0.0000 C   0  0  0  0  0  0  0  0  0  0  0  0
   -3.9708    2.0958    0.0000 C   0  0  0  0  0  0  0  0  0  0  0  0
   -4.7583    1.0125    0.0000 O   0  0  0  0  0  0  0  0  0  0  0  0
   -0.4083    0.8375    0.0000 C   0  0  0  0  0  0  0  0  0  0  0  0
    1.7417   -1.2167    0.0000 O   0  0  0  0  0  0  0  0  0  0  0  0
   -4.7583    2.3500    0.0000 O   0  0  0  0  0  0  0  0  0  0  0  0
   -5.2458    1.6833    0.0000 C   0  0  0  0  0  0  0  0  0  0  0  0
   -1.8458    0.0208    0.0000 O   0  0  0  0  0  0  0  0  0  0  0  0
   -2.5458    2.0875    0.0000 C   0  0  0  0  0  0  0  0  0  0  0  0
   -3.2500    2.5083    0.0000 C   0  0  0  0  0  0  0  0  0  0  0  0
    3.1667   -1.2167    0.0000 C   0  0  0  0  0  0  0  0  0  0  0  0
    3.8792    0.0250    0.0000 C   0  0  0  0  0  0  0  0  0  0  0  0
   -0.4083    0.0125    0.0000 C   0  0  0  0  0  0  0  0  0  0  0  0
    4.6000   -1.2125    0.0000 C   0  0  0  0  0  0  0  0  0  0  0  0
    4.5917   -0.3792    0.0000 C   0  0  0  0  0  0  0  0  0  0  0  0
    3.8875   -1.6250    0.0000 C   0  0  0  0  0  0  0  0  0  0  0  0
    5.3125   -1.6167    0.0000 O   0  0  0  0  0  0  0  0  0  0  0  0
    6.0250   -1.2042    0.0000 C   0  0  0  0  0  0  0  0  0  0  0  0
  2  1  1  0  0  0  0
  3  2  1  0  0  0  0
  4  1  2  0  0  0  0
  5  6  1  0  0  0  0
  6  4  1  0  0  0  0
  7 12  1  0  0  0  0
  8  7  1  0  0  0  0
  9 14  2  0  0  0  0
 10  5  2  0  0  0  0
 11  1  1  0  0  0  0
 12 17  1  0  0  0  0
 13  3  2  0  0  0  0
 14  8  1  0  0  0  0
 15 23  2  0  0  0  0
 16  9  1  0  0  0  0
 17 10  1  0  0  0  0
 18  2  2  0  0  0  0
 19 15  1  0  0  0  0
 20 16  1  0  0  0  0
 21  7  2  0  0  0  0
 22  8  2  0  0  0  0
 23 22  1  0  0  0  0
 24 11  2  0  0  0  0
 25 11  1  0  0  0  0
 26 13  1  0  0  0  0
 27 28  1  0  0  0  0
 28 25  2  0  0  0  0
 29 24  1  0  0  0  0
 30 27  1  0  0  0  0
 31 30  1  0  0  0  0
 27 29  2  0  0  0  0
  3  5  1  0  0  0  0
 26 17  2  0  0  0  0
 15  9  1  0  0  0  0
 20 19  1  0  0  0  0
M  END
>  <IDNUMBER>
F3385-0089

>  <Chemical_Name>
3-(4-methoxyphenyl)-4-oxo-4H-chromen-7-yl 2H-1,3-benzodioxole-5-carboxylate

>  <PriceCoeff>
1.00

>  <CAS>
637752-87-5

>  <MW>
416.38

>  <Description>
solid

>  <FSP3>
0.08

>  <clogP>
4.77

>  <TPSA>
80.29

>  <Acceptor>
7

>  <Donor>
0

>  <RotBonds>
5

>  <HAC>
31

>  <Collection>
General

$$$$
F3385-0092
  Mrv2219 10102508112D          

 31 35  0  0  0  0            999 V2000
    2.4542    0.0208    0.0000 C   0  0  0  0  0  0  0  0  0  0  0  0
    1.7417   -0.3917    0.0000 C   0  0  0  0  0  0  0  0  0  0  0  0
    1.0292    0.0208    0.0000 C   0  0  0  0  0  0  0  0  0  0  0  0
    2.4542    0.8500    0.0000 C   0  0  0  0  0  0  0  0  0  0  0  0
    1.0250    0.8458    0.0000 C   0  0  0  0  0  0  0  0  0  0  0  0
    1.7375    1.2625    0.0000 O   0  0  0  0  0  0  0  0  0  0  0  0
   -1.8333    0.8458    0.0000 C   0  0  0  0  0  0  0  0  0  0  0  0
    3.1750   -0.3917    0.0000 C   0  0  0  0  0  0  0  0  0  0  0  0
   -2.5458    1.2583    0.0000 C   0  0  0  0  0  0  0  0  0  0  0  0
   -3.9708    1.2708    0.0000 C   0  0  0  0  0  0  0  0  0  0  0  0
    0.3042    1.2583    0.0000 C   0  0  0  0  0  0  0  0  0  0  0  0
   -1.1208    1.2500    0.0000 O   0  0  0  0  0  0  0  0  0  0  0  0
    0.3042   -0.4000    0.0000 C   0  0  0  0  0  0  0  0  0  0  0  0
   -3.2583    0.8583    0.0000 C   0  0  0  0  0  0  0  0  0  0  0  0
   -3.9708    2.0958    0.0000 C   0  0  0  0  0  0  0  0  0  0  0  0
   -4.7583    1.0125    0.0000 O   0  0  0  0  0  0  0  0  0  0  0  0
   -0.4083    0.8375    0.0000 C   0  0  0  0  0  0  0  0  0  0  0  0
    1.7417   -1.2167    0.0000 O   0  0  0  0  0  0  0  0  0  0  0  0
   -4.7583    2.3500    0.0000 O   0  0  0  0  0  0  0  0  0  0  0  0
   -5.2375    1.6833    0.0000 C   0  0  0  0  0  0  0  0  0  0  0  0
   -1.8458    0.0208    0.0000 O   0  0  0  0  0  0  0  0  0  0  0  0
    3.1667   -1.2167    0.0000 C   0  0  0  0  0  0  0  0  0  0  0  0
   -2.5458    2.0875    0.0000 C   0  0  0  0  0  0  0  0  0  0  0  0
   -3.2500    2.5083    0.0000 C   0  0  0  0  0  0  0  0  0  0  0  0
   -0.4083    0.0125    0.0000 C   0  0  0  0  0  0  0  0  0  0  0  0
    2.4542   -1.6250    0.0000 O   0  0  0  0  0  0  0  0  0  0  0  0
    3.8792    0.0250    0.0000 C   0  0  0  0  0  0  0  0  0  0  0  0
    3.8875   -1.6250    0.0000 C   0  0  0  0  0  0  0  0  0  0  0  0
    2.4542   -2.4500    0.0000 C   0  0  0  0  0  0  0  0  0  0  0  0
    4.5917   -0.3792    0.0000 C   0  0  0  0  0  0  0  0  0  0  0  0
    4.6000   -1.2125    0.0000 C   0  0  0  0  0  0  0  0  0  0  0  0
  2  1  1  0  0  0  0
  3  2  1  0  0  0  0
  4  1  2  0  0  0  0
  5  6  1  0  0  0  0
  6  4  1  0  0  0  0
  7 12  1  0  0  0  0
  8  1  1  0  0  0  0
  9  7  1  0  0  0  0
 10 14  2  0  0  0  0
 11  5  2  0  0  0  0
 12 17  1  0  0  0  0
 13  3  2  0  0  0  0
 14  9  1  0  0  0  0
 15 24  2  0  0  0  0
 16 10  1  0  0  0  0
 17 11  1  0  0  0  0
 18  2  2  0  0  0  0
 19 15  1  0  0  0  0
 20 16  1  0  0  0  0
 21  7  2  0  0  0  0
 22  8  2  0  0  0  0
 23  9  2  0  0  0  0
 24 23  1  0  0  0  0
 25 13  1  0  0  0  0
 26 22  1  0  0  0  0
 27  8  1  0  0  0  0
 28 22  1  0  0  0  0
 29 26  1  0  0  0  0
 30 27  2  0  0  0  0
 31 30  1  0  0  0  0
  3  5  1  0  0  0  0
 31 28  2  0  0  0  0
 25 17  2  0  0  0  0
 15 10  1  0  0  0  0
 20 19  1  0  0  0  0
M  END
>  <IDNUMBER>
F3385-0092

>  <Chemical_Name>
3-(2-methoxyphenyl)-4-oxo-4H-chromen-7-yl 2H-1,3-benzodioxole-5-carboxylate

>  <PriceCoeff>
1.00

>  <CAS>
637752-99-9

>  <MW>
416.38

>  <Description>
solid

>  <FSP3>
0.08

>  <clogP>
4.21

>  <TPSA>
80.29

>  <Acceptor>
7

>  <Donor>
0

>  <RotBonds>
5

>  <HAC>
31

>  <Collection>
General

>  <PPDS>
+

$$$$
F3385-0097
  Mrv2219 10102508112D          

 26 29  0  0  0  0            999 V2000
    2.5792   -0.6375    0.0000 C   0  0  0  0  0  0  0  0  0  0  0  0
    1.1500    0.1875    0.0000 C   0  0  0  0  0  0  0  0  0  0  0  0
    1.1500   -0.6375    0.0000 C   0  0  0  0  0  0  0  0  0  0  0  0
    1.8625   -1.0500    0.0000 C   0  0  0  0  0  0  0  0  0  0  0  0
    0.4375    0.6000    0.0000 C   0  0  0  0  0  0  0  0  0  0  0  0
    1.8625    0.6000    0.0000 O   0  0  0  0  0  0  0  0  0  0  0  0
    2.5792    0.1875    0.0000 C   0  0  0  0  0  0  0  0  0  0  0  0
    0.4375    1.4250    0.0000 C   0  0  0  0  0  0  0  0  0  0  0  0
    0.4375   -1.0500    0.0000 C   0  0  0  0  0  0  0  0  0  0  0  0
    3.2917   -1.0500    0.0000 C   0  0  0  0  0  0  0  0  0  0  0  0
    1.1500    1.8375    0.0000 N   0  0  0  0  0  0  0  0  0  0  0  0
   -0.2833    0.1875    0.0000 C   0  0  0  0  0  0  0  0  0  0  0  0
    1.8625   -1.8750    0.0000 O   0  0  0  0  0  0  0  0  0  0  0  0
   -0.2833   -0.6375    0.0000 C   0  0  0  0  0  0  0  0  0  0  0  0
    4.0042   -0.6375    0.0000 C   0  0  0  0  0  0  0  0  0  0  0  0
    3.2917   -1.8792    0.0000 C   0  0  0  0  0  0  0  0  0  0  0  0
    4.7250   -1.8792    0.0000 C   0  0  0  0  0  0  0  0  0  0  0  0
    4.0042   -2.2917    0.0000 C   0  0  0  0  0  0  0  0  0  0  0  0
    4.7250   -1.0500    0.0000 C   0  0  0  0  0  0  0  0  0  0  0  0
   -1.0000    0.6000    0.0000 O   0  0  0  0  0  0  0  0  0  0  0  0
    5.4375   -2.2917    0.0000 O   0  0  0  0  0  0  0  0  0  0  0  0
    1.1500    2.6708    0.0000 C   0  0  0  0  0  0  0  0  0  0  0  0
    1.9292    1.5833    0.0000 C   0  0  0  0  0  0  0  0  0  0  0  0
    6.1542   -1.8792    0.0000 C   0  0  0  0  0  0  0  0  0  0  0  0
    1.9292    2.9208    0.0000 C   0  0  0  0  0  0  0  0  0  0  0  0
    2.4167    2.2583    0.0000 C   0  0  0  0  0  0  0  0  0  0  0  0
  2  6  1  0  0  0  0
  3  4  1  0  0  0  0
  4  1  1  0  0  0  0
  5  2  2  0  0  0  0
  6  7  1  0  0  0  0
  7  1  2  0  0  0  0
  8  5  1  0  0  0  0
  9  3  2  0  0  0  0
 10  1  1  0  0  0  0
 11  8  1  0  0  0  0
 12  5  1  0  0  0  0
 13  4  2  0  0  0  0
 14  9  1  0  0  0  0
 15 10  1  0  0  0  0
 16 10  2  0  0  0  0
 17 18  2  0  0  0  0
 18 16  1  0  0  0  0
 19 15  2  0  0  0  0
 20 12  1  0  0  0  0
 21 17  1  0  0  0  0
 22 11  1  0  0  0  0
 23 11  1  0  0  0  0
 24 21  1  0  0  0  0
 25 22  1  0  0  0  0
 26 23  1  0  0  0  0
  3  2  1  0  0  0  0
 19 17  1  0  0  0  0
 14 12  2  0  0  0  0
 25 26  1  0  0  0  0
M  END
>  <IDNUMBER>
F3385-0097

>  <Chemical_Name>
7-hydroxy-3-(4-methoxyphenyl)-8-[(pyrrolidin-1-yl)methyl]-4H-chromen-4-one

>  <PriceCoeff>
1.00

>  <CAS>
637753-18-5

>  <MW>
351.40

>  <Description>
solid

>  <FSP3>
0.29

>  <clogP>
3.06

>  <TPSA>
59.00

>  <Acceptor>
4

>  <Donor>
2

>  <RotBonds>
4

>  <HAC>
26

>  <Collection>
General

>  <PPDS>
+

$$$$
F3385-0117
  Mrv2219 10102508112D          

 28 31  0  0  0  0            999 V2000
    0.7042   -3.2917    0.0000 C   0  0  0  0  0  0  0  0  0  0  0  0
   -0.7250   -2.4667    0.0000 C   0  0  0  0  0  0  0  0  0  0  0  0
   -0.7250   -3.2917    0.0000 C   0  0  0  0  0  0  0  0  0  0  0  0
   -0.0125   -3.7042    0.0000 C   0  0  0  0  0  0  0  0  0  0  0  0
   -1.4375   -2.0542    0.0000 C   0  0  0  0  0  0  0  0  0  0  0  0
   -0.0125   -2.0542    0.0000 O   0  0  0  0  0  0  0  0  0  0  0  0
    0.7042   -2.4667    0.0000 C   0  0  0  0  0  0  0  0  0  0  0  0
   -1.4375   -1.2292    0.0000 C   0  0  0  0  0  0  0  0  0  0  0  0
   -1.4375   -3.7042    0.0000 C   0  0  0  0  0  0  0  0  0  0  0  0
    1.4167   -3.7042    0.0000 C   0  0  0  0  0  0  0  0  0  0  0  0
   -0.7250   -0.8167    0.0000 N   0  0  0  0  0  0  0  0  0  0  0  0
   -2.1583   -2.4667    0.0000 C   0  0  0  0  0  0  0  0  0  0  0  0
   -0.0125   -4.5292    0.0000 O   0  0  0  0  0  0  0  0  0  0  0  0
   -2.1583   -3.2917    0.0000 C   0  0  0  0  0  0  0  0  0  0  0  0
    2.1292   -3.2917    0.0000 C   0  0  0  0  0  0  0  0  0  0  0  0
    1.4167   -4.5292    0.0000 C   0  0  0  0  0  0  0  0  0  0  0  0
    2.8500   -4.5292    0.0000 C   0  0  0  0  0  0  0  0  0  0  0  0
    2.1292   -4.9417    0.0000 C   0  0  0  0  0  0  0  0  0  0  0  0
    2.8500   -3.7042    0.0000 C   0  0  0  0  0  0  0  0  0  0  0  0
   -2.8750   -2.0542    0.0000 O   0  0  0  0  0  0  0  0  0  0  0  0
    3.5750   -4.9500    0.0000 O   0  0  0  0  0  0  0  0  0  0  0  0
   -0.0833   -1.3292    0.0000 C   0  0  0  0  0  0  0  0  0  0  0  0
   -0.7250    0.0125    0.0000 C   0  0  0  0  0  0  0  0  0  0  0  0
    3.5792   -5.7792    0.0000 C   0  0  0  0  0  0  0  0  0  0  0  0
    0.7167   -1.1417    0.0000 C   0  0  0  0  0  0  0  0  0  0  0  0
   -0.0833    0.5250    0.0000 C   0  0  0  0  0  0  0  0  0  0  0  0
    1.0750   -0.4042    0.0000 C   0  0  0  0  0  0  0  0  0  0  0  0
    0.7167    0.3458    0.0000 C   0  0  0  0  0  0  0  0  0  0  0  0
  2  6  1  0  0  0  0
  3  4  1  0  0  0  0
  4  1  1  0  0  0  0
  5  2  2  0  0  0  0
  6  7  1  0  0  0  0
  7  1  2  0  0  0  0
  8  5  1  0  0  0  0
  9  3  2  0  0  0  0
 10  1  1  0  0  0  0
 11  8  1  0  0  0  0
 12  5  1  0  0  0  0
 13  4  2  0  0  0  0
 14  9  1  0  0  0  0
 15 10  1  0  0  0  0
 16 10  2  0  0  0  0
 17 18  2  0  0  0  0
 18 16  1  0  0  0  0
 19 15  2  0  0  0  0
 20 12  1  0  0  0  0
 21 17  1  0  0  0  0
 22 11  1  0  0  0  0
 23 11  1  0  0  0  0
 24 21  1  0  0  0  0
 25 22  1  0  0  0  0
 26 23  1  0  0  0  0
 27 25  1  0  0  0  0
 28 26  1  0  0  0  0
  2  3  1  0  0  0  0
 17 19  1  0  0  0  0
 12 14  2  0  0  0  0
 27 28  1  0  0  0  0
M  END
>  <IDNUMBER>
F3385-0117

>  <Chemical_Name>
8-[(azepan-1-yl)methyl]-7-hydroxy-3-(4-methoxyphenyl)-4H-chromen-4-one

>  <PriceCoeff>
1.00

>  <CAS>
637753-60-7

>  <MW>
379.45

>  <Description>
solid

>  <FSP3>
0.35

>  <clogP>
4.18

>  <TPSA>
59.00

>  <Acceptor>
4

>  <Donor>
2

>  <RotBonds>
4

>  <HAC>
28

>  <Collection>
General

>  <PPDS>
+

$$$$
F3385-0122
  Mrv2219 10102508112D          

 27 30  0  0  0  0            999 V2000
   11.2000   -0.8125    0.0000 C   0  0  0  0  0  0  0  0  0  0  0  0
    9.7625    0.0208    0.0000 C   0  0  0  0  0  0  0  0  0  0  0  0
    9.7542   -0.8125    0.0000 C   0  0  0  0  0  0  0  0  0  0  0  0
   10.4750   -1.2250    0.0000 C   0  0  0  0  0  0  0  0  0  0  0  0
    9.0417    0.4333    0.0000 C   0  0  0  0  0  0  0  0  0  0  0  0
   10.4792    0.4458    0.0000 O   0  0  0  0  0  0  0  0  0  0  0  0
   11.2000    0.0208    0.0000 C   0  0  0  0  0  0  0  0  0  0  0  0
    9.0417    1.2583    0.0000 C   0  0  0  0  0  0  0  0  0  0  0  0
    9.0417   -1.2167    0.0000 C   0  0  0  0  0  0  0  0  0  0  0  0
   11.9042   -1.2250    0.0000 C   0  0  0  0  0  0  0  0  0  0  0  0
    8.3292    1.6708    0.0000 N   0  0  0  0  0  0  0  0  0  0  0  0
    8.3292    0.0208    0.0000 C   0  0  0  0  0  0  0  0  0  0  0  0
   10.4750   -2.0500    0.0000 O   0  0  0  0  0  0  0  0  0  0  0  0
    8.3292   -0.8042    0.0000 C   0  0  0  0  0  0  0  0  0  0  0  0
   11.9042   -2.0542    0.0000 C   0  0  0  0  0  0  0  0  0  0  0  0
   12.6167   -0.8167    0.0000 C   0  0  0  0  0  0  0  0  0  0  0  0
   13.3292   -2.0542    0.0000 C   0  0  0  0  0  0  0  0  0  0  0  0
   13.3292   -1.2292    0.0000 C   0  0  0  0  0  0  0  0  0  0  0  0
   12.6167   -2.4667    0.0000 C   0  0  0  0  0  0  0  0  0  0  0  0
    7.6167    0.4333    0.0000 O   0  0  0  0  0  0  0  0  0  0  0  0
   14.0417   -2.4667    0.0000 O   0  0  0  0  0  0  0  0  0  0  0  0
    7.6167    1.2583    0.0000 C   0  0  0  0  0  0  0  0  0  0  0  0
    8.3292    2.4958    0.0000 C   0  0  0  0  0  0  0  0  0  0  0  0
   14.7625   -2.0542    0.0000 C   0  0  0  0  0  0  0  0  0  0  0  0
    6.9000    1.6708    0.0000 C   0  0  0  0  0  0  0  0  0  0  0  0
    7.6167    2.9083    0.0000 C   0  0  0  0  0  0  0  0  0  0  0  0
    6.9000    2.4958    0.0000 C   0  0  0  0  0  0  0  0  0  0  0  0
  2  6  1  0  0  0  0
  3  4  1  0  0  0  0
  4  1  1  0  0  0  0
  5  2  2  0  0  0  0
  6  7  1  0  0  0  0
  7  1  2  0  0  0  0
  8  5  1  0  0  0  0
  9  3  2  0  0  0  0
 10  1  1  0  0  0  0
 11  8  1  0  0  0  0
 12  5  1  0  0  0  0
 13  4  2  0  0  0  0
 14  9  1  0  0  0  0
 15 10  2  0  0  0  0
 16 10  1  0  0  0  0
 17 18  1  0  0  0  0
 18 16  2  0  0  0  0
 19 15  1  0  0  0  0
 20 12  1  0  0  0  0
 21 17  1  0  0  0  0
 22 11  1  0  0  0  0
 23 11  1  0  0  0  0
 24 21  1  0  0  0  0
 25 22  1  0  0  0  0
 26 23  1  0  0  0  0
 27 26  1  0  0  0  0
  2  3  1  0  0  0  0
 19 17  2  0  0  0  0
 12 14  2  0  0  0  0
 25 27  1  0  0  0  0
M  END
>  <IDNUMBER>
F3385-0122

>  <Chemical_Name>
7-hydroxy-3-(4-methoxyphenyl)-8-[(piperidin-1-yl)methyl]-4H-chromen-4-one

>  <PriceCoeff>
1.00

>  <CAS>
637753-70-9

>  <MW>
365.42

>  <Description>
solid

>  <FSP3>
0.32

>  <clogP>
3.62

>  <TPSA>
59.00

>  <Acceptor>
4

>  <Donor>
2

>  <RotBonds>
4

>  <HAC>
27

>  <Collection>
General

>  <PPDS>
+

$$$$
F3385-0858
  Mrv2219 10102508112D          

 22 24  0  0  0  0            999 V2000
    4.9352   -1.5783    0.0000 C   0  0  0  0  0  0  0  0  0  0  0  0
    4.2129   -1.9916    0.0000 C   0  0  0  0  0  0  0  0  0  0  0  0
    3.4947   -1.5783    0.0000 C   0  0  0  0  0  0  0  0  0  0  0  0
    4.9352   -0.7432    0.0000 C   0  0  0  0  0  0  0  0  0  0  0  0
    3.4989   -0.7432    0.0000 C   0  0  0  0  0  0  0  0  0  0  0  0
    4.2129   -0.3299    0.0000 O   0  0  0  0  0  0  0  0  0  0  0  0
    2.7850   -0.3299    0.0000 C   0  0  0  0  0  0  0  0  0  0  0  0
    5.6409   -1.9916    0.0000 C   0  0  0  0  0  0  0  0  0  0  0  0
    2.7808   -1.9833    0.0000 C   0  0  0  0  0  0  0  0  0  0  0  0
    0.6430   -0.7307    0.0000 C   0  0  0  0  0  0  0  0  0  0  0  0
    4.2087   -2.8183    0.0000 O   0  0  0  0  0  0  0  0  0  0  0  0
    2.0710   -0.7390    0.0000 C   0  0  0  0  0  0  0  0  0  0  0  0
    1.3570   -0.3257    0.0000 O   0  0  0  0  0  0  0  0  0  0  0  0
    0.6388   -1.5574    0.0000 O   0  0  0  0  0  0  0  0  0  0  0  0
    5.6409   -2.8225    0.0000 C   0  0  0  0  0  0  0  0  0  0  0  0
    6.3548   -1.5825    0.0000 C   0  0  0  0  0  0  0  0  0  0  0  0
    2.0710   -1.5657    0.0000 C   0  0  0  0  0  0  0  0  0  0  0  0
    7.0688   -2.8225    0.0000 C   0  0  0  0  0  0  0  0  0  0  0  0
    7.0688   -1.9958    0.0000 C   0  0  0  0  0  0  0  0  0  0  0  0
    6.3548   -3.2359    0.0000 C   0  0  0  0  0  0  0  0  0  0  0  0
    7.7828   -3.2484    0.0000 Cl  0  0  0  0  0  0  0  0  0  0  0  0
   -0.0709   -0.3174    0.0000 C   0  0  0  0  0  0  0  0  0  0  0  0
  2  1  1  0  0  0  0
  3  2  1  0  0  0  0
  4  1  2  0  0  0  0
  5  6  1  0  0  0  0
  6  4  1  0  0  0  0
  7  5  2  0  0  0  0
  8  1  1  0  0  0  0
  9  3  2  0  0  0  0
 10 13  1  0  0  0  0
 11  2  2  0  0  0  0
 12  7  1  0  0  0  0
 13 12  1  0  0  0  0
 14 10  2  0  0  0  0
 15  8  2  0  0  0  0
 16  8  1  0  0  0  0
 17  9  1  0  0  0  0
 18 19  1  0  0  0  0
 19 16  2  0  0  0  0
 20 15  1  0  0  0  0
 21 18  1  0  0  0  0
 22 10  1  0  0  0  0
 20 18  2  0  0  0  0
  5  3  1  0  0  0  0
 12 17  2  0  0  0  0
M  END
>  <IDNUMBER>
F3385-0858

>  <Chemical_Name>
3-(4-chlorophenyl)-4-oxo-4H-chromen-7-yl acetate

>  <PriceCoeff>
1.00

>  <CAS>
109601-38-9

>  <MW>
314.72

>  <Description>
solid

>  <FSP3>
0.06

>  <clogP>
3.23

>  <TPSA>
52.60

>  <Acceptor>
4

>  <Donor>
0

>  <RotBonds>
3

>  <HAC>
22

>  <Collection>
General

>  <PPDS>
+

$$$$
F3385-0893
  Mrv2219 10102508112D          

 22 24  0  0  0  0            999 V2000
    5.5908   -2.0209    0.0000 C   0  0  0  0  0  0  0  0  0  0  0  0
    4.8643   -2.4342    0.0000 C   0  0  0  0  0  0  0  0  0  0  0  0
    4.1503   -2.0209    0.0000 C   0  0  0  0  0  0  0  0  0  0  0  0
    5.5908   -1.1900    0.0000 C   0  0  0  0  0  0  0  0  0  0  0  0
    4.1503   -1.1900    0.0000 C   0  0  0  0  0  0  0  0  0  0  0  0
    4.8726   -0.7683    0.0000 O   0  0  0  0  0  0  0  0  0  0  0  0
    6.3047   -2.4426    0.0000 C   0  0  0  0  0  0  0  0  0  0  0  0
    3.4363   -2.4342    0.0000 C   0  0  0  0  0  0  0  0  0  0  0  0
    3.4363   -0.7766    0.0000 C   0  0  0  0  0  0  0  0  0  0  0  0
    4.8643   -3.2609    0.0000 O   0  0  0  0  0  0  0  0  0  0  0  0
    7.0187   -2.0292    0.0000 C   0  0  0  0  0  0  0  0  0  0  0  0
    6.3005   -3.2693    0.0000 C   0  0  0  0  0  0  0  0  0  0  0  0
    2.7223   -1.1900    0.0000 C   0  0  0  0  0  0  0  0  0  0  0  0
    2.7223   -2.0209    0.0000 C   0  0  0  0  0  0  0  0  0  0  0  0
    7.7327   -3.2735    0.0000 C   0  0  0  0  0  0  0  0  0  0  0  0
    7.0145   -3.6826    0.0000 C   0  0  0  0  0  0  0  0  0  0  0  0
    7.7327   -2.4426    0.0000 C   0  0  0  0  0  0  0  0  0  0  0  0
    2.0084   -0.7766    0.0000 O   0  0  0  0  0  0  0  0  0  0  0  0
    8.4467   -3.6868    0.0000 O   0  0  0  0  0  0  0  0  0  0  0  0
    1.2902   -1.1942    0.0000 C   0  0  0  0  0  0  0  0  0  0  0  0
    9.1606   -3.2735    0.0000 C   0  0  0  0  0  0  0  0  0  0  0  0
    0.5762   -0.7808    0.0000 C   0  0  0  0  0  0  0  0  0  0  0  0
  2  1  1  0  0  0  0
  3  2  1  0  0  0  0
  4  1  2  0  0  0  0
  5  6  1  0  0  0  0
  6  4  1  0  0  0  0
  7  1  1  0  0  0  0
  8  3  2  0  0  0  0
  9  5  2  0  0  0  0
 10  2  2  0  0  0  0
 11  7  1  0  0  0  0
 12  7  2  0  0  0  0
 13  9  1  0  0  0  0
 14  8  1  0  0  0  0
 15 16  2  0  0  0  0
 16 12  1  0  0  0  0
 17 11  2  0  0  0  0
 18 13  1  0  0  0  0
 19 15  1  0  0  0  0
 20 18  1  0  0  0  0
 21 19  1  0  0  0  0
 22 20  1  0  0  0  0
 17 15  1  0  0  0  0
  5  3  1  0  0  0  0
 13 14  2  0  0  0  0
M  END
>  <IDNUMBER>
F3385-0893

>  <Chemical_Name>
7-ethoxy-3-(4-methoxyphenyl)-4H-chromen-4-one

>  <PriceCoeff>
1.00

>  <CAS>
76260-67-8

>  <MW>
296.32

>  <Description>
solid

>  <FSP3>
0.17

>  <clogP>
3.55

>  <TPSA>
44.76

>  <Acceptor>
4

>  <Donor>
0

>  <RotBonds>
4

>  <HAC>
22

>  <Collection>
General

>  <PPDS>
+

$$$$
F3385-0894
  Mrv2219 10102508112D          

 23 25  0  0  0  0            999 V2000
    1.8625   -1.3542    0.0000 C   0  0  0  0  0  0  0  0  0  0  0  0
    1.1417   -1.7667    0.0000 C   0  0  0  0  0  0  0  0  0  0  0  0
    0.4292   -1.3542    0.0000 C   0  0  0  0  0  0  0  0  0  0  0  0
    1.8625   -0.5292    0.0000 C   0  0  0  0  0  0  0  0  0  0  0  0
    0.4292   -0.5292    0.0000 C   0  0  0  0  0  0  0  0  0  0  0  0
    2.5750   -1.7750    0.0000 C   0  0  0  0  0  0  0  0  0  0  0  0
    1.1417   -0.1167    0.0000 O   0  0  0  0  0  0  0  0  0  0  0  0
    3.2917   -1.3542    0.0000 C   0  0  0  0  0  0  0  0  0  0  0  0
   -0.2833   -1.7667    0.0000 C   0  0  0  0  0  0  0  0  0  0  0  0
   -0.2833   -0.1167    0.0000 C   0  0  0  0  0  0  0  0  0  0  0  0
    4.0042   -1.7667    0.0000 C   0  0  0  0  0  0  0  0  0  0  0  0
    1.1417   -2.5917    0.0000 O   0  0  0  0  0  0  0  0  0  0  0  0
    4.0042   -2.6000    0.0000 C   0  0  0  0  0  0  0  0  0  0  0  0
    2.5750   -2.6000    0.0000 C   0  0  0  0  0  0  0  0  0  0  0  0
    3.2875   -3.0125    0.0000 C   0  0  0  0  0  0  0  0  0  0  0  0
   -1.0000   -0.5292    0.0000 C   0  0  0  0  0  0  0  0  0  0  0  0
   -0.9958   -1.3542    0.0000 C   0  0  0  0  0  0  0  0  0  0  0  0
    4.7250   -1.3542    0.0000 O   0  0  0  0  0  0  0  0  0  0  0  0
    4.7292   -3.0167    0.0000 O   0  0  0  0  0  0  0  0  0  0  0  0
   -1.7208   -0.1167    0.0000 O   0  0  0  0  0  0  0  0  0  0  0  0
    5.4375   -1.7750    0.0000 C   0  0  0  0  0  0  0  0  0  0  0  0
    4.7375   -3.8500    0.0000 C   0  0  0  0  0  0  0  0  0  0  0  0
   -2.4333   -0.5250    0.0000 C   0  0  0  0  0  0  0  0  0  0  0  0
  2  1  1  0  0  0  0
  3  2  1  0  0  0  0
  4  1  2  0  0  0  0
  5  7  1  0  0  0  0
  6  1  1  0  0  0  0
  7  4  1  0  0  0  0
  8  6  1  0  0  0  0
  9  3  2  0  0  0  0
 10  5  2  0  0  0  0
 11  8  2  0  0  0  0
 12  2  2  0  0  0  0
 13 15  2  0  0  0  0
 14  6  2  0  0  0  0
 15 14  1  0  0  0  0
 16 10  1  0  0  0  0
 17  9  1  0  0  0  0
 18 11  1  0  0  0  0
 19 13  1  0  0  0  0
 20 16  1  0  0  0  0
 21 18  1  0  0  0  0
 22 19  1  0  0  0  0
 23 20  1  0  0  0  0
  3  5  1  0  0  0  0
 11 13  1  0  0  0  0
 17 16  2  0  0  0  0
M  END
>  <IDNUMBER>
F3385-0894

>  <Chemical_Name>
3-(3,4-dimethoxyphenyl)-7-methoxy-4H-chromen-4-one

>  <PriceCoeff>
1.00

>  <CAS>
1621-61-0

>  <MW>
312.32

>  <Description>
solid

>  <FSP3>
0.17

>  <clogP>
2.75

>  <TPSA>
53.99

>  <Acceptor>
5

>  <Donor>
0

>  <RotBonds>
4

>  <HAC>
23

>  <Collection>
General

>  <PPDS>
+

$$$$
F3385-0895
  Mrv2219 10102508112D          

 24 26  0  0  0  0            999 V2000
    1.8625   -1.3542    0.0000 C   0  0  0  0  0  0  0  0  0  0  0  0
    1.1417   -1.7667    0.0000 C   0  0  0  0  0  0  0  0  0  0  0  0
    0.4292   -1.3542    0.0000 C   0  0  0  0  0  0  0  0  0  0  0  0
    1.8625   -0.5292    0.0000 C   0  0  0  0  0  0  0  0  0  0  0  0
    0.4292   -0.5292    0.0000 C   0  0  0  0  0  0  0  0  0  0  0  0
    2.5750   -1.7750    0.0000 C   0  0  0  0  0  0  0  0  0  0  0  0
    1.1417   -0.1167    0.0000 O   0  0  0  0  0  0  0  0  0  0  0  0
    3.2917   -1.3542    0.0000 C   0  0  0  0  0  0  0  0  0  0  0  0
   -0.2833   -1.7667    0.0000 C   0  0  0  0  0  0  0  0  0  0  0  0
   -0.2833   -0.1167    0.0000 C   0  0  0  0  0  0  0  0  0  0  0  0
    4.0042   -1.7667    0.0000 C   0  0  0  0  0  0  0  0  0  0  0  0
    1.1417   -2.5917    0.0000 O   0  0  0  0  0  0  0  0  0  0  0  0
    4.0042   -2.6000    0.0000 C   0  0  0  0  0  0  0  0  0  0  0  0
    2.5750   -2.6000    0.0000 C   0  0  0  0  0  0  0  0  0  0  0  0
    3.2875   -3.0125    0.0000 C   0  0  0  0  0  0  0  0  0  0  0  0
   -1.0000   -0.5292    0.0000 C   0  0  0  0  0  0  0  0  0  0  0  0
   -0.9958   -1.3542    0.0000 C   0  0  0  0  0  0  0  0  0  0  0  0
    4.7250   -1.3542    0.0000 O   0  0  0  0  0  0  0  0  0  0  0  0
    4.7292   -3.0167    0.0000 O   0  0  0  0  0  0  0  0  0  0  0  0
   -1.7208   -0.1167    0.0000 O   0  0  0  0  0  0  0  0  0  0  0  0
   -2.4333   -0.5250    0.0000 C   0  0  0  0  0  0  0  0  0  0  0  0
    5.4375   -1.7750    0.0000 C   0  0  0  0  0  0  0  0  0  0  0  0
    4.7375   -3.8500    0.0000 C   0  0  0  0  0  0  0  0  0  0  0  0
   -3.1583   -0.1042    0.0000 C   0  0  0  0  0  0  0  0  0  0  0  0
  2  1  1  0  0  0  0
  3  2  1  0  0  0  0
  4  1  2  0  0  0  0
  5  7  1  0  0  0  0
  6  1  1  0  0  0  0
  7  4  1  0  0  0  0
  8  6  1  0  0  0  0
  9  3  2  0  0  0  0
 10  5  2  0  0  0  0
 11  8  2  0  0  0  0
 12  2  2  0  0  0  0
 13 15  2  0  0  0  0
 14  6  2  0  0  0  0
 15 14  1  0  0  0  0
 16 10  1  0  0  0  0
 17  9  1  0  0  0  0
 18 11  1  0  0  0  0
 19 13  1  0  0  0  0
 20 16  1  0  0  0  0
 21 20  1  0  0  0  0
 22 18  1  0  0  0  0
 23 19  1  0  0  0  0
 24 21  1  0  0  0  0
  3  5  1  0  0  0  0
 11 13  1  0  0  0  0
 17 16  2  0  0  0  0
M  END
>  <IDNUMBER>
F3385-0895

>  <Chemical_Name>
3-(3,4-dimethoxyphenyl)-7-ethoxy-4H-chromen-4-one

>  <PriceCoeff>
1.00

>  <CAS>
858756-96-4

>  <MW>
326.34

>  <Description>
solid

>  <FSP3>
0.21

>  <clogP>
3.28

>  <TPSA>
53.99

>  <Acceptor>
5

>  <Donor>
0

>  <RotBonds>
5

>  <HAC>
24

>  <Collection>
General

>  <PPDS>
+

$$$$
F3385-0896
  Mrv2219 10102508112D          

 23 25  0  0  0  0            999 V2000
    5.5908   -2.0209    0.0000 C   0  0  0  0  0  0  0  0  0  0  0  0
    4.8643   -2.4342    0.0000 C   0  0  0  0  0  0  0  0  0  0  0  0
    4.1503   -2.0209    0.0000 C   0  0  0  0  0  0  0  0  0  0  0  0
    5.5908   -1.1900    0.0000 C   0  0  0  0  0  0  0  0  0  0  0  0
    4.1503   -1.1900    0.0000 C   0  0  0  0  0  0  0  0  0  0  0  0
    4.8726   -0.7683    0.0000 O   0  0  0  0  0  0  0  0  0  0  0  0
   -0.1461   -0.3675    0.0000 N   0  0  0  0  0  0  0  0  0  0  0  0
    6.3047   -2.4426    0.0000 C   0  0  0  0  0  0  0  0  0  0  0  0
    3.4363   -2.4342    0.0000 C   0  0  0  0  0  0  0  0  0  0  0  0
    3.4363   -0.7766    0.0000 C   0  0  0  0  0  0  0  0  0  0  0  0
    0.5762   -0.7808    0.0000 C   0  0  0  0  0  0  0  0  0  0  0  0
    4.8643   -3.2609    0.0000 O   0  0  0  0  0  0  0  0  0  0  0  0
    7.0187   -2.0292    0.0000 C   0  0  0  0  0  0  0  0  0  0  0  0
    6.3005   -3.2693    0.0000 C   0  0  0  0  0  0  0  0  0  0  0  0
    2.7223   -1.1900    0.0000 C   0  0  0  0  0  0  0  0  0  0  0  0
    2.7223   -2.0209    0.0000 C   0  0  0  0  0  0  0  0  0  0  0  0
    7.7327   -3.2735    0.0000 C   0  0  0  0  0  0  0  0  0  0  0  0
    7.0145   -3.6826    0.0000 C   0  0  0  0  0  0  0  0  0  0  0  0
    7.7327   -2.4426    0.0000 C   0  0  0  0  0  0  0  0  0  0  0  0
    2.0084   -0.7766    0.0000 O   0  0  0  0  0  0  0  0  0  0  0  0
    8.4467   -3.6868    0.0000 O   0  0  0  0  0  0  0  0  0  0  0  0
    1.2902   -1.1942    0.0000 C   0  0  0  0  0  0  0  0  0  0  0  0
    9.1606   -3.2735    0.0000 C   0  0  0  0  0  0  0  0  0  0  0  0
  2  1  1  0  0  0  0
  3  2  1  0  0  0  0
  4  1  2  0  0  0  0
  5  6  1  0  0  0  0
  6  4  1  0  0  0  0
  7 11  3  0  0  0  0
  8  1  1  0  0  0  0
  9  3  2  0  0  0  0
 10  5  2  0  0  0  0
 11 22  1  0  0  0  0
 12  2  2  0  0  0  0
 13  8  1  0  0  0  0
 14  8  2  0  0  0  0
 15 10  1  0  0  0  0
 16  9  1  0  0  0  0
 17 18  2  0  0  0  0
 18 14  1  0  0  0  0
 19 13  2  0  0  0  0
 20 15  1  0  0  0  0
 21 17  1  0  0  0  0
 22 20  1  0  0  0  0
 23 21  1  0  0  0  0
 19 17  1  0  0  0  0
  5  3  1  0  0  0  0
 15 16  2  0  0  0  0
M  END
>  <IDNUMBER>
F3385-0896

>  <Chemical_Name>
2-{[3-(4-methoxyphenyl)-4-oxo-4H-chromen-7-yl]oxy}acetonitrile

>  <PriceCoeff>
1.00

>  <CAS>
845809-52-1

>  <MW>
307.30

>  <Description>
solid

>  <FSP3>
0.11

>  <clogP>
2.01

>  <TPSA>
68.55

>  <Acceptor>
5

>  <Donor>
0

>  <RotBonds>
4

>  <HAC>
23

>  <Collection>
General

>  <PPDS>
+

$$$$
F3385-0965
  Mrv2219 10102508112D          

 21 23  0  0  0  0            999 V2000
    6.0470   -1.6806    0.0000 C   0  0  0  0  0  0  0  0  0  0  0  0
    5.3338   -2.1061    0.0000 C   0  0  0  0  0  0  0  0  0  0  0  0
    4.6165   -1.6931    0.0000 C   0  0  0  0  0  0  0  0  0  0  0  0
    6.0470   -0.8550    0.0000 C   0  0  0  0  0  0  0  0  0  0  0  0
    4.6082   -0.8550    0.0000 C   0  0  0  0  0  0  0  0  0  0  0  0
    5.3213   -0.4420    0.0000 O   0  0  0  0  0  0  0  0  0  0  0  0
    6.7601   -2.0935    0.0000 C   0  0  0  0  0  0  0  0  0  0  0  0
    3.8951   -2.0935    0.0000 C   0  0  0  0  0  0  0  0  0  0  0  0
    3.8951   -0.4546    0.0000 C   0  0  0  0  0  0  0  0  0  0  0  0
    5.3338   -2.9317    0.0000 O   0  0  0  0  0  0  0  0  0  0  0  0
    6.7684   -2.9192    0.0000 C   0  0  0  0  0  0  0  0  0  0  0  0
    7.4857   -1.6681    0.0000 C   0  0  0  0  0  0  0  0  0  0  0  0
    3.1903   -0.8675    0.0000 C   0  0  0  0  0  0  0  0  0  0  0  0
    3.1820   -1.6806    0.0000 C   0  0  0  0  0  0  0  0  0  0  0  0
    8.1989   -2.9067    0.0000 C   0  0  0  0  0  0  0  0  0  0  0  0
    7.4815   -3.3321    0.0000 C   0  0  0  0  0  0  0  0  0  0  0  0
    8.1864   -2.0810    0.0000 C   0  0  0  0  0  0  0  0  0  0  0  0
    2.4772   -0.4546    0.0000 O   0  0  0  0  0  0  0  0  0  0  0  0
    8.9119   -3.3196    0.0000 O   0  0  0  0  0  0  0  0  0  0  0  0
    9.6251   -2.9067    0.0000 C   0  0  0  0  0  0  0  0  0  0  0  0
    1.7557   -0.8550    0.0000 C   0  0  0  0  0  0  0  0  0  0  0  0
  2  1  1  0  0  0  0
  3  2  1  0  0  0  0
  4  1  2  0  0  0  0
  5  6  1  0  0  0  0
  6  4  1  0  0  0  0
  7  1  1  0  0  0  0
  8  3  2  0  0  0  0
  9  5  2  0  0  0  0
 10  2  2  0  0  0  0
 11  7  2  0  0  0  0
 12  7  1  0  0  0  0
 13  9  1  0  0  0  0
 14  8  1  0  0  0  0
 15 17  1  0  0  0  0
 16 11  1  0  0  0  0
 17 12  2  0  0  0  0
 18 13  1  0  0  0  0
 19 15  1  0  0  0  0
 20 19  1  0  0  0  0
 21 18  1  0  0  0  0
 15 16  2  0  0  0  0
  3  5  1  0  0  0  0
 14 13  2  0  0  0  0
M  END
>  <IDNUMBER>
F3385-0965

>  <Chemical_Name>
7-methoxy-3-(4-methoxyphenyl)-4H-chromen-4-one

>  <PriceCoeff>
1.00

>  <CAS>
1157-39-7

>  <MW>
282.29

>  <Description>
solid

>  <FSP3>
0.12

>  <clogP>
3.02

>  <TPSA>
44.76

>  <Acceptor>
4

>  <Donor>
0

>  <RotBonds>
3

>  <HAC>
21

>  <Collection>
General

>  <PPDS>
+

$$$$
F3385-0968
  Mrv2219 10102508112D          

 29 32  0  0  0  0            999 V2000
    7.4667   -0.5417    0.0000 C   0  0  0  0  0  0  0  0  0  0  0  0
    6.7417   -0.9542    0.0000 C   0  0  0  0  0  0  0  0  0  0  0  0
    6.0250   -0.5417    0.0000 C   0  0  0  0  0  0  0  0  0  0  0  0
    7.4667    0.2875    0.0000 C   0  0  0  0  0  0  0  0  0  0  0  0
    6.0292    0.2875    0.0000 C   0  0  0  0  0  0  0  0  0  0  0  0
    8.1750   -0.9625    0.0000 C   0  0  0  0  0  0  0  0  0  0  0  0
    6.7417    0.7083    0.0000 O   0  0  0  0  0  0  0  0  0  0  0  0
    8.8875   -0.5500    0.0000 C   0  0  0  0  0  0  0  0  0  0  0  0
    5.3125   -0.9542    0.0000 C   0  0  0  0  0  0  0  0  0  0  0  0
    5.3125    0.7000    0.0000 C   0  0  0  0  0  0  0  0  0  0  0  0
    9.6000   -0.9625    0.0000 C   0  0  0  0  0  0  0  0  0  0  0  0
    6.7417   -1.7792    0.0000 O   0  0  0  0  0  0  0  0  0  0  0  0
    9.6000   -1.7917    0.0000 C   0  0  0  0  0  0  0  0  0  0  0  0
    8.1667   -1.7875    0.0000 C   0  0  0  0  0  0  0  0  0  0  0  0
    8.8792   -2.2000    0.0000 C   0  0  0  0  0  0  0  0  0  0  0  0
    4.6000    0.2875    0.0000 C   0  0  0  0  0  0  0  0  0  0  0  0
    3.8875    0.6958    0.0000 O   0  0  0  0  0  0  0  0  0  0  0  0
    4.6000   -0.5417    0.0000 C   0  0  0  0  0  0  0  0  0  0  0  0
    3.1667    0.2833    0.0000 C   0  0  0  0  0  0  0  0  0  0  0  0
   10.3167   -0.5500    0.0000 O   0  0  0  0  0  0  0  0  0  0  0  0
   10.3125   -2.2042    0.0000 O   0  0  0  0  0  0  0  0  0  0  0  0
    2.4542    0.6958    0.0000 C   0  0  0  0  0  0  0  0  0  0  0  0
   10.3125    0.2750    0.0000 C   0  0  0  0  0  0  0  0  0  0  0  0
   11.0292   -1.7917    0.0000 C   0  0  0  0  0  0  0  0  0  0  0  0
    2.4625    1.5250    0.0000 C   0  0  0  0  0  0  0  0  0  0  0  0
    1.7500    0.2833    0.0000 C   0  0  0  0  0  0  0  0  0  0  0  0
    1.0292    0.6958    0.0000 C   0  0  0  0  0  0  0  0  0  0  0  0
    1.7417    1.9333    0.0000 C   0  0  0  0  0  0  0  0  0  0  0  0
    1.0292    1.5208    0.0000 C   0  0  0  0  0  0  0  0  0  0  0  0
  2  1  1  0  0  0  0
  3  2  1  0  0  0  0
  4  1  2  0  0  0  0
  5  7  1  0  0  0  0
  6  1  1  0  0  0  0
  7  4  1  0  0  0  0
  8  6  1  0  0  0  0
  9  3  2  0  0  0  0
 10  5  2  0  0  0  0
 11  8  2  0  0  0  0
 12  2  2  0  0  0  0
 13 15  2  0  0  0  0
 14  6  2  0  0  0  0
 15 14  1  0  0  0  0
 16 10  1  0  0  0  0
 17 16  1  0  0  0  0
 18  9  1  0  0  0  0
 19 17  1  0  0  0  0
 20 11  1  0  0  0  0
 21 13  1  0  0  0  0
 22 19  1  0  0  0  0
 23 20  1  0  0  0  0
 24 21  1  0  0  0  0
 25 22  2  0  0  0  0
 26 22  1  0  0  0  0
 27 26  2  0  0  0  0
 28 25  1  0  0  0  0
 29 27  1  0  0  0  0
  3  5  1  0  0  0  0
 13 11  1  0  0  0  0
 18 16  2  0  0  0  0
 29 28  2  0  0  0  0
M  END
>  <IDNUMBER>
F3385-0968

>  <Chemical_Name>
7-(benzyloxy)-3-(3,4-dimethoxyphenyl)-4H-chromen-4-one

>  <PriceCoeff>
1.00

>  <CAS>
54528-40-4

>  <MW>
388.41

>  <Description>
solid

>  <FSP3>
0.12

>  <clogP>
4.52

>  <TPSA>
53.99

>  <Acceptor>
5

>  <Donor>
0

>  <RotBonds>
6

>  <HAC>
29

>  <Collection>
General

$$$$
F3385-0975
  Mrv2219 10102508112D          

 26 28  0  0  0  0            999 V2000
    1.4792   -0.5167    0.0000 C   0  0  0  0  0  0  0  0  0  0  0  0
    0.7667   -0.9292    0.0000 C   0  0  0  0  0  0  0  0  0  0  0  0
    0.0542   -0.5292    0.0000 C   0  0  0  0  0  0  0  0  0  0  0  0
    1.4750    0.3125    0.0000 C   0  0  0  0  0  0  0  0  0  0  0  0
    0.0417    0.3000    0.0000 C   0  0  0  0  0  0  0  0  0  0  0  0
    2.1917   -0.9250    0.0000 C   0  0  0  0  0  0  0  0  0  0  0  0
    0.7542    0.7208    0.0000 O   0  0  0  0  0  0  0  0  0  0  0  0
    2.9042   -0.5042    0.0000 C   0  0  0  0  0  0  0  0  0  0  0  0
   -0.6583   -0.9375    0.0000 C   0  0  0  0  0  0  0  0  0  0  0  0
   -0.6708    0.7083    0.0000 C   0  0  0  0  0  0  0  0  0  0  0  0
    3.6167   -0.9125    0.0000 C   0  0  0  0  0  0  0  0  0  0  0  0
   -3.5250    0.6958    0.0000 C   0  0  0  0  0  0  0  0  0  0  0  0
    0.7750   -1.7542    0.0000 O   0  0  0  0  0  0  0  0  0  0  0  0
    3.6292   -1.7417    0.0000 C   0  0  0  0  0  0  0  0  0  0  0  0
    2.1917   -1.7500    0.0000 C   0  0  0  0  0  0  0  0  0  0  0  0
   -3.5333    1.5208    0.0000 O   0  0  0  0  0  0  0  0  0  0  0  0
    2.9167   -2.1542    0.0000 C   0  0  0  0  0  0  0  0  0  0  0  0
   -1.3833    0.2958    0.0000 C   0  0  0  0  0  0  0  0  0  0  0  0
   -2.0958    0.7000    0.0000 O   0  0  0  0  0  0  0  0  0  0  0  0
   -2.8083    0.2833    0.0000 C   0  0  0  0  0  0  0  0  0  0  0  0
   -4.2375    0.2750    0.0000 N   0  0  0  0  0  0  0  0  0  0  0  0
   -1.3708   -0.5292    0.0000 C   0  0  0  0  0  0  0  0  0  0  0  0
    4.3292   -0.4917    0.0000 O   0  0  0  0  0  0  0  0  0  0  0  0
    4.3417   -2.1417    0.0000 O   0  0  0  0  0  0  0  0  0  0  0  0
    4.3167    0.3333    0.0000 C   0  0  0  0  0  0  0  0  0  0  0  0
    5.0542   -1.7292    0.0000 C   0  0  0  0  0  0  0  0  0  0  0  0
  2  1  1  0  0  0  0
  3  2  1  0  0  0  0
  4  1  2  0  0  0  0
  5  7  1  0  0  0  0
  6  1  1  0  0  0  0
  7  4  1  0  0  0  0
  8  6  1  0  0  0  0
  9  3  1  0  0  0  0
 10  5  1  0  0  0  0
 11  8  2  0  0  0  0
 12 20  1  0  0  0  0
 13  2  2  0  0  0  0
 14 17  2  0  0  0  0
 15  6  2  0  0  0  0
 16 12  2  0  0  0  0
 17 15  1  0  0  0  0
 18 10  2  0  0  0  0
 19 18  1  0  0  0  0
 20 19  1  0  0  0  0
 21 12  1  0  0  0  0
 22  9  2  0  0  0  0
 23 11  1  0  0  0  0
 24 14  1  0  0  0  0
 25 23  1  0  0  0  0
 26 24  1  0  0  0  0
  3  5  2  0  0  0  0
 14 11  1  0  0  0  0
 22 18  1  0  0  0  0
M  END
>  <IDNUMBER>
F3385-0975

>  <Chemical_Name>
2-{[3-(3,4-dimethoxyphenyl)-4-oxo-4H-chromen-7-yl]oxy}acetamide

>  <PriceCoeff>
1.00

>  <CAS>
858762-25-1

>  <MW>
355.34

>  <Description>
solid

>  <FSP3>
0.16

>  <clogP>
1.25

>  <TPSA>
97.08

>  <Acceptor>
6

>  <Donor>
1

>  <RotBonds>
6

>  <HAC>
26

>  <Collection>
General

>  <PPDS>
+

$$$$
F3385-0984
  Mrv2219 10102508112D          

 26 28  0  0  0  0            999 V2000
    1.4790   -0.5166    0.0000 C   0  0  0  0  0  0  0  0  0  0  0  0
    0.7666   -0.9291    0.0000 C   0  0  0  0  0  0  0  0  0  0  0  0
    1.4748    0.3125    0.0000 C   0  0  0  0  0  0  0  0  0  0  0  0
    0.0542   -0.5291    0.0000 C   0  0  0  0  0  0  0  0  0  0  0  0
    0.0417    0.3000    0.0000 C   0  0  0  0  0  0  0  0  0  0  0  0
    0.7541    0.7207    0.0000 O   0  0  0  0  0  0  0  0  0  0  0  0
   -0.6707    0.7082    0.0000 C   0  0  0  0  0  0  0  0  0  0  0  0
    2.1914   -0.9249    0.0000 C   0  0  0  0  0  0  0  0  0  0  0  0
   -0.6582   -0.9374    0.0000 C   0  0  0  0  0  0  0  0  0  0  0  0
    0.7749   -1.7540    0.0000 O   0  0  0  0  0  0  0  0  0  0  0  0
   -4.2328    0.2708    0.0000 C   0  0  0  0  0  0  0  0  0  0  0  0
   -3.5246    0.6957    0.0000 C   0  0  0  0  0  0  0  0  0  0  0  0
    2.9039   -0.5041    0.0000 C   0  0  0  0  0  0  0  0  0  0  0  0
    2.1914   -1.7498    0.0000 C   0  0  0  0  0  0  0  0  0  0  0  0
   -1.3831    0.2958    0.0000 C   0  0  0  0  0  0  0  0  0  0  0  0
   -1.3706   -0.5291    0.0000 C   0  0  0  0  0  0  0  0  0  0  0  0
    2.1872    0.7332    0.0000 C   0  0  0  0  0  0  0  0  0  0  0  0
    3.6246   -1.7415    0.0000 C   0  0  0  0  0  0  0  0  0  0  0  0
   -2.8080    0.2833    0.0000 C   0  0  0  0  0  0  0  0  0  0  0  0
    2.9164   -2.1540    0.0000 C   0  0  0  0  0  0  0  0  0  0  0  0
    3.6163   -0.9124    0.0000 C   0  0  0  0  0  0  0  0  0  0  0  0
   -2.0956    0.6999    0.0000 O   0  0  0  0  0  0  0  0  0  0  0  0
    4.3412   -2.1540    0.0000 O   0  0  0  0  0  0  0  0  0  0  0  0
   -4.9577    0.6749    0.0000 C   0  0  0  0  0  0  0  0  0  0  0  0
   -4.2203   -0.5541    0.0000 C   0  0  0  0  0  0  0  0  0  0  0  0
    5.0661   -1.7290    0.0000 C   0  0  0  0  0  0  0  0  0  0  0  0
  2  1  1  0  0  0  0
  3  1  2  0  0  0  0
  4  2  1  0  0  0  0
  5  6  1  0  0  0  0
  6  3  1  0  0  0  0
  7  5  1  0  0  0  0
  8  1  1  0  0  0  0
  9  4  1  0  0  0  0
 10  2  2  0  0  0  0
 11 12  2  0  0  0  0
 12 19  1  0  0  0  0
 13  8  1  0  0  0  0
 14  8  2  0  0  0  0
 15  7  2  0  0  0  0
 16  9  2  0  0  0  0
 17  3  1  0  0  0  0
 18 20  2  0  0  0  0
 19 22  1  0  0  0  0
 20 14  1  0  0  0  0
 21 13  2  0  0  0  0
 22 15  1  0  0  0  0
 23 18  1  0  0  0  0
 24 11  1  0  0  0  0
 25 11  1  0  0  0  0
 26 23  1  0  0  0  0
 18 21  1  0  0  0  0
  4  5  2  0  0  0  0
 16 15  1  0  0  0  0
M  END
>  <IDNUMBER>
F3385-0984

>  <Chemical_Name>
3-(4-methoxyphenyl)-2-methyl-7-[(3-methylbut-2-en-1-yl)oxy]-4H-chromen-4-one

>  <PriceCoeff>
1.00

>  <CAS>
100434-11-5

>  <MW>
350.41

>  <Description>
solid

>  <FSP3>
0.23

>  <clogP>
4.92

>  <TPSA>
44.76

>  <Acceptor>
4

>  <Donor>
0

>  <RotBonds>
5

>  <HAC>
26

>  <Collection>
General

>  <PPDS>
+

$$$$
F3385-0990
  Mrv2219 10102508112D          

 22 24  0  0  0  0            999 V2000
    1.4823   -0.5178    0.0000 C   0  0  0  0  0  0  0  0  0  0  0  0
    0.7683   -0.9311    0.0000 C   0  0  0  0  0  0  0  0  0  0  0  0
    0.0543   -0.5303    0.0000 C   0  0  0  0  0  0  0  0  0  0  0  0
    1.4781    0.3131    0.0000 C   0  0  0  0  0  0  0  0  0  0  0  0
    0.0418    0.3006    0.0000 C   0  0  0  0  0  0  0  0  0  0  0  0
    0.7558    0.7223    0.0000 O   0  0  0  0  0  0  0  0  0  0  0  0
   -0.6597   -0.9394    0.0000 C   0  0  0  0  0  0  0  0  0  0  0  0
   -0.6722    0.7098    0.0000 C   0  0  0  0  0  0  0  0  0  0  0  0
    2.1962   -0.9269    0.0000 C   0  0  0  0  0  0  0  0  0  0  0  0
    0.7766   -1.7578    0.0000 O   0  0  0  0  0  0  0  0  0  0  0  0
   -3.5323    0.6972    0.0000 C   0  0  0  0  0  0  0  0  0  0  0  0
   -1.3862    0.2964    0.0000 C   0  0  0  0  0  0  0  0  0  0  0  0
   -3.5406    1.5156    0.0000 C   0  0  0  0  0  0  0  0  0  0  0  0
   -2.1001    0.7015    0.0000 O   0  0  0  0  0  0  0  0  0  0  0  0
   -1.3736   -0.5303    0.0000 C   0  0  0  0  0  0  0  0  0  0  0  0
   -2.8141    0.2839    0.0000 C   0  0  0  0  0  0  0  0  0  0  0  0
   -4.2421    0.2714    0.0000 C   0  0  0  0  0  0  0  0  0  0  0  0
    2.1962   -1.7536    0.0000 C   0  0  0  0  0  0  0  0  0  0  0  0
    2.9102   -0.5052    0.0000 C   0  0  0  0  0  0  0  0  0  0  0  0
    2.9227   -2.1587    0.0000 C   0  0  0  0  0  0  0  0  0  0  0  0
    3.6242   -0.9144    0.0000 C   0  0  0  0  0  0  0  0  0  0  0  0
    3.6325   -1.7453    0.0000 C   0  0  0  0  0  0  0  0  0  0  0  0
  2  1  1  0  0  0  0
  3  2  1  0  0  0  0
  4  1  2  0  0  0  0
  5  6  1  0  0  0  0
  6  4  1  0  0  0  0
  7  3  1  0  0  0  0
  8  5  1  0  0  0  0
  9  1  1  0  0  0  0
 10  2  2  0  0  0  0
 11 16  1  0  0  0  0
 12  8  2  0  0  0  0
 13 11  2  0  0  0  0
 14 12  1  0  0  0  0
 15  7  2  0  0  0  0
 16 14  1  0  0  0  0
 17 11  1  0  0  0  0
 18  9  2  0  0  0  0
 19  9  1  0  0  0  0
 20 18  1  0  0  0  0
 21 19  2  0  0  0  0
 22 21  1  0  0  0  0
  3  5  2  0  0  0  0
 22 20  2  0  0  0  0
 15 12  1  0  0  0  0
M  END
>  <IDNUMBER>
F3385-0990

>  <Chemical_Name>
7-[(2-methylprop-2-en-1-yl)oxy]-3-phenyl-4H-chromen-4-one

>  <PriceCoeff>
1.00

>  <CAS>
262282-08-6

>  <MW>
292.33

>  <Description>
solid

>  <FSP3>
0.11

>  <clogP>
4.26

>  <TPSA>
35.53

>  <Acceptor>
3

>  <Donor>
0

>  <RotBonds>
4

>  <HAC>
22

>  <Collection>
General

>  <PPDS>
+

$$$$
F3385-0999
  Mrv2219 10102508112D          

 31 35  0  0  0  0            999 V2000
    5.2358    0.5845    0.0000 C   0  0  0  0  0  0  0  0  0  0  0  0
    4.5219    0.1712    0.0000 C   0  0  0  0  0  0  0  0  0  0  0  0
    3.8121    0.5845    0.0000 C   0  0  0  0  0  0  0  0  0  0  0  0
    5.2358    1.4112    0.0000 C   0  0  0  0  0  0  0  0  0  0  0  0
    3.8079    1.4029    0.0000 C   0  0  0  0  0  0  0  0  0  0  0  0
    5.9498    0.1754    0.0000 C   0  0  0  0  0  0  0  0  0  0  0  0
    4.5135    1.8246    0.0000 O   0  0  0  0  0  0  0  0  0  0  0  0
    7.3778    0.1754    0.0000 C   0  0  0  0  0  0  0  0  0  0  0  0
    6.6638    0.5845    0.0000 C   0  0  0  0  0  0  0  0  0  0  0  0
    3.0939    0.1628    0.0000 C   0  0  0  0  0  0  0  0  0  0  0  0
    3.0939    1.8246    0.0000 C   0  0  0  0  0  0  0  0  0  0  0  0
    7.3778   -0.6556    0.0000 C   0  0  0  0  0  0  0  0  0  0  0  0
    0.2297    1.8163    0.0000 C   0  0  0  0  0  0  0  0  0  0  0  0
    4.5219   -0.6556    0.0000 O   0  0  0  0  0  0  0  0  0  0  0  0
    8.0959    0.5970    0.0000 O   0  0  0  0  0  0  0  0  0  0  0  0
    5.9498   -0.6556    0.0000 C   0  0  0  0  0  0  0  0  0  0  0  0
    8.0959   -1.0689    0.0000 O   0  0  0  0  0  0  0  0  0  0  0  0
    0.9437    1.4029    0.0000 C   0  0  0  0  0  0  0  0  0  0  0  0
    6.6638   -1.0689    0.0000 C   0  0  0  0  0  0  0  0  0  0  0  0
    0.2297    2.6513    0.0000 O   0  0  0  0  0  0  0  0  0  0  0  0
   -0.4843    1.4029    0.0000 C   0  0  0  0  0  0  0  0  0  0  0  0
    2.3799    1.4029    0.0000 C   0  0  0  0  0  0  0  0  0  0  0  0
    1.6659    1.8163    0.0000 O   0  0  0  0  0  0  0  0  0  0  0  0
    2.3799    0.5762    0.0000 C   0  0  0  0  0  0  0  0  0  0  0  0
    8.8224    0.1837    0.0000 C   0  0  0  0  0  0  0  0  0  0  0  0
    8.8224   -0.6556    0.0000 C   0  0  0  0  0  0  0  0  0  0  0  0
   -0.4843    0.5845    0.0000 C   0  0  0  0  0  0  0  0  0  0  0  0
   -1.1983    1.8246    0.0000 C   0  0  0  0  0  0  0  0  0  0  0  0
   -1.9123    1.4112    0.0000 C   0  0  0  0  0  0  0  0  0  0  0  0
   -1.1983    0.1712    0.0000 C   0  0  0  0  0  0  0  0  0  0  0  0
   -1.9123    0.5845    0.0000 C   0  0  0  0  0  0  0  0  0  0  0  0
  2  1  1  0  0  0  0
  3  2  1  0  0  0  0
  4  1  2  0  0  0  0
  5  7  1  0  0  0  0
  6  1  1  0  0  0  0
  7  4  1  0  0  0  0
  8  9  2  0  0  0  0
  9  6  1  0  0  0  0
 10  3  2  0  0  0  0
 11  5  2  0  0  0  0
 12 19  2  0  0  0  0
 13 18  1  0  0  0  0
 14  2  2  0  0  0  0
 15  8  1  0  0  0  0
 16  6  2  0  0  0  0
 17 12  1  0  0  0  0
 18 23  1  0  0  0  0
 19 16  1  0  0  0  0
 20 13  2  0  0  0  0
 21 13  1  0  0  0  0
 22 11  1  0  0  0  0
 23 22  1  0  0  0  0
 24 10  1  0  0  0  0
 25 15  1  0  0  0  0
 26 17  1  0  0  0  0
 27 21  1  0  0  0  0
 28 21  2  0  0  0  0
 29 28  1  0  0  0  0
 30 27  2  0  0  0  0
 31 29  2  0  0  0  0
  3  5  1  0  0  0  0
 12  8  1  0  0  0  0
 24 22  2  0  0  0  0
 26 25  1  0  0  0  0
 31 30  1  0  0  0  0
M  END
>  <IDNUMBER>
F3385-0999

>  <Chemical_Name>
3-(2,3-dihydro-1,4-benzodioxin-6-yl)-7-(2-oxo-2-phenylethoxy)-4H-chromen-4-one

>  <PriceCoeff>
1.00

>  <CAS>
858763-23-2

>  <MW>
414.41

>  <Description>
solid

>  <FSP3>
0.12

>  <clogP>
3.98

>  <TPSA>
71.06

>  <Acceptor>
6

>  <Donor>
0

>  <RotBonds>
5

>  <HAC>
31

>  <Collection>
General

>  <PPDS>
+

$$$$
F3385-1000
  Mrv2219 10102508112D          

 25 28  0  0  0  0            999 V2000
    5.2358    0.5845    0.0000 C   0  0  0  0  0  0  0  0  0  0  0  0
    4.5219    0.1712    0.0000 C   0  0  0  0  0  0  0  0  0  0  0  0
    3.8121    0.5845    0.0000 C   0  0  0  0  0  0  0  0  0  0  0  0
    5.2358    1.4112    0.0000 C   0  0  0  0  0  0  0  0  0  0  0  0
    3.8079    1.4029    0.0000 C   0  0  0  0  0  0  0  0  0  0  0  0
    5.9498    0.1754    0.0000 C   0  0  0  0  0  0  0  0  0  0  0  0
    4.5135    1.8246    0.0000 O   0  0  0  0  0  0  0  0  0  0  0  0
   -0.4843    2.2296    0.0000 N   0  0  0  0  0  0  0  0  0  0  0  0
    7.3778    0.1754    0.0000 C   0  0  0  0  0  0  0  0  0  0  0  0
    6.6638    0.5845    0.0000 C   0  0  0  0  0  0  0  0  0  0  0  0
    3.0939    0.1628    0.0000 C   0  0  0  0  0  0  0  0  0  0  0  0
    3.0939    1.8246    0.0000 C   0  0  0  0  0  0  0  0  0  0  0  0
    0.2297    1.8163    0.0000 C   0  0  0  0  0  0  0  0  0  0  0  0
    7.3778   -0.6556    0.0000 C   0  0  0  0  0  0  0  0  0  0  0  0
    4.5219   -0.6556    0.0000 O   0  0  0  0  0  0  0  0  0  0  0  0
    8.0959    0.5970    0.0000 O   0  0  0  0  0  0  0  0  0  0  0  0
    5.9498   -0.6556    0.0000 C   0  0  0  0  0  0  0  0  0  0  0  0
    8.0959   -1.0689    0.0000 O   0  0  0  0  0  0  0  0  0  0  0  0
    6.6638   -1.0689    0.0000 C   0  0  0  0  0  0  0  0  0  0  0  0
    2.3799    1.4029    0.0000 C   0  0  0  0  0  0  0  0  0  0  0  0
    2.3799    0.5762    0.0000 C   0  0  0  0  0  0  0  0  0  0  0  0
    1.6659    1.8163    0.0000 O   0  0  0  0  0  0  0  0  0  0  0  0
    0.9437    1.4029    0.0000 C   0  0  0  0  0  0  0  0  0  0  0  0
    8.8224    0.1837    0.0000 C   0  0  0  0  0  0  0  0  0  0  0  0
    8.8224   -0.6556    0.0000 C   0  0  0  0  0  0  0  0  0  0  0  0
  2  1  1  0  0  0  0
  3  2  1  0  0  0  0
  4  1  2  0  0  0  0
  5  7  1  0  0  0  0
  6  1  1  0  0  0  0
  7  4  1  0  0  0  0
  8 13  3  0  0  0  0
  9 10  2  0  0  0  0
 10  6  1  0  0  0  0
 11  3  2  0  0  0  0
 12  5  2  0  0  0  0
 13 23  1  0  0  0  0
 14 19  2  0  0  0  0
 15  2  2  0  0  0  0
 16  9  1  0  0  0  0
 17  6  2  0  0  0  0
 18 14  1  0  0  0  0
 19 17  1  0  0  0  0
 20 12  1  0  0  0  0
 21 11  1  0  0  0  0
 22 20  1  0  0  0  0
 23 22  1  0  0  0  0
 24 16  1  0  0  0  0
 25 18  1  0  0  0  0
  3  5  1  0  0  0  0
 14  9  1  0  0  0  0
 21 20  2  0  0  0  0
 25 24  1  0  0  0  0
M  END
>  <IDNUMBER>
F3385-1000

>  <Chemical_Name>
2-{[3-(2,3-dihydro-1,4-benzodioxin-6-yl)-4-oxo-4H-chromen-7-yl]oxy}acetonitrile

>  <PriceCoeff>
1.00

>  <CAS>
843668-88-2

>  <MW>
335.31

>  <Description>
solid

>  <FSP3>
0.16

>  <clogP>
2.00

>  <TPSA>
77.78

>  <Acceptor>
6

>  <Donor>
0

>  <RotBonds>
3

>  <HAC>
25

>  <Collection>
General

>  <PPDS>
+

$$$$
F3385-1001
  Mrv2219 10102508112D          

 22 24  0  0  0  0            999 V2000
    5.2358    0.5845    0.0000 C   0  0  0  0  0  0  0  0  0  0  0  0
    4.5219    0.1712    0.0000 C   0  0  0  0  0  0  0  0  0  0  0  0
    3.8121    0.5845    0.0000 C   0  0  0  0  0  0  0  0  0  0  0  0
    5.2358    1.4112    0.0000 C   0  0  0  0  0  0  0  0  0  0  0  0
    3.8079    1.4029    0.0000 C   0  0  0  0  0  0  0  0  0  0  0  0
    4.5135    1.8246    0.0000 O   0  0  0  0  0  0  0  0  0  0  0  0
   -0.4843    2.2296    0.0000 N   0  0  0  0  0  0  0  0  0  0  0  0
    5.9498    0.1754    0.0000 C   0  0  0  0  0  0  0  0  0  0  0  0
    3.0939    0.1628    0.0000 C   0  0  0  0  0  0  0  0  0  0  0  0
    3.0939    1.8246    0.0000 C   0  0  0  0  0  0  0  0  0  0  0  0
    0.2297    1.8163    0.0000 C   0  0  0  0  0  0  0  0  0  0  0  0
    4.5219   -0.6556    0.0000 O   0  0  0  0  0  0  0  0  0  0  0  0
    6.6638    0.5845    0.0000 C   0  0  0  0  0  0  0  0  0  0  0  0
    5.9498   -0.6556    0.0000 C   0  0  0  0  0  0  0  0  0  0  0  0
    2.3799    1.4029    0.0000 C   0  0  0  0  0  0  0  0  0  0  0  0
    2.3799    0.5762    0.0000 C   0  0  0  0  0  0  0  0  0  0  0  0
    7.3778   -0.6556    0.0000 C   0  0  0  0  0  0  0  0  0  0  0  0
    6.6638   -1.0689    0.0000 C   0  0  0  0  0  0  0  0  0  0  0  0
    7.3778    0.1754    0.0000 C   0  0  0  0  0  0  0  0  0  0  0  0
    8.0959   -1.0689    0.0000 Br  0  0  0  0  0  0  0  0  0  0  0  0
    1.6659    1.8163    0.0000 O   0  0  0  0  0  0  0  0  0  0  0  0
    0.9437    1.4029    0.0000 C   0  0  0  0  0  0  0  0  0  0  0  0
  2  1  1  0  0  0  0
  3  2  1  0  0  0  0
  4  1  2  0  0  0  0
  5  6  1  0  0  0  0
  6  4  1  0  0  0  0
  7 11  3  0  0  0  0
  8  1  1  0  0  0  0
  9  3  2  0  0  0  0
 10  5  2  0  0  0  0
 11 22  1  0  0  0  0
 12  2  2  0  0  0  0
 13  8  1  0  0  0  0
 14  8  2  0  0  0  0
 15 10  1  0  0  0  0
 16  9  1  0  0  0  0
 17 18  2  0  0  0  0
 18 14  1  0  0  0  0
 19 13  2  0  0  0  0
 20 17  1  0  0  0  0
 21 15  1  0  0  0  0
 22 21  1  0  0  0  0
 17 19  1  0  0  0  0
  3  5  1  0  0  0  0
 16 15  2  0  0  0  0
M  END
>  <IDNUMBER>
F3385-1001

>  <Chemical_Name>
2-{[3-(4-bromophenyl)-4-oxo-4H-chromen-7-yl]oxy}acetonitrile

>  <PriceCoeff>
1.00

>  <CAS>
610764-10-8

>  <MW>
356.17

>  <Description>
solid

>  <FSP3>
0.06

>  <clogP>
2.93

>  <TPSA>
59.32

>  <Acceptor>
4

>  <Donor>
0

>  <RotBonds>
3

>  <HAC>
22

>  <Collection>
General

>  <PPDS>
+

$$$$
F3385-1005
  Mrv2219 10102508112D          

 25 27  0  0  0  0            999 V2000
    5.2250    0.5833    0.0000 C   0  0  0  0  0  0  0  0  0  0  0  0
    4.5125    0.1708    0.0000 C   0  0  0  0  0  0  0  0  0  0  0  0
    3.8042    0.5833    0.0000 C   0  0  0  0  0  0  0  0  0  0  0  0
    5.2250    1.4083    0.0000 C   0  0  0  0  0  0  0  0  0  0  0  0
    0.9417    1.4000    0.0000 C   0  0  0  0  0  0  0  0  0  0  0  0
    3.8000    1.4000    0.0000 C   0  0  0  0  0  0  0  0  0  0  0  0
    4.5042    1.8208    0.0000 O   0  0  0  0  0  0  0  0  0  0  0  0
    5.9375    0.1750    0.0000 C   0  0  0  0  0  0  0  0  0  0  0  0
    1.6625    1.8125    0.0000 O   0  0  0  0  0  0  0  0  0  0  0  0
    3.0875    1.8208    0.0000 C   0  0  0  0  0  0  0  0  0  0  0  0
    3.0875    0.1625    0.0000 C   0  0  0  0  0  0  0  0  0  0  0  0
    0.2292    1.8125    0.0000 N   0  0  0  0  0  0  0  0  0  0  0  0
    2.3750    1.4000    0.0000 C   0  0  0  0  0  0  0  0  0  0  0  0
    4.5125   -0.6542    0.0000 O   0  0  0  0  0  0  0  0  0  0  0  0
    0.9417    0.5750    0.0000 O   0  0  0  0  0  0  0  0  0  0  0  0
    5.9375   -0.6542    0.0000 C   0  0  0  0  0  0  0  0  0  0  0  0
    2.3750    0.5750    0.0000 C   0  0  0  0  0  0  0  0  0  0  0  0
    5.2167   -1.0625    0.0000 O   0  0  0  0  0  0  0  0  0  0  0  0
    6.6500    0.5833    0.0000 C   0  0  0  0  0  0  0  0  0  0  0  0
    0.2292    2.6458    0.0000 C   0  0  0  0  0  0  0  0  0  0  0  0
   -0.4833    1.4000    0.0000 C   0  0  0  0  0  0  0  0  0  0  0  0
    6.6500   -1.0667    0.0000 C   0  0  0  0  0  0  0  0  0  0  0  0
    5.2167   -1.8875    0.0000 C   0  0  0  0  0  0  0  0  0  0  0  0
    7.3625    0.1750    0.0000 C   0  0  0  0  0  0  0  0  0  0  0  0
    7.3667   -0.6542    0.0000 C   0  0  0  0  0  0  0  0  0  0  0  0
  2  1  1  0  0  0  0
  3  2  1  0  0  0  0
  4  1  2  0  0  0  0
  5  9  1  0  0  0  0
  6  7  1  0  0  0  0
  7  4  1  0  0  0  0
  8  1  1  0  0  0  0
  9 13  1  0  0  0  0
 10  6  2  0  0  0  0
 11  3  2  0  0  0  0
 12  5  1  0  0  0  0
 13 10  1  0  0  0  0
 14  2  2  0  0  0  0
 15  5  2  0  0  0  0
 16  8  2  0  0  0  0
 17 11  1  0  0  0  0
 18 16  1  0  0  0  0
 19  8  1  0  0  0  0
 20 12  1  0  0  0  0
 21 12  1  0  0  0  0
 22 16  1  0  0  0  0
 23 18  1  0  0  0  0
 24 19  2  0  0  0  0
 25 24  1  0  0  0  0
  3  6  1  0  0  0  0
 25 22  2  0  0  0  0
 17 13  2  0  0  0  0
M  END
>  <IDNUMBER>
F3385-1005

>  <Chemical_Name>
3-(2-methoxyphenyl)-4-oxo-4H-chromen-7-yl N,N-dimethylcarbamate

>  <PriceCoeff>
1.00

>  <CAS>
858765-20-5

>  <MW>
339.34

>  <Description>
solid

>  <FSP3>
0.16

>  <clogP>
1.83

>  <TPSA>
65.07

>  <Acceptor>
5

>  <Donor>
0

>  <RotBonds>
5

>  <HAC>
25

>  <Collection>
General

>  <PPDS>
+

$$$$
F3385-1046
  Mrv2219 10102508112D          

 30 33  0  0  0  0            999 V2000
    3.0792   -1.8917    0.0000 C   0  0  0  0  0  0  0  0  0  0  0  0
    1.6417   -1.0667    0.0000 C   0  0  0  0  0  0  0  0  0  0  0  0
    1.6417   -1.9000    0.0000 C   0  0  0  0  0  0  0  0  0  0  0  0
    2.3625   -2.3042    0.0000 C   0  0  0  0  0  0  0  0  0  0  0  0
    0.9250   -0.6542    0.0000 C   0  0  0  0  0  0  0  0  0  0  0  0
    2.3542   -0.6417    0.0000 O   0  0  0  0  0  0  0  0  0  0  0  0
    3.0792   -1.0542    0.0000 C   0  0  0  0  0  0  0  0  0  0  0  0
    0.9250   -2.3042    0.0000 C   0  0  0  0  0  0  0  0  0  0  0  0
    3.7917   -2.3000    0.0000 C   0  0  0  0  0  0  0  0  0  0  0  0
    0.9167    0.1708    0.0000 C   0  0  0  0  0  0  0  0  0  0  0  0
    0.2125   -1.0667    0.0000 C   0  0  0  0  0  0  0  0  0  0  0  0
    2.3667   -3.1292    0.0000 O   0  0  0  0  0  0  0  0  0  0  0  0
    0.2042    0.5833    0.0000 N   0  0  0  0  0  0  0  0  0  0  0  0
    0.2125   -1.8917    0.0000 C   0  0  0  0  0  0  0  0  0  0  0  0
    3.7917   -3.1292    0.0000 C   0  0  0  0  0  0  0  0  0  0  0  0
    4.5042   -1.8875    0.0000 C   0  0  0  0  0  0  0  0  0  0  0  0
   -0.5083    0.1708    0.0000 C   0  0  0  0  0  0  0  0  0  0  0  0
    5.2250   -3.1250    0.0000 C   0  0  0  0  0  0  0  0  0  0  0  0
    4.5125   -3.5375    0.0000 C   0  0  0  0  0  0  0  0  0  0  0  0
    5.2167   -2.2917    0.0000 C   0  0  0  0  0  0  0  0  0  0  0  0
   -0.5000   -0.6542    0.0000 O   0  0  0  0  0  0  0  0  0  0  0  0
   -1.2208    0.5750    0.0000 C   0  0  0  0  0  0  0  0  0  0  0  0
    5.9375   -3.5292    0.0000 O   0  0  0  0  0  0  0  0  0  0  0  0
    0.2042    1.4083    0.0000 C   0  0  0  0  0  0  0  0  0  0  0  0
   -1.9333    0.1583    0.0000 C   0  0  0  0  0  0  0  0  0  0  0  0
   -1.2208    1.4000    0.0000 C   0  0  0  0  0  0  0  0  0  0  0  0
    6.6500   -3.1167    0.0000 C   0  0  0  0  0  0  0  0  0  0  0  0
   -2.6458    0.5708    0.0000 C   0  0  0  0  0  0  0  0  0  0  0  0
   -1.9375    1.8083    0.0000 C   0  0  0  0  0  0  0  0  0  0  0  0
   -2.6500    1.3958    0.0000 C   0  0  0  0  0  0  0  0  0  0  0  0
  2  6  1  0  0  0  0
  3  4  1  0  0  0  0
  4  1  1  0  0  0  0
  5  2  2  0  0  0  0
  6  7  1  0  0  0  0
  7  1  2  0  0  0  0
  8  3  2  0  0  0  0
  9  1  1  0  0  0  0
 10  5  1  0  0  0  0
 11  5  1  0  0  0  0
 12  4  2  0  0  0  0
 13 10  1  0  0  0  0
 14  8  1  0  0  0  0
 15  9  2  0  0  0  0
 16  9  1  0  0  0  0
 17 13  1  0  0  0  0
 18 20  1  0  0  0  0
 19 15  1  0  0  0  0
 20 16  2  0  0  0  0
 21 11  1  0  0  0  0
 22 17  1  0  0  0  0
 23 18  1  0  0  0  0
 24 13  1  0  0  0  0
 25 22  1  0  0  0  0
 26 22  2  0  0  0  0
 27 23  1  0  0  0  0
 28 25  2  0  0  0  0
 29 26  1  0  0  0  0
 30 29  2  0  0  0  0
  2  3  1  0  0  0  0
 19 18  2  0  0  0  0
 11 14  2  0  0  0  0
 28 30  1  0  0  0  0
M  END
>  <IDNUMBER>
F3385-1046

>  <Chemical_Name>
8-{[benzyl(methyl)amino]methyl}-7-hydroxy-3-(4-methoxyphenyl)-4H-chromen-4-one

>  <PriceCoeff>
1.00

>  <CAS>
845663-71-0

>  <MW>
401.45

>  <Description>
solid

>  <FSP3>
0.16

>  <clogP>
4.20

>  <TPSA>
59.00

>  <Acceptor>
4

>  <Donor>
2

>  <RotBonds>
6

>  <HAC>
30

>  <Collection>
General

>  <PPDS>
+

$$$$
F3385-1163
  Mrv2219 10102508112D          

 22 24  0  0  0  0            999 V2000
    2.6917   -5.5500    0.0000 C   0  0  0  0  0  0  0  0  0  0  0  0
    1.9667   -5.9667    0.0000 C   0  0  0  0  0  0  0  0  0  0  0  0
    2.6875   -4.7167    0.0000 C   0  0  0  0  0  0  0  0  0  0  0  0
    1.2542   -5.5542    0.0000 C   0  0  0  0  0  0  0  0  0  0  0  0
    1.2500   -4.7250    0.0000 C   0  0  0  0  0  0  0  0  0  0  0  0
    1.9625   -4.3000    0.0000 O   0  0  0  0  0  0  0  0  0  0  0  0
    3.4042   -5.9625    0.0000 C   0  0  0  0  0  0  0  0  0  0  0  0
    0.5292   -4.3125    0.0000 C   0  0  0  0  0  0  0  0  0  0  0  0
    0.5292   -5.9667    0.0000 C   0  0  0  0  0  0  0  0  0  0  0  0
    1.9750   -6.7917    0.0000 O   0  0  0  0  0  0  0  0  0  0  0  0
    3.4042   -6.7875    0.0000 C   0  0  0  0  0  0  0  0  0  0  0  0
   -0.1833   -4.7250    0.0000 C   0  0  0  0  0  0  0  0  0  0  0  0
   -0.1833   -5.5542    0.0000 C   0  0  0  0  0  0  0  0  0  0  0  0
    3.4000   -4.3042    0.0000 C   0  0  0  0  0  0  0  0  0  0  0  0
    2.6917   -7.1917    0.0000 O   0  0  0  0  0  0  0  0  0  0  0  0
    4.1167   -5.5417    0.0000 C   0  0  0  0  0  0  0  0  0  0  0  0
   -0.8958   -4.3167    0.0000 O   0  0  0  0  0  0  0  0  0  0  0  0
    4.1167   -7.1917    0.0000 C   0  0  0  0  0  0  0  0  0  0  0  0
    2.6917   -8.0167    0.0000 C   0  0  0  0  0  0  0  0  0  0  0  0
   -1.6083   -4.7292    0.0000 C   0  0  0  0  0  0  0  0  0  0  0  0
    4.8292   -5.9542    0.0000 C   0  0  0  0  0  0  0  0  0  0  0  0
    4.8292   -6.7792    0.0000 C   0  0  0  0  0  0  0  0  0  0  0  0
  2  1  1  0  0  0  0
  3  1  2  0  0  0  0
  4  2  1  0  0  0  0
  5  6  1  0  0  0  0
  6  3  1  0  0  0  0
  7  1  1  0  0  0  0
  8  5  2  0  0  0  0
  9  4  2  0  0  0  0
 10  2  2  0  0  0  0
 11  7  2  0  0  0  0
 12  8  1  0  0  0  0
 13  9  1  0  0  0  0
 14  3  1  0  0  0  0
 15 11  1  0  0  0  0
 16  7  1  0  0  0  0
 17 12  1  0  0  0  0
 18 11  1  0  0  0  0
 19 15  1  0  0  0  0
 20 17  1  0  0  0  0
 21 16  2  0  0  0  0
 22 21  1  0  0  0  0
  5  4  1  0  0  0  0
 18 22  2  0  0  0  0
 12 13  2  0  0  0  0
M  END
>  <IDNUMBER>
F3385-1163

>  <Chemical_Name>
7-methoxy-3-(2-methoxyphenyl)-2-methyl-4H-chromen-4-one

>  <PriceCoeff>
1.00

>  <CAS>
70387-00-7

>  <MW>
296.32

>  <Description>
solid

>  <FSP3>
0.17

>  <clogP>
2.66

>  <TPSA>
44.76

>  <Acceptor>
4

>  <Donor>
0

>  <RotBonds>
3

>  <HAC>
22

>  <Collection>
General

>  <PPDS>
+

$$$$
F3385-1172
  Mrv2219 10102508112D          

 29 32  0  0  0  0            999 V2000
    1.8792   -0.8125    0.0000 C   0  0  0  0  0  0  0  0  0  0  0  0
    0.4417    0.0125    0.0000 C   0  0  0  0  0  0  0  0  0  0  0  0
    0.4417   -0.8167    0.0000 C   0  0  0  0  0  0  0  0  0  0  0  0
    1.1625   -1.2292    0.0000 C   0  0  0  0  0  0  0  0  0  0  0  0
   -0.2750    0.4250    0.0000 C   0  0  0  0  0  0  0  0  0  0  0  0
    1.1542    0.4375    0.0000 O   0  0  0  0  0  0  0  0  0  0  0  0
    1.8792    0.0208    0.0000 C   0  0  0  0  0  0  0  0  0  0  0  0
   -0.9958    1.6583    0.0000 N   0  0  0  0  0  0  0  0  0  0  0  0
   -0.2833    1.2500    0.0000 C   0  0  0  0  0  0  0  0  0  0  0  0
   -0.2750   -1.2292    0.0000 C   0  0  0  0  0  0  0  0  0  0  0  0
    2.5917   -1.2250    0.0000 C   0  0  0  0  0  0  0  0  0  0  0  0
   -0.9875    0.0125    0.0000 C   0  0  0  0  0  0  0  0  0  0  0  0
   -2.4208    2.4833    0.0000 N   0  0  0  0  0  0  0  0  0  0  0  0
    1.1667   -2.0542    0.0000 O   0  0  0  0  0  0  0  0  0  0  0  0
   -0.9875   -0.8167    0.0000 C   0  0  0  0  0  0  0  0  0  0  0  0
    2.5917   -2.0500    0.0000 C   0  0  0  0  0  0  0  0  0  0  0  0
    3.3042   -0.8042    0.0000 C   0  0  0  0  0  0  0  0  0  0  0  0
   -0.9958    2.4833    0.0000 C   0  0  0  0  0  0  0  0  0  0  0  0
   -1.7083    1.2458    0.0000 C   0  0  0  0  0  0  0  0  0  0  0  0
   -2.4208    1.6583    0.0000 C   0  0  0  0  0  0  0  0  0  0  0  0
   -1.7083    2.8958    0.0000 C   0  0  0  0  0  0  0  0  0  0  0  0
    4.0250   -2.0417    0.0000 C   0  0  0  0  0  0  0  0  0  0  0  0
    4.0167   -1.2167    0.0000 C   0  0  0  0  0  0  0  0  0  0  0  0
    3.3125   -2.4542    0.0000 C   0  0  0  0  0  0  0  0  0  0  0  0
   -1.7000    0.4208    0.0000 O   0  0  0  0  0  0  0  0  0  0  0  0
    4.7375   -2.4542    0.0000 O   0  0  0  0  0  0  0  0  0  0  0  0
   -3.1333    2.8958    0.0000 C   0  0  0  0  0  0  0  0  0  0  0  0
    5.4500   -2.0375    0.0000 C   0  0  0  0  0  0  0  0  0  0  0  0
   -3.8500    2.4875    0.0000 C   0  0  0  0  0  0  0  0  0  0  0  0
  2  6  1  0  0  0  0
  3  4  1  0  0  0  0
  4  1  1  0  0  0  0
  5  2  2  0  0  0  0
  6  7  1  0  0  0  0
  7  1  2  0  0  0  0
  8  9  1  0  0  0  0
  9  5  1  0  0  0  0
 10  3  2  0  0  0  0
 11  1  1  0  0  0  0
 12  5  1  0  0  0  0
 13 20  1  0  0  0  0
 14  4  2  0  0  0  0
 15 10  1  0  0  0  0
 16 11  2  0  0  0  0
 17 11  1  0  0  0  0
 18  8  1  0  0  0  0
 19  8  1  0  0  0  0
 20 19  1  0  0  0  0
 21 18  1  0  0  0  0
 22 23  1  0  0  0  0
 23 17  2  0  0  0  0
 24 16  1  0  0  0  0
 25 12  1  0  0  0  0
 26 22  1  0  0  0  0
 27 13  1  0  0  0  0
 28 26  1  0  0  0  0
 29 27  1  0  0  0  0
  2  3  1  0  0  0  0
 24 22  2  0  0  0  0
 12 15  2  0  0  0  0
 21 13  1  0  0  0  0
M  END
>  <IDNUMBER>
F3385-1172

>  <Chemical_Name>
8-[(4-ethylpiperazin-1-yl)methyl]-7-hydroxy-3-(4-methoxyphenyl)-4H-chromen-4-one

>  <PriceCoeff>
1.00

>  <CAS>
847181-00-4

>  <MW>
394.46

>  <Description>
solid

>  <FSP3>
0.35

>  <clogP>
3.43

>  <TPSA>
62.24

>  <Acceptor>
6

>  <Donor>
3

>  <RotBonds>
5

>  <HAC>
29

>  <Collection>
General

>  <PPDS>
+

$$$$
F3385-1175
  Mrv2219 10102508112D          

 28 31  0  0  0  0            999 V2000
    6.6917   -4.3542    0.0000 C   0  0  0  0  0  0  0  0  0  0  0  0
    5.2500   -3.5292    0.0000 C   0  0  0  0  0  0  0  0  0  0  0  0
    5.2542   -4.3625    0.0000 C   0  0  0  0  0  0  0  0  0  0  0  0
    5.9667   -4.7667    0.0000 C   0  0  0  0  0  0  0  0  0  0  0  0
    4.5292   -3.1167    0.0000 C   0  0  0  0  0  0  0  0  0  0  0  0
    5.9625   -3.1042    0.0000 O   0  0  0  0  0  0  0  0  0  0  0  0
    6.6875   -3.5167    0.0000 C   0  0  0  0  0  0  0  0  0  0  0  0
    3.8167   -1.8792    0.0000 N   0  0  0  0  0  0  0  0  0  0  0  0
    4.5292   -2.2917    0.0000 C   0  0  0  0  0  0  0  0  0  0  0  0
    4.5292   -4.7667    0.0000 C   0  0  0  0  0  0  0  0  0  0  0  0
    7.4042   -4.7625    0.0000 C   0  0  0  0  0  0  0  0  0  0  0  0
    3.8167   -3.5292    0.0000 C   0  0  0  0  0  0  0  0  0  0  0  0
    2.3792   -1.0542    0.0000 N   0  0  0  0  0  0  0  0  0  0  0  0
    5.9750   -5.5917    0.0000 O   0  0  0  0  0  0  0  0  0  0  0  0
    3.8167   -4.3542    0.0000 C   0  0  0  0  0  0  0  0  0  0  0  0
    7.4042   -5.5917    0.0000 C   0  0  0  0  0  0  0  0  0  0  0  0
    8.1167   -4.3500    0.0000 C   0  0  0  0  0  0  0  0  0  0  0  0
    3.8167   -1.0542    0.0000 C   0  0  0  0  0  0  0  0  0  0  0  0
    3.1042   -2.3000    0.0000 C   0  0  0  0  0  0  0  0  0  0  0  0
    2.3792   -1.8792    0.0000 C   0  0  0  0  0  0  0  0  0  0  0  0
    3.1042   -0.6417    0.0000 C   0  0  0  0  0  0  0  0  0  0  0  0
    8.8292   -5.5875    0.0000 C   0  0  0  0  0  0  0  0  0  0  0  0
    8.8292   -4.7542    0.0000 C   0  0  0  0  0  0  0  0  0  0  0  0
    8.1167   -6.0000    0.0000 C   0  0  0  0  0  0  0  0  0  0  0  0
    3.1042   -3.1167    0.0000 O   0  0  0  0  0  0  0  0  0  0  0  0
    9.5417   -5.9917    0.0000 O   0  0  0  0  0  0  0  0  0  0  0  0
    1.6750   -0.6417    0.0000 C   0  0  0  0  0  0  0  0  0  0  0  0
   10.2542   -5.5792    0.0000 C   0  0  0  0  0  0  0  0  0  0  0  0
  2  6  1  0  0  0  0
  3  4  1  0  0  0  0
  4  1  1  0  0  0  0
  5  2  2  0  0  0  0
  6  7  1  0  0  0  0
  7  1  2  0  0  0  0
  8  9  1  0  0  0  0
  9  5  1  0  0  0  0
 10  3  2  0  0  0  0
 11  1  1  0  0  0  0
 12  5  1  0  0  0  0
 13 20  1  0  0  0  0
 14  4  2  0  0  0  0
 15 10  1  0  0  0  0
 16 11  2  0  0  0  0
 17 11  1  0  0  0  0
 18  8  1  0  0  0  0
 19  8  1  0  0  0  0
 20 19  1  0  0  0  0
 21 18  1  0  0  0  0
 22 23  1  0  0  0  0
 23 17  2  0  0  0  0
 24 16  1  0  0  0  0
 25 12  1  0  0  0  0
 26 22  1  0  0  0  0
 27 13  1  0  0  0  0
 28 26  1  0  0  0  0
  2  3  1  0  0  0  0
 24 22  2  0  0  0  0
 12 15  2  0  0  0  0
 21 13  1  0  0  0  0
M  END
>  <IDNUMBER>
F3385-1175

>  <Chemical_Name>
7-hydroxy-3-(4-methoxyphenyl)-8-[(4-methylpiperazin-1-yl)methyl]-4H-chromen-4-one

>  <PriceCoeff>
1.00

>  <CAS>
845807-32-1

>  <MW>
380.44

>  <Description>
solid

>  <FSP3>
0.32

>  <clogP>
2.78

>  <TPSA>
62.24

>  <Acceptor>
6

>  <Donor>
3

>  <RotBonds>
4

>  <HAC>
28

>  <Collection>
General

>  <PPDS>
+

$$$$
F3385-1184
  Mrv2219 10102508112D          

 24 27  0  0  0  0            999 V2000
    1.8792   -0.8125    0.0000 C   0  0  0  0  0  0  0  0  0  0  0  0
    0.4417    0.0125    0.0000 C   0  0  0  0  0  0  0  0  0  0  0  0
    0.4417   -0.8167    0.0000 C   0  0  0  0  0  0  0  0  0  0  0  0
    1.1625   -1.2292    0.0000 C   0  0  0  0  0  0  0  0  0  0  0  0
   -0.2750    0.4250    0.0000 C   0  0  0  0  0  0  0  0  0  0  0  0
    1.1542    0.4375    0.0000 O   0  0  0  0  0  0  0  0  0  0  0  0
    1.8792    0.0208    0.0000 C   0  0  0  0  0  0  0  0  0  0  0  0
   -0.2833    1.2500    0.0000 C   0  0  0  0  0  0  0  0  0  0  0  0
   -0.2750   -1.2292    0.0000 C   0  0  0  0  0  0  0  0  0  0  0  0
   -0.9958    1.6583    0.0000 N   0  0  0  0  0  0  0  0  0  0  0  0
   -0.9875    0.0125    0.0000 C   0  0  0  0  0  0  0  0  0  0  0  0
    2.5917   -1.2250    0.0000 C   0  0  0  0  0  0  0  0  0  0  0  0
    1.1667   -2.0542    0.0000 O   0  0  0  0  0  0  0  0  0  0  0  0
   -0.9875   -0.8167    0.0000 C   0  0  0  0  0  0  0  0  0  0  0  0
   -1.7000    0.4208    0.0000 O   0  0  0  0  0  0  0  0  0  0  0  0
   -1.0833    2.4833    0.0000 C   0  0  0  0  0  0  0  0  0  0  0  0
   -1.7458    1.3250    0.0000 C   0  0  0  0  0  0  0  0  0  0  0  0
    2.5917   -2.0500    0.0000 C   0  0  0  0  0  0  0  0  0  0  0  0
    3.3042   -0.8042    0.0000 C   0  0  0  0  0  0  0  0  0  0  0  0
   -2.2958    1.9375    0.0000 C   0  0  0  0  0  0  0  0  0  0  0  0
   -1.8875    2.6583    0.0000 C   0  0  0  0  0  0  0  0  0  0  0  0
    4.0167   -1.2167    0.0000 C   0  0  0  0  0  0  0  0  0  0  0  0
    3.3125   -2.4542    0.0000 C   0  0  0  0  0  0  0  0  0  0  0  0
    4.0250   -2.0417    0.0000 C   0  0  0  0  0  0  0  0  0  0  0  0
  2  6  1  0  0  0  0
  3  4  1  0  0  0  0
  4  1  1  0  0  0  0
  5  2  2  0  0  0  0
  6  7  1  0  0  0  0
  7  1  2  0  0  0  0
  8  5  1  0  0  0  0
  9  3  2  0  0  0  0
 10  8  1  0  0  0  0
 11  5  1  0  0  0  0
 12  1  1  0  0  0  0
 13  4  2  0  0  0  0
 14  9  1  0  0  0  0
 15 11  1  0  0  0  0
 16 10  1  0  0  0  0
 17 10  1  0  0  0  0
 18 12  2  0  0  0  0
 19 12  1  0  0  0  0
 20 17  1  0  0  0  0
 21 16  1  0  0  0  0
 22 19  2  0  0  0  0
 23 18  1  0  0  0  0
 24 22  1  0  0  0  0
  2  3  1  0  0  0  0
 23 24  2  0  0  0  0
 11 14  2  0  0  0  0
 21 20  1  0  0  0  0
M  END
>  <IDNUMBER>
F3385-1184

>  <Chemical_Name>
7-hydroxy-3-phenyl-8-[(pyrrolidin-1-yl)methyl]-4H-chromen-4-one

>  <PriceCoeff>
1.00

>  <CAS>
448238-32-2

>  <MW>
321.37

>  <Description>
solid

>  <FSP3>
0.25

>  <clogP>
3.13

>  <TPSA>
49.77

>  <Acceptor>
3

>  <Donor>
2

>  <RotBonds>
3

>  <HAC>
24

>  <Collection>
General

>  <PPDS>
+

$$$$
F3385-1210
  Mrv2219 10102508112D          

 28 31  0  0  0  0            999 V2000
    2.5779   -0.8788    0.0000 C   0  0  0  0  0  0  0  0  0  0  0  0
    1.8533   -1.2911    0.0000 C   0  0  0  0  0  0  0  0  0  0  0  0
    1.1369   -0.8788    0.0000 C   0  0  0  0  0  0  0  0  0  0  0  0
    2.5779   -0.0417    0.0000 C   0  0  0  0  0  0  0  0  0  0  0  0
    1.1411   -0.0417    0.0000 C   0  0  0  0  0  0  0  0  0  0  0  0
    1.8533    0.3748    0.0000 O   0  0  0  0  0  0  0  0  0  0  0  0
    3.2859   -1.2911    0.0000 C   0  0  0  0  0  0  0  0  0  0  0  0
    0.4248   -1.2869    0.0000 C   0  0  0  0  0  0  0  0  0  0  0  0
    0.4248    0.3706    0.0000 C   0  0  0  0  0  0  0  0  0  0  0  0
    1.8533   -2.1157    0.0000 O   0  0  0  0  0  0  0  0  0  0  0  0
   -2.4321    0.3623    0.0000 C   0  0  0  0  0  0  0  0  0  0  0  0
   -1.7200   -0.0500    0.0000 C   0  0  0  0  0  0  0  0  0  0  0  0
   -0.2874   -0.0500    0.0000 C   0  0  0  0  0  0  0  0  0  0  0  0
    3.2776   -2.1157    0.0000 C   0  0  0  0  0  0  0  0  0  0  0  0
    3.9980   -0.8788    0.0000 C   0  0  0  0  0  0  0  0  0  0  0  0
   -3.1360   -0.0500    0.0000 C   0  0  0  0  0  0  0  0  0  0  0  0
   -0.9995    0.3623    0.0000 O   0  0  0  0  0  0  0  0  0  0  0  0
   -0.2874   -0.8746    0.0000 C   0  0  0  0  0  0  0  0  0  0  0  0
    4.7102   -2.1240    0.0000 C   0  0  0  0  0  0  0  0  0  0  0  0
    4.7102   -1.2911    0.0000 C   0  0  0  0  0  0  0  0  0  0  0  0
    3.9897   -2.5280    0.0000 C   0  0  0  0  0  0  0  0  0  0  0  0
    5.4223   -2.5363    0.0000 O   0  0  0  0  0  0  0  0  0  0  0  0
   -2.4238    1.1952    0.0000 C   0  0  0  0  0  0  0  0  0  0  0  0
   -3.1360   -0.8746    0.0000 C   0  0  0  0  0  0  0  0  0  0  0  0
   -3.8564    0.3581    0.0000 C   0  0  0  0  0  0  0  0  0  0  0  0
    6.1387   -2.1240    0.0000 C   0  0  0  0  0  0  0  0  0  0  0  0
   -3.8564    1.1869    0.0000 C   0  0  0  0  0  0  0  0  0  0  0  0
   -3.1443    1.5992    0.0000 C   0  0  0  0  0  0  0  0  0  0  0  0
  2  1  1  0  0  0  0
  3  2  1  0  0  0  0
  4  1  2  0  0  0  0
  5  6  1  0  0  0  0
  6  4  1  0  0  0  0
  7  1  1  0  0  0  0
  8  3  2  0  0  0  0
  9  5  2  0  0  0  0
 10  2  2  0  0  0  0
 11 12  1  0  0  0  0
 12 17  1  0  0  0  0
 13  9  1  0  0  0  0
 14  7  2  0  0  0  0
 15  7  1  0  0  0  0
 16 11  1  0  0  0  0
 17 13  1  0  0  0  0
 18  8  1  0  0  0  0
 19 20  1  0  0  0  0
 20 15  2  0  0  0  0
 21 14  1  0  0  0  0
 22 19  1  0  0  0  0
 23 11  2  0  0  0  0
 24 16  1  0  0  0  0
 25 16  2  0  0  0  0
 26 22  1  0  0  0  0
 27 28  2  0  0  0  0
 28 23  1  0  0  0  0
 21 19  2  0  0  0  0
  5  3  1  0  0  0  0
 13 18  2  0  0  0  0
 25 27  1  0  0  0  0
M  END
>  <IDNUMBER>
F3385-1210

>  <Chemical_Name>
3-(4-methoxyphenyl)-7-[(2-methylphenyl)methoxy]-4H-chromen-4-one

>  <PriceCoeff>
1.00

>  <CAS>
858766-83-3

>  <MW>
372.41

>  <Description>
solid

>  <FSP3>
0.12

>  <clogP>
5.24

>  <TPSA>
44.76

>  <Acceptor>
4

>  <Donor>
0

>  <RotBonds>
5

>  <HAC>
28

>  <Collection>
General

>  <PPDS>
+

$$$$
F3385-1239
  Mrv2219 10102508112D          

 28 31  0  0  0  0            999 V2000
    5.3171   -1.6086    0.0000 C   0  0  0  0  0  0  0  0  0  0  0  0
    4.5878   -2.0198    0.0000 C   0  0  0  0  0  0  0  0  0  0  0  0
    3.8818   -1.6086    0.0000 C   0  0  0  0  0  0  0  0  0  0  0  0
    5.3171   -0.7862    0.0000 C   0  0  0  0  0  0  0  0  0  0  0  0
    3.8818   -0.7862    0.0000 C   0  0  0  0  0  0  0  0  0  0  0  0
    4.5878   -0.3673    0.0000 O   0  0  0  0  0  0  0  0  0  0  0  0
    6.0231   -2.0276    0.0000 C   0  0  0  0  0  0  0  0  0  0  0  0
    3.1654   -2.0198    0.0000 C   0  0  0  0  0  0  0  0  0  0  0  0
    3.1654   -0.3673    0.0000 C   0  0  0  0  0  0  0  0  0  0  0  0
    4.5878   -2.8422    0.0000 O   0  0  0  0  0  0  0  0  0  0  0  0
    2.4543   -0.7991    0.0000 C   0  0  0  0  0  0  0  0  0  0  0  0
    6.7421   -1.6086    0.0000 C   0  0  0  0  0  0  0  0  0  0  0  0
    6.0231   -2.8551    0.0000 C   0  0  0  0  0  0  0  0  0  0  0  0
    1.7301   -0.3673    0.0000 O   0  0  0  0  0  0  0  0  0  0  0  0
    2.4543   -1.6086    0.0000 C   0  0  0  0  0  0  0  0  0  0  0  0
    0.3052   -0.3595    0.0000 C   0  0  0  0  0  0  0  0  0  0  0  0
    7.4481   -2.8551    0.0000 C   0  0  0  0  0  0  0  0  0  0  0  0
    1.0190   -0.7862    0.0000 C   0  0  0  0  0  0  0  0  0  0  0  0
    7.4481   -2.0198    0.0000 C   0  0  0  0  0  0  0  0  0  0  0  0
    6.7292   -3.2689    0.0000 C   0  0  0  0  0  0  0  0  0  0  0  0
   -1.1224    0.4655    0.0000 C   0  0  0  0  0  0  0  0  0  0  0  0
    0.3129    0.4551    0.0000 C   0  0  0  0  0  0  0  0  0  0  0  0
   -0.4034   -0.7758    0.0000 C   0  0  0  0  0  0  0  0  0  0  0  0
   -0.3931    0.8741    0.0000 C   0  0  0  0  0  0  0  0  0  0  0  0
   -1.1224   -0.3595    0.0000 C   0  0  0  0  0  0  0  0  0  0  0  0
    8.1645   -3.2689    0.0000 O   0  0  0  0  0  0  0  0  0  0  0  0
   -1.8284    0.8741    0.0000 C   0  0  0  0  0  0  0  0  0  0  0  0
    8.8860   -2.8655    0.0000 C   0  0  0  0  0  0  0  0  0  0  0  0
  2  1  1  0  0  0  0
  3  2  1  0  0  0  0
  4  1  2  0  0  0  0
  5  6  1  0  0  0  0
  6  4  1  0  0  0  0
  7  1  1  0  0  0  0
  8  3  2  0  0  0  0
  9  5  2  0  0  0  0
 10  2  2  0  0  0  0
 11  9  1  0  0  0  0
 12  7  1  0  0  0  0
 13  7  2  0  0  0  0
 14 11  1  0  0  0  0
 15  8  1  0  0  0  0
 16 18  1  0  0  0  0
 17 20  2  0  0  0  0
 18 14  1  0  0  0  0
 19 12  2  0  0  0  0
 20 13  1  0  0  0  0
 21 25  1  0  0  0  0
 22 16  2  0  0  0  0
 23 16  1  0  0  0  0
 24 22  1  0  0  0  0
 25 23  2  0  0  0  0
 26 17  1  0  0  0  0
 27 21  1  0  0  0  0
 28 26  1  0  0  0  0
 17 19  1  0  0  0  0
  5  3  1  0  0  0  0
 11 15  2  0  0  0  0
 21 24  2  0  0  0  0
M  END
>  <IDNUMBER>
F3385-1239

>  <Chemical_Name>
3-(4-methoxyphenyl)-7-[(4-methylphenyl)methoxy]-4H-chromen-4-one

>  <PriceCoeff>
1.00

>  <MW>
372.41

>  <Description>
solid

>  <FSP3>
0.12

>  <clogP>
5.29

>  <TPSA>
44.76

>  <Acceptor>
4

>  <Donor>
0

>  <RotBonds>
5

>  <HAC>
28

>  <Collection>
General

$$$$
F3385-1240
  Mrv2219 10102508112D          

 28 31  0  0  0  0            999 V2000
    6.7292   -0.6125    0.0000 C   0  0  0  0  0  0  0  0  0  0  0  0
    6.0042   -1.0250    0.0000 C   0  0  0  0  0  0  0  0  0  0  0  0
    5.2875   -0.6125    0.0000 C   0  0  0  0  0  0  0  0  0  0  0  0
    6.7292    0.2208    0.0000 C   0  0  0  0  0  0  0  0  0  0  0  0
    5.2917    0.2208    0.0000 C   0  0  0  0  0  0  0  0  0  0  0  0
    6.0042    0.6458    0.0000 O   0  0  0  0  0  0  0  0  0  0  0  0
    7.4375   -1.0250    0.0000 C   0  0  0  0  0  0  0  0  0  0  0  0
    4.5750   -1.0167    0.0000 C   0  0  0  0  0  0  0  0  0  0  0  0
    4.5750    0.6333    0.0000 C   0  0  0  0  0  0  0  0  0  0  0  0
    6.0042   -1.8500    0.0000 O   0  0  0  0  0  0  0  0  0  0  0  0
    3.8625    0.2208    0.0000 C   0  0  0  0  0  0  0  0  0  0  0  0
    7.4292   -1.8542    0.0000 C   0  0  0  0  0  0  0  0  0  0  0  0
    8.1500   -0.6167    0.0000 C   0  0  0  0  0  0  0  0  0  0  0  0
    3.1500    0.6333    0.0000 O   0  0  0  0  0  0  0  0  0  0  0  0
    3.8625   -0.6042    0.0000 C   0  0  0  0  0  0  0  0  0  0  0  0
    0.2917    1.4583    0.0000 C   0  0  0  0  0  0  0  0  0  0  0  0
    1.7167    0.6333    0.0000 C   0  0  0  0  0  0  0  0  0  0  0  0
    8.8625   -1.8542    0.0000 C   0  0  0  0  0  0  0  0  0  0  0  0
    2.4292    0.2208    0.0000 C   0  0  0  0  0  0  0  0  0  0  0  0
    8.8625   -1.0292    0.0000 C   0  0  0  0  0  0  0  0  0  0  0  0
    8.1417   -2.2667    0.0000 C   0  0  0  0  0  0  0  0  0  0  0  0
   -0.4208    1.8708    0.0000 F   0  0  0  0  0  0  0  0  0  0  0  0
    0.2917    0.6250    0.0000 C   0  0  0  0  0  0  0  0  0  0  0  0
    1.0042    1.8708    0.0000 C   0  0  0  0  0  0  0  0  0  0  0  0
    1.0125    0.2208    0.0000 C   0  0  0  0  0  0  0  0  0  0  0  0
    1.7250    1.4583    0.0000 C   0  0  0  0  0  0  0  0  0  0  0  0
    9.5750   -2.2667    0.0000 O   0  0  0  0  0  0  0  0  0  0  0  0
   10.2917   -1.8542    0.0000 C   0  0  0  0  0  0  0  0  0  0  0  0
  2  1  1  0  0  0  0
  3  2  1  0  0  0  0
  4  1  2  0  0  0  0
  5  6  1  0  0  0  0
  6  4  1  0  0  0  0
  7  1  1  0  0  0  0
  8  3  2  0  0  0  0
  9  5  2  0  0  0  0
 10  2  2  0  0  0  0
 11  9  1  0  0  0  0
 12  7  2  0  0  0  0
 13  7  1  0  0  0  0
 14 11  1  0  0  0  0
 15  8  1  0  0  0  0
 16 24  2  0  0  0  0
 17 19  1  0  0  0  0
 18 20  1  0  0  0  0
 19 14  1  0  0  0  0
 20 13  2  0  0  0  0
 21 12  1  0  0  0  0
 22 16  1  0  0  0  0
 23 25  2  0  0  0  0
 24 26  1  0  0  0  0
 25 17  1  0  0  0  0
 26 17  2  0  0  0  0
 27 18  1  0  0  0  0
 28 27  1  0  0  0  0
 18 21  2  0  0  0  0
  3  5  1  0  0  0  0
 15 11  2  0  0  0  0
 16 23  1  0  0  0  0
M  END
>  <IDNUMBER>
F3385-1240

>  <Chemical_Name>
7-[(4-fluorophenyl)methoxy]-3-(4-methoxyphenyl)-4H-chromen-4-one

>  <PriceCoeff>
1.00

>  <CAS>
331809-55-3

>  <MW>
376.38

>  <Description>
solid

>  <FSP3>
0.09

>  <clogP>
4.93

>  <TPSA>
44.76

>  <Acceptor>
4

>  <Donor>
0

>  <RotBonds>
5

>  <HAC>
28

>  <Collection>
General

>  <PPDS>
+

$$$$
F3385-1245
  Mrv2219 10102508112D          

 27 30  0  0  0  0            999 V2000
    6.9167   -1.2667    0.0000 C   0  0  0  0  0  0  0  0  0  0  0  0
    5.4792   -0.4292    0.0000 C   0  0  0  0  0  0  0  0  0  0  0  0
    5.4750   -1.2667    0.0000 C   0  0  0  0  0  0  0  0  0  0  0  0
    6.1917   -1.6792    0.0000 C   0  0  0  0  0  0  0  0  0  0  0  0
    4.7625   -0.0167    0.0000 C   0  0  0  0  0  0  0  0  0  0  0  0
    6.1917   -0.0125    0.0000 O   0  0  0  0  0  0  0  0  0  0  0  0
    6.9167   -0.4292    0.0000 C   0  0  0  0  0  0  0  0  0  0  0  0
    4.0417    1.2125    0.0000 N   0  0  0  0  0  0  0  0  0  0  0  0
    4.7542    0.8083    0.0000 C   0  0  0  0  0  0  0  0  0  0  0  0
    4.7625   -1.6750    0.0000 C   0  0  0  0  0  0  0  0  0  0  0  0
    4.0500   -0.4375    0.0000 C   0  0  0  0  0  0  0  0  0  0  0  0
    2.6167    2.0458    0.0000 N   0  0  0  0  0  0  0  0  0  0  0  0
    7.6250   -1.6792    0.0000 C   0  0  0  0  0  0  0  0  0  0  0  0
    6.1917   -2.5042    0.0000 O   0  0  0  0  0  0  0  0  0  0  0  0
    4.0500   -1.2625    0.0000 C   0  0  0  0  0  0  0  0  0  0  0  0
    4.0417    2.0458    0.0000 C   0  0  0  0  0  0  0  0  0  0  0  0
    3.3292    0.8000    0.0000 C   0  0  0  0  0  0  0  0  0  0  0  0
    2.6167    1.2125    0.0000 C   0  0  0  0  0  0  0  0  0  0  0  0
    3.3292    2.4583    0.0000 C   0  0  0  0  0  0  0  0  0  0  0  0
    3.3375   -0.0250    0.0000 O   0  0  0  0  0  0  0  0  0  0  0  0
    1.9042    2.4583    0.0000 C   0  0  0  0  0  0  0  0  0  0  0  0
    8.3375   -1.2667    0.0000 C   0  0  0  0  0  0  0  0  0  0  0  0
    7.6167   -2.5042    0.0000 C   0  0  0  0  0  0  0  0  0  0  0  0
    1.1875    2.0458    0.0000 C   0  0  0  0  0  0  0  0  0  0  0  0
    9.0500   -1.6792    0.0000 C   0  0  0  0  0  0  0  0  0  0  0  0
    8.3292   -2.9167    0.0000 C   0  0  0  0  0  0  0  0  0  0  0  0
    9.0500   -2.5125    0.0000 C   0  0  0  0  0  0  0  0  0  0  0  0
  2  6  1  0  0  0  0
  3  4  1  0  0  0  0
  4  1  1  0  0  0  0
  5  2  2  0  0  0  0
  6  7  1  0  0  0  0
  7  1  2  0  0  0  0
  8  9  1  0  0  0  0
  9  5  1  0  0  0  0
 10  3  2  0  0  0  0
 11  5  1  0  0  0  0
 12 18  1  0  0  0  0
 13  1  1  0  0  0  0
 14  4  2  0  0  0  0
 15 10  1  0  0  0  0
 16  8  1  0  0  0  0
 17  8  1  0  0  0  0
 18 17  1  0  0  0  0
 19 16  1  0  0  0  0
 20 11  1  0  0  0  0
 21 12  1  0  0  0  0
 22 13  1  0  0  0  0
 23 13  2  0  0  0  0
 24 21  1  0  0  0  0
 25 22  2  0  0  0  0
 26 23  1  0  0  0  0
 27 26  2  0  0  0  0
  3  2  1  0  0  0  0
 25 27  1  0  0  0  0
 15 11  2  0  0  0  0
 12 19  1  0  0  0  0
M  END
>  <IDNUMBER>
F3385-1245

>  <Chemical_Name>
8-[(4-ethylpiperazin-1-yl)methyl]-7-hydroxy-3-phenyl-4H-chromen-4-one

>  <PriceCoeff>
1.00

>  <CAS>
847379-61-7

>  <MW>
364.44

>  <Description>
solid

>  <FSP3>
0.32

>  <clogP>
3.50

>  <TPSA>
53.01

>  <Acceptor>
5

>  <Donor>
3

>  <RotBonds>
4

>  <HAC>
27

>  <Collection>
General

>  <PPDS>
+

$$$$
F3385-1336
  Mrv2219 10102508112D          

 30 33  0  0  0  0            999 V2000
    6.0292   -4.2292    0.0000 C   0  0  0  0  0  0  0  0  0  0  0  0
    5.3125   -4.6417    0.0000 C   0  0  0  0  0  0  0  0  0  0  0  0
    4.6000   -4.2292    0.0000 C   0  0  0  0  0  0  0  0  0  0  0  0
    1.7292   -3.4042    0.0000 C   0  0  0  0  0  0  0  0  0  0  0  0
    6.0292   -3.4042    0.0000 C   0  0  0  0  0  0  0  0  0  0  0  0
    1.0167   -3.0000    0.0000 C   0  0  0  0  0  0  0  0  0  0  0  0
    4.6000   -3.4042    0.0000 C   0  0  0  0  0  0  0  0  0  0  0  0
    5.3125   -2.9917    0.0000 O   0  0  0  0  0  0  0  0  0  0  0  0
    2.4417   -2.9917    0.0000 O   0  0  0  0  0  0  0  0  0  0  0  0
    3.8875   -2.9917    0.0000 C   0  0  0  0  0  0  0  0  0  0  0  0
    6.7417   -4.6417    0.0000 C   0  0  0  0  0  0  0  0  0  0  0  0
    3.8875   -4.6417    0.0000 C   0  0  0  0  0  0  0  0  0  0  0  0
    3.1667   -3.4042    0.0000 C   0  0  0  0  0  0  0  0  0  0  0  0
    5.3125   -5.4667    0.0000 O   0  0  0  0  0  0  0  0  0  0  0  0
    1.0167   -2.1750    0.0000 C   0  0  0  0  0  0  0  0  0  0  0  0
    1.7292   -4.2292    0.0000 O   0  0  0  0  0  0  0  0  0  0  0  0
    6.7417   -5.4750    0.0000 C   0  0  0  0  0  0  0  0  0  0  0  0
    7.4542   -4.2292    0.0000 C   0  0  0  0  0  0  0  0  0  0  0  0
    3.1667   -4.2292    0.0000 C   0  0  0  0  0  0  0  0  0  0  0  0
    8.1750   -5.4750    0.0000 C   0  0  0  0  0  0  0  0  0  0  0  0
    7.4542   -5.8875    0.0000 C   0  0  0  0  0  0  0  0  0  0  0  0
    8.1750   -4.6417    0.0000 C   0  0  0  0  0  0  0  0  0  0  0  0
    0.3042   -3.4125    0.0000 C   0  0  0  0  0  0  0  0  0  0  0  0
    1.7292   -1.7625    0.0000 O   0  0  0  0  0  0  0  0  0  0  0  0
    8.9000   -5.8917    0.0000 O   0  0  0  0  0  0  0  0  0  0  0  0
    0.3042   -1.7625    0.0000 C   0  0  0  0  0  0  0  0  0  0  0  0
    1.7292   -0.9375    0.0000 C   0  0  0  0  0  0  0  0  0  0  0  0
    8.9042   -6.7250    0.0000 C   0  0  0  0  0  0  0  0  0  0  0  0
   -0.4083   -3.0042    0.0000 C   0  0  0  0  0  0  0  0  0  0  0  0
   -0.4083   -2.1750    0.0000 C   0  0  0  0  0  0  0  0  0  0  0  0
  2  1  1  0  0  0  0
  3  2  1  0  0  0  0
  4  9  1  0  0  0  0
  5  1  2  0  0  0  0
  6  4  1  0  0  0  0
  7  8  1  0  0  0  0
  8  5  1  0  0  0  0
  9 13  1  0  0  0  0
 10  7  2  0  0  0  0
 11  1  1  0  0  0  0
 12  3  2  0  0  0  0
 13 10  1  0  0  0  0
 14  2  2  0  0  0  0
 15  6  2  0  0  0  0
 16  4  2  0  0  0  0
 17 11  2  0  0  0  0
 18 11  1  0  0  0  0
 19 12  1  0  0  0  0
 20 22  1  0  0  0  0
 21 17  1  0  0  0  0
 22 18  2  0  0  0  0
 23  6  1  0  0  0  0
 24 15  1  0  0  0  0
 25 20  1  0  0  0  0
 26 15  1  0  0  0  0
 27 24  1  0  0  0  0
 28 25  1  0  0  0  0
 29 23  2  0  0  0  0
 30 29  1  0  0  0  0
 21 20  2  0  0  0  0
  7  3  1  0  0  0  0
 13 19  2  0  0  0  0
 30 26  2  0  0  0  0
M  END
>  <IDNUMBER>
F3385-1336

>  <Chemical_Name>
3-(4-methoxyphenyl)-4-oxo-4H-chromen-7-yl 2-methoxybenzoate

>  <PriceCoeff>
1.00

>  <CAS>
858758-57-3

>  <MW>
402.40

>  <Description>
solid

>  <FSP3>
0.08

>  <clogP>
4.51

>  <TPSA>
71.06

>  <Acceptor>
6

>  <Donor>
0

>  <RotBonds>
6

>  <HAC>
30

>  <Collection>
General

$$$$
F3385-1337
  Mrv2219 10102508112D          

 26 28  0  0  0  0            999 V2000
    6.0292   -4.2292    0.0000 C   0  0  0  0  0  0  0  0  0  0  0  0
    5.3125   -4.6417    0.0000 C   0  0  0  0  0  0  0  0  0  0  0  0
    4.6000   -4.2292    0.0000 C   0  0  0  0  0  0  0  0  0  0  0  0
    6.0292   -3.4042    0.0000 C   0  0  0  0  0  0  0  0  0  0  0  0
    4.6000   -3.4042    0.0000 C   0  0  0  0  0  0  0  0  0  0  0  0
    5.3125   -2.9917    0.0000 O   0  0  0  0  0  0  0  0  0  0  0  0
    1.7292   -3.4042    0.0000 C   0  0  0  0  0  0  0  0  0  0  0  0
    3.8875   -2.9917    0.0000 C   0  0  0  0  0  0  0  0  0  0  0  0
    6.7417   -4.6417    0.0000 C   0  0  0  0  0  0  0  0  0  0  0  0
    2.4417   -2.9917    0.0000 O   0  0  0  0  0  0  0  0  0  0  0  0
    3.8875   -4.6417    0.0000 C   0  0  0  0  0  0  0  0  0  0  0  0
    1.0167   -2.9917    0.0000 C   0  0  0  0  0  0  0  0  0  0  0  0
    3.1667   -3.4042    0.0000 C   0  0  0  0  0  0  0  0  0  0  0  0
    5.3125   -5.4667    0.0000 O   0  0  0  0  0  0  0  0  0  0  0  0
    1.7292   -4.2292    0.0000 O   0  0  0  0  0  0  0  0  0  0  0  0
    7.4542   -4.2292    0.0000 C   0  0  0  0  0  0  0  0  0  0  0  0
    6.7417   -5.4750    0.0000 C   0  0  0  0  0  0  0  0  0  0  0  0
    3.1667   -4.2292    0.0000 C   0  0  0  0  0  0  0  0  0  0  0  0
    8.1750   -5.4750    0.0000 C   0  0  0  0  0  0  0  0  0  0  0  0
    8.1750   -4.6417    0.0000 C   0  0  0  0  0  0  0  0  0  0  0  0
    7.4542   -5.8875    0.0000 C   0  0  0  0  0  0  0  0  0  0  0  0
    8.9000   -5.8917    0.0000 O   0  0  0  0  0  0  0  0  0  0  0  0
    0.3042   -2.5792    0.0000 C   0  0  0  0  0  0  0  0  0  0  0  0
    1.4292   -2.2792    0.0000 C   0  0  0  0  0  0  0  0  0  0  0  0
    0.6042   -3.7042    0.0000 C   0  0  0  0  0  0  0  0  0  0  0  0
    8.9042   -6.7250    0.0000 C   0  0  0  0  0  0  0  0  0  0  0  0
  2  1  1  0  0  0  0
  3  2  1  0  0  0  0
  4  1  2  0  0  0  0
  5  6  1  0  0  0  0
  6  4  1  0  0  0  0
  7 10  1  0  0  0  0
  8  5  2  0  0  0  0
  9  1  1  0  0  0  0
 10 13  1  0  0  0  0
 11  3  2  0  0  0  0
 12  7  1  0  0  0  0
 13  8  1  0  0  0  0
 14  2  2  0  0  0  0
 15  7  2  0  0  0  0
 16  9  1  0  0  0  0
 17  9  2  0  0  0  0
 18 11  1  0  0  0  0
 19 21  2  0  0  0  0
 20 16  2  0  0  0  0
 21 17  1  0  0  0  0
 22 19  1  0  0  0  0
 23 12  1  0  0  0  0
 24 12  1  0  0  0  0
 25 12  1  0  0  0  0
 26 22  1  0  0  0  0
 20 19  1  0  0  0  0
  3  5  1  0  0  0  0
 18 13  2  0  0  0  0
M  END
>  <IDNUMBER>
F3385-1337

>  <Chemical_Name>
3-(4-methoxyphenyl)-4-oxo-4H-chromen-7-yl 2,2-dimethylpropanoate

>  <PriceCoeff>
1.00

>  <CAS>
444643-83-8

>  <MW>
352.38

>  <Description>
solid

>  <FSP3>
0.24

>  <clogP>
3.69

>  <TPSA>
61.83

>  <Acceptor>
5

>  <Donor>
0

>  <RotBonds>
4

>  <HAC>
26

>  <Collection>
General

>  <PPDS>
+

$$$$
F3385-1569
  Mrv2219 10102508112D          

 23 25  0  0  0  0            999 V2000
    1.3167   -1.2375    0.0000 C   0  0  0  0  0  0  0  0  0  0  0  0
    0.5917   -1.6542    0.0000 C   0  0  0  0  0  0  0  0  0  0  0  0
   -0.1208   -1.2417    0.0000 C   0  0  0  0  0  0  0  0  0  0  0  0
   -2.9833   -0.4125    0.0000 C   0  0  0  0  0  0  0  0  0  0  0  0
    1.3125   -0.4042    0.0000 C   0  0  0  0  0  0  0  0  0  0  0  0
   -0.1250   -0.4125    0.0000 C   0  0  0  0  0  0  0  0  0  0  0  0
    0.5875    0.0125    0.0000 O   0  0  0  0  0  0  0  0  0  0  0  0
   -2.2708   -0.0042    0.0000 O   0  0  0  0  0  0  0  0  0  0  0  0
   -0.8458    0.0000    0.0000 C   0  0  0  0  0  0  0  0  0  0  0  0
   -0.8458   -1.6542    0.0000 C   0  0  0  0  0  0  0  0  0  0  0  0
   -3.6958    0.0083    0.0000 N   0  0  0  0  0  0  0  0  0  0  0  0
    2.0292   -1.6500    0.0000 C   0  0  0  0  0  0  0  0  0  0  0  0
   -1.5583   -0.4125    0.0000 C   0  0  0  0  0  0  0  0  0  0  0  0
    0.6000   -2.4792    0.0000 O   0  0  0  0  0  0  0  0  0  0  0  0
   -2.9958   -1.2375    0.0000 O   0  0  0  0  0  0  0  0  0  0  0  0
   -1.5583   -1.2417    0.0000 C   0  0  0  0  0  0  0  0  0  0  0  0
   -3.6958    0.8333    0.0000 C   0  0  0  0  0  0  0  0  0  0  0  0
   -4.4125   -0.4000    0.0000 C   0  0  0  0  0  0  0  0  0  0  0  0
    2.7417   -1.2292    0.0000 C   0  0  0  0  0  0  0  0  0  0  0  0
    2.0292   -2.4750    0.0000 C   0  0  0  0  0  0  0  0  0  0  0  0
    2.7417   -2.8792    0.0000 C   0  0  0  0  0  0  0  0  0  0  0  0
    3.4542   -1.6417    0.0000 C   0  0  0  0  0  0  0  0  0  0  0  0
    3.4542   -2.4667    0.0000 C   0  0  0  0  0  0  0  0  0  0  0  0
  2  1  1  0  0  0  0
  3  2  1  0  0  0  0
  4  8  1  0  0  0  0
  5  1  2  0  0  0  0
  6  7  1  0  0  0  0
  7  5  1  0  0  0  0
  8 13  1  0  0  0  0
  9  6  2  0  0  0  0
 10  3  2  0  0  0  0
 11  4  1  0  0  0  0
 12  1  1  0  0  0  0
 13  9  1  0  0  0  0
 14  2  2  0  0  0  0
 15  4  2  0  0  0  0
 16 10  1  0  0  0  0
 17 11  1  0  0  0  0
 18 11  1  0  0  0  0
 19 12  1  0  0  0  0
 20 12  2  0  0  0  0
 21 20  1  0  0  0  0
 22 19  2  0  0  0  0
 23 21  2  0  0  0  0
  6  3  1  0  0  0  0
 22 23  1  0  0  0  0
 13 16  2  0  0  0  0
M  END
>  <IDNUMBER>
F3385-1569

>  <Chemical_Name>
4-oxo-3-phenyl-4H-chromen-7-yl N,N-dimethylcarbamate

>  <PriceCoeff>
1.00

>  <CAS>
858765-51-2

>  <MW>
309.32

>  <Description>
solid

>  <FSP3>
0.11

>  <clogP>
2.45

>  <TPSA>
55.84

>  <Acceptor>
4

>  <Donor>
0

>  <RotBonds>
4

>  <HAC>
23

>  <Collection>
General

>  <PPDS>
+

$$$$
F3385-1741
  Mrv2219 10102508112D          

 33 37  0  0  0  0            999 V2000
    3.1532   -0.7373    0.0000 C   0  0  0  0  0  0  0  0  0  0  0  0
    2.4368   -1.1538    0.0000 C   0  0  0  0  0  0  0  0  0  0  0  0
    1.7162   -0.7415    0.0000 C   0  0  0  0  0  0  0  0  0  0  0  0
    3.1532    0.0958    0.0000 C   0  0  0  0  0  0  0  0  0  0  0  0
    1.7162    0.0875    0.0000 C   0  0  0  0  0  0  0  0  0  0  0  0
    3.8738   -1.1497    0.0000 C   0  0  0  0  0  0  0  0  0  0  0  0
    2.4285    0.5123    0.0000 O   0  0  0  0  0  0  0  0  0  0  0  0
    5.2901   -1.1414    0.0000 C   0  0  0  0  0  0  0  0  0  0  0  0
    4.5778   -0.7290    0.0000 C   0  0  0  0  0  0  0  0  0  0  0  0
    0.9997   -1.1538    0.0000 C   0  0  0  0  0  0  0  0  0  0  0  0
    0.9997    0.4998    0.0000 C   0  0  0  0  0  0  0  0  0  0  0  0
    5.2901   -1.9744    0.0000 C   0  0  0  0  0  0  0  0  0  0  0  0
   -1.8577    0.4956    0.0000 C   0  0  0  0  0  0  0  0  0  0  0  0
    2.4410   -1.9786    0.0000 O   0  0  0  0  0  0  0  0  0  0  0  0
   -2.5700    0.0833    0.0000 C   0  0  0  0  0  0  0  0  0  0  0  0
    6.0107   -0.7165    0.0000 O   0  0  0  0  0  0  0  0  0  0  0  0
    3.8655   -1.9744    0.0000 C   0  0  0  0  0  0  0  0  0  0  0  0
    6.0149   -2.3868    0.0000 O   0  0  0  0  0  0  0  0  0  0  0  0
   -1.1455    0.0833    0.0000 C   0  0  0  0  0  0  0  0  0  0  0  0
    4.5861   -2.3785    0.0000 C   0  0  0  0  0  0  0  0  0  0  0  0
   -1.8577    1.3204    0.0000 O   0  0  0  0  0  0  0  0  0  0  0  0
    0.2874    0.0875    0.0000 C   0  0  0  0  0  0  0  0  0  0  0  0
   -0.4249    0.4956    0.0000 O   0  0  0  0  0  0  0  0  0  0  0  0
   -3.2823    0.4998    0.0000 C   0  0  0  0  0  0  0  0  0  0  0  0
   -2.5700   -0.7373    0.0000 C   0  0  0  0  0  0  0  0  0  0  0  0
    0.2874   -0.7415    0.0000 C   0  0  0  0  0  0  0  0  0  0  0  0
   -3.9946   -0.7373    0.0000 C   0  0  0  0  0  0  0  0  0  0  0  0
   -3.2823   -1.1497    0.0000 C   0  0  0  0  0  0  0  0  0  0  0  0
   -3.9946    0.0875    0.0000 C   0  0  0  0  0  0  0  0  0  0  0  0
   -4.7194   -1.1538    0.0000 O   0  0  0  0  0  0  0  0  0  0  0  0
    6.7272   -1.1372    0.0000 C   0  0  0  0  0  0  0  0  0  0  0  0
    6.7355   -1.9661    0.0000 C   0  0  0  0  0  0  0  0  0  0  0  0
   -4.7069   -1.9786    0.0000 C   0  0  0  0  0  0  0  0  0  0  0  0
  2  1  1  0  0  0  0
  3  2  1  0  0  0  0
  4  1  2  0  0  0  0
  5  7  1  0  0  0  0
  6  1  1  0  0  0  0
  7  4  1  0  0  0  0
  8  9  2  0  0  0  0
  9  6  1  0  0  0  0
 10  3  2  0  0  0  0
 11  5  2  0  0  0  0
 12 20  2  0  0  0  0
 13 19  1  0  0  0  0
 14  2  2  0  0  0  0
 15 13  1  0  0  0  0
 16  8  1  0  0  0  0
 17  6  2  0  0  0  0
 18 12  1  0  0  0  0
 19 23  1  0  0  0  0
 20 17  1  0  0  0  0
 21 13  2  0  0  0  0
 22 11  1  0  0  0  0
 23 22  1  0  0  0  0
 24 15  2  0  0  0  0
 25 15  1  0  0  0  0
 26 10  1  0  0  0  0
 27 28  1  0  0  0  0
 28 25  2  0  0  0  0
 29 24  1  0  0  0  0
 30 27  1  0  0  0  0
 31 16  1  0  0  0  0
 32 18  1  0  0  0  0
 33 30  1  0  0  0  0
  5  3  1  0  0  0  0
  8 12  1  0  0  0  0
 22 26  2  0  0  0  0
 32 31  1  0  0  0  0
 29 27  2  0  0  0  0
M  END
>  <IDNUMBER>
F3385-1741

>  <Chemical_Name>
3-(2,3-dihydro-1,4-benzodioxin-6-yl)-7-[2-(4-methoxyphenyl)-2-oxoethoxy]-4H-chromen-4-one

>  <PriceCoeff>
1.00

>  <CAS>
858770-21-5

>  <MW>
444.43

>  <Description>
solid

>  <FSP3>
0.15

>  <clogP>
4.20

>  <TPSA>
80.29

>  <Acceptor>
7

>  <Donor>
0

>  <RotBonds>
6

>  <HAC>
33

>  <Collection>
General

>  <PPDS>
+

$$$$
F3385-2010
  Mrv2219 10102508112D          

 24 26  0  0  0  0            999 V2000
    5.3125   -2.3625    0.0000 C   0  0  0  0  0  0  0  0  0  0  0  0
    3.8667   -1.5375    0.0000 C   0  0  0  0  0  0  0  0  0  0  0  0
    3.8750   -2.3667    0.0000 C   0  0  0  0  0  0  0  0  0  0  0  0
    4.5917   -2.7792    0.0000 C   0  0  0  0  0  0  0  0  0  0  0  0
    3.1542   -1.1250    0.0000 C   0  0  0  0  0  0  0  0  0  0  0  0
    4.5792   -1.1125    0.0000 O   0  0  0  0  0  0  0  0  0  0  0  0
    5.3042   -1.5292    0.0000 C   0  0  0  0  0  0  0  0  0  0  0  0
    3.1542   -2.7792    0.0000 C   0  0  0  0  0  0  0  0  0  0  0  0
    6.0292   -2.7750    0.0000 C   0  0  0  0  0  0  0  0  0  0  0  0
    2.4417   -1.5375    0.0000 C   0  0  0  0  0  0  0  0  0  0  0  0
    3.1500   -0.3000    0.0000 C   0  0  0  0  0  0  0  0  0  0  0  0
    4.5917   -3.6042    0.0000 O   0  0  0  0  0  0  0  0  0  0  0  0
    2.4417   -2.3667    0.0000 C   0  0  0  0  0  0  0  0  0  0  0  0
    6.7375   -2.3542    0.0000 C   0  0  0  0  0  0  0  0  0  0  0  0
    6.0250   -3.6000    0.0000 C   0  0  0  0  0  0  0  0  0  0  0  0
    3.8667    0.1125    0.0000 N   0  0  0  0  0  0  0  0  0  0  0  0
    7.4542   -3.5917    0.0000 C   0  0  0  0  0  0  0  0  0  0  0  0
    7.4500   -2.7667    0.0000 C   0  0  0  0  0  0  0  0  0  0  0  0
    6.7417   -4.0042    0.0000 C   0  0  0  0  0  0  0  0  0  0  0  0
    1.7292   -1.1292    0.0000 O   0  0  0  0  0  0  0  0  0  0  0  0
    8.1667   -4.0042    0.0000 O   0  0  0  0  0  0  0  0  0  0  0  0
    4.5792   -0.2917    0.0000 C   0  0  0  0  0  0  0  0  0  0  0  0
    3.8625    0.9375    0.0000 C   0  0  0  0  0  0  0  0  0  0  0  0
    8.8792   -3.5875    0.0000 C   0  0  0  0  0  0  0  0  0  0  0  0
  2  6  1  0  0  0  0
  3  4  1  0  0  0  0
  4  1  1  0  0  0  0
  5  2  2  0  0  0  0
  6  7  1  0  0  0  0
  7  1  2  0  0  0  0
  8  3  2  0  0  0  0
  9  1  1  0  0  0  0
 10  5  1  0  0  0  0
 11  5  1  0  0  0  0
 12  4  2  0  0  0  0
 13  8  1  0  0  0  0
 14  9  1  0  0  0  0
 15  9  2  0  0  0  0
 16 11  1  0  0  0  0
 17 19  2  0  0  0  0
 18 14  2  0  0  0  0
 19 15  1  0  0  0  0
 20 10  1  0  0  0  0
 21 17  1  0  0  0  0
 22 16  1  0  0  0  0
 23 16  1  0  0  0  0
 24 21  1  0  0  0  0
  2  3  1  0  0  0  0
 18 17  1  0  0  0  0
 10 13  2  0  0  0  0
M  END
>  <IDNUMBER>
F3385-2010

>  <Chemical_Name>
8-[(dimethylamino)methyl]-7-hydroxy-3-(4-methoxyphenyl)-4H-chromen-4-one

>  <PriceCoeff>
1.00

>  <CAS>
858766-37-7

>  <MW>
325.36

>  <Description>
solid

>  <FSP3>
0.21

>  <clogP>
2.43

>  <TPSA>
59.00

>  <Acceptor>
4

>  <Donor>
2

>  <RotBonds>
4

>  <HAC>
24

>  <Collection>
General

>  <PPDS>
+

$$$$
F3385-2564
  Mrv2219 10102508112D          

 26 28  0  0  0  0            999 V2000
    0.2042   -0.9667    0.0000 C   0  0  0  0  0  0  0  0  0  0  0  0
   -1.2250   -0.1417    0.0000 C   0  0  0  0  0  0  0  0  0  0  0  0
   -1.2250   -0.9667    0.0000 C   0  0  0  0  0  0  0  0  0  0  0  0
   -0.5125   -1.3792    0.0000 C   0  0  0  0  0  0  0  0  0  0  0  0
   -1.9375    0.2708    0.0000 C   0  0  0  0  0  0  0  0  0  0  0  0
   -0.5125    0.2708    0.0000 O   0  0  0  0  0  0  0  0  0  0  0  0
    0.2042   -0.1417    0.0000 C   0  0  0  0  0  0  0  0  0  0  0  0
    0.9167   -1.3875    0.0000 C   0  0  0  0  0  0  0  0  0  0  0  0
   -1.9375   -1.3792    0.0000 C   0  0  0  0  0  0  0  0  0  0  0  0
    1.6292   -0.9667    0.0000 C   0  0  0  0  0  0  0  0  0  0  0  0
   -2.6583   -0.1417    0.0000 C   0  0  0  0  0  0  0  0  0  0  0  0
   -1.9375    1.0875    0.0000 C   0  0  0  0  0  0  0  0  0  0  0  0
    2.3500   -1.3792    0.0000 C   0  0  0  0  0  0  0  0  0  0  0  0
   -0.5125   -2.2042    0.0000 O   0  0  0  0  0  0  0  0  0  0  0  0
    2.3500   -2.2125    0.0000 C   0  0  0  0  0  0  0  0  0  0  0  0
    0.9167   -2.2125    0.0000 C   0  0  0  0  0  0  0  0  0  0  0  0
   -2.6583   -0.9667    0.0000 C   0  0  0  0  0  0  0  0  0  0  0  0
    1.6292   -2.6250    0.0000 C   0  0  0  0  0  0  0  0  0  0  0  0
   -2.6458    1.5083    0.0000 N   0  0  0  0  0  0  0  0  0  0  0  0
    3.0667   -0.9667    0.0000 O   0  0  0  0  0  0  0  0  0  0  0  0
   -3.3750    0.2708    0.0000 O   0  0  0  0  0  0  0  0  0  0  0  0
    3.0750   -2.6292    0.0000 O   0  0  0  0  0  0  0  0  0  0  0  0
   -2.6458    2.3333    0.0000 C   0  0  0  0  0  0  0  0  0  0  0  0
   -3.3583    1.1000    0.0000 C   0  0  0  0  0  0  0  0  0  0  0  0
    3.7792   -1.3875    0.0000 C   0  0  0  0  0  0  0  0  0  0  0  0
    3.0792   -3.4625    0.0000 C   0  0  0  0  0  0  0  0  0  0  0  0
  2  6  1  0  0  0  0
  3  4  1  0  0  0  0
  4  1  1  0  0  0  0
  5  2  2  0  0  0  0
  6  7  1  0  0  0  0
  7  1  2  0  0  0  0
  8  1  1  0  0  0  0
  9  3  2  0  0  0  0
 10  8  1  0  0  0  0
 11  5  1  0  0  0  0
 12  5  1  0  0  0  0
 13 10  2  0  0  0  0
 14  4  2  0  0  0  0
 15 18  2  0  0  0  0
 16  8  2  0  0  0  0
 17  9  1  0  0  0  0
 18 16  1  0  0  0  0
 19 12  1  0  0  0  0
 20 13  1  0  0  0  0
 21 11  1  0  0  0  0
 22 15  1  0  0  0  0
 23 19  1  0  0  0  0
 24 19  1  0  0  0  0
 25 20  1  0  0  0  0
 26 22  1  0  0  0  0
  2  3  1  0  0  0  0
 15 13  1  0  0  0  0
 11 17  2  0  0  0  0
M  END
>  <IDNUMBER>
F3385-2564

>  <Chemical_Name>
3-(3,4-dimethoxyphenyl)-8-[(dimethylamino)methyl]-7-hydroxy-4H-chromen-4-one

>  <PriceCoeff>
1.00

>  <CAS>
858764-21-3

>  <MW>
355.38

>  <Description>
solid

>  <FSP3>
0.25

>  <clogP>
2.16

>  <TPSA>
68.23

>  <Acceptor>
5

>  <Donor>
2

>  <RotBonds>
5

>  <HAC>
26

>  <Collection>
General

>  <PPDS>
+

$$$$
F3385-2580
  Mrv2219 10102508112D          

 25 27  0  0  0  0            999 V2000
    0.9648   -3.6984    0.0000 C   0  0  0  0  0  0  0  0  0  0  0  0
    0.2388   -2.4608    0.0000 C   0  0  0  0  0  0  0  0  0  0  0  0
    0.2485   -3.2891    0.0000 C   0  0  0  0  0  0  0  0  0  0  0  0
    0.9551   -2.0320    0.0000 O   0  0  0  0  0  0  0  0  0  0  0  0
    3.1040   -5.7646    0.0000 N   0  0  0  0  0  0  0  0  0  0  0  0
    3.8203   -6.1739    0.0000 C   0  0  0  0  0  0  0  0  0  0  0  0
    1.6811   -2.4462    0.0000 C   0  0  0  0  0  0  0  0  0  0  0  0
    1.6860   -3.2794    0.0000 C   0  0  0  0  0  0  0  0  0  0  0  0
   -0.4775   -2.0466    0.0000 C   0  0  0  0  0  0  0  0  0  0  0  0
   -0.4775   -3.6984    0.0000 C   0  0  0  0  0  0  0  0  0  0  0  0
    1.6811   -4.9313    0.0000 N   0  0  0  0  0  0  0  0  0  0  0  0
   -1.1841   -3.2891    0.0000 C   0  0  0  0  0  0  0  0  0  0  0  0
   -1.1841   -2.4608    0.0000 C   0  0  0  0  0  0  0  0  0  0  0  0
    0.9697   -4.5220    0.0000 C   0  0  0  0  0  0  0  0  0  0  0  0
    3.8203   -7.0071    0.0000 O   0  0  0  0  0  0  0  0  0  0  0  0
    2.3877   -6.1739    0.0000 C   0  0  0  0  0  0  0  0  0  0  0  0
    3.1040   -4.9313    0.0000 C   0  0  0  0  0  0  0  0  0  0  0  0
    2.3877   -2.0369    0.0000 O   0  0  0  0  0  0  0  0  0  0  0  0
    1.6714   -5.7646    0.0000 C   0  0  0  0  0  0  0  0  0  0  0  0
    2.3877   -4.5220    0.0000 C   0  0  0  0  0  0  0  0  0  0  0  0
    4.5366   -5.7646    0.0000 O   0  0  0  0  0  0  0  0  0  0  0  0
   -1.8955   -3.7034    0.0000 Cl  0  0  0  0  0  0  0  0  0  0  0  0
   -1.8955   -2.0515    0.0000 O   0  0  0  0  0  0  0  0  0  0  0  0
    5.2529   -6.1739    0.0000 C   0  0  0  0  0  0  0  0  0  0  0  0
    5.9692   -5.7646    0.0000 C   0  0  0  0  0  0  0  0  0  0  0  0
  2  3  1  0  0  0  0
  3  1  1  0  0  0  0
  4  7  1  0  0  0  0
  5 17  1  0  0  0  0
  6  5  1  0  0  0  0
  7  8  1  0  0  0  0
  8  1  2  0  0  0  0
  9  2  2  0  0  0  0
 10  3  2  0  0  0  0
 11 14  1  0  0  0  0
 12 10  1  0  0  0  0
 13 12  2  0  0  0  0
 14  1  1  0  0  0  0
 15  6  2  0  0  0  0
 16 19  1  0  0  0  0
 17 20  1  0  0  0  0
 18  7  2  0  0  0  0
 19 11  1  0  0  0  0
 20 11  1  0  0  0  0
 21  6  1  0  0  0  0
 22 12  1  0  0  0  0
 23 13  1  0  0  0  0
 24 21  1  0  0  0  0
 25 24  1  0  0  0  0
  2  4  1  0  0  0  0
 16  5  1  0  0  0  0
  9 13  1  0  0  0  0
M  END
>  <IDNUMBER>
F3385-2580

>  <Chemical_Name>
ethyl 4-[(6-chloro-7-hydroxy-2-oxo-2H-chromen-4-yl)methyl]piperazine-1-carboxylate

>  <PriceCoeff>
1.00

>  <CAS>
877800-39-0

>  <MW>
366.80

>  <Description>
solid

>  <FSP3>
0.41

>  <clogP>
3.05

>  <TPSA>
79.31

>  <Acceptor>
5

>  <Donor>
2

>  <RotBonds>
5

>  <HAC>
25

>  <Collection>
General

>  <PPDS>
+

$$$$
F3385-2696
  Mrv2219 10102508112D          

 29 31  0  0  0  0            999 V2000
    1.8625   -1.3542    0.0000 C   0  0  0  0  0  0  0  0  0  0  0  0
    1.1417   -1.7667    0.0000 C   0  0  0  0  0  0  0  0  0  0  0  0
    0.4292   -1.3542    0.0000 C   0  0  0  0  0  0  0  0  0  0  0  0
    1.8625   -0.5292    0.0000 C   0  0  0  0  0  0  0  0  0  0  0  0
    0.4292   -0.5292    0.0000 C   0  0  0  0  0  0  0  0  0  0  0  0
    2.5750   -1.7750    0.0000 C   0  0  0  0  0  0  0  0  0  0  0  0
    1.1417   -0.1167    0.0000 O   0  0  0  0  0  0  0  0  0  0  0  0
    3.2917   -1.3542    0.0000 C   0  0  0  0  0  0  0  0  0  0  0  0
   -0.2833   -1.7667    0.0000 C   0  0  0  0  0  0  0  0  0  0  0  0
   -0.2833   -0.1167    0.0000 C   0  0  0  0  0  0  0  0  0  0  0  0
    4.0042   -1.7667    0.0000 C   0  0  0  0  0  0  0  0  0  0  0  0
   -3.1458   -0.1125    0.0000 C   0  0  0  0  0  0  0  0  0  0  0  0
    1.1417   -2.5917    0.0000 O   0  0  0  0  0  0  0  0  0  0  0  0
    4.0042   -2.6000    0.0000 C   0  0  0  0  0  0  0  0  0  0  0  0
    2.5750   -2.6000    0.0000 C   0  0  0  0  0  0  0  0  0  0  0  0
   -3.1333    0.7208    0.0000 O   0  0  0  0  0  0  0  0  0  0  0  0
   -3.8583   -0.5125    0.0000 O   0  0  0  0  0  0  0  0  0  0  0  0
    3.2875   -3.0125    0.0000 C   0  0  0  0  0  0  0  0  0  0  0  0
   -1.0000   -0.5292    0.0000 C   0  0  0  0  0  0  0  0  0  0  0  0
   -1.7208   -0.1167    0.0000 O   0  0  0  0  0  0  0  0  0  0  0  0
   -2.4333   -0.5250    0.0000 C   0  0  0  0  0  0  0  0  0  0  0  0
   -0.9958   -1.3542    0.0000 C   0  0  0  0  0  0  0  0  0  0  0  0
    4.7250   -1.3542    0.0000 O   0  0  0  0  0  0  0  0  0  0  0  0
    4.7292   -3.0167    0.0000 O   0  0  0  0  0  0  0  0  0  0  0  0
   -4.5708   -0.0792    0.0000 C   0  0  0  0  0  0  0  0  0  0  0  0
    5.4375   -1.7750    0.0000 C   0  0  0  0  0  0  0  0  0  0  0  0
    4.7375   -3.8500    0.0000 C   0  0  0  0  0  0  0  0  0  0  0  0
   -4.5583    0.7458    0.0000 C   0  0  0  0  0  0  0  0  0  0  0  0
   -5.2958   -0.4875    0.0000 C   0  0  0  0  0  0  0  0  0  0  0  0
  2  1  1  0  0  0  0
  3  2  1  0  0  0  0
  4  1  2  0  0  0  0
  5  7  1  0  0  0  0
  6  1  1  0  0  0  0
  7  4  1  0  0  0  0
  8  6  1  0  0  0  0
  9  3  2  0  0  0  0
 10  5  2  0  0  0  0
 11  8  2  0  0  0  0
 12 21  1  0  0  0  0
 13  2  2  0  0  0  0
 14 18  2  0  0  0  0
 15  6  2  0  0  0  0
 16 12  2  0  0  0  0
 17 12  1  0  0  0  0
 18 15  1  0  0  0  0
 19 10  1  0  0  0  0
 20 19  1  0  0  0  0
 21 20  1  0  0  0  0
 22  9  1  0  0  0  0
 23 11  1  0  0  0  0
 24 14  1  0  0  0  0
 25 17  1  0  0  0  0
 26 23  1  0  0  0  0
 27 24  1  0  0  0  0
 28 25  1  0  0  0  0
 29 25  1  0  0  0  0
  5  3  1  0  0  0  0
 14 11  1  0  0  0  0
 19 22  2  0  0  0  0
M  END
>  <IDNUMBER>
F3385-2696

>  <Chemical_Name>
propan-2-yl 2-{[3-(3,4-dimethoxyphenyl)-4-oxo-4H-chromen-7-yl]oxy}acetate

>  <PriceCoeff>
1.00

>  <CAS>
859139-59-6

>  <MW>
398.41

>  <Description>
solid

>  <FSP3>
0.27

>  <clogP>
3.21

>  <TPSA>
80.29

>  <Acceptor>
7

>  <Donor>
0

>  <RotBonds>
8

>  <HAC>
29

>  <Collection>
General

>  <PPDS>
+

$$$$
F3385-2698
  Mrv2219 10102508112D          

 28 30  0  0  0  0            999 V2000
    5.6784   -4.2193    0.0000 C   0  0  0  0  0  0  0  0  0  0  0  0
    4.9634   -4.6309    0.0000 C   0  0  0  0  0  0  0  0  0  0  0  0
    4.2525   -4.2193    0.0000 C   0  0  0  0  0  0  0  0  0  0  0  0
    5.6784   -3.3963    0.0000 C   0  0  0  0  0  0  0  0  0  0  0  0
    4.2525   -3.3963    0.0000 C   0  0  0  0  0  0  0  0  0  0  0  0
    6.3892   -4.6391    0.0000 C   0  0  0  0  0  0  0  0  0  0  0  0
    4.9634   -2.9847    0.0000 O   0  0  0  0  0  0  0  0  0  0  0  0
    1.3884   -3.3921    0.0000 C   0  0  0  0  0  0  0  0  0  0  0  0
    3.5417   -2.9847    0.0000 C   0  0  0  0  0  0  0  0  0  0  0  0
    7.1001   -4.2193    0.0000 C   0  0  0  0  0  0  0  0  0  0  0  0
    2.1076   -2.9847    0.0000 O   0  0  0  0  0  0  0  0  0  0  0  0
    3.5417   -4.6309    0.0000 C   0  0  0  0  0  0  0  0  0  0  0  0
    7.8192   -4.6309    0.0000 C   0  0  0  0  0  0  0  0  0  0  0  0
    0.6776   -2.9722    0.0000 C   0  0  0  0  0  0  0  0  0  0  0  0
    2.8226   -3.3963    0.0000 C   0  0  0  0  0  0  0  0  0  0  0  0
    4.9634   -5.4539    0.0000 O   0  0  0  0  0  0  0  0  0  0  0  0
    7.8192   -5.4622    0.0000 C   0  0  0  0  0  0  0  0  0  0  0  0
    1.3884   -4.2151    0.0000 O   0  0  0  0  0  0  0  0  0  0  0  0
    6.3892   -5.4622    0.0000 C   0  0  0  0  0  0  0  0  0  0  0  0
    7.1001   -5.8738    0.0000 C   0  0  0  0  0  0  0  0  0  0  0  0
    2.8226   -4.2193    0.0000 C   0  0  0  0  0  0  0  0  0  0  0  0
    8.5342   -4.2193    0.0000 O   0  0  0  0  0  0  0  0  0  0  0  0
    8.5425   -5.8779    0.0000 O   0  0  0  0  0  0  0  0  0  0  0  0
   -0.0332   -2.5565    0.0000 C   0  0  0  0  0  0  0  0  0  0  0  0
    1.0974   -2.2614    0.0000 C   0  0  0  0  0  0  0  0  0  0  0  0
    0.2661   -3.6831    0.0000 C   0  0  0  0  0  0  0  0  0  0  0  0
    9.2451   -4.6391    0.0000 C   0  0  0  0  0  0  0  0  0  0  0  0
    8.5467   -6.7093    0.0000 C   0  0  0  0  0  0  0  0  0  0  0  0
  2  1  1  0  0  0  0
  3  2  1  0  0  0  0
  4  1  2  0  0  0  0
  5  7  1  0  0  0  0
  6  1  1  0  0  0  0
  7  4  1  0  0  0  0
  8 11  1  0  0  0  0
  9  5  2  0  0  0  0
 10  6  1  0  0  0  0
 11 15  1  0  0  0  0
 12  3  2  0  0  0  0
 13 10  2  0  0  0  0
 14  8  1  0  0  0  0
 15  9  1  0  0  0  0
 16  2  2  0  0  0  0
 17 20  2  0  0  0  0
 18  8  2  0  0  0  0
 19  6  2  0  0  0  0
 20 19  1  0  0  0  0
 21 12  1  0  0  0  0
 22 13  1  0  0  0  0
 23 17  1  0  0  0  0
 24 14  1  0  0  0  0
 25 14  1  0  0  0  0
 26 14  1  0  0  0  0
 27 22  1  0  0  0  0
 28 23  1  0  0  0  0
  5  3  1  0  0  0  0
 17 13  1  0  0  0  0
 15 21  2  0  0  0  0
M  END
>  <IDNUMBER>
F3385-2698

>  <Chemical_Name>
3-(3,4-dimethoxyphenyl)-4-oxo-4H-chromen-7-yl 2,2-dimethylpropanoate

>  <PriceCoeff>
1.00

>  <CAS>
738601-21-3

>  <MW>
382.41

>  <Description>
solid

>  <FSP3>
0.27

>  <clogP>
3.42

>  <TPSA>
71.06

>  <Acceptor>
6

>  <Donor>
0

>  <RotBonds>
5

>  <HAC>
28

>  <Collection>
General

>  <PPDS>
+

$$$$
F3385-2699
  Mrv2219 10102508112D          

 28 30  0  0  0  0            999 V2000
    0.2037   -0.9644    0.0000 C   0  0  0  0  0  0  0  0  0  0  0  0
   -0.5113   -1.3760    0.0000 C   0  0  0  0  0  0  0  0  0  0  0  0
   -1.2221   -0.9644    0.0000 C   0  0  0  0  0  0  0  0  0  0  0  0
    0.2037   -0.1414    0.0000 C   0  0  0  0  0  0  0  0  0  0  0  0
   -1.2221   -0.1414    0.0000 C   0  0  0  0  0  0  0  0  0  0  0  0
    0.9146   -1.3843    0.0000 C   0  0  0  0  0  0  0  0  0  0  0  0
   -0.5113    0.2702    0.0000 O   0  0  0  0  0  0  0  0  0  0  0  0
   -2.6563    1.5090    0.0000 C   0  0  0  0  0  0  0  0  0  0  0  0
   -1.9330    0.2702    0.0000 C   0  0  0  0  0  0  0  0  0  0  0  0
    1.6254   -0.9644    0.0000 C   0  0  0  0  0  0  0  0  0  0  0  0
   -1.9330   -1.3760    0.0000 C   0  0  0  0  0  0  0  0  0  0  0  0
    2.3445   -1.3760    0.0000 C   0  0  0  0  0  0  0  0  0  0  0  0
   -3.3671    0.2702    0.0000 O   0  0  0  0  0  0  0  0  0  0  0  0
   -3.3671    1.0932    0.0000 C   0  0  0  0  0  0  0  0  0  0  0  0
   -0.5113   -2.1991    0.0000 O   0  0  0  0  0  0  0  0  0  0  0  0
   -2.6521   -0.1414    0.0000 C   0  0  0  0  0  0  0  0  0  0  0  0
    2.3445   -2.2073    0.0000 C   0  0  0  0  0  0  0  0  0  0  0  0
    0.9146   -2.2073    0.0000 C   0  0  0  0  0  0  0  0  0  0  0  0
   -1.9413    1.0974    0.0000 O   0  0  0  0  0  0  0  0  0  0  0  0
    1.6254   -2.6189    0.0000 C   0  0  0  0  0  0  0  0  0  0  0  0
   -2.6521   -0.9644    0.0000 C   0  0  0  0  0  0  0  0  0  0  0  0
   -2.6521    2.3320    0.0000 O   0  0  0  0  0  0  0  0  0  0  0  0
    3.0595   -0.9644    0.0000 O   0  0  0  0  0  0  0  0  0  0  0  0
    3.0678   -2.6231    0.0000 O   0  0  0  0  0  0  0  0  0  0  0  0
   -4.0862    1.5048    0.0000 C   0  0  0  0  0  0  0  0  0  0  0  0
   -1.9413    2.7436    0.0000 C   0  0  0  0  0  0  0  0  0  0  0  0
    3.7704   -1.3843    0.0000 C   0  0  0  0  0  0  0  0  0  0  0  0
    3.0720   -3.4544    0.0000 C   0  0  0  0  0  0  0  0  0  0  0  0
  2  1  1  0  0  0  0
  3  2  1  0  0  0  0
  4  1  2  0  0  0  0
  5  7  1  0  0  0  0
  6  1  1  0  0  0  0
  7  4  1  0  0  0  0
  8 14  1  0  0  0  0
  9  5  2  0  0  0  0
 10  6  1  0  0  0  0
 11  3  2  0  0  0  0
 12 10  2  0  0  0  0
 13 16  1  0  0  0  0
 14 13  1  0  0  0  0
 15  2  2  0  0  0  0
 16  9  1  0  0  0  0
 17 20  2  0  0  0  0
 18  6  2  0  0  0  0
 19  8  2  0  0  0  0
 20 18  1  0  0  0  0
 21 11  1  0  0  0  0
 22  8  1  0  0  0  0
 23 12  1  0  0  0  0
 24 17  1  0  0  0  0
 25 14  1  0  0  0  0
 26 22  1  0  0  0  0
 27 23  1  0  0  0  0
 28 24  1  0  0  0  0
  5  3  1  0  0  0  0
 17 12  1  0  0  0  0
 16 21  2  0  0  0  0
M  END
>  <IDNUMBER>
F3385-2699

>  <Chemical_Name>
methyl 2-{[3-(3,4-dimethoxyphenyl)-4-oxo-4H-chromen-7-yl]oxy}propanoate

>  <PriceCoeff>
1.00

>  <CAS>
858764-10-0

>  <MW>
384.38

>  <Description>
solid

>  <FSP3>
0.24

>  <clogP>
2.68

>  <TPSA>
80.29

>  <Acceptor>
7

>  <Donor>
0

>  <RotBonds>
7

>  <HAC>
28

>  <Collection>
General

>  <PPDS>
+

$$$$
F3385-2700
  Mrv2219 10102508112D          

 25 27  0  0  0  0            999 V2000
    6.0292   -4.2292    0.0000 C   0  0  0  0  0  0  0  0  0  0  0  0
    5.3125   -4.6417    0.0000 C   0  0  0  0  0  0  0  0  0  0  0  0
    4.6000   -4.2292    0.0000 C   0  0  0  0  0  0  0  0  0  0  0  0
    6.0292   -3.4042    0.0000 C   0  0  0  0  0  0  0  0  0  0  0  0
    4.6000   -3.4042    0.0000 C   0  0  0  0  0  0  0  0  0  0  0  0
    5.3125   -2.9917    0.0000 O   0  0  0  0  0  0  0  0  0  0  0  0
    1.7292   -3.4042    0.0000 C   0  0  0  0  0  0  0  0  0  0  0  0
    3.8875   -2.9917    0.0000 C   0  0  0  0  0  0  0  0  0  0  0  0
    6.7417   -4.6417    0.0000 C   0  0  0  0  0  0  0  0  0  0  0  0
    2.4417   -2.9917    0.0000 O   0  0  0  0  0  0  0  0  0  0  0  0
    3.8875   -4.6417    0.0000 C   0  0  0  0  0  0  0  0  0  0  0  0
    3.1667   -3.4042    0.0000 C   0  0  0  0  0  0  0  0  0  0  0  0
    5.3125   -5.4667    0.0000 O   0  0  0  0  0  0  0  0  0  0  0  0
    1.7292   -4.2292    0.0000 O   0  0  0  0  0  0  0  0  0  0  0  0
    6.7417   -5.4750    0.0000 C   0  0  0  0  0  0  0  0  0  0  0  0
    7.4542   -4.2292    0.0000 C   0  0  0  0  0  0  0  0  0  0  0  0
    1.0167   -2.9917    0.0000 C   0  0  0  0  0  0  0  0  0  0  0  0
    3.1667   -4.2292    0.0000 C   0  0  0  0  0  0  0  0  0  0  0  0
    8.1750   -5.4750    0.0000 C   0  0  0  0  0  0  0  0  0  0  0  0
    8.1750   -4.6417    0.0000 C   0  0  0  0  0  0  0  0  0  0  0  0
    7.4542   -5.8875    0.0000 C   0  0  0  0  0  0  0  0  0  0  0  0
    8.9000   -5.8917    0.0000 O   0  0  0  0  0  0  0  0  0  0  0  0
    0.3042   -3.4042    0.0000 C   0  0  0  0  0  0  0  0  0  0  0  0
    1.0167   -2.1667    0.0000 C   0  0  0  0  0  0  0  0  0  0  0  0
    8.9042   -6.7250    0.0000 C   0  0  0  0  0  0  0  0  0  0  0  0
  2  1  1  0  0  0  0
  3  2  1  0  0  0  0
  4  1  2  0  0  0  0
  5  6  1  0  0  0  0
  6  4  1  0  0  0  0
  7 10  1  0  0  0  0
  8  5  2  0  0  0  0
  9  1  1  0  0  0  0
 10 12  1  0  0  0  0
 11  3  2  0  0  0  0
 12  8  1  0  0  0  0
 13  2  2  0  0  0  0
 14  7  2  0  0  0  0
 15  9  2  0  0  0  0
 16  9  1  0  0  0  0
 17  7  1  0  0  0  0
 18 11  1  0  0  0  0
 19 20  1  0  0  0  0
 20 16  2  0  0  0  0
 21 15  1  0  0  0  0
 22 19  1  0  0  0  0
 23 17  1  0  0  0  0
 24 17  1  0  0  0  0
 25 22  1  0  0  0  0
 21 19  2  0  0  0  0
  5  3  1  0  0  0  0
 12 18  2  0  0  0  0
M  END
>  <IDNUMBER>
F3385-2700

>  <Chemical_Name>
3-(4-methoxyphenyl)-4-oxo-4H-chromen-7-yl 2-methylpropanoate

>  <PriceCoeff>
1.00

>  <CAS>
858769-64-9

>  <MW>
338.35

>  <Description>
solid

>  <FSP3>
0.20

>  <clogP>
3.29

>  <TPSA>
61.83

>  <Acceptor>
5

>  <Donor>
0

>  <RotBonds>
5

>  <HAC>
25

>  <Collection>
General

>  <PPDS>
+

$$$$
F3385-2702
  Mrv2219 10102508112D          

 27 29  0  0  0  0            999 V2000
    5.6784   -4.2193    0.0000 C   0  0  0  0  0  0  0  0  0  0  0  0
    4.9634   -4.6309    0.0000 C   0  0  0  0  0  0  0  0  0  0  0  0
    4.2525   -4.2193    0.0000 C   0  0  0  0  0  0  0  0  0  0  0  0
    1.3884   -3.3921    0.0000 C   0  0  0  0  0  0  0  0  0  0  0  0
    5.6784   -3.3963    0.0000 C   0  0  0  0  0  0  0  0  0  0  0  0
    4.2525   -3.3963    0.0000 C   0  0  0  0  0  0  0  0  0  0  0  0
    6.3892   -4.6391    0.0000 C   0  0  0  0  0  0  0  0  0  0  0  0
    4.9634   -2.9847    0.0000 O   0  0  0  0  0  0  0  0  0  0  0  0
    2.1076   -2.9847    0.0000 O   0  0  0  0  0  0  0  0  0  0  0  0
    3.5417   -2.9847    0.0000 C   0  0  0  0  0  0  0  0  0  0  0  0
    7.1001   -4.2193    0.0000 C   0  0  0  0  0  0  0  0  0  0  0  0
    3.5417   -4.6309    0.0000 C   0  0  0  0  0  0  0  0  0  0  0  0
    7.8192   -4.6309    0.0000 C   0  0  0  0  0  0  0  0  0  0  0  0
    0.6776   -2.9722    0.0000 N   0  0  0  0  0  0  0  0  0  0  0  0
    2.8226   -3.3963    0.0000 C   0  0  0  0  0  0  0  0  0  0  0  0
    4.9634   -5.4539    0.0000 O   0  0  0  0  0  0  0  0  0  0  0  0
    1.3884   -4.2151    0.0000 O   0  0  0  0  0  0  0  0  0  0  0  0
    7.8192   -5.4622    0.0000 C   0  0  0  0  0  0  0  0  0  0  0  0
    6.3892   -5.4622    0.0000 C   0  0  0  0  0  0  0  0  0  0  0  0
    7.1001   -5.8738    0.0000 C   0  0  0  0  0  0  0  0  0  0  0  0
    2.8226   -4.2193    0.0000 C   0  0  0  0  0  0  0  0  0  0  0  0
    8.5342   -4.2193    0.0000 O   0  0  0  0  0  0  0  0  0  0  0  0
    8.5425   -5.8779    0.0000 O   0  0  0  0  0  0  0  0  0  0  0  0
    0.6859   -2.1492    0.0000 C   0  0  0  0  0  0  0  0  0  0  0  0
   -0.0332   -3.3838    0.0000 C   0  0  0  0  0  0  0  0  0  0  0  0
    9.2451   -4.6391    0.0000 C   0  0  0  0  0  0  0  0  0  0  0  0
    8.5467   -6.7093    0.0000 C   0  0  0  0  0  0  0  0  0  0  0  0
  2  1  1  0  0  0  0
  3  2  1  0  0  0  0
  4  9  1  0  0  0  0
  5  1  2  0  0  0  0
  6  8  1  0  0  0  0
  7  1  1  0  0  0  0
  8  5  1  0  0  0  0
  9 15  1  0  0  0  0
 10  6  2  0  0  0  0
 11  7  1  0  0  0  0
 12  3  2  0  0  0  0
 13 11  2  0  0  0  0
 14  4  1  0  0  0  0
 15 10  1  0  0  0  0
 16  2  2  0  0  0  0
 17  4  2  0  0  0  0
 18 20  2  0  0  0  0
 19  7  2  0  0  0  0
 20 19  1  0  0  0  0
 21 12  1  0  0  0  0
 22 13  1  0  0  0  0
 23 18  1  0  0  0  0
 24 14  1  0  0  0  0
 25 14  1  0  0  0  0
 26 22  1  0  0  0  0
 27 23  1  0  0  0  0
  3  6  1  0  0  0  0
 13 18  1  0  0  0  0
 21 15  2  0  0  0  0
M  END
>  <IDNUMBER>
F3385-2702

>  <Chemical_Name>
3-(3,4-dimethoxyphenyl)-4-oxo-4H-chromen-7-yl N,N-dimethylcarbamate

>  <PriceCoeff>
1.00

>  <CAS>
858770-60-2

>  <MW>
369.37

>  <Description>
solid

>  <FSP3>
0.20

>  <clogP>
2.12

>  <TPSA>
74.30

>  <Acceptor>
6

>  <Donor>
0

>  <RotBonds>
6

>  <HAC>
27

>  <Collection>
General

>  <PPDS>
+

$$$$
F3385-2703
  Mrv2219 10102508112D          

 25 27  0  0  0  0            999 V2000
    1.8625   -1.3542    0.0000 C   0  0  0  0  0  0  0  0  0  0  0  0
    1.1417   -1.7667    0.0000 C   0  0  0  0  0  0  0  0  0  0  0  0
    0.4292   -1.3542    0.0000 C   0  0  0  0  0  0  0  0  0  0  0  0
    1.8625   -0.5292    0.0000 C   0  0  0  0  0  0  0  0  0  0  0  0
    0.4292   -0.5292    0.0000 C   0  0  0  0  0  0  0  0  0  0  0  0
    2.5750   -1.7750    0.0000 C   0  0  0  0  0  0  0  0  0  0  0  0
    1.1417   -0.1167    0.0000 O   0  0  0  0  0  0  0  0  0  0  0  0
   -3.8583    0.3083    0.0000 N   0  0  0  0  0  0  0  0  0  0  0  0
    3.2917   -1.3542    0.0000 C   0  0  0  0  0  0  0  0  0  0  0  0
   -0.2833   -1.7667    0.0000 C   0  0  0  0  0  0  0  0  0  0  0  0
   -0.2833   -0.1167    0.0000 C   0  0  0  0  0  0  0  0  0  0  0  0
    4.0042   -1.7667    0.0000 C   0  0  0  0  0  0  0  0  0  0  0  0
   -3.1458   -0.1125    0.0000 C   0  0  0  0  0  0  0  0  0  0  0  0
    1.1417   -2.5917    0.0000 O   0  0  0  0  0  0  0  0  0  0  0  0
    4.0042   -2.6000    0.0000 C   0  0  0  0  0  0  0  0  0  0  0  0
    2.5750   -2.6000    0.0000 C   0  0  0  0  0  0  0  0  0  0  0  0
    3.2875   -3.0125    0.0000 C   0  0  0  0  0  0  0  0  0  0  0  0
   -1.0000   -0.5292    0.0000 C   0  0  0  0  0  0  0  0  0  0  0  0
   -0.9958   -1.3542    0.0000 C   0  0  0  0  0  0  0  0  0  0  0  0
    4.7250   -1.3542    0.0000 O   0  0  0  0  0  0  0  0  0  0  0  0
    4.7292   -3.0167    0.0000 O   0  0  0  0  0  0  0  0  0  0  0  0
   -1.7208   -0.1167    0.0000 O   0  0  0  0  0  0  0  0  0  0  0  0
   -2.4333   -0.5250    0.0000 C   0  0  0  0  0  0  0  0  0  0  0  0
    5.4375   -1.7750    0.0000 C   0  0  0  0  0  0  0  0  0  0  0  0
    4.7375   -3.8500    0.0000 C   0  0  0  0  0  0  0  0  0  0  0  0
  2  1  1  0  0  0  0
  3  2  1  0  0  0  0
  4  1  2  0  0  0  0
  5  7  1  0  0  0  0
  6  1  1  0  0  0  0
  7  4  1  0  0  0  0
  8 13  3  0  0  0  0
  9  6  1  0  0  0  0
 10  3  2  0  0  0  0
 11  5  2  0  0  0  0
 12  9  2  0  0  0  0
 13 23  1  0  0  0  0
 14  2  2  0  0  0  0
 15 17  2  0  0  0  0
 16  6  2  0  0  0  0
 17 16  1  0  0  0  0
 18 11  1  0  0  0  0
 19 10  1  0  0  0  0
 20 12  1  0  0  0  0
 21 15  1  0  0  0  0
 22 18  1  0  0  0  0
 23 22  1  0  0  0  0
 24 20  1  0  0  0  0
 25 21  1  0  0  0  0
  5  3  1  0  0  0  0
 12 15  1  0  0  0  0
 18 19  2  0  0  0  0
M  END
>  <IDNUMBER>
F3385-2703

>  <Chemical_Name>
2-{[3-(3,4-dimethoxyphenyl)-4-oxo-4H-chromen-7-yl]oxy}acetonitrile

>  <PriceCoeff>
1.00

>  <CAS>
847182-88-1

>  <MW>
337.33

>  <Description>
solid

>  <FSP3>
0.16

>  <clogP>
1.74

>  <TPSA>
77.78

>  <Acceptor>
6

>  <Donor>
0

>  <RotBonds>
5

>  <HAC>
25

>  <Collection>
General

>  <PPDS>
+

$$$$
F3385-2709
  Mrv2219 10102508112D          

 27 29  0  0  0  0            999 V2000
    1.8625   -1.3542    0.0000 C   0  0  0  0  0  0  0  0  0  0  0  0
    1.1417   -1.7667    0.0000 C   0  0  0  0  0  0  0  0  0  0  0  0
    0.4292   -1.3542    0.0000 C   0  0  0  0  0  0  0  0  0  0  0  0
    1.8625   -0.5292    0.0000 C   0  0  0  0  0  0  0  0  0  0  0  0
    0.4292   -0.5292    0.0000 C   0  0  0  0  0  0  0  0  0  0  0  0
    2.5750   -1.7750    0.0000 C   0  0  0  0  0  0  0  0  0  0  0  0
    1.1417   -0.1167    0.0000 O   0  0  0  0  0  0  0  0  0  0  0  0
    3.2917   -1.3542    0.0000 C   0  0  0  0  0  0  0  0  0  0  0  0
   -0.2833   -1.7667    0.0000 C   0  0  0  0  0  0  0  0  0  0  0  0
   -0.2833   -0.1167    0.0000 C   0  0  0  0  0  0  0  0  0  0  0  0
    4.0042   -1.7667    0.0000 C   0  0  0  0  0  0  0  0  0  0  0  0
   -3.1458   -0.1125    0.0000 C   0  0  0  0  0  0  0  0  0  0  0  0
    1.1417   -2.5917    0.0000 O   0  0  0  0  0  0  0  0  0  0  0  0
    4.0042   -2.6000    0.0000 C   0  0  0  0  0  0  0  0  0  0  0  0
    2.5750   -2.6000    0.0000 C   0  0  0  0  0  0  0  0  0  0  0  0
   -3.1333    0.7125    0.0000 O   0  0  0  0  0  0  0  0  0  0  0  0
    3.2875   -3.0125    0.0000 C   0  0  0  0  0  0  0  0  0  0  0  0
   -1.0000   -0.5292    0.0000 C   0  0  0  0  0  0  0  0  0  0  0  0
   -1.7208   -0.1167    0.0000 O   0  0  0  0  0  0  0  0  0  0  0  0
   -2.4333   -0.5250    0.0000 C   0  0  0  0  0  0  0  0  0  0  0  0
   -0.9958   -1.3542    0.0000 C   0  0  0  0  0  0  0  0  0  0  0  0
    4.7250   -1.3542    0.0000 O   0  0  0  0  0  0  0  0  0  0  0  0
   -3.8583   -0.5125    0.0000 O   0  0  0  0  0  0  0  0  0  0  0  0
    4.7292   -3.0167    0.0000 O   0  0  0  0  0  0  0  0  0  0  0  0
    5.4375   -1.7750    0.0000 C   0  0  0  0  0  0  0  0  0  0  0  0
   -4.5708   -0.0917    0.0000 C   0  0  0  0  0  0  0  0  0  0  0  0
    4.7375   -3.8500    0.0000 C   0  0  0  0  0  0  0  0  0  0  0  0
  2  1  1  0  0  0  0
  3  2  1  0  0  0  0
  4  1  2  0  0  0  0
  5  7  1  0  0  0  0
  6  1  1  0  0  0  0
  7  4  1  0  0  0  0
  8  6  1  0  0  0  0
  9  3  2  0  0  0  0
 10  5  2  0  0  0  0
 11  8  2  0  0  0  0
 12 20  1  0  0  0  0
 13  2  2  0  0  0  0
 14 17  2  0  0  0  0
 15  6  2  0  0  0  0
 16 12  2  0  0  0  0
 17 15  1  0  0  0  0
 18 10  1  0  0  0  0
 19 18  1  0  0  0  0
 20 19  1  0  0  0  0
 21  9  1  0  0  0  0
 22 11  1  0  0  0  0
 23 12  1  0  0  0  0
 24 14  1  0  0  0  0
 25 22  1  0  0  0  0
 26 23  1  0  0  0  0
 27 24  1  0  0  0  0
  5  3  1  0  0  0  0
 14 11  1  0  0  0  0
 18 21  2  0  0  0  0
M  END
>  <IDNUMBER>
F3385-2709

>  <Chemical_Name>
methyl 2-{[3-(3,4-dimethoxyphenyl)-4-oxo-4H-chromen-7-yl]oxy}acetate

>  <PriceCoeff>
1.00

>  <CAS>
859138-23-1

>  <MW>
370.35

>  <Description>
solid

>  <FSP3>
0.20

>  <clogP>
2.37

>  <TPSA>
80.29

>  <Acceptor>
7

>  <Donor>
0

>  <RotBonds>
7

>  <HAC>
27

>  <Collection>
General

>  <PPDS>
+

$$$$
F3385-2739
  Mrv2219 10102508112D          

 28 30  0  0  0  0            999 V2000
    3.2382   -1.1405    0.0000 C   0  0  0  0  0  0  0  0  0  0  0  0
    2.5140   -1.5525    0.0000 C   0  0  0  0  0  0  0  0  0  0  0  0
    1.7980   -1.1405    0.0000 C   0  0  0  0  0  0  0  0  0  0  0  0
    3.2382   -0.3122    0.0000 C   0  0  0  0  0  0  0  0  0  0  0  0
    1.8022   -0.3122    0.0000 C   0  0  0  0  0  0  0  0  0  0  0  0
    3.9457   -1.5608    0.0000 C   0  0  0  0  0  0  0  0  0  0  0  0
    2.5140    0.1082    0.0000 O   0  0  0  0  0  0  0  0  0  0  0  0
    4.6574   -1.1487    0.0000 C   0  0  0  0  0  0  0  0  0  0  0  0
    1.0863   -1.5525    0.0000 C   0  0  0  0  0  0  0  0  0  0  0  0
    1.0863    0.0999    0.0000 C   0  0  0  0  0  0  0  0  0  0  0  0
    5.3691   -1.5608    0.0000 C   0  0  0  0  0  0  0  0  0  0  0  0
   -1.7689    0.1207    0.0000 C   0  0  0  0  0  0  0  0  0  0  0  0
    2.5140   -2.3766    0.0000 O   0  0  0  0  0  0  0  0  0  0  0  0
    5.3691   -2.3891    0.0000 C   0  0  0  0  0  0  0  0  0  0  0  0
    3.9374   -2.3849    0.0000 C   0  0  0  0  0  0  0  0  0  0  0  0
   -1.7564    0.9365    0.0000 O   0  0  0  0  0  0  0  0  0  0  0  0
    4.6491   -2.7969    0.0000 C   0  0  0  0  0  0  0  0  0  0  0  0
    0.3788   -0.3122    0.0000 C   0  0  0  0  0  0  0  0  0  0  0  0
   -0.3371    0.0999    0.0000 O   0  0  0  0  0  0  0  0  0  0  0  0
   -1.0571   -0.3039    0.0000 C   0  0  0  0  0  0  0  0  0  0  0  0
    0.3746   -1.1405    0.0000 C   0  0  0  0  0  0  0  0  0  0  0  0
    6.0851   -1.1487    0.0000 O   0  0  0  0  0  0  0  0  0  0  0  0
   -2.4806   -0.2914    0.0000 O   0  0  0  0  0  0  0  0  0  0  0  0
    6.0809   -2.8011    0.0000 O   0  0  0  0  0  0  0  0  0  0  0  0
   -3.1923    0.1249    0.0000 C   0  0  0  0  0  0  0  0  0  0  0  0
    6.0809   -0.3246    0.0000 C   0  0  0  0  0  0  0  0  0  0  0  0
    6.7968   -2.3891    0.0000 C   0  0  0  0  0  0  0  0  0  0  0  0
   -3.1840    0.9490    0.0000 C   0  0  0  0  0  0  0  0  0  0  0  0
  2  1  1  0  0  0  0
  3  2  1  0  0  0  0
  4  1  2  0  0  0  0
  5  7  1  0  0  0  0
  6  1  1  0  0  0  0
  7  4  1  0  0  0  0
  8  6  1  0  0  0  0
  9  3  2  0  0  0  0
 10  5  2  0  0  0  0
 11  8  2  0  0  0  0
 12 20  1  0  0  0  0
 13  2  2  0  0  0  0
 14 17  2  0  0  0  0
 15  6  2  0  0  0  0
 16 12  2  0  0  0  0
 17 15  1  0  0  0  0
 18 10  1  0  0  0  0
 19 18  1  0  0  0  0
 20 19  1  0  0  0  0
 21  9  1  0  0  0  0
 22 11  1  0  0  0  0
 23 12  1  0  0  0  0
 24 14  1  0  0  0  0
 25 23  1  0  0  0  0
 26 22  1  0  0  0  0
 27 24  1  0  0  0  0
 28 25  1  0  0  0  0
  5  3  1  0  0  0  0
 11 14  1  0  0  0  0
 21 18  2  0  0  0  0
M  END
>  <IDNUMBER>
F3385-2739

>  <Chemical_Name>
ethyl 2-{[3-(3,4-dimethoxyphenyl)-4-oxo-4H-chromen-7-yl]oxy}acetate

>  <PriceCoeff>
1.00

>  <CAS>
35212-36-3

>  <MW>
384.38

>  <Description>
solid

>  <FSP3>
0.24

>  <clogP>
2.90

>  <TPSA>
80.29

>  <Acceptor>
7

>  <Donor>
0

>  <RotBonds>
8

>  <HAC>
28

>  <Collection>
General

>  <PPDS>
+

$$$$
F3385-2833
  Mrv2219 10102508112D          

 29 33  0  0  0  0            999 V2000
    2.2277    1.1588    0.0000 C   0  0  0  0  0  0  0  0  0  0  0  0
    1.5080    0.7566    0.0000 C   0  0  0  0  0  0  0  0  0  0  0  0
    0.7937    1.1694    0.0000 C   0  0  0  0  0  0  0  0  0  0  0  0
    2.2277    1.9948    0.0000 C   0  0  0  0  0  0  0  0  0  0  0  0
    0.7937    1.9948    0.0000 C   0  0  0  0  0  0  0  0  0  0  0  0
    1.5080    2.4075    0.0000 O   0  0  0  0  0  0  0  0  0  0  0  0
   -2.0478    1.9948    0.0000 C   0  0  0  0  0  0  0  0  0  0  0  0
   -2.7568    2.4075    0.0000 C   0  0  0  0  0  0  0  0  0  0  0  0
   -4.1749    2.4075    0.0000 C   0  0  0  0  0  0  0  0  0  0  0  0
    0.0794    2.4075    0.0000 C   0  0  0  0  0  0  0  0  0  0  0  0
   -1.3440    2.4075    0.0000 O   0  0  0  0  0  0  0  0  0  0  0  0
    0.0794    0.7566    0.0000 C   0  0  0  0  0  0  0  0  0  0  0  0
   -3.4711    1.9948    0.0000 C   0  0  0  0  0  0  0  0  0  0  0  0
   -4.1696    3.2225    0.0000 C   0  0  0  0  0  0  0  0  0  0  0  0
   -4.9633    2.1430    0.0000 O   0  0  0  0  0  0  0  0  0  0  0  0
    2.9262    0.7566    0.0000 C   0  0  0  0  0  0  0  0  0  0  0  0
   -0.6296    1.9843    0.0000 C   0  0  0  0  0  0  0  0  0  0  0  0
    1.4975   -0.0688    0.0000 O   0  0  0  0  0  0  0  0  0  0  0  0
   -4.9633    3.4870    0.0000 O   0  0  0  0  0  0  0  0  0  0  0  0
   -5.4448    2.8203    0.0000 C   0  0  0  0  0  0  0  0  0  0  0  0
   -2.0583    1.1694    0.0000 O   0  0  0  0  0  0  0  0  0  0  0  0
   -2.7568    3.2171    0.0000 C   0  0  0  0  0  0  0  0  0  0  0  0
   -3.4711    3.6299    0.0000 C   0  0  0  0  0  0  0  0  0  0  0  0
   -0.6296    1.1694    0.0000 C   0  0  0  0  0  0  0  0  0  0  0  0
    3.6405    1.1588    0.0000 C   0  0  0  0  0  0  0  0  0  0  0  0
    2.9262   -0.0688    0.0000 C   0  0  0  0  0  0  0  0  0  0  0  0
    3.6405   -0.4816    0.0000 C   0  0  0  0  0  0  0  0  0  0  0  0
    4.3495    0.7566    0.0000 C   0  0  0  0  0  0  0  0  0  0  0  0
    4.3495   -0.0688    0.0000 C   0  0  0  0  0  0  0  0  0  0  0  0
  2  1  1  0  0  0  0
  3  2  1  0  0  0  0
  4  1  2  0  0  0  0
  5  6  1  0  0  0  0
  6  4  1  0  0  0  0
  7 11  1  0  0  0  0
  8  7  1  0  0  0  0
  9 13  2  0  0  0  0
 10  5  2  0  0  0  0
 11 17  1  0  0  0  0
 12  3  2  0  0  0  0
 13  8  1  0  0  0  0
 14 23  2  0  0  0  0
 15  9  1  0  0  0  0
 16  1  1  0  0  0  0
 17 10  1  0  0  0  0
 18  2  2  0  0  0  0
 19 14  1  0  0  0  0
 20 15  1  0  0  0  0
 21  7  2  0  0  0  0
 22  8  2  0  0  0  0
 23 22  1  0  0  0  0
 24 12  1  0  0  0  0
 25 16  1  0  0  0  0
 26 16  2  0  0  0  0
 27 26  1  0  0  0  0
 28 25  2  0  0  0  0
 29 27  2  0  0  0  0
  3  5  1  0  0  0  0
 28 29  1  0  0  0  0
 24 17  2  0  0  0  0
 14  9  1  0  0  0  0
 20 19  1  0  0  0  0
M  END
>  <IDNUMBER>
F3385-2833

>  <Chemical_Name>
4-oxo-3-phenyl-4H-chromen-7-yl 2H-1,3-benzodioxole-5-carboxylate

>  <PriceCoeff>
1.00

>  <CAS>
858769-27-4

>  <MW>
386.35

>  <Description>
solid

>  <FSP3>
0.04

>  <clogP>
4.83

>  <TPSA>
71.06

>  <Acceptor>
6

>  <Donor>
0

>  <RotBonds>
4

>  <HAC>
29

>  <Collection>
General

$$$$
F3385-2854
  Mrv2219 10102508112D          

 24 26  0  0  0  0            999 V2000
    2.2277    1.1588    0.0000 C   0  0  0  0  0  0  0  0  0  0  0  0
    1.5080    0.7566    0.0000 C   0  0  0  0  0  0  0  0  0  0  0  0
    2.2277    1.9948    0.0000 C   0  0  0  0  0  0  0  0  0  0  0  0
    0.7937    1.1694    0.0000 C   0  0  0  0  0  0  0  0  0  0  0  0
    0.7937    1.9948    0.0000 C   0  0  0  0  0  0  0  0  0  0  0  0
    1.5080    2.4075    0.0000 O   0  0  0  0  0  0  0  0  0  0  0  0
    0.0794    2.4075    0.0000 C   0  0  0  0  0  0  0  0  0  0  0  0
    0.0794    0.7566    0.0000 C   0  0  0  0  0  0  0  0  0  0  0  0
    1.4975   -0.0688    0.0000 O   0  0  0  0  0  0  0  0  0  0  0  0
    2.9262    0.7566    0.0000 C   0  0  0  0  0  0  0  0  0  0  0  0
   -3.4711    1.9948    0.0000 C   0  0  0  0  0  0  0  0  0  0  0  0
   -2.7568    2.4075    0.0000 C   0  0  0  0  0  0  0  0  0  0  0  0
   -0.6296    1.9843    0.0000 C   0  0  0  0  0  0  0  0  0  0  0  0
   -0.6296    1.1694    0.0000 C   0  0  0  0  0  0  0  0  0  0  0  0
    2.9367    2.4075    0.0000 C   0  0  0  0  0  0  0  0  0  0  0  0
   -2.0478    1.9948    0.0000 C   0  0  0  0  0  0  0  0  0  0  0  0
   -1.3440    2.4075    0.0000 O   0  0  0  0  0  0  0  0  0  0  0  0
   -4.1749    2.4075    0.0000 C   0  0  0  0  0  0  0  0  0  0  0  0
   -3.4606    1.1694    0.0000 C   0  0  0  0  0  0  0  0  0  0  0  0
    2.9262   -0.0688    0.0000 C   0  0  0  0  0  0  0  0  0  0  0  0
    3.6405    1.1588    0.0000 C   0  0  0  0  0  0  0  0  0  0  0  0
    4.3495    0.7566    0.0000 C   0  0  0  0  0  0  0  0  0  0  0  0
    3.6405   -0.4816    0.0000 C   0  0  0  0  0  0  0  0  0  0  0  0
    4.3495   -0.0688    0.0000 C   0  0  0  0  0  0  0  0  0  0  0  0
  2  1  1  0  0  0  0
  3  1  2  0  0  0  0
  4  2  1  0  0  0  0
  5  6  1  0  0  0  0
  6  3  1  0  0  0  0
  7  5  2  0  0  0  0
  8  4  2  0  0  0  0
  9  2  2  0  0  0  0
 10  1  1  0  0  0  0
 11 12  2  0  0  0  0
 12 16  1  0  0  0  0
 13  7  1  0  0  0  0
 14  8  1  0  0  0  0
 15  3  1  0  0  0  0
 16 17  1  0  0  0  0
 17 13  1  0  0  0  0
 18 11  1  0  0  0  0
 19 11  1  0  0  0  0
 20 10  2  0  0  0  0
 21 10  1  0  0  0  0
 22 21  2  0  0  0  0
 23 20  1  0  0  0  0
 24 22  1  0  0  0  0
  4  5  1  0  0  0  0
 24 23  2  0  0  0  0
 14 13  2  0  0  0  0
M  END
>  <IDNUMBER>
F3385-2854

>  <Chemical_Name>
2-methyl-7-[(3-methylbut-2-en-1-yl)oxy]-3-phenyl-4H-chromen-4-one

>  <PriceCoeff>
1.00

>  <CAS>
70894-39-2

>  <MW>
320.38

>  <Description>
solid

>  <FSP3>
0.19

>  <clogP>
4.99

>  <TPSA>
35.53

>  <Acceptor>
3

>  <Donor>
0

>  <RotBonds>
4

>  <HAC>
24

>  <Collection>
General

>  <PPDS>
+

$$$$
F3385-2858
  Mrv2219 10102508112D          

 29 32  0  0  0  0            999 V2000
    2.2277    1.1588    0.0000 C   0  0  0  0  0  0  0  0  0  0  0  0
    1.5080    0.7566    0.0000 C   0  0  0  0  0  0  0  0  0  0  0  0
    0.7937    1.1694    0.0000 C   0  0  0  0  0  0  0  0  0  0  0  0
    2.2277    1.9948    0.0000 C   0  0  0  0  0  0  0  0  0  0  0  0
    0.7937    1.9948    0.0000 C   0  0  0  0  0  0  0  0  0  0  0  0
    1.5080    2.4075    0.0000 O   0  0  0  0  0  0  0  0  0  0  0  0
    2.9262    0.7566    0.0000 C   0  0  0  0  0  0  0  0  0  0  0  0
    0.0794    0.7566    0.0000 C   0  0  0  0  0  0  0  0  0  0  0  0
    0.0794    2.4075    0.0000 C   0  0  0  0  0  0  0  0  0  0  0  0
   -2.7568    2.4075    0.0000 C   0  0  0  0  0  0  0  0  0  0  0  0
    1.4975   -0.0688    0.0000 O   0  0  0  0  0  0  0  0  0  0  0  0
    2.9262   -0.0688    0.0000 C   0  0  0  0  0  0  0  0  0  0  0  0
   -2.0478    1.9948    0.0000 C   0  0  0  0  0  0  0  0  0  0  0  0
   -2.7568    3.2171    0.0000 O   0  0  0  0  0  0  0  0  0  0  0  0
   -3.4711    1.9948    0.0000 C   0  0  0  0  0  0  0  0  0  0  0  0
   -0.6296    1.9843    0.0000 C   0  0  0  0  0  0  0  0  0  0  0  0
   -1.3440    2.4075    0.0000 O   0  0  0  0  0  0  0  0  0  0  0  0
   -0.6296    1.1694    0.0000 C   0  0  0  0  0  0  0  0  0  0  0  0
    2.2224   -0.4657    0.0000 O   0  0  0  0  0  0  0  0  0  0  0  0
    3.6405    1.1588    0.0000 C   0  0  0  0  0  0  0  0  0  0  0  0
    3.6405   -0.4816    0.0000 C   0  0  0  0  0  0  0  0  0  0  0  0
   -3.4552    1.1747    0.0000 C   0  0  0  0  0  0  0  0  0  0  0  0
   -4.1696    2.3917    0.0000 C   0  0  0  0  0  0  0  0  0  0  0  0
    2.2118   -1.2911    0.0000 C   0  0  0  0  0  0  0  0  0  0  0  0
    4.3495    0.7566    0.0000 C   0  0  0  0  0  0  0  0  0  0  0  0
   -4.1590    0.7566    0.0000 C   0  0  0  0  0  0  0  0  0  0  0  0
    4.3495   -0.0688    0.0000 C   0  0  0  0  0  0  0  0  0  0  0  0
   -4.8839    1.9789    0.0000 C   0  0  0  0  0  0  0  0  0  0  0  0
   -4.8734    1.1694    0.0000 C   0  0  0  0  0  0  0  0  0  0  0  0
  2  1  1  0  0  0  0
  3  2  1  0  0  0  0
  4  1  2  0  0  0  0
  5  6  1  0  0  0  0
  6  4  1  0  0  0  0
  7  1  1  0  0  0  0
  8  3  2  0  0  0  0
  9  5  2  0  0  0  0
 10 13  1  0  0  0  0
 11  2  2  0  0  0  0
 12  7  2  0  0  0  0
 13 17  1  0  0  0  0
 14 10  2  0  0  0  0
 15 10  1  0  0  0  0
 16  9  1  0  0  0  0
 17 16  1  0  0  0  0
 18  8  1  0  0  0  0
 19 12  1  0  0  0  0
 20  7  1  0  0  0  0
 21 12  1  0  0  0  0
 22 15  1  0  0  0  0
 23 15  2  0  0  0  0
 24 19  1  0  0  0  0
 25 20  2  0  0  0  0
 26 22  2  0  0  0  0
 27 25  1  0  0  0  0
 28 23  1  0  0  0  0
 29 28  2  0  0  0  0
  3  5  1  0  0  0  0
 27 21  2  0  0  0  0
 18 16  2  0  0  0  0
 29 26  1  0  0  0  0
M  END
>  <IDNUMBER>
F3385-2858

>  <Chemical_Name>
3-(2-methoxyphenyl)-7-(2-oxo-2-phenylethoxy)-4H-chromen-4-one

>  <PriceCoeff>
1.00

>  <CAS>
316127-08-9

>  <MW>
386.40

>  <Description>
solid

>  <FSP3>
0.08

>  <clogP>
3.42

>  <TPSA>
61.83

>  <Acceptor>
5

>  <Donor>
0

>  <RotBonds>
6

>  <HAC>
29

>  <Collection>
General

>  <PPDS>
+

$$$$
F3385-2912
  Mrv2219 10102508112D          

 29 32  0  0  0  0            999 V2000
    5.1881    0.3193    0.0000 C   0  0  0  0  0  0  0  0  0  0  0  0
    4.4592   -0.0852    0.0000 C   0  0  0  0  0  0  0  0  0  0  0  0
    3.7408    0.3299    0.0000 C   0  0  0  0  0  0  0  0  0  0  0  0
    5.1881    1.1600    0.0000 C   0  0  0  0  0  0  0  0  0  0  0  0
    3.7408    1.1600    0.0000 C   0  0  0  0  0  0  0  0  0  0  0  0
    4.4592    1.5750    0.0000 O   0  0  0  0  0  0  0  0  0  0  0  0
    3.0225   -0.0852    0.0000 C   0  0  0  0  0  0  0  0  0  0  0  0
    3.0225    1.5644    0.0000 C   0  0  0  0  0  0  0  0  0  0  0  0
    0.1756    1.5750    0.0000 C   0  0  0  0  0  0  0  0  0  0  0  0
    5.8959   -0.0852    0.0000 C   0  0  0  0  0  0  0  0  0  0  0  0
    4.4592   -0.9153    0.0000 O   0  0  0  0  0  0  0  0  0  0  0  0
   -0.5428    1.1600    0.0000 C   0  0  0  0  0  0  0  0  0  0  0  0
    0.8834    1.1600    0.0000 C   0  0  0  0  0  0  0  0  0  0  0  0
    0.1756    2.3945    0.0000 O   0  0  0  0  0  0  0  0  0  0  0  0
    2.3147    1.1494    0.0000 C   0  0  0  0  0  0  0  0  0  0  0  0
    1.6017    1.5644    0.0000 O   0  0  0  0  0  0  0  0  0  0  0  0
   -1.2558    1.5750    0.0000 C   0  0  0  0  0  0  0  0  0  0  0  0
   -0.5428    0.3352    0.0000 C   0  0  0  0  0  0  0  0  0  0  0  0
    2.3147    0.3299    0.0000 C   0  0  0  0  0  0  0  0  0  0  0  0
   -1.9741    0.3352    0.0000 C   0  0  0  0  0  0  0  0  0  0  0  0
   -1.2558   -0.0798    0.0000 C   0  0  0  0  0  0  0  0  0  0  0  0
   -1.9741    1.1600    0.0000 C   0  0  0  0  0  0  0  0  0  0  0  0
   -2.6925   -0.0798    0.0000 O   0  0  0  0  0  0  0  0  0  0  0  0
    5.8959   -0.9153    0.0000 C   0  0  0  0  0  0  0  0  0  0  0  0
    6.6089    0.3193    0.0000 C   0  0  0  0  0  0  0  0  0  0  0  0
   -2.6925   -0.8993    0.0000 C   0  0  0  0  0  0  0  0  0  0  0  0
    6.6089   -1.3303    0.0000 C   0  0  0  0  0  0  0  0  0  0  0  0
    7.3166   -0.0852    0.0000 C   0  0  0  0  0  0  0  0  0  0  0  0
    7.3166   -0.9153    0.0000 C   0  0  0  0  0  0  0  0  0  0  0  0
  2  1  1  0  0  0  0
  3  2  1  0  0  0  0
  4  1  2  0  0  0  0
  5  6  1  0  0  0  0
  6  4  1  0  0  0  0
  7  3  2  0  0  0  0
  8  5  2  0  0  0  0
  9 13  1  0  0  0  0
 10  1  1  0  0  0  0
 11  2  2  0  0  0  0
 12  9  1  0  0  0  0
 13 16  1  0  0  0  0
 14  9  2  0  0  0  0
 15  8  1  0  0  0  0
 16 15  1  0  0  0  0
 17 12  2  0  0  0  0
 18 12  1  0  0  0  0
 19  7  1  0  0  0  0
 20 21  1  0  0  0  0
 21 18  2  0  0  0  0
 22 17  1  0  0  0  0
 23 20  1  0  0  0  0
 24 10  2  0  0  0  0
 25 10  1  0  0  0  0
 26 23  1  0  0  0  0
 27 24  1  0  0  0  0
 28 25  2  0  0  0  0
 29 28  1  0  0  0  0
  3  5  1  0  0  0  0
 29 27  2  0  0  0  0
 19 15  2  0  0  0  0
 20 22  2  0  0  0  0
M  END
>  <IDNUMBER>
F3385-2912

>  <Chemical_Name>
7-[2-(4-methoxyphenyl)-2-oxoethoxy]-3-phenyl-4H-chromen-4-one

>  <PriceCoeff>
1.00

>  <CAS>
858767-60-9

>  <MW>
386.40

>  <Description>
solid

>  <FSP3>
0.08

>  <clogP>
4.26

>  <TPSA>
61.83

>  <Acceptor>
5

>  <Donor>
0

>  <RotBonds>
6

>  <HAC>
29

>  <Collection>
General

>  <PPDS>
+

$$$$
F3385-2913
  Mrv2219 10102508112D          

 29 32  0  0  0  0            999 V2000
    5.1881    0.3193    0.0000 C   0  0  0  0  0  0  0  0  0  0  0  0
    4.4592   -0.0852    0.0000 C   0  0  0  0  0  0  0  0  0  0  0  0
    3.7408    0.3299    0.0000 C   0  0  0  0  0  0  0  0  0  0  0  0
    5.1881    1.1600    0.0000 C   0  0  0  0  0  0  0  0  0  0  0  0
    3.7408    1.1600    0.0000 C   0  0  0  0  0  0  0  0  0  0  0  0
    4.4592    1.5750    0.0000 O   0  0  0  0  0  0  0  0  0  0  0  0
    5.8959   -0.0852    0.0000 C   0  0  0  0  0  0  0  0  0  0  0  0
    3.0225   -0.0852    0.0000 C   0  0  0  0  0  0  0  0  0  0  0  0
    3.0225    1.5644    0.0000 C   0  0  0  0  0  0  0  0  0  0  0  0
    0.1756    1.5750    0.0000 C   0  0  0  0  0  0  0  0  0  0  0  0
    4.4592   -0.9153    0.0000 O   0  0  0  0  0  0  0  0  0  0  0  0
    0.8834    1.1600    0.0000 C   0  0  0  0  0  0  0  0  0  0  0  0
    0.1756    2.3945    0.0000 O   0  0  0  0  0  0  0  0  0  0  0  0
   -0.5428    1.1600    0.0000 C   0  0  0  0  0  0  0  0  0  0  0  0
    2.3147    1.1494    0.0000 C   0  0  0  0  0  0  0  0  0  0  0  0
    6.6089    0.3193    0.0000 C   0  0  0  0  0  0  0  0  0  0  0  0
    5.8959   -0.9153    0.0000 C   0  0  0  0  0  0  0  0  0  0  0  0
    1.6017    1.5644    0.0000 O   0  0  0  0  0  0  0  0  0  0  0  0
    2.3147    0.3299    0.0000 C   0  0  0  0  0  0  0  0  0  0  0  0
    7.3166   -0.9153    0.0000 C   0  0  0  0  0  0  0  0  0  0  0  0
    7.3166   -0.0852    0.0000 C   0  0  0  0  0  0  0  0  0  0  0  0
    6.6089   -1.3303    0.0000 C   0  0  0  0  0  0  0  0  0  0  0  0
    8.0350   -1.3303    0.0000 O   0  0  0  0  0  0  0  0  0  0  0  0
   -1.2558    1.5750    0.0000 C   0  0  0  0  0  0  0  0  0  0  0  0
   -0.5428    0.3352    0.0000 C   0  0  0  0  0  0  0  0  0  0  0  0
    8.7480   -0.9153    0.0000 C   0  0  0  0  0  0  0  0  0  0  0  0
   -1.2558   -0.0798    0.0000 C   0  0  0  0  0  0  0  0  0  0  0  0
   -1.9741    1.1600    0.0000 C   0  0  0  0  0  0  0  0  0  0  0  0
   -1.9741    0.3352    0.0000 C   0  0  0  0  0  0  0  0  0  0  0  0
  2  1  1  0  0  0  0
  3  2  1  0  0  0  0
  4  1  2  0  0  0  0
  5  6  1  0  0  0  0
  6  4  1  0  0  0  0
  7  1  1  0  0  0  0
  8  3  2  0  0  0  0
  9  5  2  0  0  0  0
 10 12  1  0  0  0  0
 11  2  2  0  0  0  0
 12 18  1  0  0  0  0
 13 10  2  0  0  0  0
 14 10  1  0  0  0  0
 15  9  1  0  0  0  0
 16  7  1  0  0  0  0
 17  7  2  0  0  0  0
 18 15  1  0  0  0  0
 19  8  1  0  0  0  0
 20 22  2  0  0  0  0
 21 16  2  0  0  0  0
 22 17  1  0  0  0  0
 23 20  1  0  0  0  0
 24 14  2  0  0  0  0
 25 14  1  0  0  0  0
 26 23  1  0  0  0  0
 27 25  2  0  0  0  0
 28 24  1  0  0  0  0
 29 27  1  0  0  0  0
 21 20  1  0  0  0  0
  3  5  1  0  0  0  0
 19 15  2  0  0  0  0
 29 28  2  0  0  0  0
M  END
>  <IDNUMBER>
F3385-2913

>  <Chemical_Name>
3-(4-methoxyphenyl)-7-(2-oxo-2-phenylethoxy)-4H-chromen-4-one

>  <PriceCoeff>
1.00

>  <CAS>
858760-05-1

>  <MW>
386.40

>  <Description>
solid

>  <FSP3>
0.08

>  <clogP>
3.98

>  <TPSA>
61.83

>  <Acceptor>
5

>  <Donor>
0

>  <RotBonds>
6

>  <HAC>
29

>  <Collection>
General

>  <PPDS>
+

$$$$
F3385-2964
  Mrv2219 10102508112D          

 30 33  0  0  0  0            999 V2000
    6.3075    0.1224    0.0000 C   0  0  0  0  0  0  0  0  0  0  0  0
    5.5783   -0.2768    0.0000 C   0  0  0  0  0  0  0  0  0  0  0  0
    4.8597    0.1277    0.0000 C   0  0  0  0  0  0  0  0  0  0  0  0
    6.3075    0.9581    0.0000 C   0  0  0  0  0  0  0  0  0  0  0  0
    4.8597    0.9581    0.0000 C   0  0  0  0  0  0  0  0  0  0  0  0
    7.0154   -0.2768    0.0000 C   0  0  0  0  0  0  0  0  0  0  0  0
    5.5783    1.3839    0.0000 O   0  0  0  0  0  0  0  0  0  0  0  0
    7.7286    0.1224    0.0000 C   0  0  0  0  0  0  0  0  0  0  0  0
    4.1411   -0.2768    0.0000 C   0  0  0  0  0  0  0  0  0  0  0  0
    4.1411    1.3679    0.0000 C   0  0  0  0  0  0  0  0  0  0  0  0
    8.4366   -0.2768    0.0000 C   0  0  0  0  0  0  0  0  0  0  0  0
    5.5783   -1.1072    0.0000 O   0  0  0  0  0  0  0  0  0  0  0  0
    8.4366   -1.1072    0.0000 C   0  0  0  0  0  0  0  0  0  0  0  0
    7.0154   -1.1072    0.0000 C   0  0  0  0  0  0  0  0  0  0  0  0
    7.7286   -1.5223    0.0000 C   0  0  0  0  0  0  0  0  0  0  0  0
    3.4332    0.9581    0.0000 C   0  0  0  0  0  0  0  0  0  0  0  0
    2.7200    1.3733    0.0000 O   0  0  0  0  0  0  0  0  0  0  0  0
    3.4332    0.1277    0.0000 C   0  0  0  0  0  0  0  0  0  0  0  0
    0.5802    0.9687    0.0000 C   0  0  0  0  0  0  0  0  0  0  0  0
   -0.1383    1.3733    0.0000 C   0  0  0  0  0  0  0  0  0  0  0  0
    2.0014    0.9687    0.0000 C   0  0  0  0  0  0  0  0  0  0  0  0
    1.2934    1.3733    0.0000 C   0  0  0  0  0  0  0  0  0  0  0  0
    9.1552    0.1277    0.0000 O   0  0  0  0  0  0  0  0  0  0  0  0
   -0.8463    0.9581    0.0000 Cl  0  0  0  0  0  0  0  0  0  0  0  0
    9.1552   -1.5223    0.0000 O   0  0  0  0  0  0  0  0  0  0  0  0
    0.5802    2.6134    0.0000 C   0  0  0  0  0  0  0  0  0  0  0  0
   -0.1383    2.2036    0.0000 C   0  0  0  0  0  0  0  0  0  0  0  0
    1.2988    2.1983    0.0000 C   0  0  0  0  0  0  0  0  0  0  0  0
    9.1552    0.9527    0.0000 C   0  0  0  0  0  0  0  0  0  0  0  0
    9.8684   -1.1178    0.0000 C   0  0  0  0  0  0  0  0  0  0  0  0
  2  1  1  0  0  0  0
  3  2  1  0  0  0  0
  4  1  2  0  0  0  0
  5  7  1  0  0  0  0
  6  1  1  0  0  0  0
  7  4  1  0  0  0  0
  8  6  1  0  0  0  0
  9  3  2  0  0  0  0
 10  5  2  0  0  0  0
 11  8  2  0  0  0  0
 12  2  2  0  0  0  0
 13 15  2  0  0  0  0
 14  6  2  0  0  0  0
 15 14  1  0  0  0  0
 16 10  1  0  0  0  0
 17 16  1  0  0  0  0
 18  9  1  0  0  0  0
 19 22  1  0  0  0  0
 20 19  2  0  0  0  0
 21 17  1  0  0  0  0
 22 21  1  0  0  0  0
 23 11  1  0  0  0  0
 24 20  1  0  0  0  0
 25 13  1  0  0  0  0
 26 28  1  0  0  0  0
 27 26  2  0  0  0  0
 28 22  2  0  0  0  0
 29 23  1  0  0  0  0
 30 25  1  0  0  0  0
  3  5  1  0  0  0  0
 11 13  1  0  0  0  0
 18 16  2  0  0  0  0
 27 20  1  0  0  0  0
M  END
>  <IDNUMBER>
F3385-2964

>  <Chemical_Name>
7-[(3-chlorophenyl)methoxy]-3-(3,4-dimethoxyphenyl)-4H-chromen-4-one

>  <PriceCoeff>
1.00

>  <CAS>
848203-69-0

>  <MW>
422.86

>  <Description>
solid

>  <FSP3>
0.12

>  <clogP>
5.23

>  <TPSA>
53.99

>  <Acceptor>
5

>  <Donor>
0

>  <RotBonds>
6

>  <HAC>
30

>  <Collection>
General

>  <PPDS>
+

$$$$
F3385-2965
  Mrv2219 10102508112D          

 31 34  0  0  0  0            999 V2000
    6.3075    0.1224    0.0000 C   0  0  0  0  0  0  0  0  0  0  0  0
    5.5783   -0.2768    0.0000 C   0  0  0  0  0  0  0  0  0  0  0  0
    4.8597    0.1277    0.0000 C   0  0  0  0  0  0  0  0  0  0  0  0
    6.3075    0.9581    0.0000 C   0  0  0  0  0  0  0  0  0  0  0  0
    4.8597    0.9581    0.0000 C   0  0  0  0  0  0  0  0  0  0  0  0
    7.0154   -0.2768    0.0000 C   0  0  0  0  0  0  0  0  0  0  0  0
    5.5783    1.3839    0.0000 O   0  0  0  0  0  0  0  0  0  0  0  0
    7.7286    0.1224    0.0000 C   0  0  0  0  0  0  0  0  0  0  0  0
    4.1411   -0.2768    0.0000 C   0  0  0  0  0  0  0  0  0  0  0  0
    4.1411    1.3679    0.0000 C   0  0  0  0  0  0  0  0  0  0  0  0
    1.2934    1.3733    0.0000 C   0  0  0  0  0  0  0  0  0  0  0  0
    8.4366   -0.2768    0.0000 C   0  0  0  0  0  0  0  0  0  0  0  0
    5.5783   -1.1072    0.0000 O   0  0  0  0  0  0  0  0  0  0  0  0
    8.4366   -1.1072    0.0000 C   0  0  0  0  0  0  0  0  0  0  0  0
    7.0154   -1.1072    0.0000 C   0  0  0  0  0  0  0  0  0  0  0  0
    1.2988    2.1983    0.0000 C   0  0  0  0  0  0  0  0  0  0  0  0
    0.5802    0.9687    0.0000 C   0  0  0  0  0  0  0  0  0  0  0  0
    2.0014    0.9687    0.0000 C   0  0  0  0  0  0  0  0  0  0  0  0
    7.7286   -1.5223    0.0000 C   0  0  0  0  0  0  0  0  0  0  0  0
    3.4332    0.9581    0.0000 C   0  0  0  0  0  0  0  0  0  0  0  0
    2.7200    1.3733    0.0000 O   0  0  0  0  0  0  0  0  0  0  0  0
    0.5802    2.6134    0.0000 C   0  0  0  0  0  0  0  0  0  0  0  0
    3.4332    0.1277    0.0000 C   0  0  0  0  0  0  0  0  0  0  0  0
   -0.1383    1.3733    0.0000 C   0  0  0  0  0  0  0  0  0  0  0  0
    9.1552    0.1277    0.0000 O   0  0  0  0  0  0  0  0  0  0  0  0
   -0.1383    2.2036    0.0000 C   0  0  0  0  0  0  0  0  0  0  0  0
    9.1552   -1.5223    0.0000 O   0  0  0  0  0  0  0  0  0  0  0  0
    2.0120    2.6134    0.0000 C   0  0  0  0  0  0  0  0  0  0  0  0
   -0.8463    0.9581    0.0000 C   0  0  0  0  0  0  0  0  0  0  0  0
    9.1552    0.9527    0.0000 C   0  0  0  0  0  0  0  0  0  0  0  0
    9.8684   -1.1178    0.0000 C   0  0  0  0  0  0  0  0  0  0  0  0
  2  1  1  0  0  0  0
  3  2  1  0  0  0  0
  4  1  2  0  0  0  0
  5  7  1  0  0  0  0
  6  1  1  0  0  0  0
  7  4  1  0  0  0  0
  8  6  1  0  0  0  0
  9  3  2  0  0  0  0
 10  5  2  0  0  0  0
 11 18  1  0  0  0  0
 12  8  2  0  0  0  0
 13  2  2  0  0  0  0
 14 19  2  0  0  0  0
 15  6  2  0  0  0  0
 16 11  2  0  0  0  0
 17 11  1  0  0  0  0
 18 21  1  0  0  0  0
 19 15  1  0  0  0  0
 20 10  1  0  0  0  0
 21 20  1  0  0  0  0
 22 16  1  0  0  0  0
 23  9  1  0  0  0  0
 24 17  2  0  0  0  0
 25 12  1  0  0  0  0
 26 24  1  0  0  0  0
 27 14  1  0  0  0  0
 28 16  1  0  0  0  0
 29 24  1  0  0  0  0
 30 25  1  0  0  0  0
 31 27  1  0  0  0  0
  3  5  1  0  0  0  0
 12 14  1  0  0  0  0
 23 20  2  0  0  0  0
 26 22  2  0  0  0  0
M  END
>  <IDNUMBER>
F3385-2965

>  <Chemical_Name>
3-(3,4-dimethoxyphenyl)-7-[(2,5-dimethylphenyl)methoxy]-4H-chromen-4-one

>  <PriceCoeff>
1.00

>  <CAS>
858767-15-4

>  <MW>
416.47

>  <Description>
solid

>  <FSP3>
0.19

>  <clogP>
5.47

>  <TPSA>
53.99

>  <Acceptor>
5

>  <Donor>
0

>  <RotBonds>
6

>  <HAC>
31

>  <Collection>
General

>  <PPDS>
+

$$$$
F3385-2966
  Mrv2219 10102508112D          

 30 33  0  0  0  0            999 V2000
    8.6841   -4.6933    0.0000 C   0  0  0  0  0  0  0  0  0  0  0  0
    7.9552   -5.0977    0.0000 C   0  0  0  0  0  0  0  0  0  0  0  0
    7.2368   -4.6827    0.0000 C   0  0  0  0  0  0  0  0  0  0  0  0
    8.6841   -3.8526    0.0000 C   0  0  0  0  0  0  0  0  0  0  0  0
    7.2368   -3.8526    0.0000 C   0  0  0  0  0  0  0  0  0  0  0  0
    9.3919   -5.0977    0.0000 C   0  0  0  0  0  0  0  0  0  0  0  0
    7.9552   -3.4375    0.0000 O   0  0  0  0  0  0  0  0  0  0  0  0
   10.1049   -4.6933    0.0000 C   0  0  0  0  0  0  0  0  0  0  0  0
    6.5185   -5.0977    0.0000 C   0  0  0  0  0  0  0  0  0  0  0  0
    6.5185   -3.4481    0.0000 C   0  0  0  0  0  0  0  0  0  0  0  0
   10.8126   -5.0977    0.0000 C   0  0  0  0  0  0  0  0  0  0  0  0
    7.9552   -5.9278    0.0000 O   0  0  0  0  0  0  0  0  0  0  0  0
   10.8126   -5.9278    0.0000 C   0  0  0  0  0  0  0  0  0  0  0  0
    9.3919   -5.9278    0.0000 C   0  0  0  0  0  0  0  0  0  0  0  0
    3.6716   -3.4375    0.0000 C   0  0  0  0  0  0  0  0  0  0  0  0
   10.1049   -6.3429    0.0000 C   0  0  0  0  0  0  0  0  0  0  0  0
    4.3794   -3.8526    0.0000 C   0  0  0  0  0  0  0  0  0  0  0  0
    5.8107   -3.8526    0.0000 C   0  0  0  0  0  0  0  0  0  0  0  0
    3.6770   -2.6180    0.0000 C   0  0  0  0  0  0  0  0  0  0  0  0
    5.0977   -3.4375    0.0000 O   0  0  0  0  0  0  0  0  0  0  0  0
    5.8107   -4.6827    0.0000 C   0  0  0  0  0  0  0  0  0  0  0  0
   11.5310   -4.6827    0.0000 O   0  0  0  0  0  0  0  0  0  0  0  0
   11.5310   -6.3429    0.0000 O   0  0  0  0  0  0  0  0  0  0  0  0
    2.9586   -3.8526    0.0000 C   0  0  0  0  0  0  0  0  0  0  0  0
    4.3900   -2.2083    0.0000 C   0  0  0  0  0  0  0  0  0  0  0  0
    2.9586   -2.2030    0.0000 C   0  0  0  0  0  0  0  0  0  0  0  0
   11.5310   -3.8632    0.0000 C   0  0  0  0  0  0  0  0  0  0  0  0
   12.2440   -5.9278    0.0000 C   0  0  0  0  0  0  0  0  0  0  0  0
    2.2402   -2.6074    0.0000 C   0  0  0  0  0  0  0  0  0  0  0  0
    2.2402   -3.4375    0.0000 C   0  0  0  0  0  0  0  0  0  0  0  0
  2  1  1  0  0  0  0
  3  2  1  0  0  0  0
  4  1  2  0  0  0  0
  5  7  1  0  0  0  0
  6  1  1  0  0  0  0
  7  4  1  0  0  0  0
  8  6  1  0  0  0  0
  9  3  2  0  0  0  0
 10  5  2  0  0  0  0
 11  8  2  0  0  0  0
 12  2  2  0  0  0  0
 13 16  2  0  0  0  0
 14  6  2  0  0  0  0
 15 17  1  0  0  0  0
 16 14  1  0  0  0  0
 17 20  1  0  0  0  0
 18 10  1  0  0  0  0
 19 15  2  0  0  0  0
 20 18  1  0  0  0  0
 21  9  1  0  0  0  0
 22 11  1  0  0  0  0
 23 13  1  0  0  0  0
 24 15  1  0  0  0  0
 25 19  1  0  0  0  0
 26 19  1  0  0  0  0
 27 22  1  0  0  0  0
 28 23  1  0  0  0  0
 29 30  1  0  0  0  0
 30 24  2  0  0  0  0
  3  5  1  0  0  0  0
 11 13  1  0  0  0  0
 21 18  2  0  0  0  0
 29 26  2  0  0  0  0
M  END
>  <IDNUMBER>
F3385-2966

>  <Chemical_Name>
3-(3,4-dimethoxyphenyl)-7-[(2-methylphenyl)methoxy]-4H-chromen-4-one

>  <PriceCoeff>
1.00

>  <CAS>
859138-24-2

>  <MW>
402.44

>  <Description>
solid

>  <FSP3>
0.16

>  <clogP>
4.97

>  <TPSA>
53.99

>  <Acceptor>
5

>  <Donor>
0

>  <RotBonds>
6

>  <HAC>
30

>  <Collection>
General

>  <PPDS>
+

$$$$
F3385-3067
  Mrv2219 10102508112D          

 32 35  0  0  0  0            999 V2000
    6.8292   -0.3000    0.0000 C   0  0  0  0  0  0  0  0  0  0  0  0
    5.3917    0.5333    0.0000 C   0  0  0  0  0  0  0  0  0  0  0  0
    5.3917   -0.3000    0.0000 C   0  0  0  0  0  0  0  0  0  0  0  0
    6.1042   -0.7125    0.0000 C   0  0  0  0  0  0  0  0  0  0  0  0
    4.6792    0.9458    0.0000 C   0  0  0  0  0  0  0  0  0  0  0  0
    6.1125    0.9583    0.0000 O   0  0  0  0  0  0  0  0  0  0  0  0
    6.8292    0.5333    0.0000 C   0  0  0  0  0  0  0  0  0  0  0  0
    7.5417   -0.7125    0.0000 C   0  0  0  0  0  0  0  0  0  0  0  0
    4.6792   -0.7042    0.0000 C   0  0  0  0  0  0  0  0  0  0  0  0
    8.2542   -0.3042    0.0000 C   0  0  0  0  0  0  0  0  0  0  0  0
    4.6750    1.7708    0.0000 C   0  0  0  0  0  0  0  0  0  0  0  0
    3.9667    0.5333    0.0000 C   0  0  0  0  0  0  0  0  0  0  0  0
    8.9667   -0.7167    0.0000 C   0  0  0  0  0  0  0  0  0  0  0  0
    6.1042   -1.5375    0.0000 O   0  0  0  0  0  0  0  0  0  0  0  0
    3.9625    2.1833    0.0000 N   0  0  0  0  0  0  0  0  0  0  0  0
    8.9667   -1.5417    0.0000 C   0  0  0  0  0  0  0  0  0  0  0  0
    7.5375   -1.5417    0.0000 C   0  0  0  0  0  0  0  0  0  0  0  0
    3.9667   -0.2917    0.0000 C   0  0  0  0  0  0  0  0  0  0  0  0
    8.2500   -1.9542    0.0000 C   0  0  0  0  0  0  0  0  0  0  0  0
    3.2500    1.7708    0.0000 C   0  0  0  0  0  0  0  0  0  0  0  0
    9.6792   -0.3042    0.0000 O   0  0  0  0  0  0  0  0  0  0  0  0
    3.2500    0.9458    0.0000 O   0  0  0  0  0  0  0  0  0  0  0  0
    2.5292    2.1833    0.0000 C   0  0  0  0  0  0  0  0  0  0  0  0
    9.6792   -1.9542    0.0000 O   0  0  0  0  0  0  0  0  0  0  0  0
    3.9625    3.0083    0.0000 C   0  0  0  0  0  0  0  0  0  0  0  0
    9.6792    0.5208    0.0000 C   0  0  0  0  0  0  0  0  0  0  0  0
    2.5375    3.0208    0.0000 C   0  0  0  0  0  0  0  0  0  0  0  0
    1.8167    1.7708    0.0000 C   0  0  0  0  0  0  0  0  0  0  0  0
   10.3917   -1.5417    0.0000 C   0  0  0  0  0  0  0  0  0  0  0  0
    1.1042    2.1833    0.0000 C   0  0  0  0  0  0  0  0  0  0  0  0
    1.8167    3.4333    0.0000 C   0  0  0  0  0  0  0  0  0  0  0  0
    1.1042    3.0208    0.0000 C   0  0  0  0  0  0  0  0  0  0  0  0
  2  6  1  0  0  0  0
  3  4  1  0  0  0  0
  4  1  1  0  0  0  0
  5  2  2  0  0  0  0
  6  7  1  0  0  0  0
  7  1  2  0  0  0  0
  8  1  1  0  0  0  0
  9  3  2  0  0  0  0
 10  8  1  0  0  0  0
 11  5  1  0  0  0  0
 12  5  1  0  0  0  0
 13 10  2  0  0  0  0
 14  4  2  0  0  0  0
 15 11  1  0  0  0  0
 16 19  2  0  0  0  0
 17  8  2  0  0  0  0
 18  9  1  0  0  0  0
 19 17  1  0  0  0  0
 20 15  1  0  0  0  0
 21 13  1  0  0  0  0
 22 12  1  0  0  0  0
 23 20  1  0  0  0  0
 24 16  1  0  0  0  0
 25 15  1  0  0  0  0
 26 21  1  0  0  0  0
 27 23  2  0  0  0  0
 28 23  1  0  0  0  0
 29 24  1  0  0  0  0
 30 28  2  0  0  0  0
 31 27  1  0  0  0  0
 32 30  1  0  0  0  0
  3  2  1  0  0  0  0
 13 16  1  0  0  0  0
 18 12  2  0  0  0  0
 32 31  2  0  0  0  0
M  END
>  <IDNUMBER>
F3385-3067

>  <Chemical_Name>
8-{[benzyl(methyl)amino]methyl}-3-(3,4-dimethoxyphenyl)-7-hydroxy-4H-chromen-4-one

>  <PriceCoeff>
1.00

>  <CAS>
845652-45-1

>  <MW>
431.48

>  <Description>
solid

>  <FSP3>
0.19

>  <clogP>
3.93

>  <TPSA>
68.23

>  <Acceptor>
5

>  <Donor>
2

>  <RotBonds>
7

>  <HAC>
32

>  <Collection>
General

>  <PPDS>
+

$$$$
F3385-3642
  Mrv2219 10102508112D          

 28 30  0  0  0  0            999 V2000
    3.2625   -7.6667    0.0000 C   0  0  0  0  0  0  0  0  0  0  0  0
    1.8292   -6.8417    0.0000 C   0  0  0  0  0  0  0  0  0  0  0  0
    1.8292   -7.6667    0.0000 C   0  0  0  0  0  0  0  0  0  0  0  0
    2.5417   -8.0792    0.0000 C   0  0  0  0  0  0  0  0  0  0  0  0
    1.1167   -6.4292    0.0000 C   0  0  0  0  0  0  0  0  0  0  0  0
    2.5417   -6.4292    0.0000 O   0  0  0  0  0  0  0  0  0  0  0  0
    3.2625   -6.8417    0.0000 C   0  0  0  0  0  0  0  0  0  0  0  0
    3.9750   -8.0875    0.0000 C   0  0  0  0  0  0  0  0  0  0  0  0
    1.1167   -8.0792    0.0000 C   0  0  0  0  0  0  0  0  0  0  0  0
    4.6875   -7.6667    0.0000 C   0  0  0  0  0  0  0  0  0  0  0  0
    0.4042   -6.8500    0.0000 C   0  0  0  0  0  0  0  0  0  0  0  0
    1.1167   -5.6042    0.0000 C   0  0  0  0  0  0  0  0  0  0  0  0
    5.4042   -8.0792    0.0000 C   0  0  0  0  0  0  0  0  0  0  0  0
    2.5417   -8.9042    0.0000 O   0  0  0  0  0  0  0  0  0  0  0  0
    5.4042   -8.9125    0.0000 C   0  0  0  0  0  0  0  0  0  0  0  0
    3.9750   -8.9125    0.0000 C   0  0  0  0  0  0  0  0  0  0  0  0
    0.4042   -7.6667    0.0000 C   0  0  0  0  0  0  0  0  0  0  0  0
    4.6875   -9.3250    0.0000 C   0  0  0  0  0  0  0  0  0  0  0  0
    0.4042   -5.2000    0.0000 N   0  0  0  0  0  0  0  0  0  0  0  0
    6.1167   -7.6667    0.0000 O   0  0  0  0  0  0  0  0  0  0  0  0
   -0.3208   -6.4292    0.0000 O   0  0  0  0  0  0  0  0  0  0  0  0
    6.1250   -9.3292    0.0000 O   0  0  0  0  0  0  0  0  0  0  0  0
    0.4042   -4.3750    0.0000 C   0  0  0  0  0  0  0  0  0  0  0  0
   -0.3083   -5.6125    0.0000 C   0  0  0  0  0  0  0  0  0  0  0  0
    6.1125   -6.8417    0.0000 C   0  0  0  0  0  0  0  0  0  0  0  0
    6.1167  -10.1625    0.0000 C   0  0  0  0  0  0  0  0  0  0  0  0
    1.1167   -3.9542    0.0000 C   0  0  0  0  0  0  0  0  0  0  0  0
   -1.0208   -5.2000    0.0000 C   0  0  0  0  0  0  0  0  0  0  0  0
  2  6  1  0  0  0  0
  3  4  1  0  0  0  0
  4  1  1  0  0  0  0
  5  2  2  0  0  0  0
  6  7  1  0  0  0  0
  7  1  2  0  0  0  0
  8  1  1  0  0  0  0
  9  3  2  0  0  0  0
 10  8  1  0  0  0  0
 11  5  1  0  0  0  0
 12  5  1  0  0  0  0
 13 10  2  0  0  0  0
 14  4  2  0  0  0  0
 15 18  2  0  0  0  0
 16  8  2  0  0  0  0
 17  9  1  0  0  0  0
 18 16  1  0  0  0  0
 19 12  1  0  0  0  0
 20 13  1  0  0  0  0
 21 11  1  0  0  0  0
 22 15  1  0  0  0  0
 23 19  1  0  0  0  0
 24 19  1  0  0  0  0
 25 20  1  0  0  0  0
 26 22  1  0  0  0  0
 27 23  1  0  0  0  0
 28 24  1  0  0  0  0
  3  2  1  0  0  0  0
 13 15  1  0  0  0  0
 17 11  2  0  0  0  0
M  END
>  <IDNUMBER>
F3385-3642

>  <Chemical_Name>
8-[(diethylamino)methyl]-3-(3,4-dimethoxyphenyl)-7-hydroxy-4H-chromen-4-one

>  <PriceCoeff>
1.00

>  <CAS>
859139-39-2

>  <MW>
383.44

>  <Description>
solid

>  <FSP3>
0.32

>  <clogP>
3.22

>  <TPSA>
68.23

>  <Acceptor>
5

>  <Donor>
2

>  <RotBonds>
7

>  <HAC>
28

>  <Collection>
General

>  <PPDS>
+

$$$$
F3385-3711
  Mrv2219 10102508112D          

 28 31  0  0  0  0            999 V2000
    7.0500    0.0750    0.0000 C   0  0  0  0  0  0  0  0  0  0  0  0
    6.3250   -0.3375    0.0000 C   0  0  0  0  0  0  0  0  0  0  0  0
    5.6042    0.0750    0.0000 C   0  0  0  0  0  0  0  0  0  0  0  0
    7.0500    0.9083    0.0000 C   0  0  0  0  0  0  0  0  0  0  0  0
    5.6125    0.9083    0.0000 C   0  0  0  0  0  0  0  0  0  0  0  0
    6.3292    1.3333    0.0000 O   0  0  0  0  0  0  0  0  0  0  0  0
    4.8917    1.3208    0.0000 C   0  0  0  0  0  0  0  0  0  0  0  0
    7.7542   -0.3375    0.0000 C   0  0  0  0  0  0  0  0  0  0  0  0
    4.8917   -0.3292    0.0000 C   0  0  0  0  0  0  0  0  0  0  0  0
    6.3250   -1.1625    0.0000 O   0  0  0  0  0  0  0  0  0  0  0  0
    4.1792    0.9083    0.0000 C   0  0  0  0  0  0  0  0  0  0  0  0
    3.4667    1.3208    0.0000 N   0  0  0  0  0  0  0  0  0  0  0  0
    7.7542   -1.1667    0.0000 C   0  0  0  0  0  0  0  0  0  0  0  0
    8.4667    0.0708    0.0000 C   0  0  0  0  0  0  0  0  0  0  0  0
    4.1792    0.0833    0.0000 C   0  0  0  0  0  0  0  0  0  0  0  0
    2.7542    0.9083    0.0000 C   0  0  0  0  0  0  0  0  0  0  0  0
    9.1792   -1.1667    0.0000 C   0  0  0  0  0  0  0  0  0  0  0  0
    1.3250    0.0833    0.0000 C   0  0  0  0  0  0  0  0  0  0  0  0
    9.1792   -0.3417    0.0000 C   0  0  0  0  0  0  0  0  0  0  0  0
    8.4667   -1.5792    0.0000 C   0  0  0  0  0  0  0  0  0  0  0  0
    2.0417    1.3208    0.0000 C   0  0  0  0  0  0  0  0  0  0  0  0
    2.7542    0.0833    0.0000 C   0  0  0  0  0  0  0  0  0  0  0  0
    2.0417   -0.3292    0.0000 C   0  0  0  0  0  0  0  0  0  0  0  0
    1.3250    0.9083    0.0000 C   0  0  0  0  0  0  0  0  0  0  0  0
    0.6042   -0.3292    0.0000 O   0  0  0  0  0  0  0  0  0  0  0  0
    9.8917   -1.5792    0.0000 O   0  0  0  0  0  0  0  0  0  0  0  0
    0.6042   -1.1542    0.0000 C   0  0  0  0  0  0  0  0  0  0  0  0
   10.6125   -1.1667    0.0000 C   0  0  0  0  0  0  0  0  0  0  0  0
  2  1  1  0  0  0  0
  3  2  1  0  0  0  0
  4  1  2  0  0  0  0
  5  6  1  0  0  0  0
  6  4  1  0  0  0  0
  7  5  2  0  0  0  0
  8  1  1  0  0  0  0
  9  3  2  0  0  0  0
 10  2  2  0  0  0  0
 11  7  1  0  0  0  0
 12 11  1  0  0  0  0
 13  8  2  0  0  0  0
 14  8  1  0  0  0  0
 15  9  1  0  0  0  0
 16 12  1  0  0  0  0
 17 19  1  0  0  0  0
 18 23  1  0  0  0  0
 19 14  2  0  0  0  0
 20 13  1  0  0  0  0
 21 16  2  0  0  0  0
 22 16  1  0  0  0  0
 23 22  2  0  0  0  0
 24 21  1  0  0  0  0
 25 18  1  0  0  0  0
 26 17  1  0  0  0  0
 27 25  1  0  0  0  0
 28 26  1  0  0  0  0
 20 17  2  0  0  0  0
  5  3  1  0  0  0  0
 11 15  2  0  0  0  0
 24 18  2  0  0  0  0
M  END
>  <IDNUMBER>
F3385-3711

>  <Chemical_Name>
3-(4-methoxyphenyl)-7-[(4-methoxyphenyl)amino]-4H-chromen-4-one

>  <PriceCoeff>
1.00

>  <CAS>
864760-93-0

>  <MW>
373.40

>  <Description>
solid

>  <FSP3>
0.09

>  <clogP>
4.78

>  <TPSA>
56.79

>  <Acceptor>
5

>  <Donor>
1

>  <RotBonds>
5

>  <HAC>
28

>  <Collection>
General

>  <PPDS>
+

$$$$
F3385-3712
  Mrv2219 10102508112D          

 30 33  0  0  0  0            999 V2000
    7.0500   -0.5292    0.0000 C   0  0  0  0  0  0  0  0  0  0  0  0
    6.3250   -0.9417    0.0000 C   0  0  0  0  0  0  0  0  0  0  0  0
    5.6042   -0.5292    0.0000 C   0  0  0  0  0  0  0  0  0  0  0  0
    7.0500    0.3083    0.0000 C   0  0  0  0  0  0  0  0  0  0  0  0
    5.6125    0.3083    0.0000 C   0  0  0  0  0  0  0  0  0  0  0  0
    6.3292    0.7250    0.0000 O   0  0  0  0  0  0  0  0  0  0  0  0
    2.7542    0.3000    0.0000 C   0  0  0  0  0  0  0  0  0  0  0  0
    3.4667    0.7125    0.0000 N   0  0  0  0  0  0  0  0  0  0  0  0
    4.8917    0.7208    0.0000 C   0  0  0  0  0  0  0  0  0  0  0  0
    7.7542   -0.9417    0.0000 C   0  0  0  0  0  0  0  0  0  0  0  0
    2.0417    0.7208    0.0000 C   0  0  0  0  0  0  0  0  0  0  0  0
    4.8917   -0.9375    0.0000 C   0  0  0  0  0  0  0  0  0  0  0  0
    1.3250    0.3083    0.0000 C   0  0  0  0  0  0  0  0  0  0  0  0
    4.1792    0.3000    0.0000 C   0  0  0  0  0  0  0  0  0  0  0  0
    6.3250   -1.7667    0.0000 O   0  0  0  0  0  0  0  0  0  0  0  0
    2.7542   -0.5167    0.0000 C   0  0  0  0  0  0  0  0  0  0  0  0
    7.7542   -1.7667    0.0000 C   0  0  0  0  0  0  0  0  0  0  0  0
    8.4667   -0.5292    0.0000 C   0  0  0  0  0  0  0  0  0  0  0  0
    1.3250   -0.5167    0.0000 C   0  0  0  0  0  0  0  0  0  0  0  0
    4.1792   -0.5167    0.0000 C   0  0  0  0  0  0  0  0  0  0  0  0
    9.1792   -1.7750    0.0000 C   0  0  0  0  0  0  0  0  0  0  0  0
    2.0417   -0.9292    0.0000 C   0  0  0  0  0  0  0  0  0  0  0  0
    2.0417    1.5458    0.0000 O   0  0  0  0  0  0  0  0  0  0  0  0
    9.1792   -0.9417    0.0000 C   0  0  0  0  0  0  0  0  0  0  0  0
    8.4667   -2.1792    0.0000 C   0  0  0  0  0  0  0  0  0  0  0  0
    0.6042   -0.9292    0.0000 O   0  0  0  0  0  0  0  0  0  0  0  0
    9.8917   -2.1875    0.0000 O   0  0  0  0  0  0  0  0  0  0  0  0
    1.3292    1.9583    0.0000 C   0  0  0  0  0  0  0  0  0  0  0  0
   10.6125   -1.7750    0.0000 C   0  0  0  0  0  0  0  0  0  0  0  0
    0.6042   -1.7542    0.0000 C   0  0  0  0  0  0  0  0  0  0  0  0
  2  1  1  0  0  0  0
  3  2  1  0  0  0  0
  4  1  2  0  0  0  0
  5  6  1  0  0  0  0
  6  4  1  0  0  0  0
  7  8  1  0  0  0  0
  8 14  1  0  0  0  0
  9  5  2  0  0  0  0
 10  1  1  0  0  0  0
 11  7  2  0  0  0  0
 12  3  2  0  0  0  0
 13 11  1  0  0  0  0
 14  9  1  0  0  0  0
 15  2  2  0  0  0  0
 16  7  1  0  0  0  0
 17 10  2  0  0  0  0
 18 10  1  0  0  0  0
 19 22  1  0  0  0  0
 20 12  1  0  0  0  0
 21 24  1  0  0  0  0
 22 16  2  0  0  0  0
 23 11  1  0  0  0  0
 24 18  2  0  0  0  0
 25 17  1  0  0  0  0
 26 19  1  0  0  0  0
 27 21  1  0  0  0  0
 28 23  1  0  0  0  0
 29 27  1  0  0  0  0
 30 26  1  0  0  0  0
 25 21  2  0  0  0  0
  5  3  1  0  0  0  0
 14 20  2  0  0  0  0
 13 19  2  0  0  0  0
M  END
>  <IDNUMBER>
F3385-3712

>  <Chemical_Name>
7-[(2,4-dimethoxyphenyl)amino]-3-(4-methoxyphenyl)-4H-chromen-4-one

>  <PriceCoeff>
1.00

>  <CAS>
864762-89-0

>  <MW>
403.43

>  <Description>
solid

>  <FSP3>
0.12

>  <clogP>
4.77

>  <TPSA>
66.02

>  <Acceptor>
6

>  <Donor>
1

>  <RotBonds>
6

>  <HAC>
30

>  <Collection>
General

>  <PPDS>
+

$$$$
F3385-3714
  Mrv2219 10102508112D          

 30 33  0  0  0  0            999 V2000
    7.0500    0.0750    0.0000 C   0  0  0  0  0  0  0  0  0  0  0  0
    6.3250   -0.3375    0.0000 C   0  0  0  0  0  0  0  0  0  0  0  0
    5.6042    0.0750    0.0000 C   0  0  0  0  0  0  0  0  0  0  0  0
    7.0500    0.9083    0.0000 C   0  0  0  0  0  0  0  0  0  0  0  0
    5.6125    0.9083    0.0000 C   0  0  0  0  0  0  0  0  0  0  0  0
    7.7542   -0.3375    0.0000 C   0  0  0  0  0  0  0  0  0  0  0  0
    6.3292    1.3333    0.0000 O   0  0  0  0  0  0  0  0  0  0  0  0
    4.8917    1.3208    0.0000 C   0  0  0  0  0  0  0  0  0  0  0  0
    8.4667    0.0708    0.0000 C   0  0  0  0  0  0  0  0  0  0  0  0
    4.8917   -0.3292    0.0000 C   0  0  0  0  0  0  0  0  0  0  0  0
    9.1792   -0.3417    0.0000 C   0  0  0  0  0  0  0  0  0  0  0  0
    6.3250   -1.1625    0.0000 O   0  0  0  0  0  0  0  0  0  0  0  0
    4.1792    0.9083    0.0000 C   0  0  0  0  0  0  0  0  0  0  0  0
    3.4667    1.3208    0.0000 N   0  0  0  0  0  0  0  0  0  0  0  0
    9.1792   -1.1667    0.0000 C   0  0  0  0  0  0  0  0  0  0  0  0
    7.7542   -1.1667    0.0000 C   0  0  0  0  0  0  0  0  0  0  0  0
    8.4667   -1.5792    0.0000 C   0  0  0  0  0  0  0  0  0  0  0  0
    4.1792    0.0875    0.0000 C   0  0  0  0  0  0  0  0  0  0  0  0
    2.7542    0.9083    0.0000 C   0  0  0  0  0  0  0  0  0  0  0  0
    1.3250    0.0833    0.0000 C   0  0  0  0  0  0  0  0  0  0  0  0
    9.9042    0.0708    0.0000 O   0  0  0  0  0  0  0  0  0  0  0  0
    2.0417    1.3208    0.0000 C   0  0  0  0  0  0  0  0  0  0  0  0
    2.7542    0.0833    0.0000 C   0  0  0  0  0  0  0  0  0  0  0  0
    9.8917   -1.5792    0.0000 O   0  0  0  0  0  0  0  0  0  0  0  0
    1.3250    0.9083    0.0000 C   0  0  0  0  0  0  0  0  0  0  0  0
    2.0417   -0.3292    0.0000 C   0  0  0  0  0  0  0  0  0  0  0  0
    0.6042   -0.3292    0.0000 O   0  0  0  0  0  0  0  0  0  0  0  0
    9.9000    0.8958    0.0000 C   0  0  0  0  0  0  0  0  0  0  0  0
   10.6125   -1.1667    0.0000 C   0  0  0  0  0  0  0  0  0  0  0  0
    0.6042   -1.1542    0.0000 C   0  0  0  0  0  0  0  0  0  0  0  0
  2  1  1  0  0  0  0
  3  2  1  0  0  0  0
  4  1  2  0  0  0  0
  5  7  1  0  0  0  0
  6  1  1  0  0  0  0
  7  4  1  0  0  0  0
  8  5  2  0  0  0  0
  9  6  1  0  0  0  0
 10  3  2  0  0  0  0
 11  9  2  0  0  0  0
 12  2  2  0  0  0  0
 13  8  1  0  0  0  0
 14 13  1  0  0  0  0
 15 17  2  0  0  0  0
 16  6  2  0  0  0  0
 17 16  1  0  0  0  0
 18 10  1  0  0  0  0
 19 14  1  0  0  0  0
 20 26  1  0  0  0  0
 21 11  1  0  0  0  0
 22 19  2  0  0  0  0
 23 19  1  0  0  0  0
 24 15  1  0  0  0  0
 25 22  1  0  0  0  0
 26 23  2  0  0  0  0
 27 20  1  0  0  0  0
 28 21  1  0  0  0  0
 29 24  1  0  0  0  0
 30 27  1  0  0  0  0
  5  3  1  0  0  0  0
 15 11  1  0  0  0  0
 13 18  2  0  0  0  0
 25 20  2  0  0  0  0
M  END
>  <IDNUMBER>
F3385-3714

>  <Chemical_Name>
3-(3,4-dimethoxyphenyl)-7-[(4-methoxyphenyl)amino]-4H-chromen-4-one

>  <PriceCoeff>
1.00

>  <CAS>
859672-25-6

>  <MW>
403.43

>  <Description>
solid

>  <FSP3>
0.12

>  <clogP>
4.51

>  <TPSA>
66.02

>  <Acceptor>
6

>  <Donor>
1

>  <RotBonds>
6

>  <HAC>
30

>  <Collection>
General

>  <PPDS>
+

$$$$
F3385-3715
  Mrv2219 10102508112D          

 32 35  0  0  0  0            999 V2000
    7.0500    0.0750    0.0000 C   0  0  0  0  0  0  0  0  0  0  0  0
    6.3250   -0.3375    0.0000 C   0  0  0  0  0  0  0  0  0  0  0  0
    5.6042    0.0750    0.0000 C   0  0  0  0  0  0  0  0  0  0  0  0
    7.0500    0.9083    0.0000 C   0  0  0  0  0  0  0  0  0  0  0  0
    5.6125    0.9083    0.0000 C   0  0  0  0  0  0  0  0  0  0  0  0
    7.7542   -0.3375    0.0000 C   0  0  0  0  0  0  0  0  0  0  0  0
    6.3292    1.3333    0.0000 O   0  0  0  0  0  0  0  0  0  0  0  0
    2.7542    0.9083    0.0000 C   0  0  0  0  0  0  0  0  0  0  0  0
    3.4667    1.3208    0.0000 N   0  0  0  0  0  0  0  0  0  0  0  0
    4.8917    1.3208    0.0000 C   0  0  0  0  0  0  0  0  0  0  0  0
    8.4667    0.0708    0.0000 C   0  0  0  0  0  0  0  0  0  0  0  0
    2.0417    1.3208    0.0000 C   0  0  0  0  0  0  0  0  0  0  0  0
    4.8917   -0.3292    0.0000 C   0  0  0  0  0  0  0  0  0  0  0  0
    9.1792   -0.3417    0.0000 C   0  0  0  0  0  0  0  0  0  0  0  0
    1.3250    0.9083    0.0000 C   0  0  0  0  0  0  0  0  0  0  0  0
    4.1792    0.9083    0.0000 C   0  0  0  0  0  0  0  0  0  0  0  0
    6.3250   -1.1625    0.0000 O   0  0  0  0  0  0  0  0  0  0  0  0
    9.1792   -1.1667    0.0000 C   0  0  0  0  0  0  0  0  0  0  0  0
    7.7542   -1.1667    0.0000 C   0  0  0  0  0  0  0  0  0  0  0  0
    2.7542    0.0833    0.0000 C   0  0  0  0  0  0  0  0  0  0  0  0
    8.4667   -1.5792    0.0000 C   0  0  0  0  0  0  0  0  0  0  0  0
    1.3250    0.0833    0.0000 C   0  0  0  0  0  0  0  0  0  0  0  0
    4.1792    0.0875    0.0000 C   0  0  0  0  0  0  0  0  0  0  0  0
    2.0417   -0.3292    0.0000 C   0  0  0  0  0  0  0  0  0  0  0  0
    2.0417    2.1458    0.0000 O   0  0  0  0  0  0  0  0  0  0  0  0
    9.9042    0.0708    0.0000 O   0  0  0  0  0  0  0  0  0  0  0  0
    9.8917   -1.5792    0.0000 O   0  0  0  0  0  0  0  0  0  0  0  0
    0.6042   -0.3292    0.0000 O   0  0  0  0  0  0  0  0  0  0  0  0
    9.9000    0.8958    0.0000 C   0  0  0  0  0  0  0  0  0  0  0  0
    1.3292    2.5583    0.0000 C   0  0  0  0  0  0  0  0  0  0  0  0
   10.6125   -1.1667    0.0000 C   0  0  0  0  0  0  0  0  0  0  0  0
    0.6042   -1.1542    0.0000 C   0  0  0  0  0  0  0  0  0  0  0  0
  2  1  1  0  0  0  0
  3  2  1  0  0  0  0
  4  1  2  0  0  0  0
  5  7  1  0  0  0  0
  6  1  1  0  0  0  0
  7  4  1  0  0  0  0
  8  9  1  0  0  0  0
  9 16  1  0  0  0  0
 10  5  2  0  0  0  0
 11  6  1  0  0  0  0
 12  8  2  0  0  0  0
 13  3  2  0  0  0  0
 14 11  2  0  0  0  0
 15 12  1  0  0  0  0
 16 10  1  0  0  0  0
 17  2  2  0  0  0  0
 18 21  2  0  0  0  0
 19  6  2  0  0  0  0
 20  8  1  0  0  0  0
 21 19  1  0  0  0  0
 22 24  1  0  0  0  0
 23 13  1  0  0  0  0
 24 20  2  0  0  0  0
 25 12  1  0  0  0  0
 26 14  1  0  0  0  0
 27 18  1  0  0  0  0
 28 22  1  0  0  0  0
 29 26  1  0  0  0  0
 30 25  1  0  0  0  0
 31 27  1  0  0  0  0
 32 28  1  0  0  0  0
  5  3  1  0  0  0  0
 18 14  1  0  0  0  0
 16 23  2  0  0  0  0
 15 22  2  0  0  0  0
M  END
>  <IDNUMBER>
F3385-3715

>  <Chemical_Name>
3-(3,4-dimethoxyphenyl)-7-[(2,4-dimethoxyphenyl)amino]-4H-chromen-4-one

>  <PriceCoeff>
1.00

>  <CAS>
864751-65-5

>  <MW>
433.45

>  <Description>
solid

>  <FSP3>
0.16

>  <clogP>
4.50

>  <TPSA>
75.25

>  <Acceptor>
7

>  <Donor>
1

>  <RotBonds>
7

>  <HAC>
32

>  <Collection>
General

>  <PPDS>
+

$$$$
F3385-3717
  Mrv2219 10102508112D          

 26 29  0  0  0  0            999 V2000
    7.0500    0.0750    0.0000 C   0  0  0  0  0  0  0  0  0  0  0  0
    6.3250   -0.3375    0.0000 C   0  0  0  0  0  0  0  0  0  0  0  0
    5.6042    0.0750    0.0000 C   0  0  0  0  0  0  0  0  0  0  0  0
    7.0500    0.9083    0.0000 C   0  0  0  0  0  0  0  0  0  0  0  0
    5.6125    0.9083    0.0000 C   0  0  0  0  0  0  0  0  0  0  0  0
    6.3292    1.3333    0.0000 O   0  0  0  0  0  0  0  0  0  0  0  0
    4.8917    1.3208    0.0000 C   0  0  0  0  0  0  0  0  0  0  0  0
    4.8917   -0.3292    0.0000 C   0  0  0  0  0  0  0  0  0  0  0  0
    7.7542   -0.3375    0.0000 C   0  0  0  0  0  0  0  0  0  0  0  0
    6.3250   -1.1625    0.0000 O   0  0  0  0  0  0  0  0  0  0  0  0
    4.1792    0.9083    0.0000 C   0  0  0  0  0  0  0  0  0  0  0  0
    3.4667    1.3208    0.0000 N   0  0  0  0  0  0  0  0  0  0  0  0
    4.1792    0.0875    0.0000 C   0  0  0  0  0  0  0  0  0  0  0  0
    2.7542    0.9083    0.0000 C   0  0  0  0  0  0  0  0  0  0  0  0
    1.3250    0.0833    0.0000 C   0  0  0  0  0  0  0  0  0  0  0  0
    2.7542    0.0833    0.0000 C   0  0  0  0  0  0  0  0  0  0  0  0
    2.0417    1.3208    0.0000 C   0  0  0  0  0  0  0  0  0  0  0  0
    1.3250    0.9083    0.0000 C   0  0  0  0  0  0  0  0  0  0  0  0
    2.0417   -0.3292    0.0000 C   0  0  0  0  0  0  0  0  0  0  0  0
    0.6125   -0.3292    0.0000 O   0  0  0  0  0  0  0  0  0  0  0  0
    7.7542   -1.1667    0.0000 C   0  0  0  0  0  0  0  0  0  0  0  0
    8.4667    0.0708    0.0000 C   0  0  0  0  0  0  0  0  0  0  0  0
    0.6125   -1.1542    0.0000 C   0  0  0  0  0  0  0  0  0  0  0  0
    8.4667   -1.5792    0.0000 C   0  0  0  0  0  0  0  0  0  0  0  0
    9.1792   -0.3417    0.0000 C   0  0  0  0  0  0  0  0  0  0  0  0
    9.1792   -1.1667    0.0000 C   0  0  0  0  0  0  0  0  0  0  0  0
  2  1  1  0  0  0  0
  3  2  1  0  0  0  0
  4  1  2  0  0  0  0
  5  6  1  0  0  0  0
  6  4  1  0  0  0  0
  7  5  2  0  0  0  0
  8  3  2  0  0  0  0
  9  1  1  0  0  0  0
 10  2  2  0  0  0  0
 11  7  1  0  0  0  0
 12 11  1  0  0  0  0
 13  8  1  0  0  0  0
 14 12  1  0  0  0  0
 15 18  2  0  0  0  0
 16 14  1  0  0  0  0
 17 14  2  0  0  0  0
 18 17  1  0  0  0  0
 19 16  2  0  0  0  0
 20 15  1  0  0  0  0
 21  9  2  0  0  0  0
 22  9  1  0  0  0  0
 23 20  1  0  0  0  0
 24 21  1  0  0  0  0
 25 22  2  0  0  0  0
 26 25  1  0  0  0  0
  5  3  1  0  0  0  0
 24 26  2  0  0  0  0
 11 13  2  0  0  0  0
 19 15  1  0  0  0  0
M  END
>  <IDNUMBER>
F3385-3717

>  <Chemical_Name>
7-[(4-methoxyphenyl)amino]-3-phenyl-4H-chromen-4-one

>  <PriceCoeff>
1.00

>  <CAS>
864752-12-5

>  <MW>
343.38

>  <Description>
solid

>  <FSP3>
0.05

>  <clogP>
4.85

>  <TPSA>
47.56

>  <Acceptor>
4

>  <Donor>
1

>  <RotBonds>
4

>  <HAC>
26

>  <Collection>
General

>  <PPDS>
+

$$$$
F3385-3719
  Mrv2219 10102508112D          

 28 31  0  0  0  0            999 V2000
    7.0500    0.0750    0.0000 C   0  0  0  0  0  0  0  0  0  0  0  0
    6.3250   -0.3375    0.0000 C   0  0  0  0  0  0  0  0  0  0  0  0
    5.6042    0.0750    0.0000 C   0  0  0  0  0  0  0  0  0  0  0  0
    7.0500    0.9083    0.0000 C   0  0  0  0  0  0  0  0  0  0  0  0
    5.6125    0.9083    0.0000 C   0  0  0  0  0  0  0  0  0  0  0  0
    6.3292    1.3333    0.0000 O   0  0  0  0  0  0  0  0  0  0  0  0
    7.7542   -0.3375    0.0000 C   0  0  0  0  0  0  0  0  0  0  0  0
    4.8917    1.3208    0.0000 C   0  0  0  0  0  0  0  0  0  0  0  0
    4.8917   -0.3292    0.0000 C   0  0  0  0  0  0  0  0  0  0  0  0
    6.3250   -1.1625    0.0000 O   0  0  0  0  0  0  0  0  0  0  0  0
    4.1792    0.9083    0.0000 C   0  0  0  0  0  0  0  0  0  0  0  0
    3.4667    1.3208    0.0000 N   0  0  0  0  0  0  0  0  0  0  0  0
    7.7542   -1.1667    0.0000 C   0  0  0  0  0  0  0  0  0  0  0  0
    4.1792    0.0875    0.0000 C   0  0  0  0  0  0  0  0  0  0  0  0
    2.7542    0.9083    0.0000 C   0  0  0  0  0  0  0  0  0  0  0  0
    1.3250    0.0833    0.0000 C   0  0  0  0  0  0  0  0  0  0  0  0
    2.7542    0.0833    0.0000 C   0  0  0  0  0  0  0  0  0  0  0  0
    2.0417    1.3208    0.0000 C   0  0  0  0  0  0  0  0  0  0  0  0
    7.0417   -1.5667    0.0000 O   0  0  0  0  0  0  0  0  0  0  0  0
    2.0417   -0.3292    0.0000 C   0  0  0  0  0  0  0  0  0  0  0  0
    1.3250    0.9083    0.0000 C   0  0  0  0  0  0  0  0  0  0  0  0
    8.4667    0.0708    0.0000 C   0  0  0  0  0  0  0  0  0  0  0  0
    0.6125   -0.3292    0.0000 O   0  0  0  0  0  0  0  0  0  0  0  0
    8.4667   -1.5792    0.0000 C   0  0  0  0  0  0  0  0  0  0  0  0
    7.0375   -2.3917    0.0000 C   0  0  0  0  0  0  0  0  0  0  0  0
    0.6125   -1.1542    0.0000 C   0  0  0  0  0  0  0  0  0  0  0  0
    9.1792   -0.3417    0.0000 C   0  0  0  0  0  0  0  0  0  0  0  0
    9.1792   -1.1667    0.0000 C   0  0  0  0  0  0  0  0  0  0  0  0
  2  1  1  0  0  0  0
  3  2  1  0  0  0  0
  4  1  2  0  0  0  0
  5  6  1  0  0  0  0
  6  4  1  0  0  0  0
  7  1  1  0  0  0  0
  8  5  2  0  0  0  0
  9  3  2  0  0  0  0
 10  2  2  0  0  0  0
 11  8  1  0  0  0  0
 12 11  1  0  0  0  0
 13  7  2  0  0  0  0
 14  9  1  0  0  0  0
 15 12  1  0  0  0  0
 16 21  2  0  0  0  0
 17 15  1  0  0  0  0
 18 15  2  0  0  0  0
 19 13  1  0  0  0  0
 20 17  2  0  0  0  0
 21 18  1  0  0  0  0
 22  7  1  0  0  0  0
 23 16  1  0  0  0  0
 24 13  1  0  0  0  0
 25 19  1  0  0  0  0
 26 23  1  0  0  0  0
 27 22  2  0  0  0  0
 28 27  1  0  0  0  0
  5  3  1  0  0  0  0
 24 28  2  0  0  0  0
 11 14  2  0  0  0  0
 20 16  1  0  0  0  0
M  END
>  <IDNUMBER>
F3385-3719

>  <Chemical_Name>
3-(2-methoxyphenyl)-7-[(4-methoxyphenyl)amino]-4H-chromen-4-one

>  <PriceCoeff>
1.00

>  <CAS>
864763-22-4

>  <MW>
373.40

>  <Description>
solid

>  <FSP3>
0.09

>  <clogP>
4.22

>  <TPSA>
56.79

>  <Acceptor>
5

>  <Donor>
1

>  <RotBonds>
5

>  <HAC>
28

>  <Collection>
General

>  <PPDS>
+

$$$$
F3385-3750
  Mrv2219 10102508112D          

 32 35  0  0  0  0            999 V2000
    6.5292   -6.6292    0.0000 C   0  0  0  0  0  0  0  0  0  0  0  0
    5.8042   -7.0417    0.0000 C   0  0  0  0  0  0  0  0  0  0  0  0
    2.2292   -5.8000    0.0000 C   0  0  0  0  0  0  0  0  0  0  0  0
    5.0875   -6.6292    0.0000 C   0  0  0  0  0  0  0  0  0  0  0  0
    1.5167   -5.3875    0.0000 C   0  0  0  0  0  0  0  0  0  0  0  0
    6.5292   -5.7917    0.0000 C   0  0  0  0  0  0  0  0  0  0  0  0
    5.0917   -5.7917    0.0000 C   0  0  0  0  0  0  0  0  0  0  0  0
    5.8042   -5.3792    0.0000 O   0  0  0  0  0  0  0  0  0  0  0  0
    2.9500   -5.3875    0.0000 O   0  0  0  0  0  0  0  0  0  0  0  0
    4.3750   -5.3792    0.0000 C   0  0  0  0  0  0  0  0  0  0  0  0
    7.2375   -7.0417    0.0000 C   0  0  0  0  0  0  0  0  0  0  0  0
    4.3750   -7.0375    0.0000 C   0  0  0  0  0  0  0  0  0  0  0  0
    2.2292   -6.6250    0.0000 O   0  0  0  0  0  0  0  0  0  0  0  0
    3.6625   -5.8000    0.0000 C   0  0  0  0  0  0  0  0  0  0  0  0
    5.8042   -7.8667    0.0000 O   0  0  0  0  0  0  0  0  0  0  0  0
    1.5250   -4.5542    0.0000 C   0  0  0  0  0  0  0  0  0  0  0  0
    0.8125   -5.8000    0.0000 C   0  0  0  0  0  0  0  0  0  0  0  0
    7.9500   -6.6292    0.0000 C   0  0  0  0  0  0  0  0  0  0  0  0
    7.2292   -7.8667    0.0000 C   0  0  0  0  0  0  0  0  0  0  0  0
    3.6625   -6.6250    0.0000 C   0  0  0  0  0  0  0  0  0  0  0  0
    8.6625   -7.8750    0.0000 C   0  0  0  0  0  0  0  0  0  0  0  0
    7.9417   -8.2792    0.0000 C   0  0  0  0  0  0  0  0  0  0  0  0
    8.6625   -7.0417    0.0000 C   0  0  0  0  0  0  0  0  0  0  0  0
    2.2375   -4.1542    0.0000 O   0  0  0  0  0  0  0  0  0  0  0  0
    0.8125   -6.6167    0.0000 O   0  0  0  0  0  0  0  0  0  0  0  0
    9.3750   -8.2875    0.0000 O   0  0  0  0  0  0  0  0  0  0  0  0
    0.0917   -4.5625    0.0000 C   0  0  0  0  0  0  0  0  0  0  0  0
    0.0917   -5.3917    0.0000 C   0  0  0  0  0  0  0  0  0  0  0  0
    0.8042   -4.1500    0.0000 C   0  0  0  0  0  0  0  0  0  0  0  0
    2.2375   -3.3292    0.0000 C   0  0  0  0  0  0  0  0  0  0  0  0
    1.5250   -7.0292    0.0000 C   0  0  0  0  0  0  0  0  0  0  0  0
   10.0917   -7.8750    0.0000 C   0  0  0  0  0  0  0  0  0  0  0  0
  2  1  1  0  0  0  0
  3  9  1  0  0  0  0
  4  2  1  0  0  0  0
  5  3  1  0  0  0  0
  6  1  2  0  0  0  0
  7  8  1  0  0  0  0
  8  6  1  0  0  0  0
  9 14  1  0  0  0  0
 10  7  2  0  0  0  0
 11  1  1  0  0  0  0
 12  4  2  0  0  0  0
 13  3  2  0  0  0  0
 14 10  1  0  0  0  0
 15  2  2  0  0  0  0
 16  5  2  0  0  0  0
 17  5  1  0  0  0  0
 18 11  1  0  0  0  0
 19 11  2  0  0  0  0
 20 12  1  0  0  0  0
 21 22  2  0  0  0  0
 22 19  1  0  0  0  0
 23 18  2  0  0  0  0
 24 16  1  0  0  0  0
 25 17  1  0  0  0  0
 26 21  1  0  0  0  0
 27 28  1  0  0  0  0
 28 17  2  0  0  0  0
 29 16  1  0  0  0  0
 30 24  1  0  0  0  0
 31 25  1  0  0  0  0
 32 26  1  0  0  0  0
 23 21  1  0  0  0  0
  4  7  1  0  0  0  0
 20 14  2  0  0  0  0
 27 29  2  0  0  0  0
M  END
>  <IDNUMBER>
F3385-3750

>  <Chemical_Name>
3-(4-methoxyphenyl)-4-oxo-4H-chromen-7-yl 2,6-dimethoxybenzoate

>  <PriceCoeff>
1.00

>  <CAS>
858768-38-4

>  <MW>
432.42

>  <Description>
solid

>  <FSP3>
0.12

>  <clogP>
4.33

>  <TPSA>
80.29

>  <Acceptor>
7

>  <Donor>
0

>  <RotBonds>
7

>  <HAC>
32

>  <Collection>
General

>  <PPDS>
+

$$$$
F3385-3754
  Mrv2219 10102508112D          

 26 28  0  0  0  0            999 V2000
    6.5292   -6.6292    0.0000 C   0  0  0  0  0  0  0  0  0  0  0  0
    5.0917   -5.7917    0.0000 C   0  0  0  0  0  0  0  0  0  0  0  0
    5.0875   -6.6292    0.0000 C   0  0  0  0  0  0  0  0  0  0  0  0
    5.8042   -7.0417    0.0000 C   0  0  0  0  0  0  0  0  0  0  0  0
    4.3750   -5.3792    0.0000 C   0  0  0  0  0  0  0  0  0  0  0  0
    5.8042   -5.3792    0.0000 O   0  0  0  0  0  0  0  0  0  0  0  0
    6.5292   -5.7917    0.0000 C   0  0  0  0  0  0  0  0  0  0  0  0
    4.3750   -7.0375    0.0000 C   0  0  0  0  0  0  0  0  0  0  0  0
    7.2375   -7.0417    0.0000 C   0  0  0  0  0  0  0  0  0  0  0  0
    3.6625   -5.8000    0.0000 C   0  0  0  0  0  0  0  0  0  0  0  0
    4.3667   -4.5542    0.0000 C   0  0  0  0  0  0  0  0  0  0  0  0
    5.8042   -7.8667    0.0000 O   0  0  0  0  0  0  0  0  0  0  0  0
    3.6625   -6.6250    0.0000 C   0  0  0  0  0  0  0  0  0  0  0  0
    7.2292   -7.8667    0.0000 C   0  0  0  0  0  0  0  0  0  0  0  0
    7.9500   -6.6292    0.0000 C   0  0  0  0  0  0  0  0  0  0  0  0
    5.0875   -4.1417    0.0000 N   0  0  0  0  0  0  0  0  0  0  0  0
    8.6625   -7.8750    0.0000 C   0  0  0  0  0  0  0  0  0  0  0  0
    8.6625   -7.0417    0.0000 C   0  0  0  0  0  0  0  0  0  0  0  0
    7.9417   -8.2792    0.0000 C   0  0  0  0  0  0  0  0  0  0  0  0
    2.9500   -5.3875    0.0000 O   0  0  0  0  0  0  0  0  0  0  0  0
    9.3750   -8.2875    0.0000 O   0  0  0  0  0  0  0  0  0  0  0  0
    5.0792   -3.3167    0.0000 C   0  0  0  0  0  0  0  0  0  0  0  0
    5.8000   -4.5542    0.0000 C   0  0  0  0  0  0  0  0  0  0  0  0
   10.0917   -7.8750    0.0000 C   0  0  0  0  0  0  0  0  0  0  0  0
    6.5125   -4.1417    0.0000 C   0  0  0  0  0  0  0  0  0  0  0  0
    4.3625   -2.9125    0.0000 C   0  0  0  0  0  0  0  0  0  0  0  0
  2  6  1  0  0  0  0
  3  4  1  0  0  0  0
  4  1  1  0  0  0  0
  5  2  2  0  0  0  0
  6  7  1  0  0  0  0
  7  1  2  0  0  0  0
  8  3  2  0  0  0  0
  9  1  1  0  0  0  0
 10  5  1  0  0  0  0
 11  5  1  0  0  0  0
 12  4  2  0  0  0  0
 13  8  1  0  0  0  0
 14  9  2  0  0  0  0
 15  9  1  0  0  0  0
 16 11  1  0  0  0  0
 17 18  1  0  0  0  0
 18 15  2  0  0  0  0
 19 14  1  0  0  0  0
 20 10  1  0  0  0  0
 21 17  1  0  0  0  0
 22 16  1  0  0  0  0
 23 16  1  0  0  0  0
 24 21  1  0  0  0  0
 25 23  1  0  0  0  0
 26 22  1  0  0  0  0
  3  2  1  0  0  0  0
 17 19  2  0  0  0  0
 13 10  2  0  0  0  0
M  END
>  <IDNUMBER>
F3385-3754

>  <Chemical_Name>
8-[(diethylamino)methyl]-7-hydroxy-3-(4-methoxyphenyl)-4H-chromen-4-one

>  <PriceCoeff>
1.00

>  <CAS>
858768-31-7

>  <MW>
353.41

>  <Description>
solid

>  <FSP3>
0.29

>  <clogP>
3.49

>  <TPSA>
59.00

>  <Acceptor>
4

>  <Donor>
2

>  <RotBonds>
6

>  <HAC>
26

>  <Collection>
General

>  <PPDS>
+

$$$$
F3385-3769
  Mrv2219 10102508112D          

 25 27  0  0  0  0            999 V2000
    3.3000    0.2958    0.0000 C   0  0  0  0  0  0  0  0  0  0  0  0
    4.0167   -0.1167    0.0000 C   0  0  0  0  0  0  0  0  0  0  0  0
    4.7417    0.2958    0.0000 C   0  0  0  0  0  0  0  0  0  0  0  0
    4.7417    1.1250    0.0000 C   0  0  0  0  0  0  0  0  0  0  0  0
    3.3042    1.1250    0.0000 C   0  0  0  0  0  0  0  0  0  0  0  0
    4.0167    1.5458    0.0000 O   0  0  0  0  0  0  0  0  0  0  0  0
    0.4417    1.1250    0.0000 C   0  0  0  0  0  0  0  0  0  0  0  0
    2.5875   -0.1167    0.0000 C   0  0  0  0  0  0  0  0  0  0  0  0
    1.8750    1.1250    0.0000 C   0  0  0  0  0  0  0  0  0  0  0  0
    2.5875    1.5375    0.0000 C   0  0  0  0  0  0  0  0  0  0  0  0
    1.1625    1.5333    0.0000 O   0  0  0  0  0  0  0  0  0  0  0  0
    1.8750    0.2958    0.0000 C   0  0  0  0  0  0  0  0  0  0  0  0
   -0.2708    1.5458    0.0000 N   0  0  0  0  0  0  0  0  0  0  0  0
    4.0167   -0.9417    0.0000 O   0  0  0  0  0  0  0  0  0  0  0  0
    0.4375    0.3000    0.0000 O   0  0  0  0  0  0  0  0  0  0  0  0
    5.4542    1.5333    0.0000 C   0  0  0  0  0  0  0  0  0  0  0  0
    2.5875   -0.9375    0.0000 O   0  0  0  0  0  0  0  0  0  0  0  0
   -0.9833    1.1375    0.0000 C   0  0  0  0  0  0  0  0  0  0  0  0
   -0.2625    2.3708    0.0000 C   0  0  0  0  0  0  0  0  0  0  0  0
    6.1667    1.1208    0.0000 C   0  0  0  0  0  0  0  0  0  0  0  0
    5.4542    2.3583    0.0000 C   0  0  0  0  0  0  0  0  0  0  0  0
    3.3000   -1.3500    0.0000 C   0  0  0  0  0  0  0  0  0  0  0  0
    6.1667    2.7708    0.0000 C   0  0  0  0  0  0  0  0  0  0  0  0
    6.8792    1.5250    0.0000 C   0  0  0  0  0  0  0  0  0  0  0  0
    6.8875    2.3583    0.0000 C   0  0  0  0  0  0  0  0  0  0  0  0
  2  1  1  0  0  0  0
  3  2  1  0  0  0  0
  4  6  1  0  0  0  0
  5  1  1  0  0  0  0
  6  5  1  0  0  0  0
  7 11  1  0  0  0  0
  8  1  2  0  0  0  0
  9 12  2  0  0  0  0
 10  5  2  0  0  0  0
 11  9  1  0  0  0  0
 12  8  1  0  0  0  0
 13  7  1  0  0  0  0
 14  2  2  0  0  0  0
 15  7  2  0  0  0  0
 16  4  1  0  0  0  0
 17  8  1  0  0  0  0
 18 13  1  0  0  0  0
 19 13  1  0  0  0  0
 20 16  2  0  0  0  0
 21 16  1  0  0  0  0
 22 17  1  0  0  0  0
 23 21  2  0  0  0  0
 24 20  1  0  0  0  0
 25 23  1  0  0  0  0
  9 10  1  0  0  0  0
  4  3  2  0  0  0  0
 25 24  2  0  0  0  0
M  END
>  <IDNUMBER>
F3385-3769

>  <Chemical_Name>
5-methoxy-4-oxo-2-phenyl-4H-chromen-7-yl N,N-dimethylcarbamate

>  <PriceCoeff>
1.00

>  <CAS>
919735-65-2

>  <MW>
339.34

>  <Description>
solid

>  <FSP3>
0.16

>  <clogP>
2.99

>  <TPSA>
65.07

>  <Acceptor>
5

>  <Donor>
0

>  <RotBonds>
5

>  <HAC>
25

>  <Collection>
General

>  <PPDS>
+

$$$$
F3385-3792
  Mrv2219 10102508112D          

 28 31  0  0  0  0            999 V2000
    7.3625   -1.2042    0.0000 C   0  0  0  0  0  0  0  0  0  0  0  0
    6.6375   -1.6167    0.0000 C   0  0  0  0  0  0  0  0  0  0  0  0
    5.9167   -1.1417    0.0000 C   0  0  0  0  0  0  0  0  0  0  0  0
    7.3625   -0.3125    0.0000 C   0  0  0  0  0  0  0  0  0  0  0  0
    5.9250   -0.3125    0.0000 C   0  0  0  0  0  0  0  0  0  0  0  0
    6.6417    0.1083    0.0000 O   0  0  0  0  0  0  0  0  0  0  0  0
    8.0667   -1.5625    0.0000 C   0  0  0  0  0  0  0  0  0  0  0  0
    5.2042    0.1000    0.0000 C   0  0  0  0  0  0  0  0  0  0  0  0
    5.2042   -1.5542    0.0000 C   0  0  0  0  0  0  0  0  0  0  0  0
    6.6125   -2.4417    0.0000 O   0  0  0  0  0  0  0  0  0  0  0  0
    3.7792    0.1000    0.0000 N   0  0  0  0  0  0  0  0  0  0  0  0
    4.4917   -0.3125    0.0000 C   0  0  0  0  0  0  0  0  0  0  0  0
    8.0667   -2.3875    0.0000 C   0  0  0  0  0  0  0  0  0  0  0  0
    3.0667   -0.3125    0.0000 C   0  0  0  0  0  0  0  0  0  0  0  0
    2.3542    0.1000    0.0000 C   0  0  0  0  0  0  0  0  0  0  0  0
    4.4917   -1.1417    0.0000 C   0  0  0  0  0  0  0  0  0  0  0  0
    1.6417   -0.3125    0.0000 C   0  0  0  0  0  0  0  0  0  0  0  0
    7.3542   -2.7917    0.0000 O   0  0  0  0  0  0  0  0  0  0  0  0
    8.7792   -1.1500    0.0000 C   0  0  0  0  0  0  0  0  0  0  0  0
    0.9292    0.1083    0.0000 O   0  0  0  0  0  0  0  0  0  0  0  0
    2.3625   -1.5500    0.0000 C   0  0  0  0  0  0  0  0  0  0  0  0
    3.0667   -1.1375    0.0000 C   0  0  0  0  0  0  0  0  0  0  0  0
    8.7792   -2.8000    0.0000 C   0  0  0  0  0  0  0  0  0  0  0  0
    1.6417   -1.1375    0.0000 C   0  0  0  0  0  0  0  0  0  0  0  0
    7.3500   -3.6167    0.0000 C   0  0  0  0  0  0  0  0  0  0  0  0
    0.2125   -0.3042    0.0000 C   0  0  0  0  0  0  0  0  0  0  0  0
    9.4917   -1.5625    0.0000 C   0  0  0  0  0  0  0  0  0  0  0  0
    9.4917   -2.3917    0.0000 C   0  0  0  0  0  0  0  0  0  0  0  0
  2  1  1  0  0  0  0
  3  2  1  0  0  0  0
  4  1  2  0  0  0  0
  5  6  1  0  0  0  0
  6  4  1  0  0  0  0
  7  1  1  0  0  0  0
  8  5  2  0  0  0  0
  9  3  2  0  0  0  0
 10  2  2  0  0  0  0
 11 12  1  0  0  0  0
 12  8  1  0  0  0  0
 13  7  2  0  0  0  0
 14 11  1  0  0  0  0
 15 14  2  0  0  0  0
 16  9  1  0  0  0  0
 17 15  1  0  0  0  0
 18 13  1  0  0  0  0
 19  7  1  0  0  0  0
 20 17  1  0  0  0  0
 21 22  2  0  0  0  0
 22 14  1  0  0  0  0
 23 13  1  0  0  0  0
 24 21  1  0  0  0  0
 25 18  1  0  0  0  0
 26 20  1  0  0  0  0
 27 19  2  0  0  0  0
 28 27  1  0  0  0  0
  3  5  1  0  0  0  0
 28 23  2  0  0  0  0
 16 12  2  0  0  0  0
 24 17  2  0  0  0  0
M  END
>  <IDNUMBER>
F3385-3792

>  <Chemical_Name>
3-(2-methoxyphenyl)-7-[(3-methoxyphenyl)amino]-4H-chromen-4-one

>  <PriceCoeff>
1.00

>  <CAS>
859671-58-2

>  <MW>
373.40

>  <Description>
solid

>  <FSP3>
0.09

>  <clogP>
4.22

>  <TPSA>
56.79

>  <Acceptor>
5

>  <Donor>
1

>  <RotBonds>
5

>  <HAC>
28

>  <Collection>
General

>  <PPDS>
+

$$$$
F3385-3827
  Mrv2219 10102508112D          

 27 30  0  0  0  0            999 V2000
    5.1237   -2.0195    0.0000 C   0  0  0  0  0  0  0  0  0  0  0  0
    4.3977   -2.4325    0.0000 C   0  0  0  0  0  0  0  0  0  0  0  0
    3.6800   -2.0195    0.0000 C   0  0  0  0  0  0  0  0  0  0  0  0
    5.1237   -1.1891    0.0000 C   0  0  0  0  0  0  0  0  0  0  0  0
    3.6842   -1.1891    0.0000 C   0  0  0  0  0  0  0  0  0  0  0  0
    4.3977   -0.7678    0.0000 O   0  0  0  0  0  0  0  0  0  0  0  0
    2.9666   -2.4325    0.0000 C   0  0  0  0  0  0  0  0  0  0  0  0
   -0.6091   -1.1933    0.0000 N   0  0  0  0  0  0  0  0  0  0  0  0
   -2.0486   -2.0069    0.0000 N   0  0  0  0  0  0  0  0  0  0  0  0
    2.9666   -0.7761    0.0000 C   0  0  0  0  0  0  0  0  0  0  0  0
    5.8330   -2.4408    0.0000 C   0  0  0  0  0  0  0  0  0  0  0  0
    4.3977   -3.2587    0.0000 O   0  0  0  0  0  0  0  0  0  0  0  0
    2.2531   -1.1891    0.0000 C   0  0  0  0  0  0  0  0  0  0  0  0
   -1.3268   -2.4200    0.0000 C   0  0  0  0  0  0  0  0  0  0  0  0
   -2.0403   -1.1808    0.0000 C   0  0  0  0  0  0  0  0  0  0  0  0
   -0.6091   -2.0153    0.0000 C   0  0  0  0  0  0  0  0  0  0  0  0
   -1.3268   -0.7761    0.0000 C   0  0  0  0  0  0  0  0  0  0  0  0
    2.2531   -2.0195    0.0000 C   0  0  0  0  0  0  0  0  0  0  0  0
    1.5396   -0.7761    0.0000 O   0  0  0  0  0  0  0  0  0  0  0  0
    0.1043   -0.7803    0.0000 C   0  0  0  0  0  0  0  0  0  0  0  0
    0.8178   -1.1933    0.0000 C   0  0  0  0  0  0  0  0  0  0  0  0
   -2.7621   -2.4200    0.0000 C   0  0  0  0  0  0  0  0  0  0  0  0
    6.5465   -2.0278    0.0000 C   0  0  0  0  0  0  0  0  0  0  0  0
    5.8247   -3.2670    0.0000 C   0  0  0  0  0  0  0  0  0  0  0  0
    6.5382   -3.6800    0.0000 C   0  0  0  0  0  0  0  0  0  0  0  0
    7.2599   -2.4408    0.0000 C   0  0  0  0  0  0  0  0  0  0  0  0
    7.2599   -3.2712    0.0000 C   0  0  0  0  0  0  0  0  0  0  0  0
  2  1  1  0  0  0  0
  3  2  1  0  0  0  0
  4  1  2  0  0  0  0
  5  6  1  0  0  0  0
  6  4  1  0  0  0  0
  7  3  2  0  0  0  0
  8 20  1  0  0  0  0
  9 15  1  0  0  0  0
 10  5  2  0  0  0  0
 11  1  1  0  0  0  0
 12  2  2  0  0  0  0
 13 10  1  0  0  0  0
 14 16  1  0  0  0  0
 15 17  1  0  0  0  0
 16  8  1  0  0  0  0
 17  8  1  0  0  0  0
 18  7  1  0  0  0  0
 19 13  1  0  0  0  0
 20 21  1  0  0  0  0
 21 19  1  0  0  0  0
 22  9  1  0  0  0  0
 23 11  1  0  0  0  0
 24 11  2  0  0  0  0
 25 24  1  0  0  0  0
 26 23  2  0  0  0  0
 27 25  2  0  0  0  0
  3  5  1  0  0  0  0
 26 27  1  0  0  0  0
 18 13  2  0  0  0  0
  9 14  1  0  0  0  0
M  END
>  <IDNUMBER>
F3385-3827

>  <Chemical_Name>
7-[2-(4-methylpiperazin-1-yl)ethoxy]-3-phenyl-4H-chromen-4-one

>  <PriceCoeff>
1.00

>  <CAS>
287472-17-7

>  <MW>
364.44

>  <Description>
solid

>  <FSP3>
0.32

>  <clogP>
2.32

>  <TPSA>
42.01

>  <Acceptor>
5

>  <Donor>
2

>  <RotBonds>
5

>  <HAC>
27

>  <Collection>
General

>  <PPDS>
+

$$$$
F3385-3828
  Mrv2219 10102508112D          

 28 31  0  0  0  0            999 V2000
    5.1237   -2.0195    0.0000 C   0  0  0  0  0  0  0  0  0  0  0  0
    4.3977   -2.4325    0.0000 C   0  0  0  0  0  0  0  0  0  0  0  0
    3.6800   -2.0195    0.0000 C   0  0  0  0  0  0  0  0  0  0  0  0
    5.1237   -1.1891    0.0000 C   0  0  0  0  0  0  0  0  0  0  0  0
    3.6842   -1.1891    0.0000 C   0  0  0  0  0  0  0  0  0  0  0  0
    4.3977   -0.7678    0.0000 O   0  0  0  0  0  0  0  0  0  0  0  0
    2.9666   -2.4325    0.0000 C   0  0  0  0  0  0  0  0  0  0  0  0
   -0.6091   -1.1933    0.0000 N   0  0  0  0  0  0  0  0  0  0  0  0
    2.9666   -0.7761    0.0000 C   0  0  0  0  0  0  0  0  0  0  0  0
   -2.0486   -2.0069    0.0000 N   0  0  0  0  0  0  0  0  0  0  0  0
    5.8330   -2.4408    0.0000 C   0  0  0  0  0  0  0  0  0  0  0  0
    4.3977   -3.2587    0.0000 O   0  0  0  0  0  0  0  0  0  0  0  0
    2.2531   -1.1891    0.0000 C   0  0  0  0  0  0  0  0  0  0  0  0
   -1.3268   -0.7761    0.0000 C   0  0  0  0  0  0  0  0  0  0  0  0
   -1.3268   -2.4200    0.0000 C   0  0  0  0  0  0  0  0  0  0  0  0
   -0.6091   -2.0153    0.0000 C   0  0  0  0  0  0  0  0  0  0  0  0
   -2.0403   -1.1808    0.0000 C   0  0  0  0  0  0  0  0  0  0  0  0
    2.2531   -2.0195    0.0000 C   0  0  0  0  0  0  0  0  0  0  0  0
    1.5396   -0.7761    0.0000 O   0  0  0  0  0  0  0  0  0  0  0  0
    0.1043   -0.7803    0.0000 C   0  0  0  0  0  0  0  0  0  0  0  0
    0.8178   -1.1933    0.0000 C   0  0  0  0  0  0  0  0  0  0  0  0
   -2.7621   -2.4200    0.0000 C   0  0  0  0  0  0  0  0  0  0  0  0
    6.5465   -2.0278    0.0000 C   0  0  0  0  0  0  0  0  0  0  0  0
    5.8247   -3.2670    0.0000 C   0  0  0  0  0  0  0  0  0  0  0  0
   -3.4756   -2.0069    0.0000 C   0  0  0  0  0  0  0  0  0  0  0  0
    7.2599   -2.4408    0.0000 C   0  0  0  0  0  0  0  0  0  0  0  0
    6.5382   -3.6800    0.0000 C   0  0  0  0  0  0  0  0  0  0  0  0
    7.2599   -3.2712    0.0000 C   0  0  0  0  0  0  0  0  0  0  0  0
  2  1  1  0  0  0  0
  3  2  1  0  0  0  0
  4  1  2  0  0  0  0
  5  6  1  0  0  0  0
  6  4  1  0  0  0  0
  7  3  2  0  0  0  0
  8 20  1  0  0  0  0
  9  5  2  0  0  0  0
 10 15  1  0  0  0  0
 11  1  1  0  0  0  0
 12  2  2  0  0  0  0
 13  9  1  0  0  0  0
 14  8  1  0  0  0  0
 15 16  1  0  0  0  0
 16  8  1  0  0  0  0
 17 14  1  0  0  0  0
 18  7  1  0  0  0  0
 19 13  1  0  0  0  0
 20 21  1  0  0  0  0
 21 19  1  0  0  0  0
 22 10  1  0  0  0  0
 23 11  1  0  0  0  0
 24 11  2  0  0  0  0
 25 22  1  0  0  0  0
 26 23  2  0  0  0  0
 27 24  1  0  0  0  0
 28 27  2  0  0  0  0
  3  5  1  0  0  0  0
 26 28  1  0  0  0  0
 18 13  2  0  0  0  0
 10 17  1  0  0  0  0
M  END
>  <IDNUMBER>
F3385-3828

>  <Chemical_Name>
7-[2-(4-ethylpiperazin-1-yl)ethoxy]-3-phenyl-4H-chromen-4-one

>  <PriceCoeff>
1.00

>  <CAS>
903860-78-6

>  <MW>
378.46

>  <Description>
solid

>  <FSP3>
0.35

>  <clogP>
2.84

>  <TPSA>
42.01

>  <Acceptor>
5

>  <Donor>
2

>  <RotBonds>
6

>  <HAC>
28

>  <Collection>
General

>  <PPDS>
+

$$$$
F3385-3829
  Mrv2219 10102508112D          

 29 32  0  0  0  0            999 V2000
    5.1237   -2.0195    0.0000 C   0  0  0  0  0  0  0  0  0  0  0  0
    4.3977   -2.4325    0.0000 C   0  0  0  0  0  0  0  0  0  0  0  0
    3.6800   -2.0195    0.0000 C   0  0  0  0  0  0  0  0  0  0  0  0
    5.1237   -1.1891    0.0000 C   0  0  0  0  0  0  0  0  0  0  0  0
    3.6842   -1.1891    0.0000 C   0  0  0  0  0  0  0  0  0  0  0  0
    4.3977   -0.7678    0.0000 O   0  0  0  0  0  0  0  0  0  0  0  0
    2.9666   -2.4325    0.0000 C   0  0  0  0  0  0  0  0  0  0  0  0
   -0.6091   -1.1933    0.0000 N   0  0  0  0  0  0  0  0  0  0  0  0
    2.9666   -0.7761    0.0000 C   0  0  0  0  0  0  0  0  0  0  0  0
   -2.0486   -2.0069    0.0000 N   0  0  0  0  0  0  0  0  0  0  0  0
    5.8330   -2.4408    0.0000 C   0  0  0  0  0  0  0  0  0  0  0  0
    4.3977   -3.2587    0.0000 O   0  0  0  0  0  0  0  0  0  0  0  0
    2.2531   -1.1891    0.0000 C   0  0  0  0  0  0  0  0  0  0  0  0
   -1.3268   -0.7761    0.0000 C   0  0  0  0  0  0  0  0  0  0  0  0
   -1.3268   -2.4200    0.0000 C   0  0  0  0  0  0  0  0  0  0  0  0
   -0.6091   -2.0153    0.0000 C   0  0  0  0  0  0  0  0  0  0  0  0
   -2.0403   -1.1808    0.0000 C   0  0  0  0  0  0  0  0  0  0  0  0
    2.2531   -2.0195    0.0000 C   0  0  0  0  0  0  0  0  0  0  0  0
    1.5396   -0.7761    0.0000 O   0  0  0  0  0  0  0  0  0  0  0  0
    0.1043   -0.7803    0.0000 C   0  0  0  0  0  0  0  0  0  0  0  0
    0.8178   -1.1933    0.0000 C   0  0  0  0  0  0  0  0  0  0  0  0
   -2.7621   -2.4200    0.0000 C   0  0  0  0  0  0  0  0  0  0  0  0
   -4.1932   -2.4158    0.0000 O   0  0  0  0  0  0  0  0  0  0  0  0
    5.8247   -3.2670    0.0000 C   0  0  0  0  0  0  0  0  0  0  0  0
    6.5465   -2.0278    0.0000 C   0  0  0  0  0  0  0  0  0  0  0  0
   -3.4756   -2.0069    0.0000 C   0  0  0  0  0  0  0  0  0  0  0  0
    6.5382   -3.6800    0.0000 C   0  0  0  0  0  0  0  0  0  0  0  0
    7.2599   -2.4408    0.0000 C   0  0  0  0  0  0  0  0  0  0  0  0
    7.2599   -3.2712    0.0000 C   0  0  0  0  0  0  0  0  0  0  0  0
  2  1  1  0  0  0  0
  3  2  1  0  0  0  0
  4  1  2  0  0  0  0
  5  6  1  0  0  0  0
  6  4  1  0  0  0  0
  7  3  2  0  0  0  0
  8 20  1  0  0  0  0
  9  5  2  0  0  0  0
 10 15  1  0  0  0  0
 11  1  1  0  0  0  0
 12  2  2  0  0  0  0
 13  9  1  0  0  0  0
 14  8  1  0  0  0  0
 15 16  1  0  0  0  0
 16  8  1  0  0  0  0
 17 14  1  0  0  0  0
 18  7  1  0  0  0  0
 19 13  1  0  0  0  0
 20 21  1  0  0  0  0
 21 19  1  0  0  0  0
 22 10  1  0  0  0  0
 23 26  1  0  0  0  0
 24 11  2  0  0  0  0
 25 11  1  0  0  0  0
 26 22  1  0  0  0  0
 27 24  1  0  0  0  0
 28 25  2  0  0  0  0
 29 28  1  0  0  0  0
  3  5  1  0  0  0  0
 29 27  2  0  0  0  0
 18 13  2  0  0  0  0
 10 17  1  0  0  0  0
M  END
>  <IDNUMBER>
F3385-3829

>  <Chemical_Name>
7-{2-[4-(2-hydroxyethyl)piperazin-1-yl]ethoxy}-3-phenyl-4H-chromen-4-one

>  <PriceCoeff>
1.00

>  <CAS>
903870-88-2

>  <MW>
394.46

>  <Description>
solid

>  <FSP3>
0.35

>  <clogP>
1.74

>  <TPSA>
62.24

>  <Acceptor>
6

>  <Donor>
3

>  <RotBonds>
7

>  <HAC>
29

>  <Collection>
General

>  <PPDS>
+

$$$$
F3385-3831
  Mrv2219 10102508112D          

 26 29  0  0  0  0            999 V2000
    5.1202   -2.0181    0.0000 C   0  0  0  0  0  0  0  0  0  0  0  0
    4.3947   -2.4309    0.0000 C   0  0  0  0  0  0  0  0  0  0  0  0
    3.6775   -2.0181    0.0000 C   0  0  0  0  0  0  0  0  0  0  0  0
    5.1202   -1.1883    0.0000 C   0  0  0  0  0  0  0  0  0  0  0  0
    3.6817   -1.1883    0.0000 C   0  0  0  0  0  0  0  0  0  0  0  0
    4.3947   -0.7672    0.0000 O   0  0  0  0  0  0  0  0  0  0  0  0
    2.9645   -2.4309    0.0000 C   0  0  0  0  0  0  0  0  0  0  0  0
    2.9645   -0.7755    0.0000 C   0  0  0  0  0  0  0  0  0  0  0  0
   -0.6087   -1.1925    0.0000 N   0  0  0  0  0  0  0  0  0  0  0  0
    5.8290   -2.4392    0.0000 C   0  0  0  0  0  0  0  0  0  0  0  0
    4.3947   -3.2564    0.0000 O   0  0  0  0  0  0  0  0  0  0  0  0
   -2.0472   -2.0056    0.0000 O   0  0  0  0  0  0  0  0  0  0  0  0
    2.2515   -1.1883    0.0000 C   0  0  0  0  0  0  0  0  0  0  0  0
    2.2515   -2.0181    0.0000 C   0  0  0  0  0  0  0  0  0  0  0  0
    1.5386   -0.7755    0.0000 O   0  0  0  0  0  0  0  0  0  0  0  0
    0.1043   -0.7797    0.0000 C   0  0  0  0  0  0  0  0  0  0  0  0
    0.8173   -1.1925    0.0000 C   0  0  0  0  0  0  0  0  0  0  0  0
   -0.6087   -2.0139    0.0000 C   0  0  0  0  0  0  0  0  0  0  0  0
   -1.3259   -0.7755    0.0000 C   0  0  0  0  0  0  0  0  0  0  0  0
   -2.0389   -1.1800    0.0000 C   0  0  0  0  0  0  0  0  0  0  0  0
   -1.3259   -2.4184    0.0000 C   0  0  0  0  0  0  0  0  0  0  0  0
    5.8207   -3.2647    0.0000 C   0  0  0  0  0  0  0  0  0  0  0  0
    6.5420   -2.0264    0.0000 C   0  0  0  0  0  0  0  0  0  0  0  0
    7.2550   -2.4392    0.0000 C   0  0  0  0  0  0  0  0  0  0  0  0
    6.5337   -3.6775    0.0000 C   0  0  0  0  0  0  0  0  0  0  0  0
    7.2550   -3.2689    0.0000 C   0  0  0  0  0  0  0  0  0  0  0  0
  2  1  1  0  0  0  0
  3  2  1  0  0  0  0
  4  1  2  0  0  0  0
  5  6  1  0  0  0  0
  6  4  1  0  0  0  0
  7  3  2  0  0  0  0
  8  5  2  0  0  0  0
  9 16  1  0  0  0  0
 10  1  1  0  0  0  0
 11  2  2  0  0  0  0
 12 20  1  0  0  0  0
 13  8  1  0  0  0  0
 14  7  1  0  0  0  0
 15 13  1  0  0  0  0
 16 17  1  0  0  0  0
 17 15  1  0  0  0  0
 18  9  1  0  0  0  0
 19  9  1  0  0  0  0
 20 19  1  0  0  0  0
 21 18  1  0  0  0  0
 22 10  2  0  0  0  0
 23 10  1  0  0  0  0
 24 23  2  0  0  0  0
 25 22  1  0  0  0  0
 26 24  1  0  0  0  0
  3  5  1  0  0  0  0
 26 25  2  0  0  0  0
 14 13  2  0  0  0  0
 12 21  1  0  0  0  0
M  END
>  <IDNUMBER>
F3385-3831

>  <Chemical_Name>
7-[2-(morpholin-4-yl)ethoxy]-3-phenyl-4H-chromen-4-one

>  <PriceCoeff>
1.00

>  <CAS>
903184-91-8

>  <MW>
351.40

>  <Description>
solid

>  <FSP3>
0.29

>  <clogP>
3.21

>  <TPSA>
48.00

>  <Acceptor>
4

>  <Donor>
1

>  <RotBonds>
5

>  <HAC>
26

>  <Collection>
General

>  <PPDS>
+

$$$$
F3385-3844
  Mrv2219 10102508112D          

 23 25  0  0  0  0            999 V2000
    2.8672   -9.8936    0.0000 C   0  0  0  0  0  0  0  0  0  0  0  0
    2.1421  -10.3061    0.0000 C   0  0  0  0  0  0  0  0  0  0  0  0
    1.4295   -9.8936    0.0000 C   0  0  0  0  0  0  0  0  0  0  0  0
    2.8672   -9.0642    0.0000 C   0  0  0  0  0  0  0  0  0  0  0  0
    1.4295   -9.0642    0.0000 C   0  0  0  0  0  0  0  0  0  0  0  0
    2.1504   -8.6433    0.0000 O   0  0  0  0  0  0  0  0  0  0  0  0
    3.5799  -10.3144    0.0000 C   0  0  0  0  0  0  0  0  0  0  0  0
    0.7168  -10.3061    0.0000 C   0  0  0  0  0  0  0  0  0  0  0  0
    0.7168   -8.6516    0.0000 C   0  0  0  0  0  0  0  0  0  0  0  0
    2.1421  -11.1313    0.0000 O   0  0  0  0  0  0  0  0  0  0  0  0
    4.2925   -9.9019    0.0000 C   0  0  0  0  0  0  0  0  0  0  0  0
    3.5757  -11.1396    0.0000 C   0  0  0  0  0  0  0  0  0  0  0  0
    0.0042   -9.0684    0.0000 C   0  0  0  0  0  0  0  0  0  0  0  0
    0.0042   -9.8936    0.0000 C   0  0  0  0  0  0  0  0  0  0  0  0
    5.0051  -11.1438    0.0000 C   0  0  0  0  0  0  0  0  0  0  0  0
    4.2883  -11.5522    0.0000 C   0  0  0  0  0  0  0  0  0  0  0  0
    5.0051  -10.3144    0.0000 C   0  0  0  0  0  0  0  0  0  0  0  0
   -2.8588   -9.0684    0.0000 Br  0  0  0  0  0  0  0  0  0  0  0  0
   -0.7084   -8.6558    0.0000 O   0  0  0  0  0  0  0  0  0  0  0  0
    5.7178  -11.5564    0.0000 O   0  0  0  0  0  0  0  0  0  0  0  0
   -2.1379   -8.6558    0.0000 C   0  0  0  0  0  0  0  0  0  0  0  0
   -1.4253   -9.0684    0.0000 C   0  0  0  0  0  0  0  0  0  0  0  0
    6.4304  -11.1438    0.0000 C   0  0  0  0  0  0  0  0  0  0  0  0
  2  1  1  0  0  0  0
  3  2  1  0  0  0  0
  4  1  2  0  0  0  0
  5  6  1  0  0  0  0
  6  4  1  0  0  0  0
  7  1  1  0  0  0  0
  8  3  2  0  0  0  0
  9  5  2  0  0  0  0
 10  2  2  0  0  0  0
 11  7  1  0  0  0  0
 12  7  2  0  0  0  0
 13  9  1  0  0  0  0
 14  8  1  0  0  0  0
 15 16  2  0  0  0  0
 16 12  1  0  0  0  0
 17 11  2  0  0  0  0
 18 21  1  0  0  0  0
 19 13  1  0  0  0  0
 20 15  1  0  0  0  0
 21 22  1  0  0  0  0
 22 19  1  0  0  0  0
 23 20  1  0  0  0  0
 15 17  1  0  0  0  0
  3  5  1  0  0  0  0
 13 14  2  0  0  0  0
M  END
>  <IDNUMBER>
F3385-3844

>  <Chemical_Name>
7-(2-bromoethoxy)-3-(4-methoxyphenyl)-4H-chromen-4-one

>  <PriceCoeff>
1.00

>  <CAS>
6716-74-1

>  <MW>
375.21

>  <Description>
solid

>  <FSP3>
0.17

>  <clogP>
3.75

>  <TPSA>
44.76

>  <Acceptor>
4

>  <Donor>
0

>  <RotBonds>
5

>  <HAC>
23

>  <Collection>
General

>  <PPDS>
+

$$$$
F3385-3915
  Mrv2219 10102508112D          

 24 26  0  0  0  0            999 V2000
    4.3590   -1.3904    0.0000 C   0  0  0  0  0  0  0  0  0  0  0  0
    2.9353   -1.3904    0.0000 C   0  0  0  0  0  0  0  0  0  0  0  0
    3.6450   -1.7954    0.0000 C   0  0  0  0  0  0  0  0  0  0  0  0
    2.9311   -0.5679    0.0000 C   0  0  0  0  0  0  0  0  0  0  0  0
    3.6367   -0.1503    0.0000 O   0  0  0  0  0  0  0  0  0  0  0  0
    4.3590   -0.5637    0.0000 C   0  0  0  0  0  0  0  0  0  0  0  0
    2.2171   -0.1503    0.0000 C   0  0  0  0  0  0  0  0  0  0  0  0
    2.2171   -1.8079    0.0000 C   0  0  0  0  0  0  0  0  0  0  0  0
    5.0730   -1.7954    0.0000 C   0  0  0  0  0  0  0  0  0  0  0  0
    1.5031   -0.5637    0.0000 C   0  0  0  0  0  0  0  0  0  0  0  0
    3.6450   -2.6221    0.0000 O   0  0  0  0  0  0  0  0  0  0  0  0
    1.5031   -1.3946    0.0000 C   0  0  0  0  0  0  0  0  0  0  0  0
    5.7870   -1.3821    0.0000 C   0  0  0  0  0  0  0  0  0  0  0  0
    5.0730   -2.6221    0.0000 C   0  0  0  0  0  0  0  0  0  0  0  0
    6.5052   -2.6221    0.0000 C   0  0  0  0  0  0  0  0  0  0  0  0
    5.7870   -3.0355    0.0000 C   0  0  0  0  0  0  0  0  0  0  0  0
    6.5009   -1.7954    0.0000 C   0  0  0  0  0  0  0  0  0  0  0  0
    0.7891   -0.1545    0.0000 O   0  0  0  0  0  0  0  0  0  0  0  0
    2.2171    0.6764    0.0000 C   0  0  0  0  0  0  0  0  0  0  0  0
   -1.3611   -0.5679    0.0000 Br  0  0  0  0  0  0  0  0  0  0  0  0
    7.2149   -3.0355    0.0000 O   0  0  0  0  0  0  0  0  0  0  0  0
   -0.6471   -0.1545    0.0000 C   0  0  0  0  0  0  0  0  0  0  0  0
    0.0668   -0.5679    0.0000 C   0  0  0  0  0  0  0  0  0  0  0  0
    7.9289   -2.6221    0.0000 C   0  0  0  0  0  0  0  0  0  0  0  0
  2  3  1  0  0  0  0
  3  1  1  0  0  0  0
  4  5  1  0  0  0  0
  5  6  1  0  0  0  0
  6  1  2  0  0  0  0
  7  4  2  0  0  0  0
  8  2  2  0  0  0  0
  9  1  1  0  0  0  0
 10  7  1  0  0  0  0
 11  3  2  0  0  0  0
 12  8  1  0  0  0  0
 13  9  1  0  0  0  0
 14  9  2  0  0  0  0
 15 16  2  0  0  0  0
 16 14  1  0  0  0  0
 17 13  2  0  0  0  0
 18 10  1  0  0  0  0
 19  7  1  0  0  0  0
 20 22  1  0  0  0  0
 21 15  1  0  0  0  0
 22 23  1  0  0  0  0
 23 18  1  0  0  0  0
 24 21  1  0  0  0  0
 15 17  1  0  0  0  0
  2  4  1  0  0  0  0
 12 10  2  0  0  0  0
M  END
>  <IDNUMBER>
F3385-3915

>  <Chemical_Name>
7-(2-bromoethoxy)-3-(4-methoxyphenyl)-8-methyl-4H-chromen-4-one

>  <PriceCoeff>
1.00

>  <CAS>
903862-40-8

>  <MW>
389.24

>  <Description>
solid

>  <FSP3>
0.21

>  <clogP>
4.25

>  <TPSA>
44.76

>  <Acceptor>
4

>  <Donor>
0

>  <RotBonds>
5

>  <HAC>
24

>  <Collection>
General

>  <PPDS>
+

$$$$
F3385-3983
  Mrv2219 10102508112D          

 28 30  0  0  0  0            999 V2000
    4.4542   -3.0875    0.0000 C   0  0  0  0  0  0  0  0  0  0  0  0
    3.7375   -2.6667    0.0000 C   0  0  0  0  0  0  0  0  0  0  0  0
    5.1667   -2.6750    0.0000 C   0  0  0  0  0  0  0  0  0  0  0  0
    3.7417   -1.8417    0.0000 C   0  0  0  0  0  0  0  0  0  0  0  0
    0.8792   -1.8500    0.0000 C   0  0  0  0  0  0  0  0  0  0  0  0
    5.1667   -1.8417    0.0000 C   0  0  0  0  0  0  0  0  0  0  0  0
    3.0250   -3.0875    0.0000 C   0  0  0  0  0  0  0  0  0  0  0  0
    4.4542   -1.4292    0.0000 O   0  0  0  0  0  0  0  0  0  0  0  0
    5.8792   -3.0875    0.0000 C   0  0  0  0  0  0  0  0  0  0  0  0
    2.3125   -1.8500    0.0000 C   0  0  0  0  0  0  0  0  0  0  0  0
    3.0250   -1.4292    0.0000 C   0  0  0  0  0  0  0  0  0  0  0  0
    2.3125   -2.6750    0.0000 C   0  0  0  0  0  0  0  0  0  0  0  0
    1.6000   -1.4375    0.0000 O   0  0  0  0  0  0  0  0  0  0  0  0
    6.5917   -2.6750    0.0000 C   0  0  0  0  0  0  0  0  0  0  0  0
    7.3042   -3.0875    0.0000 C   0  0  0  0  0  0  0  0  0  0  0  0
    0.1667   -1.4375    0.0000 N   0  0  0  0  0  0  0  0  0  0  0  0
    4.4500   -3.9125    0.0000 O   0  0  0  0  0  0  0  0  0  0  0  0
    0.8792   -2.6750    0.0000 O   0  0  0  0  0  0  0  0  0  0  0  0
    7.3042   -3.9167    0.0000 C   0  0  0  0  0  0  0  0  0  0  0  0
    5.8792   -3.9125    0.0000 C   0  0  0  0  0  0  0  0  0  0  0  0
    6.5917   -4.3167    0.0000 C   0  0  0  0  0  0  0  0  0  0  0  0
    3.0292   -3.9125    0.0000 O   0  0  0  0  0  0  0  0  0  0  0  0
    8.0250   -2.6750    0.0000 O   0  0  0  0  0  0  0  0  0  0  0  0
    8.0167   -4.3292    0.0000 O   0  0  0  0  0  0  0  0  0  0  0  0
    0.1667   -0.6125    0.0000 C   0  0  0  0  0  0  0  0  0  0  0  0
   -0.5458   -1.8500    0.0000 C   0  0  0  0  0  0  0  0  0  0  0  0
    8.0167   -1.8500    0.0000 C   0  0  0  0  0  0  0  0  0  0  0  0
    8.7375   -3.9167    0.0000 C   0  0  0  0  0  0  0  0  0  0  0  0
  2  1  1  0  0  0  0
  3  1  1  0  0  0  0
  4  2  1  0  0  0  0
  5 13  1  0  0  0  0
  6  3  2  0  0  0  0
  7  2  2  0  0  0  0
  8  6  1  0  0  0  0
  9  3  1  0  0  0  0
 10 12  2  0  0  0  0
 11  4  2  0  0  0  0
 12  7  1  0  0  0  0
 13 10  1  0  0  0  0
 14  9  1  0  0  0  0
 15 14  2  0  0  0  0
 16  5  1  0  0  0  0
 17  1  2  0  0  0  0
 18  5  2  0  0  0  0
 19 21  2  0  0  0  0
 20  9  2  0  0  0  0
 21 20  1  0  0  0  0
 22  7  1  0  0  0  0
 23 15  1  0  0  0  0
 24 19  1  0  0  0  0
 25 16  1  0  0  0  0
 26 16  1  0  0  0  0
 27 23  1  0  0  0  0
 28 24  1  0  0  0  0
  8  4  1  0  0  0  0
 10 11  1  0  0  0  0
 19 15  1  0  0  0  0
M  END
>  <IDNUMBER>
F3385-3983

>  <Chemical_Name>
3-(3,4-dimethoxyphenyl)-5-hydroxy-4-oxo-4H-chromen-7-yl N,N-dimethylcarbamate

>  <PriceCoeff>
1.00

>  <CAS>
919730-42-0

>  <MW>
385.37

>  <Description>
solid

>  <FSP3>
0.20

>  <clogP>
2.67

>  <TPSA>
94.53

>  <Acceptor>
7

>  <Donor>
1

>  <RotBonds>
6

>  <HAC>
28

>  <Collection>
General

>  <PPDS>
+

$$$$
F3385-4073
  Mrv2219 10102508112D          

 28 31  0  0  0  0            999 V2000
    6.6680   -8.9978    0.0000 C   0  0  0  0  0  0  0  0  0  0  0  0
    5.9540   -9.4112    0.0000 C   0  0  0  0  0  0  0  0  0  0  0  0
    5.2400   -8.9978    0.0000 C   0  0  0  0  0  0  0  0  0  0  0  0
    6.6680   -8.1711    0.0000 C   0  0  0  0  0  0  0  0  0  0  0  0
    5.2358   -8.1711    0.0000 C   0  0  0  0  0  0  0  0  0  0  0  0
    5.9498   -7.7535    0.0000 O   0  0  0  0  0  0  0  0  0  0  0  0
    7.3820   -9.4070    0.0000 C   0  0  0  0  0  0  0  0  0  0  0  0
    4.5219   -9.4195    0.0000 C   0  0  0  0  0  0  0  0  0  0  0  0
    4.5219   -7.7577    0.0000 C   0  0  0  0  0  0  0  0  0  0  0  0
    0.9437   -8.1794    0.0000 N   0  0  0  0  0  0  0  0  0  0  0  0
    5.9540  -10.2379    0.0000 O   0  0  0  0  0  0  0  0  0  0  0  0
   -0.4885   -8.9978    0.0000 O   0  0  0  0  0  0  0  0  0  0  0  0
    8.0959   -8.9978    0.0000 C   0  0  0  0  0  0  0  0  0  0  0  0
    7.3820  -10.2379    0.0000 C   0  0  0  0  0  0  0  0  0  0  0  0
    3.8079   -8.1794    0.0000 C   0  0  0  0  0  0  0  0  0  0  0  0
    3.8079   -9.0061    0.0000 C   0  0  0  0  0  0  0  0  0  0  0  0
    8.8182  -10.2379    0.0000 C   0  0  0  0  0  0  0  0  0  0  0  0
    8.0959  -10.6512    0.0000 C   0  0  0  0  0  0  0  0  0  0  0  0
    8.8099   -9.4070    0.0000 C   0  0  0  0  0  0  0  0  0  0  0  0
    3.0939   -7.7661    0.0000 O   0  0  0  0  0  0  0  0  0  0  0  0
    1.6576   -7.7661    0.0000 C   0  0  0  0  0  0  0  0  0  0  0  0
    2.3716   -8.1794    0.0000 C   0  0  0  0  0  0  0  0  0  0  0  0
    9.5239  -10.6470    0.0000 O   0  0  0  0  0  0  0  0  0  0  0  0
    0.2297   -7.7577    0.0000 C   0  0  0  0  0  0  0  0  0  0  0  0
    0.9437   -8.9978    0.0000 C   0  0  0  0  0  0  0  0  0  0  0  0
    0.2297   -9.4112    0.0000 C   0  0  0  0  0  0  0  0  0  0  0  0
   -0.4843   -8.1711    0.0000 C   0  0  0  0  0  0  0  0  0  0  0  0
   10.2379  -10.2337    0.0000 C   0  0  0  0  0  0  0  0  0  0  0  0
  2  1  1  0  0  0  0
  3  2  1  0  0  0  0
  4  1  2  0  0  0  0
  5  6  1  0  0  0  0
  6  4  1  0  0  0  0
  7  1  1  0  0  0  0
  8  3  2  0  0  0  0
  9  5  2  0  0  0  0
 10 21  1  0  0  0  0
 11  2  2  0  0  0  0
 12 26  1  0  0  0  0
 13  7  1  0  0  0  0
 14  7  2  0  0  0  0
 15  9  1  0  0  0  0
 16  8  1  0  0  0  0
 17 18  2  0  0  0  0
 18 14  1  0  0  0  0
 19 13  2  0  0  0  0
 20 15  1  0  0  0  0
 21 22  1  0  0  0  0
 22 20  1  0  0  0  0
 23 17  1  0  0  0  0
 24 10  1  0  0  0  0
 25 10  1  0  0  0  0
 26 25  1  0  0  0  0
 27 24  1  0  0  0  0
 28 23  1  0  0  0  0
 19 17  1  0  0  0  0
  3  5  1  0  0  0  0
 16 15  2  0  0  0  0
 12 27  1  0  0  0  0
M  END
>  <IDNUMBER>
F3385-4073

>  <Chemical_Name>
3-(4-methoxyphenyl)-7-[2-(morpholin-4-yl)ethoxy]-4H-chromen-4-one

>  <PriceCoeff>
1.00

>  <CAS>
903851-24-1

>  <MW>
381.42

>  <Description>
solid

>  <FSP3>
0.32

>  <clogP>
3.14

>  <TPSA>
57.23

>  <Acceptor>
5

>  <Donor>
1

>  <RotBonds>
6

>  <HAC>
28

>  <Collection>
General

>  <PPDS>
+

$$$$
F3385-4074
  Mrv2219 10102508112D          

 29 32  0  0  0  0            999 V2000
    8.1518   -7.6543    0.0000 C   0  0  0  0  0  0  0  0  0  0  0  0
    7.4304   -8.0648    0.0000 C   0  0  0  0  0  0  0  0  0  0  0  0
    6.7213   -7.6625    0.0000 C   0  0  0  0  0  0  0  0  0  0  0  0
    8.1477   -6.8333    0.0000 C   0  0  0  0  0  0  0  0  0  0  0  0
    6.7172   -6.8333    0.0000 C   0  0  0  0  0  0  0  0  0  0  0  0
    7.4304   -6.4104    0.0000 O   0  0  0  0  0  0  0  0  0  0  0  0
    8.8609   -8.0648    0.0000 C   0  0  0  0  0  0  0  0  0  0  0  0
    5.9999   -8.0772    0.0000 C   0  0  0  0  0  0  0  0  0  0  0  0
    2.4298   -6.8415    0.0000 N   0  0  0  0  0  0  0  0  0  0  0  0
    0.9993   -7.6543    0.0000 N   0  0  0  0  0  0  0  0  0  0  0  0
    5.9999   -6.4228    0.0000 C   0  0  0  0  0  0  0  0  0  0  0  0
    7.4304   -8.8940    0.0000 O   0  0  0  0  0  0  0  0  0  0  0  0
    9.5782   -7.6543    0.0000 C   0  0  0  0  0  0  0  0  0  0  0  0
    8.8609   -8.8940    0.0000 C   0  0  0  0  0  0  0  0  0  0  0  0
    5.2908   -6.8415    0.0000 C   0  0  0  0  0  0  0  0  0  0  0  0
    1.7208   -8.0648    0.0000 C   0  0  0  0  0  0  0  0  0  0  0  0
    1.0076   -6.8333    0.0000 C   0  0  0  0  0  0  0  0  0  0  0  0
    2.4298   -7.6625    0.0000 C   0  0  0  0  0  0  0  0  0  0  0  0
    1.7208   -6.4228    0.0000 C   0  0  0  0  0  0  0  0  0  0  0  0
    5.2908   -7.6667    0.0000 C   0  0  0  0  0  0  0  0  0  0  0  0
   10.2914   -8.8940    0.0000 C   0  0  0  0  0  0  0  0  0  0  0  0
    9.5782   -9.3087    0.0000 C   0  0  0  0  0  0  0  0  0  0  0  0
   10.2914   -8.0648    0.0000 C   0  0  0  0  0  0  0  0  0  0  0  0
    4.5818   -6.4228    0.0000 O   0  0  0  0  0  0  0  0  0  0  0  0
    3.1513   -6.4228    0.0000 C   0  0  0  0  0  0  0  0  0  0  0  0
    3.8603   -6.8415    0.0000 C   0  0  0  0  0  0  0  0  0  0  0  0
   11.0004   -9.3045    0.0000 O   0  0  0  0  0  0  0  0  0  0  0  0
    0.2903   -8.0648    0.0000 C   0  0  0  0  0  0  0  0  0  0  0  0
   11.7094   -8.8857    0.0000 C   0  0  0  0  0  0  0  0  0  0  0  0
  2  1  1  0  0  0  0
  3  2  1  0  0  0  0
  4  1  2  0  0  0  0
  5  6  1  0  0  0  0
  6  4  1  0  0  0  0
  7  1  1  0  0  0  0
  8  3  2  0  0  0  0
  9 25  1  0  0  0  0
 10 17  1  0  0  0  0
 11  5  2  0  0  0  0
 12  2  2  0  0  0  0
 13  7  1  0  0  0  0
 14  7  2  0  0  0  0
 15 11  1  0  0  0  0
 16 18  1  0  0  0  0
 17 19  1  0  0  0  0
 18  9  1  0  0  0  0
 19  9  1  0  0  0  0
 20  8  1  0  0  0  0
 21 22  2  0  0  0  0
 22 14  1  0  0  0  0
 23 13  2  0  0  0  0
 24 15  1  0  0  0  0
 25 26  1  0  0  0  0
 26 24  1  0  0  0  0
 27 21  1  0  0  0  0
 28 10  1  0  0  0  0
 29 27  1  0  0  0  0
 23 21  1  0  0  0  0
  3  5  1  0  0  0  0
 20 15  2  0  0  0  0
 10 16  1  0  0  0  0
M  END
>  <IDNUMBER>
F3385-4074

>  <Chemical_Name>
3-(4-methoxyphenyl)-7-[2-(4-methylpiperazin-1-yl)ethoxy]-4H-chromen-4-one

>  <PriceCoeff>
1.00

>  <CAS>
378240-06-3

>  <MW>
394.46

>  <Description>
solid

>  <FSP3>
0.35

>  <clogP>
2.21

>  <TPSA>
51.24

>  <Acceptor>
6

>  <Donor>
2

>  <RotBonds>
6

>  <HAC>
29

>  <Collection>
General

>  <PPDS>
+

$$$$
F3385-4077
  Mrv2219 10102508112D          

 30 33  0  0  0  0            999 V2000
    6.6680   -8.9978    0.0000 C   0  0  0  0  0  0  0  0  0  0  0  0
    5.9540   -9.4112    0.0000 C   0  0  0  0  0  0  0  0  0  0  0  0
    5.2400   -8.9978    0.0000 C   0  0  0  0  0  0  0  0  0  0  0  0
    6.6680   -8.1711    0.0000 C   0  0  0  0  0  0  0  0  0  0  0  0
    5.2358   -8.1711    0.0000 C   0  0  0  0  0  0  0  0  0  0  0  0
    5.9498   -7.7535    0.0000 O   0  0  0  0  0  0  0  0  0  0  0  0
    7.3820   -9.4070    0.0000 C   0  0  0  0  0  0  0  0  0  0  0  0
    4.5219   -9.4195    0.0000 C   0  0  0  0  0  0  0  0  0  0  0  0
    0.9437   -8.1794    0.0000 N   0  0  0  0  0  0  0  0  0  0  0  0
    4.5219   -7.7577    0.0000 C   0  0  0  0  0  0  0  0  0  0  0  0
   -0.4885   -8.9978    0.0000 N   0  0  0  0  0  0  0  0  0  0  0  0
    5.9540  -10.2379    0.0000 O   0  0  0  0  0  0  0  0  0  0  0  0
    8.0959   -8.9978    0.0000 C   0  0  0  0  0  0  0  0  0  0  0  0
    7.3820  -10.2379    0.0000 C   0  0  0  0  0  0  0  0  0  0  0  0
    3.8079   -8.1794    0.0000 C   0  0  0  0  0  0  0  0  0  0  0  0
    0.2297   -7.7577    0.0000 C   0  0  0  0  0  0  0  0  0  0  0  0
    0.2297   -9.4112    0.0000 C   0  0  0  0  0  0  0  0  0  0  0  0
    0.9437   -8.9978    0.0000 C   0  0  0  0  0  0  0  0  0  0  0  0
   -0.4843   -8.1711    0.0000 C   0  0  0  0  0  0  0  0  0  0  0  0
    3.8079   -9.0061    0.0000 C   0  0  0  0  0  0  0  0  0  0  0  0
    8.8182  -10.2379    0.0000 C   0  0  0  0  0  0  0  0  0  0  0  0
    8.0959  -10.6512    0.0000 C   0  0  0  0  0  0  0  0  0  0  0  0
    8.8099   -9.4070    0.0000 C   0  0  0  0  0  0  0  0  0  0  0  0
    3.0939   -7.7661    0.0000 O   0  0  0  0  0  0  0  0  0  0  0  0
    1.6576   -7.7661    0.0000 C   0  0  0  0  0  0  0  0  0  0  0  0
    2.3716   -8.1794    0.0000 C   0  0  0  0  0  0  0  0  0  0  0  0
    9.5239  -10.6470    0.0000 O   0  0  0  0  0  0  0  0  0  0  0  0
   -1.2025   -9.4070    0.0000 C   0  0  0  0  0  0  0  0  0  0  0  0
   10.2379  -10.2337    0.0000 C   0  0  0  0  0  0  0  0  0  0  0  0
   -1.9165   -8.9936    0.0000 C   0  0  0  0  0  0  0  0  0  0  0  0
  2  1  1  0  0  0  0
  3  2  1  0  0  0  0
  4  1  2  0  0  0  0
  5  6  1  0  0  0  0
  6  4  1  0  0  0  0
  7  1  1  0  0  0  0
  8  3  2  0  0  0  0
  9 25  1  0  0  0  0
 10  5  2  0  0  0  0
 11 17  1  0  0  0  0
 12  2  2  0  0  0  0
 13  7  1  0  0  0  0
 14  7  2  0  0  0  0
 15 10  1  0  0  0  0
 16  9  1  0  0  0  0
 17 18  1  0  0  0  0
 18  9  1  0  0  0  0
 19 16  1  0  0  0  0
 20  8  1  0  0  0  0
 21 22  2  0  0  0  0
 22 14  1  0  0  0  0
 23 13  2  0  0  0  0
 24 15  1  0  0  0  0
 25 26  1  0  0  0  0
 26 24  1  0  0  0  0
 27 21  1  0  0  0  0
 28 11  1  0  0  0  0
 29 27  1  0  0  0  0
 30 28  1  0  0  0  0
 23 21  1  0  0  0  0
  3  5  1  0  0  0  0
 20 15  2  0  0  0  0
 11 19  1  0  0  0  0
M  END
>  <IDNUMBER>
F3385-4077

>  <Chemical_Name>
7-[2-(4-ethylpiperazin-1-yl)ethoxy]-3-(4-methoxyphenyl)-4H-chromen-4-one

>  <PriceCoeff>
1.00

>  <CAS>
903854-74-0

>  <MW>
408.49

>  <Description>
solid

>  <FSP3>
0.38

>  <clogP>
2.78

>  <TPSA>
51.24

>  <Acceptor>
6

>  <Donor>
2

>  <RotBonds>
7

>  <HAC>
30

>  <Collection>
General

>  <PPDS>
+

$$$$
F3385-4094
  Mrv2219 10102508112D          

 29 31  0  0  0  0            999 V2000
    4.3546   -0.9918    0.0000 C   0  0  0  0  0  0  0  0  0  0  0  0
    3.6421   -0.5793    0.0000 C   0  0  0  0  0  0  0  0  0  0  0  0
    5.0798   -0.5793    0.0000 C   0  0  0  0  0  0  0  0  0  0  0  0
    3.6421    0.2500    0.0000 C   0  0  0  0  0  0  0  0  0  0  0  0
    0.7875    0.2458    0.0000 C   0  0  0  0  0  0  0  0  0  0  0  0
    5.0798    0.2500    0.0000 C   0  0  0  0  0  0  0  0  0  0  0  0
    2.9296   -0.9918    0.0000 C   0  0  0  0  0  0  0  0  0  0  0  0
    4.3629    0.6708    0.0000 O   0  0  0  0  0  0  0  0  0  0  0  0
    5.7923   -1.0001    0.0000 C   0  0  0  0  0  0  0  0  0  0  0  0
    2.2169    0.2500    0.0000 C   0  0  0  0  0  0  0  0  0  0  0  0
    2.9296    0.6625    0.0000 C   0  0  0  0  0  0  0  0  0  0  0  0
    2.2169   -0.5793    0.0000 C   0  0  0  0  0  0  0  0  0  0  0  0
    1.5044    0.6583    0.0000 O   0  0  0  0  0  0  0  0  0  0  0  0
    6.5049   -0.5876    0.0000 C   0  0  0  0  0  0  0  0  0  0  0  0
    7.2175   -1.0001    0.0000 C   0  0  0  0  0  0  0  0  0  0  0  0
    0.0750    0.6583    0.0000 N   0  0  0  0  0  0  0  0  0  0  0  0
    4.3546   -1.8169    0.0000 O   0  0  0  0  0  0  0  0  0  0  0  0
    0.7875   -0.5793    0.0000 O   0  0  0  0  0  0  0  0  0  0  0  0
    7.2175   -1.8294    0.0000 C   0  0  0  0  0  0  0  0  0  0  0  0
    5.7881   -1.8252    0.0000 C   0  0  0  0  0  0  0  0  0  0  0  0
    6.5007   -2.2377    0.0000 C   0  0  0  0  0  0  0  0  0  0  0  0
    2.9296   -1.8169    0.0000 O   0  0  0  0  0  0  0  0  0  0  0  0
    7.9301   -0.5876    0.0000 O   0  0  0  0  0  0  0  0  0  0  0  0
    7.9301   -2.2419    0.0000 O   0  0  0  0  0  0  0  0  0  0  0  0
   -0.6458    0.2458    0.0000 C   0  0  0  0  0  0  0  0  0  0  0  0
    0.0750    1.4835    0.0000 C   0  0  0  0  0  0  0  0  0  0  0  0
    2.2169   -2.2294    0.0000 C   0  0  0  0  0  0  0  0  0  0  0  0
    7.9301    0.2375    0.0000 C   0  0  0  0  0  0  0  0  0  0  0  0
    8.6426   -1.8294    0.0000 C   0  0  0  0  0  0  0  0  0  0  0  0
  2  1  1  0  0  0  0
  3  1  1  0  0  0  0
  4  2  1  0  0  0  0
  5 13  1  0  0  0  0
  6  3  2  0  0  0  0
  7  2  2  0  0  0  0
  8  6  1  0  0  0  0
  9  3  1  0  0  0  0
 10 12  2  0  0  0  0
 11  4  2  0  0  0  0
 12  7  1  0  0  0  0
 13 10  1  0  0  0  0
 14  9  1  0  0  0  0
 15 14  2  0  0  0  0
 16  5  1  0  0  0  0
 17  1  2  0  0  0  0
 18  5  2  0  0  0  0
 19 21  2  0  0  0  0
 20  9  2  0  0  0  0
 21 20  1  0  0  0  0
 22  7  1  0  0  0  0
 23 15  1  0  0  0  0
 24 19  1  0  0  0  0
 25 16  1  0  0  0  0
 26 16  1  0  0  0  0
 27 22  1  0  0  0  0
 28 23  1  0  0  0  0
 29 24  1  0  0  0  0
  8  4  1  0  0  0  0
 10 11  1  0  0  0  0
 19 15  1  0  0  0  0
M  END
>  <IDNUMBER>
F3385-4094

>  <Chemical_Name>
3-(3,4-dimethoxyphenyl)-5-methoxy-4-oxo-4H-chromen-7-yl N,N-dimethylcarbamate

>  <PriceCoeff>
1.00

>  <MW>
399.39

>  <Description>
solid

>  <FSP3>
0.24

>  <clogP>
2.15

>  <TPSA>
83.53

>  <Acceptor>
7

>  <Donor>
0

>  <RotBonds>
7

>  <HAC>
29

>  <Collection>
General

$$$$
F3385-4187
  Mrv2219 10102508112D          

 29 32  0  0  0  0            999 V2000
    8.1962   -7.7076    0.0000 C   0  0  0  0  0  0  0  0  0  0  0  0
    6.7640   -7.7076    0.0000 C   0  0  0  0  0  0  0  0  0  0  0  0
    7.4822   -8.1210    0.0000 C   0  0  0  0  0  0  0  0  0  0  0  0
    6.7682   -6.8809    0.0000 C   0  0  0  0  0  0  0  0  0  0  0  0
    7.4822   -6.4634    0.0000 O   0  0  0  0  0  0  0  0  0  0  0  0
    8.1962   -6.8809    0.0000 C   0  0  0  0  0  0  0  0  0  0  0  0
    6.0500   -6.4676    0.0000 C   0  0  0  0  0  0  0  0  0  0  0  0
    6.0500   -8.1210    0.0000 C   0  0  0  0  0  0  0  0  0  0  0  0
    8.9101   -8.1210    0.0000 C   0  0  0  0  0  0  0  0  0  0  0  0
    2.4718   -6.8809    0.0000 N   0  0  0  0  0  0  0  0  0  0  0  0
    5.3360   -6.8809    0.0000 C   0  0  0  0  0  0  0  0  0  0  0  0
    7.4780   -8.9477    0.0000 O   0  0  0  0  0  0  0  0  0  0  0  0
    5.3360   -7.7076    0.0000 C   0  0  0  0  0  0  0  0  0  0  0  0
    1.0439   -7.7034    0.0000 O   0  0  0  0  0  0  0  0  0  0  0  0
    9.6241   -7.7076    0.0000 C   0  0  0  0  0  0  0  0  0  0  0  0
    8.9101   -8.9477    0.0000 C   0  0  0  0  0  0  0  0  0  0  0  0
   10.3381   -8.9560    0.0000 C   0  0  0  0  0  0  0  0  0  0  0  0
    4.6221   -6.4676    0.0000 O   0  0  0  0  0  0  0  0  0  0  0  0
   10.3381   -8.1210    0.0000 C   0  0  0  0  0  0  0  0  0  0  0  0
    9.6241   -9.3611    0.0000 C   0  0  0  0  0  0  0  0  0  0  0  0
    6.0417   -5.6409    0.0000 C   0  0  0  0  0  0  0  0  0  0  0  0
    3.1858   -6.4676    0.0000 C   0  0  0  0  0  0  0  0  0  0  0  0
    3.8998   -6.8809    0.0000 C   0  0  0  0  0  0  0  0  0  0  0  0
   11.0521   -9.3694    0.0000 O   0  0  0  0  0  0  0  0  0  0  0  0
    2.4801   -7.7034    0.0000 C   0  0  0  0  0  0  0  0  0  0  0  0
    1.7578   -6.4634    0.0000 C   0  0  0  0  0  0  0  0  0  0  0  0
    1.0439   -6.8684    0.0000 C   0  0  0  0  0  0  0  0  0  0  0  0
    1.7578   -8.1168    0.0000 C   0  0  0  0  0  0  0  0  0  0  0  0
   11.7744   -8.9560    0.0000 C   0  0  0  0  0  0  0  0  0  0  0  0
  2  3  1  0  0  0  0
  3  1  1  0  0  0  0
  4  5  1  0  0  0  0
  5  6  1  0  0  0  0
  6  1  2  0  0  0  0
  7  4  2  0  0  0  0
  8  2  2  0  0  0  0
  9  1  1  0  0  0  0
 10 22  1  0  0  0  0
 11  7  1  0  0  0  0
 12  3  2  0  0  0  0
 13  8  1  0  0  0  0
 14 27  1  0  0  0  0
 15  9  1  0  0  0  0
 16  9  2  0  0  0  0
 17 20  2  0  0  0  0
 18 11  1  0  0  0  0
 19 15  2  0  0  0  0
 20 16  1  0  0  0  0
 21  7  1  0  0  0  0
 22 23  1  0  0  0  0
 23 18  1  0  0  0  0
 24 17  1  0  0  0  0
 25 10  1  0  0  0  0
 26 10  1  0  0  0  0
 27 26  1  0  0  0  0
 28 25  1  0  0  0  0
 29 24  1  0  0  0  0
 19 17  1  0  0  0  0
  2  4  1  0  0  0  0
 13 11  2  0  0  0  0
 14 28  1  0  0  0  0
M  END
>  <IDNUMBER>
F3385-4187

>  <Chemical_Name>
3-(4-methoxyphenyl)-8-methyl-7-[2-(morpholin-4-yl)ethoxy]-4H-chromen-4-one

>  <PriceCoeff>
1.00

>  <CAS>
903857-84-1

>  <MW>
395.45

>  <Description>
solid

>  <FSP3>
0.35

>  <clogP>
3.64

>  <TPSA>
57.23

>  <Acceptor>
5

>  <Donor>
1

>  <RotBonds>
6

>  <HAC>
29

>  <Collection>
General

>  <PPDS>
+

$$$$
F3385-4196
  Mrv2219 10102508112D          

 22 24  0  0  0  0            999 V2000
    4.3042   -1.8917    0.0000 C   0  0  0  0  0  0  0  0  0  0  0  0
    3.5792   -2.3042    0.0000 C   0  0  0  0  0  0  0  0  0  0  0  0
    2.8625   -1.8917    0.0000 C   0  0  0  0  0  0  0  0  0  0  0  0
    4.3042   -1.0625    0.0000 C   0  0  0  0  0  0  0  0  0  0  0  0
    2.8667   -1.0625    0.0000 C   0  0  0  0  0  0  0  0  0  0  0  0
    3.5792   -0.6417    0.0000 O   0  0  0  0  0  0  0  0  0  0  0  0
    5.0125   -2.3125    0.0000 C   0  0  0  0  0  0  0  0  0  0  0  0
    2.1500   -2.3042    0.0000 C   0  0  0  0  0  0  0  0  0  0  0  0
    2.1500   -0.6500    0.0000 C   0  0  0  0  0  0  0  0  0  0  0  0
    3.5792   -3.1292    0.0000 O   0  0  0  0  0  0  0  0  0  0  0  0
    5.7250   -1.9000    0.0000 C   0  0  0  0  0  0  0  0  0  0  0  0
    5.0042   -3.1375    0.0000 C   0  0  0  0  0  0  0  0  0  0  0  0
    1.4375   -1.0625    0.0000 C   0  0  0  0  0  0  0  0  0  0  0  0
    1.4375   -1.8917    0.0000 C   0  0  0  0  0  0  0  0  0  0  0  0
    6.4375   -3.1417    0.0000 C   0  0  0  0  0  0  0  0  0  0  0  0
    5.7167   -3.5500    0.0000 C   0  0  0  0  0  0  0  0  0  0  0  0
    6.4375   -2.3125    0.0000 C   0  0  0  0  0  0  0  0  0  0  0  0
    7.1500   -3.5542    0.0000 Br  0  0  0  0  0  0  0  0  0  0  0  0
   -1.4208   -1.0667    0.0000 Br  0  0  0  0  0  0  0  0  0  0  0  0
    0.7250   -0.6500    0.0000 O   0  0  0  0  0  0  0  0  0  0  0  0
   -0.7083   -0.6542    0.0000 C   0  0  0  0  0  0  0  0  0  0  0  0
    0.0042   -1.0667    0.0000 C   0  0  0  0  0  0  0  0  0  0  0  0
  2  1  1  0  0  0  0
  3  2  1  0  0  0  0
  4  1  2  0  0  0  0
  5  6  1  0  0  0  0
  6  4  1  0  0  0  0
  7  1  1  0  0  0  0
  8  3  2  0  0  0  0
  9  5  2  0  0  0  0
 10  2  2  0  0  0  0
 11  7  1  0  0  0  0
 12  7  2  0  0  0  0
 13  9  1  0  0  0  0
 14  8  1  0  0  0  0
 15 16  2  0  0  0  0
 16 12  1  0  0  0  0
 17 11  2  0  0  0  0
 18 15  1  0  0  0  0
 19 21  1  0  0  0  0
 20 13  1  0  0  0  0
 21 22  1  0  0  0  0
 22 20  1  0  0  0  0
 15 17  1  0  0  0  0
  3  5  1  0  0  0  0
 14 13  2  0  0  0  0
M  END
>  <IDNUMBER>
F3385-4196

>  <Chemical_Name>
7-(2-bromoethoxy)-3-(4-bromophenyl)-4H-chromen-4-one

>  <PriceCoeff>
1.00

>  <CAS>
903206-63-3

>  <MW>
424.08

>  <Description>
solid

>  <FSP3>
0.12

>  <clogP>
4.68

>  <TPSA>
35.53

>  <Acceptor>
3

>  <Donor>
0

>  <RotBonds>
4

>  <HAC>
22

>  <Collection>
General

>  <PPDS>
+

$$$$
F3385-4229
  Mrv2219 10102508112D          

 26 28  0  0  0  0            999 V2000
    6.3542   -1.9042    0.0000 C   0  0  0  0  0  0  0  0  0  0  0  0
    5.6292   -2.3167    0.0000 C   0  0  0  0  0  0  0  0  0  0  0  0
    4.9125   -1.9042    0.0000 C   0  0  0  0  0  0  0  0  0  0  0  0
    6.3542   -1.0750    0.0000 C   0  0  0  0  0  0  0  0  0  0  0  0
    4.9167   -1.0750    0.0000 C   0  0  0  0  0  0  0  0  0  0  0  0
    5.6292   -0.6542    0.0000 O   0  0  0  0  0  0  0  0  0  0  0  0
    7.0625   -2.3250    0.0000 C   0  0  0  0  0  0  0  0  0  0  0  0
    4.2000   -2.3167    0.0000 C   0  0  0  0  0  0  0  0  0  0  0  0
    4.2000   -0.6625    0.0000 C   0  0  0  0  0  0  0  0  0  0  0  0
    1.3417   -0.6667    0.0000 C   0  0  0  0  0  0  0  0  0  0  0  0
    5.6292   -3.1417    0.0000 O   0  0  0  0  0  0  0  0  0  0  0  0
    1.3500    0.1625    0.0000 O   0  0  0  0  0  0  0  0  0  0  0  0
    3.4875   -1.0750    0.0000 C   0  0  0  0  0  0  0  0  0  0  0  0
    7.7750   -1.9125    0.0000 C   0  0  0  0  0  0  0  0  0  0  0  0
    7.0542   -3.1500    0.0000 C   0  0  0  0  0  0  0  0  0  0  0  0
    2.7750   -0.6667    0.0000 O   0  0  0  0  0  0  0  0  0  0  0  0
    2.0542   -1.0792    0.0000 C   0  0  0  0  0  0  0  0  0  0  0  0
    3.4875   -1.9042    0.0000 C   0  0  0  0  0  0  0  0  0  0  0  0
    8.4875   -3.1542    0.0000 C   0  0  0  0  0  0  0  0  0  0  0  0
    7.7667   -3.5625    0.0000 C   0  0  0  0  0  0  0  0  0  0  0  0
    8.4875   -2.3250    0.0000 C   0  0  0  0  0  0  0  0  0  0  0  0
    0.6375   -1.0792    0.0000 O   0  0  0  0  0  0  0  0  0  0  0  0
    9.2000   -3.5667    0.0000 O   0  0  0  0  0  0  0  0  0  0  0  0
   -0.0833   -0.6667    0.0000 C   0  0  0  0  0  0  0  0  0  0  0  0
    9.9167   -3.1542    0.0000 C   0  0  0  0  0  0  0  0  0  0  0  0
   -0.7958   -1.0792    0.0000 C   0  0  0  0  0  0  0  0  0  0  0  0
  2  1  1  0  0  0  0
  3  2  1  0  0  0  0
  4  1  2  0  0  0  0
  5  6  1  0  0  0  0
  6  4  1  0  0  0  0
  7  1  1  0  0  0  0
  8  3  2  0  0  0  0
  9  5  2  0  0  0  0
 10 17  1  0  0  0  0
 11  2  2  0  0  0  0
 12 10  2  0  0  0  0
 13  9  1  0  0  0  0
 14  7  1  0  0  0  0
 15  7  2  0  0  0  0
 16 13  1  0  0  0  0
 17 16  1  0  0  0  0
 18  8  1  0  0  0  0
 19 20  2  0  0  0  0
 20 15  1  0  0  0  0
 21 14  2  0  0  0  0
 22 10  1  0  0  0  0
 23 19  1  0  0  0  0
 24 22  1  0  0  0  0
 25 23  1  0  0  0  0
 26 24  1  0  0  0  0
 19 21  1  0  0  0  0
  5  3  1  0  0  0  0
 13 18  2  0  0  0  0
M  END
>  <IDNUMBER>
F3385-4229

>  <Chemical_Name>
ethyl 2-{[3-(4-methoxyphenyl)-4-oxo-4H-chromen-7-yl]oxy}acetate

>  <PriceCoeff>
1.00

>  <CAS>
6760-95-8

>  <MW>
354.35

>  <Description>
solid

>  <FSP3>
0.20

>  <clogP>
3.17

>  <TPSA>
71.06

>  <Acceptor>
6

>  <Donor>
0

>  <RotBonds>
7

>  <HAC>
26

>  <Collection>
General

>  <PPDS>
+

$$$$
F3385-4356
  Mrv2219 10102508112D          

 26 28  0  0  0  0            999 V2000
    5.6514   -7.8586    0.0000 C   0  0  0  0  0  0  0  0  0  0  0  0
    6.3761   -8.2626    0.0000 C   0  0  0  0  0  0  0  0  0  0  0  0
    7.0882   -7.8503    0.0000 C   0  0  0  0  0  0  0  0  0  0  0  0
    7.0882   -7.0215    0.0000 C   0  0  0  0  0  0  0  0  0  0  0  0
    5.6514   -7.0257    0.0000 C   0  0  0  0  0  0  0  0  0  0  0  0
    6.3594   -6.6010    0.0000 O   0  0  0  0  0  0  0  0  0  0  0  0
    3.5025   -5.8013    0.0000 C   0  0  0  0  0  0  0  0  0  0  0  0
    4.9393   -8.2751    0.0000 C   0  0  0  0  0  0  0  0  0  0  0  0
    4.2271   -7.0340    0.0000 C   0  0  0  0  0  0  0  0  0  0  0  0
    4.9393   -6.6217    0.0000 C   0  0  0  0  0  0  0  0  0  0  0  0
    3.5150   -6.6259    0.0000 O   0  0  0  0  0  0  0  0  0  0  0  0
    4.2271   -7.8628    0.0000 C   0  0  0  0  0  0  0  0  0  0  0  0
    2.7903   -5.3890    0.0000 N   0  0  0  0  0  0  0  0  0  0  0  0
    6.3844   -9.0955    0.0000 O   0  0  0  0  0  0  0  0  0  0  0  0
    4.2146   -5.3848    0.0000 O   0  0  0  0  0  0  0  0  0  0  0  0
    7.7962   -6.6092    0.0000 C   0  0  0  0  0  0  0  0  0  0  0  0
    4.9393   -9.0872    0.0000 O   0  0  0  0  0  0  0  0  0  0  0  0
    2.7861   -4.5645    0.0000 C   0  0  0  0  0  0  0  0  0  0  0  0
    2.0782   -5.8013    0.0000 C   0  0  0  0  0  0  0  0  0  0  0  0
    8.5083   -7.0215    0.0000 C   0  0  0  0  0  0  0  0  0  0  0  0
    7.7879   -5.7889    0.0000 C   0  0  0  0  0  0  0  0  0  0  0  0
    4.2271   -9.5078    0.0000 C   0  0  0  0  0  0  0  0  0  0  0  0
    3.5108   -9.0955    0.0000 C   0  0  0  0  0  0  0  0  0  0  0  0
    8.5000   -5.3724    0.0000 C   0  0  0  0  0  0  0  0  0  0  0  0
    9.2247   -6.6092    0.0000 C   0  0  0  0  0  0  0  0  0  0  0  0
    9.2247   -5.7847    0.0000 C   0  0  0  0  0  0  0  0  0  0  0  0
  2  1  1  0  0  0  0
  3  2  1  0  0  0  0
  4  6  1  0  0  0  0
  5  1  1  0  0  0  0
  6  5  1  0  0  0  0
  7 11  1  0  0  0  0
  8  1  2  0  0  0  0
  9 12  2  0  0  0  0
 10  5  2  0  0  0  0
 11  9  1  0  0  0  0
 12  8  1  0  0  0  0
 13  7  1  0  0  0  0
 14  2  2  0  0  0  0
 15  7  2  0  0  0  0
 16  4  1  0  0  0  0
 17  8  1  0  0  0  0
 18 13  1  0  0  0  0
 19 13  1  0  0  0  0
 20 16  2  0  0  0  0
 21 16  1  0  0  0  0
 22 17  1  0  0  0  0
 23 22  1  0  0  0  0
 24 21  2  0  0  0  0
 25 20  1  0  0  0  0
 26 24  1  0  0  0  0
  9 10  1  0  0  0  0
  4  3  2  0  0  0  0
 26 25  2  0  0  0  0
M  END
>  <IDNUMBER>
F3385-4356

>  <Chemical_Name>
5-ethoxy-4-oxo-2-phenyl-4H-chromen-7-yl N,N-dimethylcarbamate

>  <PriceCoeff>
1.00

>  <CAS>
919741-91-6

>  <MW>
353.37

>  <Description>
solid

>  <FSP3>
0.20

>  <clogP>
3.52

>  <TPSA>
65.07

>  <Acceptor>
5

>  <Donor>
0

>  <RotBonds>
6

>  <HAC>
26

>  <Collection>
General

$$$$
F3385-4357
  Mrv2219 10102508112D          

 31 34  0  0  0  0            999 V2000
    5.6542   -7.8625    0.0000 C   0  0  0  0  0  0  0  0  0  0  0  0
    6.3792   -8.2667    0.0000 C   0  0  0  0  0  0  0  0  0  0  0  0
    7.0917   -7.8542    0.0000 C   0  0  0  0  0  0  0  0  0  0  0  0
    7.0917   -7.0250    0.0000 C   0  0  0  0  0  0  0  0  0  0  0  0
    5.6542   -7.0292    0.0000 C   0  0  0  0  0  0  0  0  0  0  0  0
    6.3625   -6.6042    0.0000 O   0  0  0  0  0  0  0  0  0  0  0  0
    3.5042   -5.8042    0.0000 C   0  0  0  0  0  0  0  0  0  0  0  0
    4.9417   -8.2792    0.0000 C   0  0  0  0  0  0  0  0  0  0  0  0
    4.2292   -7.0375    0.0000 C   0  0  0  0  0  0  0  0  0  0  0  0
    4.9417   -6.6250    0.0000 C   0  0  0  0  0  0  0  0  0  0  0  0
    4.2292   -7.8667    0.0000 C   0  0  0  0  0  0  0  0  0  0  0  0
    3.5167   -6.6292    0.0000 O   0  0  0  0  0  0  0  0  0  0  0  0
    2.7917   -5.3917    0.0000 N   0  0  0  0  0  0  0  0  0  0  0  0
    4.9417   -9.0917    0.0000 O   0  0  0  0  0  0  0  0  0  0  0  0
    6.3875   -9.1000    0.0000 O   0  0  0  0  0  0  0  0  0  0  0  0
    4.2167   -5.3875    0.0000 O   0  0  0  0  0  0  0  0  0  0  0  0
    7.8000   -6.6125    0.0000 C   0  0  0  0  0  0  0  0  0  0  0  0
    4.2292   -9.5125    0.0000 C   0  0  0  0  0  0  0  0  0  0  0  0
    3.5125   -9.1000    0.0000 C   0  0  0  0  0  0  0  0  0  0  0  0
    2.7875   -4.5667    0.0000 C   0  0  0  0  0  0  0  0  0  0  0  0
    2.0792   -5.8042    0.0000 C   0  0  0  0  0  0  0  0  0  0  0  0
    8.5125   -7.0250    0.0000 C   0  0  0  0  0  0  0  0  0  0  0  0
    7.7917   -5.7917    0.0000 C   0  0  0  0  0  0  0  0  0  0  0  0
    3.5167   -8.2792    0.0000 C   0  0  0  0  0  0  0  0  0  0  0  0
    2.8042   -9.5167    0.0000 C   0  0  0  0  0  0  0  0  0  0  0  0
    8.5042   -5.3750    0.0000 C   0  0  0  0  0  0  0  0  0  0  0  0
    9.2292   -6.6125    0.0000 C   0  0  0  0  0  0  0  0  0  0  0  0
    2.0917   -9.1125    0.0000 C   0  0  0  0  0  0  0  0  0  0  0  0
    2.8000   -7.8667    0.0000 C   0  0  0  0  0  0  0  0  0  0  0  0
    9.2292   -5.7875    0.0000 C   0  0  0  0  0  0  0  0  0  0  0  0
    2.0875   -8.2792    0.0000 C   0  0  0  0  0  0  0  0  0  0  0  0
  2  1  1  0  0  0  0
  3  2  1  0  0  0  0
  4  6  1  0  0  0  0
  5  1  1  0  0  0  0
  6  5  1  0  0  0  0
  7 12  1  0  0  0  0
  8  1  2  0  0  0  0
  9 11  2  0  0  0  0
 10  5  2  0  0  0  0
 11  8  1  0  0  0  0
 12  9  1  0  0  0  0
 13  7  1  0  0  0  0
 14  8  1  0  0  0  0
 15  2  2  0  0  0  0
 16  7  2  0  0  0  0
 17  4  1  0  0  0  0
 18 14  1  0  0  0  0
 19 18  1  0  0  0  0
 20 13  1  0  0  0  0
 21 13  1  0  0  0  0
 22 17  2  0  0  0  0
 23 17  1  0  0  0  0
 24 19  2  0  0  0  0
 25 19  1  0  0  0  0
 26 23  2  0  0  0  0
 27 22  1  0  0  0  0
 28 25  2  0  0  0  0
 29 24  1  0  0  0  0
 30 26  1  0  0  0  0
 31 28  1  0  0  0  0
  9 10  1  0  0  0  0
  4  3  2  0  0  0  0
 31 29  2  0  0  0  0
 30 27  2  0  0  0  0
M  END
>  <IDNUMBER>
F3385-4357

>  <Chemical_Name>
5-(benzyloxy)-4-oxo-2-phenyl-4H-chromen-7-yl N,N-dimethylcarbamate

>  <PriceCoeff>
1.00

>  <CAS>
921125-24-8

>  <MW>
415.44

>  <Description>
solid

>  <FSP3>
0.12

>  <clogP>
4.76

>  <TPSA>
65.07

>  <Acceptor>
5

>  <Donor>
0

>  <RotBonds>
7

>  <HAC>
31

>  <Collection>
General

$$$$
F3385-4408
  Mrv2219 10102508112D          

 31 34  0  0  0  0            999 V2000
    7.4917   -1.2042    0.0000 C   0  0  0  0  0  0  0  0  0  0  0  0
    6.7667   -1.6167    0.0000 C   0  0  0  0  0  0  0  0  0  0  0  0
    6.0500   -1.2042    0.0000 C   0  0  0  0  0  0  0  0  0  0  0  0
    7.4917   -0.3750    0.0000 C   0  0  0  0  0  0  0  0  0  0  0  0
    6.0542   -0.3750    0.0000 C   0  0  0  0  0  0  0  0  0  0  0  0
    6.7667    0.0458    0.0000 O   0  0  0  0  0  0  0  0  0  0  0  0
    8.2000   -1.6250    0.0000 C   0  0  0  0  0  0  0  0  0  0  0  0
    5.3375   -1.6167    0.0000 C   0  0  0  0  0  0  0  0  0  0  0  0
    1.7667   -0.3792    0.0000 N   0  0  0  0  0  0  0  0  0  0  0  0
    5.3375    0.0375    0.0000 C   0  0  0  0  0  0  0  0  0  0  0  0
    0.3292   -1.1917    0.0000 N   0  0  0  0  0  0  0  0  0  0  0  0
    6.7667   -2.4417    0.0000 O   0  0  0  0  0  0  0  0  0  0  0  0
    8.9125   -1.2125    0.0000 C   0  0  0  0  0  0  0  0  0  0  0  0
    8.1917   -2.4500    0.0000 C   0  0  0  0  0  0  0  0  0  0  0  0
    4.6250   -0.3750    0.0000 C   0  0  0  0  0  0  0  0  0  0  0  0
    0.3375   -0.3667    0.0000 C   0  0  0  0  0  0  0  0  0  0  0  0
    1.0500    0.0375    0.0000 C   0  0  0  0  0  0  0  0  0  0  0  0
    1.0417   -1.6125    0.0000 C   0  0  0  0  0  0  0  0  0  0  0  0
    1.7667   -1.2000    0.0000 C   0  0  0  0  0  0  0  0  0  0  0  0
    4.6250   -1.2042    0.0000 C   0  0  0  0  0  0  0  0  0  0  0  0
    9.6250   -2.4542    0.0000 C   0  0  0  0  0  0  0  0  0  0  0  0
    8.9042   -2.8625    0.0000 C   0  0  0  0  0  0  0  0  0  0  0  0
    9.6250   -1.6250    0.0000 C   0  0  0  0  0  0  0  0  0  0  0  0
    3.9125    0.0333    0.0000 O   0  0  0  0  0  0  0  0  0  0  0  0
    2.4792    0.0333    0.0000 C   0  0  0  0  0  0  0  0  0  0  0  0
    3.1917   -0.3792    0.0000 C   0  0  0  0  0  0  0  0  0  0  0  0
   10.3292   -2.8667    0.0000 O   0  0  0  0  0  0  0  0  0  0  0  0
   -0.3833   -1.6042    0.0000 C   0  0  0  0  0  0  0  0  0  0  0  0
   -1.8083   -1.6000    0.0000 O   0  0  0  0  0  0  0  0  0  0  0  0
   -1.0958   -1.1917    0.0000 C   0  0  0  0  0  0  0  0  0  0  0  0
   11.0542   -2.4542    0.0000 C   0  0  0  0  0  0  0  0  0  0  0  0
  2  1  1  0  0  0  0
  3  2  1  0  0  0  0
  4  1  2  0  0  0  0
  5  6  1  0  0  0  0
  6  4  1  0  0  0  0
  7  1  1  0  0  0  0
  8  3  2  0  0  0  0
  9 25  1  0  0  0  0
 10  5  2  0  0  0  0
 11 18  1  0  0  0  0
 12  2  2  0  0  0  0
 13  7  1  0  0  0  0
 14  7  2  0  0  0  0
 15 10  1  0  0  0  0
 16 17  1  0  0  0  0
 17  9  1  0  0  0  0
 18 19  1  0  0  0  0
 19  9  1  0  0  0  0
 20  8  1  0  0  0  0
 21 22  2  0  0  0  0
 22 14  1  0  0  0  0
 23 13  2  0  0  0  0
 24 15  1  0  0  0  0
 25 26  1  0  0  0  0
 26 24  1  0  0  0  0
 27 21  1  0  0  0  0
 28 11  1  0  0  0  0
 29 30  1  0  0  0  0
 30 28  1  0  0  0  0
 31 27  1  0  0  0  0
 23 21  1  0  0  0  0
  3  5  1  0  0  0  0
 20 15  2  0  0  0  0
 11 16  1  0  0  0  0
M  END
>  <IDNUMBER>
F3385-4408

>  <Chemical_Name>
7-{2-[4-(2-hydroxyethyl)piperazin-1-yl]ethoxy}-3-(4-methoxyphenyl)-4H-chromen-4-one

>  <PriceCoeff>
1.00

>  <CAS>
921086-01-3

>  <MW>
424.49

>  <Description>
solid

>  <FSP3>
0.38

>  <clogP>
1.68

>  <TPSA>
71.47

>  <Acceptor>
7

>  <Donor>
3

>  <RotBonds>
8

>  <HAC>
31

>  <Collection>
General

>  <PPDS>
+

$$$$
F3385-4418
  Mrv2219 10102508112D          

 24 26  0  0  0  0            999 V2000
    2.8042   -0.0625    0.0000 C   0  0  0  0  0  0  0  0  0  0  0  0
    1.3750   -0.0625    0.0000 C   0  0  0  0  0  0  0  0  0  0  0  0
    2.0875    0.3500    0.0000 C   0  0  0  0  0  0  0  0  0  0  0  0
    3.5167    0.3583    0.0000 C   0  0  0  0  0  0  0  0  0  0  0  0
    2.8000   -0.8917    0.0000 C   0  0  0  0  0  0  0  0  0  0  0  0
    4.2417   -0.0625    0.0000 C   0  0  0  0  0  0  0  0  0  0  0  0
    4.2417   -0.8917    0.0000 C   0  0  0  0  0  0  0  0  0  0  0  0
    3.5167   -1.3042    0.0000 O   0  0  0  0  0  0  0  0  0  0  0  0
    1.3750   -0.8917    0.0000 C   0  0  0  0  0  0  0  0  0  0  0  0
    2.0875   -1.3042    0.0000 C   0  0  0  0  0  0  0  0  0  0  0  0
    0.6625    0.3458    0.0000 C   0  0  0  0  0  0  0  0  0  0  0  0
    3.5167    1.1833    0.0000 O   0  0  0  0  0  0  0  0  0  0  0  0
    4.9500   -1.3125    0.0000 C   0  0  0  0  0  0  0  0  0  0  0  0
    2.0792    1.1750    0.0000 O   0  0  0  0  0  0  0  0  0  0  0  0
   -0.0583   -0.0667    0.0000 N   0  0  0  0  0  0  0  0  0  0  0  0
    0.6625   -1.3000    0.0000 O   0  0  0  0  0  0  0  0  0  0  0  0
    5.6625   -0.9000    0.0000 C   0  0  0  0  0  0  0  0  0  0  0  0
    4.9417   -2.1375    0.0000 C   0  0  0  0  0  0  0  0  0  0  0  0
   -0.7708    0.3458    0.0000 C   0  0  0  0  0  0  0  0  0  0  0  0
   -0.0583   -0.8917    0.0000 C   0  0  0  0  0  0  0  0  0  0  0  0
    0.6625   -2.1250    0.0000 C   0  0  0  0  0  0  0  0  0  0  0  0
    6.3750   -1.3125    0.0000 C   0  0  0  0  0  0  0  0  0  0  0  0
    5.6542   -2.5500    0.0000 C   0  0  0  0  0  0  0  0  0  0  0  0
    6.3750   -2.1417    0.0000 C   0  0  0  0  0  0  0  0  0  0  0  0
  2  3  1  0  0  0  0
  3  1  2  0  0  0  0
  4  1  1  0  0  0  0
  5  1  1  0  0  0  0
  6  4  1  0  0  0  0
  7  8  1  0  0  0  0
  8  5  1  0  0  0  0
  9 10  1  0  0  0  0
 10  5  2  0  0  0  0
 11  2  1  0  0  0  0
 12  4  2  0  0  0  0
 13  7  1  0  0  0  0
 14  3  1  0  0  0  0
 15 11  1  0  0  0  0
 16  9  1  0  0  0  0
 17 13  1  0  0  0  0
 18 13  2  0  0  0  0
 19 15  1  0  0  0  0
 20 15  1  0  0  0  0
 21 16  1  0  0  0  0
 22 17  2  0  0  0  0
 23 18  1  0  0  0  0
 24 23  2  0  0  0  0
  9  2  2  0  0  0  0
  6  7  2  0  0  0  0
 24 22  1  0  0  0  0
M  END
>  <IDNUMBER>
F3385-4418

>  <Chemical_Name>
6-[(dimethylamino)methyl]-5-hydroxy-7-methoxy-2-phenyl-4H-chromen-4-one

>  <PriceCoeff>
1.00

>  <CAS>
924807-49-8

>  <MW>
325.36

>  <Description>
solid

>  <FSP3>
0.21

>  <clogP>
3.93

>  <TPSA>
59.00

>  <Acceptor>
4

>  <Donor>
2

>  <RotBonds>
4

>  <HAC>
24

>  <Collection>
General

$$$$
F3385-4420
  Mrv2219 10102508112D          

 24 26  0  0  0  0            999 V2000
    2.8000   -0.8917    0.0000 C   0  0  0  0  0  0  0  0  0  0  0  0
    2.8042   -0.0625    0.0000 C   0  0  0  0  0  0  0  0  0  0  0  0
    2.0875   -1.3042    0.0000 C   0  0  0  0  0  0  0  0  0  0  0  0
    3.5167   -1.3042    0.0000 O   0  0  0  0  0  0  0  0  0  0  0  0
    3.5167    0.3583    0.0000 C   0  0  0  0  0  0  0  0  0  0  0  0
    4.2417   -0.8917    0.0000 C   0  0  0  0  0  0  0  0  0  0  0  0
    4.2417   -0.0625    0.0000 C   0  0  0  0  0  0  0  0  0  0  0  0
    2.0875    0.3500    0.0000 C   0  0  0  0  0  0  0  0  0  0  0  0
    1.3750   -0.8917    0.0000 C   0  0  0  0  0  0  0  0  0  0  0  0
    1.3750   -0.0625    0.0000 C   0  0  0  0  0  0  0  0  0  0  0  0
    2.0875   -2.1292    0.0000 C   0  0  0  0  0  0  0  0  0  0  0  0
    3.5167    1.1833    0.0000 O   0  0  0  0  0  0  0  0  0  0  0  0
    4.9500   -1.3125    0.0000 C   0  0  0  0  0  0  0  0  0  0  0  0
    1.3750   -2.5417    0.0000 N   0  0  0  0  0  0  0  0  0  0  0  0
    2.0792    1.1750    0.0000 O   0  0  0  0  0  0  0  0  0  0  0  0
    0.6625   -1.3000    0.0000 O   0  0  0  0  0  0  0  0  0  0  0  0
    5.6625   -0.9000    0.0000 C   0  0  0  0  0  0  0  0  0  0  0  0
    4.9417   -2.1375    0.0000 C   0  0  0  0  0  0  0  0  0  0  0  0
    0.6625   -2.1250    0.0000 C   0  0  0  0  0  0  0  0  0  0  0  0
    1.3792   -3.3667    0.0000 C   0  0  0  0  0  0  0  0  0  0  0  0
    1.3667    1.5833    0.0000 C   0  0  0  0  0  0  0  0  0  0  0  0
    6.3750   -1.3125    0.0000 C   0  0  0  0  0  0  0  0  0  0  0  0
    5.6542   -2.5500    0.0000 C   0  0  0  0  0  0  0  0  0  0  0  0
    6.3750   -2.1417    0.0000 C   0  0  0  0  0  0  0  0  0  0  0  0
  2  1  1  0  0  0  0
  3  1  2  0  0  0  0
  4  1  1  0  0  0  0
  5  2  1  0  0  0  0
  6  4  1  0  0  0  0
  7  6  2  0  0  0  0
  8  2  2  0  0  0  0
  9  3  1  0  0  0  0
 10  9  2  0  0  0  0
 11  3  1  0  0  0  0
 12  5  2  0  0  0  0
 13  6  1  0  0  0  0
 14 11  1  0  0  0  0
 15  8  1  0  0  0  0
 16  9  1  0  0  0  0
 17 13  1  0  0  0  0
 18 13  2  0  0  0  0
 19 14  1  0  0  0  0
 20 14  1  0  0  0  0
 21 15  1  0  0  0  0
 22 17  2  0  0  0  0
 23 18  1  0  0  0  0
 24 23  2  0  0  0  0
  7  5  1  0  0  0  0
 10  8  1  0  0  0  0
 24 22  1  0  0  0  0
M  END
>  <IDNUMBER>
F3385-4420

>  <Chemical_Name>
8-[(dimethylamino)methyl]-7-hydroxy-5-methoxy-2-phenyl-4H-chromen-4-one

>  <PriceCoeff>
1.00

>  <CAS>
924807-53-4

>  <MW>
325.36

>  <Description>
solid

>  <FSP3>
0.21

>  <clogP>
3.03

>  <TPSA>
59.00

>  <Acceptor>
4

>  <Donor>
2

>  <RotBonds>
4

>  <HAC>
24

>  <Collection>
General

$$$$
F3385-4424
  Mrv2219 10102508112D          

 22 24  0  0  0  0            999 V2000
    5.5417   -1.1042    0.0000 C   0  0  0  0  0  0  0  0  0  0  0  0
    4.8292   -1.5292    0.0000 C   0  0  0  0  0  0  0  0  0  0  0  0
    6.2667   -1.5292    0.0000 C   0  0  0  0  0  0  0  0  0  0  0  0
    4.8250   -2.3625    0.0000 C   0  0  0  0  0  0  0  0  0  0  0  0
    6.2667   -2.3625    0.0000 C   0  0  0  0  0  0  0  0  0  0  0  0
    4.1125   -1.1167    0.0000 C   0  0  0  0  0  0  0  0  0  0  0  0
    5.5417   -2.7750    0.0000 O   0  0  0  0  0  0  0  0  0  0  0  0
    4.1125   -2.7667    0.0000 C   0  0  0  0  0  0  0  0  0  0  0  0
    3.4000   -1.5292    0.0000 C   0  0  0  0  0  0  0  0  0  0  0  0
    6.9792   -1.1167    0.0000 C   0  0  0  0  0  0  0  0  0  0  0  0
    5.5417   -0.2792    0.0000 O   0  0  0  0  0  0  0  0  0  0  0  0
    3.4000   -2.3542    0.0000 C   0  0  0  0  0  0  0  0  0  0  0  0
    7.6917   -1.5375    0.0000 C   0  0  0  0  0  0  0  0  0  0  0  0
    6.9792   -0.3000    0.0000 C   0  0  0  0  0  0  0  0  0  0  0  0
    4.1042   -0.2917    0.0000 O   0  0  0  0  0  0  0  0  0  0  0  0
    8.4125   -0.3000    0.0000 C   0  0  0  0  0  0  0  0  0  0  0  0
    7.6917    0.1125    0.0000 C   0  0  0  0  0  0  0  0  0  0  0  0
    8.4042   -1.1292    0.0000 C   0  0  0  0  0  0  0  0  0  0  0  0
    2.6875   -2.7667    0.0000 O   0  0  0  0  0  0  0  0  0  0  0  0
    9.1292    0.1083    0.0000 O   0  0  0  0  0  0  0  0  0  0  0  0
    3.3917    0.1208    0.0000 C   0  0  0  0  0  0  0  0  0  0  0  0
    1.9750   -2.3500    0.0000 C   0  0  0  0  0  0  0  0  0  0  0  0
  2  1  1  0  0  0  0
  3  1  1  0  0  0  0
  4  2  1  0  0  0  0
  5  3  2  0  0  0  0
  6  2  2  0  0  0  0
  7  5  1  0  0  0  0
  8  4  2  0  0  0  0
  9  6  1  0  0  0  0
 10  3  1  0  0  0  0
 11  1  2  0  0  0  0
 12  9  2  0  0  0  0
 13 10  2  0  0  0  0
 14 10  1  0  0  0  0
 15  6  1  0  0  0  0
 16 17  1  0  0  0  0
 17 14  2  0  0  0  0
 18 13  1  0  0  0  0
 19 12  1  0  0  0  0
 20 16  1  0  0  0  0
 21 15  1  0  0  0  0
 22 19  1  0  0  0  0
  7  4  1  0  0  0  0
 16 18  2  0  0  0  0
  8 12  1  0  0  0  0
M  END
>  <IDNUMBER>
F3385-4424

>  <Chemical_Name>
3-(4-hydroxyphenyl)-5,7-dimethoxy-4H-chromen-4-one

>  <PriceCoeff>
1.00

>  <CAS>
69127-80-6

>  <MW>
298.29

>  <Description>
solid

>  <FSP3>
0.12

>  <clogP>
2.46

>  <TPSA>
64.99

>  <Acceptor>
5

>  <Donor>
1

>  <RotBonds>
3

>  <HAC>
22

>  <Collection>
General

>  <PPDS>
+

$$$$
F3385-4474
  Mrv2219 10102508112D          

 25 27  0  0  0  0            999 V2000
    4.6513   -3.1983    0.0000 C   0  0  0  0  0  0  0  0  0  0  0  0
    3.9331   -3.6117    0.0000 C   0  0  0  0  0  0  0  0  0  0  0  0
    3.2192   -3.1983    0.0000 C   0  0  0  0  0  0  0  0  0  0  0  0
    4.6471   -2.3716    0.0000 C   0  0  0  0  0  0  0  0  0  0  0  0
    3.2108   -2.3716    0.0000 C   0  0  0  0  0  0  0  0  0  0  0  0
    5.3653   -3.6075    0.0000 C   0  0  0  0  0  0  0  0  0  0  0  0
    3.9248   -1.9540    0.0000 O   0  0  0  0  0  0  0  0  0  0  0  0
    6.0793   -3.1983    0.0000 C   0  0  0  0  0  0  0  0  0  0  0  0
    2.4969   -3.6200    0.0000 C   0  0  0  0  0  0  0  0  0  0  0  0
    2.4969   -1.9583    0.0000 C   0  0  0  0  0  0  0  0  0  0  0  0
    6.7933   -3.6075    0.0000 C   0  0  0  0  0  0  0  0  0  0  0  0
    3.9331   -4.4384    0.0000 O   0  0  0  0  0  0  0  0  0  0  0  0
    6.7933   -4.4384    0.0000 C   0  0  0  0  0  0  0  0  0  0  0  0
    5.3653   -4.4384    0.0000 C   0  0  0  0  0  0  0  0  0  0  0  0
    6.0793   -4.8517    0.0000 C   0  0  0  0  0  0  0  0  0  0  0  0
    1.7912   -2.3716    0.0000 C   0  0  0  0  0  0  0  0  0  0  0  0
    1.7829   -3.2066    0.0000 C   0  0  0  0  0  0  0  0  0  0  0  0
    7.5072   -3.1941    0.0000 O   0  0  0  0  0  0  0  0  0  0  0  0
    7.5072   -4.8475    0.0000 O   0  0  0  0  0  0  0  0  0  0  0  0
   -1.0730   -2.3549    0.0000 Br  0  0  0  0  0  0  0  0  0  0  0  0
    1.0814   -1.9583    0.0000 O   0  0  0  0  0  0  0  0  0  0  0  0
   -0.3507   -1.9457    0.0000 C   0  0  0  0  0  0  0  0  0  0  0  0
    0.3633   -2.3716    0.0000 C   0  0  0  0  0  0  0  0  0  0  0  0
    7.5030   -2.3674    0.0000 C   0  0  0  0  0  0  0  0  0  0  0  0
    8.2212   -4.4342    0.0000 C   0  0  0  0  0  0  0  0  0  0  0  0
  2  1  1  0  0  0  0
  3  2  1  0  0  0  0
  4  1  2  0  0  0  0
  5  7  1  0  0  0  0
  6  1  1  0  0  0  0
  7  4  1  0  0  0  0
  8  6  1  0  0  0  0
  9  3  2  0  0  0  0
 10  5  2  0  0  0  0
 11  8  2  0  0  0  0
 12  2  2  0  0  0  0
 13 15  2  0  0  0  0
 14  6  2  0  0  0  0
 15 14  1  0  0  0  0
 16 10  1  0  0  0  0
 17  9  1  0  0  0  0
 18 11  1  0  0  0  0
 19 13  1  0  0  0  0
 20 22  1  0  0  0  0
 21 16  1  0  0  0  0
 22 23  1  0  0  0  0
 23 21  1  0  0  0  0
 24 18  1  0  0  0  0
 25 19  1  0  0  0  0
  3  5  1  0  0  0  0
 13 11  1  0  0  0  0
 16 17  2  0  0  0  0
M  END
>  <IDNUMBER>
F3385-4474

>  <Chemical_Name>
7-(2-bromoethoxy)-3-(3,4-dimethoxyphenyl)-4H-chromen-4-one

>  <PriceCoeff>
1.00

>  <CAS>
921155-50-2

>  <MW>
405.24

>  <Description>
solid

>  <FSP3>
0.21

>  <clogP>
3.48

>  <TPSA>
53.99

>  <Acceptor>
5

>  <Donor>
0

>  <RotBonds>
6

>  <HAC>
25

>  <Collection>
General

>  <PPDS>
+

$$$$
F3385-4481
  Mrv2219 10102508112D          

 25 27  0  0  0  0            999 V2000
    2.6417   -3.1375    0.0000 C   0  0  0  0  0  0  0  0  0  0  0  0
    3.3542   -3.5542    0.0000 C   0  0  0  0  0  0  0  0  0  0  0  0
    4.0750   -3.1417    0.0000 C   0  0  0  0  0  0  0  0  0  0  0  0
    4.0750   -2.3125    0.0000 C   0  0  0  0  0  0  0  0  0  0  0  0
    2.6417   -2.3125    0.0000 C   0  0  0  0  0  0  0  0  0  0  0  0
    3.3542   -1.8917    0.0000 O   0  0  0  0  0  0  0  0  0  0  0  0
    1.9292   -3.5542    0.0000 C   0  0  0  0  0  0  0  0  0  0  0  0
    1.9292   -1.9000    0.0000 C   0  0  0  0  0  0  0  0  0  0  0  0
    1.2167   -3.1417    0.0000 C   0  0  0  0  0  0  0  0  0  0  0  0
    1.9292   -4.3792    0.0000 O   0  0  0  0  0  0  0  0  0  0  0  0
    1.2167   -2.3125    0.0000 C   0  0  0  0  0  0  0  0  0  0  0  0
    0.5042   -4.3792    0.0000 C   0  0  0  0  0  0  0  0  0  0  0  0
    3.3542   -4.3792    0.0000 O   0  0  0  0  0  0  0  0  0  0  0  0
    4.7917   -1.9042    0.0000 C   0  0  0  0  0  0  0  0  0  0  0  0
    0.5000   -3.5542    0.0000 O   0  0  0  0  0  0  0  0  0  0  0  0
    1.2167   -4.7917    0.0000 C   0  0  0  0  0  0  0  0  0  0  0  0
   -0.2083   -4.7917    0.0000 O   0  0  0  0  0  0  0  0  0  0  0  0
    0.5042   -1.9042    0.0000 O   0  0  0  0  0  0  0  0  0  0  0  0
    4.7917   -1.0792    0.0000 C   0  0  0  0  0  0  0  0  0  0  0  0
    5.5042   -2.3167    0.0000 C   0  0  0  0  0  0  0  0  0  0  0  0
   -0.9250   -4.3792    0.0000 C   0  0  0  0  0  0  0  0  0  0  0  0
   -1.6375   -4.8000    0.0000 C   0  0  0  0  0  0  0  0  0  0  0  0
    6.2167   -1.9125    0.0000 C   0  0  0  0  0  0  0  0  0  0  0  0
    5.5042   -0.6667    0.0000 C   0  0  0  0  0  0  0  0  0  0  0  0
    6.2167   -1.0792    0.0000 C   0  0  0  0  0  0  0  0  0  0  0  0
  2  1  1  0  0  0  0
  3  2  1  0  0  0  0
  4  6  1  0  0  0  0
  5  1  1  0  0  0  0
  6  5  1  0  0  0  0
  7  1  2  0  0  0  0
  8  5  2  0  0  0  0
  9  7  1  0  0  0  0
 10  7  1  0  0  0  0
 11  9  2  0  0  0  0
 12 16  1  0  0  0  0
 13  2  2  0  0  0  0
 14  4  1  0  0  0  0
 15 12  2  0  0  0  0
 16 10  1  0  0  0  0
 17 12  1  0  0  0  0
 18 11  1  0  0  0  0
 19 14  1  0  0  0  0
 20 14  2  0  0  0  0
 21 17  1  0  0  0  0
 22 21  1  0  0  0  0
 23 20  1  0  0  0  0
 24 19  2  0  0  0  0
 25 23  2  0  0  0  0
 11  8  1  0  0  0  0
  4  3  2  0  0  0  0
 24 25  1  0  0  0  0
M  END
>  <IDNUMBER>
F3385-4481

>  <Chemical_Name>
ethyl 2-[(7-hydroxy-4-oxo-2-phenyl-4H-chromen-5-yl)oxy]acetate

>  <PriceCoeff>
1.00

>  <CAS>
929452-19-7

>  <MW>
340.33

>  <Description>
solid

>  <FSP3>
0.16

>  <clogP>
3.40

>  <TPSA>
82.06

>  <Acceptor>
6

>  <Donor>
1

>  <RotBonds>
6

>  <HAC>
25

>  <Collection>
General

>  <PPDS>
+

$$$$
F3385-4482
  Mrv2219 10102508112D          

 21 23  0  0  0  0            999 V2000
    2.6424   -3.1384    0.0000 C   0  0  0  0  0  0  0  0  0  0  0  0
    3.3551   -3.5552    0.0000 C   0  0  0  0  0  0  0  0  0  0  0  0
    4.0761   -3.1426    0.0000 C   0  0  0  0  0  0  0  0  0  0  0  0
    4.0761   -2.3131    0.0000 C   0  0  0  0  0  0  0  0  0  0  0  0
    2.6424   -2.3131    0.0000 C   0  0  0  0  0  0  0  0  0  0  0  0
    3.3551   -1.8923    0.0000 O   0  0  0  0  0  0  0  0  0  0  0  0
    1.9298   -3.5552    0.0000 C   0  0  0  0  0  0  0  0  0  0  0  0
    1.9298   -1.9006    0.0000 C   0  0  0  0  0  0  0  0  0  0  0  0
    1.2170   -3.1426    0.0000 C   0  0  0  0  0  0  0  0  0  0  0  0
    1.2170   -2.3131    0.0000 C   0  0  0  0  0  0  0  0  0  0  0  0
    3.3551   -4.3804    0.0000 O   0  0  0  0  0  0  0  0  0  0  0  0
    4.7930   -1.9048    0.0000 C   0  0  0  0  0  0  0  0  0  0  0  0
    1.9298   -4.3804    0.0000 O   0  0  0  0  0  0  0  0  0  0  0  0
    0.5043   -1.9048    0.0000 O   0  0  0  0  0  0  0  0  0  0  0  0
    4.7930   -1.0795    0.0000 C   0  0  0  0  0  0  0  0  0  0  0  0
    5.5057   -2.3173    0.0000 C   0  0  0  0  0  0  0  0  0  0  0  0
    1.2170   -4.7930    0.0000 C   0  0  0  0  0  0  0  0  0  0  0  0
    0.5043   -4.3804    0.0000 C   0  0  0  0  0  0  0  0  0  0  0  0
    6.2184   -1.9131    0.0000 C   0  0  0  0  0  0  0  0  0  0  0  0
    5.5057   -0.6669    0.0000 C   0  0  0  0  0  0  0  0  0  0  0  0
    6.2184   -1.0795    0.0000 C   0  0  0  0  0  0  0  0  0  0  0  0
  2  1  1  0  0  0  0
  3  2  1  0  0  0  0
  4  6  1  0  0  0  0
  5  1  1  0  0  0  0
  6  5  1  0  0  0  0
  7  1  2  0  0  0  0
  8  5  2  0  0  0  0
  9  7  1  0  0  0  0
 10  9  2  0  0  0  0
 11  2  2  0  0  0  0
 12  4  1  0  0  0  0
 13  7  1  0  0  0  0
 14 10  1  0  0  0  0
 15 12  1  0  0  0  0
 16 12  2  0  0  0  0
 17 13  1  0  0  0  0
 18 17  1  0  0  0  0
 19 16  1  0  0  0  0
 20 15  2  0  0  0  0
 21 19  2  0  0  0  0
 10  8  1  0  0  0  0
  4  3  2  0  0  0  0
 21 20  1  0  0  0  0
M  END
>  <IDNUMBER>
F3385-4482

>  <Chemical_Name>
5-ethoxy-7-hydroxy-2-phenyl-4H-chromen-4-one

>  <PriceCoeff>
1.00

>  <CAS>
929513-93-9

>  <MW>
282.29

>  <Description>
solid

>  <FSP3>
0.12

>  <clogP>
3.78

>  <TPSA>
55.76

>  <Acceptor>
4

>  <Donor>
1

>  <RotBonds>
3

>  <HAC>
21

>  <Collection>
General

$$$$
F3385-4492
  Mrv2219 10102508112D          

 20 22  0  0  0  0            999 V2000
    4.6792   -1.7375    0.0000 C   0  0  0  0  0  0  0  0  0  0  0  0
    3.9542   -2.1500    0.0000 C   0  0  0  0  0  0  0  0  0  0  0  0
    4.6792   -0.9042    0.0000 C   0  0  0  0  0  0  0  0  0  0  0  0
    3.2375   -1.7375    0.0000 C   0  0  0  0  0  0  0  0  0  0  0  0
    3.9542   -0.4792    0.0000 O   0  0  0  0  0  0  0  0  0  0  0  0
    3.2417   -0.9042    0.0000 C   0  0  0  0  0  0  0  0  0  0  0  0
    5.3875   -2.1500    0.0000 C   0  0  0  0  0  0  0  0  0  0  0  0
    2.5250   -0.4917    0.0000 C   0  0  0  0  0  0  0  0  0  0  0  0
    2.5250   -2.1417    0.0000 C   0  0  0  0  0  0  0  0  0  0  0  0
    5.3917   -0.4917    0.0000 O   0  0  0  0  0  0  0  0  0  0  0  0
    3.9542   -2.9750    0.0000 O   0  0  0  0  0  0  0  0  0  0  0  0
    5.3792   -2.9792    0.0000 C   0  0  0  0  0  0  0  0  0  0  0  0
    6.1000   -1.7417    0.0000 C   0  0  0  0  0  0  0  0  0  0  0  0
    1.8125   -0.9042    0.0000 C   0  0  0  0  0  0  0  0  0  0  0  0
    1.8125   -1.7292    0.0000 C   0  0  0  0  0  0  0  0  0  0  0  0
    6.8125   -2.9792    0.0000 C   0  0  0  0  0  0  0  0  0  0  0  0
    6.8125   -2.1542    0.0000 C   0  0  0  0  0  0  0  0  0  0  0  0
    6.0917   -3.3917    0.0000 C   0  0  0  0  0  0  0  0  0  0  0  0
    7.5250   -3.3917    0.0000 Br  0  0  0  0  0  0  0  0  0  0  0  0
    1.1000   -0.4917    0.0000 O   0  0  0  0  0  0  0  0  0  0  0  0
  2  1  2  0  0  0  0
  3  1  1  0  0  0  0
  4  2  1  0  0  0  0
  5  3  1  0  0  0  0
  6  5  1  0  0  0  0
  7  1  1  0  0  0  0
  8  6  2  0  0  0  0
  9  4  2  0  0  0  0
 10  3  2  0  0  0  0
 11  2  1  0  0  0  0
 12  7  2  0  0  0  0
 13  7  1  0  0  0  0
 14  8  1  0  0  0  0
 15  9  1  0  0  0  0
 16 17  1  0  0  0  0
 17 13  2  0  0  0  0
 18 12  1  0  0  0  0
 19 16  1  0  0  0  0
 20 14  1  0  0  0  0
 16 18  2  0  0  0  0
  6  4  1  0  0  0  0
 14 15  2  0  0  0  0
M  END
>  <IDNUMBER>
F3385-4492

>  <Chemical_Name>
3-(4-bromophenyl)-4,7-dihydroxy-2H-chromen-2-one

>  <PriceCoeff>
1.00

>  <CAS>
929513-97-3

>  <MW>
333.13

>  <Description>
solid

>  <FSP3>
0.00

>  <clogP>
4.00

>  <TPSA>
66.76

>  <Acceptor>
4

>  <Donor>
2

>  <RotBonds>
1

>  <HAC>
20

>  <Collection>
General

>  <PPDS>
+

$$$$
F3385-4499
  Mrv2219 10102508112D          

 34 35  0  0  0  0            999 V2000
    7.5667   -2.2667    0.0000 C   0  0  0  0  0  0  0  0  0  0  0  0
    6.8500   -2.6875    0.0000 C   0  0  0  0  0  0  0  0  0  0  0  0
    6.1375   -2.2667    0.0000 C   0  0  0  0  0  0  0  0  0  0  0  0
    7.5667   -1.4417    0.0000 C   0  0  0  0  0  0  0  0  0  0  0  0
    6.1375   -1.4417    0.0000 C   0  0  0  0  0  0  0  0  0  0  0  0
    8.2792   -2.6875    0.0000 C   0  0  0  0  0  0  0  0  0  0  0  0
    6.8500   -1.0292    0.0000 O   0  0  0  0  0  0  0  0  0  0  0  0
    8.9917   -2.2667    0.0000 C   0  0  0  0  0  0  0  0  0  0  0  0
    5.4250   -2.6875    0.0000 C   0  0  0  0  0  0  0  0  0  0  0  0
    1.8500   -1.4500    0.0000 N   0  0  0  0  0  0  0  0  0  0  0  0
    5.4250   -1.0292    0.0000 C   0  0  0  0  0  0  0  0  0  0  0  0
    0.4250   -2.2667    0.0000 N   0  0  0  0  0  0  0  0  0  0  0  0
    9.7042   -2.6875    0.0000 C   0  0  0  0  0  0  0  0  0  0  0  0
    6.8500   -3.5125    0.0000 O   0  0  0  0  0  0  0  0  0  0  0  0
    9.7042   -3.5167    0.0000 C   0  0  0  0  0  0  0  0  0  0  0  0
    8.2750   -3.5125    0.0000 C   0  0  0  0  0  0  0  0  0  0  0  0
    8.9875   -3.9250    0.0000 C   0  0  0  0  0  0  0  0  0  0  0  0
    4.7125   -1.4500    0.0000 C   0  0  0  0  0  0  0  0  0  0  0  0
    0.4250   -1.4417    0.0000 C   0  0  0  0  0  0  0  0  0  0  0  0
    1.1375   -1.0292    0.0000 C   0  0  0  0  0  0  0  0  0  0  0  0
    1.1375   -2.6792    0.0000 C   0  0  0  0  0  0  0  0  0  0  0  0
    1.8542   -2.2667    0.0000 C   0  0  0  0  0  0  0  0  0  0  0  0
    4.7125   -2.2667    0.0000 C   0  0  0  0  0  0  0  0  0  0  0  0
   10.4250   -2.2667    0.0000 O   0  0  0  0  0  0  0  0  0  0  0  0
   10.4167   -3.9292    0.0000 O   0  0  0  0  0  0  0  0  0  0  0  0
    4.0000   -1.0375    0.0000 O   0  0  0  0  0  0  0  0  0  0  0  0
    2.5667   -1.0375    0.0000 C   0  0  0  0  0  0  0  0  0  0  0  0
    3.2792   -1.4500    0.0000 C   0  0  0  0  0  0  0  0  0  0  0  0
   -0.2958   -2.6792    0.0000 C   0  0  0  0  0  0  0  0  0  0  0  0
   10.4167   -1.4500    0.0000 C   0  0  0  0  0  0  0  0  0  0  0  0
   11.1375   -3.5167    0.0000 C   0  0  0  0  0  0  0  0  0  0  0  0
   -1.0083   -2.2667    0.0000 C   0  0  0  0  0  0  0  0  0  0  0  0
   12.5250   -1.9375    0.0000 Cl  0  0  0  0  0  0  0  0  0  0  0  0
   12.6500   -3.0208    0.0000 Cl  0  0  0  0  0  0  0  0  0  0  0  0
  4  1  2  0  0  0  0
  5  7  1  0  0  0  0
  6  1  1  0  0  0  0
  7  4  1  0  0  0  0
  8  6  1  0  0  0  0
  9  3  2  0  0  0  0
 10 27  1  0  0  0  0
 11  5  2  0  0  0  0
 12 21  1  0  0  0  0
 13  8  2  0  0  0  0
 14  2  2  0  0  0  0
 15 17  2  0  0  0  0
 16  6  2  0  0  0  0
 17 16  1  0  0  0  0
 18 11  1  0  0  0  0
 19 20  1  0  0  0  0
 20 10  1  0  0  0  0
 21 22  1  0  0  0  0
 22 10  1  0  0  0  0
 23  9  1  0  0  0  0
 24 13  1  0  0  0  0
 25 15  1  0  0  0  0
 26 18  1  0  0  0  0
 27 28  1  0  0  0  0
 28 26  1  0  0  0  0
 29 12  1  0  0  0  0
 30 24  1  0  0  0  0
 31 25  1  0  0  0  0
 32 29  1  0  0  0  0
  3  5  1  0  0  0  0
 13 15  1  0  0  0  0
 23 18  2  0  0  0  0
 12 19  1  0  0  0  0
  2  1  1  0  0  0  0
  3  2  1  0  0  0  0
M  END
>  <IDNUMBER>
F3385-4499

>  <Chemical_Name>
3-(3,4-dimethoxyphenyl)-7-[2-(4-ethylpiperazin-1-yl)ethoxy]-4H-chromen-4-one dihydrochloride

>  <PriceCoeff>
1.00

>  <CAS>
1216471-64-5

>  <MW>
438.52

>  <Description>
solid

>  <FSP3>
0.40

>  <clogP>
2.51

>  <TPSA>
60.47

>  <Acceptor>
7

>  <Donor>
2

>  <RotBonds>
8

>  <HAC>
32

>  <Collection>
General

>  <PPDS>
+

$$$$
F3385-4501
  Mrv2219 10102508112D          

 33 34  0  0  0  0            999 V2000
    7.1915   -2.2601    0.0000 C   0  0  0  0  0  0  0  0  0  0  0  0
    6.4728   -2.6796    0.0000 C   0  0  0  0  0  0  0  0  0  0  0  0
    5.7624   -2.2601    0.0000 C   0  0  0  0  0  0  0  0  0  0  0  0
    7.1915   -1.4375    0.0000 C   0  0  0  0  0  0  0  0  0  0  0  0
    5.7624   -1.4375    0.0000 C   0  0  0  0  0  0  0  0  0  0  0  0
    7.9019   -2.6796    0.0000 C   0  0  0  0  0  0  0  0  0  0  0  0
    6.4728   -1.0262    0.0000 O   0  0  0  0  0  0  0  0  0  0  0  0
    8.6124   -2.2601    0.0000 C   0  0  0  0  0  0  0  0  0  0  0  0
    5.0519   -2.6796    0.0000 C   0  0  0  0  0  0  0  0  0  0  0  0
    1.4873   -1.4457    0.0000 N   0  0  0  0  0  0  0  0  0  0  0  0
    0.0665   -2.2601    0.0000 N   0  0  0  0  0  0  0  0  0  0  0  0
    5.0519   -1.0262    0.0000 C   0  0  0  0  0  0  0  0  0  0  0  0
    9.3227   -2.6796    0.0000 C   0  0  0  0  0  0  0  0  0  0  0  0
    6.4728   -3.5023    0.0000 O   0  0  0  0  0  0  0  0  0  0  0  0
    9.3227   -3.5064    0.0000 C   0  0  0  0  0  0  0  0  0  0  0  0
    7.8936   -3.5023    0.0000 C   0  0  0  0  0  0  0  0  0  0  0  0
    8.6041   -3.9135    0.0000 C   0  0  0  0  0  0  0  0  0  0  0  0
    4.3415   -1.4457    0.0000 C   0  0  0  0  0  0  0  0  0  0  0  0
    0.0665   -1.4375    0.0000 C   0  0  0  0  0  0  0  0  0  0  0  0
    0.7770   -2.6714    0.0000 C   0  0  0  0  0  0  0  0  0  0  0  0
    0.7770   -1.0262    0.0000 C   0  0  0  0  0  0  0  0  0  0  0  0
    1.4956   -2.2601    0.0000 C   0  0  0  0  0  0  0  0  0  0  0  0
    4.3415   -2.2601    0.0000 C   0  0  0  0  0  0  0  0  0  0  0  0
   10.0374   -2.2601    0.0000 O   0  0  0  0  0  0  0  0  0  0  0  0
   10.0332   -3.9177    0.0000 O   0  0  0  0  0  0  0  0  0  0  0  0
    3.6311   -1.0345    0.0000 O   0  0  0  0  0  0  0  0  0  0  0  0
    2.2061   -1.0345    0.0000 C   0  0  0  0  0  0  0  0  0  0  0  0
    2.9165   -1.4457    0.0000 C   0  0  0  0  0  0  0  0  0  0  0  0
   -0.6481   -2.6714    0.0000 C   0  0  0  0  0  0  0  0  0  0  0  0
   10.0332   -1.4457    0.0000 C   0  0  0  0  0  0  0  0  0  0  0  0
   10.7477   -3.5064    0.0000 C   0  0  0  0  0  0  0  0  0  0  0  0
   12.1313   -1.9319    0.0000 Cl  0  0  0  0  0  0  0  0  0  0  0  0
   12.2559   -3.0120    0.0000 Cl  0  0  0  0  0  0  0  0  0  0  0  0
  4  1  2  0  0  0  0
  5  7  1  0  0  0  0
  6  1  1  0  0  0  0
  7  4  1  0  0  0  0
  8  6  1  0  0  0  0
  9  3  2  0  0  0  0
 10 27  1  0  0  0  0
 11 20  1  0  0  0  0
 12  5  2  0  0  0  0
 13  8  2  0  0  0  0
 14  2  2  0  0  0  0
 15 17  2  0  0  0  0
 16  6  2  0  0  0  0
 17 16  1  0  0  0  0
 18 12  1  0  0  0  0
 19 21  1  0  0  0  0
 20 22  1  0  0  0  0
 21 10  1  0  0  0  0
 22 10  1  0  0  0  0
 23  9  1  0  0  0  0
 24 13  1  0  0  0  0
 25 15  1  0  0  0  0
 26 18  1  0  0  0  0
 27 28  1  0  0  0  0
 28 26  1  0  0  0  0
 29 11  1  0  0  0  0
 30 24  1  0  0  0  0
 31 25  1  0  0  0  0
  3  5  1  0  0  0  0
 13 15  1  0  0  0  0
 23 18  2  0  0  0  0
 11 19  1  0  0  0  0
  2  1  1  0  0  0  0
  3  2  1  0  0  0  0
M  END
>  <IDNUMBER>
F3385-4501

>  <Chemical_Name>
3-(3,4-dimethoxyphenyl)-7-[2-(4-methylpiperazin-1-yl)ethoxy]-4H-chromen-4-one dihydrochloride

>  <PriceCoeff>
1.00

>  <CAS>
1215332-34-5

>  <MW>
424.50

>  <Description>
solid

>  <FSP3>
0.38

>  <clogP>
1.94

>  <TPSA>
60.47

>  <Acceptor>
7

>  <Donor>
2

>  <RotBonds>
7

>  <HAC>
31

>  <Collection>
General

>  <PPDS>
+

$$$$
F3385-4502
  Mrv2219 10102508112D          

 30 33  0  0  0  0            999 V2000
    5.5588   -4.4288    0.0000 C   0  0  0  0  0  0  0  0  0  0  0  0
    4.8400   -4.8483    0.0000 C   0  0  0  0  0  0  0  0  0  0  0  0
    4.1297   -4.4288    0.0000 C   0  0  0  0  0  0  0  0  0  0  0  0
    5.5588   -3.6061    0.0000 C   0  0  0  0  0  0  0  0  0  0  0  0
    4.1297   -3.6061    0.0000 C   0  0  0  0  0  0  0  0  0  0  0  0
    6.2691   -4.8483    0.0000 C   0  0  0  0  0  0  0  0  0  0  0  0
    4.8400   -3.1949    0.0000 O   0  0  0  0  0  0  0  0  0  0  0  0
    6.9796   -4.4288    0.0000 C   0  0  0  0  0  0  0  0  0  0  0  0
    3.4192   -4.8483    0.0000 C   0  0  0  0  0  0  0  0  0  0  0  0
    3.4192   -3.1949    0.0000 C   0  0  0  0  0  0  0  0  0  0  0  0
    7.6901   -4.8483    0.0000 C   0  0  0  0  0  0  0  0  0  0  0  0
   -0.1454   -3.6144    0.0000 N   0  0  0  0  0  0  0  0  0  0  0  0
    4.8400   -5.6709    0.0000 O   0  0  0  0  0  0  0  0  0  0  0  0
    7.6901   -5.6751    0.0000 C   0  0  0  0  0  0  0  0  0  0  0  0
    6.2609   -5.6709    0.0000 C   0  0  0  0  0  0  0  0  0  0  0  0
    6.9713   -6.0822    0.0000 C   0  0  0  0  0  0  0  0  0  0  0  0
   -1.5662   -4.4288    0.0000 O   0  0  0  0  0  0  0  0  0  0  0  0
    2.7087   -3.6144    0.0000 C   0  0  0  0  0  0  0  0  0  0  0  0
    2.7087   -4.4288    0.0000 C   0  0  0  0  0  0  0  0  0  0  0  0
    8.4046   -4.4288    0.0000 O   0  0  0  0  0  0  0  0  0  0  0  0
    8.4004   -6.0864    0.0000 O   0  0  0  0  0  0  0  0  0  0  0  0
    1.9984   -3.2032    0.0000 O   0  0  0  0  0  0  0  0  0  0  0  0
    0.5733   -3.2032    0.0000 C   0  0  0  0  0  0  0  0  0  0  0  0
    1.2837   -3.6144    0.0000 C   0  0  0  0  0  0  0  0  0  0  0  0
   -0.8558   -3.1949    0.0000 C   0  0  0  0  0  0  0  0  0  0  0  0
   -0.1371   -4.4288    0.0000 C   0  0  0  0  0  0  0  0  0  0  0  0
   -0.8558   -4.8400    0.0000 C   0  0  0  0  0  0  0  0  0  0  0  0
   -1.5662   -3.6061    0.0000 C   0  0  0  0  0  0  0  0  0  0  0  0
    8.4004   -3.6144    0.0000 C   0  0  0  0  0  0  0  0  0  0  0  0
    9.1151   -5.6751    0.0000 C   0  0  0  0  0  0  0  0  0  0  0  0
  2  1  1  0  0  0  0
  3  2  1  0  0  0  0
  4  1  2  0  0  0  0
  5  7  1  0  0  0  0
  6  1  1  0  0  0  0
  7  4  1  0  0  0  0
  8  6  1  0  0  0  0
  9  3  2  0  0  0  0
 10  5  2  0  0  0  0
 11  8  2  0  0  0  0
 12 23  1  0  0  0  0
 13  2  2  0  0  0  0
 14 16  2  0  0  0  0
 15  6  2  0  0  0  0
 16 15  1  0  0  0  0
 17 27  1  0  0  0  0
 18 10  1  0  0  0  0
 19  9  1  0  0  0  0
 20 11  1  0  0  0  0
 21 14  1  0  0  0  0
 22 18  1  0  0  0  0
 23 24  1  0  0  0  0
 24 22  1  0  0  0  0
 25 12  1  0  0  0  0
 26 12  1  0  0  0  0
 27 26  1  0  0  0  0
 28 25  1  0  0  0  0
 29 20  1  0  0  0  0
 30 21  1  0  0  0  0
  3  5  1  0  0  0  0
 11 14  1  0  0  0  0
 19 18  2  0  0  0  0
 17 28  1  0  0  0  0
M  END
>  <IDNUMBER>
F3385-4502

>  <Chemical_Name>
3-(3,4-dimethoxyphenyl)-7-[2-(morpholin-4-yl)ethoxy]-4H-chromen-4-one

>  <PriceCoeff>
1.00

>  <CAS>
921136-07-4

>  <MW>
411.45

>  <Description>
solid

>  <FSP3>
0.35

>  <clogP>
2.87

>  <TPSA>
66.46

>  <Acceptor>
6

>  <Donor>
1

>  <RotBonds>
7

>  <HAC>
30

>  <Collection>
General

>  <PPDS>
+

$$$$
F3385-4535
  Mrv2219 10102508112D          

 21 23  0  0  0  0            999 V2000
    6.7542   -5.6042    0.0000 C   0  0  0  0  0  0  0  0  0  0  0  0
    6.7542   -4.7667    0.0000 C   0  0  0  0  0  0  0  0  0  0  0  0
    6.0292   -6.0167    0.0000 C   0  0  0  0  0  0  0  0  0  0  0  0
    5.3125   -5.6042    0.0000 C   0  0  0  0  0  0  0  0  0  0  0  0
    6.0292   -4.3500    0.0000 O   0  0  0  0  0  0  0  0  0  0  0  0
    5.3167   -4.7667    0.0000 C   0  0  0  0  0  0  0  0  0  0  0  0
    7.4625   -6.0167    0.0000 C   0  0  0  0  0  0  0  0  0  0  0  0
    4.6000   -4.3542    0.0000 C   0  0  0  0  0  0  0  0  0  0  0  0
    4.6000   -6.0125    0.0000 C   0  0  0  0  0  0  0  0  0  0  0  0
    6.0292   -6.8417    0.0000 O   0  0  0  0  0  0  0  0  0  0  0  0
    7.4667   -4.3625    0.0000 N   0  0  0  0  0  0  0  0  0  0  0  0
    7.4542   -6.8417    0.0000 C   0  0  0  0  0  0  0  0  0  0  0  0
    3.8875   -4.7750    0.0000 C   0  0  0  0  0  0  0  0  0  0  0  0
    3.8875   -5.6000    0.0000 C   0  0  0  0  0  0  0  0  0  0  0  0
    6.7417   -7.2500    0.0000 O   0  0  0  0  0  0  0  0  0  0  0  0
    3.1667   -4.3542    0.0000 O   0  0  0  0  0  0  0  0  0  0  0  0
    8.1750   -5.6042    0.0000 C   0  0  0  0  0  0  0  0  0  0  0  0
    8.1667   -7.2542    0.0000 C   0  0  0  0  0  0  0  0  0  0  0  0
    6.7417   -8.0750    0.0000 C   0  0  0  0  0  0  0  0  0  0  0  0
    8.8875   -6.0167    0.0000 C   0  0  0  0  0  0  0  0  0  0  0  0
    8.8875   -6.8500    0.0000 C   0  0  0  0  0  0  0  0  0  0  0  0
  2  1  2  0  0  0  0
  3  1  1  0  0  0  0
  4  3  1  0  0  0  0
  5  2  1  0  0  0  0
  6  4  1  0  0  0  0
  7  1  1  0  0  0  0
  8  6  2  0  0  0  0
  9  4  2  0  0  0  0
 10  3  2  0  0  0  0
 11  2  1  0  0  0  0
 12  7  2  0  0  0  0
 13 14  2  0  0  0  0
 14  9  1  0  0  0  0
 15 12  1  0  0  0  0
 16 13  1  0  0  0  0
 17  7  1  0  0  0  0
 18 12  1  0  0  0  0
 19 15  1  0  0  0  0
 20 17  2  0  0  0  0
 21 20  1  0  0  0  0
  6  5  1  0  0  0  0
 21 18  2  0  0  0  0
  8 13  1  0  0  0  0
M  END
>  <IDNUMBER>
F3385-4535

>  <Chemical_Name>
2-amino-7-hydroxy-3-(2-methoxyphenyl)-4H-chromen-4-one

>  <PriceCoeff>
1.00

>  <CAS>
929429-04-9

>  <MW>
283.28

>  <Description>
solid

>  <FSP3>
0.06

>  <clogP>
1.08

>  <TPSA>
81.78

>  <Acceptor>
4

>  <Donor>
2

>  <RotBonds>
2

>  <HAC>
21

>  <Collection>
General

>  <PPDS>
+

$$$$
F3385-5409
  Mrv2219 10102508112D          

 26 28  0  0  0  0            999 V2000
    5.3027    1.2734    0.0000 C   0  0  0  0  0  0  0  0  0  0  0  0
    4.5845    1.6910    0.0000 C   0  0  0  0  0  0  0  0  0  0  0  0
    3.8622    1.2776    0.0000 C   0  0  0  0  0  0  0  0  0  0  0  0
    5.3027    0.4467    0.0000 C   0  0  0  0  0  0  0  0  0  0  0  0
    3.8622    0.4467    0.0000 C   0  0  0  0  0  0  0  0  0  0  0  0
    6.0166    1.6868    0.0000 C   0  0  0  0  0  0  0  0  0  0  0  0
    4.5762    0.0334    0.0000 O   0  0  0  0  0  0  0  0  0  0  0  0
    6.7306    1.2651    0.0000 C   0  0  0  0  0  0  0  0  0  0  0  0
    3.1565    1.6868    0.0000 C   0  0  0  0  0  0  0  0  0  0  0  0
    3.1482    0.0376    0.0000 C   0  0  0  0  0  0  0  0  0  0  0  0
    7.4446    1.6743    0.0000 C   0  0  0  0  0  0  0  0  0  0  0  0
    0.2881    0.0584    0.0000 C   0  0  0  0  0  0  0  0  0  0  0  0
    4.5845    2.5260    0.0000 O   0  0  0  0  0  0  0  0  0  0  0  0
    7.4529    2.5010    0.0000 C   0  0  0  0  0  0  0  0  0  0  0  0
    6.0166    2.5052    0.0000 C   0  0  0  0  0  0  0  0  0  0  0  0
   -0.4259    0.4718    0.0000 O   0  0  0  0  0  0  0  0  0  0  0  0
    6.7306    2.9185    0.0000 C   0  0  0  0  0  0  0  0  0  0  0  0
    2.4342    0.4592    0.0000 C   0  0  0  0  0  0  0  0  0  0  0  0
    1.7203    0.0459    0.0000 O   0  0  0  0  0  0  0  0  0  0  0  0
    1.0063    0.4635    0.0000 C   0  0  0  0  0  0  0  0  0  0  0  0
    2.4426    1.2776    0.0000 C   0  0  0  0  0  0  0  0  0  0  0  0
    0.2798   -0.7683    0.0000 O   0  0  0  0  0  0  0  0  0  0  0  0
    8.1586    1.2526    0.0000 O   0  0  0  0  0  0  0  0  0  0  0  0
    8.1711    2.9143    0.0000 O   0  0  0  0  0  0  0  0  0  0  0  0
    8.8809    1.6617    0.0000 C   0  0  0  0  0  0  0  0  0  0  0  0
    8.8851    2.5010    0.0000 C   0  0  0  0  0  0  0  0  0  0  0  0
  2  1  1  0  0  0  0
  3  2  1  0  0  0  0
  4  1  2  0  0  0  0
  5  7  1  0  0  0  0
  6  1  1  0  0  0  0
  7  4  1  0  0  0  0
  8  6  2  0  0  0  0
  9  3  2  0  0  0  0
 10  5  2  0  0  0  0
 11  8  1  0  0  0  0
 12 20  1  0  0  0  0
 13  2  2  0  0  0  0
 14 17  1  0  0  0  0
 15  6  1  0  0  0  0
 16 12  2  0  0  0  0
 17 15  2  0  0  0  0
 18 10  1  0  0  0  0
 19 18  1  0  0  0  0
 20 19  1  0  0  0  0
 21  9  1  0  0  0  0
 22 12  1  0  0  0  0
 23 11  1  0  0  0  0
 24 14  1  0  0  0  0
 25 23  1  0  0  0  0
 26 24  1  0  0  0  0
  5  3  1  0  0  0  0
 14 11  2  0  0  0  0
 18 21  2  0  0  0  0
M  END
>  <IDNUMBER>
F3385-5409

>  <Chemical_Name>
2-{[3-(3,4-dimethoxyphenyl)-4-oxo-4H-chromen-7-yl]oxy}acetic acid

>  <PriceCoeff>
1.00

>  <CAS>
858764-48-4

>  <MW>
356.33

>  <Description>
solid

>  <FSP3>
0.16

>  <clogP>
2.04

>  <TPSA>
91.29

>  <Acceptor>
7

>  <Donor>
0

>  <RotBonds>
6

>  <HAC>
26

>  <Collection>
General

>  <PPDS>
+

$$$$
F3385-5916
  Mrv2219 10102508112D          

 25 27  0  0  0  0            999 V2000
    5.1625   -2.9500    0.0000 C   0  0  0  0  0  0  0  0  0  0  0  0
    5.8667   -3.3667    0.0000 C   0  0  0  0  0  0  0  0  0  0  0  0
    3.0167   -0.8750    0.0000 C   0  0  0  0  0  0  0  0  0  0  0  0
    3.7292   -2.1167    0.0000 C   0  0  0  0  0  0  0  0  0  0  0  0
    3.0167   -1.7042    0.0000 C   0  0  0  0  0  0  0  0  0  0  0  0
    3.7375   -0.4542    0.0000 O   0  0  0  0  0  0  0  0  0  0  0  0
    5.1542   -2.1292    0.0000 N   0  0  0  0  0  0  0  0  0  0  0  0
    4.4542   -0.8750    0.0000 C   0  0  0  0  0  0  0  0  0  0  0  0
    4.4542   -1.7042    0.0000 C   0  0  0  0  0  0  0  0  0  0  0  0
    2.3042   -0.4625    0.0000 C   0  0  0  0  0  0  0  0  0  0  0  0
    2.3042   -2.1167    0.0000 C   0  0  0  0  0  0  0  0  0  0  0  0
    6.5875   -2.9542    0.0000 C   0  0  0  0  0  0  0  0  0  0  0  0
    5.8667   -4.1917    0.0000 C   0  0  0  0  0  0  0  0  0  0  0  0
    5.8625   -5.0167    0.0000 N   0  0  0  0  0  0  0  0  0  0  0  0
    4.4417   -3.3625    0.0000 S   0  0  0  0  0  0  0  0  0  0  0  0
    1.5917   -1.7042    0.0000 C   0  0  0  0  0  0  0  0  0  0  0  0
    1.5917   -0.8750    0.0000 C   0  0  0  0  0  0  0  0  0  0  0  0
    3.7292   -2.9417    0.0000 C   0  0  0  0  0  0  0  0  0  0  0  0
    5.8667   -1.7167    0.0000 C   0  0  0  0  0  0  0  0  0  0  0  0
    6.5875   -2.1292    0.0000 C   0  0  0  0  0  0  0  0  0  0  0  0
    5.1750   -0.4667    0.0000 O   0  0  0  0  0  0  0  0  0  0  0  0
    0.8750   -2.1167    0.0000 Cl  0  0  0  0  0  0  0  0  0  0  0  0
    0.8792   -0.4667    0.0000 O   0  0  0  0  0  0  0  0  0  0  0  0
    7.3000   -3.3750    0.0000 C   0  0  0  0  0  0  0  0  0  0  0  0
    5.8667   -0.8917    0.0000 C   0  0  0  0  0  0  0  0  0  0  0  0
  2  1  2  0  0  0  0
  3  5  1  0  0  0  0
  4 18  1  0  0  0  0
  5  4  1  0  0  0  0
  6  8  1  0  0  0  0
  7  1  1  0  0  0  0
  8  9  1  0  0  0  0
  9  4  2  0  0  0  0
 10  3  2  0  0  0  0
 11  5  2  0  0  0  0
 12  2  1  0  0  0  0
 13  2  1  0  0  0  0
 14 13  3  0  0  0  0
 15  1  1  0  0  0  0
 16 11  1  0  0  0  0
 17 16  2  0  0  0  0
 18 15  1  0  0  0  0
 19  7  2  0  0  0  0
 20 19  1  0  0  0  0
 21  8  2  0  0  0  0
 22 16  1  0  0  0  0
 23 17  1  0  0  0  0
 24 12  1  0  0  0  0
 25 19  1  0  0  0  0
 20 12  2  0  0  0  0
  6  3  1  0  0  0  0
 17 10  1  0  0  0  0
M  END
>  <IDNUMBER>
F3385-5916

>  <Chemical_Name>
2-{[(6-chloro-7-hydroxy-2-oxo-2H-chromen-4-yl)methyl]sulfanyl}-4,6-dimethylpyridine-3-carbonitrile

>  <PriceCoeff>
1.00

>  <CAS>
1011625-29-8

>  <MW>
372.83

>  <Description>
solid

>  <FSP3>
0.17

>  <clogP>
4.03

>  <TPSA>
108.51

>  <Acceptor>
5

>  <Donor>
2

>  <RotBonds>
3

>  <HAC>
25

>  <Collection>
General

>  <PPDS>
+

$$$$
F3385-6145
  Mrv2219 10102508112D          

 19 21  0  0  0  0            999 V2000
    6.4765   -0.6527    0.0000 C   0  0  0  0  0  0  0  0  0  0  0  0
    6.4765   -1.4840    0.0000 C   0  0  0  0  0  0  0  0  0  0  0  0
    5.0424   -0.6527    0.0000 C   0  0  0  0  0  0  0  0  0  0  0  0
    5.7532   -0.2287    0.0000 O   0  0  0  0  0  0  0  0  0  0  0  0
    5.7532   -1.8956    0.0000 C   0  0  0  0  0  0  0  0  0  0  0  0
    5.0382   -1.4840    0.0000 C   0  0  0  0  0  0  0  0  0  0  0  0
    4.3274   -0.2411    0.0000 C   0  0  0  0  0  0  0  0  0  0  0  0
    4.3274   -1.8873    0.0000 C   0  0  0  0  0  0  0  0  0  0  0  0
    7.1874   -0.2411    0.0000 C   0  0  0  0  0  0  0  0  0  0  0  0
    5.7532   -2.7186    0.0000 O   0  0  0  0  0  0  0  0  0  0  0  0
    3.6165   -0.6527    0.0000 C   0  0  0  0  0  0  0  0  0  0  0  0
    3.6165   -1.4757    0.0000 C   0  0  0  0  0  0  0  0  0  0  0  0
    2.9057   -0.2411    0.0000 O   0  0  0  0  0  0  0  0  0  0  0  0
    7.8982   -0.6610    0.0000 C   0  0  0  0  0  0  0  0  0  0  0  0
    7.1874    0.5737    0.0000 C   0  0  0  0  0  0  0  0  0  0  0  0
    2.1866   -0.6527    0.0000 C   0  0  0  0  0  0  0  0  0  0  0  0
    8.6090   -0.2536    0.0000 C   0  0  0  0  0  0  0  0  0  0  0  0
    7.8982    0.9852    0.0000 C   0  0  0  0  0  0  0  0  0  0  0  0
    8.6173    0.5737    0.0000 C   0  0  0  0  0  0  0  0  0  0  0  0
  2  1  2  0  0  0  0
  3  4  1  0  0  0  0
  4  1  1  0  0  0  0
  5  2  1  0  0  0  0
  6  3  1  0  0  0  0
  7  3  2  0  0  0  0
  8  6  2  0  0  0  0
  9  1  1  0  0  0  0
 10  5  2  0  0  0  0
 11  7  1  0  0  0  0
 12 11  2  0  0  0  0
 13 11  1  0  0  0  0
 14  9  2  0  0  0  0
 15  9  1  0  0  0  0
 16 13  1  0  0  0  0
 17 14  1  0  0  0  0
 18 15  2  0  0  0  0
 19 18  1  0  0  0  0
  5  6  1  0  0  0  0
 19 17  2  0  0  0  0
  8 12  1  0  0  0  0
M  END
>  <IDNUMBER>
F3385-6145

>  <Chemical_Name>
7-methoxy-2-phenyl-4H-chromen-4-one

>  <PriceCoeff>
1.00

>  <CAS>
22395-22-8

>  <MW>
252.26

>  <Description>
solid

>  <FSP3>
0.06

>  <clogP>
3.59

>  <TPSA>
35.53

>  <Acceptor>
3

>  <Donor>
0

>  <RotBonds>
2

>  <HAC>
19

>  <Collection>
General

$$$$
F3385-6200
  Mrv2219 10102508112D          

 33 36  0  0  0  0            999 V2000
    0.9542   -0.5542    0.0000 C   0  0  0  0  0  0  0  0  0  0  0  0
    0.2375   -0.1417    0.0000 C   0  0  0  0  0  0  0  0  0  0  0  0
    1.6792   -0.1417    0.0000 C   0  0  0  0  0  0  0  0  0  0  0  0
    5.2417   -1.3917    0.0000 C   0  0  0  0  0  0  0  0  0  0  0  0
    5.2417   -0.5667    0.0000 C   0  0  0  0  0  0  0  0  0  0  0  0
    5.9625   -0.1542    0.0000 C   0  0  0  0  0  0  0  0  0  0  0  0
    0.2417    0.6875    0.0000 C   0  0  0  0  0  0  0  0  0  0  0  0
    5.9542   -1.8042    0.0000 O   0  0  0  0  0  0  0  0  0  0  0  0
    1.6792    0.6875    0.0000 C   0  0  0  0  0  0  0  0  0  0  0  0
    6.6750   -0.5667    0.0000 C   0  0  0  0  0  0  0  0  0  0  0  0
   -0.4750   -0.5542    0.0000 C   0  0  0  0  0  0  0  0  0  0  0  0
    6.6667   -1.3917    0.0000 C   0  0  0  0  0  0  0  0  0  0  0  0
    0.9542    1.1083    0.0000 O   0  0  0  0  0  0  0  0  0  0  0  0
   -0.4750    1.1000    0.0000 C   0  0  0  0  0  0  0  0  0  0  0  0
   -1.1875   -0.1417    0.0000 C   0  0  0  0  0  0  0  0  0  0  0  0
    4.5292   -1.8042    0.0000 O   0  0  0  0  0  0  0  0  0  0  0  0
    2.3792   -0.5625    0.0000 C   0  0  0  0  0  0  0  0  0  0  0  0
    0.9542   -1.3792    0.0000 O   0  0  0  0  0  0  0  0  0  0  0  0
   -1.1875    0.6875    0.0000 C   0  0  0  0  0  0  0  0  0  0  0  0
    4.5292   -0.1542    0.0000 O   0  0  0  0  0  0  0  0  0  0  0  0
    3.1000   -0.1500    0.0000 C   0  0  0  0  0  0  0  0  0  0  0  0
    2.3792   -1.3875    0.0000 C   0  0  0  0  0  0  0  0  0  0  0  0
    5.9625    0.6708    0.0000 O   0  0  0  0  0  0  0  0  0  0  0  0
    3.8125   -1.3917    0.0000 C   0  0  0  0  0  0  0  0  0  0  0  0
    7.3875   -0.1542    0.0000 O   0  0  0  0  0  0  0  0  0  0  0  0
   -0.4750   -1.3750    0.0000 O   0  0  0  0  0  0  0  0  0  0  0  0
    3.8125   -0.5625    0.0000 C   0  0  0  0  0  0  0  0  0  0  0  0
    3.0917   -1.8000    0.0000 C   0  0  0  0  0  0  0  0  0  0  0  0
    7.3792   -1.8125    0.0000 C   0  0  0  0  0  0  0  0  0  0  0  0
   -1.9083    1.1000    0.0000 O   0  0  0  0  0  0  0  0  0  0  0  0
    8.0125   -1.2792    0.0000 O   0  0  0  0  0  0  0  0  0  0  0  0
    0.2375   -1.7875    0.0000 C   0  0  0  0  0  0  0  0  0  0  0  0
   -2.6208    0.6875    0.0000 C   0  0  0  0  0  0  0  0  0  0  0  0
  2  1  1  0  0  0  0
  3  1  1  0  0  0  0
  4 16  1  0  0  0  0
  5  4  1  0  0  0  0
  6  5  1  0  0  0  0
  7  2  1  0  0  0  0
  8  4  1  0  0  0  0
  9  3  2  0  0  0  0
 10 12  1  0  0  0  0
 11  2  2  0  0  0  0
 12  8  1  0  0  0  0
 13  9  1  0  0  0  0
 14  7  2  0  0  0  0
 15 11  1  0  0  0  0
 16 24  1  0  0  0  0
 17  3  1  0  0  0  0
 18  1  2  0  0  0  0
 19 15  2  0  0  0  0
 20  5  1  0  0  0  0
 21 17  1  0  0  0  0
 22 17  2  0  0  0  0
 23  6  1  0  0  0  0
 24 28  2  0  0  0  0
 25 10  1  0  0  0  0
 26 11  1  0  0  0  0
 27 21  2  0  0  0  0
 28 22  1  0  0  0  0
 29 12  1  0  0  0  0
 30 19  1  0  0  0  0
 31 29  1  0  0  0  0
 32 26  1  0  0  0  0
 33 30  1  0  0  0  0
 13  7  1  0  0  0  0
 27 24  1  0  0  0  0
 19 14  1  0  0  0  0
 10  6  1  0  0  0  0
M  END
>  <IDNUMBER>
F3385-6200

>  <Chemical_Name>
5,7-dimethoxy-3-(4-{[3,4,5-trihydroxy-6-(hydroxymethyl)oxan-2-yl]oxy}phenyl)-4H-chromen-4-one

>  <PriceCoeff>
1.00

>  <CAS>
1173199-68-2

>  <MW>
460.43

>  <Description>
solid

>  <FSP3>
0.35

>  <clogP>
0.96

>  <TPSA>
144.14

>  <Acceptor>
10

>  <Donor>
4

>  <RotBonds>
6

>  <HAC>
33

>  <Collection>
General

>  <PPDS>
+

$$$$
F3386-1187
  Mrv2219 10102508112D          

 21 22  0  0  0  0            999 V2000
    4.7125   -1.9792    0.0000 S   0  0  0  0  0  0  0  0  0  0  0  0
    5.5375   -1.9667    0.0000 O   0  0  0  0  0  0  0  0  0  0  0  0
    3.8875   -1.9792    0.0000 C   0  0  0  0  0  0  0  0  0  0  0  0
    4.7167   -2.8042    0.0000 O   0  0  0  0  0  0  0  0  0  0  0  0
    4.7042   -1.1542    0.0000 O   0  0  0  0  0  0  0  0  0  0  0  0
    1.4167   -2.0042    0.0000 C   0  0  0  0  0  0  0  0  0  0  0  0
    2.2417   -2.0000    0.0000 C   0  0  0  0  0  0  0  0  0  0  0  0
    3.5042   -2.6792    0.0000 C   0  0  0  0  0  0  0  0  0  0  0  0
    3.4667   -1.2750    0.0000 C   0  0  0  0  0  0  0  0  0  0  0  0
    2.6542   -2.7042    0.0000 C   0  0  0  0  0  0  0  0  0  0  0  0
    2.6417   -1.2792    0.0000 C   0  0  0  0  0  0  0  0  0  0  0  0
    6.3625   -1.9667    0.0000 C   0  0  0  0  0  0  0  0  0  0  0  0
    8.0042   -1.9625    0.0000 C   0  0  0  0  0  0  0  0  0  0  0  0
    8.8292   -1.9625    0.0000 Cl  0  0  0  0  0  0  0  0  0  0  0  0
    6.7667   -2.6792    0.0000 C   0  0  0  0  0  0  0  0  0  0  0  0
    6.7667   -1.2542    0.0000 C   0  0  0  0  0  0  0  0  0  0  0  0
    7.5875   -1.2500    0.0000 C   0  0  0  0  0  0  0  0  0  0  0  0
    7.5917   -2.6750    0.0000 C   0  0  0  0  0  0  0  0  0  0  0  0
    0.5917   -2.0000    0.0000 C   0  0  0  0  0  0  0  0  0  0  0  0
    1.4125   -2.8292    0.0000 C   0  0  0  0  0  0  0  0  0  0  0  0
    1.4167   -1.1792    0.0000 C   0  0  0  0  0  0  0  0  0  0  0  0
  2  1  1  0  0  0  0
  3  1  1  0  0  0  0
  4  1  2  0  0  0  0
  5  1  2  0  0  0  0
  6  7  1  0  0  0  0
  7 11  2  0  0  0  0
  8  3  1  0  0  0  0
  9  3  2  0  0  0  0
 10  8  2  0  0  0  0
 11  9  1  0  0  0  0
 12  2  1  0  0  0  0
 13 17  1  0  0  0  0
 14 13  1  0  0  0  0
 15 12  2  0  0  0  0
 16 12  1  0  0  0  0
 17 16  2  0  0  0  0
 18 15  1  0  0  0  0
 19  6  1  0  0  0  0
 20  6  1  0  0  0  0
 21  6  1  0  0  0  0
  7 10  1  0  0  0  0
 13 18  2  0  0  0  0
M  END
>  <IDNUMBER>
F3386-1187

>  <Chemical_Name>
4-chlorophenyl 4-tert-butylbenzene-1-sulfonate

>  <PriceCoeff>
1.00

>  <CAS>
791796-72-0

>  <MW>
324.82

>  <Description>
solid

>  <FSP3>
0.25

>  <clogP>
5.77

>  <TPSA>
51.75

>  <Acceptor>
3

>  <Donor>
0

>  <RotBonds>
3

>  <HAC>
21

>  <Collection>
General

>  <PPDS>
+

$$$$
F3386-1370
  Mrv2219 10102508112D          

 21 22  0  0  0  0            999 V2000
    4.9676   -1.7045    0.0000 S   0  0  0  0  0  0  0  0  0  0  0  0
    5.7928   -1.6920    0.0000 N   0  0  0  0  0  0  0  0  0  0  0  0
    4.1425   -1.7128    0.0000 C   0  0  0  0  0  0  0  0  0  0  0  0
    6.6180   -1.6920    0.0000 C   0  0  0  0  0  0  0  0  0  0  0  0
    3.7507   -2.4297    0.0000 C   0  0  0  0  0  0  0  0  0  0  0  0
    3.7299   -1.0044    0.0000 C   0  0  0  0  0  0  0  0  0  0  0  0
    4.9634   -0.8794    0.0000 O   0  0  0  0  0  0  0  0  0  0  0  0
    4.9801   -2.5297    0.0000 O   0  0  0  0  0  0  0  0  0  0  0  0
    7.0305   -2.4047    0.0000 C   0  0  0  0  0  0  0  0  0  0  0  0
    7.0263   -0.9794    0.0000 C   0  0  0  0  0  0  0  0  0  0  0  0
    2.9131   -1.0127    0.0000 C   0  0  0  0  0  0  0  0  0  0  0  0
    2.9256   -2.4422    0.0000 C   0  0  0  0  0  0  0  0  0  0  0  0
    2.5005   -1.7295    0.0000 C   0  0  0  0  0  0  0  0  0  0  0  0
    7.8432   -0.9794    0.0000 C   0  0  0  0  0  0  0  0  0  0  0  0
    7.8515   -2.4047    0.0000 C   0  0  0  0  0  0  0  0  0  0  0  0
    8.2641   -1.6920    0.0000 C   0  0  0  0  0  0  0  0  0  0  0  0
    8.2641   -3.1173    0.0000 Cl  0  0  0  0  0  0  0  0  0  0  0  0
    6.6054   -0.2668    0.0000 O   0  0  0  0  0  0  0  0  0  0  0  0
    4.1383   -0.2876    0.0000 C   0  0  0  0  0  0  0  0  0  0  0  0
    4.1758   -3.1381    0.0000 C   0  0  0  0  0  0  0  0  0  0  0  0
    1.6753   -1.7378    0.0000 C   0  0  0  0  0  0  0  0  0  0  0  0
  2  1  1  0  0  0  0
  3  1  1  0  0  0  0
  4  2  1  0  0  0  0
  5  3  1  0  0  0  0
  6  3  2  0  0  0  0
  7  1  2  0  0  0  0
  8  1  2  0  0  0  0
  9  4  2  0  0  0  0
 10  4  1  0  0  0  0
 11  6  1  0  0  0  0
 12  5  2  0  0  0  0
 13 11  2  0  0  0  0
 14 10  2  0  0  0  0
 15  9  1  0  0  0  0
 16 14  1  0  0  0  0
 17 15  1  0  0  0  0
 18 10  1  0  0  0  0
 19  6  1  0  0  0  0
 20  5  1  0  0  0  0
 21 13  1  0  0  0  0
 13 12  1  0  0  0  0
 16 15  2  0  0  0  0
M  END
>  <IDNUMBER>
F3386-1370

>  <Chemical_Name>
N-(5-chloro-2-hydroxyphenyl)-2,4,6-trimethylbenzene-1-sulfonamide

>  <PriceCoeff>
1.00

>  <CAS>
893775-47-8

>  <MW>
325.81

>  <Description>
solid

>  <FSP3>
0.20

>  <clogP>
4.48

>  <TPSA>
74.78

>  <Acceptor>
4

>  <Donor>
2

>  <RotBonds>
3

>  <HAC>
21

>  <Collection>
General

>  <PPDS>
+

$$$$
F3386-1371
  Mrv2219 10102508112D          

 21 22  0  0  0  0            999 V2000
    5.1250   -1.9375    0.0000 S   0  0  0  0  0  0  0  0  0  0  0  0
    4.3000   -1.9417    0.0000 C   0  0  0  0  0  0  0  0  0  0  0  0
    5.9500   -1.9250    0.0000 N   0  0  0  0  0  0  0  0  0  0  0  0
    6.7750   -1.9250    0.0000 C   0  0  0  0  0  0  0  0  0  0  0  0
    3.9042   -2.6542    0.0000 C   0  0  0  0  0  0  0  0  0  0  0  0
    3.8792   -1.2375    0.0000 C   0  0  0  0  0  0  0  0  0  0  0  0
    5.1167   -1.1125    0.0000 O   0  0  0  0  0  0  0  0  0  0  0  0
    5.1292   -2.7625    0.0000 O   0  0  0  0  0  0  0  0  0  0  0  0
    3.0792   -2.6667    0.0000 C   0  0  0  0  0  0  0  0  0  0  0  0
    7.1792   -2.6375    0.0000 C   0  0  0  0  0  0  0  0  0  0  0  0
    3.0667   -1.2417    0.0000 C   0  0  0  0  0  0  0  0  0  0  0  0
    2.6542   -1.9542    0.0000 C   0  0  0  0  0  0  0  0  0  0  0  0
    7.1792   -1.2125    0.0000 C   0  0  0  0  0  0  0  0  0  0  0  0
    8.0000   -1.2042    0.0000 C   0  0  0  0  0  0  0  0  0  0  0  0
    8.0042   -2.6292    0.0000 C   0  0  0  0  0  0  0  0  0  0  0  0
    8.4167   -1.9167    0.0000 C   0  0  0  0  0  0  0  0  0  0  0  0
    8.4167   -3.3500    0.0000 Cl  0  0  0  0  0  0  0  0  0  0  0  0
    6.7625   -0.5000    0.0000 O   0  0  0  0  0  0  0  0  0  0  0  0
    4.2917   -0.5167    0.0000 C   0  0  0  0  0  0  0  0  0  0  0  0
    2.6750   -3.3917    0.0000 C   0  0  0  0  0  0  0  0  0  0  0  0
    1.8292   -1.9667    0.0000 C   0  0  0  0  0  0  0  0  0  0  0  0
  2  1  1  0  0  0  0
  3  1  1  0  0  0  0
  4  3  1  0  0  0  0
  5  2  1  0  0  0  0
  6  2  2  0  0  0  0
  7  1  2  0  0  0  0
  8  1  2  0  0  0  0
  9  5  2  0  0  0  0
 10  4  2  0  0  0  0
 11  6  1  0  0  0  0
 12 11  2  0  0  0  0
 13  4  1  0  0  0  0
 14 13  2  0  0  0  0
 15 10  1  0  0  0  0
 16 14  1  0  0  0  0
 17 15  1  0  0  0  0
 18 13  1  0  0  0  0
 19  6  1  0  0  0  0
 20  9  1  0  0  0  0
 21 12  1  0  0  0  0
 12  9  1  0  0  0  0
 16 15  2  0  0  0  0
M  END
>  <IDNUMBER>
F3386-1371

>  <Chemical_Name>
N-(5-chloro-2-hydroxyphenyl)-2,4,5-trimethylbenzene-1-sulfonamide

>  <PriceCoeff>
1.00

>  <CAS>
1172351-57-3

>  <MW>
325.81

>  <Description>
solid

>  <FSP3>
0.20

>  <clogP>
4.43

>  <TPSA>
74.78

>  <Acceptor>
4

>  <Donor>
2

>  <RotBonds>
3

>  <HAC>
21

>  <Collection>
General

>  <PPDS>
+

$$$$
F3386-1372
  Mrv2219 10102508112D          

 21 22  0  0  0  0            999 V2000
    5.1356   -1.9415    0.0000 S   0  0  0  0  0  0  0  0  0  0  0  0
    4.3089   -1.9457    0.0000 C   0  0  0  0  0  0  0  0  0  0  0  0
    5.9623   -1.9290    0.0000 N   0  0  0  0  0  0  0  0  0  0  0  0
    6.7890   -1.9290    0.0000 C   0  0  0  0  0  0  0  0  0  0  0  0
    5.1273   -1.1148    0.0000 O   0  0  0  0  0  0  0  0  0  0  0  0
    5.1398   -2.7682    0.0000 O   0  0  0  0  0  0  0  0  0  0  0  0
    7.1941   -2.6430    0.0000 C   0  0  0  0  0  0  0  0  0  0  0  0
    3.8872   -1.2401    0.0000 C   0  0  0  0  0  0  0  0  0  0  0  0
    3.9123   -2.6597    0.0000 C   0  0  0  0  0  0  0  0  0  0  0  0
    7.1941   -1.2150    0.0000 C   0  0  0  0  0  0  0  0  0  0  0  0
    3.0731   -1.2443    0.0000 C   0  0  0  0  0  0  0  0  0  0  0  0
    8.0166   -1.2067    0.0000 C   0  0  0  0  0  0  0  0  0  0  0  0
    8.0208   -2.6346    0.0000 C   0  0  0  0  0  0  0  0  0  0  0  0
    3.0856   -2.6722    0.0000 C   0  0  0  0  0  0  0  0  0  0  0  0
    8.4341   -1.9207    0.0000 C   0  0  0  0  0  0  0  0  0  0  0  0
    2.6597   -1.9583    0.0000 C   0  0  0  0  0  0  0  0  0  0  0  0
    8.4341   -3.3569    0.0000 Cl  0  0  0  0  0  0  0  0  0  0  0  0
    6.7765   -0.5010    0.0000 O   0  0  0  0  0  0  0  0  0  0  0  0
    4.3006   -0.5178    0.0000 O   0  0  0  0  0  0  0  0  0  0  0  0
    2.6805   -3.3987    0.0000 C   0  0  0  0  0  0  0  0  0  0  0  0
    5.1273   -0.5136    0.0000 C   0  0  0  0  0  0  0  0  0  0  0  0
  2  1  1  0  0  0  0
  3  1  1  0  0  0  0
  4  3  1  0  0  0  0
  5  1  2  0  0  0  0
  6  1  2  0  0  0  0
  7  4  2  0  0  0  0
  8  2  2  0  0  0  0
  9  2  1  0  0  0  0
 10  4  1  0  0  0  0
 11  8  1  0  0  0  0
 12 10  2  0  0  0  0
 13  7  1  0  0  0  0
 14  9  2  0  0  0  0
 15 12  1  0  0  0  0
 16 14  1  0  0  0  0
 17 13  1  0  0  0  0
 18 10  1  0  0  0  0
 19  8  1  0  0  0  0
 20 14  1  0  0  0  0
 21 19  1  0  0  0  0
 11 16  2  0  0  0  0
 15 13  2  0  0  0  0
M  END
>  <IDNUMBER>
F3386-1372

>  <Chemical_Name>
N-(5-chloro-2-hydroxyphenyl)-2-methoxy-5-methylbenzene-1-sulfonamide

>  <PriceCoeff>
1.00

>  <CAS>
1170132-00-9

>  <MW>
327.78

>  <Description>
solid

>  <FSP3>
0.14

>  <clogP>
3.16

>  <TPSA>
84.01

>  <Acceptor>
5

>  <Donor>
2

>  <RotBonds>
4

>  <HAC>
21

>  <Collection>
General

>  <PPDS>
+

$$$$
F3386-1374
  Mrv2219 10102508112D          

 20 21  0  0  0  0            999 V2000
    5.1356   -1.9415    0.0000 S   0  0  0  0  0  0  0  0  0  0  0  0
    4.3089   -1.9457    0.0000 C   0  0  0  0  0  0  0  0  0  0  0  0
    5.9623   -1.9290    0.0000 N   0  0  0  0  0  0  0  0  0  0  0  0
    6.7890   -1.9290    0.0000 C   0  0  0  0  0  0  0  0  0  0  0  0
    3.9123   -2.6597    0.0000 C   0  0  0  0  0  0  0  0  0  0  0  0
    5.1398   -2.7682    0.0000 O   0  0  0  0  0  0  0  0  0  0  0  0
    5.1273   -1.1148    0.0000 O   0  0  0  0  0  0  0  0  0  0  0  0
    7.1941   -2.6430    0.0000 C   0  0  0  0  0  0  0  0  0  0  0  0
    3.8872   -1.2401    0.0000 C   0  0  0  0  0  0  0  0  0  0  0  0
    7.1941   -1.2150    0.0000 C   0  0  0  0  0  0  0  0  0  0  0  0
    3.0731   -1.2443    0.0000 C   0  0  0  0  0  0  0  0  0  0  0  0
    8.0166   -1.2067    0.0000 C   0  0  0  0  0  0  0  0  0  0  0  0
    3.0856   -2.6722    0.0000 C   0  0  0  0  0  0  0  0  0  0  0  0
    8.0208   -2.6346    0.0000 C   0  0  0  0  0  0  0  0  0  0  0  0
    4.3006   -0.5178    0.0000 Cl  0  0  0  0  0  0  0  0  0  0  0  0
    8.4341   -1.9207    0.0000 C   0  0  0  0  0  0  0  0  0  0  0  0
    2.6597   -1.9583    0.0000 C   0  0  0  0  0  0  0  0  0  0  0  0
    8.4341   -3.3569    0.0000 Cl  0  0  0  0  0  0  0  0  0  0  0  0
    2.6805   -3.3987    0.0000 Cl  0  0  0  0  0  0  0  0  0  0  0  0
    6.7765   -0.5010    0.0000 O   0  0  0  0  0  0  0  0  0  0  0  0
  2  1  1  0  0  0  0
  3  1  1  0  0  0  0
  4  3  1  0  0  0  0
  5  2  1  0  0  0  0
  6  1  2  0  0  0  0
  7  1  2  0  0  0  0
  8  4  2  0  0  0  0
  9  2  2  0  0  0  0
 10  4  1  0  0  0  0
 11  9  1  0  0  0  0
 12 10  2  0  0  0  0
 13  5  2  0  0  0  0
 14  8  1  0  0  0  0
 15  9  1  0  0  0  0
 16 12  1  0  0  0  0
 17 11  2  0  0  0  0
 18 14  1  0  0  0  0
 19 13  1  0  0  0  0
 20 10  1  0  0  0  0
 17 13  1  0  0  0  0
 16 14  2  0  0  0  0
M  END
>  <IDNUMBER>
F3386-1374

>  <Chemical_Name>
2,5-dichloro-N-(5-chloro-2-hydroxyphenyl)benzene-1-sulfonamide

>  <PriceCoeff>
1.00

>  <CAS>
1096966-85-6

>  <MW>
352.62

>  <Description>
solid

>  <FSP3>
0.00

>  <clogP>
4.46

>  <TPSA>
74.78

>  <Acceptor>
4

>  <Donor>
2

>  <RotBonds>
3

>  <HAC>
20

>  <Collection>
General

>  <PPDS>
+

$$$$
F3386-1375
  Mrv2219 10102508112D          

 22 23  0  0  0  0            999 V2000
    5.1250   -1.9375    0.0000 S   0  0  0  0  0  0  0  0  0  0  0  0
    5.9500   -1.9250    0.0000 N   0  0  0  0  0  0  0  0  0  0  0  0
    6.7750   -1.9250    0.0000 C   0  0  0  0  0  0  0  0  0  0  0  0
    4.3000   -1.9417    0.0000 C   0  0  0  0  0  0  0  0  0  0  0  0
    7.1792   -2.6375    0.0000 C   0  0  0  0  0  0  0  0  0  0  0  0
    5.1292   -2.7625    0.0000 O   0  0  0  0  0  0  0  0  0  0  0  0
    5.1167   -1.1125    0.0000 O   0  0  0  0  0  0  0  0  0  0  0  0
    3.9042   -2.6542    0.0000 C   0  0  0  0  0  0  0  0  0  0  0  0
    3.0792   -2.6667    0.0000 C   0  0  0  0  0  0  0  0  0  0  0  0
    7.1792   -1.2125    0.0000 C   0  0  0  0  0  0  0  0  0  0  0  0
    2.6542   -1.9542    0.0000 C   0  0  0  0  0  0  0  0  0  0  0  0
    3.8792   -1.2375    0.0000 C   0  0  0  0  0  0  0  0  0  0  0  0
    3.0667   -1.2417    0.0000 C   0  0  0  0  0  0  0  0  0  0  0  0
    8.0000   -1.2042    0.0000 C   0  0  0  0  0  0  0  0  0  0  0  0
    8.0042   -2.6292    0.0000 C   0  0  0  0  0  0  0  0  0  0  0  0
    8.4167   -1.9167    0.0000 C   0  0  0  0  0  0  0  0  0  0  0  0
    8.4167   -3.3500    0.0000 Cl  0  0  0  0  0  0  0  0  0  0  0  0
    6.7625   -0.5000    0.0000 O   0  0  0  0  0  0  0  0  0  0  0  0
    1.8292   -1.9667    0.0000 O   0  0  0  0  0  0  0  0  0  0  0  0
    2.6750   -3.3917    0.0000 C   0  0  0  0  0  0  0  0  0  0  0  0
    1.4042   -1.2542    0.0000 C   0  0  0  0  0  0  0  0  0  0  0  0
    0.5792   -1.2625    0.0000 C   0  0  0  0  0  0  0  0  0  0  0  0
  2  1  1  0  0  0  0
  3  2  1  0  0  0  0
  4  1  1  0  0  0  0
  5  3  2  0  0  0  0
  6  1  2  0  0  0  0
  7  1  2  0  0  0  0
  8  4  1  0  0  0  0
  9  8  2  0  0  0  0
 10  3  1  0  0  0  0
 11 13  2  0  0  0  0
 12  4  2  0  0  0  0
 13 12  1  0  0  0  0
 14 10  2  0  0  0  0
 15  5  1  0  0  0  0
 16 14  1  0  0  0  0
 17 15  1  0  0  0  0
 18 10  1  0  0  0  0
 19 11  1  0  0  0  0
 20  9  1  0  0  0  0
 21 19  1  0  0  0  0
 22 21  1  0  0  0  0
  9 11  1  0  0  0  0
 16 15  2  0  0  0  0
M  END
>  <IDNUMBER>
F3386-1375

>  <Chemical_Name>
N-(5-chloro-2-hydroxyphenyl)-4-ethoxy-3-methylbenzene-1-sulfonamide

>  <PriceCoeff>
1.00

>  <CAS>
1171340-41-2

>  <MW>
341.81

>  <Description>
solid

>  <FSP3>
0.20

>  <clogP>
4.17

>  <TPSA>
84.01

>  <Acceptor>
5

>  <Donor>
2

>  <RotBonds>
5

>  <HAC>
22

>  <Collection>
General

>  <PPDS>
+

$$$$
F3386-1376
  Mrv2219 10102508112D          

 21 22  0  0  0  0            999 V2000
    5.1356   -1.9415    0.0000 S   0  0  0  0  0  0  0  0  0  0  0  0
    4.3089   -1.9457    0.0000 C   0  0  0  0  0  0  0  0  0  0  0  0
    5.9623   -1.9290    0.0000 N   0  0  0  0  0  0  0  0  0  0  0  0
    6.7890   -1.9290    0.0000 C   0  0  0  0  0  0  0  0  0  0  0  0
    3.9123   -2.6597    0.0000 C   0  0  0  0  0  0  0  0  0  0  0  0
    5.1398   -2.7682    0.0000 O   0  0  0  0  0  0  0  0  0  0  0  0
    5.1273   -1.1148    0.0000 O   0  0  0  0  0  0  0  0  0  0  0  0
    7.1941   -2.6430    0.0000 C   0  0  0  0  0  0  0  0  0  0  0  0
    3.8872   -1.2401    0.0000 C   0  0  0  0  0  0  0  0  0  0  0  0
    7.1941   -1.2150    0.0000 C   0  0  0  0  0  0  0  0  0  0  0  0
    3.0731   -1.2443    0.0000 C   0  0  0  0  0  0  0  0  0  0  0  0
    8.0166   -1.2067    0.0000 C   0  0  0  0  0  0  0  0  0  0  0  0
    3.0856   -2.6722    0.0000 C   0  0  0  0  0  0  0  0  0  0  0  0
    8.0208   -2.6346    0.0000 C   0  0  0  0  0  0  0  0  0  0  0  0
    2.6597   -1.9583    0.0000 C   0  0  0  0  0  0  0  0  0  0  0  0
    8.4341   -1.9207    0.0000 C   0  0  0  0  0  0  0  0  0  0  0  0
    8.4341   -3.3569    0.0000 Cl  0  0  0  0  0  0  0  0  0  0  0  0
    2.6805   -3.3987    0.0000 Cl  0  0  0  0  0  0  0  0  0  0  0  0
    6.7765   -0.5010    0.0000 O   0  0  0  0  0  0  0  0  0  0  0  0
    4.3006   -0.5178    0.0000 O   0  0  0  0  0  0  0  0  0  0  0  0
    5.1273   -0.5136    0.0000 C   0  0  0  0  0  0  0  0  0  0  0  0
  2  1  1  0  0  0  0
  3  1  1  0  0  0  0
  4  3  1  0  0  0  0
  5  2  1  0  0  0  0
  6  1  2  0  0  0  0
  7  1  2  0  0  0  0
  8  4  2  0  0  0  0
  9  2  2  0  0  0  0
 10  4  1  0  0  0  0
 11  9  1  0  0  0  0
 12 10  2  0  0  0  0
 13  5  2  0  0  0  0
 14  8  1  0  0  0  0
 15 11  2  0  0  0  0
 16 12  1  0  0  0  0
 17 14  1  0  0  0  0
 18 13  1  0  0  0  0
 19 10  1  0  0  0  0
 20  9  1  0  0  0  0
 21 20  1  0  0  0  0
 15 13  1  0  0  0  0
 16 14  2  0  0  0  0
M  END
>  <IDNUMBER>
F3386-1376

>  <Chemical_Name>
5-chloro-N-(5-chloro-2-hydroxyphenyl)-2-methoxybenzene-1-sulfonamide

>  <PriceCoeff>
1.00

>  <CAS>
1171334-40-9

>  <MW>
348.20

>  <Description>
solid

>  <FSP3>
0.08

>  <clogP>
3.61

>  <TPSA>
84.01

>  <Acceptor>
5

>  <Donor>
2

>  <RotBonds>
4

>  <HAC>
21

>  <Collection>
General

>  <PPDS>
+

$$$$
F3386-1377
  Mrv2219 10102508112D          

 21 22  0  0  0  0            999 V2000
    5.2432   -1.9188    0.0000 S   0  0  0  0  0  0  0  0  0  0  0  0
    4.4174   -1.9188    0.0000 C   0  0  0  0  0  0  0  0  0  0  0  0
    6.0692   -1.9063    0.0000 N   0  0  0  0  0  0  0  0  0  0  0  0
    6.8950   -1.9063    0.0000 C   0  0  0  0  0  0  0  0  0  0  0  0
    4.0211   -2.6404    0.0000 C   0  0  0  0  0  0  0  0  0  0  0  0
    5.2474   -2.7447    0.0000 O   0  0  0  0  0  0  0  0  0  0  0  0
    5.2349   -1.0929    0.0000 O   0  0  0  0  0  0  0  0  0  0  0  0
    7.2996   -2.6196    0.0000 C   0  0  0  0  0  0  0  0  0  0  0  0
    3.9960   -1.2181    0.0000 C   0  0  0  0  0  0  0  0  0  0  0  0
    7.2996   -1.1930    0.0000 C   0  0  0  0  0  0  0  0  0  0  0  0
    3.1827   -1.2181    0.0000 C   0  0  0  0  0  0  0  0  0  0  0  0
    8.1214   -1.1888    0.0000 C   0  0  0  0  0  0  0  0  0  0  0  0
    3.1952   -2.6529    0.0000 C   0  0  0  0  0  0  0  0  0  0  0  0
    8.1256   -2.6154    0.0000 C   0  0  0  0  0  0  0  0  0  0  0  0
    2.7698   -1.9396    0.0000 C   0  0  0  0  0  0  0  0  0  0  0  0
    8.5385   -1.9021    0.0000 C   0  0  0  0  0  0  0  0  0  0  0  0
    8.5385   -3.3328    0.0000 Cl  0  0  0  0  0  0  0  0  0  0  0  0
    2.7906   -3.3704    0.0000 Br  0  0  0  0  0  0  0  0  0  0  0  0
    6.8825   -0.4797    0.0000 O   0  0  0  0  0  0  0  0  0  0  0  0
    4.4091   -0.4922    0.0000 O   0  0  0  0  0  0  0  0  0  0  0  0
    5.2349   -0.4922    0.0000 C   0  0  0  0  0  0  0  0  0  0  0  0
  2  1  1  0  0  0  0
  3  1  1  0  0  0  0
  4  3  1  0  0  0  0
  5  2  1  0  0  0  0
  6  1  2  0  0  0  0
  7  1  2  0  0  0  0
  8  4  2  0  0  0  0
  9  2  2  0  0  0  0
 10  4  1  0  0  0  0
 11  9  1  0  0  0  0
 12 10  2  0  0  0  0
 13  5  2  0  0  0  0
 14  8  1  0  0  0  0
 15 11  2  0  0  0  0
 16 12  1  0  0  0  0
 17 14  1  0  0  0  0
 18 13  1  0  0  0  0
 19 10  1  0  0  0  0
 20  9  1  0  0  0  0
 21 20  1  0  0  0  0
 15 13  1  0  0  0  0
 16 14  2  0  0  0  0
M  END
>  <IDNUMBER>
F3386-1377

>  <Chemical_Name>
5-bromo-N-(5-chloro-2-hydroxyphenyl)-2-methoxybenzene-1-sulfonamide

>  <PriceCoeff>
1.00

>  <CAS>
1170183-98-8

>  <MW>
392.65

>  <Description>
solid

>  <FSP3>
0.08

>  <clogP>
3.76

>  <TPSA>
84.01

>  <Acceptor>
5

>  <Donor>
2

>  <RotBonds>
4

>  <HAC>
21

>  <Collection>
General

>  <PPDS>
+

$$$$
F3386-1378
  Mrv2219 10102508112D          

 23 24  0  0  0  0            999 V2000
    5.2375   -1.9167    0.0000 S   0  0  0  0  0  0  0  0  0  0  0  0
    4.4125   -1.9167    0.0000 C   0  0  0  0  0  0  0  0  0  0  0  0
    6.0625   -1.9042    0.0000 N   0  0  0  0  0  0  0  0  0  0  0  0
    6.8875   -1.9042    0.0000 C   0  0  0  0  0  0  0  0  0  0  0  0
    4.0167   -2.6375    0.0000 C   0  0  0  0  0  0  0  0  0  0  0  0
    5.2417   -2.7417    0.0000 O   0  0  0  0  0  0  0  0  0  0  0  0
    5.2292   -1.0917    0.0000 O   0  0  0  0  0  0  0  0  0  0  0  0
    7.2917   -2.6167    0.0000 C   0  0  0  0  0  0  0  0  0  0  0  0
    3.1917   -2.6500    0.0000 C   0  0  0  0  0  0  0  0  0  0  0  0
    3.9917   -1.2167    0.0000 C   0  0  0  0  0  0  0  0  0  0  0  0
    7.2917   -1.1917    0.0000 C   0  0  0  0  0  0  0  0  0  0  0  0
    2.7667   -1.9375    0.0000 C   0  0  0  0  0  0  0  0  0  0  0  0
    3.1792   -1.2167    0.0000 C   0  0  0  0  0  0  0  0  0  0  0  0
    8.1125   -1.1875    0.0000 C   0  0  0  0  0  0  0  0  0  0  0  0
    8.1167   -2.6125    0.0000 C   0  0  0  0  0  0  0  0  0  0  0  0
    2.7875   -3.3667    0.0000 C   0  0  0  0  0  0  0  0  0  0  0  0
    8.5292   -1.9000    0.0000 C   0  0  0  0  0  0  0  0  0  0  0  0
    8.5292   -3.3292    0.0000 Cl  0  0  0  0  0  0  0  0  0  0  0  0
    6.8750   -0.4792    0.0000 O   0  0  0  0  0  0  0  0  0  0  0  0
    4.4042   -0.4917    0.0000 O   0  0  0  0  0  0  0  0  0  0  0  0
    1.9625   -3.3792    0.0000 C   0  0  0  0  0  0  0  0  0  0  0  0
    3.2125   -4.0792    0.0000 C   0  0  0  0  0  0  0  0  0  0  0  0
    5.2292   -0.4917    0.0000 C   0  0  0  0  0  0  0  0  0  0  0  0
  2  1  1  0  0  0  0
  3  1  1  0  0  0  0
  4  3  1  0  0  0  0
  5  2  1  0  0  0  0
  6  1  2  0  0  0  0
  7  1  2  0  0  0  0
  8  4  2  0  0  0  0
  9  5  2  0  0  0  0
 10  2  2  0  0  0  0
 11  4  1  0  0  0  0
 12 13  2  0  0  0  0
 13 10  1  0  0  0  0
 14 11  2  0  0  0  0
 15  8  1  0  0  0  0
 16  9  1  0  0  0  0
 17 14  1  0  0  0  0
 18 15  1  0  0  0  0
 19 11  1  0  0  0  0
 20 10  1  0  0  0  0
 21 16  1  0  0  0  0
 22 16  1  0  0  0  0
 23 20  1  0  0  0  0
  9 12  1  0  0  0  0
 17 15  2  0  0  0  0
M  END
>  <IDNUMBER>
F3386-1378

>  <Chemical_Name>
N-(5-chloro-2-hydroxyphenyl)-2-methoxy-5-(propan-2-yl)benzene-1-sulfonamide

>  <PriceCoeff>
1.00

>  <CAS>
1172438-39-9

>  <MW>
355.84

>  <Description>
solid

>  <FSP3>
0.25

>  <clogP>
4.09

>  <TPSA>
84.01

>  <Acceptor>
5

>  <Donor>
2

>  <RotBonds>
5

>  <HAC>
23

>  <Collection>
General

>  <PPDS>
+

$$$$
F3386-1379
  Mrv2219 10102508112D          

 21 22  0  0  0  0            999 V2000
    4.0250   -0.1796    0.0000 S   0  0  0  0  0  0  0  0  0  0  0  0
    4.8517   -0.1670    0.0000 N   0  0  0  0  0  0  0  0  0  0  0  0
    5.6784   -0.1670    0.0000 C   0  0  0  0  0  0  0  0  0  0  0  0
    3.1983   -0.1879    0.0000 C   0  0  0  0  0  0  0  0  0  0  0  0
    6.0876   -0.8810    0.0000 C   0  0  0  0  0  0  0  0  0  0  0  0
    4.0333   -1.0063    0.0000 O   0  0  0  0  0  0  0  0  0  0  0  0
    4.0125    0.6471    0.0000 O   0  0  0  0  0  0  0  0  0  0  0  0
    6.0793    0.5469    0.0000 C   0  0  0  0  0  0  0  0  0  0  0  0
    2.7975   -0.9061    0.0000 C   0  0  0  0  0  0  0  0  0  0  0  0
    2.7808    0.5219    0.0000 C   0  0  0  0  0  0  0  0  0  0  0  0
    6.9060    0.5469    0.0000 C   0  0  0  0  0  0  0  0  0  0  0  0
    6.9060   -0.8810    0.0000 C   0  0  0  0  0  0  0  0  0  0  0  0
    1.5449   -0.2046    0.0000 C   0  0  0  0  0  0  0  0  0  0  0  0
    7.3193   -0.1670    0.0000 C   0  0  0  0  0  0  0  0  0  0  0  0
    1.9708   -0.9186    0.0000 C   0  0  0  0  0  0  0  0  0  0  0  0
    1.9583    0.5136    0.0000 C   0  0  0  0  0  0  0  0  0  0  0  0
    7.3193   -1.5950    0.0000 Cl  0  0  0  0  0  0  0  0  0  0  0  0
    5.6659    1.2609    0.0000 O   0  0  0  0  0  0  0  0  0  0  0  0
    0.7182   -0.2129    0.0000 O   0  0  0  0  0  0  0  0  0  0  0  0
    0.3006    0.4968    0.0000 C   0  0  0  0  0  0  0  0  0  0  0  0
   -0.5261    0.4968    0.0000 C   0  0  0  0  0  0  0  0  0  0  0  0
  2  1  1  0  0  0  0
  3  2  1  0  0  0  0
  4  1  1  0  0  0  0
  5  3  2  0  0  0  0
  6  1  2  0  0  0  0
  7  1  2  0  0  0  0
  8  3  1  0  0  0  0
  9  4  1  0  0  0  0
 10  4  2  0  0  0  0
 11  8  2  0  0  0  0
 12  5  1  0  0  0  0
 13 16  2  0  0  0  0
 14 11  1  0  0  0  0
 15  9  2  0  0  0  0
 16 10  1  0  0  0  0
 17 12  1  0  0  0  0
 18  8  1  0  0  0  0
 19 13  1  0  0  0  0
 20 19  1  0  0  0  0
 21 20  1  0  0  0  0
 13 15  1  0  0  0  0
 14 12  2  0  0  0  0
M  END
>  <IDNUMBER>
F3386-1379

>  <Chemical_Name>
N-(5-chloro-2-hydroxyphenyl)-4-ethoxybenzene-1-sulfonamide

>  <PriceCoeff>
1.00

>  <CAS>
835887-45-1

>  <MW>
327.78

>  <Description>
solid

>  <FSP3>
0.14

>  <clogP>
3.67

>  <TPSA>
84.01

>  <Acceptor>
5

>  <Donor>
2

>  <RotBonds>
5

>  <HAC>
21

>  <Collection>
General

>  <PPDS>
+

$$$$
F3386-1380
  Mrv2219 10102508112D          

 22 23  0  0  0  0            999 V2000
    5.1250   -1.9375    0.0000 S   0  0  0  0  0  0  0  0  0  0  0  0
    4.3000   -1.9417    0.0000 C   0  0  0  0  0  0  0  0  0  0  0  0
    5.9500   -1.9250    0.0000 N   0  0  0  0  0  0  0  0  0  0  0  0
    6.7750   -1.9250    0.0000 C   0  0  0  0  0  0  0  0  0  0  0  0
    5.1167   -1.1125    0.0000 O   0  0  0  0  0  0  0  0  0  0  0  0
    5.1292   -2.7625    0.0000 O   0  0  0  0  0  0  0  0  0  0  0  0
    7.1792   -2.6375    0.0000 C   0  0  0  0  0  0  0  0  0  0  0  0
    3.8792   -1.2375    0.0000 C   0  0  0  0  0  0  0  0  0  0  0  0
    3.9042   -2.6542    0.0000 C   0  0  0  0  0  0  0  0  0  0  0  0
    7.1792   -1.2125    0.0000 C   0  0  0  0  0  0  0  0  0  0  0  0
    3.0667   -1.2417    0.0000 C   0  0  0  0  0  0  0  0  0  0  0  0
    8.0000   -1.2042    0.0000 C   0  0  0  0  0  0  0  0  0  0  0  0
    8.0042   -2.6292    0.0000 C   0  0  0  0  0  0  0  0  0  0  0  0
    3.0792   -2.6667    0.0000 C   0  0  0  0  0  0  0  0  0  0  0  0
    8.4167   -1.9167    0.0000 C   0  0  0  0  0  0  0  0  0  0  0  0
    2.6542   -1.9542    0.0000 C   0  0  0  0  0  0  0  0  0  0  0  0
    8.4167   -3.3500    0.0000 Cl  0  0  0  0  0  0  0  0  0  0  0  0
    6.7625   -0.5000    0.0000 O   0  0  0  0  0  0  0  0  0  0  0  0
    4.2917   -0.5167    0.0000 O   0  0  0  0  0  0  0  0  0  0  0  0
    5.1167   -0.5125    0.0000 C   0  0  0  0  0  0  0  0  0  0  0  0
    2.6750   -3.3917    0.0000 C   0  0  0  0  0  0  0  0  0  0  0  0
    5.5250    0.2083    0.0000 C   0  0  0  0  0  0  0  0  0  0  0  0
  2  1  1  0  0  0  0
  3  1  1  0  0  0  0
  4  3  1  0  0  0  0
  5  1  2  0  0  0  0
  6  1  2  0  0  0  0
  7  4  2  0  0  0  0
  8  2  2  0  0  0  0
  9  2  1  0  0  0  0
 10  4  1  0  0  0  0
 11  8  1  0  0  0  0
 12 10  2  0  0  0  0
 13  7  1  0  0  0  0
 14  9  2  0  0  0  0
 15 12  1  0  0  0  0
 16 14  1  0  0  0  0
 17 13  1  0  0  0  0
 18 10  1  0  0  0  0
 19  8  1  0  0  0  0
 20 19  1  0  0  0  0
 21 14  1  0  0  0  0
 22 20  1  0  0  0  0
 16 11  2  0  0  0  0
 15 13  2  0  0  0  0
M  END
>  <IDNUMBER>
F3386-1380

>  <Chemical_Name>
N-(5-chloro-2-hydroxyphenyl)-2-ethoxy-5-methylbenzene-1-sulfonamide

>  <PriceCoeff>
1.00

>  <CAS>
1171535-55-9

>  <MW>
341.81

>  <Description>
solid

>  <FSP3>
0.20

>  <clogP>
3.69

>  <TPSA>
84.01

>  <Acceptor>
5

>  <Donor>
2

>  <RotBonds>
5

>  <HAC>
22

>  <Collection>
General

>  <PPDS>
+

$$$$
F3386-1381
  Mrv2219 10102508112D          

 22 23  0  0  0  0            999 V2000
    5.1356   -1.9415    0.0000 S   0  0  0  0  0  0  0  0  0  0  0  0
    4.3089   -1.9457    0.0000 C   0  0  0  0  0  0  0  0  0  0  0  0
    5.9623   -1.9290    0.0000 N   0  0  0  0  0  0  0  0  0  0  0  0
    3.9123   -2.6597    0.0000 C   0  0  0  0  0  0  0  0  0  0  0  0
    6.7890   -1.9290    0.0000 C   0  0  0  0  0  0  0  0  0  0  0  0
    3.8872   -1.2401    0.0000 C   0  0  0  0  0  0  0  0  0  0  0  0
    3.0856   -2.6722    0.0000 C   0  0  0  0  0  0  0  0  0  0  0  0
    5.1398   -2.7682    0.0000 O   0  0  0  0  0  0  0  0  0  0  0  0
    5.1273   -1.1148    0.0000 O   0  0  0  0  0  0  0  0  0  0  0  0
    7.1941   -2.6430    0.0000 C   0  0  0  0  0  0  0  0  0  0  0  0
    3.0731   -1.2443    0.0000 C   0  0  0  0  0  0  0  0  0  0  0  0
    2.6597   -1.9583    0.0000 C   0  0  0  0  0  0  0  0  0  0  0  0
    7.1941   -1.2150    0.0000 C   0  0  0  0  0  0  0  0  0  0  0  0
    8.0166   -1.2067    0.0000 C   0  0  0  0  0  0  0  0  0  0  0  0
    8.0208   -2.6346    0.0000 C   0  0  0  0  0  0  0  0  0  0  0  0
    2.6805   -3.3987    0.0000 Cl  0  0  0  0  0  0  0  0  0  0  0  0
    4.3006   -0.5178    0.0000 O   0  0  0  0  0  0  0  0  0  0  0  0
    8.4341   -1.9207    0.0000 C   0  0  0  0  0  0  0  0  0  0  0  0
    8.4341   -3.3569    0.0000 Cl  0  0  0  0  0  0  0  0  0  0  0  0
    6.7765   -0.5010    0.0000 O   0  0  0  0  0  0  0  0  0  0  0  0
    1.8330   -1.9708    0.0000 C   0  0  0  0  0  0  0  0  0  0  0  0
    5.1273   -0.5136    0.0000 C   0  0  0  0  0  0  0  0  0  0  0  0
  2  1  1  0  0  0  0
  3  1  1  0  0  0  0
  4  2  1  0  0  0  0
  5  3  1  0  0  0  0
  6  2  2  0  0  0  0
  7  4  2  0  0  0  0
  8  1  2  0  0  0  0
  9  1  2  0  0  0  0
 10  5  2  0  0  0  0
 11  6  1  0  0  0  0
 12 11  2  0  0  0  0
 13  5  1  0  0  0  0
 14 13  2  0  0  0  0
 15 10  1  0  0  0  0
 16  7  1  0  0  0  0
 17  6  1  0  0  0  0
 18 14  1  0  0  0  0
 19 15  1  0  0  0  0
 20 13  1  0  0  0  0
 21 12  1  0  0  0  0
 22 17  1  0  0  0  0
  7 12  1  0  0  0  0
 18 15  2  0  0  0  0
M  END
>  <IDNUMBER>
F3386-1381

>  <Chemical_Name>
5-chloro-N-(5-chloro-2-hydroxyphenyl)-2-methoxy-4-methylbenzene-1-sulfonamide

>  <PriceCoeff>
1.00

>  <CAS>
1172323-10-2

>  <MW>
362.23

>  <Description>
solid

>  <FSP3>
0.14

>  <clogP>
4.11

>  <TPSA>
84.01

>  <Acceptor>
5

>  <Donor>
2

>  <RotBonds>
4

>  <HAC>
22

>  <Collection>
General

>  <PPDS>
+

$$$$
F3386-1382
  Mrv2219 10102508112D          

 22 23  0  0  0  0            999 V2000
    5.5375   -1.9167    0.0000 S   0  0  0  0  0  0  0  0  0  0  0  0
    4.7125   -1.9167    0.0000 C   0  0  0  0  0  0  0  0  0  0  0  0
    6.3625   -1.9042    0.0000 N   0  0  0  0  0  0  0  0  0  0  0  0
    4.3167   -2.6375    0.0000 C   0  0  0  0  0  0  0  0  0  0  0  0
    7.1875   -1.9042    0.0000 C   0  0  0  0  0  0  0  0  0  0  0  0
    4.2917   -1.2167    0.0000 C   0  0  0  0  0  0  0  0  0  0  0  0
    3.4917   -2.6500    0.0000 C   0  0  0  0  0  0  0  0  0  0  0  0
    5.5417   -2.7417    0.0000 O   0  0  0  0  0  0  0  0  0  0  0  0
    5.5292   -1.0917    0.0000 O   0  0  0  0  0  0  0  0  0  0  0  0
    7.5917   -2.6167    0.0000 C   0  0  0  0  0  0  0  0  0  0  0  0
    3.4792   -1.2167    0.0000 C   0  0  0  0  0  0  0  0  0  0  0  0
    3.0667   -1.9375    0.0000 C   0  0  0  0  0  0  0  0  0  0  0  0
    7.5917   -1.1917    0.0000 C   0  0  0  0  0  0  0  0  0  0  0  0
    8.4125   -1.1875    0.0000 C   0  0  0  0  0  0  0  0  0  0  0  0
    8.4167   -2.6125    0.0000 C   0  0  0  0  0  0  0  0  0  0  0  0
    3.0875   -3.3667    0.0000 Br  0  0  0  0  0  0  0  0  0  0  0  0
    4.7042   -0.4917    0.0000 O   0  0  0  0  0  0  0  0  0  0  0  0
    8.8292   -1.9000    0.0000 C   0  0  0  0  0  0  0  0  0  0  0  0
    8.8292   -3.3292    0.0000 Cl  0  0  0  0  0  0  0  0  0  0  0  0
    7.1750   -0.4792    0.0000 O   0  0  0  0  0  0  0  0  0  0  0  0
    2.2417   -1.9417    0.0000 C   0  0  0  0  0  0  0  0  0  0  0  0
    5.5292   -0.4917    0.0000 C   0  0  0  0  0  0  0  0  0  0  0  0
  2  1  1  0  0  0  0
  3  1  1  0  0  0  0
  4  2  1  0  0  0  0
  5  3  1  0  0  0  0
  6  2  2  0  0  0  0
  7  4  2  0  0  0  0
  8  1  2  0  0  0  0
  9  1  2  0  0  0  0
 10  5  2  0  0  0  0
 11  6  1  0  0  0  0
 12 11  2  0  0  0  0
 13  5  1  0  0  0  0
 14 13  2  0  0  0  0
 15 10  1  0  0  0  0
 16  7  1  0  0  0  0
 17  6  1  0  0  0  0
 18 14  1  0  0  0  0
 19 15  1  0  0  0  0
 20 13  1  0  0  0  0
 21 12  1  0  0  0  0
 22 17  1  0  0  0  0
  7 12  1  0  0  0  0
 18 15  2  0  0  0  0
M  END
>  <IDNUMBER>
F3386-1382

>  <Chemical_Name>
5-bromo-N-(5-chloro-2-hydroxyphenyl)-2-methoxy-4-methylbenzene-1-sulfonamide

>  <PriceCoeff>
1.00

>  <CAS>
1172897-00-5

>  <MW>
406.68

>  <Description>
solid

>  <FSP3>
0.14

>  <clogP>
4.26

>  <TPSA>
84.01

>  <Acceptor>
5

>  <Donor>
2

>  <RotBonds>
4

>  <HAC>
22

>  <Collection>
General

>  <PPDS>
+

$$$$
F3386-1383
  Mrv2219 10102508112D          

 21 22  0  0  0  0            999 V2000
    5.5435   -1.9188    0.0000 S   0  0  0  0  0  0  0  0  0  0  0  0
    6.3695   -1.9063    0.0000 N   0  0  0  0  0  0  0  0  0  0  0  0
    7.1953   -1.9063    0.0000 C   0  0  0  0  0  0  0  0  0  0  0  0
    4.7177   -1.9188    0.0000 C   0  0  0  0  0  0  0  0  0  0  0  0
    4.3215   -2.6404    0.0000 C   0  0  0  0  0  0  0  0  0  0  0  0
    7.6001   -2.6196    0.0000 C   0  0  0  0  0  0  0  0  0  0  0  0
    5.5352   -1.0929    0.0000 O   0  0  0  0  0  0  0  0  0  0  0  0
    5.5477   -2.7447    0.0000 O   0  0  0  0  0  0  0  0  0  0  0  0
    3.4955   -2.6529    0.0000 C   0  0  0  0  0  0  0  0  0  0  0  0
    7.6001   -1.1930    0.0000 C   0  0  0  0  0  0  0  0  0  0  0  0
    3.0701   -1.9396    0.0000 C   0  0  0  0  0  0  0  0  0  0  0  0
    4.2964   -1.2181    0.0000 C   0  0  0  0  0  0  0  0  0  0  0  0
    3.4830   -1.2181    0.0000 C   0  0  0  0  0  0  0  0  0  0  0  0
    8.4217   -1.1888    0.0000 C   0  0  0  0  0  0  0  0  0  0  0  0
    8.4259   -2.6154    0.0000 C   0  0  0  0  0  0  0  0  0  0  0  0
    2.2441   -1.9438    0.0000 Cl  0  0  0  0  0  0  0  0  0  0  0  0
    8.8388   -1.9021    0.0000 C   0  0  0  0  0  0  0  0  0  0  0  0
    3.0909   -3.3704    0.0000 O   0  0  0  0  0  0  0  0  0  0  0  0
    8.8388   -3.3328    0.0000 Cl  0  0  0  0  0  0  0  0  0  0  0  0
    7.1828   -0.4797    0.0000 O   0  0  0  0  0  0  0  0  0  0  0  0
    2.2566   -3.3829    0.0000 C   0  0  0  0  0  0  0  0  0  0  0  0
  2  1  1  0  0  0  0
  3  2  1  0  0  0  0
  4  1  1  0  0  0  0
  5  4  1  0  0  0  0
  6  3  2  0  0  0  0
  7  1  2  0  0  0  0
  8  1  2  0  0  0  0
  9  5  2  0  0  0  0
 10  3  1  0  0  0  0
 11 13  2  0  0  0  0
 12  4  2  0  0  0  0
 13 12  1  0  0  0  0
 14 10  2  0  0  0  0
 15  6  1  0  0  0  0
 16 11  1  0  0  0  0
 17 14  1  0  0  0  0
 18  9  1  0  0  0  0
 19 15  1  0  0  0  0
 20 10  1  0  0  0  0
 21 18  1  0  0  0  0
 11  9  1  0  0  0  0
 17 15  2  0  0  0  0
M  END
>  <IDNUMBER>
F3386-1383

>  <Chemical_Name>
4-chloro-N-(5-chloro-2-hydroxyphenyl)-3-methoxybenzene-1-sulfonamide

>  <PriceCoeff>
1.00

>  <CAS>
1172913-35-7

>  <MW>
348.20

>  <Description>
solid

>  <FSP3>
0.08

>  <clogP>
3.86

>  <TPSA>
84.01

>  <Acceptor>
5

>  <Donor>
2

>  <RotBonds>
4

>  <HAC>
21

>  <Collection>
General

>  <PPDS>
+

$$$$
F3386-1384
  Mrv2219 10102508112D          

 23 25  0  0  0  0            999 V2000
    5.5375   -1.9167    0.0000 S   0  0  0  0  0  0  0  0  0  0  0  0
    6.3625   -1.9042    0.0000 N   0  0  0  0  0  0  0  0  0  0  0  0
    7.1875   -1.9042    0.0000 C   0  0  0  0  0  0  0  0  0  0  0  0
    4.7125   -1.9167    0.0000 C   0  0  0  0  0  0  0  0  0  0  0  0
    2.2292   -1.9500    0.0000 O   0  0  0  0  0  0  0  0  0  0  0  0
    1.8167   -1.2292    0.0000 C   0  0  0  0  0  0  0  0  0  0  0  0
    3.4792   -1.2167    0.0000 C   0  0  0  0  0  0  0  0  0  0  0  0
    3.0667   -1.9417    0.0000 C   0  0  0  0  0  0  0  0  0  0  0  0
    3.0625   -0.5042    0.0000 C   0  0  0  0  0  0  0  0  0  0  0  0
    7.5917   -2.6167    0.0000 C   0  0  0  0  0  0  0  0  0  0  0  0
    5.5292   -1.0917    0.0000 O   0  0  0  0  0  0  0  0  0  0  0  0
    5.5417   -2.7417    0.0000 O   0  0  0  0  0  0  0  0  0  0  0  0
    4.2917   -1.2167    0.0000 C   0  0  0  0  0  0  0  0  0  0  0  0
    2.2292   -0.5042    0.0000 C   0  0  0  0  0  0  0  0  0  0  0  0
    7.5917   -1.1917    0.0000 C   0  0  0  0  0  0  0  0  0  0  0  0
    4.3167   -2.6375    0.0000 C   0  0  0  0  0  0  0  0  0  0  0  0
    0.9917   -1.2292    0.0000 O   0  0  0  0  0  0  0  0  0  0  0  0
    3.4917   -2.6500    0.0000 C   0  0  0  0  0  0  0  0  0  0  0  0
    8.4125   -1.1875    0.0000 C   0  0  0  0  0  0  0  0  0  0  0  0
    8.4167   -2.6125    0.0000 C   0  0  0  0  0  0  0  0  0  0  0  0
    8.8292   -1.9000    0.0000 C   0  0  0  0  0  0  0  0  0  0  0  0
    8.8292   -3.3292    0.0000 Cl  0  0  0  0  0  0  0  0  0  0  0  0
    7.1750   -0.4792    0.0000 O   0  0  0  0  0  0  0  0  0  0  0  0
  2  1  1  0  0  0  0
  3  2  1  0  0  0  0
  4  1  1  0  0  0  0
  5  8  1  0  0  0  0
  6  5  1  0  0  0  0
  7 13  1  0  0  0  0
  8 18  1  0  0  0  0
  9  7  1  0  0  0  0
 10  3  2  0  0  0  0
 11  1  2  0  0  0  0
 12  1  2  0  0  0  0
 13  4  2  0  0  0  0
 14  9  2  0  0  0  0
 15  3  1  0  0  0  0
 16  4  1  0  0  0  0
 17  6  2  0  0  0  0
 18 16  2  0  0  0  0
 19 15  2  0  0  0  0
 20 10  1  0  0  0  0
 21 19  1  0  0  0  0
 22 20  1  0  0  0  0
 23 15  1  0  0  0  0
  8  7  2  0  0  0  0
  6 14  1  0  0  0  0
 21 20  2  0  0  0  0
M  END
>  <IDNUMBER>
F3386-1384

>  <Chemical_Name>
N-(5-chloro-2-hydroxyphenyl)-2-oxo-2H-chromene-6-sulfonamide

>  <PriceCoeff>
1.00

>  <CAS>
1170655-93-2

>  <MW>
351.76

>  <Description>
solid

>  <FSP3>
0.00

>  <clogP>
3.10

>  <TPSA>
101.08

>  <Acceptor>
6

>  <Donor>
2

>  <RotBonds>
3

>  <HAC>
23

>  <Collection>
General

>  <PPDS>
+

$$$$
F3386-1385
  Mrv2219 10102508112D          

 22 23  0  0  0  0            999 V2000
    5.1250   -1.9375    0.0000 S   0  0  0  0  0  0  0  0  0  0  0  0
    4.3000   -1.9417    0.0000 C   0  0  0  0  0  0  0  0  0  0  0  0
    5.9500   -1.9250    0.0000 N   0  0  0  0  0  0  0  0  0  0  0  0
    6.7750   -1.9250    0.0000 C   0  0  0  0  0  0  0  0  0  0  0  0
    5.1167   -1.1125    0.0000 O   0  0  0  0  0  0  0  0  0  0  0  0
    5.1292   -2.7625    0.0000 O   0  0  0  0  0  0  0  0  0  0  0  0
    7.1792   -2.6375    0.0000 C   0  0  0  0  0  0  0  0  0  0  0  0
    3.8792   -1.2375    0.0000 C   0  0  0  0  0  0  0  0  0  0  0  0
    3.9042   -2.6542    0.0000 C   0  0  0  0  0  0  0  0  0  0  0  0
    7.1792   -1.2125    0.0000 C   0  0  0  0  0  0  0  0  0  0  0  0
    3.0667   -1.2417    0.0000 C   0  0  0  0  0  0  0  0  0  0  0  0
    8.0000   -1.2042    0.0000 C   0  0  0  0  0  0  0  0  0  0  0  0
    8.0042   -2.6292    0.0000 C   0  0  0  0  0  0  0  0  0  0  0  0
    3.0792   -2.6667    0.0000 C   0  0  0  0  0  0  0  0  0  0  0  0
    8.4167   -1.9167    0.0000 C   0  0  0  0  0  0  0  0  0  0  0  0
    2.6542   -1.9542    0.0000 C   0  0  0  0  0  0  0  0  0  0  0  0
    8.4167   -3.3500    0.0000 Cl  0  0  0  0  0  0  0  0  0  0  0  0
    6.7625   -0.5000    0.0000 O   0  0  0  0  0  0  0  0  0  0  0  0
    4.2917   -0.5167    0.0000 O   0  0  0  0  0  0  0  0  0  0  0  0
    2.6750   -3.3917    0.0000 C   0  0  0  0  0  0  0  0  0  0  0  0
    5.1167   -0.5125    0.0000 C   0  0  0  0  0  0  0  0  0  0  0  0
    1.8500   -3.4042    0.0000 C   0  0  0  0  0  0  0  0  0  0  0  0
  2  1  1  0  0  0  0
  3  1  1  0  0  0  0
  4  3  1  0  0  0  0
  5  1  2  0  0  0  0
  6  1  2  0  0  0  0
  7  4  2  0  0  0  0
  8  2  2  0  0  0  0
  9  2  1  0  0  0  0
 10  4  1  0  0  0  0
 11  8  1  0  0  0  0
 12 10  2  0  0  0  0
 13  7  1  0  0  0  0
 14  9  2  0  0  0  0
 15 12  1  0  0  0  0
 16 14  1  0  0  0  0
 17 13  1  0  0  0  0
 18 10  1  0  0  0  0
 19  8  1  0  0  0  0
 20 14  1  0  0  0  0
 21 19  1  0  0  0  0
 22 20  1  0  0  0  0
 16 11  2  0  0  0  0
 15 13  2  0  0  0  0
M  END
>  <IDNUMBER>
F3386-1385

>  <Chemical_Name>
N-(5-chloro-2-hydroxyphenyl)-5-ethyl-2-methoxybenzene-1-sulfonamide

>  <PriceCoeff>
1.00

>  <CAS>
1171564-02-5

>  <MW>
341.81

>  <Description>
solid

>  <FSP3>
0.20

>  <clogP>
3.69

>  <TPSA>
84.01

>  <Acceptor>
5

>  <Donor>
2

>  <RotBonds>
5

>  <HAC>
22

>  <Collection>
General

>  <PPDS>
+

$$$$
F3386-1386
  Mrv2219 10102508112D          

 23 24  0  0  0  0            999 V2000
    5.1356   -1.9415    0.0000 S   0  0  0  0  0  0  0  0  0  0  0  0
    4.3089   -1.9457    0.0000 C   0  0  0  0  0  0  0  0  0  0  0  0
    5.9623   -1.9290    0.0000 N   0  0  0  0  0  0  0  0  0  0  0  0
    3.9123   -2.6597    0.0000 C   0  0  0  0  0  0  0  0  0  0  0  0
    6.7890   -1.9290    0.0000 C   0  0  0  0  0  0  0  0  0  0  0  0
    3.8872   -1.2401    0.0000 C   0  0  0  0  0  0  0  0  0  0  0  0
    3.0856   -2.6722    0.0000 C   0  0  0  0  0  0  0  0  0  0  0  0
    5.1398   -2.7682    0.0000 O   0  0  0  0  0  0  0  0  0  0  0  0
    5.1273   -1.1148    0.0000 O   0  0  0  0  0  0  0  0  0  0  0  0
    7.1941   -2.6430    0.0000 C   0  0  0  0  0  0  0  0  0  0  0  0
    3.0731   -1.2443    0.0000 C   0  0  0  0  0  0  0  0  0  0  0  0
    2.6597   -1.9583    0.0000 C   0  0  0  0  0  0  0  0  0  0  0  0
    7.1941   -1.2150    0.0000 C   0  0  0  0  0  0  0  0  0  0  0  0
    8.0166   -1.2067    0.0000 C   0  0  0  0  0  0  0  0  0  0  0  0
    8.0208   -2.6346    0.0000 C   0  0  0  0  0  0  0  0  0  0  0  0
    4.3006   -0.5178    0.0000 O   0  0  0  0  0  0  0  0  0  0  0  0
    2.6805   -3.3987    0.0000 O   0  0  0  0  0  0  0  0  0  0  0  0
    8.4341   -1.9207    0.0000 C   0  0  0  0  0  0  0  0  0  0  0  0
    8.4341   -3.3569    0.0000 Cl  0  0  0  0  0  0  0  0  0  0  0  0
    6.7765   -0.5010    0.0000 O   0  0  0  0  0  0  0  0  0  0  0  0
    1.8330   -1.9708    0.0000 C   0  0  0  0  0  0  0  0  0  0  0  0
    5.1273   -0.5136    0.0000 C   0  0  0  0  0  0  0  0  0  0  0  0
    1.8538   -3.4113    0.0000 C   0  0  0  0  0  0  0  0  0  0  0  0
  2  1  1  0  0  0  0
  3  1  1  0  0  0  0
  4  2  1  0  0  0  0
  5  3  1  0  0  0  0
  6  2  2  0  0  0  0
  7  4  2  0  0  0  0
  8  1  2  0  0  0  0
  9  1  2  0  0  0  0
 10  5  2  0  0  0  0
 11  6  1  0  0  0  0
 12 11  2  0  0  0  0
 13  5  1  0  0  0  0
 14 13  2  0  0  0  0
 15 10  1  0  0  0  0
 16  6  1  0  0  0  0
 17  7  1  0  0  0  0
 18 14  1  0  0  0  0
 19 15  1  0  0  0  0
 20 13  1  0  0  0  0
 21 12  1  0  0  0  0
 22 16  1  0  0  0  0
 23 17  1  0  0  0  0
  7 12  1  0  0  0  0
 18 15  2  0  0  0  0
M  END
>  <IDNUMBER>
F3386-1386

>  <Chemical_Name>
N-(5-chloro-2-hydroxyphenyl)-2,5-dimethoxy-4-methylbenzene-1-sulfonamide

>  <PriceCoeff>
1.00

>  <CAS>
1170882-42-4

>  <MW>
357.81

>  <Description>
solid

>  <FSP3>
0.20

>  <clogP>
3.17

>  <TPSA>
93.24

>  <Acceptor>
6

>  <Donor>
2

>  <RotBonds>
5

>  <HAC>
23

>  <Collection>
General

>  <PPDS>
+

$$$$
F3386-1387
  Mrv2219 10102508112D          

 23 24  0  0  0  0            999 V2000
    5.5375   -1.9167    0.0000 S   0  0  0  0  0  0  0  0  0  0  0  0
    4.7125   -1.9167    0.0000 C   0  0  0  0  0  0  0  0  0  0  0  0
    6.3625   -1.9042    0.0000 N   0  0  0  0  0  0  0  0  0  0  0  0
    4.3167   -2.6375    0.0000 C   0  0  0  0  0  0  0  0  0  0  0  0
    7.1875   -1.9042    0.0000 C   0  0  0  0  0  0  0  0  0  0  0  0
    4.2917   -1.2167    0.0000 C   0  0  0  0  0  0  0  0  0  0  0  0
    3.4792   -1.2167    0.0000 C   0  0  0  0  0  0  0  0  0  0  0  0
    3.4917   -2.6500    0.0000 C   0  0  0  0  0  0  0  0  0  0  0  0
    3.0667   -1.9375    0.0000 C   0  0  0  0  0  0  0  0  0  0  0  0
    5.5417   -2.7417    0.0000 O   0  0  0  0  0  0  0  0  0  0  0  0
    5.5292   -1.0917    0.0000 O   0  0  0  0  0  0  0  0  0  0  0  0
    7.5917   -2.6167    0.0000 C   0  0  0  0  0  0  0  0  0  0  0  0
    7.5917   -1.1917    0.0000 C   0  0  0  0  0  0  0  0  0  0  0  0
    8.4125   -1.1875    0.0000 C   0  0  0  0  0  0  0  0  0  0  0  0
    8.4167   -2.6125    0.0000 C   0  0  0  0  0  0  0  0  0  0  0  0
    2.2417   -1.9417    0.0000 Cl  0  0  0  0  0  0  0  0  0  0  0  0
    4.7042   -0.4917    0.0000 O   0  0  0  0  0  0  0  0  0  0  0  0
    3.0875   -3.3667    0.0000 O   0  0  0  0  0  0  0  0  0  0  0  0
    8.8292   -1.9000    0.0000 C   0  0  0  0  0  0  0  0  0  0  0  0
    8.8292   -3.3292    0.0000 Cl  0  0  0  0  0  0  0  0  0  0  0  0
    7.1750   -0.4792    0.0000 O   0  0  0  0  0  0  0  0  0  0  0  0
    5.5292   -0.4917    0.0000 C   0  0  0  0  0  0  0  0  0  0  0  0
    2.2542   -3.3792    0.0000 C   0  0  0  0  0  0  0  0  0  0  0  0
  2  1  1  0  0  0  0
  3  1  1  0  0  0  0
  4  2  1  0  0  0  0
  5  3  1  0  0  0  0
  6  2  2  0  0  0  0
  7  6  1  0  0  0  0
  8  4  2  0  0  0  0
  9  7  2  0  0  0  0
 10  1  2  0  0  0  0
 11  1  2  0  0  0  0
 12  5  2  0  0  0  0
 13  5  1  0  0  0  0
 14 13  2  0  0  0  0
 15 12  1  0  0  0  0
 16  9  1  0  0  0  0
 17  6  1  0  0  0  0
 18  8  1  0  0  0  0
 19 14  1  0  0  0  0
 20 15  1  0  0  0  0
 21 13  1  0  0  0  0
 22 17  1  0  0  0  0
 23 18  1  0  0  0  0
  8  9  1  0  0  0  0
 19 15  2  0  0  0  0
M  END
>  <IDNUMBER>
F3386-1387

>  <Chemical_Name>
4-chloro-N-(5-chloro-2-hydroxyphenyl)-2,5-dimethoxybenzene-1-sulfonamide

>  <PriceCoeff>
1.00

>  <CAS>
1171464-44-0

>  <MW>
378.23

>  <Description>
solid

>  <FSP3>
0.14

>  <clogP>
3.37

>  <TPSA>
93.24

>  <Acceptor>
6

>  <Donor>
2

>  <RotBonds>
5

>  <HAC>
23

>  <Collection>
General

>  <PPDS>
+

$$$$
F3386-1389
  Mrv2219 10102508112D          

 24 26  0  0  0  0            999 V2000
    6.1565   -1.6298    0.0000 S   0  0  0  0  0  0  0  0  0  0  0  0
    5.3312   -1.6381    0.0000 C   0  0  0  0  0  0  0  0  0  0  0  0
    6.9818   -1.6173    0.0000 N   0  0  0  0  0  0  0  0  0  0  0  0
    7.8072   -1.6173    0.0000 C   0  0  0  0  0  0  0  0  0  0  0  0
    4.9394   -2.3509    0.0000 C   0  0  0  0  0  0  0  0  0  0  0  0
    4.1141   -2.3676    0.0000 C   0  0  0  0  0  0  0  0  0  0  0  0
    6.1523   -0.8045    0.0000 O   0  0  0  0  0  0  0  0  0  0  0  0
    6.1690   -2.4551    0.0000 O   0  0  0  0  0  0  0  0  0  0  0  0
    8.2198   -2.3301    0.0000 C   0  0  0  0  0  0  0  0  0  0  0  0
    4.9186   -0.9296    0.0000 C   0  0  0  0  0  0  0  0  0  0  0  0
    8.2156   -0.9045    0.0000 C   0  0  0  0  0  0  0  0  0  0  0  0
    3.6889   -1.6548    0.0000 C   0  0  0  0  0  0  0  0  0  0  0  0
    4.1016   -0.9379    0.0000 C   0  0  0  0  0  0  0  0  0  0  0  0
    9.0326   -0.9045    0.0000 C   0  0  0  0  0  0  0  0  0  0  0  0
    9.0409   -2.3301    0.0000 C   0  0  0  0  0  0  0  0  0  0  0  0
    9.4536   -1.6173    0.0000 C   0  0  0  0  0  0  0  0  0  0  0  0
    9.4536   -3.0429    0.0000 Cl  0  0  0  0  0  0  0  0  0  0  0  0
    7.7946   -0.1918    0.0000 O   0  0  0  0  0  0  0  0  0  0  0  0
    2.8636   -1.6631    0.0000 O   0  0  0  0  0  0  0  0  0  0  0  0
    5.3687   -3.0554    0.0000 C   0  0  0  0  0  0  0  0  0  0  0  0
    3.7139   -3.0887    0.0000 C   0  0  0  0  0  0  0  0  0  0  0  0
    2.4426   -0.9546    0.0000 C   0  0  0  0  0  0  0  0  0  0  0  0
    4.9686   -3.7806    0.0000 C   0  0  0  0  0  0  0  0  0  0  0  0
    4.1433   -3.7931    0.0000 C   0  0  0  0  0  0  0  0  0  0  0  0
  2  1  1  0  0  0  0
  3  1  1  0  0  0  0
  4  3  1  0  0  0  0
  5  2  1  0  0  0  0
  6  5  1  0  0  0  0
  7  1  2  0  0  0  0
  8  1  2  0  0  0  0
  9  4  2  0  0  0  0
 10  2  2  0  0  0  0
 11  4  1  0  0  0  0
 12 13  2  0  0  0  0
 13 10  1  0  0  0  0
 14 11  2  0  0  0  0
 15  9  1  0  0  0  0
 16 14  1  0  0  0  0
 17 15  1  0  0  0  0
 18 11  1  0  0  0  0
 19 12  1  0  0  0  0
 20  5  2  0  0  0  0
 21  6  2  0  0  0  0
 22 19  1  0  0  0  0
 23 20  1  0  0  0  0
 24 23  2  0  0  0  0
  6 12  1  0  0  0  0
 16 15  2  0  0  0  0
 24 21  1  0  0  0  0
M  END
>  <IDNUMBER>
F3386-1389

>  <Chemical_Name>
N-(5-chloro-2-hydroxyphenyl)-4-methoxynaphthalene-1-sulfonamide

>  <PriceCoeff>
1.00

>  <CAS>
1172349-44-8

>  <MW>
363.82

>  <Description>
solid

>  <FSP3>
0.06

>  <clogP>
4.31

>  <TPSA>
84.01

>  <Acceptor>
5

>  <Donor>
2

>  <RotBonds>
4

>  <HAC>
24

>  <Collection>
General

>  <PPDS>
+

$$$$
F3386-3206
  Mrv2219 10102508112D          

 23 25  0  0  0  0            999 V2000
    5.3042   -0.8417    0.0000 C   0  0  0  0  0  0  0  0  0  0  0  0
    6.1292   -0.8417    0.0000 C   0  0  0  0  0  0  0  0  0  0  0  0
    4.9042   -0.1250    0.0000 N   0  0  0  0  0  0  0  0  0  0  0  0
    5.3167    0.5875    0.0000 N   0  0  0  0  0  0  0  0  0  0  0  0
    6.5500   -0.1375    0.0000 C   0  0  0  0  0  0  0  0  0  0  0  0
    6.1417    0.5833    0.0000 C   0  0  0  0  0  0  0  0  0  0  0  0
    7.3750   -0.1417    0.0000 N   0  0  0  0  0  0  0  0  0  0  0  0
    4.8917   -1.5542    0.0000 O   0  0  0  0  0  0  0  0  0  0  0  0
    4.0792   -0.1167    0.0000 C   0  0  0  0  0  0  0  0  0  0  0  0
    6.5375   -1.5667    0.0000 Cl  0  0  0  0  0  0  0  0  0  0  0  0
    7.7792   -0.8625    0.0000 C   0  0  0  0  0  0  0  0  0  0  0  0
    8.6042   -0.8667    0.0000 C   0  0  0  0  0  0  0  0  0  0  0  0
   10.2542   -0.8875    0.0000 C   0  0  0  0  0  0  0  0  0  0  0  0
    9.0042   -1.5917    0.0000 C   0  0  0  0  0  0  0  0  0  0  0  0
    9.0167   -0.1583    0.0000 C   0  0  0  0  0  0  0  0  0  0  0  0
    9.8417   -0.1667    0.0000 C   0  0  0  0  0  0  0  0  0  0  0  0
    9.8292   -1.5917    0.0000 C   0  0  0  0  0  0  0  0  0  0  0  0
    3.6667   -0.8292    0.0000 C   0  0  0  0  0  0  0  0  0  0  0  0
    3.6667    0.6000    0.0000 C   0  0  0  0  0  0  0  0  0  0  0  0
   11.0792   -0.8917    0.0000 C   0  0  0  0  0  0  0  0  0  0  0  0
    2.8417   -0.8292    0.0000 C   0  0  0  0  0  0  0  0  0  0  0  0
    2.8417    0.6083    0.0000 C   0  0  0  0  0  0  0  0  0  0  0  0
    2.4292   -0.1042    0.0000 C   0  0  0  0  0  0  0  0  0  0  0  0
  2  1  1  0  0  0  0
  3  1  1  0  0  0  0
  4  3  1  0  0  0  0
  5  2  2  0  0  0  0
  6  4  2  0  0  0  0
  7  5  1  0  0  0  0
  8  1  2  0  0  0  0
  9  3  1  0  0  0  0
 10  2  1  0  0  0  0
 11  7  1  0  0  0  0
 12 11  1  0  0  0  0
 13 16  1  0  0  0  0
 14 12  2  0  0  0  0
 15 12  1  0  0  0  0
 16 15  2  0  0  0  0
 17 14  1  0  0  0  0
 18  9  1  0  0  0  0
 19  9  2  0  0  0  0
 20 13  1  0  0  0  0
 21 18  2  0  0  0  0
 22 19  1  0  0  0  0
 23 22  2  0  0  0  0
  5  6  1  0  0  0  0
 23 21  1  0  0  0  0
 17 13  2  0  0  0  0
M  END
>  <IDNUMBER>
F3386-3206

>  <Chemical_Name>
4-chloro-5-{[(4-methylphenyl)methyl]amino}-2-phenyl-2,3-dihydropyridazin-3-one

>  <PriceCoeff>
1.00

>  <CAS>
923812-87-7

>  <MW>
325.79

>  <Description>
solid

>  <FSP3>
0.11

>  <clogP>
3.97

>  <TPSA>
44.70

>  <Acceptor>
2

>  <Donor>
2

>  <RotBonds>
4

>  <HAC>
23

>  <Collection>
General

$$$$
F3386-3208
  Mrv2219 10102508112D          

 19 20  0  0  0  0            999 V2000
    4.6417   -1.3292    0.0000 C   0  0  0  0  0  0  0  0  0  0  0  0
    5.4625   -1.3292    0.0000 C   0  0  0  0  0  0  0  0  0  0  0  0
    4.2375   -0.6125    0.0000 N   0  0  0  0  0  0  0  0  0  0  0  0
    4.6500    0.1000    0.0000 N   0  0  0  0  0  0  0  0  0  0  0  0
    5.8792   -0.6250    0.0000 C   0  0  0  0  0  0  0  0  0  0  0  0
    5.4750    0.0958    0.0000 C   0  0  0  0  0  0  0  0  0  0  0  0
    4.2250   -2.0417    0.0000 O   0  0  0  0  0  0  0  0  0  0  0  0
    3.4125   -0.6042    0.0000 C   0  0  0  0  0  0  0  0  0  0  0  0
    5.8667   -2.0542    0.0000 Cl  0  0  0  0  0  0  0  0  0  0  0  0
    6.7042   -0.6292    0.0000 N   0  0  0  0  0  0  0  0  0  0  0  0
    3.0042    0.1125    0.0000 C   0  0  0  0  0  0  0  0  0  0  0  0
    3.0000   -1.3167    0.0000 C   0  0  0  0  0  0  0  0  0  0  0  0
    7.1167   -1.3500    0.0000 C   0  0  0  0  0  0  0  0  0  0  0  0
    7.9417   -1.3542    0.0000 C   0  0  0  0  0  0  0  0  0  0  0  0
    8.3542   -0.6417    0.0000 C   0  0  0  0  0  0  0  0  0  0  0  0
    9.1792   -0.6542    0.0000 C   0  0  0  0  0  0  0  0  0  0  0  0
    2.1750   -1.3167    0.0000 C   0  0  0  0  0  0  0  0  0  0  0  0
    2.1792    0.1208    0.0000 C   0  0  0  0  0  0  0  0  0  0  0  0
    1.7625   -0.5917    0.0000 C   0  0  0  0  0  0  0  0  0  0  0  0
  2  1  1  0  0  0  0
  3  1  1  0  0  0  0
  4  3  1  0  0  0  0
  5  2  2  0  0  0  0
  6  4  2  0  0  0  0
  7  1  2  0  0  0  0
  8  3  1  0  0  0  0
  9  2  1  0  0  0  0
 10  5  1  0  0  0  0
 11  8  2  0  0  0  0
 12  8  1  0  0  0  0
 13 10  1  0  0  0  0
 14 13  1  0  0  0  0
 15 14  1  0  0  0  0
 16 15  1  0  0  0  0
 17 12  2  0  0  0  0
 18 11  1  0  0  0  0
 19 17  1  0  0  0  0
  5  6  1  0  0  0  0
 18 19  2  0  0  0  0
M  END
>  <IDNUMBER>
F3386-3208

>  <Chemical_Name>
5-(butylamino)-4-chloro-2-phenyl-2,3-dihydropyridazin-3-one

>  <PriceCoeff>
1.00

>  <CAS>
98366-74-6

>  <MW>
277.75

>  <Description>
solid

>  <FSP3>
0.29

>  <clogP>
3.61

>  <TPSA>
44.70

>  <Acceptor>
2

>  <Donor>
2

>  <RotBonds>
5

>  <HAC>
19

>  <Collection>
General

>  <PPDS>
+

$$$$
F3386-3259
  Mrv2219 10102508112D          

 20 22  0  0  0  0            999 V2000
    5.2625   -0.4042    0.0000 S   0  0  0  0  0  0  0  0  0  0  0  0
    6.0875   -0.4042    0.0000 O   0  0  0  0  0  0  0  0  0  0  0  0
    5.2542   -1.2292    0.0000 O   0  0  0  0  0  0  0  0  0  0  0  0
    5.2625    0.4208    0.0000 O   0  0  0  0  0  0  0  0  0  0  0  0
    4.4375   -0.4000    0.0000 C   0  0  0  0  0  0  0  0  0  0  0  0
    6.9125   -0.4042    0.0000 C   0  0  0  0  0  0  0  0  0  0  0  0
    8.1417   -1.1167    0.0000 C   0  0  0  0  0  0  0  0  0  0  0  0
    7.3250   -1.1167    0.0000 C   0  0  0  0  0  0  0  0  0  0  0  0
    8.5542   -0.4042    0.0000 C   0  0  0  0  0  0  0  0  0  0  0  0
    8.1417    0.3125    0.0000 C   0  0  0  0  0  0  0  0  0  0  0  0
    7.3167    0.3083    0.0000 C   0  0  0  0  0  0  0  0  0  0  0  0
    8.5500   -1.8292    0.0000 C   0  0  0  0  0  0  0  0  0  0  0  0
    4.0250   -1.1042    0.0000 C   0  0  0  0  0  0  0  0  0  0  0  0
    4.0292    0.3208    0.0000 C   0  0  0  0  0  0  0  0  0  0  0  0
    9.3792   -0.4042    0.0000 C   0  0  0  0  0  0  0  0  0  0  0  0
    9.3750   -1.8292    0.0000 C   0  0  0  0  0  0  0  0  0  0  0  0
    3.2042    0.3250    0.0000 C   0  0  0  0  0  0  0  0  0  0  0  0
    3.2000   -1.1042    0.0000 C   0  0  0  0  0  0  0  0  0  0  0  0
    9.7875   -1.1167    0.0000 C   0  0  0  0  0  0  0  0  0  0  0  0
    2.7875   -0.3875    0.0000 C   0  0  0  0  0  0  0  0  0  0  0  0
  2  1  1  0  0  0  0
  3  1  2  0  0  0  0
  4  1  2  0  0  0  0
  5  1  1  0  0  0  0
  6  2  1  0  0  0  0
  7  8  1  0  0  0  0
  8  6  2  0  0  0  0
  9 10  1  0  0  0  0
 10 11  2  0  0  0  0
 11  6  1  0  0  0  0
 12  7  2  0  0  0  0
 13  5  1  0  0  0  0
 14  5  2  0  0  0  0
 15  9  2  0  0  0  0
 16 12  1  0  0  0  0
 17 14  1  0  0  0  0
 18 13  2  0  0  0  0
 19 15  1  0  0  0  0
 20 17  2  0  0  0  0
 20 18  1  0  0  0  0
  9  7  1  0  0  0  0
 16 19  2  0  0  0  0
M  END
>  <IDNUMBER>
F3386-3259

>  <Chemical_Name>
naphthalen-2-yl benzenesulfonate

>  <PriceCoeff>
1.00

>  <CAS>
15161-07-6

>  <MW>
284.33

>  <Description>
solid

>  <FSP3>
0.00

>  <clogP>
4.26

>  <TPSA>
51.75

>  <Acceptor>
3

>  <Donor>
0

>  <RotBonds>
3

>  <HAC>
20

>  <Collection>
General

>  <PPDS>
+

$$$$
F3386-3752
  Mrv2219 10102508112D          

 18 19  0  0  0  0            999 V2000
    5.4667   -6.1625    0.0000 S   0  0  0  0  0  0  0  0  0  0  0  0
    6.2917   -6.1625    0.0000 O   0  0  0  0  0  0  0  0  0  0  0  0
    4.6417   -6.1625    0.0000 C   0  0  0  0  0  0  0  0  0  0  0  0
    5.4667   -6.9875    0.0000 O   0  0  0  0  0  0  0  0  0  0  0  0
    5.4667   -5.3375    0.0000 O   0  0  0  0  0  0  0  0  0  0  0  0
    4.2292   -5.4417    0.0000 C   0  0  0  0  0  0  0  0  0  0  0  0
    4.2292   -6.8667    0.0000 C   0  0  0  0  0  0  0  0  0  0  0  0
    7.1167   -6.1625    0.0000 C   0  0  0  0  0  0  0  0  0  0  0  0
    8.7625   -6.1625    0.0000 C   0  0  0  0  0  0  0  0  0  0  0  0
    3.4042   -6.8750    0.0000 C   0  0  0  0  0  0  0  0  0  0  0  0
    3.4042   -5.4417    0.0000 C   0  0  0  0  0  0  0  0  0  0  0  0
    2.9917   -6.1542    0.0000 C   0  0  0  0  0  0  0  0  0  0  0  0
    9.5875   -6.1625    0.0000 Cl  0  0  0  0  0  0  0  0  0  0  0  0
    7.5250   -5.4500    0.0000 C   0  0  0  0  0  0  0  0  0  0  0  0
    7.5250   -6.8792    0.0000 C   0  0  0  0  0  0  0  0  0  0  0  0
    8.3500   -6.8792    0.0000 C   0  0  0  0  0  0  0  0  0  0  0  0
    8.3417   -5.4417    0.0000 C   0  0  0  0  0  0  0  0  0  0  0  0
    2.1667   -6.1542    0.0000 C   0  0  0  0  0  0  0  0  0  0  0  0
  2  1  1  0  0  0  0
  3  1  1  0  0  0  0
  4  1  2  0  0  0  0
  5  1  2  0  0  0  0
  6  3  2  0  0  0  0
  7  3  1  0  0  0  0
  8  2  1  0  0  0  0
  9 16  2  0  0  0  0
 10  7  2  0  0  0  0
 11  6  1  0  0  0  0
 12 10  1  0  0  0  0
 13  9  1  0  0  0  0
 14  8  1  0  0  0  0
 15  8  2  0  0  0  0
 16 15  1  0  0  0  0
 17 14  2  0  0  0  0
 18 12  1  0  0  0  0
 12 11  2  0  0  0  0
  9 17  1  0  0  0  0
M  END
>  <IDNUMBER>
F3386-3752

>  <Chemical_Name>
4-chlorophenyl 4-methylbenzene-1-sulfonate

>  <PriceCoeff>
1.00

>  <CAS>
599-89-3

>  <MW>
282.74

>  <Description>
solid

>  <FSP3>
0.08

>  <clogP>
4.44

>  <TPSA>
51.75

>  <Acceptor>
3

>  <Donor>
0

>  <RotBonds>
3

>  <HAC>
18

>  <Collection>
General

>  <PPDS>
+

$$$$
F3386-3753
  Mrv2219 10102508112D          

 18 19  0  0  0  0            999 V2000
    4.7917   -6.1625    0.0000 S   0  0  0  0  0  0  0  0  0  0  0  0
    5.6167   -6.1625    0.0000 O   0  0  0  0  0  0  0  0  0  0  0  0
    3.9667   -6.1625    0.0000 C   0  0  0  0  0  0  0  0  0  0  0  0
    4.7917   -6.9875    0.0000 O   0  0  0  0  0  0  0  0  0  0  0  0
    4.7917   -5.3375    0.0000 O   0  0  0  0  0  0  0  0  0  0  0  0
    3.5542   -5.4417    0.0000 C   0  0  0  0  0  0  0  0  0  0  0  0
    3.5542   -6.8667    0.0000 C   0  0  0  0  0  0  0  0  0  0  0  0
    6.4417   -6.1625    0.0000 C   0  0  0  0  0  0  0  0  0  0  0  0
    2.3167   -6.1542    0.0000 C   0  0  0  0  0  0  0  0  0  0  0  0
    8.0875   -6.1625    0.0000 C   0  0  0  0  0  0  0  0  0  0  0  0
    2.7292   -6.8750    0.0000 C   0  0  0  0  0  0  0  0  0  0  0  0
    2.7292   -5.4417    0.0000 C   0  0  0  0  0  0  0  0  0  0  0  0
    8.9125   -6.1625    0.0000 Cl  0  0  0  0  0  0  0  0  0  0  0  0
    1.4917   -6.1542    0.0000 Br  0  0  0  0  0  0  0  0  0  0  0  0
    6.8500   -6.8792    0.0000 C   0  0  0  0  0  0  0  0  0  0  0  0
    6.8500   -5.4500    0.0000 C   0  0  0  0  0  0  0  0  0  0  0  0
    7.6667   -5.4417    0.0000 C   0  0  0  0  0  0  0  0  0  0  0  0
    7.6750   -6.8792    0.0000 C   0  0  0  0  0  0  0  0  0  0  0  0
  2  1  1  0  0  0  0
  3  1  1  0  0  0  0
  4  1  2  0  0  0  0
  5  1  2  0  0  0  0
  6  3  2  0  0  0  0
  7  3  1  0  0  0  0
  8  2  1  0  0  0  0
  9 11  1  0  0  0  0
 10 17  1  0  0  0  0
 11  7  2  0  0  0  0
 12  6  1  0  0  0  0
 13 10  1  0  0  0  0
 14  9  1  0  0  0  0
 15  8  2  0  0  0  0
 16  8  1  0  0  0  0
 17 16  2  0  0  0  0
 18 15  1  0  0  0  0
  9 12  2  0  0  0  0
 10 18  2  0  0  0  0
M  END
>  <IDNUMBER>
F3386-3753

>  <Chemical_Name>
4-chlorophenyl 4-bromobenzene-1-sulfonate

>  <PriceCoeff>
1.00

>  <CAS>
7463-24-3

>  <MW>
347.61

>  <Description>
solid

>  <FSP3>
0.00

>  <clogP>
4.81

>  <TPSA>
51.75

>  <Acceptor>
3

>  <Donor>
0

>  <RotBonds>
3

>  <HAC>
18

>  <Collection>
General

>  <PPDS>
+

$$$$
F3386-4120
  Mrv2219 10102508112D          

 18 19  0  0  0  0            999 V2000
    4.6417   -2.0667    0.0000 S   0  0  0  0  0  0  0  0  0  0  0  0
    5.4667   -2.0667    0.0000 O   0  0  0  0  0  0  0  0  0  0  0  0
    6.2917   -2.0667    0.0000 C   0  0  0  0  0  0  0  0  0  0  0  0
    6.7042   -2.7875    0.0000 C   0  0  0  0  0  0  0  0  0  0  0  0
    4.6417   -1.2417    0.0000 O   0  0  0  0  0  0  0  0  0  0  0  0
    4.6417   -2.8917    0.0000 O   0  0  0  0  0  0  0  0  0  0  0  0
    3.8167   -2.0667    0.0000 C   0  0  0  0  0  0  0  0  0  0  0  0
    7.5292   -2.7875    0.0000 C   0  0  0  0  0  0  0  0  0  0  0  0
    6.2917   -3.5000    0.0000 Cl  0  0  0  0  0  0  0  0  0  0  0  0
    7.9417   -3.5000    0.0000 Cl  0  0  0  0  0  0  0  0  0  0  0  0
    6.7042   -1.3542    0.0000 C   0  0  0  0  0  0  0  0  0  0  0  0
    7.5250   -1.3542    0.0000 C   0  0  0  0  0  0  0  0  0  0  0  0
    7.9417   -2.0667    0.0000 C   0  0  0  0  0  0  0  0  0  0  0  0
    3.4042   -2.7792    0.0000 C   0  0  0  0  0  0  0  0  0  0  0  0
    3.4042   -1.3500    0.0000 C   0  0  0  0  0  0  0  0  0  0  0  0
    2.5792   -1.3500    0.0000 C   0  0  0  0  0  0  0  0  0  0  0  0
    2.5875   -2.7792    0.0000 C   0  0  0  0  0  0  0  0  0  0  0  0
    2.1667   -2.0667    0.0000 C   0  0  0  0  0  0  0  0  0  0  0  0
  2  1  1  0  0  0  0
  3  2  1  0  0  0  0
  4  3  2  0  0  0  0
  5  1  2  0  0  0  0
  6  1  2  0  0  0  0
  7  1  1  0  0  0  0
  8  4  1  0  0  0  0
  9  4  1  0  0  0  0
 10  8  1  0  0  0  0
 11  3  1  0  0  0  0
 12 11  2  0  0  0  0
 13 12  1  0  0  0  0
 14  7  1  0  0  0  0
 15  7  2  0  0  0  0
 16 15  1  0  0  0  0
 17 14  2  0  0  0  0
 18 16  2  0  0  0  0
 17 18  1  0  0  0  0
  8 13  2  0  0  0  0
M  END
>  <IDNUMBER>
F3386-4120

>  <Chemical_Name>
2,3-dichlorophenyl benzenesulfonate

>  <PriceCoeff>
1.00

>  <CAS>
13659-51-3

>  <MW>
303.16

>  <Description>
solid

>  <FSP3>
0.00

>  <clogP>
4.36

>  <TPSA>
51.75

>  <Acceptor>
0

>  <Donor>
3

>  <RotBonds>
3

>  <HAC>
18

>  <Collection>
General

>  <PPDS>
+

$$$$
F3386-4508
  Mrv2219 10102508112D          

 18 19  0  0  0  0            999 V2000
    5.2625   -2.0167    0.0000 S   0  0  0  0  0  0  0  0  0  0  0  0
    6.0875   -2.0167    0.0000 O   0  0  0  0  0  0  0  0  0  0  0  0
    6.9125   -2.0167    0.0000 C   0  0  0  0  0  0  0  0  0  0  0  0
    4.4375   -2.0125    0.0000 C   0  0  0  0  0  0  0  0  0  0  0  0
    5.2625   -1.1917    0.0000 O   0  0  0  0  0  0  0  0  0  0  0  0
    5.2542   -2.8417    0.0000 O   0  0  0  0  0  0  0  0  0  0  0  0
    7.3167   -2.7292    0.0000 C   0  0  0  0  0  0  0  0  0  0  0  0
    4.0292   -1.2917    0.0000 C   0  0  0  0  0  0  0  0  0  0  0  0
    4.0250   -2.7167    0.0000 C   0  0  0  0  0  0  0  0  0  0  0  0
    2.7875   -2.0000    0.0000 C   0  0  0  0  0  0  0  0  0  0  0  0
    6.9042   -3.4417    0.0000 Cl  0  0  0  0  0  0  0  0  0  0  0  0
    3.2042   -1.2875    0.0000 C   0  0  0  0  0  0  0  0  0  0  0  0
    3.2000   -2.7167    0.0000 C   0  0  0  0  0  0  0  0  0  0  0  0
    1.9625   -1.9917    0.0000 Br  0  0  0  0  0  0  0  0  0  0  0  0
    7.3167   -1.3042    0.0000 C   0  0  0  0  0  0  0  0  0  0  0  0
    8.1417   -2.7292    0.0000 C   0  0  0  0  0  0  0  0  0  0  0  0
    8.1417   -1.3000    0.0000 C   0  0  0  0  0  0  0  0  0  0  0  0
    8.5542   -2.0167    0.0000 C   0  0  0  0  0  0  0  0  0  0  0  0
  2  1  1  0  0  0  0
  3  2  1  0  0  0  0
  4  1  1  0  0  0  0
  5  1  2  0  0  0  0
  6  1  2  0  0  0  0
  7  3  2  0  0  0  0
  8  4  2  0  0  0  0
  9  4  1  0  0  0  0
 10 13  1  0  0  0  0
 11  7  1  0  0  0  0
 12  8  1  0  0  0  0
 13  9  2  0  0  0  0
 14 10  1  0  0  0  0
 15  3  1  0  0  0  0
 16  7  1  0  0  0  0
 17 15  2  0  0  0  0
 18 17  1  0  0  0  0
 12 10  2  0  0  0  0
 16 18  2  0  0  0  0
M  END
>  <IDNUMBER>
F3386-4508

>  <Chemical_Name>
2-chlorophenyl 4-bromobenzene-1-sulfonate

>  <PriceCoeff>
1.00

>  <CAS>
7463-27-6

>  <MW>
347.61

>  <Description>
solid

>  <FSP3>
0.00

>  <clogP>
4.58

>  <TPSA>
51.75

>  <Acceptor>
3

>  <Donor>
0

>  <RotBonds>
3

>  <HAC>
18

>  <Collection>
General

>  <PPDS>
+

$$$$
F3386-4531
  Mrv2219 10102508112D          

 25 28  0  0  0  0            999 V2000
    5.5407   -1.7787    0.0000 S   0  0  0  0  0  0  0  0  0  0  0  0
    4.7139   -1.7704    0.0000 C   0  0  0  0  0  0  0  0  0  0  0  0
    4.3006   -2.4843    0.0000 C   0  0  0  0  0  0  0  0  0  0  0  0
    6.3674   -1.7787    0.0000 O   0  0  0  0  0  0  0  0  0  0  0  0
    3.4822   -2.4801    0.0000 C   0  0  0  0  0  0  0  0  0  0  0  0
    5.5407   -2.6054    0.0000 O   0  0  0  0  0  0  0  0  0  0  0  0
    5.5407   -0.9520    0.0000 O   0  0  0  0  0  0  0  0  0  0  0  0
    4.3089   -1.0522    0.0000 C   0  0  0  0  0  0  0  0  0  0  0  0
    3.0605   -1.7578    0.0000 C   0  0  0  0  0  0  0  0  0  0  0  0
    7.1941   -1.7787    0.0000 C   0  0  0  0  0  0  0  0  0  0  0  0
    8.4299   -1.0564    0.0000 C   0  0  0  0  0  0  0  0  0  0  0  0
    7.6074   -1.0647    0.0000 C   0  0  0  0  0  0  0  0  0  0  0  0
    3.4822   -1.0439    0.0000 C   0  0  0  0  0  0  0  0  0  0  0  0
    8.8433   -1.7704    0.0000 C   0  0  0  0  0  0  0  0  0  0  0  0
    8.4341   -2.4969    0.0000 C   0  0  0  0  0  0  0  0  0  0  0  0
    7.6074   -2.4969    0.0000 C   0  0  0  0  0  0  0  0  0  0  0  0
    2.2338   -1.7578    0.0000 Cl  0  0  0  0  0  0  0  0  0  0  0  0
    4.7139   -3.1858    0.0000 C   0  0  0  0  0  0  0  0  0  0  0  0
    3.0688   -3.1858    0.0000 C   0  0  0  0  0  0  0  0  0  0  0  0
    8.8350   -0.3424    0.0000 C   0  0  0  0  0  0  0  0  0  0  0  0
    9.6700   -1.7704    0.0000 C   0  0  0  0  0  0  0  0  0  0  0  0
    4.3006   -3.8998    0.0000 C   0  0  0  0  0  0  0  0  0  0  0  0
    3.4739   -3.8998    0.0000 C   0  0  0  0  0  0  0  0  0  0  0  0
    9.6617   -0.3382    0.0000 C   0  0  0  0  0  0  0  0  0  0  0  0
   10.0750   -1.0564    0.0000 C   0  0  0  0  0  0  0  0  0  0  0  0
  2  1  1  0  0  0  0
  3  2  1  0  0  0  0
  4  1  1  0  0  0  0
  5  3  1  0  0  0  0
  6  1  2  0  0  0  0
  7  1  2  0  0  0  0
  8  2  2  0  0  0  0
  9 13  2  0  0  0  0
 10  4  1  0  0  0  0
 11 12  2  0  0  0  0
 12 10  1  0  0  0  0
 13  8  1  0  0  0  0
 14 15  2  0  0  0  0
 15 16  1  0  0  0  0
 16 10  2  0  0  0  0
 17  9  1  0  0  0  0
 18  3  2  0  0  0  0
 19  5  2  0  0  0  0
 20 11  1  0  0  0  0
 21 14  1  0  0  0  0
 22 18  1  0  0  0  0
 23 22  2  0  0  0  0
 24 20  2  0  0  0  0
 25 21  2  0  0  0  0
  5  9  1  0  0  0  0
 11 14  1  0  0  0  0
 19 23  1  0  0  0  0
 25 24  1  0  0  0  0
M  END
>  <IDNUMBER>
F3386-4531

>  <Chemical_Name>
naphthalen-2-yl 4-chloronaphthalene-1-sulfonate

>  <PriceCoeff>
1.00

>  <CAS>
2640970-48-3

>  <MW>
368.83

>  <Description>
solid

>  <FSP3>
0.00

>  <clogP>
5.77

>  <TPSA>
43.37

>  <Acceptor>
3

>  <Donor>
0

>  <RotBonds>
3

>  <HAC>
25

>  <Collection>
General

>  <PPDS>
+

$$$$
F3386-4724
  Mrv2219 10102508112D          

 17 18  0  0  0  0            999 V2000
    5.2667   -2.3167    0.0000 S   0  0  0  0  0  0  0  0  0  0  0  0
    6.0917   -2.3250    0.0000 O   0  0  0  0  0  0  0  0  0  0  0  0
    4.4417   -2.3167    0.0000 C   0  0  0  0  0  0  0  0  0  0  0  0
    5.2667   -1.4917    0.0000 O   0  0  0  0  0  0  0  0  0  0  0  0
    5.2667   -3.1417    0.0000 O   0  0  0  0  0  0  0  0  0  0  0  0
    4.0292   -3.0250    0.0000 C   0  0  0  0  0  0  0  0  0  0  0  0
    4.0375   -1.5917    0.0000 C   0  0  0  0  0  0  0  0  0  0  0  0
    6.9167   -2.3250    0.0000 C   0  0  0  0  0  0  0  0  0  0  0  0
    2.7917   -2.3042    0.0000 C   0  0  0  0  0  0  0  0  0  0  0  0
    3.2042   -3.0250    0.0000 C   0  0  0  0  0  0  0  0  0  0  0  0
    3.2125   -1.5917    0.0000 C   0  0  0  0  0  0  0  0  0  0  0  0
    1.9667   -2.3000    0.0000 Br  0  0  0  0  0  0  0  0  0  0  0  0
    7.3250   -3.0292    0.0000 C   0  0  0  0  0  0  0  0  0  0  0  0
    7.3167   -1.6167    0.0000 C   0  0  0  0  0  0  0  0  0  0  0  0
    8.1417   -1.6125    0.0000 C   0  0  0  0  0  0  0  0  0  0  0  0
    8.1417   -3.0375    0.0000 C   0  0  0  0  0  0  0  0  0  0  0  0
    8.5542   -2.3250    0.0000 C   0  0  0  0  0  0  0  0  0  0  0  0
  2  1  1  0  0  0  0
  3  1  1  0  0  0  0
  4  1  2  0  0  0  0
  5  1  2  0  0  0  0
  6  3  1  0  0  0  0
  7  3  2  0  0  0  0
  8  2  1  0  0  0  0
  9 11  2  0  0  0  0
 10  6  2  0  0  0  0
 11  7  1  0  0  0  0
 12  9  1  0  0  0  0
 13  8  2  0  0  0  0
 14  8  1  0  0  0  0
 15 14  2  0  0  0  0
 16 13  1  0  0  0  0
 17 15  1  0  0  0  0
 10  9  1  0  0  0  0
 16 17  2  0  0  0  0
M  END
>  <IDNUMBER>
F3386-4724

>  <Chemical_Name>
phenyl 4-bromobenzene-1-sulfonate

>  <PriceCoeff>
1.00

>  <CAS>
5455-14-1

>  <MW>
313.17

>  <Description>
solid

>  <FSP3>
0.00

>  <clogP>
3.96

>  <TPSA>
43.37

>  <Acceptor>
3

>  <Donor>
0

>  <RotBonds>
3

>  <HAC>
17

>  <Collection>
General

>  <PPDS>
+

$$$$
F3386-5305
  Mrv2219 10102508112D          

 24 26  0  0  0  0            999 V2000
    6.2173   -2.0169    0.0000 N   0  0  0  0  0  0  0  0  0  0  0  0
    5.3922   -2.0169    0.0000 C   0  0  0  0  0  0  0  0  0  0  0  0
    4.9797   -1.3001    0.0000 C   0  0  0  0  0  0  0  0  0  0  0  0
    6.6298   -2.7295    0.0000 C   0  0  0  0  0  0  0  0  0  0  0  0
    6.6298   -1.3001    0.0000 C   0  0  0  0  0  0  0  0  0  0  0  0
    4.9797   -2.7295    0.0000 O   0  0  0  0  0  0  0  0  0  0  0  0
    5.3922   -0.5918    0.0000 C   0  0  0  0  0  0  0  0  0  0  0  0
    4.1546   -1.3043    0.0000 C   0  0  0  0  0  0  0  0  0  0  0  0
    6.2173   -3.4420    0.0000 C   0  0  0  0  0  0  0  0  0  0  0  0
    7.4549   -1.3001    0.0000 C   0  0  0  0  0  0  0  0  0  0  0  0
    3.7421   -0.5918    0.0000 C   0  0  0  0  0  0  0  0  0  0  0  0
    4.9797    0.1208    0.0000 C   0  0  0  0  0  0  0  0  0  0  0  0
    4.1546    0.1208    0.0000 C   0  0  0  0  0  0  0  0  0  0  0  0
    3.7421    0.8376    0.0000 C   0  0  0  0  0  0  0  0  0  0  0  0
    7.8549   -0.5876    0.0000 C   0  0  0  0  0  0  0  0  0  0  0  0
    5.3922   -3.4420    0.0000 C   0  0  0  0  0  0  0  0  0  0  0  0
    6.6298   -4.1546    0.0000 C   0  0  0  0  0  0  0  0  0  0  0  0
    7.8632   -2.0169    0.0000 C   0  0  0  0  0  0  0  0  0  0  0  0
    4.9797   -4.1546    0.0000 C   0  0  0  0  0  0  0  0  0  0  0  0
    6.2256   -4.8672    0.0000 C   0  0  0  0  0  0  0  0  0  0  0  0
    8.6883   -2.0169    0.0000 C   0  0  0  0  0  0  0  0  0  0  0  0
    8.6800   -0.5793    0.0000 C   0  0  0  0  0  0  0  0  0  0  0  0
    5.3922   -4.8672    0.0000 C   0  0  0  0  0  0  0  0  0  0  0  0
    9.1009   -1.3001    0.0000 C   0  0  0  0  0  0  0  0  0  0  0  0
  2  1  1  0  0  0  0
  3  2  1  0  0  0  0
  4  1  1  0  0  0  0
  5  1  1  0  0  0  0
  6  2  2  0  0  0  0
  7  3  2  0  0  0  0
  8  3  1  0  0  0  0
  9  4  1  0  0  0  0
 10  5  1  0  0  0  0
 11  8  2  0  0  0  0
 12  7  1  0  0  0  0
 13 11  1  0  0  0  0
 14 13  1  0  0  0  0
 15 10  1  0  0  0  0
 16  9  2  0  0  0  0
 17  9  1  0  0  0  0
 18 10  2  0  0  0  0
 19 16  1  0  0  0  0
 20 17  2  0  0  0  0
 21 18  1  0  0  0  0
 22 15  2  0  0  0  0
 23 20  1  0  0  0  0
 24 21  2  0  0  0  0
 24 22  1  0  0  0  0
 19 23  2  0  0  0  0
 12 13  2  0  0  0  0
M  END
>  <IDNUMBER>
F3386-5305

>  <Chemical_Name>
N,N-dibenzyl-4-methylbenzamide

>  <PriceCoeff>
1.00

>  <CAS>
88229-28-1

>  <MW>
315.42

>  <Description>
solid

>  <FSP3>
0.14

>  <clogP>
5.23

>  <TPSA>
20.31

>  <Acceptor>
1

>  <Donor>
0

>  <RotBonds>
6

>  <HAC>
24

>  <Collection>
General

>  <PPDS>
+

$$$$
F3393-0004
  Mrv2219 10102508112D          

 16 17  0  0  0  0            999 V2000
    1.9682   -4.4625    0.0000 N   0  0  0  0  0  0  0  0  0  0  0  0
    1.4171   -3.8576    0.0000 C   0  0  0  0  0  0  0  0  0  0  0  0
    1.8273   -3.1366    0.0000 N   0  0  0  0  0  0  0  0  0  0  0  0
    2.7222   -4.1269    0.0000 C   0  0  0  0  0  0  0  0  0  0  0  0
    2.6352   -3.3065    0.0000 O   0  0  0  0  0  0  0  0  0  0  0  0
    3.4432   -4.5371    0.0000 C   0  0  0  0  0  0  0  0  0  0  0  0
    0.6008   -3.9446    0.0000 C   0  0  0  0  0  0  0  0  0  0  0  0
    3.4432   -5.3616    0.0000 C   0  0  0  0  0  0  0  0  0  0  0  0
    4.1517   -5.7677    0.0000 O   0  0  0  0  0  0  0  0  0  0  0  0
    0.2652   -4.6904    0.0000 C   0  0  0  0  0  0  0  0  0  0  0  0
    0.1160   -3.2733    0.0000 C   0  0  0  0  0  0  0  0  0  0  0  0
   -0.7043   -3.3604    0.0000 C   0  0  0  0  0  0  0  0  0  0  0  0
   -0.5469   -4.7857    0.0000 C   0  0  0  0  0  0  0  0  0  0  0  0
   -1.0400   -4.1186    0.0000 C   0  0  0  0  0  0  0  0  0  0  0  0
    2.7264   -5.7718    0.0000 C   0  0  0  0  0  0  0  0  0  0  0  0
   -1.8604   -4.2056    0.0000 C   0  0  0  0  0  0  0  0  0  0  0  0
  2  1  1  0  0  0  0
  3  2  2  0  0  0  0
  4  1  2  0  0  0  0
  5  4  1  0  0  0  0
  6  4  1  0  0  0  0
  7  2  1  0  0  0  0
  8  6  1  0  0  0  0
  9  8  2  0  0  0  0
 10  7  1  0  0  0  0
 11  7  2  0  0  0  0
 12 11  1  0  0  0  0
 13 10  2  0  0  0  0
 14 12  2  0  0  0  0
 15  8  1  0  0  0  0
 16 14  1  0  0  0  0
  5  3  1  0  0  0  0
 13 14  1  0  0  0  0
M  END
>  <IDNUMBER>
F3393-0004

>  <Chemical_Name>
1-[3-(4-methylphenyl)-1,2,4-oxadiazol-5-yl]propan-2-one

>  <PriceCoeff>
1.50

>  <CAS>
110449-27-9

>  <MW>
216.24

>  <Description>
solid

>  <FSP3>
0.25

>  <clogP>
3.11

>  <TPSA>
55.99

>  <Acceptor>
4

>  <Donor>
0

>  <RotBonds>
3

>  <HAC>
16

>  <Collection>
Advanced

>  <PPDS>
+

$$$$
F3393-0524
  Mrv2219 10102508112D          

 16 17  0  0  0  0            999 V2000
    0.9541    0.3999    0.0000 N   0  0  0  0  0  0  0  0  0  0  0  0
    0.2000    0.7332    0.0000 C   0  0  0  0  0  0  0  0  0  0  0  0
    0.2833    1.5540    0.0000 N   0  0  0  0  0  0  0  0  0  0  0  0
    1.5040    1.0124    0.0000 C   0  0  0  0  0  0  0  0  0  0  0  0
    1.0873    1.7290    0.0000 O   0  0  0  0  0  0  0  0  0  0  0  0
    3.4828    0.0958    0.0000 C   0  0  0  0  0  0  0  0  0  0  0  0
   -0.5124    0.3125    0.0000 C   0  0  0  0  0  0  0  0  0  0  0  0
    3.8203   -0.6582    0.0000 O   0  0  0  0  0  0  0  0  0  0  0  0
    2.3247    0.9291    0.0000 C   0  0  0  0  0  0  0  0  0  0  0  0
    2.6621    0.1792    0.0000 C   0  0  0  0  0  0  0  0  0  0  0  0
    3.9661    0.7666    0.0000 O   0  0  0  0  0  0  0  0  0  0  0  0
   -0.5124   -0.5166    0.0000 C   0  0  0  0  0  0  0  0  0  0  0  0
   -1.2290    0.7249    0.0000 C   0  0  0  0  0  0  0  0  0  0  0  0
   -1.2290   -0.9291    0.0000 C   0  0  0  0  0  0  0  0  0  0  0  0
   -1.9414    0.3125    0.0000 C   0  0  0  0  0  0  0  0  0  0  0  0
   -1.9414   -0.5166    0.0000 C   0  0  0  0  0  0  0  0  0  0  0  0
  2  1  1  0  0  0  0
  3  2  2  0  0  0  0
  4  1  2  0  0  0  0
  5  4  1  0  0  0  0
  6 10  1  0  0  0  0
  7  2  1  0  0  0  0
  8  6  2  0  0  0  0
  9  4  1  0  0  0  0
 10  9  1  0  0  0  0
 11  6  1  0  0  0  0
 12  7  1  0  0  0  0
 13  7  2  0  0  0  0
 14 12  2  0  0  0  0
 15 13  1  0  0  0  0
 16 15  2  0  0  0  0
  3  5  1  0  0  0  0
 14 16  1  0  0  0  0
M  END
>  <IDNUMBER>
F3393-0524

>  <Chemical_Name>
3-(3-phenyl-1,2,4-oxadiazol-5-yl)propanoic acid

>  <PriceCoeff>
1.50

>  <CAS>
24088-59-3

>  <MW>
218.21

>  <Description>
solid

>  <FSP3>
0.18

>  <clogP>
1.75

>  <TPSA>
76.22

>  <Acceptor>
5

>  <Donor>
0

>  <RotBonds>
4

>  <HAC>
16

>  <Collection>
Advanced

>  <PPDS>
+

$$$$
F3394-0325
  Mrv2219 10102508112D          

 33 37  0  0  0  0            999 V2000
    3.8524    3.4317    0.0000 C   0  0  0  0  0  0  0  0  0  0  0  0
    3.0986    3.0944    0.0000 C   0  0  0  0  0  0  0  0  0  0  0  0
    4.4397    2.1240    0.0000 N   0  0  0  0  0  0  0  0  0  0  0  0
    3.6858    1.7867    0.0000 C   0  0  0  0  0  0  0  0  0  0  0  0
    3.0153    2.2740    0.0000 N   0  0  0  0  0  0  0  0  0  0  0  0
    4.5271    2.9569    0.0000 C   0  0  0  0  0  0  0  0  0  0  0  0
    2.5405    3.7066    0.0000 S   0  0  0  0  0  0  0  0  0  0  0  0
    3.7650    4.2398    0.0000 C   0  0  0  0  0  0  0  0  0  0  0  0
    2.9528    4.4147    0.0000 C   0  0  0  0  0  0  0  0  0  0  0  0
    3.6775    0.9621    0.0000 S   0  0  0  0  0  0  0  0  0  0  0  0
    5.1019    1.6450    0.0000 C   0  0  0  0  0  0  0  0  0  0  0  0
    5.2768    3.2943    0.0000 O   0  0  0  0  0  0  0  0  0  0  0  0
    2.2490    0.9746    0.0000 C   0  0  0  0  0  0  0  0  0  0  0  0
    0.0917    2.2323    0.0000 C   0  0  0  0  0  0  0  0  0  0  0  0
    1.5243    0.5705    0.0000 N   0  0  0  0  0  0  0  0  0  0  0  0
    0.0917    3.0569    0.0000 C   0  0  0  0  0  0  0  0  0  0  0  0
    0.8038    1.8200    0.0000 C   0  0  0  0  0  0  0  0  0  0  0  0
    0.8038    0.9953    0.0000 C   0  0  0  0  0  0  0  0  0  0  0  0
    2.2532    1.8075    0.0000 O   0  0  0  0  0  0  0  0  0  0  0  0
   -0.6247    3.4692    0.0000 O   0  0  0  0  0  0  0  0  0  0  0  0
    2.9611    0.5580    0.0000 C   0  0  0  0  0  0  0  0  0  0  0  0
    4.1773    4.9519    0.0000 C   0  0  0  0  0  0  0  0  0  0  0  0
    2.8737    5.2393    0.0000 C   0  0  0  0  0  0  0  0  0  0  0  0
    3.6275    5.5724    0.0000 C   0  0  0  0  0  0  0  0  0  0  0  0
   -0.6247    1.8200    0.0000 C   0  0  0  0  0  0  0  0  0  0  0  0
   -0.6247    0.9953    0.0000 C   0  0  0  0  0  0  0  0  0  0  0  0
    0.0917    0.5830    0.0000 C   0  0  0  0  0  0  0  0  0  0  0  0
    0.8038    3.4692    0.0000 C   0  0  0  0  0  0  0  0  0  0  0  0
    5.0144    0.8204    0.0000 C   0  0  0  0  0  0  0  0  0  0  0  0
    5.8515    1.9824    0.0000 C   0  0  0  0  0  0  0  0  0  0  0  0
    6.5220    1.4951    0.0000 C   0  0  0  0  0  0  0  0  0  0  0  0
    5.6849    0.3373    0.0000 C   0  0  0  0  0  0  0  0  0  0  0  0
    6.4387    0.6705    0.0000 C   0  0  0  0  0  0  0  0  0  0  0  0
  2  1  2  0  0  0  0
  3  6  1  0  0  0  0
  4  3  1  0  0  0  0
  5  2  1  0  0  0  0
  6  1  1  0  0  0  0
  7  2  1  0  0  0  0
  8  1  1  0  0  0  0
  9  8  2  0  0  0  0
 10  4  1  0  0  0  0
 11  3  1  0  0  0  0
 12  6  2  0  0  0  0
 13 21  1  0  0  0  0
 14 17  1  0  0  0  0
 15 13  1  0  0  0  0
 16 14  1  0  0  0  0
 17 18  2  0  0  0  0
 18 15  1  0  0  0  0
 19 13  2  0  0  0  0
 20 16  2  0  0  0  0
 21 10  1  0  0  0  0
 22  8  1  0  0  0  0
 23  9  1  0  0  0  0
 24 22  1  0  0  0  0
 25 26  1  0  0  0  0
 26 27  2  0  0  0  0
 27 18  1  0  0  0  0
 28 16  1  0  0  0  0
 29 11  2  0  0  0  0
 30 11  1  0  0  0  0
 31 30  2  0  0  0  0
 32 29  1  0  0  0  0
 33 31  1  0  0  0  0
  9  7  1  0  0  0  0
  5  4  2  0  0  0  0
 24 23  1  0  0  0  0
 32 33  2  0  0  0  0
 14 25  2  0  0  0  0
M  END
>  <IDNUMBER>
F3394-0325

>  <Chemical_Name>
N-(3-acetylphenyl)-2-({12-oxo-11-phenyl-7-thia-9,11-diazatricyclo[6.4.0.0?,?]dodeca-1(8),2(6),9-trien-10-yl}sulfanyl)acetamide

>  <PriceCoeff>
1.00

>  <CAS>
667913-10-2

>  <MW>
475.58

>  <Description>
solid

>  <FSP3>
0.20

>  <clogP>
5.03

>  <TPSA>
132.38

>  <Acceptor>
4

>  <Donor>
1

>  <RotBonds>
6

>  <HAC>
33

>  <Collection>
General

>  <PPDS>
+

$$$$
F3394-0326
  Mrv2219 10102508112D          

 32 36  0  0  0  0            999 V2000
    3.0097   -1.5713    0.0000 C   0  0  0  0  0  0  0  0  0  0  0  0
    3.0097   -0.7482    0.0000 C   0  0  0  0  0  0  0  0  0  0  0  0
    1.5838   -1.5713    0.0000 N   0  0  0  0  0  0  0  0  0  0  0  0
    2.2988   -0.3367    0.0000 N   0  0  0  0  0  0  0  0  0  0  0  0
    1.5880   -0.7482    0.0000 C   0  0  0  0  0  0  0  0  0  0  0  0
    2.2988   -1.9829    0.0000 C   0  0  0  0  0  0  0  0  0  0  0  0
    3.7911   -0.4906    0.0000 S   0  0  0  0  0  0  0  0  0  0  0  0
    3.7911   -1.8249    0.0000 C   0  0  0  0  0  0  0  0  0  0  0  0
    4.2692   -1.1640    0.0000 C   0  0  0  0  0  0  0  0  0  0  0  0
   -1.2803   -0.7649    0.0000 C   0  0  0  0  0  0  0  0  0  0  0  0
    0.8647   -1.9829    0.0000 C   0  0  0  0  0  0  0  0  0  0  0  0
    2.2988   -2.8059    0.0000 O   0  0  0  0  0  0  0  0  0  0  0  0
    0.8647   -0.3367    0.0000 S   0  0  0  0  0  0  0  0  0  0  0  0
   -1.9953   -0.3617    0.0000 N   0  0  0  0  0  0  0  0  0  0  0  0
   -0.5695   -0.3409    0.0000 C   0  0  0  0  0  0  0  0  0  0  0  0
   -1.2720   -1.5880    0.0000 O   0  0  0  0  0  0  0  0  0  0  0  0
   -2.7144   -0.7774    0.0000 C   0  0  0  0  0  0  0  0  0  0  0  0
    0.1538   -0.7524    0.0000 C   0  0  0  0  0  0  0  0  0  0  0  0
    4.2775   -2.4859    0.0000 C   0  0  0  0  0  0  0  0  0  0  0  0
    5.0549   -1.4217    0.0000 C   0  0  0  0  0  0  0  0  0  0  0  0
   -4.1486   -1.6129    0.0000 C   0  0  0  0  0  0  0  0  0  0  0  0
   -3.4378   -0.3658    0.0000 C   0  0  0  0  0  0  0  0  0  0  0  0
   -2.7062   -1.6005    0.0000 C   0  0  0  0  0  0  0  0  0  0  0  0
   -4.1486   -0.7899    0.0000 C   0  0  0  0  0  0  0  0  0  0  0  0
   -3.4170   -2.0120    0.0000 C   0  0  0  0  0  0  0  0  0  0  0  0
    5.0631   -2.2240    0.0000 C   0  0  0  0  0  0  0  0  0  0  0  0
    0.1538   -1.5713    0.0000 C   0  0  0  0  0  0  0  0  0  0  0  0
    0.8647   -2.8101    0.0000 C   0  0  0  0  0  0  0  0  0  0  0  0
   -4.8719   -2.0369    0.0000 C   0  0  0  0  0  0  0  0  0  0  0  0
    0.1538   -3.2217    0.0000 C   0  0  0  0  0  0  0  0  0  0  0  0
   -0.5612   -1.9829    0.0000 C   0  0  0  0  0  0  0  0  0  0  0  0
   -0.5612   -2.8101    0.0000 C   0  0  0  0  0  0  0  0  0  0  0  0
  2  1  2  0  0  0  0
  3  6  1  0  0  0  0
  4  2  1  0  0  0  0
  5  3  1  0  0  0  0
  6  1  1  0  0  0  0
  7  2  1  0  0  0  0
  8  1  1  0  0  0  0
  9  8  2  0  0  0  0
 10 15  1  0  0  0  0
 11  3  1  0  0  0  0
 12  6  2  0  0  0  0
 13  5  1  0  0  0  0
 14 10  1  0  0  0  0
 15 18  1  0  0  0  0
 16 10  2  0  0  0  0
 17 14  1  0  0  0  0
 18 13  1  0  0  0  0
 19  8  1  0  0  0  0
 20  9  1  0  0  0  0
 21 25  1  0  0  0  0
 22 17  2  0  0  0  0
 23 17  1  0  0  0  0
 24 22  1  0  0  0  0
 25 23  2  0  0  0  0
 26 19  1  0  0  0  0
 27 11  2  0  0  0  0
 28 11  1  0  0  0  0
 29 21  1  0  0  0  0
 30 28  2  0  0  0  0
 31 27  1  0  0  0  0
 32 30  1  0  0  0  0
  9  7  1  0  0  0  0
 26 20  1  0  0  0  0
  4  5  2  0  0  0  0
 31 32  2  0  0  0  0
 24 21  2  0  0  0  0
M  END
>  <IDNUMBER>
F3394-0326

>  <Chemical_Name>
N-(4-methylphenyl)-3-({12-oxo-11-phenyl-7-thia-9,11-diazatricyclo[6.4.0.0?,?]dodeca-1(8),2(6),9-trien-10-yl}sulfanyl)propanamide

>  <PriceCoeff>
1.00

>  <CAS>
670273-15-1

>  <MW>
461.60

>  <Description>
solid

>  <FSP3>
0.24

>  <clogP>
5.95

>  <TPSA>
115.31

>  <Acceptor>
3

>  <Donor>
1

>  <RotBonds>
6

>  <HAC>
32

>  <Collection>
General

>  <PPDS>
+

$$$$
F3394-0334
  Mrv2219 10102508112D          

 32 36  0  0  0  0            999 V2000
    3.3898   -5.4537    0.0000 C   0  0  0  0  0  0  0  0  0  0  0  0
    3.3898   -4.6281    0.0000 C   0  0  0  0  0  0  0  0  0  0  0  0
    1.9555   -5.4453    0.0000 N   0  0  0  0  0  0  0  0  0  0  0  0
    1.9555   -4.6198    0.0000 C   0  0  0  0  0  0  0  0  0  0  0  0
    2.6810   -4.2070    0.0000 N   0  0  0  0  0  0  0  0  0  0  0  0
    2.6685   -5.8581    0.0000 C   0  0  0  0  0  0  0  0  0  0  0  0
    4.1695   -4.3779    0.0000 S   0  0  0  0  0  0  0  0  0  0  0  0
    4.1695   -5.7080    0.0000 C   0  0  0  0  0  0  0  0  0  0  0  0
    4.6531   -5.0451    0.0000 C   0  0  0  0  0  0  0  0  0  0  0  0
    1.2425   -4.2070    0.0000 S   0  0  0  0  0  0  0  0  0  0  0  0
    1.9555   -2.9687    0.0000 C   0  0  0  0  0  0  0  0  0  0  0  0
    1.9555   -2.1431    0.0000 N   0  0  0  0  0  0  0  0  0  0  0  0
    1.2383   -5.8539    0.0000 C   0  0  0  0  0  0  0  0  0  0  0  0
    2.6685   -6.6837    0.0000 O   0  0  0  0  0  0  0  0  0  0  0  0
    1.2425   -3.3815    0.0000 C   0  0  0  0  0  0  0  0  0  0  0  0
    2.6685   -3.3815    0.0000 O   0  0  0  0  0  0  0  0  0  0  0  0
    4.3821   -6.5044    0.0000 C   0  0  0  0  0  0  0  0  0  0  0  0
    5.4787   -5.0076    0.0000 C   0  0  0  0  0  0  0  0  0  0  0  0
    1.2133   -1.7804    0.0000 C   0  0  0  0  0  0  0  0  0  0  0  0
    2.7060   -1.7804    0.0000 C   0  0  0  0  0  0  0  0  0  0  0  0
    1.2383   -6.6837    0.0000 C   0  0  0  0  0  0  0  0  0  0  0  0
    0.5254   -5.4411    0.0000 C   0  0  0  0  0  0  0  0  0  0  0  0
    5.1326   -6.8338    0.0000 C   0  0  0  0  0  0  0  0  0  0  0  0
    6.0165   -5.6330    0.0000 C   0  0  0  0  0  0  0  0  0  0  0  0
    2.8811   -0.9757    0.0000 C   0  0  0  0  0  0  0  0  0  0  0  0
    1.0382   -0.9799    0.0000 C   0  0  0  0  0  0  0  0  0  0  0  0
   -0.1959   -5.8539    0.0000 C   0  0  0  0  0  0  0  0  0  0  0  0
    0.5254   -7.0965    0.0000 C   0  0  0  0  0  0  0  0  0  0  0  0
   -0.1959   -6.6795    0.0000 C   0  0  0  0  0  0  0  0  0  0  0  0
    1.5552   -0.3294    0.0000 C   0  0  0  0  0  0  0  0  0  0  0  0
    2.3683   -0.3294    0.0000 C   0  0  0  0  0  0  0  0  0  0  0  0
    5.8706   -6.4460    0.0000 C   0  0  0  0  0  0  0  0  0  0  0  0
  2  1  2  0  0  0  0
  3  6  1  0  0  0  0
  4  3  1  0  0  0  0
  5  2  1  0  0  0  0
  6  1  1  0  0  0  0
  7  2  1  0  0  0  0
  8  1  1  0  0  0  0
  9  8  2  0  0  0  0
 10  4  1  0  0  0  0
 11 15  1  0  0  0  0
 12 11  1  0  0  0  0
 13  3  1  0  0  0  0
 14  6  2  0  0  0  0
 15 10  1  0  0  0  0
 16 11  2  0  0  0  0
 17  8  1  0  0  0  0
 18  9  1  0  0  0  0
 19 12  1  0  0  0  0
 20 12  1  0  0  0  0
 21 13  1  0  0  0  0
 22 13  2  0  0  0  0
 23 17  1  0  0  0  0
 24 18  1  0  0  0  0
 25 20  1  0  0  0  0
 26 19  1  0  0  0  0
 27 22  1  0  0  0  0
 28 21  2  0  0  0  0
 29 27  2  0  0  0  0
 30 26  1  0  0  0  0
 31 25  1  0  0  0  0
 32 23  1  0  0  0  0
  9  7  1  0  0  0  0
  5  4  2  0  0  0  0
 24 32  1  0  0  0  0
 29 28  1  0  0  0  0
 30 31  1  0  0  0  0
M  END
>  <IDNUMBER>
F3394-0334

>  <Chemical_Name>
5-{[2-(azepan-1-yl)-2-oxoethyl]sulfanyl}-4-phenyl-8-thia-4,6-diazatricyclo[7.5.0.0?,?]tetradeca-1(9),2(7),5-trien-3-one

>  <PriceCoeff>
1.00

>  <CAS>
670273-26-4

>  <MW>
467.65

>  <Description>
solid

>  <FSP3>
0.48

>  <clogP>
6.16

>  <TPSA>
106.52

>  <Acceptor>
3

>  <Donor>
0

>  <RotBonds>
5

>  <HAC>
32

>  <Collection>
General

>  <PPDS>
+

$$$$
F3394-0589
  Mrv2219 10102508112D          

 36 40  0  0  0  0            999 V2000
    2.8225    2.5678    0.0000 C   0  0  0  0  0  0  0  0  0  0  0  0
    2.5219    1.8037    0.0000 C   0  0  0  0  0  0  0  0  0  0  0  0
    4.1461    2.0542    0.0000 N   0  0  0  0  0  0  0  0  0  0  0  0
    3.8455    1.2985    0.0000 C   0  0  0  0  0  0  0  0  0  0  0  0
    3.0438    1.1649    0.0000 N   0  0  0  0  0  0  0  0  0  0  0  0
    3.6367    2.7014    0.0000 C   0  0  0  0  0  0  0  0  0  0  0  0
    1.7035    1.8538    0.0000 S   0  0  0  0  0  0  0  0  0  0  0  0
    2.1837    3.1022    0.0000 C   0  0  0  0  0  0  0  0  0  0  0  0
    1.4823    2.6513    0.0000 C   0  0  0  0  0  0  0  0  0  0  0  0
    2.9227   -0.1545    0.0000 N   0  0  0  0  0  0  0  0  0  0  0  0
    3.6450   -0.5804    0.0000 C   0  0  0  0  0  0  0  0  0  0  0  0
    1.4906   -0.1545    0.0000 C   0  0  0  0  0  0  0  0  0  0  0  0
    4.3590    0.6471    0.0000 S   0  0  0  0  0  0  0  0  0  0  0  0
    2.1962   -0.5679    0.0000 C   0  0  0  0  0  0  0  0  0  0  0  0
    1.4906    0.6513    0.0000 C   0  0  0  0  0  0  0  0  0  0  0  0
    0.7683   -0.5679    0.0000 C   0  0  0  0  0  0  0  0  0  0  0  0
    0.0543   -0.1545    0.0000 C   0  0  0  0  0  0  0  0  0  0  0  0
    0.0543    0.6513    0.0000 C   0  0  0  0  0  0  0  0  0  0  0  0
    4.9603    2.1878    0.0000 C   0  0  0  0  0  0  0  0  0  0  0  0
    0.7683    1.0730    0.0000 C   0  0  0  0  0  0  0  0  0  0  0  0
    3.9248    3.4697    0.0000 O   0  0  0  0  0  0  0  0  0  0  0  0
    2.9227    0.6513    0.0000 C   0  0  0  0  0  0  0  0  0  0  0  0
    4.3590   -0.1670    0.0000 C   0  0  0  0  0  0  0  0  0  0  0  0
    3.6367   -1.4071    0.0000 O   0  0  0  0  0  0  0  0  0  0  0  0
    2.1962    1.0730    0.0000 C   0  0  0  0  0  0  0  0  0  0  0  0
    2.2338    3.9289    0.0000 C   0  0  0  0  0  0  0  0  0  0  0  0
   -0.6513    1.0730    0.0000 O   0  0  0  0  0  0  0  0  0  0  0  0
   -0.6513   -0.5804    0.0000 O   0  0  0  0  0  0  0  0  0  0  0  0
    0.7015    2.9269    0.0000 C   0  0  0  0  0  0  0  0  0  0  0  0
    5.2651    2.9519    0.0000 C   0  0  0  0  0  0  0  0  0  0  0  0
    5.4780    1.5490    0.0000 C   0  0  0  0  0  0  0  0  0  0  0  0
   -1.3736    0.6513    0.0000 C   0  0  0  0  0  0  0  0  0  0  0  0
   -1.3736   -0.1670    0.0000 C   0  0  0  0  0  0  0  0  0  0  0  0
    6.2922    1.6659    0.0000 C   0  0  0  0  0  0  0  0  0  0  0  0
    6.0793    3.0772    0.0000 C   0  0  0  0  0  0  0  0  0  0  0  0
    6.5928    2.4383    0.0000 C   0  0  0  0  0  0  0  0  0  0  0  0
  2  1  2  0  0  0  0
  3  6  1  0  0  0  0
  4  3  1  0  0  0  0
  5  2  1  0  0  0  0
  6  1  1  0  0  0  0
  7  2  1  0  0  0  0
  8  1  1  0  0  0  0
  9  8  2  0  0  0  0
 10 11  1  0  0  0  0
 11 23  1  0  0  0  0
 12 14  1  0  0  0  0
 13  4  1  0  0  0  0
 14 10  1  0  0  0  0
 15 25  1  0  0  0  0
 16 12  2  0  0  0  0
 17 16  1  0  0  0  0
 18 20  1  0  0  0  0
 19  3  1  0  0  0  0
 20 15  2  0  0  0  0
 21  6  2  0  0  0  0
 22 10  1  0  0  0  0
 23 13  1  0  0  0  0
 24 11  2  0  0  0  0
 25 22  1  0  0  0  0
 26  8  1  0  0  0  0
 27 18  1  0  0  0  0
 28 17  1  0  0  0  0
 29  9  1  0  0  0  0
 30 19  1  0  0  0  0
 31 19  2  0  0  0  0
 32 27  1  0  0  0  0
 33 28  1  0  0  0  0
 34 31  1  0  0  0  0
 35 30  2  0  0  0  0
 36 34  2  0  0  0  0
  7  9  1  0  0  0  0
  4  5  2  0  0  0  0
 36 35  1  0  0  0  0
 15 12  1  0  0  0  0
 18 17  2  0  0  0  0
M  END
>  <IDNUMBER>
F3394-0589

>  <Chemical_Name>
2-{[2-(6,7-dimethoxy-1,2,3,4-tetrahydroisoquinolin-2-yl)-2-oxoethyl]sulfanyl}-5,6-dimethyl-3-phenyl-3H,4H-thieno[2,3-d]pyrimidin-4-one

>  <PriceCoeff>
1.00

>  <CAS>
690645-35-3

>  <MW>
521.65

>  <Description>
solid

>  <FSP3>
0.30

>  <clogP>
4.73

>  <TPSA>
124.98

>  <Acceptor>
5

>  <Donor>
0

>  <RotBonds>
7

>  <HAC>
36

>  <Collection>
General

>  <PPDS>
+

$$$$
F3394-0679
  Mrv2219 10102508112D          

 37 42  0  0  0  0            999 V2000
    7.3039    0.4983    0.0000 C   0  0  0  0  0  0  0  0  0  0  0  0
    6.6380    0.9758    0.0000 C   0  0  0  0  0  0  0  0  0  0  0  0
    6.4704   -0.6575    0.0000 N   0  0  0  0  0  0  0  0  0  0  0  0
    5.7962   -0.1676    0.0000 C   0  0  0  0  0  0  0  0  0  0  0  0
    5.8842    0.6491    0.0000 N   0  0  0  0  0  0  0  0  0  0  0  0
    7.2368   -0.3183    0.0000 C   0  0  0  0  0  0  0  0  0  0  0  0
    6.8893    1.7590    0.0000 S   0  0  0  0  0  0  0  0  0  0  0  0
    7.9698    0.9758    0.0000 C   0  0  0  0  0  0  0  0  0  0  0  0
    7.7185    1.7590    0.0000 C   0  0  0  0  0  0  0  0  0  0  0  0
    2.9191   -0.1550    0.0000 N   0  0  0  0  0  0  0  0  0  0  0  0
    3.6561   -0.5822    0.0000 C   0  0  0  0  0  0  0  0  0  0  0  0
    1.4951   -0.1550    0.0000 C   0  0  0  0  0  0  0  0  0  0  0  0
    5.0801   -0.5822    0.0000 S   0  0  0  0  0  0  0  0  0  0  0  0
    2.2029   -0.5696    0.0000 C   0  0  0  0  0  0  0  0  0  0  0  0
    1.4951    0.6533    0.0000 C   0  0  0  0  0  0  0  0  0  0  0  0
    0.7706   -0.5696    0.0000 C   0  0  0  0  0  0  0  0  0  0  0  0
    0.0545   -0.1550    0.0000 C   0  0  0  0  0  0  0  0  0  0  0  0
    0.0545    0.6533    0.0000 C   0  0  0  0  0  0  0  0  0  0  0  0
    6.3867   -1.4742    0.0000 C   0  0  0  0  0  0  0  0  0  0  0  0
    0.7706    1.0763    0.0000 C   0  0  0  0  0  0  0  0  0  0  0  0
    7.8944   -0.8041    0.0000 O   0  0  0  0  0  0  0  0  0  0  0  0
    2.9191    0.6533    0.0000 C   0  0  0  0  0  0  0  0  0  0  0  0
    4.3723   -0.1676    0.0000 C   0  0  0  0  0  0  0  0  0  0  0  0
    3.6478   -1.4114    0.0000 O   0  0  0  0  0  0  0  0  0  0  0  0
    2.2029    1.0763    0.0000 C   0  0  0  0  0  0  0  0  0  0  0  0
    8.7948    0.9758    0.0000 C   0  0  0  0  0  0  0  0  0  0  0  0
    8.3927    2.2573    0.0000 C   0  0  0  0  0  0  0  0  0  0  0  0
   -0.6533   -0.5822    0.0000 O   0  0  0  0  0  0  0  0  0  0  0  0
   -0.6533    1.0763    0.0000 O   0  0  0  0  0  0  0  0  0  0  0  0
    9.0503    1.7590    0.0000 C   0  0  0  0  0  0  0  0  0  0  0  0
    5.6329   -1.8092    0.0000 C   0  0  0  0  0  0  0  0  0  0  0  0
    7.0526   -1.9600    0.0000 C   0  0  0  0  0  0  0  0  0  0  0  0
   -1.3904   -0.1676    0.0000 C   0  0  0  0  0  0  0  0  0  0  0  0
   -1.3778    0.6533    0.0000 C   0  0  0  0  0  0  0  0  0  0  0  0
    6.9730   -2.7683    0.0000 C   0  0  0  0  0  0  0  0  0  0  0  0
    5.5449   -2.6301    0.0000 C   0  0  0  0  0  0  0  0  0  0  0  0
    6.2192   -3.1159    0.0000 C   0  0  0  0  0  0  0  0  0  0  0  0
  2  1  2  0  0  0  0
  3  6  1  0  0  0  0
  4  3  1  0  0  0  0
  5  2  1  0  0  0  0
  6  1  1  0  0  0  0
  7  2  1  0  0  0  0
  8  1  1  0  0  0  0
  9  8  2  0  0  0  0
 10 11  1  0  0  0  0
 11 23  1  0  0  0  0
 12 14  1  0  0  0  0
 13  4  1  0  0  0  0
 14 10  1  0  0  0  0
 15 25  1  0  0  0  0
 16 12  2  0  0  0  0
 17 16  1  0  0  0  0
 18 20  1  0  0  0  0
 19  3  1  0  0  0  0
 20 15  2  0  0  0  0
 21  6  2  0  0  0  0
 22 10  1  0  0  0  0
 23 13  1  0  0  0  0
 24 11  2  0  0  0  0
 25 22  1  0  0  0  0
 26  8  1  0  0  0  0
 27  9  1  0  0  0  0
 28 17  1  0  0  0  0
 29 18  1  0  0  0  0
 30 26  1  0  0  0  0
 31 19  2  0  0  0  0
 32 19  1  0  0  0  0
 33 28  1  0  0  0  0
 34 29  1  0  0  0  0
 35 32  2  0  0  0  0
 36 31  1  0  0  0  0
 37 35  1  0  0  0  0
  7  9  1  0  0  0  0
  4  5  2  0  0  0  0
 27 30  1  0  0  0  0
 37 36  2  0  0  0  0
 12 15  1  0  0  0  0
 17 18  2  0  0  0  0
M  END
>  <IDNUMBER>
F3394-0679

>  <Chemical_Name>
10-{[2-(6,7-dimethoxy-1,2,3,4-tetrahydroisoquinolin-2-yl)-2-oxoethyl]sulfanyl}-11-phenyl-7-thia-9,11-diazatricyclo[6.4.0.0?,?]dodeca-1(8),2(6),9-trien-12-one

>  <PriceCoeff>
1.00

>  <CAS>
700860-22-6

>  <MW>
533.66

>  <Description>
solid

>  <FSP3>
0.32

>  <clogP>
4.80

>  <TPSA>
124.98

>  <Acceptor>
5

>  <Donor>
0

>  <RotBonds>
7

>  <HAC>
37

>  <Collection>
General

>  <PPDS>
+

$$$$
F3394-0687
  Mrv2219 10102508112D          

 39 44  0  0  0  0            999 V2000
    7.2325    0.6487    0.0000 C   0  0  0  0  0  0  0  0  0  0  0  0
    6.5168    1.0547    0.0000 C   0  0  0  0  0  0  0  0  0  0  0  0
    6.5085   -0.5818    0.0000 N   0  0  0  0  0  0  0  0  0  0  0  0
    5.7927   -0.1675    0.0000 C   0  0  0  0  0  0  0  0  0  0  0  0
    5.8053    0.6529    0.0000 N   0  0  0  0  0  0  0  0  0  0  0  0
    7.2325   -0.1675    0.0000 C   0  0  0  0  0  0  0  0  0  0  0  0
    6.6968    1.8584    0.0000 S   0  0  0  0  0  0  0  0  0  0  0  0
    7.8394    1.1886    0.0000 C   0  0  0  0  0  0  0  0  0  0  0  0
    7.5130    1.9420    0.0000 C   0  0  0  0  0  0  0  0  0  0  0  0
    2.9173   -0.1549    0.0000 N   0  0  0  0  0  0  0  0  0  0  0  0
    3.6539   -0.5818    0.0000 C   0  0  0  0  0  0  0  0  0  0  0  0
    1.4942   -0.1549    0.0000 C   0  0  0  0  0  0  0  0  0  0  0  0
    5.0770   -0.5818    0.0000 S   0  0  0  0  0  0  0  0  0  0  0  0
    2.2016   -0.5693    0.0000 C   0  0  0  0  0  0  0  0  0  0  0  0
    1.4942    0.6529    0.0000 C   0  0  0  0  0  0  0  0  0  0  0  0
    0.7702   -0.5693    0.0000 C   0  0  0  0  0  0  0  0  0  0  0  0
    0.0544   -0.1549    0.0000 C   0  0  0  0  0  0  0  0  0  0  0  0
    0.0544    0.6529    0.0000 C   0  0  0  0  0  0  0  0  0  0  0  0
    6.5085   -1.4063    0.0000 C   0  0  0  0  0  0  0  0  0  0  0  0
    0.7702    1.0756    0.0000 C   0  0  0  0  0  0  0  0  0  0  0  0
    7.9357   -0.5902    0.0000 O   0  0  0  0  0  0  0  0  0  0  0  0
    2.9173    0.6529    0.0000 C   0  0  0  0  0  0  0  0  0  0  0  0
    4.3696   -0.1675    0.0000 C   0  0  0  0  0  0  0  0  0  0  0  0
    3.6456   -1.4105    0.0000 O   0  0  0  0  0  0  0  0  0  0  0  0
    2.2016    1.0756    0.0000 C   0  0  0  0  0  0  0  0  0  0  0  0
    8.6388    0.9752    0.0000 C   0  0  0  0  0  0  0  0  0  0  0  0
   -0.6529    1.0756    0.0000 O   0  0  0  0  0  0  0  0  0  0  0  0
   -0.6529   -0.5818    0.0000 O   0  0  0  0  0  0  0  0  0  0  0  0
    7.9022    2.6620    0.0000 C   0  0  0  0  0  0  0  0  0  0  0  0
    7.2200   -1.8249    0.0000 C   0  0  0  0  0  0  0  0  0  0  0  0
    5.7927   -1.8123    0.0000 C   0  0  0  0  0  0  0  0  0  0  0  0
   -1.3770    0.6529    0.0000 C   0  0  0  0  0  0  0  0  0  0  0  0
   -1.3895   -0.1675    0.0000 C   0  0  0  0  0  0  0  0  0  0  0  0
    9.2960    1.4565    0.0000 C   0  0  0  0  0  0  0  0  0  0  0  0
    8.7058    2.8252    0.0000 C   0  0  0  0  0  0  0  0  0  0  0  0
    5.7802   -2.6411    0.0000 C   0  0  0  0  0  0  0  0  0  0  0  0
    7.2200   -2.6494    0.0000 C   0  0  0  0  0  0  0  0  0  0  0  0
    6.4959   -3.0638    0.0000 C   0  0  0  0  0  0  0  0  0  0  0  0
    9.3420    2.2936    0.0000 C   0  0  0  0  0  0  0  0  0  0  0  0
  2  1  2  0  0  0  0
  3  6  1  0  0  0  0
  4  3  1  0  0  0  0
  5  2  1  0  0  0  0
  6  1  1  0  0  0  0
  7  2  1  0  0  0  0
  8  1  1  0  0  0  0
  9  8  2  0  0  0  0
 10 11  1  0  0  0  0
 11 23  1  0  0  0  0
 12 14  1  0  0  0  0
 13  4  1  0  0  0  0
 14 10  1  0  0  0  0
 15 25  1  0  0  0  0
 16 12  2  0  0  0  0
 17 16  1  0  0  0  0
 18 20  1  0  0  0  0
 19  3  1  0  0  0  0
 20 15  2  0  0  0  0
 21  6  2  0  0  0  0
 22 10  1  0  0  0  0
 23 13  1  0  0  0  0
 24 11  2  0  0  0  0
 25 22  1  0  0  0  0
 26  8  1  0  0  0  0
 27 18  1  0  0  0  0
 28 17  1  0  0  0  0
 29  9  1  0  0  0  0
 30 19  1  0  0  0  0
 31 19  2  0  0  0  0
 32 27  1  0  0  0  0
 33 28  1  0  0  0  0
 34 26  1  0  0  0  0
 35 29  1  0  0  0  0
 36 31  1  0  0  0  0
 37 30  2  0  0  0  0
 38 36  2  0  0  0  0
 39 34  1  0  0  0  0
  7  9  1  0  0  0  0
  4  5  2  0  0  0  0
 39 35  1  0  0  0  0
 37 38  1  0  0  0  0
 12 15  1  0  0  0  0
 17 18  2  0  0  0  0
M  END
>  <IDNUMBER>
F3394-0687

>  <Chemical_Name>
5-{[2-(6,7-dimethoxy-1,2,3,4-tetrahydroisoquinolin-2-yl)-2-oxoethyl]sulfanyl}-4-phenyl-8-thia-4,6-diazatricyclo[7.5.0.0?,?]tetradeca-1(9),2(7),5-trien-3-one

>  <PriceCoeff>
1.00

>  <CAS>
671200-54-7

>  <MW>
561.71

>  <Description>
solid

>  <FSP3>
0.37

>  <clogP>
5.92

>  <TPSA>
124.98

>  <Acceptor>
5

>  <Donor>
0

>  <RotBonds>
7

>  <HAC>
39

>  <Collection>
General

>  <PPDS>
+

$$$$
F3394-1157
  Mrv2219 10102508112D          

 30 33  0  0  0  0            999 V2000
    5.1108   -4.2950    0.0000 C   0  0  0  0  0  0  0  0  0  0  0  0
    5.0109   -3.4752    0.0000 C   0  0  0  0  0  0  0  0  0  0  0  0
    3.6999   -4.4740    0.0000 N   0  0  0  0  0  0  0  0  0  0  0  0
    3.6000   -3.6625    0.0000 C   0  0  0  0  0  0  0  0  0  0  0  0
    4.2493   -3.1631    0.0000 N   0  0  0  0  0  0  0  0  0  0  0  0
    4.4574   -4.7987    0.0000 C   0  0  0  0  0  0  0  0  0  0  0  0
    5.7476   -3.1339    0.0000 S   0  0  0  0  0  0  0  0  0  0  0  0
    5.9224   -4.4491    0.0000 C   0  0  0  0  0  0  0  0  0  0  0  0
    6.3219   -3.7124    0.0000 C   0  0  0  0  0  0  0  0  0  0  0  0
    2.8384   -3.3379    0.0000 S   0  0  0  0  0  0  0  0  0  0  0  0
    3.3087   -1.2028    0.0000 C   0  0  0  0  0  0  0  0  0  0  0  0
    3.0507   -4.9735    0.0000 C   0  0  0  0  0  0  0  0  0  0  0  0
    4.5739   -5.6102    0.0000 O   0  0  0  0  0  0  0  0  0  0  0  0
    3.9621   -0.7159    0.0000 C   0  0  0  0  0  0  0  0  0  0  0  0
    3.4003   -2.0227    0.0000 C   0  0  0  0  0  0  0  0  0  0  0  0
    3.8622    0.0999    0.0000 C   0  0  0  0  0  0  0  0  0  0  0  0
    2.7468   -2.5138    0.0000 C   0  0  0  0  0  0  0  0  0  0  0  0
    3.1089    0.4328    0.0000 C   0  0  0  0  0  0  0  0  0  0  0  0
    2.5471   -0.8782    0.0000 C   0  0  0  0  0  0  0  0  0  0  0  0
    4.1619   -2.3473    0.0000 O   0  0  0  0  0  0  0  0  0  0  0  0
    2.4389   -0.0624    0.0000 C   0  0  0  0  0  0  0  0  0  0  0  0
    6.2803   -5.1940    0.0000 C   0  0  0  0  0  0  0  0  0  0  0  0
    7.1460   -3.5876    0.0000 C   0  0  0  0  0  0  0  0  0  0  0  0
    4.5240    0.5951    0.0000 C   0  0  0  0  0  0  0  0  0  0  0  0
    3.1506   -5.7975    0.0000 C   0  0  0  0  0  0  0  0  0  0  0  0
    2.2849   -4.6696    0.0000 C   0  0  0  0  0  0  0  0  0  0  0  0
    3.0132    1.2486    0.0000 C   0  0  0  0  0  0  0  0  0  0  0  0
    1.6356   -5.1608    0.0000 C   0  0  0  0  0  0  0  0  0  0  0  0
    2.5013   -6.3052    0.0000 C   0  0  0  0  0  0  0  0  0  0  0  0
    1.7397   -5.9848    0.0000 C   0  0  0  0  0  0  0  0  0  0  0  0
  2  1  2  0  0  0  0
  3  6  1  0  0  0  0
  4  3  1  0  0  0  0
  5  2  1  0  0  0  0
  6  1  1  0  0  0  0
  7  2  1  0  0  0  0
  8  1  1  0  0  0  0
  9  8  2  0  0  0  0
 10  4  1  0  0  0  0
 11 15  1  0  0  0  0
 12  3  1  0  0  0  0
 13  6  2  0  0  0  0
 14 11  2  0  0  0  0
 15 17  1  0  0  0  0
 16 14  1  0  0  0  0
 17 10  1  0  0  0  0
 18 21  1  0  0  0  0
 19 11  1  0  0  0  0
 20 15  2  0  0  0  0
 21 19  2  0  0  0  0
 22  8  1  0  0  0  0
 23  9  1  0  0  0  0
 24 16  1  0  0  0  0
 25 12  1  0  0  0  0
 26 12  2  0  0  0  0
 27 18  1  0  0  0  0
 28 26  1  0  0  0  0
 29 25  2  0  0  0  0
 30 28  2  0  0  0  0
  7  9  1  0  0  0  0
  4  5  2  0  0  0  0
 30 29  1  0  0  0  0
 16 18  2  0  0  0  0
M  END
>  <IDNUMBER>
F3394-1157

>  <Chemical_Name>
2-{[2-(3,4-dimethylphenyl)-2-oxoethyl]sulfanyl}-5,6-dimethyl-3-phenyl-3H,4H-thieno[2,3-d]pyrimidin-4-one

>  <PriceCoeff>
1.00

>  <CAS>
708286-73-1

>  <MW>
434.57

>  <Description>
solid

>  <FSP3>
0.21

>  <clogP>
6.42

>  <TPSA>
103.28

>  <Acceptor>
3

>  <Donor>
0

>  <RotBonds>
5

>  <HAC>
30

>  <Collection>
General

>  <PPDS>
+

$$$$
F3395-0158
  Mrv2219 10102508112D          

 15 16  0  0  0  0            999 V2000
   10.3872   -3.0279    0.0000 C   0  0  0  0  0  0  0  0  0  0  0  0
    9.6750   -3.4443    0.0000 C   0  0  0  0  0  0  0  0  0  0  0  0
    8.9544   -3.0320    0.0000 C   0  0  0  0  0  0  0  0  0  0  0  0
    6.8054   -3.4527    0.0000 C   0  0  0  0  0  0  0  0  0  0  0  0
    7.5176   -3.0404    0.0000 C   0  0  0  0  0  0  0  0  0  0  0  0
   10.3788   -2.1991    0.0000 O   0  0  0  0  0  0  0  0  0  0  0  0
    8.2340   -3.4527    0.0000 C   0  0  0  0  0  0  0  0  0  0  0  0
    6.8054   -4.2774    0.0000 C   0  0  0  0  0  0  0  0  0  0  0  0
    7.5176   -4.6897    0.0000 C   0  0  0  0  0  0  0  0  0  0  0  0
   11.1077   -3.4360    0.0000 O   0  0  0  0  0  0  0  0  0  0  0  0
    8.2340   -4.2774    0.0000 C   0  0  0  0  0  0  0  0  0  0  0  0
    6.0932   -3.0404    0.0000 C   0  0  0  0  0  0  0  0  0  0  0  0
    6.0932   -4.6897    0.0000 C   0  0  0  0  0  0  0  0  0  0  0  0
    5.3769   -3.4527    0.0000 C   0  0  0  0  0  0  0  0  0  0  0  0
    5.3769   -4.2774    0.0000 C   0  0  0  0  0  0  0  0  0  0  0  0
  2  1  1  0  0  0  0
  3  2  2  0  0  0  0
  4  5  1  0  0  0  0
  5  7  2  0  0  0  0
  6  1  2  0  0  0  0
  7  3  1  0  0  0  0
  8  9  1  0  0  0  0
  9 11  2  0  0  0  0
 10  1  1  0  0  0  0
 11  7  1  0  0  0  0
 12  4  2  0  0  0  0
 13  8  2  0  0  0  0
 14 12  1  0  0  0  0
 15 13  1  0  0  0  0
  4  8  1  0  0  0  0
 15 14  2  0  0  0  0
M  END
>  <IDNUMBER>
F3395-0158

>  <Chemical_Name>
(2E)-3-(naphthalen-2-yl)prop-2-enoic acid

>  <PriceCoeff>
1.00

>  <CAS>
49711-14-0

>  <MW>
198.22

>  <Description>
solid

>  <FSP3>
0.00

>  <clogP>
3.41

>  <TPSA>
37.30

>  <Acceptor>
2

>  <Donor>
0

>  <RotBonds>
2

>  <HAC>
15

>  <Collection>
General

$$$$
F3395-0160
  Mrv2219 10102508112D          

 12 13  0  0  0  0            999 V2000
    2.3667   -1.9417    0.0000 C   0  0  0  0  0  0  0  0  0  0  0  0
    3.0792   -1.5250    0.0000 C   0  0  0  0  0  0  0  0  0  0  0  0
    2.3667   -2.7667    0.0000 C   0  0  0  0  0  0  0  0  0  0  0  0
    3.0792   -3.1792    0.0000 C   0  0  0  0  0  0  0  0  0  0  0  0
    3.7958   -1.9375    0.0000 C   0  0  0  0  0  0  0  0  0  0  0  0
    3.7958   -2.7667    0.0000 C   0  0  0  0  0  0  0  0  0  0  0  0
    5.2250   -1.9292    0.0000 O   0  0  0  0  0  0  0  0  0  0  0  0
    1.6542   -1.5292    0.0000 C   0  0  0  0  0  0  0  0  0  0  0  0
    4.5083   -1.5208    0.0000 C   0  0  0  0  0  0  0  0  0  0  0  0
    1.6542   -3.1792    0.0000 C   0  0  0  0  0  0  0  0  0  0  0  0
    0.9417   -1.9417    0.0000 C   0  0  0  0  0  0  0  0  0  0  0  0
    0.9417   -2.7667    0.0000 C   0  0  0  0  0  0  0  0  0  0  0  0
  2  1  1  0  0  0  0
  3  1  1  0  0  0  0
  4  3  1  0  0  0  0
  5  2  2  0  0  0  0
  6  5  1  0  0  0  0
  7  9  1  0  0  0  0
  8  1  2  0  0  0  0
  9  5  1  0  0  0  0
 10  3  2  0  0  0  0
 11  8  1  0  0  0  0
 12 11  2  0  0  0  0
  6  4  2  0  0  0  0
 10 12  1  0  0  0  0
M  END
>  <IDNUMBER>
F3395-0160

>  <Chemical_Name>
(naphthalen-2-yl)methanol

>  <PriceCoeff>
1.00

>  <CAS>
1592-38-7

>  <MW>
158.20

>  <Description>
solid

>  <FSP3>
0.09

>  <clogP>
2.20

>  <TPSA>
20.23

>  <Acceptor>
1

>  <Donor>
1

>  <RotBonds>
1

>  <HAC>
12

>  <Collection>
General

>  <PPDS>
+

$$$$
F3395-1848
  Mrv2219 10102508112D          

 15 16  0  0  0  0            999 V2000
    6.4225   -2.7311    0.0000 N   0  0  0  0  0  0  0  0  0  0  0  0
    5.7116   -2.3196    0.0000 C   0  0  0  0  0  0  0  0  0  0  0  0
    6.4225   -3.5542    0.0000 C   0  0  0  0  0  0  0  0  0  0  0  0
    5.0008   -2.7311    0.0000 C   0  0  0  0  0  0  0  0  0  0  0  0
    5.7116   -3.9657    0.0000 O   0  0  0  0  0  0  0  0  0  0  0  0
    4.2900   -3.9699    0.0000 N   0  0  0  0  0  0  0  0  0  0  0  0
    7.1375   -2.3196    0.0000 C   0  0  0  0  0  0  0  0  0  0  0  0
    5.0008   -3.5584    0.0000 C   0  0  0  0  0  0  0  0  0  0  0  0
    5.7116   -1.4882    0.0000 C   0  0  0  0  0  0  0  0  0  0  0  0
    7.1375   -3.9657    0.0000 C   0  0  0  0  0  0  0  0  0  0  0  0
    4.2817   -2.3196    0.0000 C   0  0  0  0  0  0  0  0  0  0  0  0
    3.5708   -3.5584    0.0000 C   0  0  0  0  0  0  0  0  0  0  0  0
    7.1375   -1.4882    0.0000 C   0  0  0  0  0  0  0  0  0  0  0  0
    3.5708   -2.7311    0.0000 C   0  0  0  0  0  0  0  0  0  0  0  0
    6.4225   -1.0767    0.0000 C   0  0  0  0  0  0  0  0  0  0  0  0
  2  1  1  0  0  0  0
  3  1  1  0  0  0  0
  4  2  1  0  0  0  0
  5  3  2  0  0  0  0
  6  8  1  0  0  0  0
  7  1  1  0  0  0  0
  8  4  2  0  0  0  0
  9  2  1  0  0  0  0
 10  3  1  0  0  0  0
 11  4  1  0  0  0  0
 12 14  1  0  0  0  0
 13  7  1  0  0  0  0
 14 11  2  0  0  0  0
 15 13  1  0  0  0  0
  9 15  1  0  0  0  0
 12  6  2  0  0  0  0
M  END
>  <IDNUMBER>
F3395-1848

>  <Chemical_Name>
1-[2-(pyridin-3-yl)piperidin-1-yl]ethan-1-one

>  <PriceCoeff>
1.00

>  <MW>
204.27

>  <Description>
oil

>  <FSP3>
0.50

>  <clogP>
0.04

>  <TPSA>
33.20

>  <Acceptor>
2

>  <Donor>
1

>  <RotBonds>
2

>  <HAC>
15

>  <Collection>
General

>  <PPDS>
+

$$$$
F3395-2209
  Mrv2219 10102508112D          

 14 14  0  0  0  0            999 V2000
    2.8542   -4.1250    0.0000 C   0  0  0  0  0  0  0  0  0  0  0  0
    2.8542   -4.9500    0.0000 O   0  0  0  0  0  0  0  0  0  0  0  0
    3.5667   -3.7125    0.0000 O   0  0  0  0  0  0  0  0  0  0  0  0
    4.2792   -4.1250    0.0000 C   0  0  0  0  0  0  0  0  0  0  0  0
    5.7125   -4.1250    0.0000 C   0  0  0  0  0  0  0  0  0  0  0  0
    2.1417   -3.7125    0.0000 C   0  0  0  0  0  0  0  0  0  0  0  0
    5.0000   -3.7125    0.0000 C   0  0  0  0  0  0  0  0  0  0  0  0
    6.4292   -3.7125    0.0000 C   0  0  0  0  0  0  0  0  0  0  0  0
    5.7125   -4.9500    0.0000 C   0  0  0  0  0  0  0  0  0  0  0  0
    1.4250   -4.1250    0.0000 C   0  0  0  0  0  0  0  0  0  0  0  0
    0.7125   -3.7125    0.0000 C   0  0  0  0  0  0  0  0  0  0  0  0
    6.4292   -5.3625    0.0000 C   0  0  0  0  0  0  0  0  0  0  0  0
    7.1417   -4.1250    0.0000 C   0  0  0  0  0  0  0  0  0  0  0  0
    7.1417   -4.9500    0.0000 C   0  0  0  0  0  0  0  0  0  0  0  0
  2  1  2  0  0  0  0
  3  1  1  0  0  0  0
  4  3  1  0  0  0  0
  5  7  1  0  0  0  0
  6  1  1  0  0  0  0
  7  4  1  0  0  0  0
  8  5  2  0  0  0  0
  9  5  1  0  0  0  0
 10  6  1  0  0  0  0
 11 10  1  0  0  0  0
 12  9  2  0  0  0  0
 13  8  1  0  0  0  0
 14 12  1  0  0  0  0
 14 13  2  0  0  0  0
M  END
>  <IDNUMBER>
F3395-2209

>  <Chemical_Name>
2-phenylethyl butanoate

>  <PriceCoeff>
1.00

>  <MW>
192.26

>  <Description>
liquid

>  <FSP3>
0.42

>  <clogP>
3.08

>  <TPSA>
26.30

>  <Acceptor>
2

>  <Donor>
0

>  <RotBonds>
6

>  <HAC>
14

>  <Collection>
General

>  <PPDS>
+

$$$$
F3395-2806
  Mrv2219 10102508112D          

 74 80  0  0  0  0            999 V2000
    8.4989   -7.0304    0.0000 C   0  0  2  0  0  0  0  0  0  0  0  0
    7.7478   -7.4439    0.0000 C   0  0  1  0  0  0  0  0  0  0  0  0
    7.7394   -8.2668    0.0000 C   0  0  1  0  0  0  0  0  0  0  0  0
    8.5116   -6.2329    0.0000 C   0  0  0  0  0  0  0  0  0  0  0  0
    9.1826   -7.4650    0.0000 C   0  0  0  0  0  0  0  0  0  0  0  0
    9.9506   -3.7810    0.0000 C   0  0  2  0  0  0  0  0  0  0  0  0
    8.4694   -8.6888    0.0000 C   0  0  1  0  0  0  0  0  0  0  0  0
    9.1783   -8.2837    0.0000 C   0  0  0  0  0  0  0  0  0  0  0  0
    6.9249   -8.4947    0.0000 O   0  0  0  0  0  0  0  0  0  0  0  0
    7.0515   -7.1105    0.0000 C   0  0  0  0  0  0  0  0  0  0  0  0
    2.8105   -4.4942    0.0000 C   0  0  2  0  0  0  0  0  0  0  0  0
   10.6511   -4.2200    0.0000 O   0  0  0  0  0  0  0  0  0  0  0  0
    1.3968   -4.4773    0.0000 C   0  0  2  0  0  0  0  0  0  0  0  0
    4.2410   -3.6882    0.0000 C   0  0  2  0  0  0  0  0  0  0  0  0
    9.2079   -5.7939    0.0000 O   0  0  0  0  0  0  0  0  0  0  0  0
    3.5574   -3.2873    0.0000 O   0  0  0  0  0  0  0  0  0  0  0  0
    0.6879   -4.8951    0.0000 O   0  0  0  0  0  0  0  0  0  0  0  0
    4.2410   -4.5195    0.0000 C   0  0  0  0  0  0  0  0  0  0  0  0
    1.4095   -3.6460    0.0000 C   0  0  0  0  0  0  0  0  0  0  0  0
    3.5321   -4.9289    0.0000 C   0  0  2  0  0  0  0  0  0  0  0  0
    0.0127   -3.6713    0.0000 C   0  0  2  0  0  0  0  0  0  0  0  0
    5.6842   -3.6924    0.0000 C   0  0  1  0  0  0  0  0  0  0  0  0
    2.8231   -3.7051    0.0000 C   0  0  1  0  0  0  0  0  0  0  0  0
    9.9379   -4.5912    0.0000 C   0  0  0  0  0  0  0  0  0  0  0  0
    9.2416   -3.3338    0.0000 O   0  0  0  0  0  0  0  0  0  0  0  0
    0.7089   -3.2493    0.0000 C   0  0  1  0  0  0  0  0  0  0  0  0
   11.3854   -3.7979    0.0000 C   0  0  1  0  0  0  0  0  0  0  0  0
    9.2163   -5.0006    0.0000 C   0  0  2  0  0  0  0  0  0  0  0  0
    0.0000   -4.4605    0.0000 C   0  0  2  0  0  0  0  0  0  0  0  0
    6.4058   -3.2915    0.0000 C   0  0  0  0  0  0  0  0  0  0  0  0
    2.1058   -4.9120    0.0000 O   0  0  0  0  0  0  0  0  0  0  0  0
    4.9753   -3.3042    0.0000 O   0  0  0  0  0  0  0  0  0  0  0  0
    8.4694   -9.4948    0.0000 O   0  0  0  0  0  0  0  0  0  0  0  0
    7.1021   -3.7177    0.0000 C   0  0  0  0  0  0  0  0  0  0  0  0
    6.5198   -7.7520    0.0000 C   0  0  0  0  0  0  0  0  0  0  0  0
    9.1277  -10.1531    0.0000 C   0  0  0  0  0  0  0  0  0  0  0  0
    7.0641   -6.1990    0.0000 C   0  0  0  0  0  0  0  0  0  0  0  0
    8.6973  -12.6893    0.0000 C   0  0  0  0  0  0  0  0  0  0  0  0
    7.7731   -5.7771    0.0000 O   0  0  0  0  0  0  0  0  0  0  0  0
    6.3805   -5.7602    0.0000 C   0  0  0  0  0  0  0  0  0  0  0  0
    8.5327   -4.5659    0.0000 C   0  0  0  0  0  0  0  0  0  0  0  0
    8.5453   -3.7346    0.0000 C   0  0  1  0  0  0  0  0  0  0  0  0
    5.6716   -4.5364    0.0000 C   0  0  2  0  0  0  0  0  0  0  0  0
   11.3938   -2.9666    0.0000 C   0  0  2  0  0  0  0  0  0  0  0  0
    6.3805   -4.9584    0.0000 C   0  0  0  0  0  0  0  0  0  0  0  0
    7.7604   -6.6801    0.0000 O   0  0  0  0  0  0  0  0  0  0  0  0
    9.9548   -2.9371    0.0000 C   0  0  0  0  0  0  0  0  0  0  0  0
   10.0561   -9.9042    0.0000 O   0  0  0  0  0  0  0  0  0  0  0  0
    9.0897  -13.3814    0.0000 O   0  0  0  0  0  0  0  0  0  0  0  0
   10.6764   -2.5530    0.0000 C   0  0  0  0  0  0  0  0  0  0  0  0
    7.8027   -3.3084    0.0000 C   0  0  0  0  0  0  0  0  0  0  0  0
   12.0690   -4.2410    0.0000 C   0  0  2  0  0  0  0  0  0  0  0  0
   -0.7089   -3.2705    0.0000 O   0  0  0  0  0  0  0  0  0  0  0  0
    8.6129  -11.0436    0.0000 C   0  0  0  0  0  0  0  0  0  0  0  0
    9.2036  -11.8706    0.0000 C   0  0  0  0  0  0  0  0  0  0  0  0
    3.5194   -5.7180    0.0000 O   0  0  0  0  0  0  0  0  0  0  0  0
    0.7216   -2.4307    0.0000 O   0  0  0  0  0  0  0  0  0  0  0  0
    7.7773  -12.6893    0.0000 O   0  0  0  0  0  0  0  0  0  0  0  0
    9.8999   -8.6803    0.0000 C   0  0  0  0  0  0  0  0  0  0  0  0
    6.4185   -2.4223    0.0000 C   0  0  0  0  0  0  0  0  0  0  0  0
    2.1268   -3.3295    0.0000 C   0  0  0  0  0  0  0  0  0  0  0  0
   -0.7216   -4.8403    0.0000 C   0  0  0  0  0  0  0  0  0  0  0  0
    4.9457   -4.9416    0.0000 C   0  0  0  0  0  0  0  0  0  0  0  0
   12.0943   -2.5783    0.0000 C   0  0  0  0  0  0  0  0  0  0  0  0
   12.0647   -5.0723    0.0000 C   0  0  0  0  0  0  0  0  0  0  0  0
   12.8370   -3.8148    0.0000 C   0  0  0  0  0  0  0  0  0  0  0  0
    4.1988   -6.1231    0.0000 C   0  0  0  0  0  0  0  0  0  0  0  0
    1.4516   -2.0213    0.0000 C   0  0  0  0  0  0  0  0  0  0  0  0
   12.8117   -5.4859    0.0000 C   0  0  0  0  0  0  0  0  0  0  0  0
    7.7267   -9.0601    0.0000 H   0  0  0  0  0  0  0  0  0  0  0  0
    9.3049   -6.6168    0.0000 H   0  0  0  0  0  0  0  0  0  0  0  0
    9.9422   -5.4353    0.0000 H   0  0  0  0  0  0  0  0  0  0  0  0
    8.5580   -2.8654    0.0000 H   0  0  0  0  0  0  0  0  0  0  0  0
   11.5963   -4.5912    0.0000 H   0  0  0  0  0  0  0  0  0  0  0  0
  2  1  1  0  0  0  0
  3  2  1  0  0  0  0
  4  1  1  0  0  0  0
  5  1  1  0  0  0  0
  6 24  1  0  0  0  0
  7  8  1  0  0  0  0
  8  5  2  0  0  0  0
  9  3  1  0  0  0  0
 10  2  1  0  0  0  0
 11 23  1  0  0  0  0
  6 12  1  6  0  0  0
 13 31  1  6  0  0  0
 14 32  1  1  0  0  0
 15  4  1  0  0  0  0
 16 14  1  0  0  0  0
 17 13  1  0  0  0  0
 18 14  1  0  0  0  0
 19 13  1  0  0  0  0
 20 18  1  0  0  0  0
 21 29  1  0  0  0  0
 22 43  1  0  0  0  0
 23 16  1  0  0  0  0
 24 28  1  0  0  0  0
 25 42  1  0  0  0  0
 26 19  1  0  0  0  0
 27 12  1  0  0  0  0
 28 15  1  0  0  0  0
 29 17  1  0  0  0  0
 30 34  2  0  0  0  0
 11 31  1  1  0  0  0
 22 32  1  6  0  0  0
  7 33  1  1  0  0  0
 34 51  1  0  0  0  0
 35 10  1  0  0  0  0
 36 33  1  0  0  0  0
 37 10  2  0  0  0  0
 38 55  1  0  0  0  0
 39  4  2  0  0  0  0
 40 37  1  0  0  0  0
 41 28  1  0  0  0  0
 42 41  1  0  0  0  0
 43 45  1  0  0  0  0
 44 50  1  0  0  0  0
 45 40  2  0  0  0  0
  2 46  1  6  0  0  0
  6 47  1  1  0  0  0
 48 36  2  0  0  0  0
 49 38  2  0  0  0  0
 50 47  1  0  0  0  0
 51 42  1  0  0  0  0
 52 27  1  0  0  0  0
 21 53  1  6  0  0  0
 54 36  1  0  0  0  0
 55 54  1  0  0  0  0
 20 56  1  6  0  0  0
 26 57  1  1  0  0  0
 58 38  1  0  0  0  0
 59  8  1  0  0  0  0
 60 30  1  0  0  0  0
 23 61  1  6  0  0  0
 29 62  1  1  0  0  0
 43 63  1  6  0  0  0
 44 64  1  6  0  0  0
 65 52  1  0  0  0  0
 52 66  1  1  0  0  0
 67 56  1  0  0  0  0
 68 57  1  0  0  0  0
 69 65  1  0  0  0  0
  3 70  1  6  0  0  0
  1 71  1  1  0  0  0
 28 72  1  6  0  0  0
 42 73  1  6  0  0  0
 27 74  1  6  0  0  0
  7  3  1  0  0  0  0
 35  9  1  0  0  0  0
 25  6  1  0  0  0  0
 30 22  1  0  0  0  0
 44 27  1  0  0  0  0
 11 20  1  0  0  0  0
 21 26  1  0  0  0  0
M  END
>  <IDNUMBER>
F3395-2806

>  <Chemical_Name>
4-[(1'R,2R,4'S,5S,6R,8'R,10'E,12'S,13'S,14'E,16'E,20'R,21'R,24'S)-6-[(2S)-butan-2-yl]-24'-hydroxy-12'-{[(2R,4S,5S,6S)-5-{[(2S,4S,5S,6S)-5-hydroxy-4-methoxy-6-methyloxan-2-yl]oxy}-4-methoxy-6-methyloxan-2-yl]oxy}-5,11',13',22'-tetramethyl-2'-oxo-3',7',19'-trioxaspiro[oxane-2,6'-tetracyclo[15.6.1.1?,?.0??,??]pentacosane]-10',14',16',22'-tetraen-21'-yloxy]-4-oxobutanoic acid

>  <PriceCoeff>
7.00

>  <CAS>
473713-07-4

>  <MW>
975.18

>  <Description>
solid

>  <FSP3>
0.79

>  <clogP>
5.40

>  <TPSA>
213.43

>  <Acceptor>
17

>  <Donor>
2

>  <RotBonds>
13

>  <HAC>
69

>  <PPDS>
+

$$$$
F3395-2807
  Mrv2219 10102508112D          

 77 84  0  0  0  0            999 V2000
    8.8668  -11.2489    0.0000 C   0  0  0  0  0  0  0  0  0  0  0  0
    8.4441  -12.1666    0.0000 C   0  0  0  0  0  0  0  0  0  0  0  0
    8.7515   -7.2487    0.0000 C   0  0  2  0  0  0  0  0  0  0  0  0
    9.4516  -12.0813    0.0000 C   0  0  0  0  0  0  0  0  0  0  0  0
    7.9959   -7.6629    0.0000 C   0  0  1  0  0  0  0  0  0  0  0  0
    7.9959   -8.4825    0.0000 C   0  0  1  0  0  0  0  0  0  0  0  0
    9.3791  -10.3652    0.0000 C   0  0  0  0  0  0  0  0  0  0  0  0
    8.7643   -6.4547    0.0000 C   0  0  0  0  0  0  0  0  0  0  0  0
    9.4303   -7.6842    0.0000 C   0  0  0  0  0  0  0  0  0  0  0  0
   10.1944   -4.0001    0.0000 C   0  0  2  0  0  0  0  0  0  0  0  0
    8.7259   -8.9009    0.0000 C   0  0  1  0  0  0  0  0  0  0  0  0
    9.4303   -8.4953    0.0000 C   0  0  0  0  0  0  0  0  0  0  0  0
    8.7259   -9.7120    0.0000 O   0  0  0  0  0  0  0  0  0  0  0  0
    7.1847   -8.7131    0.0000 O   0  0  0  0  0  0  0  0  0  0  0  0
    7.3043   -7.3256    0.0000 C   0  0  0  0  0  0  0  0  0  0  0  0
    3.0780   -4.7130    0.0000 C   0  0  2  0  0  0  0  0  0  0  0  0
   10.9030   -4.4440    0.0000 O   0  0  0  0  0  0  0  0  0  0  0  0
    1.6692   -4.6916    0.0000 C   0  0  2  0  0  0  0  0  0  0  0  0
    4.5080   -3.9105    0.0000 C   0  0  2  0  0  0  0  0  0  0  0  0
    9.4644   -6.0108    0.0000 O   0  0  0  0  0  0  0  0  0  0  0  0
    3.8208   -3.5091    0.0000 O   0  0  0  0  0  0  0  0  0  0  0  0
    0.9605   -5.1143    0.0000 O   0  0  0  0  0  0  0  0  0  0  0  0
   10.5701  -12.0813    0.0000 C   0  0  0  0  0  0  0  0  0  0  0  0
    4.4995   -4.7386    0.0000 C   0  0  0  0  0  0  0  0  0  0  0  0
    1.6778   -3.8720    0.0000 C   0  0  0  0  0  0  0  0  0  0  0  0
    3.7952   -5.1527    0.0000 C   0  0  2  0  0  0  0  0  0  0  0  0
    0.2861   -3.8933    0.0000 C   0  0  2  0  0  0  0  0  0  0  0  0
    5.9424   -3.9190    0.0000 C   0  0  1  0  0  0  0  0  0  0  0  0
    3.0908   -3.9318    0.0000 C   0  0  1  0  0  0  0  0  0  0  0  0
   10.1859   -4.8069    0.0000 C   0  0  0  0  0  0  0  0  0  0  0  0
    9.4944   -3.5518    0.0000 O   0  0  0  0  0  0  0  0  0  0  0  0
    0.9776   -3.4750    0.0000 C   0  0  1  0  0  0  0  0  0  0  0  0
   11.6331   -4.0129    0.0000 C   0  0  1  0  0  0  0  0  0  0  0  0
    9.4687   -5.2168    0.0000 C   0  0  2  0  0  0  0  0  0  0  0  0
    0.2733   -4.6788    0.0000 C   0  0  2  0  0  0  0  0  0  0  0  0
    6.6640   -3.5219    0.0000 C   0  0  0  0  0  0  0  0  0  0  0  0
    2.3693   -5.1356    0.0000 O   0  0  0  0  0  0  0  0  0  0  0  0
    5.2381   -3.5262    0.0000 O   0  0  0  0  0  0  0  0  0  0  0  0
    7.3555   -3.9361    0.0000 C   0  0  0  0  0  0  0  0  0  0  0  0
    6.7749   -7.9703    0.0000 C   0  0  0  0  0  0  0  0  0  0  0  0
   10.3097  -10.1175    0.0000 O   0  0  0  0  0  0  0  0  0  0  0  0
    7.3171   -6.4206    0.0000 C   0  0  0  0  0  0  0  0  0  0  0  0
    8.0215   -5.9980    0.0000 O   0  0  0  0  0  0  0  0  0  0  0  0
    6.6384   -5.9723    0.0000 C   0  0  0  0  0  0  0  0  0  0  0  0
    8.7856   -4.7941    0.0000 C   0  0  0  0  0  0  0  0  0  0  0  0
    8.7899   -3.9489    0.0000 C   0  0  1  0  0  0  0  0  0  0  0  0
    5.9339   -4.7557    0.0000 C   0  0  2  0  0  0  0  0  0  0  0  0
   11.0695  -11.2189    0.0000 O   0  0  0  0  0  0  0  0  0  0  0  0
   11.6459   -3.1889    0.0000 C   0  0  2  0  0  0  0  0  0  0  0  0
    6.6384   -5.1783    0.0000 C   0  0  0  0  0  0  0  0  0  0  0  0
    8.0215   -6.9030    0.0000 O   0  0  0  0  0  0  0  0  0  0  0  0
   10.2072   -3.1676    0.0000 C   0  0  0  0  0  0  0  0  0  0  0  0
    7.6117  -11.6843    0.0000 C   0  0  0  0  0  0  0  0  0  0  0  0
    8.1965  -13.0803    0.0000 C   0  0  0  0  0  0  0  0  0  0  0  0
   10.9243   -2.7834    0.0000 C   0  0  0  0  0  0  0  0  0  0  0  0
    8.0600   -3.5390    0.0000 C   0  0  0  0  0  0  0  0  0  0  0  0
   12.3203   -4.4696    0.0000 C   0  0  2  0  0  0  0  0  0  0  0  0
   -0.4355   -3.4963    0.0000 O   0  0  0  0  0  0  0  0  0  0  0  0
   11.3385  -12.8498    0.0000 O   0  0  0  0  0  0  0  0  0  0  0  0
    3.7824   -5.9424    0.0000 O   0  0  0  0  0  0  0  0  0  0  0  0
    0.9904   -2.6554    0.0000 O   0  0  0  0  0  0  0  0  0  0  0  0
   10.1560   -8.8924    0.0000 C   0  0  0  0  0  0  0  0  0  0  0  0
    6.6768   -2.6511    0.0000 C   0  0  0  0  0  0  0  0  0  0  0  0
    2.3949   -3.5518    0.0000 C   0  0  0  0  0  0  0  0  0  0  0  0
   -0.4568   -5.0631    0.0000 C   0  0  0  0  0  0  0  0  0  0  0  0
    5.2253   -5.1612    0.0000 C   0  0  0  0  0  0  0  0  0  0  0  0
   12.3374   -2.7963    0.0000 C   0  0  0  0  0  0  0  0  0  0  0  0
   12.3075   -5.2936    0.0000 C   0  0  0  0  0  0  0  0  0  0  0  0
   13.0675   -4.0385    0.0000 C   0  0  0  0  0  0  0  0  0  0  0  0
    1.7333   -2.2455    0.0000 C   0  0  0  0  0  0  0  0  0  0  0  0
    4.4611   -6.3480    0.0000 C   0  0  0  0  0  0  0  0  0  0  0  0
   13.0547   -5.7034    0.0000 C   0  0  0  0  0  0  0  0  0  0  0  0
   10.1944   -5.6522    0.0000 H   0  0  0  0  0  0  0  0  0  0  0  0
    8.8112   -3.0908    0.0000 H   0  0  0  0  0  0  0  0  0  0  0  0
   11.8465   -4.8069    0.0000 H   0  0  0  0  0  0  0  0  0  0  0  0
    7.9788   -9.2723    0.0000 H   0  0  0  0  0  0  0  0  0  0  0  0
    9.5540   -6.8305    0.0000 H   0  0  0  0  0  0  0  0  0  0  0  0
  2  1  1  0  0  0  0
  3  9  1  0  0  0  0
  4  1  1  0  0  0  0
  5  6  1  0  0  0  0
  6 11  1  0  0  0  0
  7  1  1  0  0  0  0
  8  3  1  0  0  0  0
  9 12  2  0  0  0  0
 10 30  1  0  0  0  0
 11 13  1  1  0  0  0
 12 11  1  0  0  0  0
 13  7  1  0  0  0  0
 14  6  1  0  0  0  0
 15  5  1  0  0  0  0
 16 29  1  0  0  0  0
 10 17  1  6  0  0  0
 18 37  1  6  0  0  0
 19 38  1  1  0  0  0
 20  8  1  0  0  0  0
 21 19  1  0  0  0  0
 22 18  1  0  0  0  0
 23  4  1  0  0  0  0
 24 19  1  0  0  0  0
 25 18  1  0  0  0  0
 26 24  1  0  0  0  0
 27 35  1  0  0  0  0
 28 47  1  0  0  0  0
 29 21  1  0  0  0  0
 30 34  1  0  0  0  0
 31 46  1  0  0  0  0
 32 25  1  0  0  0  0
 33 17  1  0  0  0  0
 34 20  1  0  0  0  0
 35 22  1  0  0  0  0
 36 28  1  0  0  0  0
 16 37  1  1  0  0  0
 28 38  1  6  0  0  0
 39 56  1  0  0  0  0
 40 14  1  0  0  0  0
 41  7  2  0  0  0  0
 42 15  2  0  0  0  0
 43  8  2  0  0  0  0
 44 42  1  0  0  0  0
 45 34  1  0  0  0  0
 46 45  1  0  0  0  0
 47 50  1  0  0  0  0
 48 23  2  0  0  0  0
 49 55  1  0  0  0  0
 50 44  2  0  0  0  0
  5 51  1  6  0  0  0
 10 52  1  1  0  0  0
 53  2  1  0  0  0  0
 54  2  1  0  0  0  0
 55 52  1  0  0  0  0
 56 46  1  0  0  0  0
 57 33  1  0  0  0  0
 27 58  1  6  0  0  0
 59 23  1  0  0  0  0
 26 60  1  6  0  0  0
 32 61  1  1  0  0  0
 62 12  1  0  0  0  0
 63 36  1  0  0  0  0
 29 64  1  6  0  0  0
 35 65  1  1  0  0  0
 47 66  1  6  0  0  0
 49 67  1  6  0  0  0
 68 57  1  0  0  0  0
 57 69  1  1  0  0  0
 70 61  1  0  0  0  0
 71 60  1  0  0  0  0
 72 68  1  0  0  0  0
 34 73  1  6  0  0  0
 46 74  1  6  0  0  0
 33 75  1  6  0  0  0
  6 76  1  6  0  0  0
  3 77  1  1  0  0  0
  4  2  1  0  0  0  0
  3  5  1  0  0  0  0
 40 15  1  0  0  0  0
 31 10  1  0  0  0  0
 39 36  2  0  0  0  0
 49 33  1  0  0  0  0
 16 26  1  0  0  0  0
 27 32  1  0  0  0  0
M  END
>  <IDNUMBER>
F3395-2807

>  <Chemical_Name>
3-{[(1'R,2R,4'S,5S,6R,8'R,10'E,12'S,13'S,14'E,16'E,20'R,21'R,24'S)-6-[(2S)-butan-2-yl]-24'-hydroxy-12'-{[(2R,4S,5S,6S)-5-{[(2S,4S,5S,6S)-5-hydroxy-4-methoxy-6-methyloxan-2-yl]oxy}-4-methoxy-6-methyloxan-2-yl]oxy}-5,11',13',22'-tetramethyl-2'-oxo-3',7',19'-trioxaspiro[oxane-2,6'-tetracyclo[15.6.1.1?,?.0??,??]pentacosane]-10',14',16',22'-tetraen-21'-yloxy]carbonyl}-2,2-dimethylcyclopropane-1-carboxylic acid

>  <PriceCoeff>
7.00

>  <MW>
1 015.24

>  <Description>
solid

>  <FSP3>
0.80

>  <clogP>
7.39

>  <TPSA>
213.43

>  <Acceptor>
17

>  <Donor>
2

>  <RotBonds>
12

>  <HAC>
72

$$$$
F3395-2809
  Mrv2219 10102508112D          

 76 83  0  0  0  0            999 V2000
    8.3455   -6.8094    0.0000 C   0  0  2  0  0  0  0  0  0  0  0  0
    7.5880   -7.2261    0.0000 C   0  0  1  0  0  0  0  0  0  0  0  0
    7.5796   -8.0467    0.0000 C   0  0  1  0  0  0  0  0  0  0  0  0
    8.3581   -6.0140    0.0000 C   0  0  0  0  0  0  0  0  0  0  0  0
    9.8017   -3.5478    0.0000 C   0  0  2  0  0  0  0  0  0  0  0  0
    9.0315   -7.2471    0.0000 C   0  0  0  0  0  0  0  0  0  0  0  0
    8.3118   -8.4760    0.0000 C   0  0  1  0  0  0  0  0  0  0  0  0
    9.0189   -8.0677    0.0000 C   0  0  0  0  0  0  0  0  0  0  0  0
    6.7673   -8.2824    0.0000 O   0  0  0  0  0  0  0  0  0  0  0  0
    6.8852   -6.8935    0.0000 C   0  0  0  0  0  0  0  0  0  0  0  0
    2.6304   -4.2590    0.0000 C   0  0  2  0  0  0  0  0  0  0  0  0
   10.5087   -3.9897    0.0000 O   0  0  0  0  0  0  0  0  0  0  0  0
    1.2163   -4.2464    0.0000 C   0  0  2  0  0  0  0  0  0  0  0  0
    4.0697   -3.4510    0.0000 C   0  0  2  0  0  0  0  0  0  0  0  0
    9.0568   -5.5679    0.0000 O   0  0  0  0  0  0  0  0  0  0  0  0
    3.3753   -3.0470    0.0000 O   0  0  0  0  0  0  0  0  0  0  0  0
    0.4966   -4.6631    0.0000 O   0  0  0  0  0  0  0  0  0  0  0  0
    4.0654   -4.2843    0.0000 C   0  0  0  0  0  0  0  0  0  0  0  0
    1.2247   -3.4131    0.0000 C   0  0  0  0  0  0  0  0  0  0  0  0
    3.3584   -4.7009    0.0000 C   0  0  2  0  0  0  0  0  0  0  0  0
   -0.1768   -3.4384    0.0000 C   0  0  2  0  0  0  0  0  0  0  0  0
    5.5090   -3.4594    0.0000 C   0  0  1  0  0  0  0  0  0  0  0  0
    9.7890   -4.3601    0.0000 C   0  0  0  0  0  0  0  0  0  0  0  0
    9.0820   -3.0975    0.0000 O   0  0  0  0  0  0  0  0  0  0  0  0
    2.6430   -3.4720    0.0000 C   0  0  1  0  0  0  0  0  0  0  0  0
   11.2410   -3.5646    0.0000 C   0  0  1  0  0  0  0  0  0  0  0  0
    0.5219   -3.0091    0.0000 C   0  0  1  0  0  0  0  0  0  0  0  0
    9.0651   -4.7725    0.0000 C   0  0  2  0  0  0  0  0  0  0  0  0
   -0.1851   -4.2296    0.0000 C   0  0  2  0  0  0  0  0  0  0  0  0
    6.2413   -3.0596    0.0000 C   0  0  0  0  0  0  0  0  0  0  0  0
    1.9233   -4.6841    0.0000 O   0  0  0  0  0  0  0  0  0  0  0  0
    9.8017   -2.7019    0.0000 C   0  0  0  0  0  0  0  0  0  0  0  0
    4.8019   -3.0680    0.0000 O   0  0  0  0  0  0  0  0  0  0  0  0
    8.3118   -9.2840    0.0000 O   0  0  0  0  0  0  0  0  0  0  0  0
   10.5297   -2.3147    0.0000 C   0  0  0  0  0  0  0  0  0  0  0  0
    6.9357   -3.4846    0.0000 C   0  0  0  0  0  0  0  0  0  0  0  0
    6.3506   -7.5291    0.0000 C   0  0  0  0  0  0  0  0  0  0  0  0
    8.9810   -9.9489    0.0000 C   0  0  0  0  0  0  0  0  0  0  0  0
    6.9062   -5.9761    0.0000 C   0  0  0  0  0  0  0  0  0  0  0  0
    8.5391  -12.4909    0.0000 C   0  0  0  0  0  0  0  0  0  0  0  0
    7.6132   -5.5469    0.0000 O   0  0  0  0  0  0  0  0  0  0  0  0
    6.2160   -5.5342    0.0000 C   0  0  0  0  0  0  0  0  0  0  0  0
   11.2536   -2.7314    0.0000 C   0  0  2  0  0  0  0  0  0  0  0  0
    8.3750   -4.3348    0.0000 C   0  0  0  0  0  0  0  0  0  0  0  0
    8.3876   -3.5015    0.0000 C   0  0  1  0  0  0  0  0  0  0  0  0
    5.5090   -4.3011    0.0000 C   0  0  2  0  0  0  0  0  0  0  0  0
    6.2160   -4.7262    0.0000 C   0  0  0  0  0  0  0  0  0  0  0  0
    7.6048   -6.4559    0.0000 O   0  0  0  0  0  0  0  0  0  0  0  0
    9.9110   -9.6964    0.0000 O   0  0  0  0  0  0  0  0  0  0  0  0
    8.9389  -13.1853    0.0000 O   0  0  0  0  0  0  0  0  0  0  0  0
   11.9311   -4.0065    0.0000 C   0  0  0  0  0  0  0  0  0  0  0  0
    7.6427   -3.0722    0.0000 C   0  0  0  0  0  0  0  0  0  0  0  0
   -0.9048   -3.0344    0.0000 O   0  0  0  0  0  0  0  0  0  0  0  0
    8.4634  -10.8370    0.0000 C   0  0  0  0  0  0  0  0  0  0  0  0
    9.0441  -11.6702    0.0000 C   0  0  0  0  0  0  0  0  0  0  0  0
    3.3458   -5.4964    0.0000 O   0  0  0  0  0  0  0  0  0  0  0  0
    0.5345   -2.1885    0.0000 O   0  0  0  0  0  0  0  0  0  0  0  0
    7.6174  -12.4909    0.0000 O   0  0  0  0  0  0  0  0  0  0  0  0
    9.7512   -8.4634    0.0000 C   0  0  0  0  0  0  0  0  0  0  0  0
    6.2539   -2.1842    0.0000 C   0  0  0  0  0  0  0  0  0  0  0  0
    1.9443   -3.0933    0.0000 C   0  0  0  0  0  0  0  0  0  0  0  0
   -0.9174   -4.6083    0.0000 C   0  0  0  0  0  0  0  0  0  0  0  0
   11.9564   -2.3400    0.0000 C   0  0  0  0  0  0  0  0  0  0  0  0
    4.7893   -4.7136    0.0000 C   0  0  0  0  0  0  0  0  0  0  0  0
   11.8849   -4.8398    0.0000 C   0  0  0  0  0  0  0  0  0  0  0  0
   12.6677   -3.6404    0.0000 C   0  0  0  0  0  0  0  0  0  0  0  0
    2.6135   -5.9004    0.0000 C   0  0  0  0  0  0  0  0  0  0  0  0
   -0.1768   -1.7633    0.0000 C   0  0  0  0  0  0  0  0  0  0  0  0
   13.3621   -4.0823    0.0000 C   0  0  0  0  0  0  0  0  0  0  0  0
   12.5793   -5.2901    0.0000 C   0  0  0  0  0  0  0  0  0  0  0  0
   13.3116   -4.9156    0.0000 C   0  0  0  0  0  0  0  0  0  0  0  0
   11.4556   -4.3601    0.0000 H   0  0  0  0  0  0  0  0  0  0  0  0
    7.5669   -8.8505    0.0000 H   0  0  0  0  0  0  0  0  0  0  0  0
    9.1451   -6.3928    0.0000 H   0  0  0  0  0  0  0  0  0  0  0  0
    9.7890   -5.2060    0.0000 H   0  0  0  0  0  0  0  0  0  0  0  0
    8.4002   -2.6261    0.0000 H   0  0  0  0  0  0  0  0  0  0  0  0
  2  1  1  0  0  0  0
  3  2  1  0  0  0  0
  4  1  1  0  0  0  0
  5 23  1  0  0  0  0
  6  1  1  0  0  0  0
  7  8  1  0  0  0  0
  8  6  2  0  0  0  0
  9  3  1  0  0  0  0
 10  2  1  0  0  0  0
 11 25  1  0  0  0  0
  5 12  1  6  0  0  0
 13 31  1  6  0  0  0
 14 33  1  1  0  0  0
 15  4  1  0  0  0  0
 16 14  1  0  0  0  0
 17 13  1  0  0  0  0
 18 14  1  0  0  0  0
 19 13  1  0  0  0  0
 20 18  1  0  0  0  0
 21 29  1  0  0  0  0
 22 46  1  0  0  0  0
 23 28  1  0  0  0  0
 24 45  1  0  0  0  0
 25 16  1  0  0  0  0
 26 12  1  0  0  0  0
 27 19  1  0  0  0  0
 28 15  1  0  0  0  0
 29 17  1  0  0  0  0
 30 36  2  0  0  0  0
 11 31  1  1  0  0  0
  5 32  1  1  0  0  0
 22 33  1  6  0  0  0
  7 34  1  1  0  0  0
 35 32  2  0  0  0  0
 36 52  1  0  0  0  0
 37 10  1  0  0  0  0
 38 34  1  0  0  0  0
 39 10  2  0  0  0  0
 40 55  1  0  0  0  0
 41  4  2  0  0  0  0
 42 39  1  0  0  0  0
 43 35  1  0  0  0  0
 44 28  1  0  0  0  0
 45 44  1  0  0  0  0
 46 47  1  0  0  0  0
 47 42  2  0  0  0  0
  2 48  1  6  0  0  0
 49 38  2  0  0  0  0
 50 40  2  0  0  0  0
 51 26  1  0  0  0  0
 52 45  1  0  0  0  0
 21 53  1  6  0  0  0
 54 38  1  0  0  0  0
 55 54  1  0  0  0  0
 20 56  1  6  0  0  0
 27 57  1  1  0  0  0
 58 40  1  0  0  0  0
 59  8  1  0  0  0  0
 60 30  1  0  0  0  0
 25 61  1  6  0  0  0
 29 62  1  1  0  0  0
 43 63  1  6  0  0  0
 46 64  1  6  0  0  0
 65 51  1  0  0  0  0
 66 51  1  0  0  0  0
 67 56  1  0  0  0  0
 68 57  1  0  0  0  0
 69 66  1  0  0  0  0
 70 65  1  0  0  0  0
 71 69  1  0  0  0  0
 26 72  1  6  0  0  0
  3 73  1  6  0  0  0
  1 74  1  1  0  0  0
 28 75  1  6  0  0  0
 45 76  1  6  0  0  0
  7  3  1  0  0  0  0
 37  9  1  0  0  0  0
 24  5  1  0  0  0  0
 30 22  1  0  0  0  0
 43 26  1  0  0  0  0
 71 70  1  0  0  0  0
 11 20  1  0  0  0  0
 21 27  1  0  0  0  0
M  END
>  <IDNUMBER>
F3395-2809

>  <Chemical_Name>
4-[(1'R,2S,4'S,5S,6R,8'R,10'E,12'S,13'S,14'E,16'E,20'R,21'R,24'S)-6-cyclohexyl-24'-hydroxy-12'-{[(2R,4S,5S,6S)-5-{[(2S,4S,5S,6S)-5-hydroxy-4-methoxy-6-methyloxan-2-yl]oxy}-4-methoxy-6-methyloxan-2-yl]oxy}-5,11',13',22'-tetramethyl-2'-oxo-5,6-dihydro-3',7',19'-trioxaspiro[pyran-2,6'-tetracyclo[15.6.1.1?,?.0??,??]pentacosane]-10',14',16',22'-tetraen-21'-yloxy]-4-oxobutanoic acid

>  <PriceCoeff>
7.00

>  <MW>
999.20

>  <Description>
solid

>  <FSP3>
0.76

>  <clogP>
5.69

>  <TPSA>
213.43

>  <Acceptor>
17

>  <Donor>
2

>  <RotBonds>
12

>  <HAC>
71

$$$$
F3395-2810
  Mrv2219 10102508112D          

 79 87  0  0  0  0            999 V2000
    8.5428  -11.2607    0.0000 C   0  0  0  0  0  0  0  0  0  0  0  0
    8.1154  -12.1795    0.0000 C   0  0  0  0  0  0  0  0  0  0  0  0
    8.4274   -7.2564    0.0000 C   0  0  2  0  0  0  0  0  0  0  0  0
    9.1197  -12.0941    0.0000 C   0  0  0  0  0  0  0  0  0  0  0  0
    7.6710   -7.6710    0.0000 C   0  0  1  0  0  0  0  0  0  0  0  0
    7.6667   -8.4915    0.0000 C   0  0  1  0  0  0  0  0  0  0  0  0
    9.0556  -10.3761    0.0000 C   0  0  0  0  0  0  0  0  0  0  0  0
    8.4402   -6.4616    0.0000 C   0  0  0  0  0  0  0  0  0  0  0  0
    9.8633   -4.0043    0.0000 C   0  0  2  0  0  0  0  0  0  0  0  0
    9.1069   -7.6923    0.0000 C   0  0  0  0  0  0  0  0  0  0  0  0
    8.3975   -8.9103    0.0000 C   0  0  1  0  0  0  0  0  0  0  0  0
    9.1026   -8.5043    0.0000 C   0  0  0  0  0  0  0  0  0  0  0  0
    8.3975   -9.7223    0.0000 O   0  0  0  0  0  0  0  0  0  0  0  0
    6.8505   -8.7223    0.0000 O   0  0  0  0  0  0  0  0  0  0  0  0
    6.9744   -7.3333    0.0000 C   0  0  0  0  0  0  0  0  0  0  0  0
    2.7436   -4.7180    0.0000 C   0  0  2  0  0  0  0  0  0  0  0  0
   10.5769   -4.4487    0.0000 O   0  0  0  0  0  0  0  0  0  0  0  0
    1.3333   -4.6966    0.0000 C   0  0  2  0  0  0  0  0  0  0  0  0
    4.1710   -3.9146    0.0000 C   0  0  2  0  0  0  0  0  0  0  0  0
    9.1325   -6.0171    0.0000 O   0  0  0  0  0  0  0  0  0  0  0  0
    3.4872   -3.5128    0.0000 O   0  0  0  0  0  0  0  0  0  0  0  0
    0.6197   -5.1197    0.0000 O   0  0  0  0  0  0  0  0  0  0  0  0
   10.2479  -12.0941    0.0000 C   0  0  0  0  0  0  0  0  0  0  0  0
    4.1667   -4.7436    0.0000 C   0  0  0  0  0  0  0  0  0  0  0  0
    1.3462   -3.8761    0.0000 C   0  0  0  0  0  0  0  0  0  0  0  0
    3.4659   -5.1582    0.0000 C   0  0  2  0  0  0  0  0  0  0  0  0
   -0.0513   -3.8974    0.0000 C   0  0  2  0  0  0  0  0  0  0  0  0
    5.6069   -3.9231    0.0000 C   0  0  1  0  0  0  0  0  0  0  0  0
    9.8590   -4.8120    0.0000 C   0  0  0  0  0  0  0  0  0  0  0  0
    9.1667   -3.5556    0.0000 O   0  0  0  0  0  0  0  0  0  0  0  0
    2.7564   -3.9359    0.0000 C   0  0  1  0  0  0  0  0  0  0  0  0
   11.3034   -4.0171    0.0000 C   0  0  1  0  0  0  0  0  0  0  0  0
    0.6453   -3.4787    0.0000 C   0  0  1  0  0  0  0  0  0  0  0  0
    9.1410   -5.2223    0.0000 C   0  0  2  0  0  0  0  0  0  0  0  0
   -0.0641   -4.6838    0.0000 C   0  0  2  0  0  0  0  0  0  0  0  0
    6.3377   -3.5256    0.0000 C   0  0  0  0  0  0  0  0  0  0  0  0
    2.0300   -5.1410    0.0000 O   0  0  0  0  0  0  0  0  0  0  0  0
    9.8761   -3.1710    0.0000 C   0  0  0  0  0  0  0  0  0  0  0  0
    4.9018   -3.5300    0.0000 O   0  0  0  0  0  0  0  0  0  0  0  0
   10.5983   -2.7864    0.0000 C   0  0  0  0  0  0  0  0  0  0  0  0
    7.0257   -3.9402    0.0000 C   0  0  0  0  0  0  0  0  0  0  0  0
    6.4402   -7.9787    0.0000 C   0  0  0  0  0  0  0  0  0  0  0  0
    9.9787  -10.1282    0.0000 O   0  0  0  0  0  0  0  0  0  0  0  0
    6.9915   -6.4274    0.0000 C   0  0  0  0  0  0  0  0  0  0  0  0
    7.6966   -6.0043    0.0000 O   0  0  0  0  0  0  0  0  0  0  0  0
    6.3077   -5.9787    0.0000 C   0  0  0  0  0  0  0  0  0  0  0  0
   11.3205   -3.1923    0.0000 C   0  0  2  0  0  0  0  0  0  0  0  0
    8.4530   -4.7992    0.0000 C   0  0  0  0  0  0  0  0  0  0  0  0
    8.4659   -3.9530    0.0000 C   0  0  1  0  0  0  0  0  0  0  0  0
    5.6026   -4.7607    0.0000 C   0  0  2  0  0  0  0  0  0  0  0  0
   10.7436  -11.2308    0.0000 O   0  0  0  0  0  0  0  0  0  0  0  0
    6.3120   -5.1838    0.0000 C   0  0  0  0  0  0  0  0  0  0  0  0
    7.6923   -6.9103    0.0000 O   0  0  0  0  0  0  0  0  0  0  0  0
   11.9915   -4.4744    0.0000 C   0  0  0  0  0  0  0  0  0  0  0  0
    7.2864  -11.6966    0.0000 C   0  0  0  0  0  0  0  0  0  0  0  0
    7.8633  -13.0941    0.0000 C   0  0  0  0  0  0  0  0  0  0  0  0
    7.7308   -3.5428    0.0000 C   0  0  0  0  0  0  0  0  0  0  0  0
   -0.7692   -3.5000    0.0000 O   0  0  0  0  0  0  0  0  0  0  0  0
   11.0172  -12.8633    0.0000 O   0  0  0  0  0  0  0  0  0  0  0  0
    3.4530   -5.9487    0.0000 O   0  0  0  0  0  0  0  0  0  0  0  0
    0.6582   -2.6582    0.0000 O   0  0  0  0  0  0  0  0  0  0  0  0
    9.8248   -8.9018    0.0000 C   0  0  0  0  0  0  0  0  0  0  0  0
    6.3462   -2.6539    0.0000 C   0  0  0  0  0  0  0  0  0  0  0  0
    2.0556   -3.5556    0.0000 C   0  0  0  0  0  0  0  0  0  0  0  0
   -0.7906   -5.0684    0.0000 C   0  0  0  0  0  0  0  0  0  0  0  0
   12.0172   -2.7992    0.0000 C   0  0  0  0  0  0  0  0  0  0  0  0
    4.8889   -5.1667    0.0000 C   0  0  0  0  0  0  0  0  0  0  0  0
   11.9487   -5.2864    0.0000 C   0  0  0  0  0  0  0  0  0  0  0  0
   12.7223   -4.0941    0.0000 C   0  0  0  0  0  0  0  0  0  0  0  0
    1.3974   -2.2479    0.0000 C   0  0  0  0  0  0  0  0  0  0  0  0
    4.1282   -6.3547    0.0000 C   0  0  0  0  0  0  0  0  0  0  0  0
   13.4146   -4.5428    0.0000 C   0  0  0  0  0  0  0  0  0  0  0  0
   12.6411   -5.7436    0.0000 C   0  0  0  0  0  0  0  0  0  0  0  0
   13.3718   -5.3718    0.0000 C   0  0  0  0  0  0  0  0  0  0  0  0
    9.8633   -5.6582    0.0000 H   0  0  0  0  0  0  0  0  0  0  0  0
    8.4872   -3.0941    0.0000 H   0  0  0  0  0  0  0  0  0  0  0  0
   11.5172   -4.8120    0.0000 H   0  0  0  0  0  0  0  0  0  0  0  0
    7.6453   -9.2821    0.0000 H   0  0  0  0  0  0  0  0  0  0  0  0
    9.2223   -6.8377    0.0000 H   0  0  0  0  0  0  0  0  0  0  0  0
  2  1  1  0  0  0  0
  3 10  1  0  0  0  0
  4  1  1  0  0  0  0
  5  6  1  0  0  0  0
  6 11  1  0  0  0  0
  7  1  1  0  0  0  0
  8  3  1  0  0  0  0
  9 29  1  0  0  0  0
 10 12  2  0  0  0  0
 11 13  1  1  0  0  0
 12 11  1  0  0  0  0
 13  7  1  0  0  0  0
 14  6  1  0  0  0  0
 15  5  1  0  0  0  0
 16 31  1  0  0  0  0
  9 17  1  6  0  0  0
 18 37  1  6  0  0  0
 19 39  1  1  0  0  0
 20  8  1  0  0  0  0
 21 19  1  0  0  0  0
 22 18  1  0  0  0  0
 23  4  1  0  0  0  0
 24 19  1  0  0  0  0
 25 18  1  0  0  0  0
 26 24  1  0  0  0  0
 27 35  1  0  0  0  0
 28 50  1  0  0  0  0
 29 34  1  0  0  0  0
 30 49  1  0  0  0  0
 31 21  1  0  0  0  0
 32 17  1  0  0  0  0
 33 25  1  0  0  0  0
 34 20  1  0  0  0  0
 35 22  1  0  0  0  0
 36 28  1  0  0  0  0
 16 37  1  1  0  0  0
  9 38  1  1  0  0  0
 28 39  1  6  0  0  0
 40 38  2  0  0  0  0
 41 57  1  0  0  0  0
 42 14  1  0  0  0  0
 43  7  2  0  0  0  0
 44 15  2  0  0  0  0
 45  8  2  0  0  0  0
 46 44  1  0  0  0  0
 47 40  1  0  0  0  0
 48 34  1  0  0  0  0
 49 48  1  0  0  0  0
 50 52  1  0  0  0  0
 51 23  2  0  0  0  0
 52 46  2  0  0  0  0
  5 53  1  6  0  0  0
 54 32  1  0  0  0  0
 55  2  1  0  0  0  0
 56  2  1  0  0  0  0
 57 49  1  0  0  0  0
 27 58  1  6  0  0  0
 59 23  1  0  0  0  0
 26 60  1  6  0  0  0
 33 61  1  1  0  0  0
 62 12  1  0  0  0  0
 63 36  1  0  0  0  0
 31 64  1  6  0  0  0
 35 65  1  1  0  0  0
 47 66  1  6  0  0  0
 50 67  1  6  0  0  0
 68 54  1  0  0  0  0
 69 54  1  0  0  0  0
 70 61  1  0  0  0  0
 71 60  1  0  0  0  0
 72 69  1  0  0  0  0
 73 68  1  0  0  0  0
 74 72  1  0  0  0  0
 34 75  1  6  0  0  0
 49 76  1  6  0  0  0
 32 77  1  6  0  0  0
  6 78  1  6  0  0  0
  3 79  1  1  0  0  0
  4  2  1  0  0  0  0
  3  5  1  0  0  0  0
 42 15  1  0  0  0  0
 30  9  1  0  0  0  0
 41 36  2  0  0  0  0
 47 32  1  0  0  0  0
 16 26  1  0  0  0  0
 74 73  1  0  0  0  0
 27 33  1  0  0  0  0
M  END
>  <IDNUMBER>
F3395-2810

>  <Chemical_Name>
3-{[(1'R,2S,4'S,5S,6R,8'R,10'E,12'S,13'S,14'E,16'E,20'R,21'R,24'S)-6-cyclohexyl-24'-hydroxy-12'-{[(2R,4S,5S,6S)-5-{[(2S,4S,5S,6S)-5-hydroxy-4-methoxy-6-methyloxan-2-yl]oxy}-4-methoxy-6-methyloxan-2-yl]oxy}-5,11',13',22'-tetramethyl-2'-oxo-5,6-dihydro-3',7',19'-trioxaspiro[pyran-2,6'-tetracyclo[15.6.1.1?,?.0??,??]pentacosane]-10',14',16',22'-tetraen-21'-yloxy]carbonyl}-2,2-dimethylcyclopropane-1-carboxylic acid

>  <PriceCoeff>
7.00

>  <MW>
1 039.27

>  <Description>
solid

>  <FSP3>
0.77

>  <clogP>
7.68

>  <TPSA>
213.43

>  <Acceptor>
17

>  <Donor>
2

>  <RotBonds>
11

>  <HAC>
74

$$$$
F3395-2811
  Mrv2219 10102508112D          

 80 88  0  0  0  0            999 V2000
    8.4549   -7.2716    0.0000 C   0  0  2  0  0  0  0  0  0  0  0  0
    7.6960   -7.6917    0.0000 C   0  0  1  0  0  0  0  0  0  0  0  0
    7.6917   -8.5149    0.0000 C   0  0  1  0  0  0  0  0  0  0  0  0
    8.4678   -6.4741    0.0000 C   0  0  0  0  0  0  0  0  0  0  0  0
    9.8955   -4.0174    0.0000 C   0  0  2  0  0  0  0  0  0  0  0  0
    9.1366   -7.7089    0.0000 C   0  0  0  0  0  0  0  0  0  0  0  0
    8.4248   -8.9308    0.0000 C   0  0  1  0  0  0  0  0  0  0  0  0
    9.0851  -10.4100    0.0000 C   0  0  0  0  0  0  0  0  0  0  0  0
    9.1323   -8.5321    0.0000 C   0  0  0  0  0  0  0  0  0  0  0  0
    6.8728   -8.7464    0.0000 O   0  0  0  0  0  0  0  0  0  0  0  0
    6.9971   -7.3487    0.0000 C   0  0  0  0  0  0  0  0  0  0  0  0
    8.4248   -9.7497    0.0000 O   0  0  0  0  0  0  0  0  0  0  0  0
    2.7525   -4.7248    0.0000 C   0  0  2  0  0  0  0  0  0  0  0  0
   10.6114   -4.4547    0.0000 O   0  0  0  0  0  0  0  0  0  0  0  0
    1.3377   -4.7119    0.0000 C   0  0  2  0  0  0  0  0  0  0  0  0
    4.1846   -3.9230    0.0000 C   0  0  2  0  0  0  0  0  0  0  0  0
    9.1623   -6.0368    0.0000 O   0  0  0  0  0  0  0  0  0  0  0  0
    3.4986   -3.5243    0.0000 O   0  0  0  0  0  0  0  0  0  0  0  0
    0.6217   -5.1321    0.0000 O   0  0  0  0  0  0  0  0  0  0  0  0
    8.5706  -11.2931    0.0000 C   0  0  0  0  0  0  0  0  0  0  0  0
    4.1803   -4.7505    0.0000 C   0  0  0  0  0  0  0  0  0  0  0  0
    1.3505   -3.8888    0.0000 C   0  0  0  0  0  0  0  0  0  0  0  0
    9.1495  -12.1292    0.0000 C   0  0  0  0  0  0  0  0  0  0  0  0
    3.4772   -5.1707    0.0000 C   0  0  2  0  0  0  0  0  0  0  0  0
   -0.0514   -3.9102    0.0000 C   0  0  2  0  0  0  0  0  0  0  0  0
    5.6252   -3.9273    0.0000 C   0  0  1  0  0  0  0  0  0  0  0  0
    9.8911   -4.8277    0.0000 C   0  0  0  0  0  0  0  0  0  0  0  0
    9.1966   -3.5672    0.0000 O   0  0  0  0  0  0  0  0  0  0  0  0
    2.7654   -3.9402    0.0000 C   0  0  1  0  0  0  0  0  0  0  0  0
   11.3403   -4.0302    0.0000 C   0  0  1  0  0  0  0  0  0  0  0  0
    0.6474   -3.4857    0.0000 C   0  0  1  0  0  0  0  0  0  0  0  0
    9.1709   -5.2393    0.0000 C   0  0  2  0  0  0  0  0  0  0  0  0
   -0.0643   -4.6948    0.0000 C   0  0  2  0  0  0  0  0  0  0  0  0
   10.2813  -12.1292    0.0000 C   0  0  0  0  0  0  0  0  0  0  0  0
    6.3583   -3.5286    0.0000 C   0  0  0  0  0  0  0  0  0  0  0  0
    2.0494   -5.1493    0.0000 O   0  0  0  0  0  0  0  0  0  0  0  0
    9.9083   -3.1770    0.0000 C   0  0  0  0  0  0  0  0  0  0  0  0
    4.9177   -3.5415    0.0000 O   0  0  0  0  0  0  0  0  0  0  0  0
   10.6328   -2.7911    0.0000 C   0  0  0  0  0  0  0  0  0  0  0  0
    7.0486   -3.9487    0.0000 C   0  0  0  0  0  0  0  0  0  0  0  0
    6.4612   -8.0004    0.0000 C   0  0  0  0  0  0  0  0  0  0  0  0
    7.0143   -6.4440    0.0000 C   0  0  0  0  0  0  0  0  0  0  0  0
    7.7217   -6.0196    0.0000 O   0  0  0  0  0  0  0  0  0  0  0  0
    6.3283   -5.9982    0.0000 C   0  0  0  0  0  0  0  0  0  0  0  0
   10.0112  -10.1527    0.0000 O   0  0  0  0  0  0  0  0  0  0  0  0
   11.3575   -3.1942    0.0000 C   0  0  2  0  0  0  0  0  0  0  0  0
    8.4806   -4.8105    0.0000 C   0  0  0  0  0  0  0  0  0  0  0  0
    8.4935   -3.9659    0.0000 C   0  0  1  0  0  0  0  0  0  0  0  0
    5.6208   -4.7719    0.0000 C   0  0  2  0  0  0  0  0  0  0  0  0
   10.7787  -11.2589    0.0000 O   0  0  0  0  0  0  0  0  0  0  0  0
    6.3326   -5.2007    0.0000 C   0  0  0  0  0  0  0  0  0  0  0  0
    7.7174   -6.9243    0.0000 O   0  0  0  0  0  0  0  0  0  0  0  0
   12.0306   -4.4804    0.0000 C   0  0  0  0  0  0  0  0  0  0  0  0
    7.7560   -3.5500    0.0000 C   0  0  0  0  0  0  0  0  0  0  0  0
   -0.7717   -3.5029    0.0000 O   0  0  0  0  0  0  0  0  0  0  0  0
   11.0616  -12.9053    0.0000 O   0  0  0  0  0  0  0  0  0  0  0  0
    3.4643   -5.9596    0.0000 O   0  0  0  0  0  0  0  0  0  0  0  0
    0.6688   -2.7011    0.0000 O   0  0  0  0  0  0  0  0  0  0  0  0
    9.8569   -8.9265    0.0000 C   0  0  0  0  0  0  0  0  0  0  0  0
    7.5545  -11.3832    0.0000 C   0  0  0  0  0  0  0  0  0  0  0  0
    8.7250  -13.0467    0.0000 C   0  0  0  0  0  0  0  0  0  0  0  0
    6.3669   -2.6540    0.0000 C   0  0  0  0  0  0  0  0  0  0  0  0
    2.0623   -3.5672    0.0000 C   0  0  0  0  0  0  0  0  0  0  0  0
   -0.7931   -5.0806    0.0000 C   0  0  0  0  0  0  0  0  0  0  0  0
   12.0563   -2.8083    0.0000 C   0  0  0  0  0  0  0  0  0  0  0  0
    4.9049   -5.1750    0.0000 C   0  0  0  0  0  0  0  0  0  0  0  0
   11.9877   -5.3036    0.0000 C   0  0  0  0  0  0  0  0  0  0  0  0
   12.7638   -4.1031    0.0000 C   0  0  0  0  0  0  0  0  0  0  0  0
    1.3549   -2.3238    0.0000 C   0  0  0  0  0  0  0  0  0  0  0  0
    4.1417   -6.3712    0.0000 C   0  0  0  0  0  0  0  0  0  0  0  0
    7.7174  -13.1368    0.0000 C   0  0  0  0  0  0  0  0  0  0  0  0
    7.1301  -12.3007    0.0000 C   0  0  0  0  0  0  0  0  0  0  0  0
   13.4583   -4.5576    0.0000 C   0  0  0  0  0  0  0  0  0  0  0  0
   12.6823   -5.7538    0.0000 C   0  0  0  0  0  0  0  0  0  0  0  0
   13.4154   -5.3808    0.0000 C   0  0  0  0  0  0  0  0  0  0  0  0
    8.5149   -3.0998    0.0000 H   0  0  0  0  0  0  0  0  0  0  0  0
   11.5547   -4.8277    0.0000 H   0  0  0  0  0  0  0  0  0  0  0  0
    7.6703   -9.3038    0.0000 H   0  0  0  0  0  0  0  0  0  0  0  0
    9.2524   -6.8600    0.0000 H   0  0  0  0  0  0  0  0  0  0  0  0
    9.8955   -5.6723    0.0000 H   0  0  0  0  0  0  0  0  0  0  0  0
  2  1  1  0  0  0  0
  3  2  1  0  0  0  0
  4  1  1  0  0  0  0
  5 27  1  0  0  0  0
  6  1  1  0  0  0  0
  7  9  1  0  0  0  0
  8 12  1  0  0  0  0
  9  6  2  0  0  0  0
 10  3  1  0  0  0  0
 11  2  1  0  0  0  0
  7 12  1  1  0  0  0
 13 29  1  0  0  0  0
  5 14  1  6  0  0  0
 15 36  1  6  0  0  0
 16 38  1  1  0  0  0
 17  4  1  0  0  0  0
 18 16  1  0  0  0  0
 19 15  1  0  0  0  0
 20  8  1  0  0  0  0
 21 16  1  0  0  0  0
 22 15  1  0  0  0  0
 23 20  2  0  0  0  0
 24 21  1  0  0  0  0
 25 33  1  0  0  0  0
 26 49  1  0  0  0  0
 27 32  1  0  0  0  0
 28 48  1  0  0  0  0
 29 18  1  0  0  0  0
 30 14  1  0  0  0  0
 31 22  1  0  0  0  0
 32 17  1  0  0  0  0
 33 19  1  0  0  0  0
 34 23  1  0  0  0  0
 35 40  2  0  0  0  0
 13 36  1  1  0  0  0
  5 37  1  1  0  0  0
 26 38  1  6  0  0  0
 39 37  2  0  0  0  0
 40 54  1  0  0  0  0
 41 11  1  0  0  0  0
 42 11  2  0  0  0  0
 43  4  2  0  0  0  0
 44 42  1  0  0  0  0
 45  8  2  0  0  0  0
 46 39  1  0  0  0  0
 47 32  1  0  0  0  0
 48 47  1  0  0  0  0
 49 51  1  0  0  0  0
 50 34  2  0  0  0  0
 51 44  2  0  0  0  0
  2 52  1  6  0  0  0
 53 30  1  0  0  0  0
 54 48  1  0  0  0  0
 25 55  1  6  0  0  0
 56 34  1  0  0  0  0
 24 57  1  6  0  0  0
 31 58  1  1  0  0  0
 59  9  1  0  0  0  0
 60 20  1  0  0  0  0
 61 23  1  0  0  0  0
 62 35  1  0  0  0  0
 29 63  1  6  0  0  0
 33 64  1  1  0  0  0
 46 65  1  6  0  0  0
 49 66  1  6  0  0  0
 67 53  1  0  0  0  0
 68 53  1  0  0  0  0
 69 58  1  0  0  0  0
 70 57  1  0  0  0  0
 71 72  1  0  0  0  0
 72 60  2  0  0  0  0
 73 68  1  0  0  0  0
 74 67  1  0  0  0  0
 75 73  1  0  0  0  0
 48 76  1  6  0  0  0
 30 77  1  6  0  0  0
  3 78  1  6  0  0  0
  1 79  1  1  0  0  0
 32 80  1  6  0  0  0
  7  3  1  0  0  0  0
 41 10  1  0  0  0  0
 28  5  1  0  0  0  0
 35 26  1  0  0  0  0
 46 30  1  0  0  0  0
 61 71  2  0  0  0  0
 75 74  1  0  0  0  0
 13 24  1  0  0  0  0
 25 31  1  0  0  0  0
M  END
>  <IDNUMBER>
F3395-2811

>  <Chemical_Name>
2-{[(1'R,2S,4'S,5S,6R,8'R,10'E,12'S,13'S,14'E,16'E,20'R,21'R,24'S)-6-cyclohexyl-24'-hydroxy-12'-{[(2R,4S,5S,6S)-5-{[(2S,4S,5S,6S)-5-hydroxy-4-methoxy-6-methyloxan-2-yl]oxy}-4-methoxy-6-methyloxan-2-yl]oxy}-5,11',13',22'-tetramethyl-2'-oxo-5,6-dihydro-3',7',19'-trioxaspiro[pyran-2,6'-tetracyclo[15.6.1.1?,?.0??,??]pentacosane]-10',14',16',22'-tetraen-21'-yloxy]carbonyl}benzoic acid

>  <PriceCoeff>
7.00

>  <MW>
1 047.25

>  <Description>
solid

>  <FSP3>
0.67

>  <clogP>
6.67

>  <TPSA>
213.43

>  <Acceptor>
17

>  <Donor>
2

>  <RotBonds>
11

>  <HAC>
75

$$$$
F3395-2812
  Mrv2219 10102508112D          

 73 79  0  0  0  0            999 V2000
    8.7015   -6.8496    0.0000 C   0  0  0  0  0  0  0  0  0  0  0  0
    7.9448   -7.2598    0.0000 C   0  0  1  0  0  0  0  0  0  0  0  0
    7.9405   -8.0843    0.0000 C   0  0  1  0  0  0  0  0  0  0  0  0
    8.7142   -6.0505    0.0000 C   0  0  0  0  0  0  0  0  0  0  0  0
    9.3865   -7.2851    0.0000 C   0  0  0  0  0  0  0  0  0  0  0  0
   10.1518   -3.5940    0.0000 C   0  0  2  0  0  0  0  0  0  0  0  0
    8.6677   -8.5113    0.0000 C   0  0  1  0  0  0  0  0  0  0  0  0
    7.1202   -8.3126    0.0000 O   0  0  0  0  0  0  0  0  0  0  0  0
    7.2471   -6.9300    0.0000 C   0  0  0  0  0  0  0  0  0  0  0  0
    2.9978   -4.3043    0.0000 C   0  0  2  0  0  0  0  0  0  0  0  0
   10.8579   -4.0336    0.0000 O   0  0  0  0  0  0  0  0  0  0  0  0
    1.5855   -4.2916    0.0000 C   0  0  2  0  0  0  0  0  0  0  0  0
    4.4312   -3.5009    0.0000 C   0  0  2  0  0  0  0  0  0  0  0  0
    9.4119   -5.6108    0.0000 O   0  0  0  0  0  0  0  0  0  0  0  0
    3.7462   -3.0993    0.0000 O   0  0  0  0  0  0  0  0  0  0  0  0
    0.8753   -4.7102    0.0000 O   0  0  0  0  0  0  0  0  0  0  0  0
    4.4312   -4.3297    0.0000 C   0  0  0  0  0  0  0  0  0  0  0  0
    1.5982   -3.4544    0.0000 C   0  0  0  0  0  0  0  0  0  0  0  0
    9.3781   -8.1054    0.0000 C   0  0  0  0  0  0  0  0  0  0  0  0
    3.7208   -4.7440    0.0000 C   0  0  2  0  0  0  0  0  0  0  0  0
    0.1945   -3.4798    0.0000 C   0  0  2  0  0  0  0  0  0  0  0  0
    5.8772   -3.5052    0.0000 C   0  0  1  0  0  0  0  0  0  0  0  0
    3.0105   -3.5179    0.0000 C   0  0  1  0  0  0  0  0  0  0  0  0
   10.1391   -4.4058    0.0000 C   0  0  0  0  0  0  0  0  0  0  0  0
    9.4415   -3.1458    0.0000 O   0  0  0  0  0  0  0  0  0  0  0  0
    0.8922   -3.0613    0.0000 C   0  0  1  0  0  0  0  0  0  0  0  0
   11.5936   -3.6066    0.0000 C   0  0  1  0  0  0  0  0  0  0  0  0
    9.4161   -4.8117    0.0000 C   0  0  2  0  0  0  0  0  0  0  0  0
    0.1818   -4.2747    0.0000 C   0  0  2  0  0  0  0  0  0  0  0  0
    6.6002   -3.0993    0.0000 C   0  0  0  0  0  0  0  0  0  0  0  0
    2.2916   -4.7229    0.0000 O   0  0  0  0  0  0  0  0  0  0  0  0
    5.1668   -3.1120    0.0000 O   0  0  0  0  0  0  0  0  0  0  0  0
    8.6677   -9.3147    0.0000 O   0  0  0  0  0  0  0  0  0  0  0  0
    7.2978   -3.5305    0.0000 C   0  0  0  0  0  0  0  0  0  0  0  0
    6.7144   -7.5726    0.0000 C   0  0  0  0  0  0  0  0  0  0  0  0
    9.3274   -9.9742    0.0000 C   0  0  0  0  0  0  0  0  0  0  0  0
    7.2598   -6.0167    0.0000 C   0  0  0  0  0  0  0  0  0  0  0  0
    7.9701   -5.5939    0.0000 O   0  0  0  0  0  0  0  0  0  0  0  0
    8.8960  -12.5152    0.0000 C   0  0  0  0  0  0  0  0  0  0  0  0
    6.5748   -5.5728    0.0000 C   0  0  0  0  0  0  0  0  0  0  0  0
    8.7311   -4.3804    0.0000 C   0  0  0  0  0  0  0  0  0  0  0  0
    8.7438   -3.5432    0.0000 C   0  0  1  0  0  0  0  0  0  0  0  0
    5.8645   -4.3508    0.0000 C   0  0  2  0  0  0  0  0  0  0  0  0
   11.5979   -2.7779    0.0000 C   0  0  2  0  0  0  0  0  0  0  0  0
    6.5748   -4.7736    0.0000 C   0  0  0  0  0  0  0  0  0  0  0  0
    7.9574   -6.4987    0.0000 O   0  0  0  0  0  0  0  0  0  0  0  0
   10.1602   -2.7441    0.0000 C   0  0  0  0  0  0  0  0  0  0  0  0
   10.2618   -9.7290    0.0000 O   0  0  0  0  0  0  0  0  0  0  0  0
    9.2893  -13.2088    0.0000 O   0  0  0  0  0  0  0  0  0  0  0  0
   10.8832   -2.3636    0.0000 C   0  0  0  0  0  0  0  0  0  0  0  0
    8.0039   -3.1204    0.0000 C   0  0  0  0  0  0  0  0  0  0  0  0
   12.2785   -4.0506    0.0000 C   0  0  2  0  0  0  0  0  0  0  0  0
   -0.5284   -3.0824    0.0000 O   0  0  0  0  0  0  0  0  0  0  0  0
    8.8157  -10.8706    0.0000 C   0  0  0  0  0  0  0  0  0  0  0  0
    9.4035  -11.6993    0.0000 C   0  0  0  0  0  0  0  0  0  0  0  0
    3.6954   -5.6446    0.0000 O   0  0  0  0  0  0  0  0  0  0  0  0
    0.8795   -2.3466    0.0000 O   0  0  0  0  0  0  0  0  0  0  0  0
    7.9786  -12.5152    0.0000 O   0  0  0  0  0  0  0  0  0  0  0  0
    6.6129   -2.2325    0.0000 C   0  0  0  0  0  0  0  0  0  0  0  0
   10.1010   -8.5028    0.0000 C   0  0  0  0  0  0  0  0  0  0  0  0
    2.3128   -3.1374    0.0000 C   0  0  0  0  0  0  0  0  0  0  0  0
   -0.5411   -4.6552    0.0000 C   0  0  0  0  0  0  0  0  0  0  0  0
    5.1541   -4.7567    0.0000 C   0  0  0  0  0  0  0  0  0  0  0  0
   12.3039   -2.3889    0.0000 C   0  0  0  0  0  0  0  0  0  0  0  0
   12.2701   -4.8878    0.0000 C   0  0  0  0  0  0  0  0  0  0  0  0
   13.0439   -3.6277    0.0000 C   0  0  0  0  0  0  0  0  0  0  0  0
    2.9047   -6.0716    0.0000 C   0  0  0  0  0  0  0  0  0  0  0  0
    0.2494   -1.9999    0.0000 C   0  0  0  0  0  0  0  0  0  0  0  0
   13.0185   -5.3021    0.0000 C   0  0  0  0  0  0  0  0  0  0  0  0
   10.1475   -5.2513    0.0000 H   0  0  0  0  0  0  0  0  0  0  0  0
    8.7565   -2.6764    0.0000 H   0  0  0  0  0  0  0  0  0  0  0  0
   11.5682   -4.7567    0.0000 H   0  0  0  0  0  0  0  0  0  0  0  0
    7.9278   -8.8833    0.0000 H   0  0  0  0  0  0  0  0  0  0  0  0
  2  1  1  0  0  0  0
  3  2  1  0  0  0  0
  4  1  1  0  0  0  0
  5  1  2  0  0  0  0
  6 24  1  0  0  0  0
  7 19  1  0  0  0  0
  8  3  1  0  0  0  0
  9  2  1  0  0  0  0
 10 23  1  0  0  0  0
  6 11  1  6  0  0  0
 12 31  1  6  0  0  0
 13 32  1  1  0  0  0
 14  4  1  0  0  0  0
 15 13  1  0  0  0  0
 16 12  1  0  0  0  0
 17 13  1  0  0  0  0
 18 12  1  0  0  0  0
 19  5  1  0  0  0  0
 20 17  1  0  0  0  0
 21 29  1  0  0  0  0
 22 43  1  0  0  0  0
 23 15  1  0  0  0  0
 24 28  1  0  0  0  0
 25 42  1  0  0  0  0
 26 18  1  0  0  0  0
 27 11  1  0  0  0  0
 28 14  1  0  0  0  0
 29 16  1  0  0  0  0
 30 34  2  0  0  0  0
 10 31  1  1  0  0  0
 22 32  1  6  0  0  0
  7 33  1  1  0  0  0
 34 51  1  0  0  0  0
 35  9  1  0  0  0  0
 36 33  1  0  0  0  0
 37  9  2  0  0  0  0
 38  4  2  0  0  0  0
 39 55  1  0  0  0  0
 40 37  1  0  0  0  0
 41 28  1  0  0  0  0
 42 41  1  0  0  0  0
 43 45  1  0  0  0  0
 44 50  1  0  0  0  0
 45 40  2  0  0  0  0
  2 46  1  6  0  0  0
  6 47  1  1  0  0  0
 48 36  2  0  0  0  0
 49 39  2  0  0  0  0
 50 47  1  0  0  0  0
 51 42  1  0  0  0  0
 52 27  1  0  0  0  0
 21 53  1  6  0  0  0
 54 36  1  0  0  0  0
 55 54  1  0  0  0  0
 20 56  1  6  0  0  0
 26 57  1  1  0  0  0
 58 39  1  0  0  0  0
 59 30  1  0  0  0  0
 60 19  1  0  0  0  0
 23 61  1  6  0  0  0
 29 62  1  1  0  0  0
 43 63  1  6  0  0  0
 44 64  1  6  0  0  0
 65 52  1  0  0  0  0
 52 66  1  1  0  0  0
 67 56  1  0  0  0  0
 68 57  1  0  0  0  0
 69 65  1  0  0  0  0
 28 70  1  6  0  0  0
 42 71  1  6  0  0  0
 27 72  1  6  0  0  0
  3 73  1  6  0  0  0
  7  3  1  0  0  0  0
 35  8  1  0  0  0  0
 25  6  1  0  0  0  0
 30 22  1  0  0  0  0
 44 27  1  0  0  0  0
 10 20  1  0  0  0  0
 21 26  1  0  0  0  0
M  END
>  <IDNUMBER>
F3395-2812

>  <Chemical_Name>
4-[(2R,4'S,5S,6R,8'R,10'E,12'S,13'S,14'E,16'E,20'R,21'R,24'R)-6-[(2S)-butan-2-yl]-24'-hydroxy-12'-{[(2R,4S,5S,6S)-5-{[(2S,4S,5S,6S)-5-hydroxy-4-methoxy-6-methyloxan-2-yl]oxy}-4-methoxy-6-methyloxan-2-yl]oxy}-5,11',13',22'-tetramethyl-2'-oxo-3',7',19'-trioxaspiro[oxane-2,6'-tetracyclo[15.6.1.1?,?.0??,??]pentacosane]-1'(23'),10',14',16'-tetraen-21'-yloxy]-4-oxobutanoic acid

>  <PriceCoeff>
7.00

>  <MW>
975.18

>  <Description>
solid

>  <FSP3>
0.79

>  <clogP>
5.62

>  <TPSA>
213.43

>  <Acceptor>
17

>  <Donor>
2

>  <RotBonds>
13

>  <HAC>
69

$$$$
F3395-2814
  Mrv2219 10102508112D          

 73 80  0  0  0  0            999 V2000
   -2.4695    3.5808    0.0000 C   0  0  0  0  0  0  0  0  0  0  0  0
   -3.2186    3.1610    0.0000 C   0  0  1  0  0  0  0  0  0  0  0  0
   -3.2267    2.3377    0.0000 C   0  0  0  0  0  0  0  0  0  0  0  0
   -2.4612    4.3710    0.0000 C   0  0  0  0  0  0  0  0  0  0  0  0
   -1.7944    3.1363    0.0000 C   0  0  0  0  0  0  0  0  0  0  0  0
   -1.0208    6.8322    0.0000 C   0  0  2  0  0  0  0  0  0  0  0  0
   -2.4942    1.9179    0.0000 C   0  0  2  0  0  0  0  0  0  0  0  0
   -1.8438    0.4609    0.0000 C   0  0  0  0  0  0  0  0  0  0  0  0
   -4.0500    2.1155    0.0000 O   0  0  0  0  0  0  0  0  0  0  0  0
   -3.9265    3.4984    0.0000 C   0  0  0  0  0  0  0  0  0  0  0  0
   -2.4942    1.1113    0.0000 O   0  0  0  0  0  0  0  0  0  0  0  0
   -8.1657    6.1160    0.0000 C   0  0  2  0  0  0  0  0  0  0  0  0
   -0.3210    6.3877    0.0000 O   0  0  0  0  0  0  0  0  0  0  0  0
   -9.5733    6.1407    0.0000 C   0  0  2  0  0  0  0  0  0  0  0  0
   -6.7253    6.9310    0.0000 C   0  0  2  0  0  0  0  0  0  0  0  0
   -1.7533    4.8155    0.0000 O   0  0  0  0  0  0  0  0  0  0  0  0
   -7.4085    7.3261    0.0000 O   0  0  0  0  0  0  0  0  0  0  0  0
  -10.2814    5.7128    0.0000 O   0  0  0  0  0  0  0  0  0  0  0  0
   -2.3624   -0.4281    0.0000 C   0  0  0  0  0  0  0  0  0  0  0  0
   -6.7334    6.0913    0.0000 C   0  0  0  0  0  0  0  0  0  0  0  0
   -9.5652    6.9557    0.0000 C   0  0  0  0  0  0  0  0  0  0  0  0
   -1.7944    2.3213    0.0000 C   0  0  0  0  0  0  0  0  0  0  0  0
   -1.7697   -1.2677    0.0000 C   0  0  0  0  0  0  0  0  0  0  0  0
   -7.4332    5.6798    0.0000 C   0  0  2  0  0  0  0  0  0  0  0  0
  -10.9562    6.9310    0.0000 C   0  0  2  0  0  0  0  0  0  0  0  0
   -5.2847    6.9146    0.0000 C   0  0  1  0  0  0  0  0  0  0  0  0
   -8.1493    6.8982    0.0000 C   0  0  1  0  0  0  0  0  0  0  0  0
   -1.0372    6.0173    0.0000 C   0  0  0  0  0  0  0  0  0  0  0  0
   -1.7286    7.2767    0.0000 O   0  0  0  0  0  0  0  0  0  0  0  0
  -10.2648    7.3674    0.0000 C   0  0  1  0  0  0  0  0  0  0  0  0
    0.4198    6.8241    0.0000 C   0  0  0  0  0  0  0  0  0  0  0  0
   -1.7533    5.6057    0.0000 C   0  0  0  0  0  0  0  0  0  0  0  0
  -10.9645    6.1490    0.0000 C   0  0  2  0  0  0  0  0  0  0  0  0
   -0.6421   -1.2677    0.0000 C   0  0  0  0  0  0  0  0  0  0  0  0
   -4.5603    7.3180    0.0000 C   0  0  0  0  0  0  0  0  0  0  0  0
   -8.8572    5.6962    0.0000 O   0  0  0  0  0  0  0  0  0  0  0  0
   -5.9926    7.3014    0.0000 O   0  0  0  0  0  0  0  0  0  0  0  0
   -3.8688    6.8899    0.0000 C   0  0  0  0  0  0  0  0  0  0  0  0
   -4.4451    2.8563    0.0000 C   0  0  0  0  0  0  0  0  0  0  0  0
   -3.9018    4.4121    0.0000 C   0  0  0  0  0  0  0  0  0  0  0  0
   -3.2020    4.8319    0.0000 O   0  0  0  0  0  0  0  0  0  0  0  0
   -4.5933    4.8566    0.0000 C   0  0  0  0  0  0  0  0  0  0  0  0
   -0.9054    0.6998    0.0000 O   0  0  0  0  0  0  0  0  0  0  0  0
   -2.4365    6.0420    0.0000 C   0  0  0  0  0  0  0  0  0  0  0  0
   -2.4201    6.8816    0.0000 C   0  0  0  0  0  0  0  0  0  0  0  0
   -5.3011    6.0832    0.0000 C   0  0  2  0  0  0  0  0  0  0  0  0
   -0.1482   -0.3951    0.0000 O   0  0  0  0  0  0  0  0  0  0  0  0
    0.4281    7.6471    0.0000 C   0  0  2  0  0  0  0  0  0  0  0  0
   -4.5850    5.6468    0.0000 C   0  0  0  0  0  0  0  0  0  0  0  0
   -3.2020    3.9265    0.0000 O   0  0  0  0  0  0  0  0  0  0  0  0
   -1.0125    7.6718    0.0000 C   0  0  0  0  0  0  0  0  0  0  0  0
   -0.2880    8.0505    0.0000 C   0  0  0  0  0  0  0  0  0  0  0  0
   -3.1610    7.2933    0.0000 C   0  0  0  0  0  0  0  0  0  0  0  0
    1.1030    6.3713    0.0000 C   0  0  2  0  0  0  0  0  0  0  0  0
  -11.6724    7.3344    0.0000 O   0  0  0  0  0  0  0  0  0  0  0  0
    0.1235   -2.0333    0.0000 O   0  0  0  0  0  0  0  0  0  0  0  0
   -7.4415    4.8896    0.0000 O   0  0  0  0  0  0  0  0  0  0  0  0
  -10.2484    8.1740    0.0000 O   0  0  0  0  0  0  0  0  0  0  0  0
   -3.3585   -0.5186    0.0000 C   0  0  0  0  0  0  0  0  0  0  0  0
   -2.1978   -2.1815    0.0000 C   0  0  0  0  0  0  0  0  0  0  0  0
   -4.5603    8.1987    0.0000 C   0  0  0  0  0  0  0  0  0  0  0  0
   -1.0619    1.9262    0.0000 C   0  0  0  0  0  0  0  0  0  0  0  0
   -8.8408    7.2767    0.0000 C   0  0  0  0  0  0  0  0  0  0  0  0
  -11.6971    5.7703    0.0000 C   0  0  0  0  0  0  0  0  0  0  0  0
   -6.0009    5.6715    0.0000 C   0  0  0  0  0  0  0  0  0  0  0  0
    1.1196    8.0341    0.0000 C   0  0  0  0  0  0  0  0  0  0  0  0
    1.0866    5.5317    0.0000 C   0  0  0  0  0  0  0  0  0  0  0  0
    1.8604    6.7911    0.0000 C   0  0  0  0  0  0  0  0  0  0  0  0
   -6.7417    4.4781    0.0000 C   0  0  0  0  0  0  0  0  0  0  0  0
  -10.9481    8.6021    0.0000 C   0  0  0  0  0  0  0  0  0  0  0  0
   -3.2020   -2.2719    0.0000 C   0  0  0  0  0  0  0  0  0  0  0  0
   -3.7866   -1.4406    0.0000 C   0  0  0  0  0  0  0  0  0  0  0  0
    1.8438    5.1282    0.0000 C   0  0  0  0  0  0  0  0  0  0  0  0
  2  1  1  0  0  0  0
  3  2  1  0  0  0  0
  4  1  1  0  0  0  0
  5  1  2  0  0  0  0
  6 28  1  0  0  0  0
  7  3  1  0  0  0  0
  8 11  1  0  0  0  0
  9  3  1  0  0  0  0
 10  2  1  0  0  0  0
  7 11  1  1  0  0  0
 12 27  1  0  0  0  0
  6 13  1  6  0  0  0
 14 36  1  6  0  0  0
 15 37  1  1  0  0  0
 16  4  1  0  0  0  0
 17 15  1  0  0  0  0
 18 14  1  0  0  0  0
 19  8  1  0  0  0  0
 20 15  1  0  0  0  0
 21 14  1  0  0  0  0
 22  5  1  0  0  0  0
 23 19  2  0  0  0  0
 24 20  1  0  0  0  0
 25 33  1  0  0  0  0
 26 46  1  0  0  0  0
 27 17  1  0  0  0  0
 28 32  1  0  0  0  0
 29 45  1  0  0  0  0
 30 21  1  0  0  0  0
 31 13  1  0  0  0  0
 32 16  1  0  0  0  0
 33 18  1  0  0  0  0
 34 23  1  0  0  0  0
 35 26  1  0  0  0  0
 12 36  1  1  0  0  0
 26 37  1  6  0  0  0
 38 53  1  0  0  0  0
 39 10  1  0  0  0  0
 40 10  2  0  0  0  0
 41  4  2  0  0  0  0
 42 40  1  0  0  0  0
 43  8  2  0  0  0  0
 44 32  1  0  0  0  0
 45 44  1  0  0  0  0
 46 49  1  0  0  0  0
 47 34  2  0  0  0  0
 48 52  1  0  0  0  0
 49 42  2  0  0  0  0
  2 50  1  6  0  0  0
  6 51  1  1  0  0  0
 52 51  1  0  0  0  0
 53 45  1  0  0  0  0
 54 31  1  0  0  0  0
 25 55  1  6  0  0  0
 56 34  1  0  0  0  0
 24 57  1  6  0  0  0
 30 58  1  1  0  0  0
 59 19  1  0  0  0  0
 60 23  1  0  0  0  0
 61 35  1  0  0  0  0
 62 22  1  0  0  0  0
 27 63  1  6  0  0  0
 33 64  1  1  0  0  0
 46 65  1  6  0  0  0
 48 66  1  6  0  0  0
 67 54  1  0  0  0  0
 54 68  1  1  0  0  0
 69 57  1  0  0  0  0
 70 58  1  0  0  0  0
 71 72  1  0  0  0  0
 72 59  2  0  0  0  0
 73 67  1  0  0  0  0
 22  7  1  0  0  0  0
 39  9  1  0  0  0  0
 29  6  1  0  0  0  0
 38 35  2  0  0  0  0
 48 31  1  0  0  0  0
 60 71  2  0  0  0  0
 12 24  1  0  0  0  0
 25 30  1  0  0  0  0
M  END
>  <IDNUMBER>
F3395-2814

>  <Chemical_Name>
2-{[(2R,5S,10'E,12'S,13'S,14'E,16'E,21'R,24'R)-6-[(2S)-butan-2-yl]-24'-hydroxy-12'-{[(2R,4S,5S,6S)-5-{[(2S,4S,5S,6S)-5-hydroxy-4-methoxy-6-methyloxan-2-yl]oxy}-4-methoxy-6-methyloxan-2-yl]oxy}-5,11',13',22'-tetramethyl-2'-oxo-3',7',19'-trioxaspiro[oxane-2,6'-tetracyclo[15.6.1.1?,?.0??,??]pentacosane]-1'(23'),10',14',16'-tetraen-21'-yloxy]carbonyl}benzoic acid

>  <PriceCoeff>
7.00

>  <MW>
1 023.22

>  <Description>
solid

>  <FSP3>
0.70

>  <clogP>
6.60

>  <TPSA>
213.43

>  <Acceptor>
17

>  <Donor>
2

>  <RotBonds>
12

>  <HAC>
73

$$$$
F3395-2822
  Mrv2219 10102508112D          

 74 80  0  0  1  0            999 V2000
    7.7939   -6.6212    0.0000 C   0  0  2  0  0  0  0  0  0  0  0  0
    7.0358   -7.0526    0.0000 C   0  0  1  0  0  0  0  0  0  0  0  0
    7.0358   -7.8776    0.0000 C   0  0  1  0  0  0  0  0  0  0  0  0
    7.7980   -5.8297    0.0000 C   0  0  0  0  0  0  0  0  0  0  0  0
    8.4723   -7.0652    0.0000 C   0  0  0  0  0  0  0  0  0  0  0  0
    9.2387   -3.3839    0.0000 C   0  0  2  0  0  0  0  0  0  0  0  0
    7.7687   -8.2839    0.0000 C   0  0  1  0  0  0  0  0  0  0  0  0
    8.4598   -7.8818    0.0000 C   0  0  0  0  0  0  0  0  0  0  0  0
    6.2317   -8.1038    0.0000 O   0  0  0  0  0  0  0  0  0  0  0  0
    6.3448   -6.7175    0.0000 C   0  0  0  0  0  0  0  0  0  0  0  0
    2.1150   -4.1001    0.0000 C   0  0  2  0  0  0  0  0  0  0  0  0
    9.9423   -3.8278    0.0000 O   0  0  0  0  0  0  0  0  0  0  0  0
    0.7036   -4.0833    0.0000 C   0  0  2  0  0  0  0  0  0  0  0  0
    3.5473   -3.2834    0.0000 C   0  0  2  0  0  0  0  0  0  0  0  0
    8.5058   -5.3942    0.0000 O   0  0  0  0  0  0  0  0  0  0  0  0
    2.8520   -2.8897    0.0000 O   0  0  0  0  0  0  0  0  0  0  0  0
   -0.0209   -4.4979    0.0000 O   0  0  0  0  0  0  0  0  0  0  0  0
    3.5347   -4.1252    0.0000 C   0  0  0  0  0  0  0  0  0  0  0  0
    0.7078   -3.2624    0.0000 C   0  0  0  0  0  0  0  0  0  0  0  0
    2.8395   -4.5356    0.0000 C   0  0  2  0  0  0  0  0  0  0  0  0
   -0.6785   -3.2792    0.0000 C   0  0  2  0  0  0  0  0  0  0  0  0
    4.9753   -3.2918    0.0000 C   0  0  1  0  0  0  0  0  0  0  0  0
    2.1233   -3.3085    0.0000 C   0  0  1  0  0  0  0  0  0  0  0  0
    9.2387   -4.1964    0.0000 C   0  0  0  0  0  0  0  0  0  0  0  0
    8.5309   -2.9400    0.0000 O   0  0  0  0  0  0  0  0  0  0  0  0
    0.0042   -2.8562    0.0000 C   0  0  1  0  0  0  0  0  0  0  0  0
   10.6794   -3.4048    0.0000 C   0  0  1  0  0  0  0  0  0  0  0  0
    8.5100   -4.6110    0.0000 C   0  0  0  0  0  0  0  0  0  0  0  0
   -0.6994   -4.0624    0.0000 C   0  0  2  0  0  0  0  0  0  0  0  0
    5.7166   -2.9065    0.0000 C   0  0  0  0  0  0  0  0  0  0  0  0
    1.4197   -4.5230    0.0000 O   0  0  0  0  0  0  0  0  0  0  0  0
    4.2760   -2.9148    0.0000 O   0  0  0  0  0  0  0  0  0  0  0  0
    7.7687   -9.0921    0.0000 O   0  0  0  0  0  0  0  0  0  0  0  0
    6.3951   -3.3252    0.0000 C   0  0  0  0  0  0  0  0  0  0  0  0
    5.8129   -7.3541    0.0000 C   0  0  0  0  0  0  0  0  0  0  0  0
    8.4304   -9.7539    0.0000 C   0  0  0  0  0  0  0  0  0  0  0  0
    6.3616   -5.8088    0.0000 C   0  0  0  0  0  0  0  0  0  0  0  0
    7.0609   -5.3774    0.0000 O   0  0  0  0  0  0  0  0  0  0  0  0
    5.6663   -5.3690    0.0000 C   0  0  0  0  0  0  0  0  0  0  0  0
    8.6231  -12.8948    0.0000 C   0  0  0  0  0  0  0  0  0  0  0  0
    7.8148   -4.1755    0.0000 C   0  0  0  0  0  0  0  0  0  0  0  0
    7.8441   -3.3420    0.0000 C   0  0  1  0  0  0  0  0  0  0  0  0
    4.9711   -4.1461    0.0000 C   0  0  2  0  0  0  0  0  0  0  0  0
   10.6919   -2.5673    0.0000 C   0  0  2  0  0  0  0  0  0  0  0  0
    5.6789   -4.5691    0.0000 C   0  0  0  0  0  0  0  0  0  0  0  0
    7.0609   -6.2820    0.0000 O   0  0  0  0  0  0  0  0  0  0  0  0
    9.2471   -2.5505    0.0000 C   0  0  0  0  0  0  0  0  0  0  0  0
    9.3392   -9.5026    0.0000 O   0  0  0  0  0  0  0  0  0  0  0  0
    8.2671  -13.6487    0.0000 O   0  0  0  0  0  0  0  0  0  0  0  0
    9.9632   -2.1610    0.0000 C   0  0  0  0  0  0  0  0  0  0  0  0
    7.0986   -2.9065    0.0000 C   0  0  0  0  0  0  0  0  0  0  0  0
   11.3578   -3.8446    0.0000 C   0  0  2  0  0  0  0  0  0  0  0  0
   -1.4029   -2.8688    0.0000 O   0  0  0  0  0  0  0  0  0  0  0  0
    2.8227   -5.3188    0.0000 O   0  0  0  0  0  0  0  0  0  0  0  0
    0.0293   -2.0354    0.0000 O   0  0  0  0  0  0  0  0  0  0  0  0
    9.4398  -12.8236    0.0000 O   0  0  0  0  0  0  0  0  0  0  0  0
    9.2052   -8.2839    0.0000 C   0  0  0  0  0  0  0  0  0  0  0  0
    7.8944  -10.6417    0.0000 C   0  0  0  0  0  0  0  0  0  0  0  0
    5.7166   -2.0270    0.0000 C   0  0  0  0  0  0  0  0  0  0  0  0
    8.1457  -12.2164    0.0000 C   0  0  0  0  0  0  0  0  0  0  0  0
    8.4932  -11.4709    0.0000 C   0  0  0  0  0  0  0  0  0  0  0  0
    1.4197   -2.9400    0.0000 C   0  0  0  0  0  0  0  0  0  0  0  0
   -1.4239   -4.4393    0.0000 C   0  0  0  0  0  0  0  0  0  0  0  0
    4.2466   -4.5524    0.0000 C   0  0  0  0  0  0  0  0  0  0  0  0
   11.3872   -2.1904    0.0000 C   0  0  0  0  0  0  0  0  0  0  0  0
   11.3578   -4.6821    0.0000 C   0  0  0  0  0  0  0  0  0  0  0  0
   12.1284   -3.4216    0.0000 C   0  0  0  0  0  0  0  0  0  0  0  0
    3.5011   -5.7334    0.0000 C   0  0  0  0  0  0  0  0  0  0  0  0
    0.7581   -1.6333    0.0000 C   0  0  0  0  0  0  0  0  0  0  0  0
   12.0949   -5.0884    0.0000 C   0  0  0  0  0  0  0  0  0  0  0  0
   10.9013   -4.1964    0.0000 H   0  0  0  0  0  0  0  0  0  0  0  0
    7.0233   -8.6566    0.0000 H   0  0  0  0  0  0  0  0  0  0  0  0
    8.5937   -6.2192    0.0000 H   0  0  0  0  0  0  0  0  0  0  0  0
    7.8650   -2.4751    0.0000 H   0  0  0  0  0  0  0  0  0  0  0  0
  2  1  1  0  0  0  0
  3  2  1  0  0  0  0
  4  1  1  0  0  0  0
  5  1  1  0  0  0  0
  6 24  1  0  0  0  0
  7  8  1  0  0  0  0
  8  5  2  0  0  0  0
  9  3  1  0  0  0  0
 10  2  1  0  0  0  0
 11 23  1  0  0  0  0
  6 12  1  6  0  0  0
 13 31  1  6  0  0  0
 14 32  1  1  0  0  0
 15  4  1  0  0  0  0
 16 14  1  0  0  0  0
 17 13  1  0  0  0  0
 18 14  1  0  0  0  0
 19 13  1  0  0  0  0
 20 18  1  0  0  0  0
 21 29  1  0  0  0  0
 22 43  1  0  0  0  0
 23 16  1  0  0  0  0
 24 28  1  0  0  0  0
 25 42  1  0  0  0  0
 26 19  1  0  0  0  0
 27 12  1  0  0  0  0
 28 15  1  0  0  0  0
 29 17  1  0  0  0  0
 30 34  2  0  0  0  0
 11 31  1  1  0  0  0
 22 32  1  6  0  0  0
  7 33  1  1  0  0  0
 34 51  1  0  0  0  0
 35 10  1  0  0  0  0
 36 33  1  0  0  0  0
 37 10  2  0  0  0  0
 38  4  2  0  0  0  0
 39 37  1  0  0  0  0
 40 60  1  0  0  0  0
 41 28  1  0  0  0  0
 42 41  1  0  0  0  0
 43 45  1  0  0  0  0
 44 50  1  0  0  0  0
 45 39  2  0  0  0  0
  2 46  1  6  0  0  0
  6 47  1  1  0  0  0
 48 36  2  0  0  0  0
 49 40  2  0  0  0  0
 50 47  1  0  0  0  0
 51 42  1  0  0  0  0
 52 27  1  0  0  0  0
 21 53  1  6  0  0  0
 20 54  1  6  0  0  0
 26 55  1  1  0  0  0
 56 40  1  0  0  0  0
 57  8  1  0  0  0  0
 58 36  1  0  0  0  0
 59 30  1  0  0  0  0
 60 61  1  0  0  0  0
 61 58  1  0  0  0  0
 23 62  1  6  0  0  0
 29 63  1  1  0  0  0
 43 64  1  6  0  0  0
 44 65  1  6  0  0  0
 66 52  1  0  0  0  0
 52 67  1  1  0  0  0
 68 54  1  0  0  0  0
 69 55  1  0  0  0  0
 70 66  1  0  0  0  0
 27 71  1  6  0  0  0
  3 72  1  6  0  0  0
  1 73  1  1  0  0  0
 42 74  1  6  0  0  0
  7  3  1  0  0  0  0
 35  9  1  0  0  0  0
 25  6  1  0  0  0  0
 30 22  1  0  0  0  0
 44 27  1  0  0  0  0
 11 20  1  0  0  0  0
 21 26  1  0  0  0  0
M  END
>  <IDNUMBER>
F3395-2822

>  <Chemical_Name>
5-[(1'R,2R,5S,6R,8'R,10'E,12'S,13'S,14'E,16'E,20'R,21'R,24'S)-6-[(2S)-butan-2-yl]-24'-hydroxy-12'-{[(2R,4S,5S,6S)-5-{[(2S,4S,5S,6S)-5-hydroxy-4-methoxy-6-methyloxan-2-yl]oxy}-4-methoxy-6-methyloxan-2-yl]oxy}-5,11',13',22'-tetramethyl-2'-oxo-3',7',19'-trioxaspiro[oxane-2,6'-tetracyclo[15.6.1.1?,?.0??,??]pentacosane]-10',14',16',22'-tetraen-21'-yloxy]-5-oxopentanoic acid

>  <PriceCoeff>
7.00

>  <MW>
989.21

>  <Description>
solid

>  <FSP3>
0.79

>  <clogP>
5.78

>  <TPSA>
213.43

>  <Acceptor>
17

>  <Donor>
2

>  <RotBonds>
14

>  <HAC>
70

$$$$
F3395-2823
  Mrv2219 10102508112D          

 75 81  0  0  1  0            999 V2000
    7.8718   -7.1234    0.0000 C   0  0  2  0  0  0  0  0  0  0  0  0
    7.1191   -7.5401    0.0000 C   0  0  1  0  0  0  0  0  0  0  0  0
    7.1191   -8.3609    0.0000 C   0  0  1  0  0  0  0  0  0  0  0  0
    7.8718   -6.3324    0.0000 C   0  0  0  0  0  0  0  0  0  0  0  0
    8.5480   -7.5572    0.0000 C   0  0  0  0  0  0  0  0  0  0  0  0
    9.3178   -3.8913    0.0000 C   0  0  2  0  0  0  0  0  0  0  0  0
    7.8506   -8.7692    0.0000 C   0  0  1  0  0  0  0  0  0  0  0  0
    8.5353   -8.3779    0.0000 C   0  0  0  0  0  0  0  0  0  0  0  0
    6.3153   -8.5863    0.0000 O   0  0  0  0  0  0  0  0  0  0  0  0
    6.4302   -7.2127    0.0000 C   0  0  0  0  0  0  0  0  0  0  0  0
    2.2199   -4.6014    0.0000 C   0  0  2  0  0  0  0  0  0  0  0  0
   10.0152   -4.3293    0.0000 O   0  0  0  0  0  0  0  0  0  0  0  0
    0.8081   -4.5930    0.0000 C   0  0  2  0  0  0  0  0  0  0  0  0
    3.6404   -3.7935    0.0000 C   0  0  2  0  0  0  0  0  0  0  0  0
    8.5820   -5.8986    0.0000 O   0  0  0  0  0  0  0  0  0  0  0  0
    2.9514   -3.3980    0.0000 O   0  0  0  0  0  0  0  0  0  0  0  0
    0.0893   -5.0012    0.0000 O   0  0  0  0  0  0  0  0  0  0  0  0
    3.6233   -4.6312    0.0000 C   0  0  0  0  0  0  0  0  0  0  0  0
    0.8081   -3.7680    0.0000 C   0  0  0  0  0  0  0  0  0  0  0  0
    2.9387   -5.0480    0.0000 C   0  0  2  0  0  0  0  0  0  0  0  0
   -0.5614   -3.7935    0.0000 C   0  0  2  0  0  0  0  0  0  0  0  0
    5.0693   -3.8020    0.0000 C   0  0  1  0  0  0  0  0  0  0  0  0
    2.2242   -3.8190    0.0000 C   0  0  1  0  0  0  0  0  0  0  0  0
    9.3178   -4.6993    0.0000 C   0  0  0  0  0  0  0  0  0  0  0  0
    8.6034   -3.4490    0.0000 O   0  0  0  0  0  0  0  0  0  0  0  0
    0.1191   -3.3682    0.0000 C   0  0  1  0  0  0  0  0  0  0  0  0
   10.7467   -3.9211    0.0000 C   0  0  1  0  0  0  0  0  0  0  0  0
    8.5863   -5.1161    0.0000 C   0  0  0  0  0  0  0  0  0  0  0  0
   -0.5869   -4.5675    0.0000 C   0  0  2  0  0  0  0  0  0  0  0  0
    5.7965   -3.4107    0.0000 C   0  0  0  0  0  0  0  0  0  0  0  0
    8.5013  -10.2449    0.0000 C   0  0  0  0  0  0  0  0  0  0  0  0
    8.5651  -11.9502    0.0000 C   0  0  0  0  0  0  0  0  0  0  0  0
    8.2291  -12.6945    0.0000 C   0  0  0  0  0  0  0  0  0  0  0  0
    1.5182   -5.0268    0.0000 O   0  0  0  0  0  0  0  0  0  0  0  0
    7.8506   -9.5730    0.0000 O   0  0  0  0  0  0  0  0  0  0  0  0
    4.3676   -3.4235    0.0000 O   0  0  0  0  0  0  0  0  0  0  0  0
    6.4727   -3.8318    0.0000 C   0  0  0  0  0  0  0  0  0  0  0  0
    5.8943   -7.8463    0.0000 C   0  0  0  0  0  0  0  0  0  0  0  0
    7.9782  -11.1252    0.0000 C   0  0  0  0  0  0  0  0  0  0  0  0
    6.4429   -6.3026    0.0000 C   0  0  0  0  0  0  0  0  0  0  0  0
    7.1446   -5.8816    0.0000 O   0  0  0  0  0  0  0  0  0  0  0  0
    5.7583   -5.8688    0.0000 C   0  0  0  0  0  0  0  0  0  0  0  0
    7.9016   -4.6823    0.0000 C   0  0  0  0  0  0  0  0  0  0  0  0
    7.9229   -3.8445    0.0000 C   0  0  1  0  0  0  0  0  0  0  0  0
    5.0566   -4.6440    0.0000 C   0  0  2  0  0  0  0  0  0  0  0  0
    8.6927  -13.3707    0.0000 O   0  0  0  0  0  0  0  0  0  0  0  0
   10.7552   -3.0790    0.0000 C   0  0  2  0  0  0  0  0  0  0  0  0
    9.4199   -9.9897    0.0000 O   0  0  0  0  0  0  0  0  0  0  0  0
    5.7667   -5.0693    0.0000 C   0  0  0  0  0  0  0  0  0  0  0  0
    7.1446   -6.7831    0.0000 O   0  0  0  0  0  0  0  0  0  0  0  0
    9.3220   -3.0663    0.0000 C   0  0  0  0  0  0  0  0  0  0  0  0
   10.0407   -2.6708    0.0000 C   0  0  0  0  0  0  0  0  0  0  0  0
    7.1829   -3.4235    0.0000 C   0  0  0  0  0  0  0  0  0  0  0  0
   11.4229   -4.3549    0.0000 C   0  0  2  0  0  0  0  0  0  0  0  0
   -1.2801   -3.3725    0.0000 O   0  0  0  0  0  0  0  0  0  0  0  0
    7.4083  -12.7667    0.0000 O   0  0  0  0  0  0  0  0  0  0  0  0
    2.9216   -5.8178    0.0000 O   0  0  0  0  0  0  0  0  0  0  0  0
    0.1319   -2.5517    0.0000 O   0  0  0  0  0  0  0  0  0  0  0  0
    9.2753   -8.7692    0.0000 C   0  0  0  0  0  0  0  0  0  0  0  0
    9.9514  -11.9502    0.0000 C   0  0  0  0  0  0  0  0  0  0  0  0
    9.5475  -10.9678    0.0000 C   0  0  0  0  0  0  0  0  0  0  0  0
    5.8093   -2.5389    0.0000 C   0  0  0  0  0  0  0  0  0  0  0  0
    1.5225   -3.4490    0.0000 C   0  0  0  0  0  0  0  0  0  0  0  0
   -1.3141   -4.9417    0.0000 C   0  0  0  0  0  0  0  0  0  0  0  0
    4.3250   -5.0566    0.0000 C   0  0  0  0  0  0  0  0  0  0  0  0
   11.4569   -2.6963    0.0000 C   0  0  0  0  0  0  0  0  0  0  0  0
   11.4229   -5.1841    0.0000 C   0  0  0  0  0  0  0  0  0  0  0  0
   12.1841   -3.9295    0.0000 C   0  0  0  0  0  0  0  0  0  0  0  0
    0.8591   -2.1519    0.0000 C   0  0  0  0  0  0  0  0  0  0  0  0
    3.5978   -6.2303    0.0000 C   0  0  0  0  0  0  0  0  0  0  0  0
   12.1586   -5.5881    0.0000 C   0  0  0  0  0  0  0  0  0  0  0  0
    7.1106   -9.1477    0.0000 H   0  0  0  0  0  0  0  0  0  0  0  0
    8.6671   -6.7151    0.0000 H   0  0  0  0  0  0  0  0  0  0  0  0
    7.9356   -2.9854    0.0000 H   0  0  0  0  0  0  0  0  0  0  0  0
   10.9636   -4.6993    0.0000 H   0  0  0  0  0  0  0  0  0  0  0  0
  2  1  1  0  0  0  0
  3  2  1  0  0  0  0
  4  1  1  0  0  0  0
  5  1  1  0  0  0  0
  6 24  1  0  0  0  0
  7  3  1  0  0  0  0
  8  5  2  0  0  0  0
  9  3  1  0  0  0  0
 10  2  1  0  0  0  0
 11 23  1  0  0  0  0
  6 12  1  6  0  0  0
 13 34  1  6  0  0  0
 14 36  1  1  0  0  0
 15  4  1  0  0  0  0
 16 14  1  0  0  0  0
 17 13  1  0  0  0  0
 18 14  1  0  0  0  0
 19 13  1  0  0  0  0
 20 18  1  0  0  0  0
 21 29  1  0  0  0  0
 22 45  1  0  0  0  0
 23 16  1  0  0  0  0
 24 28  1  0  0  0  0
 25 44  1  0  0  0  0
 26 19  1  0  0  0  0
 27 12  1  0  0  0  0
 28 15  1  0  0  0  0
 29 17  1  0  0  0  0
 30 22  1  0  0  0  0
 31 35  1  0  0  0  0
 32 39  1  0  0  0  0
 33 32  1  0  0  0  0
 11 34  1  1  0  0  0
  7 35  1  1  0  0  0
 22 36  1  6  0  0  0
 37 53  1  0  0  0  0
 38 10  1  0  0  0  0
 39 31  1  0  0  0  0
 40 10  2  0  0  0  0
 41  4  2  0  0  0  0
 42 40  1  0  0  0  0
 43 28  1  0  0  0  0
 44 43  1  0  0  0  0
 45 49  1  0  0  0  0
 46 33  2  0  0  0  0
 47 52  1  0  0  0  0
 48 31  2  0  0  0  0
 49 42  2  0  0  0  0
  2 50  1  6  0  0  0
  6 51  1  1  0  0  0
 52 51  1  0  0  0  0
 53 44  1  0  0  0  0
 54 27  1  0  0  0  0
 21 55  1  6  0  0  0
 56 33  1  0  0  0  0
 20 57  1  6  0  0  0
 26 58  1  1  0  0  0
 59  8  1  0  0  0  0
 60 32  1  0  0  0  0
 61 32  1  0  0  0  0
 62 30  1  0  0  0  0
 23 63  1  6  0  0  0
 29 64  1  1  0  0  0
 45 65  1  6  0  0  0
 47 66  1  6  0  0  0
 67 54  1  0  0  0  0
 54 68  1  1  0  0  0
 69 58  1  0  0  0  0
 70 57  1  0  0  0  0
 71 67  1  0  0  0  0
  3 72  1  6  0  0  0
  1 73  1  1  0  0  0
 44 74  1  6  0  0  0
 27 75  1  6  0  0  0
  8  7  1  0  0  0  0
 38  9  1  0  0  0  0
 25  6  1  0  0  0  0
 37 30  2  0  0  0  0
 47 27  1  0  0  0  0
 11 20  1  0  0  0  0
 21 26  1  0  0  0  0
M  END
>  <IDNUMBER>
F3395-2823

>  <Chemical_Name>
4-[(1'R,2R,5S,6R,8'R,10'E,12'S,13'S,14'E,16'E,20'R,21'R,24'S)-6-[(2S)-butan-2-yl]-24'-hydroxy-12'-{[(2R,4S,5S,6S)-5-{[(2S,4S,5S,6S)-5-hydroxy-4-methoxy-6-methyloxan-2-yl]oxy}-4-methoxy-6-methyloxan-2-yl]oxy}-5,11',13',22'-tetramethyl-2'-oxo-3',7',19'-trioxaspiro[oxane-2,6'-tetracyclo[15.6.1.1?,?.0??,??]pentacosane]-10',14',16',22'-tetraen-21'-yloxy]-2,2-dimethyl-4-oxobutanoic acid

>  <PriceCoeff>
7.00

>  <MW>
1 003.23

>  <Description>
solid

>  <FSP3>
0.80

>  <clogP>
6.11

>  <TPSA>
213.43

>  <Acceptor>
17

>  <Donor>
2

>  <RotBonds>
13

>  <HAC>
71

>  <PPDS>
+

$$$$
F3395-2824
  Mrv2219 10102508112D          

 77 84  0  0  1  0            999 V2000
    7.9179   -7.4035    0.0000 C   0  0  2  0  0  0  0  0  0  0  0  0
    7.1634   -7.8237    0.0000 C   0  0  1  0  0  0  0  0  0  0  0  0
    7.1634   -8.6468    0.0000 C   0  0  1  0  0  0  0  0  0  0  0  0
    7.9222   -6.6148    0.0000 C   0  0  0  0  0  0  0  0  0  0  0  0
    8.5953   -7.8451    0.0000 C   0  0  0  0  0  0  0  0  0  0  0  0
    9.3670   -4.1669    0.0000 C   0  0  2  0  0  0  0  0  0  0  0  0
    7.8965   -9.0583    0.0000 C   0  0  1  0  0  0  0  0  0  0  0  0
    8.5825   -8.6638    0.0000 C   0  0  0  0  0  0  0  0  0  0  0  0
    8.5524  -10.5330    0.0000 C   0  0  0  0  0  0  0  0  0  0  0  0
    6.3575   -8.8739    0.0000 O   0  0  0  0  0  0  0  0  0  0  0  0
    6.4690   -7.4978    0.0000 C   0  0  0  0  0  0  0  0  0  0  0  0
    7.8965   -9.8642    0.0000 O   0  0  0  0  0  0  0  0  0  0  0  0
    2.2550   -4.8871    0.0000 C   0  0  2  0  0  0  0  0  0  0  0  0
   10.0614   -4.6085    0.0000 O   0  0  0  0  0  0  0  0  0  0  0  0
    0.8445   -4.8657    0.0000 C   0  0  2  0  0  0  0  0  0  0  0  0
    3.6825   -4.0683    0.0000 C   0  0  2  0  0  0  0  0  0  0  0  0
    8.6296   -6.1817    0.0000 O   0  0  0  0  0  0  0  0  0  0  0  0
    2.9880   -3.6782    0.0000 O   0  0  0  0  0  0  0  0  0  0  0  0
    0.1201   -5.2772    0.0000 O   0  0  0  0  0  0  0  0  0  0  0  0
    3.6653   -4.9128    0.0000 C   0  0  0  0  0  0  0  0  0  0  0  0
    0.8488   -4.0426    0.0000 C   0  0  0  0  0  0  0  0  0  0  0  0
    8.0294  -11.4118    0.0000 C   0  0  0  0  0  0  0  0  0  0  0  0
    2.9837   -5.3244    0.0000 C   0  0  2  0  0  0  0  0  0  0  0  0
   -0.5358   -4.0683    0.0000 C   0  0  2  0  0  0  0  0  0  0  0  0
    5.1100   -4.0812    0.0000 C   0  0  1  0  0  0  0  0  0  0  0  0
    2.2592   -4.0940    0.0000 C   0  0  1  0  0  0  0  0  0  0  0  0
    9.3670   -4.9814    0.0000 C   0  0  0  0  0  0  0  0  0  0  0  0
    8.6553   -3.7211    0.0000 O   0  0  0  0  0  0  0  0  0  0  0  0
    0.1500   -3.6439    0.0000 C   0  0  1  0  0  0  0  0  0  0  0  0
   10.7945   -4.1969    0.0000 C   0  0  1  0  0  0  0  0  0  0  0  0
    8.5267  -12.3034    0.0000 C   0  0  0  0  0  0  0  0  0  0  0  0
    8.6296   -5.3887    0.0000 C   0  0  0  0  0  0  0  0  0  0  0  0
   -0.5530   -4.8485    0.0000 C   0  0  2  0  0  0  0  0  0  0  0  0
    5.8431   -3.6910    0.0000 C   0  0  0  0  0  0  0  0  0  0  0  0
    9.5470  -12.3206    0.0000 C   0  0  0  0  0  0  0  0  0  0  0  0
    1.5562   -5.3030    0.0000 O   0  0  0  0  0  0  0  0  0  0  0  0
    4.4112   -3.7039    0.0000 O   0  0  0  0  0  0  0  0  0  0  0  0
    6.5204   -4.1069    0.0000 C   0  0  0  0  0  0  0  0  0  0  0  0
    5.9417   -8.1323    0.0000 C   0  0  0  0  0  0  0  0  0  0  0  0
    6.4861   -6.5847    0.0000 C   0  0  0  0  0  0  0  0  0  0  0  0
    7.1892   -6.1646    0.0000 O   0  0  0  0  0  0  0  0  0  0  0  0
    5.8045   -6.1474    0.0000 C   0  0  0  0  0  0  0  0  0  0  0  0
    9.4655  -10.2758    0.0000 O   0  0  0  0  0  0  0  0  0  0  0  0
    7.9480   -4.9557    0.0000 C   0  0  0  0  0  0  0  0  0  0  0  0
    7.9694   -4.1240    0.0000 C   0  0  1  0  0  0  0  0  0  0  0  0
    5.1057   -4.9257    0.0000 C   0  0  2  0  0  0  0  0  0  0  0  0
   10.0486  -13.2165    0.0000 O   0  0  0  0  0  0  0  0  0  0  0  0
   10.8030   -3.3567    0.0000 C   0  0  2  0  0  0  0  0  0  0  0  0
    5.8087   -5.3544    0.0000 C   0  0  0  0  0  0  0  0  0  0  0  0
    7.1892   -7.0649    0.0000 O   0  0  0  0  0  0  0  0  0  0  0  0
    9.3712   -3.3438    0.0000 C   0  0  0  0  0  0  0  0  0  0  0  0
   10.0872   -2.9494    0.0000 C   0  0  0  0  0  0  0  0  0  0  0  0
    7.2278   -3.6996    0.0000 C   0  0  0  0  0  0  0  0  0  0  0  0
   11.4761   -4.6342    0.0000 C   0  0  2  0  0  0  0  0  0  0  0  0
   -1.2518   -3.6525    0.0000 O   0  0  0  0  0  0  0  0  0  0  0  0
   10.0785  -11.4418    0.0000 O   0  0  0  0  0  0  0  0  0  0  0  0
    2.9580   -6.1003    0.0000 O   0  0  0  0  0  0  0  0  0  0  0  0
    0.1672   -2.8294    0.0000 O   0  0  0  0  0  0  0  0  0  0  0  0
    9.3241   -9.0583    0.0000 C   0  0  0  0  0  0  0  0  0  0  0  0
    6.9963  -11.3903    0.0000 C   0  0  0  0  0  0  0  0  0  0  0  0
    7.9951  -13.1866    0.0000 C   0  0  0  0  0  0  0  0  0  0  0  0
    5.8516   -2.8165    0.0000 C   0  0  0  0  0  0  0  0  0  0  0  0
    1.5605   -3.7211    0.0000 C   0  0  0  0  0  0  0  0  0  0  0  0
   -1.2818   -5.2258    0.0000 C   0  0  0  0  0  0  0  0  0  0  0  0
    4.3641   -5.3372    0.0000 C   0  0  0  0  0  0  0  0  0  0  0  0
   11.5104   -2.9752    0.0000 C   0  0  0  0  0  0  0  0  0  0  0  0
   11.4761   -5.4658    0.0000 C   0  0  0  0  0  0  0  0  0  0  0  0
   12.2435   -4.2098    0.0000 C   0  0  0  0  0  0  0  0  0  0  0  0
    3.6311   -6.5119    0.0000 C   0  0  0  0  0  0  0  0  0  0  0  0
    0.8917   -2.4264    0.0000 C   0  0  0  0  0  0  0  0  0  0  0  0
    6.4690  -12.2692    0.0000 C   0  0  0  0  0  0  0  0  0  0  0  0
    6.9705  -13.1694    0.0000 C   0  0  0  0  0  0  0  0  0  0  0  0
   12.2092   -5.8688    0.0000 C   0  0  0  0  0  0  0  0  0  0  0  0
    7.9865   -3.2623    0.0000 H   0  0  0  0  0  0  0  0  0  0  0  0
   11.0131   -4.9814    0.0000 H   0  0  0  0  0  0  0  0  0  0  0  0
    7.1549   -9.4355    0.0000 H   0  0  0  0  0  0  0  0  0  0  0  0
    8.7196   -6.9963    0.0000 H   0  0  0  0  0  0  0  0  0  0  0  0
  2  1  1  0  0  0  0
  3  2  1  0  0  0  0
  4  1  1  0  0  0  0
  5  1  1  0  0  0  0
  6 27  1  0  0  0  0
  7  8  1  0  0  0  0
  8  5  2  0  0  0  0
  9 12  1  0  0  0  0
 10  3  1  0  0  0  0
 11  2  1  0  0  0  0
  7 12  1  1  0  0  0
 13 26  1  0  0  0  0
  6 14  1  6  0  0  0
 15 36  1  6  0  0  0
 16 37  1  1  0  0  0
 17  4  1  0  0  0  0
 18 16  1  0  0  0  0
 19 15  1  0  0  0  0
 20 16  1  0  0  0  0
 21 15  1  0  0  0  0
 22  9  1  0  0  0  0
 23 20  1  0  0  0  0
 24 33  1  0  0  0  0
 25 46  1  0  0  0  0
 26 18  1  0  0  0  0
 27 32  1  0  0  0  0
 28 45  1  0  0  0  0
 29 21  1  0  0  0  0
 30 14  1  0  0  0  0
 31 22  1  0  0  0  0
 32 17  1  0  0  0  0
 33 19  1  0  0  0  0
 34 38  2  0  0  0  0
 35 31  1  0  0  0  0
 13 36  1  1  0  0  0
 25 37  1  6  0  0  0
 38 53  1  0  0  0  0
 39 11  1  0  0  0  0
 40 11  2  0  0  0  0
 41  4  2  0  0  0  0
 42 40  1  0  0  0  0
 43  9  2  0  0  0  0
 44 32  1  0  0  0  0
 45 44  1  0  0  0  0
 46 49  1  0  0  0  0
 47 35  2  0  0  0  0
 48 52  1  0  0  0  0
 49 42  2  0  0  0  0
  2 50  1  6  0  0  0
  6 51  1  1  0  0  0
 52 51  1  0  0  0  0
 53 45  1  0  0  0  0
 54 30  1  0  0  0  0
 24 55  1  6  0  0  0
 56 35  1  0  0  0  0
 23 57  1  6  0  0  0
 29 58  1  1  0  0  0
 59  8  1  0  0  0  0
 60 22  1  0  0  0  0
 61 31  1  0  0  0  0
 62 34  1  0  0  0  0
 26 63  1  6  0  0  0
 33 64  1  1  0  0  0
 46 65  1  6  0  0  0
 48 66  1  6  0  0  0
 67 54  1  0  0  0  0
 54 68  1  1  0  0  0
 69 57  1  0  0  0  0
 70 58  1  0  0  0  0
 71 60  1  0  0  0  0
 72 61  1  0  0  0  0
 73 67  1  0  0  0  0
 45 74  1  6  0  0  0
 30 75  1  6  0  0  0
  3 76  1  6  0  0  0
  1 77  1  1  0  0  0
  7  3  1  0  0  0  0
 39 10  1  0  0  0  0
 28  6  1  0  0  0  0
 34 25  1  0  0  0  0
 48 30  1  0  0  0  0
 72 71  1  0  0  0  0
 13 23  1  0  0  0  0
 24 29  1  0  0  0  0
M  END
>  <IDNUMBER>
F3395-2824

>  <Chemical_Name>
2-{[(1'R,2R,5S,6R,8'R,10'E,12'S,13'S,14'E,16'E,20'R,21'R,24'S)-6-[(2S)-butan-2-yl]-24'-hydroxy-12'-{[(2R,4S,5S,6S)-5-{[(2S,4S,5S,6S)-5-hydroxy-4-methoxy-6-methyloxan-2-yl]oxy}-4-methoxy-6-methyloxan-2-yl]oxy}-5,11',13',22'-tetramethyl-2'-oxo-3',7',19'-trioxaspiro[oxane-2,6'-tetracyclo[15.6.1.1?,?.0??,??]pentacosane]-10',14',16',22'-tetraen-21'-yloxy]carbonyl}cyclohexane-1-carboxylic acid

>  <PriceCoeff>
7.00

>  <MW>
1 029.27

>  <Description>
solid

>  <FSP3>
0.80

>  <clogP>
6.80

>  <TPSA>
213.43

>  <Acceptor>
17

>  <Donor>
2

>  <RotBonds>
12

>  <HAC>
73

$$$$
F3395-2825
  Mrv2219 10102508112D          

 77 84  0  0  1  0            999 V2000
    7.9179   -7.4035    0.0000 C   0  0  2  0  0  0  0  0  0  0  0  0
    7.1634   -7.8237    0.0000 C   0  0  1  0  0  0  0  0  0  0  0  0
    7.1634   -8.6468    0.0000 C   0  0  1  0  0  0  0  0  0  0  0  0
    7.9222   -6.6148    0.0000 C   0  0  0  0  0  0  0  0  0  0  0  0
    8.5953   -7.8451    0.0000 C   0  0  0  0  0  0  0  0  0  0  0  0
    9.3670   -4.1669    0.0000 C   0  0  2  0  0  0  0  0  0  0  0  0
    7.8965   -9.0583    0.0000 C   0  0  1  0  0  0  0  0  0  0  0  0
    8.5825   -8.6638    0.0000 C   0  0  0  0  0  0  0  0  0  0  0  0
    8.5524  -10.5330    0.0000 C   0  0  0  0  0  0  0  0  0  0  0  0
    6.3575   -8.8739    0.0000 O   0  0  0  0  0  0  0  0  0  0  0  0
    6.4690   -7.4978    0.0000 C   0  0  0  0  0  0  0  0  0  0  0  0
    7.8965   -9.8642    0.0000 O   0  0  0  0  0  0  0  0  0  0  0  0
    2.2550   -4.8871    0.0000 C   0  0  2  0  0  0  0  0  0  0  0  0
   10.0614   -4.6085    0.0000 O   0  0  0  0  0  0  0  0  0  0  0  0
    0.8445   -4.8657    0.0000 C   0  0  2  0  0  0  0  0  0  0  0  0
    3.6825   -4.0683    0.0000 C   0  0  2  0  0  0  0  0  0  0  0  0
    8.6296   -6.1817    0.0000 O   0  0  0  0  0  0  0  0  0  0  0  0
    2.9880   -3.6782    0.0000 O   0  0  0  0  0  0  0  0  0  0  0  0
    0.1201   -5.2772    0.0000 O   0  0  0  0  0  0  0  0  0  0  0  0
    3.6653   -4.9128    0.0000 C   0  0  0  0  0  0  0  0  0  0  0  0
    0.8488   -4.0426    0.0000 C   0  0  0  0  0  0  0  0  0  0  0  0
    8.0294  -11.4118    0.0000 C   0  0  0  0  0  0  0  0  0  0  0  0
    2.9837   -5.3244    0.0000 C   0  0  2  0  0  0  0  0  0  0  0  0
   -0.5358   -4.0683    0.0000 C   0  0  2  0  0  0  0  0  0  0  0  0
    5.1100   -4.0812    0.0000 C   0  0  1  0  0  0  0  0  0  0  0  0
    2.2592   -4.0940    0.0000 C   0  0  1  0  0  0  0  0  0  0  0  0
    9.3670   -4.9814    0.0000 C   0  0  0  0  0  0  0  0  0  0  0  0
    8.6553   -3.7211    0.0000 O   0  0  0  0  0  0  0  0  0  0  0  0
    8.5267  -12.3034    0.0000 C   0  0  0  0  0  0  0  0  0  0  0  0
    0.1500   -3.6439    0.0000 C   0  0  1  0  0  0  0  0  0  0  0  0
   10.7945   -4.1969    0.0000 C   0  0  1  0  0  0  0  0  0  0  0  0
    8.6296   -5.3887    0.0000 C   0  0  0  0  0  0  0  0  0  0  0  0
   -0.5530   -4.8485    0.0000 C   0  0  2  0  0  0  0  0  0  0  0  0
    5.8431   -3.6910    0.0000 C   0  0  0  0  0  0  0  0  0  0  0  0
    9.5470  -12.3206    0.0000 C   0  0  0  0  0  0  0  0  0  0  0  0
    1.5562   -5.3030    0.0000 O   0  0  0  0  0  0  0  0  0  0  0  0
    4.4112   -3.7039    0.0000 O   0  0  0  0  0  0  0  0  0  0  0  0
    6.5204   -4.1069    0.0000 C   0  0  0  0  0  0  0  0  0  0  0  0
    5.9417   -8.1323    0.0000 C   0  0  0  0  0  0  0  0  0  0  0  0
    6.4861   -6.5847    0.0000 C   0  0  0  0  0  0  0  0  0  0  0  0
    7.1892   -6.1646    0.0000 O   0  0  0  0  0  0  0  0  0  0  0  0
    5.8045   -6.1474    0.0000 C   0  0  0  0  0  0  0  0  0  0  0  0
    9.4655  -10.2758    0.0000 O   0  0  0  0  0  0  0  0  0  0  0  0
    7.9480   -4.9557    0.0000 C   0  0  0  0  0  0  0  0  0  0  0  0
    7.9694   -4.1240    0.0000 C   0  0  1  0  0  0  0  0  0  0  0  0
    5.1057   -4.9257    0.0000 C   0  0  2  0  0  0  0  0  0  0  0  0
   10.0486  -13.2165    0.0000 O   0  0  0  0  0  0  0  0  0  0  0  0
   10.8030   -3.3567    0.0000 C   0  0  2  0  0  0  0  0  0  0  0  0
    5.8087   -5.3544    0.0000 C   0  0  0  0  0  0  0  0  0  0  0  0
    7.1892   -7.0649    0.0000 O   0  0  0  0  0  0  0  0  0  0  0  0
    9.3712   -3.3438    0.0000 C   0  0  0  0  0  0  0  0  0  0  0  0
   10.0872   -2.9494    0.0000 C   0  0  0  0  0  0  0  0  0  0  0  0
    6.9705  -13.1694    0.0000 C   0  0  0  0  0  0  0  0  0  0  0  0
    6.4690  -12.2692    0.0000 C   0  0  0  0  0  0  0  0  0  0  0  0
    7.2278   -3.6996    0.0000 C   0  0  0  0  0  0  0  0  0  0  0  0
   11.4761   -4.6342    0.0000 C   0  0  2  0  0  0  0  0  0  0  0  0
   -1.2518   -3.6525    0.0000 O   0  0  0  0  0  0  0  0  0  0  0  0
   10.0785  -11.4418    0.0000 O   0  0  0  0  0  0  0  0  0  0  0  0
    2.9580   -6.1003    0.0000 O   0  0  0  0  0  0  0  0  0  0  0  0
    0.1672   -2.8294    0.0000 O   0  0  0  0  0  0  0  0  0  0  0  0
    6.9963  -11.3903    0.0000 C   0  0  0  0  0  0  0  0  0  0  0  0
    7.9951  -13.1866    0.0000 C   0  0  0  0  0  0  0  0  0  0  0  0
    9.3241   -9.0583    0.0000 C   0  0  0  0  0  0  0  0  0  0  0  0
    5.8516   -2.8165    0.0000 C   0  0  0  0  0  0  0  0  0  0  0  0
    1.5605   -3.7211    0.0000 C   0  0  0  0  0  0  0  0  0  0  0  0
   -1.2818   -5.2258    0.0000 C   0  0  0  0  0  0  0  0  0  0  0  0
    4.3641   -5.3372    0.0000 C   0  0  0  0  0  0  0  0  0  0  0  0
   11.5104   -2.9752    0.0000 C   0  0  0  0  0  0  0  0  0  0  0  0
   11.4761   -5.4658    0.0000 C   0  0  0  0  0  0  0  0  0  0  0  0
   12.2435   -4.2098    0.0000 C   0  0  0  0  0  0  0  0  0  0  0  0
    3.6311   -6.5119    0.0000 C   0  0  0  0  0  0  0  0  0  0  0  0
    0.8917   -2.4264    0.0000 C   0  0  0  0  0  0  0  0  0  0  0  0
   12.2092   -5.8688    0.0000 C   0  0  0  0  0  0  0  0  0  0  0  0
    7.9865   -3.2623    0.0000 H   0  0  0  0  0  0  0  0  0  0  0  0
   11.0131   -4.9814    0.0000 H   0  0  0  0  0  0  0  0  0  0  0  0
    7.1549   -9.4355    0.0000 H   0  0  0  0  0  0  0  0  0  0  0  0
    8.7196   -6.9963    0.0000 H   0  0  0  0  0  0  0  0  0  0  0  0
  2  1  1  0  0  0  0
  3  2  1  0  0  0  0
  4  1  1  0  0  0  0
  5  1  1  0  0  0  0
  6 27  1  0  0  0  0
  7  8  1  0  0  0  0
  8  5  2  0  0  0  0
  9 12  1  0  0  0  0
 10  3  1  0  0  0  0
 11  2  1  0  0  0  0
  7 12  1  1  0  0  0
 13 26  1  0  0  0  0
  6 14  1  6  0  0  0
 15 36  1  6  0  0  0
 16 37  1  1  0  0  0
 17  4  1  0  0  0  0
 18 16  1  0  0  0  0
 19 15  1  0  0  0  0
 20 16  1  0  0  0  0
 21 15  1  0  0  0  0
 22  9  1  0  0  0  0
 23 20  1  0  0  0  0
 24 33  1  0  0  0  0
 25 46  1  0  0  0  0
 26 18  1  0  0  0  0
 27 32  1  0  0  0  0
 28 45  1  0  0  0  0
 29 22  1  0  0  0  0
 30 21  1  0  0  0  0
 31 14  1  0  0  0  0
 32 17  1  0  0  0  0
 33 19  1  0  0  0  0
 34 38  2  0  0  0  0
 35 29  1  0  0  0  0
 13 36  1  1  0  0  0
 25 37  1  6  0  0  0
 38 55  1  0  0  0  0
 39 11  1  0  0  0  0
 40 11  2  0  0  0  0
 41  4  2  0  0  0  0
 42 40  1  0  0  0  0
 43  9  2  0  0  0  0
 44 32  1  0  0  0  0
 45 44  1  0  0  0  0
 46 49  1  0  0  0  0
 47 35  2  0  0  0  0
 48 52  1  0  0  0  0
 49 42  2  0  0  0  0
  2 50  1  6  0  0  0
  6 51  1  1  0  0  0
 52 51  1  0  0  0  0
 53 62  1  0  0  0  0
 54 61  1  0  0  0  0
 55 45  1  0  0  0  0
 56 31  1  0  0  0  0
 24 57  1  6  0  0  0
 58 35  1  0  0  0  0
 23 59  1  6  0  0  0
 30 60  1  1  0  0  0
 61 22  1  0  0  0  0
 62 29  1  0  0  0  0
 63  8  1  0  0  0  0
 64 34  1  0  0  0  0
 26 65  1  6  0  0  0
 33 66  1  1  0  0  0
 46 67  1  6  0  0  0
 48 68  1  6  0  0  0
 69 56  1  0  0  0  0
 56 70  1  1  0  0  0
 71 59  1  0  0  0  0
 72 60  1  0  0  0  0
 73 69  1  0  0  0  0
 45 74  1  6  0  0  0
 31 75  1  6  0  0  0
  3 76  1  6  0  0  0
  1 77  1  1  0  0  0
  7  3  1  0  0  0  0
 39 10  1  0  0  0  0
 28  6  1  0  0  0  0
 53 54  2  0  0  0  0
 34 25  1  0  0  0  0
 48 31  1  0  0  0  0
 13 23  1  0  0  0  0
 24 30  1  0  0  0  0
M  END
>  <IDNUMBER>
F3395-2825

>  <Chemical_Name>
6-{[(1'R,2R,5S,6R,8'R,10'E,12'S,13'S,14'E,16'E,20'R,21'R,24'S)-6-[(2S)-butan-2-yl]-24'-hydroxy-12'-{[(2R,4S,5S,6S)-5-{[(2S,4S,5S,6S)-5-hydroxy-4-methoxy-6-methyloxan-2-yl]oxy}-4-methoxy-6-methyloxan-2-yl]oxy}-5,11',13',22'-tetramethyl-2'-oxo-3',7',19'-trioxaspiro[oxane-2,6'-tetracyclo[15.6.1.1?,?.0??,??]pentacosane]-10',14',16',22'-tetraen-21'-yloxy]carbonyl}cyclohex-3-ene-1-carboxylic acid

>  <PriceCoeff>
7.00

>  <MW>
1 027.26

>  <Description>
solid

>  <FSP3>
0.77

>  <clogP>
6.32

>  <TPSA>
213.43

>  <Acceptor>
17

>  <Donor>
2

>  <RotBonds>
12

>  <HAC>
73

$$$$
F3395-2826
  Mrv2219 10102508112D          

 74 81  0  0  1  0            999 V2000
    8.8197   -4.3781    0.0000 C   0  0  2  0  0  0  0  0  0  0  0  0
    8.0625   -4.7969    0.0000 C   0  0  1  0  0  0  0  0  0  0  0  0
    8.0625   -5.6217    0.0000 C   0  0  1  0  0  0  0  0  0  0  0  0
    8.9254   -8.3798    0.0000 C   0  0  0  0  0  0  0  0  0  0  0  0
    8.9127   -9.4077    0.0000 C   0  0  0  0  0  0  0  0  0  0  0  0
    8.8197   -3.5870    0.0000 C   0  0  0  0  0  0  0  0  0  0  0  0
    9.4965   -4.8138    0.0000 C   0  0  0  0  0  0  0  0  0  0  0  0
   10.2663   -1.1421    0.0000 C   0  0  2  0  0  0  0  0  0  0  0  0
    8.7985   -6.0321    0.0000 C   0  0  1  0  0  0  0  0  0  0  0  0
    8.0329   -8.8831    0.0000 C   0  0  0  0  0  0  0  0  0  0  0  0
    9.4542   -7.5041    0.0000 C   0  0  0  0  0  0  0  0  0  0  0  0
    9.4795   -5.6344    0.0000 C   0  0  0  0  0  0  0  0  0  0  0  0
    7.2588   -5.8417    0.0000 O   0  0  0  0  0  0  0  0  0  0  0  0
    7.3730   -4.4669    0.0000 C   0  0  0  0  0  0  0  0  0  0  0  0
    8.7985   -6.8316    0.0000 O   0  0  0  0  0  0  0  0  0  0  0  0
    3.1598   -1.8570    0.0000 C   0  0  2  0  0  0  0  0  0  0  0  0
   10.9643   -1.5863    0.0000 O   0  0  0  0  0  0  0  0  0  0  0  0
    1.7512   -1.8443    0.0000 C   0  0  2  0  0  0  0  0  0  0  0  0
    4.5854   -1.0449    0.0000 C   0  0  2  0  0  0  0  0  0  0  0  0
    9.5303   -3.1514    0.0000 O   0  0  0  0  0  0  0  0  0  0  0  0
    3.8916   -0.6515    0.0000 O   0  0  0  0  0  0  0  0  0  0  0  0
    1.0279   -2.2504    0.0000 O   0  0  0  0  0  0  0  0  0  0  0  0
    4.5685   -1.8824    0.0000 C   0  0  0  0  0  0  0  0  0  0  0  0
    1.7512   -1.0195    0.0000 C   0  0  0  0  0  0  0  0  0  0  0  0
    9.4118  -10.3001    0.0000 C   0  0  0  0  0  0  0  0  0  0  0  0
    3.8874   -2.3012    0.0000 C   0  0  2  0  0  0  0  0  0  0  0  0
    0.3723   -1.0449    0.0000 C   0  0  2  0  0  0  0  0  0  0  0  0
    6.0067   -1.0533    0.0000 C   0  0  1  0  0  0  0  0  0  0  0  0
    3.1683   -1.0702    0.0000 C   0  0  1  0  0  0  0  0  0  0  0  0
   10.2663   -1.9543    0.0000 C   0  0  0  0  0  0  0  0  0  0  0  0
    9.5557   -0.6980    0.0000 O   0  0  0  0  0  0  0  0  0  0  0  0
    1.0575   -0.6134    0.0000 C   0  0  1  0  0  0  0  0  0  0  0  0
   11.7003   -1.1718    0.0000 C   0  0  1  0  0  0  0  0  0  0  0  0
    9.5303   -2.3646    0.0000 C   0  0  0  0  0  0  0  0  0  0  0  0
    0.3469   -1.8147    0.0000 C   0  0  2  0  0  0  0  0  0  0  0  0
    6.7427   -0.6642    0.0000 C   0  0  0  0  0  0  0  0  0  0  0  0
    2.4619   -2.2758    0.0000 O   0  0  0  0  0  0  0  0  0  0  0  0
    5.3087   -0.6726    0.0000 O   0  0  0  0  0  0  0  0  0  0  0  0
    7.4237   -1.0829    0.0000 C   0  0  0  0  0  0  0  0  0  0  0  0
    6.8400   -5.1014    0.0000 C   0  0  0  0  0  0  0  0  0  0  0  0
    7.3857   -3.5575    0.0000 C   0  0  0  0  0  0  0  0  0  0  0  0
    8.0879   -3.1387    0.0000 O   0  0  0  0  0  0  0  0  0  0  0  0
    6.7047   -3.1218    0.0000 C   0  0  0  0  0  0  0  0  0  0  0  0
   10.3636   -7.2461    0.0000 O   0  0  0  0  0  0  0  0  0  0  0  0
    8.8493   -1.9289    0.0000 C   0  0  0  0  0  0  0  0  0  0  0  0
    8.8704   -1.1040    0.0000 C   0  0  1  0  0  0  0  0  0  0  0  0
    6.0024   -1.8951    0.0000 C   0  0  2  0  0  0  0  0  0  0  0  0
    8.8831  -11.1800    0.0000 O   0  0  0  0  0  0  0  0  0  0  0  0
   11.7046   -0.3299    0.0000 C   0  0  2  0  0  0  0  0  0  0  0  0
    6.7088   -2.3266    0.0000 C   0  0  0  0  0  0  0  0  0  0  0  0
    8.0879   -4.0397    0.0000 O   0  0  0  0  0  0  0  0  0  0  0  0
   10.2706   -0.3173    0.0000 C   0  0  0  0  0  0  0  0  0  0  0  0
   10.9897    0.0719    0.0000 C   0  0  0  0  0  0  0  0  0  0  0  0
    8.1260   -0.6726    0.0000 C   0  0  0  0  0  0  0  0  0  0  0  0
   12.3729   -1.6074    0.0000 C   0  0  2  0  0  0  0  0  0  0  0  0
   -0.3426   -0.6261    0.0000 O   0  0  0  0  0  0  0  0  0  0  0  0
   10.4356  -10.3171    0.0000 O   0  0  0  0  0  0  0  0  0  0  0  0
    3.8578   -3.0710    0.0000 O   0  0  0  0  0  0  0  0  0  0  0  0
    1.0787    0.1988    0.0000 O   0  0  0  0  0  0  0  0  0  0  0  0
   10.2198   -6.0321    0.0000 C   0  0  0  0  0  0  0  0  0  0  0  0
    6.7554    0.2115    0.0000 C   0  0  0  0  0  0  0  0  0  0  0  0
    2.4662   -0.6980    0.0000 C   0  0  0  0  0  0  0  0  0  0  0  0
   -0.3764   -2.1954    0.0000 C   0  0  0  0  0  0  0  0  0  0  0  0
    5.2748   -2.3053    0.0000 C   0  0  0  0  0  0  0  0  0  0  0  0
   12.4025    0.0508    0.0000 C   0  0  0  0  0  0  0  0  0  0  0  0
   12.3729   -2.4408    0.0000 C   0  0  0  0  0  0  0  0  0  0  0  0
   13.1386   -1.1844    0.0000 C   0  0  0  0  0  0  0  0  0  0  0  0
    1.8020    0.6007    0.0000 C   0  0  0  0  0  0  0  0  0  0  0  0
    4.5346   -3.4814    0.0000 C   0  0  0  0  0  0  0  0  0  0  0  0
   13.1089   -2.8426    0.0000 C   0  0  0  0  0  0  0  0  0  0  0  0
   11.9160   -1.9543    0.0000 H   0  0  0  0  0  0  0  0  0  0  0  0
    8.0582   -6.4085    0.0000 H   0  0  0  0  0  0  0  0  0  0  0  0
    9.6191   -3.9636    0.0000 H   0  0  0  0  0  0  0  0  0  0  0  0
    8.8831   -0.2368    0.0000 H   0  0  0  0  0  0  0  0  0  0  0  0
  2  1  1  0  0  0  0
  3  2  1  0  0  0  0
  4 11  1  0  0  0  0
  5  4  1  0  0  0  0
  6  1  1  0  0  0  0
  7  1  1  0  0  0  0
  8 30  1  0  0  0  0
  9  3  1  0  0  0  0
 10  4  1  0  0  0  0
 11 15  1  0  0  0  0
 12  7  2  0  0  0  0
 13  3  1  0  0  0  0
 14  2  1  0  0  0  0
  9 15  1  1  0  0  0
 16 29  1  0  0  0  0
  8 17  1  6  0  0  0
 18 37  1  6  0  0  0
 19 38  1  1  0  0  0
 20  6  1  0  0  0  0
 21 19  1  0  0  0  0
 22 18  1  0  0  0  0
 23 19  1  0  0  0  0
 24 18  1  0  0  0  0
 25  5  1  0  0  0  0
 26 23  1  0  0  0  0
 27 35  1  0  0  0  0
 28 47  1  0  0  0  0
 29 21  1  0  0  0  0
 30 34  1  0  0  0  0
 31 46  1  0  0  0  0
 32 24  1  0  0  0  0
 33 17  1  0  0  0  0
 34 20  1  0  0  0  0
 35 22  1  0  0  0  0
 36 28  1  0  0  0  0
 16 37  1  1  0  0  0
 28 38  1  6  0  0  0
 39 54  1  0  0  0  0
 40 14  1  0  0  0  0
 41 14  2  0  0  0  0
 42  6  2  0  0  0  0
 43 41  1  0  0  0  0
 44 11  2  0  0  0  0
 45 34  1  0  0  0  0
 46 45  1  0  0  0  0
 47 50  1  0  0  0  0
 48 25  2  0  0  0  0
 49 53  1  0  0  0  0
 50 43  2  0  0  0  0
  2 51  1  6  0  0  0
  8 52  1  1  0  0  0
 53 52  1  0  0  0  0
 54 46  1  0  0  0  0
 55 33  1  0  0  0  0
 27 56  1  6  0  0  0
 57 25  1  0  0  0  0
 26 58  1  6  0  0  0
 32 59  1  1  0  0  0
 60 12  1  0  0  0  0
 61 36  1  0  0  0  0
 29 62  1  6  0  0  0
 35 63  1  1  0  0  0
 47 64  1  6  0  0  0
 49 65  1  6  0  0  0
 66 55  1  0  0  0  0
 55 67  1  1  0  0  0
 68 59  1  0  0  0  0
 69 58  1  0  0  0  0
 70 66  1  0  0  0  0
 33 71  1  6  0  0  0
  3 72  1  6  0  0  0
  1 73  1  1  0  0  0
 46 74  1  6  0  0  0
 12  9  1  0  0  0  0
 40 13  1  0  0  0  0
 31  8  1  0  0  0  0
 10  5  1  0  0  0  0
 39 36  2  0  0  0  0
 49 33  1  0  0  0  0
 16 26  1  0  0  0  0
 27 32  1  0  0  0  0
M  END
>  <IDNUMBER>
F3395-2826

>  <Chemical_Name>
2-{[(1'R,2R,5S,6R,8'R,10'E,12'S,13'S,14'E,16'E,20'R,21'R,24'S)-6-[(2S)-butan-2-yl]-24'-hydroxy-12'-{[(2R,4S,5S,6S)-5-{[(2S,4S,5S,6S)-5-hydroxy-4-methoxy-6-methyloxan-2-yl]oxy}-4-methoxy-6-methyloxan-2-yl]oxy}-5,11',13',22'-tetramethyl-2'-oxo-3',7',19'-trioxaspiro[oxane-2,6'-tetracyclo[15.6.1.1?,?.0??,??]pentacosane]-10',14',16',22'-tetraen-21'-yloxy]carbonyl}cyclopropane-1-carboxylic acid

>  <PriceCoeff>
7.00

>  <MW>
987.19

>  <Description>
solid

>  <FSP3>
0.79

>  <clogP>
6.09

>  <TPSA>
213.43

>  <Acceptor>
17

>  <Donor>
2

>  <RotBonds>
12

>  <HAC>
70

$$$$
F3395-2827
  Mrv2219 10102508112D          

 76 83  0  0  1  0            999 V2000
    7.3833   -5.0555    0.0000 C   0  0  2  0  0  0  0  0  0  0  0  0
    6.6252   -5.4793    0.0000 C   0  0  1  0  0  0  0  0  0  0  0  0
    6.6312   -6.3090    0.0000 C   0  0  1  0  0  0  0  0  0  0  0  0
    7.4012   -4.2676    0.0000 C   0  0  0  0  0  0  0  0  0  0  0  0
    8.8337   -1.8145    0.0000 C   0  0  2  0  0  0  0  0  0  0  0  0
    8.0756   -5.5032    0.0000 C   0  0  0  0  0  0  0  0  0  0  0  0
    7.3654   -6.7208    0.0000 C   0  0  1  0  0  0  0  0  0  0  0  0
    8.0756   -6.3090    0.0000 C   0  0  0  0  0  0  0  0  0  0  0  0
    5.8076   -6.5238    0.0000 O   0  0  0  0  0  0  0  0  0  0  0  0
    5.9329   -5.1450    0.0000 C   0  0  0  0  0  0  0  0  0  0  0  0
    1.7011   -2.5308    0.0000 C   0  0  2  0  0  0  0  0  0  0  0  0
    9.5439   -2.2443    0.0000 O   0  0  0  0  0  0  0  0  0  0  0  0
    0.2686   -2.5129    0.0000 C   0  0  2  0  0  0  0  0  0  0  0  0
    3.1217   -1.7250    0.0000 C   0  0  2  0  0  0  0  0  0  0  0  0
    8.1114   -3.8200    0.0000 O   0  0  0  0  0  0  0  0  0  0  0  0
    2.4352   -1.3132    0.0000 O   0  0  0  0  0  0  0  0  0  0  0  0
   -0.4238   -2.9366    0.0000 O   0  0  0  0  0  0  0  0  0  0  0  0
    3.1157   -2.5487    0.0000 C   0  0  0  0  0  0  0  0  0  0  0  0
    0.2865   -1.6832    0.0000 C   0  0  0  0  0  0  0  0  0  0  0  0
    2.4054   -2.9605    0.0000 C   0  0  2  0  0  0  0  0  0  0  0  0
   -1.1220   -1.7071    0.0000 C   0  0  2  0  0  0  0  0  0  0  0  0
    4.5721   -1.7250    0.0000 C   0  0  1  0  0  0  0  0  0  0  0  0
    8.8337   -2.6322    0.0000 C   0  0  0  0  0  0  0  0  0  0  0  0
    8.1293   -1.3669    0.0000 O   0  0  0  0  0  0  0  0  0  0  0  0
    1.7071   -1.7369    0.0000 C   0  0  1  0  0  0  0  0  0  0  0  0
   10.2841   -1.8324    0.0000 C   0  0  1  0  0  0  0  0  0  0  0  0
   -0.4119   -1.2774    0.0000 C   0  0  1  0  0  0  0  0  0  0  0  0
    8.0996   -3.0322    0.0000 C   0  0  0  0  0  0  0  0  0  0  0  0
   -1.1220   -2.4949    0.0000 C   0  0  2  0  0  0  0  0  0  0  0  0
    5.3002   -1.3251    0.0000 C   0  0  0  0  0  0  0  0  0  0  0  0
    0.9908   -2.9426    0.0000 O   0  0  0  0  0  0  0  0  0  0  0  0
    8.8516   -0.9729    0.0000 C   0  0  0  0  0  0  0  0  0  0  0  0
    3.8677   -1.3430    0.0000 O   0  0  0  0  0  0  0  0  0  0  0  0
    7.3654   -7.5444    0.0000 O   0  0  0  0  0  0  0  0  0  0  0  0
    9.5679   -0.5969    0.0000 C   0  0  0  0  0  0  0  0  0  0  0  0
    5.9867   -1.7429    0.0000 C   0  0  0  0  0  0  0  0  0  0  0  0
    5.3898   -5.7897    0.0000 C   0  0  0  0  0  0  0  0  0  0  0  0
    8.0219   -8.1891    0.0000 C   0  0  0  0  0  0  0  0  0  0  0  0
    5.9508   -4.2318    0.0000 C   0  0  0  0  0  0  0  0  0  0  0  0
    6.6610   -3.8140    0.0000 O   0  0  0  0  0  0  0  0  0  0  0  0
    5.2525   -3.8021    0.0000 C   0  0  0  0  0  0  0  0  0  0  0  0
   10.2841   -0.9908    0.0000 C   0  0  2  0  0  0  0  0  0  0  0  0
    7.9742  -11.4659    0.0000 C   0  0  0  0  0  0  0  0  0  0  0  0
    7.4191   -2.6024    0.0000 C   0  0  0  0  0  0  0  0  0  0  0  0
    7.4191   -1.7608    0.0000 C   0  0  1  0  0  0  0  0  0  0  0  0
    4.5542   -2.5666    0.0000 C   0  0  2  0  0  0  0  0  0  0  0  0
    5.2704   -2.9964    0.0000 C   0  0  0  0  0  0  0  0  0  0  0  0
    6.6491   -4.7153    0.0000 O   0  0  0  0  0  0  0  0  0  0  0  0
    8.9411   -7.9384    0.0000 O   0  0  0  0  0  0  0  0  0  0  0  0
    7.5564  -12.1761    0.0000 O   0  0  0  0  0  0  0  0  0  0  0  0
   10.9585   -2.2801    0.0000 C   0  0  0  0  0  0  0  0  0  0  0  0
    6.6968   -1.3490    0.0000 C   0  0  0  0  0  0  0  0  0  0  0  0
   -1.8383   -1.2953    0.0000 O   0  0  0  0  0  0  0  0  0  0  0  0
    2.4054   -3.7603    0.0000 O   0  0  0  0  0  0  0  0  0  0  0  0
   -0.3939   -0.4716    0.0000 O   0  0  0  0  0  0  0  0  0  0  0  0
    8.8098  -11.4838    0.0000 O   0  0  0  0  0  0  0  0  0  0  0  0
    8.7919   -6.7208    0.0000 C   0  0  0  0  0  0  0  0  0  0  0  0
    7.5026   -9.0844    0.0000 C   0  0  0  0  0  0  0  0  0  0  0  0
    5.3002   -0.4537    0.0000 C   0  0  0  0  0  0  0  0  0  0  0  0
    7.5803  -10.7437    0.0000 C   0  0  0  0  0  0  0  0  0  0  0  0
    8.0816   -9.9199    0.0000 C   0  0  0  0  0  0  0  0  0  0  0  0
    1.0027   -1.3490    0.0000 C   0  0  0  0  0  0  0  0  0  0  0  0
   -1.8562   -2.8650    0.0000 C   0  0  0  0  0  0  0  0  0  0  0  0
   10.9825   -0.6088    0.0000 C   0  0  0  0  0  0  0  0  0  0  0  0
    3.8379   -2.9724    0.0000 C   0  0  0  0  0  0  0  0  0  0  0  0
   11.6987   -1.9040    0.0000 C   0  0  0  0  0  0  0  0  0  0  0  0
   10.9109   -3.0978    0.0000 C   0  0  0  0  0  0  0  0  0  0  0  0
   -1.1220   -0.0418    0.0000 C   0  0  0  0  0  0  0  0  0  0  0  0
    1.6713   -4.1602    0.0000 C   0  0  0  0  0  0  0  0  0  0  0  0
   11.6092   -3.5514    0.0000 C   0  0  0  0  0  0  0  0  0  0  0  0
   12.3971   -2.3517    0.0000 C   0  0  0  0  0  0  0  0  0  0  0  0
   12.3434   -3.1754    0.0000 C   0  0  0  0  0  0  0  0  0  0  0  0
   10.4811   -2.6322    0.0000 H   0  0  0  0  0  0  0  0  0  0  0  0
    6.6133   -7.0968    0.0000 H   0  0  0  0  0  0  0  0  0  0  0  0
    8.1891   -4.6616    0.0000 H   0  0  0  0  0  0  0  0  0  0  0  0
    7.4489   -0.8953    0.0000 H   0  0  0  0  0  0  0  0  0  0  0  0
  2  1  1  0  0  0  0
  3  2  1  0  0  0  0
  4  1  1  0  0  0  0
  5 23  1  0  0  0  0
  6  1  1  0  0  0  0
  7  8  1  0  0  0  0
  8  6  2  0  0  0  0
  9  3  1  0  0  0  0
 10  2  1  0  0  0  0
 11 25  1  0  0  0  0
  5 12  1  6  0  0  0
 13 31  1  6  0  0  0
 14 33  1  1  0  0  0
 15  4  1  0  0  0  0
 16 14  1  0  0  0  0
 17 13  1  0  0  0  0
 18 14  1  0  0  0  0
 19 13  1  0  0  0  0
 20 18  1  0  0  0  0
 21 29  1  0  0  0  0
 22 46  1  0  0  0  0
 23 28  1  0  0  0  0
 24 45  1  0  0  0  0
 25 16  1  0  0  0  0
 26 12  1  0  0  0  0
 27 19  1  0  0  0  0
 28 15  1  0  0  0  0
 29 17  1  0  0  0  0
 30 36  2  0  0  0  0
 11 31  1  1  0  0  0
  5 32  1  1  0  0  0
 22 33  1  6  0  0  0
  7 34  1  1  0  0  0
 35 32  2  0  0  0  0
 36 52  1  0  0  0  0
 37 10  1  0  0  0  0
 38 34  1  0  0  0  0
 39 10  2  0  0  0  0
 40  4  2  0  0  0  0
 41 39  1  0  0  0  0
 42 35  1  0  0  0  0
 43 60  1  0  0  0  0
 44 28  1  0  0  0  0
 45 44  1  0  0  0  0
 46 47  1  0  0  0  0
 47 41  2  0  0  0  0
  2 48  1  6  0  0  0
 49 38  2  0  0  0  0
 50 43  2  0  0  0  0
 51 26  1  0  0  0  0
 52 45  1  0  0  0  0
 21 53  1  6  0  0  0
 20 54  1  6  0  0  0
 27 55  1  1  0  0  0
 56 43  1  0  0  0  0
 57  8  1  0  0  0  0
 58 38  1  0  0  0  0
 59 30  1  0  0  0  0
 60 61  1  0  0  0  0
 61 58  1  0  0  0  0
 25 62  1  6  0  0  0
 29 63  1  1  0  0  0
 42 64  1  6  0  0  0
 46 65  1  6  0  0  0
 66 51  1  0  0  0  0
 67 51  1  0  0  0  0
 68 55  1  0  0  0  0
 69 54  1  0  0  0  0
 70 67  1  0  0  0  0
 71 66  1  0  0  0  0
 72 71  1  0  0  0  0
 26 73  1  6  0  0  0
  3 74  1  6  0  0  0
  1 75  1  1  0  0  0
 45 76  1  6  0  0  0
  7  3  1  0  0  0  0
 37  9  1  0  0  0  0
 24  5  1  0  0  0  0
 30 22  1  0  0  0  0
 42 26  1  0  0  0  0
 72 70  1  0  0  0  0
 11 20  1  0  0  0  0
 21 27  1  0  0  0  0
M  END
>  <IDNUMBER>
F3395-2827

>  <Chemical_Name>
5-[(1'R,2S,5S,6R,8'R,10'E,12'S,13'S,14'E,16'E,20'R,21'R,24'S)-6-cyclohexyl-24'-hydroxy-12'-{[(2R,4S,5S,6S)-5-{[(2S,4S,5S,6S)-5-hydroxy-4-methoxy-6-methyloxan-2-yl]oxy}-4-methoxy-6-methyloxan-2-yl]oxy}-5,11',13',22'-tetramethyl-2'-oxo-5,6-dihydro-3',7',19'-trioxaspiro[pyran-2,6'-tetracyclo[15.6.1.1?,?.0??,??]pentacosane]-10',14',16',22'-tetraen-21'-yloxy]-5-oxopentanoic acid

>  <PriceCoeff>
7.00

>  <MW>
1 013.23

>  <Description>
solid

>  <FSP3>
0.76

>  <clogP>
6.07

>  <TPSA>
213.43

>  <Acceptor>
17

>  <Donor>
2

>  <RotBonds>
13

>  <HAC>
72

$$$$
F3395-2828
  Mrv2219 10102508112D          

 77 84  0  0  1  0            999 V2000
    7.3800   -5.0532    0.0000 C   0  0  2  0  0  0  0  0  0  0  0  0
    6.6222   -5.4767    0.0000 C   0  0  1  0  0  0  0  0  0  0  0  0
    6.6282   -6.3061    0.0000 C   0  0  1  0  0  0  0  0  0  0  0  0
    7.3979   -4.2657    0.0000 C   0  0  0  0  0  0  0  0  0  0  0  0
    8.8296   -1.8137    0.0000 C   0  0  2  0  0  0  0  0  0  0  0  0
    8.0719   -5.5006    0.0000 C   0  0  0  0  0  0  0  0  0  0  0  0
    7.3620   -6.7177    0.0000 C   0  0  1  0  0  0  0  0  0  0  0  0
    8.0719   -6.3061    0.0000 C   0  0  0  0  0  0  0  0  0  0  0  0
    5.8050   -6.5208    0.0000 O   0  0  0  0  0  0  0  0  0  0  0  0
    5.9302   -5.1427    0.0000 C   0  0  0  0  0  0  0  0  0  0  0  0
    1.7003   -2.5297    0.0000 C   0  0  2  0  0  0  0  0  0  0  0  0
    9.5396   -2.2432    0.0000 O   0  0  0  0  0  0  0  0  0  0  0  0
    0.2685   -2.5118    0.0000 C   0  0  2  0  0  0  0  0  0  0  0  0
    3.1203   -1.7242    0.0000 C   0  0  2  0  0  0  0  0  0  0  0  0
    8.1077   -3.8182    0.0000 O   0  0  0  0  0  0  0  0  0  0  0  0
    2.4341   -1.3126    0.0000 O   0  0  0  0  0  0  0  0  0  0  0  0
   -0.4235   -2.9353    0.0000 O   0  0  0  0  0  0  0  0  0  0  0  0
    3.1142   -2.5476    0.0000 C   0  0  0  0  0  0  0  0  0  0  0  0
    0.2863   -1.6824    0.0000 C   0  0  0  0  0  0  0  0  0  0  0  0
    2.4043   -2.9592    0.0000 C   0  0  2  0  0  0  0  0  0  0  0  0
   -1.1216   -1.7063    0.0000 C   0  0  2  0  0  0  0  0  0  0  0  0
    4.5700   -1.7242    0.0000 C   0  0  1  0  0  0  0  0  0  0  0  0
    8.8296   -2.6310    0.0000 C   0  0  0  0  0  0  0  0  0  0  0  0
    8.1256   -1.3663    0.0000 O   0  0  0  0  0  0  0  0  0  0  0  0
    1.7063   -1.7361    0.0000 C   0  0  1  0  0  0  0  0  0  0  0  0
   10.2794   -1.8316    0.0000 C   0  0  1  0  0  0  0  0  0  0  0  0
   -0.4116   -1.2768    0.0000 C   0  0  1  0  0  0  0  0  0  0  0  0
    8.0959   -3.0308    0.0000 C   0  0  0  0  0  0  0  0  0  0  0  0
   -1.1216   -2.4939    0.0000 C   0  0  2  0  0  0  0  0  0  0  0  0
    5.2977   -1.3245    0.0000 C   0  0  0  0  0  0  0  0  0  0  0  0
    8.0182   -8.1853    0.0000 C   0  0  0  0  0  0  0  0  0  0  0  0
    8.0780   -9.9154    0.0000 C   0  0  0  0  0  0  0  0  0  0  0  0
    7.5768  -10.7388    0.0000 C   0  0  0  0  0  0  0  0  0  0  0  0
    0.9904   -2.9413    0.0000 O   0  0  0  0  0  0  0  0  0  0  0  0
    8.8475   -0.9725    0.0000 C   0  0  0  0  0  0  0  0  0  0  0  0
    7.3620   -7.5411    0.0000 O   0  0  0  0  0  0  0  0  0  0  0  0
    3.8659   -1.3424    0.0000 O   0  0  0  0  0  0  0  0  0  0  0  0
    9.5635   -0.5966    0.0000 C   0  0  0  0  0  0  0  0  0  0  0  0
    5.9839   -1.7421    0.0000 C   0  0  0  0  0  0  0  0  0  0  0  0
    5.3872   -5.7871    0.0000 C   0  0  0  0  0  0  0  0  0  0  0  0
    7.4992   -9.0803    0.0000 C   0  0  0  0  0  0  0  0  0  0  0  0
    5.9481   -4.2299    0.0000 C   0  0  0  0  0  0  0  0  0  0  0  0
    6.6580   -3.8122    0.0000 O   0  0  0  0  0  0  0  0  0  0  0  0
    5.2501   -3.8003    0.0000 C   0  0  0  0  0  0  0  0  0  0  0  0
   10.2794   -0.9904    0.0000 C   0  0  2  0  0  0  0  0  0  0  0  0
    7.4158   -2.6012    0.0000 C   0  0  0  0  0  0  0  0  0  0  0  0
    7.4158   -1.7600    0.0000 C   0  0  1  0  0  0  0  0  0  0  0  0
    4.5521   -2.5655    0.0000 C   0  0  2  0  0  0  0  0  0  0  0  0
    6.5566  -10.7388    0.0000 O   0  0  0  0  0  0  0  0  0  0  0  0
    8.9370   -7.9348    0.0000 O   0  0  0  0  0  0  0  0  0  0  0  0
    5.2680   -2.9950    0.0000 C   0  0  0  0  0  0  0  0  0  0  0  0
    6.6461   -4.7132    0.0000 O   0  0  0  0  0  0  0  0  0  0  0  0
   10.9535   -2.2790    0.0000 C   0  0  0  0  0  0  0  0  0  0  0  0
    6.6938   -1.3484    0.0000 C   0  0  0  0  0  0  0  0  0  0  0  0
   -1.8375   -1.2947    0.0000 O   0  0  0  0  0  0  0  0  0  0  0  0
    7.9706  -11.4606    0.0000 O   0  0  0  0  0  0  0  0  0  0  0  0
    2.4043   -3.7585    0.0000 O   0  0  0  0  0  0  0  0  0  0  0  0
   -0.3937   -0.4713    0.0000 O   0  0  0  0  0  0  0  0  0  0  0  0
    8.7878   -6.7177    0.0000 C   0  0  0  0  0  0  0  0  0  0  0  0
    9.0982   -9.9154    0.0000 C   0  0  0  0  0  0  0  0  0  0  0  0
    8.5909   -9.0266    0.0000 C   0  0  0  0  0  0  0  0  0  0  0  0
    5.2977   -0.4534    0.0000 C   0  0  0  0  0  0  0  0  0  0  0  0
    1.0023   -1.3484    0.0000 C   0  0  0  0  0  0  0  0  0  0  0  0
   -1.8554   -2.8637    0.0000 C   0  0  0  0  0  0  0  0  0  0  0  0
   10.9774   -0.6085    0.0000 C   0  0  0  0  0  0  0  0  0  0  0  0
    3.8361   -2.9711    0.0000 C   0  0  0  0  0  0  0  0  0  0  0  0
   10.9058   -3.0963    0.0000 C   0  0  0  0  0  0  0  0  0  0  0  0
   11.6933   -1.9032    0.0000 C   0  0  0  0  0  0  0  0  0  0  0  0
    1.6705   -4.1584    0.0000 C   0  0  0  0  0  0  0  0  0  0  0  0
   -1.1216   -0.0418    0.0000 C   0  0  0  0  0  0  0  0  0  0  0  0
   12.3914   -2.3506    0.0000 C   0  0  0  0  0  0  0  0  0  0  0  0
   11.6038   -3.5498    0.0000 C   0  0  0  0  0  0  0  0  0  0  0  0
   12.3377   -3.1739    0.0000 C   0  0  0  0  0  0  0  0  0  0  0  0
    6.6103   -7.0935    0.0000 H   0  0  0  0  0  0  0  0  0  0  0  0
    8.1853   -4.6595    0.0000 H   0  0  0  0  0  0  0  0  0  0  0  0
    7.4456   -0.8949    0.0000 H   0  0  0  0  0  0  0  0  0  0  0  0
   10.4762   -2.6310    0.0000 H   0  0  0  0  0  0  0  0  0  0  0  0
  2  1  1  0  0  0  0
  3  2  1  0  0  0  0
  4  1  1  0  0  0  0
  5 23  1  0  0  0  0
  6  1  1  0  0  0  0
  7  3  1  0  0  0  0
  8  6  2  0  0  0  0
  9  3  1  0  0  0  0
 10  2  1  0  0  0  0
 11 25  1  0  0  0  0
  5 12  1  6  0  0  0
 13 34  1  6  0  0  0
 14 37  1  1  0  0  0
 15  4  1  0  0  0  0
 16 14  1  0  0  0  0
 17 13  1  0  0  0  0
 18 14  1  0  0  0  0
 19 13  1  0  0  0  0
 20 18  1  0  0  0  0
 21 29  1  0  0  0  0
 22 48  1  0  0  0  0
 23 28  1  0  0  0  0
 24 47  1  0  0  0  0
 25 16  1  0  0  0  0
 26 12  1  0  0  0  0
 27 19  1  0  0  0  0
 28 15  1  0  0  0  0
 29 17  1  0  0  0  0
 30 22  1  0  0  0  0
 31 36  1  0  0  0  0
 32 41  1  0  0  0  0
 33 32  1  0  0  0  0
 11 34  1  1  0  0  0
  5 35  1  1  0  0  0
  7 36  1  1  0  0  0
 22 37  1  6  0  0  0
 38 35  2  0  0  0  0
 39 54  1  0  0  0  0
 40 10  1  0  0  0  0
 41 31  1  0  0  0  0
 42 10  2  0  0  0  0
 43  4  2  0  0  0  0
 44 42  1  0  0  0  0
 45 38  1  0  0  0  0
 46 28  1  0  0  0  0
 47 46  1  0  0  0  0
 48 51  1  0  0  0  0
 49 33  2  0  0  0  0
 50 31  2  0  0  0  0
 51 44  2  0  0  0  0
  2 52  1  6  0  0  0
 53 26  1  0  0  0  0
 54 47  1  0  0  0  0
 21 55  1  6  0  0  0
 56 33  1  0  0  0  0
 20 57  1  6  0  0  0
 27 58  1  1  0  0  0
 59  8  1  0  0  0  0
 60 32  1  0  0  0  0
 61 32  1  0  0  0  0
 62 30  1  0  0  0  0
 25 63  1  6  0  0  0
 29 64  1  1  0  0  0
 45 65  1  6  0  0  0
 48 66  1  6  0  0  0
 67 53  1  0  0  0  0
 68 53  1  0  0  0  0
 69 57  1  0  0  0  0
 70 58  1  0  0  0  0
 71 68  1  0  0  0  0
 72 67  1  0  0  0  0
 73 71  1  0  0  0  0
  3 74  1  6  0  0  0
  1 75  1  1  0  0  0
 47 76  1  6  0  0  0
 26 77  1  6  0  0  0
  8  7  1  0  0  0  0
 40  9  1  0  0  0  0
 24  5  1  0  0  0  0
 39 30  2  0  0  0  0
 45 26  1  0  0  0  0
 11 20  1  0  0  0  0
 73 72  1  0  0  0  0
 21 27  1  0  0  0  0
M  END
>  <IDNUMBER>
F3395-2828

>  <Chemical_Name>
4-[(1'R,2S,5S,6R,8'R,10'E,12'S,13'S,14'E,16'E,20'R,21'R,24'S)-6-cyclohexyl-24'-hydroxy-12'-{[(2R,4S,5S,6S)-5-{[(2S,4S,5S,6S)-5-hydroxy-4-methoxy-6-methyloxan-2-yl]oxy}-4-methoxy-6-methyloxan-2-yl]oxy}-5,11',13',22'-tetramethyl-2'-oxo-5,6-dihydro-3',7',19'-trioxaspiro[pyran-2,6'-tetracyclo[15.6.1.1?,?.0??,??]pentacosane]-10',14',16',22'-tetraen-21'-yloxy]-2,2-dimethyl-4-oxobutanoic acid

>  <PriceCoeff>
7.00

>  <MW>
1 027.26

>  <Description>
solid

>  <FSP3>
0.77

>  <clogP>
6.40

>  <TPSA>
213.43

>  <Acceptor>
17

>  <Donor>
2

>  <RotBonds>
12

>  <HAC>
73

>  <PPDS>
+

$$$$
F3395-2829
  Mrv2219 10102508112D          

 79 87  0  0  1  0            999 V2000
    7.3576   -5.0379    0.0000 C   0  0  2  0  0  0  0  0  0  0  0  0
    6.6022   -5.4602    0.0000 C   0  0  1  0  0  0  0  0  0  0  0  0
    6.6082   -6.2870    0.0000 C   0  0  1  0  0  0  0  0  0  0  0  0
    7.3755   -4.2528    0.0000 C   0  0  0  0  0  0  0  0  0  0  0  0
    8.8030   -1.8082    0.0000 C   0  0  2  0  0  0  0  0  0  0  0  0
    8.0475   -5.4840    0.0000 C   0  0  0  0  0  0  0  0  0  0  0  0
    7.3398   -6.6974    0.0000 C   0  0  1  0  0  0  0  0  0  0  0  0
    8.0475   -6.2870    0.0000 C   0  0  0  0  0  0  0  0  0  0  0  0
    7.9940   -8.1606    0.0000 C   0  0  0  0  0  0  0  0  0  0  0  0
    5.7874   -6.5011    0.0000 O   0  0  0  0  0  0  0  0  0  0  0  0
    5.9123   -5.1271    0.0000 C   0  0  0  0  0  0  0  0  0  0  0  0
    7.3398   -7.5182    0.0000 O   0  0  0  0  0  0  0  0  0  0  0  0
    1.6952   -2.5220    0.0000 C   0  0  2  0  0  0  0  0  0  0  0  0
    9.5107   -2.2365    0.0000 O   0  0  0  0  0  0  0  0  0  0  0  0
    0.2677   -2.5041    0.0000 C   0  0  2  0  0  0  0  0  0  0  0  0
    3.1108   -1.7190    0.0000 C   0  0  2  0  0  0  0  0  0  0  0  0
    8.0832   -3.8067    0.0000 O   0  0  0  0  0  0  0  0  0  0  0  0
    2.4267   -1.3086    0.0000 O   0  0  0  0  0  0  0  0  0  0  0  0
   -0.4223   -2.9264    0.0000 O   0  0  0  0  0  0  0  0  0  0  0  0
    3.1048   -2.5398    0.0000 C   0  0  0  0  0  0  0  0  0  0  0  0
    0.2855   -1.6773    0.0000 C   0  0  0  0  0  0  0  0  0  0  0  0
    7.4765   -9.0528    0.0000 C   0  0  0  0  0  0  0  0  0  0  0  0
    2.3971   -2.9502    0.0000 C   0  0  2  0  0  0  0  0  0  0  0  0
   -1.1182   -1.7012    0.0000 C   0  0  2  0  0  0  0  0  0  0  0  0
    4.5561   -1.7190    0.0000 C   0  0  1  0  0  0  0  0  0  0  0  0
    8.8030   -2.6230    0.0000 C   0  0  0  0  0  0  0  0  0  0  0  0
    8.1011   -1.3621    0.0000 O   0  0  0  0  0  0  0  0  0  0  0  0
    1.7012   -1.7308    0.0000 C   0  0  1  0  0  0  0  0  0  0  0  0
   10.2483   -1.8261    0.0000 C   0  0  1  0  0  0  0  0  0  0  0  0
   -0.4104   -1.2729    0.0000 C   0  0  1  0  0  0  0  0  0  0  0  0
    7.9880   -9.9450    0.0000 C   0  0  0  0  0  0  0  0  0  0  0  0
    8.0714   -3.0216    0.0000 C   0  0  0  0  0  0  0  0  0  0  0  0
   -1.1182   -2.4863    0.0000 C   0  0  2  0  0  0  0  0  0  0  0  0
    5.2817   -1.3204    0.0000 C   0  0  0  0  0  0  0  0  0  0  0  0
    9.0171   -9.9508    0.0000 C   0  0  0  0  0  0  0  0  0  0  0  0
    0.9874   -2.9324    0.0000 O   0  0  0  0  0  0  0  0  0  0  0  0
    8.8208   -0.9696    0.0000 C   0  0  0  0  0  0  0  0  0  0  0  0
    3.8542   -1.3383    0.0000 O   0  0  0  0  0  0  0  0  0  0  0  0
    9.5346   -0.5948    0.0000 C   0  0  0  0  0  0  0  0  0  0  0  0
    5.9658   -1.7368    0.0000 C   0  0  0  0  0  0  0  0  0  0  0  0
    5.3710   -5.7695    0.0000 C   0  0  0  0  0  0  0  0  0  0  0  0
    5.9301   -4.2171    0.0000 C   0  0  0  0  0  0  0  0  0  0  0  0
    6.6379   -3.8007    0.0000 O   0  0  0  0  0  0  0  0  0  0  0  0
    5.2342   -3.7889    0.0000 C   0  0  0  0  0  0  0  0  0  0  0  0
    8.9100   -7.9108    0.0000 O   0  0  0  0  0  0  0  0  0  0  0  0
   10.2483   -0.9874    0.0000 C   0  0  2  0  0  0  0  0  0  0  0  0
    7.3933   -2.5933    0.0000 C   0  0  0  0  0  0  0  0  0  0  0  0
    7.3933   -1.7547    0.0000 C   0  0  1  0  0  0  0  0  0  0  0  0
    4.5383   -2.5576    0.0000 C   0  0  2  0  0  0  0  0  0  0  0  0
    9.5346   -9.0586    0.0000 O   0  0  0  0  0  0  0  0  0  0  0  0
    5.2521   -2.9859    0.0000 C   0  0  0  0  0  0  0  0  0  0  0  0
    6.6260   -4.6989    0.0000 O   0  0  0  0  0  0  0  0  0  0  0  0
   10.9204   -2.2722    0.0000 C   0  0  0  0  0  0  0  0  0  0  0  0
    6.6736   -1.3443    0.0000 C   0  0  0  0  0  0  0  0  0  0  0  0
   -1.8319   -1.2907    0.0000 O   0  0  0  0  0  0  0  0  0  0  0  0
    9.5286  -10.8430    0.0000 O   0  0  0  0  0  0  0  0  0  0  0  0
    2.3971   -3.7472    0.0000 O   0  0  0  0  0  0  0  0  0  0  0  0
   -0.3926   -0.4699    0.0000 O   0  0  0  0  0  0  0  0  0  0  0  0
    8.7613   -6.6974    0.0000 C   0  0  0  0  0  0  0  0  0  0  0  0
    6.4416   -9.0528    0.0000 C   0  0  0  0  0  0  0  0  0  0  0  0
    7.4647  -10.8371    0.0000 C   0  0  0  0  0  0  0  0  0  0  0  0
    5.2817   -0.4521    0.0000 C   0  0  0  0  0  0  0  0  0  0  0  0
    0.9992   -1.3443    0.0000 C   0  0  0  0  0  0  0  0  0  0  0  0
   -1.8498   -2.8550    0.0000 C   0  0  0  0  0  0  0  0  0  0  0  0
   10.9442   -0.6067    0.0000 C   0  0  0  0  0  0  0  0  0  0  0  0
    3.8246   -2.9621    0.0000 C   0  0  0  0  0  0  0  0  0  0  0  0
   10.8728   -3.0870    0.0000 C   0  0  0  0  0  0  0  0  0  0  0  0
   11.6580   -1.8974    0.0000 C   0  0  0  0  0  0  0  0  0  0  0  0
    1.6655   -4.1457    0.0000 C   0  0  0  0  0  0  0  0  0  0  0  0
   -1.1182   -0.0417    0.0000 C   0  0  0  0  0  0  0  0  0  0  0  0
    6.4356  -10.8371    0.0000 C   0  0  0  0  0  0  0  0  0  0  0  0
    5.9241   -9.9390    0.0000 C   0  0  0  0  0  0  0  0  0  0  0  0
   12.3539   -2.3435    0.0000 C   0  0  0  0  0  0  0  0  0  0  0  0
   11.5687   -3.5391    0.0000 C   0  0  0  0  0  0  0  0  0  0  0  0
   12.3003   -3.1643    0.0000 C   0  0  0  0  0  0  0  0  0  0  0  0
    7.4230   -0.8922    0.0000 H   0  0  0  0  0  0  0  0  0  0  0  0
   10.4446   -2.6230    0.0000 H   0  0  0  0  0  0  0  0  0  0  0  0
    6.5903   -7.0721    0.0000 H   0  0  0  0  0  0  0  0  0  0  0  0
    8.1606   -4.6454    0.0000 H   0  0  0  0  0  0  0  0  0  0  0  0
  2  1  1  0  0  0  0
  3  2  1  0  0  0  0
  4  1  1  0  0  0  0
  5 26  1  0  0  0  0
  6  1  1  0  0  0  0
  7  8  1  0  0  0  0
  8  6  2  0  0  0  0
  9 12  1  0  0  0  0
 10  3  1  0  0  0  0
 11  2  1  0  0  0  0
  7 12  1  1  0  0  0
 13 28  1  0  0  0  0
  5 14  1  6  0  0  0
 15 36  1  6  0  0  0
 16 38  1  1  0  0  0
 17  4  1  0  0  0  0
 18 16  1  0  0  0  0
 19 15  1  0  0  0  0
 20 16  1  0  0  0  0
 21 15  1  0  0  0  0
 22  9  1  0  0  0  0
 23 20  1  0  0  0  0
 24 33  1  0  0  0  0
 25 49  1  0  0  0  0
 26 32  1  0  0  0  0
 27 48  1  0  0  0  0
 28 18  1  0  0  0  0
 29 14  1  0  0  0  0
 30 21  1  0  0  0  0
 31 22  1  0  0  0  0
 32 17  1  0  0  0  0
 33 19  1  0  0  0  0
 34 40  2  0  0  0  0
 35 31  1  0  0  0  0
 13 36  1  1  0  0  0
  5 37  1  1  0  0  0
 25 38  1  6  0  0  0
 39 37  2  0  0  0  0
 40 54  1  0  0  0  0
 41 11  1  0  0  0  0
 42 11  2  0  0  0  0
 43  4  2  0  0  0  0
 44 42  1  0  0  0  0
 45  9  2  0  0  0  0
 46 39  1  0  0  0  0
 47 32  1  0  0  0  0
 48 47  1  0  0  0  0
 49 51  1  0  0  0  0
 50 35  2  0  0  0  0
 51 44  2  0  0  0  0
  2 52  1  6  0  0  0
 53 29  1  0  0  0  0
 54 48  1  0  0  0  0
 24 55  1  6  0  0  0
 56 35  1  0  0  0  0
 23 57  1  6  0  0  0
 30 58  1  1  0  0  0
 59  8  1  0  0  0  0
 60 22  1  0  0  0  0
 61 31  1  0  0  0  0
 62 34  1  0  0  0  0
 28 63  1  6  0  0  0
 33 64  1  1  0  0  0
 46 65  1  6  0  0  0
 49 66  1  6  0  0  0
 67 53  1  0  0  0  0
 68 53  1  0  0  0  0
 69 57  1  0  0  0  0
 70 58  1  0  0  0  0
 71 61  1  0  0  0  0
 72 60  1  0  0  0  0
 73 68  1  0  0  0  0
 74 67  1  0  0  0  0
 75 73  1  0  0  0  0
 48 76  1  6  0  0  0
 29 77  1  6  0  0  0
  3 78  1  6  0  0  0
  1 79  1  1  0  0  0
  7  3  1  0  0  0  0
 41 10  1  0  0  0  0
 27  5  1  0  0  0  0
 71 72  1  0  0  0  0
 34 25  1  0  0  0  0
 46 29  1  0  0  0  0
 75 74  1  0  0  0  0
 13 23  1  0  0  0  0
 24 30  1  0  0  0  0
M  END
>  <IDNUMBER>
F3395-2829

>  <Chemical_Name>
2-{[(1'R,2S,5S,6R,8'R,10'E,12'S,13'S,14'E,16'E,20'R,21'R,24'S)-6-cyclohexyl-24'-hydroxy-12'-{[(2R,4S,5S,6S)-5-{[(2S,4S,5S,6S)-5-hydroxy-4-methoxy-6-methyloxan-2-yl]oxy}-4-methoxy-6-methyloxan-2-yl]oxy}-5,11',13',22'-tetramethyl-2'-oxo-5,6-dihydro-3',7',19'-trioxaspiro[pyran-2,6'-tetracyclo[15.6.1.1?,?.0??,??]pentacosane]-10',14',16',22'-tetraen-21'-yloxy]carbonyl}cyclohexane-1-carboxylic acid

>  <PriceCoeff>
7.00

>  <MW>
1 053.29

>  <Description>
solid

>  <FSP3>
0.78

>  <clogP>
7.09

>  <TPSA>
213.43

>  <Acceptor>
17

>  <Donor>
2

>  <RotBonds>
11

>  <HAC>
75

$$$$
F3395-2830
  Mrv2219 10102508112D          

 79 87  0  0  1  0            999 V2000
    7.3576   -5.0379    0.0000 C   0  0  2  0  0  0  0  0  0  0  0  0
    6.6022   -5.4602    0.0000 C   0  0  1  0  0  0  0  0  0  0  0  0
    6.6082   -6.2870    0.0000 C   0  0  1  0  0  0  0  0  0  0  0  0
    7.3755   -4.2528    0.0000 C   0  0  0  0  0  0  0  0  0  0  0  0
    8.8030   -1.8082    0.0000 C   0  0  2  0  0  0  0  0  0  0  0  0
    8.0475   -5.4840    0.0000 C   0  0  0  0  0  0  0  0  0  0  0  0
    7.3398   -6.6974    0.0000 C   0  0  1  0  0  0  0  0  0  0  0  0
    8.0475   -6.2870    0.0000 C   0  0  0  0  0  0  0  0  0  0  0  0
    7.9940   -8.1606    0.0000 C   0  0  0  0  0  0  0  0  0  0  0  0
    5.7874   -6.5011    0.0000 O   0  0  0  0  0  0  0  0  0  0  0  0
    5.9123   -5.1271    0.0000 C   0  0  0  0  0  0  0  0  0  0  0  0
    7.3398   -7.5182    0.0000 O   0  0  0  0  0  0  0  0  0  0  0  0
    1.6952   -2.5220    0.0000 C   0  0  2  0  0  0  0  0  0  0  0  0
    9.5107   -2.2365    0.0000 O   0  0  0  0  0  0  0  0  0  0  0  0
    0.2677   -2.5041    0.0000 C   0  0  2  0  0  0  0  0  0  0  0  0
    3.1108   -1.7190    0.0000 C   0  0  2  0  0  0  0  0  0  0  0  0
    8.0832   -3.8067    0.0000 O   0  0  0  0  0  0  0  0  0  0  0  0
    2.4267   -1.3086    0.0000 O   0  0  0  0  0  0  0  0  0  0  0  0
   -0.4223   -2.9264    0.0000 O   0  0  0  0  0  0  0  0  0  0  0  0
    3.1048   -2.5398    0.0000 C   0  0  0  0  0  0  0  0  0  0  0  0
    0.2855   -1.6773    0.0000 C   0  0  0  0  0  0  0  0  0  0  0  0
    7.4765   -9.0528    0.0000 C   0  0  0  0  0  0  0  0  0  0  0  0
    2.3971   -2.9502    0.0000 C   0  0  2  0  0  0  0  0  0  0  0  0
   -1.1182   -1.7012    0.0000 C   0  0  2  0  0  0  0  0  0  0  0  0
    4.5561   -1.7190    0.0000 C   0  0  1  0  0  0  0  0  0  0  0  0
    8.8030   -2.6230    0.0000 C   0  0  0  0  0  0  0  0  0  0  0  0
    8.1011   -1.3621    0.0000 O   0  0  0  0  0  0  0  0  0  0  0  0
    1.7012   -1.7308    0.0000 C   0  0  1  0  0  0  0  0  0  0  0  0
   10.2483   -1.8261    0.0000 C   0  0  1  0  0  0  0  0  0  0  0  0
    7.9880   -9.9450    0.0000 C   0  0  0  0  0  0  0  0  0  0  0  0
   -0.4104   -1.2729    0.0000 C   0  0  1  0  0  0  0  0  0  0  0  0
    8.0714   -3.0216    0.0000 C   0  0  0  0  0  0  0  0  0  0  0  0
   -1.1182   -2.4863    0.0000 C   0  0  2  0  0  0  0  0  0  0  0  0
    5.2817   -1.3204    0.0000 C   0  0  0  0  0  0  0  0  0  0  0  0
    9.0171   -9.9508    0.0000 C   0  0  0  0  0  0  0  0  0  0  0  0
    0.9874   -2.9324    0.0000 O   0  0  0  0  0  0  0  0  0  0  0  0
    8.8208   -0.9696    0.0000 C   0  0  0  0  0  0  0  0  0  0  0  0
    3.8542   -1.3383    0.0000 O   0  0  0  0  0  0  0  0  0  0  0  0
    9.5346   -0.5948    0.0000 C   0  0  0  0  0  0  0  0  0  0  0  0
    5.9658   -1.7368    0.0000 C   0  0  0  0  0  0  0  0  0  0  0  0
    5.3710   -5.7695    0.0000 C   0  0  0  0  0  0  0  0  0  0  0  0
    5.9301   -4.2171    0.0000 C   0  0  0  0  0  0  0  0  0  0  0  0
    6.6379   -3.8007    0.0000 O   0  0  0  0  0  0  0  0  0  0  0  0
    5.2342   -3.7889    0.0000 C   0  0  0  0  0  0  0  0  0  0  0  0
    8.9100   -7.9108    0.0000 O   0  0  0  0  0  0  0  0  0  0  0  0
   10.2483   -0.9874    0.0000 C   0  0  2  0  0  0  0  0  0  0  0  0
    7.3933   -2.5933    0.0000 C   0  0  0  0  0  0  0  0  0  0  0  0
    7.3933   -1.7547    0.0000 C   0  0  1  0  0  0  0  0  0  0  0  0
    4.5383   -2.5576    0.0000 C   0  0  2  0  0  0  0  0  0  0  0  0
    9.5346   -9.0586    0.0000 O   0  0  0  0  0  0  0  0  0  0  0  0
    5.2521   -2.9859    0.0000 C   0  0  0  0  0  0  0  0  0  0  0  0
    6.6260   -4.6989    0.0000 O   0  0  0  0  0  0  0  0  0  0  0  0
   10.9204   -2.2722    0.0000 C   0  0  0  0  0  0  0  0  0  0  0  0
    6.4356  -10.8371    0.0000 C   0  0  0  0  0  0  0  0  0  0  0  0
    5.9241   -9.9390    0.0000 C   0  0  0  0  0  0  0  0  0  0  0  0
    6.6736   -1.3443    0.0000 C   0  0  0  0  0  0  0  0  0  0  0  0
   -1.8319   -1.2907    0.0000 O   0  0  0  0  0  0  0  0  0  0  0  0
    9.5286  -10.8430    0.0000 O   0  0  0  0  0  0  0  0  0  0  0  0
    2.3971   -3.7472    0.0000 O   0  0  0  0  0  0  0  0  0  0  0  0
   -0.3926   -0.4699    0.0000 O   0  0  0  0  0  0  0  0  0  0  0  0
    6.4416   -9.0528    0.0000 C   0  0  0  0  0  0  0  0  0  0  0  0
    7.4647  -10.8371    0.0000 C   0  0  0  0  0  0  0  0  0  0  0  0
    8.7613   -6.6974    0.0000 C   0  0  0  0  0  0  0  0  0  0  0  0
    5.2817   -0.4521    0.0000 C   0  0  0  0  0  0  0  0  0  0  0  0
    0.9992   -1.3443    0.0000 C   0  0  0  0  0  0  0  0  0  0  0  0
   -1.8498   -2.8550    0.0000 C   0  0  0  0  0  0  0  0  0  0  0  0
   10.9442   -0.6067    0.0000 C   0  0  0  0  0  0  0  0  0  0  0  0
    3.8246   -2.9621    0.0000 C   0  0  0  0  0  0  0  0  0  0  0  0
   10.8728   -3.0870    0.0000 C   0  0  0  0  0  0  0  0  0  0  0  0
   11.6580   -1.8974    0.0000 C   0  0  0  0  0  0  0  0  0  0  0  0
    1.6655   -4.1457    0.0000 C   0  0  0  0  0  0  0  0  0  0  0  0
   -1.1182   -0.0417    0.0000 C   0  0  0  0  0  0  0  0  0  0  0  0
   12.3539   -2.3435    0.0000 C   0  0  0  0  0  0  0  0  0  0  0  0
   11.5687   -3.5391    0.0000 C   0  0  0  0  0  0  0  0  0  0  0  0
   12.3003   -3.1643    0.0000 C   0  0  0  0  0  0  0  0  0  0  0  0
    7.4230   -0.8922    0.0000 H   0  0  0  0  0  0  0  0  0  0  0  0
   10.4446   -2.6230    0.0000 H   0  0  0  0  0  0  0  0  0  0  0  0
    6.5903   -7.0721    0.0000 H   0  0  0  0  0  0  0  0  0  0  0  0
    8.1606   -4.6454    0.0000 H   0  0  0  0  0  0  0  0  0  0  0  0
  2  1  1  0  0  0  0
  3  2  1  0  0  0  0
  4  1  1  0  0  0  0
  5 26  1  0  0  0  0
  6  1  1  0  0  0  0
  7  8  1  0  0  0  0
  8  6  2  0  0  0  0
  9 12  1  0  0  0  0
 10  3  1  0  0  0  0
 11  2  1  0  0  0  0
  7 12  1  1  0  0  0
 13 28  1  0  0  0  0
  5 14  1  6  0  0  0
 15 36  1  6  0  0  0
 16 38  1  1  0  0  0
 17  4  1  0  0  0  0
 18 16  1  0  0  0  0
 19 15  1  0  0  0  0
 20 16  1  0  0  0  0
 21 15  1  0  0  0  0
 22  9  1  0  0  0  0
 23 20  1  0  0  0  0
 24 33  1  0  0  0  0
 25 49  1  0  0  0  0
 26 32  1  0  0  0  0
 27 48  1  0  0  0  0
 28 18  1  0  0  0  0
 29 14  1  0  0  0  0
 30 22  1  0  0  0  0
 31 21  1  0  0  0  0
 32 17  1  0  0  0  0
 33 19  1  0  0  0  0
 34 40  2  0  0  0  0
 35 30  1  0  0  0  0
 13 36  1  1  0  0  0
  5 37  1  1  0  0  0
 25 38  1  6  0  0  0
 39 37  2  0  0  0  0
 40 56  1  0  0  0  0
 41 11  1  0  0  0  0
 42 11  2  0  0  0  0
 43  4  2  0  0  0  0
 44 42  1  0  0  0  0
 45  9  2  0  0  0  0
 46 39  1  0  0  0  0
 47 32  1  0  0  0  0
 48 47  1  0  0  0  0
 49 51  1  0  0  0  0
 50 35  2  0  0  0  0
 51 44  2  0  0  0  0
  2 52  1  6  0  0  0
 53 29  1  0  0  0  0
 54 62  1  0  0  0  0
 55 61  1  0  0  0  0
 56 48  1  0  0  0  0
 24 57  1  6  0  0  0
 58 35  1  0  0  0  0
 23 59  1  6  0  0  0
 31 60  1  1  0  0  0
 61 22  1  0  0  0  0
 62 30  1  0  0  0  0
 63  8  1  0  0  0  0
 64 34  1  0  0  0  0
 28 65  1  6  0  0  0
 33 66  1  1  0  0  0
 46 67  1  6  0  0  0
 49 68  1  6  0  0  0
 69 53  1  0  0  0  0
 70 53  1  0  0  0  0
 71 59  1  0  0  0  0
 72 60  1  0  0  0  0
 73 70  1  0  0  0  0
 74 69  1  0  0  0  0
 75 73  1  0  0  0  0
 48 76  1  6  0  0  0
 29 77  1  6  0  0  0
  3 78  1  6  0  0  0
  1 79  1  1  0  0  0
  7  3  1  0  0  0  0
 41 10  1  0  0  0  0
 27  5  1  0  0  0  0
 54 55  2  0  0  0  0
 34 25  1  0  0  0  0
 46 29  1  0  0  0  0
 75 74  1  0  0  0  0
 13 23  1  0  0  0  0
 24 31  1  0  0  0  0
M  END
>  <IDNUMBER>
F3395-2830

>  <Chemical_Name>
6-{[(1'R,2S,5S,6R,8'R,10'E,12'S,13'S,14'E,16'E,20'R,21'R,24'S)-6-cyclohexyl-24'-hydroxy-12'-{[(2R,4S,5S,6S)-5-{[(2S,4S,5S,6S)-5-hydroxy-4-methoxy-6-methyloxan-2-yl]oxy}-4-methoxy-6-methyloxan-2-yl]oxy}-5,11',13',22'-tetramethyl-2'-oxo-5,6-dihydro-3',7',19'-trioxaspiro[pyran-2,6'-tetracyclo[15.6.1.1?,?.0??,??]pentacosane]-10',14',16',22'-tetraen-21'-yloxy]carbonyl}cyclohex-3-ene-1-carboxylic acid

>  <PriceCoeff>
7.00

>  <MW>
1 051.28

>  <Description>
solid

>  <FSP3>
0.74

>  <clogP>
6.61

>  <TPSA>
213.43

>  <Acceptor>
17

>  <Donor>
2

>  <RotBonds>
11

>  <HAC>
75

$$$$
F3395-2831
  Mrv2219 10102508112D          

 76 84  0  0  1  0            999 V2000
    8.6725   -4.1183    0.0000 C   0  0  2  0  0  0  0  0  0  0  0  0
    7.9144   -4.5362    0.0000 C   0  0  1  0  0  0  0  0  0  0  0  0
    7.9205   -5.3598    0.0000 C   0  0  1  0  0  0  0  0  0  0  0  0
    8.7918   -8.1472    0.0000 C   0  0  0  0  0  0  0  0  0  0  0  0
    8.7858   -9.1797    0.0000 C   0  0  0  0  0  0  0  0  0  0  0  0
    8.6904   -3.3305    0.0000 C   0  0  0  0  0  0  0  0  0  0  0  0
   10.1228   -0.8655    0.0000 C   0  0  2  0  0  0  0  0  0  0  0  0
    9.3648   -4.5541    0.0000 C   0  0  0  0  0  0  0  0  0  0  0  0
    8.6545   -5.7836    0.0000 C   0  0  1  0  0  0  0  0  0  0  0  0
    7.8905   -8.6604    0.0000 C   0  0  0  0  0  0  0  0  0  0  0  0
    9.3111   -7.2519    0.0000 C   0  0  0  0  0  0  0  0  0  0  0  0
    9.3648   -5.3717    0.0000 C   0  0  0  0  0  0  0  0  0  0  0  0
    7.0967   -5.5866    0.0000 O   0  0  0  0  0  0  0  0  0  0  0  0
    7.2221   -4.1960    0.0000 C   0  0  0  0  0  0  0  0  0  0  0  0
    8.6545   -6.5954    0.0000 O   0  0  0  0  0  0  0  0  0  0  0  0
    2.9903   -1.5817    0.0000 C   0  0  2  0  0  0  0  0  0  0  0  0
   10.8331   -1.2952    0.0000 O   0  0  0  0  0  0  0  0  0  0  0  0
    1.5578   -1.5638    0.0000 C   0  0  2  0  0  0  0  0  0  0  0  0
    4.4109   -0.7878    0.0000 C   0  0  2  0  0  0  0  0  0  0  0  0
    9.4006   -2.8828    0.0000 O   0  0  0  0  0  0  0  0  0  0  0  0
    3.7245   -0.3760    0.0000 O   0  0  0  0  0  0  0  0  0  0  0  0
    0.8655   -1.9936    0.0000 O   0  0  0  0  0  0  0  0  0  0  0  0
    4.4048   -1.6115    0.0000 C   0  0  0  0  0  0  0  0  0  0  0  0
    1.5757   -0.7402    0.0000 C   0  0  0  0  0  0  0  0  0  0  0  0
    9.3051  -10.0750    0.0000 C   0  0  0  0  0  0  0  0  0  0  0  0
    3.6947   -2.0234    0.0000 C   0  0  2  0  0  0  0  0  0  0  0  0
    0.1672   -0.7580    0.0000 C   0  0  2  0  0  0  0  0  0  0  0  0
    5.8612   -0.7878    0.0000 C   0  0  1  0  0  0  0  0  0  0  0  0
   10.1228   -1.6892    0.0000 C   0  0  0  0  0  0  0  0  0  0  0  0
    9.4185   -0.4179    0.0000 O   0  0  0  0  0  0  0  0  0  0  0  0
    2.9963   -0.7938    0.0000 C   0  0  1  0  0  0  0  0  0  0  0  0
   11.5732   -0.8834    0.0000 C   0  0  1  0  0  0  0  0  0  0  0  0
    0.8773   -0.3402    0.0000 C   0  0  1  0  0  0  0  0  0  0  0  0
    9.3887   -2.0950    0.0000 C   0  0  0  0  0  0  0  0  0  0  0  0
    0.1672   -1.5459    0.0000 C   0  0  2  0  0  0  0  0  0  0  0  0
    6.5894   -0.3821    0.0000 C   0  0  0  0  0  0  0  0  0  0  0  0
    2.2800   -1.9936    0.0000 O   0  0  0  0  0  0  0  0  0  0  0  0
   10.1407   -0.0239    0.0000 C   0  0  0  0  0  0  0  0  0  0  0  0
    5.1569   -0.4000    0.0000 O   0  0  0  0  0  0  0  0  0  0  0  0
   10.8570    0.3402    0.0000 C   0  0  0  0  0  0  0  0  0  0  0  0
    7.2758   -0.7938    0.0000 C   0  0  0  0  0  0  0  0  0  0  0  0
    6.6789   -4.8525    0.0000 C   0  0  0  0  0  0  0  0  0  0  0  0
    7.2400   -3.2828    0.0000 C   0  0  0  0  0  0  0  0  0  0  0  0
    7.9503   -2.8710    0.0000 O   0  0  0  0  0  0  0  0  0  0  0  0
    6.5417   -2.8530    0.0000 C   0  0  0  0  0  0  0  0  0  0  0  0
   10.2303   -6.9893    0.0000 O   0  0  0  0  0  0  0  0  0  0  0  0
   11.5732   -0.0477    0.0000 C   0  0  2  0  0  0  0  0  0  0  0  0
    8.7083   -1.6653    0.0000 C   0  0  0  0  0  0  0  0  0  0  0  0
    8.7083   -0.8236    0.0000 C   0  0  1  0  0  0  0  0  0  0  0  0
    5.8433   -1.6294    0.0000 C   0  0  2  0  0  0  0  0  0  0  0  0
    8.7858  -10.9703    0.0000 O   0  0  0  0  0  0  0  0  0  0  0  0
    6.5596   -2.0592    0.0000 C   0  0  0  0  0  0  0  0  0  0  0  0
    7.9384   -3.7781    0.0000 O   0  0  0  0  0  0  0  0  0  0  0  0
   12.2477   -1.3310    0.0000 C   0  0  0  0  0  0  0  0  0  0  0  0
    7.9861   -0.4000    0.0000 C   0  0  0  0  0  0  0  0  0  0  0  0
   -0.5491   -0.3581    0.0000 O   0  0  0  0  0  0  0  0  0  0  0  0
   10.3377  -10.0810    0.0000 O   0  0  0  0  0  0  0  0  0  0  0  0
    3.6947   -2.8172    0.0000 O   0  0  0  0  0  0  0  0  0  0  0  0
    0.8953    0.4775    0.0000 O   0  0  0  0  0  0  0  0  0  0  0  0
   10.0810   -5.7836    0.0000 C   0  0  0  0  0  0  0  0  0  0  0  0
    6.5894    0.4954    0.0000 C   0  0  0  0  0  0  0  0  0  0  0  0
    2.2919   -0.4119    0.0000 C   0  0  0  0  0  0  0  0  0  0  0  0
   -0.5670   -1.9220    0.0000 C   0  0  0  0  0  0  0  0  0  0  0  0
   12.2716    0.3342    0.0000 C   0  0  0  0  0  0  0  0  0  0  0  0
    5.1271   -2.0294    0.0000 C   0  0  0  0  0  0  0  0  0  0  0  0
   12.9878   -0.9550    0.0000 C   0  0  0  0  0  0  0  0  0  0  0  0
   12.1999   -2.1548    0.0000 C   0  0  0  0  0  0  0  0  0  0  0  0
    0.1672    0.9071    0.0000 C   0  0  0  0  0  0  0  0  0  0  0  0
    2.9605   -3.2231    0.0000 C   0  0  0  0  0  0  0  0  0  0  0  0
   12.8982   -2.6023    0.0000 C   0  0  0  0  0  0  0  0  0  0  0  0
   13.6861   -1.4146    0.0000 C   0  0  0  0  0  0  0  0  0  0  0  0
   13.6324   -2.2383    0.0000 C   0  0  0  0  0  0  0  0  0  0  0  0
   11.7702   -1.6892    0.0000 H   0  0  0  0  0  0  0  0  0  0  0  0
    7.9025   -6.1596    0.0000 H   0  0  0  0  0  0  0  0  0  0  0  0
    9.4783   -3.7126    0.0000 H   0  0  0  0  0  0  0  0  0  0  0  0
    8.7381    0.0477    0.0000 H   0  0  0  0  0  0  0  0  0  0  0  0
  2  1  1  0  0  0  0
  3  2  1  0  0  0  0
  4 11  1  0  0  0  0
  5  4  1  0  0  0  0
  6  1  1  0  0  0  0
  7 29  1  0  0  0  0
  8  1  1  0  0  0  0
  9  3  1  0  0  0  0
 10  4  1  0  0  0  0
 11 15  1  0  0  0  0
 12  8  2  0  0  0  0
 13  3  1  0  0  0  0
 14  2  1  0  0  0  0
  9 15  1  1  0  0  0
 16 31  1  0  0  0  0
  7 17  1  6  0  0  0
 18 37  1  6  0  0  0
 19 39  1  1  0  0  0
 20  6  1  0  0  0  0
 21 19  1  0  0  0  0
 22 18  1  0  0  0  0
 23 19  1  0  0  0  0
 24 18  1  0  0  0  0
 25  5  1  0  0  0  0
 26 23  1  0  0  0  0
 27 35  1  0  0  0  0
 28 50  1  0  0  0  0
 29 34  1  0  0  0  0
 30 49  1  0  0  0  0
 31 21  1  0  0  0  0
 32 17  1  0  0  0  0
 33 24  1  0  0  0  0
 34 20  1  0  0  0  0
 35 22  1  0  0  0  0
 36 28  1  0  0  0  0
 16 37  1  1  0  0  0
  7 38  1  1  0  0  0
 28 39  1  6  0  0  0
 40 38  2  0  0  0  0
 41 55  1  0  0  0  0
 42 14  1  0  0  0  0
 43 14  2  0  0  0  0
 44  6  2  0  0  0  0
 45 43  1  0  0  0  0
 46 11  2  0  0  0  0
 47 40  1  0  0  0  0
 48 34  1  0  0  0  0
 49 48  1  0  0  0  0
 50 52  1  0  0  0  0
 51 25  2  0  0  0  0
 52 45  2  0  0  0  0
  2 53  1  6  0  0  0
 54 32  1  0  0  0  0
 55 49  1  0  0  0  0
 27 56  1  6  0  0  0
 57 25  1  0  0  0  0
 26 58  1  6  0  0  0
 33 59  1  1  0  0  0
 60 12  1  0  0  0  0
 61 36  1  0  0  0  0
 31 62  1  6  0  0  0
 35 63  1  1  0  0  0
 47 64  1  6  0  0  0
 50 65  1  6  0  0  0
 66 54  1  0  0  0  0
 67 54  1  0  0  0  0
 68 59  1  0  0  0  0
 69 58  1  0  0  0  0
 70 67  1  0  0  0  0
 71 66  1  0  0  0  0
 72 71  1  0  0  0  0
 32 73  1  6  0  0  0
  3 74  1  6  0  0  0
  1 75  1  1  0  0  0
 49 76  1  6  0  0  0
 12  9  1  0  0  0  0
 42 13  1  0  0  0  0
 30  7  1  0  0  0  0
 10  5  1  0  0  0  0
 41 36  2  0  0  0  0
 47 32  1  0  0  0  0
 16 26  1  0  0  0  0
 72 70  1  0  0  0  0
 27 33  1  0  0  0  0
M  END
>  <IDNUMBER>
F3395-2831

>  <Chemical_Name>
2-{[(1'R,2S,5S,6R,8'R,10'E,12'S,13'S,14'E,16'E,20'R,21'R,24'S)-6-cyclohexyl-24'-hydroxy-12'-{[(2R,4S,5S,6S)-5-{[(2S,4S,5S,6S)-5-hydroxy-4-methoxy-6-methyloxan-2-yl]oxy}-4-methoxy-6-methyloxan-2-yl]oxy}-5,11',13',22'-tetramethyl-2'-oxo-5,6-dihydro-3',7',19'-trioxaspiro[pyran-2,6'-tetracyclo[15.6.1.1?,?.0??,??]pentacosane]-10',14',16',22'-tetraen-21'-yloxy]carbonyl}cyclopropane-1-carboxylic acid

>  <PriceCoeff>
7.00

>  <MW>
1 011.21

>  <Description>
solid

>  <FSP3>
0.76

>  <clogP>
6.38

>  <TPSA>
213.43

>  <Acceptor>
17

>  <Donor>
2

>  <RotBonds>
11

>  <HAC>
72

>  <PPDS>
+

$$$$
F3395-2874
  Mrv2219 10102508112D          

 28 31  0  0  0  0            999 V2000
    0.9388   -5.2712    0.0000 N   0  0  0  0  0  0  0  0  0  0  0  0
    0.9221   -2.7956    0.0000 N   0  0  0  0  0  0  0  0  0  0  0  0
    0.9221   -1.9606    0.0000 C   0  0  0  0  0  0  0  0  0  0  0  0
    0.2160   -4.0375    0.0000 C   0  0  2  0  0  0  0  0  0  0  0  0
    0.2243   -4.8600    0.0000 C   0  0  2  0  0  0  0  0  0  0  0  0
    1.6325   -1.5494    0.0000 C   0  0  1  0  0  0  0  0  0  0  0  0
    0.9346   -6.1061    0.0000 C   0  0  0  0  0  0  0  0  0  0  0  0
    0.2036   -3.2150    0.0000 C   0  0  0  0  0  0  0  0  0  0  0  0
    1.6491   -4.0375    0.0000 C   0  0  2  0  0  0  0  0  0  0  0  0
    2.3427   -1.9606    0.0000 N   0  0  0  0  0  0  0  0  0  0  0  0
    1.6491   -4.8642    0.0000 C   0  0  0  0  0  0  0  0  0  0  0  0
    1.6325   -3.1943    0.0000 C   0  0  0  0  0  0  0  0  0  0  0  0
    0.9221   -3.6263    0.0000 C   0  0  0  0  0  0  0  0  0  0  0  0
    2.4466   -2.7083    0.0000 C   0  0  0  0  0  0  0  0  0  0  0  0
    1.6325   -0.7269    0.0000 C   0  0  0  0  0  0  0  0  0  0  0  0
    0.2036   -1.5494    0.0000 O   0  0  0  0  0  0  0  0  0  0  0  0
    1.6491   -6.5216    0.0000 O   0  0  0  0  0  0  0  0  0  0  0  0
    2.1226   -3.5806    0.0000 O   0  0  0  0  0  0  0  0  0  0  0  0
    2.3427   -0.3157    0.0000 C   0  0  0  0  0  0  0  0  0  0  0  0
    0.2160   -6.5174    0.0000 C   0  0  0  0  0  0  0  0  0  0  0  0
   -0.4943   -5.2712    0.0000 C   0  0  0  0  0  0  0  0  0  0  0  0
   -0.4943   -6.0937    0.0000 C   0  0  0  0  0  0  0  0  0  0  0  0
    3.3521   -3.0531    0.0000 C   0  0  0  0  0  0  0  0  0  0  0  0
    2.3345    0.4985    0.0000 C   0  0  0  0  0  0  0  0  0  0  0  0
    3.0531   -0.7352    0.0000 C   0  0  0  0  0  0  0  0  0  0  0  0
    3.7676   -0.3240    0.0000 C   0  0  0  0  0  0  0  0  0  0  0  0
    3.0448    0.9097    0.0000 C   0  0  0  0  0  0  0  0  0  0  0  0
    3.7676    0.5068    0.0000 C   0  0  0  0  0  0  0  0  0  0  0  0
  2 12  1  0  0  0  0
  3  2  1  0  0  0  0
  4  5  1  0  0  0  0
  5  1  1  0  0  0  0
  6  3  1  0  0  0  0
  7  1  1  0  0  0  0
  8  4  1  0  0  0  0
  9 11  1  0  0  0  0
  6 10  1  6  0  0  0
 11  1  1  0  0  0  0
 12  9  1  0  0  0  0
  9 13  1  6  0  0  0
 14 10  1  0  0  0  0
 15  6  1  0  0  0  0
 16  3  2  0  0  0  0
 17  7  2  0  0  0  0
 18 14  2  0  0  0  0
 19 15  1  0  0  0  0
 20  7  1  0  0  0  0
  5 21  1  1  0  0  0
 22 20  1  0  0  0  0
 23 14  1  0  0  0  0
 24 19  1  0  0  0  0
 25 19  2  0  0  0  0
 26 25  1  0  0  0  0
 27 24  2  0  0  0  0
 28 26  2  0  0  0  0
  4 13  1  6  0  0  0
 21 22  1  0  0  0  0
  8  2  1  0  0  0  0
 27 28  1  0  0  0  0
M  END
>  <IDNUMBER>
F3395-2874

>  <Chemical_Name>
N-[(2S)-1-oxo-1-[(1S,2S,9S)-6-oxo-7,11-diazatricyclo[7.3.1.0?,?]tridecan-11-yl]-3-phenylpropan-2-yl]acetamide

>  <PriceCoeff>
7.00

>  <MW>
383.49

>  <Description>
solid

>  <FSP3>
0.59

>  <clogP>
1.05

>  <TPSA>
69.72

>  <Acceptor>
3

>  <Donor>
1

>  <RotBonds>
5

>  <HAC>
28

>  <PPDS>
+

$$$$
F3395-2893
  Mrv2219 10102508112D          

 70 76  0  0  1  0            999 V2000
    5.9752   -3.1765    0.0000 C   0  0  2  0  0  0  0  0  0  0  0  0
    5.1992   -3.5834    0.0000 C   0  0  1  0  0  0  0  0  0  0  0  0
    5.1992   -4.4029    0.0000 C   0  0  1  0  0  0  0  0  0  0  0  0
    5.9810   -2.3831    0.0000 C   0  0  0  0  0  0  0  0  0  0  0  0
    6.6552   -3.6037    0.0000 C   0  0  0  0  0  0  0  0  0  0  0  0
    7.4196    0.0523    0.0000 C   0  0  2  0  0  0  0  0  0  0  0  0
    5.9403   -4.8156    0.0000 C   0  0  1  0  0  0  0  0  0  0  0  0
    6.6349   -4.4116    0.0000 C   0  0  0  0  0  0  0  0  0  0  0  0
    4.3942   -4.6325    0.0000 O   0  0  0  0  0  0  0  0  0  0  0  0
    4.5075   -3.2550    0.0000 C   0  0  0  0  0  0  0  0  0  0  0  0
    0.2558   -0.6626    0.0000 C   0  0  2  0  0  0  0  0  0  0  0  0
    8.1258   -0.3953    0.0000 O   0  0  0  0  0  0  0  0  0  0  0  0
   -1.1596   -0.6481    0.0000 C   0  0  2  0  0  0  0  0  0  0  0  0
    1.6943    0.1453    0.0000 C   0  0  2  0  0  0  0  0  0  0  0  0
    6.6814   -1.9472    0.0000 O   0  0  0  0  0  0  0  0  0  0  0  0
    0.9969    0.5406    0.0000 O   0  0  0  0  0  0  0  0  0  0  0  0
   -1.8745   -1.0637    0.0000 O   0  0  0  0  0  0  0  0  0  0  0  0
    1.6769   -0.6830    0.0000 C   0  0  0  0  0  0  0  0  0  0  0  0
   -1.1566    0.1802    0.0000 C   0  0  0  0  0  0  0  0  0  0  0  0
    0.9852   -1.0840    0.0000 C   0  0  2  0  0  0  0  0  0  0  0  0
   -2.5516    0.1540    0.0000 C   0  0  2  0  0  0  0  0  0  0  0  0
    3.1387    0.1308    0.0000 C   0  0  1  0  0  0  0  0  0  0  0  0
    0.2645    0.1279    0.0000 C   0  0  1  0  0  0  0  0  0  0  0  0
    7.4196   -0.7615    0.0000 C   0  0  0  0  0  0  0  0  0  0  0  0
    6.6988    0.4940    0.0000 O   0  0  0  0  0  0  0  0  0  0  0  0
   -1.8571    0.5812    0.0000 C   0  0  1  0  0  0  0  0  0  0  0  0
    8.8611    0.0319    0.0000 C   0  0  1  0  0  0  0  0  0  0  0  0
    6.6814   -1.1625    0.0000 C   0  0  2  0  0  0  0  0  0  0  0  0
   -2.5691   -0.6277    0.0000 C   0  0  2  0  0  0  0  0  0  0  0  0
    3.8653    0.5318    0.0000 C   0  0  0  0  0  0  0  0  0  0  0  0
   -0.4447   -1.0753    0.0000 O   0  0  0  0  0  0  0  0  0  0  0  0
    2.4354    0.5202    0.0000 O   0  0  0  0  0  0  0  0  0  0  0  0
    5.9403   -5.6264    0.0000 O   0  0  0  0  0  0  0  0  0  0  0  0
    4.5541    0.1046    0.0000 C   0  0  0  0  0  0  0  0  0  0  0  0
    3.9757   -3.8914    0.0000 C   0  0  0  0  0  0  0  0  0  0  0  0
    6.6000   -6.2716    0.0000 C   0  0  0  0  0  0  0  0  0  0  0  0
    4.5192   -2.3570    0.0000 C   0  0  0  0  0  0  0  0  0  0  0  0
    5.2312   -1.9355    0.0000 O   0  0  0  0  0  0  0  0  0  0  0  0
    3.8362   -1.9181    0.0000 C   0  0  0  0  0  0  0  0  0  0  0  0
    5.9839   -0.7411    0.0000 C   0  0  0  0  0  0  0  0  0  0  0  0
    6.0101    0.1017    0.0000 C   0  0  1  0  0  0  0  0  0  0  0  0
    3.1242   -0.7004    0.0000 C   0  0  2  0  0  0  0  0  0  0  0  0
    8.8698    0.8602    0.0000 C   0  0  2  0  0  0  0  0  0  0  0  0
    3.8391   -1.1189    0.0000 C   0  0  0  0  0  0  0  0  0  0  0  0
    5.2312   -2.8248    0.0000 O   0  0  0  0  0  0  0  0  0  0  0  0
    7.4225    0.8864    0.0000 C   0  0  0  0  0  0  0  0  0  0  0  0
    7.5329   -6.0188    0.0000 O   0  0  0  0  0  0  0  0  0  0  0  0
    8.1461    1.2613    0.0000 C   0  0  0  0  0  0  0  0  0  0  0  0
    5.2661    0.5202    0.0000 C   0  0  0  0  0  0  0  0  0  0  0  0
    9.5469   -0.4098    0.0000 C   0  0  2  0  0  0  0  0  0  0  0  0
   -3.2753    0.5580    0.0000 O   0  0  0  0  0  0  0  0  0  0  0  0
    0.9707   -1.8745    0.0000 O   0  0  0  0  0  0  0  0  0  0  0  0
   -1.8367    1.3833    0.0000 O   0  0  0  0  0  0  0  0  0  0  0  0
    7.3789   -4.8127    0.0000 C   0  0  0  0  0  0  0  0  0  0  0  0
    3.8827    1.3921    0.0000 C   0  0  0  0  0  0  0  0  0  0  0  0
   -0.4417    0.4940    0.0000 C   0  0  0  0  0  0  0  0  0  0  0  0
   -3.3014   -1.0026    0.0000 C   0  0  0  0  0  0  0  0  0  0  0  0
    6.0798   -7.1609    0.0000 C   0  0  0  0  0  0  0  0  0  0  0  0
    2.3976   -1.1160    0.0000 C   0  0  0  0  0  0  0  0  0  0  0  0
    9.5673    1.2351    0.0000 C   0  0  0  0  0  0  0  0  0  0  0  0
    9.5469   -1.2323    0.0000 C   0  0  0  0  0  0  0  0  0  0  0  0
   10.3141    0.0145    0.0000 C   0  0  0  0  0  0  0  0  0  0  0  0
    1.6478   -2.2843    0.0000 C   0  0  0  0  0  0  0  0  0  0  0  0
   -1.1073    1.7786    0.0000 C   0  0  0  0  0  0  0  0  0  0  0  0
   10.2822   -1.6420    0.0000 C   0  0  0  0  0  0  0  0  0  0  0  0
    6.7686   -2.7667    0.0000 H   0  0  0  0  0  0  0  0  0  0  0  0
    7.4196   -1.5955    0.0000 H   0  0  0  0  0  0  0  0  0  0  0  0
    6.0275    0.9561    0.0000 H   0  0  0  0  0  0  0  0  0  0  0  0
    8.8320   -0.5871    0.0000 H   0  0  0  0  0  0  0  0  0  0  0  0
    5.1905   -5.1818    0.0000 H   0  0  0  0  0  0  0  0  0  0  0  0
  2  1  1  0  0  0  0
  3  2  1  0  0  0  0
  4  1  1  0  0  0  0
  5  1  1  0  0  0  0
  6 24  1  0  0  0  0
  7  8  1  0  0  0  0
  8  5  2  0  0  0  0
  9  3  1  0  0  0  0
 10  2  1  0  0  0  0
 11 23  1  0  0  0  0
  6 12  1  6  0  0  0
 13 31  1  6  0  0  0
 14 32  1  1  0  0  0
 15  4  1  0  0  0  0
 16 14  1  0  0  0  0
 17 13  1  0  0  0  0
 18 14  1  0  0  0  0
 19 13  1  0  0  0  0
 20 18  1  0  0  0  0
 21 29  1  0  0  0  0
 22 42  1  0  0  0  0
 23 16  1  0  0  0  0
 24 28  1  0  0  0  0
 25 41  1  0  0  0  0
 26 19  1  0  0  0  0
 27 12  1  0  0  0  0
 28 15  1  0  0  0  0
 29 17  1  0  0  0  0
 30 34  2  0  0  0  0
 11 31  1  1  0  0  0
 22 32  1  6  0  0  0
  7 33  1  1  0  0  0
 34 49  1  0  0  0  0
 35 10  1  0  0  0  0
 36 33  1  0  0  0  0
 37 10  2  0  0  0  0
 38  4  2  0  0  0  0
 39 37  1  0  0  0  0
 40 28  1  0  0  0  0
 41 40  1  0  0  0  0
 42 44  1  0  0  0  0
 43 48  1  0  0  0  0
 44 39  2  0  0  0  0
  2 45  1  6  0  0  0
  6 46  1  1  0  0  0
 47 36  2  0  0  0  0
 48 46  1  0  0  0  0
 49 41  1  0  0  0  0
 50 27  1  0  0  0  0
 21 51  1  6  0  0  0
 20 52  1  6  0  0  0
 26 53  1  1  0  0  0
 54  8  1  0  0  0  0
 55 30  1  0  0  0  0
 23 56  1  6  0  0  0
 29 57  1  1  0  0  0
 58 36  1  0  0  0  0
 42 59  1  6  0  0  0
 43 60  1  6  0  0  0
 61 50  1  0  0  0  0
 50 62  1  1  0  0  0
 63 52  1  0  0  0  0
 64 53  1  0  0  0  0
 65 61  1  0  0  0  0
  1 66  1  1  0  0  0
 28 67  1  6  0  0  0
 41 68  1  6  0  0  0
 27 69  1  6  0  0  0
  3 70  1  6  0  0  0
  7  3  1  0  0  0  0
 35  9  1  0  0  0  0
 25  6  1  0  0  0  0
 30 22  1  0  0  0  0
 43 27  1  0  0  0  0
 11 20  1  0  0  0  0
 21 26  1  0  0  0  0
M  END
>  <IDNUMBER>
F3395-2893

>  <Chemical_Name>
(1'R,2R,4'S,5S,6R,8'R,10'E,12'S,13'S,14'E,16'E,20'R,21'R,24'S)-6-[(2S)-butan-2-yl]-24'-hydroxy-12'-{[(2R,4S,5S,6S)-5-{[(2S,4S,5S,6S)-5-hydroxy-4-methoxy-6-methyloxan-2-yl]oxy}-4-methoxy-6-methyloxan-2-yl]oxy}-5,11',13',22'-tetramethyl-2'-oxo-3',7',19'-trioxaspiro[oxane-2,6'-tetracyclo[15.6.1.1?,?.0??,??]pentacosane]-10',14',16',22'-tetraen-21'-yl acetate

>  <PriceCoeff>
7.00

>  <CAS>
3047733-81-0

>  <MW>
917.14

>  <Description>
solid

>  <FSP3>
0.80

>  <clogP>
5.63

>  <TPSA>
176.13

>  <Acceptor>
15

>  <Donor>
2

>  <RotBonds>
10

>  <HAC>
65

$$$$
F3395-2894
  Mrv2219 10102508112D          

 50 54  0  0  1  0            999 V2000
    2.9818   -2.9139    0.0000 C   0  0  2  0  0  0  0  0  0  0  0  0
    2.2180   -3.3270    0.0000 C   0  0  1  0  0  0  0  0  0  0  0  0
    2.2180   -4.1531    0.0000 C   0  0  1  0  0  0  0  0  0  0  0  0
    2.9903   -2.1246    0.0000 C   0  0  0  0  0  0  0  0  0  0  0  0
    3.6580   -3.3439    0.0000 C   0  0  0  0  0  0  0  0  0  0  0  0
    4.4133    0.3225    0.0000 C   0  0  2  0  0  0  0  0  0  0  0  0
    2.9479   -4.5661    0.0000 C   0  0  1  0  0  0  0  0  0  0  0  0
    3.6354   -4.1587    0.0000 C   0  0  0  0  0  0  0  0  0  0  0  0
    1.4174   -4.3737    0.0000 O   0  0  0  0  0  0  0  0  0  0  0  0
    1.5305   -2.9988    0.0000 C   0  0  0  0  0  0  0  0  0  0  0  0
    5.1008   -0.1273    0.0000 O   0  0  0  0  0  0  0  0  0  0  0  0
    3.6863   -1.6833    0.0000 O   0  0  0  0  0  0  0  0  0  0  0  0
    4.4133   -0.4923    0.0000 C   0  0  0  0  0  0  0  0  0  0  0  0
    3.7033    0.7610    0.0000 O   0  0  0  0  0  0  0  0  0  0  0  0
    5.8420    0.3027    0.0000 C   0  0  1  0  0  0  0  0  0  0  0  0
    3.6863   -0.8996    0.0000 C   0  0  2  0  0  0  0  0  0  0  0  0
    0.8940    0.8034    0.0000 C   0  0  0  0  0  0  0  0  0  0  0  0
    2.9479   -5.3724    0.0000 O   0  0  0  0  0  0  0  0  0  0  0  0
    1.5758    0.3706    0.0000 C   0  0  0  0  0  0  0  0  0  0  0  0
    1.0015   -3.6325    0.0000 C   0  0  0  0  0  0  0  0  0  0  0  0
    0.1726    0.4045    0.0000 C   0  0  2  0  0  0  0  0  0  0  0  0
    3.6070   -6.0259    0.0000 C   0  0  0  0  0  0  0  0  0  0  0  0
    1.5532   -2.0963    0.0000 C   0  0  0  0  0  0  0  0  0  0  0  0
    2.2435   -1.6663    0.0000 O   0  0  0  0  0  0  0  0  0  0  0  0
    0.8601   -1.6494    0.0000 C   0  0  0  0  0  0  0  0  0  0  0  0
    2.9960   -0.4696    0.0000 C   0  0  0  0  0  0  0  0  0  0  0  0
    3.0158    0.3706    0.0000 C   0  0  1  0  0  0  0  0  0  0  0  0
    5.8505    1.1288    0.0000 C   0  0  2  0  0  0  0  0  0  0  0  0
    0.8685   -0.8572    0.0000 C   0  0  0  0  0  0  0  0  0  0  0  0
    2.2435   -2.5660    0.0000 O   0  0  0  0  0  0  0  0  0  0  0  0
    4.4218    1.1543    0.0000 C   0  0  0  0  0  0  0  0  0  0  0  0
    0.1613   -0.4357    0.0000 C   0  0  2  0  0  0  0  0  0  0  0  0
    4.5265   -5.7713    0.0000 O   0  0  0  0  0  0  0  0  0  0  0  0
    5.1347    1.5390    0.0000 C   0  0  0  0  0  0  0  0  0  0  0  0
    2.2774    0.7865    0.0000 C   0  0  0  0  0  0  0  0  0  0  0  0
    6.5210   -0.1471    0.0000 C   0  0  2  0  0  0  0  0  0  0  0  0
   -0.5234    0.7865    0.0000 O   0  0  0  0  0  0  0  0  0  0  0  0
    4.3737   -4.5520    0.0000 C   0  0  0  0  0  0  0  0  0  0  0  0
    0.9110    1.6691    0.0000 C   0  0  0  0  0  0  0  0  0  0  0  0
    3.0922   -6.9086    0.0000 C   0  0  0  0  0  0  0  0  0  0  0  0
    6.5549    1.5022    0.0000 C   0  0  0  0  0  0  0  0  0  0  0  0
   -0.5573   -0.8516    0.0000 C   0  0  0  0  0  0  0  0  0  0  0  0
    6.5210   -0.9704    0.0000 C   0  0  0  0  0  0  0  0  0  0  0  0
    7.2820    0.2772    0.0000 C   0  0  0  0  0  0  0  0  0  0  0  0
    7.2565   -1.3778    0.0000 C   0  0  0  0  0  0  0  0  0  0  0  0
    5.8222   -0.3819    0.0000 H   0  0  0  0  0  0  0  0  0  0  0  0
    2.2095   -4.9339    0.0000 H   0  0  0  0  0  0  0  0  0  0  0  0
    3.7712   -2.5122    0.0000 H   0  0  0  0  0  0  0  0  0  0  0  0
    4.3568   -1.3155    0.0000 H   0  0  0  0  0  0  0  0  0  0  0  0
    3.0384    1.2222    0.0000 H   0  0  0  0  0  0  0  0  0  0  0  0
  2  1  1  0  0  0  0
  3  2  1  0  0  0  0
  4  1  1  0  0  0  0
  5  1  1  0  0  0  0
  6 13  1  0  0  0  0
  7  8  1  0  0  0  0
  8  5  2  0  0  0  0
  9  3  1  0  0  0  0
 10  2  1  0  0  0  0
  6 11  1  6  0  0  0
 12  4  1  0  0  0  0
 13 16  1  0  0  0  0
 14 27  1  0  0  0  0
 15 11  1  0  0  0  0
 16 12  1  0  0  0  0
 17 19  2  0  0  0  0
  7 18  1  1  0  0  0
 19 35  1  0  0  0  0
 20 10  1  0  0  0  0
 21 32  1  0  0  0  0
 22 18  1  0  0  0  0
 23 10  2  0  0  0  0
 24  4  2  0  0  0  0
 25 23  1  0  0  0  0
 26 16  1  0  0  0  0
 27 26  1  0  0  0  0
 28 34  1  0  0  0  0
 29 25  2  0  0  0  0
  2 30  1  6  0  0  0
  6 31  1  1  0  0  0
 32 29  1  0  0  0  0
 33 22  2  0  0  0  0
 34 31  1  0  0  0  0
 35 27  1  0  0  0  0
 36 15  1  0  0  0  0
 21 37  1  6  0  0  0
 38  8  1  0  0  0  0
 39 17  1  0  0  0  0
 40 22  1  0  0  0  0
 28 41  1  6  0  0  0
 32 42  1  6  0  0  0
 43 36  1  0  0  0  0
 36 44  1  1  0  0  0
 45 43  1  0  0  0  0
 15 46  1  6  0  0  0
  3 47  1  6  0  0  0
  1 48  1  1  0  0  0
 16 49  1  6  0  0  0
 27 50  1  6  0  0  0
  7  3  1  0  0  0  0
 20  9  1  0  0  0  0
 14  6  1  0  0  0  0
 17 21  1  0  0  0  0
 28 15  1  0  0  0  0
M  END
>  <IDNUMBER>
F3395-2894

>  <Chemical_Name>
(1'R,2R,4'S,5S,6R,8'R,10'E,12'S,13'S,14'E,16'E,20'R,21'R,24'S)-6-[(2S)-butan-2-yl]-12',24'-dihydroxy-5,11',13',22'-tetramethyl-2'-oxo-3',7',19'-trioxaspiro[oxane-2,6'-tetracyclo[15.6.1.1?,?.0??,??]pentacosane]-10',14',16',22'-tetraen-21'-yl acetate

>  <PriceCoeff>
7.00

>  <MW>
628.80

>  <Description>
solid

>  <FSP3>
0.72

>  <clogP>
5.37

>  <TPSA>
120.75

>  <Acceptor>
9

>  <Donor>
2

>  <RotBonds>
4

>  <HAC>
45

$$$$
F3395-2900
  Mrv2219 10102508112D          

 76 83  0  0  1  0            999 V2000
    7.4741   -3.0279    0.0000 C   0  0  2  0  0  0  0  0  0  0  0  0
    6.6978   -3.4180    0.0000 C   0  0  1  0  0  0  0  0  0  0  0  0
    6.6978   -4.2471    0.0000 C   0  0  1  0  0  0  0  0  0  0  0  0
    7.4863   -2.2191    0.0000 C   0  0  0  0  0  0  0  0  0  0  0  0
    8.1609   -3.4546    0.0000 C   0  0  0  0  0  0  0  0  0  0  0  0
    8.9291    0.2073    0.0000 C   0  0  2  0  0  0  0  0  0  0  0  0
    7.4416   -4.6617    0.0000 C   0  0  1  0  0  0  0  0  0  0  0  0
    8.1366   -4.2471    0.0000 C   0  0  0  0  0  0  0  0  0  0  0  0
    5.8890   -4.4666    0.0000 O   0  0  0  0  0  0  0  0  0  0  0  0
    6.0029   -3.1091    0.0000 C   0  0  0  0  0  0  0  0  0  0  0  0
    1.7598   -0.5040    0.0000 C   0  0  2  0  0  0  0  0  0  0  0  0
    9.6241   -0.2358    0.0000 O   0  0  0  0  0  0  0  0  0  0  0  0
    0.3333   -0.4918    0.0000 C   0  0  2  0  0  0  0  0  0  0  0  0
    3.1945    0.3048    0.0000 C   0  0  2  0  0  0  0  0  0  0  0  0
    8.1853   -1.7964    0.0000 O   0  0  0  0  0  0  0  0  0  0  0  0
    8.1000   -6.1126    0.0000 C   0  0  0  0  0  0  0  0  0  0  0  0
    2.4995    0.7072    0.0000 O   0  0  0  0  0  0  0  0  0  0  0  0
   -0.3739   -0.9023    0.0000 O   0  0  0  0  0  0  0  0  0  0  0  0
    3.1864   -0.5162    0.0000 C   0  0  0  0  0  0  0  0  0  0  0  0
    0.3536    0.3414    0.0000 C   0  0  0  0  0  0  0  0  0  0  0  0
    2.4792   -0.9307    0.0000 C   0  0  2  0  0  0  0  0  0  0  0  0
   -1.0567    0.3048    0.0000 C   0  0  2  0  0  0  0  0  0  0  0  0
    4.6373    0.2885    0.0000 C   0  0  1  0  0  0  0  0  0  0  0  0
    1.7598    0.2885    0.0000 C   0  0  1  0  0  0  0  0  0  0  0  0
    8.9291   -0.6137    0.0000 C   0  0  0  0  0  0  0  0  0  0  0  0
    8.2178    0.6462    0.0000 O   0  0  0  0  0  0  0  0  0  0  0  0
   -0.3617    0.7316    0.0000 C   0  0  1  0  0  0  0  0  0  0  0  0
   10.3800    0.1951    0.0000 C   0  0  1  0  0  0  0  0  0  0  0  0
    8.1853   -0.9998    0.0000 C   0  0  2  0  0  0  0  0  0  0  0  0
   -1.0689   -0.4674    0.0000 C   0  0  2  0  0  0  0  0  0  0  0  0
    5.3810    0.6950    0.0000 C   0  0  0  0  0  0  0  0  0  0  0  0
    7.4416   -5.4664    0.0000 O   0  0  0  0  0  0  0  0  0  0  0  0
    1.0527   -0.9266    0.0000 O   0  0  0  0  0  0  0  0  0  0  0  0
    3.9423    0.6909    0.0000 O   0  0  0  0  0  0  0  0  0  0  0  0
    6.0638    0.2682    0.0000 C   0  0  0  0  0  0  0  0  0  0  0  0
    5.4786   -3.7350    0.0000 C   0  0  0  0  0  0  0  0  0  0  0  0
    7.5960   -7.0107    0.0000 N   0  0  0  0  0  0  0  0  0  0  0  0
    6.0272   -2.1988    0.0000 C   0  0  0  0  0  0  0  0  0  0  0  0
    6.7303   -1.7679    0.0000 O   0  0  0  0  0  0  0  0  0  0  0  0
    5.3323   -1.7598    0.0000 C   0  0  0  0  0  0  0  0  0  0  0  0
    7.4904   -0.5771    0.0000 C   0  0  0  0  0  0  0  0  0  0  0  0
    7.5106    0.2519    0.0000 C   0  0  1  0  0  0  0  0  0  0  0  0
    9.0388   -5.8565    0.0000 O   0  0  0  0  0  0  0  0  0  0  0  0
    4.6210   -0.5406    0.0000 C   0  0  2  0  0  0  0  0  0  0  0  0
   10.3800    1.0201    0.0000 C   0  0  2  0  0  0  0  0  0  0  0  0
    5.3445   -0.9673    0.0000 C   0  0  0  0  0  0  0  0  0  0  0  0
    6.7303   -2.6621    0.0000 O   0  0  0  0  0  0  0  0  0  0  0  0
    8.9291    1.0445    0.0000 C   0  0  0  0  0  0  0  0  0  0  0  0
    9.6443    1.4224    0.0000 C   0  0  0  0  0  0  0  0  0  0  0  0
    6.7710    0.6909    0.0000 C   0  0  0  0  0  0  0  0  0  0  0  0
   11.0506   -0.2479    0.0000 C   0  0  2  0  0  0  0  0  0  0  0  0
   -1.7679    0.7153    0.0000 O   0  0  0  0  0  0  0  0  0  0  0  0
    2.4670   -1.7111    0.0000 O   0  0  0  0  0  0  0  0  0  0  0  0
    6.5596   -7.0107    0.0000 C   0  0  0  0  0  0  0  0  0  0  0  0
   -0.3373    1.5444    0.0000 O   0  0  0  0  0  0  0  0  0  0  0  0
    8.8803   -4.6495    0.0000 C   0  0  0  0  0  0  0  0  0  0  0  0
    5.3810    1.5566    0.0000 C   0  0  0  0  0  0  0  0  0  0  0  0
    1.0649    0.6462    0.0000 C   0  0  0  0  0  0  0  0  0  0  0  0
   -1.8045   -0.8454    0.0000 C   0  0  0  0  0  0  0  0  0  0  0  0
    3.8935   -0.9632    0.0000 C   0  0  0  0  0  0  0  0  0  0  0  0
   11.0872    1.3859    0.0000 C   0  0  0  0  0  0  0  0  0  0  0  0
   11.0506   -1.0851    0.0000 C   0  0  0  0  0  0  0  0  0  0  0  0
   11.8187    0.1666    0.0000 C   0  0  0  0  0  0  0  0  0  0  0  0
    6.1370   -6.2955    0.0000 C   0  0  0  0  0  0  0  0  0  0  0  0
    6.1370   -7.7301    0.0000 C   0  0  0  0  0  0  0  0  0  0  0  0
    0.3943    1.9467    0.0000 C   0  0  0  0  0  0  0  0  0  0  0  0
    3.1498   -2.1134    0.0000 C   0  0  0  0  0  0  0  0  0  0  0  0
   11.7943   -1.4794    0.0000 C   0  0  0  0  0  0  0  0  0  0  0  0
    5.3079   -7.7301    0.0000 C   0  0  0  0  0  0  0  0  0  0  0  0
    5.3079   -6.2955    0.0000 C   0  0  0  0  0  0  0  0  0  0  0  0
    4.9055   -7.0107    0.0000 C   0  0  0  0  0  0  0  0  0  0  0  0
    8.9291   -1.4306    0.0000 H   0  0  0  0  0  0  0  0  0  0  0  0
    7.5391    1.1176    0.0000 H   0  0  0  0  0  0  0  0  0  0  0  0
   10.3312   -0.4308    0.0000 H   0  0  0  0  0  0  0  0  0  0  0  0
    6.6978   -5.0396    0.0000 H   0  0  0  0  0  0  0  0  0  0  0  0
    8.2707   -2.6214    0.0000 H   0  0  0  0  0  0  0  0  0  0  0  0
  2  1  1  0  0  0  0
  3  2  1  0  0  0  0
  4  1  1  0  0  0  0
  5  1  1  0  0  0  0
  6 25  1  0  0  0  0
  7  8  1  0  0  0  0
  8  5  2  0  0  0  0
  9  3  1  0  0  0  0
 10  2  1  0  0  0  0
 11 24  1  0  0  0  0
  6 12  1  6  0  0  0
 13 33  1  6  0  0  0
 14 34  1  1  0  0  0
 15  4  1  0  0  0  0
 16 32  1  0  0  0  0
 17 14  1  0  0  0  0
 18 13  1  0  0  0  0
 19 14  1  0  0  0  0
 20 13  1  0  0  0  0
 21 19  1  0  0  0  0
 22 30  1  0  0  0  0
 23 44  1  0  0  0  0
 24 17  1  0  0  0  0
 25 29  1  0  0  0  0
 26 42  1  0  0  0  0
 27 20  1  0  0  0  0
 28 12  1  0  0  0  0
 29 15  1  0  0  0  0
 30 18  1  0  0  0  0
 31 35  2  0  0  0  0
  7 32  1  1  0  0  0
 11 33  1  1  0  0  0
 23 34  1  6  0  0  0
 35 50  1  0  0  0  0
 36 10  1  0  0  0  0
 37 16  1  0  0  0  0
 38 10  2  0  0  0  0
 39  4  2  0  0  0  0
 40 38  1  0  0  0  0
 41 29  1  0  0  0  0
 42 41  1  0  0  0  0
 43 16  2  0  0  0  0
 44 46  1  0  0  0  0
 45 49  1  0  0  0  0
 46 40  2  0  0  0  0
  2 47  1  6  0  0  0
  6 48  1  1  0  0  0
 49 48  1  0  0  0  0
 50 42  1  0  0  0  0
 51 28  1  0  0  0  0
 22 52  1  6  0  0  0
 21 53  1  6  0  0  0
 54 37  1  0  0  0  0
 27 55  1  1  0  0  0
 56  8  1  0  0  0  0
 57 31  1  0  0  0  0
 24 58  1  6  0  0  0
 30 59  1  1  0  0  0
 44 60  1  6  0  0  0
 45 61  1  6  0  0  0
 62 51  1  0  0  0  0
 51 63  1  1  0  0  0
 64 54  2  0  0  0  0
 65 54  1  0  0  0  0
 66 55  1  0  0  0  0
 67 53  1  0  0  0  0
 68 62  1  0  0  0  0
 69 65  2  0  0  0  0
 70 64  1  0  0  0  0
 71 69  1  0  0  0  0
 29 72  1  6  0  0  0
 42 73  1  6  0  0  0
 28 74  1  6  0  0  0
  3 75  1  6  0  0  0
  1 76  1  1  0  0  0
  7  3  1  0  0  0  0
 36  9  1  0  0  0  0
 26  6  1  0  0  0  0
 31 23  1  0  0  0  0
 45 28  1  0  0  0  0
 71 70  2  0  0  0  0
 11 21  1  0  0  0  0
 22 27  1  0  0  0  0
M  END
>  <IDNUMBER>
F3395-2900

>  <Chemical_Name>
(1'R,2R,4'S,5S,6R,8'R,10'E,12'S,13'S,14'E,16'E,20'R,21'R,24'S)-6-[(2S)-butan-2-yl]-24'-hydroxy-12'-{[(2R,4S,5S,6S)-5-{[(2S,4S,5S,6S)-5-hydroxy-4-methoxy-6-methyloxan-2-yl]oxy}-4-methoxy-6-methyloxan-2-yl]oxy}-5,11',13',22'-tetramethyl-2'-oxo-3',7',19'-trioxaspiro[oxane-2,6'-tetracyclo[15.6.1.1?,?.0??,??]pentacosane]-10',14',16',22'-tetraen-21'-yl N-phenylcarbamate

>  <PriceCoeff>
7.00

>  <CAS>
3054372-12-9

>  <MW>
994.23

>  <Description>
solid

>  <FSP3>
0.71

>  <clogP>
6.97

>  <TPSA>
188.16

>  <Acceptor>
15

>  <Donor>
3

>  <RotBonds>
11

>  <HAC>
71

$$$$
F3395-2902
  Mrv2219 10102508112D          

 78 85  0  0  1  0            999 V2000
    7.1236   -5.3307    0.0000 C   0  0  2  0  0  0  0  0  0  0  0  0
    6.3604   -5.7283    0.0000 C   0  0  1  0  0  0  0  0  0  0  0  0
    6.3604   -6.5512    0.0000 C   0  0  1  0  0  0  0  0  0  0  0  0
    7.1355   -4.5317    0.0000 C   0  0  0  0  0  0  0  0  0  0  0  0
    7.8153   -5.7641    0.0000 C   0  0  0  0  0  0  0  0  0  0  0  0
    8.5785   -2.1029    0.0000 C   0  0  2  0  0  0  0  0  0  0  0  0
    7.0878   -6.9686    0.0000 C   0  0  1  0  0  0  0  0  0  0  0  0
    7.7874   -6.5512    0.0000 C   0  0  0  0  0  0  0  0  0  0  0  0
    5.5454   -6.7778    0.0000 O   0  0  0  0  0  0  0  0  0  0  0  0
    5.6647   -5.4182    0.0000 C   0  0  0  0  0  0  0  0  0  0  0  0
    1.4112   -2.8185    0.0000 C   0  0  2  0  0  0  0  0  0  0  0  0
    9.2781   -2.5521    0.0000 O   0  0  0  0  0  0  0  0  0  0  0  0
    0.0040   -2.8065    0.0000 C   0  0  2  0  0  0  0  0  0  0  0  0
    2.8542   -2.0035    0.0000 C   0  0  2  0  0  0  0  0  0  0  0  0
    7.8391   -4.1064    0.0000 O   0  0  0  0  0  0  0  0  0  0  0  0
    7.7557   -8.4195    0.0000 C   0  0  0  0  0  0  0  0  0  0  0  0
    2.1625   -1.6140    0.0000 O   0  0  0  0  0  0  0  0  0  0  0  0
   -0.7036   -3.2120    0.0000 O   0  0  0  0  0  0  0  0  0  0  0  0
    2.8502   -2.8304    0.0000 C   0  0  0  0  0  0  0  0  0  0  0  0
    0.0159   -1.9717    0.0000 C   0  0  0  0  0  0  0  0  0  0  0  0
    2.1466   -3.2438    0.0000 C   0  0  2  0  0  0  0  0  0  0  0  0
   -1.3834   -2.0035    0.0000 C   0  0  2  0  0  0  0  0  0  0  0  0
    4.2972   -2.0274    0.0000 C   0  0  1  0  0  0  0  0  0  0  0  0
    1.4232   -2.0314    0.0000 C   0  0  1  0  0  0  0  0  0  0  0  0
    8.5785   -2.9258    0.0000 C   0  0  0  0  0  0  0  0  0  0  0  0
    7.8590   -1.6736    0.0000 O   0  0  0  0  0  0  0  0  0  0  0  0
   -0.6917   -1.5782    0.0000 C   0  0  1  0  0  0  0  0  0  0  0  0
   10.0175   -2.1228    0.0000 C   0  0  1  0  0  0  0  0  0  0  0  0
    7.8391   -3.3074    0.0000 C   0  0  2  0  0  0  0  0  0  0  0  0
   -1.3913   -2.7827    0.0000 C   0  0  2  0  0  0  0  0  0  0  0  0
    5.0247   -1.6219    0.0000 C   0  0  0  0  0  0  0  0  0  0  0  0
    7.0878   -7.7755    0.0000 O   0  0  0  0  0  0  0  0  0  0  0  0
    0.7195   -3.2358    0.0000 O   0  0  0  0  0  0  0  0  0  0  0  0
    3.6015   -1.6338    0.0000 O   0  0  0  0  0  0  0  0  0  0  0  0
    5.7164   -2.0433    0.0000 C   0  0  0  0  0  0  0  0  0  0  0  0
    5.1320   -6.0463    0.0000 C   0  0  0  0  0  0  0  0  0  0  0  0
    7.2388   -9.3060    0.0000 N   0  0  0  0  0  0  0  0  0  0  0  0
    5.6885   -4.5079    0.0000 C   0  0  0  0  0  0  0  0  0  0  0  0
    6.3842   -4.0786    0.0000 O   0  0  0  0  0  0  0  0  0  0  0  0
    4.9889   -4.0706    0.0000 C   0  0  0  0  0  0  0  0  0  0  0  0
    7.1434   -2.8979    0.0000 C   0  0  0  0  0  0  0  0  0  0  0  0
    7.1673   -2.0631    0.0000 C   0  0  1  0  0  0  0  0  0  0  0  0
    8.6859   -8.1611    0.0000 O   0  0  0  0  0  0  0  0  0  0  0  0
    4.2853   -2.8621    0.0000 C   0  0  2  0  0  0  0  0  0  0  0  0
   10.0175   -1.3039    0.0000 C   0  0  2  0  0  0  0  0  0  0  0  0
    5.0088   -3.2835    0.0000 C   0  0  0  0  0  0  0  0  0  0  0  0
    6.3842   -4.9730    0.0000 O   0  0  0  0  0  0  0  0  0  0  0  0
    8.5864   -1.2681    0.0000 C   0  0  0  0  0  0  0  0  0  0  0  0
    9.2941   -0.8944    0.0000 C   0  0  0  0  0  0  0  0  0  0  0  0
    6.4279   -1.6338    0.0000 C   0  0  0  0  0  0  0  0  0  0  0  0
    6.2132   -9.3060    0.0000 C   0  0  0  0  0  0  0  0  0  0  0  0
   10.6973   -2.5561    0.0000 C   0  0  2  0  0  0  0  0  0  0  0  0
   -2.0949   -1.6020    0.0000 O   0  0  0  0  0  0  0  0  0  0  0  0
    2.1347   -4.0229    0.0000 O   0  0  0  0  0  0  0  0  0  0  0  0
   -0.6678   -0.7792    0.0000 O   0  0  0  0  0  0  0  0  0  0  0  0
    4.5596   -9.3060    0.0000 C   0  0  0  0  0  0  0  0  0  0  0  0
    8.5308   -6.9566    0.0000 C   0  0  0  0  0  0  0  0  0  0  0  0
    5.7999   -8.6024    0.0000 C   0  0  0  0  0  0  0  0  0  0  0  0
    5.7999  -10.0294    0.0000 C   0  0  0  0  0  0  0  0  0  0  0  0
    4.9651  -10.0294    0.0000 C   0  0  0  0  0  0  0  0  0  0  0  0
    4.9651   -8.6024    0.0000 C   0  0  0  0  0  0  0  0  0  0  0  0
    3.7367   -9.3060    0.0000 O   0  0  0  0  0  0  0  0  0  0  0  0
    5.0445   -0.7672    0.0000 C   0  0  0  0  0  0  0  0  0  0  0  0
    0.7275   -1.6736    0.0000 C   0  0  0  0  0  0  0  0  0  0  0  0
   -2.1307   -3.1524    0.0000 C   0  0  0  0  0  0  0  0  0  0  0  0
    3.5578   -3.2716    0.0000 C   0  0  0  0  0  0  0  0  0  0  0  0
   10.7251   -0.9342    0.0000 C   0  0  0  0  0  0  0  0  0  0  0  0
   10.6973   -3.3988    0.0000 C   0  0  0  0  0  0  0  0  0  0  0  0
   11.4605   -2.1387    0.0000 C   0  0  0  0  0  0  0  0  0  0  0  0
    0.0636   -0.3737    0.0000 C   0  0  0  0  0  0  0  0  0  0  0  0
    2.8065   -4.4284    0.0000 C   0  0  0  0  0  0  0  0  0  0  0  0
    3.3313   -8.6024    0.0000 C   0  0  0  0  0  0  0  0  0  0  0  0
   11.4367   -3.7923    0.0000 C   0  0  0  0  0  0  0  0  0  0  0  0
    9.9777   -2.7469    0.0000 H   0  0  0  0  0  0  0  0  0  0  0  0
    6.3444   -7.3383    0.0000 H   0  0  0  0  0  0  0  0  0  0  0  0
    7.9226   -4.9293    0.0000 H   0  0  0  0  0  0  0  0  0  0  0  0
    8.5785   -3.7486    0.0000 H   0  0  0  0  0  0  0  0  0  0  0  0
    7.1832   -1.2045    0.0000 H   0  0  0  0  0  0  0  0  0  0  0  0
  2  1  1  0  0  0  0
  3  2  1  0  0  0  0
  4  1  1  0  0  0  0
  5  1  1  0  0  0  0
  6 25  1  0  0  0  0
  7  8  1  0  0  0  0
  8  5  2  0  0  0  0
  9  3  1  0  0  0  0
 10  2  1  0  0  0  0
 11 24  1  0  0  0  0
  6 12  1  6  0  0  0
 13 33  1  6  0  0  0
 14 34  1  1  0  0  0
 15  4  1  0  0  0  0
 16 32  1  0  0  0  0
 17 14  1  0  0  0  0
 18 13  1  0  0  0  0
 19 14  1  0  0  0  0
 20 13  1  0  0  0  0
 21 19  1  0  0  0  0
 22 30  1  0  0  0  0
 23 44  1  0  0  0  0
 24 17  1  0  0  0  0
 25 29  1  0  0  0  0
 26 42  1  0  0  0  0
 27 20  1  0  0  0  0
 28 12  1  0  0  0  0
 29 15  1  0  0  0  0
 30 18  1  0  0  0  0
 31 35  2  0  0  0  0
  7 32  1  1  0  0  0
 11 33  1  1  0  0  0
 23 34  1  6  0  0  0
 35 50  1  0  0  0  0
 36 10  1  0  0  0  0
 37 16  1  0  0  0  0
 38 10  2  0  0  0  0
 39  4  2  0  0  0  0
 40 38  1  0  0  0  0
 41 29  1  0  0  0  0
 42 41  1  0  0  0  0
 43 16  2  0  0  0  0
 44 46  1  0  0  0  0
 45 49  1  0  0  0  0
 46 40  2  0  0  0  0
  2 47  1  6  0  0  0
  6 48  1  1  0  0  0
 49 48  1  0  0  0  0
 50 42  1  0  0  0  0
 51 37  1  0  0  0  0
 52 28  1  0  0  0  0
 22 53  1  6  0  0  0
 21 54  1  6  0  0  0
 27 55  1  1  0  0  0
 56 60  1  0  0  0  0
 57  8  1  0  0  0  0
 58 51  2  0  0  0  0
 59 51  1  0  0  0  0
 60 59  2  0  0  0  0
 61 58  1  0  0  0  0
 62 56  1  0  0  0  0
 63 31  1  0  0  0  0
 24 64  1  6  0  0  0
 30 65  1  1  0  0  0
 44 66  1  6  0  0  0
 45 67  1  6  0  0  0
 68 52  1  0  0  0  0
 52 69  1  1  0  0  0
 70 55  1  0  0  0  0
 71 54  1  0  0  0  0
 72 62  1  0  0  0  0
 73 68  1  0  0  0  0
 28 74  1  6  0  0  0
  3 75  1  6  0  0  0
  1 76  1  1  0  0  0
 29 77  1  6  0  0  0
 42 78  1  6  0  0  0
  7  3  1  0  0  0  0
 36  9  1  0  0  0  0
 26  6  1  0  0  0  0
 31 23  1  0  0  0  0
 45 28  1  0  0  0  0
 56 61  2  0  0  0  0
 11 21  1  0  0  0  0
 22 27  1  0  0  0  0
M  END
>  <IDNUMBER>
F3395-2902

>  <Chemical_Name>
(1'R,2R,4'S,5S,6R,8'R,10'E,12'S,13'S,14'E,16'E,20'R,21'R,24'S)-6-[(2S)-butan-2-yl]-24'-hydroxy-12'-{[(2R,4S,5S,6S)-5-{[(2S,4S,5S,6S)-5-hydroxy-4-methoxy-6-methyloxan-2-yl]oxy}-4-methoxy-6-methyloxan-2-yl]oxy}-5,11',13',22'-tetramethyl-2'-oxo-3',7',19'-trioxaspiro[oxane-2,6'-tetracyclo[15.6.1.1?,?.0??,??]pentacosane]-10',14',16',22'-tetraen-21'-yl N-(4-methoxyphenyl)carbamate

>  <PriceCoeff>
7.00

>  <CAS>
3054372-06-1

>  <MW>
1 024.26

>  <Description>
solid

>  <FSP3>
0.71

>  <clogP>
7.02

>  <TPSA>
197.39

>  <Acceptor>
16

>  <Donor>
3

>  <RotBonds>
12

>  <HAC>
73

$$$$
F3395-2903
  Mrv2219 10102508112D          

 78 85  0  0  1  0            999 V2000
    5.1595   -5.2198    0.0000 C   0  0  2  0  0  0  0  0  0  0  0  0
    4.3905   -5.6167    0.0000 C   0  0  1  0  0  0  0  0  0  0  0  0
    4.3905   -6.4423    0.0000 C   0  0  1  0  0  0  0  0  0  0  0  0
    5.1666   -4.4118    0.0000 C   0  0  0  0  0  0  0  0  0  0  0  0
    5.8470   -5.6450    0.0000 C   0  0  0  0  0  0  0  0  0  0  0  0
    6.6053   -1.9915    0.0000 C   0  0  2  0  0  0  0  0  0  0  0  0
    5.1241   -6.8569    0.0000 C   0  0  1  0  0  0  0  0  0  0  0  0
    5.8187   -6.4423    0.0000 C   0  0  0  0  0  0  0  0  0  0  0  0
    3.5755   -6.6656    0.0000 O   0  0  0  0  0  0  0  0  0  0  0  0
    3.6995   -5.2977    0.0000 C   0  0  0  0  0  0  0  0  0  0  0  0
   -0.5492   -2.7038    0.0000 C   0  0  2  0  0  0  0  0  0  0  0  0
    7.3070   -2.4380    0.0000 O   0  0  0  0  0  0  0  0  0  0  0  0
   -1.9561   -2.6932    0.0000 C   0  0  2  0  0  0  0  0  0  0  0  0
    0.8930   -1.8959    0.0000 C   0  0  2  0  0  0  0  0  0  0  0  0
    5.8682   -3.9901    0.0000 O   0  0  0  0  0  0  0  0  0  0  0  0
    5.7868   -8.2956    0.0000 C   0  0  0  0  0  0  0  0  0  0  0  0
    0.1949   -1.4990    0.0000 O   0  0  0  0  0  0  0  0  0  0  0  0
   -2.6648   -3.0972    0.0000 O   0  0  0  0  0  0  0  0  0  0  0  0
    0.8859   -2.7215    0.0000 C   0  0  0  0  0  0  0  0  0  0  0  0
   -1.9419   -1.8604    0.0000 C   0  0  0  0  0  0  0  0  0  0  0  0
    0.1843   -3.1361    0.0000 C   0  0  2  0  0  0  0  0  0  0  0  0
   -3.3452   -1.8959    0.0000 C   0  0  2  0  0  0  0  0  0  0  0  0
    2.3317   -1.9065    0.0000 C   0  0  1  0  0  0  0  0  0  0  0  0
   -0.5386   -1.9171    0.0000 C   0  0  1  0  0  0  0  0  0  0  0  0
    6.6053   -2.8101    0.0000 C   0  0  0  0  0  0  0  0  0  0  0  0
    5.8895   -1.5557    0.0000 O   0  0  0  0  0  0  0  0  0  0  0  0
   -2.6541   -1.4706    0.0000 C   0  0  1  0  0  0  0  0  0  0  0  0
    8.0476   -2.0128    0.0000 C   0  0  1  0  0  0  0  0  0  0  0  0
    5.8682   -3.2035    0.0000 C   0  0  2  0  0  0  0  0  0  0  0  0
   -3.3558   -2.6719    0.0000 C   0  0  2  0  0  0  0  0  0  0  0  0
    3.0617   -1.5025    0.0000 C   0  0  0  0  0  0  0  0  0  0  0  0
    5.1241   -7.6542    0.0000 O   0  0  0  0  0  0  0  0  0  0  0  0
   -1.2402   -3.1290    0.0000 O   0  0  0  0  0  0  0  0  0  0  0  0
    1.6372   -1.5238    0.0000 O   0  0  0  0  0  0  0  0  0  0  0  0
    3.7456   -1.9278    0.0000 C   0  0  0  0  0  0  0  0  0  0  0  0
    5.2658   -9.1886    0.0000 N   0  0  0  0  0  0  0  0  0  0  0  0
    3.0015   -8.4764    0.0000 C   0  0  0  0  0  0  0  0  0  0  0  0
    3.1680   -5.9250    0.0000 C   0  0  0  0  0  0  0  0  0  0  0  0
    3.8307   -8.4764    0.0000 C   0  0  0  0  0  0  0  0  0  0  0  0
    3.7208   -4.3905    0.0000 C   0  0  0  0  0  0  0  0  0  0  0  0
    4.4154   -3.9689    0.0000 O   0  0  0  0  0  0  0  0  0  0  0  0
    3.0227   -3.9583    0.0000 C   0  0  0  0  0  0  0  0  0  0  0  0
    4.2453   -9.1957    0.0000 C   0  0  0  0  0  0  0  0  0  0  0  0
    5.1702   -2.7889    0.0000 C   0  0  0  0  0  0  0  0  0  0  0  0
    5.1985   -1.9561    0.0000 C   0  0  1  0  0  0  0  0  0  0  0  0
    2.5975   -9.1957    0.0000 C   0  0  0  0  0  0  0  0  0  0  0  0
    6.7187   -8.0511    0.0000 O   0  0  0  0  0  0  0  0  0  0  0  0
    2.3175   -2.7463    0.0000 C   0  0  2  0  0  0  0  0  0  0  0  0
    8.0476   -1.1942    0.0000 C   0  0  2  0  0  0  0  0  0  0  0  0
    3.0404   -3.1609    0.0000 C   0  0  0  0  0  0  0  0  0  0  0  0
    4.4154   -4.8619    0.0000 O   0  0  0  0  0  0  0  0  0  0  0  0
    6.6160   -1.1588    0.0000 C   0  0  0  0  0  0  0  0  0  0  0  0
    3.0015   -9.9009    0.0000 C   0  0  0  0  0  0  0  0  0  0  0  0
    7.3247   -0.7903    0.0000 C   0  0  0  0  0  0  0  0  0  0  0  0
    4.4579   -1.5238    0.0000 C   0  0  0  0  0  0  0  0  0  0  0  0
    8.7279   -2.4487    0.0000 C   0  0  2  0  0  0  0  0  0  0  0  0
    2.5869   -7.7712    0.0000 Cl  0  0  0  0  0  0  0  0  0  0  0  0
   -4.0574   -1.4883    0.0000 O   0  0  0  0  0  0  0  0  0  0  0  0
    3.8307   -9.9009    0.0000 C   0  0  0  0  0  0  0  0  0  0  0  0
    1.7683   -9.1957    0.0000 Cl  0  0  0  0  0  0  0  0  0  0  0  0
    0.1701   -3.9122    0.0000 O   0  0  0  0  0  0  0  0  0  0  0  0
   -2.6329   -0.6627    0.0000 O   0  0  0  0  0  0  0  0  0  0  0  0
    6.5628   -6.8392    0.0000 C   0  0  0  0  0  0  0  0  0  0  0  0
    3.0759   -0.6521    0.0000 C   0  0  0  0  0  0  0  0  0  0  0  0
   -1.2332   -1.5557    0.0000 C   0  0  0  0  0  0  0  0  0  0  0  0
   -4.0929   -3.0404    0.0000 C   0  0  0  0  0  0  0  0  0  0  0  0
    1.5946   -3.1574    0.0000 C   0  0  0  0  0  0  0  0  0  0  0  0
    8.7528   -0.8186    0.0000 C   0  0  0  0  0  0  0  0  0  0  0  0
    8.7279   -3.2849    0.0000 C   0  0  0  0  0  0  0  0  0  0  0  0
    9.4863   -2.0341    0.0000 C   0  0  0  0  0  0  0  0  0  0  0  0
    0.8398   -4.3161    0.0000 C   0  0  0  0  0  0  0  0  0  0  0  0
   -1.8994   -0.2658    0.0000 C   0  0  0  0  0  0  0  0  0  0  0  0
    9.4650   -3.6819    0.0000 C   0  0  0  0  0  0  0  0  0  0  0  0
    8.0086   -2.6400    0.0000 H   0  0  0  0  0  0  0  0  0  0  0  0
    4.3729   -7.2219    0.0000 H   0  0  0  0  0  0  0  0  0  0  0  0
    5.9569   -4.8087    0.0000 H   0  0  0  0  0  0  0  0  0  0  0  0
    6.6053   -3.6287    0.0000 H   0  0  0  0  0  0  0  0  0  0  0  0
    5.2198   -1.0879    0.0000 H   0  0  0  0  0  0  0  0  0  0  0  0
  2  1  1  0  0  0  0
  3  2  1  0  0  0  0
  4  1  1  0  0  0  0
  5  1  1  0  0  0  0
  6 25  1  0  0  0  0
  7  8  1  0  0  0  0
  8  5  2  0  0  0  0
  9  3  1  0  0  0  0
 10  2  1  0  0  0  0
 11 24  1  0  0  0  0
  6 12  1  6  0  0  0
 13 33  1  6  0  0  0
 14 34  1  1  0  0  0
 15  4  1  0  0  0  0
 16 32  1  0  0  0  0
 17 14  1  0  0  0  0
 18 13  1  0  0  0  0
 19 14  1  0  0  0  0
 20 13  1  0  0  0  0
 21 19  1  0  0  0  0
 22 30  1  0  0  0  0
 23 48  1  0  0  0  0
 24 17  1  0  0  0  0
 25 29  1  0  0  0  0
 26 45  1  0  0  0  0
 27 20  1  0  0  0  0
 28 12  1  0  0  0  0
 29 15  1  0  0  0  0
 30 18  1  0  0  0  0
 31 35  2  0  0  0  0
  7 32  1  1  0  0  0
 11 33  1  1  0  0  0
 23 34  1  6  0  0  0
 35 55  1  0  0  0  0
 36 16  1  0  0  0  0
 37 39  1  0  0  0  0
 38 10  1  0  0  0  0
 39 43  2  0  0  0  0
 40 10  2  0  0  0  0
 41  4  2  0  0  0  0
 42 40  1  0  0  0  0
 43 36  1  0  0  0  0
 44 29  1  0  0  0  0
 45 44  1  0  0  0  0
 46 53  1  0  0  0  0
 47 16  2  0  0  0  0
 48 50  1  0  0  0  0
 49 54  1  0  0  0  0
 50 42  2  0  0  0  0
  2 51  1  6  0  0  0
  6 52  1  1  0  0  0
 53 59  2  0  0  0  0
 54 52  1  0  0  0  0
 55 45  1  0  0  0  0
 56 28  1  0  0  0  0
 57 37  1  0  0  0  0
 22 58  1  6  0  0  0
 59 43  1  0  0  0  0
 60 46  1  0  0  0  0
 21 61  1  6  0  0  0
 27 62  1  1  0  0  0
 63  8  1  0  0  0  0
 64 31  1  0  0  0  0
 24 65  1  6  0  0  0
 30 66  1  1  0  0  0
 48 67  1  6  0  0  0
 49 68  1  6  0  0  0
 69 56  1  0  0  0  0
 56 70  1  1  0  0  0
 71 61  1  0  0  0  0
 72 62  1  0  0  0  0
 73 69  1  0  0  0  0
 28 74  1  6  0  0  0
  3 75  1  6  0  0  0
  1 76  1  1  0  0  0
 29 77  1  6  0  0  0
 45 78  1  6  0  0  0
  7  3  1  0  0  0  0
 38  9  1  0  0  0  0
 26  6  1  0  0  0  0
 31 23  1  0  0  0  0
 49 28  1  0  0  0  0
 46 37  2  0  0  0  0
 11 21  1  0  0  0  0
 22 27  1  0  0  0  0
M  END
>  <IDNUMBER>
F3395-2903

>  <Chemical_Name>
(1'R,2R,4'S,5S,6R,8'R,10'E,12'S,13'S,14'E,16'E,20'R,21'R,24'S)-6-[(2S)-butan-2-yl]-24'-hydroxy-12'-{[(2R,4S,5S,6S)-5-{[(2S,4S,5S,6S)-5-hydroxy-4-methoxy-6-methyloxan-2-yl]oxy}-4-methoxy-6-methyloxan-2-yl]oxy}-5,11',13',22'-tetramethyl-2'-oxo-3',7',19'-trioxaspiro[oxane-2,6'-tetracyclo[15.6.1.1?,?.0??,??]pentacosane]-10',14',16',22'-tetraen-21'-yl N-(3,4-dichlorophenyl)carbamate

>  <PriceCoeff>
7.00

>  <CAS>
3054372-03-8

>  <MW>
1 063.11

>  <Description>
solid

>  <FSP3>
0.71

>  <clogP>
8.56

>  <TPSA>
188.16

>  <Acceptor>
15

>  <Donor>
3

>  <RotBonds>
11

>  <HAC>
73

$$$$
F3395-2907
  Mrv2219 10102508112D          

 70 77  0  0  0  0            999 V2000
    2.4625    0.2250    0.0000 C   0  0  2  0  0  0  0  0  0  0  0  0
    1.6917   -0.1667    0.0000 C   0  0  1  0  0  0  0  0  0  0  0  0
    1.6917   -0.9917    0.0000 C   0  0  1  0  0  0  0  0  0  0  0  0
    2.4792    1.0333    0.0000 C   0  0  0  0  0  0  0  0  0  0  0  0
    3.1542   -0.2000    0.0000 C   0  0  0  0  0  0  0  0  0  0  0  0
    3.9125    3.4583    0.0000 C   0  0  2  0  0  0  0  0  0  0  0  0
    2.4292   -1.4042    0.0000 C   0  0  1  0  0  0  0  0  0  0  0  0
    3.1250   -0.9917    0.0000 C   0  0  0  0  0  0  0  0  0  0  0  0
    0.8792   -1.2167    0.0000 O   0  0  0  0  0  0  0  0  0  0  0  0
    1.0042    0.1500    0.0000 C   0  0  0  0  0  0  0  0  0  0  0  0
    2.4292   -2.2167    0.0000 O   0  0  0  0  0  0  0  0  0  0  0  0
   -3.2458    2.7458    0.0000 C   0  0  2  0  0  0  0  0  0  0  0  0
    4.6167    3.0208    0.0000 O   0  0  0  0  0  0  0  0  0  0  0  0
   -4.6625    2.7583    0.0000 C   0  0  2  0  0  0  0  0  0  0  0  0
   -1.8125    3.5500    0.0000 C   0  0  2  0  0  0  0  0  0  0  0  0
    3.1750    1.4583    0.0000 O   0  0  0  0  0  0  0  0  0  0  0  0
    3.1000   -2.8542    0.0000 C   0  0  0  0  0  0  0  0  0  0  0  0
   -2.5083    3.9583    0.0000 O   0  0  0  0  0  0  0  0  0  0  0  0
   -5.3750    2.3458    0.0000 O   0  0  0  0  0  0  0  0  0  0  0  0
   -1.8208    2.7333    0.0000 C   0  0  0  0  0  0  0  0  0  0  0  0
   -4.6458    3.5958    0.0000 C   0  0  0  0  0  0  0  0  0  0  0  0
   -2.5208    2.3208    0.0000 C   0  0  2  0  0  0  0  0  0  0  0  0
   -6.0417    3.5500    0.0000 C   0  0  2  0  0  0  0  0  0  0  0  0
   -0.3708    3.5458    0.0000 C   0  0  1  0  0  0  0  0  0  0  0  0
   -3.2375    3.5333    0.0000 C   0  0  1  0  0  0  0  0  0  0  0  0
    3.9125    2.6333    0.0000 C   0  0  0  0  0  0  0  0  0  0  0  0
    3.2000    3.9000    0.0000 O   0  0  0  0  0  0  0  0  0  0  0  0
   -5.3500    3.9833    0.0000 C   0  0  1  0  0  0  0  0  0  0  0  0
    5.3625    3.4458    0.0000 C   0  0  1  0  0  0  0  0  0  0  0  0
    3.1750    2.2583    0.0000 C   0  0  2  0  0  0  0  0  0  0  0  0
   -6.0542    2.7833    0.0000 C   0  0  2  0  0  0  0  0  0  0  0  0
    0.3750    3.9458    0.0000 C   0  0  0  0  0  0  0  0  0  0  0  0
   -3.9583    2.3208    0.0000 O   0  0  0  0  0  0  0  0  0  0  0  0
   -1.0708    3.9333    0.0000 O   0  0  0  0  0  0  0  0  0  0  0  0
    1.0625    3.5208    0.0000 C   0  0  0  0  0  0  0  0  0  0  0  0
    0.4667   -0.4875    0.0000 C   0  0  0  0  0  0  0  0  0  0  0  0
    1.0167    1.0583    0.0000 C   0  0  0  0  0  0  0  0  0  0  0  0
    1.7250    1.4833    0.0000 O   0  0  0  0  0  0  0  0  0  0  0  0
    0.3250    1.4875    0.0000 C   0  0  0  0  0  0  0  0  0  0  0  0
    2.4792    2.6583    0.0000 C   0  0  0  0  0  0  0  0  0  0  0  0
    2.4917    3.5000    0.0000 C   0  0  1  0  0  0  0  0  0  0  0  0
    4.0292   -2.6042    0.0000 O   0  0  0  0  0  0  0  0  0  0  0  0
   -0.3875    2.7083    0.0000 C   0  0  2  0  0  0  0  0  0  0  0  0
    5.3625    4.2500    0.0000 C   0  0  2  0  0  0  0  0  0  0  0  0
    0.3417    2.2875    0.0000 C   0  0  0  0  0  0  0  0  0  0  0  0
    1.7250    0.5958    0.0000 O   0  0  0  0  0  0  0  0  0  0  0  0
    3.9167    4.2917    0.0000 C   0  0  0  0  0  0  0  0  0  0  0  0
    2.5792   -3.7542    0.0000 C   0  0  0  0  0  0  0  0  0  0  0  0
    4.6250    4.6542    0.0000 C   0  0  0  0  0  0  0  0  0  0  0  0
    1.3417   -4.4667    0.0000 C   0  0  0  0  0  0  0  0  0  0  0  0
    1.7542   -5.1792    0.0000 C   0  0  0  0  0  0  0  0  0  0  0  0
    1.7542    3.9333    0.0000 C   0  0  0  0  0  0  0  0  0  0  0  0
    6.0417    2.9958    0.0000 C   0  0  2  0  0  0  0  0  0  0  0  0
   -6.7625    3.9583    0.0000 O   0  0  0  0  0  0  0  0  0  0  0  0
   -2.5250    1.5333    0.0000 O   0  0  0  0  0  0  0  0  0  0  0  0
   -5.3458    4.7750    0.0000 O   0  0  0  0  0  0  0  0  0  0  0  0
    3.8667   -1.4042    0.0000 C   0  0  0  0  0  0  0  0  0  0  0  0
    0.3792    4.7917    0.0000 C   0  0  0  0  0  0  0  0  0  0  0  0
   -3.9250    3.9000    0.0000 C   0  0  0  0  0  0  0  0  0  0  0  0
   -6.7917    2.4083    0.0000 C   0  0  0  0  0  0  0  0  0  0  0  0
    1.7542   -3.7542    0.0000 C   0  0  0  0  0  0  0  0  0  0  0  0
    2.5792   -5.1792    0.0000 C   0  0  0  0  0  0  0  0  0  0  0  0
   -1.1000    2.2875    0.0000 C   0  0  0  0  0  0  0  0  0  0  0  0
    6.0667    4.6292    0.0000 C   0  0  0  0  0  0  0  0  0  0  0  0
    2.9917   -4.4667    0.0000 C   0  0  0  0  0  0  0  0  0  0  0  0
    6.0417    2.1708    0.0000 C   0  0  0  0  0  0  0  0  0  0  0  0
    6.7917    3.4208    0.0000 C   0  0  0  0  0  0  0  0  0  0  0  0
   -4.6083    5.1792    0.0000 C   0  0  0  0  0  0  0  0  0  0  0  0
   -1.8583    1.1333    0.0000 C   0  0  0  0  0  0  0  0  0  0  0  0
    6.7792    1.7708    0.0000 C   0  0  0  0  0  0  0  0  0  0  0  0
  2  1  1  0  0  0  0
  3  2  1  0  0  0  0
  4  1  1  0  0  0  0
  1  5  1  6  0  0  0
  6 26  1  1  0  0  0
  7  8  1  0  0  0  0
  8  5  2  0  0  0  0
  3  9  1  1  0  0  0
 10  2  1  0  0  0  0
  7 11  1  1  0  0  0
 12 22  1  0  0  0  0
 13  6  1  0  0  0  0
 14 33  1  6  0  0  0
 15 34  1  1  0  0  0
 16  4  1  0  0  0  0
 17 11  1  0  0  0  0
 18 15  1  0  0  0  0
 19 14  1  0  0  0  0
 20 15  1  0  0  0  0
 21 14  1  0  0  0  0
 22 20  1  0  0  0  0
 23 28  1  0  0  0  0
 24 43  1  0  0  0  0
 25 18  1  0  0  0  0
 30 26  1  1  0  0  0
 27 41  1  0  0  0  0
 28 21  1  0  0  0  0
 29 13  1  1  0  0  0
 30 16  1  0  0  0  0
 31 19  1  0  0  0  0
 32 35  2  0  0  0  0
 12 33  1  1  0  0  0
 24 34  1  6  0  0  0
 35 52  1  0  0  0  0
 36 10  1  0  0  0  0
 37 10  2  0  0  0  0
 38  4  2  0  0  0  0
 39 37  1  0  0  0  0
 40 30  1  0  0  0  0
 41 40  1  0  0  0  0
 42 17  2  0  0  0  0
 43 45  1  0  0  0  0
 44 49  1  0  0  0  0
 45 39  2  0  0  0  0
  2 46  1  6  0  0  0
 47  6  1  0  0  0  0
 48 17  1  0  0  0  0
 49 47  1  0  0  0  0
 50 61  1  0  0  0  0
 51 62  1  0  0  0  0
 41 52  1  1  0  0  0
 53 29  1  0  0  0  0
 23 54  1  6  0  0  0
 22 55  1  6  0  0  0
 28 56  1  1  0  0  0
 57  8  1  0  0  0  0
 58 32  1  0  0  0  0
 25 59  1  6  0  0  0
 31 60  1  1  0  0  0
 61 48  1  0  0  0  0
 62 65  1  0  0  0  0
 43 63  1  6  0  0  0
 44 64  1  6  0  0  0
 65 48  1  0  0  0  0
 66 53  1  0  0  0  0
 53 67  1  1  0  0  0
 68 56  1  0  0  0  0
 69 55  1  0  0  0  0
 70 66  1  0  0  0  0
  7  3  1  0  0  0  0
 36  9  1  0  0  0  0
 27  6  1  0  0  0  0
 32 24  1  0  0  0  0
 44 29  1  0  0  0  0
 51 50  2  0  0  0  0
 12 25  1  0  0  0  0
 23 31  1  0  0  0  0
M  END
>  <IDNUMBER>
F3395-2907

>  <Chemical_Name>
(1'R,2R,4'S,5S,6R,8'R,10'E,12'S,13'S,14'E,16'E,20'R,21'R,24'S)-6-[(2S)-butan-2-yl]-24'-hydroxy-12'-{[(2R,4S,5S,6S)-5-{[(2S,4S,5S,6S)-5-hydroxy-4-methoxy-6-methyloxan-2-yl]oxy}-4-methoxy-6-methyloxan-2-yl]oxy}-5,11',13',22'-tetramethyl-2'-oxo-3',7',19'-trioxaspiro[oxane-2,6'-tetracyclo[15.6.1.1?,?.0??,??]pentacosane]-10',14',16',22'-tetraen-21'-yl cyclohex-3-ene-1-carboxylate

>  <PriceCoeff>
7.00

>  <MW>
983.24

>  <Description>
solid

>  <FSP3>
0.78

>  <clogP>
7.18

>  <TPSA>
176.13

>  <Acceptor>
15

>  <Donor>
2

>  <RotBonds>
11

>  <HAC>
70

$$$$
F3395-2908
  Mrv2219 10102508112D          

 67 73  0  0  0  0            999 V2000
    2.4542   -0.0417    0.0000 C   0  0  2  0  0  0  0  0  0  0  0  0
    1.6792   -0.4250    0.0000 C   0  0  1  0  0  0  0  0  0  0  0  0
    1.6792   -1.2542    0.0000 C   0  0  1  0  0  0  0  0  0  0  0  0
    2.4667    0.7625    0.0000 C   0  0  0  0  0  0  0  0  0  0  0  0
    3.1500   -0.4625    0.0000 C   0  0  0  0  0  0  0  0  0  0  0  0
    3.9042    3.1875    0.0000 C   0  0  2  0  0  0  0  0  0  0  0  0
    2.4167   -1.6625    0.0000 C   0  0  1  0  0  0  0  0  0  0  0  0
    3.1167   -1.2542    0.0000 C   0  0  0  0  0  0  0  0  0  0  0  0
    0.8792   -1.4750    0.0000 O   0  0  0  0  0  0  0  0  0  0  0  0
    0.9917   -0.1125    0.0000 C   0  0  0  0  0  0  0  0  0  0  0  0
    2.4167   -2.4750    0.0000 O   0  0  0  0  0  0  0  0  0  0  0  0
   -3.2458    2.4750    0.0000 C   0  0  2  0  0  0  0  0  0  0  0  0
    4.6042    2.7458    0.0000 O   0  0  0  0  0  0  0  0  0  0  0  0
   -4.6583    2.4833    0.0000 C   0  0  2  0  0  0  0  0  0  0  0  0
   -1.8125    3.2833    0.0000 C   0  0  2  0  0  0  0  0  0  0  0  0
    3.1667    1.1875    0.0000 O   0  0  0  0  0  0  0  0  0  0  0  0
    3.0917   -3.1125    0.0000 C   0  0  0  0  0  0  0  0  0  0  0  0
   -2.5083    3.6875    0.0000 O   0  0  0  0  0  0  0  0  0  0  0  0
   -5.3708    2.0792    0.0000 O   0  0  0  0  0  0  0  0  0  0  0  0
   -1.8208    2.4583    0.0000 C   0  0  0  0  0  0  0  0  0  0  0  0
   -4.6458    3.3208    0.0000 C   0  0  0  0  0  0  0  0  0  0  0  0
   -2.5125    2.0500    0.0000 C   0  0  2  0  0  0  0  0  0  0  0  0
   -6.0333    3.2833    0.0000 C   0  0  2  0  0  0  0  0  0  0  0  0
   -0.3708    3.2708    0.0000 C   0  0  1  0  0  0  0  0  0  0  0  0
   -3.2333    3.2667    0.0000 C   0  0  1  0  0  0  0  0  0  0  0  0
    3.9042    2.3625    0.0000 C   0  0  0  0  0  0  0  0  0  0  0  0
    3.1917    3.6250    0.0000 O   0  0  0  0  0  0  0  0  0  0  0  0
   -5.3458    3.7125    0.0000 C   0  0  1  0  0  0  0  0  0  0  0  0
    5.3500    3.1708    0.0000 C   0  0  1  0  0  0  0  0  0  0  0  0
    3.1667    1.9833    0.0000 C   0  0  2  0  0  0  0  0  0  0  0  0
   -6.0417    2.5083    0.0000 C   0  0  2  0  0  0  0  0  0  0  0  0
    0.3667    3.6708    0.0000 C   0  0  0  0  0  0  0  0  0  0  0  0
   -3.9458    2.0500    0.0000 O   0  0  0  0  0  0  0  0  0  0  0  0
   -1.0708    3.6667    0.0000 O   0  0  0  0  0  0  0  0  0  0  0  0
    1.0542    3.2458    0.0000 C   0  0  0  0  0  0  0  0  0  0  0  0
    0.4625   -0.7500    0.0000 C   0  0  0  0  0  0  0  0  0  0  0  0
    1.0125    0.7875    0.0000 C   0  0  0  0  0  0  0  0  0  0  0  0
    1.7167    1.2125    0.0000 O   0  0  0  0  0  0  0  0  0  0  0  0
    0.3167    1.2208    0.0000 C   0  0  0  0  0  0  0  0  0  0  0  0
    2.4667    2.3958    0.0000 C   0  0  0  0  0  0  0  0  0  0  0  0
    2.4875    3.2333    0.0000 C   0  0  1  0  0  0  0  0  0  0  0  0
    4.0167   -2.8667    0.0000 O   0  0  0  0  0  0  0  0  0  0  0  0
   -0.3875    2.4333    0.0000 C   0  0  2  0  0  0  0  0  0  0  0  0
    5.3500    3.9833    0.0000 C   0  0  2  0  0  0  0  0  0  0  0  0
    0.3375    2.0208    0.0000 C   0  0  0  0  0  0  0  0  0  0  0  0
    1.7167    0.3250    0.0000 O   0  0  0  0  0  0  0  0  0  0  0  0
    3.9125    4.0167    0.0000 C   0  0  0  0  0  0  0  0  0  0  0  0
    4.6125    4.3792    0.0000 C   0  0  0  0  0  0  0  0  0  0  0  0
    2.5750   -4.0042    0.0000 C   0  0  0  0  0  0  0  0  0  0  0  0
    1.7500    3.6667    0.0000 C   0  0  0  0  0  0  0  0  0  0  0  0
    6.0292    2.7208    0.0000 C   0  0  2  0  0  0  0  0  0  0  0  0
   -6.7500    3.6875    0.0000 O   0  0  0  0  0  0  0  0  0  0  0  0
   -2.5208    1.2625    0.0000 O   0  0  0  0  0  0  0  0  0  0  0  0
   -5.3333    4.5000    0.0000 O   0  0  0  0  0  0  0  0  0  0  0  0
    3.8625   -1.6625    0.0000 C   0  0  0  0  0  0  0  0  0  0  0  0
    0.3792    4.5167    0.0000 C   0  0  0  0  0  0  0  0  0  0  0  0
   -3.9208    3.6250    0.0000 C   0  0  0  0  0  0  0  0  0  0  0  0
   -6.7792    2.1417    0.0000 C   0  0  0  0  0  0  0  0  0  0  0  0
   -1.1000    2.0208    0.0000 C   0  0  0  0  0  0  0  0  0  0  0  0
    6.0542    4.3542    0.0000 C   0  0  0  0  0  0  0  0  0  0  0  0
    6.0292    1.9000    0.0000 C   0  0  0  0  0  0  0  0  0  0  0  0
    3.0917   -4.9042    0.0000 C   0  0  0  0  0  0  0  0  0  0  0  0
    1.5375   -4.0083    0.0000 C   0  0  0  0  0  0  0  0  0  0  0  0
    6.7792    3.1458    0.0000 C   0  0  0  0  0  0  0  0  0  0  0  0
   -1.8583    0.8708    0.0000 C   0  0  0  0  0  0  0  0  0  0  0  0
   -4.5958    4.9042    0.0000 C   0  0  0  0  0  0  0  0  0  0  0  0
    6.7667    1.5000    0.0000 C   0  0  0  0  0  0  0  0  0  0  0  0
  2  1  1  0  0  0  0
  3  2  1  0  0  0  0
  4  1  1  0  0  0  0
  1  5  1  6  0  0  0
  6 26  1  1  0  0  0
  7  8  1  0  0  0  0
  8  5  2  0  0  0  0
  3  9  1  1  0  0  0
 10  2  1  0  0  0  0
  7 11  1  1  0  0  0
 12 22  1  0  0  0  0
 13  6  1  0  0  0  0
 14 33  1  6  0  0  0
 15 34  1  1  0  0  0
 16  4  1  0  0  0  0
 17 11  1  0  0  0  0
 18 15  1  0  0  0  0
 19 14  1  0  0  0  0
 20 15  1  0  0  0  0
 21 14  1  0  0  0  0
 22 20  1  0  0  0  0
 23 28  1  0  0  0  0
 24 43  1  0  0  0  0
 25 18  1  0  0  0  0
 30 26  1  1  0  0  0
 27 41  1  0  0  0  0
 28 21  1  0  0  0  0
 29 13  1  1  0  0  0
 30 16  1  0  0  0  0
 31 19  1  0  0  0  0
 32 35  2  0  0  0  0
 12 33  1  1  0  0  0
 24 34  1  6  0  0  0
 35 50  1  0  0  0  0
 36 10  1  0  0  0  0
 37 10  2  0  0  0  0
 38  4  2  0  0  0  0
 39 37  1  0  0  0  0
 40 30  1  0  0  0  0
 41 40  1  0  0  0  0
 42 17  2  0  0  0  0
 43 45  1  0  0  0  0
 44 48  1  0  0  0  0
 45 39  2  0  0  0  0
  2 46  1  6  0  0  0
 47  6  1  0  0  0  0
 48 47  1  0  0  0  0
 49 17  1  0  0  0  0
 41 50  1  1  0  0  0
 51 29  1  0  0  0  0
 23 52  1  6  0  0  0
 22 53  1  6  0  0  0
 28 54  1  1  0  0  0
 55  8  1  0  0  0  0
 56 32  1  0  0  0  0
 25 57  1  6  0  0  0
 31 58  1  1  0  0  0
 43 59  1  6  0  0  0
 44 60  1  6  0  0  0
 61 51  1  0  0  0  0
 62 49  1  0  0  0  0
 63 49  1  0  0  0  0
 51 64  1  1  0  0  0
 65 53  1  0  0  0  0
 66 54  1  0  0  0  0
 67 61  1  0  0  0  0
  7  3  1  0  0  0  0
 36  9  1  0  0  0  0
 27  6  1  0  0  0  0
 32 24  1  0  0  0  0
 44 29  1  0  0  0  0
 12 25  1  0  0  0  0
 23 31  1  0  0  0  0
M  END
>  <IDNUMBER>
F3395-2908

>  <Chemical_Name>
(1'R,2R,4'S,5S,6R,8'R,10'E,12'S,13'S,14'E,16'E,20'R,21'R,24'S)-6-[(2S)-butan-2-yl]-24'-hydroxy-12'-{[(2R,4S,5S,6S)-5-{[(2S,4S,5S,6S)-5-hydroxy-4-methoxy-6-methyloxan-2-yl]oxy}-4-methoxy-6-methyloxan-2-yl]oxy}-5,11',13',22'-tetramethyl-2'-oxo-3',7',19'-trioxaspiro[oxane-2,6'-tetracyclo[15.6.1.1?,?.0??,??]pentacosane]-10',14',16',22'-tetraen-21'-yl 2-methylpropanoate

>  <PriceCoeff>
7.00

>  <CAS>
3047733-93-4

>  <MW>
945.19

>  <Description>
solid

>  <FSP3>
0.81

>  <clogP>
6.47

>  <TPSA>
176.13

>  <Acceptor>
15

>  <Donor>
2

>  <RotBonds>
11

>  <HAC>
67

$$$$
F3395-2909
  Mrv2219 10102508112D          

 67 74  0  0  0  0            999 V2000
    2.4625   -0.0792    0.0000 C   0  0  2  0  0  0  0  0  0  0  0  0
    1.6917   -0.4667    0.0000 C   0  0  1  0  0  0  0  0  0  0  0  0
    1.6917   -1.3000    0.0000 C   0  0  1  0  0  0  0  0  0  0  0  0
    2.4792    0.7333    0.0000 C   0  0  0  0  0  0  0  0  0  0  0  0
    3.1542   -0.5000    0.0000 C   0  0  0  0  0  0  0  0  0  0  0  0
    3.9125    3.1583    0.0000 C   0  0  2  0  0  0  0  0  0  0  0  0
    2.4292   -1.7042    0.0000 C   0  0  1  0  0  0  0  0  0  0  0  0
    3.1250   -1.3000    0.0000 C   0  0  0  0  0  0  0  0  0  0  0  0
    0.8792   -1.5167    0.0000 O   0  0  0  0  0  0  0  0  0  0  0  0
    1.0042   -0.1542    0.0000 C   0  0  0  0  0  0  0  0  0  0  0  0
    2.4292   -2.5167    0.0000 O   0  0  0  0  0  0  0  0  0  0  0  0
   -3.2458    2.4458    0.0000 C   0  0  2  0  0  0  0  0  0  0  0  0
    3.1000   -3.1542    0.0000 C   0  0  0  0  0  0  0  0  0  0  0  0
    4.6167    2.7125    0.0000 O   0  0  0  0  0  0  0  0  0  0  0  0
   -4.6625    2.4583    0.0000 C   0  0  2  0  0  0  0  0  0  0  0  0
   -1.8125    3.2500    0.0000 C   0  0  2  0  0  0  0  0  0  0  0  0
    3.1750    1.1583    0.0000 O   0  0  0  0  0  0  0  0  0  0  0  0
   -2.5083    3.6583    0.0000 O   0  0  0  0  0  0  0  0  0  0  0  0
   -5.3750    2.0458    0.0000 O   0  0  0  0  0  0  0  0  0  0  0  0
   -1.8208    2.4250    0.0000 C   0  0  0  0  0  0  0  0  0  0  0  0
   -4.6458    3.2958    0.0000 C   0  0  0  0  0  0  0  0  0  0  0  0
    2.5792   -4.0542    0.0000 C   0  0  0  0  0  0  0  0  0  0  0  0
   -2.5208    2.0208    0.0000 C   0  0  2  0  0  0  0  0  0  0  0  0
   -6.0417    3.2500    0.0000 C   0  0  2  0  0  0  0  0  0  0  0  0
   -0.3708    3.2458    0.0000 C   0  0  1  0  0  0  0  0  0  0  0  0
   -3.2375    3.2333    0.0000 C   0  0  1  0  0  0  0  0  0  0  0  0
    3.9125    2.3333    0.0000 C   0  0  0  0  0  0  0  0  0  0  0  0
    3.2000    3.5958    0.0000 O   0  0  0  0  0  0  0  0  0  0  0  0
   -5.3500    3.6833    0.0000 C   0  0  1  0  0  0  0  0  0  0  0  0
    5.3625    3.1458    0.0000 C   0  0  1  0  0  0  0  0  0  0  0  0
    3.1750    1.9583    0.0000 C   0  0  2  0  0  0  0  0  0  0  0  0
   -6.0542    2.4750    0.0000 C   0  0  2  0  0  0  0  0  0  0  0  0
    0.3750    3.6458    0.0000 C   0  0  0  0  0  0  0  0  0  0  0  0
   -3.9583    2.0208    0.0000 O   0  0  0  0  0  0  0  0  0  0  0  0
    1.8667   -4.4667    0.0000 C   0  0  0  0  0  0  0  0  0  0  0  0
    2.5792   -4.8792    0.0000 C   0  0  0  0  0  0  0  0  0  0  0  0
   -1.0708    3.6333    0.0000 O   0  0  0  0  0  0  0  0  0  0  0  0
    1.0625    3.2125    0.0000 C   0  0  0  0  0  0  0  0  0  0  0  0
    0.4667   -0.7917    0.0000 C   0  0  0  0  0  0  0  0  0  0  0  0
    1.0167    0.7583    0.0000 C   0  0  0  0  0  0  0  0  0  0  0  0
    1.7250    1.1833    0.0000 O   0  0  0  0  0  0  0  0  0  0  0  0
    0.3250    1.1875    0.0000 C   0  0  0  0  0  0  0  0  0  0  0  0
    2.4792    2.3583    0.0000 C   0  0  0  0  0  0  0  0  0  0  0  0
    2.4917    3.1958    0.0000 C   0  0  1  0  0  0  0  0  0  0  0  0
    4.0292   -2.9125    0.0000 O   0  0  0  0  0  0  0  0  0  0  0  0
   -0.3875    2.4000    0.0000 C   0  0  2  0  0  0  0  0  0  0  0  0
    5.3625    3.9583    0.0000 C   0  0  2  0  0  0  0  0  0  0  0  0
    0.3417    1.9833    0.0000 C   0  0  0  0  0  0  0  0  0  0  0  0
    1.7250    0.2875    0.0000 O   0  0  0  0  0  0  0  0  0  0  0  0
    3.9167    3.9958    0.0000 C   0  0  0  0  0  0  0  0  0  0  0  0
    4.6250    4.3542    0.0000 C   0  0  0  0  0  0  0  0  0  0  0  0
    1.7542    3.6333    0.0000 C   0  0  0  0  0  0  0  0  0  0  0  0
    6.0417    2.6875    0.0000 C   0  0  2  0  0  0  0  0  0  0  0  0
   -6.7625    3.6583    0.0000 O   0  0  0  0  0  0  0  0  0  0  0  0
   -2.5250    1.2333    0.0000 O   0  0  0  0  0  0  0  0  0  0  0  0
   -5.3458    4.4667    0.0000 O   0  0  0  0  0  0  0  0  0  0  0  0
    3.8667   -1.7042    0.0000 C   0  0  0  0  0  0  0  0  0  0  0  0
    0.3792    4.4917    0.0000 C   0  0  0  0  0  0  0  0  0  0  0  0
   -3.9250    3.5958    0.0000 C   0  0  0  0  0  0  0  0  0  0  0  0
   -6.7917    2.1083    0.0000 C   0  0  0  0  0  0  0  0  0  0  0  0
   -1.1000    1.9833    0.0000 C   0  0  0  0  0  0  0  0  0  0  0  0
    6.0667    4.3292    0.0000 C   0  0  0  0  0  0  0  0  0  0  0  0
    6.0417    1.8708    0.0000 C   0  0  0  0  0  0  0  0  0  0  0  0
    6.8000    3.1125    0.0000 C   0  0  0  0  0  0  0  0  0  0  0  0
   -1.8583    0.8333    0.0000 C   0  0  0  0  0  0  0  0  0  0  0  0
   -4.6083    4.8792    0.0000 C   0  0  0  0  0  0  0  0  0  0  0  0
    6.7792    1.4708    0.0000 C   0  0  0  0  0  0  0  0  0  0  0  0
  2  1  1  0  0  0  0
  3  2  1  0  0  0  0
  4  1  1  0  0  0  0
  1  5  1  6  0  0  0
  6 27  1  1  0  0  0
  7  8  1  0  0  0  0
  8  5  2  0  0  0  0
  3  9  1  1  0  0  0
 10  2  1  0  0  0  0
  7 11  1  1  0  0  0
 12 23  1  0  0  0  0
 13 11  1  0  0  0  0
 14  6  1  0  0  0  0
 15 34  1  6  0  0  0
 16 37  1  1  0  0  0
 17  4  1  0  0  0  0
 18 16  1  0  0  0  0
 19 15  1  0  0  0  0
 20 16  1  0  0  0  0
 21 15  1  0  0  0  0
 22 13  1  0  0  0  0
 23 20  1  0  0  0  0
 24 29  1  0  0  0  0
 25 46  1  0  0  0  0
 26 18  1  0  0  0  0
 31 27  1  1  0  0  0
 28 44  1  0  0  0  0
 29 21  1  0  0  0  0
 30 14  1  1  0  0  0
 31 17  1  0  0  0  0
 32 19  1  0  0  0  0
 33 38  2  0  0  0  0
 12 34  1  1  0  0  0
 35 22  1  0  0  0  0
 36 22  1  0  0  0  0
 25 37  1  6  0  0  0
 38 52  1  0  0  0  0
 39 10  1  0  0  0  0
 40 10  2  0  0  0  0
 41  4  2  0  0  0  0
 42 40  1  0  0  0  0
 43 31  1  0  0  0  0
 44 43  1  0  0  0  0
 45 13  2  0  0  0  0
 46 48  1  0  0  0  0
 47 51  1  0  0  0  0
 48 42  2  0  0  0  0
  2 49  1  6  0  0  0
 50  6  1  0  0  0  0
 51 50  1  0  0  0  0
 44 52  1  1  0  0  0
 53 30  1  0  0  0  0
 24 54  1  6  0  0  0
 23 55  1  6  0  0  0
 29 56  1  1  0  0  0
 57  8  1  0  0  0  0
 58 33  1  0  0  0  0
 26 59  1  6  0  0  0
 32 60  1  1  0  0  0
 46 61  1  6  0  0  0
 47 62  1  6  0  0  0
 63 53  1  0  0  0  0
 53 64  1  1  0  0  0
 65 55  1  0  0  0  0
 66 56  1  0  0  0  0
 67 63  1  0  0  0  0
  7  3  1  0  0  0  0
 39  9  1  0  0  0  0
 28  6  1  0  0  0  0
 36 35  1  0  0  0  0
 33 25  1  0  0  0  0
 47 30  1  0  0  0  0
 12 26  1  0  0  0  0
 24 32  1  0  0  0  0
M  END
>  <IDNUMBER>
F3395-2909

>  <Chemical_Name>
(1'R,2R,4'S,5S,6R,8'R,10'E,12'S,13'S,14'E,16'E,20'R,21'R,24'S)-6-[(2S)-butan-2-yl]-24'-hydroxy-12'-{[(2R,4S,5S,6S)-5-{[(2S,4S,5S,6S)-5-hydroxy-4-methoxy-6-methyloxan-2-yl]oxy}-4-methoxy-6-methyloxan-2-yl]oxy}-5,11',13',22'-tetramethyl-2'-oxo-3',7',19'-trioxaspiro[oxane-2,6'-tetracyclo[15.6.1.1?,?.0??,??]pentacosane]-10',14',16',22'-tetraen-21'-yl cyclopropanecarboxylate

>  <PriceCoeff>
7.00

>  <MW>
943.17

>  <Description>
solid

>  <FSP3>
0.81

>  <clogP>
6.22

>  <TPSA>
176.13

>  <Acceptor>
15

>  <Donor>
2

>  <RotBonds>
11

>  <HAC>
67

$$$$
F3395-2910
  Mrv2219 10102508112D          

 71 78  0  0  0  0            999 V2000
    2.4619    0.5207    0.0000 C   0  0  2  0  0  0  0  0  0  0  0  0
    1.6913    0.1333    0.0000 C   0  0  1  0  0  0  0  0  0  0  0  0
    1.6913   -0.6998    0.0000 C   0  0  1  0  0  0  0  0  0  0  0  0
    2.4786    1.3330    0.0000 C   0  0  0  0  0  0  0  0  0  0  0  0
    3.1534    0.0958    0.0000 C   0  0  0  0  0  0  0  0  0  0  0  0
    3.9115    3.7574    0.0000 C   0  0  2  0  0  0  0  0  0  0  0  0
    2.4286   -1.1039    0.0000 C   0  0  1  0  0  0  0  0  0  0  0  0
    3.1242   -0.6998    0.0000 C   0  0  0  0  0  0  0  0  0  0  0  0
    0.8790   -0.9165    0.0000 O   0  0  0  0  0  0  0  0  0  0  0  0
    1.0040    0.4457    0.0000 C   0  0  0  0  0  0  0  0  0  0  0  0
   -3.2450    3.0451    0.0000 C   0  0  2  0  0  0  0  0  0  0  0  0
    4.6156    3.3117    0.0000 O   0  0  0  0  0  0  0  0  0  0  0  0
   -4.6614    3.0492    0.0000 C   0  0  2  0  0  0  0  0  0  0  0  0
   -1.8121    3.8449    0.0000 C   0  0  2  0  0  0  0  0  0  0  0  0
    3.1742    1.7496    0.0000 O   0  0  0  0  0  0  0  0  0  0  0  0
   -2.5077    4.2490    0.0000 O   0  0  0  0  0  0  0  0  0  0  0  0
   -5.3737    2.6451    0.0000 O   0  0  0  0  0  0  0  0  0  0  0  0
   -1.8204    3.0243    0.0000 C   0  0  0  0  0  0  0  0  0  0  0  0
   -4.6447    3.8948    0.0000 C   0  0  0  0  0  0  0  0  0  0  0  0
   -2.5202    2.6202    0.0000 C   0  0  2  0  0  0  0  0  0  0  0  0
   -6.0402    3.8449    0.0000 C   0  0  2  0  0  0  0  0  0  0  0  0
   -0.3707    3.8366    0.0000 C   0  0  1  0  0  0  0  0  0  0  0  0
   -3.2367    3.8324    0.0000 C   0  0  1  0  0  0  0  0  0  0  0  0
    3.9115    2.9326    0.0000 C   0  0  0  0  0  0  0  0  0  0  0  0
    3.1992    4.1907    0.0000 O   0  0  0  0  0  0  0  0  0  0  0  0
   -5.3487    4.2739    0.0000 C   0  0  1  0  0  0  0  0  0  0  0  0
    5.3612    3.7366    0.0000 C   0  0  1  0  0  0  0  0  0  0  0  0
    3.1742    2.5494    0.0000 C   0  0  2  0  0  0  0  0  0  0  0  0
   -6.0527    3.0825    0.0000 C   0  0  2  0  0  0  0  0  0  0  0  0
    0.3749    4.2282    0.0000 C   0  0  0  0  0  0  0  0  0  0  0  0
   -3.9573    2.6202    0.0000 O   0  0  0  0  0  0  0  0  0  0  0  0
   -1.0705    4.2157    0.0000 O   0  0  0  0  0  0  0  0  0  0  0  0
    2.4286   -1.9162    0.0000 O   0  0  0  0  0  0  0  0  0  0  0  0
    3.0992   -2.5536    0.0000 C   0  0  0  0  0  0  0  0  0  0  0  0
    1.0622    3.8116    0.0000 C   0  0  0  0  0  0  0  0  0  0  0  0
    1.3414   -4.1740    0.0000 C   0  0  0  0  0  0  0  0  0  0  0  0
    0.4666   -0.1917    0.0000 C   0  0  0  0  0  0  0  0  0  0  0  0
    2.5786   -3.4534    0.0000 C   0  0  0  0  0  0  0  0  0  0  0  0
    1.7538   -3.4534    0.0000 C   0  0  0  0  0  0  0  0  0  0  0  0
    1.0164    1.3580    0.0000 C   0  0  0  0  0  0  0  0  0  0  0  0
    1.6788   -4.9280    0.0000 O   0  0  0  0  0  0  0  0  0  0  0  0
    1.7246    1.7829    0.0000 O   0  0  0  0  0  0  0  0  0  0  0  0
    0.3249    1.7871    0.0000 C   0  0  0  0  0  0  0  0  0  0  0  0
    2.4786    2.9576    0.0000 C   0  0  0  0  0  0  0  0  0  0  0  0
    2.4911    3.7949    0.0000 C   0  0  1  0  0  0  0  0  0  0  0  0
   -0.3874    2.9993    0.0000 C   0  0  2  0  0  0  0  0  0  0  0  0
    0.5249   -4.2532    0.0000 C   0  0  0  0  0  0  0  0  0  0  0  0
    5.3612    4.5406    0.0000 C   0  0  2  0  0  0  0  0  0  0  0  0
    1.0664   -5.4779    0.0000 C   0  0  0  0  0  0  0  0  0  0  0  0
    0.3416    2.5827    0.0000 C   0  0  0  0  0  0  0  0  0  0  0  0
    1.7246    0.8873    0.0000 O   0  0  0  0  0  0  0  0  0  0  0  0
    3.9157    4.5906    0.0000 C   0  0  0  0  0  0  0  0  0  0  0  0
    0.3541   -5.0655    0.0000 C   0  0  0  0  0  0  0  0  0  0  0  0
    4.0282   -2.3119    0.0000 O   0  0  0  0  0  0  0  0  0  0  0  0
    4.6239    4.9530    0.0000 C   0  0  0  0  0  0  0  0  0  0  0  0
    1.7538    4.2157    0.0000 C   0  0  0  0  0  0  0  0  0  0  0  0
    6.0402    3.2950    0.0000 C   0  0  2  0  0  0  0  0  0  0  0  0
   -6.7608    4.2490    0.0000 O   0  0  0  0  0  0  0  0  0  0  0  0
   -2.5244    1.8328    0.0000 O   0  0  0  0  0  0  0  0  0  0  0  0
   -5.3445    5.0738    0.0000 O   0  0  0  0  0  0  0  0  0  0  0  0
    3.8657   -1.1039    0.0000 C   0  0  0  0  0  0  0  0  0  0  0  0
    0.3791    5.0904    0.0000 C   0  0  0  0  0  0  0  0  0  0  0  0
   -3.9240    4.1907    0.0000 C   0  0  0  0  0  0  0  0  0  0  0  0
   -6.7900    2.7076    0.0000 C   0  0  0  0  0  0  0  0  0  0  0  0
   -1.0997    2.5827    0.0000 C   0  0  0  0  0  0  0  0  0  0  0  0
    6.0652    4.9280    0.0000 C   0  0  0  0  0  0  0  0  0  0  0  0
    6.0402    2.4619    0.0000 C   0  0  0  0  0  0  0  0  0  0  0  0
    6.7900    3.7116    0.0000 C   0  0  0  0  0  0  0  0  0  0  0  0
   -1.8578    1.4329    0.0000 C   0  0  0  0  0  0  0  0  0  0  0  0
   -4.6072    5.4779    0.0000 C   0  0  0  0  0  0  0  0  0  0  0  0
    6.7775    2.0703    0.0000 C   0  0  0  0  0  0  0  0  0  0  0  0
  2  1  1  0  0  0  0
  3  2  1  0  0  0  0
  4  1  1  0  0  0  0
  1  5  1  6  0  0  0
  6 24  1  1  0  0  0
  7  8  1  0  0  0  0
  8  5  2  0  0  0  0
  3  9  1  1  0  0  0
 10  2  1  0  0  0  0
 11 20  1  0  0  0  0
 12  6  1  0  0  0  0
 13 31  1  6  0  0  0
 14 32  1  1  0  0  0
 15  4  1  0  0  0  0
 16 14  1  0  0  0  0
 17 13  1  0  0  0  0
 18 14  1  0  0  0  0
 19 13  1  0  0  0  0
 20 18  1  0  0  0  0
 21 26  1  0  0  0  0
 22 46  1  0  0  0  0
 23 16  1  0  0  0  0
 28 24  1  1  0  0  0
 25 45  1  0  0  0  0
 26 19  1  0  0  0  0
 27 12  1  1  0  0  0
 28 15  1  0  0  0  0
 29 17  1  0  0  0  0
 30 35  2  0  0  0  0
 11 31  1  1  0  0  0
 22 32  1  6  0  0  0
  7 33  1  1  0  0  0
 34 33  1  0  0  0  0
 35 56  1  0  0  0  0
 36 39  1  0  0  0  0
 37 10  1  0  0  0  0
 38 34  1  0  0  0  0
 39 38  2  0  0  0  0
 40 10  2  0  0  0  0
 41 36  1  0  0  0  0
 42  4  2  0  0  0  0
 43 40  1  0  0  0  0
 44 28  1  0  0  0  0
 45 44  1  0  0  0  0
 46 50  1  0  0  0  0
 47 36  2  0  0  0  0
 48 55  1  0  0  0  0
 49 41  1  0  0  0  0
 50 43  2  0  0  0  0
  2 51  1  6  0  0  0
 52  6  1  0  0  0  0
 53 47  1  0  0  0  0
 54 34  2  0  0  0  0
 55 52  1  0  0  0  0
 45 56  1  1  0  0  0
 57 27  1  0  0  0  0
 21 58  1  6  0  0  0
 20 59  1  6  0  0  0
 26 60  1  1  0  0  0
 61  8  1  0  0  0  0
 62 30  1  0  0  0  0
 23 63  1  6  0  0  0
 29 64  1  1  0  0  0
 46 65  1  6  0  0  0
 48 66  1  6  0  0  0
 67 57  1  0  0  0  0
 57 68  1  1  0  0  0
 69 59  1  0  0  0  0
 70 60  1  0  0  0  0
 71 67  1  0  0  0  0
  7  3  1  0  0  0  0
 37  9  1  0  0  0  0
 25  6  1  0  0  0  0
 30 22  1  0  0  0  0
 48 27  1  0  0  0  0
 49 53  2  0  0  0  0
 11 23  1  0  0  0  0
 21 29  1  0  0  0  0
M  END
>  <IDNUMBER>
F3395-2910

>  <Chemical_Name>
(1'R,2R,4'S,5S,6R,8'R,10'E,12'S,13'S,14'E,16'E,20'R,21'R,24'S)-6-[(2S)-butan-2-yl]-24'-hydroxy-12'-{[(2R,4S,5S,6S)-5-{[(2S,4S,5S,6S)-5-hydroxy-4-methoxy-6-methyloxan-2-yl]oxy}-4-methoxy-6-methyloxan-2-yl]oxy}-5,11',13',22'-tetramethyl-2'-oxo-3',7',19'-trioxaspiro[oxane-2,6'-tetracyclo[15.6.1.1?,?.0??,??]pentacosane]-10',14',16',22'-tetraen-21'-yl (2E)-3-(furan-2-yl)prop-2-enoate

>  <PriceCoeff>
7.00

>  <MW>
995.21

>  <Description>
solid

>  <FSP3>
0.71

>  <clogP>
6.98

>  <TPSA>
189.27

>  <Acceptor>
16

>  <Donor>
2

>  <RotBonds>
12

>  <HAC>
71

$$$$
F3395-2911
  Mrv2219 10102508112D          

 71 78  0  0  0  0            999 V2000
    2.4619    0.5207    0.0000 C   0  0  2  0  0  0  0  0  0  0  0  0
    1.6913    0.1333    0.0000 C   0  0  1  0  0  0  0  0  0  0  0  0
    1.6913   -0.6998    0.0000 C   0  0  1  0  0  0  0  0  0  0  0  0
    2.4786    1.3330    0.0000 C   0  0  0  0  0  0  0  0  0  0  0  0
    3.1534    0.0958    0.0000 C   0  0  0  0  0  0  0  0  0  0  0  0
    3.9115    3.7574    0.0000 C   0  0  2  0  0  0  0  0  0  0  0  0
    2.4286   -1.1039    0.0000 C   0  0  1  0  0  0  0  0  0  0  0  0
    3.1242   -0.6998    0.0000 C   0  0  0  0  0  0  0  0  0  0  0  0
    0.8790   -0.9165    0.0000 O   0  0  0  0  0  0  0  0  0  0  0  0
    1.0040    0.4457    0.0000 C   0  0  0  0  0  0  0  0  0  0  0  0
   -3.2450    3.0451    0.0000 C   0  0  2  0  0  0  0  0  0  0  0  0
    4.6156    3.3117    0.0000 O   0  0  0  0  0  0  0  0  0  0  0  0
   -4.6614    3.0492    0.0000 C   0  0  2  0  0  0  0  0  0  0  0  0
   -1.8121    3.8449    0.0000 C   0  0  2  0  0  0  0  0  0  0  0  0
    3.1742    1.7496    0.0000 O   0  0  0  0  0  0  0  0  0  0  0  0
   -2.5077    4.2490    0.0000 O   0  0  0  0  0  0  0  0  0  0  0  0
   -5.3737    2.6451    0.0000 O   0  0  0  0  0  0  0  0  0  0  0  0
   -1.8204    3.0243    0.0000 C   0  0  0  0  0  0  0  0  0  0  0  0
   -4.6447    3.8948    0.0000 C   0  0  0  0  0  0  0  0  0  0  0  0
   -2.5202    2.6202    0.0000 C   0  0  2  0  0  0  0  0  0  0  0  0
   -6.0402    3.8449    0.0000 C   0  0  2  0  0  0  0  0  0  0  0  0
   -0.3707    3.8366    0.0000 C   0  0  1  0  0  0  0  0  0  0  0  0
   -3.2367    3.8324    0.0000 C   0  0  1  0  0  0  0  0  0  0  0  0
    3.9115    2.9326    0.0000 C   0  0  0  0  0  0  0  0  0  0  0  0
    3.1992    4.1907    0.0000 O   0  0  0  0  0  0  0  0  0  0  0  0
   -5.3487    4.2739    0.0000 C   0  0  1  0  0  0  0  0  0  0  0  0
    5.3612    3.7366    0.0000 C   0  0  1  0  0  0  0  0  0  0  0  0
    3.1742    2.5494    0.0000 C   0  0  2  0  0  0  0  0  0  0  0  0
   -6.0527    3.0825    0.0000 C   0  0  2  0  0  0  0  0  0  0  0  0
    0.3749    4.2282    0.0000 C   0  0  0  0  0  0  0  0  0  0  0  0
   -3.9573    2.6202    0.0000 O   0  0  0  0  0  0  0  0  0  0  0  0
   -1.0705    4.2157    0.0000 O   0  0  0  0  0  0  0  0  0  0  0  0
    2.4286   -1.9162    0.0000 O   0  0  0  0  0  0  0  0  0  0  0  0
    3.0992   -2.5536    0.0000 C   0  0  0  0  0  0  0  0  0  0  0  0
    1.0622    3.8116    0.0000 C   0  0  0  0  0  0  0  0  0  0  0  0
    1.3414   -4.1740    0.0000 C   0  0  0  0  0  0  0  0  0  0  0  0
    0.4666   -0.1917    0.0000 C   0  0  0  0  0  0  0  0  0  0  0  0
    1.6788   -4.9280    0.0000 S   0  0  0  0  0  0  0  0  0  0  0  0
    2.5786   -3.4534    0.0000 C   0  0  0  0  0  0  0  0  0  0  0  0
    1.7538   -3.4534    0.0000 C   0  0  0  0  0  0  0  0  0  0  0  0
    1.0164    1.3580    0.0000 C   0  0  0  0  0  0  0  0  0  0  0  0
    1.7246    1.7829    0.0000 O   0  0  0  0  0  0  0  0  0  0  0  0
    0.3249    1.7871    0.0000 C   0  0  0  0  0  0  0  0  0  0  0  0
    2.4786    2.9576    0.0000 C   0  0  0  0  0  0  0  0  0  0  0  0
    2.4911    3.7949    0.0000 C   0  0  1  0  0  0  0  0  0  0  0  0
    1.0664   -5.4779    0.0000 C   0  0  0  0  0  0  0  0  0  0  0  0
   -0.3874    2.9993    0.0000 C   0  0  2  0  0  0  0  0  0  0  0  0
    0.5249   -4.2532    0.0000 C   0  0  0  0  0  0  0  0  0  0  0  0
    5.3612    4.5406    0.0000 C   0  0  2  0  0  0  0  0  0  0  0  0
    0.3416    2.5827    0.0000 C   0  0  0  0  0  0  0  0  0  0  0  0
    1.7246    0.8873    0.0000 O   0  0  0  0  0  0  0  0  0  0  0  0
    3.9157    4.5906    0.0000 C   0  0  0  0  0  0  0  0  0  0  0  0
    0.3541   -5.0655    0.0000 C   0  0  0  0  0  0  0  0  0  0  0  0
    4.0282   -2.3119    0.0000 O   0  0  0  0  0  0  0  0  0  0  0  0
    4.6239    4.9530    0.0000 C   0  0  0  0  0  0  0  0  0  0  0  0
    1.7538    4.2157    0.0000 C   0  0  0  0  0  0  0  0  0  0  0  0
    6.0402    3.2950    0.0000 C   0  0  2  0  0  0  0  0  0  0  0  0
   -6.7608    4.2490    0.0000 O   0  0  0  0  0  0  0  0  0  0  0  0
   -2.5244    1.8328    0.0000 O   0  0  0  0  0  0  0  0  0  0  0  0
   -5.3445    5.0738    0.0000 O   0  0  0  0  0  0  0  0  0  0  0  0
    3.8657   -1.1039    0.0000 C   0  0  0  0  0  0  0  0  0  0  0  0
    0.3791    5.0904    0.0000 C   0  0  0  0  0  0  0  0  0  0  0  0
   -3.9240    4.1907    0.0000 C   0  0  0  0  0  0  0  0  0  0  0  0
   -6.7900    2.7076    0.0000 C   0  0  0  0  0  0  0  0  0  0  0  0
   -1.0997    2.5827    0.0000 C   0  0  0  0  0  0  0  0  0  0  0  0
    6.0652    4.9280    0.0000 C   0  0  0  0  0  0  0  0  0  0  0  0
    6.0402    2.4619    0.0000 C   0  0  0  0  0  0  0  0  0  0  0  0
    6.7900    3.7116    0.0000 C   0  0  0  0  0  0  0  0  0  0  0  0
   -1.8578    1.4329    0.0000 C   0  0  0  0  0  0  0  0  0  0  0  0
   -4.6072    5.4779    0.0000 C   0  0  0  0  0  0  0  0  0  0  0  0
    6.7775    2.0703    0.0000 C   0  0  0  0  0  0  0  0  0  0  0  0
  2  1  1  0  0  0  0
  3  2  1  0  0  0  0
  4  1  1  0  0  0  0
  1  5  1  6  0  0  0
  6 24  1  1  0  0  0
  7  8  1  0  0  0  0
  8  5  2  0  0  0  0
  3  9  1  1  0  0  0
 10  2  1  0  0  0  0
 11 20  1  0  0  0  0
 12  6  1  0  0  0  0
 13 31  1  6  0  0  0
 14 32  1  1  0  0  0
 15  4  1  0  0  0  0
 16 14  1  0  0  0  0
 17 13  1  0  0  0  0
 18 14  1  0  0  0  0
 19 13  1  0  0  0  0
 20 18  1  0  0  0  0
 21 26  1  0  0  0  0
 22 47  1  0  0  0  0
 23 16  1  0  0  0  0
 28 24  1  1  0  0  0
 25 45  1  0  0  0  0
 26 19  1  0  0  0  0
 27 12  1  1  0  0  0
 28 15  1  0  0  0  0
 29 17  1  0  0  0  0
 30 35  2  0  0  0  0
 11 31  1  1  0  0  0
 22 32  1  6  0  0  0
  7 33  1  1  0  0  0
 34 33  1  0  0  0  0
 35 56  1  0  0  0  0
 36 40  1  0  0  0  0
 37 10  1  0  0  0  0
 38 36  1  0  0  0  0
 39 34  1  0  0  0  0
 40 39  2  0  0  0  0
 41 10  2  0  0  0  0
 42  4  2  0  0  0  0
 43 41  1  0  0  0  0
 44 28  1  0  0  0  0
 45 44  1  0  0  0  0
 46 38  1  0  0  0  0
 47 50  1  0  0  0  0
 48 36  2  0  0  0  0
 49 55  1  0  0  0  0
 50 43  2  0  0  0  0
  2 51  1  6  0  0  0
 52  6  1  0  0  0  0
 53 48  1  0  0  0  0
 54 34  2  0  0  0  0
 55 52  1  0  0  0  0
 45 56  1  1  0  0  0
 57 27  1  0  0  0  0
 21 58  1  6  0  0  0
 20 59  1  6  0  0  0
 26 60  1  1  0  0  0
 61  8  1  0  0  0  0
 62 30  1  0  0  0  0
 23 63  1  6  0  0  0
 29 64  1  1  0  0  0
 47 65  1  6  0  0  0
 49 66  1  6  0  0  0
 67 57  1  0  0  0  0
 57 68  1  1  0  0  0
 69 59  1  0  0  0  0
 70 60  1  0  0  0  0
 71 67  1  0  0  0  0
  7  3  1  0  0  0  0
 37  9  1  0  0  0  0
 25  6  1  0  0  0  0
 30 22  1  0  0  0  0
 49 27  1  0  0  0  0
 46 53  2  0  0  0  0
 11 23  1  0  0  0  0
 21 29  1  0  0  0  0
M  END
>  <IDNUMBER>
F3395-2911

>  <Chemical_Name>
(1'R,2R,4'S,5S,6R,8'R,10'E,12'S,13'S,14'E,16'E,20'R,21'R,24'S)-6-[(2S)-butan-2-yl]-24'-hydroxy-12'-{[(2R,4S,5S,6S)-5-{[(2S,4S,5S,6S)-5-hydroxy-4-methoxy-6-methyloxan-2-yl]oxy}-4-methoxy-6-methyloxan-2-yl]oxy}-5,11',13',22'-tetramethyl-2'-oxo-3',7',19'-trioxaspiro[oxane-2,6'-tetracyclo[15.6.1.1?,?.0??,??]pentacosane]-10',14',16',22'-tetraen-21'-yl (2E)-3-(thiophen-2-yl)prop-2-enoate

>  <PriceCoeff>
7.00

>  <MW>
1 011.27

>  <Description>
solid

>  <FSP3>
0.71

>  <clogP>
7.45

>  <TPSA>
176.13

>  <Acceptor>
15

>  <Donor>
2

>  <RotBonds>
12

>  <HAC>
71

>  <PPDS>
+

$$$$
F3395-2913
  Mrv2219 10102508112D          

 69 76  0  0  0  0            999 V2000
    2.4625    0.2000    0.0000 C   0  0  2  0  0  0  0  0  0  0  0  0
    1.6917   -0.1917    0.0000 C   0  0  1  0  0  0  0  0  0  0  0  0
    1.6917   -1.0292    0.0000 C   0  0  1  0  0  0  0  0  0  0  0  0
    2.4792    1.0083    0.0000 C   0  0  0  0  0  0  0  0  0  0  0  0
    3.1542   -0.2292    0.0000 C   0  0  0  0  0  0  0  0  0  0  0  0
    3.9125    3.4333    0.0000 C   0  0  2  0  0  0  0  0  0  0  0  0
    2.4292   -1.4292    0.0000 C   0  0  1  0  0  0  0  0  0  0  0  0
    3.1250   -1.0292    0.0000 C   0  0  0  0  0  0  0  0  0  0  0  0
    2.8542   -3.8167    0.0000 C   0  0  0  0  0  0  0  0  0  0  0  0
    3.1000   -2.8875    0.0000 C   0  0  0  0  0  0  0  0  0  0  0  0
    0.8792   -1.2500    0.0000 O   0  0  0  0  0  0  0  0  0  0  0  0
    1.0042    0.1208    0.0000 C   0  0  0  0  0  0  0  0  0  0  0  0
    2.4292   -2.2500    0.0000 O   0  0  0  0  0  0  0  0  0  0  0  0
   -3.2500    2.7208    0.0000 C   0  0  2  0  0  0  0  0  0  0  0  0
    4.6167    2.9875    0.0000 O   0  0  0  0  0  0  0  0  0  0  0  0
   -4.6708    2.7250    0.0000 C   0  0  2  0  0  0  0  0  0  0  0  0
   -1.8208    3.5250    0.0000 C   0  0  2  0  0  0  0  0  0  0  0  0
    3.1750    1.4333    0.0000 O   0  0  0  0  0  0  0  0  0  0  0  0
   -2.5125    3.9333    0.0000 O   0  0  0  0  0  0  0  0  0  0  0  0
   -5.3833    2.3208    0.0000 O   0  0  0  0  0  0  0  0  0  0  0  0
   -1.8250    2.7042    0.0000 C   0  0  0  0  0  0  0  0  0  0  0  0
   -4.6542    3.5708    0.0000 C   0  0  0  0  0  0  0  0  0  0  0  0
   -2.5208    2.2958    0.0000 C   0  0  2  0  0  0  0  0  0  0  0  0
   -6.0458    3.5250    0.0000 C   0  0  2  0  0  0  0  0  0  0  0  0
   -0.3750    3.5208    0.0000 C   0  0  1  0  0  0  0  0  0  0  0  0
   -3.2458    3.5083    0.0000 C   0  0  1  0  0  0  0  0  0  0  0  0
    3.9125    2.6083    0.0000 C   0  0  0  0  0  0  0  0  0  0  0  0
    3.2000    3.8708    0.0000 O   0  0  0  0  0  0  0  0  0  0  0  0
   -5.3583    3.9583    0.0000 C   0  0  1  0  0  0  0  0  0  0  0  0
    5.3625    3.4167    0.0000 C   0  0  1  0  0  0  0  0  0  0  0  0
    3.1750    2.2250    0.0000 C   0  0  2  0  0  0  0  0  0  0  0  0
   -6.0542    2.7500    0.0000 C   0  0  2  0  0  0  0  0  0  0  0  0
    0.3750    3.9167    0.0000 C   0  0  0  0  0  0  0  0  0  0  0  0
   -3.9583    2.2958    0.0000 O   0  0  0  0  0  0  0  0  0  0  0  0
   -1.0708    3.9083    0.0000 O   0  0  0  0  0  0  0  0  0  0  0  0
    1.0625    3.4958    0.0000 C   0  0  0  0  0  0  0  0  0  0  0  0
    0.4667   -0.5167    0.0000 C   0  0  0  0  0  0  0  0  0  0  0  0
    2.9417   -5.1542    0.0000 S   0  0  0  0  0  0  0  0  0  0  0  0
    3.3792   -4.4542    0.0000 C   0  0  0  0  0  0  0  0  0  0  0  0
    2.0917   -4.1250    0.0000 C   0  0  0  0  0  0  0  0  0  0  0  0
    1.0167    1.0333    0.0000 C   0  0  0  0  0  0  0  0  0  0  0  0
    1.7250    1.4583    0.0000 O   0  0  0  0  0  0  0  0  0  0  0  0
    0.3250    1.4625    0.0000 C   0  0  0  0  0  0  0  0  0  0  0  0
    2.4792    2.6333    0.0000 C   0  0  0  0  0  0  0  0  0  0  0  0
    2.4917    3.4708    0.0000 C   0  0  1  0  0  0  0  0  0  0  0  0
    4.0292   -2.6375    0.0000 O   0  0  0  0  0  0  0  0  0  0  0  0
    2.1417   -4.9500    0.0000 C   0  0  0  0  0  0  0  0  0  0  0  0
   -0.3958    2.6750    0.0000 C   0  0  2  0  0  0  0  0  0  0  0  0
    5.3625    4.2167    0.0000 C   0  0  2  0  0  0  0  0  0  0  0  0
    0.3417    2.2583    0.0000 C   0  0  0  0  0  0  0  0  0  0  0  0
    1.7250    0.5625    0.0000 O   0  0  0  0  0  0  0  0  0  0  0  0
    3.9167    4.2625    0.0000 C   0  0  0  0  0  0  0  0  0  0  0  0
    4.6250    4.6250    0.0000 C   0  0  0  0  0  0  0  0  0  0  0  0
    1.7542    3.9083    0.0000 C   0  0  0  0  0  0  0  0  0  0  0  0
    6.0417    2.9625    0.0000 C   0  0  2  0  0  0  0  0  0  0  0  0
   -6.7625    3.9333    0.0000 O   0  0  0  0  0  0  0  0  0  0  0  0
   -2.5333    1.5083    0.0000 O   0  0  0  0  0  0  0  0  0  0  0  0
   -5.3458    4.7417    0.0000 O   0  0  0  0  0  0  0  0  0  0  0  0
    3.8667   -1.4292    0.0000 C   0  0  0  0  0  0  0  0  0  0  0  0
    0.3792    4.7625    0.0000 C   0  0  0  0  0  0  0  0  0  0  0  0
   -3.9333    3.8708    0.0000 C   0  0  0  0  0  0  0  0  0  0  0  0
   -6.7917    2.3833    0.0000 C   0  0  0  0  0  0  0  0  0  0  0  0
   -1.1083    2.2583    0.0000 C   0  0  0  0  0  0  0  0  0  0  0  0
    6.0667    4.5958    0.0000 C   0  0  0  0  0  0  0  0  0  0  0  0
    6.0417    2.1458    0.0000 C   0  0  0  0  0  0  0  0  0  0  0  0
    6.7917    3.3917    0.0000 C   0  0  0  0  0  0  0  0  0  0  0  0
   -4.6083    5.1542    0.0000 C   0  0  0  0  0  0  0  0  0  0  0  0
   -1.8583    1.1083    0.0000 C   0  0  0  0  0  0  0  0  0  0  0  0
    6.7792    1.7458    0.0000 C   0  0  0  0  0  0  0  0  0  0  0  0
  2  1  1  0  0  0  0
  3  2  1  0  0  0  0
  4  1  1  0  0  0  0
  1  5  1  6  0  0  0
  6 27  1  1  0  0  0
  7  8  1  0  0  0  0
  8  5  2  0  0  0  0
  9 10  1  0  0  0  0
 10 13  1  0  0  0  0
  3 11  1  1  0  0  0
 12  2  1  0  0  0  0
  7 13  1  1  0  0  0
 14 23  1  0  0  0  0
 15  6  1  0  0  0  0
 16 34  1  6  0  0  0
 17 35  1  1  0  0  0
 18  4  1  0  0  0  0
 19 17  1  0  0  0  0
 20 16  1  0  0  0  0
 21 17  1  0  0  0  0
 22 16  1  0  0  0  0
 23 21  1  0  0  0  0
 24 29  1  0  0  0  0
 25 48  1  0  0  0  0
 26 19  1  0  0  0  0
 31 27  1  1  0  0  0
 28 45  1  0  0  0  0
 29 22  1  0  0  0  0
 30 15  1  1  0  0  0
 31 18  1  0  0  0  0
 32 20  1  0  0  0  0
 33 36  2  0  0  0  0
 14 34  1  1  0  0  0
 25 35  1  6  0  0  0
 36 54  1  0  0  0  0
 37 12  1  0  0  0  0
 38 39  1  0  0  0  0
 39  9  2  0  0  0  0
 40  9  1  0  0  0  0
 41 12  2  0  0  0  0
 42  4  2  0  0  0  0
 43 41  1  0  0  0  0
 44 31  1  0  0  0  0
 45 44  1  0  0  0  0
 46 10  2  0  0  0  0
 47 40  2  0  0  0  0
 48 50  1  0  0  0  0
 49 53  1  0  0  0  0
 50 43  2  0  0  0  0
  2 51  1  6  0  0  0
 52  6  1  0  0  0  0
 53 52  1  0  0  0  0
 45 54  1  1  0  0  0
 55 30  1  0  0  0  0
 24 56  1  6  0  0  0
 23 57  1  6  0  0  0
 29 58  1  1  0  0  0
 59  8  1  0  0  0  0
 60 33  1  0  0  0  0
 26 61  1  6  0  0  0
 32 62  1  1  0  0  0
 48 63  1  6  0  0  0
 49 64  1  6  0  0  0
 65 55  1  0  0  0  0
 55 66  1  1  0  0  0
 67 58  1  0  0  0  0
 68 57  1  0  0  0  0
 69 65  1  0  0  0  0
  7  3  1  0  0  0  0
 37 11  1  0  0  0  0
 28  6  1  0  0  0  0
 38 47  1  0  0  0  0
 33 25  1  0  0  0  0
 49 30  1  0  0  0  0
 14 26  1  0  0  0  0
 24 32  1  0  0  0  0
M  END
>  <IDNUMBER>
F3395-2913

>  <Chemical_Name>
(1'R,2R,4'S,5S,6R,8'R,10'E,12'S,13'S,14'E,16'E,20'R,21'R,24'S)-6-[(2S)-butan-2-yl]-24'-hydroxy-12'-{[(2R,4S,5S,6S)-5-{[(2S,4S,5S,6S)-5-hydroxy-4-methoxy-6-methyloxan-2-yl]oxy}-4-methoxy-6-methyloxan-2-yl]oxy}-5,11',13',22'-tetramethyl-2'-oxo-3',7',19'-trioxaspiro[oxane-2,6'-tetracyclo[15.6.1.1?,?.0??,??]pentacosane]-10',14',16',22'-tetraen-21'-yl thiophene-3-carboxylate

>  <PriceCoeff>
7.00

>  <MW>
985.23

>  <Description>
solid

>  <FSP3>
0.74

>  <clogP>
7.08

>  <TPSA>
176.13

>  <Acceptor>
15

>  <Donor>
2

>  <RotBonds>
11

>  <HAC>
69

$$$$
F3395-2914
  Mrv2219 10102508112D          

 71 78  0  0  0  0            999 V2000
    2.4553    0.7253    0.0000 C   0  0  2  0  0  0  0  0  0  0  0  0
    1.6883    0.3377    0.0000 C   0  0  1  0  0  0  0  0  0  0  0  0
    1.6883   -0.4919    0.0000 C   0  0  1  0  0  0  0  0  0  0  0  0
    2.4761    1.5340    0.0000 C   0  0  0  0  0  0  0  0  0  0  0  0
    3.1556    0.3084    0.0000 C   0  0  0  0  0  0  0  0  0  0  0  0
    3.9060    3.9601    0.0000 C   0  0  2  0  0  0  0  0  0  0  0  0
    2.4261   -0.9004    0.0000 C   0  0  1  0  0  0  0  0  0  0  0  0
    3.1181   -0.4919    0.0000 C   0  0  0  0  0  0  0  0  0  0  0  0
    0.8796   -0.7128    0.0000 O   0  0  0  0  0  0  0  0  0  0  0  0
    1.0005    0.6503    0.0000 C   0  0  0  0  0  0  0  0  0  0  0  0
    2.4261   -1.7133    0.0000 O   0  0  0  0  0  0  0  0  0  0  0  0
   -3.2473    3.2473    0.0000 C   0  0  2  0  0  0  0  0  0  0  0  0
    4.6146    3.5224    0.0000 O   0  0  0  0  0  0  0  0  0  0  0  0
   -4.6646    3.2598    0.0000 C   0  0  2  0  0  0  0  0  0  0  0  0
   -1.8133    4.0436    0.0000 C   0  0  2  0  0  0  0  0  0  0  0  0
    3.1682    1.9592    0.0000 O   0  0  0  0  0  0  0  0  0  0  0  0
    3.0931   -2.3511    0.0000 C   0  0  0  0  0  0  0  0  0  0  0  0
   -2.5095    4.4520    0.0000 O   0  0  0  0  0  0  0  0  0  0  0  0
   -5.3775    2.8471    0.0000 O   0  0  0  0  0  0  0  0  0  0  0  0
   -1.8216    3.2348    0.0000 C   0  0  0  0  0  0  0  0  0  0  0  0
   -4.6479    4.0894    0.0000 C   0  0  0  0  0  0  0  0  0  0  0  0
   -2.5220    2.8221    0.0000 C   0  0  2  0  0  0  0  0  0  0  0  0
   -6.0445    4.0436    0.0000 C   0  0  2  0  0  0  0  0  0  0  0  0
   -0.3710    4.0311    0.0000 C   0  0  1  0  0  0  0  0  0  0  0  0
   -3.2390    4.0268    0.0000 C   0  0  1  0  0  0  0  0  0  0  0  0
    3.9060    3.1431    0.0000 C   0  0  0  0  0  0  0  0  0  0  0  0
    3.1932    4.3937    0.0000 O   0  0  0  0  0  0  0  0  0  0  0  0
   -5.3525    4.4729    0.0000 C   0  0  1  0  0  0  0  0  0  0  0  0
    5.3567    3.9476    0.0000 C   0  0  1  0  0  0  0  0  0  0  0  0
    3.1682    2.7596    0.0000 C   0  0  2  0  0  0  0  0  0  0  0  0
   -6.0570    3.2848    0.0000 C   0  0  2  0  0  0  0  0  0  0  0  0
    0.3669    4.4312    0.0000 C   0  0  0  0  0  0  0  0  0  0  0  0
   -3.9560    2.8221    0.0000 O   0  0  0  0  0  0  0  0  0  0  0  0
   -1.0713    4.4228    0.0000 O   0  0  0  0  0  0  0  0  0  0  0  0
    1.0547    4.0060    0.0000 C   0  0  0  0  0  0  0  0  0  0  0  0
    0.4669    0.0125    0.0000 C   0  0  0  0  0  0  0  0  0  0  0  0
    2.8555   -3.2807    0.0000 C   0  0  0  0  0  0  0  0  0  0  0  0
    1.0172    1.5590    0.0000 C   0  0  0  0  0  0  0  0  0  0  0  0
    1.7175    1.9842    0.0000 O   0  0  0  0  0  0  0  0  0  0  0  0
    0.3168    1.9967    0.0000 C   0  0  0  0  0  0  0  0  0  0  0  0
    2.4761    3.1682    0.0000 C   0  0  0  0  0  0  0  0  0  0  0  0
    2.4928    4.0018    0.0000 C   0  0  1  0  0  0  0  0  0  0  0  0
    4.0311   -2.1052    0.0000 O   0  0  0  0  0  0  0  0  0  0  0  0
   -0.3877    3.2098    0.0000 C   0  0  2  0  0  0  0  0  0  0  0  0
    5.3567    4.7522    0.0000 C   0  0  2  0  0  0  0  0  0  0  0  0
    0.3377    2.7888    0.0000 C   0  0  0  0  0  0  0  0  0  0  0  0
    1.7175    1.0963    0.0000 O   0  0  0  0  0  0  0  0  0  0  0  0
    3.9185    4.7939    0.0000 C   0  0  0  0  0  0  0  0  0  0  0  0
    2.0551   -3.5058    0.0000 C   0  0  0  0  0  0  0  0  0  0  0  0
    3.4433   -3.8643    0.0000 C   0  0  0  0  0  0  0  0  0  0  0  0
    4.6188    5.1566    0.0000 C   0  0  0  0  0  0  0  0  0  0  0  0
    1.7550    4.4228    0.0000 C   0  0  0  0  0  0  0  0  0  0  0  0
    6.0403    3.4974    0.0000 C   0  0  2  0  0  0  0  0  0  0  0  0
   -6.7573    4.4520    0.0000 O   0  0  0  0  0  0  0  0  0  0  0  0
    2.4428   -4.8814    0.0000 C   0  0  0  0  0  0  0  0  0  0  0  0
   -2.5262    2.0342    0.0000 O   0  0  0  0  0  0  0  0  0  0  0  0
   -5.3483    5.2774    0.0000 O   0  0  0  0  0  0  0  0  0  0  0  0
    3.2432   -4.6563    0.0000 C   0  0  0  0  0  0  0  0  0  0  0  0
    1.8551   -4.3062    0.0000 C   0  0  0  0  0  0  0  0  0  0  0  0
    2.2427   -5.6818    0.0000 F   0  0  0  0  0  0  0  0  0  0  0  0
    3.8685   -0.9004    0.0000 C   0  0  0  0  0  0  0  0  0  0  0  0
    0.3794    5.2941    0.0000 C   0  0  0  0  0  0  0  0  0  0  0  0
   -3.9268    4.3937    0.0000 C   0  0  0  0  0  0  0  0  0  0  0  0
   -6.7864    2.9096    0.0000 C   0  0  0  0  0  0  0  0  0  0  0  0
   -1.1005    2.7888    0.0000 C   0  0  0  0  0  0  0  0  0  0  0  0
    6.0653    5.1316    0.0000 C   0  0  0  0  0  0  0  0  0  0  0  0
    6.0403    2.6720    0.0000 C   0  0  0  0  0  0  0  0  0  0  0  0
    6.7906    3.9226    0.0000 C   0  0  0  0  0  0  0  0  0  0  0  0
   -4.6104    5.6818    0.0000 C   0  0  0  0  0  0  0  0  0  0  0  0
   -1.8592    1.6341    0.0000 C   0  0  0  0  0  0  0  0  0  0  0  0
    6.7781    2.2718    0.0000 C   0  0  0  0  0  0  0  0  0  0  0  0
  2  1  1  0  0  0  0
  3  2  1  0  0  0  0
  4  1  1  0  0  0  0
  1  5  1  6  0  0  0
  6 26  1  1  0  0  0
  7  8  1  0  0  0  0
  8  5  2  0  0  0  0
  3  9  1  1  0  0  0
 10  2  1  0  0  0  0
  7 11  1  1  0  0  0
 12 22  1  0  0  0  0
 13  6  1  0  0  0  0
 14 33  1  6  0  0  0
 15 34  1  1  0  0  0
 16  4  1  0  0  0  0
 17 11  1  0  0  0  0
 18 15  1  0  0  0  0
 19 14  1  0  0  0  0
 20 15  1  0  0  0  0
 21 14  1  0  0  0  0
 22 20  1  0  0  0  0
 23 28  1  0  0  0  0
 24 44  1  0  0  0  0
 25 18  1  0  0  0  0
 30 26  1  1  0  0  0
 27 42  1  0  0  0  0
 28 21  1  0  0  0  0
 29 13  1  1  0  0  0
 30 16  1  0  0  0  0
 31 19  1  0  0  0  0
 32 35  2  0  0  0  0
 12 33  1  1  0  0  0
 24 34  1  6  0  0  0
 35 52  1  0  0  0  0
 36 10  1  0  0  0  0
 37 17  1  0  0  0  0
 38 10  2  0  0  0  0
 39  4  2  0  0  0  0
 40 38  1  0  0  0  0
 41 30  1  0  0  0  0
 42 41  1  0  0  0  0
 43 17  2  0  0  0  0
 44 46  1  0  0  0  0
 45 51  1  0  0  0  0
 46 40  2  0  0  0  0
  2 47  1  6  0  0  0
 48  6  1  0  0  0  0
 49 37  2  0  0  0  0
 50 37  1  0  0  0  0
 51 48  1  0  0  0  0
 42 52  1  1  0  0  0
 53 29  1  0  0  0  0
 23 54  1  6  0  0  0
 55 58  1  0  0  0  0
 22 56  1  6  0  0  0
 28 57  1  1  0  0  0
 58 50  2  0  0  0  0
 59 49  1  0  0  0  0
 60 55  1  0  0  0  0
 61  8  1  0  0  0  0
 62 32  1  0  0  0  0
 25 63  1  6  0  0  0
 31 64  1  1  0  0  0
 44 65  1  6  0  0  0
 45 66  1  6  0  0  0
 67 53  1  0  0  0  0
 53 68  1  1  0  0  0
 69 57  1  0  0  0  0
 70 56  1  0  0  0  0
 71 67  1  0  0  0  0
  7  3  1  0  0  0  0
 36  9  1  0  0  0  0
 27  6  1  0  0  0  0
 55 59  2  0  0  0  0
 32 24  1  0  0  0  0
 45 29  1  0  0  0  0
 12 25  1  0  0  0  0
 23 31  1  0  0  0  0
M  END
>  <IDNUMBER>
F3395-2914

>  <Chemical_Name>
(1'R,2R,4'S,5S,6R,8'R,10'E,12'S,13'S,14'E,16'E,20'R,21'R,24'S)-6-[(2S)-butan-2-yl]-24'-hydroxy-12'-{[(2R,4S,5S,6S)-5-{[(2S,4S,5S,6S)-5-hydroxy-4-methoxy-6-methyloxan-2-yl]oxy}-4-methoxy-6-methyloxan-2-yl]oxy}-5,11',13',22'-tetramethyl-2'-oxo-3',7',19'-trioxaspiro[oxane-2,6'-tetracyclo[15.6.1.1?,?.0??,??]pentacosane]-10',14',16',22'-tetraen-21'-yl 4-fluorobenzoate

>  <PriceCoeff>
7.00

>  <MW>
997.20

>  <Description>
solid

>  <FSP3>
0.71

>  <clogP>
7.50

>  <TPSA>
176.13

>  <Acceptor>
15

>  <Donor>
2

>  <RotBonds>
11

>  <HAC>
71

$$$$
F3395-2915
  Mrv2219 10102508112D          

 71 78  0  0  0  0            999 V2000
    2.4553    0.7253    0.0000 C   0  0  2  0  0  0  0  0  0  0  0  0
    1.6883    0.3377    0.0000 C   0  0  1  0  0  0  0  0  0  0  0  0
    1.6883   -0.4919    0.0000 C   0  0  1  0  0  0  0  0  0  0  0  0
    2.4761    1.5340    0.0000 C   0  0  0  0  0  0  0  0  0  0  0  0
    3.1556    0.3084    0.0000 C   0  0  0  0  0  0  0  0  0  0  0  0
    3.9060    3.9601    0.0000 C   0  0  2  0  0  0  0  0  0  0  0  0
    2.4261   -0.9004    0.0000 C   0  0  1  0  0  0  0  0  0  0  0  0
    3.1181   -0.4919    0.0000 C   0  0  0  0  0  0  0  0  0  0  0  0
    0.8796   -0.7128    0.0000 O   0  0  0  0  0  0  0  0  0  0  0  0
    1.0005    0.6503    0.0000 C   0  0  0  0  0  0  0  0  0  0  0  0
    2.4261   -1.7133    0.0000 O   0  0  0  0  0  0  0  0  0  0  0  0
   -3.2473    3.2473    0.0000 C   0  0  2  0  0  0  0  0  0  0  0  0
    4.6146    3.5224    0.0000 O   0  0  0  0  0  0  0  0  0  0  0  0
   -4.6646    3.2598    0.0000 C   0  0  2  0  0  0  0  0  0  0  0  0
   -1.8133    4.0436    0.0000 C   0  0  2  0  0  0  0  0  0  0  0  0
    3.1682    1.9592    0.0000 O   0  0  0  0  0  0  0  0  0  0  0  0
    3.0931   -2.3511    0.0000 C   0  0  0  0  0  0  0  0  0  0  0  0
   -2.5095    4.4520    0.0000 O   0  0  0  0  0  0  0  0  0  0  0  0
   -5.3775    2.8471    0.0000 O   0  0  0  0  0  0  0  0  0  0  0  0
   -1.8216    3.2348    0.0000 C   0  0  0  0  0  0  0  0  0  0  0  0
   -4.6479    4.0894    0.0000 C   0  0  0  0  0  0  0  0  0  0  0  0
   -2.5220    2.8221    0.0000 C   0  0  2  0  0  0  0  0  0  0  0  0
   -6.0445    4.0436    0.0000 C   0  0  2  0  0  0  0  0  0  0  0  0
   -0.3710    4.0311    0.0000 C   0  0  1  0  0  0  0  0  0  0  0  0
   -3.2390    4.0268    0.0000 C   0  0  1  0  0  0  0  0  0  0  0  0
    3.9060    3.1431    0.0000 C   0  0  0  0  0  0  0  0  0  0  0  0
    3.1932    4.3937    0.0000 O   0  0  0  0  0  0  0  0  0  0  0  0
   -5.3525    4.4729    0.0000 C   0  0  1  0  0  0  0  0  0  0  0  0
    5.3567    3.9476    0.0000 C   0  0  1  0  0  0  0  0  0  0  0  0
    3.1682    2.7596    0.0000 C   0  0  2  0  0  0  0  0  0  0  0  0
   -6.0570    3.2848    0.0000 C   0  0  2  0  0  0  0  0  0  0  0  0
    0.3669    4.4312    0.0000 C   0  0  0  0  0  0  0  0  0  0  0  0
   -3.9560    2.8221    0.0000 O   0  0  0  0  0  0  0  0  0  0  0  0
   -1.0713    4.4228    0.0000 O   0  0  0  0  0  0  0  0  0  0  0  0
    1.0547    4.0060    0.0000 C   0  0  0  0  0  0  0  0  0  0  0  0
    0.4669    0.0125    0.0000 C   0  0  0  0  0  0  0  0  0  0  0  0
    2.8555   -3.2807    0.0000 C   0  0  0  0  0  0  0  0  0  0  0  0
    1.0172    1.5590    0.0000 C   0  0  0  0  0  0  0  0  0  0  0  0
    1.7175    1.9842    0.0000 O   0  0  0  0  0  0  0  0  0  0  0  0
    0.3168    1.9967    0.0000 C   0  0  0  0  0  0  0  0  0  0  0  0
    2.4761    3.1682    0.0000 C   0  0  0  0  0  0  0  0  0  0  0  0
    2.4928    4.0018    0.0000 C   0  0  1  0  0  0  0  0  0  0  0  0
    4.0311   -2.1052    0.0000 O   0  0  0  0  0  0  0  0  0  0  0  0
   -0.3877    3.2098    0.0000 C   0  0  2  0  0  0  0  0  0  0  0  0
    5.3567    4.7522    0.0000 C   0  0  2  0  0  0  0  0  0  0  0  0
    0.3377    2.7888    0.0000 C   0  0  0  0  0  0  0  0  0  0  0  0
    1.7175    1.0963    0.0000 O   0  0  0  0  0  0  0  0  0  0  0  0
    3.9185    4.7939    0.0000 C   0  0  0  0  0  0  0  0  0  0  0  0
    2.0551   -3.5058    0.0000 C   0  0  0  0  0  0  0  0  0  0  0  0
    3.4433   -3.8643    0.0000 C   0  0  0  0  0  0  0  0  0  0  0  0
    4.6188    5.1566    0.0000 C   0  0  0  0  0  0  0  0  0  0  0  0
    1.7550    4.4228    0.0000 C   0  0  0  0  0  0  0  0  0  0  0  0
    6.0403    3.4974    0.0000 C   0  0  2  0  0  0  0  0  0  0  0  0
   -6.7573    4.4520    0.0000 O   0  0  0  0  0  0  0  0  0  0  0  0
    2.4428   -4.8814    0.0000 C   0  0  0  0  0  0  0  0  0  0  0  0
   -2.5262    2.0342    0.0000 O   0  0  0  0  0  0  0  0  0  0  0  0
   -5.3483    5.2774    0.0000 O   0  0  0  0  0  0  0  0  0  0  0  0
    3.2432   -4.6563    0.0000 C   0  0  0  0  0  0  0  0  0  0  0  0
    1.8551   -4.3062    0.0000 C   0  0  0  0  0  0  0  0  0  0  0  0
    2.2427   -5.6818    0.0000 Cl  0  0  0  0  0  0  0  0  0  0  0  0
    3.8685   -0.9004    0.0000 C   0  0  0  0  0  0  0  0  0  0  0  0
    0.3794    5.2941    0.0000 C   0  0  0  0  0  0  0  0  0  0  0  0
   -3.9268    4.3937    0.0000 C   0  0  0  0  0  0  0  0  0  0  0  0
   -6.7864    2.9096    0.0000 C   0  0  0  0  0  0  0  0  0  0  0  0
   -1.1005    2.7888    0.0000 C   0  0  0  0  0  0  0  0  0  0  0  0
    6.0653    5.1316    0.0000 C   0  0  0  0  0  0  0  0  0  0  0  0
    6.0403    2.6720    0.0000 C   0  0  0  0  0  0  0  0  0  0  0  0
    6.7906    3.9226    0.0000 C   0  0  0  0  0  0  0  0  0  0  0  0
   -4.6104    5.6818    0.0000 C   0  0  0  0  0  0  0  0  0  0  0  0
   -1.8592    1.6341    0.0000 C   0  0  0  0  0  0  0  0  0  0  0  0
    6.7781    2.2718    0.0000 C   0  0  0  0  0  0  0  0  0  0  0  0
  2  1  1  0  0  0  0
  3  2  1  0  0  0  0
  4  1  1  0  0  0  0
  1  5  1  6  0  0  0
  6 26  1  1  0  0  0
  7  8  1  0  0  0  0
  8  5  2  0  0  0  0
  3  9  1  1  0  0  0
 10  2  1  0  0  0  0
  7 11  1  1  0  0  0
 12 22  1  0  0  0  0
 13  6  1  0  0  0  0
 14 33  1  6  0  0  0
 15 34  1  1  0  0  0
 16  4  1  0  0  0  0
 17 11  1  0  0  0  0
 18 15  1  0  0  0  0
 19 14  1  0  0  0  0
 20 15  1  0  0  0  0
 21 14  1  0  0  0  0
 22 20  1  0  0  0  0
 23 28  1  0  0  0  0
 24 44  1  0  0  0  0
 25 18  1  0  0  0  0
 30 26  1  1  0  0  0
 27 42  1  0  0  0  0
 28 21  1  0  0  0  0
 29 13  1  1  0  0  0
 30 16  1  0  0  0  0
 31 19  1  0  0  0  0
 32 35  2  0  0  0  0
 12 33  1  1  0  0  0
 24 34  1  6  0  0  0
 35 52  1  0  0  0  0
 36 10  1  0  0  0  0
 37 17  1  0  0  0  0
 38 10  2  0  0  0  0
 39  4  2  0  0  0  0
 40 38  1  0  0  0  0
 41 30  1  0  0  0  0
 42 41  1  0  0  0  0
 43 17  2  0  0  0  0
 44 46  1  0  0  0  0
 45 51  1  0  0  0  0
 46 40  2  0  0  0  0
  2 47  1  6  0  0  0
 48  6  1  0  0  0  0
 49 37  2  0  0  0  0
 50 37  1  0  0  0  0
 51 48  1  0  0  0  0
 42 52  1  1  0  0  0
 53 29  1  0  0  0  0
 23 54  1  6  0  0  0
 55 58  1  0  0  0  0
 22 56  1  6  0  0  0
 28 57  1  1  0  0  0
 58 50  2  0  0  0  0
 59 49  1  0  0  0  0
 60 55  1  0  0  0  0
 61  8  1  0  0  0  0
 62 32  1  0  0  0  0
 25 63  1  6  0  0  0
 31 64  1  1  0  0  0
 44 65  1  6  0  0  0
 45 66  1  6  0  0  0
 67 53  1  0  0  0  0
 53 68  1  1  0  0  0
 69 57  1  0  0  0  0
 70 56  1  0  0  0  0
 71 67  1  0  0  0  0
  7  3  1  0  0  0  0
 36  9  1  0  0  0  0
 27  6  1  0  0  0  0
 55 59  2  0  0  0  0
 32 24  1  0  0  0  0
 45 29  1  0  0  0  0
 12 25  1  0  0  0  0
 23 31  1  0  0  0  0
M  END
>  <IDNUMBER>
F3395-2915

>  <Chemical_Name>
(1'R,2R,4'S,5S,6R,8'R,10'E,12'S,13'S,14'E,16'E,20'R,21'R,24'S)-6-[(2S)-butan-2-yl]-24'-hydroxy-12'-{[(2R,4S,5S,6S)-5-{[(2S,4S,5S,6S)-5-hydroxy-4-methoxy-6-methyloxan-2-yl]oxy}-4-methoxy-6-methyloxan-2-yl]oxy}-5,11',13',22'-tetramethyl-2'-oxo-3',7',19'-trioxaspiro[oxane-2,6'-tetracyclo[15.6.1.1?,?.0??,??]pentacosane]-10',14',16',22'-tetraen-21'-yl 4-chlorobenzoate

>  <PriceCoeff>
7.00

>  <MW>
1 013.66

>  <Description>
solid

>  <FSP3>
0.71

>  <clogP>
8.93

>  <TPSA>
176.13

>  <Acceptor>
15

>  <Donor>
2

>  <RotBonds>
11

>  <HAC>
71

$$$$
F3395-2916
  Mrv2219 10102508112D          

 73 80  0  0  0  0            999 V2000
    2.4550    1.0211    0.0000 C   0  0  2  0  0  0  0  0  0  0  0  0
    1.6880    0.6251    0.0000 C   0  0  1  0  0  0  0  0  0  0  0  0
    1.6880   -0.2042    0.0000 C   0  0  1  0  0  0  0  0  0  0  0  0
    2.4758    1.8213    0.0000 C   0  0  0  0  0  0  0  0  0  0  0  0
    3.1551    0.5959    0.0000 C   0  0  0  0  0  0  0  0  0  0  0  0
    3.9054    4.2346    0.0000 C   0  0  2  0  0  0  0  0  0  0  0  0
    2.4258   -0.6043    0.0000 C   0  0  1  0  0  0  0  0  0  0  0  0
    2.2423   -5.3934    0.0000 N   0  3  0  0  0  0  0  0  0  0  0  0
    3.1176   -0.2042    0.0000 C   0  0  0  0  0  0  0  0  0  0  0  0
    0.8795   -0.4251    0.0000 O   0  0  0  0  0  0  0  0  0  0  0  0
    1.0003    0.9378    0.0000 C   0  0  0  0  0  0  0  0  0  0  0  0
    2.4258   -1.4254    0.0000 O   0  0  0  0  0  0  0  0  0  0  0  0
   -3.2468    3.5343    0.0000 C   0  0  2  0  0  0  0  0  0  0  0  0
    4.6139    3.8095    0.0000 O   0  0  0  0  0  0  0  0  0  0  0  0
   -4.6639    3.5468    0.0000 C   0  0  2  0  0  0  0  0  0  0  0  0
   -1.8130    4.3305    0.0000 C   0  0  2  0  0  0  0  0  0  0  0  0
    3.1677    2.2465    0.0000 O   0  0  0  0  0  0  0  0  0  0  0  0
    3.0926   -2.0548    0.0000 C   0  0  0  0  0  0  0  0  0  0  0  0
   -2.5091    4.7347    0.0000 O   0  0  0  0  0  0  0  0  0  0  0  0
   -5.3767    3.1426    0.0000 O   0  0  0  0  0  0  0  0  0  0  0  0
   -1.8213    3.5218    0.0000 C   0  0  0  0  0  0  0  0  0  0  0  0
   -4.6472    4.3763    0.0000 C   0  0  0  0  0  0  0  0  0  0  0  0
   -2.5216    3.1134    0.0000 C   0  0  2  0  0  0  0  0  0  0  0  0
   -6.0435    4.3305    0.0000 C   0  0  2  0  0  0  0  0  0  0  0  0
   -0.3709    4.3263    0.0000 C   0  0  1  0  0  0  0  0  0  0  0  0
   -3.2385    4.3180    0.0000 C   0  0  1  0  0  0  0  0  0  0  0  0
    3.9054    3.4260    0.0000 C   0  0  0  0  0  0  0  0  0  0  0  0
    3.1927    4.6806    0.0000 O   0  0  0  0  0  0  0  0  0  0  0  0
   -5.3517    4.7681    0.0000 C   0  0  1  0  0  0  0  0  0  0  0  0
    5.3559    4.2180    0.0000 C   0  0  1  0  0  0  0  0  0  0  0  0
    3.1677    3.0467    0.0000 C   0  0  2  0  0  0  0  0  0  0  0  0
   -6.0560    3.5718    0.0000 C   0  0  2  0  0  0  0  0  0  0  0  0
    0.3668    4.7181    0.0000 C   0  0  0  0  0  0  0  0  0  0  0  0
   -3.9554    3.1134    0.0000 O   0  0  0  0  0  0  0  0  0  0  0  0
   -1.0712    4.7139    0.0000 O   0  0  0  0  0  0  0  0  0  0  0  0
    1.0546    4.2971    0.0000 C   0  0  0  0  0  0  0  0  0  0  0  0
    2.4425   -4.5931    0.0000 C   0  0  0  0  0  0  0  0  0  0  0  0
    0.4668    0.3084    0.0000 C   0  0  0  0  0  0  0  0  0  0  0  0
    2.8301   -5.9685    0.0000 O   0  5  0  0  0  0  0  0  0  0  0  0
    2.8551   -2.9926    0.0000 C   0  0  0  0  0  0  0  0  0  0  0  0
    1.4421   -5.6184    0.0000 O   0  0  0  0  0  0  0  0  0  0  0  0
    1.0170    1.8463    0.0000 C   0  0  0  0  0  0  0  0  0  0  0  0
    1.7172    2.2715    0.0000 O   0  0  0  0  0  0  0  0  0  0  0  0
    0.3168    2.2840    0.0000 C   0  0  0  0  0  0  0  0  0  0  0  0
    2.4758    3.4552    0.0000 C   0  0  0  0  0  0  0  0  0  0  0  0
    2.4925    4.2805    0.0000 C   0  0  1  0  0  0  0  0  0  0  0  0
    4.0305   -1.8130    0.0000 O   0  0  0  0  0  0  0  0  0  0  0  0
   -0.3876    3.4968    0.0000 C   0  0  2  0  0  0  0  0  0  0  0  0
    5.3559    5.0348    0.0000 C   0  0  2  0  0  0  0  0  0  0  0  0
    0.3376    3.0801    0.0000 C   0  0  0  0  0  0  0  0  0  0  0  0
    1.7172    1.3837    0.0000 O   0  0  0  0  0  0  0  0  0  0  0  0
    3.9179    5.0807    0.0000 C   0  0  0  0  0  0  0  0  0  0  0  0
    3.2427   -4.3680    0.0000 C   0  0  0  0  0  0  0  0  0  0  0  0
    1.8547   -4.0180    0.0000 C   0  0  0  0  0  0  0  0  0  0  0  0
    3.4427   -3.5677    0.0000 C   0  0  0  0  0  0  0  0  0  0  0  0
    2.0548   -3.2177    0.0000 C   0  0  0  0  0  0  0  0  0  0  0  0
    4.6181    5.4434    0.0000 C   0  0  0  0  0  0  0  0  0  0  0  0
    1.7547    4.7139    0.0000 C   0  0  0  0  0  0  0  0  0  0  0  0
    6.0393    3.7845    0.0000 C   0  0  2  0  0  0  0  0  0  0  0  0
   -6.7563    4.7431    0.0000 O   0  0  0  0  0  0  0  0  0  0  0  0
   -2.5258    2.3216    0.0000 O   0  0  0  0  0  0  0  0  0  0  0  0
   -5.3475    5.5642    0.0000 O   0  0  0  0  0  0  0  0  0  0  0  0
    3.8679   -0.6043    0.0000 C   0  0  0  0  0  0  0  0  0  0  0  0
    0.3793    5.5809    0.0000 C   0  0  0  0  0  0  0  0  0  0  0  0
   -3.9262    4.6806    0.0000 C   0  0  0  0  0  0  0  0  0  0  0  0
   -6.7938    3.1968    0.0000 C   0  0  0  0  0  0  0  0  0  0  0  0
   -1.1004    3.0801    0.0000 C   0  0  0  0  0  0  0  0  0  0  0  0
    6.0643    5.4184    0.0000 C   0  0  0  0  0  0  0  0  0  0  0  0
    6.0393    2.9592    0.0000 C   0  0  0  0  0  0  0  0  0  0  0  0
    6.7938    4.1930    0.0000 C   0  0  0  0  0  0  0  0  0  0  0  0
   -4.6097    5.9685    0.0000 C   0  0  0  0  0  0  0  0  0  0  0  0
   -1.8588    1.9214    0.0000 C   0  0  0  0  0  0  0  0  0  0  0  0
    6.7771    2.5591    0.0000 C   0  0  0  0  0  0  0  0  0  0  0  0
  2  1  1  0  0  0  0
  3  2  1  0  0  0  0
  4  1  1  0  0  0  0
  1  5  1  6  0  0  0
  6 27  1  1  0  0  0
  7  9  1  0  0  0  0
  8 37  1  0  0  0  0
  9  5  2  0  0  0  0
  3 10  1  1  0  0  0
 11  2  1  0  0  0  0
  7 12  1  1  0  0  0
 13 23  1  0  0  0  0
 14  6  1  0  0  0  0
 15 34  1  6  0  0  0
 16 35  1  1  0  0  0
 17  4  1  0  0  0  0
 18 12  1  0  0  0  0
 19 16  1  0  0  0  0
 20 15  1  0  0  0  0
 21 16  1  0  0  0  0
 22 15  1  0  0  0  0
 23 21  1  0  0  0  0
 24 29  1  0  0  0  0
 25 48  1  0  0  0  0
 26 19  1  0  0  0  0
 31 27  1  1  0  0  0
 28 46  1  0  0  0  0
 29 22  1  0  0  0  0
 30 14  1  1  0  0  0
 31 17  1  0  0  0  0
 32 20  1  0  0  0  0
 33 36  2  0  0  0  0
 13 34  1  1  0  0  0
 25 35  1  6  0  0  0
 36 58  1  0  0  0  0
 37 54  2  0  0  0  0
 38 11  1  0  0  0  0
 39  8  1  0  0  0  0
 40 18  1  0  0  0  0
 41  8  2  0  0  0  0
 42 11  2  0  0  0  0
 43  4  2  0  0  0  0
 44 42  1  0  0  0  0
 45 31  1  0  0  0  0
 46 45  1  0  0  0  0
 47 18  2  0  0  0  0
 48 50  1  0  0  0  0
 49 57  1  0  0  0  0
 50 44  2  0  0  0  0
  2 51  1  6  0  0  0
 52  6  1  0  0  0  0
 53 55  2  0  0  0  0
 54 56  1  0  0  0  0
 55 40  1  0  0  0  0
 56 40  2  0  0  0  0
 57 52  1  0  0  0  0
 46 58  1  1  0  0  0
 59 30  1  0  0  0  0
 24 60  1  6  0  0  0
 23 61  1  6  0  0  0
 29 62  1  1  0  0  0
 63  9  1  0  0  0  0
 64 33  1  0  0  0  0
 26 65  1  6  0  0  0
 32 66  1  1  0  0  0
 48 67  1  6  0  0  0
 49 68  1  6  0  0  0
 69 59  1  0  0  0  0
 59 70  1  1  0  0  0
 71 62  1  0  0  0  0
 72 61  1  0  0  0  0
 73 69  1  0  0  0  0
  7  3  1  0  0  0  0
 38 10  1  0  0  0  0
 28  6  1  0  0  0  0
 37 53  1  0  0  0  0
 33 25  1  0  0  0  0
 49 30  1  0  0  0  0
 13 26  1  0  0  0  0
 24 32  1  0  0  0  0
M  CHG  2   8   1  39  -1
M  END
>  <IDNUMBER>
F3395-2916

>  <Chemical_Name>
(1'R,2R,4'S,5S,6R,8'R,10'E,12'S,13'S,14'E,16'E,20'R,21'R,24'S)-6-[(2S)-butan-2-yl]-24'-hydroxy-12'-{[(2R,4S,5S,6S)-5-{[(2S,4S,5S,6S)-5-hydroxy-4-methoxy-6-methyloxan-2-yl]oxy}-4-methoxy-6-methyloxan-2-yl]oxy}-5,11',13',22'-tetramethyl-2'-oxo-3',7',19'-trioxaspiro[oxane-2,6'-tetracyclo[15.6.1.1?,?.0??,??]pentacosane]-10',14',16',22'-tetraen-21'-yl 4-nitrobenzoate

>  <PriceCoeff>
7.00

>  <MW>
1 024.20

>  <Description>
solid

>  <FSP3>
0.71

>  <clogP>
7.10

>  <TPSA>
219.27

>  <Acceptor>
17

>  <Donor>
2

>  <RotBonds>
12

>  <HAC>
73

$$$$
F3406-0976
  Mrv2219 10102508112D          

 25 27  0  0  0  0            999 V2000
    4.5479   -2.6154    0.0000 C   0  0  0  0  0  0  0  0  0  0  0  0
    5.9759   -2.4706    0.0000 C   0  0  0  0  0  0  0  0  0  0  0  0
    5.8854   -1.6402    0.0000 C   0  0  0  0  0  0  0  0  0  0  0  0
    5.3033   -2.9595    0.0000 C   0  0  0  0  0  0  0  0  0  0  0  0
    4.4574   -1.7954    0.0000 C   0  0  0  0  0  0  0  0  0  0  0  0
    5.1377   -1.3064    0.0000 N   0  0  0  0  0  0  0  0  0  0  0  0
    3.8753   -3.0915    0.0000 C   0  0  0  0  0  0  0  0  0  0  0  0
    6.5580   -1.1641    0.0000 N   0  0  0  0  0  0  0  0  0  0  0  0
    3.1199   -2.7577    0.0000 N   0  0  0  0  0  0  0  0  0  0  0  0
    6.7313   -2.7965    0.0000 C   0  0  0  0  0  0  0  0  0  0  0  0
    1.3996   -1.4203    0.0000 C   0  0  0  0  0  0  0  0  0  0  0  0
    2.1757   -1.6790    0.0000 C   0  0  0  0  0  0  0  0  0  0  0  0
    2.3360   -2.4861    0.0000 C   0  0  0  0  0  0  0  0  0  0  0  0
    5.3939   -3.7744    0.0000 O   0  0  0  0  0  0  0  0  0  0  0  0
    3.9581   -3.9141    0.0000 O   0  0  0  0  0  0  0  0  0  0  0  0
    0.7787   -1.9506    0.0000 C   0  0  0  0  0  0  0  0  0  0  0  0
    7.3057   -1.4979    0.0000 C   0  0  0  0  0  0  0  0  0  0  0  0
    0.9313   -2.7655    0.0000 C   0  0  0  0  0  0  0  0  0  0  0  0
    7.3962   -2.3128    0.0000 C   0  0  0  0  0  0  0  0  0  0  0  0
    1.2366   -0.6054    0.0000 Cl  0  0  0  0  0  0  0  0  0  0  0  0
    5.0472   -0.4838    0.0000 C   0  0  0  0  0  0  0  0  0  0  0  0
    1.7152   -3.0294    0.0000 C   0  0  0  0  0  0  0  0  0  0  0  0
    0.0000   -1.6919    0.0000 C   0  0  0  0  0  0  0  0  0  0  0  0
    7.9809   -1.0115    0.0000 C   0  0  0  0  0  0  0  0  0  0  0  0
    5.7198    0.0000    0.0000 C   0  0  0  0  0  0  0  0  0  0  0  0
  2  4  1  0  0  0  0
  3  6  1  0  0  0  0
  4  1  1  0  0  0  0
  5  1  2  0  0  0  0
  6  5  1  0  0  0  0
  7  1  1  0  0  0  0
  8  3  2  0  0  0  0
  9  7  1  0  0  0  0
 10  2  2  0  0  0  0
 11 12  1  0  0  0  0
 12 13  2  0  0  0  0
 13  9  1  0  0  0  0
 14  4  2  0  0  0  0
 15  7  2  0  0  0  0
 16 18  1  0  0  0  0
 17  8  1  0  0  0  0
 18 22  2  0  0  0  0
 19 10  1  0  0  0  0
 20 11  1  0  0  0  0
 21  6  1  0  0  0  0
 22 13  1  0  0  0  0
 23 16  1  0  0  0  0
 24 17  1  0  0  0  0
 25 21  1  0  0  0  0
  3  2  1  0  0  0  0
 19 17  2  0  0  0  0
 16 11  2  0  0  0  0
M  END
>  <IDNUMBER>
F3406-0976

>  <Chemical_Name>
N-(3-chloro-4-methylphenyl)-1-ethyl-7-methyl-4-oxo-1,4-dihydro-1,8-naphthyridine-3-carboxamide

>  <PriceCoeff>
1.00

>  <CAS>
23681-84-7

>  <MW>
355.82

>  <Description>
solid

>  <FSP3>
0.21

>  <clogP>
2.94

>  <TPSA>
62.30

>  <Acceptor>
3

>  <Donor>
3

>  <RotBonds>
3

>  <HAC>
25

>  <Collection>
General

>  <PPDS>
+

$$$$
F3406-0984
  Mrv2219 10102508112D          

 28 30  0  0  0  0            999 V2000
    4.3613   -2.8179    0.0000 C   0  0  0  0  0  0  0  0  0  0  0  0
    5.7779   -2.6705    0.0000 C   0  0  0  0  0  0  0  0  0  0  0  0
    5.6875   -1.8407    0.0000 C   0  0  0  0  0  0  0  0  0  0  0  0
    5.1136   -3.1565    0.0000 C   0  0  0  0  0  0  0  0  0  0  0  0
    4.9352   -1.5150    0.0000 N   0  0  0  0  0  0  0  0  0  0  0  0
    4.2682   -1.9958    0.0000 C   0  0  0  0  0  0  0  0  0  0  0  0
    3.6839   -3.2961    0.0000 C   0  0  0  0  0  0  0  0  0  0  0  0
    6.3596   -1.3676    0.0000 N   0  0  0  0  0  0  0  0  0  0  0  0
    1.7554   -2.1664    0.0000 C   0  0  0  0  0  0  0  0  0  0  0  0
    6.5251   -3.0014    0.0000 C   0  0  0  0  0  0  0  0  0  0  0  0
    2.9316   -2.9626    0.0000 N   0  0  0  0  0  0  0  0  0  0  0  0
    5.1911   -3.9735    0.0000 O   0  0  0  0  0  0  0  0  0  0  0  0
    2.5775   -2.2130    0.0000 C   0  0  0  0  0  0  0  0  0  0  0  0
    1.3831   -1.4219    0.0000 C   0  0  0  0  0  0  0  0  0  0  0  0
    1.2900   -2.8489    0.0000 C   0  0  0  0  0  0  0  0  0  0  0  0
    3.7692   -4.1131    0.0000 O   0  0  0  0  0  0  0  0  0  0  0  0
    7.1067   -1.7011    0.0000 C   0  0  0  0  0  0  0  0  0  0  0  0
    0.5584   -1.3676    0.0000 C   0  0  0  0  0  0  0  0  0  0  0  0
    0.4576   -2.7869    0.0000 C   0  0  0  0  0  0  0  0  0  0  0  0
    7.1921   -2.5154    0.0000 C   0  0  0  0  0  0  0  0  0  0  0  0
    4.8576   -0.6902    0.0000 C   0  0  0  0  0  0  0  0  0  0  0  0
    0.0931   -2.0501    0.0000 C   0  0  0  0  0  0  0  0  0  0  0  0
    1.8562   -0.7368    0.0000 O   0  0  0  0  0  0  0  0  0  0  0  0
    0.0000   -3.4745    0.0000 O   0  0  0  0  0  0  0  0  0  0  0  0
    7.7737   -1.2202    0.0000 C   0  0  0  0  0  0  0  0  0  0  0  0
    1.4917    0.0000    0.0000 C   0  0  0  0  0  0  0  0  0  0  0  0
    0.3645   -4.2139    0.0000 C   0  0  0  0  0  0  0  0  0  0  0  0
    5.5246   -0.2094    0.0000 C   0  0  0  0  0  0  0  0  0  0  0  0
  2  4  1  0  0  0  0
  3  5  1  0  0  0  0
  4  1  1  0  0  0  0
  5  6  1  0  0  0  0
  6  1  2  0  0  0  0
  7  1  1  0  0  0  0
  8  3  2  0  0  0  0
  9 13  1  0  0  0  0
 10  2  2  0  0  0  0
 11  7  1  0  0  0  0
 12  4  2  0  0  0  0
 13 11  1  0  0  0  0
 14  9  1  0  0  0  0
 15  9  2  0  0  0  0
 16  7  2  0  0  0  0
 17  8  1  0  0  0  0
 18 14  2  0  0  0  0
 19 15  1  0  0  0  0
 20 10  1  0  0  0  0
 21  5  1  0  0  0  0
 22 19  2  0  0  0  0
 23 14  1  0  0  0  0
 24 19  1  0  0  0  0
 25 17  1  0  0  0  0
 26 23  1  0  0  0  0
 27 24  1  0  0  0  0
 28 21  1  0  0  0  0
  2  3  1  0  0  0  0
 17 20  2  0  0  0  0
 18 22  1  0  0  0  0
M  END
>  <IDNUMBER>
F3406-0984

>  <Chemical_Name>
N-[(2,5-dimethoxyphenyl)methyl]-1-ethyl-7-methyl-4-oxo-1,4-dihydro-1,8-naphthyridine-3-carboxamide

>  <PriceCoeff>
1.00

>  <CAS>
1251569-82-0

>  <MW>
381.43

>  <Description>
solid

>  <FSP3>
0.29

>  <clogP>
1.90

>  <TPSA>
80.76

>  <Acceptor>
5

>  <Donor>
3

>  <RotBonds>
6

>  <HAC>
28

>  <Collection>
General

>  <PPDS>
+

$$$$
F3406-0985
  Mrv2219 10102508112D          

 28 30  0  0  0  0            999 V2000
    2.1419   -3.7133    0.0000 C   0  0  0  0  0  0  0  0  0  0  0  0
    2.8550   -2.4816    0.0000 C   0  0  0  0  0  0  0  0  0  0  0  0
    2.1419   -2.0641    0.0000 C   0  0  0  0  0  0  0  0  0  0  0  0
    2.8550   -3.3062    0.0000 C   0  0  0  0  0  0  0  0  0  0  0  0
    1.4236   -3.2984    0.0000 C   0  0  0  0  0  0  0  0  0  0  0  0
    1.4236   -2.4738    0.0000 N   0  0  0  0  0  0  0  0  0  0  0  0
    2.1419   -4.5379    0.0000 C   0  0  0  0  0  0  0  0  0  0  0  0
    2.1419   -1.2317    0.0000 N   0  0  0  0  0  0  0  0  0  0  0  0
    1.4236   -4.9476    0.0000 N   0  0  0  0  0  0  0  0  0  0  0  0
    3.5733   -2.0641    0.0000 C   0  0  0  0  0  0  0  0  0  0  0  0
    2.1497   -6.1949    0.0000 C   0  0  0  0  0  0  0  0  0  0  0  0
    2.1497   -7.0195    0.0000 C   0  0  0  0  0  0  0  0  0  0  0  0
    1.4236   -5.7722    0.0000 C   0  0  0  0  0  0  0  0  0  0  0  0
    3.5733   -3.7133    0.0000 O   0  0  0  0  0  0  0  0  0  0  0  0
    2.8627   -4.9476    0.0000 O   0  0  0  0  0  0  0  0  0  0  0  0
    1.4314   -7.4318    0.0000 C   0  0  0  0  0  0  0  0  0  0  0  0
    2.8550   -0.8246    0.0000 C   0  0  0  0  0  0  0  0  0  0  0  0
    0.7183   -7.0195    0.0000 C   0  0  0  0  0  0  0  0  0  0  0  0
    3.5733   -1.2395    0.0000 C   0  0  0  0  0  0  0  0  0  0  0  0
    0.7105   -2.0563    0.0000 C   0  0  0  0  0  0  0  0  0  0  0  0
    0.7105   -6.1871    0.0000 C   0  0  0  0  0  0  0  0  0  0  0  0
    2.8731   -7.4395    0.0000 O   0  0  0  0  0  0  0  0  0  0  0  0
    1.4314   -8.2719    0.0000 O   0  0  0  0  0  0  0  0  0  0  0  0
    2.8627    0.0000    0.0000 C   0  0  0  0  0  0  0  0  0  0  0  0
    3.5810   -7.0324    0.0000 C   0  0  0  0  0  0  0  0  0  0  0  0
    0.7183   -8.6816    0.0000 C   0  0  0  0  0  0  0  0  0  0  0  0
    0.7105   -1.2317    0.0000 C   0  0  0  0  0  0  0  0  0  0  0  0
    0.0000   -0.8039    0.0000 C   0  0  0  0  0  0  0  0  0  0  0  0
  2  4  1  0  0  0  0
  3  6  1  0  0  0  0
  4  1  1  0  0  0  0
  5  1  2  0  0  0  0
  6  5  1  0  0  0  0
  7  1  1  0  0  0  0
  8  3  2  0  0  0  0
  9  7  1  0  0  0  0
 10  2  2  0  0  0  0
 11 13  1  0  0  0  0
 12 11  2  0  0  0  0
 13  9  1  0  0  0  0
 14  4  2  0  0  0  0
 15  7  2  0  0  0  0
 16 18  2  0  0  0  0
 17  8  1  0  0  0  0
 18 21  1  0  0  0  0
 19 10  1  0  0  0  0
 20  6  1  0  0  0  0
 21 13  2  0  0  0  0
 22 12  1  0  0  0  0
 23 16  1  0  0  0  0
 24 17  1  0  0  0  0
 25 22  1  0  0  0  0
 26 23  1  0  0  0  0
 27 20  1  0  0  0  0
 28 27  1  0  0  0  0
  2  3  1  0  0  0  0
 17 19  2  0  0  0  0
 12 16  1  0  0  0  0
M  END
>  <IDNUMBER>
F3406-0985

>  <Chemical_Name>
N-(3,4-dimethoxyphenyl)-7-methyl-4-oxo-1-propyl-1,4-dihydro-1,8-naphthyridine-3-carboxamide

>  <PriceCoeff>
1.00

>  <CAS>
1251544-51-0

>  <MW>
381.43

>  <Description>
solid

>  <FSP3>
0.29

>  <clogP>
1.79

>  <TPSA>
80.76

>  <Acceptor>
5

>  <Donor>
3

>  <RotBonds>
6

>  <HAC>
28

>  <Collection>
General

>  <PPDS>
+

$$$$
F3406-0991
  Mrv2219 10102508112D          

 31 34  0  0  0  0            999 V2000
    2.8609   -3.7026    0.0000 C   0  0  0  0  0  0  0  0  0  0  0  0
    3.5735   -2.4658    0.0000 C   0  0  0  0  0  0  0  0  0  0  0  0
    2.8609   -2.0527    0.0000 C   0  0  0  0  0  0  0  0  0  0  0  0
    3.5735   -3.2869    0.0000 C   0  0  0  0  0  0  0  0  0  0  0  0
    2.1482   -3.2869    0.0000 C   0  0  0  0  0  0  0  0  0  0  0  0
    2.1482   -2.4658    0.0000 N   0  0  0  0  0  0  0  0  0  0  0  0
    2.8609   -4.5107    0.0000 C   0  0  0  0  0  0  0  0  0  0  0  0
    2.8609   -1.2239    0.0000 N   0  0  0  0  0  0  0  0  0  0  0  0
    2.1482   -4.9264    0.0000 N   0  0  0  0  0  0  0  0  0  0  0  0
    4.2939   -2.0527    0.0000 C   0  0  0  0  0  0  0  0  0  0  0  0
    4.2939   -3.7026    0.0000 O   0  0  0  0  0  0  0  0  0  0  0  0
    3.5812   -4.9264    0.0000 O   0  0  0  0  0  0  0  0  0  0  0  0
    3.5735   -0.8159    0.0000 C   0  0  0  0  0  0  0  0  0  0  0  0
    2.1405   -8.2262    0.0000 O   0  0  0  0  0  0  0  0  0  0  0  0
    2.1482   -5.7475    0.0000 C   0  0  0  0  0  0  0  0  0  0  0  0
    4.2939   -1.2342    0.0000 C   0  0  0  0  0  0  0  0  0  0  0  0
    2.1405   -7.4051    0.0000 C   0  0  0  0  0  0  0  0  0  0  0  0
    1.4356   -2.0398    0.0000 C   0  0  0  0  0  0  0  0  0  0  0  0
    1.4201   -8.6316    0.0000 C   0  0  0  0  0  0  0  0  0  0  0  0
    1.4356   -6.1606    0.0000 C   0  0  0  0  0  0  0  0  0  0  0  0
    2.8609   -6.1606    0.0000 C   0  0  0  0  0  0  0  0  0  0  0  0
    1.4279   -6.9894    0.0000 C   0  0  0  0  0  0  0  0  0  0  0  0
    2.8609   -6.9894    0.0000 C   0  0  0  0  0  0  0  0  0  0  0  0
    3.5812    0.0000    0.0000 C   0  0  0  0  0  0  0  0  0  0  0  0
    0.7307   -8.2133    0.0000 C   0  0  0  0  0  0  0  0  0  0  0  0
    1.4201   -9.4604    0.0000 C   0  0  0  0  0  0  0  0  0  0  0  0
    1.4356   -1.2239    0.0000 C   0  0  0  0  0  0  0  0  0  0  0  0
    0.7307   -0.8082    0.0000 C   0  0  0  0  0  0  0  0  0  0  0  0
    0.7075   -9.8761    0.0000 C   0  0  0  0  0  0  0  0  0  0  0  0
    0.0077   -8.6316    0.0000 C   0  0  0  0  0  0  0  0  0  0  0  0
    0.0000   -9.4604    0.0000 C   0  0  0  0  0  0  0  0  0  0  0  0
  2  4  1  0  0  0  0
  3  6  1  0  0  0  0
  4  1  1  0  0  0  0
  5  1  2  0  0  0  0
  6  5  1  0  0  0  0
  7  1  1  0  0  0  0
  8  3  2  0  0  0  0
  9  7  1  0  0  0  0
 10  2  2  0  0  0  0
 11  4  2  0  0  0  0
 12  7  2  0  0  0  0
 13  8  1  0  0  0  0
 14 17  1  0  0  0  0
 15  9  1  0  0  0  0
 16 10  1  0  0  0  0
 17 23  2  0  0  0  0
 18  6  1  0  0  0  0
 19 14  1  0  0  0  0
 20 15  1  0  0  0  0
 21 15  2  0  0  0  0
 22 20  2  0  0  0  0
 23 21  1  0  0  0  0
 24 13  1  0  0  0  0
 25 19  2  0  0  0  0
 26 19  1  0  0  0  0
 27 18  1  0  0  0  0
 28 27  1  0  0  0  0
 29 26  2  0  0  0  0
 30 25  1  0  0  0  0
 31 29  1  0  0  0  0
  2  3  1  0  0  0  0
 13 16  2  0  0  0  0
 17 22  1  0  0  0  0
 30 31  2  0  0  0  0
M  END
>  <IDNUMBER>
F3406-0991

>  <Chemical_Name>
7-methyl-4-oxo-N-(4-phenoxyphenyl)-1-propyl-1,4-dihydro-1,8-naphthyridine-3-carboxamide

>  <PriceCoeff>
1.00

>  <CAS>
1251564-30-3

>  <MW>
413.47

>  <Description>
solid

>  <FSP3>
0.16

>  <clogP>
4.34

>  <TPSA>
71.53

>  <Acceptor>
4

>  <Donor>
3

>  <RotBonds>
6

>  <HAC>
31

>  <Collection>
General

$$$$
F3406-0997
  Mrv2219 10102508112D          

 28 30  0  0  0  0            999 V2000
    2.1529   -3.7055    0.0000 C   0  0  0  0  0  0  0  0  0  0  0  0
    2.8722   -2.4763    0.0000 C   0  0  0  0  0  0  0  0  0  0  0  0
    2.1529   -2.0597    0.0000 C   0  0  0  0  0  0  0  0  0  0  0  0
    2.8722   -3.2914    0.0000 C   0  0  0  0  0  0  0  0  0  0  0  0
    1.4387   -3.2914    0.0000 C   0  0  0  0  0  0  0  0  0  0  0  0
    1.4387   -2.4634    0.0000 N   0  0  0  0  0  0  0  0  0  0  0  0
    2.1529   -4.5283    0.0000 C   0  0  0  0  0  0  0  0  0  0  0  0
    2.1529   -1.2291    0.0000 N   0  0  0  0  0  0  0  0  0  0  0  0
    1.4387   -4.9320    0.0000 N   0  0  0  0  0  0  0  0  0  0  0  0
    1.4387   -5.7781    0.0000 C   0  0  0  0  0  0  0  0  0  0  0  0
    3.5890   -2.0597    0.0000 C   0  0  0  0  0  0  0  0  0  0  0  0
    3.5890   -3.7055    0.0000 O   0  0  0  0  0  0  0  0  0  0  0  0
    2.8722   -4.9320    0.0000 O   0  0  0  0  0  0  0  0  0  0  0  0
    0.7168   -6.1895    0.0000 C   0  0  0  0  0  0  0  0  0  0  0  0
    2.1451   -6.1895    0.0000 C   0  0  0  0  0  0  0  0  0  0  0  0
    0.7168   -7.0046    0.0000 C   0  0  0  0  0  0  0  0  0  0  0  0
    2.1451   -7.0046    0.0000 C   0  0  0  0  0  0  0  0  0  0  0  0
    1.4387   -7.4212    0.0000 C   0  0  0  0  0  0  0  0  0  0  0  0
    2.8722   -0.8151    0.0000 C   0  0  0  0  0  0  0  0  0  0  0  0
    3.5890   -1.2369    0.0000 C   0  0  0  0  0  0  0  0  0  0  0  0
    0.7245   -2.0520    0.0000 C   0  0  0  0  0  0  0  0  0  0  0  0
    0.0000   -7.4212    0.0000 O   0  0  0  0  0  0  0  0  0  0  0  0
    2.8645   -7.4212    0.0000 O   0  0  0  0  0  0  0  0  0  0  0  0
    2.8722    0.0000    0.0000 C   0  0  0  0  0  0  0  0  0  0  0  0
    2.8645   -8.2544    0.0000 C   0  0  0  0  0  0  0  0  0  0  0  0
    0.0000   -8.2544    0.0000 C   0  0  0  0  0  0  0  0  0  0  0  0
    0.7245   -1.2291    0.0000 C   0  0  0  0  0  0  0  0  0  0  0  0
    0.0155   -0.8073    0.0000 C   0  0  0  0  0  0  0  0  0  0  0  0
  2  4  1  0  0  0  0
  3  6  1  0  0  0  0
  4  1  1  0  0  0  0
  5  1  2  0  0  0  0
  6  5  1  0  0  0  0
  7  1  1  0  0  0  0
  8  3  2  0  0  0  0
  9  7  1  0  0  0  0
 10  9  1  0  0  0  0
 11  2  2  0  0  0  0
 12  4  2  0  0  0  0
 13  7  2  0  0  0  0
 14 10  2  0  0  0  0
 15 10  1  0  0  0  0
 16 14  1  0  0  0  0
 17 15  2  0  0  0  0
 18 17  1  0  0  0  0
 19  8  1  0  0  0  0
 20 11  1  0  0  0  0
 21  6  1  0  0  0  0
 22 16  1  0  0  0  0
 23 17  1  0  0  0  0
 24 19  1  0  0  0  0
 25 23  1  0  0  0  0
 26 22  1  0  0  0  0
 27 21  1  0  0  0  0
 28 27  1  0  0  0  0
  2  3  1  0  0  0  0
 19 20  2  0  0  0  0
 16 18  2  0  0  0  0
M  END
>  <IDNUMBER>
F3406-0997

>  <Chemical_Name>
N-(3,5-dimethoxyphenyl)-7-methyl-4-oxo-1-propyl-1,4-dihydro-1,8-naphthyridine-3-carboxamide

>  <PriceCoeff>
1.00

>  <CAS>
1251585-39-3

>  <MW>
381.43

>  <Description>
solid

>  <FSP3>
0.29

>  <clogP>
2.14

>  <TPSA>
80.76

>  <Acceptor>
5

>  <Donor>
3

>  <RotBonds>
6

>  <HAC>
28

>  <Collection>
General

>  <PPDS>
+

$$$$
F3406-0999
  Mrv2219 10102508112D          

 27 29  0  0  0  0            999 V2000
    2.1362   -3.7034    0.0000 C   0  0  0  0  0  0  0  0  0  0  0  0
    2.8577   -2.4749    0.0000 C   0  0  0  0  0  0  0  0  0  0  0  0
    2.1362   -2.0586    0.0000 C   0  0  0  0  0  0  0  0  0  0  0  0
    2.8577   -3.2999    0.0000 C   0  0  0  0  0  0  0  0  0  0  0  0
    1.4276   -3.2896    0.0000 C   0  0  0  0  0  0  0  0  0  0  0  0
    1.4276   -2.4749    0.0000 N   0  0  0  0  0  0  0  0  0  0  0  0
    2.1362   -4.5258    0.0000 C   0  0  0  0  0  0  0  0  0  0  0  0
    2.1362   -1.2284    0.0000 N   0  0  0  0  0  0  0  0  0  0  0  0
    1.4276   -4.9344    0.0000 N   0  0  0  0  0  0  0  0  0  0  0  0
    3.5637   -2.0586    0.0000 C   0  0  0  0  0  0  0  0  0  0  0  0
    3.5637   -3.7034    0.0000 O   0  0  0  0  0  0  0  0  0  0  0  0
    2.8577   -4.9344    0.0000 O   0  0  0  0  0  0  0  0  0  0  0  0
    1.4198   -7.4197    0.0000 C   0  0  0  0  0  0  0  0  0  0  0  0
    2.8577   -0.8224    0.0000 C   0  0  0  0  0  0  0  0  0  0  0  0
    1.4276   -5.7594    0.0000 C   0  0  0  0  0  0  0  0  0  0  0  0
    0.7009   -6.9981    0.0000 C   0  0  0  0  0  0  0  0  0  0  0  0
    2.1362   -7.0136    0.0000 C   0  0  0  0  0  0  0  0  0  0  0  0
    3.5637   -1.2362    0.0000 C   0  0  0  0  0  0  0  0  0  0  0  0
    0.7086   -2.0508    0.0000 C   0  0  0  0  0  0  0  0  0  0  0  0
    1.4069   -8.2421    0.0000 C   0  0  0  0  0  0  0  0  0  0  0  0
    2.1362   -6.1835    0.0000 C   0  0  0  0  0  0  0  0  0  0  0  0
    0.7009   -6.1706    0.0000 C   0  0  0  0  0  0  0  0  0  0  0  0
    2.8577    0.0000    0.0000 C   0  0  0  0  0  0  0  0  0  0  0  0
    2.1207   -8.6610    0.0000 C   0  0  0  0  0  0  0  0  0  0  0  0
    0.6905   -8.6610    0.0000 C   0  0  0  0  0  0  0  0  0  0  0  0
    0.7086   -1.2284    0.0000 C   0  0  0  0  0  0  0  0  0  0  0  0
    0.0000   -0.8017    0.0000 C   0  0  0  0  0  0  0  0  0  0  0  0
  2  4  1  0  0  0  0
  3  6  1  0  0  0  0
  4  1  1  0  0  0  0
  5  1  2  0  0  0  0
  6  5  1  0  0  0  0
  7  1  1  0  0  0  0
  8  3  2  0  0  0  0
  9  7  1  0  0  0  0
 10  2  2  0  0  0  0
 11  4  2  0  0  0  0
 12  7  2  0  0  0  0
 13 16  2  0  0  0  0
 14  8  1  0  0  0  0
 15  9  1  0  0  0  0
 16 22  1  0  0  0  0
 17 21  2  0  0  0  0
 18 10  1  0  0  0  0
 19  6  1  0  0  0  0
 20 13  1  0  0  0  0
 21 15  1  0  0  0  0
 22 15  2  0  0  0  0
 23 14  1  0  0  0  0
 24 20  1  0  0  0  0
 25 20  1  0  0  0  0
 26 19  1  0  0  0  0
 27 26  1  0  0  0  0
  2  3  1  0  0  0  0
 14 18  2  0  0  0  0
 13 17  1  0  0  0  0
M  END
>  <IDNUMBER>
F3406-0999

>  <Chemical_Name>
7-methyl-4-oxo-N-[4-(propan-2-yl)phenyl]-1-propyl-1,4-dihydro-1,8-naphthyridine-3-carboxamide

>  <PriceCoeff>
1.00

>  <CAS>
1251695-36-9

>  <MW>
363.45

>  <Description>
solid

>  <FSP3>
0.32

>  <clogP>
3.67

>  <TPSA>
62.30

>  <Acceptor>
3

>  <Donor>
3

>  <RotBonds>
5

>  <HAC>
27

>  <Collection>
General

>  <PPDS>
+

$$$$
F3406-3516
  Mrv2219 10102508112D          

 29 32  0  0  0  0            999 V2000
   -3.1557    2.7399    0.0000 C   0  0  0  0  0  0  0  0  0  0  0  0
   -1.8294    2.7399    0.0000 C   0  0  0  0  0  0  0  0  0  0  0  0
   -2.4946    3.2264    0.0000 S   0  0  0  0  0  0  0  0  0  0  0  0
   -4.1120    3.7919    0.0000 N   0  0  0  0  0  0  0  0  0  0  0  0
   -4.4487    5.4051    0.0000 N   0  0  0  0  0  0  0  0  0  0  0  0
   -2.0830    1.9541    0.0000 N   0  0  0  0  0  0  0  0  0  0  0  0
   -3.9373    2.9894    0.0000 C   0  0  0  0  0  0  0  0  0  0  0  0
   -2.9063    1.9541    0.0000 C   0  0  0  0  0  0  0  0  0  0  0  0
   -3.6671    5.1432    0.0000 C   0  0  0  0  0  0  0  0  0  0  0  0
   -5.0724    4.8438    0.0000 C   0  0  0  0  0  0  0  0  0  0  0  0
   -1.0436    2.9894    0.0000 N   0  0  0  0  0  0  0  0  0  0  0  0
   -4.8978    4.0455    0.0000 C   0  0  0  0  0  0  0  0  0  0  0  0
   -3.5008    4.3324    0.0000 C   0  0  0  0  0  0  0  0  0  0  0  0
   -4.6234    6.2159    0.0000 C   0  0  0  0  0  0  0  0  0  0  0  0
   -4.5527    2.4406    0.0000 O   0  0  0  0  0  0  0  0  0  0  0  0
   -0.7858    3.7752    0.0000 C   0  0  0  0  0  0  0  0  0  0  0  0
   -0.3825    2.5029    0.0000 C   0  0  0  0  0  0  0  0  0  0  0  0
   -5.8457    5.1057    0.0000 O   0  0  0  0  0  0  0  0  0  0  0  0
   -3.0517    5.6920    0.0000 O   0  0  0  0  0  0  0  0  0  0  0  0
    0.2911    2.9894    0.0000 C   0  0  0  0  0  0  0  0  0  0  0  0
    0.0374    3.7669    0.0000 C   0  0  0  0  0  0  0  0  0  0  0  0
   -4.0122    6.7647    0.0000 C   0  0  0  0  0  0  0  0  0  0  0  0
   -3.3885    1.2847    0.0000 C   0  0  0  0  0  0  0  0  0  0  0  0
   -4.1868    7.5754    0.0000 C   0  0  0  0  0  0  0  0  0  0  0  0
   -3.5631    8.1243    0.0000 C   0  0  0  0  0  0  0  0  0  0  0  0
   -4.9643    7.8249    0.0000 C   0  0  0  0  0  0  0  0  0  0  0  0
   -5.1472    8.6357    0.0000 C   0  0  0  0  0  0  0  0  0  0  0  0
   -3.7378    8.9350    0.0000 C   0  0  0  0  0  0  0  0  0  0  0  0
   -4.5236    9.1928    0.0000 C   0  0  0  0  0  0  0  0  0  0  0  0
  2  3  1  0  0  0  0
  3  1  1  0  0  0  0
  4  7  1  0  0  0  0
  5  9  1  0  0  0  0
  6  8  1  0  0  0  0
  7  1  1  0  0  0  0
  8  1  2  0  0  0  0
  9 13  1  0  0  0  0
 10 12  1  0  0  0  0
 11  2  1  0  0  0  0
 12  4  1  0  0  0  0
 13  4  1  0  0  0  0
 14  5  1  0  0  0  0
 15  7  2  0  0  0  0
 16 11  1  0  0  0  0
 17 11  1  0  0  0  0
 18 10  2  0  0  0  0
 19  9  2  0  0  0  0
 20 17  2  0  0  0  0
 21 16  2  0  0  0  0
 22 14  1  0  0  0  0
 23  8  1  0  0  0  0
 24 22  1  0  0  0  0
 25 24  2  0  0  0  0
 26 24  1  0  0  0  0
 27 26  2  0  0  0  0
 28 25  1  0  0  0  0
 29 27  1  0  0  0  0
  2  6  2  0  0  0  0
  5 10  1  0  0  0  0
 21 20  1  0  0  0  0
 29 28  2  0  0  0  0
M  END
>  <IDNUMBER>
F3406-3516

>  <Chemical_Name>
4-[4-methyl-2-(1H-pyrrol-1-yl)-1,3-thiazole-5-carbonyl]-1-(2-phenylethyl)piperazine-2,6-dione

>  <PriceCoeff>
1.00

>  <MW>
408.48

>  <Description>
solid

>  <FSP3>
0.24

>  <clogP>
3.63

>  <TPSA>
69.45

>  <Acceptor>
4

>  <Donor>
0

>  <RotBonds>
6

>  <HAC>
29

>  <Collection>
General

$$$$
F3409-0755
  Mrv2219 10102508112D          

 57 62  0  0  0  0            999 V2000
   -1.7848    0.6016    0.0000 C   0  0  2  0  0  0  0  0  0  0  0  0
   -2.5217    0.1488    0.0000 C   0  0  1  0  0  0  0  0  0  0  0  0
   -2.5217   -0.6625    0.0000 C   0  0  2  0  0  0  0  0  0  0  0  0
   -1.7916    1.4332    0.0000 C   0  0  0  0  0  0  0  0  0  0  0  0
   -1.1087    0.1960    0.0000 C   0  0  0  0  0  0  0  0  0  0  0  0
   -0.3516    3.8872    0.0000 C   0  0  2  0  0  0  0  0  0  0  0  0
   -1.1087   -0.6625    0.0000 C   0  0  0  0  0  0  0  0  0  0  0  0
   -3.2991   -0.9398    0.0000 O   0  0  0  0  0  0  0  0  0  0  0  0
   -3.2991    0.3853    0.0000 C   0  0  0  0  0  0  0  0  0  0  0  0
   -1.7848   -1.0546    0.0000 C   0  0  1  0  0  0  0  0  0  0  0  0
   -0.3516    4.7256    0.0000 O   0  0  0  0  0  0  0  0  0  0  0  0
   -6.0979    3.9278    0.0000 C   0  0  2  0  0  0  0  0  0  0  0  0
   -1.1087    1.8253    0.0000 O   0  0  0  0  0  0  0  0  0  0  0  0
   -6.8281    4.3334    0.0000 O   0  0  0  0  0  0  0  0  0  0  0  0
   -6.0913    3.1031    0.0000 C   0  0  0  0  0  0  0  0  0  0  0  0
   -7.5244    3.0760    0.0000 C   0  0  2  0  0  0  0  0  0  0  0  0
   -4.6782    3.9414    0.0000 C   0  0  1  0  0  0  0  0  0  0  0  0
   -0.3516    3.0490    0.0000 C   0  0  0  0  0  0  0  0  0  0  0  0
   -1.0817    4.3131    0.0000 O   0  0  0  0  0  0  0  0  0  0  0  0
   -6.8011    2.6840    0.0000 C   0  0  1  0  0  0  0  0  0  0  0  0
    0.3651    5.0907    0.0000 C   0  0  1  0  0  0  0  0  0  0  0  0
   -1.1087    2.6569    0.0000 C   0  0  2  0  0  0  0  0  0  0  0  0
   -7.5379    3.9009    0.0000 C   0  0  2  0  0  0  0  0  0  0  0  0
   -3.9346    4.3605    0.0000 C   0  0  0  0  0  0  0  0  0  0  0  0
   -5.3881    4.3605    0.0000 O   0  0  0  0  0  0  0  0  0  0  0  0
   -3.2248    3.9414    0.0000 C   0  0  0  0  0  0  0  0  0  0  0  0
   -3.7858   -0.2231    0.0000 C   0  0  0  0  0  0  0  0  0  0  0  0
   -3.2991    1.2372    0.0000 C   0  0  0  0  0  0  0  0  0  0  0  0
   -2.5217    1.8524    0.0000 O   0  0  0  0  0  0  0  0  0  0  0  0
   -3.8535    1.6428    0.0000 C   0  0  0  0  0  0  0  0  0  0  0  0
   -1.7848    3.0625    0.0000 C   0  0  0  0  0  0  0  0  0  0  0  0
   -1.7848    3.9278    0.0000 C   0  0  1  0  0  0  0  0  0  0  0  0
   -4.6782    3.0490    0.0000 C   0  0  2  0  0  0  0  0  0  0  0  0
    1.0344    4.6716    0.0000 C   0  0  2  0  0  0  0  0  0  0  0  0
   -3.8535    2.5217    0.0000 C   0  0  0  0  0  0  0  0  0  0  0  0
   -2.5352    1.0546    0.0000 O   0  0  0  0  0  0  0  0  0  0  0  0
    0.3177    3.5222    0.0000 C   0  0  0  0  0  0  0  0  0  0  0  0
    1.0412    3.9143    0.0000 C   0  0  0  0  0  0  0  0  0  0  0  0
   -2.4946    4.3605    0.0000 C   0  0  0  0  0  0  0  0  0  0  0  0
    0.0474    5.8343    0.0000 C   0  0  2  0  0  0  0  0  0  0  0  0
   -1.7577   -1.8794    0.0000 O   0  0  0  0  0  0  0  0  0  0  0  0
   -8.2275    2.6569    0.0000 O   0  0  0  0  0  0  0  0  0  0  0  0
   -6.7808    1.8524    0.0000 O   0  0  0  0  0  0  0  0  0  0  0  0
   -0.3988   -1.0817    0.0000 C   0  0  0  0  0  0  0  0  0  0  0  0
   -3.9549    5.2664    0.0000 C   0  0  0  0  0  0  0  0  0  0  0  0
   -8.2614    4.2929    0.0000 C   0  0  0  0  0  0  0  0  0  0  0  0
   -5.3881    2.6569    0.0000 C   0  0  0  0  0  0  0  0  0  0  0  0
    1.7577    5.0366    0.0000 C   0  0  0  0  0  0  0  0  0  0  0  0
   -0.7707    5.9493    0.0000 C   0  0  0  0  0  0  0  0  0  0  0  0
    0.6355    6.5036    0.0000 C   0  0  0  0  0  0  0  0  0  0  0  0
   -5.9899    1.5954    0.0000 C   0  0  0  0  0  0  0  0  0  0  0  0
   -0.9195    6.7672    0.0000 C   0  0  0  0  0  0  0  0  0  0  0  0
   -2.5352   -1.5685    0.0000 H   0  0  0  0  0  0  0  0  0  0  0  0
   -1.0817    1.0141    0.0000 H   0  0  0  0  0  0  0  0  0  0  0  0
   -0.4327    2.1972    0.0000 H   0  0  0  0  0  0  0  0  0  0  0  0
   -1.7645    4.9216    0.0000 H   0  0  0  0  0  0  0  0  0  0  0  0
    0.9803    5.6248    0.0000 H   0  0  0  0  0  0  0  0  0  0  0  0
  2  1  1  0  0  0  0
  3  2  1  0  0  0  0
  4  1  1  0  0  0  0
  5  1  1  0  0  0  0
  6 18  1  0  0  0  0
  7  5  2  0  0  0  0
  8  3  1  0  0  0  0
  9  2  1  0  0  0  0
 10  7  1  0  0  0  0
 11  6  1  0  0  0  0
 12 25  1  1  0  0  0
 13  4  1  0  0  0  0
 14 12  1  0  0  0  0
 15 12  1  0  0  0  0
 16 23  1  0  0  0  0
 17 33  1  0  0  0  0
 18 22  1  0  0  0  0
 19 32  1  0  0  0  0
 20 15  1  0  0  0  0
 21 11  1  0  0  0  0
 22 13  1  0  0  0  0
 23 14  1  0  0  0  0
 24 26  2  0  0  0  0
 17 25  1  6  0  0  0
 26 39  1  0  0  0  0
 27  9  1  0  0  0  0
 28  9  2  0  0  0  0
 29  4  2  0  0  0  0
 30 28  1  0  0  0  0
 31 22  1  0  0  0  0
 32 31  1  0  0  0  0
 33 35  1  0  0  0  0
 34 38  1  0  0  0  0
 35 30  2  0  0  0  0
  2 36  1  6  0  0  0
  6 37  1  1  0  0  0
 38 37  1  0  0  0  0
 39 32  1  0  0  0  0
 40 21  1  0  0  0  0
 10 41  1  1  0  0  0
 16 42  1  1  0  0  0
 20 43  1  6  0  0  0
 44  7  1  0  0  0  0
 45 24  1  0  0  0  0
 23 46  1  6  0  0  0
 33 47  1  6  0  0  0
 34 48  1  1  0  0  0
 49 40  1  0  0  0  0
 40 50  1  6  0  0  0
 51 43  1  0  0  0  0
 52 49  1  0  0  0  0
  3 53  1  6  0  0  0
  1 54  1  1  0  0  0
 22 55  1  6  0  0  0
 32 56  1  6  0  0  0
 21 57  1  1  0  0  0
 10  3  1  0  0  0  0
 27  8  1  0  0  0  0
 19  6  1  0  0  0  0
 24 17  1  0  0  0  0
 34 21  1  0  0  0  0
 16 20  1  0  0  0  0
M  END
>  <IDNUMBER>
F3409-0755

>  <Chemical_Name>
(1'R,2R,4'S,5S,6R,8'R,10'E,12'S,13'S,14'E,16'E,20'R,21'R,24'S)-6-[(2S)-butan-2-yl]-21',24'-dihydroxy-12'-{[(2R,4S,5S,6S)-5-hydroxy-4-methoxy-6-methyloxan-2-yl]oxy}-5,11',13',22'-tetramethyl-3',7',19'-trioxaspiro[oxane-2,6'-tetracyclo[15.6.1.1?,?.0??,??]pentacosane]-10',14',16',22'-tetraen-2'-one

>  <PriceCoeff>
7.00

>  <CAS>
71837-27-9

>  <MW>
730.94

>  <Description>
solid

>  <FSP3>
0.78

>  <clogP>
5.21

>  <TPSA>
142.37

>  <Acceptor>
11

>  <Donor>
3

>  <RotBonds>
5

>  <HAC>
52

$$$$
F3409-0756
  Mrv2219 10102508112D          

 53 57  0  0  0  0            999 V2000
    6.3168   -4.0570    0.0000 C   0  0  2  0  0  0  0  0  0  0  0  0
    5.5830   -4.5073    0.0000 C   0  0  1  0  0  0  0  0  0  0  0  0
    5.5830   -5.3161    0.0000 C   0  0  1  0  0  0  0  0  0  0  0  0
    6.3085   -3.2314    0.0000 C   0  0  0  0  0  0  0  0  0  0  0  0
    6.9881   -4.4572    0.0000 C   0  0  0  0  0  0  0  0  0  0  0  0
    7.7386   -0.7922    0.0000 C   0  0  2  0  0  0  0  0  0  0  0  0
    6.3168   -5.7081    0.0000 C   0  0  1  0  0  0  0  0  0  0  0  0
    6.9881   -5.3161    0.0000 C   0  0  0  0  0  0  0  0  0  0  0  0
    4.8116   -5.5871    0.0000 O   0  0  0  0  0  0  0  0  0  0  0  0
    4.8116   -4.2737    0.0000 C   0  0  0  0  0  0  0  0  0  0  0  0
    7.7386    0.0375    0.0000 O   0  0  0  0  0  0  0  0  0  0  0  0
    6.9881   -2.8436    0.0000 O   0  0  0  0  0  0  0  0  0  0  0  0
    3.4356   -0.7422    0.0000 C   0  0  1  0  0  0  0  0  0  0  0  0
    7.7386   -1.6303    0.0000 C   0  0  0  0  0  0  0  0  0  0  0  0
    7.0173   -0.3753    0.0000 O   0  0  0  0  0  0  0  0  0  0  0  0
    8.4516    0.3961    0.0000 C   0  0  1  0  0  0  0  0  0  0  0  0
    6.9881   -2.0181    0.0000 C   0  0  2  0  0  0  0  0  0  0  0  0
    4.1695   -0.3252    0.0000 C   0  0  0  0  0  0  0  0  0  0  0  0
    6.3418   -6.5211    0.0000 O   0  0  0  0  0  0  0  0  0  0  0  0
    4.8866   -0.7422    0.0000 C   0  0  0  0  0  0  0  0  0  0  0  0
    2.7394   -0.3252    0.0000 O   0  0  0  0  0  0  0  0  0  0  0  0
    4.3280   -4.8783    0.0000 C   0  0  0  0  0  0  0  0  0  0  0  0
    7.0715   -6.9089    0.0000 C   0  0  0  0  0  0  0  0  0  0  0  0
    2.7477    0.5003    0.0000 C   0  0  0  0  0  0  0  0  0  0  0  0
    4.8116   -3.4273    0.0000 C   0  0  0  0  0  0  0  0  0  0  0  0
    5.5830   -2.8186    0.0000 O   0  0  0  0  0  0  0  0  0  0  0  0
    4.2571   -3.0229    0.0000 C   0  0  0  0  0  0  0  0  0  0  0  0
    6.3168   -1.6178    0.0000 C   0  0  0  0  0  0  0  0  0  0  0  0
    6.3168   -0.7588    0.0000 C   0  0  1  0  0  0  0  0  0  0  0  0
    3.4356   -1.6303    0.0000 C   0  0  2  0  0  0  0  0  0  0  0  0
    9.1104   -0.0208    0.0000 C   0  0  2  0  0  0  0  0  0  0  0  0
    4.2571   -2.1515    0.0000 C   0  0  0  0  0  0  0  0  0  0  0  0
    5.5705   -3.6108    0.0000 O   0  0  0  0  0  0  0  0  0  0  0  0
    8.4015   -1.1550    0.0000 C   0  0  0  0  0  0  0  0  0  0  0  0
    3.4691    0.9006    0.0000 O   0  0  0  0  0  0  0  0  0  0  0  0
    7.7720   -6.4752    0.0000 O   0  0  0  0  0  0  0  0  0  0  0  0
    9.1229   -0.7713    0.0000 C   0  0  0  0  0  0  0  0  0  0  0  0
    5.6080   -0.3252    0.0000 C   0  0  0  0  0  0  0  0  0  0  0  0
    8.1347    1.1341    0.0000 C   0  0  2  0  0  0  0  0  0  0  0  0
    7.6927   -5.7331    0.0000 C   0  0  0  0  0  0  0  0  0  0  0  0
    4.1570    0.5712    0.0000 C   0  0  0  0  0  0  0  0  0  0  0  0
    7.0965   -7.7345    0.0000 C   0  0  0  0  0  0  0  0  0  0  0  0
    2.0389    0.9214    0.0000 C   0  0  0  0  0  0  0  0  0  0  0  0
    2.7394   -2.0181    0.0000 C   0  0  0  0  0  0  0  0  0  0  0  0
    9.8359    0.3502    0.0000 C   0  0  0  0  0  0  0  0  0  0  0  0
    7.3258    1.2551    0.0000 C   0  0  0  0  0  0  0  0  0  0  0  0
    8.7226    1.8054    0.0000 C   0  0  0  0  0  0  0  0  0  0  0  0
    7.1716    2.0639    0.0000 C   0  0  0  0  0  0  0  0  0  0  0  0
    7.0173   -3.6483    0.0000 H   0  0  0  0  0  0  0  0  0  0  0  0
    7.6552   -2.4767    0.0000 H   0  0  0  0  0  0  0  0  0  0  0  0
    6.3335    0.2335    0.0000 H   0  0  0  0  0  0  0  0  0  0  0  0
    9.0645    0.9298    0.0000 H   0  0  0  0  0  0  0  0  0  0  0  0
    5.5705   -6.2125    0.0000 H   0  0  0  0  0  0  0  0  0  0  0  0
  2  1  1  0  0  0  0
  3  2  1  0  0  0  0
  4  1  1  0  0  0  0
  5  1  1  0  0  0  0
  6 14  1  0  0  0  0
  7  3  1  0  0  0  0
  8  5  2  0  0  0  0
  9  3  1  0  0  0  0
 10  2  1  0  0  0  0
 11  6  1  0  0  0  0
 12  4  1  0  0  0  0
 13 30  1  0  0  0  0
 14 17  1  0  0  0  0
 15 29  1  0  0  0  0
 16 11  1  0  0  0  0
 17 12  1  0  0  0  0
 18 13  1  0  0  0  0
  7 19  1  1  0  0  0
 20 38  1  0  0  0  0
 13 21  1  6  0  0  0
 22 10  1  0  0  0  0
 23 19  1  0  0  0  0
 24 21  1  0  0  0  0
 25 10  2  0  0  0  0
 26  4  2  0  0  0  0
 27 25  1  0  0  0  0
 28 17  1  0  0  0  0
 29 28  1  0  0  0  0
 30 32  1  0  0  0  0
 31 37  1  0  0  0  0
 32 27  2  0  0  0  0
  2 33  1  6  0  0  0
  6 34  1  1  0  0  0
 35 24  2  0  0  0  0
 36 23  2  0  0  0  0
 37 34  1  0  0  0  0
 38 29  1  0  0  0  0
 39 16  1  0  0  0  0
 40  8  1  0  0  0  0
 41 18  1  0  0  0  0
 42 23  1  0  0  0  0
 43 24  1  0  0  0  0
 30 44  1  6  0  0  0
 31 45  1  1  0  0  0
 46 39  1  0  0  0  0
 39 47  1  6  0  0  0
 48 46  1  0  0  0  0
  1 49  1  1  0  0  0
 17 50  1  6  0  0  0
 29 51  1  6  0  0  0
 16 52  1  1  0  0  0
  3 53  1  6  0  0  0
  8  7  1  0  0  0  0
 22  9  1  0  0  0  0
 15  6  1  0  0  0  0
 20 18  2  0  0  0  0
 31 16  1  0  0  0  0
M  END
>  <IDNUMBER>
F3409-0756

>  <Chemical_Name>
(1'R,2R,4'S,5S,6R,8'R,10'E,12'S,13'S,14'E,16'E,20'R,21'R,24'S)-12'-(acetyloxy)-6-[(2S)-butan-2-yl]-24'-hydroxy-5,11',13',22'-tetramethyl-2'-oxo-3',7',19'-trioxaspiro[oxane-2,6'-tetracyclo[15.6.1.1?,?.0??,??]pentacosane]-10',14',16',22'-tetraen-21'-yl acetate

>  <PriceCoeff>
7.00

>  <MW>
670.84

>  <Description>
solid

>  <FSP3>
0.71

>  <clogP>
6.31

>  <TPSA>
126.82

>  <Acceptor>
10

>  <Donor>
1

>  <RotBonds>
6

>  <HAC>
48

$$$$
F3409-0757
  Mrv2219 10102508112D          

 85 93  0  0  0  0            999 V2000
    9.7751  -10.2748    0.0000 C   0  0  2  0  0  0  0  0  0  0  0  0
    9.0337  -10.7307    0.0000 C   0  0  1  0  0  0  0  0  0  0  0  0
    9.0337  -11.5489    0.0000 C   0  0  1  0  0  0  0  0  0  0  0  0
    9.7696   -9.4401    0.0000 C   0  0  0  0  0  0  0  0  0  0  0  0
   10.4560  -10.6812    0.0000 C   0  0  0  0  0  0  0  0  0  0  0  0
   11.2138   -6.9744    0.0000 C   0  0  2  0  0  0  0  0  0  0  0  0
    9.7751  -11.9443    0.0000 C   0  0  1  0  0  0  0  0  0  0  0  0
   10.4560  -11.5489    0.0000 C   0  0  0  0  0  0  0  0  0  0  0  0
    3.3170  -10.7086    0.0000 C   0  0  2  0  0  0  0  0  0  0  0  0
    8.2539  -11.8234    0.0000 O   0  0  0  0  0  0  0  0  0  0  0  0
    8.2539  -10.4945    0.0000 C   0  0  0  0  0  0  0  0  0  0  0  0
    9.8025  -12.7680    0.0000 O   0  0  0  0  0  0  0  0  0  0  0  0
    3.3170  -11.5379    0.0000 O   0  0  0  0  0  0  0  0  0  0  0  0
    4.0089   -7.7926    0.0000 C   0  0  2  0  0  0  0  0  0  0  0  0
   11.2138   -6.1342    0.0000 O   0  0  0  0  0  0  0  0  0  0  0  0
    3.3059   -9.0502    0.0000 C   0  0  2  0  0  0  0  0  0  0  0  0
    5.4422   -6.9414    0.0000 C   0  0  2  0  0  0  0  0  0  0  0  0
   10.4560   -9.0502    0.0000 O   0  0  0  0  0  0  0  0  0  0  0  0
    4.1187  -11.7521    0.0000 C   0  0  0  0  0  0  0  0  0  0  0  0
   10.5109  -13.1689    0.0000 C   0  0  0  0  0  0  0  0  0  0  0  0
    4.7118   -6.5296    0.0000 O   0  0  0  0  0  0  0  0  0  0  0  0
    2.6030   -9.4675    0.0000 O   0  0  0  0  0  0  0  0  0  0  0  0
    4.0363   -9.4510    0.0000 C   0  0  0  0  0  0  0  0  0  0  0  0
    5.4476   -7.7652    0.0000 C   0  0  0  0  0  0  0  0  0  0  0  0
    4.0363  -10.2858    0.0000 C   0  0  2  0  0  0  0  0  0  0  0  0
    4.7392   -8.1880    0.0000 C   0  0  2  0  0  0  0  0  0  0  0  0
    6.8645   -6.9250    0.0000 C   0  0  1  0  0  0  0  0  0  0  0  0
    2.6030  -10.2968    0.0000 C   0  0  1  0  0  0  0  0  0  0  0  0
    3.9979   -6.9633    0.0000 C   0  0  1  0  0  0  0  0  0  0  0  0
   11.2138   -7.8200    0.0000 C   0  0  0  0  0  0  0  0  0  0  0  0
   10.4835   -6.5515    0.0000 O   0  0  0  0  0  0  0  0  0  0  0  0
   11.9333   -5.7717    0.0000 C   0  0  1  0  0  0  0  0  0  0  0  0
   10.4560   -8.2154    0.0000 C   0  0  2  0  0  0  0  0  0  0  0  0
    7.6114   -6.5020    0.0000 C   0  0  0  0  0  0  0  0  0  0  0  0
    3.3059   -8.2154    0.0000 O   0  0  0  0  0  0  0  0  0  0  0  0
    6.1616   -6.5020    0.0000 O   0  0  0  0  0  0  0  0  0  0  0  0
    8.3307   -6.9250    0.0000 C   0  0  0  0  0  0  0  0  0  0  0  0
    7.7652  -11.1040    0.0000 C   0  0  0  0  0  0  0  0  0  0  0  0
    4.1078  -12.5758    0.0000 C   0  0  0  0  0  0  0  0  0  0  0  0
   11.2853  -12.9602    0.0000 C   0  0  0  0  0  0  0  0  0  0  0  0
    8.2539   -9.6378    0.0000 C   0  0  0  0  0  0  0  0  0  0  0  0
    9.0337   -9.0227    0.0000 O   0  0  0  0  0  0  0  0  0  0  0  0
    7.6938   -9.2314    0.0000 C   0  0  0  0  0  0  0  0  0  0  0  0
    9.7751   -7.8091    0.0000 C   0  0  0  0  0  0  0  0  0  0  0  0
    9.7751   -6.9414    0.0000 C   0  0  1  0  0  0  0  0  0  0  0  0
   10.5000  -13.9762    0.0000 O   0  0  0  0  0  0  0  0  0  0  0  0
    4.8327  -11.3347    0.0000 O   0  0  0  0  0  0  0  0  0  0  0  0
    6.8645   -7.8200    0.0000 C   0  0  2  0  0  0  0  0  0  0  0  0
   12.6033   -6.1945    0.0000 C   0  0  2  0  0  0  0  0  0  0  0  0
    7.6938   -8.3472    0.0000 C   0  0  0  0  0  0  0  0  0  0  0  0
    9.0227   -9.8245    0.0000 O   0  0  0  0  0  0  0  0  0  0  0  0
   11.8839   -7.3422    0.0000 C   0  0  0  0  0  0  0  0  0  0  0  0
   11.8509  -13.5258    0.0000 C   0  0  0  0  0  0  0  0  0  0  0  0
   11.4939  -12.1914    0.0000 C   0  0  0  0  0  0  0  0  0  0  0  0
    4.8162  -12.9877    0.0000 C   0  0  0  0  0  0  0  0  0  0  0  0
    3.3938  -12.9877    0.0000 C   0  0  0  0  0  0  0  0  0  0  0  0
   12.6197   -6.9524    0.0000 C   0  0  0  0  0  0  0  0  0  0  0  0
    9.0612   -6.5020    0.0000 C   0  0  0  0  0  0  0  0  0  0  0  0
   11.6148   -5.0248    0.0000 C   0  0  2  0  0  0  0  0  0  0  0  0
    4.7557  -10.7086    0.0000 O   0  0  0  0  0  0  0  0  0  0  0  0
    4.7557   -9.0227    0.0000 O   0  0  0  0  0  0  0  0  0  0  0  0
    4.8216  -13.8059    0.0000 C   0  0  0  0  0  0  0  0  0  0  0  0
    3.3938  -13.8059    0.0000 C   0  0  0  0  0  0  0  0  0  0  0  0
   12.6197  -13.3172    0.0000 C   0  0  0  0  0  0  0  0  0  0  0  0
   12.2573  -11.9827    0.0000 C   0  0  0  0  0  0  0  0  0  0  0  0
   12.8284  -12.5483    0.0000 C   0  0  0  0  0  0  0  0  0  0  0  0
    4.1078  -14.2178    0.0000 C   0  0  0  0  0  0  0  0  0  0  0  0
   11.1699  -11.9717    0.0000 C   0  0  0  0  0  0  0  0  0  0  0  0
    7.5949   -5.5959    0.0000 C   0  0  0  0  0  0  0  0  0  0  0  0
    1.8837  -10.7196    0.0000 C   0  0  0  0  0  0  0  0  0  0  0  0
    3.2676   -6.5679    0.0000 C   0  0  0  0  0  0  0  0  0  0  0  0
    6.1616   -8.2154    0.0000 C   0  0  0  0  0  0  0  0  0  0  0  0
   13.3337   -5.8212    0.0000 C   0  0  0  0  0  0  0  0  0  0  0  0
   10.7966   -4.9040    0.0000 C   0  0  0  0  0  0  0  0  0  0  0  0
   12.2079   -4.3494    0.0000 C   0  0  0  0  0  0  0  0  0  0  0  0
   13.5973  -12.3397    0.0000 C   0  0  0  0  0  0  0  0  0  0  0  0
    4.1022  -15.0306    0.0000 C   0  0  0  0  0  0  0  0  0  0  0  0
    5.5520   -9.2809    0.0000 C   0  0  0  0  0  0  0  0  0  0  0  0
    5.5026  -10.3077    0.0000 C   0  0  0  0  0  0  0  0  0  0  0  0
   10.6427   -4.0858    0.0000 C   0  0  0  0  0  0  0  0  0  0  0  0
   10.4835   -9.8629    0.0000 H   0  0  0  0  0  0  0  0  0  0  0  0
   11.1315   -8.6767    0.0000 H   0  0  0  0  0  0  0  0  0  0  0  0
    9.7916   -5.9365    0.0000 H   0  0  0  0  0  0  0  0  0  0  0  0
   12.5538   -5.2335    0.0000 H   0  0  0  0  0  0  0  0  0  0  0  0
    9.0227  -12.4550    0.0000 H   0  0  0  0  0  0  0  0  0  0  0  0
  2  1  1  0  0  0  0
  3  2  1  0  0  0  0
  4  1  1  0  0  0  0
  5  1  1  0  0  0  0
  6 30  1  0  0  0  0
  7  8  1  0  0  0  0
  8  5  2  0  0  0  0
  9 28  1  0  0  0  0
 10  3  1  0  0  0  0
 11  2  1  0  0  0  0
  7 12  1  1  0  0  0
  9 13  1  1  0  0  0
 14 29  1  0  0  0  0
 15  6  1  0  0  0  0
 16 35  1  1  0  0  0
 17 36  1  1  0  0  0
 18  4  1  0  0  0  0
 19 13  1  0  0  0  0
 20 12  1  0  0  0  0
 21 17  1  0  0  0  0
 22 16  1  0  0  0  0
 23 16  1  0  0  0  0
 24 17  1  0  0  0  0
 25 23  1  0  0  0  0
 26 24  1  0  0  0  0
 27 48  1  0  0  0  0
 28 22  1  0  0  0  0
 29 21  1  0  0  0  0
 30 33  1  0  0  0  0
 31 45  1  0  0  0  0
 32 15  1  0  0  0  0
 33 18  1  0  0  0  0
 34 37  2  0  0  0  0
 14 35  1  1  0  0  0
 27 36  1  6  0  0  0
 37 58  1  0  0  0  0
 38 11  1  0  0  0  0
 39 19  1  0  0  0  0
 40 20  1  0  0  0  0
 41 11  2  0  0  0  0
 42  4  2  0  0  0  0
 43 41  1  0  0  0  0
 44 33  1  0  0  0  0
 45 44  1  0  0  0  0
 46 20  2  0  0  0  0
 47 19  2  0  0  0  0
 48 50  1  0  0  0  0
 49 57  1  0  0  0  0
 50 43  2  0  0  0  0
  2 51  1  6  0  0  0
  6 52  1  1  0  0  0
 53 40  2  0  0  0  0
 54 40  1  0  0  0  0
 55 39  1  0  0  0  0
 56 39  2  0  0  0  0
 57 52  1  0  0  0  0
 58 45  1  0  0  0  0
 59 32  1  0  0  0  0
 25 60  1  6  0  0  0
 26 61  1  6  0  0  0
 62 55  2  0  0  0  0
 63 56  1  0  0  0  0
 64 53  1  0  0  0  0
 65 54  2  0  0  0  0
 66 64  2  0  0  0  0
 67 63  2  0  0  0  0
 68  8  1  0  0  0  0
 69 34  1  0  0  0  0
 28 70  1  6  0  0  0
 29 71  1  6  0  0  0
 48 72  1  6  0  0  0
 49 73  1  1  0  0  0
 74 59  1  0  0  0  0
 59 75  1  6  0  0  0
 76 66  1  0  0  0  0
 77 67  1  0  0  0  0
 78 61  1  0  0  0  0
 79 60  1  0  0  0  0
 80 74  1  0  0  0  0
  1 81  1  1  0  0  0
 33 82  1  6  0  0  0
 45 83  1  6  0  0  0
 32 84  1  1  0  0  0
  3 85  1  6  0  0  0
  7  3  1  0  0  0  0
 38 10  1  0  0  0  0
 31  6  1  0  0  0  0
 34 27  1  0  0  0  0
 49 32  1  0  0  0  0
 65 66  1  0  0  0  0
 14 26  1  0  0  0  0
  9 25  1  0  0  0  0
 62 67  1  0  0  0  0
M  END
>  <IDNUMBER>
F3409-0757

>  <Chemical_Name>
(2S,3S,4S,6S)-6-{[(2S,3S,4S,6R)-6-[(1'R,2R,4'S,5S,6R,8'R,10'E,12'S,13'S,14'E,16'E,20'R,21'R,24'S)-6-[(2S)-butan-2-yl]-24'-hydroxy-5,11',13',22'-tetramethyl-21'-(4-methylbenzoyloxy)-3',7',19'-trioxaspiro[oxane-2,6'-tetracyclo[15.6.1.1?,?.0??,??]pentacosane]-10',14',16',22'-tetraen-2'-oneoxy]-4-methoxy-2-methyloxan-3-yl]oxy}-4-methoxy-2-methyloxan-3-yl 4-methylbenzoate

>  <PriceCoeff>
7.00

>  <MW>
1 111.38

>  <Description>
solid

>  <FSP3>
0.64

>  <clogP>
10.70

>  <TPSA>
182.20

>  <Acceptor>
16

>  <Donor>
1

>  <RotBonds>
14

>  <HAC>
80

$$$$
F3409-0758
  Mrv2219 10102508112D          

 76 83  0  0  0  0            999 V2000
    9.7191  -10.2158    0.0000 C   0  0  2  0  0  0  0  0  0  0  0  0
    8.9819  -10.6691    0.0000 C   0  0  1  0  0  0  0  0  0  0  0  0
    8.9819  -11.4826    0.0000 C   0  0  1  0  0  0  0  0  0  0  0  0
    9.7136   -9.3860    0.0000 C   0  0  0  0  0  0  0  0  0  0  0  0
   10.3960  -10.6200    0.0000 C   0  0  0  0  0  0  0  0  0  0  0  0
   11.1495   -6.9344    0.0000 C   0  0  2  0  0  0  0  0  0  0  0  0
    9.7191  -11.8758    0.0000 C   0  0  1  0  0  0  0  0  0  0  0  0
   10.3960  -11.4826    0.0000 C   0  0  0  0  0  0  0  0  0  0  0  0
    8.2066  -11.7556    0.0000 O   0  0  0  0  0  0  0  0  0  0  0  0
    8.2066  -10.4343    0.0000 C   0  0  0  0  0  0  0  0  0  0  0  0
    9.7463  -12.6948    0.0000 O   0  0  0  0  0  0  0  0  0  0  0  0
    3.9859   -7.7479    0.0000 C   0  0  2  0  0  0  0  0  0  0  0  0
   11.1495   -6.0990    0.0000 O   0  0  0  0  0  0  0  0  0  0  0  0
    3.2870   -8.9983    0.0000 C   0  0  2  0  0  0  0  0  0  0  0  0
    5.4110   -6.9016    0.0000 C   0  0  2  0  0  0  0  0  0  0  0  0
   10.3960   -8.9983    0.0000 O   0  0  0  0  0  0  0  0  0  0  0  0
   10.4507  -13.0934    0.0000 C   0  0  0  0  0  0  0  0  0  0  0  0
    4.6848   -6.4921    0.0000 O   0  0  0  0  0  0  0  0  0  0  0  0
    2.5881   -9.4132    0.0000 O   0  0  0  0  0  0  0  0  0  0  0  0
    5.4164   -7.7207    0.0000 C   0  0  0  0  0  0  0  0  0  0  0  0
    4.0132   -9.3968    0.0000 C   0  0  0  0  0  0  0  0  0  0  0  0
    4.7120   -8.1410    0.0000 C   0  0  2  0  0  0  0  0  0  0  0  0
    3.2980  -10.6472    0.0000 C   0  0  2  0  0  0  0  0  0  0  0  0
    6.8251   -6.8853    0.0000 C   0  0  1  0  0  0  0  0  0  0  0  0
    3.9749   -6.9234    0.0000 C   0  0  1  0  0  0  0  0  0  0  0  0
   11.1495   -7.7752    0.0000 C   0  0  0  0  0  0  0  0  0  0  0  0
   10.4234   -6.5139    0.0000 O   0  0  0  0  0  0  0  0  0  0  0  0
    4.0132  -10.2269    0.0000 C   0  0  1  0  0  0  0  0  0  0  0  0
   11.8649   -5.7386    0.0000 C   0  0  1  0  0  0  0  0  0  0  0  0
   10.3960   -8.1683    0.0000 C   0  0  2  0  0  0  0  0  0  0  0  0
    2.5881  -10.2377    0.0000 C   0  0  2  0  0  0  0  0  0  0  0  0
    7.5677   -6.4647    0.0000 C   0  0  0  0  0  0  0  0  0  0  0  0
    3.2870   -8.1683    0.0000 O   0  0  0  0  0  0  0  0  0  0  0  0
    6.1263   -6.4647    0.0000 O   0  0  0  0  0  0  0  0  0  0  0  0
    8.2830   -6.8853    0.0000 C   0  0  0  0  0  0  0  0  0  0  0  0
    7.7207  -11.0404    0.0000 C   0  0  0  0  0  0  0  0  0  0  0  0
   11.2206  -12.8858    0.0000 C   0  0  0  0  0  0  0  0  0  0  0  0
    8.2066   -9.5825    0.0000 C   0  0  0  0  0  0  0  0  0  0  0  0
    8.9819   -8.9709    0.0000 O   0  0  0  0  0  0  0  0  0  0  0  0
    7.6496   -9.1785    0.0000 C   0  0  0  0  0  0  0  0  0  0  0  0
    9.7191   -7.7643    0.0000 C   0  0  0  0  0  0  0  0  0  0  0  0
    9.7191   -6.9016    0.0000 C   0  0  1  0  0  0  0  0  0  0  0  0
   10.4398  -13.8961    0.0000 O   0  0  0  0  0  0  0  0  0  0  0  0
    6.8251   -7.7752    0.0000 C   0  0  2  0  0  0  0  0  0  0  0  0
   12.5310   -6.1590    0.0000 C   0  0  2  0  0  0  0  0  0  0  0  0
    7.6496   -8.2993    0.0000 C   0  0  0  0  0  0  0  0  0  0  0  0
    8.9709   -9.7682    0.0000 O   0  0  0  0  0  0  0  0  0  0  0  0
   11.8158   -7.3001    0.0000 C   0  0  0  0  0  0  0  0  0  0  0  0
   11.4280  -12.1215    0.0000 C   0  0  0  0  0  0  0  0  0  0  0  0
   11.7830  -13.4483    0.0000 C   0  0  0  0  0  0  0  0  0  0  0  0
   12.5474   -6.9125    0.0000 C   0  0  0  0  0  0  0  0  0  0  0  0
    9.0092   -6.4647    0.0000 C   0  0  0  0  0  0  0  0  0  0  0  0
   11.5482   -4.9960    0.0000 C   0  0  2  0  0  0  0  0  0  0  0  0
    3.2980  -11.4718    0.0000 O   0  0  0  0  0  0  0  0  0  0  0  0
    4.7284   -8.9709    0.0000 O   0  0  0  0  0  0  0  0  0  0  0  0
    4.7284  -10.6472    0.0000 O   0  0  0  0  0  0  0  0  0  0  0  0
   12.5474  -13.2408    0.0000 C   0  0  0  0  0  0  0  0  0  0  0  0
   12.1870  -11.9140    0.0000 C   0  0  0  0  0  0  0  0  0  0  0  0
   12.7548  -12.4763    0.0000 C   0  0  0  0  0  0  0  0  0  0  0  0
   11.1059  -11.9030    0.0000 C   0  0  0  0  0  0  0  0  0  0  0  0
    7.5514   -5.5638    0.0000 C   0  0  0  0  0  0  0  0  0  0  0  0
    3.2488   -6.5303    0.0000 C   0  0  0  0  0  0  0  0  0  0  0  0
    1.8729  -10.6581    0.0000 C   0  0  0  0  0  0  0  0  0  0  0  0
    6.1263   -8.1683    0.0000 C   0  0  0  0  0  0  0  0  0  0  0  0
   13.2572   -5.7878    0.0000 C   0  0  0  0  0  0  0  0  0  0  0  0
   10.7346   -4.8758    0.0000 C   0  0  0  0  0  0  0  0  0  0  0  0
   12.1379   -4.3244    0.0000 C   0  0  0  0  0  0  0  0  0  0  0  0
   13.5193  -12.2689    0.0000 C   0  0  0  0  0  0  0  0  0  0  0  0
    5.4710  -10.2486    0.0000 C   0  0  0  0  0  0  0  0  0  0  0  0
    5.5202   -9.2277    0.0000 C   0  0  0  0  0  0  0  0  0  0  0  0
   10.5817   -4.0623    0.0000 C   0  0  0  0  0  0  0  0  0  0  0  0
    9.7354   -5.9024    0.0000 H   0  0  0  0  0  0  0  0  0  0  0  0
   12.4818   -5.2035    0.0000 H   0  0  0  0  0  0  0  0  0  0  0  0
    8.9709  -12.3836    0.0000 H   0  0  0  0  0  0  0  0  0  0  0  0
   10.4234   -9.8063    0.0000 H   0  0  0  0  0  0  0  0  0  0  0  0
   11.0676   -8.6270    0.0000 H   0  0  0  0  0  0  0  0  0  0  0  0
  2  1  1  0  0  0  0
  3  2  1  0  0  0  0
  4  1  1  0  0  0  0
  5  1  1  0  0  0  0
  6 26  1  0  0  0  0
  7  8  1  0  0  0  0
  8  5  2  0  0  0  0
  9  3  1  0  0  0  0
 10  2  1  0  0  0  0
  7 11  1  1  0  0  0
 12 25  1  0  0  0  0
 13  6  1  0  0  0  0
 14 33  1  1  0  0  0
 15 34  1  1  0  0  0
 16  4  1  0  0  0  0
 17 11  1  0  0  0  0
 18 15  1  0  0  0  0
 19 14  1  0  0  0  0
 20 15  1  0  0  0  0
 21 14  1  0  0  0  0
 22 20  1  0  0  0  0
 23 31  1  0  0  0  0
 24 44  1  0  0  0  0
 25 18  1  0  0  0  0
 26 30  1  0  0  0  0
 27 42  1  0  0  0  0
 28 21  1  0  0  0  0
 29 13  1  0  0  0  0
 30 16  1  0  0  0  0
 31 19  1  0  0  0  0
 32 35  2  0  0  0  0
 12 33  1  1  0  0  0
 24 34  1  6  0  0  0
 35 52  1  0  0  0  0
 36 10  1  0  0  0  0
 37 17  1  0  0  0  0
 38 10  2  0  0  0  0
 39  4  2  0  0  0  0
 40 38  1  0  0  0  0
 41 30  1  0  0  0  0
 42 41  1  0  0  0  0
 43 17  2  0  0  0  0
 44 46  1  0  0  0  0
 45 51  1  0  0  0  0
 46 40  2  0  0  0  0
  2 47  1  6  0  0  0
  6 48  1  1  0  0  0
 49 37  1  0  0  0  0
 50 37  2  0  0  0  0
 51 48  1  0  0  0  0
 52 42  1  0  0  0  0
 53 29  1  0  0  0  0
 23 54  1  1  0  0  0
 22 55  1  6  0  0  0
 28 56  1  6  0  0  0
 57 50  1  0  0  0  0
 58 49  2  0  0  0  0
 59 58  1  0  0  0  0
 60  8  1  0  0  0  0
 61 32  1  0  0  0  0
 25 62  1  6  0  0  0
 31 63  1  6  0  0  0
 44 64  1  6  0  0  0
 45 65  1  1  0  0  0
 66 53  1  0  0  0  0
 53 67  1  6  0  0  0
 68 59  1  0  0  0  0
 69 56  1  0  0  0  0
 70 55  1  0  0  0  0
 71 66  1  0  0  0  0
 42 72  1  6  0  0  0
 29 73  1  1  0  0  0
  3 74  1  6  0  0  0
  1 75  1  1  0  0  0
 30 76  1  6  0  0  0
  7  3  1  0  0  0  0
 36  9  1  0  0  0  0
 27  6  1  0  0  0  0
 32 24  1  0  0  0  0
 45 29  1  0  0  0  0
 59 57  2  0  0  0  0
 12 22  1  0  0  0  0
 23 28  1  0  0  0  0
M  END
>  <IDNUMBER>
F3409-0758

>  <Chemical_Name>
(1'R,2R,4'S,5S,6R,8'R,10'E,12'S,13'S,14'E,16'E,20'R,21'R,24'S)-6-[(2S)-butan-2-yl]-24'-hydroxy-12'-{[(2R,4S,5S,6S)-5-{[(2S,4S,5S,6S)-5-hydroxy-4-methoxy-6-methyloxan-2-yl]oxy}-4-methoxy-6-methyloxan-2-yl]oxy}-5,11',13',22'-tetramethyl-2'-oxo-3',7',19'-trioxaspiro[oxane-2,6'-tetracyclo[15.6.1.1?,?.0??,??]pentacosane]-10',14',16',22'-tetraen-21'-yl 4-methylbenzoate

>  <PriceCoeff>
7.00

>  <MW>
993.24

>  <Description>
solid

>  <FSP3>
0.71

>  <clogP>
7.86

>  <TPSA>
176.13

>  <Acceptor>
15

>  <Donor>
2

>  <RotBonds>
11

>  <HAC>
71

$$$$
F3409-0759
  Mrv2219 10102508112D          

 47 51  0  0  0  0            999 V2000
    9.6844  -10.1794    0.0000 C   0  0  2  0  0  0  0  0  0  0  0  0
    8.9499  -10.6310    0.0000 C   0  0  1  0  0  0  0  0  0  0  0  0
    8.9499  -11.4416    0.0000 C   0  0  2  0  0  0  0  0  0  0  0  0
    9.6789   -9.3524    0.0000 C   0  0  0  0  0  0  0  0  0  0  0  0
   10.3589  -10.5821    0.0000 C   0  0  0  0  0  0  0  0  0  0  0  0
   11.1097   -6.9096    0.0000 C   0  0  2  0  0  0  0  0  0  0  0  0
   10.3589  -11.4416    0.0000 C   0  0  0  0  0  0  0  0  0  0  0  0
    8.1773  -11.7136    0.0000 O   0  0  0  0  0  0  0  0  0  0  0  0
    8.1773  -10.3970    0.0000 C   0  0  0  0  0  0  0  0  0  0  0  0
    9.6844  -11.8334    0.0000 C   0  0  1  0  0  0  0  0  0  0  0  0
   11.1097   -6.0772    0.0000 O   0  0  0  0  0  0  0  0  0  0  0  0
   10.3589   -8.9662    0.0000 O   0  0  0  0  0  0  0  0  0  0  0  0
   11.1097   -7.7474    0.0000 C   0  0  0  0  0  0  0  0  0  0  0  0
   10.3862   -6.4906    0.0000 O   0  0  0  0  0  0  0  0  0  0  0  0
   11.8225   -5.7181    0.0000 C   0  0  1  0  0  0  0  0  0  0  0  0
   10.3589   -8.1391    0.0000 C   0  0  2  0  0  0  0  0  0  0  0  0
    7.5407   -6.4417    0.0000 C   0  0  0  0  0  0  0  0  0  0  0  0
    8.2534   -6.8607    0.0000 C   0  0  0  0  0  0  0  0  0  0  0  0
    7.6931  -11.0010    0.0000 C   0  0  0  0  0  0  0  0  0  0  0  0
    6.8007   -6.8607    0.0000 C   0  0  2  0  0  0  0  0  0  0  0  0
    8.1773   -9.5483    0.0000 C   0  0  0  0  0  0  0  0  0  0  0  0
    8.9499   -8.9389    0.0000 O   0  0  0  0  0  0  0  0  0  0  0  0
    7.6223   -9.1457    0.0000 C   0  0  0  0  0  0  0  0  0  0  0  0
    9.6844   -7.7366    0.0000 C   0  0  0  0  0  0  0  0  0  0  0  0
    9.6844   -6.8770    0.0000 C   0  0  1  0  0  0  0  0  0  0  0  0
   12.4862   -6.1370    0.0000 C   0  0  2  0  0  0  0  0  0  0  0  0
    7.6223   -8.2697    0.0000 C   0  0  0  0  0  0  0  0  0  0  0  0
    8.9389   -9.7333    0.0000 O   0  0  0  0  0  0  0  0  0  0  0  0
   11.7736   -7.2741    0.0000 C   0  0  0  0  0  0  0  0  0  0  0  0
    6.8007   -7.7474    0.0000 C   0  0  2  0  0  0  0  0  0  0  0  0
   12.5026   -6.8878    0.0000 C   0  0  0  0  0  0  0  0  0  0  0  0
    8.9770   -6.4417    0.0000 C   0  0  0  0  0  0  0  0  0  0  0  0
   11.5069   -4.9782    0.0000 C   0  0  2  0  0  0  0  0  0  0  0  0
    9.7115  -12.6495    0.0000 O   0  0  0  0  0  0  0  0  0  0  0  0
    6.1044   -6.4417    0.0000 O   0  0  0  0  0  0  0  0  0  0  0  0
   11.0662  -11.8605    0.0000 C   0  0  0  0  0  0  0  0  0  0  0  0
    7.5244   -5.5440    0.0000 C   0  0  0  0  0  0  0  0  0  0  0  0
   13.2099   -5.7671    0.0000 C   0  0  0  0  0  0  0  0  0  0  0  0
    6.1044   -8.1391    0.0000 C   0  0  0  0  0  0  0  0  0  0  0  0
   10.6963   -4.8584    0.0000 C   0  0  0  0  0  0  0  0  0  0  0  0
   12.0945   -4.3090    0.0000 C   0  0  0  0  0  0  0  0  0  0  0  0
   10.5439   -4.0478    0.0000 C   0  0  0  0  0  0  0  0  0  0  0  0
    8.9389  -12.3394    0.0000 H   0  0  0  0  0  0  0  0  0  0  0  0
   10.3862   -9.7713    0.0000 H   0  0  0  0  0  0  0  0  0  0  0  0
   11.0281   -8.5962    0.0000 H   0  0  0  0  0  0  0  0  0  0  0  0
    9.7007   -5.8814    0.0000 H   0  0  0  0  0  0  0  0  0  0  0  0
   12.4373   -5.1849    0.0000 H   0  0  0  0  0  0  0  0  0  0  0  0
  2  1  1  0  0  0  0
  3  2  1  0  0  0  0
  4  1  1  0  0  0  0
  5  1  1  0  0  0  0
  6 13  1  0  0  0  0
  7  5  2  0  0  0  0
  8  3  1  0  0  0  0
  9  2  1  0  0  0  0
 10  7  1  0  0  0  0
 11  6  1  0  0  0  0
 12  4  1  0  0  0  0
 13 16  1  0  0  0  0
 14 25  1  0  0  0  0
 15 11  1  0  0  0  0
 16 12  1  0  0  0  0
 17 18  2  0  0  0  0
 18 32  1  0  0  0  0
 19  9  1  0  0  0  0
 20 30  1  0  0  0  0
 21  9  2  0  0  0  0
 22  4  2  0  0  0  0
 23 21  1  0  0  0  0
 24 16  1  0  0  0  0
 25 24  1  0  0  0  0
 26 31  1  0  0  0  0
 27 23  2  0  0  0  0
  2 28  1  6  0  0  0
  6 29  1  1  0  0  0
 30 27  1  0  0  0  0
 31 29  1  0  0  0  0
 32 25  1  0  0  0  0
 33 15  1  0  0  0  0
 10 34  1  1  0  0  0
 20 35  1  6  0  0  0
 36  7  1  0  0  0  0
 37 17  1  0  0  0  0
 26 38  1  1  0  0  0
 30 39  1  6  0  0  0
 40 33  1  0  0  0  0
 33 41  1  6  0  0  0
 42 40  1  0  0  0  0
  3 43  1  6  0  0  0
  1 44  1  1  0  0  0
 16 45  1  6  0  0  0
 25 46  1  6  0  0  0
 15 47  1  1  0  0  0
 10  3  1  0  0  0  0
 19  8  1  0  0  0  0
 14  6  1  0  0  0  0
 17 20  1  0  0  0  0
 26 15  1  0  0  0  0
M  END
>  <IDNUMBER>
F3409-0759

>  <Chemical_Name>
(1'R,2R,4'S,5S,6R,8'R,10'E,12'S,13'S,14'E,16'E,20'R,21'R,24'S)-6-[(2S)-butan-2-yl]-12',21',24'-trihydroxy-5,11',13',22'-tetramethyl-3',7',19'-trioxaspiro[oxane-2,6'-tetracyclo[15.6.1.1?,?.0??,??]pentacosane]-10',14',16',22'-tetraen-2'-one

>  <PriceCoeff>
7.00

>  <CAS>
73162-95-5

>  <MW>
586.77

>  <Description>
solid

>  <FSP3>
0.74

>  <clogP>
5.12

>  <TPSA>
114.68

>  <Acceptor>
8

>  <Donor>
3

>  <RotBonds>
2

>  <HAC>
42

$$$$
F3409-0760
  Mrv2219 10102508112D          

 73 79  0  0  0  0            999 V2000
    8.1419   -4.0648    0.0000 C   0  0  2  0  0  0  0  0  0  0  0  0
    7.4067   -4.5159    0.0000 C   0  0  1  0  0  0  0  0  0  0  0  0
    7.4067   -5.3263    0.0000 C   0  0  1  0  0  0  0  0  0  0  0  0
    8.1378   -3.2376    0.0000 C   0  0  0  0  0  0  0  0  0  0  0  0
    8.8187   -4.4658    0.0000 C   0  0  0  0  0  0  0  0  0  0  0  0
    9.5706   -0.7938    0.0000 C   0  0  2  0  0  0  0  0  0  0  0  0
    8.1419   -5.7190    0.0000 C   0  0  1  0  0  0  0  0  0  0  0  0
    8.8187   -5.3263    0.0000 C   0  0  0  0  0  0  0  0  0  0  0  0
    6.6339   -5.5978    0.0000 O   0  0  0  0  0  0  0  0  0  0  0  0
    6.6339   -4.2819    0.0000 C   0  0  0  0  0  0  0  0  0  0  0  0
    2.4271   -1.6042    0.0000 C   0  0  2  0  0  0  0  0  0  0  0  0
    1.7420   -4.4950    0.0000 C   0  0  2  0  0  0  0  0  0  0  0  0
    9.5706    0.0376    0.0000 O   0  0  0  0  0  0  0  0  0  0  0  0
    1.7337   -2.8491    0.0000 C   0  0  2  0  0  0  0  0  0  0  0  0
    3.8475   -0.7603    0.0000 C   0  0  2  0  0  0  0  0  0  0  0  0
    8.8187   -2.8491    0.0000 O   0  0  0  0  0  0  0  0  0  0  0  0
    1.0319   -3.2627    0.0000 O   0  0  0  0  0  0  0  0  0  0  0  0
    3.1248   -0.3509    0.0000 O   0  0  0  0  0  0  0  0  0  0  0  0
    3.8558   -1.5791    0.0000 C   0  0  0  0  0  0  0  0  0  0  0  0
    2.4564   -3.2459    0.0000 C   0  0  0  0  0  0  0  0  0  0  0  0
    2.4564   -4.0731    0.0000 C   0  0  2  0  0  0  0  0  0  0  0  0
    3.1540   -1.9969    0.0000 C   0  0  2  0  0  0  0  0  0  0  0  0
    5.2595   -0.7436    0.0000 C   0  0  1  0  0  0  0  0  0  0  0  0
    1.0319   -4.0856    0.0000 C   0  0  1  0  0  0  0  0  0  0  0  0
    2.4188   -0.7812    0.0000 C   0  0  1  0  0  0  0  0  0  0  0  0
    9.5706   -1.6334    0.0000 C   0  0  0  0  0  0  0  0  0  0  0  0
    8.8438   -0.3760    0.0000 O   0  0  0  0  0  0  0  0  0  0  0  0
   10.2809    0.3968    0.0000 C   0  0  1  0  0  0  0  0  0  0  0  0
    8.8187   -2.0219    0.0000 C   0  0  2  0  0  0  0  0  0  0  0  0
    5.9948   -0.3258    0.0000 C   0  0  0  0  0  0  0  0  0  0  0  0
    1.7337   -2.0219    0.0000 O   0  0  0  0  0  0  0  0  0  0  0  0
    4.5618   -0.3258    0.0000 O   0  0  0  0  0  0  0  0  0  0  0  0
    8.1712   -6.5337    0.0000 O   0  0  0  0  0  0  0  0  0  0  0  0
    1.7420   -5.3138    0.0000 O   0  0  0  0  0  0  0  0  0  0  0  0
    6.7132   -0.7436    0.0000 C   0  0  0  0  0  0  0  0  0  0  0  0
    6.1493   -4.8877    0.0000 C   0  0  0  0  0  0  0  0  0  0  0  0
    1.0277   -5.7274    0.0000 C   0  0  0  0  0  0  0  0  0  0  0  0
    8.7519   -7.1185    0.0000 C   0  0  0  0  0  0  0  0  0  0  0  0
    6.6339   -3.4339    0.0000 C   0  0  0  0  0  0  0  0  0  0  0  0
    7.4067   -2.8240    0.0000 O   0  0  0  0  0  0  0  0  0  0  0  0
    6.0825   -3.0287    0.0000 C   0  0  0  0  0  0  0  0  0  0  0  0
    8.1419   -1.6209    0.0000 C   0  0  0  0  0  0  0  0  0  0  0  0
    8.1419   -0.7603    0.0000 C   0  0  1  0  0  0  0  0  0  0  0  0
    5.2595   -1.6334    0.0000 C   0  0  2  0  0  0  0  0  0  0  0  0
   10.9451   -0.0209    0.0000 C   0  0  2  0  0  0  0  0  0  0  0  0
    6.0825   -2.1556    0.0000 C   0  0  0  0  0  0  0  0  0  0  0  0
    7.3984   -3.6177    0.0000 O   0  0  0  0  0  0  0  0  0  0  0  0
   10.2308   -1.1572    0.0000 C   0  0  0  0  0  0  0  0  0  0  0  0
    0.3091   -5.3138    0.0000 O   0  0  0  0  0  0  0  0  0  0  0  0
    9.5540   -6.9054    0.0000 O   0  0  0  0  0  0  0  0  0  0  0  0
   10.9576   -0.7728    0.0000 C   0  0  0  0  0  0  0  0  0  0  0  0
    7.4360   -0.3258    0.0000 C   0  0  0  0  0  0  0  0  0  0  0  0
    9.9676    1.1362    0.0000 C   0  0  2  0  0  0  0  0  0  0  0  0
    3.1707   -4.4950    0.0000 O   0  0  0  0  0  0  0  0  0  0  0  0
    3.1707   -2.8240    0.0000 O   0  0  0  0  0  0  0  0  0  0  0  0
    9.5247   -5.7441    0.0000 C   0  0  0  0  0  0  0  0  0  0  0  0
    5.9822    0.5723    0.0000 C   0  0  0  0  0  0  0  0  0  0  0  0
    0.3216   -4.5034    0.0000 C   0  0  0  0  0  0  0  0  0  0  0  0
    1.6961   -0.3927    0.0000 C   0  0  0  0  0  0  0  0  0  0  0  0
    8.5389   -7.9164    0.0000 C   0  0  0  0  0  0  0  0  0  0  0  0
    1.0277   -6.5545    0.0000 C   0  0  0  0  0  0  0  0  0  0  0  0
    4.5618   -2.0219    0.0000 C   0  0  0  0  0  0  0  0  0  0  0  0
   11.6678    0.3509    0.0000 C   0  0  0  0  0  0  0  0  0  0  0  0
    9.1571    1.2575    0.0000 C   0  0  0  0  0  0  0  0  0  0  0  0
   10.5524    1.8089    0.0000 C   0  0  0  0  0  0  0  0  0  0  0  0
    3.9603   -3.0788    0.0000 C   0  0  0  0  0  0  0  0  0  0  0  0
    3.9102   -4.0981    0.0000 C   0  0  0  0  0  0  0  0  0  0  0  0
    9.0026    2.0679    0.0000 C   0  0  0  0  0  0  0  0  0  0  0  0
    8.8438   -3.6553    0.0000 H   0  0  0  0  0  0  0  0  0  0  0  0
    9.4871   -2.4814    0.0000 H   0  0  0  0  0  0  0  0  0  0  0  0
    8.1587    0.2339    0.0000 H   0  0  0  0  0  0  0  0  0  0  0  0
   10.8950    0.9316    0.0000 H   0  0  0  0  0  0  0  0  0  0  0  0
    7.3984   -6.2245    0.0000 H   0  0  0  0  0  0  0  0  0  0  0  0
  2  1  1  0  0  0  0
  3  2  1  0  0  0  0
  4  1  1  0  0  0  0
  5  1  1  0  0  0  0
  6 26  1  0  0  0  0
  7  3  1  0  0  0  0
  8  5  2  0  0  0  0
  9  3  1  0  0  0  0
 10  2  1  0  0  0  0
 11 25  1  0  0  0  0
 12 24  1  0  0  0  0
 13  6  1  0  0  0  0
 14 31  1  1  0  0  0
 15 32  1  1  0  0  0
 16  4  1  0  0  0  0
 17 14  1  0  0  0  0
 18 15  1  0  0  0  0
 19 15  1  0  0  0  0
 20 14  1  0  0  0  0
 21 20  1  0  0  0  0
 22 19  1  0  0  0  0
 23 44  1  0  0  0  0
 24 17  1  0  0  0  0
 25 18  1  0  0  0  0
 26 29  1  0  0  0  0
 27 43  1  0  0  0  0
 28 13  1  0  0  0  0
 29 16  1  0  0  0  0
 30 23  1  0  0  0  0
 11 31  1  1  0  0  0
 23 32  1  6  0  0  0
  7 33  1  1  0  0  0
 12 34  1  1  0  0  0
 35 52  1  0  0  0  0
 36 10  1  0  0  0  0
 37 34  1  0  0  0  0
 38 33  1  0  0  0  0
 39 10  2  0  0  0  0
 40  4  2  0  0  0  0
 41 39  1  0  0  0  0
 42 29  1  0  0  0  0
 43 42  1  0  0  0  0
 44 46  1  0  0  0  0
 45 51  1  0  0  0  0
 46 41  2  0  0  0  0
  2 47  1  6  0  0  0
  6 48  1  1  0  0  0
 49 37  2  0  0  0  0
 50 38  2  0  0  0  0
 51 48  1  0  0  0  0
 52 43  1  0  0  0  0
 53 28  1  0  0  0  0
 21 54  1  6  0  0  0
 22 55  1  6  0  0  0
 56  8  1  0  0  0  0
 57 30  1  0  0  0  0
 24 58  1  6  0  0  0
 25 59  1  6  0  0  0
 60 38  1  0  0  0  0
 61 37  1  0  0  0  0
 44 62  1  6  0  0  0
 45 63  1  1  0  0  0
 64 53  1  0  0  0  0
 53 65  1  6  0  0  0
 66 55  1  0  0  0  0
 67 54  1  0  0  0  0
 68 64  1  0  0  0  0
  1 69  1  1  0  0  0
 29 70  1  6  0  0  0
 43 71  1  6  0  0  0
 28 72  1  1  0  0  0
  3 73  1  6  0  0  0
  8  7  1  0  0  0  0
 36  9  1  0  0  0  0
 27  6  1  0  0  0  0
 35 30  2  0  0  0  0
 45 28  1  0  0  0  0
 11 22  1  0  0  0  0
 12 21  1  0  0  0  0
M  END
>  <IDNUMBER>
F3409-0760

>  <Chemical_Name>
(1'R,2R,4'S,5S,6R,8'R,10'E,12'S,13'S,14'E,16'E,20'R,21'R,24'S)-12'-{[(2R,4S,5S,6S)-5-{[(2S,4S,5S,6S)-5-(acetyloxy)-4-methoxy-6-methyloxan-2-yl]oxy}-4-methoxy-6-methyloxan-2-yl]oxy}-6-[(2S)-butan-2-yl]-24'-hydroxy-5,11',13',22'-tetramethyl-2'-oxo-3',7',19'-trioxaspiro[oxane-2,6'-tetracyclo[15.6.1.1?,?.0??,??]pentacosane]-10',14',16',22'-tetraen-21'-yl acetate

>  <PriceCoeff>
7.00

>  <MW>
959.18

>  <Description>
solid

>  <FSP3>
0.79

>  <clogP>
6.49

>  <TPSA>
182.20

>  <Acceptor>
16

>  <Donor>
1

>  <RotBonds>
12

>  <HAC>
68

$$$$
F3409-0761
  Mrv2219 10102508112D          

 54 58  0  0  0  0            999 V2000
    9.7191  -10.2158    0.0000 C   0  0  2  0  0  0  0  0  0  0  0  0
    8.9819  -10.6691    0.0000 C   0  0  1  0  0  0  0  0  0  0  0  0
    8.9819  -11.4826    0.0000 C   0  0  1  0  0  0  0  0  0  0  0  0
    9.7191  -11.8758    0.0000 C   0  0  1  0  0  0  0  0  0  0  0  0
    9.7136   -9.3860    0.0000 C   0  0  0  0  0  0  0  0  0  0  0  0
   10.3960  -10.6200    0.0000 C   0  0  0  0  0  0  0  0  0  0  0  0
   11.1495   -6.9344    0.0000 C   0  0  2  0  0  0  0  0  0  0  0  0
   10.3960  -11.4826    0.0000 C   0  0  0  0  0  0  0  0  0  0  0  0
    8.2066  -11.7556    0.0000 O   0  0  0  0  0  0  0  0  0  0  0  0
    8.2066  -10.4343    0.0000 C   0  0  0  0  0  0  0  0  0  0  0  0
    9.7463  -12.6948    0.0000 O   0  0  0  0  0  0  0  0  0  0  0  0
   11.1495   -6.0990    0.0000 O   0  0  0  0  0  0  0  0  0  0  0  0
   10.3960   -8.9983    0.0000 O   0  0  0  0  0  0  0  0  0  0  0  0
   10.4507  -13.0934    0.0000 Si  0  0  0  0  0  0  0  0  0  0  0  0
   11.1495   -7.7752    0.0000 C   0  0  0  0  0  0  0  0  0  0  0  0
   10.4234   -6.5139    0.0000 O   0  0  0  0  0  0  0  0  0  0  0  0
   11.8649   -5.7386    0.0000 C   0  0  1  0  0  0  0  0  0  0  0  0
   10.3960   -8.1683    0.0000 C   0  0  2  0  0  0  0  0  0  0  0  0
    7.5677   -6.4647    0.0000 C   0  0  0  0  0  0  0  0  0  0  0  0
    8.2830   -6.8853    0.0000 C   0  0  0  0  0  0  0  0  0  0  0  0
    7.7207  -11.0404    0.0000 C   0  0  0  0  0  0  0  0  0  0  0  0
    6.8251   -6.8853    0.0000 C   0  0  2  0  0  0  0  0  0  0  0  0
   11.0131  -13.6667    0.0000 C   0  0  0  0  0  0  0  0  0  0  0  0
    8.2066   -9.5825    0.0000 C   0  0  0  0  0  0  0  0  0  0  0  0
    8.9819   -8.9709    0.0000 O   0  0  0  0  0  0  0  0  0  0  0  0
    7.6496   -9.1785    0.0000 C   0  0  0  0  0  0  0  0  0  0  0  0
    9.7191   -7.7643    0.0000 C   0  0  0  0  0  0  0  0  0  0  0  0
    9.7191   -6.9016    0.0000 C   0  0  1  0  0  0  0  0  0  0  0  0
   12.5310   -6.1590    0.0000 C   0  0  2  0  0  0  0  0  0  0  0  0
    7.6496   -8.2993    0.0000 C   0  0  0  0  0  0  0  0  0  0  0  0
    8.9709   -9.7682    0.0000 O   0  0  0  0  0  0  0  0  0  0  0  0
   11.8158   -7.3001    0.0000 C   0  0  0  0  0  0  0  0  0  0  0  0
    6.8251   -7.7752    0.0000 C   0  0  2  0  0  0  0  0  0  0  0  0
   12.5474   -6.9125    0.0000 C   0  0  0  0  0  0  0  0  0  0  0  0
    9.0092   -6.4647    0.0000 C   0  0  0  0  0  0  0  0  0  0  0  0
   11.5482   -4.9960    0.0000 C   0  0  2  0  0  0  0  0  0  0  0  0
    6.1263   -6.4647    0.0000 O   0  0  0  0  0  0  0  0  0  0  0  0
   11.1059  -11.9030    0.0000 C   0  0  0  0  0  0  0  0  0  0  0  0
    9.8774  -13.6667    0.0000 C   0  0  0  0  0  0  0  0  0  0  0  0
   11.1442  -12.6948    0.0000 C   0  0  0  0  0  0  0  0  0  0  0  0
    7.5514   -5.5638    0.0000 C   0  0  0  0  0  0  0  0  0  0  0  0
   10.8002  -14.4366    0.0000 C   0  0  0  0  0  0  0  0  0  0  0  0
   11.8158  -13.6667    0.0000 C   0  0  0  0  0  0  0  0  0  0  0  0
   11.5809  -14.2237    0.0000 C   0  0  0  0  0  0  0  0  0  0  0  0
   13.2572   -5.7878    0.0000 C   0  0  0  0  0  0  0  0  0  0  0  0
    6.1263   -8.1683    0.0000 C   0  0  0  0  0  0  0  0  0  0  0  0
   10.7346   -4.8758    0.0000 C   0  0  0  0  0  0  0  0  0  0  0  0
   12.1379   -4.3244    0.0000 C   0  0  0  0  0  0  0  0  0  0  0  0
   10.5817   -4.0623    0.0000 C   0  0  0  0  0  0  0  0  0  0  0  0
   11.0676   -8.6270    0.0000 H   0  0  0  0  0  0  0  0  0  0  0  0
    9.7354   -5.9024    0.0000 H   0  0  0  0  0  0  0  0  0  0  0  0
   12.4818   -5.2035    0.0000 H   0  0  0  0  0  0  0  0  0  0  0  0
    8.9709  -12.3836    0.0000 H   0  0  0  0  0  0  0  0  0  0  0  0
   10.4234   -9.8063    0.0000 H   0  0  0  0  0  0  0  0  0  0  0  0
  2  1  1  0  0  0  0
  3  2  1  0  0  0  0
  4  3  1  0  0  0  0
  5  1  1  0  0  0  0
  6  1  1  0  0  0  0
  7 15  1  0  0  0  0
  8  6  2  0  0  0  0
  9  3  1  0  0  0  0
 10  2  1  0  0  0  0
  4 11  1  1  0  0  0
 12  7  1  0  0  0  0
 13  5  1  0  0  0  0
 14 11  1  0  0  0  0
 15 18  1  0  0  0  0
 16 28  1  0  0  0  0
 17 12  1  0  0  0  0
 18 13  1  0  0  0  0
 19 22  1  0  0  0  0
 20 35  1  0  0  0  0
 21 10  1  0  0  0  0
 22 33  1  0  0  0  0
 23 14  1  0  0  0  0
 24 10  2  0  0  0  0
 25  5  2  0  0  0  0
 26 24  1  0  0  0  0
 27 18  1  0  0  0  0
 28 27  1  0  0  0  0
 29 34  1  0  0  0  0
 30 26  2  0  0  0  0
  2 31  1  6  0  0  0
  7 32  1  1  0  0  0
 33 30  1  0  0  0  0
 34 32  1  0  0  0  0
 35 28  1  0  0  0  0
 36 17  1  0  0  0  0
 22 37  1  6  0  0  0
 38  8  1  0  0  0  0
 39 14  1  0  0  0  0
 40 14  1  0  0  0  0
 41 19  1  0  0  0  0
 42 23  1  0  0  0  0
 43 23  1  0  0  0  0
 44 23  1  0  0  0  0
 29 45  1  1  0  0  0
 33 46  1  6  0  0  0
 47 36  1  0  0  0  0
 36 48  1  6  0  0  0
 49 47  1  0  0  0  0
 18 50  1  6  0  0  0
 28 51  1  6  0  0  0
 17 52  1  1  0  0  0
  3 53  1  6  0  0  0
  1 54  1  1  0  0  0
  8  4  1  0  0  0  0
 21  9  1  0  0  0  0
 16  7  1  0  0  0  0
 20 19  2  0  0  0  0
 29 17  1  0  0  0  0
M  END
>  <IDNUMBER>
F3409-0761

>  <Chemical_Name>
(1'R,2R,4'S,5S,6R,8'R,10'E,12'S,13'S,14'E,16'E,20'R,21'R,24'S)-6-[(2S)-butan-2-yl]-21'-[(tert-butyldimethylsilyl)oxy]-12',24'-dihydroxy-5,11',13',22'-tetramethyl-3',7',19'-trioxaspiro[oxane-2,6'-tetracyclo[15.6.1.1?,?.0??,??]pentacosane]-10',14',16',22'-tetraen-2'-one

>  <PriceCoeff>
7.00

>  <CAS>
73162-96-6

>  <MW>
701.03

>  <Description>
solid

>  <FSP3>
0.78

>  <clogP>
7.84

>  <TPSA>
103.68

>  <Acceptor>
8

>  <Donor>
2

>  <RotBonds>
5

>  <HAC>
49

$$$$
F3409-0773
  Mrv2219 10102508112D          

 56 61  0  0  0  0            999 V2000
   -4.5346    3.4720    0.0000 C   0  0  2  0  0  0  0  0  0  0  0  0
   -5.2649    3.0262    0.0000 C   0  0  1  0  0  0  0  0  0  0  0  0
   -5.2649    2.2198    0.0000 C   0  0  1  0  0  0  0  0  0  0  0  0
   -4.5439    4.2973    0.0000 C   0  0  0  0  0  0  0  0  0  0  0  0
   -3.8609    3.0736    0.0000 C   0  0  0  0  0  0  0  0  0  0  0  0
   -3.1116    6.7353    0.0000 C   0  0  2  0  0  0  0  0  0  0  0  0
   -4.5346    1.8214    0.0000 C   0  0  1  0  0  0  0  0  0  0  0  0
   -3.8609    2.2198    0.0000 C   0  0  0  0  0  0  0  0  0  0  0  0
   -6.0429    1.9448    0.0000 O   0  0  0  0  0  0  0  0  0  0  0  0
   -6.0429    3.2539    0.0000 C   0  0  0  0  0  0  0  0  0  0  0  0
   -4.5061    1.0150    0.0000 O   0  0  0  0  0  0  0  0  0  0  0  0
   -3.1116    7.5797    0.0000 O   0  0  0  0  0  0  0  0  0  0  0  0
   -3.8609    4.6862    0.0000 O   0  0  0  0  0  0  0  0  0  0  0  0
   -3.7851    0.6261    0.0000 C   0  0  0  0  0  0  0  0  0  0  0  0
   -3.1116    5.9006    0.0000 C   0  0  0  0  0  0  0  0  0  0  0  0
   -3.8324    7.1528    0.0000 O   0  0  0  0  0  0  0  0  0  0  0  0
   -2.4001    7.9212    0.0000 C   0  0  1  0  0  0  0  0  0  0  0  0
   -3.8609    5.5115    0.0000 C   0  0  2  0  0  0  0  0  0  0  0  0
   -6.6783    7.2002    0.0000 C   0  0  0  0  0  0  0  0  0  0  0  0
   -5.9669    6.7828    0.0000 C   0  0  0  0  0  0  0  0  0  0  0  0
   -6.5171    2.6563    0.0000 C   0  0  0  0  0  0  0  0  0  0  0  0
   -7.4089    6.7828    0.0000 C   0  0  2  0  0  0  0  0  0  0  0  0
   -3.7566   -0.1992    0.0000 C   0  0  0  0  0  0  0  0  0  0  0  0
   -6.0429    4.1077    0.0000 C   0  0  0  0  0  0  0  0  0  0  0  0
   -5.2649    4.7147    0.0000 O   0  0  0  0  0  0  0  0  0  0  0  0
   -6.5930    4.5061    0.0000 C   0  0  0  0  0  0  0  0  0  0  0  0
   -4.5346    5.9099    0.0000 C   0  0  0  0  0  0  0  0  0  0  0  0
   -4.5346    6.7733    0.0000 C   0  0  1  0  0  0  0  0  0  0  0  0
   -3.0832    1.0530    0.0000 O   0  0  0  0  0  0  0  0  0  0  0  0
   -1.7456    7.5037    0.0000 C   0  0  2  0  0  0  0  0  0  0  0  0
   -6.5930    5.3788    0.0000 C   0  0  0  0  0  0  0  0  0  0  0  0
   -5.2745    3.9178    0.0000 O   0  0  0  0  0  0  0  0  0  0  0  0
   -2.4475    6.3749    0.0000 C   0  0  0  0  0  0  0  0  0  0  0  0
   -7.4089    5.9006    0.0000 C   0  0  2  0  0  0  0  0  0  0  0  0
   -4.4585   -0.6357    0.0000 C   0  0  0  0  0  0  0  0  0  0  0  0
   -3.0262   -0.5881    0.0000 C   0  0  0  0  0  0  0  0  0  0  0  0
   -1.7264    6.7637    0.0000 C   0  0  0  0  0  0  0  0  0  0  0  0
   -5.2365    7.2002    0.0000 C   0  0  0  0  0  0  0  0  0  0  0  0
   -2.7132    8.6611    0.0000 C   0  0  2  0  0  0  0  0  0  0  0  0
   -8.1109    7.2002    0.0000 O   0  0  0  0  0  0  0  0  0  0  0  0
   -2.9978   -1.4041    0.0000 C   0  0  0  0  0  0  0  0  0  0  0  0
   -4.4301   -1.4514    0.0000 C   0  0  0  0  0  0  0  0  0  0  0  0
   -3.6997   -1.8403    0.0000 C   0  0  0  0  0  0  0  0  0  0  0  0
   -3.1590    1.8025    0.0000 C   0  0  0  0  0  0  0  0  0  0  0  0
   -6.6879    8.1013    0.0000 C   0  0  0  0  0  0  0  0  0  0  0  0
   -1.0150    7.8736    0.0000 C   0  0  0  0  0  0  0  0  0  0  0  0
   -8.1109    5.5115    0.0000 C   0  0  0  0  0  0  0  0  0  0  0  0
   -3.5289    8.7843    0.0000 C   0  0  0  0  0  0  0  0  0  0  0  0
   -2.1344    9.3346    0.0000 C   0  0  0  0  0  0  0  0  0  0  0  0
   -3.6808   -2.6752    0.0000 C   0  0  0  0  0  0  0  0  0  0  0  0
   -3.6808    9.5907    0.0000 C   0  0  0  0  0  0  0  0  0  0  0  0
   -1.7929    8.4619    0.0000 H   0  0  0  0  0  0  0  0  0  0  0  0
   -5.2745    1.3187    0.0000 H   0  0  0  0  0  0  0  0  0  0  0  0
   -3.8324    3.8800    0.0000 H   0  0  0  0  0  0  0  0  0  0  0  0
   -3.1970    5.0562    0.0000 H   0  0  0  0  0  0  0  0  0  0  0  0
   -4.5154    7.7598    0.0000 H   0  0  0  0  0  0  0  0  0  0  0  0
  2  1  1  0  0  0  0
  3  2  1  0  0  0  0
  4  1  1  0  0  0  0
  5  1  1  0  0  0  0
  6 15  1  0  0  0  0
  7  8  1  0  0  0  0
  8  5  2  0  0  0  0
  9  3  1  0  0  0  0
 10  2  1  0  0  0  0
  7 11  1  1  0  0  0
 12  6  1  0  0  0  0
 13  4  1  0  0  0  0
 14 11  1  0  0  0  0
 15 18  1  0  0  0  0
 16 28  1  0  0  0  0
 17 12  1  0  0  0  0
 18 13  1  0  0  0  0
 19 20  2  0  0  0  0
 20 38  1  0  0  0  0
 21 10  1  0  0  0  0
 22 34  1  0  0  0  0
 23 14  1  0  0  0  0
 24 10  2  0  0  0  0
 25  4  2  0  0  0  0
 26 24  1  0  0  0  0
 27 18  1  0  0  0  0
 28 27  1  0  0  0  0
 29 14  2  0  0  0  0
 30 37  1  0  0  0  0
 31 26  2  0  0  0  0
  2 32  1  6  0  0  0
  6 33  1  1  0  0  0
 34 31  1  0  0  0  0
 35 23  2  0  0  0  0
 36 23  1  0  0  0  0
 37 33  1  0  0  0  0
 38 28  1  0  0  0  0
 39 17  1  0  0  0  0
 22 40  1  6  0  0  0
 41 36  2  0  0  0  0
 42 35  1  0  0  0  0
 43 41  1  0  0  0  0
 44  8  1  0  0  0  0
 45 19  1  0  0  0  0
 30 46  1  1  0  0  0
 34 47  1  6  0  0  0
 48 39  1  0  0  0  0
 39 49  1  6  0  0  0
 50 43  1  0  0  0  0
 51 48  1  0  0  0  0
 17 52  1  1  0  0  0
  3 53  1  6  0  0  0
  1 54  1  1  0  0  0
 18 55  1  6  0  0  0
 28 56  1  6  0  0  0
  7  3  1  0  0  0  0
 21  9  1  0  0  0  0
 16  6  1  0  0  0  0
 19 22  1  0  0  0  0
 30 17  1  0  0  0  0
 43 42  2  0  0  0  0
M  END
>  <IDNUMBER>
F3409-0773

>  <Chemical_Name>
(1'R,2R,4'S,5S,6R,8'R,10'E,12'S,13'S,14'E,16'E,20'R,21'R,24'S)-6-[(2S)-butan-2-yl]-12',24'-dihydroxy-5,11',13',22'-tetramethyl-2'-oxo-3',7',19'-trioxaspiro[oxane-2,6'-tetracyclo[15.6.1.1?,?.0??,??]pentacosane]-10',14',16',22'-tetraen-21'-yl 4-methylbenzoate

>  <PriceCoeff>
7.00

>  <MW>
704.90

>  <Description>
solid

>  <FSP3>
0.62

>  <clogP>
7.59

>  <TPSA>
120.75

>  <Acceptor>
9

>  <Donor>
2

>  <RotBonds>
5

>  <HAC>
51

$$$$
F3409-0774
  Mrv2219 10102508112D          

 65 71  0  0  0  0            999 V2000
    6.0196   -7.8234    0.0000 C   0  0  2  0  0  0  0  0  0  0  0  0
    5.2864   -8.2733    0.0000 C   0  0  1  0  0  0  0  0  0  0  0  0
    5.2864   -9.0814    0.0000 C   0  0  1  0  0  0  0  0  0  0  0  0
    6.0113   -6.9986    0.0000 C   0  0  0  0  0  0  0  0  0  0  0  0
    6.6903   -8.2233    0.0000 C   0  0  0  0  0  0  0  0  0  0  0  0
    7.4402   -4.5616    0.0000 C   0  0  2  0  0  0  0  0  0  0  0  0
    6.0196   -9.4731    0.0000 C   0  0  1  0  0  0  0  0  0  0  0  0
    6.6903   -9.0814    0.0000 C   0  0  0  0  0  0  0  0  0  0  0  0
    4.5158   -9.3523    0.0000 O   0  0  0  0  0  0  0  0  0  0  0  0
    4.5158   -8.0401    0.0000 C   0  0  0  0  0  0  0  0  0  0  0  0
    6.0446  -10.2854    0.0000 O   0  0  0  0  0  0  0  0  0  0  0  0
    7.4402   -3.7284    0.0000 O   0  0  0  0  0  0  0  0  0  0  0  0
    2.4412   -4.0950    0.0000 O   0  0  0  0  0  0  0  0  0  0  0  0
    6.6903   -6.6111    0.0000 O   0  0  0  0  0  0  0  0  0  0  0  0
    6.7736  -10.6728    0.0000 C   0  0  0  0  0  0  0  0  0  0  0  0
    2.4537   -3.2701    0.0000 C   0  0  0  0  0  0  0  0  0  0  0  0
    3.1411   -4.5116    0.0000 C   0  0  2  0  0  0  0  0  0  0  0  0
    7.4402   -5.3989    0.0000 C   0  0  0  0  0  0  0  0  0  0  0  0
    6.7194   -4.1450    0.0000 O   0  0  0  0  0  0  0  0  0  0  0  0
    8.1525   -3.3743    0.0000 C   0  0  1  0  0  0  0  0  0  0  0  0
    6.6903   -5.7863    0.0000 C   0  0  2  0  0  0  0  0  0  0  0  0
    3.8784   -4.0950    0.0000 C   0  0  0  0  0  0  0  0  0  0  0  0
    4.5908   -4.5116    0.0000 C   0  0  0  0  0  0  0  0  0  0  0  0
    4.0325   -8.6440    0.0000 C   0  0  0  0  0  0  0  0  0  0  0  0
    6.7986  -11.4976    0.0000 C   0  0  0  0  0  0  0  0  0  0  0  0
    1.7454   -2.8494    0.0000 C   0  0  0  0  0  0  0  0  0  0  0  0
    4.5158   -7.1943    0.0000 C   0  0  0  0  0  0  0  0  0  0  0  0
    5.2864   -6.5862    0.0000 O   0  0  0  0  0  0  0  0  0  0  0  0
    3.9617   -6.7903    0.0000 C   0  0  0  0  0  0  0  0  0  0  0  0
    6.0196   -5.3864    0.0000 C   0  0  0  0  0  0  0  0  0  0  0  0
    6.0196   -4.5283    0.0000 C   0  0  1  0  0  0  0  0  0  0  0  0
    7.4735  -10.2396    0.0000 O   0  0  0  0  0  0  0  0  0  0  0  0
    3.1743   -2.8702    0.0000 O   0  0  0  0  0  0  0  0  0  0  0  0
    3.1411   -5.3989    0.0000 C   0  0  2  0  0  0  0  0  0  0  0  0
    8.8107   -3.7909    0.0000 C   0  0  2  0  0  0  0  0  0  0  0  0
    3.9617   -5.9196    0.0000 C   0  0  0  0  0  0  0  0  0  0  0  0
    5.2739   -7.3777    0.0000 O   0  0  0  0  0  0  0  0  0  0  0  0
    8.1025   -4.9240    0.0000 C   0  0  0  0  0  0  0  0  0  0  0  0
    7.5235  -11.8809    0.0000 C   0  0  0  0  0  0  0  0  0  0  0  0
    6.0946  -11.9309    0.0000 C   0  0  0  0  0  0  0  0  0  0  0  0
    1.7621   -2.0246    0.0000 C   0  0  0  0  0  0  0  0  0  0  0  0
    1.0331   -3.2535    0.0000 C   0  0  0  0  0  0  0  0  0  0  0  0
    8.8274   -4.5408    0.0000 C   0  0  0  0  0  0  0  0  0  0  0  0
    5.3114   -4.0950    0.0000 C   0  0  0  0  0  0  0  0  0  0  0  0
    7.8359   -2.6370    0.0000 C   0  0  2  0  0  0  0  0  0  0  0  0
    6.1195  -12.7516    0.0000 C   0  0  0  0  0  0  0  0  0  0  0  0
    1.0540   -1.5997    0.0000 C   0  0  0  0  0  0  0  0  0  0  0  0
    0.3249   -2.8327    0.0000 C   0  0  0  0  0  0  0  0  0  0  0  0
    7.5527  -12.7057    0.0000 C   0  0  0  0  0  0  0  0  0  0  0  0
    6.8486  -13.1431    0.0000 C   0  0  0  0  0  0  0  0  0  0  0  0
    0.3332   -2.0038    0.0000 C   0  0  0  0  0  0  0  0  0  0  0  0
    7.3902   -9.4981    0.0000 C   0  0  0  0  0  0  0  0  0  0  0  0
    3.8617   -3.1993    0.0000 C   0  0  0  0  0  0  0  0  0  0  0  0
    2.4412   -5.7863    0.0000 C   0  0  0  0  0  0  0  0  0  0  0  0
    9.5355   -3.4201    0.0000 C   0  0  0  0  0  0  0  0  0  0  0  0
    7.0278   -2.5162    0.0000 C   0  0  0  0  0  0  0  0  0  0  0  0
    8.4233   -1.9663    0.0000 C   0  0  0  0  0  0  0  0  0  0  0  0
    6.8736  -13.9679    0.0000 C   0  0  0  0  0  0  0  0  0  0  0  0
   -0.3749   -1.5830    0.0000 C   0  0  0  0  0  0  0  0  0  0  0  0
    6.8736   -1.7080    0.0000 C   0  0  0  0  0  0  0  0  0  0  0  0
    6.0363   -3.5368    0.0000 H   0  0  0  0  0  0  0  0  0  0  0  0
    8.7649   -2.8411    0.0000 H   0  0  0  0  0  0  0  0  0  0  0  0
    5.2739   -9.9772    0.0000 H   0  0  0  0  0  0  0  0  0  0  0  0
    6.7194   -7.4152    0.0000 H   0  0  0  0  0  0  0  0  0  0  0  0
    7.3568   -6.2445    0.0000 H   0  0  0  0  0  0  0  0  0  0  0  0
  2  1  1  0  0  0  0
  3  2  1  0  0  0  0
  4  1  1  0  0  0  0
  5  1  1  0  0  0  0
  6 18  1  0  0  0  0
  7  8  1  0  0  0  0
  8  5  2  0  0  0  0
  9  3  1  0  0  0  0
 10  2  1  0  0  0  0
  7 11  1  1  0  0  0
 12  6  1  0  0  0  0
 17 13  1  6  0  0  0
 14  4  1  0  0  0  0
 15 11  1  0  0  0  0
 16 13  1  0  0  0  0
 17 34  1  0  0  0  0
 18 21  1  0  0  0  0
 19 31  1  0  0  0  0
 20 12  1  0  0  0  0
 21 14  1  0  0  0  0
 22 23  2  0  0  0  0
 23 44  1  0  0  0  0
 24 10  1  0  0  0  0
 25 15  1  0  0  0  0
 26 16  1  0  0  0  0
 27 10  2  0  0  0  0
 28  4  2  0  0  0  0
 29 27  1  0  0  0  0
 30 21  1  0  0  0  0
 31 30  1  0  0  0  0
 32 15  2  0  0  0  0
 33 16  2  0  0  0  0
 34 36  1  0  0  0  0
 35 43  1  0  0  0  0
 36 29  2  0  0  0  0
  2 37  1  6  0  0  0
  6 38  1  1  0  0  0
 39 25  1  0  0  0  0
 40 25  2  0  0  0  0
 41 26  2  0  0  0  0
 42 26  1  0  0  0  0
 43 38  1  0  0  0  0
 44 31  1  0  0  0  0
 45 20  1  0  0  0  0
 46 40  1  0  0  0  0
 47 41  1  0  0  0  0
 48 42  2  0  0  0  0
 49 39  2  0  0  0  0
 50 49  1  0  0  0  0
 51 48  1  0  0  0  0
 52  8  1  0  0  0  0
 53 22  1  0  0  0  0
 34 54  1  6  0  0  0
 35 55  1  1  0  0  0
 56 45  1  0  0  0  0
 45 57  1  6  0  0  0
 58 50  1  0  0  0  0
 59 51  1  0  0  0  0
 60 56  1  0  0  0  0
 31 61  1  6  0  0  0
 20 62  1  1  0  0  0
  3 63  1  6  0  0  0
  1 64  1  1  0  0  0
 21 65  1  6  0  0  0
  7  3  1  0  0  0  0
 24  9  1  0  0  0  0
 19  6  1  0  0  0  0
 22 17  1  0  0  0  0
 35 20  1  0  0  0  0
 50 46  2  0  0  0  0
 51 47  2  0  0  0  0
M  END
>  <IDNUMBER>
F3409-0774

>  <Chemical_Name>
(1'R,2R,4'S,5S,6R,8'R,10'E,12'S,13'S,14'E,16'E,20'R,21'R,24'S)-6-[(2S)-butan-2-yl]-24'-hydroxy-5,11',13',22'-tetramethyl-12'-(4-methylbenzoyloxy)-2'-oxo-3',7',19'-trioxaspiro[oxane-2,6'-tetracyclo[15.6.1.1?,?.0??,??]pentacosane]-10',14',16',22'-tetraen-21'-yl 4-methylbenzoate

>  <PriceCoeff>
7.00

>  <MW>
823.04

>  <Description>
solid

>  <FSP3>
0.54

>  <clogP>
10.96

>  <TPSA>
126.82

>  <Acceptor>
10

>  <Donor>
1

>  <RotBonds>
8

>  <HAC>
60

$$$$
F3409-0776
  Mrv2219 10102508112D          

 65 71  0  0  0  0            999 V2000
    7.4133   -7.8839    0.0000 C   0  0  2  0  0  0  0  0  0  0  0  0
    6.6802   -8.3337    0.0000 C   0  0  1  0  0  0  0  0  0  0  0  0
    6.6802   -9.1416    0.0000 C   0  0  1  0  0  0  0  0  0  0  0  0
    7.4049   -7.0593    0.0000 C   0  0  0  0  0  0  0  0  0  0  0  0
    8.0838   -8.2837    0.0000 C   0  0  0  0  0  0  0  0  0  0  0  0
    8.8334   -4.6229    0.0000 C   0  0  2  0  0  0  0  0  0  0  0  0
    7.4133   -9.5331    0.0000 C   0  0  1  0  0  0  0  0  0  0  0  0
    8.0838   -9.1416    0.0000 C   0  0  0  0  0  0  0  0  0  0  0  0
    5.9098   -9.4124    0.0000 O   0  0  0  0  0  0  0  0  0  0  0  0
    5.9098   -8.1005    0.0000 C   0  0  0  0  0  0  0  0  0  0  0  0
    7.4383  -10.3453    0.0000 O   0  0  0  0  0  0  0  0  0  0  0  0
    8.8334   -3.7900    0.0000 O   0  0  0  0  0  0  0  0  0  0  0  0
    8.1671  -10.7326    0.0000 C   0  0  0  0  0  0  0  0  0  0  0  0
    3.8482   -3.3318    0.0000 C   0  0  0  0  0  0  0  0  0  0  0  0
    3.8399   -4.1564    0.0000 O   0  0  0  0  0  0  0  0  0  0  0  0
    8.0838   -6.6719    0.0000 O   0  0  0  0  0  0  0  0  0  0  0  0
    4.5354   -4.5729    0.0000 C   0  0  2  0  0  0  0  0  0  0  0  0
    8.8334   -5.4600    0.0000 C   0  0  0  0  0  0  0  0  0  0  0  0
    8.1130   -4.2064    0.0000 O   0  0  0  0  0  0  0  0  0  0  0  0
    9.5456   -3.4359    0.0000 C   0  0  1  0  0  0  0  0  0  0  0  0
    8.0838   -5.8473    0.0000 C   0  0  2  0  0  0  0  0  0  0  0  0
    5.2726   -4.1564    0.0000 C   0  0  0  0  0  0  0  0  0  0  0  0
    5.9848   -4.5729    0.0000 C   0  0  0  0  0  0  0  0  0  0  0  0
    8.1920  -11.5572    0.0000 C   0  0  0  0  0  0  0  0  0  0  0  0
    3.1403   -2.9112    0.0000 C   0  0  0  0  0  0  0  0  0  0  0  0
    5.4267   -8.7043    0.0000 C   0  0  0  0  0  0  0  0  0  0  0  0
    5.9098   -7.2550    0.0000 C   0  0  0  0  0  0  0  0  0  0  0  0
    6.6802   -6.6469    0.0000 O   0  0  0  0  0  0  0  0  0  0  0  0
    5.3558   -6.8511    0.0000 C   0  0  0  0  0  0  0  0  0  0  0  0
    7.4133   -5.4475    0.0000 C   0  0  0  0  0  0  0  0  0  0  0  0
    7.4133   -4.5896    0.0000 C   0  0  1  0  0  0  0  0  0  0  0  0
    8.8667  -10.2995    0.0000 O   0  0  0  0  0  0  0  0  0  0  0  0
    4.5687   -2.9320    0.0000 O   0  0  0  0  0  0  0  0  0  0  0  0
    4.5354   -5.4600    0.0000 C   0  0  2  0  0  0  0  0  0  0  0  0
    8.9167  -11.9403    0.0000 C   0  0  0  0  0  0  0  0  0  0  0  0
    2.4281   -3.3152    0.0000 C   0  0  0  0  0  0  0  0  0  0  0  0
   10.2036   -3.8524    0.0000 C   0  0  2  0  0  0  0  0  0  0  0  0
    5.3558   -5.9806    0.0000 C   0  0  0  0  0  0  0  0  0  0  0  0
    6.6677   -7.4383    0.0000 O   0  0  0  0  0  0  0  0  0  0  0  0
    9.4956   -4.9852    0.0000 C   0  0  0  0  0  0  0  0  0  0  0  0
   10.2203   -4.6021    0.0000 C   0  0  0  0  0  0  0  0  0  0  0  0
    6.7011   -4.1564    0.0000 C   0  0  0  0  0  0  0  0  0  0  0  0
    9.2291   -2.6988    0.0000 C   0  0  2  0  0  0  0  0  0  0  0  0
    1.7200   -2.8945    0.0000 C   0  0  0  0  0  0  0  0  0  0  0  0
    8.9459  -12.7649    0.0000 C   0  0  0  0  0  0  0  0  0  0  0  0
    8.7877   -9.5581    0.0000 C   0  0  0  0  0  0  0  0  0  0  0  0
    5.2559   -3.2610    0.0000 C   0  0  0  0  0  0  0  0  0  0  0  0
    7.4883  -11.9903    0.0000 C   0  0  0  0  0  0  0  0  0  0  0  0
    3.1569   -2.0865    0.0000 C   0  0  0  0  0  0  0  0  0  0  0  0
    7.5133  -12.8108    0.0000 C   0  0  0  0  0  0  0  0  0  0  0  0
    2.4489   -1.6617    0.0000 C   0  0  0  0  0  0  0  0  0  0  0  0
    3.8399   -5.8473    0.0000 C   0  0  0  0  0  0  0  0  0  0  0  0
   10.9283   -3.4817    0.0000 C   0  0  0  0  0  0  0  0  0  0  0  0
    8.2420  -13.2022    0.0000 C   0  0  0  0  0  0  0  0  0  0  0  0
    1.7284   -2.0658    0.0000 C   0  0  0  0  0  0  0  0  0  0  0  0
    8.4211   -2.5780    0.0000 C   0  0  0  0  0  0  0  0  0  0  0  0
    9.8163   -2.0283    0.0000 C   0  0  0  0  0  0  0  0  0  0  0  0
    0.9995   -3.2985    0.0000 C   0  0  0  0  0  0  0  0  0  0  0  0
    9.6748  -13.1523    0.0000 C   0  0  0  0  0  0  0  0  0  0  0  0
    8.2670   -1.7700    0.0000 C   0  0  0  0  0  0  0  0  0  0  0  0
    7.4299   -3.5983    0.0000 H   0  0  0  0  0  0  0  0  0  0  0  0
   10.1578   -2.9029    0.0000 H   0  0  0  0  0  0  0  0  0  0  0  0
    6.6677  -10.0371    0.0000 H   0  0  0  0  0  0  0  0  0  0  0  0
    8.1130   -7.4758    0.0000 H   0  0  0  0  0  0  0  0  0  0  0  0
    8.7502   -6.3054    0.0000 H   0  0  0  0  0  0  0  0  0  0  0  0
  2  1  1  0  0  0  0
  3  2  1  0  0  0  0
  4  1  1  0  0  0  0
  5  1  1  0  0  0  0
  6 18  1  0  0  0  0
  7  8  1  0  0  0  0
  8  5  2  0  0  0  0
  9  3  1  0  0  0  0
 10  2  1  0  0  0  0
  7 11  1  1  0  0  0
 12  6  1  0  0  0  0
 13 11  1  0  0  0  0
 14 15  1  0  0  0  0
 17 15  1  6  0  0  0
 16  4  1  0  0  0  0
 17 34  1  0  0  0  0
 18 21  1  0  0  0  0
 19 31  1  0  0  0  0
 20 12  1  0  0  0  0
 21 16  1  0  0  0  0
 22 23  2  0  0  0  0
 23 42  1  0  0  0  0
 24 13  1  0  0  0  0
 25 14  1  0  0  0  0
 26 10  1  0  0  0  0
 27 10  2  0  0  0  0
 28  4  2  0  0  0  0
 29 27  1  0  0  0  0
 30 21  1  0  0  0  0
 31 30  1  0  0  0  0
 32 13  2  0  0  0  0
 33 14  2  0  0  0  0
 34 38  1  0  0  0  0
 35 24  1  0  0  0  0
 36 25  1  0  0  0  0
 37 41  1  0  0  0  0
 38 29  2  0  0  0  0
  2 39  1  6  0  0  0
  6 40  1  1  0  0  0
 41 40  1  0  0  0  0
 42 31  1  0  0  0  0
 43 20  1  0  0  0  0
 44 36  2  0  0  0  0
 45 35  2  0  0  0  0
 46  8  1  0  0  0  0
 47 22  1  0  0  0  0
 48 24  2  0  0  0  0
 49 25  2  0  0  0  0
 50 48  1  0  0  0  0
 51 49  1  0  0  0  0
 34 52  1  6  0  0  0
 37 53  1  1  0  0  0
 54 45  1  0  0  0  0
 55 44  1  0  0  0  0
 56 43  1  0  0  0  0
 43 57  1  6  0  0  0
 58 44  1  0  0  0  0
 59 45  1  0  0  0  0
 60 56  1  0  0  0  0
 31 61  1  6  0  0  0
 20 62  1  1  0  0  0
  3 63  1  6  0  0  0
  1 64  1  1  0  0  0
 21 65  1  6  0  0  0
  7  3  1  0  0  0  0
 26  9  1  0  0  0  0
 19  6  1  0  0  0  0
 22 17  1  0  0  0  0
 37 20  1  0  0  0  0
 54 50  2  0  0  0  0
 55 51  2  0  0  0  0
M  END
>  <IDNUMBER>
F3409-0776

>  <Chemical_Name>
(1'R,2R,4'S,5S,6R,8'R,10'E,12'S,13'S,14'E,16'E,20'R,21'R,24'S)-6-[(2S)-butan-2-yl]-24'-hydroxy-5,11',13',22'-tetramethyl-12'-(3-methylbenzoyloxy)-2'-oxo-3',7',19'-trioxaspiro[oxane-2,6'-tetracyclo[15.6.1.1?,?.0??,??]pentacosane]-10',14',16',22'-tetraen-21'-yl 3-methylbenzoate

>  <PriceCoeff>
7.00

>  <MW>
823.04

>  <Description>
solid

>  <FSP3>
0.54

>  <clogP>
10.96

>  <TPSA>
126.82

>  <Acceptor>
10

>  <Donor>
1

>  <RotBonds>
8

>  <HAC>
60

$$$$
F3409-0777
  Mrv2219 10102508112D          

 56 61  0  0  0  0            999 V2000
    7.4133   -7.8839    0.0000 C   0  0  2  0  0  0  0  0  0  0  0  0
    6.6802   -8.3337    0.0000 C   0  0  1  0  0  0  0  0  0  0  0  0
    6.6802   -9.1416    0.0000 C   0  0  1  0  0  0  0  0  0  0  0  0
    7.4049   -7.0593    0.0000 C   0  0  0  0  0  0  0  0  0  0  0  0
    8.0838   -8.2837    0.0000 C   0  0  0  0  0  0  0  0  0  0  0  0
    8.8334   -4.6229    0.0000 C   0  0  2  0  0  0  0  0  0  0  0  0
    7.4133   -9.5331    0.0000 C   0  0  1  0  0  0  0  0  0  0  0  0
    8.0838   -9.1416    0.0000 C   0  0  0  0  0  0  0  0  0  0  0  0
    5.9098   -9.4124    0.0000 O   0  0  0  0  0  0  0  0  0  0  0  0
    5.9098   -8.1005    0.0000 C   0  0  0  0  0  0  0  0  0  0  0  0
    7.4383  -10.3453    0.0000 O   0  0  0  0  0  0  0  0  0  0  0  0
    8.8334   -3.7900    0.0000 O   0  0  0  0  0  0  0  0  0  0  0  0
    8.0838   -6.6719    0.0000 O   0  0  0  0  0  0  0  0  0  0  0  0
    8.1671  -10.7326    0.0000 C   0  0  0  0  0  0  0  0  0  0  0  0
    8.8334   -5.4600    0.0000 C   0  0  0  0  0  0  0  0  0  0  0  0
    8.1130   -4.2064    0.0000 O   0  0  0  0  0  0  0  0  0  0  0  0
    9.5456   -3.4359    0.0000 C   0  0  1  0  0  0  0  0  0  0  0  0
    8.0838   -5.8473    0.0000 C   0  0  2  0  0  0  0  0  0  0  0  0
    5.2726   -4.1564    0.0000 C   0  0  0  0  0  0  0  0  0  0  0  0
    5.9848   -4.5729    0.0000 C   0  0  0  0  0  0  0  0  0  0  0  0
    5.4267   -8.7043    0.0000 C   0  0  0  0  0  0  0  0  0  0  0  0
    4.5354   -4.5729    0.0000 C   0  0  2  0  0  0  0  0  0  0  0  0
    8.1920  -11.5572    0.0000 C   0  0  0  0  0  0  0  0  0  0  0  0
    5.9098   -7.2550    0.0000 C   0  0  0  0  0  0  0  0  0  0  0  0
    6.6802   -6.6469    0.0000 O   0  0  0  0  0  0  0  0  0  0  0  0
    5.3558   -6.8511    0.0000 C   0  0  0  0  0  0  0  0  0  0  0  0
    7.4133   -5.4475    0.0000 C   0  0  0  0  0  0  0  0  0  0  0  0
    7.4133   -4.5896    0.0000 C   0  0  1  0  0  0  0  0  0  0  0  0
    8.8667  -10.2995    0.0000 O   0  0  0  0  0  0  0  0  0  0  0  0
   10.2036   -3.8524    0.0000 C   0  0  2  0  0  0  0  0  0  0  0  0
    5.3558   -5.9806    0.0000 C   0  0  0  0  0  0  0  0  0  0  0  0
    6.6677   -7.4383    0.0000 O   0  0  0  0  0  0  0  0  0  0  0  0
    9.4956   -4.9852    0.0000 C   0  0  0  0  0  0  0  0  0  0  0  0
    4.5354   -5.4600    0.0000 C   0  0  2  0  0  0  0  0  0  0  0  0
    7.4883  -11.9903    0.0000 C   0  0  0  0  0  0  0  0  0  0  0  0
    8.9167  -11.9403    0.0000 C   0  0  0  0  0  0  0  0  0  0  0  0
   10.2203   -4.6021    0.0000 C   0  0  0  0  0  0  0  0  0  0  0  0
    6.7011   -4.1564    0.0000 C   0  0  0  0  0  0  0  0  0  0  0  0
    9.2291   -2.6988    0.0000 C   0  0  2  0  0  0  0  0  0  0  0  0
    8.2420  -13.2022    0.0000 C   0  0  0  0  0  0  0  0  0  0  0  0
    3.8399   -4.1564    0.0000 O   0  0  0  0  0  0  0  0  0  0  0  0
    8.9459  -12.7649    0.0000 C   0  0  0  0  0  0  0  0  0  0  0  0
    7.5133  -12.8108    0.0000 C   0  0  0  0  0  0  0  0  0  0  0  0
    8.2670  -14.0269    0.0000 F   0  0  0  0  0  0  0  0  0  0  0  0
    8.7877   -9.5581    0.0000 C   0  0  0  0  0  0  0  0  0  0  0  0
    5.2559   -3.2610    0.0000 C   0  0  0  0  0  0  0  0  0  0  0  0
   10.9283   -3.4817    0.0000 C   0  0  0  0  0  0  0  0  0  0  0  0
    3.8399   -5.8473    0.0000 C   0  0  0  0  0  0  0  0  0  0  0  0
    8.4211   -2.5780    0.0000 C   0  0  0  0  0  0  0  0  0  0  0  0
    9.8163   -2.0283    0.0000 C   0  0  0  0  0  0  0  0  0  0  0  0
    8.2670   -1.7700    0.0000 C   0  0  0  0  0  0  0  0  0  0  0  0
   10.1578   -2.9029    0.0000 H   0  0  0  0  0  0  0  0  0  0  0  0
    6.6677  -10.0371    0.0000 H   0  0  0  0  0  0  0  0  0  0  0  0
    8.1130   -7.4758    0.0000 H   0  0  0  0  0  0  0  0  0  0  0  0
    8.7502   -6.3054    0.0000 H   0  0  0  0  0  0  0  0  0  0  0  0
    7.4299   -3.5983    0.0000 H   0  0  0  0  0  0  0  0  0  0  0  0
  2  1  1  0  0  0  0
  3  2  1  0  0  0  0
  4  1  1  0  0  0  0
  5  1  1  0  0  0  0
  6 15  1  0  0  0  0
  7  8  1  0  0  0  0
  8  5  2  0  0  0  0
  9  3  1  0  0  0  0
 10  2  1  0  0  0  0
  7 11  1  1  0  0  0
 12  6  1  0  0  0  0
 13  4  1  0  0  0  0
 14 11  1  0  0  0  0
 15 18  1  0  0  0  0
 16 28  1  0  0  0  0
 17 12  1  0  0  0  0
 18 13  1  0  0  0  0
 19 20  2  0  0  0  0
 20 38  1  0  0  0  0
 21 10  1  0  0  0  0
 22 34  1  0  0  0  0
 23 14  1  0  0  0  0
 24 10  2  0  0  0  0
 25  4  2  0  0  0  0
 26 24  1  0  0  0  0
 27 18  1  0  0  0  0
 28 27  1  0  0  0  0
 29 14  2  0  0  0  0
 30 37  1  0  0  0  0
 31 26  2  0  0  0  0
  2 32  1  6  0  0  0
  6 33  1  1  0  0  0
 34 31  1  0  0  0  0
 35 23  2  0  0  0  0
 36 23  1  0  0  0  0
 37 33  1  0  0  0  0
 38 28  1  0  0  0  0
 39 17  1  0  0  0  0
 40 42  1  0  0  0  0
 22 41  1  6  0  0  0
 42 36  2  0  0  0  0
 43 35  1  0  0  0  0
 44 40  1  0  0  0  0
 45  8  1  0  0  0  0
 46 19  1  0  0  0  0
 30 47  1  1  0  0  0
 34 48  1  6  0  0  0
 49 39  1  0  0  0  0
 39 50  1  6  0  0  0
 51 49  1  0  0  0  0
 17 52  1  1  0  0  0
  3 53  1  6  0  0  0
  1 54  1  1  0  0  0
 18 55  1  6  0  0  0
 28 56  1  6  0  0  0
  7  3  1  0  0  0  0
 21  9  1  0  0  0  0
 16  6  1  0  0  0  0
 19 22  1  0  0  0  0
 40 43  2  0  0  0  0
 30 17  1  0  0  0  0
M  END
>  <IDNUMBER>
F3409-0777

>  <Chemical_Name>
(1'R,2R,4'S,5S,6R,8'R,10'E,12'S,13'S,14'E,16'E,20'R,21'R,24'S)-6-[(2S)-butan-2-yl]-12',24'-dihydroxy-5,11',13',22'-tetramethyl-2'-oxo-3',7',19'-trioxaspiro[oxane-2,6'-tetracyclo[15.6.1.1?,?.0??,??]pentacosane]-10',14',16',22'-tetraen-21'-yl 4-fluorobenzoate

>  <PriceCoeff>
7.00

>  <MW>
708.86

>  <Description>
solid

>  <FSP3>
0.61

>  <clogP>
7.23

>  <TPSA>
120.75

>  <Acceptor>
9

>  <Donor>
2

>  <RotBonds>
5

>  <HAC>
51

$$$$
F3409-0778
  Mrv2219 10102508112D          

 65 71  0  0  0  0            999 V2000
    6.0738   -7.3068    0.0000 C   0  0  2  0  0  0  0  0  0  0  0  0
    5.3406   -7.7567    0.0000 C   0  0  1  0  0  0  0  0  0  0  0  0
    5.3406   -8.5649    0.0000 C   0  0  1  0  0  0  0  0  0  0  0  0
    6.0655   -6.4820    0.0000 C   0  0  0  0  0  0  0  0  0  0  0  0
    6.7444   -7.7067    0.0000 C   0  0  0  0  0  0  0  0  0  0  0  0
    7.4943   -4.0450    0.0000 C   0  0  2  0  0  0  0  0  0  0  0  0
    6.0738   -8.9565    0.0000 C   0  0  1  0  0  0  0  0  0  0  0  0
    6.7444   -8.5649    0.0000 C   0  0  0  0  0  0  0  0  0  0  0  0
    4.5699   -8.8357    0.0000 O   0  0  0  0  0  0  0  0  0  0  0  0
    4.5699   -7.5235    0.0000 C   0  0  0  0  0  0  0  0  0  0  0  0
    6.0988   -9.7688    0.0000 O   0  0  0  0  0  0  0  0  0  0  0  0
    7.4943   -3.2160    0.0000 O   0  0  0  0  0  0  0  0  0  0  0  0
    2.4995   -3.5785    0.0000 O   0  0  0  0  0  0  0  0  0  0  0  0
    6.7444   -6.0946    0.0000 O   0  0  0  0  0  0  0  0  0  0  0  0
    6.8278  -10.1562    0.0000 C   0  0  0  0  0  0  0  0  0  0  0  0
    2.5078   -2.7536    0.0000 C   0  0  0  0  0  0  0  0  0  0  0  0
    3.1951   -3.9950    0.0000 C   0  0  2  0  0  0  0  0  0  0  0  0
    7.4943   -4.8823    0.0000 C   0  0  0  0  0  0  0  0  0  0  0  0
    6.7736   -3.6285    0.0000 O   0  0  0  0  0  0  0  0  0  0  0  0
    8.2066   -2.8577    0.0000 C   0  0  1  0  0  0  0  0  0  0  0  0
    6.7444   -5.2697    0.0000 C   0  0  2  0  0  0  0  0  0  0  0  0
    3.9284   -3.5785    0.0000 C   0  0  0  0  0  0  0  0  0  0  0  0
    4.6448   -3.9950    0.0000 C   0  0  0  0  0  0  0  0  0  0  0  0
    4.0867   -8.1275    0.0000 C   0  0  0  0  0  0  0  0  0  0  0  0
    6.8528  -10.9811    0.0000 C   0  0  0  0  0  0  0  0  0  0  0  0
    1.7996   -2.3328    0.0000 C   0  0  0  0  0  0  0  0  0  0  0  0
    4.5699   -6.6778    0.0000 C   0  0  0  0  0  0  0  0  0  0  0  0
    5.3406   -6.0696    0.0000 O   0  0  0  0  0  0  0  0  0  0  0  0
    4.0159   -6.2737    0.0000 C   0  0  0  0  0  0  0  0  0  0  0  0
    6.0738   -4.8698    0.0000 C   0  0  0  0  0  0  0  0  0  0  0  0
    6.0738   -4.0117    0.0000 C   0  0  1  0  0  0  0  0  0  0  0  0
    7.5277   -9.7230    0.0000 O   0  0  0  0  0  0  0  0  0  0  0  0
    3.2285   -2.3537    0.0000 O   0  0  0  0  0  0  0  0  0  0  0  0
    3.1951   -4.8823    0.0000 C   0  0  2  0  0  0  0  0  0  0  0  0
    8.8649   -3.2743    0.0000 C   0  0  2  0  0  0  0  0  0  0  0  0
    4.0159   -5.4031    0.0000 C   0  0  0  0  0  0  0  0  0  0  0  0
    5.3281   -6.8611    0.0000 O   0  0  0  0  0  0  0  0  0  0  0  0
    8.1566   -4.4074    0.0000 C   0  0  0  0  0  0  0  0  0  0  0  0
    7.5776  -11.3644    0.0000 C   0  0  0  0  0  0  0  0  0  0  0  0
    6.1487  -11.4144    0.0000 C   0  0  0  0  0  0  0  0  0  0  0  0
    1.8163   -1.5080    0.0000 C   0  0  0  0  0  0  0  0  0  0  0  0
    1.0873   -2.7369    0.0000 C   0  0  0  0  0  0  0  0  0  0  0  0
    8.8774   -4.0242    0.0000 C   0  0  0  0  0  0  0  0  0  0  0  0
    5.3656   -3.5785    0.0000 C   0  0  0  0  0  0  0  0  0  0  0  0
    7.8901   -2.1204    0.0000 C   0  0  2  0  0  0  0  0  0  0  0  0
    0.3874   -1.4872    0.0000 C   0  0  0  0  0  0  0  0  0  0  0  0
    6.9028  -12.6266    0.0000 C   0  0  0  0  0  0  0  0  0  0  0  0
    1.1081   -1.0831    0.0000 C   0  0  0  0  0  0  0  0  0  0  0  0
    7.6067  -12.1892    0.0000 C   0  0  0  0  0  0  0  0  0  0  0  0
    0.3791   -2.3162    0.0000 C   0  0  0  0  0  0  0  0  0  0  0  0
    6.1737  -12.2350    0.0000 C   0  0  0  0  0  0  0  0  0  0  0  0
    6.9278  -13.4514    0.0000 F   0  0  0  0  0  0  0  0  0  0  0  0
   -0.3207   -1.0665    0.0000 F   0  0  0  0  0  0  0  0  0  0  0  0
    7.4485   -8.9815    0.0000 C   0  0  0  0  0  0  0  0  0  0  0  0
    3.9159   -2.6828    0.0000 C   0  0  0  0  0  0  0  0  0  0  0  0
    2.4995   -5.2697    0.0000 C   0  0  0  0  0  0  0  0  0  0  0  0
    9.5897   -2.9036    0.0000 C   0  0  0  0  0  0  0  0  0  0  0  0
    7.0818   -1.9996    0.0000 C   0  0  0  0  0  0  0  0  0  0  0  0
    8.4775   -1.4497    0.0000 C   0  0  0  0  0  0  0  0  0  0  0  0
    6.9278   -1.1915    0.0000 C   0  0  0  0  0  0  0  0  0  0  0  0
    6.0905   -3.0202    0.0000 H   0  0  0  0  0  0  0  0  0  0  0  0
    8.8190   -2.3245    0.0000 H   0  0  0  0  0  0  0  0  0  0  0  0
    5.3281   -9.4606    0.0000 H   0  0  0  0  0  0  0  0  0  0  0  0
    6.7736   -6.8986    0.0000 H   0  0  0  0  0  0  0  0  0  0  0  0
    7.4110   -5.7280    0.0000 H   0  0  0  0  0  0  0  0  0  0  0  0
  2  1  1  0  0  0  0
  3  2  1  0  0  0  0
  4  1  1  0  0  0  0
  5  1  1  0  0  0  0
  6 18  1  0  0  0  0
  7  8  1  0  0  0  0
  8  5  2  0  0  0  0
  9  3  1  0  0  0  0
 10  2  1  0  0  0  0
  7 11  1  1  0  0  0
 12  6  1  0  0  0  0
 17 13  1  6  0  0  0
 14  4  1  0  0  0  0
 15 11  1  0  0  0  0
 16 13  1  0  0  0  0
 17 34  1  0  0  0  0
 18 21  1  0  0  0  0
 19 31  1  0  0  0  0
 20 12  1  0  0  0  0
 21 14  1  0  0  0  0
 22 23  2  0  0  0  0
 23 44  1  0  0  0  0
 24 10  1  0  0  0  0
 25 15  1  0  0  0  0
 26 16  1  0  0  0  0
 27 10  2  0  0  0  0
 28  4  2  0  0  0  0
 29 27  1  0  0  0  0
 30 21  1  0  0  0  0
 31 30  1  0  0  0  0
 32 15  2  0  0  0  0
 33 16  2  0  0  0  0
 34 36  1  0  0  0  0
 35 43  1  0  0  0  0
 36 29  2  0  0  0  0
  2 37  1  6  0  0  0
  6 38  1  1  0  0  0
 39 25  1  0  0  0  0
 40 25  2  0  0  0  0
 41 26  2  0  0  0  0
 42 26  1  0  0  0  0
 43 38  1  0  0  0  0
 44 31  1  0  0  0  0
 45 20  1  0  0  0  0
 46 50  1  0  0  0  0
 47 49  1  0  0  0  0
 48 41  1  0  0  0  0
 49 39  2  0  0  0  0
 50 42  2  0  0  0  0
 51 40  1  0  0  0  0
 52 47  1  0  0  0  0
 53 46  1  0  0  0  0
 54  8  1  0  0  0  0
 55 22  1  0  0  0  0
 34 56  1  6  0  0  0
 35 57  1  1  0  0  0
 58 45  1  0  0  0  0
 45 59  1  6  0  0  0
 60 58  1  0  0  0  0
 31 61  1  6  0  0  0
 20 62  1  1  0  0  0
  3 63  1  6  0  0  0
  1 64  1  1  0  0  0
 21 65  1  6  0  0  0
  7  3  1  0  0  0  0
 24  9  1  0  0  0  0
 19  6  1  0  0  0  0
 47 51  2  0  0  0  0
 22 17  1  0  0  0  0
 35 20  1  0  0  0  0
 46 48  2  0  0  0  0
M  END
>  <IDNUMBER>
F3409-0778

>  <Chemical_Name>
(1'R,2R,4'S,5S,6R,8'R,10'E,12'S,13'S,14'E,16'E,20'R,21'R,24'S)-6-[(2S)-butan-2-yl]-12'-(4-fluorobenzoyloxy)-24'-hydroxy-5,11',13',22'-tetramethyl-2'-oxo-3',7',19'-trioxaspiro[oxane-2,6'-tetracyclo[15.6.1.1?,?.0??,??]pentacosane]-10',14',16',22'-tetraen-21'-yl 4-fluorobenzoate

>  <PriceCoeff>
7.00

>  <MW>
830.96

>  <Description>
solid

>  <FSP3>
0.52

>  <clogP>
10.25

>  <TPSA>
126.82

>  <Acceptor>
10

>  <Donor>
1

>  <RotBonds>
8

>  <HAC>
60

$$$$
F3409-0779
  Mrv2219 10102508112D          

 56 61  0  0  0  0            999 V2000
    4.8395   -6.5887    0.0000 C   0  0  2  0  0  0  0  0  0  0  0  0
    4.1064   -7.0385    0.0000 C   0  0  1  0  0  0  0  0  0  0  0  0
    4.1064   -7.8464    0.0000 C   0  0  1  0  0  0  0  0  0  0  0  0
    4.8311   -5.7641    0.0000 C   0  0  0  0  0  0  0  0  0  0  0  0
    5.5100   -6.9885    0.0000 C   0  0  0  0  0  0  0  0  0  0  0  0
    6.2596   -3.3277    0.0000 C   0  0  2  0  0  0  0  0  0  0  0  0
    4.8395   -8.2379    0.0000 C   0  0  1  0  0  0  0  0  0  0  0  0
    5.5100   -7.8464    0.0000 C   0  0  0  0  0  0  0  0  0  0  0  0
    3.3360   -8.1171    0.0000 O   0  0  0  0  0  0  0  0  0  0  0  0
    3.3360   -6.8052    0.0000 C   0  0  0  0  0  0  0  0  0  0  0  0
    4.8645   -9.0500    0.0000 O   0  0  0  0  0  0  0  0  0  0  0  0
    6.2596   -2.4989    0.0000 O   0  0  0  0  0  0  0  0  0  0  0  0
    5.5932   -9.4374    0.0000 C   0  0  0  0  0  0  0  0  0  0  0  0
    5.5100   -5.3767    0.0000 O   0  0  0  0  0  0  0  0  0  0  0  0
    6.2596   -4.1648    0.0000 C   0  0  0  0  0  0  0  0  0  0  0  0
    5.5392   -2.9112    0.0000 O   0  0  0  0  0  0  0  0  0  0  0  0
    6.9718   -2.1407    0.0000 C   0  0  1  0  0  0  0  0  0  0  0  0
    5.5100   -4.5521    0.0000 C   0  0  2  0  0  0  0  0  0  0  0  0
    2.6988   -2.8612    0.0000 C   0  0  0  0  0  0  0  0  0  0  0  0
    3.4109   -3.2777    0.0000 C   0  0  0  0  0  0  0  0  0  0  0  0
    5.6182  -10.2620    0.0000 C   0  0  0  0  0  0  0  0  0  0  0  0
    2.8529   -7.4091    0.0000 C   0  0  0  0  0  0  0  0  0  0  0  0
    1.9616   -3.2777    0.0000 C   0  0  2  0  0  0  0  0  0  0  0  0
    3.3360   -5.9598    0.0000 C   0  0  0  0  0  0  0  0  0  0  0  0
    4.1064   -5.3517    0.0000 O   0  0  0  0  0  0  0  0  0  0  0  0
    2.7820   -5.5557    0.0000 C   0  0  0  0  0  0  0  0  0  0  0  0
    4.8395   -4.1523    0.0000 C   0  0  0  0  0  0  0  0  0  0  0  0
    4.8395   -3.2943    0.0000 C   0  0  1  0  0  0  0  0  0  0  0  0
    6.2929   -9.0042    0.0000 O   0  0  0  0  0  0  0  0  0  0  0  0
    6.3429  -10.6451    0.0000 C   0  0  0  0  0  0  0  0  0  0  0  0
    7.6298   -2.5571    0.0000 C   0  0  2  0  0  0  0  0  0  0  0  0
    2.7820   -4.6853    0.0000 C   0  0  0  0  0  0  0  0  0  0  0  0
    4.0939   -6.1430    0.0000 O   0  0  0  0  0  0  0  0  0  0  0  0
    6.9218   -3.6900    0.0000 C   0  0  0  0  0  0  0  0  0  0  0  0
    1.9616   -4.1648    0.0000 C   0  0  2  0  0  0  0  0  0  0  0  0
    7.6465   -3.3068    0.0000 C   0  0  0  0  0  0  0  0  0  0  0  0
    4.1273   -2.8612    0.0000 C   0  0  0  0  0  0  0  0  0  0  0  0
    6.6552   -1.4036    0.0000 C   0  0  2  0  0  0  0  0  0  0  0  0
    6.3721  -11.4697    0.0000 C   0  0  0  0  0  0  0  0  0  0  0  0
    1.2661   -2.8612    0.0000 O   0  0  0  0  0  0  0  0  0  0  0  0
    7.1009  -11.8571    0.0000 F   0  0  0  0  0  0  0  0  0  0  0  0
    6.2138   -8.2629    0.0000 C   0  0  0  0  0  0  0  0  0  0  0  0
    2.6821   -1.9658    0.0000 C   0  0  0  0  0  0  0  0  0  0  0  0
    4.9144  -10.6951    0.0000 C   0  0  0  0  0  0  0  0  0  0  0  0
    4.9394  -11.5155    0.0000 C   0  0  0  0  0  0  0  0  0  0  0  0
    5.6682  -11.9070    0.0000 C   0  0  0  0  0  0  0  0  0  0  0  0
    8.3545   -2.1865    0.0000 C   0  0  0  0  0  0  0  0  0  0  0  0
    1.2661   -4.5521    0.0000 C   0  0  0  0  0  0  0  0  0  0  0  0
    5.8473   -1.2827    0.0000 C   0  0  0  0  0  0  0  0  0  0  0  0
    7.2425   -0.7330    0.0000 C   0  0  0  0  0  0  0  0  0  0  0  0
    5.6932   -0.4748    0.0000 C   0  0  0  0  0  0  0  0  0  0  0  0
    7.5840   -1.6076    0.0000 H   0  0  0  0  0  0  0  0  0  0  0  0
    4.0939   -8.7418    0.0000 H   0  0  0  0  0  0  0  0  0  0  0  0
    5.5392   -6.1805    0.0000 H   0  0  0  0  0  0  0  0  0  0  0  0
    6.1764   -5.0102    0.0000 H   0  0  0  0  0  0  0  0  0  0  0  0
    4.8561   -2.3031    0.0000 H   0  0  0  0  0  0  0  0  0  0  0  0
  2  1  1  0  0  0  0
  3  2  1  0  0  0  0
  4  1  1  0  0  0  0
  5  1  1  0  0  0  0
  6 15  1  0  0  0  0
  7  8  1  0  0  0  0
  8  5  2  0  0  0  0
  9  3  1  0  0  0  0
 10  2  1  0  0  0  0
  7 11  1  1  0  0  0
 12  6  1  0  0  0  0
 13 11  1  0  0  0  0
 14  4  1  0  0  0  0
 15 18  1  0  0  0  0
 16 28  1  0  0  0  0
 17 12  1  0  0  0  0
 18 14  1  0  0  0  0
 19 20  2  0  0  0  0
 20 37  1  0  0  0  0
 21 13  1  0  0  0  0
 22 10  1  0  0  0  0
 23 35  1  0  0  0  0
 24 10  2  0  0  0  0
 25  4  2  0  0  0  0
 26 24  1  0  0  0  0
 27 18  1  0  0  0  0
 28 27  1  0  0  0  0
 29 13  2  0  0  0  0
 30 21  1  0  0  0  0
 31 36  1  0  0  0  0
 32 26  2  0  0  0  0
  2 33  1  6  0  0  0
  6 34  1  1  0  0  0
 35 32  1  0  0  0  0
 36 34  1  0  0  0  0
 37 28  1  0  0  0  0
 38 17  1  0  0  0  0
 39 30  2  0  0  0  0
 23 40  1  6  0  0  0
 41 39  1  0  0  0  0
 42  8  1  0  0  0  0
 43 19  1  0  0  0  0
 44 21  2  0  0  0  0
 45 44  1  0  0  0  0
 46 39  1  0  0  0  0
 31 47  1  1  0  0  0
 35 48  1  6  0  0  0
 49 38  1  0  0  0  0
 38 50  1  6  0  0  0
 51 49  1  0  0  0  0
 17 52  1  1  0  0  0
  3 53  1  6  0  0  0
  1 54  1  1  0  0  0
 18 55  1  6  0  0  0
 28 56  1  6  0  0  0
  7  3  1  0  0  0  0
 22  9  1  0  0  0  0
 16  6  1  0  0  0  0
 19 23  1  0  0  0  0
 31 17  1  0  0  0  0
 46 45  2  0  0  0  0
M  END
>  <IDNUMBER>
F3409-0779

>  <Chemical_Name>
(1'R,2R,4'S,5S,6R,8'R,10'E,12'S,13'S,14'E,16'E,20'R,21'R,24'S)-6-[(2S)-butan-2-yl]-12',24'-dihydroxy-5,11',13',22'-tetramethyl-2'-oxo-3',7',19'-trioxaspiro[oxane-2,6'-tetracyclo[15.6.1.1?,?.0??,??]pentacosane]-10',14',16',22'-tetraen-21'-yl 3-fluorobenzoate

>  <PriceCoeff>
7.00

>  <MW>
708.86

>  <Description>
solid

>  <FSP3>
0.61

>  <clogP>
7.23

>  <TPSA>
120.75

>  <Acceptor>
9

>  <Donor>
2

>  <RotBonds>
5

>  <HAC>
51

$$$$
F3409-0780
  Mrv2219 10102508112D          

 65 71  0  0  0  0            999 V2000
    5.4364   -6.8194    0.0000 C   0  0  2  0  0  0  0  0  0  0  0  0
    4.7032   -7.2693    0.0000 C   0  0  1  0  0  0  0  0  0  0  0  0
    4.7032   -8.0775    0.0000 C   0  0  1  0  0  0  0  0  0  0  0  0
    5.4281   -5.9946    0.0000 C   0  0  0  0  0  0  0  0  0  0  0  0
    6.1070   -7.2193    0.0000 C   0  0  0  0  0  0  0  0  0  0  0  0
    6.8569   -3.5576    0.0000 C   0  0  2  0  0  0  0  0  0  0  0  0
    5.4364   -8.4691    0.0000 C   0  0  1  0  0  0  0  0  0  0  0  0
    6.1070   -8.0775    0.0000 C   0  0  0  0  0  0  0  0  0  0  0  0
    3.9325   -8.3483    0.0000 O   0  0  0  0  0  0  0  0  0  0  0  0
    3.9325   -7.0361    0.0000 C   0  0  0  0  0  0  0  0  0  0  0  0
    5.4614   -9.2814    0.0000 O   0  0  0  0  0  0  0  0  0  0  0  0
    6.8569   -2.7286    0.0000 O   0  0  0  0  0  0  0  0  0  0  0  0
    6.1904   -9.6688    0.0000 C   0  0  0  0  0  0  0  0  0  0  0  0
    1.8704   -2.2662    0.0000 C   0  0  0  0  0  0  0  0  0  0  0  0
    1.8621   -3.0911    0.0000 O   0  0  0  0  0  0  0  0  0  0  0  0
    6.1070   -5.6072    0.0000 O   0  0  0  0  0  0  0  0  0  0  0  0
    2.5578   -3.5076    0.0000 C   0  0  2  0  0  0  0  0  0  0  0  0
    6.8569   -4.3949    0.0000 C   0  0  0  0  0  0  0  0  0  0  0  0
    6.1362   -3.1411    0.0000 O   0  0  0  0  0  0  0  0  0  0  0  0
    7.5692   -2.3703    0.0000 C   0  0  1  0  0  0  0  0  0  0  0  0
    6.1070   -4.7823    0.0000 C   0  0  2  0  0  0  0  0  0  0  0  0
    3.2910   -3.0911    0.0000 C   0  0  0  0  0  0  0  0  0  0  0  0
    4.0075   -3.5076    0.0000 C   0  0  0  0  0  0  0  0  0  0  0  0
    6.2154  -10.4937    0.0000 C   0  0  0  0  0  0  0  0  0  0  0  0
    1.1623   -1.8454    0.0000 C   0  0  0  0  0  0  0  0  0  0  0  0
    3.4493   -7.6401    0.0000 C   0  0  0  0  0  0  0  0  0  0  0  0
    3.9325   -6.1904    0.0000 C   0  0  0  0  0  0  0  0  0  0  0  0
    4.7032   -5.5822    0.0000 O   0  0  0  0  0  0  0  0  0  0  0  0
    3.3785   -5.7863    0.0000 C   0  0  0  0  0  0  0  0  0  0  0  0
    5.4364   -4.3824    0.0000 C   0  0  0  0  0  0  0  0  0  0  0  0
    5.4364   -3.5243    0.0000 C   0  0  1  0  0  0  0  0  0  0  0  0
    6.8903   -9.2356    0.0000 O   0  0  0  0  0  0  0  0  0  0  0  0
    2.5912   -1.8663    0.0000 O   0  0  0  0  0  0  0  0  0  0  0  0
    2.5578   -4.3949    0.0000 C   0  0  2  0  0  0  0  0  0  0  0  0
    6.9403  -10.8770    0.0000 C   0  0  0  0  0  0  0  0  0  0  0  0
    0.4499   -2.2495    0.0000 C   0  0  0  0  0  0  0  0  0  0  0  0
    8.2275   -2.7869    0.0000 C   0  0  2  0  0  0  0  0  0  0  0  0
    3.3785   -4.9157    0.0000 C   0  0  0  0  0  0  0  0  0  0  0  0
    4.6907   -6.3737    0.0000 O   0  0  0  0  0  0  0  0  0  0  0  0
    7.5193   -3.9200    0.0000 C   0  0  0  0  0  0  0  0  0  0  0  0
    8.2400   -3.5368    0.0000 C   0  0  0  0  0  0  0  0  0  0  0  0
    4.7282   -3.0911    0.0000 C   0  0  0  0  0  0  0  0  0  0  0  0
    7.2527   -1.6330    0.0000 C   0  0  2  0  0  0  0  0  0  0  0  0
   -0.2582   -1.8288    0.0000 C   0  0  0  0  0  0  0  0  0  0  0  0
    6.9694  -11.7018    0.0000 C   0  0  0  0  0  0  0  0  0  0  0  0
   -0.9790   -2.2328    0.0000 F   0  0  0  0  0  0  0  0  0  0  0  0
    7.6984  -12.0892    0.0000 F   0  0  0  0  0  0  0  0  0  0  0  0
    6.8111   -8.4941    0.0000 C   0  0  0  0  0  0  0  0  0  0  0  0
    3.2785   -2.1954    0.0000 C   0  0  0  0  0  0  0  0  0  0  0  0
    5.5114  -10.9270    0.0000 C   0  0  0  0  0  0  0  0  0  0  0  0
    1.1790   -1.0206    0.0000 C   0  0  0  0  0  0  0  0  0  0  0  0
    5.5364  -11.7476    0.0000 C   0  0  0  0  0  0  0  0  0  0  0  0
    0.4707   -0.5957    0.0000 C   0  0  0  0  0  0  0  0  0  0  0  0
    6.2654  -12.1392    0.0000 C   0  0  0  0  0  0  0  0  0  0  0  0
   -0.2499   -0.9998    0.0000 C   0  0  0  0  0  0  0  0  0  0  0  0
    1.8621   -4.7823    0.0000 C   0  0  0  0  0  0  0  0  0  0  0  0
    8.9524   -2.4162    0.0000 C   0  0  0  0  0  0  0  0  0  0  0  0
    6.4445   -1.5122    0.0000 C   0  0  0  0  0  0  0  0  0  0  0  0
    7.8401   -0.9623    0.0000 C   0  0  0  0  0  0  0  0  0  0  0  0
    6.2904   -0.7041    0.0000 C   0  0  0  0  0  0  0  0  0  0  0  0
    5.4531   -2.5328    0.0000 H   0  0  0  0  0  0  0  0  0  0  0  0
    8.1816   -1.8371    0.0000 H   0  0  0  0  0  0  0  0  0  0  0  0
    4.6907   -8.9732    0.0000 H   0  0  0  0  0  0  0  0  0  0  0  0
    6.1362   -6.4112    0.0000 H   0  0  0  0  0  0  0  0  0  0  0  0
    6.7736   -5.2406    0.0000 H   0  0  0  0  0  0  0  0  0  0  0  0
  2  1  1  0  0  0  0
  3  2  1  0  0  0  0
  4  1  1  0  0  0  0
  5  1  1  0  0  0  0
  6 18  1  0  0  0  0
  7  8  1  0  0  0  0
  8  5  2  0  0  0  0
  9  3  1  0  0  0  0
 10  2  1  0  0  0  0
  7 11  1  1  0  0  0
 12  6  1  0  0  0  0
 13 11  1  0  0  0  0
 14 15  1  0  0  0  0
 17 15  1  6  0  0  0
 16  4  1  0  0  0  0
 17 34  1  0  0  0  0
 18 21  1  0  0  0  0
 19 31  1  0  0  0  0
 20 12  1  0  0  0  0
 21 16  1  0  0  0  0
 22 23  2  0  0  0  0
 23 42  1  0  0  0  0
 24 13  1  0  0  0  0
 25 14  1  0  0  0  0
 26 10  1  0  0  0  0
 27 10  2  0  0  0  0
 28  4  2  0  0  0  0
 29 27  1  0  0  0  0
 30 21  1  0  0  0  0
 31 30  1  0  0  0  0
 32 13  2  0  0  0  0
 33 14  2  0  0  0  0
 34 38  1  0  0  0  0
 35 24  1  0  0  0  0
 36 25  1  0  0  0  0
 37 41  1  0  0  0  0
 38 29  2  0  0  0  0
  2 39  1  6  0  0  0
  6 40  1  1  0  0  0
 41 40  1  0  0  0  0
 42 31  1  0  0  0  0
 43 20  1  0  0  0  0
 44 36  2  0  0  0  0
 45 35  2  0  0  0  0
 46 44  1  0  0  0  0
 47 45  1  0  0  0  0
 48  8  1  0  0  0  0
 49 22  1  0  0  0  0
 50 24  2  0  0  0  0
 51 25  2  0  0  0  0
 52 50  1  0  0  0  0
 53 51  1  0  0  0  0
 54 45  1  0  0  0  0
 55 44  1  0  0  0  0
 34 56  1  6  0  0  0
 37 57  1  1  0  0  0
 58 43  1  0  0  0  0
 43 59  1  6  0  0  0
 60 58  1  0  0  0  0
 31 61  1  6  0  0  0
 20 62  1  1  0  0  0
  3 63  1  6  0  0  0
  1 64  1  1  0  0  0
 21 65  1  6  0  0  0
  7  3  1  0  0  0  0
 26  9  1  0  0  0  0
 19  6  1  0  0  0  0
 22 17  1  0  0  0  0
 37 20  1  0  0  0  0
 54 52  2  0  0  0  0
 55 53  2  0  0  0  0
M  END
>  <IDNUMBER>
F3409-0780

>  <Chemical_Name>
(1'R,2R,4'S,5S,6R,8'R,10'E,12'S,13'S,14'E,16'E,20'R,21'R,24'S)-6-[(2S)-butan-2-yl]-12'-(3-fluorobenzoyloxy)-24'-hydroxy-5,11',13',22'-tetramethyl-2'-oxo-3',7',19'-trioxaspiro[oxane-2,6'-tetracyclo[15.6.1.1?,?.0??,??]pentacosane]-10',14',16',22'-tetraen-21'-yl 3-fluorobenzoate

>  <PriceCoeff>
7.00

>  <MW>
830.96

>  <Description>
solid

>  <FSP3>
0.52

>  <clogP>
10.25

>  <TPSA>
126.82

>  <Acceptor>
10

>  <Donor>
1

>  <RotBonds>
8

>  <HAC>
60

$$$$
F3409-0781
  Mrv2219 10102508112D          

 56 61  0  0  0  0            999 V2000
    6.6220   -7.6298    0.0000 C   0  0  2  0  0  0  0  0  0  0  0  0
    5.8890   -8.0796    0.0000 C   0  0  1  0  0  0  0  0  0  0  0  0
    5.8890   -8.8876    0.0000 C   0  0  1  0  0  0  0  0  0  0  0  0
    6.6137   -6.8052    0.0000 C   0  0  0  0  0  0  0  0  0  0  0  0
    7.2925   -8.0296    0.0000 C   0  0  0  0  0  0  0  0  0  0  0  0
    8.0421   -4.3688    0.0000 C   0  0  2  0  0  0  0  0  0  0  0  0
    6.6220   -9.2790    0.0000 C   0  0  1  0  0  0  0  0  0  0  0  0
    7.2925   -8.8876    0.0000 C   0  0  0  0  0  0  0  0  0  0  0  0
    5.1185   -9.1583    0.0000 O   0  0  0  0  0  0  0  0  0  0  0  0
    5.1185   -7.8464    0.0000 C   0  0  0  0  0  0  0  0  0  0  0  0
    6.6469  -10.0912    0.0000 O   0  0  0  0  0  0  0  0  0  0  0  0
    8.0421   -3.5401    0.0000 O   0  0  0  0  0  0  0  0  0  0  0  0
    7.2925   -6.4179    0.0000 O   0  0  0  0  0  0  0  0  0  0  0  0
    7.3758  -10.4785    0.0000 C   0  0  0  0  0  0  0  0  0  0  0  0
    8.0421   -5.2059    0.0000 C   0  0  0  0  0  0  0  0  0  0  0  0
    7.3216   -3.9524    0.0000 O   0  0  0  0  0  0  0  0  0  0  0  0
    8.7543   -3.1818    0.0000 C   0  0  1  0  0  0  0  0  0  0  0  0
    7.2925   -5.5932    0.0000 C   0  0  2  0  0  0  0  0  0  0  0  0
    4.4771   -3.9024    0.0000 C   0  0  0  0  0  0  0  0  0  0  0  0
    5.1934   -4.3188    0.0000 C   0  0  0  0  0  0  0  0  0  0  0  0
    4.6354   -8.4503    0.0000 C   0  0  0  0  0  0  0  0  0  0  0  0
    3.7441   -4.3188    0.0000 C   0  0  2  0  0  0  0  0  0  0  0  0
    7.4008  -11.3031    0.0000 C   0  0  0  0  0  0  0  0  0  0  0  0
    5.1185   -7.0010    0.0000 C   0  0  0  0  0  0  0  0  0  0  0  0
    5.8890   -6.3929    0.0000 O   0  0  0  0  0  0  0  0  0  0  0  0
    4.5646   -6.5970    0.0000 C   0  0  0  0  0  0  0  0  0  0  0  0
    6.6220   -5.1934    0.0000 C   0  0  0  0  0  0  0  0  0  0  0  0
    6.6220   -4.3355    0.0000 C   0  0  1  0  0  0  0  0  0  0  0  0
    8.0755  -10.0454    0.0000 O   0  0  0  0  0  0  0  0  0  0  0  0
    9.4124   -3.5983    0.0000 C   0  0  2  0  0  0  0  0  0  0  0  0
    4.5646   -5.7266    0.0000 C   0  0  0  0  0  0  0  0  0  0  0  0
    5.8765   -7.1842    0.0000 O   0  0  0  0  0  0  0  0  0  0  0  0
    8.7043   -4.7311    0.0000 C   0  0  0  0  0  0  0  0  0  0  0  0
    3.7441   -5.2059    0.0000 C   0  0  2  0  0  0  0  0  0  0  0  0
    6.6969  -11.7363    0.0000 C   0  0  0  0  0  0  0  0  0  0  0  0
    8.1255  -11.6863    0.0000 C   0  0  0  0  0  0  0  0  0  0  0  0
    9.4249   -4.3480    0.0000 C   0  0  0  0  0  0  0  0  0  0  0  0
    5.9140   -3.9024    0.0000 C   0  0  0  0  0  0  0  0  0  0  0  0
    8.4378   -2.4447    0.0000 C   0  0  2  0  0  0  0  0  0  0  0  0
    7.4508  -12.9483    0.0000 C   0  0  0  0  0  0  0  0  0  0  0  0
    3.0486   -3.9024    0.0000 O   0  0  0  0  0  0  0  0  0  0  0  0
    8.1546  -12.5110    0.0000 C   0  0  0  0  0  0  0  0  0  0  0  0
    6.7219  -12.5567    0.0000 C   0  0  0  0  0  0  0  0  0  0  0  0
    7.4758  -13.7729    0.0000 Cl  0  0  0  0  0  0  0  0  0  0  0  0
    7.9963   -9.3040    0.0000 C   0  0  0  0  0  0  0  0  0  0  0  0
    4.4647   -3.0069    0.0000 C   0  0  0  0  0  0  0  0  0  0  0  0
   10.1370   -3.2277    0.0000 C   0  0  0  0  0  0  0  0  0  0  0  0
    3.0486   -5.5932    0.0000 C   0  0  0  0  0  0  0  0  0  0  0  0
    7.6298   -2.3239    0.0000 C   0  0  0  0  0  0  0  0  0  0  0  0
    9.0251   -1.7742    0.0000 C   0  0  0  0  0  0  0  0  0  0  0  0
    7.4758   -1.5160    0.0000 C   0  0  0  0  0  0  0  0  0  0  0  0
    9.3665   -2.6488    0.0000 H   0  0  0  0  0  0  0  0  0  0  0  0
    5.8765   -9.7830    0.0000 H   0  0  0  0  0  0  0  0  0  0  0  0
    7.3216   -7.2217    0.0000 H   0  0  0  0  0  0  0  0  0  0  0  0
    7.9588   -6.0514    0.0000 H   0  0  0  0  0  0  0  0  0  0  0  0
    6.6387   -3.3443    0.0000 H   0  0  0  0  0  0  0  0  0  0  0  0
  2  1  1  0  0  0  0
  3  2  1  0  0  0  0
  4  1  1  0  0  0  0
  5  1  1  0  0  0  0
  6 15  1  0  0  0  0
  7  8  1  0  0  0  0
  8  5  2  0  0  0  0
  9  3  1  0  0  0  0
 10  2  1  0  0  0  0
  7 11  1  1  0  0  0
 12  6  1  0  0  0  0
 13  4  1  0  0  0  0
 14 11  1  0  0  0  0
 15 18  1  0  0  0  0
 16 28  1  0  0  0  0
 17 12  1  0  0  0  0
 18 13  1  0  0  0  0
 19 20  2  0  0  0  0
 20 38  1  0  0  0  0
 21 10  1  0  0  0  0
 22 34  1  0  0  0  0
 23 14  1  0  0  0  0
 24 10  2  0  0  0  0
 25  4  2  0  0  0  0
 26 24  1  0  0  0  0
 27 18  1  0  0  0  0
 28 27  1  0  0  0  0
 29 14  2  0  0  0  0
 30 37  1  0  0  0  0
 31 26  2  0  0  0  0
  2 32  1  6  0  0  0
  6 33  1  1  0  0  0
 34 31  1  0  0  0  0
 35 23  2  0  0  0  0
 36 23  1  0  0  0  0
 37 33  1  0  0  0  0
 38 28  1  0  0  0  0
 39 17  1  0  0  0  0
 40 42  1  0  0  0  0
 22 41  1  6  0  0  0
 42 36  2  0  0  0  0
 43 35  1  0  0  0  0
 44 40  1  0  0  0  0
 45  8  1  0  0  0  0
 46 19  1  0  0  0  0
 30 47  1  1  0  0  0
 34 48  1  6  0  0  0
 49 39  1  0  0  0  0
 39 50  1  6  0  0  0
 51 49  1  0  0  0  0
 17 52  1  1  0  0  0
  3 53  1  6  0  0  0
  1 54  1  1  0  0  0
 18 55  1  6  0  0  0
 28 56  1  6  0  0  0
  7  3  1  0  0  0  0
 21  9  1  0  0  0  0
 16  6  1  0  0  0  0
 19 22  1  0  0  0  0
 40 43  2  0  0  0  0
 30 17  1  0  0  0  0
M  END
>  <IDNUMBER>
F3409-0781

>  <Chemical_Name>
(1'R,2R,4'S,5S,6R,8'R,10'E,12'S,13'S,14'E,16'E,20'R,21'R,24'S)-6-[(2S)-butan-2-yl]-12',24'-dihydroxy-5,11',13',22'-tetramethyl-2'-oxo-3',7',19'-trioxaspiro[oxane-2,6'-tetracyclo[15.6.1.1?,?.0??,??]pentacosane]-10',14',16',22'-tetraen-21'-yl 4-chlorobenzoate

>  <PriceCoeff>
7.00

>  <MW>
725.32

>  <Description>
solid

>  <FSP3>
0.61

>  <clogP>
7.80

>  <TPSA>
120.75

>  <Acceptor>
9

>  <Donor>
2

>  <RotBonds>
5

>  <HAC>
51

$$$$
F3409-0782
  Mrv2219 10102508112D          

 65 71  0  0  0  0            999 V2000
    7.4152   -7.8317    0.0000 C   0  0  2  0  0  0  0  0  0  0  0  0
    6.6819   -8.2816    0.0000 C   0  0  1  0  0  0  0  0  0  0  0  0
    6.6819   -9.0899    0.0000 C   0  0  1  0  0  0  0  0  0  0  0  0
    7.4068   -7.0069    0.0000 C   0  0  0  0  0  0  0  0  0  0  0  0
    8.0859   -8.2316    0.0000 C   0  0  0  0  0  0  0  0  0  0  0  0
    8.8357   -4.5699    0.0000 C   0  0  2  0  0  0  0  0  0  0  0  0
    7.4152   -9.4814    0.0000 C   0  0  1  0  0  0  0  0  0  0  0  0
    8.0859   -9.0899    0.0000 C   0  0  0  0  0  0  0  0  0  0  0  0
    5.9113   -9.3606    0.0000 O   0  0  0  0  0  0  0  0  0  0  0  0
    5.9113   -8.0484    0.0000 C   0  0  0  0  0  0  0  0  0  0  0  0
    7.4402  -10.2937    0.0000 O   0  0  0  0  0  0  0  0  0  0  0  0
    8.8357   -3.7409    0.0000 O   0  0  0  0  0  0  0  0  0  0  0  0
    3.8409   -4.1034    0.0000 O   0  0  0  0  0  0  0  0  0  0  0  0
    8.0859   -6.6195    0.0000 O   0  0  0  0  0  0  0  0  0  0  0  0
    8.1691  -10.6811    0.0000 C   0  0  0  0  0  0  0  0  0  0  0  0
    3.8492   -3.2785    0.0000 C   0  0  0  0  0  0  0  0  0  0  0  0
    4.5366   -4.5199    0.0000 C   0  0  2  0  0  0  0  0  0  0  0  0
    8.8357   -5.4072    0.0000 C   0  0  0  0  0  0  0  0  0  0  0  0
    8.1151   -4.1534    0.0000 O   0  0  0  0  0  0  0  0  0  0  0  0
    9.5481   -3.3826    0.0000 C   0  0  1  0  0  0  0  0  0  0  0  0
    8.0859   -5.7946    0.0000 C   0  0  2  0  0  0  0  0  0  0  0  0
    5.2739   -4.1034    0.0000 C   0  0  0  0  0  0  0  0  0  0  0  0
    5.9863   -4.5199    0.0000 C   0  0  0  0  0  0  0  0  0  0  0  0
    5.4281   -8.6524    0.0000 C   0  0  0  0  0  0  0  0  0  0  0  0
    8.1941  -11.5060    0.0000 C   0  0  0  0  0  0  0  0  0  0  0  0
    3.1411   -2.8577    0.0000 C   0  0  0  0  0  0  0  0  0  0  0  0
    5.9113   -7.2027    0.0000 C   0  0  0  0  0  0  0  0  0  0  0  0
    6.6819   -6.5945    0.0000 O   0  0  0  0  0  0  0  0  0  0  0  0
    5.3572   -6.7986    0.0000 C   0  0  0  0  0  0  0  0  0  0  0  0
    7.4152   -5.3947    0.0000 C   0  0  0  0  0  0  0  0  0  0  0  0
    7.4152   -4.5366    0.0000 C   0  0  1  0  0  0  0  0  0  0  0  0
    8.8690  -10.2479    0.0000 O   0  0  0  0  0  0  0  0  0  0  0  0
    4.5699   -2.8786    0.0000 O   0  0  0  0  0  0  0  0  0  0  0  0
    4.5366   -5.4072    0.0000 C   0  0  2  0  0  0  0  0  0  0  0  0
   10.2062   -3.7992    0.0000 C   0  0  2  0  0  0  0  0  0  0  0  0
    5.3572   -5.9280    0.0000 C   0  0  0  0  0  0  0  0  0  0  0  0
    6.6695   -7.3860    0.0000 O   0  0  0  0  0  0  0  0  0  0  0  0
    9.4981   -4.9323    0.0000 C   0  0  0  0  0  0  0  0  0  0  0  0
    8.9190  -11.8893    0.0000 C   0  0  0  0  0  0  0  0  0  0  0  0
    7.4902  -11.9393    0.0000 C   0  0  0  0  0  0  0  0  0  0  0  0
    3.1577   -2.0329    0.0000 C   0  0  0  0  0  0  0  0  0  0  0  0
    2.4287   -3.2618    0.0000 C   0  0  0  0  0  0  0  0  0  0  0  0
   10.2229   -4.5491    0.0000 C   0  0  0  0  0  0  0  0  0  0  0  0
    6.7028   -4.1034    0.0000 C   0  0  0  0  0  0  0  0  0  0  0  0
    9.2314   -2.6453    0.0000 C   0  0  2  0  0  0  0  0  0  0  0  0
    1.7289   -2.0121    0.0000 C   0  0  0  0  0  0  0  0  0  0  0  0
    8.2441  -13.1515    0.0000 C   0  0  0  0  0  0  0  0  0  0  0  0
    2.4495   -1.6080    0.0000 C   0  0  0  0  0  0  0  0  0  0  0  0
    8.9482  -12.7141    0.0000 C   0  0  0  0  0  0  0  0  0  0  0  0
    1.7205   -2.8411    0.0000 C   0  0  0  0  0  0  0  0  0  0  0  0
    7.5152  -12.7599    0.0000 C   0  0  0  0  0  0  0  0  0  0  0  0
    8.2691  -13.9764    0.0000 Cl  0  0  0  0  0  0  0  0  0  0  0  0
    1.0206   -1.5914    0.0000 Cl  0  0  0  0  0  0  0  0  0  0  0  0
    8.7899   -9.5064    0.0000 C   0  0  0  0  0  0  0  0  0  0  0  0
    5.2572   -3.2077    0.0000 C   0  0  0  0  0  0  0  0  0  0  0  0
    3.8409   -5.7946    0.0000 C   0  0  0  0  0  0  0  0  0  0  0  0
   10.9311   -3.4285    0.0000 C   0  0  0  0  0  0  0  0  0  0  0  0
    8.4233   -2.5245    0.0000 C   0  0  0  0  0  0  0  0  0  0  0  0
    9.8188   -1.9746    0.0000 C   0  0  0  0  0  0  0  0  0  0  0  0
    8.2691   -1.7164    0.0000 C   0  0  0  0  0  0  0  0  0  0  0  0
    7.4318   -3.5451    0.0000 H   0  0  0  0  0  0  0  0  0  0  0  0
   10.1604   -2.8494    0.0000 H   0  0  0  0  0  0  0  0  0  0  0  0
    6.6695   -9.9855    0.0000 H   0  0  0  0  0  0  0  0  0  0  0  0
    8.1151   -7.4235    0.0000 H   0  0  0  0  0  0  0  0  0  0  0  0
    8.7524   -6.2529    0.0000 H   0  0  0  0  0  0  0  0  0  0  0  0
  2  1  1  0  0  0  0
  3  2  1  0  0  0  0
  4  1  1  0  0  0  0
  5  1  1  0  0  0  0
  6 18  1  0  0  0  0
  7  8  1  0  0  0  0
  8  5  2  0  0  0  0
  9  3  1  0  0  0  0
 10  2  1  0  0  0  0
  7 11  1  1  0  0  0
 12  6  1  0  0  0  0
 17 13  1  6  0  0  0
 14  4  1  0  0  0  0
 15 11  1  0  0  0  0
 16 13  1  0  0  0  0
 17 34  1  0  0  0  0
 18 21  1  0  0  0  0
 19 31  1  0  0  0  0
 20 12  1  0  0  0  0
 21 14  1  0  0  0  0
 22 23  2  0  0  0  0
 23 44  1  0  0  0  0
 24 10  1  0  0  0  0
 25 15  1  0  0  0  0
 26 16  1  0  0  0  0
 27 10  2  0  0  0  0
 28  4  2  0  0  0  0
 29 27  1  0  0  0  0
 30 21  1  0  0  0  0
 31 30  1  0  0  0  0
 32 15  2  0  0  0  0
 33 16  2  0  0  0  0
 34 36  1  0  0  0  0
 35 43  1  0  0  0  0
 36 29  2  0  0  0  0
  2 37  1  6  0  0  0
  6 38  1  1  0  0  0
 39 25  1  0  0  0  0
 40 25  2  0  0  0  0
 41 26  2  0  0  0  0
 42 26  1  0  0  0  0
 43 38  1  0  0  0  0
 44 31  1  0  0  0  0
 45 20  1  0  0  0  0
 46 50  1  0  0  0  0
 47 49  1  0  0  0  0
 48 41  1  0  0  0  0
 49 39  2  0  0  0  0
 50 42  2  0  0  0  0
 51 40  1  0  0  0  0
 52 47  1  0  0  0  0
 53 46  1  0  0  0  0
 54  8  1  0  0  0  0
 55 22  1  0  0  0  0
 34 56  1  6  0  0  0
 35 57  1  1  0  0  0
 58 45  1  0  0  0  0
 45 59  1  6  0  0  0
 60 58  1  0  0  0  0
 31 61  1  6  0  0  0
 20 62  1  1  0  0  0
  3 63  1  6  0  0  0
  1 64  1  1  0  0  0
 21 65  1  6  0  0  0
  7  3  1  0  0  0  0
 24  9  1  0  0  0  0
 19  6  1  0  0  0  0
 47 51  2  0  0  0  0
 22 17  1  0  0  0  0
 35 20  1  0  0  0  0
 46 48  2  0  0  0  0
M  END
>  <IDNUMBER>
F3409-0782

>  <Chemical_Name>
(1'R,2R,4'S,5S,6R,8'R,10'E,12'S,13'S,14'E,16'E,20'R,21'R,24'S)-6-[(2S)-butan-2-yl]-12'-(4-chlorobenzoyloxy)-24'-hydroxy-5,11',13',22'-tetramethyl-2'-oxo-3',7',19'-trioxaspiro[oxane-2,6'-tetracyclo[15.6.1.1?,?.0??,??]pentacosane]-10',14',16',22'-tetraen-21'-yl 4-chlorobenzoate

>  <PriceCoeff>
7.00

>  <MW>
863.87

>  <Description>
solid

>  <FSP3>
0.52

>  <clogP>
11.39

>  <TPSA>
126.82

>  <Acceptor>
10

>  <Donor>
1

>  <RotBonds>
8

>  <HAC>
60

$$$$
F3409-0793
  Mrv2219 10102508112D          

 59 64  0  0  0  0            999 V2000
   -4.7516    3.9662    0.0000 C   0  0  2  0  0  0  0  0  0  0  0  0
   -5.4771    3.5189    0.0000 C   0  0  1  0  0  0  0  0  0  0  0  0
   -5.4771    2.7137    0.0000 C   0  0  1  0  0  0  0  0  0  0  0  0
   -4.7614    4.7912    0.0000 C   0  0  0  0  0  0  0  0  0  0  0  0
   -4.0855    3.5587    0.0000 C   0  0  0  0  0  0  0  0  0  0  0  0
   -3.3299    7.2167    0.0000 C   0  0  2  0  0  0  0  0  0  0  0  0
   -4.7516    2.3160    0.0000 C   0  0  1  0  0  0  0  0  0  0  0  0
   -4.0855    2.7137    0.0000 C   0  0  0  0  0  0  0  0  0  0  0  0
   -6.2524    2.4353    0.0000 O   0  0  0  0  0  0  0  0  0  0  0  0
   -6.2524    3.7474    0.0000 C   0  0  0  0  0  0  0  0  0  0  0  0
   -4.7218    1.5109    0.0000 O   0  0  0  0  0  0  0  0  0  0  0  0
   -3.3299    8.0417    0.0000 O   0  0  0  0  0  0  0  0  0  0  0  0
   -3.8965   -2.1669    0.0000 C   0  0  0  0  0  0  0  0  0  0  0  0
   -4.0855    5.1691    0.0000 O   0  0  0  0  0  0  0  0  0  0  0  0
   -3.9960    1.1232    0.0000 C   0  0  0  0  0  0  0  0  0  0  0  0
   -3.3299    6.3817    0.0000 C   0  0  0  0  0  0  0  0  0  0  0  0
   -4.0557    7.6342    0.0000 O   0  0  0  0  0  0  0  0  0  0  0  0
   -2.6243    8.3995    0.0000 C   0  0  1  0  0  0  0  0  0  0  0  0
   -4.0855    5.9940    0.0000 C   0  0  2  0  0  0  0  0  0  0  0  0
   -6.8887    7.6838    0.0000 C   0  0  0  0  0  0  0  0  0  0  0  0
   -6.1730    7.2663    0.0000 C   0  0  0  0  0  0  0  0  0  0  0  0
   -6.7295    3.1412    0.0000 C   0  0  0  0  0  0  0  0  0  0  0  0
   -7.6242    7.2663    0.0000 C   0  0  2  0  0  0  0  0  0  0  0  0
   -3.9264   -1.3419    0.0000 C   0  0  0  0  0  0  0  0  0  0  0  0
   -3.9762    0.2982    0.0000 C   0  0  0  0  0  0  0  0  0  0  0  0
   -6.2524    4.5924    0.0000 C   0  0  0  0  0  0  0  0  0  0  0  0
   -5.4771    5.1989    0.0000 O   0  0  0  0  0  0  0  0  0  0  0  0
   -6.7992    4.9901    0.0000 C   0  0  0  0  0  0  0  0  0  0  0  0
   -4.7516    6.3917    0.0000 C   0  0  0  0  0  0  0  0  0  0  0  0
   -4.7516    7.2465    0.0000 C   0  0  1  0  0  0  0  0  0  0  0  0
   -3.3001    1.5507    0.0000 O   0  0  0  0  0  0  0  0  0  0  0  0
   -1.9682    7.9820    0.0000 C   0  0  2  0  0  0  0  0  0  0  0  0
   -6.7992    5.8647    0.0000 C   0  0  0  0  0  0  0  0  0  0  0  0
   -5.4971    4.4035    0.0000 O   0  0  0  0  0  0  0  0  0  0  0  0
   -2.6739    6.8589    0.0000 C   0  0  0  0  0  0  0  0  0  0  0  0
   -7.6242    6.3817    0.0000 C   0  0  2  0  0  0  0  0  0  0  0  0
   -3.2207   -0.9047    0.0000 C   0  0  0  0  0  0  0  0  0  0  0  0
   -4.6521   -0.9543    0.0000 C   0  0  0  0  0  0  0  0  0  0  0  0
   -3.2505   -0.0794    0.0000 C   0  0  0  0  0  0  0  0  0  0  0  0
   -4.6719   -0.1391    0.0000 C   0  0  0  0  0  0  0  0  0  0  0  0
   -3.8667   -2.9124    0.0000 F   0  0  0  0  0  0  0  0  0  0  0  0
   -4.5428   -2.7335    0.0000 F   0  0  0  0  0  0  0  0  0  0  0  0
   -3.2107   -2.6939    0.0000 F   0  0  0  0  0  0  0  0  0  0  0  0
   -1.9484    7.2365    0.0000 C   0  0  0  0  0  0  0  0  0  0  0  0
   -5.4573    7.6838    0.0000 C   0  0  0  0  0  0  0  0  0  0  0  0
   -2.9325    9.1353    0.0000 C   0  0  2  0  0  0  0  0  0  0  0  0
   -8.3201    7.6838    0.0000 O   0  0  0  0  0  0  0  0  0  0  0  0
   -3.3698    2.2962    0.0000 C   0  0  0  0  0  0  0  0  0  0  0  0
   -6.9085    8.5785    0.0000 C   0  0  0  0  0  0  0  0  0  0  0  0
   -1.2425    8.3499    0.0000 C   0  0  0  0  0  0  0  0  0  0  0  0
   -8.3201    5.9940    0.0000 C   0  0  0  0  0  0  0  0  0  0  0  0
   -3.7474    9.2546    0.0000 C   0  0  0  0  0  0  0  0  0  0  0  0
   -2.3559    9.8011    0.0000 C   0  0  0  0  0  0  0  0  0  0  0  0
   -3.8965   10.0597    0.0000 C   0  0  0  0  0  0  0  0  0  0  0  0
   -3.4194    5.5367    0.0000 H   0  0  0  0  0  0  0  0  0  0  0  0
   -4.7315    8.2406    0.0000 H   0  0  0  0  0  0  0  0  0  0  0  0
   -2.0080    8.9363    0.0000 H   0  0  0  0  0  0  0  0  0  0  0  0
   -5.4971    1.8091    0.0000 H   0  0  0  0  0  0  0  0  0  0  0  0
   -4.0557    4.3737    0.0000 H   0  0  0  0  0  0  0  0  0  0  0  0
  2  1  1  0  0  0  0
  3  2  1  0  0  0  0
  4  1  1  0  0  0  0
  5  1  1  0  0  0  0
  6 16  1  0  0  0  0
  7  8  1  0  0  0  0
  8  5  2  0  0  0  0
  9  3  1  0  0  0  0
 10  2  1  0  0  0  0
  7 11  1  1  0  0  0
 12  6  1  0  0  0  0
 13 24  1  0  0  0  0
 14  4  1  0  0  0  0
 15 11  1  0  0  0  0
 16 19  1  0  0  0  0
 17 30  1  0  0  0  0
 18 12  1  0  0  0  0
 19 14  1  0  0  0  0
 20 21  2  0  0  0  0
 21 45  1  0  0  0  0
 22 10  1  0  0  0  0
 23 36  1  0  0  0  0
 24 37  1  0  0  0  0
 25 15  1  0  0  0  0
 26 10  2  0  0  0  0
 27  4  2  0  0  0  0
 28 26  1  0  0  0  0
 29 19  1  0  0  0  0
 30 29  1  0  0  0  0
 31 15  2  0  0  0  0
 32 44  1  0  0  0  0
 33 28  2  0  0  0  0
  2 34  1  6  0  0  0
  6 35  1  1  0  0  0
 36 33  1  0  0  0  0
 37 39  2  0  0  0  0
 38 40  1  0  0  0  0
 39 25  1  0  0  0  0
 40 25  2  0  0  0  0
 41 13  1  0  0  0  0
 42 13  1  0  0  0  0
 43 13  1  0  0  0  0
 44 35  1  0  0  0  0
 45 30  1  0  0  0  0
 46 18  1  0  0  0  0
 23 47  1  6  0  0  0
 48  8  1  0  0  0  0
 49 20  1  0  0  0  0
 32 50  1  1  0  0  0
 36 51  1  6  0  0  0
 52 46  1  0  0  0  0
 46 53  1  6  0  0  0
 54 52  1  0  0  0  0
 19 55  1  6  0  0  0
 30 56  1  6  0  0  0
 18 57  1  1  0  0  0
  3 58  1  6  0  0  0
  1 59  1  1  0  0  0
  7  3  1  0  0  0  0
 22  9  1  0  0  0  0
 17  6  1  0  0  0  0
 20 23  1  0  0  0  0
 24 38  2  0  0  0  0
 32 18  1  0  0  0  0
M  END
>  <IDNUMBER>
F3409-0793

>  <Chemical_Name>
(1'R,2R,4'S,5S,6R,8'R,10'E,12'S,13'S,14'E,16'E,20'R,21'R,24'S)-6-[(2S)-butan-2-yl]-12',24'-dihydroxy-5,11',13',22'-tetramethyl-2'-oxo-3',7',19'-trioxaspiro[oxane-2,6'-tetracyclo[15.6.1.1?,?.0??,??]pentacosane]-10',14',16',22'-tetraen-21'-yl 4-(trifluoromethyl)benzoate

>  <PriceCoeff>
7.00

>  <MW>
758.87

>  <Description>
solid

>  <FSP3>
0.62

>  <clogP>
7.97

>  <TPSA>
120.75

>  <Acceptor>
9

>  <Donor>
2

>  <RotBonds>
5

>  <HAC>
54

$$$$
F3409-0794
  Mrv2219 10102508112D          

 71 77  0  0  0  0            999 V2000
    6.0180   -7.8214    0.0000 C   0  0  2  0  0  0  0  0  0  0  0  0
    5.2851   -8.2712    0.0000 C   0  0  1  0  0  0  0  0  0  0  0  0
    5.2851   -9.0791    0.0000 C   0  0  1  0  0  0  0  0  0  0  0  0
    6.0097   -6.9968    0.0000 C   0  0  0  0  0  0  0  0  0  0  0  0
    6.6886   -8.2212    0.0000 C   0  0  0  0  0  0  0  0  0  0  0  0
    7.4383   -4.5604    0.0000 C   0  0  2  0  0  0  0  0  0  0  0  0
    6.0180   -9.4707    0.0000 C   0  0  1  0  0  0  0  0  0  0  0  0
    6.6886   -9.0791    0.0000 C   0  0  0  0  0  0  0  0  0  0  0  0
    4.5146   -9.3499    0.0000 O   0  0  0  0  0  0  0  0  0  0  0  0
    4.5146   -8.0380    0.0000 C   0  0  0  0  0  0  0  0  0  0  0  0
    6.0430  -10.2828    0.0000 O   0  0  0  0  0  0  0  0  0  0  0  0
    7.4383   -3.7275    0.0000 O   0  0  0  0  0  0  0  0  0  0  0  0
    6.8718  -13.9644    0.0000 C   0  0  0  0  0  0  0  0  0  0  0  0
   -0.3748   -1.5785    0.0000 C   0  0  0  0  0  0  0  0  0  0  0  0
    2.4406   -4.0939    0.0000 O   0  0  0  0  0  0  0  0  0  0  0  0
    6.6886   -6.6095    0.0000 O   0  0  0  0  0  0  0  0  0  0  0  0
    6.7719  -10.6701    0.0000 C   0  0  0  0  0  0  0  0  0  0  0  0
    2.4531   -3.2693    0.0000 C   0  0  0  0  0  0  0  0  0  0  0  0
    3.1403   -4.5104    0.0000 C   0  0  2  0  0  0  0  0  0  0  0  0
    7.4383   -5.3975    0.0000 C   0  0  0  0  0  0  0  0  0  0  0  0
    6.7177   -4.1439    0.0000 O   0  0  0  0  0  0  0  0  0  0  0  0
    8.1505   -3.3735    0.0000 C   0  0  1  0  0  0  0  0  0  0  0  0
    6.6886   -5.7848    0.0000 C   0  0  2  0  0  0  0  0  0  0  0  0
    3.8774   -4.0939    0.0000 C   0  0  0  0  0  0  0  0  0  0  0  0
    4.5896   -4.5104    0.0000 C   0  0  0  0  0  0  0  0  0  0  0  0
    4.0314   -8.6418    0.0000 C   0  0  0  0  0  0  0  0  0  0  0  0
    0.3331   -2.0033    0.0000 C   0  0  0  0  0  0  0  0  0  0  0  0
    6.8469  -13.1398    0.0000 C   0  0  0  0  0  0  0  0  0  0  0  0
    6.7969  -11.4947    0.0000 C   0  0  0  0  0  0  0  0  0  0  0  0
    1.7450   -2.8487    0.0000 C   0  0  0  0  0  0  0  0  0  0  0  0
    4.5146   -7.1925    0.0000 C   0  0  0  0  0  0  0  0  0  0  0  0
    5.2851   -6.5845    0.0000 O   0  0  0  0  0  0  0  0  0  0  0  0
    3.9607   -6.7886    0.0000 C   0  0  0  0  0  0  0  0  0  0  0  0
    6.0180   -5.3850    0.0000 C   0  0  0  0  0  0  0  0  0  0  0  0
    6.0180   -4.5271    0.0000 C   0  0  1  0  0  0  0  0  0  0  0  0
    3.1735   -2.8695    0.0000 O   0  0  0  0  0  0  0  0  0  0  0  0
    7.4716  -10.2370    0.0000 O   0  0  0  0  0  0  0  0  0  0  0  0
    3.1403   -5.3975    0.0000 C   0  0  2  0  0  0  0  0  0  0  0  0
    8.8085   -3.7900    0.0000 C   0  0  2  0  0  0  0  0  0  0  0  0
    3.9607   -5.9181    0.0000 C   0  0  0  0  0  0  0  0  0  0  0  0
    5.2726   -7.3758    0.0000 O   0  0  0  0  0  0  0  0  0  0  0  0
    8.1005   -4.9227    0.0000 C   0  0  0  0  0  0  0  0  0  0  0  0
    1.0537   -1.5993    0.0000 C   0  0  0  0  0  0  0  0  0  0  0  0
    6.1180  -12.7483    0.0000 C   0  0  0  0  0  0  0  0  0  0  0  0
    0.3249   -2.8320    0.0000 C   0  0  0  0  0  0  0  0  0  0  0  0
    7.5507  -12.7025    0.0000 C   0  0  0  0  0  0  0  0  0  0  0  0
    7.5215  -11.8778    0.0000 C   0  0  0  0  0  0  0  0  0  0  0  0
    1.7617   -2.0241    0.0000 C   0  0  0  0  0  0  0  0  0  0  0  0
    1.0328   -3.2527    0.0000 C   0  0  0  0  0  0  0  0  0  0  0  0
    6.0930  -11.9278    0.0000 C   0  0  0  0  0  0  0  0  0  0  0  0
   -1.0203   -1.1953    0.0000 F   0  0  0  0  0  0  0  0  0  0  0  0
   -0.4998   -0.7247    0.0000 F   0  0  0  0  0  0  0  0  0  0  0  0
   -1.1828   -1.8741    0.0000 F   0  0  0  0  0  0  0  0  0  0  0  0
    6.9010  -14.7182    0.0000 F   0  0  0  0  0  0  0  0  0  0  0  0
    6.2263  -14.5308    0.0000 F   0  0  0  0  0  0  0  0  0  0  0  0
    7.5632  -14.4891    0.0000 F   0  0  0  0  0  0  0  0  0  0  0  0
    8.8251   -4.5396    0.0000 C   0  0  0  0  0  0  0  0  0  0  0  0
    5.3101   -4.0939    0.0000 C   0  0  0  0  0  0  0  0  0  0  0  0
    7.8339   -2.6363    0.0000 C   0  0  2  0  0  0  0  0  0  0  0  0
    7.3883   -9.4956    0.0000 C   0  0  0  0  0  0  0  0  0  0  0  0
    3.8607   -3.1985    0.0000 C   0  0  0  0  0  0  0  0  0  0  0  0
    2.4406   -5.7848    0.0000 C   0  0  0  0  0  0  0  0  0  0  0  0
    9.5331   -3.4192    0.0000 C   0  0  0  0  0  0  0  0  0  0  0  0
    7.0260   -2.5155    0.0000 C   0  0  0  0  0  0  0  0  0  0  0  0
    8.4211   -1.9658    0.0000 C   0  0  0  0  0  0  0  0  0  0  0  0
    6.8718   -1.7075    0.0000 C   0  0  0  0  0  0  0  0  0  0  0  0
    8.7627   -2.8404    0.0000 H   0  0  0  0  0  0  0  0  0  0  0  0
    5.2726   -9.9746    0.0000 H   0  0  0  0  0  0  0  0  0  0  0  0
    6.7177   -7.4133    0.0000 H   0  0  0  0  0  0  0  0  0  0  0  0
    7.3549   -6.2429    0.0000 H   0  0  0  0  0  0  0  0  0  0  0  0
    6.0347   -3.5359    0.0000 H   0  0  0  0  0  0  0  0  0  0  0  0
  2  1  1  0  0  0  0
  3  2  1  0  0  0  0
  4  1  1  0  0  0  0
  5  1  1  0  0  0  0
  6 20  1  0  0  0  0
  7  8  1  0  0  0  0
  8  5  2  0  0  0  0
  9  3  1  0  0  0  0
 10  2  1  0  0  0  0
  7 11  1  1  0  0  0
 12  6  1  0  0  0  0
 13 28  1  0  0  0  0
 14 27  1  0  0  0  0
 19 15  1  6  0  0  0
 16  4  1  0  0  0  0
 17 11  1  0  0  0  0
 18 15  1  0  0  0  0
 19 38  1  0  0  0  0
 20 23  1  0  0  0  0
 21 35  1  0  0  0  0
 22 12  1  0  0  0  0
 23 16  1  0  0  0  0
 24 25  2  0  0  0  0
 25 58  1  0  0  0  0
 26 10  1  0  0  0  0
 27 45  1  0  0  0  0
 28 46  1  0  0  0  0
 29 17  1  0  0  0  0
 30 18  1  0  0  0  0
 31 10  2  0  0  0  0
 32  4  2  0  0  0  0
 33 31  1  0  0  0  0
 34 23  1  0  0  0  0
 35 34  1  0  0  0  0
 36 18  2  0  0  0  0
 37 17  2  0  0  0  0
 38 40  1  0  0  0  0
 39 57  1  0  0  0  0
 40 33  2  0  0  0  0
  2 41  1  6  0  0  0
  6 42  1  1  0  0  0
 43 48  1  0  0  0  0
 44 50  1  0  0  0  0
 45 49  2  0  0  0  0
 46 47  2  0  0  0  0
 47 29  1  0  0  0  0
 48 30  2  0  0  0  0
 49 30  1  0  0  0  0
 50 29  2  0  0  0  0
 51 14  1  0  0  0  0
 52 14  1  0  0  0  0
 53 14  1  0  0  0  0
 54 13  1  0  0  0  0
 55 13  1  0  0  0  0
 56 13  1  0  0  0  0
 57 42  1  0  0  0  0
 58 35  1  0  0  0  0
 59 22  1  0  0  0  0
 60  8  1  0  0  0  0
 61 24  1  0  0  0  0
 38 62  1  6  0  0  0
 39 63  1  1  0  0  0
 64 59  1  0  0  0  0
 59 65  1  6  0  0  0
 66 64  1  0  0  0  0
 22 67  1  1  0  0  0
  3 68  1  6  0  0  0
  1 69  1  1  0  0  0
 23 70  1  6  0  0  0
 35 71  1  6  0  0  0
  7  3  1  0  0  0  0
 26  9  1  0  0  0  0
 21  6  1  0  0  0  0
 28 44  2  0  0  0  0
 24 19  1  0  0  0  0
 39 22  1  0  0  0  0
 27 43  2  0  0  0  0
M  END
>  <IDNUMBER>
F3409-0794

>  <Chemical_Name>
(1'R,2R,4'S,5S,6R,8'R,10'E,12'S,13'S,14'E,16'E,20'R,21'R,24'S)-6-[(2S)-butan-2-yl]-24'-hydroxy-5,11',13',22'-tetramethyl-2'-oxo-21'-[4-(trifluoromethyl)benzoyloxy]-3',7',19'-trioxaspiro[oxane-2,6'-tetracyclo[15.6.1.1?,?.0??,??]pentacosane]-10',14',16',22'-tetraen-12'-yl 4-(trifluoromethyl)benzoate

>  <PriceCoeff>
7.00

>  <MW>
930.98

>  <Description>
solid

>  <FSP3>
0.54

>  <clogP>
11.73

>  <TPSA>
126.82

>  <Acceptor>
10

>  <Donor>
1

>  <RotBonds>
8

>  <HAC>
66

$$$$
F3409-0795
  Mrv2219 10102508112D          

 54 59  0  0  0  0            999 V2000
    6.1697   -6.2739    0.0000 C   0  0  2  0  0  0  0  0  0  0  0  0
    5.4365   -6.7238    0.0000 C   0  0  1  0  0  0  0  0  0  0  0  0
    5.4365   -7.5320    0.0000 C   0  0  1  0  0  0  0  0  0  0  0  0
    6.1614   -5.4490    0.0000 C   0  0  0  0  0  0  0  0  0  0  0  0
    6.8405   -6.6738    0.0000 C   0  0  0  0  0  0  0  0  0  0  0  0
    7.5903   -3.0120    0.0000 C   0  0  2  0  0  0  0  0  0  0  0  0
    6.1697   -7.9236    0.0000 C   0  0  1  0  0  0  0  0  0  0  0  0
    6.8405   -7.5320    0.0000 C   0  0  0  0  0  0  0  0  0  0  0  0
    4.6659   -7.8028    0.0000 O   0  0  0  0  0  0  0  0  0  0  0  0
    4.6659   -6.4905    0.0000 C   0  0  0  0  0  0  0  0  0  0  0  0
    6.1947   -8.7359    0.0000 O   0  0  0  0  0  0  0  0  0  0  0  0
    6.9238   -9.1234    0.0000 C   0  0  0  0  0  0  0  0  0  0  0  0
    7.5903   -2.1788    0.0000 O   0  0  0  0  0  0  0  0  0  0  0  0
    6.8405   -5.0616    0.0000 O   0  0  0  0  0  0  0  0  0  0  0  0
    6.9488   -9.9482    0.0000 C   0  0  0  0  0  0  0  0  0  0  0  0
    7.5903   -3.8493    0.0000 C   0  0  0  0  0  0  0  0  0  0  0  0
    6.8696   -2.5953    0.0000 O   0  0  0  0  0  0  0  0  0  0  0  0
    8.3027   -1.8247    0.0000 C   0  0  1  0  0  0  0  0  0  0  0  0
    6.8405   -4.2367    0.0000 C   0  0  2  0  0  0  0  0  0  0  0  0
    4.0285   -2.5453    0.0000 C   0  0  0  0  0  0  0  0  0  0  0  0
    4.7409   -2.9620    0.0000 C   0  0  0  0  0  0  0  0  0  0  0  0
    4.1826   -7.0945    0.0000 C   0  0  0  0  0  0  0  0  0  0  0  0
    3.2911   -2.9620    0.0000 C   0  0  2  0  0  0  0  0  0  0  0  0
    7.6319  -10.4148    0.0000 O   0  0  0  0  0  0  0  0  0  0  0  0
    4.6659   -5.6448    0.0000 C   0  0  0  0  0  0  0  0  0  0  0  0
    5.4365   -5.0366    0.0000 O   0  0  0  0  0  0  0  0  0  0  0  0
    4.1118   -5.2408    0.0000 C   0  0  0  0  0  0  0  0  0  0  0  0
    6.1697   -3.8368    0.0000 C   0  0  0  0  0  0  0  0  0  0  0  0
    6.1697   -2.9787    0.0000 C   0  0  1  0  0  0  0  0  0  0  0  0
    7.6236   -8.6901    0.0000 O   0  0  0  0  0  0  0  0  0  0  0  0
    6.2989  -10.4564    0.0000 C   0  0  0  0  0  0  0  0  0  0  0  0
    8.9609   -2.2413    0.0000 C   0  0  2  0  0  0  0  0  0  0  0  0
    7.4029  -11.2105    0.0000 C   0  0  0  0  0  0  0  0  0  0  0  0
    4.1118   -4.3700    0.0000 C   0  0  0  0  0  0  0  0  0  0  0  0
    5.4240   -5.8282    0.0000 O   0  0  0  0  0  0  0  0  0  0  0  0
    8.2527   -3.3744    0.0000 C   0  0  0  0  0  0  0  0  0  0  0  0
    3.2911   -3.8493    0.0000 C   0  0  2  0  0  0  0  0  0  0  0  0
    6.5780  -11.2355    0.0000 C   0  0  0  0  0  0  0  0  0  0  0  0
    8.9776   -2.9912    0.0000 C   0  0  0  0  0  0  0  0  0  0  0  0
    5.4615   -2.5453    0.0000 C   0  0  0  0  0  0  0  0  0  0  0  0
    7.9861   -1.0873    0.0000 C   0  0  2  0  0  0  0  0  0  0  0  0
    2.5912   -2.5453    0.0000 O   0  0  0  0  0  0  0  0  0  0  0  0
    7.5403   -7.9486    0.0000 C   0  0  0  0  0  0  0  0  0  0  0  0
    4.0118   -1.6497    0.0000 C   0  0  0  0  0  0  0  0  0  0  0  0
    9.6858   -1.8705    0.0000 C   0  0  0  0  0  0  0  0  0  0  0  0
    2.5912   -4.2367    0.0000 C   0  0  0  0  0  0  0  0  0  0  0  0
    7.1779   -0.9665    0.0000 C   0  0  0  0  0  0  0  0  0  0  0  0
    8.5735   -0.4166    0.0000 C   0  0  0  0  0  0  0  0  0  0  0  0
    7.0237   -0.1583    0.0000 C   0  0  0  0  0  0  0  0  0  0  0  0
    7.5070   -4.6950    0.0000 H   0  0  0  0  0  0  0  0  0  0  0  0
    6.1864   -1.9871    0.0000 H   0  0  0  0  0  0  0  0  0  0  0  0
    8.9151   -1.2915    0.0000 H   0  0  0  0  0  0  0  0  0  0  0  0
    5.4240   -8.4277    0.0000 H   0  0  0  0  0  0  0  0  0  0  0  0
    6.8696   -5.8656    0.0000 H   0  0  0  0  0  0  0  0  0  0  0  0
  2  1  1  0  0  0  0
  3  2  1  0  0  0  0
  4  1  1  0  0  0  0
  5  1  1  0  0  0  0
  6 16  1  0  0  0  0
  7  3  1  0  0  0  0
  8  5  2  0  0  0  0
  9  3  1  0  0  0  0
 10  2  1  0  0  0  0
  7 11  1  1  0  0  0
 12 11  1  0  0  0  0
 13  6  1  0  0  0  0
 14  4  1  0  0  0  0
 15 12  1  0  0  0  0
 16 19  1  0  0  0  0
 17 29  1  0  0  0  0
 18 13  1  0  0  0  0
 19 14  1  0  0  0  0
 20 23  1  0  0  0  0
 21 40  1  0  0  0  0
 22 10  1  0  0  0  0
 23 37  1  0  0  0  0
 24 15  1  0  0  0  0
 25 10  2  0  0  0  0
 26  4  2  0  0  0  0
 27 25  1  0  0  0  0
 28 19  1  0  0  0  0
 29 28  1  0  0  0  0
 30 12  2  0  0  0  0
 31 15  2  0  0  0  0
 32 39  1  0  0  0  0
 33 24  1  0  0  0  0
 34 27  2  0  0  0  0
  2 35  1  6  0  0  0
  6 36  1  1  0  0  0
 37 34  1  0  0  0  0
 38 31  1  0  0  0  0
 39 36  1  0  0  0  0
 40 29  1  0  0  0  0
 41 18  1  0  0  0  0
 23 42  1  6  0  0  0
 43  8  1  0  0  0  0
 44 20  1  0  0  0  0
 32 45  1  1  0  0  0
 37 46  1  6  0  0  0
 47 41  1  0  0  0  0
 41 48  1  6  0  0  0
 49 47  1  0  0  0  0
 19 50  1  6  0  0  0
 29 51  1  6  0  0  0
 18 52  1  1  0  0  0
  3 53  1  6  0  0  0
  1 54  1  1  0  0  0
  8  7  1  0  0  0  0
 22  9  1  0  0  0  0
 17  6  1  0  0  0  0
 21 20  2  0  0  0  0
 33 38  2  0  0  0  0
 32 18  1  0  0  0  0
M  END
>  <IDNUMBER>
F3409-0795

>  <Chemical_Name>
(1'R,2R,4'S,5S,6R,8'R,10'E,12'S,13'S,14'E,16'E,20'R,21'R,24'S)-6-[(2S)-butan-2-yl]-12',24'-dihydroxy-5,11',13',22'-tetramethyl-2'-oxo-3',7',19'-trioxaspiro[oxane-2,6'-tetracyclo[15.6.1.1?,?.0??,??]pentacosane]-10',14',16',22'-tetraen-21'-yl furan-2-carboxylate

>  <PriceCoeff>
7.00

>  <MW>
680.84

>  <Description>
solid

>  <FSP3>
0.64

>  <clogP>
6.27

>  <TPSA>
133.89

>  <Acceptor>
10

>  <Donor>
2

>  <RotBonds>
5

>  <HAC>
49

$$$$
F3409-0796
  Mrv2219 10102508112D          

 61 67  0  0  0  0            999 V2000
    7.0859   -2.8694    0.0000 C   0  0  2  0  0  0  0  0  0  0  0  0
    6.3477   -3.3198    0.0000 C   0  0  1  0  0  0  0  0  0  0  0  0
    6.3477   -4.1331    0.0000 C   0  0  1  0  0  0  0  0  0  0  0  0
    7.0734   -2.0436    0.0000 C   0  0  0  0  0  0  0  0  0  0  0  0
    7.7573   -3.2698    0.0000 C   0  0  0  0  0  0  0  0  0  0  0  0
    8.5081    0.3962    0.0000 C   0  0  2  0  0  0  0  0  0  0  0  0
    7.0859   -4.5210    0.0000 C   0  0  1  0  0  0  0  0  0  0  0  0
    7.7573   -4.1331    0.0000 C   0  0  0  0  0  0  0  0  0  0  0  0
    5.5803   -4.4042    0.0000 O   0  0  0  0  0  0  0  0  0  0  0  0
    5.5803   -3.0904    0.0000 C   0  0  0  0  0  0  0  0  0  0  0  0
    7.1109   -5.3342    0.0000 O   0  0  0  0  0  0  0  0  0  0  0  0
    7.8366   -5.7221    0.0000 C   0  0  0  0  0  0  0  0  0  0  0  0
    2.7818    0.4587    0.0000 C   0  0  0  0  0  0  0  0  0  0  0  0
    8.5081    1.2262    0.0000 O   0  0  0  0  0  0  0  0  0  0  0  0
    3.5033    0.8591    0.0000 O   0  0  0  0  0  0  0  0  0  0  0  0
    7.7573   -1.6558    0.0000 O   0  0  0  0  0  0  0  0  0  0  0  0
    4.2040    0.4462    0.0000 C   0  0  2  0  0  0  0  0  0  0  0  0
    7.8616   -6.5479    0.0000 C   0  0  0  0  0  0  0  0  0  0  0  0
    2.0728    0.8800    0.0000 C   0  0  0  0  0  0  0  0  0  0  0  0
    8.5081   -0.4421    0.0000 C   0  0  0  0  0  0  0  0  0  0  0  0
    7.7866    0.8091    0.0000 O   0  0  0  0  0  0  0  0  0  0  0  0
    9.2212    1.5848    0.0000 C   0  0  1  0  0  0  0  0  0  0  0  0
    7.7573   -0.8300    0.0000 C   0  0  2  0  0  0  0  0  0  0  0  0
    4.9422    0.8591    0.0000 C   0  0  0  0  0  0  0  0  0  0  0  0
    5.6554    0.4462    0.0000 C   0  0  0  0  0  0  0  0  0  0  0  0
    5.0965   -3.6952    0.0000 C   0  0  0  0  0  0  0  0  0  0  0  0
    7.2110   -7.0609    0.0000 O   0  0  0  0  0  0  0  0  0  0  0  0
    1.3137    0.5547    0.0000 O   0  0  0  0  0  0  0  0  0  0  0  0
    5.5803   -2.2438    0.0000 C   0  0  0  0  0  0  0  0  0  0  0  0
    6.3477   -1.6307    0.0000 O   0  0  0  0  0  0  0  0  0  0  0  0
    5.0215   -1.8392    0.0000 C   0  0  0  0  0  0  0  0  0  0  0  0
    7.0859   -0.4296    0.0000 C   0  0  0  0  0  0  0  0  0  0  0  0
    7.0859    0.4254    0.0000 C   0  0  1  0  0  0  0  0  0  0  0  0
    2.7693   -0.3670    0.0000 O   0  0  0  0  0  0  0  0  0  0  0  0
    8.5373   -5.2925    0.0000 O   0  0  0  0  0  0  0  0  0  0  0  0
    1.9977    1.7016    0.0000 C   0  0  0  0  0  0  0  0  0  0  0  0
    8.5498   -7.0191    0.0000 C   0  0  0  0  0  0  0  0  0  0  0  0
    4.2040   -0.4421    0.0000 C   0  0  2  0  0  0  0  0  0  0  0  0
    9.8760    1.1636    0.0000 C   0  0  2  0  0  0  0  0  0  0  0  0
    0.7715    1.1761    0.0000 C   0  0  0  0  0  0  0  0  0  0  0  0
    7.4946   -7.8366    0.0000 C   0  0  0  0  0  0  0  0  0  0  0  0
    5.0215   -0.9676    0.0000 C   0  0  0  0  0  0  0  0  0  0  0  0
    6.3352   -2.4273    0.0000 O   0  0  0  0  0  0  0  0  0  0  0  0
    9.1712    0.0333    0.0000 C   0  0  0  0  0  0  0  0  0  0  0  0
    8.3204   -7.8116    0.0000 C   0  0  0  0  0  0  0  0  0  0  0  0
    1.1928    1.8851    0.0000 C   0  0  0  0  0  0  0  0  0  0  0  0
    9.8969    0.4129    0.0000 C   0  0  0  0  0  0  0  0  0  0  0  0
    6.3727    0.8591    0.0000 C   0  0  0  0  0  0  0  0  0  0  0  0
    8.9001    2.3230    0.0000 C   0  0  2  0  0  0  0  0  0  0  0  0
    8.4580   -4.5460    0.0000 C   0  0  0  0  0  0  0  0  0  0  0  0
    4.9214    1.7600    0.0000 C   0  0  0  0  0  0  0  0  0  0  0  0
    3.5033   -0.8300    0.0000 C   0  0  0  0  0  0  0  0  0  0  0  0
   10.6017    1.5348    0.0000 C   0  0  0  0  0  0  0  0  0  0  0  0
    8.0952    2.4398    0.0000 C   0  0  0  0  0  0  0  0  0  0  0  0
    9.4882    2.9903    0.0000 C   0  0  0  0  0  0  0  0  0  0  0  0
    7.9367    3.2489    0.0000 C   0  0  0  0  0  0  0  0  0  0  0  0
    9.8343    2.1145    0.0000 H   0  0  0  0  0  0  0  0  0  0  0  0
    6.3352   -5.0298    0.0000 H   0  0  0  0  0  0  0  0  0  0  0  0
    7.7866   -2.4648    0.0000 H   0  0  0  0  0  0  0  0  0  0  0  0
    8.4247   -1.2929    0.0000 H   0  0  0  0  0  0  0  0  0  0  0  0
    7.0984    1.4221    0.0000 H   0  0  0  0  0  0  0  0  0  0  0  0
  2  1  1  0  0  0  0
  3  2  1  0  0  0  0
  4  1  1  0  0  0  0
  5  1  1  0  0  0  0
  6 20  1  0  0  0  0
  7  8  1  0  0  0  0
  8  5  2  0  0  0  0
  9  3  1  0  0  0  0
 10  2  1  0  0  0  0
  7 11  1  1  0  0  0
 12 11  1  0  0  0  0
 13 15  1  0  0  0  0
 14  6  1  0  0  0  0
 17 15  1  6  0  0  0
 16  4  1  0  0  0  0
 17 38  1  0  0  0  0
 18 12  1  0  0  0  0
 19 13  1  0  0  0  0
 20 23  1  0  0  0  0
 21 33  1  0  0  0  0
 22 14  1  0  0  0  0
 23 16  1  0  0  0  0
 24 25  2  0  0  0  0
 25 48  1  0  0  0  0
 26 10  1  0  0  0  0
 27 18  1  0  0  0  0
 28 19  1  0  0  0  0
 29 10  2  0  0  0  0
 30  4  2  0  0  0  0
 31 29  1  0  0  0  0
 32 23  1  0  0  0  0
 33 32  1  0  0  0  0
 34 13  2  0  0  0  0
 35 12  2  0  0  0  0
 36 19  2  0  0  0  0
 37 18  2  0  0  0  0
 38 42  1  0  0  0  0
 39 47  1  0  0  0  0
 40 28  1  0  0  0  0
 41 27  1  0  0  0  0
 42 31  2  0  0  0  0
  2 43  1  6  0  0  0
  6 44  1  1  0  0  0
 45 37  1  0  0  0  0
 46 36  1  0  0  0  0
 47 44  1  0  0  0  0
 48 33  1  0  0  0  0
 49 22  1  0  0  0  0
 50  8  1  0  0  0  0
 51 24  1  0  0  0  0
 38 52  1  6  0  0  0
 39 53  1  1  0  0  0
 54 49  1  0  0  0  0
 49 55  1  6  0  0  0
 56 54  1  0  0  0  0
 22 57  1  1  0  0  0
  3 58  1  6  0  0  0
  1 59  1  1  0  0  0
 23 60  1  6  0  0  0
 33 61  1  6  0  0  0
  3  7  1  0  0  0  0
  9 26  1  0  0  0  0
  6 21  1  0  0  0  0
 41 45  2  0  0  0  0
 17 24  1  0  0  0  0
 22 39  1  0  0  0  0
 40 46  2  0  0  0  0
M  END
>  <IDNUMBER>
F3409-0796

>  <Chemical_Name>
(1'R,2R,4'S,5S,6R,8'R,10'E,12'S,13'S,14'E,16'E,20'R,21'R,24'S)-6-[(2S)-butan-2-yl]-12'-(furan-2-carbonyloxy)-24'-hydroxy-5,11',13',22'-tetramethyl-2'-oxo-3',7',19'-trioxaspiro[oxane-2,6'-tetracyclo[15.6.1.1?,?.0??,??]pentacosane]-10',14',16',22'-tetraen-21'-yl furan-2-carboxylate

>  <PriceCoeff>
7.00

>  <MW>
774.90

>  <Description>
solid

>  <FSP3>
0.57

>  <clogP>
8.32

>  <TPSA>
153.10

>  <Acceptor>
12

>  <Donor>
1

>  <RotBonds>
8

>  <HAC>
56

$$$$
F3409-0797
  Mrv2219 10102508112D          

 65 71  0  0  0  0            999 V2000
    4.1037   -3.8870    0.0000 C   0  0  2  0  0  0  0  0  0  0  0  0
    3.3704   -4.3369    0.0000 C   0  0  1  0  0  0  0  0  0  0  0  0
    3.3704   -5.1451    0.0000 C   0  0  1  0  0  0  0  0  0  0  0  0
    4.0953   -3.0621    0.0000 C   0  0  0  0  0  0  0  0  0  0  0  0
    4.7744   -4.2870    0.0000 C   0  0  0  0  0  0  0  0  0  0  0  0
    5.5243   -0.6249    0.0000 C   0  0  2  0  0  0  0  0  0  0  0  0
    4.1037   -5.5368    0.0000 C   0  0  1  0  0  0  0  0  0  0  0  0
    4.7744   -5.1451    0.0000 C   0  0  0  0  0  0  0  0  0  0  0  0
    2.5997   -5.4160    0.0000 O   0  0  0  0  0  0  0  0  0  0  0  0
    2.5997   -4.1037    0.0000 C   0  0  0  0  0  0  0  0  0  0  0  0
    4.1287   -6.3492    0.0000 O   0  0  0  0  0  0  0  0  0  0  0  0
    5.5243    0.2083    0.0000 O   0  0  0  0  0  0  0  0  0  0  0  0
    0.5291   -0.1583    0.0000 O   0  0  0  0  0  0  0  0  0  0  0  0
    4.7744   -2.6747    0.0000 O   0  0  0  0  0  0  0  0  0  0  0  0
    4.8577   -6.7366    0.0000 C   0  0  0  0  0  0  0  0  0  0  0  0
    0.5374    0.6666    0.0000 C   0  0  0  0  0  0  0  0  0  0  0  0
    1.2248   -0.5749    0.0000 C   0  0  2  0  0  0  0  0  0  0  0  0
    5.5243   -1.4623    0.0000 C   0  0  0  0  0  0  0  0  0  0  0  0
    4.8036   -0.2083    0.0000 O   0  0  0  0  0  0  0  0  0  0  0  0
    6.2367    0.5624    0.0000 C   0  0  1  0  0  0  0  0  0  0  0  0
    4.7744   -1.8498    0.0000 C   0  0  2  0  0  0  0  0  0  0  0  0
    1.9623   -0.1583    0.0000 C   0  0  0  0  0  0  0  0  0  0  0  0
    2.6747   -0.5749    0.0000 C   0  0  0  0  0  0  0  0  0  0  0  0
    2.1164   -4.7077    0.0000 C   0  0  0  0  0  0  0  0  0  0  0  0
    4.8827   -7.5615    0.0000 C   0  0  0  0  0  0  0  0  0  0  0  0
   -0.1708    1.0874    0.0000 C   0  0  0  0  0  0  0  0  0  0  0  0
    2.5997   -3.2579    0.0000 C   0  0  0  0  0  0  0  0  0  0  0  0
    3.3704   -2.6497    0.0000 O   0  0  0  0  0  0  0  0  0  0  0  0
    2.0455   -2.8538    0.0000 C   0  0  0  0  0  0  0  0  0  0  0  0
    4.1037   -1.4498    0.0000 C   0  0  0  0  0  0  0  0  0  0  0  0
    4.1037   -0.5916    0.0000 C   0  0  1  0  0  0  0  0  0  0  0  0
    5.5576   -6.3034    0.0000 O   0  0  0  0  0  0  0  0  0  0  0  0
    1.2581    1.0666    0.0000 O   0  0  0  0  0  0  0  0  0  0  0  0
    1.2248   -1.4623    0.0000 C   0  0  2  0  0  0  0  0  0  0  0  0
    6.8949    0.1458    0.0000 C   0  0  2  0  0  0  0  0  0  0  0  0
    2.0455   -1.9830    0.0000 C   0  0  0  0  0  0  0  0  0  0  0  0
    3.3579   -3.4413    0.0000 O   0  0  0  0  0  0  0  0  0  0  0  0
    6.1867   -0.9874    0.0000 C   0  0  0  0  0  0  0  0  0  0  0  0
    5.6076   -7.9448    0.0000 C   0  0  0  0  0  0  0  0  0  0  0  0
    4.1787   -7.9948    0.0000 C   0  0  0  0  0  0  0  0  0  0  0  0
   -0.1542    1.9123    0.0000 C   0  0  0  0  0  0  0  0  0  0  0  0
   -0.8832    0.6832    0.0000 C   0  0  0  0  0  0  0  0  0  0  0  0
    6.9116   -0.6041    0.0000 C   0  0  0  0  0  0  0  0  0  0  0  0
    3.3913   -0.1583    0.0000 C   0  0  0  0  0  0  0  0  0  0  0  0
    5.9200    1.2998    0.0000 C   0  0  2  0  0  0  0  0  0  0  0  0
    4.9327   -9.2071    0.0000 C   0  0  0  0  0  0  0  0  0  0  0  0
    4.2037   -8.8156    0.0000 C   0  0  0  0  0  0  0  0  0  0  0  0
    5.6368   -8.7697    0.0000 C   0  0  0  0  0  0  0  0  0  0  0  0
   -1.5915    1.1041    0.0000 C   0  0  0  0  0  0  0  0  0  0  0  0
   -0.8624    2.3372    0.0000 C   0  0  0  0  0  0  0  0  0  0  0  0
   -1.5831    1.9331    0.0000 C   0  0  0  0  0  0  0  0  0  0  0  0
    4.9577  -10.0320    0.0000 F   0  0  0  0  0  0  0  0  0  0  0  0
    5.4785   -5.5618    0.0000 C   0  0  0  0  0  0  0  0  0  0  0  0
    1.9456    0.7374    0.0000 C   0  0  0  0  0  0  0  0  0  0  0  0
    0.5291   -1.8498    0.0000 C   0  0  0  0  0  0  0  0  0  0  0  0
    7.6198    0.5166    0.0000 C   0  0  0  0  0  0  0  0  0  0  0  0
    5.1119    1.4206    0.0000 C   0  0  0  0  0  0  0  0  0  0  0  0
    6.5075    1.9705    0.0000 C   0  0  0  0  0  0  0  0  0  0  0  0
   -2.2914    2.3539    0.0000 C   0  0  0  0  0  0  0  0  0  0  0  0
    4.9577    2.2289    0.0000 C   0  0  0  0  0  0  0  0  0  0  0  0
    4.1203    0.3999    0.0000 H   0  0  0  0  0  0  0  0  0  0  0  0
    6.8491    1.0957    0.0000 H   0  0  0  0  0  0  0  0  0  0  0  0
    3.3579   -6.0409    0.0000 H   0  0  0  0  0  0  0  0  0  0  0  0
    4.8036   -3.4788    0.0000 H   0  0  0  0  0  0  0  0  0  0  0  0
    5.4410   -2.3080    0.0000 H   0  0  0  0  0  0  0  0  0  0  0  0
  2  1  1  0  0  0  0
  3  2  1  0  0  0  0
  4  1  1  0  0  0  0
  5  1  1  0  0  0  0
  6 18  1  0  0  0  0
  7  8  1  0  0  0  0
  8  5  2  0  0  0  0
  9  3  1  0  0  0  0
 10  2  1  0  0  0  0
  7 11  1  1  0  0  0
 12  6  1  0  0  0  0
 17 13  1  6  0  0  0
 14  4  1  0  0  0  0
 15 11  1  0  0  0  0
 16 13  1  0  0  0  0
 17 34  1  0  0  0  0
 18 21  1  0  0  0  0
 19 31  1  0  0  0  0
 20 12  1  0  0  0  0
 21 14  1  0  0  0  0
 22 23  2  0  0  0  0
 23 44  1  0  0  0  0
 24 10  1  0  0  0  0
 25 15  1  0  0  0  0
 26 16  1  0  0  0  0
 27 10  2  0  0  0  0
 28  4  2  0  0  0  0
 29 27  1  0  0  0  0
 30 21  1  0  0  0  0
 31 30  1  0  0  0  0
 32 15  2  0  0  0  0
 33 16  2  0  0  0  0
 34 36  1  0  0  0  0
 35 43  1  0  0  0  0
 36 29  2  0  0  0  0
  2 37  1  6  0  0  0
  6 38  1  1  0  0  0
 39 25  1  0  0  0  0
 40 25  2  0  0  0  0
 41 26  2  0  0  0  0
 42 26  1  0  0  0  0
 43 38  1  0  0  0  0
 44 31  1  0  0  0  0
 45 20  1  0  0  0  0
 46 48  1  0  0  0  0
 47 40  1  0  0  0  0
 48 39  2  0  0  0  0
 49 42  2  0  0  0  0
 50 41  1  0  0  0  0
 51 49  1  0  0  0  0
 52 46  1  0  0  0  0
 53  8  1  0  0  0  0
 54 22  1  0  0  0  0
 34 55  1  6  0  0  0
 35 56  1  1  0  0  0
 57 45  1  0  0  0  0
 45 58  1  6  0  0  0
 59 51  1  0  0  0  0
 60 57  1  0  0  0  0
 31 61  1  6  0  0  0
 20 62  1  1  0  0  0
  3 63  1  6  0  0  0
  1 64  1  1  0  0  0
 21 65  1  6  0  0  0
  7  3  1  0  0  0  0
 24  9  1  0  0  0  0
 19  6  1  0  0  0  0
 46 47  2  0  0  0  0
 22 17  1  0  0  0  0
 35 20  1  0  0  0  0
 51 50  2  0  0  0  0
M  END
>  <IDNUMBER>
F3409-0797

>  <Chemical_Name>
(1'R,2R,4'S,5S,6R,8'R,10'E,12'S,13'S,14'E,16'E,20'R,21'R,24'S)-6-[(2S)-butan-2-yl]-24'-hydroxy-5,11',13',22'-tetramethyl-12'-(4-methylbenzoyloxy)-2'-oxo-3',7',19'-trioxaspiro[oxane-2,6'-tetracyclo[15.6.1.1?,?.0??,??]pentacosane]-10',14',16',22'-tetraen-21'-yl 4-fluorobenzoate

>  <PriceCoeff>
7.00

>  <MW>
827.00

>  <Description>
solid

>  <FSP3>
0.53

>  <clogP>
10.61

>  <TPSA>
126.82

>  <Acceptor>
10

>  <Donor>
1

>  <RotBonds>
8

>  <HAC>
60

$$$$
F3409-0798
  Mrv2219 10102508112D          

 65 71  0  0  0  0            999 V2000
    7.8609   -6.8028    0.0000 C   0  0  2  0  0  0  0  0  0  0  0  0
    7.1277   -7.2527    0.0000 C   0  0  1  0  0  0  0  0  0  0  0  0
    7.1277   -8.0608    0.0000 C   0  0  1  0  0  0  0  0  0  0  0  0
    7.8526   -5.9780    0.0000 C   0  0  0  0  0  0  0  0  0  0  0  0
    8.5316   -7.2027    0.0000 C   0  0  0  0  0  0  0  0  0  0  0  0
    9.2814   -3.5410    0.0000 C   0  0  2  0  0  0  0  0  0  0  0  0
    7.8609   -8.4525    0.0000 C   0  0  1  0  0  0  0  0  0  0  0  0
    8.5316   -8.0608    0.0000 C   0  0  0  0  0  0  0  0  0  0  0  0
    6.3570   -8.3316    0.0000 O   0  0  0  0  0  0  0  0  0  0  0  0
    6.3570   -7.0194    0.0000 C   0  0  0  0  0  0  0  0  0  0  0  0
    7.8859   -9.2648    0.0000 O   0  0  0  0  0  0  0  0  0  0  0  0
    9.2814   -2.7119    0.0000 O   0  0  0  0  0  0  0  0  0  0  0  0
    4.2866   -3.0744    0.0000 O   0  0  0  0  0  0  0  0  0  0  0  0
    8.5316   -5.5906    0.0000 O   0  0  0  0  0  0  0  0  0  0  0  0
    8.6149   -9.6522    0.0000 C   0  0  0  0  0  0  0  0  0  0  0  0
    4.2949   -2.2495    0.0000 C   0  0  0  0  0  0  0  0  0  0  0  0
    4.9823   -3.4910    0.0000 C   0  0  2  0  0  0  0  0  0  0  0  0
    9.2814   -4.3783    0.0000 C   0  0  0  0  0  0  0  0  0  0  0  0
    8.5607   -3.1244    0.0000 O   0  0  0  0  0  0  0  0  0  0  0  0
    9.9938   -2.3537    0.0000 C   0  0  1  0  0  0  0  0  0  0  0  0
    8.5316   -4.7657    0.0000 C   0  0  2  0  0  0  0  0  0  0  0  0
    5.7155   -3.0744    0.0000 C   0  0  0  0  0  0  0  0  0  0  0  0
    6.4320   -3.4910    0.0000 C   0  0  0  0  0  0  0  0  0  0  0  0
    5.8738   -7.6234    0.0000 C   0  0  0  0  0  0  0  0  0  0  0  0
    8.6399  -10.4771    0.0000 C   0  0  0  0  0  0  0  0  0  0  0  0
    3.5868   -1.8288    0.0000 C   0  0  0  0  0  0  0  0  0  0  0  0
    6.3570   -6.1737    0.0000 C   0  0  0  0  0  0  0  0  0  0  0  0
    7.1277   -5.5656    0.0000 O   0  0  0  0  0  0  0  0  0  0  0  0
    5.8030   -5.7696    0.0000 C   0  0  0  0  0  0  0  0  0  0  0  0
    7.8609   -4.3658    0.0000 C   0  0  0  0  0  0  0  0  0  0  0  0
    7.8609   -3.5076    0.0000 C   0  0  1  0  0  0  0  0  0  0  0  0
    9.3148   -9.2189    0.0000 O   0  0  0  0  0  0  0  0  0  0  0  0
    5.0157   -1.8496    0.0000 O   0  0  0  0  0  0  0  0  0  0  0  0
    4.9823   -4.3783    0.0000 C   0  0  2  0  0  0  0  0  0  0  0  0
   10.6520   -2.7702    0.0000 C   0  0  2  0  0  0  0  0  0  0  0  0
    5.8030   -4.8990    0.0000 C   0  0  0  0  0  0  0  0  0  0  0  0
    7.1152   -6.3570    0.0000 O   0  0  0  0  0  0  0  0  0  0  0  0
    9.9438   -3.9034    0.0000 C   0  0  0  0  0  0  0  0  0  0  0  0
    9.3648  -10.8603    0.0000 C   0  0  0  0  0  0  0  0  0  0  0  0
    7.9359  -10.9103    0.0000 C   0  0  0  0  0  0  0  0  0  0  0  0
    3.6035   -1.0040    0.0000 C   0  0  0  0  0  0  0  0  0  0  0  0
    2.8744   -2.2328    0.0000 C   0  0  0  0  0  0  0  0  0  0  0  0
   10.6645   -3.5201    0.0000 C   0  0  0  0  0  0  0  0  0  0  0  0
    7.1485   -3.0744    0.0000 C   0  0  0  0  0  0  0  0  0  0  0  0
    9.6772   -1.6164    0.0000 C   0  0  2  0  0  0  0  0  0  0  0  0
    2.1746   -0.9831    0.0000 C   0  0  0  0  0  0  0  0  0  0  0  0
    2.1663   -1.8121    0.0000 C   0  0  0  0  0  0  0  0  0  0  0  0
    2.8952   -0.5791    0.0000 C   0  0  0  0  0  0  0  0  0  0  0  0
    9.3939  -11.6851    0.0000 C   0  0  0  0  0  0  0  0  0  0  0  0
    7.9609  -11.7309    0.0000 C   0  0  0  0  0  0  0  0  0  0  0  0
    8.6899  -12.1225    0.0000 C   0  0  0  0  0  0  0  0  0  0  0  0
    1.4664   -0.5624    0.0000 Cl  0  0  0  0  0  0  0  0  0  0  0  0
    9.2356   -8.4775    0.0000 C   0  0  0  0  0  0  0  0  0  0  0  0
    5.7030   -2.1788    0.0000 C   0  0  0  0  0  0  0  0  0  0  0  0
    4.2866   -4.7657    0.0000 C   0  0  0  0  0  0  0  0  0  0  0  0
   11.3769   -2.3995    0.0000 C   0  0  0  0  0  0  0  0  0  0  0  0
    8.8690   -1.4955    0.0000 C   0  0  0  0  0  0  0  0  0  0  0  0
   10.2646   -0.9456    0.0000 C   0  0  0  0  0  0  0  0  0  0  0  0
    8.7149  -12.9473    0.0000 C   0  0  0  0  0  0  0  0  0  0  0  0
    8.7149   -0.6874    0.0000 C   0  0  0  0  0  0  0  0  0  0  0  0
    7.8776   -2.5162    0.0000 H   0  0  0  0  0  0  0  0  0  0  0  0
   10.6061   -1.8204    0.0000 H   0  0  0  0  0  0  0  0  0  0  0  0
    7.1152   -8.9565    0.0000 H   0  0  0  0  0  0  0  0  0  0  0  0
    8.5607   -6.3945    0.0000 H   0  0  0  0  0  0  0  0  0  0  0  0
    9.1981   -5.2239    0.0000 H   0  0  0  0  0  0  0  0  0  0  0  0
  2  1  1  0  0  0  0
  3  2  1  0  0  0  0
  4  1  1  0  0  0  0
  5  1  1  0  0  0  0
  6 18  1  0  0  0  0
  7  8  1  0  0  0  0
  8  5  2  0  0  0  0
  9  3  1  0  0  0  0
 10  2  1  0  0  0  0
  7 11  1  1  0  0  0
 12  6  1  0  0  0  0
 17 13  1  6  0  0  0
 14  4  1  0  0  0  0
 15 11  1  0  0  0  0
 16 13  1  0  0  0  0
 17 34  1  0  0  0  0
 18 21  1  0  0  0  0
 19 31  1  0  0  0  0
 20 12  1  0  0  0  0
 21 14  1  0  0  0  0
 22 23  2  0  0  0  0
 23 44  1  0  0  0  0
 24 10  1  0  0  0  0
 25 15  1  0  0  0  0
 26 16  1  0  0  0  0
 27 10  2  0  0  0  0
 28  4  2  0  0  0  0
 29 27  1  0  0  0  0
 30 21  1  0  0  0  0
 31 30  1  0  0  0  0
 32 15  2  0  0  0  0
 33 16  2  0  0  0  0
 34 36  1  0  0  0  0
 35 43  1  0  0  0  0
 36 29  2  0  0  0  0
  2 37  1  6  0  0  0
  6 38  1  1  0  0  0
 39 25  1  0  0  0  0
 40 25  2  0  0  0  0
 41 26  2  0  0  0  0
 42 26  1  0  0  0  0
 43 38  1  0  0  0  0
 44 31  1  0  0  0  0
 45 20  1  0  0  0  0
 46 47  1  0  0  0  0
 47 42  2  0  0  0  0
 48 41  1  0  0  0  0
 49 39  2  0  0  0  0
 50 40  1  0  0  0  0
 51 49  1  0  0  0  0
 52 46  1  0  0  0  0
 53  8  1  0  0  0  0
 54 22  1  0  0  0  0
 34 55  1  6  0  0  0
 35 56  1  1  0  0  0
 57 45  1  0  0  0  0
 45 58  1  6  0  0  0
 59 51  1  0  0  0  0
 60 57  1  0  0  0  0
 31 61  1  6  0  0  0
 20 62  1  1  0  0  0
  3 63  1  6  0  0  0
  1 64  1  1  0  0  0
 21 65  1  6  0  0  0
  7  3  1  0  0  0  0
 24  9  1  0  0  0  0
 19  6  1  0  0  0  0
 22 17  1  0  0  0  0
 35 20  1  0  0  0  0
 51 50  2  0  0  0  0
 46 48  2  0  0  0  0
M  END
>  <IDNUMBER>
F3409-0798

>  <Chemical_Name>
(1'R,2R,4'S,5S,6R,8'R,10'E,12'S,13'S,14'E,16'E,20'R,21'R,24'S)-6-[(2S)-butan-2-yl]-12'-(4-chlorobenzoyloxy)-24'-hydroxy-5,11',13',22'-tetramethyl-2'-oxo-3',7',19'-trioxaspiro[oxane-2,6'-tetracyclo[15.6.1.1?,?.0??,??]pentacosane]-10',14',16',22'-tetraen-21'-yl 4-methylbenzoate

>  <PriceCoeff>
7.00

>  <MW>
843.45

>  <Description>
solid

>  <FSP3>
0.53

>  <clogP>
11.18

>  <TPSA>
126.82

>  <Acceptor>
10

>  <Donor>
1

>  <RotBonds>
8

>  <HAC>
60

$$$$
F3409-0799
  Mrv2219 10102508112D          

 65 71  0  0  0  0            999 V2000
    5.0740   -6.7361    0.0000 C   0  0  2  0  0  0  0  0  0  0  0  0
    4.3408   -7.1860    0.0000 C   0  0  1  0  0  0  0  0  0  0  0  0
    4.3408   -7.9942    0.0000 C   0  0  1  0  0  0  0  0  0  0  0  0
    5.0657   -5.9113    0.0000 C   0  0  0  0  0  0  0  0  0  0  0  0
    5.7446   -7.1360    0.0000 C   0  0  0  0  0  0  0  0  0  0  0  0
    6.4945   -3.4743    0.0000 C   0  0  2  0  0  0  0  0  0  0  0  0
    5.0740   -8.3858    0.0000 C   0  0  1  0  0  0  0  0  0  0  0  0
    5.7446   -7.9942    0.0000 C   0  0  0  0  0  0  0  0  0  0  0  0
    3.5701   -8.2650    0.0000 O   0  0  0  0  0  0  0  0  0  0  0  0
    3.5701   -6.9528    0.0000 C   0  0  0  0  0  0  0  0  0  0  0  0
    5.0990   -9.1981    0.0000 O   0  0  0  0  0  0  0  0  0  0  0  0
    6.4945   -2.6412    0.0000 O   0  0  0  0  0  0  0  0  0  0  0  0
    1.4997   -3.0077    0.0000 O   0  0  0  0  0  0  0  0  0  0  0  0
    5.7446   -5.5239    0.0000 O   0  0  0  0  0  0  0  0  0  0  0  0
    5.8280   -9.5855    0.0000 C   0  0  0  0  0  0  0  0  0  0  0  0
    1.5080   -2.1829    0.0000 C   0  0  0  0  0  0  0  0  0  0  0  0
    2.1954   -3.4243    0.0000 C   0  0  2  0  0  0  0  0  0  0  0  0
    6.4945   -4.3116    0.0000 C   0  0  0  0  0  0  0  0  0  0  0  0
    5.7738   -3.0577    0.0000 O   0  0  0  0  0  0  0  0  0  0  0  0
    7.2068   -2.2870    0.0000 C   0  0  1  0  0  0  0  0  0  0  0  0
    5.7446   -4.6990    0.0000 C   0  0  2  0  0  0  0  0  0  0  0  0
    2.9286   -3.0077    0.0000 C   0  0  0  0  0  0  0  0  0  0  0  0
    3.6451   -3.4243    0.0000 C   0  0  0  0  0  0  0  0  0  0  0  0
    3.0869   -7.5568    0.0000 C   0  0  0  0  0  0  0  0  0  0  0  0
    5.8530  -10.4104    0.0000 C   0  0  0  0  0  0  0  0  0  0  0  0
    0.7998   -1.7621    0.0000 C   0  0  0  0  0  0  0  0  0  0  0  0
    3.5701   -6.1070    0.0000 C   0  0  0  0  0  0  0  0  0  0  0  0
    4.3408   -5.4989    0.0000 O   0  0  0  0  0  0  0  0  0  0  0  0
    3.0161   -5.7030    0.0000 C   0  0  0  0  0  0  0  0  0  0  0  0
    5.0740   -4.2991    0.0000 C   0  0  0  0  0  0  0  0  0  0  0  0
    5.0740   -3.4410    0.0000 C   0  0  1  0  0  0  0  0  0  0  0  0
    6.5279   -9.1523    0.0000 O   0  0  0  0  0  0  0  0  0  0  0  0
    2.2287   -1.7829    0.0000 O   0  0  0  0  0  0  0  0  0  0  0  0
    2.1954   -4.3116    0.0000 C   0  0  2  0  0  0  0  0  0  0  0  0
    7.8651   -2.7036    0.0000 C   0  0  2  0  0  0  0  0  0  0  0  0
    3.0161   -4.8323    0.0000 C   0  0  0  0  0  0  0  0  0  0  0  0
    4.3283   -6.2904    0.0000 O   0  0  0  0  0  0  0  0  0  0  0  0
    7.1568   -3.8367    0.0000 C   0  0  0  0  0  0  0  0  0  0  0  0
    6.5779  -10.7936    0.0000 C   0  0  0  0  0  0  0  0  0  0  0  0
    5.1489  -10.8436    0.0000 C   0  0  0  0  0  0  0  0  0  0  0  0
    0.8165   -0.9373    0.0000 C   0  0  0  0  0  0  0  0  0  0  0  0
    0.0875   -2.1663    0.0000 C   0  0  0  0  0  0  0  0  0  0  0  0
    7.8776   -3.4535    0.0000 C   0  0  0  0  0  0  0  0  0  0  0  0
    4.3658   -3.0077    0.0000 C   0  0  0  0  0  0  0  0  0  0  0  0
    6.8903   -1.5497    0.0000 C   0  0  2  0  0  0  0  0  0  0  0  0
   -0.6124   -0.9165    0.0000 C   0  0  0  0  0  0  0  0  0  0  0  0
   -0.6207   -1.7454    0.0000 C   0  0  0  0  0  0  0  0  0  0  0  0
    0.1083   -0.5124    0.0000 C   0  0  0  0  0  0  0  0  0  0  0  0
    6.6069  -11.6184    0.0000 C   0  0  0  0  0  0  0  0  0  0  0  0
    5.1739  -11.6643    0.0000 C   0  0  0  0  0  0  0  0  0  0  0  0
    5.9030  -12.0558    0.0000 C   0  0  0  0  0  0  0  0  0  0  0  0
   -1.3205   -0.4957    0.0000 F   0  0  0  0  0  0  0  0  0  0  0  0
    6.4487   -8.4108    0.0000 C   0  0  0  0  0  0  0  0  0  0  0  0
    2.9161   -2.1121    0.0000 C   0  0  0  0  0  0  0  0  0  0  0  0
    1.4997   -4.6990    0.0000 C   0  0  0  0  0  0  0  0  0  0  0  0
    8.5899   -2.3328    0.0000 C   0  0  0  0  0  0  0  0  0  0  0  0
    6.0821   -1.4289    0.0000 C   0  0  0  0  0  0  0  0  0  0  0  0
    7.4777   -0.8790    0.0000 C   0  0  0  0  0  0  0  0  0  0  0  0
    5.9280  -12.8807    0.0000 C   0  0  0  0  0  0  0  0  0  0  0  0
    5.9280   -0.6207    0.0000 C   0  0  0  0  0  0  0  0  0  0  0  0
    5.0907   -2.4495    0.0000 H   0  0  0  0  0  0  0  0  0  0  0  0
    7.8192   -1.7538    0.0000 H   0  0  0  0  0  0  0  0  0  0  0  0
    4.3283   -8.8899    0.0000 H   0  0  0  0  0  0  0  0  0  0  0  0
    5.7738   -6.3279    0.0000 H   0  0  0  0  0  0  0  0  0  0  0  0
    6.4112   -5.1572    0.0000 H   0  0  0  0  0  0  0  0  0  0  0  0
  2  1  1  0  0  0  0
  3  2  1  0  0  0  0
  4  1  1  0  0  0  0
  5  1  1  0  0  0  0
  6 18  1  0  0  0  0
  7  8  1  0  0  0  0
  8  5  2  0  0  0  0
  9  3  1  0  0  0  0
 10  2  1  0  0  0  0
  7 11  1  1  0  0  0
 12  6  1  0  0  0  0
 17 13  1  6  0  0  0
 14  4  1  0  0  0  0
 15 11  1  0  0  0  0
 16 13  1  0  0  0  0
 17 34  1  0  0  0  0
 18 21  1  0  0  0  0
 19 31  1  0  0  0  0
 20 12  1  0  0  0  0
 21 14  1  0  0  0  0
 22 23  2  0  0  0  0
 23 44  1  0  0  0  0
 24 10  1  0  0  0  0
 25 15  1  0  0  0  0
 26 16  1  0  0  0  0
 27 10  2  0  0  0  0
 28  4  2  0  0  0  0
 29 27  1  0  0  0  0
 30 21  1  0  0  0  0
 31 30  1  0  0  0  0
 32 15  2  0  0  0  0
 33 16  2  0  0  0  0
 34 36  1  0  0  0  0
 35 43  1  0  0  0  0
 36 29  2  0  0  0  0
  2 37  1  6  0  0  0
  6 38  1  1  0  0  0
 39 25  1  0  0  0  0
 40 25  2  0  0  0  0
 41 26  2  0  0  0  0
 42 26  1  0  0  0  0
 43 38  1  0  0  0  0
 44 31  1  0  0  0  0
 45 20  1  0  0  0  0
 46 47  1  0  0  0  0
 47 42  2  0  0  0  0
 48 41  1  0  0  0  0
 49 39  2  0  0  0  0
 50 40  1  0  0  0  0
 51 49  1  0  0  0  0
 52 46  1  0  0  0  0
 53  8  1  0  0  0  0
 54 22  1  0  0  0  0
 34 55  1  6  0  0  0
 35 56  1  1  0  0  0
 57 45  1  0  0  0  0
 45 58  1  6  0  0  0
 59 51  1  0  0  0  0
 60 57  1  0  0  0  0
 31 61  1  6  0  0  0
 20 62  1  1  0  0  0
  3 63  1  6  0  0  0
  1 64  1  1  0  0  0
 21 65  1  6  0  0  0
  7  3  1  0  0  0  0
 24  9  1  0  0  0  0
 19  6  1  0  0  0  0
 22 17  1  0  0  0  0
 35 20  1  0  0  0  0
 51 50  2  0  0  0  0
 46 48  2  0  0  0  0
M  END
>  <IDNUMBER>
F3409-0799

>  <Chemical_Name>
(1'R,2R,4'S,5S,6R,8'R,10'E,12'S,13'S,14'E,16'E,20'R,21'R,24'S)-6-[(2S)-butan-2-yl]-12'-(4-fluorobenzoyloxy)-24'-hydroxy-5,11',13',22'-tetramethyl-2'-oxo-3',7',19'-trioxaspiro[oxane-2,6'-tetracyclo[15.6.1.1?,?.0??,??]pentacosane]-10',14',16',22'-tetraen-21'-yl 4-methylbenzoate

>  <PriceCoeff>
7.00

>  <MW>
827.00

>  <Description>
solid

>  <FSP3>
0.53

>  <clogP>
10.61

>  <TPSA>
126.82

>  <Acceptor>
10

>  <Donor>
1

>  <RotBonds>
8

>  <HAC>
60

$$$$
F3409-0800
  Mrv2219 10102508112D          

 59 65  0  0  0  0            999 V2000
    8.9694   -7.6494    0.0000 C   0  0  2  0  0  0  0  0  0  0  0  0
    8.2366   -8.0992    0.0000 C   0  0  1  0  0  0  0  0  0  0  0  0
    8.2366   -8.9070    0.0000 C   0  0  1  0  0  0  0  0  0  0  0  0
    8.9611   -6.8250    0.0000 C   0  0  0  0  0  0  0  0  0  0  0  0
    9.6398   -8.0492    0.0000 C   0  0  0  0  0  0  0  0  0  0  0  0
   10.3893   -4.3890    0.0000 C   0  0  2  0  0  0  0  0  0  0  0  0
    8.9694   -9.2984    0.0000 C   0  0  1  0  0  0  0  0  0  0  0  0
    9.6398   -8.9070    0.0000 C   0  0  0  0  0  0  0  0  0  0  0  0
    7.4662   -9.1776    0.0000 O   0  0  0  0  0  0  0  0  0  0  0  0
    7.4662   -7.8659    0.0000 C   0  0  0  0  0  0  0  0  0  0  0  0
    8.9944  -10.1104    0.0000 O   0  0  0  0  0  0  0  0  0  0  0  0
   10.3893   -3.5603    0.0000 O   0  0  0  0  0  0  0  0  0  0  0  0
    9.7232  -10.4977    0.0000 C   0  0  0  0  0  0  0  0  0  0  0  0
    9.6398   -6.4377    0.0000 O   0  0  0  0  0  0  0  0  0  0  0  0
   10.3893   -5.2260    0.0000 C   0  0  0  0  0  0  0  0  0  0  0  0
    9.6690   -3.9725    0.0000 O   0  0  0  0  0  0  0  0  0  0  0  0
   11.1014   -3.2022    0.0000 C   0  0  1  0  0  0  0  0  0  0  0  0
    9.6398   -5.6132    0.0000 C   0  0  2  0  0  0  0  0  0  0  0  0
    9.7481  -11.3222    0.0000 C   0  0  0  0  0  0  0  0  0  0  0  0
    6.8250   -3.9226    0.0000 C   0  0  0  0  0  0  0  0  0  0  0  0
    7.5411   -4.3390    0.0000 C   0  0  0  0  0  0  0  0  0  0  0  0
    6.9832   -8.4697    0.0000 C   0  0  0  0  0  0  0  0  0  0  0  0
    6.0920   -4.3390    0.0000 C   0  0  2  0  0  0  0  0  0  0  0  0
   10.4727  -11.7052    0.0000 C   0  0  0  0  0  0  0  0  0  0  0  0
    7.4662   -7.0206    0.0000 C   0  0  0  0  0  0  0  0  0  0  0  0
    8.2366   -6.4127    0.0000 O   0  0  0  0  0  0  0  0  0  0  0  0
    6.9124   -6.6167    0.0000 C   0  0  0  0  0  0  0  0  0  0  0  0
    8.9694   -5.2135    0.0000 C   0  0  0  0  0  0  0  0  0  0  0  0
    8.9694   -4.3556    0.0000 C   0  0  1  0  0  0  0  0  0  0  0  0
   10.5018  -12.5297    0.0000 C   0  0  0  0  0  0  0  0  0  0  0  0
   10.4227  -10.0645    0.0000 O   0  0  0  0  0  0  0  0  0  0  0  0
   11.7594   -3.6185    0.0000 C   0  0  2  0  0  0  0  0  0  0  0  0
    6.9124   -5.7464    0.0000 C   0  0  0  0  0  0  0  0  0  0  0  0
    8.2241   -7.2038    0.0000 O   0  0  0  0  0  0  0  0  0  0  0  0
   11.0514   -4.7512    0.0000 C   0  0  0  0  0  0  0  0  0  0  0  0
    9.0444  -11.7552    0.0000 C   0  0  0  0  0  0  0  0  0  0  0  0
    6.0920   -5.2260    0.0000 C   0  0  2  0  0  0  0  0  0  0  0  0
    9.7981  -12.9669    0.0000 C   0  0  0  0  0  0  0  0  0  0  0  0
    9.0694  -12.5755    0.0000 C   0  0  0  0  0  0  0  0  0  0  0  0
   11.7719   -4.3681    0.0000 C   0  0  0  0  0  0  0  0  0  0  0  0
    8.2616   -3.9226    0.0000 C   0  0  0  0  0  0  0  0  0  0  0  0
   10.7850   -2.4652    0.0000 C   0  0  2  0  0  0  0  0  0  0  0  0
    5.3966   -3.9226    0.0000 O   0  0  0  0  0  0  0  0  0  0  0  0
   10.3436   -9.3234    0.0000 C   0  0  0  0  0  0  0  0  0  0  0  0
    6.8125   -3.0273    0.0000 C   0  0  0  0  0  0  0  0  0  0  0  0
   11.2305  -12.9128    0.0000 C   0  0  0  0  0  0  0  0  0  0  0  0
   12.4839   -3.2480    0.0000 C   0  0  0  0  0  0  0  0  0  0  0  0
    5.3966   -5.6132    0.0000 C   0  0  0  0  0  0  0  0  0  0  0  0
    9.8272  -13.7914    0.0000 C   0  0  0  0  0  0  0  0  0  0  0  0
    9.9771   -2.3443    0.0000 C   0  0  0  0  0  0  0  0  0  0  0  0
   11.3721   -1.7947    0.0000 C   0  0  0  0  0  0  0  0  0  0  0  0
    9.8231   -1.5365    0.0000 C   0  0  0  0  0  0  0  0  0  0  0  0
   11.2597  -13.7373    0.0000 C   0  0  0  0  0  0  0  0  0  0  0  0
   10.5559  -14.1829    0.0000 C   0  0  0  0  0  0  0  0  0  0  0  0
   10.3061   -6.0712    0.0000 H   0  0  0  0  0  0  0  0  0  0  0  0
    8.9861   -3.3646    0.0000 H   0  0  0  0  0  0  0  0  0  0  0  0
   11.7135   -2.6691    0.0000 H   0  0  0  0  0  0  0  0  0  0  0  0
    8.2241   -9.8022    0.0000 H   0  0  0  0  0  0  0  0  0  0  0  0
    9.6690   -7.2413    0.0000 H   0  0  0  0  0  0  0  0  0  0  0  0
  2  1  1  0  0  0  0
  3  2  1  0  0  0  0
  4  1  1  0  0  0  0
  5  1  1  0  0  0  0
  6 15  1  0  0  0  0
  7  8  1  0  0  0  0
  8  5  2  0  0  0  0
  9  3  1  0  0  0  0
 10  2  1  0  0  0  0
  7 11  1  1  0  0  0
 12  6  1  0  0  0  0
 13 11  1  0  0  0  0
 14  4  1  0  0  0  0
 15 18  1  0  0  0  0
 16 29  1  0  0  0  0
 17 12  1  0  0  0  0
 18 14  1  0  0  0  0
 19 13  1  0  0  0  0
 20 21  2  0  0  0  0
 21 41  1  0  0  0  0
 22 10  1  0  0  0  0
 23 37  1  0  0  0  0
 24 19  1  0  0  0  0
 25 10  2  0  0  0  0
 26  4  2  0  0  0  0
 27 25  1  0  0  0  0
 28 18  1  0  0  0  0
 29 28  1  0  0  0  0
 30 24  2  0  0  0  0
 31 13  2  0  0  0  0
 32 40  1  0  0  0  0
 33 27  2  0  0  0  0
  2 34  1  6  0  0  0
  6 35  1  1  0  0  0
 36 19  2  0  0  0  0
 37 33  1  0  0  0  0
 38 30  1  0  0  0  0
 39 36  1  0  0  0  0
 40 35  1  0  0  0  0
 41 29  1  0  0  0  0
 42 17  1  0  0  0  0
 23 43  1  6  0  0  0
 44  8  1  0  0  0  0
 45 20  1  0  0  0  0
 46 30  1  0  0  0  0
 32 47  1  1  0  0  0
 37 48  1  6  0  0  0
 49 38  1  0  0  0  0
 50 42  1  0  0  0  0
 42 51  1  6  0  0  0
 52 50  1  0  0  0  0
 53 46  2  0  0  0  0
 54 53  1  0  0  0  0
 18 55  1  6  0  0  0
 29 56  1  6  0  0  0
 17 57  1  1  0  0  0
  3 58  1  6  0  0  0
  1 59  1  1  0  0  0
  7  3  1  0  0  0  0
 22  9  1  0  0  0  0
 16  6  1  0  0  0  0
 20 23  1  0  0  0  0
 38 39  2  0  0  0  0
 32 17  1  0  0  0  0
 54 49  2  0  0  0  0
M  END
>  <IDNUMBER>
F3409-0800

>  <Chemical_Name>
(1'R,2R,4'S,5S,6R,8'R,10'E,12'S,13'S,14'E,16'E,20'R,21'R,24'S)-6-[(2S)-butan-2-yl]-12',24'-dihydroxy-5,11',13',22'-tetramethyl-2'-oxo-3',7',19'-trioxaspiro[oxane-2,6'-tetracyclo[15.6.1.1?,?.0??,??]pentacosane]-10',14',16',22'-tetraen-21'-yl naphthalene-2-carboxylate

>  <PriceCoeff>
7.00

>  <MW>
740.93

>  <Description>
solid

>  <FSP3>
0.56

>  <clogP>
8.26

>  <TPSA>
120.75

>  <Acceptor>
9

>  <Donor>
2

>  <RotBonds>
5

>  <HAC>
54

$$$$
F3409-0801
  Mrv2219 10102508112D          

 54 59  0  0  0  0            999 V2000
    7.4133   -7.9006    0.0000 C   0  0  2  0  0  0  0  0  0  0  0  0
    6.6802   -8.3504    0.0000 C   0  0  1  0  0  0  0  0  0  0  0  0
    6.6802   -9.1583    0.0000 C   0  0  1  0  0  0  0  0  0  0  0  0
    7.4049   -7.0760    0.0000 C   0  0  0  0  0  0  0  0  0  0  0  0
    8.0838   -8.3004    0.0000 C   0  0  0  0  0  0  0  0  0  0  0  0
    8.8334   -4.6396    0.0000 C   0  0  2  0  0  0  0  0  0  0  0  0
    7.4133   -9.5498    0.0000 C   0  0  1  0  0  0  0  0  0  0  0  0
    8.0838   -9.1583    0.0000 C   0  0  0  0  0  0  0  0  0  0  0  0
    5.9098   -9.4290    0.0000 O   0  0  0  0  0  0  0  0  0  0  0  0
    5.9098   -8.1171    0.0000 C   0  0  0  0  0  0  0  0  0  0  0  0
    7.4383  -10.3619    0.0000 O   0  0  0  0  0  0  0  0  0  0  0  0
    8.1671  -10.7493    0.0000 C   0  0  0  0  0  0  0  0  0  0  0  0
    8.8334   -3.8108    0.0000 O   0  0  0  0  0  0  0  0  0  0  0  0
    8.0838   -6.6886    0.0000 O   0  0  0  0  0  0  0  0  0  0  0  0
    8.1920  -11.5739    0.0000 C   0  0  0  0  0  0  0  0  0  0  0  0
    8.8334   -5.4767    0.0000 C   0  0  0  0  0  0  0  0  0  0  0  0
    8.1130   -4.2231    0.0000 O   0  0  0  0  0  0  0  0  0  0  0  0
    9.5456   -3.4526    0.0000 C   0  0  1  0  0  0  0  0  0  0  0  0
    8.0838   -5.8640    0.0000 C   0  0  2  0  0  0  0  0  0  0  0  0
    5.2726   -4.1731    0.0000 C   0  0  0  0  0  0  0  0  0  0  0  0
    5.9848   -4.5896    0.0000 C   0  0  0  0  0  0  0  0  0  0  0  0
    7.5423  -12.0820    0.0000 S   0  0  0  0  0  0  0  0  0  0  0  0
    5.4267   -8.7210    0.0000 C   0  0  0  0  0  0  0  0  0  0  0  0
    4.5354   -4.5896    0.0000 C   0  0  2  0  0  0  0  0  0  0  0  0
    5.9098   -7.2717    0.0000 C   0  0  0  0  0  0  0  0  0  0  0  0
    6.6802   -6.6636    0.0000 O   0  0  0  0  0  0  0  0  0  0  0  0
    5.3558   -6.8676    0.0000 C   0  0  0  0  0  0  0  0  0  0  0  0
    7.4133   -5.4642    0.0000 C   0  0  0  0  0  0  0  0  0  0  0  0
    7.4133   -4.6062    0.0000 C   0  0  1  0  0  0  0  0  0  0  0  0
    8.8667  -10.3161    0.0000 O   0  0  0  0  0  0  0  0  0  0  0  0
    8.8751  -12.0403    0.0000 C   0  0  0  0  0  0  0  0  0  0  0  0
    7.8214  -12.8608    0.0000 C   0  0  0  0  0  0  0  0  0  0  0  0
   10.2036   -3.8690    0.0000 C   0  0  2  0  0  0  0  0  0  0  0  0
    5.3558   -5.9972    0.0000 C   0  0  0  0  0  0  0  0  0  0  0  0
    6.6677   -7.4549    0.0000 O   0  0  0  0  0  0  0  0  0  0  0  0
    9.4956   -5.0019    0.0000 C   0  0  0  0  0  0  0  0  0  0  0  0
    8.6460  -12.8358    0.0000 C   0  0  0  0  0  0  0  0  0  0  0  0
    4.5354   -5.4767    0.0000 C   0  0  2  0  0  0  0  0  0  0  0  0
   10.2203   -4.6187    0.0000 C   0  0  0  0  0  0  0  0  0  0  0  0
    6.7011   -4.1731    0.0000 C   0  0  0  0  0  0  0  0  0  0  0  0
    9.2291   -2.7155    0.0000 C   0  0  2  0  0  0  0  0  0  0  0  0
    3.8399   -4.1731    0.0000 O   0  0  0  0  0  0  0  0  0  0  0  0
    8.7877   -9.5748    0.0000 C   0  0  0  0  0  0  0  0  0  0  0  0
    5.2559   -3.2777    0.0000 C   0  0  0  0  0  0  0  0  0  0  0  0
   10.9283   -3.4984    0.0000 C   0  0  0  0  0  0  0  0  0  0  0  0
    3.8399   -5.8640    0.0000 C   0  0  0  0  0  0  0  0  0  0  0  0
    8.4211   -2.5946    0.0000 C   0  0  0  0  0  0  0  0  0  0  0  0
    9.8163   -2.0449    0.0000 C   0  0  0  0  0  0  0  0  0  0  0  0
    8.2670   -1.7867    0.0000 C   0  0  0  0  0  0  0  0  0  0  0  0
    8.7502   -6.3221    0.0000 H   0  0  0  0  0  0  0  0  0  0  0  0
    7.4299   -3.6150    0.0000 H   0  0  0  0  0  0  0  0  0  0  0  0
   10.1578   -2.9195    0.0000 H   0  0  0  0  0  0  0  0  0  0  0  0
    6.6677  -10.0537    0.0000 H   0  0  0  0  0  0  0  0  0  0  0  0
    8.1130   -7.4924    0.0000 H   0  0  0  0  0  0  0  0  0  0  0  0
  2  1  1  0  0  0  0
  3  2  1  0  0  0  0
  4  1  1  0  0  0  0
  5  1  1  0  0  0  0
  6 16  1  0  0  0  0
  7  3  1  0  0  0  0
  8  5  2  0  0  0  0
  9  3  1  0  0  0  0
 10  2  1  0  0  0  0
  7 11  1  1  0  0  0
 12 11  1  0  0  0  0
 13  6  1  0  0  0  0
 14  4  1  0  0  0  0
 15 12  1  0  0  0  0
 16 19  1  0  0  0  0
 17 29  1  0  0  0  0
 18 13  1  0  0  0  0
 19 14  1  0  0  0  0
 20 24  1  0  0  0  0
 21 40  1  0  0  0  0
 22 15  1  0  0  0  0
 23 10  1  0  0  0  0
 24 38  1  0  0  0  0
 25 10  2  0  0  0  0
 26  4  2  0  0  0  0
 27 25  1  0  0  0  0
 28 19  1  0  0  0  0
 29 28  1  0  0  0  0
 30 12  2  0  0  0  0
 31 15  2  0  0  0  0
 32 22  1  0  0  0  0
 33 39  1  0  0  0  0
 34 27  2  0  0  0  0
  2 35  1  6  0  0  0
  6 36  1  1  0  0  0
 37 31  1  0  0  0  0
 38 34  1  0  0  0  0
 39 36  1  0  0  0  0
 40 29  1  0  0  0  0
 41 18  1  0  0  0  0
 24 42  1  6  0  0  0
 43  8  1  0  0  0  0
 44 20  1  0  0  0  0
 33 45  1  1  0  0  0
 38 46  1  6  0  0  0
 47 41  1  0  0  0  0
 41 48  1  6  0  0  0
 49 47  1  0  0  0  0
 19 50  1  6  0  0  0
 29 51  1  6  0  0  0
 18 52  1  1  0  0  0
  3 53  1  6  0  0  0
  1 54  1  1  0  0  0
  8  7  1  0  0  0  0
 23  9  1  0  0  0  0
 17  6  1  0  0  0  0
 21 20  2  0  0  0  0
 37 32  2  0  0  0  0
 33 18  1  0  0  0  0
M  END
>  <IDNUMBER>
F3409-0801

>  <Chemical_Name>
(1'R,2R,4'S,5S,6R,8'R,10'E,12'S,13'S,14'E,16'E,20'R,21'R,24'S)-6-[(2S)-butan-2-yl]-12',24'-dihydroxy-5,11',13',22'-tetramethyl-2'-oxo-3',7',19'-trioxaspiro[oxane-2,6'-tetracyclo[15.6.1.1?,?.0??,??]pentacosane]-10',14',16',22'-tetraen-21'-yl thiophene-2-carboxylate

>  <PriceCoeff>
7.00

>  <MW>
696.90

>  <Description>
solid

>  <FSP3>
0.64

>  <clogP>
6.81

>  <TPSA>
120.75

>  <Acceptor>
9

>  <Donor>
2

>  <RotBonds>
5

>  <HAC>
49

$$$$
F3409-0802
  Mrv2219 10102508112D          

 61 67  0  0  0  0            999 V2000
    6.0180   -8.4128    0.0000 C   0  0  2  0  0  0  0  0  0  0  0  0
    5.2851   -8.8626    0.0000 C   0  0  1  0  0  0  0  0  0  0  0  0
    5.2851   -9.6706    0.0000 C   0  0  1  0  0  0  0  0  0  0  0  0
    6.0097   -7.5882    0.0000 C   0  0  0  0  0  0  0  0  0  0  0  0
    6.6886   -8.8127    0.0000 C   0  0  0  0  0  0  0  0  0  0  0  0
    7.4383   -5.1518    0.0000 C   0  0  2  0  0  0  0  0  0  0  0  0
    6.0180  -10.0621    0.0000 C   0  0  1  0  0  0  0  0  0  0  0  0
    6.6886   -9.6706    0.0000 C   0  0  0  0  0  0  0  0  0  0  0  0
    4.5146   -9.9412    0.0000 O   0  0  0  0  0  0  0  0  0  0  0  0
    4.5146   -8.6293    0.0000 C   0  0  0  0  0  0  0  0  0  0  0  0
    6.0430  -10.8742    0.0000 O   0  0  0  0  0  0  0  0  0  0  0  0
    6.7719  -11.2615    0.0000 C   0  0  0  0  0  0  0  0  0  0  0  0
    2.4406   -3.8607    0.0000 C   0  0  0  0  0  0  0  0  0  0  0  0
    7.4383   -4.3188    0.0000 O   0  0  0  0  0  0  0  0  0  0  0  0
    2.4406   -4.6853    0.0000 O   0  0  0  0  0  0  0  0  0  0  0  0
    6.6886   -7.2009    0.0000 O   0  0  0  0  0  0  0  0  0  0  0  0
    3.1403   -5.1019    0.0000 C   0  0  2  0  0  0  0  0  0  0  0  0
    6.7969  -12.0862    0.0000 C   0  0  0  0  0  0  0  0  0  0  0  0
    1.7242   -3.4484    0.0000 C   0  0  0  0  0  0  0  0  0  0  0  0
    7.4383   -5.9890    0.0000 C   0  0  0  0  0  0  0  0  0  0  0  0
    6.7177   -4.7353    0.0000 O   0  0  0  0  0  0  0  0  0  0  0  0
    8.1505   -3.9649    0.0000 C   0  0  1  0  0  0  0  0  0  0  0  0
    6.6886   -6.3763    0.0000 C   0  0  2  0  0  0  0  0  0  0  0  0
    3.8774   -4.6853    0.0000 C   0  0  0  0  0  0  0  0  0  0  0  0
    4.5896   -5.1019    0.0000 C   0  0  0  0  0  0  0  0  0  0  0  0
    6.1472  -12.5942    0.0000 S   0  0  0  0  0  0  0  0  0  0  0  0
    0.9663   -3.7900    0.0000 S   0  0  0  0  0  0  0  0  0  0  0  0
    4.0314   -9.2333    0.0000 C   0  0  0  0  0  0  0  0  0  0  0  0
    4.5146   -7.7839    0.0000 C   0  0  0  0  0  0  0  0  0  0  0  0
    5.2851   -7.1759    0.0000 O   0  0  0  0  0  0  0  0  0  0  0  0
    3.9607   -7.3799    0.0000 C   0  0  0  0  0  0  0  0  0  0  0  0
    6.0180   -5.9765    0.0000 C   0  0  0  0  0  0  0  0  0  0  0  0
    6.0180   -5.1185    0.0000 C   0  0  1  0  0  0  0  0  0  0  0  0
    7.4716  -10.8283    0.0000 O   0  0  0  0  0  0  0  0  0  0  0  0
    3.1486   -3.4442    0.0000 O   0  0  0  0  0  0  0  0  0  0  0  0
    1.6285   -2.6321    0.0000 C   0  0  0  0  0  0  0  0  0  0  0  0
    7.4799  -12.5525    0.0000 C   0  0  0  0  0  0  0  0  0  0  0  0
    0.4123   -3.1777    0.0000 C   0  0  0  0  0  0  0  0  0  0  0  0
    6.4263  -13.3731    0.0000 C   0  0  0  0  0  0  0  0  0  0  0  0
    3.1403   -5.9890    0.0000 C   0  0  2  0  0  0  0  0  0  0  0  0
    8.8085   -4.3813    0.0000 C   0  0  2  0  0  0  0  0  0  0  0  0
    3.9607   -6.5095    0.0000 C   0  0  0  0  0  0  0  0  0  0  0  0
    5.2726   -7.9671    0.0000 O   0  0  0  0  0  0  0  0  0  0  0  0
    8.1005   -5.5142    0.0000 C   0  0  0  0  0  0  0  0  0  0  0  0
    7.2509  -13.3481    0.0000 C   0  0  0  0  0  0  0  0  0  0  0  0
    0.8204   -2.4656    0.0000 C   0  0  0  0  0  0  0  0  0  0  0  0
    8.8251   -5.1309    0.0000 C   0  0  0  0  0  0  0  0  0  0  0  0
    5.3101   -4.6853    0.0000 C   0  0  0  0  0  0  0  0  0  0  0  0
    7.8339   -3.2277    0.0000 C   0  0  2  0  0  0  0  0  0  0  0  0
    7.3883  -10.0871    0.0000 C   0  0  0  0  0  0  0  0  0  0  0  0
    3.8607   -3.7900    0.0000 C   0  0  0  0  0  0  0  0  0  0  0  0
    2.4406   -6.3763    0.0000 C   0  0  0  0  0  0  0  0  0  0  0  0
    9.5331   -4.0107    0.0000 C   0  0  0  0  0  0  0  0  0  0  0  0
    7.0260   -3.1069    0.0000 C   0  0  0  0  0  0  0  0  0  0  0  0
    8.4211   -2.5571    0.0000 C   0  0  0  0  0  0  0  0  0  0  0  0
    6.8718   -2.2989    0.0000 C   0  0  0  0  0  0  0  0  0  0  0  0
    8.7627   -3.4317    0.0000 H   0  0  0  0  0  0  0  0  0  0  0  0
    5.2726  -10.5659    0.0000 H   0  0  0  0  0  0  0  0  0  0  0  0
    6.7177   -8.0046    0.0000 H   0  0  0  0  0  0  0  0  0  0  0  0
    7.3549   -6.8344    0.0000 H   0  0  0  0  0  0  0  0  0  0  0  0
    6.0347   -4.1273    0.0000 H   0  0  0  0  0  0  0  0  0  0  0  0
  2  1  1  0  0  0  0
  3  2  1  0  0  0  0
  4  1  1  0  0  0  0
  5  1  1  0  0  0  0
  6 20  1  0  0  0  0
  7  8  1  0  0  0  0
  8  5  2  0  0  0  0
  9  3  1  0  0  0  0
 10  2  1  0  0  0  0
  7 11  1  1  0  0  0
 12 11  1  0  0  0  0
 13 15  1  0  0  0  0
 14  6  1  0  0  0  0
 17 15  1  6  0  0  0
 16  4  1  0  0  0  0
 17 40  1  0  0  0  0
 18 12  1  0  0  0  0
 19 13  1  0  0  0  0
 20 23  1  0  0  0  0
 21 33  1  0  0  0  0
 22 14  1  0  0  0  0
 23 16  1  0  0  0  0
 24 25  2  0  0  0  0
 25 48  1  0  0  0  0
 26 18  1  0  0  0  0
 27 19  1  0  0  0  0
 28 10  1  0  0  0  0
 29 10  2  0  0  0  0
 30  4  2  0  0  0  0
 31 29  1  0  0  0  0
 32 23  1  0  0  0  0
 33 32  1  0  0  0  0
 34 12  2  0  0  0  0
 35 13  2  0  0  0  0
 36 19  2  0  0  0  0
 37 18  2  0  0  0  0
 38 27  1  0  0  0  0
 39 26  1  0  0  0  0
 40 42  1  0  0  0  0
 41 47  1  0  0  0  0
 42 31  2  0  0  0  0
  2 43  1  6  0  0  0
  6 44  1  1  0  0  0
 45 37  1  0  0  0  0
 46 36  1  0  0  0  0
 47 44  1  0  0  0  0
 48 33  1  0  0  0  0
 49 22  1  0  0  0  0
 50  8  1  0  0  0  0
 51 24  1  0  0  0  0
 40 52  1  6  0  0  0
 41 53  1  1  0  0  0
 54 49  1  0  0  0  0
 49 55  1  6  0  0  0
 56 54  1  0  0  0  0
 22 57  1  1  0  0  0
  3 58  1  6  0  0  0
  1 59  1  1  0  0  0
 23 60  1  6  0  0  0
 33 61  1  6  0  0  0
  7  3  1  0  0  0  0
 28  9  1  0  0  0  0
 21  6  1  0  0  0  0
 45 39  2  0  0  0  0
 24 17  1  0  0  0  0
 41 22  1  0  0  0  0
 38 46  2  0  0  0  0
M  END
>  <IDNUMBER>
F3409-0802

>  <Chemical_Name>
(1'R,2R,4'S,5S,6R,8'R,10'E,12'S,13'S,14'E,16'E,20'R,21'R,24'S)-6-[(2S)-butan-2-yl]-24'-hydroxy-5,11',13',22'-tetramethyl-2'-oxo-12'-(thiophene-2-carbonyloxy)-3',7',19'-trioxaspiro[oxane-2,6'-tetracyclo[15.6.1.1?,?.0??,??]pentacosane]-10',14',16',22'-tetraen-21'-yl thiophene-2-carboxylate

>  <PriceCoeff>
7.00

>  <MW>
807.03

>  <Description>
solid

>  <FSP3>
0.57

>  <clogP>
9.41

>  <TPSA>
126.82

>  <Acceptor>
10

>  <Donor>
1

>  <RotBonds>
8

>  <HAC>
56

$$$$
F3409-0814
  Mrv2219 10102508112D          

 56 61  0  0  0  0            999 V2000
   -4.2069    2.6812    0.0000 C   0  0  2  0  0  0  0  0  0  0  0  0
   -4.9388    2.2225    0.0000 C   0  0  1  0  0  0  0  0  0  0  0  0
   -4.9388    1.3934    0.0000 C   0  0  1  0  0  0  0  0  0  0  0  0
   -4.2245    3.5190    0.0000 C   0  0  0  0  0  0  0  0  0  0  0  0
   -3.5454    2.2754    0.0000 C   0  0  0  0  0  0  0  0  0  0  0  0
   -2.8046    5.9972    0.0000 C   0  0  2  0  0  0  0  0  0  0  0  0
   -4.2069    0.9965    0.0000 C   0  0  1  0  0  0  0  0  0  0  0  0
   -3.5454    1.3934    0.0000 C   0  0  0  0  0  0  0  0  0  0  0  0
   -5.7061    1.1201    0.0000 O   0  0  0  0  0  0  0  0  0  0  0  0
   -5.7061    2.4606    0.0000 C   0  0  0  0  0  0  0  0  0  0  0  0
   -2.8046    6.8438    0.0000 O   0  0  0  0  0  0  0  0  0  0  0  0
   -3.5454    3.9158    0.0000 O   0  0  0  0  0  0  0  0  0  0  0  0
   -3.4660   -0.2206    0.0000 C   0  0  0  0  0  0  0  0  0  0  0  0
   -2.8046    5.1418    0.0000 C   0  0  0  0  0  0  0  0  0  0  0  0
   -3.5190    6.4205    0.0000 O   0  0  0  0  0  0  0  0  0  0  0  0
   -2.0902    7.2056    0.0000 C   0  0  1  0  0  0  0  0  0  0  0  0
   -3.5454    4.7536    0.0000 C   0  0  2  0  0  0  0  0  0  0  0  0
   -4.1893    0.1763    0.0000 O   0  0  0  0  0  0  0  0  0  0  0  0
   -6.3411    6.4734    0.0000 C   0  0  0  0  0  0  0  0  0  0  0  0
   -5.6267    6.0501    0.0000 C   0  0  0  0  0  0  0  0  0  0  0  0
   -6.1824    1.8432    0.0000 C   0  0  0  0  0  0  0  0  0  0  0  0
   -7.0733    6.0501    0.0000 C   0  0  2  0  0  0  0  0  0  0  0  0
   -3.4396   -1.0583    0.0000 N   0  0  0  0  0  0  0  0  0  0  0  0
   -5.7061    3.3162    0.0000 C   0  0  0  0  0  0  0  0  0  0  0  0
   -4.9388    3.9423    0.0000 O   0  0  0  0  0  0  0  0  0  0  0  0
   -6.2531    3.7306    0.0000 C   0  0  0  0  0  0  0  0  0  0  0  0
   -4.2069    5.1594    0.0000 C   0  0  0  0  0  0  0  0  0  0  0  0
   -4.2069    6.0236    0.0000 C   0  0  1  0  0  0  0  0  0  0  0  0
   -2.7692    0.2206    0.0000 O   0  0  0  0  0  0  0  0  0  0  0  0
   -1.4376    6.7822    0.0000 C   0  0  2  0  0  0  0  0  0  0  0  0
   -6.2531    4.6127    0.0000 C   0  0  0  0  0  0  0  0  0  0  0  0
   -4.9477    3.1310    0.0000 O   0  0  0  0  0  0  0  0  0  0  0  0
   -2.1431    5.6267    0.0000 C   0  0  0  0  0  0  0  0  0  0  0  0
   -7.0733    5.1418    0.0000 C   0  0  2  0  0  0  0  0  0  0  0  0
   -1.4288    6.0149    0.0000 C   0  0  0  0  0  0  0  0  0  0  0  0
   -4.9124    6.4734    0.0000 C   0  0  0  0  0  0  0  0  0  0  0  0
   -2.4077    7.9551    0.0000 C   0  0  2  0  0  0  0  0  0  0  0  0
   -2.7163   -1.4552    0.0000 C   0  0  0  0  0  0  0  0  0  0  0  0
   -7.7612    6.4734    0.0000 O   0  0  0  0  0  0  0  0  0  0  0  0
   -2.8575    0.9701    0.0000 C   0  0  0  0  0  0  0  0  0  0  0  0
   -6.3589    7.3819    0.0000 C   0  0  0  0  0  0  0  0  0  0  0  0
   -0.7233    7.1613    0.0000 C   0  0  0  0  0  0  0  0  0  0  0  0
   -7.7612    4.7536    0.0000 C   0  0  0  0  0  0  0  0  0  0  0  0
   -3.2104    8.0787    0.0000 C   0  0  0  0  0  0  0  0  0  0  0  0
   -1.8256    8.6343    0.0000 C   0  0  0  0  0  0  0  0  0  0  0  0
   -2.6988   -2.2754    0.0000 C   0  0  0  0  0  0  0  0  0  0  0  0
   -2.0284   -1.0143    0.0000 C   0  0  0  0  0  0  0  0  0  0  0  0
   -3.3602    8.8989    0.0000 C   0  0  0  0  0  0  0  0  0  0  0  0
   -1.3054   -1.4023    0.0000 C   0  0  0  0  0  0  0  0  0  0  0  0
   -1.9755   -2.6634    0.0000 C   0  0  0  0  0  0  0  0  0  0  0  0
   -1.2789   -2.2314    0.0000 C   0  0  0  0  0  0  0  0  0  0  0  0
   -1.4906    7.7434    0.0000 H   0  0  0  0  0  0  0  0  0  0  0  0
   -4.9477    0.4851    0.0000 H   0  0  0  0  0  0  0  0  0  0  0  0
   -3.5190    3.0956    0.0000 H   0  0  0  0  0  0  0  0  0  0  0  0
   -2.8840    4.2863    0.0000 H   0  0  0  0  0  0  0  0  0  0  0  0
   -4.1980    7.0379    0.0000 H   0  0  0  0  0  0  0  0  0  0  0  0
  2  1  1  0  0  0  0
  3  2  1  0  0  0  0
  4  1  1  0  0  0  0
  5  1  1  0  0  0  0
  6 14  1  0  0  0  0
  7  8  1  0  0  0  0
  8  5  2  0  0  0  0
  9  3  1  0  0  0  0
 10  2  1  0  0  0  0
 11  6  1  0  0  0  0
 12  4  1  0  0  0  0
 13 18  1  0  0  0  0
 14 17  1  0  0  0  0
 15 28  1  0  0  0  0
 16 11  1  0  0  0  0
 17 12  1  0  0  0  0
  7 18  1  1  0  0  0
 19 20  2  0  0  0  0
 20 36  1  0  0  0  0
 21 10  1  0  0  0  0
 22 34  1  0  0  0  0
 23 13  1  0  0  0  0
 24 10  2  0  0  0  0
 25  4  2  0  0  0  0
 26 24  1  0  0  0  0
 27 17  1  0  0  0  0
 28 27  1  0  0  0  0
 29 13  2  0  0  0  0
 30 35  1  0  0  0  0
 31 26  2  0  0  0  0
  2 32  1  6  0  0  0
  6 33  1  1  0  0  0
 34 31  1  0  0  0  0
 35 33  1  0  0  0  0
 36 28  1  0  0  0  0
 37 16  1  0  0  0  0
 38 23  1  0  0  0  0
 22 39  1  6  0  0  0
 40  8  1  0  0  0  0
 41 19  1  0  0  0  0
 30 42  1  1  0  0  0
 34 43  1  6  0  0  0
 44 37  1  0  0  0  0
 37 45  1  6  0  0  0
 46 38  2  0  0  0  0
 47 38  1  0  0  0  0
 48 44  1  0  0  0  0
 49 47  2  0  0  0  0
 50 46  1  0  0  0  0
 51 49  1  0  0  0  0
 16 52  1  1  0  0  0
  3 53  1  6  0  0  0
  1 54  1  1  0  0  0
 17 55  1  6  0  0  0
 28 56  1  6  0  0  0
  7  3  1  0  0  0  0
 21  9  1  0  0  0  0
 15  6  1  0  0  0  0
 19 22  1  0  0  0  0
 30 16  1  0  0  0  0
 51 50  2  0  0  0  0
M  END
>  <IDNUMBER>
F3409-0814

>  <Chemical_Name>
(1'R,2R,4'S,5S,6R,8'R,10'E,12'S,13'S,14'E,16'E,20'R,21'R,24'S)-6-[(2S)-butan-2-yl]-12',24'-dihydroxy-5,11',13',22'-tetramethyl-2'-oxo-3',7',19'-trioxaspiro[oxane-2,6'-tetracyclo[15.6.1.1?,?.0??,??]pentacosane]-10',14',16',22'-tetraen-21'-yl N-phenylcarbamate

>  <PriceCoeff>
7.00

>  <MW>
705.89

>  <Description>
solid

>  <FSP3>
0.61

>  <clogP>
6.70

>  <TPSA>
132.78

>  <Acceptor>
9

>  <Donor>
3

>  <RotBonds>
5

>  <HAC>
51

$$$$
F3409-0815
  Mrv2219 10102508112D          

 60 65  0  0  0  0            999 V2000
    2.7934   -1.3401    0.0000 C   0  0  2  0  0  0  0  0  0  0  0  0
    2.0605   -1.7966    0.0000 C   0  0  1  0  0  0  0  0  0  0  0  0
    2.0605   -2.6216    0.0000 C   0  0  1  0  0  0  0  0  0  0  0  0
    2.7850   -0.4942    0.0000 C   0  0  0  0  0  0  0  0  0  0  0  0
    3.4593   -1.7464    0.0000 C   0  0  0  0  0  0  0  0  0  0  0  0
    4.2089    1.9851    0.0000 C   0  0  2  0  0  0  0  0  0  0  0  0
    2.7934   -3.0237    0.0000 C   0  0  1  0  0  0  0  0  0  0  0  0
    3.4593   -2.6216    0.0000 C   0  0  0  0  0  0  0  0  0  0  0  0
    1.2941   -2.8981    0.0000 O   0  0  0  0  0  0  0  0  0  0  0  0
    1.2941   -1.5579    0.0000 C   0  0  0  0  0  0  0  0  0  0  0  0
    4.2089    2.8352    0.0000 O   0  0  0  0  0  0  0  0  0  0  0  0
    6.4662   -6.6506    0.0000 C   0  0  0  0  0  0  0  0  0  0  0  0
    3.4593   -0.1005    0.0000 O   0  0  0  0  0  0  0  0  0  0  0  0
    3.5430   -4.2424    0.0000 C   0  0  0  0  0  0  0  0  0  0  0  0
    4.2089    1.1350    0.0000 C   0  0  0  0  0  0  0  0  0  0  0  0
    3.4886    2.4123    0.0000 O   0  0  0  0  0  0  0  0  0  0  0  0
    4.9167    3.1955    0.0000 C   0  0  1  0  0  0  0  0  0  0  0  0
    3.4593    0.7371    0.0000 C   0  0  2  0  0  0  0  0  0  0  0  0
    2.8185   -3.8488    0.0000 O   0  0  0  0  0  0  0  0  0  0  0  0
    0.6575    2.4625    0.0000 C   0  0  0  0  0  0  0  0  0  0  0  0
    1.3737    2.0396    0.0000 C   0  0  0  0  0  0  0  0  0  0  0  0
    0.8124   -2.1736    0.0000 C   0  0  0  0  0  0  0  0  0  0  0  0
   -0.0754    2.0396    0.0000 C   0  0  2  0  0  0  0  0  0  0  0  0
    3.5639   -5.0842    0.0000 N   0  0  0  0  0  0  0  0  0  0  0  0
    5.7334   -6.2569    0.0000 C   0  0  0  0  0  0  0  0  0  0  0  0
    1.2941   -0.6994    0.0000 C   0  0  0  0  0  0  0  0  0  0  0  0
    2.0605   -0.0754    0.0000 O   0  0  0  0  0  0  0  0  0  0  0  0
    0.7455   -0.2847    0.0000 C   0  0  0  0  0  0  0  0  0  0  0  0
    2.7934    1.1475    0.0000 C   0  0  0  0  0  0  0  0  0  0  0  0
    2.7934    2.0186    0.0000 C   0  0  1  0  0  0  0  0  0  0  0  0
    4.2424   -3.8027    0.0000 O   0  0  0  0  0  0  0  0  0  0  0  0
    5.5701    2.7724    0.0000 C   0  0  2  0  0  0  0  0  0  0  0  0
    0.7455    0.6031    0.0000 C   0  0  0  0  0  0  0  0  0  0  0  0
    2.0521   -0.8837    0.0000 O   0  0  0  0  0  0  0  0  0  0  0  0
    4.8623    1.6208    0.0000 C   0  0  0  0  0  0  0  0  0  0  0  0
   -0.0754    1.1350    0.0000 C   0  0  2  0  0  0  0  0  0  0  0  0
    7.1280   -7.0065    0.0000 F   0  0  0  0  0  0  0  0  0  0  0  0
    6.6296   -7.5007    0.0000 F   0  0  0  0  0  0  0  0  0  0  0  0
    7.2662   -6.3197    0.0000 F   0  0  0  0  0  0  0  0  0  0  0  0
    5.0298   -6.6924    0.0000 C   0  0  0  0  0  0  0  0  0  0  0  0
    5.7083   -5.4276    0.0000 C   0  0  0  0  0  0  0  0  0  0  0  0
    5.5826    2.0102    0.0000 C   0  0  0  0  0  0  0  0  0  0  0  0
    2.0814    2.4625    0.0000 C   0  0  0  0  0  0  0  0  0  0  0  0
    4.2885   -5.4779    0.0000 C   0  0  0  0  0  0  0  0  0  0  0  0
    4.5984    3.9493    0.0000 C   0  0  2  0  0  0  0  0  0  0  0  0
   -0.7622    2.4625    0.0000 O   0  0  0  0  0  0  0  0  0  0  0  0
    4.3094   -6.2988    0.0000 C   0  0  0  0  0  0  0  0  0  0  0  0
    4.9837   -5.0424    0.0000 C   0  0  0  0  0  0  0  0  0  0  0  0
    4.1587   -3.0447    0.0000 C   0  0  0  0  0  0  0  0  0  0  0  0
    0.6450    3.3755    0.0000 C   0  0  0  0  0  0  0  0  0  0  0  0
    6.2903    3.1536    0.0000 C   0  0  0  0  0  0  0  0  0  0  0  0
   -0.7622    0.7371    0.0000 C   0  0  0  0  0  0  0  0  0  0  0  0
    3.7985    4.0749    0.0000 C   0  0  0  0  0  0  0  0  0  0  0  0
    5.1847    4.6319    0.0000 C   0  0  0  0  0  0  0  0  0  0  0  0
    3.6435    4.8999    0.0000 C   0  0  0  0  0  0  0  0  0  0  0  0
    2.8101    3.0321    0.0000 H   0  0  0  0  0  0  0  0  0  0  0  0
    5.5239    3.7398    0.0000 H   0  0  0  0  0  0  0  0  0  0  0  0
    2.0521   -3.5347    0.0000 H   0  0  0  0  0  0  0  0  0  0  0  0
    3.4886   -0.9214    0.0000 H   0  0  0  0  0  0  0  0  0  0  0  0
    4.1210    0.2722    0.0000 H   0  0  0  0  0  0  0  0  0  0  0  0
  2  1  1  0  0  0  0
  3  2  1  0  0  0  0
  4  1  1  0  0  0  0
  5  1  1  0  0  0  0
  6 15  1  0  0  0  0
  7  8  1  0  0  0  0
  8  5  2  0  0  0  0
  9  3  1  0  0  0  0
 10  2  1  0  0  0  0
 11  6  1  0  0  0  0
 12 25  1  0  0  0  0
 13  4  1  0  0  0  0
 14 19  1  0  0  0  0
 15 18  1  0  0  0  0
 16 30  1  0  0  0  0
 17 11  1  0  0  0  0
 18 13  1  0  0  0  0
  7 19  1  1  0  0  0
 20 21  2  0  0  0  0
 21 43  1  0  0  0  0
 22 10  1  0  0  0  0
 23 36  1  0  0  0  0
 24 14  1  0  0  0  0
 25 41  1  0  0  0  0
 26 10  2  0  0  0  0
 27  4  2  0  0  0  0
 28 26  1  0  0  0  0
 29 18  1  0  0  0  0
 30 29  1  0  0  0  0
 31 14  2  0  0  0  0
 32 42  1  0  0  0  0
 33 28  2  0  0  0  0
  2 34  1  6  0  0  0
  6 35  1  1  0  0  0
 36 33  1  0  0  0  0
 37 12  1  0  0  0  0
 38 12  1  0  0  0  0
 39 12  1  0  0  0  0
 40 47  1  0  0  0  0
 41 48  2  0  0  0  0
 42 35  1  0  0  0  0
 43 30  1  0  0  0  0
 44 24  1  0  0  0  0
 45 17  1  0  0  0  0
 23 46  1  6  0  0  0
 47 44  2  0  0  0  0
 48 44  1  0  0  0  0
 49  8  1  0  0  0  0
 50 20  1  0  0  0  0
 32 51  1  1  0  0  0
 36 52  1  6  0  0  0
 53 45  1  0  0  0  0
 45 54  1  6  0  0  0
 55 53  1  0  0  0  0
 30 56  1  6  0  0  0
 17 57  1  1  0  0  0
  3 58  1  6  0  0  0
  1 59  1  1  0  0  0
 18 60  1  6  0  0  0
  7  3  1  0  0  0  0
 22  9  1  0  0  0  0
 16  6  1  0  0  0  0
 20 23  1  0  0  0  0
 32 17  1  0  0  0  0
 25 40  2  0  0  0  0
M  END
>  <IDNUMBER>
F3409-0815

>  <Chemical_Name>
(1'R,2R,4'S,5S,6R,8'R,10'E,12'S,13'S,14'E,16'E,20'R,21'R,24'S)-6-[(2S)-butan-2-yl]-12',24'-dihydroxy-5,11',13',22'-tetramethyl-2'-oxo-3',7',19'-trioxaspiro[oxane-2,6'-tetracyclo[15.6.1.1?,?.0??,??]pentacosane]-10',14',16',22'-tetraen-21'-yl N-[4-(trifluoromethyl)phenyl]carbamate

>  <PriceCoeff>
7.00

>  <MW>
773.89

>  <Description>
solid

>  <FSP3>
0.62

>  <clogP>
7.95

>  <TPSA>
132.78

>  <Acceptor>
9

>  <Donor>
3

>  <RotBonds>
5

>  <HAC>
55

$$$$
F3409-0816
  Mrv2219 10102508112D          

 57 62  0  0  0  0            999 V2000
    6.0336   -2.6180    0.0000 C   0  0  2  0  0  0  0  0  0  0  0  0
    5.3029   -3.0732    0.0000 C   0  0  1  0  0  0  0  0  0  0  0  0
    5.3029   -3.8957    0.0000 C   0  0  1  0  0  0  0  0  0  0  0  0
    6.0252   -1.7746    0.0000 C   0  0  0  0  0  0  0  0  0  0  0  0
    6.6975   -3.0231    0.0000 C   0  0  0  0  0  0  0  0  0  0  0  0
    7.4449    0.6973    0.0000 C   0  0  2  0  0  0  0  0  0  0  0  0
    6.0336   -4.2966    0.0000 C   0  0  1  0  0  0  0  0  0  0  0  0
    6.6975   -3.8957    0.0000 C   0  0  0  0  0  0  0  0  0  0  0  0
    4.5388   -4.1713    0.0000 O   0  0  0  0  0  0  0  0  0  0  0  0
    4.5388   -2.8352    0.0000 C   0  0  0  0  0  0  0  0  0  0  0  0
    7.4449    1.5491    0.0000 O   0  0  0  0  0  0  0  0  0  0  0  0
    6.6975   -1.3821    0.0000 O   0  0  0  0  0  0  0  0  0  0  0  0
    6.7810   -5.5117    0.0000 C   0  0  0  0  0  0  0  0  0  0  0  0
    7.4449   -0.1503    0.0000 C   0  0  0  0  0  0  0  0  0  0  0  0
    6.7267    1.1232    0.0000 O   0  0  0  0  0  0  0  0  0  0  0  0
    8.1505    1.9040    0.0000 C   0  0  1  0  0  0  0  0  0  0  0  0
    6.6975   -0.5470    0.0000 C   0  0  2  0  0  0  0  0  0  0  0  0
    6.0586   -5.1191    0.0000 O   0  0  0  0  0  0  0  0  0  0  0  0
    3.9083    1.1733    0.0000 C   0  0  0  0  0  0  0  0  0  0  0  0
    4.6181    0.7516    0.0000 C   0  0  0  0  0  0  0  0  0  0  0  0
    4.0586   -3.4490    0.0000 C   0  0  0  0  0  0  0  0  0  0  0  0
    3.1734    0.7516    0.0000 C   0  0  2  0  0  0  0  0  0  0  0  0
    6.8019   -6.3509    0.0000 N   0  0  0  0  0  0  0  0  0  0  0  0
    4.5388   -1.9792    0.0000 C   0  0  0  0  0  0  0  0  0  0  0  0
    5.3029   -1.3571    0.0000 O   0  0  0  0  0  0  0  0  0  0  0  0
    3.9917   -1.5658    0.0000 C   0  0  0  0  0  0  0  0  0  0  0  0
    6.0336   -0.1378    0.0000 C   0  0  0  0  0  0  0  0  0  0  0  0
    6.0336    0.7307    0.0000 C   0  0  1  0  0  0  0  0  0  0  0  0
    7.4783   -5.0732    0.0000 O   0  0  0  0  0  0  0  0  0  0  0  0
    8.8019    1.4823    0.0000 C   0  0  2  0  0  0  0  0  0  0  0  0
    3.9917   -0.6806    0.0000 C   0  0  0  0  0  0  0  0  0  0  0  0
    5.2945   -2.1629    0.0000 O   0  0  0  0  0  0  0  0  0  0  0  0
    8.0963    0.3340    0.0000 C   0  0  0  0  0  0  0  0  0  0  0  0
    3.1734   -0.1503    0.0000 C   0  0  2  0  0  0  0  0  0  0  0  0
    8.8187    0.7223    0.0000 C   0  0  0  0  0  0  0  0  0  0  0  0
    5.3280    1.1733    0.0000 C   0  0  0  0  0  0  0  0  0  0  0  0
    7.5242   -6.7435    0.0000 C   0  0  0  0  0  0  0  0  0  0  0  0
    7.8333    2.6556    0.0000 C   0  0  2  0  0  0  0  0  0  0  0  0
    2.4845    1.1733    0.0000 O   0  0  0  0  0  0  0  0  0  0  0  0
    8.9648   -7.5201    0.0000 C   0  0  0  0  0  0  0  0  0  0  0  0
    7.3948   -4.3174    0.0000 C   0  0  0  0  0  0  0  0  0  0  0  0
    7.5452   -7.5618    0.0000 C   0  0  0  0  0  0  0  0  0  0  0  0
    8.2174   -6.3091    0.0000 C   0  0  0  0  0  0  0  0  0  0  0  0
    8.9397   -6.6934    0.0000 C   0  0  0  0  0  0  0  0  0  0  0  0
    8.2633   -7.9543    0.0000 C   0  0  0  0  0  0  0  0  0  0  0  0
    3.8915    2.0836    0.0000 C   0  0  0  0  0  0  0  0  0  0  0  0
    9.5201    1.8622    0.0000 C   0  0  0  0  0  0  0  0  0  0  0  0
    2.4845   -0.5470    0.0000 C   0  0  0  0  0  0  0  0  0  0  0  0
    7.0357    2.7809    0.0000 C   0  0  0  0  0  0  0  0  0  0  0  0
    8.4178    3.3363    0.0000 C   0  0  0  0  0  0  0  0  0  0  0  0
    9.6913   -7.9125    0.0000 C   0  0  0  0  0  0  0  0  0  0  0  0
    6.8813    3.6034    0.0000 C   0  0  0  0  0  0  0  0  0  0  0  0
    5.2945   -4.8060    0.0000 H   0  0  0  0  0  0  0  0  0  0  0  0
    6.7267   -2.2005    0.0000 H   0  0  0  0  0  0  0  0  0  0  0  0
    7.3573   -1.0104    0.0000 H   0  0  0  0  0  0  0  0  0  0  0  0
    6.0503    1.7412    0.0000 H   0  0  0  0  0  0  0  0  0  0  0  0
    8.7560    2.4469    0.0000 H   0  0  0  0  0  0  0  0  0  0  0  0
  2  1  1  0  0  0  0
  3  2  1  0  0  0  0
  4  1  1  0  0  0  0
  5  1  1  0  0  0  0
  6 14  1  0  0  0  0
  7  8  1  0  0  0  0
  8  5  2  0  0  0  0
  9  3  1  0  0  0  0
 10  2  1  0  0  0  0
 11  6  1  0  0  0  0
 12  4  1  0  0  0  0
 13 18  1  0  0  0  0
 14 17  1  0  0  0  0
 15 28  1  0  0  0  0
 16 11  1  0  0  0  0
 17 12  1  0  0  0  0
  7 18  1  1  0  0  0
 19 20  2  0  0  0  0
 20 36  1  0  0  0  0
 21 10  1  0  0  0  0
 22 34  1  0  0  0  0
 23 13  1  0  0  0  0
 24 10  2  0  0  0  0
 25  4  2  0  0  0  0
 26 24  1  0  0  0  0
 27 17  1  0  0  0  0
 28 27  1  0  0  0  0
 29 13  2  0  0  0  0
 30 35  1  0  0  0  0
 31 26  2  0  0  0  0
  2 32  1  6  0  0  0
  6 33  1  1  0  0  0
 34 31  1  0  0  0  0
 35 33  1  0  0  0  0
 36 28  1  0  0  0  0
 37 23  1  0  0  0  0
 38 16  1  0  0  0  0
 22 39  1  6  0  0  0
 40 44  1  0  0  0  0
 41  8  1  0  0  0  0
 42 37  2  0  0  0  0
 43 37  1  0  0  0  0
 44 43  2  0  0  0  0
 45 42  1  0  0  0  0
 46 19  1  0  0  0  0
 30 47  1  1  0  0  0
 34 48  1  6  0  0  0
 49 38  1  0  0  0  0
 38 50  1  6  0  0  0
 51 40  1  0  0  0  0
 52 49  1  0  0  0  0
  3 53  1  6  0  0  0
  1 54  1  1  0  0  0
 17 55  1  6  0  0  0
 28 56  1  6  0  0  0
 16 57  1  1  0  0  0
  7  3  1  0  0  0  0
 21  9  1  0  0  0  0
 15  6  1  0  0  0  0
 19 22  1  0  0  0  0
 30 16  1  0  0  0  0
 40 45  2  0  0  0  0
M  END
>  <IDNUMBER>
F3409-0816

>  <Chemical_Name>
(1'R,2R,4'S,5S,6R,8'R,10'E,12'S,13'S,14'E,16'E,20'R,21'R,24'S)-6-[(2S)-butan-2-yl]-12',24'-dihydroxy-5,11',13',22'-tetramethyl-2'-oxo-3',7',19'-trioxaspiro[oxane-2,6'-tetracyclo[15.6.1.1?,?.0??,??]pentacosane]-10',14',16',22'-tetraen-21'-yl N-(4-methylphenyl)carbamate

>  <PriceCoeff>
7.00

>  <MW>
719.92

>  <Description>
solid

>  <FSP3>
0.62

>  <clogP>
7.20

>  <TPSA>
132.78

>  <Acceptor>
9

>  <Donor>
3

>  <RotBonds>
5

>  <HAC>
52

$$$$
F3409-0817
  Mrv2219 10102508112D          

 57 62  0  0  0  0            999 V2000
    6.0461   -2.6235    0.0000 C   0  0  2  0  0  0  0  0  0  0  0  0
    5.3139   -3.0796    0.0000 C   0  0  1  0  0  0  0  0  0  0  0  0
    5.3139   -3.9038    0.0000 C   0  0  1  0  0  0  0  0  0  0  0  0
    6.0378   -1.7782    0.0000 C   0  0  0  0  0  0  0  0  0  0  0  0
    6.7114   -3.0294    0.0000 C   0  0  0  0  0  0  0  0  0  0  0  0
    7.4604    0.6987    0.0000 C   0  0  2  0  0  0  0  0  0  0  0  0
    6.0461   -4.3055    0.0000 C   0  0  1  0  0  0  0  0  0  0  0  0
    6.7114   -3.9038    0.0000 C   0  0  0  0  0  0  0  0  0  0  0  0
    4.5482   -4.1800    0.0000 O   0  0  0  0  0  0  0  0  0  0  0  0
    4.5482   -2.8411    0.0000 C   0  0  0  0  0  0  0  0  0  0  0  0
    7.4604    1.5523    0.0000 O   0  0  0  0  0  0  0  0  0  0  0  0
    6.7114   -1.3850    0.0000 O   0  0  0  0  0  0  0  0  0  0  0  0
    6.7951   -5.5231    0.0000 C   0  0  0  0  0  0  0  0  0  0  0  0
    7.4604   -0.1506    0.0000 C   0  0  0  0  0  0  0  0  0  0  0  0
    6.7407    1.1255    0.0000 O   0  0  0  0  0  0  0  0  0  0  0  0
    8.1675    1.9080    0.0000 C   0  0  1  0  0  0  0  0  0  0  0  0
    6.7114   -0.5481    0.0000 C   0  0  2  0  0  0  0  0  0  0  0  0
    6.0712   -5.1298    0.0000 O   0  0  0  0  0  0  0  0  0  0  0  0
    3.9164    1.1757    0.0000 C   0  0  0  0  0  0  0  0  0  0  0  0
    4.6277    0.7532    0.0000 C   0  0  0  0  0  0  0  0  0  0  0  0
    4.0670   -3.4562    0.0000 C   0  0  0  0  0  0  0  0  0  0  0  0
    3.1800    0.7532    0.0000 C   0  0  2  0  0  0  0  0  0  0  0  0
    6.8160   -6.3641    0.0000 N   0  0  0  0  0  0  0  0  0  0  0  0
    4.5482   -1.9833    0.0000 C   0  0  0  0  0  0  0  0  0  0  0  0
    5.3139   -1.3599    0.0000 O   0  0  0  0  0  0  0  0  0  0  0  0
    4.0000   -1.5691    0.0000 C   0  0  0  0  0  0  0  0  0  0  0  0
    6.0461   -0.1381    0.0000 C   0  0  0  0  0  0  0  0  0  0  0  0
    6.0461    0.7323    0.0000 C   0  0  1  0  0  0  0  0  0  0  0  0
    7.4939   -5.0838    0.0000 O   0  0  0  0  0  0  0  0  0  0  0  0
    8.8202    1.4854    0.0000 C   0  0  2  0  0  0  0  0  0  0  0  0
    4.0000   -0.6821    0.0000 C   0  0  0  0  0  0  0  0  0  0  0  0
    5.3055   -2.1674    0.0000 O   0  0  0  0  0  0  0  0  0  0  0  0
    8.1132    0.3347    0.0000 C   0  0  0  0  0  0  0  0  0  0  0  0
    3.1800   -0.1506    0.0000 C   0  0  2  0  0  0  0  0  0  0  0  0
    8.8370    0.7238    0.0000 C   0  0  0  0  0  0  0  0  0  0  0  0
    5.3390    1.1757    0.0000 C   0  0  0  0  0  0  0  0  0  0  0  0
    7.5399   -6.7575    0.0000 C   0  0  0  0  0  0  0  0  0  0  0  0
    7.8495    2.6611    0.0000 C   0  0  2  0  0  0  0  0  0  0  0  0
    8.9834   -7.5357    0.0000 C   0  0  0  0  0  0  0  0  0  0  0  0
    2.4896    1.1757    0.0000 O   0  0  0  0  0  0  0  0  0  0  0  0
    9.7114   -7.9290    0.0000 Cl  0  0  0  0  0  0  0  0  0  0  0  0
    7.4102   -4.3264    0.0000 C   0  0  0  0  0  0  0  0  0  0  0  0
    8.2345   -6.3223    0.0000 C   0  0  0  0  0  0  0  0  0  0  0  0
    7.5608   -7.5775    0.0000 C   0  0  0  0  0  0  0  0  0  0  0  0
    8.2805   -7.9709    0.0000 C   0  0  0  0  0  0  0  0  0  0  0  0
    8.9583   -6.7073    0.0000 C   0  0  0  0  0  0  0  0  0  0  0  0
    3.8996    2.0879    0.0000 C   0  0  0  0  0  0  0  0  0  0  0  0
    9.5399    1.8661    0.0000 C   0  0  0  0  0  0  0  0  0  0  0  0
    2.4896   -0.5481    0.0000 C   0  0  0  0  0  0  0  0  0  0  0  0
    7.0503    2.7867    0.0000 C   0  0  0  0  0  0  0  0  0  0  0  0
    8.4353    3.3432    0.0000 C   0  0  0  0  0  0  0  0  0  0  0  0
    6.8956    3.6109    0.0000 C   0  0  0  0  0  0  0  0  0  0  0  0
    5.3055   -4.8160    0.0000 H   0  0  0  0  0  0  0  0  0  0  0  0
    6.7407   -2.2050    0.0000 H   0  0  0  0  0  0  0  0  0  0  0  0
    7.3726   -1.0125    0.0000 H   0  0  0  0  0  0  0  0  0  0  0  0
    6.0629    1.7448    0.0000 H   0  0  0  0  0  0  0  0  0  0  0  0
    8.7742    2.4520    0.0000 H   0  0  0  0  0  0  0  0  0  0  0  0
  2  1  1  0  0  0  0
  3  2  1  0  0  0  0
  4  1  1  0  0  0  0
  5  1  1  0  0  0  0
  6 14  1  0  0  0  0
  7  8  1  0  0  0  0
  8  5  2  0  0  0  0
  9  3  1  0  0  0  0
 10  2  1  0  0  0  0
 11  6  1  0  0  0  0
 12  4  1  0  0  0  0
 13 18  1  0  0  0  0
 14 17  1  0  0  0  0
 15 28  1  0  0  0  0
 16 11  1  0  0  0  0
 17 12  1  0  0  0  0
  7 18  1  1  0  0  0
 19 20  2  0  0  0  0
 20 36  1  0  0  0  0
 21 10  1  0  0  0  0
 22 34  1  0  0  0  0
 23 13  1  0  0  0  0
 24 10  2  0  0  0  0
 25  4  2  0  0  0  0
 26 24  1  0  0  0  0
 27 17  1  0  0  0  0
 28 27  1  0  0  0  0
 29 13  2  0  0  0  0
 30 35  1  0  0  0  0
 31 26  2  0  0  0  0
  2 32  1  6  0  0  0
  6 33  1  1  0  0  0
 34 31  1  0  0  0  0
 35 33  1  0  0  0  0
 36 28  1  0  0  0  0
 37 23  1  0  0  0  0
 38 16  1  0  0  0  0
 39 46  1  0  0  0  0
 22 40  1  6  0  0  0
 41 39  1  0  0  0  0
 42  8  1  0  0  0  0
 43 37  1  0  0  0  0
 44 37  2  0  0  0  0
 45 44  1  0  0  0  0
 46 43  2  0  0  0  0
 47 19  1  0  0  0  0
 30 48  1  1  0  0  0
 34 49  1  6  0  0  0
 50 38  1  0  0  0  0
 38 51  1  6  0  0  0
 52 50  1  0  0  0  0
  3 53  1  6  0  0  0
  1 54  1  1  0  0  0
 17 55  1  6  0  0  0
 28 56  1  6  0  0  0
 16 57  1  1  0  0  0
  7  3  1  0  0  0  0
 21  9  1  0  0  0  0
 15  6  1  0  0  0  0
 19 22  1  0  0  0  0
 30 16  1  0  0  0  0
 39 45  2  0  0  0  0
M  END
>  <IDNUMBER>
F3409-0817

>  <Chemical_Name>
(1'R,2R,4'S,5S,6R,8'R,10'E,12'S,13'S,14'E,16'E,20'R,21'R,24'S)-6-[(2S)-butan-2-yl]-12',24'-dihydroxy-5,11',13',22'-tetramethyl-2'-oxo-3',7',19'-trioxaspiro[oxane-2,6'-tetracyclo[15.6.1.1?,?.0??,??]pentacosane]-10',14',16',22'-tetraen-21'-yl N-(4-chlorophenyl)carbamate

>  <PriceCoeff>
7.00

>  <MW>
740.33

>  <Description>
solid

>  <FSP3>
0.61

>  <clogP>
7.63

>  <TPSA>
132.78

>  <Acceptor>
9

>  <Donor>
3

>  <RotBonds>
5

>  <HAC>
52

$$$$
F3409-0818
  Mrv2219 10102508112D          

 58 63  0  0  0  0            999 V2000
    6.0482   -2.6244    0.0000 C   0  0  2  0  0  0  0  0  0  0  0  0
    5.3158   -3.0807    0.0000 C   0  0  1  0  0  0  0  0  0  0  0  0
    5.3158   -3.9052    0.0000 C   0  0  1  0  0  0  0  0  0  0  0  0
    6.0399   -1.7788    0.0000 C   0  0  0  0  0  0  0  0  0  0  0  0
    6.7137   -3.0304    0.0000 C   0  0  0  0  0  0  0  0  0  0  0  0
    7.4631    0.6989    0.0000 C   0  0  2  0  0  0  0  0  0  0  0  0
    6.0482   -4.3070    0.0000 C   0  0  1  0  0  0  0  0  0  0  0  0
    6.7137   -3.9052    0.0000 C   0  0  0  0  0  0  0  0  0  0  0  0
    4.5498   -4.1815    0.0000 O   0  0  0  0  0  0  0  0  0  0  0  0
    4.5498   -2.8421    0.0000 C   0  0  0  0  0  0  0  0  0  0  0  0
    7.4631    1.5528    0.0000 O   0  0  0  0  0  0  0  0  0  0  0  0
    6.7137   -1.3855    0.0000 O   0  0  0  0  0  0  0  0  0  0  0  0
    6.7975   -5.5251    0.0000 C   0  0  0  0  0  0  0  0  0  0  0  0
    7.4631   -0.1507    0.0000 C   0  0  0  0  0  0  0  0  0  0  0  0
    6.7430    1.1259    0.0000 O   0  0  0  0  0  0  0  0  0  0  0  0
    8.1703    1.9086    0.0000 C   0  0  1  0  0  0  0  0  0  0  0  0
    6.7137   -0.5482    0.0000 C   0  0  2  0  0  0  0  0  0  0  0  0
    6.0733   -5.1316    0.0000 O   0  0  0  0  0  0  0  0  0  0  0  0
    3.9177    1.1761    0.0000 C   0  0  0  0  0  0  0  0  0  0  0  0
    4.6292    0.7534    0.0000 C   0  0  0  0  0  0  0  0  0  0  0  0
    4.0684   -3.4574    0.0000 C   0  0  0  0  0  0  0  0  0  0  0  0
    3.1811    0.7534    0.0000 C   0  0  2  0  0  0  0  0  0  0  0  0
    6.8184   -6.3664    0.0000 N   0  0  0  0  0  0  0  0  0  0  0  0
    4.5498   -1.9840    0.0000 C   0  0  0  0  0  0  0  0  0  0  0  0
    5.3158   -1.3604    0.0000 O   0  0  0  0  0  0  0  0  0  0  0  0
    4.0014   -1.5696    0.0000 C   0  0  0  0  0  0  0  0  0  0  0  0
    6.0482   -0.1381    0.0000 C   0  0  0  0  0  0  0  0  0  0  0  0
    6.0482    0.7325    0.0000 C   0  0  1  0  0  0  0  0  0  0  0  0
    7.4965   -5.0855    0.0000 O   0  0  0  0  0  0  0  0  0  0  0  0
    8.8233    1.4860    0.0000 C   0  0  2  0  0  0  0  0  0  0  0  0
    4.0014   -0.6823    0.0000 C   0  0  0  0  0  0  0  0  0  0  0  0
    5.3074   -2.1681    0.0000 O   0  0  0  0  0  0  0  0  0  0  0  0
    8.1160    0.3349    0.0000 C   0  0  0  0  0  0  0  0  0  0  0  0
    3.1811   -0.1507    0.0000 C   0  0  2  0  0  0  0  0  0  0  0  0
    8.8400    0.7241    0.0000 C   0  0  0  0  0  0  0  0  0  0  0  0
    5.3409    1.1761    0.0000 C   0  0  0  0  0  0  0  0  0  0  0  0
    7.5425   -6.7598    0.0000 C   0  0  0  0  0  0  0  0  0  0  0  0
    7.8523    2.6620    0.0000 C   0  0  2  0  0  0  0  0  0  0  0  0
    2.4905    1.1761    0.0000 O   0  0  0  0  0  0  0  0  0  0  0  0
    8.9865   -7.5384    0.0000 C   0  0  0  0  0  0  0  0  0  0  0  0
    7.4128   -4.3279    0.0000 C   0  0  0  0  0  0  0  0  0  0  0  0
    7.5634   -7.5801    0.0000 C   0  0  0  0  0  0  0  0  0  0  0  0
    8.2373   -6.3245    0.0000 C   0  0  0  0  0  0  0  0  0  0  0  0
    8.9614   -6.7096    0.0000 C   0  0  0  0  0  0  0  0  0  0  0  0
    8.2834   -7.9736    0.0000 C   0  0  0  0  0  0  0  0  0  0  0  0
    9.7107   -7.9276    0.0000 O   0  0  0  0  0  0  0  0  0  0  0  0
    3.9010    2.0887    0.0000 C   0  0  0  0  0  0  0  0  0  0  0  0
    9.5433    1.8667    0.0000 C   0  0  0  0  0  0  0  0  0  0  0  0
    2.4905   -0.5482    0.0000 C   0  0  0  0  0  0  0  0  0  0  0  0
    7.0528    2.7876    0.0000 C   0  0  0  0  0  0  0  0  0  0  0  0
    8.4383    3.3444    0.0000 C   0  0  0  0  0  0  0  0  0  0  0  0
   10.4180   -7.4965    0.0000 C   0  0  0  0  0  0  0  0  0  0  0  0
    6.8979    3.6121    0.0000 C   0  0  0  0  0  0  0  0  0  0  0  0
    6.7430   -2.2058    0.0000 H   0  0  0  0  0  0  0  0  0  0  0  0
    7.3751   -1.0129    0.0000 H   0  0  0  0  0  0  0  0  0  0  0  0
    6.0650    1.7454    0.0000 H   0  0  0  0  0  0  0  0  0  0  0  0
    8.7772    2.4529    0.0000 H   0  0  0  0  0  0  0  0  0  0  0  0
    5.3074   -4.8176    0.0000 H   0  0  0  0  0  0  0  0  0  0  0  0
  2  1  1  0  0  0  0
  3  2  1  0  0  0  0
  4  1  1  0  0  0  0
  5  1  1  0  0  0  0
  6 14  1  0  0  0  0
  7  8  1  0  0  0  0
  8  5  2  0  0  0  0
  9  3  1  0  0  0  0
 10  2  1  0  0  0  0
 11  6  1  0  0  0  0
 12  4  1  0  0  0  0
 13 18  1  0  0  0  0
 14 17  1  0  0  0  0
 15 28  1  0  0  0  0
 16 11  1  0  0  0  0
 17 12  1  0  0  0  0
  7 18  1  1  0  0  0
 19 20  2  0  0  0  0
 20 36  1  0  0  0  0
 21 10  1  0  0  0  0
 22 34  1  0  0  0  0
 23 13  1  0  0  0  0
 24 10  2  0  0  0  0
 25  4  2  0  0  0  0
 26 24  1  0  0  0  0
 27 17  1  0  0  0  0
 28 27  1  0  0  0  0
 29 13  2  0  0  0  0
 30 35  1  0  0  0  0
 31 26  2  0  0  0  0
  2 32  1  6  0  0  0
  6 33  1  1  0  0  0
 34 31  1  0  0  0  0
 35 33  1  0  0  0  0
 36 28  1  0  0  0  0
 37 23  1  0  0  0  0
 38 16  1  0  0  0  0
 22 39  1  6  0  0  0
 40 44  1  0  0  0  0
 41  8  1  0  0  0  0
 42 37  2  0  0  0  0
 43 37  1  0  0  0  0
 44 43  2  0  0  0  0
 45 42  1  0  0  0  0
 46 40  1  0  0  0  0
 47 19  1  0  0  0  0
 30 48  1  1  0  0  0
 34 49  1  6  0  0  0
 50 38  1  0  0  0  0
 38 51  1  6  0  0  0
 52 46  1  0  0  0  0
 53 50  1  0  0  0  0
  1 54  1  1  0  0  0
 17 55  1  6  0  0  0
 28 56  1  6  0  0  0
 16 57  1  1  0  0  0
  3 58  1  6  0  0  0
  7  3  1  0  0  0  0
 21  9  1  0  0  0  0
 15  6  1  0  0  0  0
 19 22  1  0  0  0  0
 30 16  1  0  0  0  0
 40 45  2  0  0  0  0
M  END
>  <IDNUMBER>
F3409-0818

>  <Chemical_Name>
(1'R,2R,4'S,5S,6R,8'R,10'E,12'S,13'S,14'E,16'E,20'R,21'R,24'S)-6-[(2S)-butan-2-yl]-12',24'-dihydroxy-5,11',13',22'-tetramethyl-2'-oxo-3',7',19'-trioxaspiro[oxane-2,6'-tetracyclo[15.6.1.1?,?.0??,??]pentacosane]-10',14',16',22'-tetraen-21'-yl N-(4-methoxyphenyl)carbamate

>  <PriceCoeff>
7.00

>  <MW>
735.92

>  <Description>
solid

>  <FSP3>
0.62

>  <clogP>
6.75

>  <TPSA>
142.01

>  <Acceptor>
10

>  <Donor>
3

>  <RotBonds>
6

>  <HAC>
53

$$$$
F3409-0821
  Mrv2219 10102508112D          

 56 61  0  0  0  0            999 V2000
    3.2554   -5.5896    0.0000 C   0  0  2  0  0  0  0  0  0  0  0  0
    2.5325   -6.0399    0.0000 C   0  0  1  0  0  0  0  0  0  0  0  0
    2.5325   -6.8537    0.0000 C   0  0  1  0  0  0  0  0  0  0  0  0
    3.2472   -4.7550    0.0000 C   0  0  0  0  0  0  0  0  0  0  0  0
    3.9123   -5.9903    0.0000 C   0  0  0  0  0  0  0  0  0  0  0  0
    4.6518   -2.3094    0.0000 C   0  0  2  0  0  0  0  0  0  0  0  0
    3.2554   -7.2503    0.0000 C   0  0  1  0  0  0  0  0  0  0  0  0
    3.9123   -6.8537    0.0000 C   0  0  0  0  0  0  0  0  0  0  0  0
    1.7765   -7.1264    0.0000 O   0  0  0  0  0  0  0  0  0  0  0  0
    1.7765   -5.8044    0.0000 C   0  0  0  0  0  0  0  0  0  0  0  0
    3.2802   -8.0642    0.0000 O   0  0  0  0  0  0  0  0  0  0  0  0
    4.6518   -1.4666    0.0000 O   0  0  0  0  0  0  0  0  0  0  0  0
    3.9949   -8.4525    0.0000 C   0  0  0  0  0  0  0  0  0  0  0  0
    3.9123   -4.3668    0.0000 O   0  0  0  0  0  0  0  0  0  0  0  0
    4.6518   -3.1480    0.0000 C   0  0  0  0  0  0  0  0  0  0  0  0
    3.9412   -1.8880    0.0000 O   0  0  0  0  0  0  0  0  0  0  0  0
    5.3499   -1.1154    0.0000 C   0  0  1  0  0  0  0  0  0  0  0  0
    3.9123   -3.5404    0.0000 C   0  0  2  0  0  0  0  0  0  0  0  0
    1.1526   -1.8384    0.0000 C   0  0  0  0  0  0  0  0  0  0  0  0
    1.8549   -2.2557    0.0000 C   0  0  0  0  0  0  0  0  0  0  0  0
    4.0156   -9.2829    0.0000 C   0  0  0  0  0  0  0  0  0  0  0  0
    1.3013   -6.4117    0.0000 C   0  0  0  0  0  0  0  0  0  0  0  0
    0.4256   -2.2557    0.0000 C   0  0  2  0  0  0  0  0  0  0  0  0
    1.7765   -4.9575    0.0000 C   0  0  0  0  0  0  0  0  0  0  0  0
    2.5325   -4.3420    0.0000 O   0  0  0  0  0  0  0  0  0  0  0  0
    1.2352   -4.5485    0.0000 C   0  0  0  0  0  0  0  0  0  0  0  0
    3.2554   -3.1356    0.0000 C   0  0  0  0  0  0  0  0  0  0  0  0
    3.2554   -2.2763    0.0000 C   0  0  1  0  0  0  0  0  0  0  0  0
    4.6848   -8.0187    0.0000 O   0  0  0  0  0  0  0  0  0  0  0  0
    3.3050   -9.7125    0.0000 C   0  0  0  0  0  0  0  0  0  0  0  0
    5.9944   -1.5327    0.0000 C   0  0  2  0  0  0  0  0  0  0  0  0
    1.2352   -3.6727    0.0000 C   0  0  0  0  0  0  0  0  0  0  0  0
    2.5242   -5.1392    0.0000 O   0  0  0  0  0  0  0  0  0  0  0  0
    5.2963   -2.6688    0.0000 C   0  0  0  0  0  0  0  0  0  0  0  0
    0.4256   -3.1480    0.0000 C   0  0  2  0  0  0  0  0  0  0  0  0
    6.0110   -2.2846    0.0000 C   0  0  0  0  0  0  0  0  0  0  0  0
    2.5573   -1.8384    0.0000 C   0  0  0  0  0  0  0  0  0  0  0  0
    5.0360   -0.3718    0.0000 C   0  0  2  0  0  0  0  0  0  0  0  0
    3.3257  -10.5429    0.0000 C   0  0  0  0  0  0  0  0  0  0  0  0
   -0.2561   -1.8384    0.0000 O   0  0  0  0  0  0  0  0  0  0  0  0
    2.6275  -10.9684    0.0000 Br  0  0  0  0  0  0  0  0  0  0  0  0
    4.6022   -7.2710    0.0000 C   0  0  0  0  0  0  0  0  0  0  0  0
    1.1361   -0.9378    0.0000 C   0  0  0  0  0  0  0  0  0  0  0  0
    4.7426   -9.6753    0.0000 C   0  0  0  0  0  0  0  0  0  0  0  0
    4.7674  -10.5017    0.0000 C   0  0  0  0  0  0  0  0  0  0  0  0
    4.0569  -10.9395    0.0000 C   0  0  0  0  0  0  0  0  0  0  0  0
    6.7050   -1.1568    0.0000 C   0  0  0  0  0  0  0  0  0  0  0  0
   -0.2561   -3.5404    0.0000 C   0  0  0  0  0  0  0  0  0  0  0  0
    4.2469   -0.2479    0.0000 C   0  0  0  0  0  0  0  0  0  0  0  0
    5.6144    0.3016    0.0000 C   0  0  0  0  0  0  0  0  0  0  0  0
    4.0941    0.5659    0.0000 C   0  0  0  0  0  0  0  0  0  0  0  0
    5.9490   -0.5783    0.0000 H   0  0  0  0  0  0  0  0  0  0  0  0
    2.5242   -7.7543    0.0000 H   0  0  0  0  0  0  0  0  0  0  0  0
    3.9412   -5.1764    0.0000 H   0  0  0  0  0  0  0  0  0  0  0  0
    4.5651   -3.9990    0.0000 H   0  0  0  0  0  0  0  0  0  0  0  0
    3.2719   -1.2766    0.0000 H   0  0  0  0  0  0  0  0  0  0  0  0
  2  1  1  0  0  0  0
  3  2  1  0  0  0  0
  4  1  1  0  0  0  0
  5  1  1  0  0  0  0
  6 15  1  0  0  0  0
  7  8  1  0  0  0  0
  8  5  2  0  0  0  0
  9  3  1  0  0  0  0
 10  2  1  0  0  0  0
  7 11  1  1  0  0  0
 12  6  1  0  0  0  0
 13 11  1  0  0  0  0
 14  4  1  0  0  0  0
 15 18  1  0  0  0  0
 16 28  1  0  0  0  0
 17 12  1  0  0  0  0
 18 14  1  0  0  0  0
 19 20  2  0  0  0  0
 20 37  1  0  0  0  0
 21 13  1  0  0  0  0
 22 10  1  0  0  0  0
 23 35  1  0  0  0  0
 24 10  2  0  0  0  0
 25  4  2  0  0  0  0
 26 24  1  0  0  0  0
 27 18  1  0  0  0  0
 28 27  1  0  0  0  0
 29 13  2  0  0  0  0
 30 21  2  0  0  0  0
 31 36  1  0  0  0  0
 32 26  2  0  0  0  0
  2 33  1  6  0  0  0
  6 34  1  1  0  0  0
 35 32  1  0  0  0  0
 36 34  1  0  0  0  0
 37 28  1  0  0  0  0
 38 17  1  0  0  0  0
 39 30  1  0  0  0  0
 23 40  1  6  0  0  0
 41 39  1  0  0  0  0
 42  8  1  0  0  0  0
 43 19  1  0  0  0  0
 44 21  1  0  0  0  0
 45 44  2  0  0  0  0
 46 45  1  0  0  0  0
 31 47  1  1  0  0  0
 35 48  1  6  0  0  0
 49 38  1  0  0  0  0
 38 50  1  6  0  0  0
 51 49  1  0  0  0  0
 17 52  1  1  0  0  0
  3 53  1  6  0  0  0
  1 54  1  1  0  0  0
 18 55  1  6  0  0  0
 28 56  1  6  0  0  0
  7  3  1  0  0  0  0
 22  9  1  0  0  0  0
 16  6  1  0  0  0  0
 19 23  1  0  0  0  0
 31 17  1  0  0  0  0
 46 39  2  0  0  0  0
M  END
>  <IDNUMBER>
F3409-0821

>  <Chemical_Name>
(1'R,2R,4'S,5S,6R,8'R,10'E,12'S,13'S,14'E,16'E,20'R,21'R,24'S)-6-[(2S)-butan-2-yl]-12',24'-dihydroxy-5,11',13',22'-tetramethyl-2'-oxo-3',7',19'-trioxaspiro[oxane-2,6'-tetracyclo[15.6.1.1?,?.0??,??]pentacosane]-10',14',16',22'-tetraen-21'-yl 3-bromobenzoate

>  <PriceCoeff>
7.00

>  <MW>
769.77

>  <Description>
solid

>  <FSP3>
0.61

>  <clogP>
7.95

>  <TPSA>
120.75

>  <Acceptor>
9

>  <Donor>
2

>  <RotBonds>
5

>  <HAC>
51

$$$$
F3409-0840
  Mrv2219 10102508112D          

 56 61  0  0  0  0            999 V2000
   -1.8882    0.5719    0.0000 C   0  0  2  0  0  0  0  0  0  0  0  0
   -2.6186    0.1171    0.0000 C   0  0  1  0  0  0  0  0  0  0  0  0
   -2.6186   -0.7029    0.0000 C   0  0  2  0  0  0  0  0  0  0  0  0
   -1.9019    1.4128    0.0000 C   0  0  0  0  0  0  0  0  0  0  0  0
   -1.2267    0.1724    0.0000 C   0  0  0  0  0  0  0  0  0  0  0  0
   -0.4825    3.8797    0.0000 C   0  0  2  0  0  0  0  0  0  0  0  0
   -1.2267   -0.7029    0.0000 C   0  0  0  0  0  0  0  0  0  0  0  0
   -3.3835   -0.9717    0.0000 O   0  0  0  0  0  0  0  0  0  0  0  0
   -3.3835    0.3584    0.0000 C   0  0  0  0  0  0  0  0  0  0  0  0
   -1.8882   -1.1027    0.0000 C   0  0  1  0  0  0  0  0  0  0  0  0
   -0.4825    4.7274    0.0000 O   0  0  0  0  0  0  0  0  0  0  0  0
   -5.4234    4.3552    0.0000 O   0  0  0  0  0  0  0  0  0  0  0  0
   -1.2267    1.8055    0.0000 O   0  0  0  0  0  0  0  0  0  0  0  0
   -5.4028    5.1753    0.0000 C   0  0  0  0  0  0  0  0  0  0  0  0
   -4.7412    3.9349    0.0000 C   0  0  2  0  0  0  0  0  0  0  0  0
   -0.4825    3.0321    0.0000 C   0  0  0  0  0  0  0  0  0  0  0  0
   -1.1991    4.3001    0.0000 O   0  0  0  0  0  0  0  0  0  0  0  0
    0.2205    5.0787    0.0000 C   0  0  1  0  0  0  0  0  0  0  0  0
   -1.2267    2.6393    0.0000 C   0  0  2  0  0  0  0  0  0  0  0  0
   -4.0107    4.3552    0.0000 C   0  0  0  0  0  0  0  0  0  0  0  0
   -3.3008    3.9349    0.0000 C   0  0  0  0  0  0  0  0  0  0  0  0
   -3.8590   -0.2551    0.0000 C   0  0  0  0  0  0  0  0  0  0  0  0
   -6.1124    5.6026    0.0000 C   0  0  0  0  0  0  0  0  0  0  0  0
   -3.3835    1.2128    0.0000 C   0  0  0  0  0  0  0  0  0  0  0  0
   -2.6186    1.8330    0.0000 O   0  0  0  0  0  0  0  0  0  0  0  0
   -3.9280    1.6194    0.0000 C   0  0  0  0  0  0  0  0  0  0  0  0
   -1.8882    3.0460    0.0000 C   0  0  0  0  0  0  0  0  0  0  0  0
   -1.8882    3.9142    0.0000 C   0  0  1  0  0  0  0  0  0  0  0  0
   -4.6792    5.5682    0.0000 O   0  0  0  0  0  0  0  0  0  0  0  0
   -4.7412    3.0321    0.0000 C   0  0  2  0  0  0  0  0  0  0  0  0
    0.8683    4.6585    0.0000 C   0  0  2  0  0  0  0  0  0  0  0  0
   -3.9280    2.5015    0.0000 C   0  0  0  0  0  0  0  0  0  0  0  0
   -2.6256    1.0267    0.0000 O   0  0  0  0  0  0  0  0  0  0  0  0
    0.1654    3.5145    0.0000 C   0  0  0  0  0  0  0  0  0  0  0  0
   -6.0850    6.4364    0.0000 C   0  0  0  0  0  0  0  0  0  0  0  0
   -6.8293    5.2167    0.0000 C   0  0  0  0  0  0  0  0  0  0  0  0
    0.8889    3.9003    0.0000 C   0  0  0  0  0  0  0  0  0  0  0  0
   -2.5980    4.3552    0.0000 C   0  0  0  0  0  0  0  0  0  0  0  0
   -0.0964    5.8300    0.0000 C   0  0  2  0  0  0  0  0  0  0  0  0
   -1.8675   -1.9226    0.0000 O   0  0  0  0  0  0  0  0  0  0  0  0
   -7.5321    5.6509    0.0000 C   0  0  0  0  0  0  0  0  0  0  0  0
   -6.7810    6.8637    0.0000 C   0  0  0  0  0  0  0  0  0  0  0  0
   -7.5115    6.4708    0.0000 C   0  0  0  0  0  0  0  0  0  0  0  0
   -0.5375   -1.1233    0.0000 C   0  0  0  0  0  0  0  0  0  0  0  0
   -4.0244    5.2580    0.0000 C   0  0  0  0  0  0  0  0  0  0  0  0
   -5.4234    2.6393    0.0000 C   0  0  0  0  0  0  0  0  0  0  0  0
    1.5850    5.0374    0.0000 C   0  0  0  0  0  0  0  0  0  0  0  0
   -0.8889    5.9540    0.0000 C   0  0  0  0  0  0  0  0  0  0  0  0
    0.4893    6.5052    0.0000 C   0  0  0  0  0  0  0  0  0  0  0  0
   -8.2143    6.9050    0.0000 C   0  0  0  0  0  0  0  0  0  0  0  0
   -1.0474    6.7740    0.0000 C   0  0  0  0  0  0  0  0  0  0  0  0
    0.8269    5.6232    0.0000 H   0  0  0  0  0  0  0  0  0  0  0  0
   -2.6256   -1.6056    0.0000 H   0  0  0  0  0  0  0  0  0  0  0  0
   -1.1991    0.9854    0.0000 H   0  0  0  0  0  0  0  0  0  0  0  0
   -0.5719    2.1777    0.0000 H   0  0  0  0  0  0  0  0  0  0  0  0
   -1.8743    4.9203    0.0000 H   0  0  0  0  0  0  0  0  0  0  0  0
  2  1  1  0  0  0  0
  3  2  1  0  0  0  0
  4  1  1  0  0  0  0
  5  1  1  0  0  0  0
  6 16  1  0  0  0  0
  7  5  2  0  0  0  0
  8  3  1  0  0  0  0
  9  2  1  0  0  0  0
 10  7  1  0  0  0  0
 11  6  1  0  0  0  0
 15 12  1  6  0  0  0
 13  4  1  0  0  0  0
 14 12  1  0  0  0  0
 15 30  1  0  0  0  0
 16 19  1  0  0  0  0
 17 28  1  0  0  0  0
 18 11  1  0  0  0  0
 19 13  1  0  0  0  0
 20 21  2  0  0  0  0
 21 38  1  0  0  0  0
 22  9  1  0  0  0  0
 23 14  1  0  0  0  0
 24  9  2  0  0  0  0
 25  4  2  0  0  0  0
 26 24  1  0  0  0  0
 27 19  1  0  0  0  0
 28 27  1  0  0  0  0
 29 14  2  0  0  0  0
 30 32  1  0  0  0  0
 31 37  1  0  0  0  0
 32 26  2  0  0  0  0
  2 33  1  6  0  0  0
  6 34  1  1  0  0  0
 35 23  2  0  0  0  0
 36 23  1  0  0  0  0
 37 34  1  0  0  0  0
 38 28  1  0  0  0  0
 39 18  1  0  0  0  0
 10 40  1  1  0  0  0
 41 36  2  0  0  0  0
 42 35  1  0  0  0  0
 43 41  1  0  0  0  0
 44  7  1  0  0  0  0
 45 20  1  0  0  0  0
 30 46  1  6  0  0  0
 31 47  1  1  0  0  0
 48 39  1  0  0  0  0
 39 49  1  6  0  0  0
 50 43  1  0  0  0  0
 51 48  1  0  0  0  0
 18 52  1  1  0  0  0
  3 53  1  6  0  0  0
  1 54  1  1  0  0  0
 19 55  1  6  0  0  0
 28 56  1  6  0  0  0
 10  3  1  0  0  0  0
 22  8  1  0  0  0  0
 17  6  1  0  0  0  0
 20 15  1  0  0  0  0
 31 18  1  0  0  0  0
 43 42  2  0  0  0  0
M  END
>  <IDNUMBER>
F3409-0840

>  <Chemical_Name>
(1'R,2R,4'S,5S,6R,8'R,10'E,12'S,13'S,14'E,16'E,20'R,21'R,24'S)-6-[(2S)-butan-2-yl]-21',24'-dihydroxy-5,11',13',22'-tetramethyl-2'-oxo-3',7',19'-trioxaspiro[oxane-2,6'-tetracyclo[15.6.1.1?,?.0??,??]pentacosane]-10',14',16',22'-tetraen-12'-yl 4-methylbenzoate

>  <PriceCoeff>
7.00

>  <CAS>
1296739-12-2

>  <MW>
704.90

>  <Description>
solid

>  <FSP3>
0.62

>  <clogP>
8.49

>  <TPSA>
120.75

>  <Acceptor>
9

>  <Donor>
2

>  <RotBonds>
5

>  <HAC>
51

$$$$
F3409-0841
  Mrv2219 10102508112D          

 56 61  0  0  0  0            999 V2000
    7.0717   -4.1346    0.0000 C   0  0  2  0  0  0  0  0  0  0  0  0
    6.3416   -4.5893    0.0000 C   0  0  1  0  0  0  0  0  0  0  0  0
    6.3416   -5.4113    0.0000 C   0  0  2  0  0  0  0  0  0  0  0  0
    7.0634   -3.2918    0.0000 C   0  0  0  0  0  0  0  0  0  0  0  0
    7.7351   -4.5392    0.0000 C   0  0  0  0  0  0  0  0  0  0  0  0
    8.4819   -0.8219    0.0000 C   0  0  2  0  0  0  0  0  0  0  0  0
    7.7351   -5.4113    0.0000 C   0  0  0  0  0  0  0  0  0  0  0  0
    5.5781   -5.6866    0.0000 O   0  0  0  0  0  0  0  0  0  0  0  0
    5.5781   -4.3515    0.0000 C   0  0  0  0  0  0  0  0  0  0  0  0
    7.0717   -5.8118    0.0000 C   0  0  1  0  0  0  0  0  0  0  0  0
    8.4819    0.0250    0.0000 O   0  0  0  0  0  0  0  0  0  0  0  0
    3.5504    0.4798    0.0000 C   0  0  0  0  0  0  0  0  0  0  0  0
    3.5296   -0.3463    0.0000 O   0  0  0  0  0  0  0  0  0  0  0  0
    7.7351   -2.8996    0.0000 O   0  0  0  0  0  0  0  0  0  0  0  0
    4.2138   -0.7677    0.0000 C   0  0  2  0  0  0  0  0  0  0  0  0
    8.4819   -1.6689    0.0000 C   0  0  0  0  0  0  0  0  0  0  0  0
    7.7644   -0.3963    0.0000 O   0  0  0  0  0  0  0  0  0  0  0  0
    9.1870    0.3838    0.0000 C   0  0  1  0  0  0  0  0  0  0  0  0
    7.7351   -2.0652    0.0000 C   0  0  2  0  0  0  0  0  0  0  0  0
    4.9482   -0.3463    0.0000 C   0  0  0  0  0  0  0  0  0  0  0  0
    5.6574   -0.7677    0.0000 C   0  0  0  0  0  0  0  0  0  0  0  0
    2.8454    0.9095    0.0000 C   0  0  0  0  0  0  0  0  0  0  0  0
    5.0984   -4.9648    0.0000 C   0  0  0  0  0  0  0  0  0  0  0  0
    5.5781   -3.4963    0.0000 C   0  0  0  0  0  0  0  0  0  0  0  0
    6.3416   -2.8746    0.0000 O   0  0  0  0  0  0  0  0  0  0  0  0
    5.0316   -3.0832    0.0000 C   0  0  0  0  0  0  0  0  0  0  0  0
    7.0717   -1.6564    0.0000 C   0  0  0  0  0  0  0  0  0  0  0  0
    7.0717   -0.7885    0.0000 C   0  0  1  0  0  0  0  0  0  0  0  0
    4.2764    0.8719    0.0000 O   0  0  0  0  0  0  0  0  0  0  0  0
    4.2138   -1.6689    0.0000 C   0  0  2  0  0  0  0  0  0  0  0  0
    2.1236    0.5215    0.0000 C   0  0  0  0  0  0  0  0  0  0  0  0
    9.8379   -0.0375    0.0000 C   0  0  2  0  0  0  0  0  0  0  0  0
    5.0316   -2.1987    0.0000 C   0  0  0  0  0  0  0  0  0  0  0  0
    6.3333   -3.6798    0.0000 O   0  0  0  0  0  0  0  0  0  0  0  0
    9.1327   -1.1848    0.0000 C   0  0  0  0  0  0  0  0  0  0  0  0
    9.8546   -0.7968    0.0000 C   0  0  0  0  0  0  0  0  0  0  0  0
    6.3625   -0.3463    0.0000 C   0  0  0  0  0  0  0  0  0  0  0  0
    8.8699    1.1348    0.0000 C   0  0  2  0  0  0  0  0  0  0  0  0
    7.0968   -6.6337    0.0000 O   0  0  0  0  0  0  0  0  0  0  0  0
    1.4186    0.9470    0.0000 C   0  0  0  0  0  0  0  0  0  0  0  0
    8.4277   -5.8326    0.0000 C   0  0  0  0  0  0  0  0  0  0  0  0
    4.9315    0.5632    0.0000 C   0  0  0  0  0  0  0  0  0  0  0  0
    2.8705    1.7398    0.0000 C   0  0  0  0  0  0  0  0  0  0  0  0
    2.1695    2.1736    0.0000 C   0  0  0  0  0  0  0  0  0  0  0  0
    3.5296   -2.0652    0.0000 C   0  0  0  0  0  0  0  0  0  0  0  0
   10.5555    0.3421    0.0000 C   0  0  0  0  0  0  0  0  0  0  0  0
    1.4394    1.7773    0.0000 C   0  0  0  0  0  0  0  0  0  0  0  0
    8.0731    1.2599    0.0000 C   0  0  0  0  0  0  0  0  0  0  0  0
    9.4541    1.8149    0.0000 C   0  0  0  0  0  0  0  0  0  0  0  0
    0.6967    0.5549    0.0000 C   0  0  0  0  0  0  0  0  0  0  0  0
    7.9187    2.0819    0.0000 C   0  0  0  0  0  0  0  0  0  0  0  0
    9.7920    0.9262    0.0000 H   0  0  0  0  0  0  0  0  0  0  0  0
    6.3333   -6.3208    0.0000 H   0  0  0  0  0  0  0  0  0  0  0  0
    7.7644   -3.7174    0.0000 H   0  0  0  0  0  0  0  0  0  0  0  0
    8.3943   -2.5283    0.0000 H   0  0  0  0  0  0  0  0  0  0  0  0
    7.0885    0.2211    0.0000 H   0  0  0  0  0  0  0  0  0  0  0  0
  2  1  1  0  0  0  0
  3  2  1  0  0  0  0
  4  1  1  0  0  0  0
  5  1  1  0  0  0  0
  6 16  1  0  0  0  0
  7  5  2  0  0  0  0
  8  3  1  0  0  0  0
  9  2  1  0  0  0  0
 10  7  1  0  0  0  0
 11  6  1  0  0  0  0
 12 13  1  0  0  0  0
 15 13  1  6  0  0  0
 14  4  1  0  0  0  0
 15 30  1  0  0  0  0
 16 19  1  0  0  0  0
 17 28  1  0  0  0  0
 18 11  1  0  0  0  0
 19 14  1  0  0  0  0
 20 21  2  0  0  0  0
 21 37  1  0  0  0  0
 22 12  1  0  0  0  0
 23  9  1  0  0  0  0
 24  9  2  0  0  0  0
 25  4  2  0  0  0  0
 26 24  1  0  0  0  0
 27 19  1  0  0  0  0
 28 27  1  0  0  0  0
 29 12  2  0  0  0  0
 30 33  1  0  0  0  0
 31 22  1  0  0  0  0
 32 36  1  0  0  0  0
 33 26  2  0  0  0  0
  2 34  1  6  0  0  0
  6 35  1  1  0  0  0
 36 35  1  0  0  0  0
 37 28  1  0  0  0  0
 38 18  1  0  0  0  0
 10 39  1  1  0  0  0
 40 31  2  0  0  0  0
 41  7  1  0  0  0  0
 42 20  1  0  0  0  0
 43 22  2  0  0  0  0
 44 43  1  0  0  0  0
 30 45  1  6  0  0  0
 32 46  1  1  0  0  0
 47 40  1  0  0  0  0
 48 38  1  0  0  0  0
 38 49  1  6  0  0  0
 50 40  1  0  0  0  0
 51 48  1  0  0  0  0
 18 52  1  1  0  0  0
  3 53  1  6  0  0  0
  1 54  1  1  0  0  0
 19 55  1  6  0  0  0
 28 56  1  6  0  0  0
 10  3  1  0  0  0  0
 23  8  1  0  0  0  0
 17  6  1  0  0  0  0
 20 15  1  0  0  0  0
 32 18  1  0  0  0  0
 47 44  2  0  0  0  0
M  END
>  <IDNUMBER>
F3409-0841

>  <Chemical_Name>
(1'R,2R,4'S,5S,6R,8'R,10'E,12'S,13'S,14'E,16'E,20'R,21'R,24'S)-6-[(2S)-butan-2-yl]-21',24'-dihydroxy-5,11',13',22'-tetramethyl-2'-oxo-3',7',19'-trioxaspiro[oxane-2,6'-tetracyclo[15.6.1.1?,?.0??,??]pentacosane]-10',14',16',22'-tetraen-12'-yl 3-methylbenzoate

>  <PriceCoeff>
7.00

>  <MW>
704.90

>  <Description>
solid

>  <FSP3>
0.62

>  <clogP>
8.49

>  <TPSA>
120.75

>  <Acceptor>
9

>  <Donor>
2

>  <RotBonds>
5

>  <HAC>
51

$$$$
F3409-0842
  Mrv2219 10102508112D          

 56 61  0  0  0  0            999 V2000
    7.0717   -4.1346    0.0000 C   0  0  2  0  0  0  0  0  0  0  0  0
    6.3416   -4.5893    0.0000 C   0  0  1  0  0  0  0  0  0  0  0  0
    6.3416   -5.4113    0.0000 C   0  0  2  0  0  0  0  0  0  0  0  0
    7.0634   -3.2918    0.0000 C   0  0  0  0  0  0  0  0  0  0  0  0
    7.7351   -4.5392    0.0000 C   0  0  0  0  0  0  0  0  0  0  0  0
    8.4819   -0.8219    0.0000 C   0  0  2  0  0  0  0  0  0  0  0  0
    7.7351   -5.4113    0.0000 C   0  0  0  0  0  0  0  0  0  0  0  0
    5.5781   -5.6866    0.0000 O   0  0  0  0  0  0  0  0  0  0  0  0
    5.5781   -4.3515    0.0000 C   0  0  0  0  0  0  0  0  0  0  0  0
    7.0717   -5.8118    0.0000 C   0  0  1  0  0  0  0  0  0  0  0  0
    8.4819    0.0250    0.0000 O   0  0  0  0  0  0  0  0  0  0  0  0
    3.5296   -0.3463    0.0000 O   0  0  0  0  0  0  0  0  0  0  0  0
    7.7351   -2.8996    0.0000 O   0  0  0  0  0  0  0  0  0  0  0  0
    3.5504    0.4798    0.0000 C   0  0  0  0  0  0  0  0  0  0  0  0
    4.2138   -0.7677    0.0000 C   0  0  2  0  0  0  0  0  0  0  0  0
    8.4819   -1.6689    0.0000 C   0  0  0  0  0  0  0  0  0  0  0  0
    7.7644   -0.3963    0.0000 O   0  0  0  0  0  0  0  0  0  0  0  0
    9.1870    0.3838    0.0000 C   0  0  1  0  0  0  0  0  0  0  0  0
    7.7351   -2.0652    0.0000 C   0  0  2  0  0  0  0  0  0  0  0  0
    4.9482   -0.3463    0.0000 C   0  0  0  0  0  0  0  0  0  0  0  0
    5.6574   -0.7677    0.0000 C   0  0  0  0  0  0  0  0  0  0  0  0
    5.0984   -4.9648    0.0000 C   0  0  0  0  0  0  0  0  0  0  0  0
    2.8454    0.9095    0.0000 C   0  0  0  0  0  0  0  0  0  0  0  0
    5.5781   -3.4963    0.0000 C   0  0  0  0  0  0  0  0  0  0  0  0
    6.3416   -2.8746    0.0000 O   0  0  0  0  0  0  0  0  0  0  0  0
    5.0316   -3.0832    0.0000 C   0  0  0  0  0  0  0  0  0  0  0  0
    7.0717   -1.6564    0.0000 C   0  0  0  0  0  0  0  0  0  0  0  0
    7.0717   -0.7885    0.0000 C   0  0  1  0  0  0  0  0  0  0  0  0
    4.2764    0.8719    0.0000 O   0  0  0  0  0  0  0  0  0  0  0  0
    4.2138   -1.6689    0.0000 C   0  0  2  0  0  0  0  0  0  0  0  0
    9.8379   -0.0375    0.0000 C   0  0  2  0  0  0  0  0  0  0  0  0
    5.0316   -2.1987    0.0000 C   0  0  0  0  0  0  0  0  0  0  0  0
    6.3333   -3.6798    0.0000 O   0  0  0  0  0  0  0  0  0  0  0  0
    9.1327   -1.1848    0.0000 C   0  0  0  0  0  0  0  0  0  0  0  0
    2.8705    1.7398    0.0000 C   0  0  0  0  0  0  0  0  0  0  0  0
    2.1236    0.5215    0.0000 C   0  0  0  0  0  0  0  0  0  0  0  0
    9.8546   -0.7968    0.0000 C   0  0  0  0  0  0  0  0  0  0  0  0
    6.3625   -0.3463    0.0000 C   0  0  0  0  0  0  0  0  0  0  0  0
    8.8699    1.1348    0.0000 C   0  0  2  0  0  0  0  0  0  0  0  0
    7.0968   -6.6337    0.0000 O   0  0  0  0  0  0  0  0  0  0  0  0
    1.4394    1.7773    0.0000 C   0  0  0  0  0  0  0  0  0  0  0  0
    1.4186    0.9470    0.0000 C   0  0  0  0  0  0  0  0  0  0  0  0
    2.1695    2.1736    0.0000 C   0  0  0  0  0  0  0  0  0  0  0  0
    0.7343    2.2112    0.0000 F   0  0  0  0  0  0  0  0  0  0  0  0
    8.4277   -5.8326    0.0000 C   0  0  0  0  0  0  0  0  0  0  0  0
    4.9315    0.5632    0.0000 C   0  0  0  0  0  0  0  0  0  0  0  0
    3.5296   -2.0652    0.0000 C   0  0  0  0  0  0  0  0  0  0  0  0
   10.5555    0.3421    0.0000 C   0  0  0  0  0  0  0  0  0  0  0  0
    8.0731    1.2599    0.0000 C   0  0  0  0  0  0  0  0  0  0  0  0
    9.4541    1.8149    0.0000 C   0  0  0  0  0  0  0  0  0  0  0  0
    7.9187    2.0819    0.0000 C   0  0  0  0  0  0  0  0  0  0  0  0
    9.7920    0.9262    0.0000 H   0  0  0  0  0  0  0  0  0  0  0  0
    6.3333   -6.3208    0.0000 H   0  0  0  0  0  0  0  0  0  0  0  0
    7.7644   -3.7174    0.0000 H   0  0  0  0  0  0  0  0  0  0  0  0
    8.3943   -2.5283    0.0000 H   0  0  0  0  0  0  0  0  0  0  0  0
    7.0885    0.2211    0.0000 H   0  0  0  0  0  0  0  0  0  0  0  0
  2  1  1  0  0  0  0
  3  2  1  0  0  0  0
  4  1  1  0  0  0  0
  5  1  1  0  0  0  0
  6 16  1  0  0  0  0
  7  5  2  0  0  0  0
  8  3  1  0  0  0  0
  9  2  1  0  0  0  0
 10  7  1  0  0  0  0
 11  6  1  0  0  0  0
 15 12  1  6  0  0  0
 13  4  1  0  0  0  0
 14 12  1  0  0  0  0
 15 30  1  0  0  0  0
 16 19  1  0  0  0  0
 17 28  1  0  0  0  0
 18 11  1  0  0  0  0
 19 13  1  0  0  0  0
 20 21  2  0  0  0  0
 21 38  1  0  0  0  0
 22  9  1  0  0  0  0
 23 14  1  0  0  0  0
 24  9  2  0  0  0  0
 25  4  2  0  0  0  0
 26 24  1  0  0  0  0
 27 19  1  0  0  0  0
 28 27  1  0  0  0  0
 29 14  2  0  0  0  0
 30 32  1  0  0  0  0
 31 37  1  0  0  0  0
 32 26  2  0  0  0  0
  2 33  1  6  0  0  0
  6 34  1  1  0  0  0
 35 23  2  0  0  0  0
 36 23  1  0  0  0  0
 37 34  1  0  0  0  0
 38 28  1  0  0  0  0
 39 18  1  0  0  0  0
 10 40  1  1  0  0  0
 41 42  1  0  0  0  0
 42 36  2  0  0  0  0
 43 35  1  0  0  0  0
 44 41  1  0  0  0  0
 45  7  1  0  0  0  0
 46 20  1  0  0  0  0
 30 47  1  6  0  0  0
 31 48  1  1  0  0  0
 49 39  1  0  0  0  0
 39 50  1  6  0  0  0
 51 49  1  0  0  0  0
 18 52  1  1  0  0  0
  3 53  1  6  0  0  0
  1 54  1  1  0  0  0
 19 55  1  6  0  0  0
 28 56  1  6  0  0  0
 10  3  1  0  0  0  0
 22  8  1  0  0  0  0
 17  6  1  0  0  0  0
 20 15  1  0  0  0  0
 31 18  1  0  0  0  0
 41 43  2  0  0  0  0
M  END
>  <IDNUMBER>
F3409-0842

>  <Chemical_Name>
(1'R,2R,4'S,5S,6R,8'R,10'E,12'S,13'S,14'E,16'E,20'R,21'R,24'S)-6-[(2S)-butan-2-yl]-21',24'-dihydroxy-5,11',13',22'-tetramethyl-2'-oxo-3',7',19'-trioxaspiro[oxane-2,6'-tetracyclo[15.6.1.1?,?.0??,??]pentacosane]-10',14',16',22'-tetraen-12'-yl 4-fluorobenzoate

>  <PriceCoeff>
7.00

>  <CAS>
1296739-06-4

>  <MW>
708.86

>  <Description>
solid

>  <FSP3>
0.61

>  <clogP>
8.14

>  <TPSA>
120.75

>  <Acceptor>
9

>  <Donor>
2

>  <RotBonds>
5

>  <HAC>
51

$$$$
F3409-0843
  Mrv2219 10102508112D          

 56 61  0  0  0  0            999 V2000
    5.3272   -3.5084    0.0000 C   0  0  2  0  0  0  0  0  0  0  0  0
    4.5972   -3.9631    0.0000 C   0  0  1  0  0  0  0  0  0  0  0  0
    4.5972   -4.7850    0.0000 C   0  0  2  0  0  0  0  0  0  0  0  0
    5.3189   -2.6657    0.0000 C   0  0  0  0  0  0  0  0  0  0  0  0
    5.9905   -3.9130    0.0000 C   0  0  0  0  0  0  0  0  0  0  0  0
    6.7373   -0.1960    0.0000 C   0  0  2  0  0  0  0  0  0  0  0  0
    5.9905   -4.7850    0.0000 C   0  0  0  0  0  0  0  0  0  0  0  0
    3.8338   -5.0603    0.0000 O   0  0  0  0  0  0  0  0  0  0  0  0
    3.8338   -3.7253    0.0000 C   0  0  0  0  0  0  0  0  0  0  0  0
    5.3272   -5.1854    0.0000 C   0  0  1  0  0  0  0  0  0  0  0  0
    6.7373    0.6508    0.0000 O   0  0  0  0  0  0  0  0  0  0  0  0
    1.7813    0.2795    0.0000 O   0  0  0  0  0  0  0  0  0  0  0  0
    5.9905   -2.2735    0.0000 O   0  0  0  0  0  0  0  0  0  0  0  0
    1.8064    1.1055    0.0000 C   0  0  0  0  0  0  0  0  0  0  0  0
    2.4697   -0.1419    0.0000 C   0  0  2  0  0  0  0  0  0  0  0  0
    6.7373   -1.0430    0.0000 C   0  0  0  0  0  0  0  0  0  0  0  0
    6.0197    0.2295    0.0000 O   0  0  0  0  0  0  0  0  0  0  0  0
    7.4423    1.0095    0.0000 C   0  0  1  0  0  0  0  0  0  0  0  0
    5.9905   -1.4392    0.0000 C   0  0  2  0  0  0  0  0  0  0  0  0
    3.2039    0.2795    0.0000 C   0  0  0  0  0  0  0  0  0  0  0  0
    3.9130   -0.1419    0.0000 C   0  0  0  0  0  0  0  0  0  0  0  0
    3.3540   -4.3385    0.0000 C   0  0  0  0  0  0  0  0  0  0  0  0
    1.1013    1.5351    0.0000 C   0  0  0  0  0  0  0  0  0  0  0  0
    3.8338   -2.8702    0.0000 C   0  0  0  0  0  0  0  0  0  0  0  0
    4.5972   -2.2485    0.0000 O   0  0  0  0  0  0  0  0  0  0  0  0
    3.2873   -2.4572    0.0000 C   0  0  0  0  0  0  0  0  0  0  0  0
    5.3272   -1.0304    0.0000 C   0  0  0  0  0  0  0  0  0  0  0  0
    5.3272   -0.1627    0.0000 C   0  0  1  0  0  0  0  0  0  0  0  0
    2.5322    1.4976    0.0000 O   0  0  0  0  0  0  0  0  0  0  0  0
    2.4697   -1.0430    0.0000 C   0  0  2  0  0  0  0  0  0  0  0  0
    8.0930    0.5882    0.0000 C   0  0  2  0  0  0  0  0  0  0  0  0
    3.2873   -1.5727    0.0000 C   0  0  0  0  0  0  0  0  0  0  0  0
    4.5888   -3.0537    0.0000 O   0  0  0  0  0  0  0  0  0  0  0  0
    7.3881   -0.5590    0.0000 C   0  0  0  0  0  0  0  0  0  0  0  0
    1.1264    2.3653    0.0000 C   0  0  0  0  0  0  0  0  0  0  0  0
    0.3797    1.1472    0.0000 C   0  0  0  0  0  0  0  0  0  0  0  0
    8.1098   -0.1710    0.0000 C   0  0  0  0  0  0  0  0  0  0  0  0
    4.6223    0.2795    0.0000 C   0  0  0  0  0  0  0  0  0  0  0  0
    7.1253    1.7604    0.0000 C   0  0  2  0  0  0  0  0  0  0  0  0
    5.3522   -6.0072    0.0000 O   0  0  0  0  0  0  0  0  0  0  0  0
   -0.3046    2.4029    0.0000 C   0  0  0  0  0  0  0  0  0  0  0  0
   -0.3254    1.5727    0.0000 C   0  0  0  0  0  0  0  0  0  0  0  0
    0.4255    2.7992    0.0000 C   0  0  0  0  0  0  0  0  0  0  0  0
   -1.0095    2.8367    0.0000 Cl  0  0  0  0  0  0  0  0  0  0  0  0
    6.6872   -5.2063    0.0000 C   0  0  0  0  0  0  0  0  0  0  0  0
    3.1871    1.1889    0.0000 C   0  0  0  0  0  0  0  0  0  0  0  0
    1.7813   -1.4392    0.0000 C   0  0  0  0  0  0  0  0  0  0  0  0
    8.8106    0.9679    0.0000 C   0  0  0  0  0  0  0  0  0  0  0  0
    6.3284    1.8856    0.0000 C   0  0  0  0  0  0  0  0  0  0  0  0
    7.7093    2.4404    0.0000 C   0  0  0  0  0  0  0  0  0  0  0  0
    6.1741    2.7075    0.0000 C   0  0  0  0  0  0  0  0  0  0  0  0
    8.0472    1.5519    0.0000 H   0  0  0  0  0  0  0  0  0  0  0  0
    4.5888   -5.6944    0.0000 H   0  0  0  0  0  0  0  0  0  0  0  0
    6.0197   -3.0912    0.0000 H   0  0  0  0  0  0  0  0  0  0  0  0
    6.6497   -1.9023    0.0000 H   0  0  0  0  0  0  0  0  0  0  0  0
    5.3439    0.8468    0.0000 H   0  0  0  0  0  0  0  0  0  0  0  0
  2  1  1  0  0  0  0
  3  2  1  0  0  0  0
  4  1  1  0  0  0  0
  5  1  1  0  0  0  0
  6 16  1  0  0  0  0
  7  5  2  0  0  0  0
  8  3  1  0  0  0  0
  9  2  1  0  0  0  0
 10  7  1  0  0  0  0
 11  6  1  0  0  0  0
 15 12  1  6  0  0  0
 13  4  1  0  0  0  0
 14 12  1  0  0  0  0
 15 30  1  0  0  0  0
 16 19  1  0  0  0  0
 17 28  1  0  0  0  0
 18 11  1  0  0  0  0
 19 13  1  0  0  0  0
 20 21  2  0  0  0  0
 21 38  1  0  0  0  0
 22  9  1  0  0  0  0
 23 14  1  0  0  0  0
 24  9  2  0  0  0  0
 25  4  2  0  0  0  0
 26 24  1  0  0  0  0
 27 19  1  0  0  0  0
 28 27  1  0  0  0  0
 29 14  2  0  0  0  0
 30 32  1  0  0  0  0
 31 37  1  0  0  0  0
 32 26  2  0  0  0  0
  2 33  1  6  0  0  0
  6 34  1  1  0  0  0
 35 23  2  0  0  0  0
 36 23  1  0  0  0  0
 37 34  1  0  0  0  0
 38 28  1  0  0  0  0
 39 18  1  0  0  0  0
 10 40  1  1  0  0  0
 41 42  1  0  0  0  0
 42 36  2  0  0  0  0
 43 35  1  0  0  0  0
 44 41  1  0  0  0  0
 45  7  1  0  0  0  0
 46 20  1  0  0  0  0
 30 47  1  6  0  0  0
 31 48  1  1  0  0  0
 49 39  1  0  0  0  0
 39 50  1  6  0  0  0
 51 49  1  0  0  0  0
 18 52  1  1  0  0  0
  3 53  1  6  0  0  0
  1 54  1  1  0  0  0
 19 55  1  6  0  0  0
 28 56  1  6  0  0  0
 10  3  1  0  0  0  0
 22  8  1  0  0  0  0
 17  6  1  0  0  0  0
 20 15  1  0  0  0  0
 31 18  1  0  0  0  0
 41 43  2  0  0  0  0
M  END
>  <IDNUMBER>
F3409-0843

>  <Chemical_Name>
(1'R,2R,4'S,5S,6R,8'R,10'E,12'S,13'S,14'E,16'E,20'R,21'R,24'S)-6-[(2S)-butan-2-yl]-21',24'-dihydroxy-5,11',13',22'-tetramethyl-2'-oxo-3',7',19'-trioxaspiro[oxane-2,6'-tetracyclo[15.6.1.1?,?.0??,??]pentacosane]-10',14',16',22'-tetraen-12'-yl 4-chlorobenzoate

>  <PriceCoeff>
7.00

>  <CAS>
1296739-04-2

>  <MW>
725.32

>  <Description>
solid

>  <FSP3>
0.61

>  <clogP>
8.71

>  <TPSA>
120.75

>  <Acceptor>
9

>  <Donor>
2

>  <RotBonds>
5

>  <HAC>
51

$$$$
F3409-0844
  Mrv2219 10102508112D          

 59 64  0  0  0  0            999 V2000
    6.3337   -3.4130    0.0000 C   0  0  2  0  0  0  0  0  0  0  0  0
    5.6035   -3.8678    0.0000 C   0  0  1  0  0  0  0  0  0  0  0  0
    5.6035   -4.6897    0.0000 C   0  0  2  0  0  0  0  0  0  0  0  0
    6.3254   -2.5702    0.0000 C   0  0  0  0  0  0  0  0  0  0  0  0
    6.9971   -3.8177    0.0000 C   0  0  0  0  0  0  0  0  0  0  0  0
    7.7439   -0.1001    0.0000 C   0  0  2  0  0  0  0  0  0  0  0  0
    6.9971   -4.6897    0.0000 C   0  0  0  0  0  0  0  0  0  0  0  0
    4.8399   -4.9651    0.0000 O   0  0  0  0  0  0  0  0  0  0  0  0
    4.8399   -3.6300    0.0000 C   0  0  0  0  0  0  0  0  0  0  0  0
    6.3337   -5.0903    0.0000 C   0  0  1  0  0  0  0  0  0  0  0  0
    7.7439    0.7468    0.0000 O   0  0  0  0  0  0  0  0  0  0  0  0
    0.0000    2.9332    0.0000 C   0  0  0  0  0  0  0  0  0  0  0  0
    2.7913    0.3755    0.0000 O   0  0  0  0  0  0  0  0  0  0  0  0
    6.9971   -2.1780    0.0000 O   0  0  0  0  0  0  0  0  0  0  0  0
    2.8122    1.2016    0.0000 C   0  0  0  0  0  0  0  0  0  0  0  0
    3.4756   -0.0459    0.0000 C   0  0  2  0  0  0  0  0  0  0  0  0
    7.7439   -0.9471    0.0000 C   0  0  0  0  0  0  0  0  0  0  0  0
    7.0263    0.3254    0.0000 O   0  0  0  0  0  0  0  0  0  0  0  0
    8.4491    1.1057    0.0000 C   0  0  1  0  0  0  0  0  0  0  0  0
    6.9971   -1.3435    0.0000 C   0  0  2  0  0  0  0  0  0  0  0  0
    4.2100    0.3755    0.0000 C   0  0  0  0  0  0  0  0  0  0  0  0
    4.9192   -0.0459    0.0000 C   0  0  0  0  0  0  0  0  0  0  0  0
    4.3602   -4.2433    0.0000 C   0  0  0  0  0  0  0  0  0  0  0  0
    0.7010    2.4992    0.0000 C   0  0  0  0  0  0  0  0  0  0  0  0
    2.1071    1.6314    0.0000 C   0  0  0  0  0  0  0  0  0  0  0  0
    4.8399   -2.7746    0.0000 C   0  0  0  0  0  0  0  0  0  0  0  0
    5.6035   -2.1529    0.0000 O   0  0  0  0  0  0  0  0  0  0  0  0
    4.2934   -2.3615    0.0000 C   0  0  0  0  0  0  0  0  0  0  0  0
    6.3337   -0.9346    0.0000 C   0  0  0  0  0  0  0  0  0  0  0  0
    6.3337   -0.0668    0.0000 C   0  0  1  0  0  0  0  0  0  0  0  0
    3.5381    1.5939    0.0000 O   0  0  0  0  0  0  0  0  0  0  0  0
    3.4756   -0.9471    0.0000 C   0  0  2  0  0  0  0  0  0  0  0  0
    9.1000    0.6842    0.0000 C   0  0  2  0  0  0  0  0  0  0  0  0
    4.2934   -1.4770    0.0000 C   0  0  0  0  0  0  0  0  0  0  0  0
    5.5952   -2.9583    0.0000 O   0  0  0  0  0  0  0  0  0  0  0  0
    8.3948   -0.4631    0.0000 C   0  0  0  0  0  0  0  0  0  0  0  0
    0.6801    1.6690    0.0000 C   0  0  0  0  0  0  0  0  0  0  0  0
    1.4312    2.8957    0.0000 C   0  0  0  0  0  0  0  0  0  0  0  0
    1.3852    1.2434    0.0000 C   0  0  0  0  0  0  0  0  0  0  0  0
    2.1321    2.4617    0.0000 C   0  0  0  0  0  0  0  0  0  0  0  0
   -0.6426    3.3254    0.0000 F   0  0  0  0  0  0  0  0  0  0  0  0
   -0.1169    3.7885    0.0000 F   0  0  0  0  0  0  0  0  0  0  0  0
   -0.8136    2.6453    0.0000 F   0  0  0  0  0  0  0  0  0  0  0  0
    9.1167   -0.0751    0.0000 C   0  0  0  0  0  0  0  0  0  0  0  0
    5.6244    0.3755    0.0000 C   0  0  0  0  0  0  0  0  0  0  0  0
    8.1319    1.8567    0.0000 C   0  0  2  0  0  0  0  0  0  0  0  0
    6.3587   -5.9123    0.0000 O   0  0  0  0  0  0  0  0  0  0  0  0
    7.6897   -5.1112    0.0000 C   0  0  0  0  0  0  0  0  0  0  0  0
    4.1932    1.2851    0.0000 C   0  0  0  0  0  0  0  0  0  0  0  0
    2.7913   -1.3435    0.0000 C   0  0  0  0  0  0  0  0  0  0  0  0
    9.8176    1.0640    0.0000 C   0  0  0  0  0  0  0  0  0  0  0  0
    7.3350    1.9819    0.0000 C   0  0  0  0  0  0  0  0  0  0  0  0
    8.7161    2.5368    0.0000 C   0  0  0  0  0  0  0  0  0  0  0  0
    7.1806    2.8038    0.0000 C   0  0  0  0  0  0  0  0  0  0  0  0
    7.6563   -1.8067    0.0000 H   0  0  0  0  0  0  0  0  0  0  0  0
    6.3504    0.9430    0.0000 H   0  0  0  0  0  0  0  0  0  0  0  0
    9.0541    1.6481    0.0000 H   0  0  0  0  0  0  0  0  0  0  0  0
    5.5952   -5.5994    0.0000 H   0  0  0  0  0  0  0  0  0  0  0  0
    7.0263   -2.9958    0.0000 H   0  0  0  0  0  0  0  0  0  0  0  0
  2  1  1  0  0  0  0
  3  2  1  0  0  0  0
  4  1  1  0  0  0  0
  5  1  1  0  0  0  0
  6 17  1  0  0  0  0
  7  5  2  0  0  0  0
  8  3  1  0  0  0  0
  9  2  1  0  0  0  0
 10  7  1  0  0  0  0
 11  6  1  0  0  0  0
 12 24  1  0  0  0  0
 16 13  1  6  0  0  0
 14  4  1  0  0  0  0
 15 13  1  0  0  0  0
 16 32  1  0  0  0  0
 17 20  1  0  0  0  0
 18 30  1  0  0  0  0
 19 11  1  0  0  0  0
 20 14  1  0  0  0  0
 21 22  2  0  0  0  0
 22 45  1  0  0  0  0
 23  9  1  0  0  0  0
 24 37  1  0  0  0  0
 25 15  1  0  0  0  0
 26  9  2  0  0  0  0
 27  4  2  0  0  0  0
 28 26  1  0  0  0  0
 29 20  1  0  0  0  0
 30 29  1  0  0  0  0
 31 15  2  0  0  0  0
 32 34  1  0  0  0  0
 33 44  1  0  0  0  0
 34 28  2  0  0  0  0
  2 35  1  6  0  0  0
  6 36  1  1  0  0  0
 37 39  2  0  0  0  0
 38 40  1  0  0  0  0
 39 25  1  0  0  0  0
 40 25  2  0  0  0  0
 41 12  1  0  0  0  0
 42 12  1  0  0  0  0
 43 12  1  0  0  0  0
 44 36  1  0  0  0  0
 45 30  1  0  0  0  0
 46 19  1  0  0  0  0
 10 47  1  1  0  0  0
 48  7  1  0  0  0  0
 49 21  1  0  0  0  0
 32 50  1  6  0  0  0
 33 51  1  1  0  0  0
 52 46  1  0  0  0  0
 46 53  1  6  0  0  0
 54 52  1  0  0  0  0
 20 55  1  6  0  0  0
 30 56  1  6  0  0  0
 19 57  1  1  0  0  0
  3 58  1  6  0  0  0
  1 59  1  1  0  0  0
 10  3  1  0  0  0  0
 23  8  1  0  0  0  0
 18  6  1  0  0  0  0
 21 16  1  0  0  0  0
 33 19  1  0  0  0  0
 24 38  2  0  0  0  0
M  END
>  <IDNUMBER>
F3409-0844

>  <Chemical_Name>
(1'R,2R,4'S,5S,6R,8'R,10'E,12'S,13'S,14'E,16'E,20'R,21'R,24'S)-6-[(2S)-butan-2-yl]-21',24'-dihydroxy-5,11',13',22'-tetramethyl-2'-oxo-3',7',19'-trioxaspiro[oxane-2,6'-tetracyclo[15.6.1.1?,?.0??,??]pentacosane]-10',14',16',22'-tetraen-12'-yl 4-(trifluoromethyl)benzoate

>  <PriceCoeff>
7.00

>  <MW>
758.87

>  <Description>
solid

>  <FSP3>
0.62

>  <clogP>
8.88

>  <TPSA>
120.75

>  <Acceptor>
9

>  <Donor>
2

>  <RotBonds>
5

>  <HAC>
54

$$$$
F3409-0845
  Mrv2219 10102508112D          

 54 59  0  0  0  0            999 V2000
    7.0717   -4.1346    0.0000 C   0  0  2  0  0  0  0  0  0  0  0  0
    6.3416   -4.5893    0.0000 C   0  0  1  0  0  0  0  0  0  0  0  0
    6.3416   -5.4113    0.0000 C   0  0  2  0  0  0  0  0  0  0  0  0
    7.0634   -3.2918    0.0000 C   0  0  0  0  0  0  0  0  0  0  0  0
    7.7351   -4.5392    0.0000 C   0  0  0  0  0  0  0  0  0  0  0  0
    8.4819   -0.8219    0.0000 C   0  0  2  0  0  0  0  0  0  0  0  0
    7.7351   -5.4113    0.0000 C   0  0  0  0  0  0  0  0  0  0  0  0
    5.5781   -5.6866    0.0000 O   0  0  0  0  0  0  0  0  0  0  0  0
    5.5781   -4.3515    0.0000 C   0  0  0  0  0  0  0  0  0  0  0  0
    3.5504    0.4798    0.0000 C   0  0  0  0  0  0  0  0  0  0  0  0
    7.0717   -5.8118    0.0000 C   0  0  1  0  0  0  0  0  0  0  0  0
    8.4819    0.0250    0.0000 O   0  0  0  0  0  0  0  0  0  0  0  0
    3.5296   -0.3463    0.0000 O   0  0  0  0  0  0  0  0  0  0  0  0
    7.7351   -2.8996    0.0000 O   0  0  0  0  0  0  0  0  0  0  0  0
    4.2138   -0.7677    0.0000 C   0  0  2  0  0  0  0  0  0  0  0  0
    2.8454    0.9095    0.0000 C   0  0  0  0  0  0  0  0  0  0  0  0
    8.4819   -1.6689    0.0000 C   0  0  0  0  0  0  0  0  0  0  0  0
    7.7644   -0.3963    0.0000 O   0  0  0  0  0  0  0  0  0  0  0  0
    9.1870    0.3838    0.0000 C   0  0  1  0  0  0  0  0  0  0  0  0
    7.7351   -2.0652    0.0000 C   0  0  2  0  0  0  0  0  0  0  0  0
    4.9482   -0.3463    0.0000 C   0  0  0  0  0  0  0  0  0  0  0  0
    5.6574   -0.7677    0.0000 C   0  0  0  0  0  0  0  0  0  0  0  0
    2.0860    0.5925    0.0000 S   0  0  0  0  0  0  0  0  0  0  0  0
    5.0984   -4.9648    0.0000 C   0  0  0  0  0  0  0  0  0  0  0  0
    5.5781   -3.4963    0.0000 C   0  0  0  0  0  0  0  0  0  0  0  0
    6.3416   -2.8746    0.0000 O   0  0  0  0  0  0  0  0  0  0  0  0
    5.0316   -3.0832    0.0000 C   0  0  0  0  0  0  0  0  0  0  0  0
    7.0717   -1.6564    0.0000 C   0  0  0  0  0  0  0  0  0  0  0  0
    7.0717   -0.7885    0.0000 C   0  0  1  0  0  0  0  0  0  0  0  0
    4.2764    0.8719    0.0000 O   0  0  0  0  0  0  0  0  0  0  0  0
    2.7869    1.7315    0.0000 C   0  0  0  0  0  0  0  0  0  0  0  0
    1.5520    1.2224    0.0000 C   0  0  0  0  0  0  0  0  0  0  0  0
    4.2138   -1.6689    0.0000 C   0  0  2  0  0  0  0  0  0  0  0  0
    9.8379   -0.0375    0.0000 C   0  0  2  0  0  0  0  0  0  0  0  0
    5.0316   -2.1987    0.0000 C   0  0  0  0  0  0  0  0  0  0  0  0
    6.3333   -3.6798    0.0000 O   0  0  0  0  0  0  0  0  0  0  0  0
    9.1327   -1.1848    0.0000 C   0  0  0  0  0  0  0  0  0  0  0  0
    1.9818    1.9233    0.0000 C   0  0  0  0  0  0  0  0  0  0  0  0
    9.8546   -0.7968    0.0000 C   0  0  0  0  0  0  0  0  0  0  0  0
    6.3625   -0.3463    0.0000 C   0  0  0  0  0  0  0  0  0  0  0  0
    8.8699    1.1348    0.0000 C   0  0  2  0  0  0  0  0  0  0  0  0
    7.0968   -6.6337    0.0000 O   0  0  0  0  0  0  0  0  0  0  0  0
    8.4277   -5.8326    0.0000 C   0  0  0  0  0  0  0  0  0  0  0  0
    4.9315    0.5632    0.0000 C   0  0  0  0  0  0  0  0  0  0  0  0
    3.5296   -2.0652    0.0000 C   0  0  0  0  0  0  0  0  0  0  0  0
   10.5555    0.3421    0.0000 C   0  0  0  0  0  0  0  0  0  0  0  0
    8.0731    1.2599    0.0000 C   0  0  0  0  0  0  0  0  0  0  0  0
    9.4541    1.8149    0.0000 C   0  0  0  0  0  0  0  0  0  0  0  0
    7.9187    2.0819    0.0000 C   0  0  0  0  0  0  0  0  0  0  0  0
    8.3943   -2.5283    0.0000 H   0  0  0  0  0  0  0  0  0  0  0  0
    7.0885    0.2211    0.0000 H   0  0  0  0  0  0  0  0  0  0  0  0
    9.7920    0.9262    0.0000 H   0  0  0  0  0  0  0  0  0  0  0  0
    6.3333   -6.3208    0.0000 H   0  0  0  0  0  0  0  0  0  0  0  0
    7.7644   -3.7174    0.0000 H   0  0  0  0  0  0  0  0  0  0  0  0
  2  1  1  0  0  0  0
  3  2  1  0  0  0  0
  4  1  1  0  0  0  0
  5  1  1  0  0  0  0
  6 17  1  0  0  0  0
  7  5  2  0  0  0  0
  8  3  1  0  0  0  0
  9  2  1  0  0  0  0
 10 13  1  0  0  0  0
 11  3  1  0  0  0  0
 12  6  1  0  0  0  0
 15 13  1  6  0  0  0
 14  4  1  0  0  0  0
 15 33  1  0  0  0  0
 16 10  1  0  0  0  0
 17 20  1  0  0  0  0
 18 29  1  0  0  0  0
 19 12  1  0  0  0  0
 20 14  1  0  0  0  0
 21 15  1  0  0  0  0
 22 40  1  0  0  0  0
 23 16  1  0  0  0  0
 24  9  1  0  0  0  0
 25  9  2  0  0  0  0
 26  4  2  0  0  0  0
 27 25  1  0  0  0  0
 28 20  1  0  0  0  0
 29 28  1  0  0  0  0
 30 10  2  0  0  0  0
 31 16  2  0  0  0  0
 32 23  1  0  0  0  0
 33 35  1  0  0  0  0
 34 39  1  0  0  0  0
 35 27  2  0  0  0  0
  2 36  1  6  0  0  0
  6 37  1  1  0  0  0
 38 31  1  0  0  0  0
 39 37  1  0  0  0  0
 40 29  1  0  0  0  0
 41 19  1  0  0  0  0
 11 42  1  1  0  0  0
 43  7  1  0  0  0  0
 44 21  1  0  0  0  0
 33 45  1  6  0  0  0
 34 46  1  1  0  0  0
 47 41  1  0  0  0  0
 41 48  1  6  0  0  0
 49 47  1  0  0  0  0
 20 50  1  6  0  0  0
 29 51  1  6  0  0  0
 19 52  1  1  0  0  0
  3 53  1  6  0  0  0
  1 54  1  1  0  0  0
 24  8  1  0  0  0  0
  7 11  1  0  0  0  0
 18  6  1  0  0  0  0
 22 21  2  0  0  0  0
 34 19  1  0  0  0  0
 32 38  2  0  0  0  0
M  END
>  <IDNUMBER>
F3409-0845

>  <Chemical_Name>
(1'R,2R,4'S,5S,6R,8'R,10'E,12'S,13'S,14'E,16'E,20'R,21'R,24'S)-6-[(2S)-butan-2-yl]-21',24'-dihydroxy-5,11',13',22'-tetramethyl-2'-oxo-3',7',19'-trioxaspiro[oxane-2,6'-tetracyclo[15.6.1.1?,?.0??,??]pentacosane]-10',14',16',22'-tetraen-12'-yl thiophene-2-carboxylate

>  <PriceCoeff>
7.00

>  <MW>
696.90

>  <Description>
solid

>  <FSP3>
0.64

>  <clogP>
7.72

>  <TPSA>
120.75

>  <Acceptor>
9

>  <Donor>
2

>  <RotBonds>
5

>  <HAC>
49

$$$$
F3409-0846
  Mrv2219 10102508112D          

 54 59  0  0  0  0            999 V2000
    7.8303   -4.4596    0.0000 C   0  0  2  0  0  0  0  0  0  0  0  0
    7.1003   -4.9143    0.0000 C   0  0  1  0  0  0  0  0  0  0  0  0
    7.1003   -5.7362    0.0000 C   0  0  2  0  0  0  0  0  0  0  0  0
    7.8220   -3.6169    0.0000 C   0  0  0  0  0  0  0  0  0  0  0  0
    8.4936   -4.8642    0.0000 C   0  0  0  0  0  0  0  0  0  0  0  0
    9.2404   -1.1472    0.0000 C   0  0  2  0  0  0  0  0  0  0  0  0
    8.4936   -5.7362    0.0000 C   0  0  0  0  0  0  0  0  0  0  0  0
    6.3369   -6.0115    0.0000 O   0  0  0  0  0  0  0  0  0  0  0  0
    6.3369   -4.6765    0.0000 C   0  0  0  0  0  0  0  0  0  0  0  0
    4.3094    0.1544    0.0000 C   0  0  0  0  0  0  0  0  0  0  0  0
    7.8303   -6.1366    0.0000 C   0  0  1  0  0  0  0  0  0  0  0  0
    9.2404   -0.3004    0.0000 O   0  0  0  0  0  0  0  0  0  0  0  0
    4.2844   -0.6716    0.0000 O   0  0  0  0  0  0  0  0  0  0  0  0
    8.4936   -3.2247    0.0000 O   0  0  0  0  0  0  0  0  0  0  0  0
    4.9727   -1.0930    0.0000 C   0  0  2  0  0  0  0  0  0  0  0  0
    3.6044    0.5840    0.0000 C   0  0  0  0  0  0  0  0  0  0  0  0
    9.2404   -1.9941    0.0000 C   0  0  0  0  0  0  0  0  0  0  0  0
    8.5228   -0.7217    0.0000 O   0  0  0  0  0  0  0  0  0  0  0  0
    9.9454    0.0584    0.0000 C   0  0  1  0  0  0  0  0  0  0  0  0
    8.4936   -2.3904    0.0000 C   0  0  2  0  0  0  0  0  0  0  0  0
    5.7069   -0.6716    0.0000 C   0  0  0  0  0  0  0  0  0  0  0  0
    6.4161   -1.0930    0.0000 C   0  0  0  0  0  0  0  0  0  0  0  0
    5.8571   -5.2897    0.0000 C   0  0  0  0  0  0  0  0  0  0  0  0
    2.8451    0.2670    0.0000 O   0  0  0  0  0  0  0  0  0  0  0  0
    6.3369   -3.8213    0.0000 C   0  0  0  0  0  0  0  0  0  0  0  0
    7.1003   -3.1997    0.0000 O   0  0  0  0  0  0  0  0  0  0  0  0
    5.7903   -3.4083    0.0000 C   0  0  0  0  0  0  0  0  0  0  0  0
    7.8303   -1.9816    0.0000 C   0  0  0  0  0  0  0  0  0  0  0  0
    7.8303   -1.1139    0.0000 C   0  0  1  0  0  0  0  0  0  0  0  0
    5.0353    0.5465    0.0000 O   0  0  0  0  0  0  0  0  0  0  0  0
    3.5460    1.4059    0.0000 C   0  0  0  0  0  0  0  0  0  0  0  0
    4.9727   -1.9941    0.0000 C   0  0  2  0  0  0  0  0  0  0  0  0
   10.5961   -0.3629    0.0000 C   0  0  2  0  0  0  0  0  0  0  0  0
    2.3111    0.8969    0.0000 C   0  0  0  0  0  0  0  0  0  0  0  0
    5.7903   -2.5239    0.0000 C   0  0  0  0  0  0  0  0  0  0  0  0
    7.0919   -4.0049    0.0000 O   0  0  0  0  0  0  0  0  0  0  0  0
    9.8912   -1.5101    0.0000 C   0  0  0  0  0  0  0  0  0  0  0  0
    2.7408    1.5977    0.0000 C   0  0  0  0  0  0  0  0  0  0  0  0
   10.6129   -1.1222    0.0000 C   0  0  0  0  0  0  0  0  0  0  0  0
    7.1253   -0.6716    0.0000 C   0  0  0  0  0  0  0  0  0  0  0  0
    9.6284    0.8093    0.0000 C   0  0  2  0  0  0  0  0  0  0  0  0
    7.8553   -6.9584    0.0000 O   0  0  0  0  0  0  0  0  0  0  0  0
    9.1903   -6.1575    0.0000 C   0  0  0  0  0  0  0  0  0  0  0  0
    5.6902    0.2378    0.0000 C   0  0  0  0  0  0  0  0  0  0  0  0
    4.2844   -2.3904    0.0000 C   0  0  0  0  0  0  0  0  0  0  0  0
   11.3137    0.0167    0.0000 C   0  0  0  0  0  0  0  0  0  0  0  0
    8.8315    0.9344    0.0000 C   0  0  0  0  0  0  0  0  0  0  0  0
   10.2124    1.4893    0.0000 C   0  0  0  0  0  0  0  0  0  0  0  0
    8.6772    1.7563    0.0000 C   0  0  0  0  0  0  0  0  0  0  0  0
    9.1528   -2.8535    0.0000 H   0  0  0  0  0  0  0  0  0  0  0  0
    7.8470   -0.1043    0.0000 H   0  0  0  0  0  0  0  0  0  0  0  0
   10.5503    0.6007    0.0000 H   0  0  0  0  0  0  0  0  0  0  0  0
    7.0919   -6.6456    0.0000 H   0  0  0  0  0  0  0  0  0  0  0  0
    8.5228   -4.0424    0.0000 H   0  0  0  0  0  0  0  0  0  0  0  0
  2  1  1  0  0  0  0
  3  2  1  0  0  0  0
  4  1  1  0  0  0  0
  5  1  1  0  0  0  0
  6 17  1  0  0  0  0
  7  5  2  0  0  0  0
  8  3  1  0  0  0  0
  9  2  1  0  0  0  0
 10 13  1  0  0  0  0
 11  3  1  0  0  0  0
 12  6  1  0  0  0  0
 15 13  1  6  0  0  0
 14  4  1  0  0  0  0
 15 32  1  0  0  0  0
 16 10  1  0  0  0  0
 17 20  1  0  0  0  0
 18 29  1  0  0  0  0
 19 12  1  0  0  0  0
 20 14  1  0  0  0  0
 21 15  1  0  0  0  0
 22 40  1  0  0  0  0
 23  9  1  0  0  0  0
 24 16  1  0  0  0  0
 25  9  2  0  0  0  0
 26  4  2  0  0  0  0
 27 25  1  0  0  0  0
 28 20  1  0  0  0  0
 29 28  1  0  0  0  0
 30 10  2  0  0  0  0
 31 16  2  0  0  0  0
 32 35  1  0  0  0  0
 33 39  1  0  0  0  0
 34 24  1  0  0  0  0
 35 27  2  0  0  0  0
  2 36  1  6  0  0  0
  6 37  1  1  0  0  0
 38 31  1  0  0  0  0
 39 37  1  0  0  0  0
 40 29  1  0  0  0  0
 41 19  1  0  0  0  0
 11 42  1  1  0  0  0
 43  7  1  0  0  0  0
 44 21  1  0  0  0  0
 32 45  1  6  0  0  0
 33 46  1  1  0  0  0
 47 41  1  0  0  0  0
 41 48  1  6  0  0  0
 49 47  1  0  0  0  0
 20 50  1  6  0  0  0
 29 51  1  6  0  0  0
 19 52  1  1  0  0  0
  3 53  1  6  0  0  0
  1 54  1  1  0  0  0
 23  8  1  0  0  0  0
  7 11  1  0  0  0  0
 18  6  1  0  0  0  0
 22 21  2  0  0  0  0
 33 19  1  0  0  0  0
 34 38  2  0  0  0  0
M  END
>  <IDNUMBER>
F3409-0846

>  <Chemical_Name>
(1'R,2R,4'S,5S,6R,8'R,10'E,12'S,13'S,14'E,16'E,20'R,21'R,24'S)-6-[(2S)-butan-2-yl]-21',24'-dihydroxy-5,11',13',22'-tetramethyl-2'-oxo-3',7',19'-trioxaspiro[oxane-2,6'-tetracyclo[15.6.1.1?,?.0??,??]pentacosane]-10',14',16',22'-tetraen-12'-yl furan-2-carboxylate

>  <PriceCoeff>
7.00

>  <MW>
680.84

>  <Description>
solid

>  <FSP3>
0.64

>  <clogP>
7.17

>  <TPSA>
133.89

>  <Acceptor>
10

>  <Donor>
2

>  <RotBonds>
5

>  <HAC>
49

$$$$
F3409-0847
  Mrv2219 10102508112D          

 59 65  0  0  0  0            999 V2000
    7.3495   -4.9317    0.0000 C   0  0  2  0  0  0  0  0  0  0  0  0
    6.6200   -5.3861    0.0000 C   0  0  1  0  0  0  0  0  0  0  0  0
    6.6200   -6.2073    0.0000 C   0  0  2  0  0  0  0  0  0  0  0  0
    7.3412   -4.0896    0.0000 C   0  0  0  0  0  0  0  0  0  0  0  0
    8.0123   -5.3361    0.0000 C   0  0  0  0  0  0  0  0  0  0  0  0
    8.7587   -1.6216    0.0000 C   0  0  2  0  0  0  0  0  0  0  0  0
    8.0123   -6.2073    0.0000 C   0  0  0  0  0  0  0  0  0  0  0  0
    5.8572   -6.4825    0.0000 O   0  0  0  0  0  0  0  0  0  0  0  0
    5.8572   -5.1484    0.0000 C   0  0  0  0  0  0  0  0  0  0  0  0
    7.3495   -6.6075    0.0000 C   0  0  1  0  0  0  0  0  0  0  0  0
    8.7587   -0.7754    0.0000 O   0  0  0  0  0  0  0  0  0  0  0  0
    3.8312   -0.3209    0.0000 C   0  0  0  0  0  0  0  0  0  0  0  0
    3.8062   -1.1464    0.0000 O   0  0  0  0  0  0  0  0  0  0  0  0
    8.0123   -3.6977    0.0000 O   0  0  0  0  0  0  0  0  0  0  0  0
    4.4940   -1.5675    0.0000 C   0  0  2  0  0  0  0  0  0  0  0  0
    8.7587   -2.4680    0.0000 C   0  0  0  0  0  0  0  0  0  0  0  0
    8.0415   -1.1964    0.0000 O   0  0  0  0  0  0  0  0  0  0  0  0
    9.4631   -0.4169    0.0000 C   0  0  1  0  0  0  0  0  0  0  0  0
    8.0123   -2.8640    0.0000 C   0  0  2  0  0  0  0  0  0  0  0  0
    5.2277   -1.1464    0.0000 C   0  0  0  0  0  0  0  0  0  0  0  0
    3.1266    0.1083    0.0000 C   0  0  0  0  0  0  0  0  0  0  0  0
    5.9363   -1.5675    0.0000 C   0  0  0  0  0  0  0  0  0  0  0  0
    5.3778   -5.7612    0.0000 C   0  0  0  0  0  0  0  0  0  0  0  0
    3.1516    0.9380    0.0000 C   0  0  0  0  0  0  0  0  0  0  0  0
    5.8572   -4.2939    0.0000 C   0  0  0  0  0  0  0  0  0  0  0  0
    6.6200   -3.6726    0.0000 O   0  0  0  0  0  0  0  0  0  0  0  0
    5.3110   -3.8812    0.0000 C   0  0  0  0  0  0  0  0  0  0  0  0
    7.3495   -2.4555    0.0000 C   0  0  0  0  0  0  0  0  0  0  0  0
    7.3495   -1.5883    0.0000 C   0  0  1  0  0  0  0  0  0  0  0  0
    2.4555    1.3715    0.0000 C   0  0  0  0  0  0  0  0  0  0  0  0
    4.5565    0.0708    0.0000 O   0  0  0  0  0  0  0  0  0  0  0  0
    4.4940   -2.4680    0.0000 C   0  0  2  0  0  0  0  0  0  0  0  0
   10.1135   -0.8380    0.0000 C   0  0  2  0  0  0  0  0  0  0  0  0
    5.3110   -2.9973    0.0000 C   0  0  0  0  0  0  0  0  0  0  0  0
    6.6116   -4.4773    0.0000 O   0  0  0  0  0  0  0  0  0  0  0  0
    9.4090   -1.9843    0.0000 C   0  0  0  0  0  0  0  0  0  0  0  0
    2.4055   -0.2793    0.0000 C   0  0  0  0  0  0  0  0  0  0  0  0
    1.7217    0.9755    0.0000 C   0  0  0  0  0  0  0  0  0  0  0  0
    1.7009    0.1459    0.0000 C   0  0  0  0  0  0  0  0  0  0  0  0
   10.1302   -1.5966    0.0000 C   0  0  0  0  0  0  0  0  0  0  0  0
    6.6450   -1.1464    0.0000 C   0  0  0  0  0  0  0  0  0  0  0  0
    9.1463    0.3334    0.0000 C   0  0  2  0  0  0  0  0  0  0  0  0
    7.3746   -7.4288    0.0000 O   0  0  0  0  0  0  0  0  0  0  0  0
    8.7086   -6.6283    0.0000 C   0  0  0  0  0  0  0  0  0  0  0  0
    5.2110   -0.2376    0.0000 C   0  0  0  0  0  0  0  0  0  0  0  0
    2.4805    2.1969    0.0000 C   0  0  0  0  0  0  0  0  0  0  0  0
    3.8062   -2.8640    0.0000 C   0  0  0  0  0  0  0  0  0  0  0  0
   10.8305   -0.4585    0.0000 C   0  0  0  0  0  0  0  0  0  0  0  0
    1.0214    1.4090    0.0000 C   0  0  0  0  0  0  0  0  0  0  0  0
    8.3501    0.4585    0.0000 C   0  0  0  0  0  0  0  0  0  0  0  0
    9.7300    1.0130    0.0000 C   0  0  0  0  0  0  0  0  0  0  0  0
    8.1959    1.2799    0.0000 C   0  0  0  0  0  0  0  0  0  0  0  0
    1.7717    2.6347    0.0000 C   0  0  0  0  0  0  0  0  0  0  0  0
    1.0423    2.2345    0.0000 C   0  0  0  0  0  0  0  0  0  0  0  0
    8.6711   -3.3267    0.0000 H   0  0  0  0  0  0  0  0  0  0  0  0
    7.3663   -0.5795    0.0000 H   0  0  0  0  0  0  0  0  0  0  0  0
   10.0676    0.1251    0.0000 H   0  0  0  0  0  0  0  0  0  0  0  0
    6.6116   -7.1161    0.0000 H   0  0  0  0  0  0  0  0  0  0  0  0
    8.0415   -4.5148    0.0000 H   0  0  0  0  0  0  0  0  0  0  0  0
  2  1  1  0  0  0  0
  3  2  1  0  0  0  0
  4  1  1  0  0  0  0
  5  1  1  0  0  0  0
  6 16  1  0  0  0  0
  7  5  2  0  0  0  0
  8  3  1  0  0  0  0
  9  2  1  0  0  0  0
 10  7  1  0  0  0  0
 11  6  1  0  0  0  0
 12 13  1  0  0  0  0
 15 13  1  6  0  0  0
 14  4  1  0  0  0  0
 15 32  1  0  0  0  0
 16 19  1  0  0  0  0
 17 29  1  0  0  0  0
 18 11  1  0  0  0  0
 19 14  1  0  0  0  0
 20 22  2  0  0  0  0
 21 12  1  0  0  0  0
 22 41  1  0  0  0  0
 23  9  1  0  0  0  0
 24 21  2  0  0  0  0
 25  9  2  0  0  0  0
 26  4  2  0  0  0  0
 27 25  1  0  0  0  0
 28 19  1  0  0  0  0
 29 28  1  0  0  0  0
 30 24  1  0  0  0  0
 31 12  2  0  0  0  0
 32 34  1  0  0  0  0
 33 40  1  0  0  0  0
 34 27  2  0  0  0  0
  2 35  1  6  0  0  0
  6 36  1  1  0  0  0
 37 21  1  0  0  0  0
 38 39  1  0  0  0  0
 39 37  2  0  0  0  0
 40 36  1  0  0  0  0
 41 29  1  0  0  0  0
 42 18  1  0  0  0  0
 10 43  1  1  0  0  0
 44  7  1  0  0  0  0
 45 20  1  0  0  0  0
 46 30  2  0  0  0  0
 32 47  1  6  0  0  0
 33 48  1  1  0  0  0
 49 38  2  0  0  0  0
 50 42  1  0  0  0  0
 42 51  1  6  0  0  0
 52 50  1  0  0  0  0
 53 46  1  0  0  0  0
 54 49  1  0  0  0  0
 19 55  1  6  0  0  0
 29 56  1  6  0  0  0
 18 57  1  1  0  0  0
  3 58  1  6  0  0  0
  1 59  1  1  0  0  0
 10  3  1  0  0  0  0
 23  8  1  0  0  0  0
 17  6  1  0  0  0  0
 20 15  1  0  0  0  0
 33 18  1  0  0  0  0
 30 38  1  0  0  0  0
 54 53  2  0  0  0  0
M  END
>  <IDNUMBER>
F3409-0847

>  <Chemical_Name>
(1'R,2R,4'S,5S,6R,8'R,10'E,12'S,13'S,14'E,16'E,20'R,21'R,24'S)-6-[(2S)-butan-2-yl]-21',24'-dihydroxy-5,11',13',22'-tetramethyl-2'-oxo-3',7',19'-trioxaspiro[oxane-2,6'-tetracyclo[15.6.1.1?,?.0??,??]pentacosane]-10',14',16',22'-tetraen-12'-yl naphthalene-2-carboxylate

>  <PriceCoeff>
7.00

>  <MW>
740.93

>  <Description>
solid

>  <FSP3>
0.56

>  <clogP>
9.17

>  <TPSA>
120.75

>  <Acceptor>
9

>  <Donor>
2

>  <RotBonds>
5

>  <HAC>
54

$$$$
F3409-0848
  Mrv2219 10102508112D          

 56 61  0  0  0  0            999 V2000
    7.0717   -4.1346    0.0000 C   0  0  2  0  0  0  0  0  0  0  0  0
    6.3416   -4.5893    0.0000 C   0  0  1  0  0  0  0  0  0  0  0  0
    6.3416   -5.4113    0.0000 C   0  0  2  0  0  0  0  0  0  0  0  0
    7.0634   -3.2918    0.0000 C   0  0  0  0  0  0  0  0  0  0  0  0
    7.7351   -4.5392    0.0000 C   0  0  0  0  0  0  0  0  0  0  0  0
    8.4819   -0.8219    0.0000 C   0  0  2  0  0  0  0  0  0  0  0  0
    7.7351   -5.4113    0.0000 C   0  0  0  0  0  0  0  0  0  0  0  0
    5.5781   -5.6866    0.0000 O   0  0  0  0  0  0  0  0  0  0  0  0
    5.5781   -4.3515    0.0000 C   0  0  0  0  0  0  0  0  0  0  0  0
    7.0717   -5.8118    0.0000 C   0  0  1  0  0  0  0  0  0  0  0  0
    8.4819    0.0250    0.0000 O   0  0  0  0  0  0  0  0  0  0  0  0
    3.5504    0.4798    0.0000 C   0  0  0  0  0  0  0  0  0  0  0  0
    3.5296   -0.3463    0.0000 O   0  0  0  0  0  0  0  0  0  0  0  0
    7.7351   -2.8996    0.0000 O   0  0  0  0  0  0  0  0  0  0  0  0
    4.2138   -0.7677    0.0000 C   0  0  2  0  0  0  0  0  0  0  0  0
    8.4819   -1.6689    0.0000 C   0  0  0  0  0  0  0  0  0  0  0  0
    7.7644   -0.3963    0.0000 O   0  0  0  0  0  0  0  0  0  0  0  0
    9.1870    0.3838    0.0000 C   0  0  1  0  0  0  0  0  0  0  0  0
    7.7351   -2.0652    0.0000 C   0  0  2  0  0  0  0  0  0  0  0  0
    4.9482   -0.3463    0.0000 C   0  0  0  0  0  0  0  0  0  0  0  0
    5.6574   -0.7677    0.0000 C   0  0  0  0  0  0  0  0  0  0  0  0
    2.8454    0.9095    0.0000 C   0  0  0  0  0  0  0  0  0  0  0  0
    5.0984   -4.9648    0.0000 C   0  0  0  0  0  0  0  0  0  0  0  0
    5.5781   -3.4963    0.0000 C   0  0  0  0  0  0  0  0  0  0  0  0
    6.3416   -2.8746    0.0000 O   0  0  0  0  0  0  0  0  0  0  0  0
    5.0316   -3.0832    0.0000 C   0  0  0  0  0  0  0  0  0  0  0  0
    7.0717   -1.6564    0.0000 C   0  0  0  0  0  0  0  0  0  0  0  0
    7.0717   -0.7885    0.0000 C   0  0  1  0  0  0  0  0  0  0  0  0
    4.2764    0.8719    0.0000 O   0  0  0  0  0  0  0  0  0  0  0  0
    4.2138   -1.6689    0.0000 C   0  0  2  0  0  0  0  0  0  0  0  0
    2.1236    0.5215    0.0000 C   0  0  0  0  0  0  0  0  0  0  0  0
    9.8379   -0.0375    0.0000 C   0  0  2  0  0  0  0  0  0  0  0  0
    5.0316   -2.1987    0.0000 C   0  0  0  0  0  0  0  0  0  0  0  0
    6.3333   -3.6798    0.0000 O   0  0  0  0  0  0  0  0  0  0  0  0
    9.1327   -1.1848    0.0000 C   0  0  0  0  0  0  0  0  0  0  0  0
    9.8546   -0.7968    0.0000 C   0  0  0  0  0  0  0  0  0  0  0  0
    6.3625   -0.3463    0.0000 C   0  0  0  0  0  0  0  0  0  0  0  0
    8.8699    1.1348    0.0000 C   0  0  2  0  0  0  0  0  0  0  0  0
    7.0968   -6.6337    0.0000 O   0  0  0  0  0  0  0  0  0  0  0  0
    1.4186    0.9470    0.0000 C   0  0  0  0  0  0  0  0  0  0  0  0
    0.6967    0.5549    0.0000 Br  0  0  0  0  0  0  0  0  0  0  0  0
    8.4277   -5.8326    0.0000 C   0  0  0  0  0  0  0  0  0  0  0  0
    4.9315    0.5632    0.0000 C   0  0  0  0  0  0  0  0  0  0  0  0
    2.8705    1.7398    0.0000 C   0  0  0  0  0  0  0  0  0  0  0  0
    2.1695    2.1736    0.0000 C   0  0  0  0  0  0  0  0  0  0  0  0
    1.4394    1.7773    0.0000 C   0  0  0  0  0  0  0  0  0  0  0  0
    3.5296   -2.0652    0.0000 C   0  0  0  0  0  0  0  0  0  0  0  0
   10.5555    0.3421    0.0000 C   0  0  0  0  0  0  0  0  0  0  0  0
    8.0731    1.2599    0.0000 C   0  0  0  0  0  0  0  0  0  0  0  0
    9.4541    1.8149    0.0000 C   0  0  0  0  0  0  0  0  0  0  0  0
    7.9187    2.0819    0.0000 C   0  0  0  0  0  0  0  0  0  0  0  0
    9.7920    0.9262    0.0000 H   0  0  0  0  0  0  0  0  0  0  0  0
    6.3333   -6.3208    0.0000 H   0  0  0  0  0  0  0  0  0  0  0  0
    7.7644   -3.7174    0.0000 H   0  0  0  0  0  0  0  0  0  0  0  0
    8.3943   -2.5283    0.0000 H   0  0  0  0  0  0  0  0  0  0  0  0
    7.0885    0.2211    0.0000 H   0  0  0  0  0  0  0  0  0  0  0  0
  2  1  1  0  0  0  0
  3  2  1  0  0  0  0
  4  1  1  0  0  0  0
  5  1  1  0  0  0  0
  6 16  1  0  0  0  0
  7  5  2  0  0  0  0
  8  3  1  0  0  0  0
  9  2  1  0  0  0  0
 10  7  1  0  0  0  0
 11  6  1  0  0  0  0
 12 13  1  0  0  0  0
 15 13  1  6  0  0  0
 14  4  1  0  0  0  0
 15 30  1  0  0  0  0
 16 19  1  0  0  0  0
 17 28  1  0  0  0  0
 18 11  1  0  0  0  0
 19 14  1  0  0  0  0
 20 21  2  0  0  0  0
 21 37  1  0  0  0  0
 22 12  1  0  0  0  0
 23  9  1  0  0  0  0
 24  9  2  0  0  0  0
 25  4  2  0  0  0  0
 26 24  1  0  0  0  0
 27 19  1  0  0  0  0
 28 27  1  0  0  0  0
 29 12  2  0  0  0  0
 30 33  1  0  0  0  0
 31 22  1  0  0  0  0
 32 36  1  0  0  0  0
 33 26  2  0  0  0  0
  2 34  1  6  0  0  0
  6 35  1  1  0  0  0
 36 35  1  0  0  0  0
 37 28  1  0  0  0  0
 38 18  1  0  0  0  0
 10 39  1  1  0  0  0
 40 31  2  0  0  0  0
 41 40  1  0  0  0  0
 42  7  1  0  0  0  0
 43 20  1  0  0  0  0
 44 22  2  0  0  0  0
 45 44  1  0  0  0  0
 46 40  1  0  0  0  0
 30 47  1  6  0  0  0
 32 48  1  1  0  0  0
 49 38  1  0  0  0  0
 38 50  1  6  0  0  0
 51 49  1  0  0  0  0
 18 52  1  1  0  0  0
  3 53  1  6  0  0  0
  1 54  1  1  0  0  0
 19 55  1  6  0  0  0
 28 56  1  6  0  0  0
 10  3  1  0  0  0  0
 23  8  1  0  0  0  0
 17  6  1  0  0  0  0
 20 15  1  0  0  0  0
 32 18  1  0  0  0  0
 46 45  2  0  0  0  0
M  END
>  <IDNUMBER>
F3409-0848

>  <Chemical_Name>
(1'R,2R,4'S,5S,6R,8'R,10'E,12'S,13'S,14'E,16'E,20'R,21'R,24'S)-6-[(2S)-butan-2-yl]-21',24'-dihydroxy-5,11',13',22'-tetramethyl-2'-oxo-3',7',19'-trioxaspiro[oxane-2,6'-tetracyclo[15.6.1.1?,?.0??,??]pentacosane]-10',14',16',22'-tetraen-12'-yl 3-bromobenzoate

>  <PriceCoeff>
7.00

>  <MW>
769.77

>  <Description>
solid

>  <FSP3>
0.61

>  <clogP>
8.86

>  <TPSA>
120.75

>  <Acceptor>
9

>  <Donor>
2

>  <RotBonds>
5

>  <HAC>
51

$$$$
F3409-0850
  Mrv2219 10102508112D          

 64 70  0  0  0  0            999 V2000
    1.4769   -3.0832    0.0000 C   0  0  2  0  0  0  0  0  0  0  0  0
    0.7468   -3.5379    0.0000 C   0  0  1  0  0  0  0  0  0  0  0  0
    0.7468   -4.3599    0.0000 C   0  0  1  0  0  0  0  0  0  0  0  0
    1.4686   -2.2404    0.0000 C   0  0  0  0  0  0  0  0  0  0  0  0
    2.1403   -3.4879    0.0000 C   0  0  0  0  0  0  0  0  0  0  0  0
    2.8871    0.2295    0.0000 C   0  0  2  0  0  0  0  0  0  0  0  0
    1.4769   -4.7604    0.0000 C   0  0  1  0  0  0  0  0  0  0  0  0
    2.1403   -4.3599    0.0000 C   0  0  0  0  0  0  0  0  0  0  0  0
   -0.0167   -4.6353    0.0000 O   0  0  0  0  0  0  0  0  0  0  0  0
   -0.0167   -3.3001    0.0000 C   0  0  0  0  0  0  0  0  0  0  0  0
    2.8871    1.0764    0.0000 O   0  0  0  0  0  0  0  0  0  0  0  0
   -2.0652    0.7051    0.0000 O   0  0  0  0  0  0  0  0  0  0  0  0
    2.1403   -1.8482    0.0000 O   0  0  0  0  0  0  0  0  0  0  0  0
    2.2321   -5.9745    0.0000 C   0  0  0  0  0  0  0  0  0  0  0  0
   -2.0444    1.5312    0.0000 C   0  0  0  0  0  0  0  0  0  0  0  0
   -1.3810    0.2837    0.0000 C   0  0  2  0  0  0  0  0  0  0  0  0
    2.8871   -0.6175    0.0000 C   0  0  0  0  0  0  0  0  0  0  0  0
    2.1695    0.6551    0.0000 O   0  0  0  0  0  0  0  0  0  0  0  0
    3.5922    1.4352    0.0000 C   0  0  1  0  0  0  0  0  0  0  0  0
    2.1403   -1.0138    0.0000 C   0  0  2  0  0  0  0  0  0  0  0  0
   -0.6466    0.7051    0.0000 C   0  0  0  0  0  0  0  0  0  0  0  0
    1.5020   -5.5823    0.0000 O   0  0  0  0  0  0  0  0  0  0  0  0
    0.0626    0.2837    0.0000 C   0  0  0  0  0  0  0  0  0  0  0  0
   -0.4964   -3.9134    0.0000 C   0  0  0  0  0  0  0  0  0  0  0  0
    2.2572   -6.7964    0.0000 N   0  0  0  0  0  0  0  0  0  0  0  0
   -0.0167   -2.4449    0.0000 C   0  0  0  0  0  0  0  0  0  0  0  0
    0.7468   -1.8232    0.0000 O   0  0  0  0  0  0  0  0  0  0  0  0
   -0.5632   -2.0319    0.0000 C   0  0  0  0  0  0  0  0  0  0  0  0
    1.4769   -0.6050    0.0000 C   0  0  0  0  0  0  0  0  0  0  0  0
    1.4769    0.2628    0.0000 C   0  0  1  0  0  0  0  0  0  0  0  0
    2.9330   -5.5364    0.0000 O   0  0  0  0  0  0  0  0  0  0  0  0
   -1.3184    1.9233    0.0000 O   0  0  0  0  0  0  0  0  0  0  0  0
   -2.7494    1.9609    0.0000 C   0  0  0  0  0  0  0  0  0  0  0  0
   -1.3810   -0.6175    0.0000 C   0  0  2  0  0  0  0  0  0  0  0  0
    4.2430    1.0138    0.0000 C   0  0  2  0  0  0  0  0  0  0  0  0
   -0.5632   -1.1473    0.0000 C   0  0  0  0  0  0  0  0  0  0  0  0
    0.7385   -2.6284    0.0000 O   0  0  0  0  0  0  0  0  0  0  0  0
    3.5379   -0.1335    0.0000 C   0  0  0  0  0  0  0  0  0  0  0  0
    4.2598    0.2545    0.0000 C   0  0  0  0  0  0  0  0  0  0  0  0
    0.7677    0.7051    0.0000 C   0  0  0  0  0  0  0  0  0  0  0  0
    3.2751    2.1862    0.0000 C   0  0  2  0  0  0  0  0  0  0  0  0
    1.5520   -7.2345    0.0000 C   0  0  0  0  0  0  0  0  0  0  0  0
    2.8329   -4.7813    0.0000 C   0  0  0  0  0  0  0  0  0  0  0  0
   -0.6634    1.6146    0.0000 C   0  0  0  0  0  0  0  0  0  0  0  0
   -2.7244    2.7912    0.0000 C   0  0  0  0  0  0  0  0  0  0  0  0
   -3.4712    1.5729    0.0000 C   0  0  0  0  0  0  0  0  0  0  0  0
   -2.0652   -1.0138    0.0000 C   0  0  0  0  0  0  0  0  0  0  0  0
    4.9607    1.3935    0.0000 C   0  0  0  0  0  0  0  0  0  0  0  0
    2.4782    2.3113    0.0000 C   0  0  0  0  0  0  0  0  0  0  0  0
    3.8592    2.8662    0.0000 C   0  0  0  0  0  0  0  0  0  0  0  0
    0.8261   -6.8381    0.0000 C   0  0  0  0  0  0  0  0  0  0  0  0
    1.5813   -8.0563    0.0000 C   0  0  0  0  0  0  0  0  0  0  0  0
    2.3238    3.1333    0.0000 C   0  0  0  0  0  0  0  0  0  0  0  0
   -4.1763    1.9984    0.0000 C   0  0  0  0  0  0  0  0  0  0  0  0
   -3.4253    3.2250    0.0000 C   0  0  0  0  0  0  0  0  0  0  0  0
    0.8804   -8.4903    0.0000 C   0  0  0  0  0  0  0  0  0  0  0  0
    0.1252   -7.2720    0.0000 C   0  0  0  0  0  0  0  0  0  0  0  0
   -4.1554    2.8287    0.0000 C   0  0  0  0  0  0  0  0  0  0  0  0
    0.1502   -8.1023    0.0000 C   0  0  0  0  0  0  0  0  0  0  0  0
    2.7995   -1.4769    0.0000 H   0  0  0  0  0  0  0  0  0  0  0  0
    1.4937    1.2725    0.0000 H   0  0  0  0  0  0  0  0  0  0  0  0
    4.1972    1.9776    0.0000 H   0  0  0  0  0  0  0  0  0  0  0  0
    0.7385   -5.2694    0.0000 H   0  0  0  0  0  0  0  0  0  0  0  0
    2.1695   -2.6660    0.0000 H   0  0  0  0  0  0  0  0  0  0  0  0
  2  1  1  0  0  0  0
  3  2  1  0  0  0  0
  4  1  1  0  0  0  0
  5  1  1  0  0  0  0
  6 17  1  0  0  0  0
  7  8  1  0  0  0  0
  8  5  2  0  0  0  0
  9  3  1  0  0  0  0
 10  2  1  0  0  0  0
 11  6  1  0  0  0  0
 16 12  1  6  0  0  0
 13  4  1  0  0  0  0
 14 22  1  0  0  0  0
 15 12  1  0  0  0  0
 16 34  1  0  0  0  0
 17 20  1  0  0  0  0
 18 30  1  0  0  0  0
 19 11  1  0  0  0  0
 20 13  1  0  0  0  0
 21 23  2  0  0  0  0
  7 22  1  1  0  0  0
 23 40  1  0  0  0  0
 24 10  1  0  0  0  0
 25 14  1  0  0  0  0
 26 10  2  0  0  0  0
 27  4  2  0  0  0  0
 28 26  1  0  0  0  0
 29 20  1  0  0  0  0
 30 29  1  0  0  0  0
 31 14  2  0  0  0  0
 32 15  2  0  0  0  0
 33 15  1  0  0  0  0
 34 36  1  0  0  0  0
 35 39  1  0  0  0  0
 36 28  2  0  0  0  0
  2 37  1  6  0  0  0
  6 38  1  1  0  0  0
 39 38  1  0  0  0  0
 40 30  1  0  0  0  0
 41 19  1  0  0  0  0
 42 25  1  0  0  0  0
 43  8  1  0  0  0  0
 44 21  1  0  0  0  0
 45 33  2  0  0  0  0
 46 33  1  0  0  0  0
 34 47  1  6  0  0  0
 35 48  1  1  0  0  0
 49 41  1  0  0  0  0
 41 50  1  6  0  0  0
 51 42  2  0  0  0  0
 52 42  1  0  0  0  0
 53 49  1  0  0  0  0
 54 46  2  0  0  0  0
 55 45  1  0  0  0  0
 56 52  2  0  0  0  0
 57 51  1  0  0  0  0
 58 54  1  0  0  0  0
 59 56  1  0  0  0  0
 20 60  1  6  0  0  0
 30 61  1  6  0  0  0
 19 62  1  1  0  0  0
  3 63  1  6  0  0  0
  1 64  1  1  0  0  0
  7  3  1  0  0  0  0
 24  9  1  0  0  0  0
 18  6  1  0  0  0  0
 21 16  1  0  0  0  0
 35 19  1  0  0  0  0
 59 57  2  0  0  0  0
 58 55  2  0  0  0  0
M  END
>  <IDNUMBER>
F3409-0850

>  <Chemical_Name>
(1'R,2R,4'S,5S,6R,8'R,10'E,12'S,13'S,14'E,16'E,20'R,21'R,24'S)-6-[(2S)-butan-2-yl]-24'-hydroxy-5,11',13',22'-tetramethyl-2'-oxo-21'-[(phenylcarbamoyl)oxy]-3',7',19'-trioxaspiro[oxane-2,6'-tetracyclo[15.6.1.1?,?.0??,??]pentacosane]-10',14',16',22'-tetraen-12'-yl benzoate

>  <PriceCoeff>
7.00

>  <MW>
810.00

>  <Description>
solid

>  <FSP3>
0.52

>  <clogP>
9.58

>  <TPSA>
138.85

>  <Acceptor>
10

>  <Donor>
2

>  <RotBonds>
8

>  <HAC>
59

$$$$
F3409-0851
  Mrv2219 10102508112D          

 66 72  0  0  0  0            999 V2000
    5.2524   -2.7242    0.0000 C   0  0  2  0  0  0  0  0  0  0  0  0
    4.5224   -3.1790    0.0000 C   0  0  1  0  0  0  0  0  0  0  0  0
    4.5224   -4.0009    0.0000 C   0  0  1  0  0  0  0  0  0  0  0  0
    5.2441   -1.8816    0.0000 C   0  0  0  0  0  0  0  0  0  0  0  0
    5.9158   -3.1290    0.0000 C   0  0  0  0  0  0  0  0  0  0  0  0
    6.6626    0.5882    0.0000 C   0  0  2  0  0  0  0  0  0  0  0  0
    5.2524   -4.4014    0.0000 C   0  0  1  0  0  0  0  0  0  0  0  0
    5.9158   -4.0009    0.0000 C   0  0  0  0  0  0  0  0  0  0  0  0
    3.7590   -4.2762    0.0000 O   0  0  0  0  0  0  0  0  0  0  0  0
    3.7590   -2.9412    0.0000 C   0  0  0  0  0  0  0  0  0  0  0  0
    6.6626    1.4351    0.0000 O   0  0  0  0  0  0  0  0  0  0  0  0
    1.7064    1.0638    0.0000 O   0  0  0  0  0  0  0  0  0  0  0  0
    5.9158   -1.4894    0.0000 O   0  0  0  0  0  0  0  0  0  0  0  0
    6.0076   -5.6154    0.0000 C   0  0  0  0  0  0  0  0  0  0  0  0
    1.7314    1.8899    0.0000 C   0  0  0  0  0  0  0  0  0  0  0  0
    2.3947    0.6425    0.0000 C   0  0  2  0  0  0  0  0  0  0  0  0
    6.6626   -0.2586    0.0000 C   0  0  0  0  0  0  0  0  0  0  0  0
    5.9450    1.0138    0.0000 O   0  0  0  0  0  0  0  0  0  0  0  0
    7.3676    1.7940    0.0000 C   0  0  1  0  0  0  0  0  0  0  0  0
    5.9158   -0.6550    0.0000 C   0  0  2  0  0  0  0  0  0  0  0  0
    3.1290    1.0638    0.0000 C   0  0  0  0  0  0  0  0  0  0  0  0
    5.2775   -5.2233    0.0000 O   0  0  0  0  0  0  0  0  0  0  0  0
    3.8382    0.6425    0.0000 C   0  0  0  0  0  0  0  0  0  0  0  0
    3.2792   -3.5545    0.0000 C   0  0  0  0  0  0  0  0  0  0  0  0
    6.0326   -6.4373    0.0000 N   0  0  0  0  0  0  0  0  0  0  0  0
    1.0263    2.3196    0.0000 C   0  0  0  0  0  0  0  0  0  0  0  0
    3.7590   -2.0859    0.0000 C   0  0  0  0  0  0  0  0  0  0  0  0
    4.5224   -1.4644    0.0000 O   0  0  0  0  0  0  0  0  0  0  0  0
    3.2124   -1.6729    0.0000 C   0  0  0  0  0  0  0  0  0  0  0  0
    5.2524   -0.2461    0.0000 C   0  0  0  0  0  0  0  0  0  0  0  0
    5.2524    0.6216    0.0000 C   0  0  1  0  0  0  0  0  0  0  0  0
    6.7085   -5.1774    0.0000 O   0  0  0  0  0  0  0  0  0  0  0  0
    2.4573    2.2821    0.0000 O   0  0  0  0  0  0  0  0  0  0  0  0
    2.3947   -0.2586    0.0000 C   0  0  2  0  0  0  0  0  0  0  0  0
    8.0184    1.3725    0.0000 C   0  0  2  0  0  0  0  0  0  0  0  0
    3.2124   -0.7885    0.0000 C   0  0  0  0  0  0  0  0  0  0  0  0
    4.5140   -2.2696    0.0000 O   0  0  0  0  0  0  0  0  0  0  0  0
    7.3135    0.2253    0.0000 C   0  0  0  0  0  0  0  0  0  0  0  0
    0.3046    1.9316    0.0000 C   0  0  0  0  0  0  0  0  0  0  0  0
    1.0513    3.1498    0.0000 C   0  0  0  0  0  0  0  0  0  0  0  0
    8.0352    0.6133    0.0000 C   0  0  0  0  0  0  0  0  0  0  0  0
    4.5475    1.0638    0.0000 C   0  0  0  0  0  0  0  0  0  0  0  0
    5.3275   -6.8754    0.0000 C   0  0  0  0  0  0  0  0  0  0  0  0
    7.0506    2.5449    0.0000 C   0  0  2  0  0  0  0  0  0  0  0  0
   -0.4005    2.3572    0.0000 C   0  0  0  0  0  0  0  0  0  0  0  0
    0.3504    3.5837    0.0000 C   0  0  0  0  0  0  0  0  0  0  0  0
   -0.3797    3.1873    0.0000 C   0  0  0  0  0  0  0  0  0  0  0  0
    3.9217   -7.7431    0.0000 C   0  0  0  0  0  0  0  0  0  0  0  0
    6.6126   -4.4223    0.0000 C   0  0  0  0  0  0  0  0  0  0  0  0
    4.6016   -6.4790    0.0000 C   0  0  0  0  0  0  0  0  0  0  0  0
    5.3568   -7.6972    0.0000 C   0  0  0  0  0  0  0  0  0  0  0  0
    4.6559   -8.1311    0.0000 C   0  0  0  0  0  0  0  0  0  0  0  0
    3.9007   -6.9129    0.0000 C   0  0  0  0  0  0  0  0  0  0  0  0
    3.1122    1.9733    0.0000 C   0  0  0  0  0  0  0  0  0  0  0  0
    1.7064   -0.6550    0.0000 C   0  0  0  0  0  0  0  0  0  0  0  0
    8.7361    1.7522    0.0000 C   0  0  0  0  0  0  0  0  0  0  0  0
    6.2537    2.6701    0.0000 C   0  0  0  0  0  0  0  0  0  0  0  0
    7.6347    3.2249    0.0000 C   0  0  0  0  0  0  0  0  0  0  0  0
   -1.0847    3.6213    0.0000 C   0  0  0  0  0  0  0  0  0  0  0  0
    3.2208   -8.1770    0.0000 C   0  0  0  0  0  0  0  0  0  0  0  0
    6.0994    3.4919    0.0000 C   0  0  0  0  0  0  0  0  0  0  0  0
    7.9726    2.3363    0.0000 H   0  0  0  0  0  0  0  0  0  0  0  0
    4.5140   -4.9104    0.0000 H   0  0  0  0  0  0  0  0  0  0  0  0
    5.9450   -2.3071    0.0000 H   0  0  0  0  0  0  0  0  0  0  0  0
    6.5750   -1.1181    0.0000 H   0  0  0  0  0  0  0  0  0  0  0  0
    5.2692    1.6313    0.0000 H   0  0  0  0  0  0  0  0  0  0  0  0
  2  1  1  0  0  0  0
  3  2  1  0  0  0  0
  4  1  1  0  0  0  0
  5  1  1  0  0  0  0
  6 17  1  0  0  0  0
  7  8  1  0  0  0  0
  8  5  2  0  0  0  0
  9  3  1  0  0  0  0
 10  2  1  0  0  0  0
 11  6  1  0  0  0  0
 16 12  1  6  0  0  0
 13  4  1  0  0  0  0
 14 22  1  0  0  0  0
 15 12  1  0  0  0  0
 16 34  1  0  0  0  0
 17 20  1  0  0  0  0
 18 31  1  0  0  0  0
 19 11  1  0  0  0  0
 20 13  1  0  0  0  0
 21 23  2  0  0  0  0
  7 22  1  1  0  0  0
 23 42  1  0  0  0  0
 24 10  1  0  0  0  0
 25 14  1  0  0  0  0
 26 15  1  0  0  0  0
 27 10  2  0  0  0  0
 28  4  2  0  0  0  0
 29 27  1  0  0  0  0
 30 20  1  0  0  0  0
 31 30  1  0  0  0  0
 32 14  2  0  0  0  0
 33 15  2  0  0  0  0
 34 36  1  0  0  0  0
 35 41  1  0  0  0  0
 36 29  2  0  0  0  0
  2 37  1  6  0  0  0
  6 38  1  1  0  0  0
 39 26  1  0  0  0  0
 40 26  2  0  0  0  0
 41 38  1  0  0  0  0
 42 31  1  0  0  0  0
 43 25  1  0  0  0  0
 44 19  1  0  0  0  0
 45 39  2  0  0  0  0
 46 40  1  0  0  0  0
 47 45  1  0  0  0  0
 48 52  1  0  0  0  0
 49  8  1  0  0  0  0
 50 43  2  0  0  0  0
 51 43  1  0  0  0  0
 52 51  2  0  0  0  0
 53 50  1  0  0  0  0
 54 21  1  0  0  0  0
 34 55  1  6  0  0  0
 35 56  1  1  0  0  0
 57 44  1  0  0  0  0
 44 58  1  6  0  0  0
 59 47  1  0  0  0  0
 60 48  1  0  0  0  0
 61 57  1  0  0  0  0
 19 62  1  1  0  0  0
  3 63  1  6  0  0  0
  1 64  1  1  0  0  0
 20 65  1  6  0  0  0
 31 66  1  6  0  0  0
  7  3  1  0  0  0  0
 24  9  1  0  0  0  0
 18  6  1  0  0  0  0
 21 16  1  0  0  0  0
 35 19  1  0  0  0  0
 48 53  2  0  0  0  0
 47 46  2  0  0  0  0
M  END
>  <IDNUMBER>
F3409-0851

>  <Chemical_Name>
(1'R,2R,4'S,5S,6R,8'R,10'E,12'S,13'S,14'E,16'E,20'R,21'R,24'S)-6-[(2S)-butan-2-yl]-24'-hydroxy-5,11',13',22'-tetramethyl-21'-{[(4-methylphenyl)carbamoyl]oxy}-2'-oxo-3',7',19'-trioxaspiro[oxane-2,6'-tetracyclo[15.6.1.1?,?.0??,??]pentacosane]-10',14',16',22'-tetraen-12'-yl 4-methylbenzoate

>  <PriceCoeff>
7.00

>  <MW>
838.05

>  <Description>
solid

>  <FSP3>
0.54

>  <clogP>
10.58

>  <TPSA>
138.85

>  <Acceptor>
10

>  <Donor>
2

>  <RotBonds>
8

>  <HAC>
61

$$$$
F3409-0852
  Mrv2219 10102508112D          

 66 72  0  0  0  0            999 V2000
    6.1950   -4.1968    0.0000 C   0  0  2  0  0  0  0  0  0  0  0  0
    5.4649   -4.6514    0.0000 C   0  0  1  0  0  0  0  0  0  0  0  0
    5.4649   -5.4733    0.0000 C   0  0  1  0  0  0  0  0  0  0  0  0
    6.1867   -3.3541    0.0000 C   0  0  0  0  0  0  0  0  0  0  0  0
    6.8583   -4.6014    0.0000 C   0  0  0  0  0  0  0  0  0  0  0  0
    7.6050   -0.8844    0.0000 C   0  0  2  0  0  0  0  0  0  0  0  0
    6.1950   -5.8738    0.0000 C   0  0  1  0  0  0  0  0  0  0  0  0
    6.8583   -5.4733    0.0000 C   0  0  0  0  0  0  0  0  0  0  0  0
    4.7015   -5.7487    0.0000 O   0  0  0  0  0  0  0  0  0  0  0  0
    4.7015   -4.4137    0.0000 C   0  0  0  0  0  0  0  0  0  0  0  0
    7.6050   -0.0333    0.0000 O   0  0  0  0  0  0  0  0  0  0  0  0
    2.6532   -0.4088    0.0000 O   0  0  0  0  0  0  0  0  0  0  0  0
    6.8583   -2.9619    0.0000 O   0  0  0  0  0  0  0  0  0  0  0  0
    6.9501   -7.0878    0.0000 C   0  0  0  0  0  0  0  0  0  0  0  0
    2.6740    0.4172    0.0000 C   0  0  0  0  0  0  0  0  0  0  0  0
    3.3373   -0.8302    0.0000 C   0  0  2  0  0  0  0  0  0  0  0  0
    7.6050   -1.7313    0.0000 C   0  0  0  0  0  0  0  0  0  0  0  0
    6.8876   -0.4589    0.0000 O   0  0  0  0  0  0  0  0  0  0  0  0
    8.3101    0.3212    0.0000 C   0  0  1  0  0  0  0  0  0  0  0  0
    6.8583   -2.1276    0.0000 C   0  0  2  0  0  0  0  0  0  0  0  0
    4.0716   -0.4088    0.0000 C   0  0  0  0  0  0  0  0  0  0  0  0
    6.2200   -6.6956    0.0000 O   0  0  0  0  0  0  0  0  0  0  0  0
    4.7808   -0.8302    0.0000 C   0  0  0  0  0  0  0  0  0  0  0  0
    4.2218   -5.0269    0.0000 C   0  0  0  0  0  0  0  0  0  0  0  0
    6.9752   -7.9096    0.0000 N   0  0  0  0  0  0  0  0  0  0  0  0
    1.9691    0.8468    0.0000 C   0  0  0  0  0  0  0  0  0  0  0  0
    4.7015   -3.5585    0.0000 C   0  0  0  0  0  0  0  0  0  0  0  0
    5.4649   -2.9369    0.0000 O   0  0  0  0  0  0  0  0  0  0  0  0
    4.1550   -3.1455    0.0000 C   0  0  0  0  0  0  0  0  0  0  0  0
    6.1950   -1.7188    0.0000 C   0  0  0  0  0  0  0  0  0  0  0  0
    6.1950   -0.8510    0.0000 C   0  0  1  0  0  0  0  0  0  0  0  0
    7.6510   -6.6498    0.0000 O   0  0  0  0  0  0  0  0  0  0  0  0
    3.3999    0.8093    0.0000 O   0  0  0  0  0  0  0  0  0  0  0  0
    3.3373   -1.7313    0.0000 C   0  0  2  0  0  0  0  0  0  0  0  0
    8.9609   -0.1001    0.0000 C   0  0  2  0  0  0  0  0  0  0  0  0
    4.1550   -2.2610    0.0000 C   0  0  0  0  0  0  0  0  0  0  0  0
    5.4566   -3.7420    0.0000 O   0  0  0  0  0  0  0  0  0  0  0  0
    8.2558   -1.2473    0.0000 C   0  0  0  0  0  0  0  0  0  0  0  0
    1.2473    0.4589    0.0000 C   0  0  0  0  0  0  0  0  0  0  0  0
    1.9941    1.6770    0.0000 C   0  0  0  0  0  0  0  0  0  0  0  0
    8.9776   -0.8593    0.0000 C   0  0  0  0  0  0  0  0  0  0  0  0
    5.4859   -0.4088    0.0000 C   0  0  0  0  0  0  0  0  0  0  0  0
    6.2701   -8.3476    0.0000 C   0  0  0  0  0  0  0  0  0  0  0  0
    7.9930    1.0721    0.0000 C   0  0  2  0  0  0  0  0  0  0  0  0
    0.5632    1.7146    0.0000 C   0  0  0  0  0  0  0  0  0  0  0  0
    4.8684   -9.2154    0.0000 C   0  0  0  0  0  0  0  0  0  0  0  0
    1.2933    2.1109    0.0000 C   0  0  0  0  0  0  0  0  0  0  0  0
    0.5424    0.8844    0.0000 C   0  0  0  0  0  0  0  0  0  0  0  0
   -0.1419    2.1484    0.0000 Cl  0  0  0  0  0  0  0  0  0  0  0  0
    4.1633   -9.6492    0.0000 Cl  0  0  0  0  0  0  0  0  0  0  0  0
    7.5509   -5.8946    0.0000 C   0  0  0  0  0  0  0  0  0  0  0  0
    5.5442   -7.9513    0.0000 C   0  0  0  0  0  0  0  0  0  0  0  0
    6.2993   -9.1694    0.0000 C   0  0  0  0  0  0  0  0  0  0  0  0
    5.5985   -9.6033    0.0000 C   0  0  0  0  0  0  0  0  0  0  0  0
    4.8434   -8.3852    0.0000 C   0  0  0  0  0  0  0  0  0  0  0  0
    4.0549    0.5006    0.0000 C   0  0  0  0  0  0  0  0  0  0  0  0
    2.6532   -2.1276    0.0000 C   0  0  0  0  0  0  0  0  0  0  0  0
    9.6784    0.2795    0.0000 C   0  0  0  0  0  0  0  0  0  0  0  0
    7.1962    1.1973    0.0000 C   0  0  0  0  0  0  0  0  0  0  0  0
    8.5771    1.7521    0.0000 C   0  0  0  0  0  0  0  0  0  0  0  0
    7.0418    2.0191    0.0000 C   0  0  0  0  0  0  0  0  0  0  0  0
    8.9150    0.8635    0.0000 H   0  0  0  0  0  0  0  0  0  0  0  0
    5.4566   -6.3827    0.0000 H   0  0  0  0  0  0  0  0  0  0  0  0
    6.8876   -3.7796    0.0000 H   0  0  0  0  0  0  0  0  0  0  0  0
    7.5174   -2.5906    0.0000 H   0  0  0  0  0  0  0  0  0  0  0  0
    6.2117    0.1585    0.0000 H   0  0  0  0  0  0  0  0  0  0  0  0
  2  1  1  0  0  0  0
  3  2  1  0  0  0  0
  4  1  1  0  0  0  0
  5  1  1  0  0  0  0
  6 17  1  0  0  0  0
  7  8  1  0  0  0  0
  8  5  2  0  0  0  0
  9  3  1  0  0  0  0
 10  2  1  0  0  0  0
 11  6  1  0  0  0  0
 16 12  1  6  0  0  0
 13  4  1  0  0  0  0
 14 22  1  0  0  0  0
 15 12  1  0  0  0  0
 16 34  1  0  0  0  0
 17 20  1  0  0  0  0
 18 31  1  0  0  0  0
 19 11  1  0  0  0  0
 20 13  1  0  0  0  0
 21 23  2  0  0  0  0
  7 22  1  1  0  0  0
 23 42  1  0  0  0  0
 24 10  1  0  0  0  0
 25 14  1  0  0  0  0
 26 15  1  0  0  0  0
 27 10  2  0  0  0  0
 28  4  2  0  0  0  0
 29 27  1  0  0  0  0
 30 20  1  0  0  0  0
 31 30  1  0  0  0  0
 32 14  2  0  0  0  0
 33 15  2  0  0  0  0
 34 36  1  0  0  0  0
 35 41  1  0  0  0  0
 36 29  2  0  0  0  0
  2 37  1  6  0  0  0
  6 38  1  1  0  0  0
 39 26  1  0  0  0  0
 40 26  2  0  0  0  0
 41 38  1  0  0  0  0
 42 31  1  0  0  0  0
 43 25  1  0  0  0  0
 44 19  1  0  0  0  0
 45 48  1  0  0  0  0
 46 54  1  0  0  0  0
 47 40  1  0  0  0  0
 48 39  2  0  0  0  0
 49 45  1  0  0  0  0
 50 46  1  0  0  0  0
 51  8  1  0  0  0  0
 52 43  2  0  0  0  0
 53 43  1  0  0  0  0
 54 53  2  0  0  0  0
 55 52  1  0  0  0  0
 56 21  1  0  0  0  0
 34 57  1  6  0  0  0
 35 58  1  1  0  0  0
 59 44  1  0  0  0  0
 44 60  1  6  0  0  0
 61 59  1  0  0  0  0
 19 62  1  1  0  0  0
  3 63  1  6  0  0  0
  1 64  1  1  0  0  0
 20 65  1  6  0  0  0
 31 66  1  6  0  0  0
  7  3  1  0  0  0  0
 24  9  1  0  0  0  0
 18  6  1  0  0  0  0
 21 16  1  0  0  0  0
 35 19  1  0  0  0  0
 46 55  2  0  0  0  0
 45 47  2  0  0  0  0
M  END
>  <IDNUMBER>
F3409-0852

>  <Chemical_Name>
(1'R,2R,4'S,5S,6R,8'R,10'E,12'S,13'S,14'E,16'E,20'R,21'R,24'S)-6-[(2S)-butan-2-yl]-21'-{[(4-chlorophenyl)carbamoyl]oxy}-24'-hydroxy-5,11',13',22'-tetramethyl-2'-oxo-3',7',19'-trioxaspiro[oxane-2,6'-tetracyclo[15.6.1.1?,?.0??,??]pentacosane]-10',14',16',22'-tetraen-12'-yl 4-chlorobenzoate

>  <PriceCoeff>
7.00

>  <MW>
878.88

>  <Description>
solid

>  <FSP3>
0.52

>  <clogP>
11.22

>  <TPSA>
138.85

>  <Acceptor>
10

>  <Donor>
2

>  <RotBonds>
8

>  <HAC>
61

$$$$
F3409-0853
  Mrv2219 10102508112D          

 72 78  0  0  0  0            999 V2000
    6.2159   -6.8704    0.0000 C   0  0  2  0  0  0  0  0  0  0  0  0
    5.4863   -7.3248    0.0000 C   0  0  1  0  0  0  0  0  0  0  0  0
    5.4863   -8.1461    0.0000 C   0  0  1  0  0  0  0  0  0  0  0  0
    6.2076   -6.0283    0.0000 C   0  0  0  0  0  0  0  0  0  0  0  0
    6.8787   -7.2748    0.0000 C   0  0  0  0  0  0  0  0  0  0  0  0
    7.6250   -3.5602    0.0000 C   0  0  2  0  0  0  0  0  0  0  0  0
    6.2159   -8.5464    0.0000 C   0  0  1  0  0  0  0  0  0  0  0  0
    6.8787   -8.1461    0.0000 C   0  0  0  0  0  0  0  0  0  0  0  0
    4.7234   -8.4213    0.0000 O   0  0  0  0  0  0  0  0  0  0  0  0
    4.7234   -7.0872    0.0000 C   0  0  0  0  0  0  0  0  0  0  0  0
    7.6250   -2.7140    0.0000 O   0  0  0  0  0  0  0  0  0  0  0  0
   -0.1168   -0.5295    0.0000 C   0  0  0  0  0  0  0  0  0  0  0  0
    4.1856  -12.3192    0.0000 C   0  0  0  0  0  0  0  0  0  0  0  0
    2.6765   -3.0850    0.0000 O   0  0  0  0  0  0  0  0  0  0  0  0
    6.8787   -5.6364    0.0000 O   0  0  0  0  0  0  0  0  0  0  0  0
    6.9705   -9.7595    0.0000 C   0  0  0  0  0  0  0  0  0  0  0  0
    2.6973   -2.2595    0.0000 C   0  0  0  0  0  0  0  0  0  0  0  0
    3.3601   -3.5061    0.0000 C   0  0  2  0  0  0  0  0  0  0  0  0
    7.6250   -4.4066    0.0000 C   0  0  0  0  0  0  0  0  0  0  0  0
    6.9080   -3.1350    0.0000 O   0  0  0  0  0  0  0  0  0  0  0  0
    8.3295   -2.3555    0.0000 C   0  0  1  0  0  0  0  0  0  0  0  0
    6.8787   -4.8026    0.0000 C   0  0  2  0  0  0  0  0  0  0  0  0
    4.0939   -3.0850    0.0000 C   0  0  0  0  0  0  0  0  0  0  0  0
    6.2409   -9.3676    0.0000 O   0  0  0  0  0  0  0  0  0  0  0  0
    4.8026   -3.5061    0.0000 C   0  0  0  0  0  0  0  0  0  0  0  0
    4.2440   -7.7000    0.0000 C   0  0  0  0  0  0  0  0  0  0  0  0
    6.9955  -10.5808    0.0000 N   0  0  0  0  0  0  0  0  0  0  0  0
    0.5878   -0.9630    0.0000 C   0  0  0  0  0  0  0  0  0  0  0  0
    4.8902  -11.8857    0.0000 C   0  0  0  0  0  0  0  0  0  0  0  0
    1.9928   -1.8302    0.0000 C   0  0  0  0  0  0  0  0  0  0  0  0
    4.7234   -6.2326    0.0000 C   0  0  0  0  0  0  0  0  0  0  0  0
    5.4863   -5.6114    0.0000 O   0  0  0  0  0  0  0  0  0  0  0  0
    4.1773   -5.8199    0.0000 C   0  0  0  0  0  0  0  0  0  0  0  0
    6.2159   -4.3941    0.0000 C   0  0  0  0  0  0  0  0  0  0  0  0
    6.2159   -3.5269    0.0000 C   0  0  1  0  0  0  0  0  0  0  0  0
    7.6709   -9.3218    0.0000 O   0  0  0  0  0  0  0  0  0  0  0  0
    3.4227   -1.8677    0.0000 O   0  0  0  0  0  0  0  0  0  0  0  0
    3.3601   -4.4066    0.0000 C   0  0  2  0  0  0  0  0  0  0  0  0
    8.9799   -2.7765    0.0000 C   0  0  2  0  0  0  0  0  0  0  0  0
    4.1773   -4.9360    0.0000 C   0  0  0  0  0  0  0  0  0  0  0  0
    5.4780   -6.4160    0.0000 O   0  0  0  0  0  0  0  0  0  0  0  0
    8.2753   -3.9229    0.0000 C   0  0  0  0  0  0  0  0  0  0  0  0
    1.3174   -0.5670    0.0000 C   0  0  0  0  0  0  0  0  0  0  0  0
    0.5670   -1.7927    0.0000 C   0  0  0  0  0  0  0  0  0  0  0  0
    2.0178   -1.0005    0.0000 C   0  0  0  0  0  0  0  0  0  0  0  0
    1.2715   -2.2179    0.0000 C   0  0  0  0  0  0  0  0  0  0  0  0
   -0.7587   -0.1376    0.0000 F   0  0  0  0  0  0  0  0  0  0  0  0
   -0.2334    0.3252    0.0000 F   0  0  0  0  0  0  0  0  0  0  0  0
   -0.9297   -0.8129    0.0000 F   0  0  0  0  0  0  0  0  0  0  0  0
    3.5477  -12.7194    0.0000 F   0  0  0  0  0  0  0  0  0  0  0  0
    3.3726  -12.0399    0.0000 F   0  0  0  0  0  0  0  0  0  0  0  0
    4.0772  -13.1780    0.0000 F   0  0  0  0  0  0  0  0  0  0  0  0
    4.8652  -11.0560    0.0000 C   0  0  0  0  0  0  0  0  0  0  0  0
    5.6198  -12.2734    0.0000 C   0  0  0  0  0  0  0  0  0  0  0  0
    8.9966   -3.5352    0.0000 C   0  0  0  0  0  0  0  0  0  0  0  0
    5.5072   -3.0850    0.0000 C   0  0  0  0  0  0  0  0  0  0  0  0
    6.2909  -11.0185    0.0000 C   0  0  0  0  0  0  0  0  0  0  0  0
    8.0127   -1.6051    0.0000 C   0  0  2  0  0  0  0  0  0  0  0  0
    5.5655  -10.6225    0.0000 C   0  0  0  0  0  0  0  0  0  0  0  0
    6.3201  -11.8398    0.0000 C   0  0  0  0  0  0  0  0  0  0  0  0
    7.5708   -8.5672    0.0000 C   0  0  0  0  0  0  0  0  0  0  0  0
    4.0772   -2.1762    0.0000 C   0  0  0  0  0  0  0  0  0  0  0  0
    2.6765   -4.8026    0.0000 C   0  0  0  0  0  0  0  0  0  0  0  0
    9.6970   -2.3971    0.0000 C   0  0  0  0  0  0  0  0  0  0  0  0
    7.2164   -1.4800    0.0000 C   0  0  0  0  0  0  0  0  0  0  0  0
    8.5964   -0.9255    0.0000 C   0  0  0  0  0  0  0  0  0  0  0  0
    7.0621   -0.6587    0.0000 C   0  0  0  0  0  0  0  0  0  0  0  0
    5.4780   -9.0549    0.0000 H   0  0  0  0  0  0  0  0  0  0  0  0
    6.9080   -6.4535    0.0000 H   0  0  0  0  0  0  0  0  0  0  0  0
    7.5374   -5.2654    0.0000 H   0  0  0  0  0  0  0  0  0  0  0  0
    6.2326   -2.5181    0.0000 H   0  0  0  0  0  0  0  0  0  0  0  0
    8.9341   -1.8135    0.0000 H   0  0  0  0  0  0  0  0  0  0  0  0
  2  1  1  0  0  0  0
  3  2  1  0  0  0  0
  4  1  1  0  0  0  0
  5  1  1  0  0  0  0
  6 19  1  0  0  0  0
  7  8  1  0  0  0  0
  8  5  2  0  0  0  0
  9  3  1  0  0  0  0
 10  2  1  0  0  0  0
 11  6  1  0  0  0  0
 12 28  1  0  0  0  0
 13 29  1  0  0  0  0
 18 14  1  6  0  0  0
 15  4  1  0  0  0  0
 16 24  1  0  0  0  0
 17 14  1  0  0  0  0
 18 38  1  0  0  0  0
 19 22  1  0  0  0  0
 20 35  1  0  0  0  0
 21 11  1  0  0  0  0
 22 15  1  0  0  0  0
 23 25  2  0  0  0  0
  7 24  1  1  0  0  0
 25 56  1  0  0  0  0
 26 10  1  0  0  0  0
 27 16  1  0  0  0  0
 28 44  1  0  0  0  0
 29 54  1  0  0  0  0
 30 17  1  0  0  0  0
 31 10  2  0  0  0  0
 32  4  2  0  0  0  0
 33 31  1  0  0  0  0
 34 22  1  0  0  0  0
 35 34  1  0  0  0  0
 36 16  2  0  0  0  0
 37 17  2  0  0  0  0
 38 40  1  0  0  0  0
 39 55  1  0  0  0  0
 40 33  2  0  0  0  0
  2 41  1  6  0  0  0
  6 42  1  1  0  0  0
 43 45  1  0  0  0  0
 44 46  2  0  0  0  0
 45 30  2  0  0  0  0
 46 30  1  0  0  0  0
 47 12  1  0  0  0  0
 48 12  1  0  0  0  0
 49 12  1  0  0  0  0
 50 13  1  0  0  0  0
 51 13  1  0  0  0  0
 52 13  1  0  0  0  0
 53 59  1  0  0  0  0
 54 60  2  0  0  0  0
 55 42  1  0  0  0  0
 56 35  1  0  0  0  0
 57 27  1  0  0  0  0
 58 21  1  0  0  0  0
 59 57  2  0  0  0  0
 60 57  1  0  0  0  0
 61  8  1  0  0  0  0
 62 23  1  0  0  0  0
 38 63  1  6  0  0  0
 39 64  1  1  0  0  0
 65 58  1  0  0  0  0
 58 66  1  6  0  0  0
 67 65  1  0  0  0  0
  3 68  1  6  0  0  0
  1 69  1  1  0  0  0
 22 70  1  6  0  0  0
 35 71  1  6  0  0  0
 21 72  1  1  0  0  0
  7  3  1  0  0  0  0
 26  9  1  0  0  0  0
 20  6  1  0  0  0  0
 23 18  1  0  0  0  0
 39 21  1  0  0  0  0
 29 53  2  0  0  0  0
 28 43  2  0  0  0  0
M  END
>  <IDNUMBER>
F3409-0853

>  <Chemical_Name>
(1'R,2R,4'S,5S,6R,8'R,10'E,12'S,13'S,14'E,16'E,20'R,21'R,24'S)-6-[(2S)-butan-2-yl]-24'-hydroxy-5,11',13',22'-tetramethyl-2'-oxo-21'-({[4-(trifluoromethyl)phenyl]carbamoyl}oxy)-3',7',19'-trioxaspiro[oxane-2,6'-tetracyclo[15.6.1.1?,?.0??,??]pentacosane]-10',14',16',22'-tetraen-12'-yl 4-(trifluoromethyl)benzoate

>  <PriceCoeff>
7.00

>  <MW>
945.99

>  <Description>
solid

>  <FSP3>
0.54

>  <clogP>
11.71

>  <TPSA>
138.85

>  <Acceptor>
10

>  <Donor>
2

>  <RotBonds>
8

>  <HAC>
67

$$$$
F3409-0855
  Mrv2219 10102508112D          

 59 64  0  0  0  0            999 V2000
    5.8705   -7.7231    0.0000 C   0  0  2  0  0  0  0  0  0  0  0  0
    5.1403   -8.1779    0.0000 C   0  0  1  0  0  0  0  0  0  0  0  0
    5.1403   -8.9998    0.0000 C   0  0  1  0  0  0  0  0  0  0  0  0
    5.8622   -6.8802    0.0000 C   0  0  0  0  0  0  0  0  0  0  0  0
    6.5340   -8.1278    0.0000 C   0  0  0  0  0  0  0  0  0  0  0  0
    7.2808   -4.4102    0.0000 C   0  0  2  0  0  0  0  0  0  0  0  0
    5.8705   -9.4004    0.0000 C   0  0  1  0  0  0  0  0  0  0  0  0
    6.5340   -8.9998    0.0000 C   0  0  0  0  0  0  0  0  0  0  0  0
    4.3768   -9.2752    0.0000 O   0  0  0  0  0  0  0  0  0  0  0  0
    4.3768   -7.9401    0.0000 C   0  0  0  0  0  0  0  0  0  0  0  0
    5.8956  -10.2223    0.0000 O   0  0  0  0  0  0  0  0  0  0  0  0
    7.2808   -3.5591    0.0000 O   0  0  0  0  0  0  0  0  0  0  0  0
    6.6258  -10.6145    0.0000 C   0  0  0  0  0  0  0  0  0  0  0  0
    6.5340   -6.4881    0.0000 O   0  0  0  0  0  0  0  0  0  0  0  0
    3.0124   -4.3560    0.0000 C   0  0  1  0  0  0  0  0  0  0  0  0
    7.2808   -5.2572    0.0000 C   0  0  0  0  0  0  0  0  0  0  0  0
    6.5632   -3.9847    0.0000 O   0  0  0  0  0  0  0  0  0  0  0  0
    7.9859   -3.2044    0.0000 C   0  0  1  0  0  0  0  0  0  0  0  0
    6.5340   -5.6535    0.0000 C   0  0  2  0  0  0  0  0  0  0  0  0
    3.7468   -3.9346    0.0000 C   0  0  0  0  0  0  0  0  0  0  0  0
    4.4561   -4.3560    0.0000 C   0  0  0  0  0  0  0  0  0  0  0  0
    6.6508  -11.4365    0.0000 C   0  0  0  0  0  0  0  0  0  0  0  0
    2.3240   -3.9346    0.0000 O   0  0  0  0  0  0  0  0  0  0  0  0
    3.8970   -8.5534    0.0000 C   0  0  0  0  0  0  0  0  0  0  0  0
    2.3490   -3.1085    0.0000 C   0  0  0  0  0  0  0  0  0  0  0  0
    4.3768   -7.0847    0.0000 C   0  0  0  0  0  0  0  0  0  0  0  0
    5.1403   -6.4631    0.0000 O   0  0  0  0  0  0  0  0  0  0  0  0
    3.8302   -6.6716    0.0000 C   0  0  0  0  0  0  0  0  0  0  0  0
    5.8705   -5.2447    0.0000 C   0  0  0  0  0  0  0  0  0  0  0  0
    5.8705   -4.3768    0.0000 C   0  0  1  0  0  0  0  0  0  0  0  0
    7.3267  -10.1764    0.0000 O   0  0  0  0  0  0  0  0  0  0  0  0
    3.0124   -5.2572    0.0000 C   0  0  2  0  0  0  0  0  0  0  0  0
    5.9456  -11.8705    0.0000 C   0  0  0  0  0  0  0  0  0  0  0  0
    8.6368   -3.6258    0.0000 C   0  0  2  0  0  0  0  0  0  0  0  0
    3.8302   -5.7871    0.0000 C   0  0  0  0  0  0  0  0  0  0  0  0
    5.1320   -7.2683    0.0000 O   0  0  0  0  0  0  0  0  0  0  0  0
    7.9317   -4.7732    0.0000 C   0  0  0  0  0  0  0  0  0  0  0  0
    3.0750   -2.7162    0.0000 O   0  0  0  0  0  0  0  0  0  0  0  0
    8.6536   -4.3852    0.0000 C   0  0  0  0  0  0  0  0  0  0  0  0
    5.1613   -3.9346    0.0000 C   0  0  0  0  0  0  0  0  0  0  0  0
    7.6688   -2.4534    0.0000 C   0  0  2  0  0  0  0  0  0  0  0  0
    5.9707  -12.6924    0.0000 C   0  0  0  0  0  0  0  0  0  0  0  0
    5.2697  -13.1263    0.0000 Br  0  0  0  0  0  0  0  0  0  0  0  0
    7.2266   -9.4212    0.0000 C   0  0  0  0  0  0  0  0  0  0  0  0
    3.7301   -3.0249    0.0000 C   0  0  0  0  0  0  0  0  0  0  0  0
    7.3768  -11.8245    0.0000 C   0  0  0  0  0  0  0  0  0  0  0  0
    7.4059  -12.6465    0.0000 C   0  0  0  0  0  0  0  0  0  0  0  0
    1.6440   -2.6787    0.0000 C   0  0  0  0  0  0  0  0  0  0  0  0
    6.7009  -13.0846    0.0000 C   0  0  0  0  0  0  0  0  0  0  0  0
    2.3240   -5.6535    0.0000 C   0  0  0  0  0  0  0  0  0  0  0  0
    9.3545   -3.2461    0.0000 C   0  0  0  0  0  0  0  0  0  0  0  0
    6.8719   -2.3282    0.0000 C   0  0  0  0  0  0  0  0  0  0  0  0
    8.2530   -1.7732    0.0000 C   0  0  0  0  0  0  0  0  0  0  0  0
    6.7175   -1.5063    0.0000 C   0  0  0  0  0  0  0  0  0  0  0  0
    7.1932   -6.1167    0.0000 H   0  0  0  0  0  0  0  0  0  0  0  0
    5.8873   -3.3671    0.0000 H   0  0  0  0  0  0  0  0  0  0  0  0
    8.5910   -2.6619    0.0000 H   0  0  0  0  0  0  0  0  0  0  0  0
    5.1320   -9.9094    0.0000 H   0  0  0  0  0  0  0  0  0  0  0  0
    6.5632   -7.3058    0.0000 H   0  0  0  0  0  0  0  0  0  0  0  0
  2  1  1  0  0  0  0
  3  2  1  0  0  0  0
  4  1  1  0  0  0  0
  5  1  1  0  0  0  0
  6 16  1  0  0  0  0
  7  8  1  0  0  0  0
  8  5  2  0  0  0  0
  9  3  1  0  0  0  0
 10  2  1  0  0  0  0
  7 11  1  1  0  0  0
 12  6  1  0  0  0  0
 13 11  1  0  0  0  0
 14  4  1  0  0  0  0
 15 32  1  0  0  0  0
 16 19  1  0  0  0  0
 17 30  1  0  0  0  0
 18 12  1  0  0  0  0
 19 14  1  0  0  0  0
 20 21  2  0  0  0  0
 21 40  1  0  0  0  0
 22 13  1  0  0  0  0
 15 23  1  6  0  0  0
 24 10  1  0  0  0  0
 25 23  1  0  0  0  0
 26 10  2  0  0  0  0
 27  4  2  0  0  0  0
 28 26  1  0  0  0  0
 29 19  1  0  0  0  0
 30 29  1  0  0  0  0
 31 13  2  0  0  0  0
 32 35  1  0  0  0  0
 33 22  2  0  0  0  0
 34 39  1  0  0  0  0
 35 28  2  0  0  0  0
  2 36  1  6  0  0  0
  6 37  1  1  0  0  0
 38 25  2  0  0  0  0
 39 37  1  0  0  0  0
 40 30  1  0  0  0  0
 41 18  1  0  0  0  0
 42 33  1  0  0  0  0
 43 42  1  0  0  0  0
 44  8  1  0  0  0  0
 45 20  1  0  0  0  0
 46 22  1  0  0  0  0
 47 46  2  0  0  0  0
 48 25  1  0  0  0  0
 49 47  1  0  0  0  0
 32 50  1  6  0  0  0
 34 51  1  1  0  0  0
 52 41  1  0  0  0  0
 41 53  1  6  0  0  0
 54 52  1  0  0  0  0
 19 55  1  6  0  0  0
 30 56  1  6  0  0  0
 18 57  1  1  0  0  0
  3 58  1  6  0  0  0
  1 59  1  1  0  0  0
  7  3  1  0  0  0  0
 24  9  1  0  0  0  0
 17  6  1  0  0  0  0
 20 15  1  0  0  0  0
 34 18  1  0  0  0  0
 49 42  2  0  0  0  0
M  END
>  <IDNUMBER>
F3409-0855

>  <Chemical_Name>
(1'R,2R,4'S,5S,6R,8'R,10'E,12'S,13'S,14'E,16'E,20'R,21'R,24'S)-12'-(acetyloxy)-6-[(2S)-butan-2-yl]-24'-hydroxy-5,11',13',22'-tetramethyl-2'-oxo-3',7',19'-trioxaspiro[oxane-2,6'-tetracyclo[15.6.1.1?,?.0??,??]pentacosane]-10',14',16',22'-tetraen-21'-yl 3-bromobenzoate

>  <PriceCoeff>
7.00

>  <MW>
811.81

>  <Description>
solid

>  <FSP3>
0.60

>  <clogP>
8.90

>  <TPSA>
126.82

>  <Acceptor>
10

>  <Donor>
1

>  <RotBonds>
7

>  <HAC>
54

$$$$
F3409-0866
  Mrv2219 10102508112D          

 54 58  0  0  0  0            999 V2000
   -4.2847    2.8236    0.0000 C   0  0  2  0  0  0  0  0  0  0  0  0
   -5.0108    2.3664    0.0000 C   0  0  1  0  0  0  0  0  0  0  0  0
   -5.0108    1.5506    0.0000 C   0  0  1  0  0  0  0  0  0  0  0  0
   -4.2935    3.6662    0.0000 C   0  0  0  0  0  0  0  0  0  0  0  0
   -3.6213    2.4202    0.0000 C   0  0  0  0  0  0  0  0  0  0  0  0
   -2.8683    6.1402    0.0000 C   0  0  2  0  0  0  0  0  0  0  0  0
   -4.2847    1.1473    0.0000 C   0  0  1  0  0  0  0  0  0  0  0  0
   -3.6213    1.5506    0.0000 C   0  0  0  0  0  0  0  0  0  0  0  0
   -5.7816    1.2729    0.0000 O   0  0  0  0  0  0  0  0  0  0  0  0
   -5.7816    2.6084    0.0000 C   0  0  0  0  0  0  0  0  0  0  0  0
   -2.8683    6.9917    0.0000 O   0  0  0  0  0  0  0  0  0  0  0  0
   -3.6213    4.0605    0.0000 O   0  0  0  0  0  0  0  0  0  0  0  0
   -2.8683    5.2975    0.0000 C   0  0  0  0  0  0  0  0  0  0  0  0
   -3.5855    6.5704    0.0000 O   0  0  0  0  0  0  0  0  0  0  0  0
   -2.1603    7.3503    0.0000 C   0  0  1  0  0  0  0  0  0  0  0  0
   -3.6213    4.8942    0.0000 C   0  0  2  0  0  0  0  0  0  0  0  0
   -6.4091    6.6152    0.0000 C   0  0  0  0  0  0  0  0  0  0  0  0
   -4.2578    0.3227    0.0000 O   0  0  0  0  0  0  0  0  0  0  0  0
   -5.7009    6.1940    0.0000 C   0  0  0  0  0  0  0  0  0  0  0  0
   -6.2566    1.9899    0.0000 C   0  0  0  0  0  0  0  0  0  0  0  0
   -7.1440    6.1940    0.0000 C   0  0  2  0  0  0  0  0  0  0  0  0
   -3.5318   -0.0716    0.0000 C   0  0  0  0  0  0  0  0  0  0  0  0
   -5.7816    3.4689    0.0000 C   0  0  0  0  0  0  0  0  0  0  0  0
   -4.1950   -2.1603    0.0000 C   0  0  0  0  0  0  0  0  0  0  0  0
   -5.0108    4.0874    0.0000 O   0  0  0  0  0  0  0  0  0  0  0  0
   -6.3284    3.8813    0.0000 C   0  0  0  0  0  0  0  0  0  0  0  0
   -4.2847    5.3066    0.0000 C   0  0  0  0  0  0  0  0  0  0  0  0
   -4.2847    6.1759    0.0000 C   0  0  1  0  0  0  0  0  0  0  0  0
   -1.5149    6.9289    0.0000 C   0  0  2  0  0  0  0  0  0  0  0  0
   -6.3284    4.7597    0.0000 C   0  0  0  0  0  0  0  0  0  0  0  0
   -5.0196    3.2807    0.0000 O   0  0  0  0  0  0  0  0  0  0  0  0
   -2.2141    5.7816    0.0000 C   0  0  0  0  0  0  0  0  0  0  0  0
   -7.1440    5.2975    0.0000 C   0  0  2  0  0  0  0  0  0  0  0  0
   -2.8326    0.3674    0.0000 O   0  0  0  0  0  0  0  0  0  0  0  0
   -3.4599   -2.5546    0.0000 O   0  0  0  0  0  0  0  0  0  0  0  0
   -1.4969    6.1671    0.0000 C   0  0  0  0  0  0  0  0  0  0  0  0
   -4.9927    6.6152    0.0000 C   0  0  0  0  0  0  0  0  0  0  0  0
   -2.4830    8.1032    0.0000 C   0  0  2  0  0  0  0  0  0  0  0  0
   -3.5137   -0.8964    0.0000 C   0  0  0  0  0  0  0  0  0  0  0  0
   -4.2129   -1.3267    0.0000 C   0  0  0  0  0  0  0  0  0  0  0  0
   -7.8431    6.6152    0.0000 O   0  0  0  0  0  0  0  0  0  0  0  0
   -4.8942   -2.5994    0.0000 O   0  0  0  0  0  0  0  0  0  0  0  0
   -2.9221    1.1294    0.0000 C   0  0  0  0  0  0  0  0  0  0  0  0
   -6.4270    7.5295    0.0000 C   0  0  0  0  0  0  0  0  0  0  0  0
   -0.7889    7.3053    0.0000 C   0  0  0  0  0  0  0  0  0  0  0  0
   -7.8431    4.8942    0.0000 C   0  0  0  0  0  0  0  0  0  0  0  0
   -3.2807    8.2287    0.0000 C   0  0  0  0  0  0  0  0  0  0  0  0
   -1.9002    8.7843    0.0000 C   0  0  0  0  0  0  0  0  0  0  0  0
   -3.4330    9.0444    0.0000 C   0  0  0  0  0  0  0  0  0  0  0  0
   -2.9580    4.4370    0.0000 H   0  0  0  0  0  0  0  0  0  0  0  0
   -4.2666    7.1889    0.0000 H   0  0  0  0  0  0  0  0  0  0  0  0
   -1.5597    7.8881    0.0000 H   0  0  0  0  0  0  0  0  0  0  0  0
   -5.0196    0.6363    0.0000 H   0  0  0  0  0  0  0  0  0  0  0  0
   -3.5855    3.2448    0.0000 H   0  0  0  0  0  0  0  0  0  0  0  0
  2  1  1  0  0  0  0
  3  2  1  0  0  0  0
  4  1  1  0  0  0  0
  5  1  1  0  0  0  0
  6 13  1  0  0  0  0
  7  3  1  0  0  0  0
  8  5  2  0  0  0  0
  9  3  1  0  0  0  0
 10  2  1  0  0  0  0
 11  6  1  0  0  0  0
 12  4  1  0  0  0  0
 13 16  1  0  0  0  0
 14 28  1  0  0  0  0
 15 11  1  0  0  0  0
 16 12  1  0  0  0  0
 17 21  1  0  0  0  0
  7 18  1  1  0  0  0
 19 37  1  0  0  0  0
 20 10  1  0  0  0  0
 21 33  1  0  0  0  0
 22 18  1  0  0  0  0
 23 10  2  0  0  0  0
 24 40  1  0  0  0  0
 25  4  2  0  0  0  0
 26 23  1  0  0  0  0
 27 16  1  0  0  0  0
 28 27  1  0  0  0  0
 29 36  1  0  0  0  0
 30 26  2  0  0  0  0
  2 31  1  6  0  0  0
  6 32  1  1  0  0  0
 33 30  1  0  0  0  0
 34 22  2  0  0  0  0
 35 24  2  0  0  0  0
 36 32  1  0  0  0  0
 37 28  1  0  0  0  0
 38 15  1  0  0  0  0
 39 22  1  0  0  0  0
 40 39  1  0  0  0  0
 21 41  1  6  0  0  0
 42 24  1  0  0  0  0
 43  8  1  0  0  0  0
 44 17  1  0  0  0  0
 29 45  1  1  0  0  0
 33 46  1  6  0  0  0
 47 38  1  0  0  0  0
 38 48  1  6  0  0  0
 49 47  1  0  0  0  0
 16 50  1  6  0  0  0
 28 51  1  6  0  0  0
 15 52  1  1  0  0  0
  3 53  1  6  0  0  0
  1 54  1  1  0  0  0
  8  7  1  0  0  0  0
 20  9  1  0  0  0  0
 14  6  1  0  0  0  0
 19 17  2  0  0  0  0
 29 15  1  0  0  0  0
M  END
>  <IDNUMBER>
F3409-0866

>  <Chemical_Name>
4-[(1'R,2R,4'S,5S,6R,8'R,10'E,12'S,13'S,14'E,16'E,20'R,21'R,24'S)-6-[(2S)-butan-2-yl]-12',24'-dihydroxy-5,11',13',22'-tetramethyl-2'-oxo-3',7',19'-trioxaspiro[oxane-2,6'-tetracyclo[15.6.1.1?,?.0??,??]pentacosane]-10',14',16',22'-tetraen-21'-yloxy]-4-oxobutanoic acid

>  <PriceCoeff>
7.00

>  <MW>
686.84

>  <Description>
solid

>  <FSP3>
0.71

>  <clogP>
5.13

>  <TPSA>
158.05

>  <Acceptor>
11

>  <Donor>
2

>  <RotBonds>
7

>  <HAC>
49

$$$$
F3409-0867
  Mrv2219 10102508112D          

 57 62  0  0  0  0            999 V2000
    6.5702   -6.8507    0.0000 C   0  0  2  0  0  0  0  0  0  0  0  0
    5.8373   -7.3071    0.0000 C   0  0  1  0  0  0  0  0  0  0  0  0
    5.8373   -8.1321    0.0000 C   0  0  1  0  0  0  0  0  0  0  0  0
    6.5618   -6.0048    0.0000 C   0  0  0  0  0  0  0  0  0  0  0  0
    7.2360   -7.2569    0.0000 C   0  0  0  0  0  0  0  0  0  0  0  0
    7.9855   -3.5258    0.0000 C   0  0  2  0  0  0  0  0  0  0  0  0
    6.5702   -8.5341    0.0000 C   0  0  1  0  0  0  0  0  0  0  0  0
    7.2360   -8.1321    0.0000 C   0  0  0  0  0  0  0  0  0  0  0  0
    5.0710   -8.4085    0.0000 O   0  0  0  0  0  0  0  0  0  0  0  0
    5.0710   -7.0684    0.0000 C   0  0  0  0  0  0  0  0  0  0  0  0
    6.5953   -9.3590    0.0000 O   0  0  0  0  0  0  0  0  0  0  0  0
    7.9855   -2.6758    0.0000 O   0  0  0  0  0  0  0  0  0  0  0  0
    7.2360   -5.6112    0.0000 O   0  0  0  0  0  0  0  0  0  0  0  0
    7.3197   -9.7527    0.0000 C   0  0  0  0  0  0  0  0  0  0  0  0
    7.9855   -4.3759    0.0000 C   0  0  0  0  0  0  0  0  0  0  0  0
    7.2653   -3.0987    0.0000 O   0  0  0  0  0  0  0  0  0  0  0  0
    8.6932   -2.3157    0.0000 C   0  0  1  0  0  0  0  0  0  0  0  0
    7.2360   -4.7737    0.0000 C   0  0  2  0  0  0  0  0  0  0  0  0
    4.4388   -3.0484    0.0000 C   0  0  0  0  0  0  0  0  0  0  0  0
    5.1506   -3.4715    0.0000 C   0  0  0  0  0  0  0  0  0  0  0  0
    4.5895   -7.6840    0.0000 C   0  0  0  0  0  0  0  0  0  0  0  0
    3.7017   -3.4715    0.0000 C   0  0  2  0  0  0  0  0  0  0  0  0
    7.3407  -10.5818    0.0000 C   0  0  0  0  0  0  0  0  0  0  0  0
    5.0710   -6.2101    0.0000 C   0  0  0  0  0  0  0  0  0  0  0  0
    5.8373   -5.5861    0.0000 O   0  0  0  0  0  0  0  0  0  0  0  0
    4.5225   -5.7955    0.0000 C   0  0  0  0  0  0  0  0  0  0  0  0
    6.5702   -4.3634    0.0000 C   0  0  0  0  0  0  0  0  0  0  0  0
    6.5702   -3.4924    0.0000 C   0  0  1  0  0  0  0  0  0  0  0  0
    8.0191   -9.3130    0.0000 O   0  0  0  0  0  0  0  0  0  0  0  0
    9.3464   -2.7386    0.0000 C   0  0  2  0  0  0  0  0  0  0  0  0
    4.5225   -4.9077    0.0000 C   0  0  0  0  0  0  0  0  0  0  0  0
    5.8290   -6.3943    0.0000 O   0  0  0  0  0  0  0  0  0  0  0  0
    8.6387   -3.8901    0.0000 C   0  0  0  0  0  0  0  0  0  0  0  0
    3.7017   -4.3759    0.0000 C   0  0  2  0  0  0  0  0  0  0  0  0
    8.0357  -11.0173    0.0000 C   0  0  0  0  0  0  0  0  0  0  0  0
    6.6162  -10.9587    0.0000 C   0  0  0  0  0  0  0  0  0  0  0  0
    9.3632   -3.5007    0.0000 C   0  0  0  0  0  0  0  0  0  0  0  0
    5.8583   -3.0484    0.0000 C   0  0  0  0  0  0  0  0  0  0  0  0
    8.3749   -1.5620    0.0000 C   0  0  2  0  0  0  0  0  0  0  0  0
    3.0150   -3.0484    0.0000 O   0  0  0  0  0  0  0  0  0  0  0  0
    7.2736  -12.2232    0.0000 C   0  0  0  0  0  0  0  0  0  0  0  0
    6.5744  -11.7793    0.0000 C   0  0  0  0  0  0  0  0  0  0  0  0
    8.0065  -11.8380    0.0000 C   0  0  0  0  0  0  0  0  0  0  0  0
    7.9311   -8.5550    0.0000 C   0  0  0  0  0  0  0  0  0  0  0  0
    7.2402  -13.0481    0.0000 O   0  0  0  0  0  0  0  0  0  0  0  0
    4.4220   -2.1356    0.0000 C   0  0  0  0  0  0  0  0  0  0  0  0
   10.0667   -2.3575    0.0000 C   0  0  0  0  0  0  0  0  0  0  0  0
    3.0150   -4.7737    0.0000 C   0  0  0  0  0  0  0  0  0  0  0  0
    7.5751   -1.4363    0.0000 C   0  0  0  0  0  0  0  0  0  0  0  0
    8.9612   -0.8794    0.0000 C   0  0  0  0  0  0  0  0  0  0  0  0
    7.9395  -13.4921    0.0000 C   0  0  0  0  0  0  0  0  0  0  0  0
    7.4202   -0.6113    0.0000 C   0  0  0  0  0  0  0  0  0  0  0  0
    7.8975   -5.2385    0.0000 H   0  0  0  0  0  0  0  0  0  0  0  0
    6.5869   -2.4790    0.0000 H   0  0  0  0  0  0  0  0  0  0  0  0
    9.3004   -1.7713    0.0000 H   0  0  0  0  0  0  0  0  0  0  0  0
    5.8290   -9.0450    0.0000 H   0  0  0  0  0  0  0  0  0  0  0  0
    7.2653   -6.4320    0.0000 H   0  0  0  0  0  0  0  0  0  0  0  0
  2  1  1  0  0  0  0
  3  2  1  0  0  0  0
  4  1  1  0  0  0  0
  5  1  1  0  0  0  0
  6 15  1  0  0  0  0
  7  8  1  0  0  0  0
  8  5  2  0  0  0  0
  9  3  1  0  0  0  0
 10  2  1  0  0  0  0
  7 11  1  1  0  0  0
 12  6  1  0  0  0  0
 13  4  1  0  0  0  0
 14 11  1  0  0  0  0
 15 18  1  0  0  0  0
 16 28  1  0  0  0  0
 17 12  1  0  0  0  0
 18 13  1  0  0  0  0
 19 20  2  0  0  0  0
 20 38  1  0  0  0  0
 21 10  1  0  0  0  0
 22 34  1  0  0  0  0
 23 14  1  0  0  0  0
 24 10  2  0  0  0  0
 25  4  2  0  0  0  0
 26 24  1  0  0  0  0
 27 18  1  0  0  0  0
 28 27  1  0  0  0  0
 29 14  2  0  0  0  0
 30 37  1  0  0  0  0
 31 26  2  0  0  0  0
  2 32  1  6  0  0  0
  6 33  1  1  0  0  0
 34 31  1  0  0  0  0
 35 23  1  0  0  0  0
 36 23  2  0  0  0  0
 37 33  1  0  0  0  0
 38 28  1  0  0  0  0
 39 17  1  0  0  0  0
 22 40  1  6  0  0  0
 41 42  2  0  0  0  0
 42 36  1  0  0  0  0
 43 35  2  0  0  0  0
 44  8  1  0  0  0  0
 45 41  1  0  0  0  0
 46 19  1  0  0  0  0
 30 47  1  1  0  0  0
 34 48  1  6  0  0  0
 49 39  1  0  0  0  0
 39 50  1  6  0  0  0
 51 45  1  0  0  0  0
 52 49  1  0  0  0  0
 18 53  1  6  0  0  0
 28 54  1  6  0  0  0
 17 55  1  1  0  0  0
  3 56  1  6  0  0  0
  1 57  1  1  0  0  0
  7  3  1  0  0  0  0
 21  9  1  0  0  0  0
 16  6  1  0  0  0  0
 19 22  1  0  0  0  0
 43 41  1  0  0  0  0
 30 17  1  0  0  0  0
M  END
>  <IDNUMBER>
F3409-0867

>  <Chemical_Name>
(1'R,2R,4'S,5S,6R,8'R,10'E,12'S,13'S,14'E,16'E,20'R,21'R,24'S)-6-[(2S)-butan-2-yl]-12',24'-dihydroxy-5,11',13',22'-tetramethyl-2'-oxo-3',7',19'-trioxaspiro[oxane-2,6'-tetracyclo[15.6.1.1?,?.0??,??]pentacosane]-10',14',16',22'-tetraen-21'-yl 4-methoxybenzoate

>  <PriceCoeff>
7.00

>  <MW>
720.90

>  <Description>
solid

>  <FSP3>
0.62

>  <clogP>
7.26

>  <TPSA>
129.98

>  <Acceptor>
10

>  <Donor>
2

>  <RotBonds>
6

>  <HAC>
52

$$$$
F3409-0868
  Mrv2219 10102508112D          

 67 73  0  0  0  0            999 V2000
    6.0444   -7.6717    0.0000 C   0  0  2  0  0  0  0  0  0  0  0  0
    5.3125   -8.1276    0.0000 C   0  0  1  0  0  0  0  0  0  0  0  0
    5.3125   -8.9517    0.0000 C   0  0  1  0  0  0  0  0  0  0  0  0
    6.0361   -6.8267    0.0000 C   0  0  0  0  0  0  0  0  0  0  0  0
    6.7095   -8.0774    0.0000 C   0  0  0  0  0  0  0  0  0  0  0  0
    7.4584   -4.3503    0.0000 C   0  0  2  0  0  0  0  0  0  0  0  0
    6.0444   -9.3533    0.0000 C   0  0  1  0  0  0  0  0  0  0  0  0
    6.7095   -8.9517    0.0000 C   0  0  0  0  0  0  0  0  0  0  0  0
    4.5470   -9.2278    0.0000 O   0  0  0  0  0  0  0  0  0  0  0  0
    4.5470   -7.8891    0.0000 C   0  0  0  0  0  0  0  0  0  0  0  0
    6.0695  -10.1773    0.0000 O   0  0  0  0  0  0  0  0  0  0  0  0
    7.4584   -3.5012    0.0000 O   0  0  0  0  0  0  0  0  0  0  0  0
    2.4889   -3.8734    0.0000 O   0  0  0  0  0  0  0  0  0  0  0  0
    6.7095   -6.4335    0.0000 O   0  0  0  0  0  0  0  0  0  0  0  0
    6.7933  -10.5705    0.0000 C   0  0  0  0  0  0  0  0  0  0  0  0
    1.5937   -4.0701    0.0000 C   0  0  0  0  0  0  0  0  0  0  0  0
    3.1791   -4.2960    0.0000 C   0  0  2  0  0  0  0  0  0  0  0  0
    7.4584   -5.1995    0.0000 C   0  0  0  0  0  0  0  0  0  0  0  0
    6.7389   -3.9236    0.0000 O   0  0  0  0  0  0  0  0  0  0  0  0
    8.1652   -3.1415    0.0000 C   0  0  1  0  0  0  0  0  0  0  0  0
    6.7095   -5.5969    0.0000 C   0  0  2  0  0  0  0  0  0  0  0  0
    3.9153   -3.8734    0.0000 C   0  0  0  0  0  0  0  0  0  0  0  0
    4.6264   -4.2960    0.0000 C   0  0  0  0  0  0  0  0  0  0  0  0
    4.0659   -8.5041    0.0000 C   0  0  0  0  0  0  0  0  0  0  0  0
    6.8141  -11.3988    0.0000 C   0  0  0  0  0  0  0  0  0  0  0  0
    1.1420   -3.3757    0.0000 C   0  0  0  0  0  0  0  0  0  0  0  0
    4.5470   -7.0317    0.0000 C   0  0  0  0  0  0  0  0  0  0  0  0
    5.3125   -6.4084    0.0000 O   0  0  0  0  0  0  0  0  0  0  0  0
    3.9989   -6.6176    0.0000 C   0  0  0  0  0  0  0  0  0  0  0  0
    6.0444   -5.1870    0.0000 C   0  0  0  0  0  0  0  0  0  0  0  0
    6.0444   -4.3169    0.0000 C   0  0  1  0  0  0  0  0  0  0  0  0
    1.2298   -4.8105    0.0000 O   0  0  0  0  0  0  0  0  0  0  0  0
    7.4918  -10.1313    0.0000 O   0  0  0  0  0  0  0  0  0  0  0  0
    3.1791   -5.1995    0.0000 C   0  0  2  0  0  0  0  0  0  0  0  0
    8.8178   -3.5639    0.0000 C   0  0  2  0  0  0  0  0  0  0  0  0
    3.9989   -5.7307    0.0000 C   0  0  0  0  0  0  0  0  0  0  0  0
    5.3040   -7.2157    0.0000 O   0  0  0  0  0  0  0  0  0  0  0  0
    8.1109   -4.7142    0.0000 C   0  0  0  0  0  0  0  0  0  0  0  0
    6.0905  -11.7752    0.0000 C   0  0  0  0  0  0  0  0  0  0  0  0
    7.5086  -11.8338    0.0000 C   0  0  0  0  0  0  0  0  0  0  0  0
    0.3221   -3.3715    0.0000 C   0  0  0  0  0  0  0  0  0  0  0  0
    1.5603   -2.6772    0.0000 C   0  0  0  0  0  0  0  0  0  0  0  0
    8.8345   -4.3252    0.0000 C   0  0  0  0  0  0  0  0  0  0  0  0
    5.3376   -3.8734    0.0000 C   0  0  0  0  0  0  0  0  0  0  0  0
    7.8474   -2.3885    0.0000 C   0  0  2  0  0  0  0  0  0  0  0  0
    0.3388   -1.9451    0.0000 C   0  0  0  0  0  0  0  0  0  0  0  0
    6.7472  -13.0385    0.0000 C   0  0  0  0  0  0  0  0  0  0  0  0
   -0.0836   -2.6562    0.0000 C   0  0  0  0  0  0  0  0  0  0  0  0
    7.4792  -12.6537    0.0000 C   0  0  0  0  0  0  0  0  0  0  0  0
    1.1671   -1.9577    0.0000 C   0  0  0  0  0  0  0  0  0  0  0  0
    6.0487  -12.5951    0.0000 C   0  0  0  0  0  0  0  0  0  0  0  0
    7.4082   -9.3742    0.0000 C   0  0  0  0  0  0  0  0  0  0  0  0
   -0.0627   -1.2256    0.0000 O   0  0  0  0  0  0  0  0  0  0  0  0
    6.7138  -13.8625    0.0000 O   0  0  0  0  0  0  0  0  0  0  0  0
    3.8985   -2.9616    0.0000 C   0  0  0  0  0  0  0  0  0  0  0  0
    2.4889   -5.5969    0.0000 C   0  0  0  0  0  0  0  0  0  0  0  0
    9.5373   -3.1832    0.0000 C   0  0  0  0  0  0  0  0  0  0  0  0
    7.0484   -2.2630    0.0000 C   0  0  0  0  0  0  0  0  0  0  0  0
    8.4330   -1.7067    0.0000 C   0  0  0  0  0  0  0  0  0  0  0  0
    7.4123  -14.3059    0.0000 C   0  0  0  0  0  0  0  0  0  0  0  0
   -0.8910   -1.2173    0.0000 C   0  0  0  0  0  0  0  0  0  0  0  0
    6.8937   -1.4389    0.0000 C   0  0  0  0  0  0  0  0  0  0  0  0
    7.3705   -6.0612    0.0000 H   0  0  0  0  0  0  0  0  0  0  0  0
    6.0612   -3.3046    0.0000 H   0  0  0  0  0  0  0  0  0  0  0  0
    8.7718   -2.5977    0.0000 H   0  0  0  0  0  0  0  0  0  0  0  0
    5.3040   -9.8636    0.0000 H   0  0  0  0  0  0  0  0  0  0  0  0
    6.7389   -7.2534    0.0000 H   0  0  0  0  0  0  0  0  0  0  0  0
  2  1  1  0  0  0  0
  3  2  1  0  0  0  0
  4  1  1  0  0  0  0
  5  1  1  0  0  0  0
  6 18  1  0  0  0  0
  7  8  1  0  0  0  0
  8  5  2  0  0  0  0
  9  3  1  0  0  0  0
 10  2  1  0  0  0  0
  7 11  1  1  0  0  0
 12  6  1  0  0  0  0
 17 13  1  6  0  0  0
 14  4  1  0  0  0  0
 15 11  1  0  0  0  0
 16 13  1  0  0  0  0
 17 34  1  0  0  0  0
 18 21  1  0  0  0  0
 19 31  1  0  0  0  0
 20 12  1  0  0  0  0
 21 14  1  0  0  0  0
 22 23  2  0  0  0  0
 23 44  1  0  0  0  0
 24 10  1  0  0  0  0
 25 15  1  0  0  0  0
 26 16  1  0  0  0  0
 27 10  2  0  0  0  0
 28  4  2  0  0  0  0
 29 27  1  0  0  0  0
 30 21  1  0  0  0  0
 31 30  1  0  0  0  0
 32 16  2  0  0  0  0
 33 15  2  0  0  0  0
 34 36  1  0  0  0  0
 35 43  1  0  0  0  0
 36 29  2  0  0  0  0
  2 37  1  6  0  0  0
  6 38  1  1  0  0  0
 39 25  2  0  0  0  0
 40 25  1  0  0  0  0
 41 26  1  0  0  0  0
 42 26  2  0  0  0  0
 43 38  1  0  0  0  0
 44 31  1  0  0  0  0
 45 20  1  0  0  0  0
 46 50  2  0  0  0  0
 47 51  2  0  0  0  0
 48 41  2  0  0  0  0
 49 40  2  0  0  0  0
 50 42  1  0  0  0  0
 51 39  1  0  0  0  0
 52  8  1  0  0  0  0
 53 46  1  0  0  0  0
 54 47  1  0  0  0  0
 55 22  1  0  0  0  0
 34 56  1  6  0  0  0
 35 57  1  1  0  0  0
 58 45  1  0  0  0  0
 45 59  1  6  0  0  0
 60 54  1  0  0  0  0
 61 53  1  0  0  0  0
 62 58  1  0  0  0  0
 21 63  1  6  0  0  0
 31 64  1  6  0  0  0
 20 65  1  1  0  0  0
  3 66  1  6  0  0  0
  1 67  1  1  0  0  0
  7  3  1  0  0  0  0
 24  9  1  0  0  0  0
 19  6  1  0  0  0  0
 49 47  1  0  0  0  0
 22 17  1  0  0  0  0
 35 20  1  0  0  0  0
 48 46  1  0  0  0  0
M  END
>  <IDNUMBER>
F3409-0868

>  <Chemical_Name>
(1'R,2R,4'S,5S,6R,8'R,10'E,12'S,13'S,14'E,16'E,20'R,21'R,24'S)-6-[(2S)-butan-2-yl]-24'-hydroxy-12'-(4-methoxybenzoyloxy)-5,11',13',22'-tetramethyl-2'-oxo-3',7',19'-trioxaspiro[oxane-2,6'-tetracyclo[15.6.1.1?,?.0??,??]pentacosane]-10',14',16',22'-tetraen-21'-yl 4-methoxybenzoate

>  <PriceCoeff>
7.00

>  <MW>
855.03

>  <Description>
solid

>  <FSP3>
0.54

>  <clogP>
10.31

>  <TPSA>
145.28

>  <Acceptor>
12

>  <Donor>
1

>  <RotBonds>
10

>  <HAC>
62

$$$$
F3409-0869
  Mrv2219 10102508112D          

 65 71  0  0  0  0            999 V2000
    7.7206   -7.7916    0.0000 C   0  0  2  0  0  0  0  0  0  0  0  0
    6.9886   -8.2475    0.0000 C   0  0  1  0  0  0  0  0  0  0  0  0
    6.9886   -9.0714    0.0000 C   0  0  1  0  0  0  0  0  0  0  0  0
    7.7121   -6.9468    0.0000 C   0  0  0  0  0  0  0  0  0  0  0  0
    8.3856   -8.1974    0.0000 C   0  0  0  0  0  0  0  0  0  0  0  0
    9.1342   -4.4709    0.0000 C   0  0  2  0  0  0  0  0  0  0  0  0
    7.7206   -9.4729    0.0000 C   0  0  1  0  0  0  0  0  0  0  0  0
    8.3856   -9.0714    0.0000 C   0  0  0  0  0  0  0  0  0  0  0  0
    6.2233   -9.3475    0.0000 O   0  0  0  0  0  0  0  0  0  0  0  0
    6.2233   -8.0092    0.0000 C   0  0  0  0  0  0  0  0  0  0  0  0
    7.7457  -10.2968    0.0000 O   0  0  0  0  0  0  0  0  0  0  0  0
    9.1342   -3.6177    0.0000 O   0  0  0  0  0  0  0  0  0  0  0  0
    8.4692  -10.6900    0.0000 C   0  0  0  0  0  0  0  0  0  0  0  0
    3.2705   -4.1907    0.0000 C   0  0  0  0  0  0  0  0  0  0  0  0
    4.1698   -3.9941    0.0000 O   0  0  0  0  0  0  0  0  0  0  0  0
    8.3856   -6.5537    0.0000 O   0  0  0  0  0  0  0  0  0  0  0  0
    4.8557   -4.4165    0.0000 C   0  0  2  0  0  0  0  0  0  0  0  0
    9.1342   -5.3199    0.0000 C   0  0  0  0  0  0  0  0  0  0  0  0
    8.4148   -4.0443    0.0000 O   0  0  0  0  0  0  0  0  0  0  0  0
    9.8410   -3.2622    0.0000 C   0  0  1  0  0  0  0  0  0  0  0  0
    8.3856   -5.7172    0.0000 C   0  0  2  0  0  0  0  0  0  0  0  0
    5.5876   -3.9941    0.0000 C   0  0  0  0  0  0  0  0  0  0  0  0
    6.3028   -4.4165    0.0000 C   0  0  0  0  0  0  0  0  0  0  0  0
    2.8188   -3.4964    0.0000 C   0  0  0  0  0  0  0  0  0  0  0  0
    8.4901  -11.5181    0.0000 C   0  0  0  0  0  0  0  0  0  0  0  0
    5.7423   -8.6240    0.0000 C   0  0  0  0  0  0  0  0  0  0  0  0
    6.2233   -7.1517    0.0000 C   0  0  0  0  0  0  0  0  0  0  0  0
    6.9886   -6.5286    0.0000 O   0  0  0  0  0  0  0  0  0  0  0  0
    5.6754   -6.7377    0.0000 C   0  0  0  0  0  0  0  0  0  0  0  0
    7.7206   -5.3073    0.0000 C   0  0  0  0  0  0  0  0  0  0  0  0
    7.7206   -4.4374    0.0000 C   0  0  1  0  0  0  0  0  0  0  0  0
    2.9067   -4.9309    0.0000 O   0  0  0  0  0  0  0  0  0  0  0  0
    9.1676  -10.2508    0.0000 O   0  0  0  0  0  0  0  0  0  0  0  0
    4.8557   -5.3199    0.0000 C   0  0  2  0  0  0  0  0  0  0  0  0
    1.9992   -3.4923    0.0000 C   0  0  0  0  0  0  0  0  0  0  0  0
    9.1843  -11.9530    0.0000 C   0  0  0  0  0  0  0  0  0  0  0  0
   10.4934   -3.6846    0.0000 C   0  0  2  0  0  0  0  0  0  0  0  0
    5.6754   -5.8511    0.0000 C   0  0  0  0  0  0  0  0  0  0  0  0
    6.9803   -7.3357    0.0000 O   0  0  0  0  0  0  0  0  0  0  0  0
    9.7866   -4.8348    0.0000 C   0  0  0  0  0  0  0  0  0  0  0  0
   10.5060   -4.4458    0.0000 C   0  0  0  0  0  0  0  0  0  0  0  0
    7.0137   -3.9941    0.0000 C   0  0  0  0  0  0  0  0  0  0  0  0
    9.5231   -2.5094    0.0000 C   0  0  2  0  0  0  0  0  0  0  0  0
    1.5935   -2.7771    0.0000 C   0  0  0  0  0  0  0  0  0  0  0  0
    9.1550  -12.7728    0.0000 C   0  0  0  0  0  0  0  0  0  0  0  0
    0.7654   -2.7687    0.0000 Br  0  0  0  0  0  0  0  0  0  0  0  0
    9.8535  -13.2161    0.0000 Br  0  0  0  0  0  0  0  0  0  0  0  0
    9.0840   -9.4938    0.0000 C   0  0  0  0  0  0  0  0  0  0  0  0
    5.5750   -3.0823    0.0000 C   0  0  0  0  0  0  0  0  0  0  0  0
    7.7665  -11.8945    0.0000 C   0  0  0  0  0  0  0  0  0  0  0  0
    3.2371   -2.7980    0.0000 C   0  0  0  0  0  0  0  0  0  0  0  0
    7.7247  -12.7142    0.0000 C   0  0  0  0  0  0  0  0  0  0  0  0
    2.8439   -2.0786    0.0000 C   0  0  0  0  0  0  0  0  0  0  0  0
    8.4232  -13.1575    0.0000 C   0  0  0  0  0  0  0  0  0  0  0  0
    2.0158   -2.0660    0.0000 C   0  0  0  0  0  0  0  0  0  0  0  0
    4.1698   -5.7172    0.0000 C   0  0  0  0  0  0  0  0  0  0  0  0
   11.2127   -3.3041    0.0000 C   0  0  0  0  0  0  0  0  0  0  0  0
    8.7243   -2.3839    0.0000 C   0  0  0  0  0  0  0  0  0  0  0  0
   10.1086   -1.8276    0.0000 C   0  0  0  0  0  0  0  0  0  0  0  0
    8.5695   -1.5600    0.0000 C   0  0  0  0  0  0  0  0  0  0  0  0
   10.4474   -2.7185    0.0000 H   0  0  0  0  0  0  0  0  0  0  0  0
    6.9803   -9.9831    0.0000 H   0  0  0  0  0  0  0  0  0  0  0  0
    8.4148   -7.3734    0.0000 H   0  0  0  0  0  0  0  0  0  0  0  0
    9.0463   -6.1814    0.0000 H   0  0  0  0  0  0  0  0  0  0  0  0
    7.7372   -3.4253    0.0000 H   0  0  0  0  0  0  0  0  0  0  0  0
  2  1  1  0  0  0  0
  3  2  1  0  0  0  0
  4  1  1  0  0  0  0
  5  1  1  0  0  0  0
  6 18  1  0  0  0  0
  7  8  1  0  0  0  0
  8  5  2  0  0  0  0
  9  3  1  0  0  0  0
 10  2  1  0  0  0  0
  7 11  1  1  0  0  0
 12  6  1  0  0  0  0
 13 11  1  0  0  0  0
 14 15  1  0  0  0  0
 17 15  1  6  0  0  0
 16  4  1  0  0  0  0
 17 34  1  0  0  0  0
 18 21  1  0  0  0  0
 19 31  1  0  0  0  0
 20 12  1  0  0  0  0
 21 16  1  0  0  0  0
 22 23  2  0  0  0  0
 23 42  1  0  0  0  0
 24 14  1  0  0  0  0
 25 13  1  0  0  0  0
 26 10  1  0  0  0  0
 27 10  2  0  0  0  0
 28  4  2  0  0  0  0
 29 27  1  0  0  0  0
 30 21  1  0  0  0  0
 31 30  1  0  0  0  0
 32 14  2  0  0  0  0
 33 13  2  0  0  0  0
 34 38  1  0  0  0  0
 35 24  1  0  0  0  0
 36 25  1  0  0  0  0
 37 41  1  0  0  0  0
 38 29  2  0  0  0  0
  2 39  1  6  0  0  0
  6 40  1  1  0  0  0
 41 40  1  0  0  0  0
 42 31  1  0  0  0  0
 43 20  1  0  0  0  0
 44 35  2  0  0  0  0
 45 36  2  0  0  0  0
 46 44  1  0  0  0  0
 47 45  1  0  0  0  0
 48  8  1  0  0  0  0
 49 22  1  0  0  0  0
 50 25  2  0  0  0  0
 51 24  2  0  0  0  0
 52 50  1  0  0  0  0
 53 51  1  0  0  0  0
 54 52  2  0  0  0  0
 55 53  2  0  0  0  0
 34 56  1  6  0  0  0
 37 57  1  1  0  0  0
 58 43  1  0  0  0  0
 43 59  1  6  0  0  0
 60 58  1  0  0  0  0
 20 61  1  1  0  0  0
  3 62  1  6  0  0  0
  1 63  1  1  0  0  0
 21 64  1  6  0  0  0
 31 65  1  6  0  0  0
  7  3  1  0  0  0  0
 26  9  1  0  0  0  0
 19  6  1  0  0  0  0
 22 17  1  0  0  0  0
 37 20  1  0  0  0  0
 45 54  1  0  0  0  0
 44 55  1  0  0  0  0
M  END
>  <IDNUMBER>
F3409-0869

>  <Chemical_Name>
(1'R,2R,4'S,5S,6R,8'R,10'E,12'S,13'S,14'E,16'E,20'R,21'R,24'S)-21'-(3-bromobenzoyloxy)-6-[(2S)-butan-2-yl]-24'-hydroxy-5,11',13',22'-tetramethyl-2'-oxo-3',7',19'-trioxaspiro[oxane-2,6'-tetracyclo[15.6.1.1?,?.0??,??]pentacosane]-10',14',16',22'-tetraen-12'-yl 3-bromobenzoate

>  <PriceCoeff>
7.00

>  <MW>
952.77

>  <Description>
solid

>  <FSP3>
0.52

>  <clogP>
11.69

>  <TPSA>
126.82

>  <Acceptor>
10

>  <Donor>
1

>  <RotBonds>
8

>  <HAC>
60

$$$$
F3409-0874
  Mrv2219 10102508112D          

 60 65  0  0  0  0            999 V2000
    6.7310   -7.4790    0.0000 C   0  0  2  0  0  0  0  0  0  0  0  0
    5.9999   -7.9327    0.0000 C   0  0  1  0  0  0  0  0  0  0  0  0
    5.9999   -8.7562    0.0000 C   0  0  1  0  0  0  0  0  0  0  0  0
    6.7227   -6.6344    0.0000 C   0  0  0  0  0  0  0  0  0  0  0  0
    7.3949   -7.8823    0.0000 C   0  0  0  0  0  0  0  0  0  0  0  0
    8.1428   -4.1596    0.0000 C   0  0  2  0  0  0  0  0  0  0  0  0
    6.7310   -9.1554    0.0000 C   0  0  1  0  0  0  0  0  0  0  0  0
    7.3949   -8.7562    0.0000 C   0  0  0  0  0  0  0  0  0  0  0  0
    5.2353   -9.0335    0.0000 O   0  0  0  0  0  0  0  0  0  0  0  0
    5.2353   -7.6932    0.0000 C   0  0  0  0  0  0  0  0  0  0  0  0
    6.7562   -9.9831    0.0000 O   0  0  0  0  0  0  0  0  0  0  0  0
    8.1428   -3.3067    0.0000 O   0  0  0  0  0  0  0  0  0  0  0  0
    7.3949   -6.2394    0.0000 O   0  0  0  0  0  0  0  0  0  0  0  0
    7.4790  -10.3738    0.0000 C   0  0  0  0  0  0  0  0  0  0  0  0
    6.6596  -14.0545    0.0000 C   0  0  0  0  0  0  0  0  0  0  0  0
    8.1428   -5.0042    0.0000 C   0  0  0  0  0  0  0  0  0  0  0  0
    7.4243   -3.7311    0.0000 O   0  0  0  0  0  0  0  0  0  0  0  0
    8.8529   -2.9496    0.0000 C   0  0  1  0  0  0  0  0  0  0  0  0
    7.3949   -5.4033    0.0000 C   0  0  2  0  0  0  0  0  0  0  0  0
    4.6050   -3.6806    0.0000 C   0  0  0  0  0  0  0  0  0  0  0  0
    5.3150   -4.1050    0.0000 C   0  0  0  0  0  0  0  0  0  0  0  0
    4.7563   -8.3109    0.0000 C   0  0  0  0  0  0  0  0  0  0  0  0
    3.8697   -4.1050    0.0000 C   0  0  2  0  0  0  0  0  0  0  0  0
    7.4999  -11.2015    0.0000 C   0  0  0  0  0  0  0  0  0  0  0  0
    5.2353   -6.8361    0.0000 C   0  0  0  0  0  0  0  0  0  0  0  0
    5.9999   -6.2142    0.0000 O   0  0  0  0  0  0  0  0  0  0  0  0
    4.6890   -6.4243    0.0000 C   0  0  0  0  0  0  0  0  0  0  0  0
    6.7310   -4.9958    0.0000 C   0  0  0  0  0  0  0  0  0  0  0  0
    6.7310   -4.1260    0.0000 C   0  0  1  0  0  0  0  0  0  0  0  0
    7.3949  -13.6680    0.0000 O   0  0  0  0  0  0  0  0  0  0  0  0
    8.1764   -9.9369    0.0000 O   0  0  0  0  0  0  0  0  0  0  0  0
    9.5041   -3.3697    0.0000 C   0  0  2  0  0  0  0  0  0  0  0  0
    4.6890   -5.5378    0.0000 C   0  0  0  0  0  0  0  0  0  0  0  0
    5.9916   -7.0209    0.0000 O   0  0  0  0  0  0  0  0  0  0  0  0
    8.7982   -4.5209    0.0000 C   0  0  0  0  0  0  0  0  0  0  0  0
    3.8697   -5.0042    0.0000 C   0  0  2  0  0  0  0  0  0  0  0  0
    8.1932  -11.6386    0.0000 C   0  0  0  0  0  0  0  0  0  0  0  0
    6.7772  -11.5797    0.0000 C   0  0  0  0  0  0  0  0  0  0  0  0
    5.9873  -14.4074    0.0000 F   0  0  0  0  0  0  0  0  0  0  0  0
    5.8571  -13.7141    0.0000 F   0  0  0  0  0  0  0  0  0  0  0  0
    6.4832  -14.9074    0.0000 F   0  0  0  0  0  0  0  0  0  0  0  0
    9.5209   -4.1344    0.0000 C   0  0  0  0  0  0  0  0  0  0  0  0
    6.0252   -3.6806    0.0000 C   0  0  0  0  0  0  0  0  0  0  0  0
    8.5335   -2.1975    0.0000 C   0  0  2  0  0  0  0  0  0  0  0  0
    7.4327  -12.8402    0.0000 C   0  0  0  0  0  0  0  0  0  0  0  0
    3.1807   -3.6806    0.0000 O   0  0  0  0  0  0  0  0  0  0  0  0
    8.1638  -12.4579    0.0000 C   0  0  0  0  0  0  0  0  0  0  0  0
    6.7353  -12.3990    0.0000 C   0  0  0  0  0  0  0  0  0  0  0  0
    8.0966   -9.1764    0.0000 C   0  0  0  0  0  0  0  0  0  0  0  0
    4.5882   -2.7688    0.0000 C   0  0  0  0  0  0  0  0  0  0  0  0
   10.2226   -2.9916    0.0000 C   0  0  0  0  0  0  0  0  0  0  0  0
    3.1807   -5.4033    0.0000 C   0  0  0  0  0  0  0  0  0  0  0  0
    7.7352   -2.0714    0.0000 C   0  0  0  0  0  0  0  0  0  0  0  0
    9.1176   -1.5168    0.0000 C   0  0  0  0  0  0  0  0  0  0  0  0
    7.5798   -1.2479    0.0000 C   0  0  0  0  0  0  0  0  0  0  0  0
    8.0588   -5.8655    0.0000 H   0  0  0  0  0  0  0  0  0  0  0  0
    6.7479   -3.1134    0.0000 H   0  0  0  0  0  0  0  0  0  0  0  0
    9.4579   -2.4075    0.0000 H   0  0  0  0  0  0  0  0  0  0  0  0
    5.9916   -9.6680    0.0000 H   0  0  0  0  0  0  0  0  0  0  0  0
    7.4243   -7.0588    0.0000 H   0  0  0  0  0  0  0  0  0  0  0  0
  2  1  1  0  0  0  0
  3  2  1  0  0  0  0
  4  1  1  0  0  0  0
  5  1  1  0  0  0  0
  6 16  1  0  0  0  0
  7  8  1  0  0  0  0
  8  5  2  0  0  0  0
  9  3  1  0  0  0  0
 10  2  1  0  0  0  0
  7 11  1  1  0  0  0
 12  6  1  0  0  0  0
 13  4  1  0  0  0  0
 14 11  1  0  0  0  0
 15 30  1  0  0  0  0
 16 19  1  0  0  0  0
 17 29  1  0  0  0  0
 18 12  1  0  0  0  0
 19 13  1  0  0  0  0
 20 21  2  0  0  0  0
 21 43  1  0  0  0  0
 22 10  1  0  0  0  0
 23 36  1  0  0  0  0
 24 14  1  0  0  0  0
 25 10  2  0  0  0  0
 26  4  2  0  0  0  0
 27 25  1  0  0  0  0
 28 19  1  0  0  0  0
 29 28  1  0  0  0  0
 30 45  1  0  0  0  0
 31 14  2  0  0  0  0
 32 42  1  0  0  0  0
 33 27  2  0  0  0  0
  2 34  1  6  0  0  0
  6 35  1  1  0  0  0
 36 33  1  0  0  0  0
 37 24  1  0  0  0  0
 38 24  2  0  0  0  0
 39 15  1  0  0  0  0
 40 15  1  0  0  0  0
 41 15  1  0  0  0  0
 42 35  1  0  0  0  0
 43 29  1  0  0  0  0
 44 18  1  0  0  0  0
 45 48  2  0  0  0  0
 23 46  1  6  0  0  0
 47 37  2  0  0  0  0
 48 38  1  0  0  0  0
 49  8  1  0  0  0  0
 50 20  1  0  0  0  0
 32 51  1  1  0  0  0
 36 52  1  6  0  0  0
 53 44  1  0  0  0  0
 44 54  1  6  0  0  0
 55 53  1  0  0  0  0
 19 56  1  6  0  0  0
 29 57  1  6  0  0  0
 18 58  1  1  0  0  0
  3 59  1  6  0  0  0
  1 60  1  1  0  0  0
  7  3  1  0  0  0  0
 22  9  1  0  0  0  0
 17  6  1  0  0  0  0
 20 23  1  0  0  0  0
 47 45  1  0  0  0  0
 32 18  1  0  0  0  0
M  END
>  <IDNUMBER>
F3409-0874

>  <Chemical_Name>
(1'R,2R,4'S,5S,6R,8'R,10'E,12'S,13'S,14'E,16'E,20'R,21'R,24'S)-6-[(2S)-butan-2-yl]-12',24'-dihydroxy-5,11',13',22'-tetramethyl-2'-oxo-3',7',19'-trioxaspiro[oxane-2,6'-tetracyclo[15.6.1.1?,?.0??,??]pentacosane]-10',14',16',22'-tetraen-21'-yl 4-(trifluoromethoxy)benzoate

>  <PriceCoeff>
7.00

>  <MW>
774.87

>  <Description>
solid

>  <FSP3>
0.62

>  <clogP>
8.37

>  <TPSA>
129.98

>  <Acceptor>
10

>  <Donor>
2

>  <RotBonds>
6

>  <HAC>
55

$$$$
F3409-0875
  Mrv2219 10102508112D          

 73 79  0  0  0  0            999 V2000
    4.6060   -4.1346    0.0000 C   0  0  2  0  0  0  0  0  0  0  0  0
    3.8759   -4.5893    0.0000 C   0  0  1  0  0  0  0  0  0  0  0  0
    3.8759   -5.4113    0.0000 C   0  0  1  0  0  0  0  0  0  0  0  0
    4.5977   -3.2918    0.0000 C   0  0  0  0  0  0  0  0  0  0  0  0
    5.2694   -4.5392    0.0000 C   0  0  0  0  0  0  0  0  0  0  0  0
    6.0162   -0.8219    0.0000 C   0  0  2  0  0  0  0  0  0  0  0  0
    4.6060   -5.8076    0.0000 C   0  0  1  0  0  0  0  0  0  0  0  0
    5.2694   -5.4113    0.0000 C   0  0  0  0  0  0  0  0  0  0  0  0
    3.1124   -5.6866    0.0000 O   0  0  0  0  0  0  0  0  0  0  0  0
    3.1124   -4.3474    0.0000 C   0  0  0  0  0  0  0  0  0  0  0  0
    4.6311   -6.6337    0.0000 O   0  0  0  0  0  0  0  0  0  0  0  0
    6.0162    0.0250    0.0000 O   0  0  0  0  0  0  0  0  0  0  0  0
    1.0639   -0.3463    0.0000 O   0  0  0  0  0  0  0  0  0  0  0  0
    5.2694   -2.8996    0.0000 O   0  0  0  0  0  0  0  0  0  0  0  0
    5.3528   -7.0259    0.0000 C   0  0  0  0  0  0  0  0  0  0  0  0
    1.0806    0.4798    0.0000 C   0  0  0  0  0  0  0  0  0  0  0  0
    1.7523   -0.7677    0.0000 C   0  0  2  0  0  0  0  0  0  0  0  0
    4.5351  -10.6973    0.0000 C   0  0  0  0  0  0  0  0  0  0  0  0
   -2.4615    1.8024    0.0000 C   0  0  0  0  0  0  0  0  0  0  0  0
    6.0162   -1.6647    0.0000 C   0  0  0  0  0  0  0  0  0  0  0  0
    5.2986   -0.3963    0.0000 O   0  0  0  0  0  0  0  0  0  0  0  0
    6.7255    0.3838    0.0000 C   0  0  1  0  0  0  0  0  0  0  0  0
    5.2694   -2.0652    0.0000 C   0  0  2  0  0  0  0  0  0  0  0  0
    2.4824   -0.3463    0.0000 C   0  0  0  0  0  0  0  0  0  0  0  0
    3.1917   -0.7677    0.0000 C   0  0  0  0  0  0  0  0  0  0  0  0
    2.6367   -4.9648    0.0000 C   0  0  0  0  0  0  0  0  0  0  0  0
    0.3755    0.9095    0.0000 C   0  0  0  0  0  0  0  0  0  0  0  0
    5.3737   -7.8520    0.0000 C   0  0  0  0  0  0  0  0  0  0  0  0
    3.1124   -3.4921    0.0000 C   0  0  0  0  0  0  0  0  0  0  0  0
    3.8759   -2.8746    0.0000 O   0  0  0  0  0  0  0  0  0  0  0  0
    2.5701   -3.0832    0.0000 C   0  0  0  0  0  0  0  0  0  0  0  0
    4.6060   -1.6564    0.0000 C   0  0  0  0  0  0  0  0  0  0  0  0
    4.6060   -0.7885    0.0000 C   0  0  1  0  0  0  0  0  0  0  0  0
   -1.7356    2.1987    0.0000 O   0  0  0  0  0  0  0  0  0  0  0  0
    5.2694  -10.3135    0.0000 O   0  0  0  0  0  0  0  0  0  0  0  0
    6.0496   -6.5878    0.0000 O   0  0  0  0  0  0  0  0  0  0  0  0
    1.8066    0.8719    0.0000 O   0  0  0  0  0  0  0  0  0  0  0  0
    1.7523   -1.6647    0.0000 C   0  0  2  0  0  0  0  0  0  0  0  0
    7.3721   -0.0333    0.0000 C   0  0  2  0  0  0  0  0  0  0  0  0
    2.5701   -2.1987    0.0000 C   0  0  0  0  0  0  0  0  0  0  0  0
    3.8676   -3.6798    0.0000 O   0  0  0  0  0  0  0  0  0  0  0  0
    6.6712   -1.1848    0.0000 C   0  0  0  0  0  0  0  0  0  0  0  0
    0.4005    1.7315    0.0000 C   0  0  0  0  0  0  0  0  0  0  0  0
   -0.3421    0.5090    0.0000 C   0  0  0  0  0  0  0  0  0  0  0  0
    6.0662   -8.2858    0.0000 C   0  0  0  0  0  0  0  0  0  0  0  0
    4.6519   -8.2275    0.0000 C   0  0  0  0  0  0  0  0  0  0  0  0
    3.7341  -10.3593    0.0000 F   0  0  0  0  0  0  0  0  0  0  0  0
    4.3599  -11.5484    0.0000 F   0  0  0  0  0  0  0  0  0  0  0  0
    3.8634  -11.0520    0.0000 F   0  0  0  0  0  0  0  0  0  0  0  0
   -3.1208    1.4436    0.0000 F   0  0  0  0  0  0  0  0  0  0  0  0
   -3.2626    2.1278    0.0000 F   0  0  0  0  0  0  0  0  0  0  0  0
   -2.6201    0.9554    0.0000 F   0  0  0  0  0  0  0  0  0  0  0  0
    7.3889   -0.7968    0.0000 C   0  0  0  0  0  0  0  0  0  0  0  0
    3.8968   -0.3463    0.0000 C   0  0  0  0  0  0  0  0  0  0  0  0
    6.4042    1.1348    0.0000 C   0  0  2  0  0  0  0  0  0  0  0  0
    5.3069   -9.4874    0.0000 C   0  0  0  0  0  0  0  0  0  0  0  0
   -1.0305    1.7690    0.0000 C   0  0  0  0  0  0  0  0  0  0  0  0
    6.0371   -9.1036    0.0000 C   0  0  0  0  0  0  0  0  0  0  0  0
   -1.0472    0.9387    0.0000 C   0  0  0  0  0  0  0  0  0  0  0  0
    4.6102   -9.0451    0.0000 C   0  0  0  0  0  0  0  0  0  0  0  0
   -0.3046    2.1611    0.0000 C   0  0  0  0  0  0  0  0  0  0  0  0
    5.9703   -5.8284    0.0000 C   0  0  0  0  0  0  0  0  0  0  0  0
    2.4657    0.5632    0.0000 C   0  0  0  0  0  0  0  0  0  0  0  0
    1.0639   -2.0652    0.0000 C   0  0  0  0  0  0  0  0  0  0  0  0
    8.0898    0.3421    0.0000 C   0  0  0  0  0  0  0  0  0  0  0  0
    5.6073    1.2599    0.0000 C   0  0  0  0  0  0  0  0  0  0  0  0
    6.9883    1.8149    0.0000 C   0  0  0  0  0  0  0  0  0  0  0  0
    5.4529    2.0819    0.0000 C   0  0  0  0  0  0  0  0  0  0  0  0
    3.8676   -6.3208    0.0000 H   0  0  0  0  0  0  0  0  0  0  0  0
    5.2986   -3.7174    0.0000 H   0  0  0  0  0  0  0  0  0  0  0  0
    5.9328   -2.5241    0.0000 H   0  0  0  0  0  0  0  0  0  0  0  0
    4.6227    0.2211    0.0000 H   0  0  0  0  0  0  0  0  0  0  0  0
    7.3263    0.9262    0.0000 H   0  0  0  0  0  0  0  0  0  0  0  0
  2  1  1  0  0  0  0
  3  2  1  0  0  0  0
  4  1  1  0  0  0  0
  5  1  1  0  0  0  0
  6 20  1  0  0  0  0
  7  8  1  0  0  0  0
  8  5  2  0  0  0  0
  9  3  1  0  0  0  0
 10  2  1  0  0  0  0
  7 11  1  1  0  0  0
 12  6  1  0  0  0  0
 17 13  1  6  0  0  0
 14  4  1  0  0  0  0
 15 11  1  0  0  0  0
 16 13  1  0  0  0  0
 17 38  1  0  0  0  0
 18 35  1  0  0  0  0
 19 34  1  0  0  0  0
 20 23  1  0  0  0  0
 21 33  1  0  0  0  0
 22 12  1  0  0  0  0
 23 14  1  0  0  0  0
 24 25  2  0  0  0  0
 25 54  1  0  0  0  0
 26 10  1  0  0  0  0
 27 16  1  0  0  0  0
 28 15  1  0  0  0  0
 29 10  2  0  0  0  0
 30  4  2  0  0  0  0
 31 29  1  0  0  0  0
 32 23  1  0  0  0  0
 33 32  1  0  0  0  0
 34 57  1  0  0  0  0
 35 56  1  0  0  0  0
 36 15  2  0  0  0  0
 37 16  2  0  0  0  0
 38 40  1  0  0  0  0
 39 53  1  0  0  0  0
 40 31  2  0  0  0  0
  2 41  1  6  0  0  0
  6 42  1  1  0  0  0
 43 27  2  0  0  0  0
 44 27  1  0  0  0  0
 45 28  1  0  0  0  0
 46 28  2  0  0  0  0
 47 18  1  0  0  0  0
 48 18  1  0  0  0  0
 49 18  1  0  0  0  0
 50 19  1  0  0  0  0
 51 19  1  0  0  0  0
 52 19  1  0  0  0  0
 53 42  1  0  0  0  0
 54 33  1  0  0  0  0
 55 22  1  0  0  0  0
 56 60  2  0  0  0  0
 57 59  1  0  0  0  0
 58 45  2  0  0  0  0
 59 44  2  0  0  0  0
 60 46  1  0  0  0  0
 61 43  1  0  0  0  0
 62  8  1  0  0  0  0
 63 24  1  0  0  0  0
 38 64  1  6  0  0  0
 39 65  1  1  0  0  0
 66 55  1  0  0  0  0
 55 67  1  6  0  0  0
 68 66  1  0  0  0  0
  3 69  1  6  0  0  0
  1 70  1  1  0  0  0
 23 71  1  6  0  0  0
 33 72  1  6  0  0  0
 22 73  1  1  0  0  0
  7  3  1  0  0  0  0
 26  9  1  0  0  0  0
 21  6  1  0  0  0  0
 58 56  1  0  0  0  0
 24 17  1  0  0  0  0
 39 22  1  0  0  0  0
 57 61  2  0  0  0  0
M  END
>  <IDNUMBER>
F3409-0875

>  <Chemical_Name>
(1'R,2R,4'S,5S,6R,8'R,10'E,12'S,13'S,14'E,16'E,20'R,21'R,24'S)-6-[(2S)-butan-2-yl]-24'-hydroxy-5,11',13',22'-tetramethyl-2'-oxo-21'-[4-(trifluoromethoxy)benzoyloxy]-3',7',19'-trioxaspiro[oxane-2,6'-tetracyclo[15.6.1.1?,?.0??,??]pentacosane]-10',14',16',22'-tetraen-12'-yl 4-(trifluoromethoxy)benzoate

>  <PriceCoeff>
7.00

>  <MW>
962.98

>  <Description>
solid

>  <FSP3>
0.54

>  <clogP>
12.53

>  <TPSA>
145.28

>  <Acceptor>
12

>  <Donor>
1

>  <RotBonds>
10

>  <HAC>
68

$$$$
F3409-0968
  Mrv2219 10102508112D          

 62 67  0  0  0  0            999 V2000
    6.7240   -7.4223    0.0000 C   0  0  2  0  0  0  0  0  0  0  0  0
    5.9922   -7.8781    0.0000 C   0  0  1  0  0  0  0  0  0  0  0  0
    5.9922   -8.7018    0.0000 C   0  0  1  0  0  0  0  0  0  0  0  0
    6.7156   -6.5776    0.0000 C   0  0  0  0  0  0  0  0  0  0  0  0
    7.3888   -7.8279    0.0000 C   0  0  0  0  0  0  0  0  0  0  0  0
    8.1373   -4.1021    0.0000 C   0  0  2  0  0  0  0  0  0  0  0  0
    6.7240   -9.1033    0.0000 C   0  0  1  0  0  0  0  0  0  0  0  0
    7.3888   -8.7018    0.0000 C   0  0  0  0  0  0  0  0  0  0  0  0
    5.2269   -8.9778    0.0000 O   0  0  0  0  0  0  0  0  0  0  0  0
    5.2269   -7.6397    0.0000 C   0  0  0  0  0  0  0  0  0  0  0  0
    6.7491   -9.9271    0.0000 O   0  0  0  0  0  0  0  0  0  0  0  0
    8.1373   -3.2533    0.0000 O   0  0  0  0  0  0  0  0  0  0  0  0
    7.5645  -13.6236    0.0000 C   0  0  0  0  0  0  0  0  0  0  0  0
    7.3888   -6.1845    0.0000 O   0  0  0  0  0  0  0  0  0  0  0  0
    7.4724  -10.3201    0.0000 C   0  0  0  0  0  0  0  0  0  0  0  0
    3.8596   -4.0477    0.0000 C   0  0  1  0  0  0  0  0  0  0  0  0
    8.1373   -4.9509    0.0000 C   0  0  0  0  0  0  0  0  0  0  0  0
    7.4181   -3.6756    0.0000 O   0  0  0  0  0  0  0  0  0  0  0  0
    8.8440   -2.8936    0.0000 C   0  0  1  0  0  0  0  0  0  0  0  0
    7.3888   -5.3483    0.0000 C   0  0  2  0  0  0  0  0  0  0  0  0
    4.5956   -3.6254    0.0000 C   0  0  0  0  0  0  0  0  0  0  0  0
    5.3064   -4.0477    0.0000 C   0  0  0  0  0  0  0  0  0  0  0  0
    3.1738   -3.6254    0.0000 O   0  0  0  0  0  0  0  0  0  0  0  0
    4.7461   -8.2544    0.0000 C   0  0  0  0  0  0  0  0  0  0  0  0
    7.5394  -12.7914    0.0000 C   0  0  0  0  0  0  0  0  0  0  0  0
    7.4934  -11.1480    0.0000 C   0  0  0  0  0  0  0  0  0  0  0  0
    2.3710   -3.8387    0.0000 C   0  0  0  0  0  0  0  0  0  0  0  0
    5.2269   -6.7825    0.0000 C   0  0  0  0  0  0  0  0  0  0  0  0
    5.9922   -6.1595    0.0000 O   0  0  0  0  0  0  0  0  0  0  0  0
    4.6792   -6.3685    0.0000 C   0  0  0  0  0  0  0  0  0  0  0  0
    6.7240   -4.9384    0.0000 C   0  0  0  0  0  0  0  0  0  0  0  0
    6.7240   -4.0687    0.0000 C   0  0  1  0  0  0  0  0  0  0  0  0
    8.1708   -9.8810    0.0000 O   0  0  0  0  0  0  0  0  0  0  0  0
    3.8596   -4.9509    0.0000 C   0  0  2  0  0  0  0  0  0  0  0  0
    9.4964   -3.3160    0.0000 C   0  0  2  0  0  0  0  0  0  0  0  0
    4.6792   -5.4820    0.0000 C   0  0  0  0  0  0  0  0  0  0  0  0
    5.9838   -6.9665    0.0000 O   0  0  0  0  0  0  0  0  0  0  0  0
    8.7896   -4.4659    0.0000 C   0  0  0  0  0  0  0  0  0  0  0  0
    2.1494   -4.6332    0.0000 O   0  0  0  0  0  0  0  0  0  0  0  0
    8.2419  -12.3565    0.0000 C   0  0  0  0  0  0  0  0  0  0  0  0
    6.8118  -12.4025    0.0000 C   0  0  0  0  0  0  0  0  0  0  0  0
    8.2168  -11.5369    0.0000 C   0  0  0  0  0  0  0  0  0  0  0  0
    6.7909  -11.5788    0.0000 C   0  0  0  0  0  0  0  0  0  0  0  0
    7.5853  -14.3762    0.0000 F   0  0  0  0  0  0  0  0  0  0  0  0
    6.9121  -14.1923    0.0000 F   0  0  0  0  0  0  0  0  0  0  0  0
    8.2502  -14.1504    0.0000 F   0  0  0  0  0  0  0  0  0  0  0  0
    9.5131   -4.0770    0.0000 C   0  0  0  0  0  0  0  0  0  0  0  0
    6.0131   -3.6254    0.0000 C   0  0  0  0  0  0  0  0  0  0  0  0
    8.5262   -2.1368    0.0000 C   0  0  2  0  0  0  0  0  0  0  0  0
    8.0830   -9.1242    0.0000 C   0  0  0  0  0  0  0  0  0  0  0  0
    4.5788   -2.7139    0.0000 C   0  0  0  0  0  0  0  0  0  0  0  0
    1.7856   -3.2491    0.0000 C   0  0  0  0  0  0  0  0  0  0  0  0
    3.1738   -5.3483    0.0000 C   0  0  0  0  0  0  0  0  0  0  0  0
   10.2156   -2.9312    0.0000 C   0  0  0  0  0  0  0  0  0  0  0  0
    7.7275   -2.0155    0.0000 C   0  0  0  0  0  0  0  0  0  0  0  0
    9.1117   -1.4594    0.0000 C   0  0  0  0  0  0  0  0  0  0  0  0
    7.5728   -1.1917    0.0000 C   0  0  0  0  0  0  0  0  0  0  0  0
    9.4504   -2.3501    0.0000 H   0  0  0  0  0  0  0  0  0  0  0  0
    5.9838   -9.6135    0.0000 H   0  0  0  0  0  0  0  0  0  0  0  0
    7.4181   -7.0042    0.0000 H   0  0  0  0  0  0  0  0  0  0  0  0
    8.0495   -5.8124    0.0000 H   0  0  0  0  0  0  0  0  0  0  0  0
    6.7407   -3.0567    0.0000 H   0  0  0  0  0  0  0  0  0  0  0  0
  2  1  1  0  0  0  0
  3  2  1  0  0  0  0
  4  1  1  0  0  0  0
  5  1  1  0  0  0  0
  6 17  1  0  0  0  0
  7  8  1  0  0  0  0
  8  5  2  0  0  0  0
  9  3  1  0  0  0  0
 10  2  1  0  0  0  0
  7 11  1  1  0  0  0
 12  6  1  0  0  0  0
 13 25  1  0  0  0  0
 14  4  1  0  0  0  0
 15 11  1  0  0  0  0
 16 34  1  0  0  0  0
 17 20  1  0  0  0  0
 18 32  1  0  0  0  0
 19 12  1  0  0  0  0
 20 14  1  0  0  0  0
 21 22  2  0  0  0  0
 22 48  1  0  0  0  0
 16 23  1  6  0  0  0
 24 10  1  0  0  0  0
 25 40  1  0  0  0  0
 26 15  1  0  0  0  0
 27 23  1  0  0  0  0
 28 10  2  0  0  0  0
 29  4  2  0  0  0  0
 30 28  1  0  0  0  0
 31 20  1  0  0  0  0
 32 31  1  0  0  0  0
 33 15  2  0  0  0  0
 34 36  1  0  0  0  0
 35 47  1  0  0  0  0
 36 30  2  0  0  0  0
  2 37  1  6  0  0  0
  6 38  1  1  0  0  0
 39 27  2  0  0  0  0
 40 42  2  0  0  0  0
 41 43  1  0  0  0  0
 42 26  1  0  0  0  0
 43 26  2  0  0  0  0
 44 13  1  0  0  0  0
 45 13  1  0  0  0  0
 46 13  1  0  0  0  0
 47 38  1  0  0  0  0
 48 32  1  0  0  0  0
 49 19  1  0  0  0  0
 50  8  1  0  0  0  0
 51 21  1  0  0  0  0
 52 27  1  0  0  0  0
 34 53  1  6  0  0  0
 35 54  1  1  0  0  0
 55 49  1  0  0  0  0
 49 56  1  6  0  0  0
 57 55  1  0  0  0  0
 19 58  1  1  0  0  0
  3 59  1  6  0  0  0
  1 60  1  1  0  0  0
 20 61  1  6  0  0  0
 32 62  1  6  0  0  0
  7  3  1  0  0  0  0
 24  9  1  0  0  0  0
 18  6  1  0  0  0  0
 25 41  2  0  0  0  0
 21 16  1  0  0  0  0
 35 19  1  0  0  0  0
M  END
>  <IDNUMBER>
F3409-0968

>  <Chemical_Name>
(1'R,2R,4'S,5S,6R,8'R,10'E,12'S,13'S,14'E,16'E,20'R,21'R,24'S)-12'-(acetyloxy)-6-[(2S)-butan-2-yl]-24'-hydroxy-5,11',13',22'-tetramethyl-2'-oxo-3',7',19'-trioxaspiro[oxane-2,6'-tetracyclo[15.6.1.1?,?.0??,??]pentacosane]-10',14',16',22'-tetraen-21'-yl 4-(trifluoromethyl)benzoate

>  <PriceCoeff>
7.00

>  <MW>
800.91

>  <Description>
solid

>  <FSP3>
0.61

>  <clogP>
8.92

>  <TPSA>
126.82

>  <Acceptor>
10

>  <Donor>
1

>  <RotBonds>
7

>  <HAC>
57

$$$$
F3409-0970
  Mrv2219 10102508112D          

 63 68  0  0  0  0            999 V2000
    5.4070   -5.3149    0.0000 C   0  0  2  0  0  0  0  0  0  0  0  0
    4.6751   -5.7708    0.0000 C   0  0  1  0  0  0  0  0  0  0  0  0
    4.6751   -6.5945    0.0000 C   0  0  1  0  0  0  0  0  0  0  0  0
    5.3986   -4.4703    0.0000 C   0  0  0  0  0  0  0  0  0  0  0  0
    6.0719   -5.7206    0.0000 C   0  0  0  0  0  0  0  0  0  0  0  0
    6.8204   -1.9947    0.0000 C   0  0  2  0  0  0  0  0  0  0  0  0
    5.4070   -6.9960    0.0000 C   0  0  1  0  0  0  0  0  0  0  0  0
    6.0719   -6.5945    0.0000 C   0  0  0  0  0  0  0  0  0  0  0  0
    3.9099   -6.8705    0.0000 O   0  0  0  0  0  0  0  0  0  0  0  0
    3.9099   -5.5324    0.0000 C   0  0  0  0  0  0  0  0  0  0  0  0
    5.4321   -7.8199    0.0000 O   0  0  0  0  0  0  0  0  0  0  0  0
    6.8204   -1.1458    0.0000 O   0  0  0  0  0  0  0  0  0  0  0  0
    6.0719   -4.0772    0.0000 O   0  0  0  0  0  0  0  0  0  0  0  0
    6.1555   -8.2129    0.0000 C   0  0  0  0  0  0  0  0  0  0  0  0
    5.5408  -11.9472    0.0000 C   0  0  0  0  0  0  0  0  0  0  0  0
    2.5425   -1.9403    0.0000 C   0  0  1  0  0  0  0  0  0  0  0  0
    6.8204   -2.8435    0.0000 C   0  0  0  0  0  0  0  0  0  0  0  0
    6.1012   -1.5681    0.0000 O   0  0  0  0  0  0  0  0  0  0  0  0
    7.5271   -0.7861    0.0000 C   0  0  1  0  0  0  0  0  0  0  0  0
    6.0719   -3.2409    0.0000 C   0  0  2  0  0  0  0  0  0  0  0  0
    3.2785   -1.5180    0.0000 C   0  0  0  0  0  0  0  0  0  0  0  0
    3.9894   -1.9403    0.0000 C   0  0  0  0  0  0  0  0  0  0  0  0
    1.8567   -1.5180    0.0000 O   0  0  0  0  0  0  0  0  0  0  0  0
    3.4290   -6.1471    0.0000 C   0  0  0  0  0  0  0  0  0  0  0  0
    1.0538   -1.7312    0.0000 C   0  0  0  0  0  0  0  0  0  0  0  0
    6.1764   -9.0409    0.0000 C   0  0  0  0  0  0  0  0  0  0  0  0
    3.9099   -4.6751    0.0000 C   0  0  0  0  0  0  0  0  0  0  0  0
    4.6751   -4.0521    0.0000 O   0  0  0  0  0  0  0  0  0  0  0  0
    3.3621   -4.2611    0.0000 C   0  0  0  0  0  0  0  0  0  0  0  0
    5.4070   -2.8310    0.0000 C   0  0  0  0  0  0  0  0  0  0  0  0
    5.4070   -1.9613    0.0000 C   0  0  1  0  0  0  0  0  0  0  0  0
    6.2475  -11.5123    0.0000 O   0  0  0  0  0  0  0  0  0  0  0  0
    6.8539   -7.7738    0.0000 O   0  0  0  0  0  0  0  0  0  0  0  0
    2.5425   -2.8435    0.0000 C   0  0  2  0  0  0  0  0  0  0  0  0
    8.1795   -1.2086    0.0000 C   0  0  2  0  0  0  0  0  0  0  0  0
    3.3621   -3.3747    0.0000 C   0  0  0  0  0  0  0  0  0  0  0  0
    4.6668   -4.8592    0.0000 O   0  0  0  0  0  0  0  0  0  0  0  0
    7.4727   -2.3585    0.0000 C   0  0  0  0  0  0  0  0  0  0  0  0
    0.8322   -2.5258    0.0000 O   0  0  0  0  0  0  0  0  0  0  0  0
    5.4739   -9.4716    0.0000 C   0  0  0  0  0  0  0  0  0  0  0  0
    6.8998   -9.4298    0.0000 C   0  0  0  0  0  0  0  0  0  0  0  0
    4.9009  -12.3487    0.0000 F   0  0  0  0  0  0  0  0  0  0  0  0
    4.7212  -11.6712    0.0000 F   0  0  0  0  0  0  0  0  0  0  0  0
    5.4278  -12.8128    0.0000 F   0  0  0  0  0  0  0  0  0  0  0  0
    8.1962   -1.9696    0.0000 C   0  0  0  0  0  0  0  0  0  0  0  0
    4.6961   -1.5180    0.0000 C   0  0  0  0  0  0  0  0  0  0  0  0
    7.2093   -0.0293    0.0000 C   0  0  2  0  0  0  0  0  0  0  0  0
    6.2224  -10.6843    0.0000 C   0  0  0  0  0  0  0  0  0  0  0  0
    5.4948  -10.2954    0.0000 C   0  0  0  0  0  0  0  0  0  0  0  0
    6.9249  -10.2494    0.0000 C   0  0  0  0  0  0  0  0  0  0  0  0
    6.7661   -7.0170    0.0000 C   0  0  0  0  0  0  0  0  0  0  0  0
    3.2617   -0.6064    0.0000 C   0  0  0  0  0  0  0  0  0  0  0  0
    0.4684   -1.1416    0.0000 C   0  0  0  0  0  0  0  0  0  0  0  0
    1.8567   -3.2409    0.0000 C   0  0  0  0  0  0  0  0  0  0  0  0
    8.8987   -0.8238    0.0000 C   0  0  0  0  0  0  0  0  0  0  0  0
    6.4106    0.0920    0.0000 C   0  0  0  0  0  0  0  0  0  0  0  0
    7.7948    0.6481    0.0000 C   0  0  0  0  0  0  0  0  0  0  0  0
    6.2558    0.9158    0.0000 C   0  0  0  0  0  0  0  0  0  0  0  0
    4.6668   -7.5062    0.0000 H   0  0  0  0  0  0  0  0  0  0  0  0
    6.1012   -4.8968    0.0000 H   0  0  0  0  0  0  0  0  0  0  0  0
    6.7325   -3.7050    0.0000 H   0  0  0  0  0  0  0  0  0  0  0  0
    5.4237   -0.9492    0.0000 H   0  0  0  0  0  0  0  0  0  0  0  0
    8.1335   -0.2426    0.0000 H   0  0  0  0  0  0  0  0  0  0  0  0
  2  1  1  0  0  0  0
  3  2  1  0  0  0  0
  4  1  1  0  0  0  0
  5  1  1  0  0  0  0
  6 17  1  0  0  0  0
  7  8  1  0  0  0  0
  8  5  2  0  0  0  0
  9  3  1  0  0  0  0
 10  2  1  0  0  0  0
  7 11  1  1  0  0  0
 12  6  1  0  0  0  0
 13  4  1  0  0  0  0
 14 11  1  0  0  0  0
 15 32  1  0  0  0  0
 16 34  1  0  0  0  0
 17 20  1  0  0  0  0
 18 31  1  0  0  0  0
 19 12  1  0  0  0  0
 20 13  1  0  0  0  0
 21 22  2  0  0  0  0
 22 46  1  0  0  0  0
 16 23  1  6  0  0  0
 24 10  1  0  0  0  0
 25 23  1  0  0  0  0
 26 14  1  0  0  0  0
 27 10  2  0  0  0  0
 28  4  2  0  0  0  0
 29 27  1  0  0  0  0
 30 20  1  0  0  0  0
 31 30  1  0  0  0  0
 32 48  1  0  0  0  0
 33 14  2  0  0  0  0
 34 36  1  0  0  0  0
 35 45  1  0  0  0  0
 36 29  2  0  0  0  0
  2 37  1  6  0  0  0
  6 38  1  1  0  0  0
 39 25  2  0  0  0  0
 40 26  2  0  0  0  0
 41 26  1  0  0  0  0
 42 15  1  0  0  0  0
 43 15  1  0  0  0  0
 44 15  1  0  0  0  0
 45 38  1  0  0  0  0
 46 31  1  0  0  0  0
 47 19  1  0  0  0  0
 48 50  1  0  0  0  0
 49 40  1  0  0  0  0
 50 41  2  0  0  0  0
 51  8  1  0  0  0  0
 52 21  1  0  0  0  0
 53 25  1  0  0  0  0
 34 54  1  6  0  0  0
 35 55  1  1  0  0  0
 56 47  1  0  0  0  0
 47 57  1  6  0  0  0
 58 56  1  0  0  0  0
  3 59  1  6  0  0  0
  1 60  1  1  0  0  0
 20 61  1  6  0  0  0
 31 62  1  6  0  0  0
 19 63  1  1  0  0  0
  7  3  1  0  0  0  0
 24  9  1  0  0  0  0
 18  6  1  0  0  0  0
 48 49  2  0  0  0  0
 21 16  1  0  0  0  0
 35 19  1  0  0  0  0
M  END
>  <IDNUMBER>
F3409-0970

>  <Chemical_Name>
(1'R,2R,4'S,5S,6R,8'R,10'E,12'S,13'S,14'E,16'E,20'R,21'R,24'S)-12'-(acetyloxy)-6-[(2S)-butan-2-yl]-24'-hydroxy-5,11',13',22'-tetramethyl-2'-oxo-3',7',19'-trioxaspiro[oxane-2,6'-tetracyclo[15.6.1.1?,?.0??,??]pentacosane]-10',14',16',22'-tetraen-21'-yl 4-(trifluoromethoxy)benzoate

>  <PriceCoeff>
7.00

>  <MW>
816.91

>  <Description>
solid

>  <FSP3>
0.61

>  <clogP>
9.32

>  <TPSA>
136.05

>  <Acceptor>
11

>  <Donor>
1

>  <RotBonds>
8

>  <HAC>
58

$$$$
F3409-0971
  Mrv2219 10102508112D          

 55 60  0  0  0  0            999 V2000
    2.9296   -4.6341    0.0000 C   0  0  2  0  0  0  0  0  0  0  0  0
    2.2004   -5.0883    0.0000 C   0  0  1  0  0  0  0  0  0  0  0  0
    2.2004   -5.9093    0.0000 C   0  0  1  0  0  0  0  0  0  0  0  0
    2.9212   -3.7924    0.0000 C   0  0  0  0  0  0  0  0  0  0  0  0
    3.5923   -5.0383    0.0000 C   0  0  0  0  0  0  0  0  0  0  0  0
    4.3382   -1.3252    0.0000 C   0  0  2  0  0  0  0  0  0  0  0  0
    2.9296   -6.3093    0.0000 C   0  0  1  0  0  0  0  0  0  0  0  0
    3.5923   -5.9093    0.0000 C   0  0  0  0  0  0  0  0  0  0  0  0
    1.4378   -6.1843    0.0000 O   0  0  0  0  0  0  0  0  0  0  0  0
    1.4378   -4.8508    0.0000 C   0  0  0  0  0  0  0  0  0  0  0  0
    3.6756   -7.5220    0.0000 C   0  0  0  0  0  0  0  0  0  0  0  0
    3.6964   -8.3471    0.0000 N   0  0  0  0  0  0  0  0  0  0  0  0
    4.3382   -0.4793    0.0000 O   0  0  0  0  0  0  0  0  0  0  0  0
    3.5923   -3.4006    0.0000 O   0  0  0  0  0  0  0  0  0  0  0  0
    2.9963   -8.7764    0.0000 C   0  0  0  0  0  0  0  0  0  0  0  0
    4.3382   -2.1711    0.0000 C   0  0  0  0  0  0  0  0  0  0  0  0
    3.6214   -0.9001    0.0000 O   0  0  0  0  0  0  0  0  0  0  0  0
    5.0425   -0.1208    0.0000 C   0  0  1  0  0  0  0  0  0  0  0  0
    3.5923   -2.5671    0.0000 C   0  0  2  0  0  0  0  0  0  0  0  0
    2.9546   -7.1304    0.0000 O   0  0  0  0  0  0  0  0  0  0  0  0
    0.8043   -0.8501    0.0000 C   0  0  0  0  0  0  0  0  0  0  0  0
    2.9296   -9.6057    0.0000 S   0  0  0  0  0  0  0  0  0  0  0  0
    1.5170   -1.2710    0.0000 C   0  0  0  0  0  0  0  0  0  0  0  0
    0.9584   -5.4634    0.0000 C   0  0  0  0  0  0  0  0  0  0  0  0
    0.0750   -1.2710    0.0000 C   0  0  2  0  0  0  0  0  0  0  0  0
    1.4378   -3.9964    0.0000 C   0  0  0  0  0  0  0  0  0  0  0  0
    2.2004   -3.3755    0.0000 O   0  0  0  0  0  0  0  0  0  0  0  0
    0.8918   -3.5839    0.0000 C   0  0  0  0  0  0  0  0  0  0  0  0
    2.9296   -2.1586    0.0000 C   0  0  0  0  0  0  0  0  0  0  0  0
    2.9296   -1.2919    0.0000 C   0  0  1  0  0  0  0  0  0  0  0  0
    2.2296   -8.4680    0.0000 C   0  0  0  0  0  0  0  0  0  0  0  0
    4.3715   -7.0845    0.0000 O   0  0  0  0  0  0  0  0  0  0  0  0
    2.1295   -9.7974    0.0000 C   0  0  0  0  0  0  0  0  0  0  0  0
    5.6926   -0.5418    0.0000 C   0  0  2  0  0  0  0  0  0  0  0  0
    0.8918   -2.7005    0.0000 C   0  0  0  0  0  0  0  0  0  0  0  0
    2.1921   -4.1799    0.0000 O   0  0  0  0  0  0  0  0  0  0  0  0
    4.9884   -1.6877    0.0000 C   0  0  0  0  0  0  0  0  0  0  0  0
    1.6960   -9.0973    0.0000 C   0  0  0  0  0  0  0  0  0  0  0  0
    0.0750   -2.1711    0.0000 C   0  0  2  0  0  0  0  0  0  0  0  0
    5.7051   -1.3002    0.0000 C   0  0  0  0  0  0  0  0  0  0  0  0
    2.2254   -0.8501    0.0000 C   0  0  0  0  0  0  0  0  0  0  0  0
    4.7258    0.6334    0.0000 C   0  0  2  0  0  0  0  0  0  0  0  0
   -0.6084   -0.8501    0.0000 O   0  0  0  0  0  0  0  0  0  0  0  0
    4.2882   -6.3302    0.0000 C   0  0  0  0  0  0  0  0  0  0  0  0
    0.7918    0.0583    0.0000 C   0  0  0  0  0  0  0  0  0  0  0  0
    6.4093   -0.1583    0.0000 C   0  0  0  0  0  0  0  0  0  0  0  0
   -0.6084   -2.5671    0.0000 C   0  0  0  0  0  0  0  0  0  0  0  0
    3.9298    0.7543    0.0000 C   0  0  0  0  0  0  0  0  0  0  0  0
    5.3091    1.3085    0.0000 C   0  0  0  0  0  0  0  0  0  0  0  0
    3.7757    1.5753    0.0000 C   0  0  0  0  0  0  0  0  0  0  0  0
    4.2507   -3.0297    0.0000 H   0  0  0  0  0  0  0  0  0  0  0  0
    2.9462   -0.2834    0.0000 H   0  0  0  0  0  0  0  0  0  0  0  0
    5.6467    0.4209    0.0000 H   0  0  0  0  0  0  0  0  0  0  0  0
    2.1921   -6.8178    0.0000 H   0  0  0  0  0  0  0  0  0  0  0  0
    3.6214   -4.2174    0.0000 H   0  0  0  0  0  0  0  0  0  0  0  0
  2  1  1  0  0  0  0
  3  2  1  0  0  0  0
  4  1  1  0  0  0  0
  5  1  1  0  0  0  0
  6 16  1  0  0  0  0
  7  3  1  0  0  0  0
  8  5  2  0  0  0  0
  9  3  1  0  0  0  0
 10  2  1  0  0  0  0
 11 20  1  0  0  0  0
 12 11  1  0  0  0  0
 13  6  1  0  0  0  0
 14  4  1  0  0  0  0
 15 12  1  0  0  0  0
 16 19  1  0  0  0  0
 17 30  1  0  0  0  0
 18 13  1  0  0  0  0
 19 14  1  0  0  0  0
  7 20  1  1  0  0  0
 21 25  1  0  0  0  0
 22 15  1  0  0  0  0
 23 41  1  0  0  0  0
 24 10  1  0  0  0  0
 25 39  1  0  0  0  0
 26 10  2  0  0  0  0
 27  4  2  0  0  0  0
 28 26  1  0  0  0  0
 29 19  1  0  0  0  0
 30 29  1  0  0  0  0
 31 15  2  0  0  0  0
 32 11  2  0  0  0  0
 33 22  1  0  0  0  0
 34 40  1  0  0  0  0
 35 28  2  0  0  0  0
  2 36  1  6  0  0  0
  6 37  1  1  0  0  0
 38 31  1  0  0  0  0
 39 35  1  0  0  0  0
 40 37  1  0  0  0  0
 41 30  1  0  0  0  0
 42 18  1  0  0  0  0
 25 43  1  6  0  0  0
 44  8  1  0  0  0  0
 45 21  1  0  0  0  0
 34 46  1  1  0  0  0
 39 47  1  6  0  0  0
 48 42  1  0  0  0  0
 42 49  1  6  0  0  0
 50 48  1  0  0  0  0
 19 51  1  6  0  0  0
 30 52  1  6  0  0  0
 18 53  1  1  0  0  0
  3 54  1  6  0  0  0
  1 55  1  1  0  0  0
  8  7  1  0  0  0  0
 24  9  1  0  0  0  0
 17  6  1  0  0  0  0
 23 21  2  0  0  0  0
 34 18  1  0  0  0  0
 33 38  2  0  0  0  0
M  END
>  <IDNUMBER>
F3409-0971

>  <Chemical_Name>
(1'R,2R,4'S,5S,6R,8'R,10'E,12'S,13'S,14'E,16'E,20'R,21'R,24'S)-6-[(2S)-butan-2-yl]-12',24'-dihydroxy-5,11',13',22'-tetramethyl-2'-oxo-3',7',19'-trioxaspiro[oxane-2,6'-tetracyclo[15.6.1.1?,?.0??,??]pentacosane]-10',14',16',22'-tetraen-21'-yl N-(thiophen-2-yl)carbamate

>  <PriceCoeff>
7.00

>  <MW>
711.91

>  <Description>
solid

>  <FSP3>
0.64

>  <clogP>
6.50

>  <TPSA>
132.78

>  <Acceptor>
9

>  <Donor>
3

>  <RotBonds>
5

>  <HAC>
50

$$$$
F3409-0972
  Mrv2219 10102508112D          

 59 65  0  0  0  0            999 V2000
   -0.6915   -5.0359    0.0000 C   0  0  2  0  0  0  0  0  0  0  0  0
   -1.4203   -5.4900    0.0000 C   0  0  1  0  0  0  0  0  0  0  0  0
   -1.4203   -6.3105    0.0000 C   0  0  1  0  0  0  0  0  0  0  0  0
   -0.6998   -4.1945    0.0000 C   0  0  0  0  0  0  0  0  0  0  0  0
   -0.0292   -5.4400    0.0000 C   0  0  0  0  0  0  0  0  0  0  0  0
    0.7165   -1.7287    0.0000 C   0  0  2  0  0  0  0  0  0  0  0  0
   -0.6915   -6.7104    0.0000 C   0  0  1  0  0  0  0  0  0  0  0  0
   -0.0292   -6.3105    0.0000 C   0  0  0  0  0  0  0  0  0  0  0  0
   -2.1826   -6.5854    0.0000 O   0  0  0  0  0  0  0  0  0  0  0  0
   -2.1826   -5.2525    0.0000 C   0  0  0  0  0  0  0  0  0  0  0  0
    0.7165   -0.8789    0.0000 O   0  0  0  0  0  0  0  0  0  0  0  0
   -0.0292   -3.8030    0.0000 O   0  0  0  0  0  0  0  0  0  0  0  0
    0.0542   -7.9225    0.0000 C   0  0  0  0  0  0  0  0  0  0  0  0
    0.7165   -2.5742    0.0000 C   0  0  0  0  0  0  0  0  0  0  0  0
    0.0000   -1.3038    0.0000 O   0  0  0  0  0  0  0  0  0  0  0  0
    1.4203   -0.5248    0.0000 C   0  0  1  0  0  0  0  0  0  0  0  0
   -0.0292   -2.9699    0.0000 C   0  0  2  0  0  0  0  0  0  0  0  0
   -0.6665   -7.5309    0.0000 O   0  0  0  0  0  0  0  0  0  0  0  0
   -2.8116   -1.2538    0.0000 C   0  0  0  0  0  0  0  0  0  0  0  0
   -2.0535   -9.2138    0.0000 C   0  0  0  0  0  0  0  0  0  0  0  0
   -2.1035   -1.6745    0.0000 C   0  0  0  0  0  0  0  0  0  0  0  0
    0.0750   -8.7472    0.0000 N   0  0  0  0  0  0  0  0  0  0  0  0
   -2.6617   -5.8648    0.0000 C   0  0  0  0  0  0  0  0  0  0  0  0
   -3.5447   -1.6745    0.0000 C   0  0  2  0  0  0  0  0  0  0  0  0
   -1.3496   -8.7889    0.0000 C   0  0  0  0  0  0  0  0  0  0  0  0
   -2.0327  -10.0426    0.0000 C   0  0  0  0  0  0  0  0  0  0  0  0
   -2.8491   -8.9763    0.0000 O   0  0  0  0  0  0  0  0  0  0  0  0
   -2.1826   -4.3986    0.0000 C   0  0  0  0  0  0  0  0  0  0  0  0
   -1.4203   -3.7780    0.0000 O   0  0  0  0  0  0  0  0  0  0  0  0
   -2.7283   -3.9862    0.0000 C   0  0  0  0  0  0  0  0  0  0  0  0
   -2.8158  -10.3175    0.0000 O   0  0  0  0  0  0  0  0  0  0  0  0
   -0.6248   -9.1763    0.0000 C   0  0  0  0  0  0  0  0  0  0  0  0
   -0.6915   -2.5617    0.0000 C   0  0  0  0  0  0  0  0  0  0  0  0
   -0.6915   -1.6953    0.0000 C   0  0  1  0  0  0  0  0  0  0  0  0
   -3.3197   -9.6594    0.0000 C   0  0  0  0  0  0  0  0  0  0  0  0
    0.7498   -7.4851    0.0000 O   0  0  0  0  0  0  0  0  0  0  0  0
    2.0701   -0.9455    0.0000 C   0  0  2  0  0  0  0  0  0  0  0  0
   -2.7283   -3.1032    0.0000 C   0  0  0  0  0  0  0  0  0  0  0  0
   -1.4287   -4.5818    0.0000 O   0  0  0  0  0  0  0  0  0  0  0  0
    1.3663   -2.0910    0.0000 C   0  0  0  0  0  0  0  0  0  0  0  0
   -3.5447   -2.5742    0.0000 C   0  0  2  0  0  0  0  0  0  0  0  0
   -1.3079  -10.4384    0.0000 C   0  0  0  0  0  0  0  0  0  0  0  0
    2.0868   -1.7037    0.0000 C   0  0  0  0  0  0  0  0  0  0  0  0
   -1.3954   -1.2538    0.0000 C   0  0  0  0  0  0  0  0  0  0  0  0
    1.1038    0.2291    0.0000 C   0  0  2  0  0  0  0  0  0  0  0  0
   -0.5998  -10.0051    0.0000 C   0  0  0  0  0  0  0  0  0  0  0  0
   -4.2320   -1.2538    0.0000 O   0  0  0  0  0  0  0  0  0  0  0  0
    0.6665   -6.7312    0.0000 C   0  0  0  0  0  0  0  0  0  0  0  0
   -2.8283   -0.3457    0.0000 C   0  0  0  0  0  0  0  0  0  0  0  0
    2.7866   -0.5623    0.0000 C   0  0  0  0  0  0  0  0  0  0  0  0
   -4.2320   -2.9699    0.0000 C   0  0  0  0  0  0  0  0  0  0  0  0
    0.3082    0.3499    0.0000 C   0  0  0  0  0  0  0  0  0  0  0  0
    1.6870    0.9039    0.0000 C   0  0  0  0  0  0  0  0  0  0  0  0
    0.1542    1.1704    0.0000 C   0  0  0  0  0  0  0  0  0  0  0  0
    0.0000   -4.6193    0.0000 H   0  0  0  0  0  0  0  0  0  0  0  0
    0.6290   -3.4322    0.0000 H   0  0  0  0  0  0  0  0  0  0  0  0
   -0.6748   -0.6873    0.0000 H   0  0  0  0  0  0  0  0  0  0  0  0
    2.0244    0.0167    0.0000 H   0  0  0  0  0  0  0  0  0  0  0  0
   -1.4287   -7.2185    0.0000 H   0  0  0  0  0  0  0  0  0  0  0  0
  2  1  1  0  0  0  0
  3  2  1  0  0  0  0
  4  1  1  0  0  0  0
  5  1  1  0  0  0  0
  6 14  1  0  0  0  0
  7  8  1  0  0  0  0
  8  5  2  0  0  0  0
  9  3  1  0  0  0  0
 10  2  1  0  0  0  0
 11  6  1  0  0  0  0
 12  4  1  0  0  0  0
 13 18  1  0  0  0  0
 14 17  1  0  0  0  0
 15 34  1  0  0  0  0
 16 11  1  0  0  0  0
 17 12  1  0  0  0  0
  7 18  1  1  0  0  0
 19 21  2  0  0  0  0
 20 25  1  0  0  0  0
 21 44  1  0  0  0  0
 22 13  1  0  0  0  0
 23 10  1  0  0  0  0
 24 41  1  0  0  0  0
 25 32  2  0  0  0  0
 26 42  1  0  0  0  0
 27 20  1  0  0  0  0
 28 10  2  0  0  0  0
 29  4  2  0  0  0  0
 30 28  1  0  0  0  0
 31 26  1  0  0  0  0
 32 22  1  0  0  0  0
 33 17  1  0  0  0  0
 34 33  1  0  0  0  0
 35 27  1  0  0  0  0
 36 13  2  0  0  0  0
 37 43  1  0  0  0  0
 38 30  2  0  0  0  0
  2 39  1  6  0  0  0
  6 40  1  1  0  0  0
 41 38  1  0  0  0  0
 42 46  2  0  0  0  0
 43 40  1  0  0  0  0
 44 34  1  0  0  0  0
 45 16  1  0  0  0  0
 46 32  1  0  0  0  0
 24 47  1  6  0  0  0
 48  8  1  0  0  0  0
 49 19  1  0  0  0  0
 37 50  1  1  0  0  0
 41 51  1  6  0  0  0
 52 45  1  0  0  0  0
 45 53  1  6  0  0  0
 54 52  1  0  0  0  0
  1 55  1  1  0  0  0
 17 56  1  6  0  0  0
 34 57  1  6  0  0  0
 16 58  1  1  0  0  0
  3 59  1  6  0  0  0
  7  3  1  0  0  0  0
 23  9  1  0  0  0  0
 15  6  1  0  0  0  0
 19 24  1  0  0  0  0
 37 16  1  0  0  0  0
 20 26  2  0  0  0  0
 31 35  1  0  0  0  0
M  END
>  <IDNUMBER>
F3409-0972

>  <Chemical_Name>
(1'R,2R,4'S,5S,6R,8'R,10'E,12'S,13'S,14'E,16'E,20'R,21'R,24'S)-6-[(2S)-butan-2-yl]-12',24'-dihydroxy-5,11',13',22'-tetramethyl-2'-oxo-3',7',19'-trioxaspiro[oxane-2,6'-tetracyclo[15.6.1.1?,?.0??,??]pentacosane]-10',14',16',22'-tetraen-21'-yl N-(2H-1,3-benzodioxol-5-yl)carbamate

>  <PriceCoeff>
7.00

>  <MW>
749.90

>  <Description>
solid

>  <FSP3>
0.62

>  <clogP>
6.72

>  <TPSA>
151.24

>  <Acceptor>
11

>  <Donor>
3

>  <RotBonds>
5

>  <HAC>
54

$$$$
F3409-0973
  Mrv2219 10102508112D          

 59 64  0  0  0  0            999 V2000
    6.5281   -8.7542    0.0000 C   0  0  2  0  0  0  0  0  0  0  0  0
    5.7986   -9.2086    0.0000 C   0  0  1  0  0  0  0  0  0  0  0  0
    5.7986  -10.0298    0.0000 C   0  0  1  0  0  0  0  0  0  0  0  0
    6.5198   -7.9121    0.0000 C   0  0  0  0  0  0  0  0  0  0  0  0
    7.1910   -9.1586    0.0000 C   0  0  0  0  0  0  0  0  0  0  0  0
    7.9371   -5.4443    0.0000 C   0  0  2  0  0  0  0  0  0  0  0  0
    6.5281  -10.4300    0.0000 C   0  0  1  0  0  0  0  0  0  0  0  0
    7.1910  -10.0298    0.0000 C   0  0  0  0  0  0  0  0  0  0  0  0
    5.0357  -10.3050    0.0000 O   0  0  0  0  0  0  0  0  0  0  0  0
    5.0357   -8.9710    0.0000 C   0  0  0  0  0  0  0  0  0  0  0  0
    7.9371   -4.5939    0.0000 O   0  0  0  0  0  0  0  0  0  0  0  0
    7.1910   -7.5203    0.0000 O   0  0  0  0  0  0  0  0  0  0  0  0
    7.2743  -11.6431    0.0000 C   0  0  0  0  0  0  0  0  0  0  0  0
    7.9371   -6.2905    0.0000 C   0  0  0  0  0  0  0  0  0  0  0  0
    7.2202   -5.0191    0.0000 O   0  0  0  0  0  0  0  0  0  0  0  0
    8.6417   -4.2395    0.0000 C   0  0  1  0  0  0  0  0  0  0  0  0
    7.1910   -6.6865    0.0000 C   0  0  2  0  0  0  0  0  0  0  0  0
    6.5532  -11.2512    0.0000 O   0  0  0  0  0  0  0  0  0  0  0  0
    4.4063   -4.9691    0.0000 C   0  0  0  0  0  0  0  0  0  0  0  0
    5.1150   -5.3901    0.0000 C   0  0  0  0  0  0  0  0  0  0  0  0
    4.5564   -9.5838    0.0000 C   0  0  0  0  0  0  0  0  0  0  0  0
    3.6726   -5.3901    0.0000 C   0  0  2  0  0  0  0  0  0  0  0  0
    7.2952  -12.4685    0.0000 N   0  0  0  0  0  0  0  0  0  0  0  0
    5.0357   -8.1164    0.0000 C   0  0  0  0  0  0  0  0  0  0  0  0
    5.7986   -7.4953    0.0000 O   0  0  0  0  0  0  0  0  0  0  0  0
    4.4897   -7.7037    0.0000 C   0  0  0  0  0  0  0  0  0  0  0  0
    6.5281   -6.2780    0.0000 C   0  0  0  0  0  0  0  0  0  0  0  0
    6.5281   -5.4109    0.0000 C   0  0  1  0  0  0  0  0  0  0  0  0
    7.9705  -11.2054    0.0000 O   0  0  0  0  0  0  0  0  0  0  0  0
    9.2920   -4.6605    0.0000 C   0  0  2  0  0  0  0  0  0  0  0  0
    4.4897   -6.8200    0.0000 C   0  0  0  0  0  0  0  0  0  0  0  0
    5.7903   -8.2998    0.0000 O   0  0  0  0  0  0  0  0  0  0  0  0
    8.5874   -5.8070    0.0000 C   0  0  0  0  0  0  0  0  0  0  0  0
    3.6726   -6.2905    0.0000 C   0  0  2  0  0  0  0  0  0  0  0  0
    9.3087   -5.4193    0.0000 C   0  0  0  0  0  0  0  0  0  0  0  0
    5.8195   -4.9691    0.0000 C   0  0  0  0  0  0  0  0  0  0  0  0
    6.5949  -12.8979    0.0000 C   0  0  0  0  0  0  0  0  0  0  0  0
    8.3248   -3.4850    0.0000 C   0  0  2  0  0  0  0  0  0  0  0  0
    2.9889   -4.9691    0.0000 O   0  0  0  0  0  0  0  0  0  0  0  0
    5.1858  -13.7649    0.0000 C   0  0  0  0  0  0  0  0  0  0  0  0
    7.8830  -10.4508    0.0000 C   0  0  0  0  0  0  0  0  0  0  0  0
    6.6199  -13.7274    0.0000 C   0  0  0  0  0  0  0  0  0  0  0  0
    5.8695  -12.5102    0.0000 C   0  0  0  0  0  0  0  0  0  0  0  0
    5.9111  -14.1610    0.0000 C   0  0  0  0  0  0  0  0  0  0  0  0
    5.1650  -12.9354    0.0000 C   0  0  0  0  0  0  0  0  0  0  0  0
    4.4814  -14.1943    0.0000 O   0  0  0  0  0  0  0  0  0  0  0  0
    4.3896   -4.0603    0.0000 C   0  0  0  0  0  0  0  0  0  0  0  0
   10.0090   -4.2771    0.0000 C   0  0  0  0  0  0  0  0  0  0  0  0
    2.9889   -6.6865    0.0000 C   0  0  0  0  0  0  0  0  0  0  0  0
    7.5286   -3.3641    0.0000 C   0  0  0  0  0  0  0  0  0  0  0  0
    8.9085   -2.8097    0.0000 C   0  0  0  0  0  0  0  0  0  0  0  0
    3.7560  -13.8024    0.0000 C   0  0  0  0  0  0  0  0  0  0  0  0
    7.3744   -2.5429    0.0000 C   0  0  0  0  0  0  0  0  0  0  0  0
    3.0515  -14.2319    0.0000 C   0  0  0  0  0  0  0  0  0  0  0  0
    7.2202   -8.3373    0.0000 H   0  0  0  0  0  0  0  0  0  0  0  0
    7.8496   -7.1492    0.0000 H   0  0  0  0  0  0  0  0  0  0  0  0
    6.5449   -4.4021    0.0000 H   0  0  0  0  0  0  0  0  0  0  0  0
    9.2462   -3.6976    0.0000 H   0  0  0  0  0  0  0  0  0  0  0  0
    5.7903  -10.9386    0.0000 H   0  0  0  0  0  0  0  0  0  0  0  0
  2  1  1  0  0  0  0
  3  2  1  0  0  0  0
  4  1  1  0  0  0  0
  5  1  1  0  0  0  0
  6 14  1  0  0  0  0
  7  8  1  0  0  0  0
  8  5  2  0  0  0  0
  9  3  1  0  0  0  0
 10  2  1  0  0  0  0
 11  6  1  0  0  0  0
 12  4  1  0  0  0  0
 13 18  1  0  0  0  0
 14 17  1  0  0  0  0
 15 28  1  0  0  0  0
 16 11  1  0  0  0  0
 17 12  1  0  0  0  0
  7 18  1  1  0  0  0
 19 20  2  0  0  0  0
 20 36  1  0  0  0  0
 21 10  1  0  0  0  0
 22 34  1  0  0  0  0
 23 13  1  0  0  0  0
 24 10  2  0  0  0  0
 25  4  2  0  0  0  0
 26 24  1  0  0  0  0
 27 17  1  0  0  0  0
 28 27  1  0  0  0  0
 29 13  2  0  0  0  0
 30 35  1  0  0  0  0
 31 26  2  0  0  0  0
  2 32  1  6  0  0  0
  6 33  1  1  0  0  0
 34 31  1  0  0  0  0
 35 33  1  0  0  0  0
 36 28  1  0  0  0  0
 37 23  1  0  0  0  0
 38 16  1  0  0  0  0
 22 39  1  6  0  0  0
 40 44  1  0  0  0  0
 41  8  1  0  0  0  0
 42 37  1  0  0  0  0
 43 37  2  0  0  0  0
 44 42  2  0  0  0  0
 45 43  1  0  0  0  0
 46 40  1  0  0  0  0
 47 19  1  0  0  0  0
 30 48  1  1  0  0  0
 34 49  1  6  0  0  0
 50 38  1  0  0  0  0
 38 51  1  6  0  0  0
 52 46  1  0  0  0  0
 53 50  1  0  0  0  0
 54 52  1  0  0  0  0
  1 55  1  1  0  0  0
 17 56  1  6  0  0  0
 28 57  1  6  0  0  0
 16 58  1  1  0  0  0
  3 59  1  6  0  0  0
  7  3  1  0  0  0  0
 21  9  1  0  0  0  0
 15  6  1  0  0  0  0
 19 22  1  0  0  0  0
 30 16  1  0  0  0  0
 45 40  2  0  0  0  0
M  END
>  <IDNUMBER>
F3409-0973

>  <Chemical_Name>
(1'R,2R,4'S,5S,6R,8'R,10'E,12'S,13'S,14'E,16'E,20'R,21'R,24'S)-6-[(2S)-butan-2-yl]-12',24'-dihydroxy-5,11',13',22'-tetramethyl-2'-oxo-3',7',19'-trioxaspiro[oxane-2,6'-tetracyclo[15.6.1.1?,?.0??,??]pentacosane]-10',14',16',22'-tetraen-21'-yl N-(4-ethoxyphenyl)carbamate

>  <PriceCoeff>
7.00

>  <MW>
749.94

>  <Description>
solid

>  <FSP3>
0.63

>  <clogP>
7.28

>  <TPSA>
142.01

>  <Acceptor>
10

>  <Donor>
3

>  <RotBonds>
7

>  <HAC>
54

$$$$
F3409-0976
  Mrv2219 10102508112D          

 58 63  0  0  0  0            999 V2000
    6.0281   -7.8386    0.0000 C   0  0  2  0  0  0  0  0  0  0  0  0
    5.2981   -8.2933    0.0000 C   0  0  1  0  0  0  0  0  0  0  0  0
    5.2981   -9.1152    0.0000 C   0  0  1  0  0  0  0  0  0  0  0  0
    6.0197   -6.9959    0.0000 C   0  0  0  0  0  0  0  0  0  0  0  0
    6.6914   -8.2432    0.0000 C   0  0  0  0  0  0  0  0  0  0  0  0
    7.4382   -4.5262    0.0000 C   0  0  2  0  0  0  0  0  0  0  0  0
    6.0281   -9.5157    0.0000 C   0  0  1  0  0  0  0  0  0  0  0  0
    6.6914   -9.1152    0.0000 C   0  0  0  0  0  0  0  0  0  0  0  0
    4.5347   -9.3905    0.0000 O   0  0  0  0  0  0  0  0  0  0  0  0
    4.5347   -8.0555    0.0000 C   0  0  0  0  0  0  0  0  0  0  0  0
    7.4382   -3.6794    0.0000 O   0  0  0  0  0  0  0  0  0  0  0  0
    6.6914   -6.6037    0.0000 O   0  0  0  0  0  0  0  0  0  0  0  0
    6.7749  -10.7296    0.0000 C   0  0  0  0  0  0  0  0  0  0  0  0
    7.4382   -5.3732    0.0000 C   0  0  0  0  0  0  0  0  0  0  0  0
    6.7206   -4.1007    0.0000 O   0  0  0  0  0  0  0  0  0  0  0  0
    8.1431   -3.3207    0.0000 C   0  0  1  0  0  0  0  0  0  0  0  0
    6.6914   -5.7694    0.0000 C   0  0  2  0  0  0  0  0  0  0  0  0
    6.0531  -10.3374    0.0000 O   0  0  0  0  0  0  0  0  0  0  0  0
    3.9047   -4.0507    0.0000 C   0  0  0  0  0  0  0  0  0  0  0  0
    4.6139   -4.4721    0.0000 C   0  0  0  0  0  0  0  0  0  0  0  0
    6.7957  -11.5556    0.0000 N   0  0  0  0  0  0  0  0  0  0  0  0
    5.4107  -13.2492    0.0000 C   0  0  0  0  0  0  0  0  0  0  0  0
    4.0549   -8.6687    0.0000 C   0  0  0  0  0  0  0  0  0  0  0  0
    3.1705   -4.4721    0.0000 C   0  0  2  0  0  0  0  0  0  0  0  0
    6.1199  -12.8154    0.0000 C   0  0  0  0  0  0  0  0  0  0  0  0
    4.5347   -7.2004    0.0000 C   0  0  0  0  0  0  0  0  0  0  0  0
    5.2981   -6.5787    0.0000 O   0  0  0  0  0  0  0  0  0  0  0  0
    3.9881   -6.7874    0.0000 C   0  0  0  0  0  0  0  0  0  0  0  0
    6.0948  -11.9852    0.0000 C   0  0  0  0  0  0  0  0  0  0  0  0
    6.0281   -5.3607    0.0000 C   0  0  0  0  0  0  0  0  0  0  0  0
    6.0281   -4.4929    0.0000 C   0  0  1  0  0  0  0  0  0  0  0  0
    4.6848  -12.8530    0.0000 C   0  0  0  0  0  0  0  0  0  0  0  0
    7.4715  -10.2916    0.0000 O   0  0  0  0  0  0  0  0  0  0  0  0
    8.7939   -3.7420    0.0000 C   0  0  2  0  0  0  0  0  0  0  0  0
    3.9881   -5.9029    0.0000 C   0  0  0  0  0  0  0  0  0  0  0  0
    5.2897   -7.3839    0.0000 O   0  0  0  0  0  0  0  0  0  0  0  0
    8.0889   -4.8892    0.0000 C   0  0  0  0  0  0  0  0  0  0  0  0
    3.1705   -5.3732    0.0000 C   0  0  2  0  0  0  0  0  0  0  0  0
    4.6639  -12.0228    0.0000 C   0  0  0  0  0  0  0  0  0  0  0  0
    8.8106   -4.5012    0.0000 C   0  0  0  0  0  0  0  0  0  0  0  0
    5.3231   -4.0507    0.0000 C   0  0  0  0  0  0  0  0  0  0  0  0
    7.8261   -2.5656    0.0000 C   0  0  2  0  0  0  0  0  0  0  0  0
    5.4315  -14.0752    0.0000 Cl  0  0  0  0  0  0  0  0  0  0  0  0
    5.3690  -11.5973    0.0000 C   0  0  0  0  0  0  0  0  0  0  0  0
    3.9798  -13.2827    0.0000 Cl  0  0  0  0  0  0  0  0  0  0  0  0
    2.4822   -4.0507    0.0000 O   0  0  0  0  0  0  0  0  0  0  0  0
    7.3881   -9.5365    0.0000 C   0  0  0  0  0  0  0  0  0  0  0  0
    3.8880   -3.1413    0.0000 C   0  0  0  0  0  0  0  0  0  0  0  0
    9.5114   -3.3582    0.0000 C   0  0  0  0  0  0  0  0  0  0  0  0
    2.4822   -5.7694    0.0000 C   0  0  0  0  0  0  0  0  0  0  0  0
    7.0293   -2.4446    0.0000 C   0  0  0  0  0  0  0  0  0  0  0  0
    8.4101   -1.8898    0.0000 C   0  0  0  0  0  0  0  0  0  0  0  0
    6.8750   -1.6228    0.0000 C   0  0  0  0  0  0  0  0  0  0  0  0
    5.2897  -10.0246    0.0000 H   0  0  0  0  0  0  0  0  0  0  0  0
    6.7206   -7.4214    0.0000 H   0  0  0  0  0  0  0  0  0  0  0  0
    7.3505   -6.2325    0.0000 H   0  0  0  0  0  0  0  0  0  0  0  0
    6.0448   -3.4834    0.0000 H   0  0  0  0  0  0  0  0  0  0  0  0
    8.7480   -2.7783    0.0000 H   0  0  0  0  0  0  0  0  0  0  0  0
  2  1  1  0  0  0  0
  3  2  1  0  0  0  0
  4  1  1  0  0  0  0
  5  1  1  0  0  0  0
  6 14  1  0  0  0  0
  7  8  1  0  0  0  0
  8  5  2  0  0  0  0
  9  3  1  0  0  0  0
 10  2  1  0  0  0  0
 11  6  1  0  0  0  0
 12  4  1  0  0  0  0
 13 18  1  0  0  0  0
 14 17  1  0  0  0  0
 15 31  1  0  0  0  0
 16 11  1  0  0  0  0
 17 12  1  0  0  0  0
  7 18  1  1  0  0  0
 19 20  2  0  0  0  0
 20 41  1  0  0  0  0
 21 13  1  0  0  0  0
 22 25  2  0  0  0  0
 23 10  1  0  0  0  0
 24 38  1  0  0  0  0
 25 29  1  0  0  0  0
 26 10  2  0  0  0  0
 27  4  2  0  0  0  0
 28 26  1  0  0  0  0
 29 21  1  0  0  0  0
 30 17  1  0  0  0  0
 31 30  1  0  0  0  0
 32 22  1  0  0  0  0
 33 13  2  0  0  0  0
 34 40  1  0  0  0  0
 35 28  2  0  0  0  0
  2 36  1  6  0  0  0
  6 37  1  1  0  0  0
 38 35  1  0  0  0  0
 39 44  1  0  0  0  0
 40 37  1  0  0  0  0
 41 31  1  0  0  0  0
 42 16  1  0  0  0  0
 43 22  1  0  0  0  0
 44 29  2  0  0  0  0
 45 32  1  0  0  0  0
 24 46  1  6  0  0  0
 47  8  1  0  0  0  0
 48 19  1  0  0  0  0
 34 49  1  1  0  0  0
 38 50  1  6  0  0  0
 51 42  1  0  0  0  0
 42 52  1  6  0  0  0
 53 51  1  0  0  0  0
  3 54  1  6  0  0  0
  1 55  1  1  0  0  0
 17 56  1  6  0  0  0
 31 57  1  6  0  0  0
 16 58  1  1  0  0  0
  7  3  1  0  0  0  0
 23  9  1  0  0  0  0
 15  6  1  0  0  0  0
 19 24  1  0  0  0  0
 34 16  1  0  0  0  0
 39 32  2  0  0  0  0
M  END
>  <IDNUMBER>
F3409-0976

>  <Chemical_Name>
(1'R,2R,4'S,5S,6R,8'R,10'E,12'S,13'S,14'E,16'E,20'R,21'R,24'S)-6-[(2S)-butan-2-yl]-12',24'-dihydroxy-5,11',13',22'-tetramethyl-2'-oxo-3',7',19'-trioxaspiro[oxane-2,6'-tetracyclo[15.6.1.1?,?.0??,??]pentacosane]-10',14',16',22'-tetraen-21'-yl N-(3,4-dichlorophenyl)carbamate

>  <PriceCoeff>
7.00

>  <MW>
774.77

>  <Description>
solid

>  <FSP3>
0.61

>  <clogP>
8.29

>  <TPSA>
132.78

>  <Acceptor>
9

>  <Donor>
3

>  <RotBonds>
5

>  <HAC>
53

$$$$
F3409-0977
  Mrv2219 10102508112D          

 53 57  0  0  0  0            999 V2000
    5.9125   -6.2375    0.0000 C   0  0  2  0  0  0  0  0  0  0  0  0
    5.1833   -6.6917    0.0000 C   0  0  1  0  0  0  0  0  0  0  0  0
    5.1833   -7.5125    0.0000 C   0  0  1  0  0  0  0  0  0  0  0  0
    5.9042   -5.3958    0.0000 C   0  0  0  0  0  0  0  0  0  0  0  0
    6.5750   -6.6417    0.0000 C   0  0  0  0  0  0  0  0  0  0  0  0
    7.3208   -2.9292    0.0000 C   0  0  2  0  0  0  0  0  0  0  0  0
    5.9125   -7.9125    0.0000 C   0  0  1  0  0  0  0  0  0  0  0  0
    6.5750   -7.5125    0.0000 C   0  0  0  0  0  0  0  0  0  0  0  0
    4.4208   -7.7875    0.0000 O   0  0  0  0  0  0  0  0  0  0  0  0
    4.4208   -6.4542    0.0000 C   0  0  0  0  0  0  0  0  0  0  0  0
    5.9375   -8.7333    0.0000 O   0  0  0  0  0  0  0  0  0  0  0  0
    7.3208   -2.0792    0.0000 O   0  0  0  0  0  0  0  0  0  0  0  0
    6.6583   -9.1250    0.0000 C   0  0  0  0  0  0  0  0  0  0  0  0
    6.5750   -5.0042    0.0000 O   0  0  0  0  0  0  0  0  0  0  0  0
    7.3208   -3.7750    0.0000 C   0  0  0  0  0  0  0  0  0  0  0  0
    6.6042   -2.5042    0.0000 O   0  0  0  0  0  0  0  0  0  0  0  0
    8.0250   -1.7250    0.0000 C   0  0  1  0  0  0  0  0  0  0  0  0
    6.5750   -4.1708    0.0000 C   0  0  2  0  0  0  0  0  0  0  0  0
    3.7917   -2.4542    0.0000 C   0  0  0  0  0  0  0  0  0  0  0  0
    4.5000   -2.8750    0.0000 C   0  0  0  0  0  0  0  0  0  0  0  0
    3.9417   -7.0667    0.0000 C   0  0  0  0  0  0  0  0  0  0  0  0
    3.0583   -2.8750    0.0000 C   0  0  2  0  0  0  0  0  0  0  0  0
    6.6792   -9.9500    0.0000 C   0  0  0  0  0  0  0  0  0  0  0  0
    4.4208   -5.6000    0.0000 C   0  0  0  0  0  0  0  0  0  0  0  0
    5.1833   -4.9792    0.0000 O   0  0  0  0  0  0  0  0  0  0  0  0
    3.8750   -5.1875    0.0000 C   0  0  0  0  0  0  0  0  0  0  0  0
    5.9125   -3.7625    0.0000 C   0  0  0  0  0  0  0  0  0  0  0  0
    5.9125   -2.8958    0.0000 C   0  0  1  0  0  0  0  0  0  0  0  0
    7.3542   -8.6875    0.0000 O   0  0  0  0  0  0  0  0  0  0  0  0
    8.6750   -2.1458    0.0000 C   0  0  2  0  0  0  0  0  0  0  0  0
    3.8750   -4.3042    0.0000 C   0  0  0  0  0  0  0  0  0  0  0  0
    5.1750   -5.7833    0.0000 O   0  0  0  0  0  0  0  0  0  0  0  0
    7.9708   -3.2917    0.0000 C   0  0  0  0  0  0  0  0  0  0  0  0
    3.0583   -3.7750    0.0000 C   0  0  2  0  0  0  0  0  0  0  0  0
    8.6917   -2.9042    0.0000 C   0  0  0  0  0  0  0  0  0  0  0  0
    5.2042   -2.4542    0.0000 C   0  0  0  0  0  0  0  0  0  0  0  0
    7.7083   -0.9708    0.0000 C   0  0  2  0  0  0  0  0  0  0  0  0
    2.3750   -2.4542    0.0000 O   0  0  0  0  0  0  0  0  0  0  0  0
    7.2667   -7.9333    0.0000 C   0  0  0  0  0  0  0  0  0  0  0  0
    3.7750   -1.5458    0.0000 C   0  0  0  0  0  0  0  0  0  0  0  0
    6.6750  -10.7750    0.0000 C   0  0  0  0  0  0  0  0  0  0  0  0
    7.5042   -9.9417    0.0000 C   0  0  0  0  0  0  0  0  0  0  0  0
    5.8542   -9.9625    0.0000 C   0  0  0  0  0  0  0  0  0  0  0  0
    9.3917   -1.7625    0.0000 C   0  0  0  0  0  0  0  0  0  0  0  0
    2.3750   -4.1708    0.0000 C   0  0  0  0  0  0  0  0  0  0  0  0
    6.9125   -0.8500    0.0000 C   0  0  0  0  0  0  0  0  0  0  0  0
    8.2917   -0.2958    0.0000 C   0  0  0  0  0  0  0  0  0  0  0  0
    6.7583   -0.0292    0.0000 C   0  0  0  0  0  0  0  0  0  0  0  0
    6.6042   -5.8208    0.0000 H   0  0  0  0  0  0  0  0  0  0  0  0
    7.2333   -4.6333    0.0000 H   0  0  0  0  0  0  0  0  0  0  0  0
    5.9292   -1.8875    0.0000 H   0  0  0  0  0  0  0  0  0  0  0  0
    8.6292   -1.1833    0.0000 H   0  0  0  0  0  0  0  0  0  0  0  0
    5.1750   -8.4208    0.0000 H   0  0  0  0  0  0  0  0  0  0  0  0
  2  1  1  0  0  0  0
  3  2  1  0  0  0  0
  4  1  1  0  0  0  0
  5  1  1  0  0  0  0
  6 15  1  0  0  0  0
  7  3  1  0  0  0  0
  8  5  2  0  0  0  0
  9  3  1  0  0  0  0
 10  2  1  0  0  0  0
  7 11  1  1  0  0  0
 12  6  1  0  0  0  0
 13 11  1  0  0  0  0
 14  4  1  0  0  0  0
 15 18  1  0  0  0  0
 16 28  1  0  0  0  0
 17 12  1  0  0  0  0
 18 14  1  0  0  0  0
 19 22  1  0  0  0  0
 20 36  1  0  0  0  0
 21 10  1  0  0  0  0
 22 34  1  0  0  0  0
 23 13  1  0  0  0  0
 24 10  2  0  0  0  0
 25  4  2  0  0  0  0
 26 24  1  0  0  0  0
 27 18  1  0  0  0  0
 28 27  1  0  0  0  0
 29 13  2  0  0  0  0
 30 35  1  0  0  0  0
 31 26  2  0  0  0  0
  2 32  1  6  0  0  0
  6 33  1  1  0  0  0
 34 31  1  0  0  0  0
 35 33  1  0  0  0  0
 36 28  1  0  0  0  0
 37 17  1  0  0  0  0
 22 38  1  6  0  0  0
 39  8  1  0  0  0  0
 40 19  1  0  0  0  0
 41 23  1  0  0  0  0
 42 23  1  0  0  0  0
 43 23  1  0  0  0  0
 30 44  1  1  0  0  0
 34 45  1  6  0  0  0
 46 37  1  0  0  0  0
 37 47  1  6  0  0  0
 48 46  1  0  0  0  0
  1 49  1  1  0  0  0
 18 50  1  6  0  0  0
 28 51  1  6  0  0  0
 17 52  1  1  0  0  0
  3 53  1  6  0  0  0
  8  7  1  0  0  0  0
 21  9  1  0  0  0  0
 16  6  1  0  0  0  0
 20 19  2  0  0  0  0
 30 17  1  0  0  0  0
M  END
>  <IDNUMBER>
F3409-0977

>  <Chemical_Name>
(1'R,2R,4'S,5S,6R,8'R,10'E,12'S,13'S,14'E,16'E,20'R,21'R,24'S)-6-[(2S)-butan-2-yl]-12',24'-dihydroxy-5,11',13',22'-tetramethyl-2'-oxo-3',7',19'-trioxaspiro[oxane-2,6'-tetracyclo[15.6.1.1?,?.0??,??]pentacosane]-10',14',16',22'-tetraen-21'-yl 2,2-dimethylpropanoate

>  <PriceCoeff>
7.00

>  <MW>
670.88

>  <Description>
solid

>  <FSP3>
0.74

>  <clogP>
6.60

>  <TPSA>
120.75

>  <Acceptor>
9

>  <Donor>
2

>  <RotBonds>
4

>  <HAC>
48

$$$$
F3409-0978
  Mrv2219 10102508112D          

 59 63  0  0  0  0            999 V2000
    8.3542  -10.3500    0.0000 C   0  0  2  0  0  0  0  0  0  0  0  0
    7.6250  -10.8042    0.0000 C   0  0  1  0  0  0  0  0  0  0  0  0
    7.6250  -11.6250    0.0000 C   0  0  1  0  0  0  0  0  0  0  0  0
    8.3458   -9.5083    0.0000 C   0  0  0  0  0  0  0  0  0  0  0  0
    9.0167  -10.7542    0.0000 C   0  0  0  0  0  0  0  0  0  0  0  0
    9.7625   -7.0417    0.0000 C   0  0  2  0  0  0  0  0  0  0  0  0
    8.3542  -12.0250    0.0000 C   0  0  1  0  0  0  0  0  0  0  0  0
    9.0167  -11.6250    0.0000 C   0  0  0  0  0  0  0  0  0  0  0  0
    6.8625  -11.9000    0.0000 O   0  0  0  0  0  0  0  0  0  0  0  0
    6.8625  -10.5667    0.0000 C   0  0  0  0  0  0  0  0  0  0  0  0
    8.3792  -12.8458    0.0000 O   0  0  0  0  0  0  0  0  0  0  0  0
    9.7625   -6.1917    0.0000 O   0  0  0  0  0  0  0  0  0  0  0  0
    9.1000  -13.2375    0.0000 C   0  0  0  0  0  0  0  0  0  0  0  0
    4.8167   -6.5667    0.0000 O   0  0  0  0  0  0  0  0  0  0  0  0
    4.8375   -5.7417    0.0000 C   0  0  0  0  0  0  0  0  0  0  0  0
    9.0167   -9.1167    0.0000 O   0  0  0  0  0  0  0  0  0  0  0  0
    5.5000   -6.9875    0.0000 C   0  0  2  0  0  0  0  0  0  0  0  0
    9.7625   -7.8875    0.0000 C   0  0  0  0  0  0  0  0  0  0  0  0
    9.0458   -6.6167    0.0000 O   0  0  0  0  0  0  0  0  0  0  0  0
   10.4667   -5.8375    0.0000 C   0  0  1  0  0  0  0  0  0  0  0  0
    9.0167   -8.2833    0.0000 C   0  0  2  0  0  0  0  0  0  0  0  0
    6.2292   -6.5667    0.0000 C   0  0  0  0  0  0  0  0  0  0  0  0
    6.9417   -6.9875    0.0000 C   0  0  0  0  0  0  0  0  0  0  0  0
    6.3833  -11.1792    0.0000 C   0  0  0  0  0  0  0  0  0  0  0  0
    9.1208  -14.0625    0.0000 C   0  0  0  0  0  0  0  0  0  0  0  0
    4.1333   -5.3125    0.0000 C   0  0  0  0  0  0  0  0  0  0  0  0
    6.8625   -9.7125    0.0000 C   0  0  0  0  0  0  0  0  0  0  0  0
    7.6250   -9.0917    0.0000 O   0  0  0  0  0  0  0  0  0  0  0  0
    6.3167   -9.3000    0.0000 C   0  0  0  0  0  0  0  0  0  0  0  0
    8.3542   -7.8750    0.0000 C   0  0  0  0  0  0  0  0  0  0  0  0
    8.3542   -7.0083    0.0000 C   0  0  1  0  0  0  0  0  0  0  0  0
    9.7958  -12.8000    0.0000 O   0  0  0  0  0  0  0  0  0  0  0  0
    5.5625   -5.3500    0.0000 O   0  0  0  0  0  0  0  0  0  0  0  0
    5.5000   -7.8875    0.0000 C   0  0  2  0  0  0  0  0  0  0  0  0
   11.1167   -6.2583    0.0000 C   0  0  2  0  0  0  0  0  0  0  0  0
    6.3167   -8.4167    0.0000 C   0  0  0  0  0  0  0  0  0  0  0  0
    7.6167   -9.8958    0.0000 O   0  0  0  0  0  0  0  0  0  0  0  0
   10.4125   -7.4042    0.0000 C   0  0  0  0  0  0  0  0  0  0  0  0
   11.1292   -7.0167    0.0000 C   0  0  0  0  0  0  0  0  0  0  0  0
    7.6500   -6.5667    0.0000 C   0  0  0  0  0  0  0  0  0  0  0  0
   10.1500   -5.0833    0.0000 C   0  0  2  0  0  0  0  0  0  0  0  0
    9.7125  -12.0458    0.0000 C   0  0  0  0  0  0  0  0  0  0  0  0
    6.2167   -5.6583    0.0000 C   0  0  0  0  0  0  0  0  0  0  0  0
    9.1167  -14.8875    0.0000 C   0  0  0  0  0  0  0  0  0  0  0  0
    9.9458  -14.0542    0.0000 C   0  0  0  0  0  0  0  0  0  0  0  0
    8.3000  -14.0750    0.0000 C   0  0  0  0  0  0  0  0  0  0  0  0
    3.4167   -4.9000    0.0000 C   0  0  0  0  0  0  0  0  0  0  0  0
    4.5542   -4.6042    0.0000 C   0  0  0  0  0  0  0  0  0  0  0  0
    3.7167   -6.0250    0.0000 C   0  0  0  0  0  0  0  0  0  0  0  0
    4.8167   -8.2833    0.0000 C   0  0  0  0  0  0  0  0  0  0  0  0
   11.8333   -5.8750    0.0000 C   0  0  0  0  0  0  0  0  0  0  0  0
    9.3542   -4.9625    0.0000 C   0  0  0  0  0  0  0  0  0  0  0  0
   10.7333   -4.4083    0.0000 C   0  0  0  0  0  0  0  0  0  0  0  0
    9.2000   -4.1417    0.0000 C   0  0  0  0  0  0  0  0  0  0  0  0
    9.6750   -8.7458    0.0000 H   0  0  0  0  0  0  0  0  0  0  0  0
    8.3708   -6.0000    0.0000 H   0  0  0  0  0  0  0  0  0  0  0  0
   11.0708   -5.2958    0.0000 H   0  0  0  0  0  0  0  0  0  0  0  0
    7.6167  -12.5333    0.0000 H   0  0  0  0  0  0  0  0  0  0  0  0
    9.0458   -9.9333    0.0000 H   0  0  0  0  0  0  0  0  0  0  0  0
  2  1  1  0  0  0  0
  3  2  1  0  0  0  0
  4  1  1  0  0  0  0
  5  1  1  0  0  0  0
  6 18  1  0  0  0  0
  7  8  1  0  0  0  0
  8  5  2  0  0  0  0
  9  3  1  0  0  0  0
 10  2  1  0  0  0  0
  7 11  1  1  0  0  0
 12  6  1  0  0  0  0
 13 11  1  0  0  0  0
 17 14  1  6  0  0  0
 15 14  1  0  0  0  0
 16  4  1  0  0  0  0
 17 34  1  0  0  0  0
 18 21  1  0  0  0  0
 19 31  1  0  0  0  0
 20 12  1  0  0  0  0
 21 16  1  0  0  0  0
 22 23  2  0  0  0  0
 23 40  1  0  0  0  0
 24 10  1  0  0  0  0
 25 13  1  0  0  0  0
 26 15  1  0  0  0  0
 27 10  2  0  0  0  0
 28  4  2  0  0  0  0
 29 27  1  0  0  0  0
 30 21  1  0  0  0  0
 31 30  1  0  0  0  0
 32 13  2  0  0  0  0
 33 15  2  0  0  0  0
 34 36  1  0  0  0  0
 35 39  1  0  0  0  0
 36 29  2  0  0  0  0
  2 37  1  6  0  0  0
  6 38  1  1  0  0  0
 39 38  1  0  0  0  0
 40 31  1  0  0  0  0
 41 20  1  0  0  0  0
 42  8  1  0  0  0  0
 43 22  1  0  0  0  0
 44 25  1  0  0  0  0
 45 25  1  0  0  0  0
 46 25  1  0  0  0  0
 47 26  1  0  0  0  0
 48 26  1  0  0  0  0
 49 26  1  0  0  0  0
 34 50  1  6  0  0  0
 35 51  1  1  0  0  0
 52 41  1  0  0  0  0
 41 53  1  6  0  0  0
 54 52  1  0  0  0  0
 21 55  1  6  0  0  0
 31 56  1  6  0  0  0
 20 57  1  1  0  0  0
  3 58  1  6  0  0  0
  1 59  1  1  0  0  0
  7  3  1  0  0  0  0
 24  9  1  0  0  0  0
 19  6  1  0  0  0  0
 22 17  1  0  0  0  0
 35 20  1  0  0  0  0
M  END
>  <IDNUMBER>
F3409-0978

>  <Chemical_Name>
(1'R,2R,4'S,5S,6R,8'R,10'E,12'S,13'S,14'E,16'E,20'R,21'R,24'S)-6-[(2S)-butan-2-yl]-12'-[(2,2-dimethylpropanoyl)oxy]-24'-hydroxy-5,11',13',22'-tetramethyl-2'-oxo-3',7',19'-trioxaspiro[oxane-2,6'-tetracyclo[15.6.1.1?,?.0??,??]pentacosane]-10',14',16',22'-tetraen-21'-yl 2,2-dimethylpropanoate

>  <PriceCoeff>
7.00

>  <MW>
755.00

>  <Description>
solid

>  <FSP3>
0.75

>  <clogP>
8.79

>  <TPSA>
126.82

>  <Acceptor>
10

>  <Donor>
1

>  <RotBonds>
6

>  <HAC>
54

$$$$
F3409-0980
  Mrv2219 10102508112D          

 56 60  0  0  0  0            999 V2000
    6.7108   -8.6783    0.0000 C   0  0  2  0  0  0  0  0  0  0  0  0
    5.9815   -9.1327    0.0000 C   0  0  1  0  0  0  0  0  0  0  0  0
    5.9815   -9.9538    0.0000 C   0  0  1  0  0  0  0  0  0  0  0  0
    6.7025   -7.8363    0.0000 C   0  0  0  0  0  0  0  0  0  0  0  0
    7.3736   -9.0826    0.0000 C   0  0  0  0  0  0  0  0  0  0  0  0
    8.1198   -5.3687    0.0000 C   0  0  2  0  0  0  0  0  0  0  0  0
    6.7108  -10.3539    0.0000 C   0  0  1  0  0  0  0  0  0  0  0  0
    7.3736   -9.9538    0.0000 C   0  0  0  0  0  0  0  0  0  0  0  0
    5.2187  -10.2289    0.0000 O   0  0  0  0  0  0  0  0  0  0  0  0
    5.2187   -8.8951    0.0000 C   0  0  0  0  0  0  0  0  0  0  0  0
    6.7358  -11.1750    0.0000 O   0  0  0  0  0  0  0  0  0  0  0  0
    8.1198   -4.5184    0.0000 O   0  0  0  0  0  0  0  0  0  0  0  0
    7.4570  -11.5669    0.0000 C   0  0  0  0  0  0  0  0  0  0  0  0
    7.3736   -7.4445    0.0000 O   0  0  0  0  0  0  0  0  0  0  0  0
    3.8557   -5.3145    0.0000 C   0  0  1  0  0  0  0  0  0  0  0  0
    8.1198   -6.2149    0.0000 C   0  0  0  0  0  0  0  0  0  0  0  0
    7.4028   -4.9436    0.0000 O   0  0  0  0  0  0  0  0  0  0  0  0
    8.8241   -4.1641    0.0000 C   0  0  1  0  0  0  0  0  0  0  0  0
    7.3736   -6.6108    0.0000 C   0  0  2  0  0  0  0  0  0  0  0  0
    4.5892   -4.8936    0.0000 C   0  0  0  0  0  0  0  0  0  0  0  0
    5.2978   -5.3145    0.0000 C   0  0  0  0  0  0  0  0  0  0  0  0
    3.1679   -4.8936    0.0000 O   0  0  0  0  0  0  0  0  0  0  0  0
    4.7393   -9.5078    0.0000 C   0  0  0  0  0  0  0  0  0  0  0  0
    7.4778  -12.3922    0.0000 C   0  0  0  0  0  0  0  0  0  0  0  0
    3.1929   -4.0682    0.0000 C   0  0  0  0  0  0  0  0  0  0  0  0
    5.2187   -8.0405    0.0000 C   0  0  0  0  0  0  0  0  0  0  0  0
    5.9815   -7.4195    0.0000 O   0  0  0  0  0  0  0  0  0  0  0  0
    4.6726   -7.6279    0.0000 C   0  0  0  0  0  0  0  0  0  0  0  0
    6.7108   -6.2023    0.0000 C   0  0  0  0  0  0  0  0  0  0  0  0
    6.7108   -5.3353    0.0000 C   0  0  1  0  0  0  0  0  0  0  0  0
    8.1531  -11.1292    0.0000 O   0  0  0  0  0  0  0  0  0  0  0  0
    3.8557   -6.2149    0.0000 C   0  0  2  0  0  0  0  0  0  0  0  0
    9.4744   -4.5850    0.0000 C   0  0  2  0  0  0  0  0  0  0  0  0
    4.6726   -6.7443    0.0000 C   0  0  0  0  0  0  0  0  0  0  0  0
    5.9731   -8.2239    0.0000 O   0  0  0  0  0  0  0  0  0  0  0  0
    8.7700   -5.7314    0.0000 C   0  0  0  0  0  0  0  0  0  0  0  0
    3.9182   -3.6764    0.0000 O   0  0  0  0  0  0  0  0  0  0  0  0
    9.4911   -5.3437    0.0000 C   0  0  0  0  0  0  0  0  0  0  0  0
    6.0065   -4.8936    0.0000 C   0  0  0  0  0  0  0  0  0  0  0  0
    8.5074   -3.4096    0.0000 C   0  0  2  0  0  0  0  0  0  0  0  0
    8.0698  -10.3747    0.0000 C   0  0  0  0  0  0  0  0  0  0  0  0
    4.5725   -3.9848    0.0000 C   0  0  0  0  0  0  0  0  0  0  0  0
    6.6567  -12.4047    0.0000 C   0  0  0  0  0  0  0  0  0  0  0  0
    7.4695  -13.2175    0.0000 C   0  0  0  0  0  0  0  0  0  0  0  0
    8.3031  -12.3839    0.0000 C   0  0  0  0  0  0  0  0  0  0  0  0
    2.4884   -3.6389    0.0000 C   0  0  0  0  0  0  0  0  0  0  0  0
    3.1679   -6.6108    0.0000 C   0  0  0  0  0  0  0  0  0  0  0  0
   10.1914   -4.2016    0.0000 C   0  0  0  0  0  0  0  0  0  0  0  0
    7.7112   -3.2887    0.0000 C   0  0  0  0  0  0  0  0  0  0  0  0
    9.0909   -2.7343    0.0000 C   0  0  0  0  0  0  0  0  0  0  0  0
    7.5571   -2.4676    0.0000 C   0  0  0  0  0  0  0  0  0  0  0  0
    9.4286   -3.6222    0.0000 H   0  0  0  0  0  0  0  0  0  0  0  0
    5.9731  -10.8624    0.0000 H   0  0  0  0  0  0  0  0  0  0  0  0
    7.4028   -8.2614    0.0000 H   0  0  0  0  0  0  0  0  0  0  0  0
    8.0322   -7.0735    0.0000 H   0  0  0  0  0  0  0  0  0  0  0  0
    6.7275   -4.3266    0.0000 H   0  0  0  0  0  0  0  0  0  0  0  0
  2  1  1  0  0  0  0
  3  2  1  0  0  0  0
  4  1  1  0  0  0  0
  5  1  1  0  0  0  0
  6 16  1  0  0  0  0
  7  8  1  0  0  0  0
  8  5  2  0  0  0  0
  9  3  1  0  0  0  0
 10  2  1  0  0  0  0
  7 11  1  1  0  0  0
 12  6  1  0  0  0  0
 13 11  1  0  0  0  0
 14  4  1  0  0  0  0
 15 32  1  0  0  0  0
 16 19  1  0  0  0  0
 17 30  1  0  0  0  0
 18 12  1  0  0  0  0
 19 14  1  0  0  0  0
 20 21  2  0  0  0  0
 21 39  1  0  0  0  0
 15 22  1  6  0  0  0
 23 10  1  0  0  0  0
 24 13  1  0  0  0  0
 25 22  1  0  0  0  0
 26 10  2  0  0  0  0
 27  4  2  0  0  0  0
 28 26  1  0  0  0  0
 29 19  1  0  0  0  0
 30 29  1  0  0  0  0
 31 13  2  0  0  0  0
 32 34  1  0  0  0  0
 33 38  1  0  0  0  0
 34 28  2  0  0  0  0
  2 35  1  6  0  0  0
  6 36  1  1  0  0  0
 37 25  2  0  0  0  0
 38 36  1  0  0  0  0
 39 30  1  0  0  0  0
 40 18  1  0  0  0  0
 41  8  1  0  0  0  0
 42 20  1  0  0  0  0
 43 24  1  0  0  0  0
 44 24  1  0  0  0  0
 45 24  1  0  0  0  0
 46 25  1  0  0  0  0
 32 47  1  6  0  0  0
 33 48  1  1  0  0  0
 49 40  1  0  0  0  0
 40 50  1  6  0  0  0
 51 49  1  0  0  0  0
 18 52  1  1  0  0  0
  3 53  1  6  0  0  0
  1 54  1  1  0  0  0
 19 55  1  6  0  0  0
 30 56  1  6  0  0  0
  7  3  1  0  0  0  0
 23  9  1  0  0  0  0
 17  6  1  0  0  0  0
 20 15  1  0  0  0  0
 33 18  1  0  0  0  0
M  END
>  <IDNUMBER>
F3409-0980

>  <Chemical_Name>
(1'R,2R,4'S,5S,6R,8'R,10'E,12'S,13'S,14'E,16'E,20'R,21'R,24'S)-12'-(acetyloxy)-6-[(2S)-butan-2-yl]-24'-hydroxy-5,11',13',22'-tetramethyl-2'-oxo-3',7',19'-trioxaspiro[oxane-2,6'-tetracyclo[15.6.1.1?,?.0??,??]pentacosane]-10',14',16',22'-tetraen-21'-yl 2,2-dimethylpropanoate

>  <PriceCoeff>
7.00

>  <MW>
712.92

>  <Description>
solid

>  <FSP3>
0.73

>  <clogP>
7.55

>  <TPSA>
126.82

>  <Acceptor>
10

>  <Donor>
1

>  <RotBonds>
6

>  <HAC>
51

$$$$
F3409-0981
  Mrv2219 10102508112D          

 60 65  0  0  0  0            999 V2000
    6.7164   -8.6855    0.0000 C   0  0  2  0  0  0  0  0  0  0  0  0
    5.9864   -9.1403    0.0000 C   0  0  1  0  0  0  0  0  0  0  0  0
    5.9864   -9.9621    0.0000 C   0  0  2  0  0  0  0  0  0  0  0  0
    6.7081   -7.8428    0.0000 C   0  0  0  0  0  0  0  0  0  0  0  0
    7.3797   -9.0902    0.0000 C   0  0  0  0  0  0  0  0  0  0  0  0
    8.1265   -5.3732    0.0000 C   0  0  2  0  0  0  0  0  0  0  0  0
    7.3797   -9.9621    0.0000 C   0  0  0  0  0  0  0  0  0  0  0  0
    5.2230  -10.2374    0.0000 O   0  0  0  0  0  0  0  0  0  0  0  0
    5.2230   -8.9025    0.0000 C   0  0  0  0  0  0  0  0  0  0  0  0
    6.7164  -10.3625    0.0000 C   0  0  1  0  0  0  0  0  0  0  0  0
    8.1265   -4.5222    0.0000 O   0  0  0  0  0  0  0  0  0  0  0  0
    3.1705   -4.8976    0.0000 O   0  0  0  0  0  0  0  0  0  0  0  0
    7.3797   -7.4507    0.0000 O   0  0  0  0  0  0  0  0  0  0  0  0
    3.1956   -4.0716    0.0000 C   0  0  0  0  0  0  0  0  0  0  0  0
    3.8589   -5.3189    0.0000 C   0  0  2  0  0  0  0  0  0  0  0  0
    0.4047   -1.5185    0.0000 C   0  0  0  0  0  0  0  0  0  0  0  0
    8.1265   -6.2200    0.0000 C   0  0  0  0  0  0  0  0  0  0  0  0
    7.4090   -4.9477    0.0000 O   0  0  0  0  0  0  0  0  0  0  0  0
    8.8315   -4.1675    0.0000 C   0  0  1  0  0  0  0  0  0  0  0  0
    7.3797   -6.6163    0.0000 C   0  0  2  0  0  0  0  0  0  0  0  0
    4.5931   -4.8976    0.0000 C   0  0  0  0  0  0  0  0  0  0  0  0
    5.3022   -5.3189    0.0000 C   0  0  0  0  0  0  0  0  0  0  0  0
    4.7432   -9.5157    0.0000 C   0  0  0  0  0  0  0  0  0  0  0  0
    2.4905   -3.6419    0.0000 C   0  0  0  0  0  0  0  0  0  0  0  0
    5.2230   -8.0472    0.0000 C   0  0  0  0  0  0  0  0  0  0  0  0
    5.9864   -7.4257    0.0000 O   0  0  0  0  0  0  0  0  0  0  0  0
    4.6765   -7.6342    0.0000 C   0  0  0  0  0  0  0  0  0  0  0  0
    6.7164   -6.2075    0.0000 C   0  0  0  0  0  0  0  0  0  0  0  0
    6.7164   -5.3398    0.0000 C   0  0  1  0  0  0  0  0  0  0  0  0
    0.3797   -2.3445    0.0000 O   0  0  0  0  0  0  0  0  0  0  0  0
    3.9214   -3.6795    0.0000 O   0  0  0  0  0  0  0  0  0  0  0  0
    3.8589   -6.2200    0.0000 C   0  0  2  0  0  0  0  0  0  0  0  0
    9.4823   -4.5889    0.0000 C   0  0  2  0  0  0  0  0  0  0  0  0
    4.6765   -6.7499    0.0000 C   0  0  0  0  0  0  0  0  0  0  0  0
    5.9780   -8.2308    0.0000 O   0  0  0  0  0  0  0  0  0  0  0  0
    8.7773   -5.7361    0.0000 C   0  0  0  0  0  0  0  0  0  0  0  0
    2.5155   -2.8159    0.0000 C   0  0  0  0  0  0  0  0  0  0  0  0
    1.7688   -4.0341    0.0000 C   0  0  0  0  0  0  0  0  0  0  0  0
    0.4255   -0.7634    0.0000 F   0  0  0  0  0  0  0  0  0  0  0  0
    1.0888   -0.9887    0.0000 F   0  0  0  0  0  0  0  0  0  0  0  0
   -0.2461   -0.9554    0.0000 F   0  0  0  0  0  0  0  0  0  0  0  0
    9.4990   -5.3482    0.0000 C   0  0  0  0  0  0  0  0  0  0  0  0
    6.0115   -4.8976    0.0000 C   0  0  0  0  0  0  0  0  0  0  0  0
    8.5145   -3.4124    0.0000 C   0  0  2  0  0  0  0  0  0  0  0  0
    1.0846   -2.7784    0.0000 C   0  0  0  0  0  0  0  0  0  0  0  0
    6.7415  -11.1843    0.0000 O   0  0  0  0  0  0  0  0  0  0  0  0
    1.8147   -2.3821    0.0000 C   0  0  0  0  0  0  0  0  0  0  0  0
    1.0638   -3.6086    0.0000 C   0  0  0  0  0  0  0  0  0  0  0  0
    8.0765  -10.3834    0.0000 C   0  0  0  0  0  0  0  0  0  0  0  0
    4.5763   -3.9881    0.0000 C   0  0  0  0  0  0  0  0  0  0  0  0
    3.1705   -6.6163    0.0000 C   0  0  0  0  0  0  0  0  0  0  0  0
   10.1998   -4.2051    0.0000 C   0  0  0  0  0  0  0  0  0  0  0  0
    7.7176   -3.2915    0.0000 C   0  0  0  0  0  0  0  0  0  0  0  0
    9.0985   -2.7366    0.0000 C   0  0  0  0  0  0  0  0  0  0  0  0
    7.5634   -2.4697    0.0000 C   0  0  0  0  0  0  0  0  0  0  0  0
    6.7331   -4.3302    0.0000 H   0  0  0  0  0  0  0  0  0  0  0  0
    9.4364   -3.6252    0.0000 H   0  0  0  0  0  0  0  0  0  0  0  0
    5.9780  -10.8715    0.0000 H   0  0  0  0  0  0  0  0  0  0  0  0
    7.4090   -8.2683    0.0000 H   0  0  0  0  0  0  0  0  0  0  0  0
    8.0389   -7.0794    0.0000 H   0  0  0  0  0  0  0  0  0  0  0  0
  2  1  1  0  0  0  0
  3  2  1  0  0  0  0
  4  1  1  0  0  0  0
  5  1  1  0  0  0  0
  6 17  1  0  0  0  0
  7  5  2  0  0  0  0
  8  3  1  0  0  0  0
  9  2  1  0  0  0  0
 10  7  1  0  0  0  0
 11  6  1  0  0  0  0
 15 12  1  6  0  0  0
 13  4  1  0  0  0  0
 14 12  1  0  0  0  0
 15 32  1  0  0  0  0
 16 30  1  0  0  0  0
 17 20  1  0  0  0  0
 18 29  1  0  0  0  0
 19 11  1  0  0  0  0
 20 13  1  0  0  0  0
 21 22  2  0  0  0  0
 22 43  1  0  0  0  0
 23  9  1  0  0  0  0
 24 14  1  0  0  0  0
 25  9  2  0  0  0  0
 26  4  2  0  0  0  0
 27 25  1  0  0  0  0
 28 20  1  0  0  0  0
 29 28  1  0  0  0  0
 30 45  1  0  0  0  0
 31 14  2  0  0  0  0
 32 34  1  0  0  0  0
 33 42  1  0  0  0  0
 34 27  2  0  0  0  0
  2 35  1  6  0  0  0
  6 36  1  1  0  0  0
 37 24  2  0  0  0  0
 38 24  1  0  0  0  0
 39 16  1  0  0  0  0
 40 16  1  0  0  0  0
 41 16  1  0  0  0  0
 42 36  1  0  0  0  0
 43 29  1  0  0  0  0
 44 19  1  0  0  0  0
 45 48  1  0  0  0  0
 10 46  1  1  0  0  0
 47 37  1  0  0  0  0
 48 38  2  0  0  0  0
 49  7  1  0  0  0  0
 50 21  1  0  0  0  0
 32 51  1  6  0  0  0
 33 52  1  1  0  0  0
 53 44  1  0  0  0  0
 44 54  1  6  0  0  0
 55 53  1  0  0  0  0
 29 56  1  6  0  0  0
 19 57  1  1  0  0  0
  3 58  1  6  0  0  0
  1 59  1  1  0  0  0
 20 60  1  6  0  0  0
 10  3  1  0  0  0  0
 23  8  1  0  0  0  0
 18  6  1  0  0  0  0
 21 15  1  0  0  0  0
 33 19  1  0  0  0  0
 45 47  2  0  0  0  0
M  END
>  <IDNUMBER>
F3409-0981

>  <Chemical_Name>
(1'R,2R,4'S,5S,6R,8'R,10'E,12'S,13'S,14'E,16'E,20'R,21'R,24'S)-6-[(2S)-butan-2-yl]-21',24'-dihydroxy-5,11',13',22'-tetramethyl-2'-oxo-3',7',19'-trioxaspiro[oxane-2,6'-tetracyclo[15.6.1.1?,?.0??,??]pentacosane]-10',14',16',22'-tetraen-12'-yl 4-(trifluoromethoxy)benzoate

>  <PriceCoeff>
7.00

>  <MW>
774.87

>  <Description>
solid

>  <FSP3>
0.62

>  <clogP>
9.28

>  <TPSA>
129.98

>  <Acceptor>
10

>  <Donor>
2

>  <RotBonds>
6

>  <HAC>
55

$$$$
F3409-1001
  Mrv2219 10102508112D          

 57 62  0  0  0  0            999 V2000
   -4.5301    3.3360    0.0000 C   0  0  2  0  0  0  0  0  0  0  0  0
   -5.2598    2.8811    0.0000 C   0  0  1  0  0  0  0  0  0  0  0  0
   -5.2598    2.0659    0.0000 C   0  0  1  0  0  0  0  0  0  0  0  0
   -4.5395    4.1890    0.0000 C   0  0  0  0  0  0  0  0  0  0  0  0
   -3.8667    2.9380    0.0000 C   0  0  0  0  0  0  0  0  0  0  0  0
   -3.1086    6.6625    0.0000 C   0  0  2  0  0  0  0  0  0  0  0  0
   -4.5301    1.6586    0.0000 C   0  0  1  0  0  0  0  0  0  0  0  0
   -3.8667    2.0659    0.0000 C   0  0  0  0  0  0  0  0  0  0  0  0
   -6.0275    1.7816    0.0000 O   0  0  0  0  0  0  0  0  0  0  0  0
   -6.0275    3.1275    0.0000 C   0  0  0  0  0  0  0  0  0  0  0  0
   -3.1086    7.5248    0.0000 O   0  0  0  0  0  0  0  0  0  0  0  0
   -3.8667    4.5870    0.0000 O   0  0  0  0  0  0  0  0  0  0  0  0
   -3.1086    5.8189    0.0000 C   0  0  0  0  0  0  0  0  0  0  0  0
   -3.8382    7.0983    0.0000 O   0  0  0  0  0  0  0  0  0  0  0  0
   -2.4071    7.8755    0.0000 C   0  0  1  0  0  0  0  0  0  0  0  0
   -3.8667    5.4208    0.0000 C   0  0  2  0  0  0  0  0  0  0  0  0
   -6.6718    7.1458    0.0000 C   0  0  0  0  0  0  0  0  0  0  0  0
   -4.5017    0.8341    0.0000 O   0  0  0  0  0  0  0  0  0  0  0  0
   -3.7814    0.4265    0.0000 C   0  0  0  0  0  0  0  0  0  0  0  0
   -5.9517    6.7194    0.0000 C   0  0  0  0  0  0  0  0  0  0  0  0
   -6.5108    2.5115    0.0000 C   0  0  0  0  0  0  0  0  0  0  0  0
   -7.4017    6.7194    0.0000 C   0  0  2  0  0  0  0  0  0  0  0  0
   -3.7529   -0.3885    0.0000 C   0  0  0  0  0  0  0  0  0  0  0  0
   -6.0275    3.9804    0.0000 C   0  0  0  0  0  0  0  0  0  0  0  0
   -3.0610   -0.8625    0.0000 C   0  0  0  0  0  0  0  0  0  0  0  0
   -5.2598    4.6059    0.0000 O   0  0  0  0  0  0  0  0  0  0  0  0
   -6.5772    4.3973    0.0000 C   0  0  0  0  0  0  0  0  0  0  0  0
   -4.5301    5.8284    0.0000 C   0  0  0  0  0  0  0  0  0  0  0  0
   -4.5301    6.7003    0.0000 C   0  0  1  0  0  0  0  0  0  0  0  0
   -1.7532    7.4490    0.0000 C   0  0  2  0  0  0  0  0  0  0  0  0
   -6.5772    5.2882    0.0000 C   0  0  0  0  0  0  0  0  0  0  0  0
   -5.2694    3.8003    0.0000 O   0  0  0  0  0  0  0  0  0  0  0  0
   -2.4640    6.3022    0.0000 C   0  0  0  0  0  0  0  0  0  0  0  0
   -7.4017    5.8189    0.0000 C   0  0  2  0  0  0  0  0  0  0  0  0
   -3.0801    0.8814    0.0000 O   0  0  0  0  0  0  0  0  0  0  0  0
   -1.7343    6.6909    0.0000 C   0  0  0  0  0  0  0  0  0  0  0  0
   -5.2314    7.1458    0.0000 C   0  0  0  0  0  0  0  0  0  0  0  0
   -2.7199    8.6336    0.0000 C   0  0  2  0  0  0  0  0  0  0  0  0
   -3.1275   -1.5353    0.0000 C   0  0  0  0  0  0  0  0  0  0  0  0
   -8.0934    7.1458    0.0000 O   0  0  0  0  0  0  0  0  0  0  0  0
   -3.1559    1.6395    0.0000 C   0  0  0  0  0  0  0  0  0  0  0  0
   -6.6814    8.0556    0.0000 C   0  0  0  0  0  0  0  0  0  0  0  0
   -1.0331    7.8375    0.0000 C   0  0  0  0  0  0  0  0  0  0  0  0
   -8.0934    5.4208    0.0000 C   0  0  0  0  0  0  0  0  0  0  0  0
   -3.5255    8.7569    0.0000 C   0  0  0  0  0  0  0  0  0  0  0  0
   -2.1324    9.3159    0.0000 C   0  0  0  0  0  0  0  0  0  0  0  0
   -3.7529   -1.8292    0.0000 C   0  0  0  0  0  0  0  0  0  0  0  0
   -2.5684   -1.9333    0.0000 C   0  0  0  0  0  0  0  0  0  0  0  0
   -3.6772    9.5814    0.0000 C   0  0  0  0  0  0  0  0  0  0  0  0
   -2.6252   -2.6061    0.0000 C   0  0  0  0  0  0  0  0  0  0  0  0
   -3.8098   -2.5020    0.0000 C   0  0  0  0  0  0  0  0  0  0  0  0
   -3.2507   -2.9000    0.0000 C   0  0  0  0  0  0  0  0  0  0  0  0
   -5.2694    1.1468    0.0000 H   0  0  0  0  0  0  0  0  0  0  0  0
   -3.8382    3.7625    0.0000 H   0  0  0  0  0  0  0  0  0  0  0  0
   -3.2032    4.9566    0.0000 H   0  0  0  0  0  0  0  0  0  0  0  0
   -4.5110    7.7145    0.0000 H   0  0  0  0  0  0  0  0  0  0  0  0
   -1.7912    8.4252    0.0000 H   0  0  0  0  0  0  0  0  0  0  0  0
  2  1  1  0  0  0  0
  3  2  1  0  0  0  0
  4  1  1  0  0  0  0
  5  1  1  0  0  0  0
  6 13  1  0  0  0  0
  7  8  1  0  0  0  0
  8  5  2  0  0  0  0
  9  3  1  0  0  0  0
 10  2  1  0  0  0  0
 11  6  1  0  0  0  0
 12  4  1  0  0  0  0
 13 16  1  0  0  0  0
 14 29  1  0  0  0  0
 15 11  1  0  0  0  0
 16 12  1  0  0  0  0
 17 20  2  0  0  0  0
  7 18  1  1  0  0  0
 19 18  1  0  0  0  0
 20 37  1  0  0  0  0
 21 10  1  0  0  0  0
 22 34  1  0  0  0  0
 23 19  1  0  0  0  0
 24 10  2  0  0  0  0
 25 23  2  0  0  0  0
 26  4  2  0  0  0  0
 27 24  1  0  0  0  0
 28 16  1  0  0  0  0
 29 28  1  0  0  0  0
 30 36  1  0  0  0  0
 31 27  2  0  0  0  0
  2 32  1  6  0  0  0
  6 33  1  1  0  0  0
 34 31  1  0  0  0  0
 35 19  2  0  0  0  0
 36 33  1  0  0  0  0
 37 29  1  0  0  0  0
 38 15  1  0  0  0  0
 39 25  1  0  0  0  0
 22 40  1  6  0  0  0
 41  8  1  0  0  0  0
 42 17  1  0  0  0  0
 30 43  1  1  0  0  0
 34 44  1  6  0  0  0
 45 38  1  0  0  0  0
 38 46  1  6  0  0  0
 47 39  2  0  0  0  0
 48 39  1  0  0  0  0
 49 45  1  0  0  0  0
 50 48  2  0  0  0  0
 51 47  1  0  0  0  0
 52 50  1  0  0  0  0
  3 53  1  6  0  0  0
  1 54  1  1  0  0  0
 16 55  1  6  0  0  0
 29 56  1  6  0  0  0
 15 57  1  1  0  0  0
  7  3  1  0  0  0  0
 21  9  1  0  0  0  0
 14  6  1  0  0  0  0
 17 22  1  0  0  0  0
 30 15  1  0  0  0  0
 52 51  2  0  0  0  0
M  END
>  <IDNUMBER>
F3409-1001

>  <Chemical_Name>
(1'R,2R,4'S,5S,6R,8'R,10'E,12'S,13'S,14'E,16'E,20'R,21'R,24'S)-6-[(2S)-butan-2-yl]-12',24'-dihydroxy-5,11',13',22'-tetramethyl-2'-oxo-3',7',19'-trioxaspiro[oxane-2,6'-tetracyclo[15.6.1.1?,?.0??,??]pentacosane]-10',14',16',22'-tetraen-21'-yl (2E)-3-phenylprop-2-enoate

>  <PriceCoeff>
7.00

>  <MW>
716.91

>  <Description>
solid

>  <FSP3>
0.58

>  <clogP>
7.54

>  <TPSA>
120.75

>  <Acceptor>
9

>  <Donor>
2

>  <RotBonds>
6

>  <HAC>
52

$$$$
F3409-1003
  Mrv2219 10102508112D          

 58 63  0  0  0  0            999 V2000
    3.2656   -3.8499    0.0000 C   0  0  2  0  0  0  0  0  0  0  0  0
    2.5321   -4.3058    0.0000 C   0  0  1  0  0  0  0  0  0  0  0  0
    2.5321   -5.1346    0.0000 C   0  0  1  0  0  0  0  0  0  0  0  0
    3.2573   -3.0004    0.0000 C   0  0  0  0  0  0  0  0  0  0  0  0
    3.9329   -4.2561    0.0000 C   0  0  0  0  0  0  0  0  0  0  0  0
    4.6871   -0.5097    0.0000 C   0  0  2  0  0  0  0  0  0  0  0  0
    3.2656   -5.5407    0.0000 C   0  0  1  0  0  0  0  0  0  0  0  0
    3.9329   -5.1346    0.0000 C   0  0  0  0  0  0  0  0  0  0  0  0
    1.7612   -5.4164    0.0000 O   0  0  0  0  0  0  0  0  0  0  0  0
    1.7612   -4.0654    0.0000 C   0  0  0  0  0  0  0  0  0  0  0  0
    4.6871    0.3439    0.0000 O   0  0  0  0  0  0  0  0  0  0  0  0
    3.9329   -2.6026    0.0000 O   0  0  0  0  0  0  0  0  0  0  0  0
    4.6871   -1.3634    0.0000 C   0  0  0  0  0  0  0  0  0  0  0  0
    3.9660   -0.0788    0.0000 O   0  0  0  0  0  0  0  0  0  0  0  0
    5.3999    0.7087    0.0000 C   0  0  1  0  0  0  0  0  0  0  0  0
    3.9329   -1.7612    0.0000 C   0  0  2  0  0  0  0  0  0  0  0  0
    1.1231   -0.0249    0.0000 C   0  0  0  0  0  0  0  0  0  0  0  0
    3.2904   -6.3696    0.0000 O   0  0  0  0  0  0  0  0  0  0  0  0
    4.0199   -6.7633    0.0000 C   0  0  0  0  0  0  0  0  0  0  0  0
    1.8400   -0.4517    0.0000 C   0  0  0  0  0  0  0  0  0  0  0  0
    1.2723   -4.6871    0.0000 C   0  0  0  0  0  0  0  0  0  0  0  0
    0.3812   -0.4517    0.0000 C   0  0  2  0  0  0  0  0  0  0  0  0
    4.0406   -7.5963    0.0000 C   0  0  0  0  0  0  0  0  0  0  0  0
    1.7612   -3.2034    0.0000 C   0  0  0  0  0  0  0  0  0  0  0  0
    4.7368   -8.0729    0.0000 C   0  0  0  0  0  0  0  0  0  0  0  0
    2.5321   -2.5777    0.0000 O   0  0  0  0  0  0  0  0  0  0  0  0
    1.2060   -2.7891    0.0000 C   0  0  0  0  0  0  0  0  0  0  0  0
    3.2656   -1.3510    0.0000 C   0  0  0  0  0  0  0  0  0  0  0  0
    3.2656   -0.4766    0.0000 C   0  0  1  0  0  0  0  0  0  0  0  0
    6.0588    0.2818    0.0000 C   0  0  2  0  0  0  0  0  0  0  0  0
    1.2060   -1.8939    0.0000 C   0  0  0  0  0  0  0  0  0  0  0  0
    2.5238   -3.3899    0.0000 O   0  0  0  0  0  0  0  0  0  0  0  0
    5.3418   -0.8703    0.0000 C   0  0  0  0  0  0  0  0  0  0  0  0
    0.3812   -1.3634    0.0000 C   0  0  2  0  0  0  0  0  0  0  0  0
    4.7202   -6.3240    0.0000 O   0  0  0  0  0  0  0  0  0  0  0  0
    6.0713   -0.4849    0.0000 C   0  0  0  0  0  0  0  0  0  0  0  0
    2.5528   -0.0249    0.0000 C   0  0  0  0  0  0  0  0  0  0  0  0
    4.6746   -8.7525    0.0000 C   0  0  0  0  0  0  0  0  0  0  0  0
    5.0807    1.4670    0.0000 C   0  0  2  0  0  0  0  0  0  0  0  0
    4.5503  -10.1201    0.0000 C   0  0  0  0  0  0  0  0  0  0  0  0
   -0.3066   -0.0249    0.0000 O   0  0  0  0  0  0  0  0  0  0  0  0
    4.4881  -10.8039    0.0000 Cl  0  0  0  0  0  0  0  0  0  0  0  0
    4.6373   -5.5615    0.0000 C   0  0  0  0  0  0  0  0  0  0  0  0
    5.2383   -9.1462    0.0000 C   0  0  0  0  0  0  0  0  0  0  0  0
    4.0530   -9.0385    0.0000 C   0  0  0  0  0  0  0  0  0  0  0  0
    3.9908   -9.7222    0.0000 C   0  0  0  0  0  0  0  0  0  0  0  0
    5.1802   -9.8259    0.0000 C   0  0  0  0  0  0  0  0  0  0  0  0
    1.1107    0.8910    0.0000 C   0  0  0  0  0  0  0  0  0  0  0  0
    6.7799    0.6672    0.0000 C   0  0  0  0  0  0  0  0  0  0  0  0
   -0.3066   -1.7612    0.0000 C   0  0  0  0  0  0  0  0  0  0  0  0
    4.2768    1.5955    0.0000 C   0  0  0  0  0  0  0  0  0  0  0  0
    5.6692    2.1508    0.0000 C   0  0  0  0  0  0  0  0  0  0  0  0
    4.1193    2.4243    0.0000 C   0  0  0  0  0  0  0  0  0  0  0  0
    3.9660   -3.4272    0.0000 H   0  0  0  0  0  0  0  0  0  0  0  0
    4.6000   -2.2296    0.0000 H   0  0  0  0  0  0  0  0  0  0  0  0
    3.2822    0.5429    0.0000 H   0  0  0  0  0  0  0  0  0  0  0  0
    6.0132    1.2557    0.0000 H   0  0  0  0  0  0  0  0  0  0  0  0
    2.5238   -6.0546    0.0000 H   0  0  0  0  0  0  0  0  0  0  0  0
  2  1  1  0  0  0  0
  3  2  1  0  0  0  0
  4  1  1  0  0  0  0
  5  1  1  0  0  0  0
  6 13  1  0  0  0  0
  7  8  1  0  0  0  0
  8  5  2  0  0  0  0
  9  3  1  0  0  0  0
 10  2  1  0  0  0  0
 11  6  1  0  0  0  0
 12  4  1  0  0  0  0
 13 16  1  0  0  0  0
 14 29  1  0  0  0  0
 15 11  1  0  0  0  0
 16 12  1  0  0  0  0
 17 20  2  0  0  0  0
  7 18  1  1  0  0  0
 19 18  1  0  0  0  0
 20 37  1  0  0  0  0
 21 10  1  0  0  0  0
 22 34  1  0  0  0  0
 23 19  1  0  0  0  0
 24 10  2  0  0  0  0
 25 23  2  0  0  0  0
 26  4  2  0  0  0  0
 27 24  1  0  0  0  0
 28 16  1  0  0  0  0
 29 28  1  0  0  0  0
 30 36  1  0  0  0  0
 31 27  2  0  0  0  0
  2 32  1  6  0  0  0
  6 33  1  1  0  0  0
 34 31  1  0  0  0  0
 35 19  2  0  0  0  0
 36 33  1  0  0  0  0
 37 29  1  0  0  0  0
 38 25  1  0  0  0  0
 39 15  1  0  0  0  0
 40 47  1  0  0  0  0
 22 41  1  6  0  0  0
 42 40  1  0  0  0  0
 43  8  1  0  0  0  0
 44 38  1  0  0  0  0
 45 38  2  0  0  0  0
 46 45  1  0  0  0  0
 47 44  2  0  0  0  0
 48 17  1  0  0  0  0
 30 49  1  1  0  0  0
 34 50  1  6  0  0  0
 51 39  1  0  0  0  0
 39 52  1  6  0  0  0
 53 51  1  0  0  0  0
  1 54  1  1  0  0  0
 16 55  1  6  0  0  0
 29 56  1  6  0  0  0
 15 57  1  1  0  0  0
  3 58  1  6  0  0  0
  7  3  1  0  0  0  0
 21  9  1  0  0  0  0
 14  6  1  0  0  0  0
 17 22  1  0  0  0  0
 30 15  1  0  0  0  0
 40 46  2  0  0  0  0
M  END
>  <IDNUMBER>
F3409-1003

>  <Chemical_Name>
(1'R,2R,4'S,5S,6R,8'R,10'E,12'S,13'S,14'E,16'E,20'R,21'R,24'S)-6-[(2S)-butan-2-yl]-12',24'-dihydroxy-5,11',13',22'-tetramethyl-2'-oxo-3',7',19'-trioxaspiro[oxane-2,6'-tetracyclo[15.6.1.1?,?.0??,??]pentacosane]-10',14',16',22'-tetraen-21'-yl (2E)-3-(4-chlorophenyl)prop-2-enoate

>  <PriceCoeff>
7.00

>  <MW>
751.35

>  <Description>
solid

>  <FSP3>
0.58

>  <clogP>
8.25

>  <TPSA>
120.75

>  <Acceptor>
9

>  <Donor>
2

>  <RotBonds>
6

>  <HAC>
53

$$$$
F3409-1004
  Mrv2219 10102508112D          

 59 64  0  0  0  0            999 V2000
    3.3337   -5.7638    0.0000 C   0  0  2  0  0  0  0  0  0  0  0  0
    2.6034   -6.2177    0.0000 C   0  0  1  0  0  0  0  0  0  0  0  0
    2.6034   -7.0429    0.0000 C   0  0  1  0  0  0  0  0  0  0  0  0
    3.3254   -4.9181    0.0000 C   0  0  0  0  0  0  0  0  0  0  0  0
    3.9980   -6.1682    0.0000 C   0  0  0  0  0  0  0  0  0  0  0  0
    4.7488   -2.4383    0.0000 C   0  0  2  0  0  0  0  0  0  0  0  0
    3.3337   -7.4471    0.0000 C   0  0  1  0  0  0  0  0  0  0  0  0
    3.9980   -7.0429    0.0000 C   0  0  0  0  0  0  0  0  0  0  0  0
    1.8361   -7.3234    0.0000 O   0  0  0  0  0  0  0  0  0  0  0  0
    1.8361   -5.9784    0.0000 C   0  0  0  0  0  0  0  0  0  0  0  0
    4.7488   -1.5885    0.0000 O   0  0  0  0  0  0  0  0  0  0  0  0
    3.9980   -4.5220    0.0000 O   0  0  0  0  0  0  0  0  0  0  0  0
    4.7488   -3.2883    0.0000 C   0  0  0  0  0  0  0  0  0  0  0  0
    4.0309   -2.0094    0.0000 O   0  0  0  0  0  0  0  0  0  0  0  0
    5.4586   -1.2254    0.0000 C   0  0  1  0  0  0  0  0  0  0  0  0
    3.9980   -3.6844    0.0000 C   0  0  2  0  0  0  0  0  0  0  0  0
    1.2048   -1.9557    0.0000 C   0  0  0  0  0  0  0  0  0  0  0  0
    4.7984   -9.9682    0.0000 C   0  0  0  0  0  0  0  0  0  0  0  0
    3.3585   -8.2724    0.0000 O   0  0  0  0  0  0  0  0  0  0  0  0
    4.7365  -10.6447    0.0000 C   0  0  0  0  0  0  0  0  0  0  0  0
    4.0846   -8.6644    0.0000 C   0  0  0  0  0  0  0  0  0  0  0  0
    1.9144   -2.3807    0.0000 C   0  0  0  0  0  0  0  0  0  0  0  0
    4.1052   -9.4936    0.0000 C   0  0  0  0  0  0  0  0  0  0  0  0
    1.3491   -6.5973    0.0000 C   0  0  0  0  0  0  0  0  0  0  0  0
    0.4622   -2.3807    0.0000 C   0  0  2  0  0  0  0  0  0  0  0  0
    1.8361   -5.1202    0.0000 C   0  0  0  0  0  0  0  0  0  0  0  0
    2.6034   -4.4972    0.0000 O   0  0  0  0  0  0  0  0  0  0  0  0
    1.2831   -4.7077    0.0000 C   0  0  0  0  0  0  0  0  0  0  0  0
    3.3337   -3.2759    0.0000 C   0  0  0  0  0  0  0  0  0  0  0  0
    3.3337   -2.4055    0.0000 C   0  0  1  0  0  0  0  0  0  0  0  0
    4.1135  -10.9294    0.0000 C   0  0  0  0  0  0  0  0  0  0  0  0
    5.2977  -11.0367    0.0000 C   0  0  0  0  0  0  0  0  0  0  0  0
    6.1145   -1.6504    0.0000 C   0  0  2  0  0  0  0  0  0  0  0  0
    1.2831   -3.8165    0.0000 C   0  0  0  0  0  0  0  0  0  0  0  0
    2.5951   -5.3059    0.0000 O   0  0  0  0  0  0  0  0  0  0  0  0
    5.4008   -2.7973    0.0000 C   0  0  0  0  0  0  0  0  0  0  0  0
    0.4622   -3.2883    0.0000 C   0  0  2  0  0  0  0  0  0  0  0  0
    4.7819   -8.2270    0.0000 O   0  0  0  0  0  0  0  0  0  0  0  0
    4.0557  -11.6102    0.0000 C   0  0  0  0  0  0  0  0  0  0  0  0
    6.1311   -2.4136    0.0000 C   0  0  0  0  0  0  0  0  0  0  0  0
    2.6282   -1.9557    0.0000 C   0  0  0  0  0  0  0  0  0  0  0  0
    5.1409   -0.4704    0.0000 C   0  0  2  0  0  0  0  0  0  0  0  0
    5.2399  -11.7134    0.0000 C   0  0  0  0  0  0  0  0  0  0  0  0
    3.5606  -10.5333    0.0000 F   0  0  0  0  0  0  0  0  0  0  0  0
   -0.2228   -1.9557    0.0000 O   0  0  0  0  0  0  0  0  0  0  0  0
    4.6127  -12.0064    0.0000 C   0  0  0  0  0  0  0  0  0  0  0  0
    5.8051  -12.1094    0.0000 F   0  0  0  0  0  0  0  0  0  0  0  0
    4.6953   -7.4678    0.0000 C   0  0  0  0  0  0  0  0  0  0  0  0
    1.1882   -1.0438    0.0000 C   0  0  0  0  0  0  0  0  0  0  0  0
    6.8325   -1.2667    0.0000 C   0  0  0  0  0  0  0  0  0  0  0  0
   -0.2228   -3.6844    0.0000 C   0  0  0  0  0  0  0  0  0  0  0  0
    4.3404   -0.3424    0.0000 C   0  0  0  0  0  0  0  0  0  0  0  0
    5.7266    0.2104    0.0000 C   0  0  0  0  0  0  0  0  0  0  0  0
    4.1836    0.4828    0.0000 C   0  0  0  0  0  0  0  0  0  0  0  0
    4.6622   -4.1506    0.0000 H   0  0  0  0  0  0  0  0  0  0  0  0
    3.3502   -1.3904    0.0000 H   0  0  0  0  0  0  0  0  0  0  0  0
    6.0692   -0.6808    0.0000 H   0  0  0  0  0  0  0  0  0  0  0  0
    2.5951   -7.9588    0.0000 H   0  0  0  0  0  0  0  0  0  0  0  0
    4.0309   -5.3430    0.0000 H   0  0  0  0  0  0  0  0  0  0  0  0
  2  1  1  0  0  0  0
  3  2  1  0  0  0  0
  4  1  1  0  0  0  0
  5  1  1  0  0  0  0
  6 13  1  0  0  0  0
  7  8  1  0  0  0  0
  8  5  2  0  0  0  0
  9  3  1  0  0  0  0
 10  2  1  0  0  0  0
 11  6  1  0  0  0  0
 12  4  1  0  0  0  0
 13 16  1  0  0  0  0
 14 30  1  0  0  0  0
 15 11  1  0  0  0  0
 16 12  1  0  0  0  0
 17 22  2  0  0  0  0
 18 23  2  0  0  0  0
  7 19  1  1  0  0  0
 20 18  1  0  0  0  0
 21 19  1  0  0  0  0
 22 41  1  0  0  0  0
 23 21  1  0  0  0  0
 24 10  1  0  0  0  0
 25 37  1  0  0  0  0
 26 10  2  0  0  0  0
 27  4  2  0  0  0  0
 28 26  1  0  0  0  0
 29 16  1  0  0  0  0
 30 29  1  0  0  0  0
 31 20  2  0  0  0  0
 32 20  1  0  0  0  0
 33 40  1  0  0  0  0
 34 28  2  0  0  0  0
  2 35  1  6  0  0  0
  6 36  1  1  0  0  0
 37 34  1  0  0  0  0
 38 21  2  0  0  0  0
 39 31  1  0  0  0  0
 40 36  1  0  0  0  0
 41 30  1  0  0  0  0
 42 15  1  0  0  0  0
 43 32  2  0  0  0  0
 44 31  1  0  0  0  0
 25 45  1  6  0  0  0
 46 43  1  0  0  0  0
 47 43  1  0  0  0  0
 48  8  1  0  0  0  0
 49 17  1  0  0  0  0
 33 50  1  1  0  0  0
 37 51  1  6  0  0  0
 52 42  1  0  0  0  0
 42 53  1  6  0  0  0
 54 52  1  0  0  0  0
 16 55  1  6  0  0  0
 30 56  1  6  0  0  0
 15 57  1  1  0  0  0
  3 58  1  6  0  0  0
  1 59  1  1  0  0  0
  7  3  1  0  0  0  0
 24  9  1  0  0  0  0
 14  6  1  0  0  0  0
 17 25  1  0  0  0  0
 33 15  1  0  0  0  0
 46 39  2  0  0  0  0
M  END
>  <IDNUMBER>
F3409-1004

>  <Chemical_Name>
(1'R,2R,4'S,5S,6R,8'R,10'E,12'S,13'S,14'E,16'E,20'R,21'R,24'S)-6-[(2S)-butan-2-yl]-12',24'-dihydroxy-5,11',13',22'-tetramethyl-2'-oxo-3',7',19'-trioxaspiro[oxane-2,6'-tetracyclo[15.6.1.1?,?.0??,??]pentacosane]-10',14',16',22'-tetraen-21'-yl (2E)-3-(2,5-difluorophenyl)prop-2-enoate

>  <PriceCoeff>
7.00

>  <MW>
752.89

>  <Description>
solid

>  <FSP3>
0.58

>  <clogP>
7.82

>  <TPSA>
120.75

>  <Acceptor>
9

>  <Donor>
2

>  <RotBonds>
6

>  <HAC>
54

$$$$
F3409-1005
  Mrv2219 10102508112D          

 58 63  0  0  0  0            999 V2000
    5.9883   -7.7994    0.0000 C   0  0  2  0  0  0  0  0  0  0  0  0
    5.2548   -8.2552    0.0000 C   0  0  1  0  0  0  0  0  0  0  0  0
    5.2548   -9.0840    0.0000 C   0  0  1  0  0  0  0  0  0  0  0  0
    5.9800   -6.9498    0.0000 C   0  0  0  0  0  0  0  0  0  0  0  0
    6.6556   -8.2055    0.0000 C   0  0  0  0  0  0  0  0  0  0  0  0
    7.4098   -4.4591    0.0000 C   0  0  2  0  0  0  0  0  0  0  0  0
    5.9883   -9.4902    0.0000 C   0  0  1  0  0  0  0  0  0  0  0  0
    6.6556   -9.0840    0.0000 C   0  0  0  0  0  0  0  0  0  0  0  0
    4.4840   -9.3659    0.0000 O   0  0  0  0  0  0  0  0  0  0  0  0
    4.4840   -8.0148    0.0000 C   0  0  0  0  0  0  0  0  0  0  0  0
    7.4098   -3.6054    0.0000 O   0  0  0  0  0  0  0  0  0  0  0  0
    6.6556   -6.5519    0.0000 O   0  0  0  0  0  0  0  0  0  0  0  0
    7.4098   -5.3129    0.0000 C   0  0  0  0  0  0  0  0  0  0  0  0
    6.6887   -4.0281    0.0000 O   0  0  0  0  0  0  0  0  0  0  0  0
    8.1226   -3.2407    0.0000 C   0  0  1  0  0  0  0  0  0  0  0  0
    6.6556   -5.7107    0.0000 C   0  0  2  0  0  0  0  0  0  0  0  0
    3.8458   -3.9742    0.0000 C   0  0  0  0  0  0  0  0  0  0  0  0
    6.0132  -10.3190    0.0000 O   0  0  0  0  0  0  0  0  0  0  0  0
    7.4595  -12.0223    0.0000 C   0  0  0  0  0  0  0  0  0  0  0  0
    6.7426  -10.7127    0.0000 C   0  0  0  0  0  0  0  0  0  0  0  0
    4.5627   -4.4011    0.0000 C   0  0  0  0  0  0  0  0  0  0  0  0
    6.7633  -11.5456    0.0000 C   0  0  0  0  0  0  0  0  0  0  0  0
    3.9950   -8.6364    0.0000 C   0  0  0  0  0  0  0  0  0  0  0  0
    3.1040   -4.4011    0.0000 C   0  0  2  0  0  0  0  0  0  0  0  0
    4.4840   -7.1529    0.0000 C   0  0  0  0  0  0  0  0  0  0  0  0
    5.2548   -6.5271    0.0000 O   0  0  0  0  0  0  0  0  0  0  0  0
    3.9287   -6.7384    0.0000 C   0  0  0  0  0  0  0  0  0  0  0  0
    5.9883   -5.3004    0.0000 C   0  0  0  0  0  0  0  0  0  0  0  0
    5.9883   -4.4260    0.0000 C   0  0  1  0  0  0  0  0  0  0  0  0
    7.3974  -12.7019    0.0000 C   0  0  0  0  0  0  0  0  0  0  0  0
    8.7815   -3.6676    0.0000 C   0  0  2  0  0  0  0  0  0  0  0  0
    3.9287   -5.8433    0.0000 C   0  0  0  0  0  0  0  0  0  0  0  0
    5.2465   -7.3394    0.0000 O   0  0  0  0  0  0  0  0  0  0  0  0
    8.0645   -4.8196    0.0000 C   0  0  0  0  0  0  0  0  0  0  0  0
    3.1040   -5.3129    0.0000 C   0  0  2  0  0  0  0  0  0  0  0  0
    7.4429  -10.2735    0.0000 O   0  0  0  0  0  0  0  0  0  0  0  0
    6.7757  -12.9878    0.0000 C   0  0  0  0  0  0  0  0  0  0  0  0
    8.7940   -4.4342    0.0000 C   0  0  0  0  0  0  0  0  0  0  0  0
    5.2756   -3.9742    0.0000 C   0  0  0  0  0  0  0  0  0  0  0  0
    7.8035   -2.4823    0.0000 C   0  0  2  0  0  0  0  0  0  0  0  0
    2.4161   -3.9742    0.0000 O   0  0  0  0  0  0  0  0  0  0  0  0
    7.3601   -9.5109    0.0000 C   0  0  0  0  0  0  0  0  0  0  0  0
    3.8334   -3.0584    0.0000 C   0  0  0  0  0  0  0  0  0  0  0  0
    7.9610  -13.0956    0.0000 C   0  0  0  0  0  0  0  0  0  0  0  0
    6.2163  -12.5900    0.0000 C   0  0  0  0  0  0  0  0  0  0  0  0
    6.7136  -13.6716    0.0000 C   0  0  0  0  0  0  0  0  0  0  0  0
    9.5026   -3.2822    0.0000 C   0  0  0  0  0  0  0  0  0  0  0  0
    2.4161   -5.7107    0.0000 C   0  0  0  0  0  0  0  0  0  0  0  0
    6.9995   -2.3539    0.0000 C   0  0  0  0  0  0  0  0  0  0  0  0
    8.3920   -1.7985    0.0000 C   0  0  0  0  0  0  0  0  0  0  0  0
    6.8421   -1.5250    0.0000 C   0  0  0  0  0  0  0  0  0  0  0  0
    7.2730  -14.0695    0.0000 C   0  0  0  0  0  0  0  0  0  0  0  0
    7.9029  -13.7752    0.0000 C   0  0  0  0  0  0  0  0  0  0  0  0
    6.6887   -7.3767    0.0000 H   0  0  0  0  0  0  0  0  0  0  0  0
    7.3228   -6.1790    0.0000 H   0  0  0  0  0  0  0  0  0  0  0  0
    6.0049   -3.4065    0.0000 H   0  0  0  0  0  0  0  0  0  0  0  0
    8.7359   -2.6937    0.0000 H   0  0  0  0  0  0  0  0  0  0  0  0
    5.2465  -10.0040    0.0000 H   0  0  0  0  0  0  0  0  0  0  0  0
  2  1  1  0  0  0  0
  3  2  1  0  0  0  0
  4  1  1  0  0  0  0
  5  1  1  0  0  0  0
  6 13  1  0  0  0  0
  7  8  1  0  0  0  0
  8  5  2  0  0  0  0
  9  3  1  0  0  0  0
 10  2  1  0  0  0  0
 11  6  1  0  0  0  0
 12  4  1  0  0  0  0
 13 16  1  0  0  0  0
 14 29  1  0  0  0  0
 15 11  1  0  0  0  0
 16 12  1  0  0  0  0
 17 21  2  0  0  0  0
  7 18  1  1  0  0  0
 19 22  2  0  0  0  0
 20 18  1  0  0  0  0
 21 39  1  0  0  0  0
 22 20  1  0  0  0  0
 23 10  1  0  0  0  0
 24 35  1  0  0  0  0
 25 10  2  0  0  0  0
 26  4  2  0  0  0  0
 27 25  1  0  0  0  0
 28 16  1  0  0  0  0
 29 28  1  0  0  0  0
 30 19  1  0  0  0  0
 31 38  1  0  0  0  0
 32 27  2  0  0  0  0
  2 33  1  6  0  0  0
  6 34  1  1  0  0  0
 35 32  1  0  0  0  0
 36 20  2  0  0  0  0
 37 30  2  0  0  0  0
 38 34  1  0  0  0  0
 39 29  1  0  0  0  0
 40 15  1  0  0  0  0
 24 41  1  6  0  0  0
 42  8  1  0  0  0  0
 43 17  1  0  0  0  0
 44 30  1  0  0  0  0
 45 37  1  0  0  0  0
 46 37  1  0  0  0  0
 31 47  1  1  0  0  0
 35 48  1  6  0  0  0
 49 40  1  0  0  0  0
 40 50  1  6  0  0  0
 51 49  1  0  0  0  0
 52 53  1  0  0  0  0
 53 44  2  0  0  0  0
  1 54  1  1  0  0  0
 16 55  1  6  0  0  0
 29 56  1  6  0  0  0
 15 57  1  1  0  0  0
  3 58  1  6  0  0  0
  7  3  1  0  0  0  0
 23  9  1  0  0  0  0
 14  6  1  0  0  0  0
 17 24  1  0  0  0  0
 31 15  1  0  0  0  0
 52 46  2  0  0  0  0
M  END
>  <IDNUMBER>
F3409-1005

>  <Chemical_Name>
(1'R,2R,4'S,5S,6R,8'R,10'E,12'S,13'S,14'E,16'E,20'R,21'R,24'S)-6-[(2S)-butan-2-yl]-12',24'-dihydroxy-5,11',13',22'-tetramethyl-2'-oxo-3',7',19'-trioxaspiro[oxane-2,6'-tetracyclo[15.6.1.1?,?.0??,??]pentacosane]-10',14',16',22'-tetraen-21'-yl (2E)-3-(2-methylphenyl)prop-2-enoate

>  <PriceCoeff>
7.00

>  <MW>
730.94

>  <Description>
solid

>  <FSP3>
0.59

>  <clogP>
8.03

>  <TPSA>
120.75

>  <Acceptor>
9

>  <Donor>
2

>  <RotBonds>
6

>  <HAC>
53

$$$$
F3409-1008
  Mrv2219 10102508112D          

 56 61  0  0  0  0            999 V2000
    5.9608   -7.7636    0.0000 C   0  0  2  0  0  0  0  0  0  0  0  0
    5.2307   -8.2173    0.0000 C   0  0  1  0  0  0  0  0  0  0  0  0
    5.2307   -9.0423    0.0000 C   0  0  1  0  0  0  0  0  0  0  0  0
    5.9526   -6.9179    0.0000 C   0  0  0  0  0  0  0  0  0  0  0  0
    6.6250   -8.1678    0.0000 C   0  0  0  0  0  0  0  0  0  0  0  0
    7.3758   -4.4386    0.0000 C   0  0  2  0  0  0  0  0  0  0  0  0
    5.9608   -9.4467    0.0000 C   0  0  1  0  0  0  0  0  0  0  0  0
    6.6250   -9.0423    0.0000 C   0  0  0  0  0  0  0  0  0  0  0  0
    4.4634   -9.3229    0.0000 O   0  0  0  0  0  0  0  0  0  0  0  0
    4.4634   -7.9780    0.0000 C   0  0  0  0  0  0  0  0  0  0  0  0
    7.3758   -3.5889    0.0000 O   0  0  0  0  0  0  0  0  0  0  0  0
    6.6250   -6.5219    0.0000 O   0  0  0  0  0  0  0  0  0  0  0  0
    7.3758   -5.2885    0.0000 C   0  0  0  0  0  0  0  0  0  0  0  0
    6.6580   -4.0097    0.0000 O   0  0  0  0  0  0  0  0  0  0  0  0
    8.0854   -3.2258    0.0000 C   0  0  1  0  0  0  0  0  0  0  0  0
    6.6250   -5.6845    0.0000 C   0  0  2  0  0  0  0  0  0  0  0  0
    3.8282   -3.9560    0.0000 C   0  0  0  0  0  0  0  0  0  0  0  0
    5.9856  -10.2717    0.0000 O   0  0  0  0  0  0  0  0  0  0  0  0
    6.7117  -10.6635    0.0000 C   0  0  0  0  0  0  0  0  0  0  0  0
    4.5418   -4.3809    0.0000 C   0  0  0  0  0  0  0  0  0  0  0  0
    7.3634  -12.6436    0.0000 C   0  0  0  0  0  0  0  0  0  0  0  0
    3.9767   -8.5968    0.0000 C   0  0  0  0  0  0  0  0  0  0  0  0
    3.0897   -4.3809    0.0000 C   0  0  2  0  0  0  0  0  0  0  0  0
    6.7323  -11.4927    0.0000 C   0  0  0  0  0  0  0  0  0  0  0  0
    7.4253  -11.9671    0.0000 C   0  0  0  0  0  0  0  0  0  0  0  0
    4.4634   -7.1201    0.0000 C   0  0  0  0  0  0  0  0  0  0  0  0
    6.7818  -12.9984    0.0000 O   0  0  0  0  0  0  0  0  0  0  0  0
    5.2307   -6.4971    0.0000 O   0  0  0  0  0  0  0  0  0  0  0  0
    3.9107   -6.7075    0.0000 C   0  0  0  0  0  0  0  0  0  0  0  0
    5.9608   -5.2761    0.0000 C   0  0  0  0  0  0  0  0  0  0  0  0
    5.9608   -4.4057    0.0000 C   0  0  1  0  0  0  0  0  0  0  0  0
    7.8832  -13.0974    0.0000 C   0  0  0  0  0  0  0  0  0  0  0  0
    8.7413   -3.6508    0.0000 C   0  0  2  0  0  0  0  0  0  0  0  0
    6.9344  -13.6625    0.0000 C   0  0  0  0  0  0  0  0  0  0  0  0
    3.9107   -5.8165    0.0000 C   0  0  0  0  0  0  0  0  0  0  0  0
    5.2225   -7.3057    0.0000 O   0  0  0  0  0  0  0  0  0  0  0  0
    8.0275   -4.7975    0.0000 C   0  0  0  0  0  0  0  0  0  0  0  0
    3.0897   -5.2885    0.0000 C   0  0  2  0  0  0  0  0  0  0  0  0
    7.6151  -13.7244    0.0000 C   0  0  0  0  0  0  0  0  0  0  0  0
    7.4088  -10.2263    0.0000 O   0  0  0  0  0  0  0  0  0  0  0  0
    8.7536   -4.4139    0.0000 C   0  0  0  0  0  0  0  0  0  0  0  0
    5.2514   -3.9560    0.0000 C   0  0  0  0  0  0  0  0  0  0  0  0
    7.7677   -2.4709    0.0000 C   0  0  2  0  0  0  0  0  0  0  0  0
    2.4050   -3.9560    0.0000 O   0  0  0  0  0  0  0  0  0  0  0  0
    7.3263   -9.4673    0.0000 C   0  0  0  0  0  0  0  0  0  0  0  0
    3.8158   -3.0444    0.0000 C   0  0  0  0  0  0  0  0  0  0  0  0
    9.4590   -3.2671    0.0000 C   0  0  0  0  0  0  0  0  0  0  0  0
    2.4050   -5.6845    0.0000 C   0  0  0  0  0  0  0  0  0  0  0  0
    6.9674   -2.3431    0.0000 C   0  0  0  0  0  0  0  0  0  0  0  0
    8.3535   -1.7903    0.0000 C   0  0  0  0  0  0  0  0  0  0  0  0
    6.8107   -1.5180    0.0000 C   0  0  0  0  0  0  0  0  0  0  0  0
    8.6958   -2.6813    0.0000 H   0  0  0  0  0  0  0  0  0  0  0  0
    5.2225   -9.9581    0.0000 H   0  0  0  0  0  0  0  0  0  0  0  0
    6.6580   -7.3428    0.0000 H   0  0  0  0  0  0  0  0  0  0  0  0
    7.2892   -6.1506    0.0000 H   0  0  0  0  0  0  0  0  0  0  0  0
    5.9774   -3.3909    0.0000 H   0  0  0  0  0  0  0  0  0  0  0  0
  2  1  1  0  0  0  0
  3  2  1  0  0  0  0
  4  1  1  0  0  0  0
  5  1  1  0  0  0  0
  6 13  1  0  0  0  0
  7  8  1  0  0  0  0
  8  5  2  0  0  0  0
  9  3  1  0  0  0  0
 10  2  1  0  0  0  0
 11  6  1  0  0  0  0
 12  4  1  0  0  0  0
 13 16  1  0  0  0  0
 14 31  1  0  0  0  0
 15 11  1  0  0  0  0
 16 12  1  0  0  0  0
 17 20  2  0  0  0  0
  7 18  1  1  0  0  0
 19 18  1  0  0  0  0
 20 42  1  0  0  0  0
 21 25  1  0  0  0  0
 22 10  1  0  0  0  0
 23 38  1  0  0  0  0
 24 19  1  0  0  0  0
 25 24  2  0  0  0  0
 26 10  2  0  0  0  0
 27 21  1  0  0  0  0
 28  4  2  0  0  0  0
 29 26  1  0  0  0  0
 30 16  1  0  0  0  0
 31 30  1  0  0  0  0
 32 21  2  0  0  0  0
 33 41  1  0  0  0  0
 34 27  1  0  0  0  0
 35 29  2  0  0  0  0
  2 36  1  6  0  0  0
  6 37  1  1  0  0  0
 38 35  1  0  0  0  0
 39 32  1  0  0  0  0
 40 19  2  0  0  0  0
 41 37  1  0  0  0  0
 42 31  1  0  0  0  0
 43 15  1  0  0  0  0
 23 44  1  6  0  0  0
 45  8  1  0  0  0  0
 46 17  1  0  0  0  0
 33 47  1  1  0  0  0
 38 48  1  6  0  0  0
 49 43  1  0  0  0  0
 43 50  1  6  0  0  0
 51 49  1  0  0  0  0
 15 52  1  1  0  0  0
  3 53  1  6  0  0  0
  1 54  1  1  0  0  0
 16 55  1  6  0  0  0
 31 56  1  6  0  0  0
  7  3  1  0  0  0  0
 22  9  1  0  0  0  0
 14  6  1  0  0  0  0
 17 23  1  0  0  0  0
 33 15  1  0  0  0  0
 39 34  2  0  0  0  0
M  END
>  <IDNUMBER>
F3409-1008

>  <Chemical_Name>
(1'R,2R,4'S,5S,6R,8'R,10'E,12'S,13'S,14'E,16'E,20'R,21'R,24'S)-6-[(2S)-butan-2-yl]-12',24'-dihydroxy-5,11',13',22'-tetramethyl-2'-oxo-3',7',19'-trioxaspiro[oxane-2,6'-tetracyclo[15.6.1.1?,?.0??,??]pentacosane]-10',14',16',22'-tetraen-21'-yl (2E)-3-(furan-2-yl)prop-2-enoate

>  <PriceCoeff>
7.00

>  <MW>
706.87

>  <Description>
solid

>  <FSP3>
0.61

>  <clogP>
6.71

>  <TPSA>
133.89

>  <Acceptor>
10

>  <Donor>
2

>  <RotBonds>
6

>  <HAC>
51

$$$$
F3409-1010
  Mrv2219 10102508112D          

 67 73  0  0  0  0            999 V2000
    1.5630   -9.1945    0.0000 C   0  0  2  0  0  0  0  0  0  0  0  0
    0.8233   -9.6541    0.0000 C   0  0  1  0  0  0  0  0  0  0  0  0
    0.8233  -10.4900    0.0000 C   0  0  1  0  0  0  0  0  0  0  0  0
    1.5547   -8.3377    0.0000 C   0  0  0  0  0  0  0  0  0  0  0  0
    2.2359   -9.6040    0.0000 C   0  0  0  0  0  0  0  0  0  0  0  0
    2.9965   -5.8259    0.0000 C   0  0  2  0  0  0  0  0  0  0  0  0
    1.5630  -10.8996    0.0000 C   0  0  1  0  0  0  0  0  0  0  0  0
    2.2359  -10.4900    0.0000 C   0  0  0  0  0  0  0  0  0  0  0  0
    0.0459  -10.7742    0.0000 O   0  0  0  0  0  0  0  0  0  0  0  0
    0.0459   -9.4117    0.0000 C   0  0  0  0  0  0  0  0  0  0  0  0
    2.9965   -4.9650    0.0000 O   0  0  0  0  0  0  0  0  0  0  0  0
    2.2359   -7.9365    0.0000 O   0  0  0  0  0  0  0  0  0  0  0  0
   -1.3458   -5.7674    0.0000 C   0  0  1  0  0  0  0  0  0  0  0  0
    2.9965   -6.6869    0.0000 C   0  0  0  0  0  0  0  0  0  0  0  0
    2.2693   -5.3913    0.0000 O   0  0  0  0  0  0  0  0  0  0  0  0
    3.7154   -4.5972    0.0000 C   0  0  1  0  0  0  0  0  0  0  0  0
    2.2359   -7.0881    0.0000 C   0  0  2  0  0  0  0  0  0  0  0  0
   -0.5976   -5.3369    0.0000 C   0  0  0  0  0  0  0  0  0  0  0  0
    1.5881  -11.7354    0.0000 O   0  0  0  0  0  0  0  0  0  0  0  0
    2.3237  -12.1324    0.0000 C   0  0  0  0  0  0  0  0  0  0  0  0
   -1.9852   -4.4050    0.0000 C   0  0  0  0  0  0  0  0  0  0  0  0
    0.1254   -5.7674    0.0000 C   0  0  0  0  0  0  0  0  0  0  0  0
   -2.0395   -5.3369    0.0000 O   0  0  0  0  0  0  0  0  0  0  0  0
   -0.4471  -10.0386    0.0000 C   0  0  0  0  0  0  0  0  0  0  0  0
   -1.3081   -4.0580    0.0000 C   0  0  0  0  0  0  0  0  0  0  0  0
    2.3446  -12.9725    0.0000 C   0  0  0  0  0  0  0  0  0  0  0  0
    0.0459   -8.5425    0.0000 C   0  0  0  0  0  0  0  0  0  0  0  0
   -1.2621   -3.2139    0.0000 C   0  0  0  0  0  0  0  0  0  0  0  0
    3.0467  -13.4531    0.0000 C   0  0  0  0  0  0  0  0  0  0  0  0
    0.8233   -7.9114    0.0000 O   0  0  0  0  0  0  0  0  0  0  0  0
   -0.5141   -8.1245    0.0000 C   0  0  0  0  0  0  0  0  0  0  0  0
    1.5630   -6.6743    0.0000 C   0  0  0  0  0  0  0  0  0  0  0  0
    1.5630   -5.7925    0.0000 C   0  0  1  0  0  0  0  0  0  0  0  0
   -1.3458   -6.6869    0.0000 C   0  0  2  0  0  0  0  0  0  0  0  0
    4.3799   -5.0277    0.0000 C   0  0  2  0  0  0  0  0  0  0  0  0
   -0.5141   -7.2218    0.0000 C   0  0  0  0  0  0  0  0  0  0  0  0
    0.8150   -8.7306    0.0000 O   0  0  0  0  0  0  0  0  0  0  0  0
    3.6568   -6.1895    0.0000 C   0  0  0  0  0  0  0  0  0  0  0  0
   -2.7583   -4.1417    0.0000 O   0  0  0  0  0  0  0  0  0  0  0  0
    3.0299  -11.6895    0.0000 O   0  0  0  0  0  0  0  0  0  0  0  0
    4.3925   -5.8008    0.0000 C   0  0  0  0  0  0  0  0  0  0  0  0
    0.8442   -5.3369    0.0000 C   0  0  0  0  0  0  0  0  0  0  0  0
    3.3935   -3.8324    0.0000 C   0  0  2  0  0  0  0  0  0  0  0  0
   -0.6436   -2.9088    0.0000 C   0  0  0  0  0  0  0  0  0  0  0  0
    2.9840  -14.1385    0.0000 C   0  0  0  0  0  0  0  0  0  0  0  0
    2.9464  -10.9205    0.0000 C   0  0  0  0  0  0  0  0  0  0  0  0
   -0.6101   -4.4133    0.0000 C   0  0  0  0  0  0  0  0  0  0  0  0
   -2.0395   -7.0881    0.0000 C   0  0  0  0  0  0  0  0  0  0  0  0
    5.1071   -4.6390    0.0000 C   0  0  0  0  0  0  0  0  0  0  0  0
    2.5828   -3.7029    0.0000 C   0  0  0  0  0  0  0  0  0  0  0  0
    3.9870   -3.1428    0.0000 C   0  0  0  0  0  0  0  0  0  0  0  0
   -0.0710   -3.2975    0.0000 C   0  0  0  0  0  0  0  0  0  0  0  0
   -0.6018   -2.2192    0.0000 C   0  0  0  0  0  0  0  0  0  0  0  0
    2.3571  -14.4268    0.0000 C   0  0  0  0  0  0  0  0  0  0  0  0
    3.5524  -14.5356    0.0000 C   0  0  0  0  0  0  0  0  0  0  0  0
    2.4240   -2.8670    0.0000 C   0  0  0  0  0  0  0  0  0  0  0  0
    0.5517   -2.9882    0.0000 C   0  0  0  0  0  0  0  0  0  0  0  0
    2.2944  -15.1164    0.0000 C   0  0  0  0  0  0  0  0  0  0  0  0
    3.4938  -15.2209    0.0000 C   0  0  0  0  0  0  0  0  0  0  0  0
    0.0168   -1.9100    0.0000 C   0  0  0  0  0  0  0  0  0  0  0  0
    0.6018   -2.2986    0.0000 C   0  0  0  0  0  0  0  0  0  0  0  0
    2.8586  -15.5176    0.0000 C   0  0  0  0  0  0  0  0  0  0  0  0
    0.8150  -11.4178    0.0000 H   0  0  0  0  0  0  0  0  0  0  0  0
    2.2693   -8.7682    0.0000 H   0  0  0  0  0  0  0  0  0  0  0  0
    2.9088   -7.5603    0.0000 H   0  0  0  0  0  0  0  0  0  0  0  0
    1.5798   -4.7644    0.0000 H   0  0  0  0  0  0  0  0  0  0  0  0
    4.3339   -4.0455    0.0000 H   0  0  0  0  0  0  0  0  0  0  0  0
  2  1  1  0  0  0  0
  3  2  1  0  0  0  0
  4  1  1  0  0  0  0
  5  1  1  0  0  0  0
  6 14  1  0  0  0  0
  7  8  1  0  0  0  0
  8  5  2  0  0  0  0
  9  3  1  0  0  0  0
 10  2  1  0  0  0  0
 11  6  1  0  0  0  0
 12  4  1  0  0  0  0
 13 34  1  0  0  0  0
 14 17  1  0  0  0  0
 15 33  1  0  0  0  0
 16 11  1  0  0  0  0
 17 12  1  0  0  0  0
 18 22  2  0  0  0  0
  7 19  1  1  0  0  0
 20 19  1  0  0  0  0
 21 23  1  0  0  0  0
 22 42  1  0  0  0  0
 13 23  1  6  0  0  0
 24 10  1  0  0  0  0
 25 21  1  0  0  0  0
 26 20  1  0  0  0  0
 27 10  2  0  0  0  0
 28 25  2  0  0  0  0
 29 26  2  0  0  0  0
 30  4  2  0  0  0  0
 31 27  1  0  0  0  0
 32 17  1  0  0  0  0
 33 32  1  0  0  0  0
 34 36  1  0  0  0  0
 35 41  1  0  0  0  0
 36 31  2  0  0  0  0
  2 37  1  6  0  0  0
  6 38  1  1  0  0  0
 39 21  2  0  0  0  0
 40 20  2  0  0  0  0
 41 38  1  0  0  0  0
 42 33  1  0  0  0  0
 43 16  1  0  0  0  0
 44 28  1  0  0  0  0
 45 29  1  0  0  0  0
 46  8  1  0  0  0  0
 47 18  1  0  0  0  0
 34 48  1  6  0  0  0
 35 49  1  1  0  0  0
 50 43  1  0  0  0  0
 43 51  1  6  0  0  0
 52 44  2  0  0  0  0
 53 44  1  0  0  0  0
 54 45  2  0  0  0  0
 55 45  1  0  0  0  0
 56 50  1  0  0  0  0
 57 52  1  0  0  0  0
 58 54  1  0  0  0  0
 59 55  2  0  0  0  0
 60 53  2  0  0  0  0
 61 57  2  0  0  0  0
 62 59  1  0  0  0  0
  3 63  1  6  0  0  0
  1 64  1  1  0  0  0
 17 65  1  6  0  0  0
 33 66  1  6  0  0  0
 16 67  1  1  0  0  0
  7  3  1  0  0  0  0
 24  9  1  0  0  0  0
 15  6  1  0  0  0  0
 18 13  1  0  0  0  0
 35 16  1  0  0  0  0
 62 58  2  0  0  0  0
 60 61  1  0  0  0  0
M  END
>  <IDNUMBER>
F3409-1010

>  <Chemical_Name>
(1'R,2R,4'S,5S,6R,8'R,10'E,12'S,13'S,14'E,16'E,20'R,21'R,24'S)-6-[(2S)-butan-2-yl]-24'-hydroxy-5,11',13',22'-tetramethyl-2'-oxo-21'-{[(2E)-3-phenylprop-2-enoyl]oxy}-3',7',19'-trioxaspiro[oxane-2,6'-tetracyclo[15.6.1.1?,?.0??,??]pentacosane]-10',14',16',22'-tetraen-12'-yl (2E)-3-phenylprop-2-enoate

>  <PriceCoeff>
7.00

>  <MW>
847.06

>  <Description>
solid

>  <FSP3>
0.48

>  <clogP>
10.76

>  <TPSA>
126.82

>  <Acceptor>
10

>  <Donor>
1

>  <RotBonds>
10

>  <HAC>
62

$$$$
F3409-1011
  Mrv2219 10102508112D          

 57 62  0  0  0  0            999 V2000
    5.1127   -5.3376    0.0000 C   0  0  2  0  0  0  0  0  0  0  0  0
    4.3812   -5.7912    0.0000 C   0  0  1  0  0  0  0  0  0  0  0  0
    4.3812   -6.6249    0.0000 C   0  0  2  0  0  0  0  0  0  0  0  0
    5.1046   -4.4874    0.0000 C   0  0  0  0  0  0  0  0  0  0  0  0
    5.7830   -5.7422    0.0000 C   0  0  0  0  0  0  0  0  0  0  0  0
    6.5391   -1.9904    0.0000 C   0  0  2  0  0  0  0  0  0  0  0  0
    5.7830   -6.6249    0.0000 C   0  0  0  0  0  0  0  0  0  0  0  0
    3.6088   -6.9069    0.0000 O   0  0  0  0  0  0  0  0  0  0  0  0
    3.6088   -5.5541    0.0000 C   0  0  0  0  0  0  0  0  0  0  0  0
    5.1127   -7.0295    0.0000 C   0  0  1  0  0  0  0  0  0  0  0  0
    6.5391   -1.1321    0.0000 O   0  0  0  0  0  0  0  0  0  0  0  0
    5.7830   -4.0870    0.0000 O   0  0  0  0  0  0  0  0  0  0  0  0
    2.2273   -1.9331    0.0000 C   0  0  1  0  0  0  0  0  0  0  0  0
    6.5391   -2.8486    0.0000 C   0  0  0  0  0  0  0  0  0  0  0  0
    5.8157   -1.5612    0.0000 O   0  0  0  0  0  0  0  0  0  0  0  0
    7.2502   -0.7724    0.0000 C   0  0  1  0  0  0  0  0  0  0  0  0
    5.7830   -3.2450    0.0000 C   0  0  2  0  0  0  0  0  0  0  0  0
    2.9712   -1.5081    0.0000 C   0  0  0  0  0  0  0  0  0  0  0  0
    1.5898   -0.5804    0.0000 C   0  0  0  0  0  0  0  0  0  0  0  0
    3.6864   -1.9331    0.0000 C   0  0  0  0  0  0  0  0  0  0  0  0
    1.5367   -1.5081    0.0000 O   0  0  0  0  0  0  0  0  0  0  0  0
    3.1184   -6.1753    0.0000 C   0  0  0  0  0  0  0  0  0  0  0  0
    2.2641   -0.2371    0.0000 C   0  0  0  0  0  0  0  0  0  0  0  0
    3.6088   -4.6877    0.0000 C   0  0  0  0  0  0  0  0  0  0  0  0
    2.3091    0.6008    0.0000 C   0  0  0  0  0  0  0  0  0  0  0  0
    4.3812   -4.0624    0.0000 O   0  0  0  0  0  0  0  0  0  0  0  0
    3.0529   -4.2749    0.0000 C   0  0  0  0  0  0  0  0  0  0  0  0
    5.1127   -2.8322    0.0000 C   0  0  0  0  0  0  0  0  0  0  0  0
    5.1127   -1.9576    0.0000 C   0  0  1  0  0  0  0  0  0  0  0  0
    2.2273   -2.8486    0.0000 C   0  0  2  0  0  0  0  0  0  0  0  0
    7.9123   -1.1974    0.0000 C   0  0  2  0  0  0  0  0  0  0  0  0
    3.0529   -3.3799    0.0000 C   0  0  0  0  0  0  0  0  0  0  0  0
    4.3730   -4.8757    0.0000 O   0  0  0  0  0  0  0  0  0  0  0  0
    7.1929   -2.3541    0.0000 C   0  0  0  0  0  0  0  0  0  0  0  0
    0.8256   -0.3188    0.0000 O   0  0  0  0  0  0  0  0  0  0  0  0
    7.9246   -1.9658    0.0000 C   0  0  0  0  0  0  0  0  0  0  0  0
    4.4057   -1.5081    0.0000 C   0  0  0  0  0  0  0  0  0  0  0  0
    6.9314   -0.0123    0.0000 C   0  0  2  0  0  0  0  0  0  0  0  0
    5.1414   -7.8591    0.0000 O   0  0  0  0  0  0  0  0  0  0  0  0
    2.9222    0.9032    0.0000 C   0  0  0  0  0  0  0  0  0  0  0  0
    6.4901   -7.0499    0.0000 C   0  0  0  0  0  0  0  0  0  0  0  0
    2.9548   -0.5885    0.0000 C   0  0  0  0  0  0  0  0  0  0  0  0
    1.5367   -3.2450    0.0000 C   0  0  0  0  0  0  0  0  0  0  0  0
    8.6357   -0.8133    0.0000 C   0  0  0  0  0  0  0  0  0  0  0  0
    6.1263    0.1145    0.0000 C   0  0  0  0  0  0  0  0  0  0  0  0
    7.5200    0.6743    0.0000 C   0  0  0  0  0  0  0  0  0  0  0  0
    2.9671    1.5898    0.0000 C   0  0  0  0  0  0  0  0  0  0  0  0
    3.4902    0.5191    0.0000 C   0  0  0  0  0  0  0  0  0  0  0  0
    5.9710    0.9482    0.0000 C   0  0  0  0  0  0  0  0  0  0  0  0
    3.5801    1.8963    0.0000 C   0  0  0  0  0  0  0  0  0  0  0  0
    4.1115    0.8256    0.0000 C   0  0  0  0  0  0  0  0  0  0  0  0
    4.1605    1.5122    0.0000 C   0  0  0  0  0  0  0  0  0  0  0  0
    4.3730   -7.5445    0.0000 H   0  0  0  0  0  0  0  0  0  0  0  0
    5.8157   -4.9124    0.0000 H   0  0  0  0  0  0  0  0  0  0  0  0
    6.4492   -3.7150    0.0000 H   0  0  0  0  0  0  0  0  0  0  0  0
    5.1331   -0.9359    0.0000 H   0  0  0  0  0  0  0  0  0  0  0  0
    7.8673   -0.2248    0.0000 H   0  0  0  0  0  0  0  0  0  0  0  0
  2  1  1  0  0  0  0
  3  2  1  0  0  0  0
  4  1  1  0  0  0  0
  5  1  1  0  0  0  0
  6 14  1  0  0  0  0
  7  5  2  0  0  0  0
  8  3  1  0  0  0  0
  9  2  1  0  0  0  0
 10  7  1  0  0  0  0
 11  6  1  0  0  0  0
 12  4  1  0  0  0  0
 13 30  1  0  0  0  0
 14 17  1  0  0  0  0
 15 29  1  0  0  0  0
 16 11  1  0  0  0  0
 17 12  1  0  0  0  0
 18 20  2  0  0  0  0
 19 21  1  0  0  0  0
 20 37  1  0  0  0  0
 13 21  1  6  0  0  0
 22  9  1  0  0  0  0
 23 19  1  0  0  0  0
 24  9  2  0  0  0  0
 25 23  2  0  0  0  0
 26  4  2  0  0  0  0
 27 24  1  0  0  0  0
 28 17  1  0  0  0  0
 29 28  1  0  0  0  0
 30 32  1  0  0  0  0
 31 36  1  0  0  0  0
 32 27  2  0  0  0  0
  2 33  1  6  0  0  0
  6 34  1  1  0  0  0
 35 19  2  0  0  0  0
 36 34  1  0  0  0  0
 37 29  1  0  0  0  0
 38 16  1  0  0  0  0
 10 39  1  1  0  0  0
 40 25  1  0  0  0  0
 41  7  1  0  0  0  0
 42 18  1  0  0  0  0
 30 43  1  6  0  0  0
 31 44  1  1  0  0  0
 45 38  1  0  0  0  0
 38 46  1  6  0  0  0
 47 40  1  0  0  0  0
 48 40  2  0  0  0  0
 49 45  1  0  0  0  0
 50 47  2  0  0  0  0
 51 48  1  0  0  0  0
 52 51  2  0  0  0  0
  3 53  1  6  0  0  0
  1 54  1  1  0  0  0
 17 55  1  6  0  0  0
 29 56  1  6  0  0  0
 16 57  1  1  0  0  0
 10  3  1  0  0  0  0
 22  8  1  0  0  0  0
 15  6  1  0  0  0  0
 18 13  1  0  0  0  0
 31 16  1  0  0  0  0
 50 52  1  0  0  0  0
M  END
>  <IDNUMBER>
F3409-1011

>  <Chemical_Name>
(1'R,2R,4'S,5S,6R,8'R,10'E,12'S,13'S,14'E,16'E,20'R,21'R,24'S)-6-[(2S)-butan-2-yl]-21',24'-dihydroxy-5,11',13',22'-tetramethyl-2'-oxo-3',7',19'-trioxaspiro[oxane-2,6'-tetracyclo[15.6.1.1?,?.0??,??]pentacosane]-10',14',16',22'-tetraen-12'-yl (2E)-3-phenylprop-2-enoate

>  <PriceCoeff>
7.00

>  <MW>
716.91

>  <Description>
solid

>  <FSP3>
0.58

>  <clogP>
8.35

>  <TPSA>
120.75

>  <Acceptor>
9

>  <Donor>
2

>  <RotBonds>
6

>  <HAC>
52

$$$$
F3409-1012
  Mrv2219 10102508112D          

 58 63  0  0  0  0            999 V2000
    6.2618   -8.1706    0.0000 C   0  0  2  0  0  0  0  0  0  0  0  0
    5.5302   -8.6243    0.0000 C   0  0  1  0  0  0  0  0  0  0  0  0
    5.5302   -9.4581    0.0000 C   0  0  1  0  0  0  0  0  0  0  0  0
    6.2536   -7.3204    0.0000 C   0  0  0  0  0  0  0  0  0  0  0  0
    6.9322   -8.5753    0.0000 C   0  0  0  0  0  0  0  0  0  0  0  0
    7.6883   -4.8231    0.0000 C   0  0  2  0  0  0  0  0  0  0  0  0
    6.2618   -9.8628    0.0000 C   0  0  1  0  0  0  0  0  0  0  0  0
    7.0180  -11.0890    0.0000 C   0  0  0  0  0  0  0  0  0  0  0  0
    6.9322   -9.4581    0.0000 C   0  0  0  0  0  0  0  0  0  0  0  0
    4.7577   -9.7402    0.0000 O   0  0  0  0  0  0  0  0  0  0  0  0
    4.7577   -8.3872    0.0000 C   0  0  0  0  0  0  0  0  0  0  0  0
    6.2904  -10.6925    0.0000 O   0  0  0  0  0  0  0  0  0  0  0  0
    7.6883   -3.9647    0.0000 O   0  0  0  0  0  0  0  0  0  0  0  0
    6.9322   -6.9199    0.0000 O   0  0  0  0  0  0  0  0  0  0  0  0
    7.0384  -11.8983    0.0000 C   0  0  0  0  0  0  0  0  0  0  0  0
    7.7537  -12.2784    0.0000 C   0  0  0  0  0  0  0  0  0  0  0  0
    7.6883   -5.6814    0.0000 C   0  0  0  0  0  0  0  0  0  0  0  0
    6.9648   -4.3939    0.0000 O   0  0  0  0  0  0  0  0  0  0  0  0
    8.3995   -3.6050    0.0000 C   0  0  1  0  0  0  0  0  0  0  0  0
    6.9322   -6.0778    0.0000 C   0  0  2  0  0  0  0  0  0  0  0  0
    8.4444  -11.8492    0.0000 C   0  0  0  0  0  0  0  0  0  0  0  0
    4.1242   -4.3408    0.0000 C   0  0  0  0  0  0  0  0  0  0  0  0
    4.8354   -4.7658    0.0000 C   0  0  0  0  0  0  0  0  0  0  0  0
    4.2672   -9.0085    0.0000 C   0  0  0  0  0  0  0  0  0  0  0  0
    3.3762   -4.7658    0.0000 C   0  0  2  0  0  0  0  0  0  0  0  0
    4.7577   -7.5207    0.0000 C   0  0  0  0  0  0  0  0  0  0  0  0
    5.5302   -6.8954    0.0000 O   0  0  0  0  0  0  0  0  0  0  0  0
    4.2017   -7.1078    0.0000 C   0  0  0  0  0  0  0  0  0  0  0  0
    7.7209  -10.6475    0.0000 O   0  0  0  0  0  0  0  0  0  0  0  0
    6.2618   -5.6650    0.0000 C   0  0  0  0  0  0  0  0  0  0  0  0
    6.2618   -4.7903    0.0000 C   0  0  1  0  0  0  0  0  0  0  0  0
    8.4159  -11.0440    0.0000 O   0  0  0  0  0  0  0  0  0  0  0  0
    9.0616   -4.0301    0.0000 C   0  0  2  0  0  0  0  0  0  0  0  0
    4.2017   -6.2127    0.0000 C   0  0  0  0  0  0  0  0  0  0  0  0
    5.5220   -7.7087    0.0000 O   0  0  0  0  0  0  0  0  0  0  0  0
    8.3423   -5.1868    0.0000 C   0  0  0  0  0  0  0  0  0  0  0  0
    3.3762   -5.6814    0.0000 C   0  0  2  0  0  0  0  0  0  0  0  0
    9.0780   -4.7986    0.0000 C   0  0  0  0  0  0  0  0  0  0  0  0
    5.5547   -4.3408    0.0000 C   0  0  0  0  0  0  0  0  0  0  0  0
    8.0807   -2.8448    0.0000 C   0  0  2  0  0  0  0  0  0  0  0  0
    9.1556  -12.2334    0.0000 O   0  0  0  0  0  0  0  0  0  0  0  0
    2.6854   -4.3408    0.0000 O   0  0  0  0  0  0  0  0  0  0  0  0
    7.6392   -9.8832    0.0000 C   0  0  0  0  0  0  0  0  0  0  0  0
    6.3517  -12.3233    0.0000 C   0  0  0  0  0  0  0  0  0  0  0  0
    7.7782  -13.0877    0.0000 C   0  0  0  0  0  0  0  0  0  0  0  0
    4.1037   -3.4211    0.0000 C   0  0  0  0  0  0  0  0  0  0  0  0
    9.7851   -3.6459    0.0000 C   0  0  0  0  0  0  0  0  0  0  0  0
    2.6854   -6.0778    0.0000 C   0  0  0  0  0  0  0  0  0  0  0  0
    7.2755   -2.7180    0.0000 C   0  0  0  0  0  0  0  0  0  0  0  0
    8.6692   -2.1581    0.0000 C   0  0  0  0  0  0  0  0  0  0  0  0
    7.0874  -13.5169    0.0000 C   0  0  0  0  0  0  0  0  0  0  0  0
    6.3762  -13.1285    0.0000 C   0  0  0  0  0  0  0  0  0  0  0  0
    7.1201   -1.8842    0.0000 C   0  0  0  0  0  0  0  0  0  0  0  0
    6.9648   -7.7455    0.0000 H   0  0  0  0  0  0  0  0  0  0  0  0
    7.5983   -6.5479    0.0000 H   0  0  0  0  0  0  0  0  0  0  0  0
    6.2823   -3.7686    0.0000 H   0  0  0  0  0  0  0  0  0  0  0  0
    9.0167   -3.0574    0.0000 H   0  0  0  0  0  0  0  0  0  0  0  0
    5.5220  -10.3778    0.0000 H   0  0  0  0  0  0  0  0  0  0  0  0
  2  1  1  0  0  0  0
  3  2  1  0  0  0  0
  4  1  1  0  0  0  0
  5  1  1  0  0  0  0
  6 17  1  0  0  0  0
  7  9  1  0  0  0  0
  8 12  1  0  0  0  0
  9  5  2  0  0  0  0
 10  3  1  0  0  0  0
 11  2  1  0  0  0  0
  7 12  1  1  0  0  0
 13  6  1  0  0  0  0
 14  4  1  0  0  0  0
 15  8  1  0  0  0  0
 16 15  1  0  0  0  0
 17 20  1  0  0  0  0
 18 31  1  0  0  0  0
 19 13  1  0  0  0  0
 20 14  1  0  0  0  0
 21 16  1  0  0  0  0
 22 23  2  0  0  0  0
 23 39  1  0  0  0  0
 24 11  1  0  0  0  0
 25 37  1  0  0  0  0
 26 11  2  0  0  0  0
 27  4  2  0  0  0  0
 28 26  1  0  0  0  0
 29  8  2  0  0  0  0
 30 20  1  0  0  0  0
 31 30  1  0  0  0  0
 32 21  2  0  0  0  0
 33 38  1  0  0  0  0
 34 28  2  0  0  0  0
  2 35  1  6  0  0  0
  6 36  1  1  0  0  0
 37 34  1  0  0  0  0
 38 36  1  0  0  0  0
 39 31  1  0  0  0  0
 40 19  1  0  0  0  0
 41 21  1  0  0  0  0
 25 42  1  6  0  0  0
 43  9  1  0  0  0  0
 44 15  2  0  0  0  0
 45 16  2  0  0  0  0
 46 22  1  0  0  0  0
 33 47  1  1  0  0  0
 37 48  1  6  0  0  0
 49 40  1  0  0  0  0
 40 50  1  6  0  0  0
 51 45  1  0  0  0  0
 52 44  1  0  0  0  0
 53 49  1  0  0  0  0
  1 54  1  1  0  0  0
 20 55  1  6  0  0  0
 31 56  1  6  0  0  0
 19 57  1  1  0  0  0
  3 58  1  6  0  0  0
  7  3  1  0  0  0  0
 24 10  1  0  0  0  0
 18  6  1  0  0  0  0
 22 25  1  0  0  0  0
 51 52  2  0  0  0  0
 33 19  1  0  0  0  0
M  END
>  <IDNUMBER>
F3409-1012

>  <Chemical_Name>
2-{[(1'R,2R,4'S,5S,6R,8'R,10'E,12'S,13'S,14'E,16'E,20'R,21'R,24'S)-6-[(2S)-butan-2-yl]-12',24'-dihydroxy-5,11',13',22'-tetramethyl-2'-oxo-3',7',19'-trioxaspiro[oxane-2,6'-tetracyclo[15.6.1.1?,?.0??,??]pentacosane]-10',14',16',22'-tetraen-21'-yloxy]carbonyl}benzoic acid

>  <PriceCoeff>
7.00

>  <MW>
734.88

>  <Description>
solid

>  <FSP3>
0.60

>  <clogP>
6.11

>  <TPSA>
158.05

>  <Acceptor>
11

>  <Donor>
2

>  <RotBonds>
6

>  <HAC>
53

$$$$
F3409-1013
  Mrv2219 10102508112D          

 60 65  0  0  0  0            999 V2000
    6.2096   -7.5634    0.0000 C   0  0  2  0  0  0  0  0  0  0  0  0
    5.4841   -8.0133    0.0000 C   0  0  1  0  0  0  0  0  0  0  0  0
    5.4841   -8.8483    0.0000 C   0  0  1  0  0  0  0  0  0  0  0  0
    6.2015   -6.7163    0.0000 C   0  0  0  0  0  0  0  0  0  0  0  0
    6.8784   -7.9647    0.0000 C   0  0  0  0  0  0  0  0  0  0  0  0
    7.6323   -4.2275    0.0000 C   0  0  2  0  0  0  0  0  0  0  0  0
    6.2096   -9.2496    0.0000 C   0  0  1  0  0  0  0  0  0  0  0  0
    6.8784   -8.8483    0.0000 C   0  0  0  0  0  0  0  0  0  0  0  0
    4.7139   -9.1280    0.0000 O   0  0  0  0  0  0  0  0  0  0  0  0
    4.7139   -7.7782    0.0000 C   0  0  0  0  0  0  0  0  0  0  0  0
    7.6323   -3.3724    0.0000 O   0  0  0  0  0  0  0  0  0  0  0  0
    6.8784   -6.3150    0.0000 O   0  0  0  0  0  0  0  0  0  0  0  0
    7.6323   -5.0828    0.0000 C   0  0  0  0  0  0  0  0  0  0  0  0
    6.9109   -3.7980    0.0000 O   0  0  0  0  0  0  0  0  0  0  0  0
    8.3417   -3.0116    0.0000 C   0  0  1  0  0  0  0  0  0  0  0  0
    6.8784   -5.4760    0.0000 C   0  0  2  0  0  0  0  0  0  0  0  0
    4.0776   -3.7452    0.0000 C   0  0  0  0  0  0  0  0  0  0  0  0
    6.2421  -10.0764    0.0000 O   0  0  0  0  0  0  0  0  0  0  0  0
    4.7910   -4.1708    0.0000 C   0  0  0  0  0  0  0  0  0  0  0  0
    4.2236   -8.3984    0.0000 C   0  0  0  0  0  0  0  0  0  0  0  0
    3.3359   -4.1708    0.0000 C   0  0  2  0  0  0  0  0  0  0  0  0
    6.9635  -10.4737    0.0000 C   0  0  0  0  0  0  0  0  0  0  0  0
    7.6201  -12.4558    0.0000 C   0  0  0  0  0  0  0  0  0  0  0  0
    4.7139   -6.9149    0.0000 C   0  0  0  0  0  0  0  0  0  0  0  0
    5.4841   -6.2907    0.0000 O   0  0  0  0  0  0  0  0  0  0  0  0
    4.1587   -6.5055    0.0000 C   0  0  0  0  0  0  0  0  0  0  0  0
    8.1836  -12.8530    0.0000 N   0  0  0  0  0  0  0  0  0  0  0  0
    6.2096   -5.0666    0.0000 C   0  0  0  0  0  0  0  0  0  0  0  0
    6.2096   -4.1951    0.0000 C   0  0  1  0  0  0  0  0  0  0  0  0
    9.0024   -3.4372    0.0000 C   0  0  2  0  0  0  0  0  0  0  0  0
    4.1587   -5.6098    0.0000 C   0  0  0  0  0  0  0  0  0  0  0  0
    5.4760   -7.1013    0.0000 O   0  0  0  0  0  0  0  0  0  0  0  0
    8.2849   -4.5883    0.0000 C   0  0  0  0  0  0  0  0  0  0  0  0
    3.3359   -5.0828    0.0000 C   0  0  2  0  0  0  0  0  0  0  0  0
    7.6648  -10.0319    0.0000 O   0  0  0  0  0  0  0  0  0  0  0  0
    6.9960  -12.7476    0.0000 O   0  0  0  0  0  0  0  0  0  0  0  0
    9.0145   -4.2032    0.0000 C   0  0  0  0  0  0  0  0  0  0  0  0
    5.5084   -3.7452    0.0000 C   0  0  0  0  0  0  0  0  0  0  0  0
    8.0255   -2.2537    0.0000 C   0  0  2  0  0  0  0  0  0  0  0  0
    6.9838  -11.3046    0.0000 C   0  0  0  0  0  0  0  0  0  0  0  0
    7.6809  -11.7748    0.0000 C   0  0  0  0  0  0  0  0  0  0  0  0
    8.1228  -13.5339    0.0000 C   0  0  0  0  0  0  0  0  0  0  0  0
    2.6428   -3.7452    0.0000 O   0  0  0  0  0  0  0  0  0  0  0  0
    7.5797   -9.2699    0.0000 C   0  0  0  0  0  0  0  0  0  0  0  0
    4.0614   -2.8292    0.0000 C   0  0  0  0  0  0  0  0  0  0  0  0
    9.7238   -3.0521    0.0000 C   0  0  0  0  0  0  0  0  0  0  0  0
    2.6428   -5.4760    0.0000 C   0  0  0  0  0  0  0  0  0  0  0  0
    7.2229   -2.1280    0.0000 C   0  0  0  0  0  0  0  0  0  0  0  0
    8.6092   -1.5686    0.0000 C   0  0  0  0  0  0  0  0  0  0  0  0
    7.5026  -13.8257    0.0000 C   0  0  0  0  0  0  0  0  0  0  0  0
    8.6862  -13.9271    0.0000 C   0  0  0  0  0  0  0  0  0  0  0  0
    7.0690   -1.2970    0.0000 C   0  0  0  0  0  0  0  0  0  0  0  0
    8.6294  -14.6081    0.0000 C   0  0  0  0  0  0  0  0  0  0  0  0
    7.4418  -14.5108    0.0000 C   0  0  0  0  0  0  0  0  0  0  0  0
    8.0053  -14.8999    0.0000 C   0  0  0  0  0  0  0  0  0  0  0  0
    6.2339   -3.1737    0.0000 H   0  0  0  0  0  0  0  0  0  0  0  0
    8.9577   -2.4684    0.0000 H   0  0  0  0  0  0  0  0  0  0  0  0
    5.4760   -9.7644    0.0000 H   0  0  0  0  0  0  0  0  0  0  0  0
    6.9109   -7.1378    0.0000 H   0  0  0  0  0  0  0  0  0  0  0  0
    7.5432   -5.9462    0.0000 H   0  0  0  0  0  0  0  0  0  0  0  0
  2  1  1  0  0  0  0
  3  2  1  0  0  0  0
  4  1  1  0  0  0  0
  5  1  1  0  0  0  0
  6 13  1  0  0  0  0
  7  8  1  0  0  0  0
  8  5  2  0  0  0  0
  9  3  1  0  0  0  0
 10  2  1  0  0  0  0
 11  6  1  0  0  0  0
 12  4  1  0  0  0  0
 13 16  1  0  0  0  0
 14 29  1  0  0  0  0
 15 11  1  0  0  0  0
 16 12  1  0  0  0  0
 17 19  2  0  0  0  0
  7 18  1  1  0  0  0
 19 38  1  0  0  0  0
 20 10  1  0  0  0  0
 21 34  1  0  0  0  0
 22 18  1  0  0  0  0
 23 41  1  0  0  0  0
 24 10  2  0  0  0  0
 25  4  2  0  0  0  0
 26 24  1  0  0  0  0
 27 23  1  0  0  0  0
 28 16  1  0  0  0  0
 29 28  1  0  0  0  0
 30 37  1  0  0  0  0
 31 26  2  0  0  0  0
  2 32  1  6  0  0  0
  6 33  1  1  0  0  0
 34 31  1  0  0  0  0
 35 22  2  0  0  0  0
 36 23  2  0  0  0  0
 37 33  1  0  0  0  0
 38 29  1  0  0  0  0
 39 15  1  0  0  0  0
 40 22  1  0  0  0  0
 41 40  1  0  0  0  0
 42 27  1  0  0  0  0
 21 43  1  6  0  0  0
 44  8  1  0  0  0  0
 45 17  1  0  0  0  0
 30 46  1  1  0  0  0
 34 47  1  6  0  0  0
 48 39  1  0  0  0  0
 39 49  1  6  0  0  0
 50 42  2  0  0  0  0
 51 42  1  0  0  0  0
 52 48  1  0  0  0  0
 53 51  2  0  0  0  0
 54 50  1  0  0  0  0
 55 53  1  0  0  0  0
 29 56  1  6  0  0  0
 15 57  1  1  0  0  0
  3 58  1  6  0  0  0
  1 59  1  1  0  0  0
 16 60  1  6  0  0  0
  7  3  1  0  0  0  0
 20  9  1  0  0  0  0
 14  6  1  0  0  0  0
 17 21  1  0  0  0  0
 30 15  1  0  0  0  0
 55 54  2  0  0  0  0
M  END
>  <IDNUMBER>
F3409-1013

>  <Chemical_Name>
(1'R,2R,4'S,5S,6R,8'R,10'E,12'S,13'S,14'E,16'E,20'R,21'R,24'S)-6-[(2S)-butan-2-yl]-12',24'-dihydroxy-5,11',13',22'-tetramethyl-2'-oxo-3',7',19'-trioxaspiro[oxane-2,6'-tetracyclo[15.6.1.1?,?.0??,??]pentacosane]-10',14',16',22'-tetraen-21'-yl 3-(phenylcarbamoyl)propanoate

>  <PriceCoeff>
7.00

>  <MW>
761.95

>  <Description>
solid

>  <FSP3>
0.61

>  <clogP>
6.60

>  <TPSA>
149.85

>  <Acceptor>
10

>  <Donor>
3

>  <RotBonds>
8

>  <HAC>
55

$$$$
F3409-1014
  Mrv2219 10102508112D          

 61 66  0  0  0  0            999 V2000
    6.2290   -7.5871    0.0000 C   0  0  2  0  0  0  0  0  0  0  0  0
    5.5012   -8.0384    0.0000 C   0  0  1  0  0  0  0  0  0  0  0  0
    5.5012   -8.8759    0.0000 C   0  0  1  0  0  0  0  0  0  0  0  0
    6.2209   -6.7373    0.0000 C   0  0  0  0  0  0  0  0  0  0  0  0
    6.8999   -7.9896    0.0000 C   0  0  0  0  0  0  0  0  0  0  0  0
    7.6561   -4.2407    0.0000 C   0  0  2  0  0  0  0  0  0  0  0  0
    6.2290   -9.2785    0.0000 C   0  0  1  0  0  0  0  0  0  0  0  0
    6.8999   -8.8759    0.0000 C   0  0  0  0  0  0  0  0  0  0  0  0
    4.7287   -9.1565    0.0000 O   0  0  0  0  0  0  0  0  0  0  0  0
    4.7287   -7.8025    0.0000 C   0  0  0  0  0  0  0  0  0  0  0  0
    7.6561   -3.3829    0.0000 O   0  0  0  0  0  0  0  0  0  0  0  0
    6.8999   -6.3348    0.0000 O   0  0  0  0  0  0  0  0  0  0  0  0
    7.6561   -5.0987    0.0000 C   0  0  0  0  0  0  0  0  0  0  0  0
    6.9325   -3.8098    0.0000 O   0  0  0  0  0  0  0  0  0  0  0  0
    8.3677   -3.0210    0.0000 C   0  0  1  0  0  0  0  0  0  0  0  0
    6.8999   -5.4931    0.0000 C   0  0  2  0  0  0  0  0  0  0  0  0
    4.0904   -3.7569    0.0000 C   0  0  0  0  0  0  0  0  0  0  0  0
    6.2616  -10.1079    0.0000 O   0  0  0  0  0  0  0  0  0  0  0  0
    4.8059   -4.1839    0.0000 C   0  0  0  0  0  0  0  0  0  0  0  0
    4.2367   -8.4246    0.0000 C   0  0  0  0  0  0  0  0  0  0  0  0
    3.3463   -4.1839    0.0000 C   0  0  2  0  0  0  0  0  0  0  0  0
    6.9853  -10.5064    0.0000 C   0  0  0  0  0  0  0  0  0  0  0  0
    7.6439  -12.4947    0.0000 C   0  0  0  0  0  0  0  0  0  0  0  0
    4.7287   -6.9365    0.0000 C   0  0  0  0  0  0  0  0  0  0  0  0
    5.5012   -6.3104    0.0000 O   0  0  0  0  0  0  0  0  0  0  0  0
    8.2091  -12.8931    0.0000 N   0  0  0  0  0  0  0  0  0  0  0  0
    4.1717   -6.5258    0.0000 C   0  0  0  0  0  0  0  0  0  0  0  0
    6.2290   -5.0824    0.0000 C   0  0  0  0  0  0  0  0  0  0  0  0
    6.2290   -4.2083    0.0000 C   0  0  1  0  0  0  0  0  0  0  0  0
    9.0305   -3.4479    0.0000 C   0  0  2  0  0  0  0  0  0  0  0  0
    4.1717   -5.6273    0.0000 C   0  0  0  0  0  0  0  0  0  0  0  0
    5.4931   -7.1235    0.0000 O   0  0  0  0  0  0  0  0  0  0  0  0
    8.3108   -4.6027    0.0000 C   0  0  0  0  0  0  0  0  0  0  0  0
    3.3463   -5.0987    0.0000 C   0  0  2  0  0  0  0  0  0  0  0  0
    7.6887  -10.0632    0.0000 O   0  0  0  0  0  0  0  0  0  0  0  0
    7.0179  -12.7874    0.0000 O   0  0  0  0  0  0  0  0  0  0  0  0
    9.0427   -4.2164    0.0000 C   0  0  0  0  0  0  0  0  0  0  0  0
    5.5256   -3.7569    0.0000 C   0  0  0  0  0  0  0  0  0  0  0  0
    8.1482  -13.5762    0.0000 C   0  0  0  0  0  0  0  0  0  0  0  0
    8.0506   -2.2607    0.0000 C   0  0  2  0  0  0  0  0  0  0  0  0
    7.0057  -11.3399    0.0000 C   0  0  0  0  0  0  0  0  0  0  0  0
    7.7049  -11.8116    0.0000 C   0  0  0  0  0  0  0  0  0  0  0  0
    2.6510   -3.7569    0.0000 O   0  0  0  0  0  0  0  0  0  0  0  0
    8.0303  -14.9465    0.0000 C   0  0  0  0  0  0  0  0  0  0  0  0
    7.6034   -9.2989    0.0000 C   0  0  0  0  0  0  0  0  0  0  0  0
    7.5261  -13.8689    0.0000 C   0  0  0  0  0  0  0  0  0  0  0  0
    8.7134  -13.9706    0.0000 C   0  0  0  0  0  0  0  0  0  0  0  0
    8.6564  -14.6537    0.0000 C   0  0  0  0  0  0  0  0  0  0  0  0
    7.4651  -14.5561    0.0000 C   0  0  0  0  0  0  0  0  0  0  0  0
    4.0741   -2.8380    0.0000 C   0  0  0  0  0  0  0  0  0  0  0  0
    9.7542   -3.0617    0.0000 C   0  0  0  0  0  0  0  0  0  0  0  0
    2.6510   -5.4931    0.0000 C   0  0  0  0  0  0  0  0  0  0  0  0
    7.2455   -2.1346    0.0000 C   0  0  0  0  0  0  0  0  0  0  0  0
    8.6361   -1.5735    0.0000 C   0  0  0  0  0  0  0  0  0  0  0  0
    7.9693  -15.6335    0.0000 C   0  0  0  0  0  0  0  0  0  0  0  0
    7.0910   -1.3011    0.0000 C   0  0  0  0  0  0  0  0  0  0  0  0
    8.9857   -2.4762    0.0000 H   0  0  0  0  0  0  0  0  0  0  0  0
    5.4931   -9.7949    0.0000 H   0  0  0  0  0  0  0  0  0  0  0  0
    6.9325   -7.1601    0.0000 H   0  0  0  0  0  0  0  0  0  0  0  0
    7.5668   -5.9647    0.0000 H   0  0  0  0  0  0  0  0  0  0  0  0
    6.2534   -3.1836    0.0000 H   0  0  0  0  0  0  0  0  0  0  0  0
  2  1  1  0  0  0  0
  3  2  1  0  0  0  0
  4  1  1  0  0  0  0
  5  1  1  0  0  0  0
  6 13  1  0  0  0  0
  7  8  1  0  0  0  0
  8  5  2  0  0  0  0
  9  3  1  0  0  0  0
 10  2  1  0  0  0  0
 11  6  1  0  0  0  0
 12  4  1  0  0  0  0
 13 16  1  0  0  0  0
 14 29  1  0  0  0  0
 15 11  1  0  0  0  0
 16 12  1  0  0  0  0
 17 19  2  0  0  0  0
  7 18  1  1  0  0  0
 19 38  1  0  0  0  0
 20 10  1  0  0  0  0
 21 34  1  0  0  0  0
 22 18  1  0  0  0  0
 23 42  1  0  0  0  0
 24 10  2  0  0  0  0
 25  4  2  0  0  0  0
 26 23  1  0  0  0  0
 27 24  1  0  0  0  0
 28 16  1  0  0  0  0
 29 28  1  0  0  0  0
 30 37  1  0  0  0  0
 31 27  2  0  0  0  0
  2 32  1  6  0  0  0
  6 33  1  1  0  0  0
 34 31  1  0  0  0  0
 35 22  2  0  0  0  0
 36 23  2  0  0  0  0
 37 33  1  0  0  0  0
 38 29  1  0  0  0  0
 39 26  1  0  0  0  0
 40 15  1  0  0  0  0
 41 22  1  0  0  0  0
 42 41  1  0  0  0  0
 21 43  1  6  0  0  0
 44 48  1  0  0  0  0
 45  8  1  0  0  0  0
 46 39  2  0  0  0  0
 47 39  1  0  0  0  0
 48 47  2  0  0  0  0
 49 46  1  0  0  0  0
 50 17  1  0  0  0  0
 30 51  1  1  0  0  0
 34 52  1  6  0  0  0
 53 40  1  0  0  0  0
 40 54  1  6  0  0  0
 55 44  1  0  0  0  0
 56 53  1  0  0  0  0
 15 57  1  1  0  0  0
  3 58  1  6  0  0  0
  1 59  1  1  0  0  0
 16 60  1  6  0  0  0
 29 61  1  6  0  0  0
  7  3  1  0  0  0  0
 20  9  1  0  0  0  0
 14  6  1  0  0  0  0
 17 21  1  0  0  0  0
 30 15  1  0  0  0  0
 44 49  2  0  0  0  0
M  END
>  <IDNUMBER>
F3409-1014

>  <Chemical_Name>
(1'R,2R,4'S,5S,6R,8'R,10'E,12'S,13'S,14'E,16'E,20'R,21'R,24'S)-6-[(2S)-butan-2-yl]-12',24'-dihydroxy-5,11',13',22'-tetramethyl-2'-oxo-3',7',19'-trioxaspiro[oxane-2,6'-tetracyclo[15.6.1.1?,?.0??,??]pentacosane]-10',14',16',22'-tetraen-21'-yl 3-[(4-methylphenyl)carbamoyl]propanoate

>  <PriceCoeff>
7.00

>  <MW>
775.98

>  <Description>
solid

>  <FSP3>
0.62

>  <clogP>
7.10

>  <TPSA>
149.85

>  <Acceptor>
10

>  <Donor>
3

>  <RotBonds>
8

>  <HAC>
56

$$$$
F3409-1015
  Mrv2219 10102508112D          

 61 66  0  0  0  0            999 V2000
    1.9902   -4.0940    0.0000 C   0  0  2  0  0  0  0  0  0  0  0  0
    1.2647   -4.5439    0.0000 C   0  0  1  0  0  0  0  0  0  0  0  0
    1.2647   -5.3790    0.0000 C   0  0  1  0  0  0  0  0  0  0  0  0
    1.9822   -3.2469    0.0000 C   0  0  0  0  0  0  0  0  0  0  0  0
    2.6591   -4.4953    0.0000 C   0  0  0  0  0  0  0  0  0  0  0  0
    3.4130   -0.7580    0.0000 C   0  0  2  0  0  0  0  0  0  0  0  0
    1.9902   -5.7803    0.0000 C   0  0  1  0  0  0  0  0  0  0  0  0
    2.6591   -5.3790    0.0000 C   0  0  0  0  0  0  0  0  0  0  0  0
    0.4945   -5.6587    0.0000 O   0  0  0  0  0  0  0  0  0  0  0  0
    0.4945   -4.3089    0.0000 C   0  0  0  0  0  0  0  0  0  0  0  0
    3.4130    0.0932    0.0000 O   0  0  0  0  0  0  0  0  0  0  0  0
    2.6591   -2.8456    0.0000 O   0  0  0  0  0  0  0  0  0  0  0  0
    3.4130   -1.6133    0.0000 C   0  0  0  0  0  0  0  0  0  0  0  0
    2.6916   -0.3283    0.0000 O   0  0  0  0  0  0  0  0  0  0  0  0
    4.1224    0.4580    0.0000 C   0  0  1  0  0  0  0  0  0  0  0  0
    2.6591   -2.0065    0.0000 C   0  0  2  0  0  0  0  0  0  0  0  0
   -0.1418   -0.2756    0.0000 C   0  0  0  0  0  0  0  0  0  0  0  0
    2.0227   -6.6072    0.0000 O   0  0  0  0  0  0  0  0  0  0  0  0
    0.5715   -0.7012    0.0000 C   0  0  0  0  0  0  0  0  0  0  0  0
    0.0041   -4.9291    0.0000 C   0  0  0  0  0  0  0  0  0  0  0  0
   -0.8836   -0.7012    0.0000 C   0  0  2  0  0  0  0  0  0  0  0  0
    2.7442   -7.0045    0.0000 C   0  0  0  0  0  0  0  0  0  0  0  0
    3.4009   -8.9866    0.0000 C   0  0  0  0  0  0  0  0  0  0  0  0
    0.4945   -3.4455    0.0000 C   0  0  0  0  0  0  0  0  0  0  0  0
    1.2647   -2.8212    0.0000 O   0  0  0  0  0  0  0  0  0  0  0  0
    3.9643   -9.3838    0.0000 N   0  0  0  0  0  0  0  0  0  0  0  0
   -0.0608   -3.0360    0.0000 C   0  0  0  0  0  0  0  0  0  0  0  0
    1.9902   -1.5971    0.0000 C   0  0  0  0  0  0  0  0  0  0  0  0
    1.9902   -0.7255    0.0000 C   0  0  1  0  0  0  0  0  0  0  0  0
    4.7832    0.0324    0.0000 C   0  0  2  0  0  0  0  0  0  0  0  0
   -0.0608   -2.1403    0.0000 C   0  0  0  0  0  0  0  0  0  0  0  0
    1.2566   -3.6319    0.0000 O   0  0  0  0  0  0  0  0  0  0  0  0
    4.0657   -1.1188    0.0000 C   0  0  0  0  0  0  0  0  0  0  0  0
   -0.8836   -1.6133    0.0000 C   0  0  2  0  0  0  0  0  0  0  0  0
    3.4455   -6.5626    0.0000 O   0  0  0  0  0  0  0  0  0  0  0  0
    2.7767   -9.2785    0.0000 O   0  0  0  0  0  0  0  0  0  0  0  0
    4.7953   -0.7337    0.0000 C   0  0  0  0  0  0  0  0  0  0  0  0
    1.2890   -0.2756    0.0000 C   0  0  0  0  0  0  0  0  0  0  0  0
    3.9035  -10.0648    0.0000 C   0  0  0  0  0  0  0  0  0  0  0  0
    3.8062    1.2161    0.0000 C   0  0  2  0  0  0  0  0  0  0  0  0
    2.7645   -7.8355    0.0000 C   0  0  0  0  0  0  0  0  0  0  0  0
    3.4617   -8.3056    0.0000 C   0  0  0  0  0  0  0  0  0  0  0  0
    3.7860  -11.4309    0.0000 C   0  0  0  0  0  0  0  0  0  0  0  0
   -1.5768   -0.2756    0.0000 O   0  0  0  0  0  0  0  0  0  0  0  0
    3.7252  -12.1160    0.0000 F   0  0  0  0  0  0  0  0  0  0  0  0
    3.3604   -5.8006    0.0000 C   0  0  0  0  0  0  0  0  0  0  0  0
    4.4670  -10.4580    0.0000 C   0  0  0  0  0  0  0  0  0  0  0  0
    3.2833  -10.3567    0.0000 C   0  0  0  0  0  0  0  0  0  0  0  0
    3.2225  -11.0417    0.0000 C   0  0  0  0  0  0  0  0  0  0  0  0
    4.4102  -11.1390    0.0000 C   0  0  0  0  0  0  0  0  0  0  0  0
   -0.1581    0.6404    0.0000 C   0  0  0  0  0  0  0  0  0  0  0  0
    5.5046    0.4175    0.0000 C   0  0  0  0  0  0  0  0  0  0  0  0
   -1.5768   -2.0065    0.0000 C   0  0  0  0  0  0  0  0  0  0  0  0
    3.0036    1.3417    0.0000 C   0  0  0  0  0  0  0  0  0  0  0  0
    4.3899    1.9011    0.0000 C   0  0  0  0  0  0  0  0  0  0  0  0
    2.8496    2.1726    0.0000 C   0  0  0  0  0  0  0  0  0  0  0  0
    4.7385    1.0012    0.0000 H   0  0  0  0  0  0  0  0  0  0  0  0
    1.2566   -6.2951    0.0000 H   0  0  0  0  0  0  0  0  0  0  0  0
    2.6916   -3.6684    0.0000 H   0  0  0  0  0  0  0  0  0  0  0  0
    3.3239   -2.4767    0.0000 H   0  0  0  0  0  0  0  0  0  0  0  0
    2.0146    0.2959    0.0000 H   0  0  0  0  0  0  0  0  0  0  0  0
  2  1  1  0  0  0  0
  3  2  1  0  0  0  0
  4  1  1  0  0  0  0
  5  1  1  0  0  0  0
  6 13  1  0  0  0  0
  7  8  1  0  0  0  0
  8  5  2  0  0  0  0
  9  3  1  0  0  0  0
 10  2  1  0  0  0  0
 11  6  1  0  0  0  0
 12  4  1  0  0  0  0
 13 16  1  0  0  0  0
 14 29  1  0  0  0  0
 15 11  1  0  0  0  0
 16 12  1  0  0  0  0
 17 19  2  0  0  0  0
  7 18  1  1  0  0  0
 19 38  1  0  0  0  0
 20 10  1  0  0  0  0
 21 34  1  0  0  0  0
 22 18  1  0  0  0  0
 23 42  1  0  0  0  0
 24 10  2  0  0  0  0
 25  4  2  0  0  0  0
 26 23  1  0  0  0  0
 27 24  1  0  0  0  0
 28 16  1  0  0  0  0
 29 28  1  0  0  0  0
 30 37  1  0  0  0  0
 31 27  2  0  0  0  0
  2 32  1  6  0  0  0
  6 33  1  1  0  0  0
 34 31  1  0  0  0  0
 35 22  2  0  0  0  0
 36 23  2  0  0  0  0
 37 33  1  0  0  0  0
 38 29  1  0  0  0  0
 39 26  1  0  0  0  0
 40 15  1  0  0  0  0
 41 22  1  0  0  0  0
 42 41  1  0  0  0  0
 43 50  1  0  0  0  0
 21 44  1  6  0  0  0
 45 43  1  0  0  0  0
 46  8  1  0  0  0  0
 47 39  1  0  0  0  0
 48 39  2  0  0  0  0
 49 48  1  0  0  0  0
 50 47  2  0  0  0  0
 51 17  1  0  0  0  0
 30 52  1  1  0  0  0
 34 53  1  6  0  0  0
 54 40  1  0  0  0  0
 40 55  1  6  0  0  0
 56 54  1  0  0  0  0
 15 57  1  1  0  0  0
  3 58  1  6  0  0  0
  1 59  1  1  0  0  0
 16 60  1  6  0  0  0
 29 61  1  6  0  0  0
  7  3  1  0  0  0  0
 20  9  1  0  0  0  0
 14  6  1  0  0  0  0
 17 21  1  0  0  0  0
 30 15  1  0  0  0  0
 43 49  2  0  0  0  0
M  END
>  <IDNUMBER>
F3409-1015

>  <Chemical_Name>
(1'R,2R,4'S,5S,6R,8'R,10'E,12'S,13'S,14'E,16'E,20'R,21'R,24'S)-6-[(2S)-butan-2-yl]-12',24'-dihydroxy-5,11',13',22'-tetramethyl-2'-oxo-3',7',19'-trioxaspiro[oxane-2,6'-tetracyclo[15.6.1.1?,?.0??,??]pentacosane]-10',14',16',22'-tetraen-21'-yl 3-[(4-fluorophenyl)carbamoyl]propanoate

>  <PriceCoeff>
7.00

>  <MW>
779.94

>  <Description>
solid

>  <FSP3>
0.61

>  <clogP>
7.00

>  <TPSA>
149.85

>  <Acceptor>
10

>  <Donor>
3

>  <RotBonds>
8

>  <HAC>
56

$$$$
F3409-1016
  Mrv2219 10102508112D          

 61 66  0  0  0  0            999 V2000
    4.2949   -5.3748    0.0000 C   0  0  2  0  0  0  0  0  0  0  0  0
    3.5709   -5.8247    0.0000 C   0  0  1  0  0  0  0  0  0  0  0  0
    3.5709   -6.6591    0.0000 C   0  0  1  0  0  0  0  0  0  0  0  0
    4.2867   -4.5280    0.0000 C   0  0  0  0  0  0  0  0  0  0  0  0
    4.9617   -5.7756    0.0000 C   0  0  0  0  0  0  0  0  0  0  0  0
    5.7142   -2.0452    0.0000 C   0  0  2  0  0  0  0  0  0  0  0  0
    4.2949   -7.0600    0.0000 C   0  0  1  0  0  0  0  0  0  0  0  0
    4.9617   -6.6591    0.0000 C   0  0  0  0  0  0  0  0  0  0  0  0
    2.8019   -6.9373    0.0000 O   0  0  0  0  0  0  0  0  0  0  0  0
    2.8019   -5.5915    0.0000 C   0  0  0  0  0  0  0  0  0  0  0  0
    5.7142   -1.1944    0.0000 O   0  0  0  0  0  0  0  0  0  0  0  0
    4.9617   -4.1272    0.0000 O   0  0  0  0  0  0  0  0  0  0  0  0
    5.7142   -2.8960    0.0000 C   0  0  0  0  0  0  0  0  0  0  0  0
    4.9944   -1.6157    0.0000 O   0  0  0  0  0  0  0  0  0  0  0  0
    6.4260   -0.8303    0.0000 C   0  0  1  0  0  0  0  0  0  0  0  0
    4.9617   -3.2887    0.0000 C   0  0  2  0  0  0  0  0  0  0  0  0
    2.1638   -1.5626    0.0000 C   0  0  0  0  0  0  0  0  0  0  0  0
    4.3276   -7.8862    0.0000 O   0  0  0  0  0  0  0  0  0  0  0  0
    2.8756   -1.9879    0.0000 C   0  0  0  0  0  0  0  0  0  0  0  0
    2.3111   -6.2092    0.0000 C   0  0  0  0  0  0  0  0  0  0  0  0
    1.4235   -1.9879    0.0000 C   0  0  2  0  0  0  0  0  0  0  0  0
    5.0476   -8.2830    0.0000 C   0  0  0  0  0  0  0  0  0  0  0  0
    5.7020  -10.2628    0.0000 C   0  0  0  0  0  0  0  0  0  0  0  0
    2.8019   -4.7285    0.0000 C   0  0  0  0  0  0  0  0  0  0  0  0
    3.5709   -4.1027    0.0000 O   0  0  0  0  0  0  0  0  0  0  0  0
    6.2664  -10.6595    0.0000 N   0  0  0  0  0  0  0  0  0  0  0  0
    2.2456   -4.3194    0.0000 C   0  0  0  0  0  0  0  0  0  0  0  0
    4.2949   -2.8796    0.0000 C   0  0  0  0  0  0  0  0  0  0  0  0
    4.2949   -2.0125    0.0000 C   0  0  1  0  0  0  0  0  0  0  0  0
    7.0846   -1.2558    0.0000 C   0  0  2  0  0  0  0  0  0  0  0  0
    2.2456   -3.4236    0.0000 C   0  0  0  0  0  0  0  0  0  0  0  0
    3.5628   -4.9126    0.0000 O   0  0  0  0  0  0  0  0  0  0  0  0
    6.3687   -2.4051    0.0000 C   0  0  0  0  0  0  0  0  0  0  0  0
    1.4235   -2.8960    0.0000 C   0  0  2  0  0  0  0  0  0  0  0  0
    5.7470   -7.8413    0.0000 O   0  0  0  0  0  0  0  0  0  0  0  0
    5.0802  -10.5573    0.0000 O   0  0  0  0  0  0  0  0  0  0  0  0
    7.0968   -2.0206    0.0000 C   0  0  0  0  0  0  0  0  0  0  0  0
    3.5954   -1.5626    0.0000 C   0  0  0  0  0  0  0  0  0  0  0  0
    6.2051  -11.3427    0.0000 C   0  0  0  0  0  0  0  0  0  0  0  0
    6.1069   -0.0695    0.0000 C   0  0  2  0  0  0  0  0  0  0  0  0
    5.0680   -9.1133    0.0000 C   0  0  0  0  0  0  0  0  0  0  0  0
    5.7633   -9.5838    0.0000 C   0  0  0  0  0  0  0  0  0  0  0  0
    6.0865  -12.7047    0.0000 C   0  0  0  0  0  0  0  0  0  0  0  0
    0.7363   -1.5626    0.0000 O   0  0  0  0  0  0  0  0  0  0  0  0
    6.0293  -13.3919    0.0000 Cl  0  0  0  0  0  0  0  0  0  0  0  0
    5.6693   -7.0804    0.0000 C   0  0  0  0  0  0  0  0  0  0  0  0
    6.7695  -11.7353    0.0000 C   0  0  0  0  0  0  0  0  0  0  0  0
    5.5875  -11.6330    0.0000 C   0  0  0  0  0  0  0  0  0  0  0  0
    5.5261  -12.3161    0.0000 C   0  0  0  0  0  0  0  0  0  0  0  0
    6.7123  -12.4143    0.0000 C   0  0  0  0  0  0  0  0  0  0  0  0
    2.1474   -0.6462    0.0000 C   0  0  0  0  0  0  0  0  0  0  0  0
    7.8044   -0.8671    0.0000 C   0  0  0  0  0  0  0  0  0  0  0  0
    0.7363   -3.2887    0.0000 C   0  0  0  0  0  0  0  0  0  0  0  0
    5.3053    0.0532    0.0000 C   0  0  0  0  0  0  0  0  0  0  0  0
    6.6919    0.6136    0.0000 C   0  0  0  0  0  0  0  0  0  0  0  0
    5.1539    0.8835    0.0000 C   0  0  0  0  0  0  0  0  0  0  0  0
    7.0395   -0.2864    0.0000 H   0  0  0  0  0  0  0  0  0  0  0  0
    3.5628   -7.5754    0.0000 H   0  0  0  0  0  0  0  0  0  0  0  0
    4.9944   -4.9494    0.0000 H   0  0  0  0  0  0  0  0  0  0  0  0
    5.6283   -3.7591    0.0000 H   0  0  0  0  0  0  0  0  0  0  0  0
    4.3194   -0.9898    0.0000 H   0  0  0  0  0  0  0  0  0  0  0  0
  2  1  1  0  0  0  0
  3  2  1  0  0  0  0
  4  1  1  0  0  0  0
  5  1  1  0  0  0  0
  6 13  1  0  0  0  0
  7  8  1  0  0  0  0
  8  5  2  0  0  0  0
  9  3  1  0  0  0  0
 10  2  1  0  0  0  0
 11  6  1  0  0  0  0
 12  4  1  0  0  0  0
 13 16  1  0  0  0  0
 14 29  1  0  0  0  0
 15 11  1  0  0  0  0
 16 12  1  0  0  0  0
 17 19  2  0  0  0  0
  7 18  1  1  0  0  0
 19 38  1  0  0  0  0
 20 10  1  0  0  0  0
 21 34  1  0  0  0  0
 22 18  1  0  0  0  0
 23 42  1  0  0  0  0
 24 10  2  0  0  0  0
 25  4  2  0  0  0  0
 26 23  1  0  0  0  0
 27 24  1  0  0  0  0
 28 16  1  0  0  0  0
 29 28  1  0  0  0  0
 30 37  1  0  0  0  0
 31 27  2  0  0  0  0
  2 32  1  6  0  0  0
  6 33  1  1  0  0  0
 34 31  1  0  0  0  0
 35 22  2  0  0  0  0
 36 23  2  0  0  0  0
 37 33  1  0  0  0  0
 38 29  1  0  0  0  0
 39 26  1  0  0  0  0
 40 15  1  0  0  0  0
 41 22  1  0  0  0  0
 42 41  1  0  0  0  0
 43 50  1  0  0  0  0
 21 44  1  6  0  0  0
 45 43  1  0  0  0  0
 46  8  1  0  0  0  0
 47 39  1  0  0  0  0
 48 39  2  0  0  0  0
 49 48  1  0  0  0  0
 50 47  2  0  0  0  0
 51 17  1  0  0  0  0
 30 52  1  1  0  0  0
 34 53  1  6  0  0  0
 54 40  1  0  0  0  0
 40 55  1  6  0  0  0
 56 54  1  0  0  0  0
 15 57  1  1  0  0  0
  3 58  1  6  0  0  0
  1 59  1  1  0  0  0
 16 60  1  6  0  0  0
 29 61  1  6  0  0  0
  7  3  1  0  0  0  0
 20  9  1  0  0  0  0
 14  6  1  0  0  0  0
 17 21  1  0  0  0  0
 30 15  1  0  0  0  0
 43 49  2  0  0  0  0
M  END
>  <IDNUMBER>
F3409-1016

>  <Chemical_Name>
(1'R,2R,4'S,5S,6R,8'R,10'E,12'S,13'S,14'E,16'E,20'R,21'R,24'S)-6-[(2S)-butan-2-yl]-12',24'-dihydroxy-5,11',13',22'-tetramethyl-2'-oxo-3',7',19'-trioxaspiro[oxane-2,6'-tetracyclo[15.6.1.1?,?.0??,??]pentacosane]-10',14',16',22'-tetraen-21'-yl 3-[(4-chlorophenyl)carbamoyl]propanoate

>  <PriceCoeff>
7.00

>  <MW>
796.40

>  <Description>
solid

>  <FSP3>
0.61

>  <clogP>
7.57

>  <TPSA>
149.85

>  <Acceptor>
10

>  <Donor>
3

>  <RotBonds>
8

>  <HAC>
56

$$$$
F3409-1066
  Mrv2219 10102508112D          

 64 70  0  0  0  0            999 V2000
    3.3411   -4.1983    0.0000 C   0  0  2  0  0  0  0  0  0  0  0  0
    2.6176   -4.6499    0.0000 C   0  0  1  0  0  0  0  0  0  0  0  0
    2.6176   -5.4653    0.0000 C   0  0  1  0  0  0  0  0  0  0  0  0
    3.3327   -3.3620    0.0000 C   0  0  0  0  0  0  0  0  0  0  0  0
    4.0018   -4.5997    0.0000 C   0  0  0  0  0  0  0  0  0  0  0  0
    4.7419   -0.9115    0.0000 C   0  0  2  0  0  0  0  0  0  0  0  0
    3.3411   -5.8626    0.0000 C   0  0  1  0  0  0  0  0  0  0  0  0
    4.0018   -5.4653    0.0000 C   0  0  0  0  0  0  0  0  0  0  0  0
    1.8608   -5.7413    0.0000 O   0  0  0  0  0  0  0  0  0  0  0  0
    1.8608   -4.4115    0.0000 C   0  0  0  0  0  0  0  0  0  0  0  0
    4.7419   -0.0669    0.0000 O   0  0  0  0  0  0  0  0  0  0  0  0
    4.0018   -2.9731    0.0000 O   0  0  0  0  0  0  0  0  0  0  0  0
    4.7419   -1.7520    0.0000 C   0  0  0  0  0  0  0  0  0  0  0  0
    4.0311   -0.4892    0.0000 O   0  0  0  0  0  0  0  0  0  0  0  0
    5.4402    0.2843    0.0000 C   0  0  1  0  0  0  0  0  0  0  0  0
    4.0018   -2.1451    0.0000 C   0  0  2  0  0  0  0  0  0  0  0  0
    6.9874   -7.8154    0.0000 C   0  0  0  0  0  0  0  0  0  0  0  0
    6.9623   -6.9874    0.0000 N   0  0  0  0  0  0  0  0  0  0  0  0
    1.2336   -0.4391    0.0000 C   0  0  0  0  0  0  0  0  0  0  0  0
    3.3662   -6.6821    0.0000 O   0  0  0  0  0  0  0  0  0  0  0  0
    1.9402   -0.8573    0.0000 C   0  0  0  0  0  0  0  0  0  0  0  0
    6.2347   -6.5943    0.0000 C   0  0  0  0  0  0  0  0  0  0  0  0
    1.3841   -5.0221    0.0000 C   0  0  0  0  0  0  0  0  0  0  0  0
    0.5060   -0.8573    0.0000 C   0  0  2  0  0  0  0  0  0  0  0  0
    4.0979   -7.0752    0.0000 C   0  0  0  0  0  0  0  0  0  0  0  0
    7.7150   -8.2042    0.0000 C   0  0  0  0  0  0  0  0  0  0  0  0
    1.8608   -3.5627    0.0000 C   0  0  0  0  0  0  0  0  0  0  0  0
    2.6176   -2.9480    0.0000 O   0  0  0  0  0  0  0  0  0  0  0  0
    1.3172   -3.1571    0.0000 C   0  0  0  0  0  0  0  0  0  0  0  0
    3.3411   -1.7395    0.0000 C   0  0  0  0  0  0  0  0  0  0  0  0
    3.3411   -0.8781    0.0000 C   0  0  1  0  0  0  0  0  0  0  0  0
    6.0884   -0.1338    0.0000 C   0  0  2  0  0  0  0  0  0  0  0  0
    1.3172   -2.2789    0.0000 C   0  0  0  0  0  0  0  0  0  0  0  0
    2.6093   -3.7467    0.0000 O   0  0  0  0  0  0  0  0  0  0  0  0
    5.3859   -1.2712    0.0000 C   0  0  0  0  0  0  0  0  0  0  0  0
    0.5060   -1.7520    0.0000 C   0  0  2  0  0  0  0  0  0  0  0  0
    6.2096   -5.7664    0.0000 O   0  0  0  0  0  0  0  0  0  0  0  0
    4.1230   -7.8990    0.0000 O   0  0  0  0  0  0  0  0  0  0  0  0
    6.1009   -0.8865    0.0000 C   0  0  0  0  0  0  0  0  0  0  0  0
    2.6386   -0.4391    0.0000 C   0  0  0  0  0  0  0  0  0  0  0  0
    7.7401   -9.0239    0.0000 C   0  0  0  0  0  0  0  0  0  0  0  0
    5.1266    1.0287    0.0000 C   0  0  2  0  0  0  0  0  0  0  0  0
    5.5280   -7.0293    0.0000 C   0  0  0  0  0  0  0  0  0  0  0  0
    4.8004   -6.6362    0.0000 C   0  0  0  0  0  0  0  0  0  0  0  0
   -0.1714   -0.4391    0.0000 O   0  0  0  0  0  0  0  0  0  0  0  0
    4.6917   -5.8835    0.0000 C   0  0  0  0  0  0  0  0  0  0  0  0
    6.2807   -8.2461    0.0000 C   0  0  0  0  0  0  0  0  0  0  0  0
    1.2211    0.4642    0.0000 C   0  0  0  0  0  0  0  0  0  0  0  0
    6.3058   -9.0740    0.0000 C   0  0  0  0  0  0  0  0  0  0  0  0
    8.4092   -7.7694    0.0000 C   0  0  0  0  0  0  0  0  0  0  0  0
    7.0376   -9.4670    0.0000 C   0  0  0  0  0  0  0  0  0  0  0  0
    6.7992    0.2426    0.0000 C   0  0  0  0  0  0  0  0  0  0  0  0
   -0.1714   -2.1451    0.0000 C   0  0  0  0  0  0  0  0  0  0  0  0
    4.3363    1.1541    0.0000 C   0  0  0  0  0  0  0  0  0  0  0  0
    8.4635   -9.4128    0.0000 C   0  0  0  0  0  0  0  0  0  0  0  0
    5.7036    1.7019    0.0000 C   0  0  0  0  0  0  0  0  0  0  0  0
    4.1816    1.9695    0.0000 C   0  0  0  0  0  0  0  0  0  0  0  0
    9.1326   -8.1541    0.0000 C   0  0  0  0  0  0  0  0  0  0  0  0
    9.1619   -8.9778    0.0000 C   0  0  0  0  0  0  0  0  0  0  0  0
    4.6541   -2.6051    0.0000 H   0  0  0  0  0  0  0  0  0  0  0  0
    3.3578    0.1212    0.0000 H   0  0  0  0  0  0  0  0  0  0  0  0
    6.0423    0.8196    0.0000 H   0  0  0  0  0  0  0  0  0  0  0  0
    2.6093   -6.3685    0.0000 H   0  0  0  0  0  0  0  0  0  0  0  0
    4.0311   -3.7843    0.0000 H   0  0  0  0  0  0  0  0  0  0  0  0
  2  1  1  0  0  0  0
  3  2  1  0  0  0  0
  4  1  1  0  0  0  0
  5  1  1  0  0  0  0
  6 13  1  0  0  0  0
  7  8  1  0  0  0  0
  8  5  2  0  0  0  0
  9  3  1  0  0  0  0
 10  2  1  0  0  0  0
 11  6  1  0  0  0  0
 12  4  1  0  0  0  0
 13 16  1  0  0  0  0
 14 31  1  0  0  0  0
 15 11  1  0  0  0  0
 16 12  1  0  0  0  0
 17 18  1  0  0  0  0
 18 22  1  0  0  0  0
 19 21  2  0  0  0  0
  7 20  1  1  0  0  0
 21 40  1  0  0  0  0
 22 43  1  0  0  0  0
 23 10  1  0  0  0  0
 24 36  1  0  0  0  0
 25 20  1  0  0  0  0
 26 17  1  0  0  0  0
 27 10  2  0  0  0  0
 28  4  2  0  0  0  0
 29 27  1  0  0  0  0
 30 16  1  0  0  0  0
 31 30  1  0  0  0  0
 32 39  1  0  0  0  0
 33 29  2  0  0  0  0
  2 34  1  6  0  0  0
  6 35  1  1  0  0  0
 36 33  1  0  0  0  0
 37 22  2  0  0  0  0
 38 25  2  0  0  0  0
 39 35  1  0  0  0  0
 40 31  1  0  0  0  0
 41 26  1  0  0  0  0
 42 15  1  0  0  0  0
 43 44  1  0  0  0  0
 44 25  1  0  0  0  0
 24 45  1  6  0  0  0
 46  8  1  0  0  0  0
 47 17  2  0  0  0  0
 48 19  1  0  0  0  0
 49 47  1  0  0  0  0
 50 26  2  0  0  0  0
 51 41  1  0  0  0  0
 32 52  1  1  0  0  0
 36 53  1  6  0  0  0
 54 42  1  0  0  0  0
 55 41  2  0  0  0  0
 42 56  1  6  0  0  0
 57 54  1  0  0  0  0
 58 50  1  0  0  0  0
 59 58  2  0  0  0  0
 16 60  1  6  0  0  0
 31 61  1  6  0  0  0
 15 62  1  1  0  0  0
  3 63  1  6  0  0  0
  1 64  1  1  0  0  0
  7  3  1  0  0  0  0
 23  9  1  0  0  0  0
 14  6  1  0  0  0  0
 19 24  1  0  0  0  0
 32 15  1  0  0  0  0
 51 49  2  0  0  0  0
 59 55  1  0  0  0  0
M  END
>  <IDNUMBER>
F3409-1066

>  <Chemical_Name>
(1'R,2R,4'S,5S,6R,8'R,10'E,12'S,13'S,14'E,16'E,20'R,21'R,24'S)-6-[(2S)-butan-2-yl]-12',24'-dihydroxy-5,11',13',22'-tetramethyl-2'-oxo-3',7',19'-trioxaspiro[oxane-2,6'-tetracyclo[15.6.1.1?,?.0??,??]pentacosane]-10',14',16',22'-tetraen-21'-yl 3-[(naphthalen-1-yl)carbamoyl]propanoate

>  <PriceCoeff>
7.00

>  <MW>
812.01

>  <Description>
solid

>  <FSP3>
0.56

>  <clogP>
7.78

>  <TPSA>
149.85

>  <Acceptor>
10

>  <Donor>
3

>  <RotBonds>
8

>  <HAC>
59

$$$$
F3409-1067
  Mrv2219 10102508112D          

 62 67  0  0  0  0            999 V2000
    6.3957   -6.4457    0.0000 C   0  0  2  0  0  0  0  0  0  0  0  0
    5.6703   -6.8960    0.0000 C   0  0  1  0  0  0  0  0  0  0  0  0
    5.6703   -7.7131    0.0000 C   0  0  1  0  0  0  0  0  0  0  0  0
    6.3873   -5.6077    0.0000 C   0  0  0  0  0  0  0  0  0  0  0  0
    7.0544   -6.8460    0.0000 C   0  0  0  0  0  0  0  0  0  0  0  0
    7.7966   -3.1520    0.0000 C   0  0  2  0  0  0  0  0  0  0  0  0
    6.3957   -8.1134    0.0000 C   0  0  1  0  0  0  0  0  0  0  0  0
    7.0544   -7.7131    0.0000 C   0  0  0  0  0  0  0  0  0  0  0  0
    4.9114   -7.9883    0.0000 O   0  0  0  0  0  0  0  0  0  0  0  0
    4.9114   -6.6584    0.0000 C   0  0  0  0  0  0  0  0  0  0  0  0
    7.7966   -2.3056    0.0000 O   0  0  0  0  0  0  0  0  0  0  0  0
    7.0544   -5.2158    0.0000 O   0  0  0  0  0  0  0  0  0  0  0  0
    7.7966   -3.9942    0.0000 C   0  0  0  0  0  0  0  0  0  0  0  0
    7.0836   -2.7267    0.0000 O   0  0  0  0  0  0  0  0  0  0  0  0
    8.4970   -1.9512    0.0000 C   0  0  1  0  0  0  0  0  0  0  0  0
    7.0544   -4.3860    0.0000 C   0  0  2  0  0  0  0  0  0  0  0  0
    4.2819   -2.6767    0.0000 C   0  0  0  0  0  0  0  0  0  0  0  0
    6.4207   -8.9348    0.0000 O   0  0  0  0  0  0  0  0  0  0  0  0
    4.9906   -3.0936    0.0000 C   0  0  0  0  0  0  0  0  0  0  0  0
    4.4320   -7.2713    0.0000 C   0  0  0  0  0  0  0  0  0  0  0  0
    3.5522   -3.0936    0.0000 C   0  0  2  0  0  0  0  0  0  0  0  0
    7.1545   -9.3266    0.0000 C   0  0  0  0  0  0  0  0  0  0  0  0
    9.2933   -8.8430    0.0000 C   0  0  0  0  0  0  0  0  0  0  0  0
    4.9114   -5.8078    0.0000 C   0  0  0  0  0  0  0  0  0  0  0  0
    5.6703   -5.1908    0.0000 O   0  0  0  0  0  0  0  0  0  0  0  0
   10.0230   -9.2391    0.0000 N   0  0  0  0  0  0  0  0  0  0  0  0
    4.3652   -5.3992    0.0000 C   0  0  0  0  0  0  0  0  0  0  0  0
    6.3957   -3.9817    0.0000 C   0  0  0  0  0  0  0  0  0  0  0  0
    6.3957   -3.1187    0.0000 C   0  0  1  0  0  0  0  0  0  0  0  0
    9.1474   -2.3723    0.0000 C   0  0  2  0  0  0  0  0  0  0  0  0
    4.3652   -4.5195    0.0000 C   0  0  0  0  0  0  0  0  0  0  0  0
    5.6618   -5.9913    0.0000 O   0  0  0  0  0  0  0  0  0  0  0  0
    8.4428   -3.5105    0.0000 C   0  0  0  0  0  0  0  0  0  0  0  0
    3.5522   -3.9942    0.0000 C   0  0  2  0  0  0  0  0  0  0  0  0
    7.1795  -10.1522    0.0000 O   0  0  0  0  0  0  0  0  0  0  0  0
    9.2683   -8.0133    0.0000 O   0  0  0  0  0  0  0  0  0  0  0  0
    9.1599   -3.1270    0.0000 C   0  0  0  0  0  0  0  0  0  0  0  0
    5.6953   -2.6767    0.0000 C   0  0  0  0  0  0  0  0  0  0  0  0
   10.7359   -8.8222    0.0000 C   0  0  0  0  0  0  0  0  0  0  0  0
    8.1843   -1.2050    0.0000 C   0  0  2  0  0  0  0  0  0  0  0  0
    7.8549   -8.8889    0.0000 C   0  0  0  0  0  0  0  0  0  0  0  0
    8.5846   -9.2808    0.0000 C   0  0  0  0  0  0  0  0  0  0  0  0
    2.8726   -2.6767    0.0000 O   0  0  0  0  0  0  0  0  0  0  0  0
   12.1534   -7.9883    0.0000 C   0  0  0  0  0  0  0  0  0  0  0  0
    7.7466   -8.1343    0.0000 C   0  0  0  0  0  0  0  0  0  0  0  0
   11.4489   -9.2308    0.0000 C   0  0  0  0  0  0  0  0  0  0  0  0
   10.7234   -8.0008    0.0000 C   0  0  0  0  0  0  0  0  0  0  0  0
   11.4322   -7.5840    0.0000 C   0  0  0  0  0  0  0  0  0  0  0  0
   12.1576   -8.8138    0.0000 C   0  0  0  0  0  0  0  0  0  0  0  0
   12.8623   -7.5672    0.0000 O   0  0  0  0  0  0  0  0  0  0  0  0
    4.2694   -1.7719    0.0000 C   0  0  0  0  0  0  0  0  0  0  0  0
    9.8604   -1.9929    0.0000 C   0  0  0  0  0  0  0  0  0  0  0  0
    2.8685   -4.3860    0.0000 C   0  0  0  0  0  0  0  0  0  0  0  0
    7.3921   -1.0799    0.0000 C   0  0  0  0  0  0  0  0  0  0  0  0
    8.7597   -0.5295    0.0000 C   0  0  0  0  0  0  0  0  0  0  0  0
   12.8539   -6.7417    0.0000 C   0  0  0  0  0  0  0  0  0  0  0  0
    7.2378   -0.2627    0.0000 C   0  0  0  0  0  0  0  0  0  0  0  0
    5.6618   -8.6179    0.0000 H   0  0  0  0  0  0  0  0  0  0  0  0
    7.0836   -6.0288    0.0000 H   0  0  0  0  0  0  0  0  0  0  0  0
    7.7090   -4.8488    0.0000 H   0  0  0  0  0  0  0  0  0  0  0  0
    6.4123   -2.1138    0.0000 H   0  0  0  0  0  0  0  0  0  0  0  0
    9.1015   -1.4134    0.0000 H   0  0  0  0  0  0  0  0  0  0  0  0
  2  1  1  0  0  0  0
  3  2  1  0  0  0  0
  4  1  1  0  0  0  0
  5  1  1  0  0  0  0
  6 13  1  0  0  0  0
  7  8  1  0  0  0  0
  8  5  2  0  0  0  0
  9  3  1  0  0  0  0
 10  2  1  0  0  0  0
 11  6  1  0  0  0  0
 12  4  1  0  0  0  0
 13 16  1  0  0  0  0
 14 29  1  0  0  0  0
 15 11  1  0  0  0  0
 16 12  1  0  0  0  0
 17 19  2  0  0  0  0
  7 18  1  1  0  0  0
 19 38  1  0  0  0  0
 20 10  1  0  0  0  0
 21 34  1  0  0  0  0
 22 18  1  0  0  0  0
 23 42  1  0  0  0  0
 24 10  2  0  0  0  0
 25  4  2  0  0  0  0
 26 23  1  0  0  0  0
 27 24  1  0  0  0  0
 28 16  1  0  0  0  0
 29 28  1  0  0  0  0
 30 37  1  0  0  0  0
 31 27  2  0  0  0  0
  2 32  1  6  0  0  0
  6 33  1  1  0  0  0
 34 31  1  0  0  0  0
 35 22  2  0  0  0  0
 36 23  2  0  0  0  0
 37 33  1  0  0  0  0
 38 29  1  0  0  0  0
 39 26  1  0  0  0  0
 40 15  1  0  0  0  0
 41 22  1  0  0  0  0
 42 41  1  0  0  0  0
 21 43  1  6  0  0  0
 44 48  1  0  0  0  0
 45  8  1  0  0  0  0
 46 39  2  0  0  0  0
 47 39  1  0  0  0  0
 48 47  2  0  0  0  0
 49 46  1  0  0  0  0
 50 44  1  0  0  0  0
 51 17  1  0  0  0  0
 30 52  1  1  0  0  0
 34 53  1  6  0  0  0
 54 40  1  0  0  0  0
 40 55  1  6  0  0  0
 56 50  1  0  0  0  0
 57 54  1  0  0  0  0
  3 58  1  6  0  0  0
  1 59  1  1  0  0  0
 16 60  1  6  0  0  0
 29 61  1  6  0  0  0
 15 62  1  1  0  0  0
  7  3  1  0  0  0  0
 20  9  1  0  0  0  0
 14  6  1  0  0  0  0
 17 21  1  0  0  0  0
 30 15  1  0  0  0  0
 44 49  2  0  0  0  0
M  END
>  <IDNUMBER>
F3409-1067

>  <Chemical_Name>
(1'R,2R,4'S,5S,6R,8'R,10'E,12'S,13'S,14'E,16'E,20'R,21'R,24'S)-6-[(2S)-butan-2-yl]-12',24'-dihydroxy-5,11',13',22'-tetramethyl-2'-oxo-3',7',19'-trioxaspiro[oxane-2,6'-tetracyclo[15.6.1.1?,?.0??,??]pentacosane]-10',14',16',22'-tetraen-21'-yl 3-[(4-methoxyphenyl)carbamoyl]propanoate

>  <PriceCoeff>
7.00

>  <MW>
791.98

>  <Description>
solid

>  <FSP3>
0.62

>  <clogP>
6.68

>  <TPSA>
159.08

>  <Acceptor>
11

>  <Donor>
3

>  <RotBonds>
9

>  <HAC>
57

$$$$
F3409-1068
  Mrv2219 10102508112D          

 61 65  0  0  0  0            999 V2000
    1.9989   -4.4641    0.0000 C   0  0  2  0  0  0  0  0  0  0  0  0
    1.2743   -4.9139    0.0000 C   0  0  1  0  0  0  0  0  0  0  0  0
    1.2743   -5.7300    0.0000 C   0  0  1  0  0  0  0  0  0  0  0  0
    1.9906   -3.6271    0.0000 C   0  0  0  0  0  0  0  0  0  0  0  0
    2.6568   -4.8639    0.0000 C   0  0  0  0  0  0  0  0  0  0  0  0
    3.3981   -1.1743    0.0000 C   0  0  2  0  0  0  0  0  0  0  0  0
    1.9989   -6.1298    0.0000 C   0  0  1  0  0  0  0  0  0  0  0  0
    2.6568   -5.7300    0.0000 C   0  0  0  0  0  0  0  0  0  0  0  0
    0.5164   -6.0049    0.0000 O   0  0  0  0  0  0  0  0  0  0  0  0
    0.5164   -4.6765    0.0000 C   0  0  0  0  0  0  0  0  0  0  0  0
    3.3981   -0.3290    0.0000 O   0  0  0  0  0  0  0  0  0  0  0  0
    2.6568   -3.2356    0.0000 O   0  0  0  0  0  0  0  0  0  0  0  0
    3.3981   -2.0155    0.0000 C   0  0  0  0  0  0  0  0  0  0  0  0
    2.6860   -0.7496    0.0000 O   0  0  0  0  0  0  0  0  0  0  0  0
    4.0976    0.0250    0.0000 C   0  0  1  0  0  0  0  0  0  0  0  0
    2.6568   -2.4069    0.0000 C   0  0  2  0  0  0  0  0  0  0  0  0
   -0.1082   -0.6996    0.0000 C   0  0  0  0  0  0  0  0  0  0  0  0
    2.0238   -6.9502    0.0000 O   0  0  0  0  0  0  0  0  0  0  0  0
    0.5955   -1.1161    0.0000 C   0  0  0  0  0  0  0  0  0  0  0  0
    0.0375   -5.2887    0.0000 C   0  0  0  0  0  0  0  0  0  0  0  0
   -0.8412   -1.1161    0.0000 C   0  0  2  0  0  0  0  0  0  0  0  0
    2.7567   -7.3416    0.0000 C   0  0  0  0  0  0  0  0  0  0  0  0
    8.4784   -7.1709    0.0000 C   0  0  0  0  0  0  0  0  0  0  0  0
    4.8930   -6.8586    0.0000 C   0  0  0  0  0  0  0  0  0  0  0  0
    0.5164   -3.8270    0.0000 C   0  0  0  0  0  0  0  0  0  0  0  0
    1.2743   -3.2107    0.0000 O   0  0  0  0  0  0  0  0  0  0  0  0
   -0.0292   -3.4188    0.0000 C   0  0  0  0  0  0  0  0  0  0  0  0
    1.9989   -2.0031    0.0000 C   0  0  0  0  0  0  0  0  0  0  0  0
    1.9989   -1.1410    0.0000 C   0  0  1  0  0  0  0  0  0  0  0  0
    7.7539   -6.7794    0.0000 C   0  0  0  0  0  0  0  0  0  0  0  0
    4.7473   -0.3956    0.0000 C   0  0  2  0  0  0  0  0  0  0  0  0
   -0.0292   -2.5402    0.0000 C   0  0  0  0  0  0  0  0  0  0  0  0
    1.2660   -4.0102    0.0000 O   0  0  0  0  0  0  0  0  0  0  0  0
    4.0435   -1.5324    0.0000 C   0  0  0  0  0  0  0  0  0  0  0  0
   -0.8412   -2.0155    0.0000 C   0  0  2  0  0  0  0  0  0  0  0  0
    2.7817   -8.1661    0.0000 O   0  0  0  0  0  0  0  0  0  0  0  0
    8.4993   -7.9954    0.0000 O   0  0  0  0  0  0  0  0  0  0  0  0
    4.8680   -6.0298    0.0000 O   0  0  0  0  0  0  0  0  0  0  0  0
    7.0502   -7.2126    0.0000 C   0  0  0  0  0  0  0  0  0  0  0  0
    4.7640   -1.1493    0.0000 C   0  0  0  0  0  0  0  0  0  0  0  0
    1.2993   -0.6996    0.0000 C   0  0  0  0  0  0  0  0  0  0  0  0
    5.6218   -7.2541    0.0000 N   0  0  0  0  0  0  0  0  0  0  0  0
    9.1780   -6.7378    0.0000 N   0  0  0  0  0  0  0  0  0  0  0  0
    3.7853    0.7704    0.0000 C   0  0  2  0  0  0  0  0  0  0  0  0
    3.4563   -6.9043    0.0000 C   0  0  0  0  0  0  0  0  0  0  0  0
    4.1851   -7.2958    0.0000 C   0  0  0  0  0  0  0  0  0  0  0  0
   -1.5199   -0.6996    0.0000 O   0  0  0  0  0  0  0  0  0  0  0  0
    3.3481   -6.1507    0.0000 C   0  0  0  0  0  0  0  0  0  0  0  0
   -0.1249    0.2041    0.0000 C   0  0  0  0  0  0  0  0  0  0  0  0
    6.3256   -6.8211    0.0000 C   0  0  0  0  0  0  0  0  0  0  0  0
    5.4594   -0.0167    0.0000 C   0  0  0  0  0  0  0  0  0  0  0  0
   -1.5199   -2.4069    0.0000 C   0  0  0  0  0  0  0  0  0  0  0  0
    9.9068   -7.1292    0.0000 C   0  0  0  0  0  0  0  0  0  0  0  0
    2.9941    0.8953    0.0000 C   0  0  0  0  0  0  0  0  0  0  0  0
    4.3600    1.4450    0.0000 C   0  0  0  0  0  0  0  0  0  0  0  0
    2.8401    1.7115    0.0000 C   0  0  0  0  0  0  0  0  0  0  0  0
    4.7015    0.5622    0.0000 H   0  0  0  0  0  0  0  0  0  0  0  0
    1.2660   -6.6337    0.0000 H   0  0  0  0  0  0  0  0  0  0  0  0
    2.6860   -4.0477    0.0000 H   0  0  0  0  0  0  0  0  0  0  0  0
    3.3106   -2.8692    0.0000 H   0  0  0  0  0  0  0  0  0  0  0  0
    2.0155   -0.1374    0.0000 H   0  0  0  0  0  0  0  0  0  0  0  0
  2  1  1  0  0  0  0
  3  2  1  0  0  0  0
  4  1  1  0  0  0  0
  5  1  1  0  0  0  0
  6 13  1  0  0  0  0
  7  8  1  0  0  0  0
  8  5  2  0  0  0  0
  9  3  1  0  0  0  0
 10  2  1  0  0  0  0
 11  6  1  0  0  0  0
 12  4  1  0  0  0  0
 13 16  1  0  0  0  0
 14 29  1  0  0  0  0
 15 11  1  0  0  0  0
 16 12  1  0  0  0  0
 17 19  2  0  0  0  0
  7 18  1  1  0  0  0
 19 41  1  0  0  0  0
 20 10  1  0  0  0  0
 21 35  1  0  0  0  0
 22 18  1  0  0  0  0
 23 30  1  0  0  0  0
 24 46  1  0  0  0  0
 25 10  2  0  0  0  0
 26  4  2  0  0  0  0
 27 25  1  0  0  0  0
 28 16  1  0  0  0  0
 29 28  1  0  0  0  0
 30 39  2  0  0  0  0
 31 40  1  0  0  0  0
 32 27  2  0  0  0  0
  2 33  1  6  0  0  0
  6 34  1  1  0  0  0
 35 32  1  0  0  0  0
 36 22  2  0  0  0  0
 37 23  2  0  0  0  0
 38 24  2  0  0  0  0
 39 50  1  0  0  0  0
 40 34  1  0  0  0  0
 41 29  1  0  0  0  0
 42 24  1  0  0  0  0
 43 23  1  0  0  0  0
 44 15  1  0  0  0  0
 45 22  1  0  0  0  0
 46 45  1  0  0  0  0
 21 47  1  6  0  0  0
 48  8  1  0  0  0  0
 49 17  1  0  0  0  0
 50 42  1  0  0  0  0
 31 51  1  1  0  0  0
 35 52  1  6  0  0  0
 53 43  1  0  0  0  0
 54 44  1  0  0  0  0
 44 55  1  6  0  0  0
 56 54  1  0  0  0  0
 15 57  1  1  0  0  0
  3 58  1  6  0  0  0
  1 59  1  1  0  0  0
 16 60  1  6  0  0  0
 29 61  1  6  0  0  0
  7  3  1  0  0  0  0
 20  9  1  0  0  0  0
 14  6  1  0  0  0  0
 17 21  1  0  0  0  0
 31 15  1  0  0  0  0
M  END
>  <IDNUMBER>
F3409-1068

>  <Chemical_Name>
(1'R,2R,4'S,5S,6R,8'R,10'E,12'S,13'S,14'E,16'E,20'R,21'R,24'S)-6-[(2S)-butan-2-yl]-12',24'-dihydroxy-5,11',13',22'-tetramethyl-2'-oxo-3',7',19'-trioxaspiro[oxane-2,6'-tetracyclo[15.6.1.1?,?.0??,??]pentacosane]-10',14',16',22'-tetraen-21'-yl 3-{[(2E)-3-(methylcarbamoyl)prop-2-en-1-yl]carbamoyl}propanoate

>  <PriceCoeff>
7.00

>  <MW>
782.97

>  <Description>
solid

>  <FSP3>
0.67

>  <clogP>
4.39

>  <TPSA>
178.95

>  <Acceptor>
11

>  <Donor>
4

>  <RotBonds>
10

>  <HAC>
56

$$$$
F3409-1070
  Mrv2219 10102508112D          

 58 63  0  0  1  0            999 V2000
    2.4758   -3.2836    0.0000 C   0  0  2  0  0  0  0  0  0  0  0  0
    1.7092   -2.9786    0.0000 C   0  0  1  0  0  0  0  0  0  0  0  0
    1.0497   -3.3413    0.0000 C   0  0  1  0  0  0  0  0  0  0  0  0
    3.1243   -2.7726    0.0000 C   0  0  0  0  0  0  0  0  0  0  0  0
    2.5088   -4.1080    0.0000 C   0  0  0  0  0  0  0  0  0  0  0  0
    5.9463   -2.3659    0.0000 C   0  0  2  0  0  0  0  0  0  0  0  0
    1.0827   -4.1657    0.0000 C   0  0  1  0  0  0  0  0  0  0  0  0
    1.8135   -4.5504    0.0000 C   0  0  0  0  0  0  0  0  0  0  0  0
    0.4149   -2.8138    0.0000 O   0  0  0  0  0  0  0  0  0  0  0  0
    1.5937   -2.1625    0.0000 C   0  0  0  0  0  0  0  0  0  0  0  0
    0.3820   -4.6026    0.0000 O   0  0  0  0  0  0  0  0  0  0  0  0
    6.0699   -3.1820    0.0000 O   0  0  0  0  0  0  0  0  0  0  0  0
    0.4149   -5.4269    0.0000 C   0  0  0  0  0  0  0  0  0  0  0  0
    3.8909   -3.0776    0.0000 O   0  0  0  0  0  0  0  0  0  0  0  0
    5.3033   -2.8769    0.0000 C   0  0  0  0  0  0  0  0  0  0  0  0
    5.8309   -1.5498    0.0000 O   0  0  0  0  0  0  0  0  0  0  0  0
    6.8338   -3.4870    0.0000 C   0  0  1  0  0  0  0  0  0  0  0  0
    4.5366   -2.5719    0.0000 C   0  0  2  0  0  0  0  0  0  0  0  0
    4.0640    0.6924    0.0000 C   0  0  0  0  0  0  0  0  0  0  0  0
   -2.4373   -5.5423    0.0000 C   0  0  0  0  0  0  0  0  0  0  0  0
   -0.2803   -5.8693    0.0000 C   0  0  0  0  0  0  0  0  0  0  0  0
    4.1822   -0.1237    0.0000 C   0  0  0  0  0  0  0  0  0  0  0  0
   -1.7064   -5.9270    0.0000 C   0  0  0  0  0  0  0  0  0  0  0  0
    0.7199   -2.0471    0.0000 C   0  0  0  0  0  0  0  0  0  0  0  0
    3.2974    0.9975    0.0000 C   0  0  2  0  0  0  0  0  0  0  0  0
   -1.0112   -5.4846    0.0000 C   0  0  0  0  0  0  0  0  0  0  0  0
    2.2367   -1.6515    0.0000 C   0  0  0  0  0  0  0  0  0  0  0  0
    3.0034   -1.9565    0.0000 O   0  0  0  0  0  0  0  0  0  0  0  0
    2.1213   -0.8354    0.0000 C   0  0  0  0  0  0  0  0  0  0  0  0
    4.4185   -1.7558    0.0000 C   0  0  0  0  0  0  0  0  0  0  0  0
    5.0642   -1.2448    0.0000 C   0  0  1  0  0  0  0  0  0  0  0  0
    1.1486   -5.8144    0.0000 O   0  0  0  0  0  0  0  0  0  0  0  0
   -2.4703   -4.7180    0.0000 O   0  0  0  0  0  0  0  0  0  0  0  0
    7.4795   -2.9731    0.0000 C   0  0  2  0  0  0  0  0  0  0  0  0
    2.7698   -0.3297    0.0000 C   0  0  0  0  0  0  0  0  0  0  0  0
    1.7586   -3.8030    0.0000 O   0  0  0  0  0  0  0  0  0  0  0  0
    6.5975   -1.8548    0.0000 C   0  0  0  0  0  0  0  0  0  0  0  0
    2.6489    0.4864    0.0000 C   0  0  2  0  0  0  0  0  0  0  0  0
    7.3641   -2.1598    0.0000 C   0  0  0  0  0  0  0  0  0  0  0  0
    4.9488   -0.4287    0.0000 C   0  0  0  0  0  0  0  0  0  0  0  0
    6.9520   -4.3031    0.0000 C   0  0  2  0  0  0  0  0  0  0  0  0
   -3.1325   -5.9792    0.0000 O   0  0  0  0  0  0  0  0  0  0  0  0
    3.1765    1.8135    0.0000 O   0  0  0  0  0  0  0  0  0  0  0  0
    1.8410   -5.3747    0.0000 C   0  0  0  0  0  0  0  0  0  0  0  0
   -0.2473   -6.6936    0.0000 C   0  0  0  0  0  0  0  0  0  0  0  0
    4.7098    1.2035    0.0000 C   0  0  0  0  0  0  0  0  0  0  0  0
   -1.6734   -6.7514    0.0000 C   0  0  0  0  0  0  0  0  0  0  0  0
   -0.9452   -7.1333    0.0000 C   0  0  0  0  0  0  0  0  0  0  0  0
    8.2462   -3.2809    0.0000 C   0  0  0  0  0  0  0  0  0  0  0  0
    1.8823    0.7914    0.0000 C   0  0  0  0  0  0  0  0  0  0  0  0
    7.7186   -4.6081    0.0000 C   0  0  0  0  0  0  0  0  0  0  0  0
    6.3062   -4.8142    0.0000 C   0  0  0  0  0  0  0  0  0  0  0  0
    7.8340   -5.4242    0.0000 C   0  0  0  0  0  0  0  0  0  0  0  0
    4.6521   -3.3826    0.0000 H   0  0  0  0  0  0  0  0  0  0  0  0
    2.3576   -2.4675    0.0000 H   0  0  0  0  0  0  0  0  0  0  0  0
    0.3078   -3.7041    0.0000 H   0  0  0  0  0  0  0  0  0  0  0  0
    6.1853   -3.9981    0.0000 H   0  0  0  0  0  0  0  0  0  0  0  0
    5.7127   -0.7337    0.0000 H   0  0  0  0  0  0  0  0  0  0  0  0
  2  1  1  0  0  0  0
  3  2  1  0  0  0  0
  4  1  1  0  0  0  0
  5  1  1  0  0  0  0
  6 15  1  0  0  0  0
  7  3  1  0  0  0  0
  8  5  2  0  0  0  0
  9  3  1  0  0  0  0
 10  2  1  0  0  0  0
  7 11  1  1  0  0  0
  6 12  1  6  0  0  0
 13 11  1  0  0  0  0
 14  4  1  0  0  0  0
 15 18  1  0  0  0  0
 16  6  1  0  0  0  0
 17 12  1  0  0  0  0
 18 14  1  0  0  0  0
 19 25  1  0  0  0  0
 20 23  1  0  0  0  0
 21 13  1  0  0  0  0
 22 40  1  4  0  0  0
 23 26  1  0  0  0  0
 24 10  1  0  0  0  0
 25 38  1  0  0  0  0
 26 21  2  0  0  0  0
 27 10  2  0  0  0  0
 28  4  2  0  0  0  0
 27 29  1  4  0  0  0
 30 18  1  0  0  0  0
 31 30  1  0  0  0  0
 32 13  2  0  0  0  0
 33 20  2  0  0  0  0
 34 17  1  0  0  0  0
 35 29  2  0  0  0  0
  2 36  1  6  0  0  0
 37  6  1  0  0  0  0
 38 35  1  0  0  0  0
 39 37  1  0  0  0  0
 40 31  1  0  0  0  0
 17 41  1  1  0  0  0
 42 20  1  0  0  0  0
 25 43  1  6  0  0  0
 44  8  1  0  0  0  0
 45 21  1  0  0  0  0
 46 19  1  0  0  0  0
 47 23  2  0  0  0  0
 48 45  2  0  0  0  0
 34 49  1  6  0  0  0
 38 50  1  6  0  0  0
 51 41  1  0  0  0  0
 41 52  1  6  0  0  0
 53 51  1  0  0  0  0
 18 54  1  6  0  0  0
  1 55  1  1  0  0  0
  3 56  1  6  0  0  0
 17 57  1  6  0  0  0
 31 58  1  6  0  0  0
  7  8  1  0  0  0  0
 24  9  1  0  0  0  0
 16 31  1  0  0  0  0
 34 39  1  0  0  0  0
 22 19  2  0  0  0  0
 47 48  1  0  0  0  0
M  END
>  <IDNUMBER>
F3409-1070

>  <Chemical_Name>
3-{[(1'R,2R,4'S,5S,6R,8'R,12'S,13'S,14'E,20'R,21'R,24'S)-6-[(2S)-butan-2-yl]-12',24'-dihydroxy-5,11',13',22'-tetramethyl-2'-oxo-3',7',19'-trioxaspiro[oxane-2,6'-tetracyclo[15.6.1.1?,?.0??,??]pentacosane]-10',14',16',22'-tetraen-21'-yloxy]carbonyl}benzoic acid

>  <PriceCoeff>
7.00

>  <CAS>
3054372-10-7

>  <MW>
734.88

>  <Description>
solid

>  <FSP3>
0.60

>  <clogP>
6.09

>  <TPSA>
158.05

>  <Acceptor>
11

>  <Donor>
2

>  <RotBonds>
6

>  <HAC>
53

$$$$
F3409-1072
  Mrv2219 10102508112D          

 59 64  0  0  1  0            999 V2000
    1.8082   -3.2839    0.0000 C   0  0  2  0  0  0  0  0  0  0  0  0
    1.0469   -2.9788    0.0000 C   0  0  1  0  0  0  0  0  0  0  0  0
    0.3820   -3.3416    0.0000 C   0  0  1  0  0  0  0  0  0  0  0  0
    2.4594   -2.7727    0.0000 C   0  0  0  0  0  0  0  0  0  0  0  0
    1.8412   -4.1082    0.0000 C   0  0  0  0  0  0  0  0  0  0  0  0
    5.2844   -2.3660    0.0000 C   0  0  2  0  0  0  0  0  0  0  0  0
    0.4150   -4.1659    0.0000 C   0  0  1  0  0  0  0  0  0  0  0  0
    1.1487   -4.5506    0.0000 C   0  0  0  0  0  0  0  0  0  0  0  0
   -0.2473   -5.4273    0.0000 C   0  0  0  0  0  0  0  0  0  0  0  0
   -0.2473   -2.8139    0.0000 O   0  0  0  0  0  0  0  0  0  0  0  0
    0.9261   -2.1627    0.0000 C   0  0  0  0  0  0  0  0  0  0  0  0
   -0.2803   -4.6029    0.0000 O   0  0  0  0  0  0  0  0  0  0  0  0
    5.4026   -3.1822    0.0000 O   0  0  0  0  0  0  0  0  0  0  0  0
    3.2262   -3.0778    0.0000 O   0  0  0  0  0  0  0  0  0  0  0  0
    4.6359   -2.8771    0.0000 C   0  0  0  0  0  0  0  0  0  0  0  0
    5.1635   -1.5499    0.0000 O   0  0  0  0  0  0  0  0  0  0  0  0
    6.1692   -3.4872    0.0000 C   0  0  1  0  0  0  0  0  0  0  0  0
    3.8692   -2.5721    0.0000 C   0  0  2  0  0  0  0  0  0  0  0  0
   -0.9452   -5.8697    0.0000 C   0  0  0  0  0  0  0  0  0  0  0  0
    3.3993    0.6925    0.0000 C   0  0  0  0  0  0  0  0  0  0  0  0
   -1.6735   -5.4849    0.0000 C   0  0  0  0  0  0  0  0  0  0  0  0
    3.5147   -0.1237    0.0000 C   0  0  0  0  0  0  0  0  0  0  0  0
    0.0577   -2.0473    0.0000 C   0  0  0  0  0  0  0  0  0  0  0  0
    2.6326    0.9975    0.0000 C   0  0  2  0  0  0  0  0  0  0  0  0
   -2.4374   -4.2786    0.0000 C   0  0  0  0  0  0  0  0  0  0  0  0
    1.5718   -1.6516    0.0000 C   0  0  0  0  0  0  0  0  0  0  0  0
   -1.7065   -4.6606    0.0000 C   0  0  0  0  0  0  0  0  0  0  0  0
    2.3412   -1.9566    0.0000 O   0  0  0  0  0  0  0  0  0  0  0  0
    1.4537   -0.8354    0.0000 C   0  0  0  0  0  0  0  0  0  0  0  0
    0.4809   -5.8147    0.0000 O   0  0  0  0  0  0  0  0  0  0  0  0
    3.7538   -1.7560    0.0000 C   0  0  0  0  0  0  0  0  0  0  0  0
    4.4022   -1.2448    0.0000 C   0  0  1  0  0  0  0  0  0  0  0  0
    6.8150   -2.9733    0.0000 C   0  0  2  0  0  0  0  0  0  0  0  0
    2.1050   -0.3298    0.0000 C   0  0  0  0  0  0  0  0  0  0  0  0
    1.0964   -3.8033    0.0000 O   0  0  0  0  0  0  0  0  0  0  0  0
    5.9301   -1.8549    0.0000 C   0  0  0  0  0  0  0  0  0  0  0  0
    1.9868    0.4864    0.0000 C   0  0  2  0  0  0  0  0  0  0  0  0
   -3.1327   -4.7183    0.0000 O   0  0  0  0  0  0  0  0  0  0  0  0
    6.6969   -2.1600    0.0000 C   0  0  0  0  0  0  0  0  0  0  0  0
    4.2813   -0.4287    0.0000 C   0  0  0  0  0  0  0  0  0  0  0  0
    6.2847   -4.3033    0.0000 C   0  0  2  0  0  0  0  0  0  0  0  0
    2.5144    1.8137    0.0000 O   0  0  0  0  0  0  0  0  0  0  0  0
   -2.4704   -3.4542    0.0000 O   0  0  0  0  0  0  0  0  0  0  0  0
    1.1789   -5.3751    0.0000 C   0  0  0  0  0  0  0  0  0  0  0  0
    4.0423    1.2036    0.0000 C   0  0  0  0  0  0  0  0  0  0  0  0
   -2.3714   -5.9274    0.0000 C   0  0  0  0  0  0  0  0  0  0  0  0
   -0.9123   -6.6941    0.0000 C   0  0  0  0  0  0  0  0  0  0  0  0
    7.5789   -3.2811    0.0000 C   0  0  0  0  0  0  0  0  0  0  0  0
    1.2201    0.7914    0.0000 C   0  0  0  0  0  0  0  0  0  0  0  0
    7.0513   -4.6084    0.0000 C   0  0  0  0  0  0  0  0  0  0  0  0
    5.6416   -4.8145    0.0000 C   0  0  0  0  0  0  0  0  0  0  0  0
   -2.3386   -6.7463    0.0000 C   0  0  0  0  0  0  0  0  0  0  0  0
    7.1722   -5.4246    0.0000 C   0  0  0  0  0  0  0  0  0  0  0  0
   -1.6076   -7.1337    0.0000 C   0  0  0  0  0  0  0  0  0  0  0  0
    1.6928   -2.4677    0.0000 H   0  0  0  0  0  0  0  0  0  0  0  0
   -0.3545   -3.7043    0.0000 H   0  0  0  0  0  0  0  0  0  0  0  0
    5.5234   -3.9983    0.0000 H   0  0  0  0  0  0  0  0  0  0  0  0
    5.0481   -0.7338    0.0000 H   0  0  0  0  0  0  0  0  0  0  0  0
    3.9900   -3.3828    0.0000 H   0  0  0  0  0  0  0  0  0  0  0  0
  2  1  1  0  0  0  0
  3  2  1  0  0  0  0
  4  1  1  0  0  0  0
  5  1  1  0  0  0  0
  6 15  1  0  0  0  0
  7  3  1  0  0  0  0
  8  5  2  0  0  0  0
  9 12  1  0  0  0  0
 10  3  1  0  0  0  0
 11  2  1  0  0  0  0
  7 12  1  1  0  0  0
  6 13  1  6  0  0  0
 14  4  1  0  0  0  0
 15 18  1  0  0  0  0
 16  6  1  0  0  0  0
 17 13  1  0  0  0  0
 18 14  1  0  0  0  0
 19  9  1  0  0  0  0
 20 24  1  0  0  0  0
 21 19  2  0  0  0  0
 22 40  1  4  0  0  0
 23 11  1  0  0  0  0
 24 37  1  0  0  0  0
 25 27  1  0  0  0  0
 26 11  2  0  0  0  0
 27 21  1  0  0  0  0
 28  4  2  0  0  0  0
 26 29  1  4  0  0  0
 30  9  2  0  0  0  0
 31 18  1  0  0  0  0
 32 31  1  0  0  0  0
 33 17  1  0  0  0  0
 34 29  2  0  0  0  0
  2 35  1  6  0  0  0
 36  6  1  0  0  0  0
 37 34  1  0  0  0  0
 38 25  2  0  0  0  0
 39 36  1  0  0  0  0
 40 32  1  0  0  0  0
 17 41  1  1  0  0  0
 24 42  1  6  0  0  0
 43 25  1  0  0  0  0
 44  8  1  0  0  0  0
 45 20  1  0  0  0  0
 46 21  1  0  0  0  0
 47 19  1  0  0  0  0
 33 48  1  6  0  0  0
 37 49  1  6  0  0  0
 50 41  1  0  0  0  0
 41 51  1  6  0  0  0
 52 46  2  0  0  0  0
 53 50  1  0  0  0  0
 54 47  2  0  0  0  0
  1 55  1  1  0  0  0
  3 56  1  6  0  0  0
 17 57  1  6  0  0  0
 32 58  1  6  0  0  0
 18 59  1  6  0  0  0
  7  8  1  0  0  0  0
 23 10  1  0  0  0  0
 16 32  1  0  0  0  0
 33 39  1  0  0  0  0
 22 20  2  0  0  0  0
 52 54  1  0  0  0  0
M  END
>  <IDNUMBER>
F3409-1072

>  <Chemical_Name>
2-(2-{[(1'R,2R,4'S,5S,6R,8'R,12'S,13'S,14'E,20'R,21'R,24'S)-6-[(2S)-butan-2-yl]-12',24'-dihydroxy-5,11',13',22'-tetramethyl-2'-oxo-3',7',19'-trioxaspiro[oxane-2,6'-tetracyclo[15.6.1.1?,?.0??,??]pentacosane]-10',14',16',22'-tetraen-21'-yloxy]carbonyl}phenyl)acetic acid

>  <PriceCoeff>
7.00

>  <CAS>
3054372-07-2

>  <MW>
748.91

>  <Description>
solid

>  <FSP3>
0.60

>  <clogP>
6.02

>  <TPSA>
158.05

>  <Acceptor>
11

>  <Donor>
2

>  <RotBonds>
7

>  <HAC>
54

$$$$
F3409-1073
  Mrv2219 10102508112D          

 58 63  0  0  1  0            999 V2000
    1.1158   -3.2841    0.0000 C   0  0  2  0  0  0  0  0  0  0  0  0
    0.3490   -2.9790    0.0000 C   0  0  1  0  0  0  0  0  0  0  0  0
   -0.3105   -3.3418    0.0000 C   0  0  1  0  0  0  0  0  0  0  0  0
    1.7588   -2.7729    0.0000 C   0  0  0  0  0  0  0  0  0  0  0  0
    1.1487   -4.1085    0.0000 C   0  0  0  0  0  0  0  0  0  0  0  0
    4.5867   -2.3662    0.0000 C   0  0  2  0  0  0  0  0  0  0  0  0
   -0.2803   -4.1662    0.0000 C   0  0  1  0  0  0  0  0  0  0  0  0
   -0.9453   -5.4276    0.0000 C   0  0  0  0  0  0  0  0  0  0  0  0
    0.4480   -4.5509    0.0000 C   0  0  0  0  0  0  0  0  0  0  0  0
   -0.9453   -2.8141    0.0000 O   0  0  0  0  0  0  0  0  0  0  0  0
    0.2308   -2.1628    0.0000 C   0  0  0  0  0  0  0  0  0  0  0  0
   -0.9783   -4.6032    0.0000 O   0  0  0  0  0  0  0  0  0  0  0  0
    4.7076   -3.1824    0.0000 O   0  0  0  0  0  0  0  0  0  0  0  0
    2.5256   -3.0779    0.0000 O   0  0  0  0  0  0  0  0  0  0  0  0
   -1.6406   -5.8700    0.0000 C   0  0  0  0  0  0  0  0  0  0  0  0
   -2.3716   -5.4853    0.0000 C   0  0  0  0  0  0  0  0  0  0  0  0
    3.9408   -2.8773    0.0000 C   0  0  0  0  0  0  0  0  0  0  0  0
    4.4713   -1.5500    0.0000 O   0  0  0  0  0  0  0  0  0  0  0  0
    5.4743   -3.4874    0.0000 C   0  0  1  0  0  0  0  0  0  0  0  0
   -2.4046   -4.6609    0.0000 C   0  0  0  0  0  0  0  0  0  0  0  0
    3.1769   -2.5723    0.0000 C   0  0  2  0  0  0  0  0  0  0  0  0
    2.6987    0.6925    0.0000 C   0  0  0  0  0  0  0  0  0  0  0  0
    2.8196   -0.1237    0.0000 C   0  0  0  0  0  0  0  0  0  0  0  0
   -0.6403   -2.0474    0.0000 C   0  0  0  0  0  0  0  0  0  0  0  0
    1.9374    0.9976    0.0000 C   0  0  2  0  0  0  0  0  0  0  0  0
    0.8767   -1.6517    0.0000 C   0  0  0  0  0  0  0  0  0  0  0  0
    1.6434   -1.9567    0.0000 O   0  0  0  0  0  0  0  0  0  0  0  0
    0.7585   -0.8355    0.0000 C   0  0  0  0  0  0  0  0  0  0  0  0
   -0.2144   -5.8151    0.0000 O   0  0  0  0  0  0  0  0  0  0  0  0
    3.0587   -1.7561    0.0000 C   0  0  0  0  0  0  0  0  0  0  0  0
    3.7045   -1.2449    0.0000 C   0  0  1  0  0  0  0  0  0  0  0  0
   -1.7066   -4.2239    0.0000 O   0  0  0  0  0  0  0  0  0  0  0  0
    6.1201   -2.9735    0.0000 C   0  0  2  0  0  0  0  0  0  0  0  0
    1.4043   -0.3298    0.0000 C   0  0  0  0  0  0  0  0  0  0  0  0
    0.3985   -3.8035    0.0000 O   0  0  0  0  0  0  0  0  0  0  0  0
    5.2352   -1.8550    0.0000 C   0  0  0  0  0  0  0  0  0  0  0  0
    1.2889    0.4864    0.0000 C   0  0  2  0  0  0  0  0  0  0  0  0
    6.0020   -2.1600    0.0000 C   0  0  0  0  0  0  0  0  0  0  0  0
   -3.1329   -4.2789    0.0000 N   0  0  0  0  0  0  0  0  0  0  0  0
    3.5863   -0.4287    0.0000 C   0  0  0  0  0  0  0  0  0  0  0  0
    5.5925   -4.3036    0.0000 C   0  0  2  0  0  0  0  0  0  0  0  0
    1.8165    1.8138    0.0000 O   0  0  0  0  0  0  0  0  0  0  0  0
    0.4809   -5.3754    0.0000 C   0  0  0  0  0  0  0  0  0  0  0  0
   -1.6077   -6.6945    0.0000 C   0  0  0  0  0  0  0  0  0  0  0  0
   -3.0697   -5.9278    0.0000 C   0  0  0  0  0  0  0  0  0  0  0  0
    3.3500    1.2037    0.0000 C   0  0  0  0  0  0  0  0  0  0  0  0
    6.8869   -3.2813    0.0000 C   0  0  0  0  0  0  0  0  0  0  0  0
    0.5222    0.7915    0.0000 C   0  0  0  0  0  0  0  0  0  0  0  0
    6.3565   -4.6086    0.0000 C   0  0  0  0  0  0  0  0  0  0  0  0
    4.9412   -4.8148    0.0000 C   0  0  0  0  0  0  0  0  0  0  0  0
   -3.0394   -6.7522    0.0000 C   0  0  0  0  0  0  0  0  0  0  0  0
   -2.3057   -7.1342    0.0000 C   0  0  0  0  0  0  0  0  0  0  0  0
    6.4747   -5.4248    0.0000 C   0  0  0  0  0  0  0  0  0  0  0  0
    3.2923   -3.3830    0.0000 H   0  0  0  0  0  0  0  0  0  0  0  0
    0.9976   -2.4679    0.0000 H   0  0  0  0  0  0  0  0  0  0  0  0
   -1.0525   -3.7045    0.0000 H   0  0  0  0  0  0  0  0  0  0  0  0
    4.8258   -3.9986    0.0000 H   0  0  0  0  0  0  0  0  0  0  0  0
    4.3531   -0.7338    0.0000 H   0  0  0  0  0  0  0  0  0  0  0  0
  2  1  1  0  0  0  0
  3  2  1  0  0  0  0
  4  1  1  0  0  0  0
  5  1  1  0  0  0  0
  6 17  1  0  0  0  0
  7  3  1  0  0  0  0
  8 12  1  0  0  0  0
  9  5  2  0  0  0  0
 10  3  1  0  0  0  0
 11  2  1  0  0  0  0
  7 12  1  1  0  0  0
  6 13  1  6  0  0  0
 14  4  1  0  0  0  0
 15  8  1  0  0  0  0
 16 15  2  0  0  0  0
 17 21  1  0  0  0  0
 18  6  1  0  0  0  0
 19 13  1  0  0  0  0
 20 16  1  0  0  0  0
 21 14  1  0  0  0  0
 22 25  1  0  0  0  0
 23 40  1  4  0  0  0
 24 11  1  0  0  0  0
 25 37  1  0  0  0  0
 26 11  2  0  0  0  0
 27  4  2  0  0  0  0
 26 28  1  4  0  0  0
 29  8  2  0  0  0  0
 30 21  1  0  0  0  0
 31 30  1  0  0  0  0
 32 20  2  0  0  0  0
 33 19  1  0  0  0  0
 34 28  2  0  0  0  0
  2 35  1  6  0  0  0
 36  6  1  0  0  0  0
 37 34  1  0  0  0  0
 38 36  1  0  0  0  0
 39 20  1  0  0  0  0
 40 31  1  0  0  0  0
 19 41  1  1  0  0  0
 25 42  1  6  0  0  0
 43  9  1  0  0  0  0
 44 15  1  0  0  0  0
 45 16  1  0  0  0  0
 46 22  1  0  0  0  0
 33 47  1  6  0  0  0
 37 48  1  6  0  0  0
 49 41  1  0  0  0  0
 41 50  1  6  0  0  0
 51 45  2  0  0  0  0
 52 44  2  0  0  0  0
 53 49  1  0  0  0  0
 21 54  1  6  0  0  0
  1 55  1  1  0  0  0
  3 56  1  6  0  0  0
 19 57  1  6  0  0  0
 31 58  1  6  0  0  0
  7  9  1  0  0  0  0
 24 10  1  0  0  0  0
 18 31  1  0  0  0  0
 33 38  1  0  0  0  0
 23 22  2  0  0  0  0
 51 52  1  0  0  0  0
M  END
>  <IDNUMBER>
F3409-1073

>  <Chemical_Name>
(1'R,2R,4'S,5S,6R,8'R,12'S,13'S,14'E,20'R,21'R,24'S)-6-[(2S)-butan-2-yl]-12',24'-dihydroxy-5,11',13',22'-tetramethyl-2'-oxo-3',7',19'-trioxaspiro[oxane-2,6'-tetracyclo[15.6.1.1?,?.0??,??]pentacosane]-10',14',16',22'-tetraen-21'-yl 2-carbamoylbenzoate

>  <PriceCoeff>
7.00

>  <CAS>
3054372-02-7

>  <MW>
733.90

>  <Description>
solid

>  <FSP3>
0.60

>  <clogP>
5.49

>  <TPSA>
163.84

>  <Acceptor>
10

>  <Donor>
3

>  <RotBonds>
6

>  <HAC>
53

$$$$
F3409-1074
  Mrv2219 10102508112D          

 73 80  0  0  1  0            999 V2000
    1.9549   -6.0323    0.0000 C   0  0  2  0  0  0  0  0  0  0  0  0
    1.2483   -5.6034    0.0000 C   0  0  1  0  0  0  0  0  0  0  0  0
    0.5719   -5.9251    0.0000 C   0  0  1  0  0  0  0  0  0  0  0  0
    2.6752   -5.6364    0.0000 C   0  0  0  0  0  0  0  0  0  0  0  0
    1.8889   -6.9204    0.0000 C   0  0  0  0  0  0  0  0  0  0  0  0
    5.5292   -5.6914    0.0000 C   0  0  2  0  0  0  0  0  0  0  0  0
    0.4729   -6.7417    0.0000 C   0  0  1  0  0  0  0  0  0  0  0  0
   -0.9458   -6.5657    0.0000 C   0  0  0  0  0  0  0  0  0  0  0  0
    1.1300   -7.2421    0.0000 C   0  0  0  0  0  0  0  0  0  0  0  0
    0.0330   -5.2982    0.0000 O   0  0  0  0  0  0  0  0  0  0  0  0
    1.2648   -4.7786    0.0000 C   0  0  0  0  0  0  0  0  0  0  0  0
   -0.2887   -7.0634    0.0000 O   0  0  0  0  0  0  0  0  0  0  0  0
    1.3610    0.1650    0.0000 C   0  0  2  0  0  0  0  0  0  0  0  0
    5.5127   -6.5162    0.0000 O   0  0  0  0  0  0  0  0  0  0  0  0
   -0.0715    0.1952    0.0000 C   0  0  2  0  0  0  0  0  0  0  0  0
    2.7714   -0.6874    0.0000 C   0  0  2  0  0  0  0  0  0  0  0  0
    3.3818   -6.0625    0.0000 O   0  0  0  0  0  0  0  0  0  0  0  0
    2.0484   -1.0833    0.0000 O   0  0  0  0  0  0  0  0  0  0  0  0
   -0.0880   -0.6296    0.0000 O   0  0  0  0  0  0  0  0  0  0  0  0
   -1.7046   -6.8874    0.0000 C   0  0  0  0  0  0  0  0  0  0  0  0
    2.7879    0.1375    0.0000 C   0  0  0  0  0  0  0  0  0  0  0  0
   -0.7753    0.6186    0.0000 C   0  0  0  0  0  0  0  0  0  0  0  0
   -2.4222   -6.4750    0.0000 C   0  0  0  0  0  0  0  0  0  0  0  0
    2.0814    0.5664    0.0000 C   0  0  2  0  0  0  0  0  0  0  0  0
   -1.5149   -0.6049    0.0000 C   0  0  2  0  0  0  0  0  0  0  0  0
    3.4588   -1.9384    0.0000 C   0  0  1  0  0  0  0  0  0  0  0  0
    1.3445   -0.6599    0.0000 C   0  0  1  0  0  0  0  0  0  0  0  0
    4.8116   -6.0901    0.0000 C   0  0  0  0  0  0  0  0  0  0  0  0
    5.5457   -4.8665    0.0000 O   0  0  0  0  0  0  0  0  0  0  0  0
   -1.4984    0.2199    0.0000 C   0  0  1  0  0  0  0  0  0  0  0  0
    6.2220   -6.9396    0.0000 C   0  0  1  0  0  0  0  0  0  0  0  0
    4.1022   -5.6611    0.0000 C   0  0  2  0  0  0  0  0  0  0  0  0
   -0.8056   -1.0310    0.0000 C   0  0  2  0  0  0  0  0  0  0  0  0
   -2.4222   -5.6501    0.0000 C   0  0  0  0  0  0  0  0  0  0  0  0
    4.1682   -2.3618    0.0000 C   0  0  0  0  0  0  0  0  0  0  0  0
    0.6544    0.5911    0.0000 O   0  0  0  0  0  0  0  0  0  0  0  0
    3.4753   -1.1135    0.0000 O   0  0  0  0  0  0  0  0  0  0  0  0
    4.1517   -3.1866    0.0000 C   0  0  0  0  0  0  0  0  0  0  0  0
    0.4564   -4.5943    0.0000 C   0  0  0  0  0  0  0  0  0  0  0  0
    1.9824   -4.3826    0.0000 C   0  0  0  0  0  0  0  0  0  0  0  0
    2.6917   -4.8116    0.0000 O   0  0  0  0  0  0  0  0  0  0  0  0
    1.9989   -3.5578    0.0000 C   0  0  0  0  0  0  0  0  0  0  0  0
   -0.8468   -5.7491    0.0000 O   0  0  0  0  0  0  0  0  0  0  0  0
    4.1187   -4.8363    0.0000 C   0  0  0  0  0  0  0  0  0  0  0  0
    4.8418   -4.4404    0.0000 C   0  0  1  0  0  0  0  0  0  0  0  0
    2.7412   -2.3371    0.0000 C   0  0  2  0  0  0  0  0  0  0  0  0
   -3.1344   -5.2377    0.0000 O   0  0  0  0  0  0  0  0  0  0  0  0
    6.9423   -6.5437    0.0000 C   0  0  2  0  0  0  0  0  0  0  0  0
    2.7247   -3.1619    0.0000 C   0  0  0  0  0  0  0  0  0  0  0  0
    1.2043   -6.4282    0.0000 O   0  0  0  0  0  0  0  0  0  0  0  0
    6.2550   -5.2900    0.0000 C   0  0  0  0  0  0  0  0  0  0  0  0
    6.9616   -5.7189    0.0000 C   0  0  0  0  0  0  0  0  0  0  0  0
    4.8583   -3.6155    0.0000 C   0  0  0  0  0  0  0  0  0  0  0  0
    6.2055   -7.7645    0.0000 C   0  0  2  0  0  0  0  0  0  0  0  0
   -2.2353   -1.0008    0.0000 O   0  0  0  0  0  0  0  0  0  0  0  0
   -1.7046   -5.2377    0.0000 O   0  0  0  0  0  0  0  0  0  0  0  0
    2.0979    1.3912    0.0000 O   0  0  0  0  0  0  0  0  0  0  0  0
   -2.2023    0.6488    0.0000 O   0  0  0  0  0  0  0  0  0  0  0  0
    1.0256   -8.0559    0.0000 C   0  0  0  0  0  0  0  0  0  0  0  0
   -1.7046   -7.7122    0.0000 C   0  0  0  0  0  0  0  0  0  0  0  0
   -3.1344   -6.8874    0.0000 C   0  0  0  0  0  0  0  0  0  0  0  0
    4.8913   -1.9659    0.0000 C   0  0  0  0  0  0  0  0  0  0  0  0
    0.6214   -1.0586    0.0000 C   0  0  0  0  0  0  0  0  0  0  0  0
   -0.8221   -1.8559    0.0000 C   0  0  0  0  0  0  0  0  0  0  0  0
    2.0319   -1.9081    0.0000 C   0  0  0  0  0  0  0  0  0  0  0  0
    7.6490   -6.9699    0.0000 C   0  0  0  0  0  0  0  0  0  0  0  0
    6.9121   -8.1934    0.0000 C   0  0  0  0  0  0  0  0  0  0  0  0
    5.4852   -8.1659    0.0000 C   0  0  0  0  0  0  0  0  0  0  0  0
    1.3885    1.8146    0.0000 C   0  0  0  0  0  0  0  0  0  0  0  0
   -2.1858    1.4737    0.0000 C   0  0  0  0  0  0  0  0  0  0  0  0
   -3.1344   -7.7122    0.0000 C   0  0  0  0  0  0  0  0  0  0  0  0
   -2.4222   -8.1246    0.0000 C   0  0  0  0  0  0  0  0  0  0  0  0
    6.8956   -9.0182    0.0000 C   0  0  0  0  0  0  0  0  0  0  0  0
  2  1  1  0  0  0  0
  3  2  1  0  0  0  0
  4  1  1  0  0  0  0
  1  5  1  6  0  0  0
  6 28  1  0  0  0  0
  7  9  1  0  0  0  0
  8 12  1  0  0  0  0
  9  5  2  0  0  0  0
  3 10  1  1  0  0  0
 11  2  1  0  0  0  0
  7 12  1  1  0  0  0
 13 27  1  0  0  0  0
  6 14  1  6  0  0  0
 15 36  1  6  0  0  0
 16 37  1  6  0  0  0
 17  4  1  0  0  0  0
 18 16  1  0  0  0  0
 19 15  1  0  0  0  0
 20  8  1  0  0  0  0
 21 16  1  0  0  0  0
 22 15  1  0  0  0  0
 23 20  2  0  0  0  0
 24 21  1  0  0  0  0
 25 33  1  0  0  0  0
 26 46  1  0  0  0  0
 27 18  1  0  0  0  0
 28 32  1  0  0  0  0
 29 45  1  0  0  0  0
 30 22  1  0  0  0  0
 31 14  1  0  0  0  0
 32 17  1  0  0  0  0
 33 19  1  0  0  0  0
 34 23  1  0  0  0  0
 35 38  2  0  0  0  0
 13 36  1  6  0  0  0
 26 37  1  6  0  0  0
 38 53  1  0  0  0  0
 39 11  1  0  0  0  0
 40 11  2  0  0  0  0
 41  4  2  0  0  0  0
 42 40  1  0  0  0  0
 43  8  2  0  0  0  0
 32 44  1  1  0  0  0
 45 44  1  1  0  0  0
 46 49  1  0  0  0  0
 47 34  2  0  0  0  0
 48 31  1  0  0  0  0
 49 42  2  0  0  0  0
  2 50  1  6  0  0  0
  6 51  1  1  0  0  0
 52 51  1  0  0  0  0
 53 45  1  0  0  0  0
 31 54  1  1  0  0  0
 25 55  1  6  0  0  0
 56 34  1  0  0  0  0
 24 57  1  1  0  0  0
 30 58  1  1  0  0  0
 59  9  1  0  0  0  0
 60 20  1  0  0  0  0
 61 23  1  0  0  0  0
 62 35  1  0  0  0  0
 27 63  1  1  0  0  0
 33 64  1  1  0  0  0
 46 65  1  6  0  0  0
 48 66  1  6  0  0  0
 67 54  1  0  0  0  0
 54 68  1  6  0  0  0
 69 57  1  0  0  0  0
 70 58  1  0  0  0  0
 71 61  2  0  0  0  0
 72 60  2  0  0  0  0
 73 67  1  0  0  0  0
  7  3  1  0  0  0  0
 10 39  1  0  0  0  0
 29  6  1  0  0  0  0
 52 48  1  0  0  0  0
 26 35  1  0  0  0  0
 72 71  1  0  0  0  0
 13 24  1  0  0  0  0
 25 30  1  0  0  0  0
M  END
>  <IDNUMBER>
F3409-1074

>  <Chemical_Name>
2-{[(1'R,2R,4'S,5S,6R,8'R,10'E,12'S,13'S,14'E,16'E,20'R,21'R,24'S)-6-[(2S)-butan-2-yl]-24'-hydroxy-12'-{[(2R,4S,5S,6S)-5-{[(2S,4S,5S,6S)-5-hydroxy-4-methoxy-6-methyloxan-2-yl]oxy}-4-methoxy-6-methyloxan-2-yl]oxy}-5,11',13',22'-tetramethyl-2'-oxo-3',7',19'-trioxaspiro[oxane-2,6'-tetracyclo[15.6.1.1?,?.0??,??]pentacosane]-10',14',16',22'-tetraen-21'-yloxy]carbonyl}benzoic acid

>  <PriceCoeff>
7.00

>  <CAS>
3054372-11-8

>  <MW>
1 023.22

>  <Description>
solid

>  <FSP3>
0.70

>  <clogP>
6.38

>  <TPSA>
213.43

>  <Acceptor>
17

>  <Donor>
2

>  <RotBonds>
12

>  <HAC>
73

$$$$
F3409-1075
  Mrv2219 10102508112D          

 63 69  0  0  1  0            999 V2000
    1.9549   -6.0323    0.0000 C   0  0  2  0  0  0  0  0  0  0  0  0
    1.2483   -5.6034    0.0000 C   0  0  1  0  0  0  0  0  0  0  0  0
    0.5719   -5.9251    0.0000 C   0  0  1  0  0  0  0  0  0  0  0  0
    2.6752   -5.6364    0.0000 C   0  0  0  0  0  0  0  0  0  0  0  0
    1.8889   -6.9204    0.0000 C   0  0  0  0  0  0  0  0  0  0  0  0
    5.5292   -5.6914    0.0000 C   0  0  2  0  0  0  0  0  0  0  0  0
    0.4729   -6.7417    0.0000 C   0  0  1  0  0  0  0  0  0  0  0  0
   -0.9458   -6.5657    0.0000 C   0  0  0  0  0  0  0  0  0  0  0  0
    1.1300   -7.2421    0.0000 C   0  0  0  0  0  0  0  0  0  0  0  0
    0.0330   -5.2982    0.0000 O   0  0  0  0  0  0  0  0  0  0  0  0
    1.2648   -4.7840    0.0000 C   0  0  0  0  0  0  0  0  0  0  0  0
   -0.2887   -7.0634    0.0000 O   0  0  0  0  0  0  0  0  0  0  0  0
    5.5127   -6.5162    0.0000 O   0  0  0  0  0  0  0  0  0  0  0  0
    2.7714   -0.6874    0.0000 C   0  0  2  0  0  0  0  0  0  0  0  0
    3.3818   -6.0625    0.0000 O   0  0  0  0  0  0  0  0  0  0  0  0
    2.0484   -1.0833    0.0000 O   0  0  0  0  0  0  0  0  0  0  0  0
   -1.7046   -6.8874    0.0000 C   0  0  0  0  0  0  0  0  0  0  0  0
    2.7879    0.1375    0.0000 C   0  0  0  0  0  0  0  0  0  0  0  0
   -2.4222   -6.4750    0.0000 C   0  0  0  0  0  0  0  0  0  0  0  0
    1.3610    0.1650    0.0000 C   0  0  2  0  0  0  0  0  0  0  0  0
    3.4588   -1.9384    0.0000 C   0  0  1  0  0  0  0  0  0  0  0  0
    4.8116   -6.0901    0.0000 C   0  0  0  0  0  0  0  0  0  0  0  0
    5.5457   -4.8665    0.0000 O   0  0  0  0  0  0  0  0  0  0  0  0
    2.0814    0.5664    0.0000 C   0  0  1  0  0  0  0  0  0  0  0  0
    6.2220   -6.9396    0.0000 C   0  0  1  0  0  0  0  0  0  0  0  0
    4.1022   -5.6611    0.0000 C   0  0  2  0  0  0  0  0  0  0  0  0
    1.3445   -0.6599    0.0000 C   0  0  2  0  0  0  0  0  0  0  0  0
   -2.4222   -5.6501    0.0000 C   0  0  0  0  0  0  0  0  0  0  0  0
    4.1682   -2.3618    0.0000 C   0  0  0  0  0  0  0  0  0  0  0  0
    3.4753   -1.1135    0.0000 O   0  0  0  0  0  0  0  0  0  0  0  0
    4.1517   -3.1866    0.0000 C   0  0  0  0  0  0  0  0  0  0  0  0
    0.4564   -4.5943    0.0000 C   0  0  0  0  0  0  0  0  0  0  0  0
    1.9824   -4.3826    0.0000 C   0  0  0  0  0  0  0  0  0  0  0  0
    2.6917   -4.8116    0.0000 O   0  0  0  0  0  0  0  0  0  0  0  0
    1.9989   -3.5578    0.0000 C   0  0  0  0  0  0  0  0  0  0  0  0
   -0.8468   -5.7491    0.0000 O   0  0  0  0  0  0  0  0  0  0  0  0
    4.1187   -4.8363    0.0000 C   0  0  0  0  0  0  0  0  0  0  0  0
    4.8418   -4.4404    0.0000 C   0  0  1  0  0  0  0  0  0  0  0  0
    2.7412   -2.3371    0.0000 C   0  0  2  0  0  0  0  0  0  0  0  0
   -3.1344   -5.2377    0.0000 O   0  0  0  0  0  0  0  0  0  0  0  0
    6.9423   -6.5437    0.0000 C   0  0  2  0  0  0  0  0  0  0  0  0
    2.7247   -3.1619    0.0000 C   0  0  0  0  0  0  0  0  0  0  0  0
    1.2043   -6.4282    0.0000 O   0  0  0  0  0  0  0  0  0  0  0  0
    6.2550   -5.2900    0.0000 C   0  0  0  0  0  0  0  0  0  0  0  0
    6.9616   -5.7189    0.0000 C   0  0  0  0  0  0  0  0  0  0  0  0
    4.8583   -3.6155    0.0000 C   0  0  0  0  0  0  0  0  0  0  0  0
    6.2055   -7.7645    0.0000 C   0  0  2  0  0  0  0  0  0  0  0  0
    0.6544    0.5911    0.0000 O   0  0  0  0  0  0  0  0  0  0  0  0
   -1.7046   -5.2377    0.0000 O   0  0  0  0  0  0  0  0  0  0  0  0
    2.0979    1.3912    0.0000 O   0  0  0  0  0  0  0  0  0  0  0  0
    1.0256   -8.0614    0.0000 C   0  0  0  0  0  0  0  0  0  0  0  0
   -1.7046   -7.7122    0.0000 C   0  0  0  0  0  0  0  0  0  0  0  0
   -3.1344   -6.8874    0.0000 C   0  0  0  0  0  0  0  0  0  0  0  0
    4.8913   -1.9659    0.0000 C   0  0  0  0  0  0  0  0  0  0  0  0
    0.6214   -1.0586    0.0000 C   0  0  0  0  0  0  0  0  0  0  0  0
    2.0319   -1.9081    0.0000 C   0  0  0  0  0  0  0  0  0  0  0  0
    7.6490   -6.9699    0.0000 C   0  0  0  0  0  0  0  0  0  0  0  0
    6.9121   -8.1934    0.0000 C   0  0  0  0  0  0  0  0  0  0  0  0
    5.4852   -8.1659    0.0000 C   0  0  0  0  0  0  0  0  0  0  0  0
    1.3885    1.8146    0.0000 C   0  0  0  0  0  0  0  0  0  0  0  0
   -3.1344   -7.7122    0.0000 C   0  0  0  0  0  0  0  0  0  0  0  0
   -2.4222   -8.1246    0.0000 C   0  0  0  0  0  0  0  0  0  0  0  0
    6.8956   -9.0182    0.0000 C   0  0  0  0  0  0  0  0  0  0  0  0
  2  1  1  0  0  0  0
  3  2  1  0  0  0  0
  4  1  1  0  0  0  0
  1  5  1  6  0  0  0
  6 22  1  0  0  0  0
  7  9  1  0  0  0  0
  8 12  1  0  0  0  0
  9  5  2  0  0  0  0
  3 10  1  1  0  0  0
 11  2  1  0  0  0  0
  7 12  1  1  0  0  0
  6 13  1  6  0  0  0
 14 30  1  6  0  0  0
 15  4  1  0  0  0  0
 16 14  1  0  0  0  0
 17  8  1  0  0  0  0
 18 14  1  0  0  0  0
 19 17  2  0  0  0  0
 20 27  1  0  0  0  0
 21 39  1  0  0  0  0
 22 26  1  0  0  0  0
 23 38  1  0  0  0  0
 24 18  1  0  0  0  0
 25 13  1  0  0  0  0
 26 15  1  0  0  0  0
 27 16  1  0  0  0  0
 28 19  1  0  0  0  0
 29 31  2  0  0  0  0
 21 30  1  6  0  0  0
 31 46  1  0  0  0  0
 32 11  1  0  0  0  0
 33 11  2  0  0  0  0
 34  4  2  0  0  0  0
 35 33  1  0  0  0  0
 36  8  2  0  0  0  0
 26 37  1  1  0  0  0
 38 37  1  1  0  0  0
 39 42  1  0  0  0  0
 40 28  2  0  0  0  0
 41 25  1  0  0  0  0
 42 35  2  0  0  0  0
  2 43  1  6  0  0  0
  6 44  1  1  0  0  0
 45 44  1  0  0  0  0
 46 38  1  0  0  0  0
 25 47  1  1  0  0  0
 20 48  1  6  0  0  0
 49 28  1  0  0  0  0
 24 50  1  1  0  0  0
 51  9  1  0  0  0  0
 52 17  1  0  0  0  0
 53 19  1  0  0  0  0
 54 29  1  0  0  0  0
 27 55  1  1  0  0  0
 39 56  1  6  0  0  0
 41 57  1  6  0  0  0
 58 47  1  0  0  0  0
 47 59  1  6  0  0  0
 60 50  1  0  0  0  0
 61 53  2  0  0  0  0
 62 52  2  0  0  0  0
 63 58  1  0  0  0  0
  7  3  1  0  0  0  0
 10 32  1  0  0  0  0
 23  6  1  0  0  0  0
 45 41  1  0  0  0  0
 21 29  1  0  0  0  0
 62 61  1  0  0  0  0
 20 24  1  0  0  0  0
M  END
>  <IDNUMBER>
F3409-1075

>  <Chemical_Name>
2-{[(1'R,2R,4'S,5S,6R,8'R,10'E,12'S,13'S,14'E,16'E,20'R,21'R,24'S)-6-[(2S)-butan-2-yl]-24'-hydroxy-12'-{[(2R,4S,5S,6S)-5-hydroxy-4-methoxy-6-methyloxan-2-yl]oxy}-5,11',13',22'-tetramethyl-2'-oxo-3',7',19'-trioxaspiro[oxane-2,6'-tetracyclo[15.6.1.1?,?.0??,??]pentacosane]-10',14',16',22'-tetraen-21'-yloxy]carbonyl}benzoic acid

>  <PriceCoeff>
7.00

>  <CAS>
3054372-04-9

>  <MW>
879.05

>  <Description>
solid

>  <FSP3>
0.65

>  <clogP>
6.20

>  <TPSA>
185.74

>  <Acceptor>
14

>  <Donor>
2

>  <RotBonds>
9

>  <HAC>
63

$$$$
F3409-1079
  Mrv2219 10102508112D          

 58 63  0  0  1  0            999 V2000
    1.7641   -3.2836    0.0000 C   0  0  2  0  0  0  0  0  0  0  0  0
    1.0002   -2.9786    0.0000 C   0  0  1  0  0  0  0  0  0  0  0  0
    0.3380   -3.3413    0.0000 C   0  0  1  0  0  0  0  0  0  0  0  0
    2.4098   -2.7726    0.0000 C   0  0  0  0  0  0  0  0  0  0  0  0
   -0.9947   -5.8693    0.0000 C   0  0  0  0  0  0  0  0  0  0  0  0
    1.7971   -4.1080    0.0000 C   0  0  0  0  0  0  0  0  0  0  0  0
    5.2373   -2.3659    0.0000 C   0  0  2  0  0  0  0  0  0  0  0  0
    0.3710   -4.1657    0.0000 C   0  0  1  0  0  0  0  0  0  0  0  0
   -0.2940   -5.4269    0.0000 C   0  0  0  0  0  0  0  0  0  0  0  0
    1.0991   -4.5504    0.0000 C   0  0  0  0  0  0  0  0  0  0  0  0
   -1.7036   -5.4571    0.0000 C   0  0  0  0  0  0  0  0  0  0  0  0
   -0.2968   -2.8138    0.0000 O   0  0  0  0  0  0  0  0  0  0  0  0
    0.8820   -2.1625    0.0000 C   0  0  0  0  0  0  0  0  0  0  0  0
   -0.3270   -4.6026    0.0000 O   0  0  0  0  0  0  0  0  0  0  0  0
   -2.4208   -5.8693    0.0000 C   0  0  0  0  0  0  0  0  0  0  0  0
    5.3527   -3.1820    0.0000 O   0  0  0  0  0  0  0  0  0  0  0  0
    3.1765   -3.0776    0.0000 O   0  0  0  0  0  0  0  0  0  0  0  0
    4.5916   -2.8769    0.0000 C   0  0  0  0  0  0  0  0  0  0  0  0
    5.1192   -1.5498    0.0000 O   0  0  0  0  0  0  0  0  0  0  0  0
    6.1194   -3.4870    0.0000 C   0  0  1  0  0  0  0  0  0  0  0  0
    3.8249   -2.5719    0.0000 C   0  0  2  0  0  0  0  0  0  0  0  0
    3.3496    0.6924    0.0000 C   0  0  0  0  0  0  0  0  0  0  0  0
   -0.9947   -6.6936    0.0000 C   0  0  0  0  0  0  0  0  0  0  0  0
    3.4705   -0.1237    0.0000 C   0  0  0  0  0  0  0  0  0  0  0  0
    0.0110   -2.0471    0.0000 C   0  0  0  0  0  0  0  0  0  0  0  0
    2.5830    0.9975    0.0000 C   0  0  2  0  0  0  0  0  0  0  0  0
   -2.4208   -6.6936    0.0000 C   0  0  0  0  0  0  0  0  0  0  0  0
    1.5278   -1.6515    0.0000 C   0  0  0  0  0  0  0  0  0  0  0  0
    2.2944   -1.9565    0.0000 O   0  0  0  0  0  0  0  0  0  0  0  0
    1.4069   -0.8354    0.0000 C   0  0  0  0  0  0  0  0  0  0  0  0
    0.4369   -5.8144    0.0000 O   0  0  0  0  0  0  0  0  0  0  0  0
    3.7041   -1.7558    0.0000 C   0  0  0  0  0  0  0  0  0  0  0  0
    4.3553   -1.2448    0.0000 C   0  0  1  0  0  0  0  0  0  0  0  0
   -1.7036   -7.1058    0.0000 C   0  0  0  0  0  0  0  0  0  0  0  0
    6.7706   -2.9731    0.0000 C   0  0  2  0  0  0  0  0  0  0  0  0
    2.0554   -0.3297    0.0000 C   0  0  0  0  0  0  0  0  0  0  0  0
    1.0497   -3.8030    0.0000 O   0  0  0  0  0  0  0  0  0  0  0  0
    5.8858   -1.8548    0.0000 C   0  0  0  0  0  0  0  0  0  0  0  0
    1.9400    0.4864    0.0000 C   0  0  2  0  0  0  0  0  0  0  0  0
   -1.7036   -4.6328    0.0000 F   0  0  0  0  0  0  0  0  0  0  0  0
    6.6497   -2.1598    0.0000 C   0  0  0  0  0  0  0  0  0  0  0  0
   -3.1325   -5.4571    0.0000 O   0  0  0  0  0  0  0  0  0  0  0  0
    4.2371   -0.4287    0.0000 C   0  0  0  0  0  0  0  0  0  0  0  0
    6.2403   -4.3031    0.0000 C   0  0  2  0  0  0  0  0  0  0  0  0
   -3.1325   -7.1058    0.0000 F   0  0  0  0  0  0  0  0  0  0  0  0
    2.4675    1.8135    0.0000 O   0  0  0  0  0  0  0  0  0  0  0  0
    1.1321   -5.3747    0.0000 C   0  0  0  0  0  0  0  0  0  0  0  0
    3.9981    1.2035    0.0000 C   0  0  0  0  0  0  0  0  0  0  0  0
    7.5345   -3.2809    0.0000 C   0  0  0  0  0  0  0  0  0  0  0  0
    1.1733    0.7914    0.0000 C   0  0  0  0  0  0  0  0  0  0  0  0
    7.0069   -4.6081    0.0000 C   0  0  0  0  0  0  0  0  0  0  0  0
    5.5918   -4.8142    0.0000 C   0  0  0  0  0  0  0  0  0  0  0  0
    7.1251   -5.4242    0.0000 C   0  0  0  0  0  0  0  0  0  0  0  0
    3.9431   -3.3826    0.0000 H   0  0  0  0  0  0  0  0  0  0  0  0
    1.6432   -2.4675    0.0000 H   0  0  0  0  0  0  0  0  0  0  0  0
   -0.4012   -3.7041    0.0000 H   0  0  0  0  0  0  0  0  0  0  0  0
    5.4764   -3.9981    0.0000 H   0  0  0  0  0  0  0  0  0  0  0  0
    4.9983   -0.7337    0.0000 H   0  0  0  0  0  0  0  0  0  0  0  0
  2  1  1  0  0  0  0
  3  2  1  0  0  0  0
  4  1  1  0  0  0  0
  5  9  1  0  0  0  0
  6  1  1  0  0  0  0
  7 18  1  0  0  0  0
  8  3  1  0  0  0  0
  9 14  1  0  0  0  0
 10  6  2  0  0  0  0
 11  5  2  0  0  0  0
 12  3  1  0  0  0  0
 13  2  1  0  0  0  0
  8 14  1  1  0  0  0
 15 11  1  0  0  0  0
  7 16  1  6  0  0  0
 17  4  1  0  0  0  0
 18 21  1  0  0  0  0
 19  7  1  0  0  0  0
 20 16  1  0  0  0  0
 21 17  1  0  0  0  0
 22 26  1  0  0  0  0
 23  5  1  0  0  0  0
 24 43  1  4  0  0  0
 25 13  1  0  0  0  0
 26 39  1  0  0  0  0
 27 15  2  0  0  0  0
 28 13  2  0  0  0  0
 29  4  2  0  0  0  0
 28 30  1  4  0  0  0
 31  9  2  0  0  0  0
 32 21  1  0  0  0  0
 33 32  1  0  0  0  0
 34 23  2  0  0  0  0
 35 20  1  0  0  0  0
 36 30  2  0  0  0  0
  2 37  1  6  0  0  0
 38  7  1  0  0  0  0
 39 36  1  0  0  0  0
 40 11  1  0  0  0  0
 41 38  1  0  0  0  0
 42 15  1  0  0  0  0
 43 33  1  0  0  0  0
 20 44  1  1  0  0  0
 45 27  1  0  0  0  0
 26 46  1  6  0  0  0
 47 10  1  0  0  0  0
 48 22  1  0  0  0  0
 35 49  1  6  0  0  0
 39 50  1  6  0  0  0
 51 44  1  0  0  0  0
 44 52  1  6  0  0  0
 53 51  1  0  0  0  0
 21 54  1  6  0  0  0
  1 55  1  1  0  0  0
  3 56  1  6  0  0  0
 20 57  1  6  0  0  0
 33 58  1  6  0  0  0
  8 10  1  0  0  0  0
 25 12  1  0  0  0  0
 19 33  1  0  0  0  0
 35 41  1  0  0  0  0
 24 22  2  0  0  0  0
 34 27  1  0  0  0  0
M  END
>  <IDNUMBER>
F3409-1079

>  <Chemical_Name>
(1'R,2R,4'S,5S,6R,8'R,12'S,13'S,14'E,20'R,21'R,24'S)-6-[(2S)-butan-2-yl]-12',24'-dihydroxy-5,11',13',22'-tetramethyl-2'-oxo-3',7',19'-trioxaspiro[oxane-2,6'-tetracyclo[15.6.1.1?,?.0??,??]pentacosane]-10',14',16',22'-tetraen-21'-yl 2,4-difluoro-3-hydroxybenzoate

>  <PriceCoeff>
7.00

>  <CAS>
3054372-08-3

>  <MW>
742.85

>  <Description>
solid

>  <FSP3>
0.61

>  <clogP>
6.38

>  <TPSA>
140.98

>  <Acceptor>
10

>  <Donor>
3

>  <RotBonds>
5

>  <HAC>
53

$$$$
F3409-1090
  Mrv2219 10102508112D          

 61 66  0  0  1  0            999 V2000
    1.1162   -4.6130    0.0000 C   0  0  2  0  0  0  0  0  0  0  0  0
    0.3492   -4.3079    0.0000 C   0  0  1  0  0  0  0  0  0  0  0  0
   -0.3106   -4.6707    0.0000 C   0  0  1  0  0  0  0  0  0  0  0  0
    1.7594   -4.1017    0.0000 C   0  0  0  0  0  0  0  0  0  0  0  0
    1.1491   -5.4377    0.0000 C   0  0  0  0  0  0  0  0  0  0  0  0
    4.5883   -3.6948    0.0000 C   0  0  2  0  0  0  0  0  0  0  0  0
   -0.2804   -5.4955    0.0000 C   0  0  1  0  0  0  0  0  0  0  0  0
   -0.9457   -6.7573    0.0000 C   0  0  0  0  0  0  0  0  0  0  0  0
    0.4481   -5.8803    0.0000 C   0  0  0  0  0  0  0  0  0  0  0  0
   -0.9457   -4.1429    0.0000 O   0  0  0  0  0  0  0  0  0  0  0  0
    0.2309   -3.4914    0.0000 C   0  0  0  0  0  0  0  0  0  0  0  0
   -0.9787   -5.9326    0.0000 O   0  0  0  0  0  0  0  0  0  0  0  0
    4.7092   -4.5058    0.0000 O   0  0  0  0  0  0  0  0  0  0  0  0
    2.5264   -4.4068    0.0000 O   0  0  0  0  0  0  0  0  0  0  0  0
   -1.6412   -7.1999    0.0000 C   0  0  0  0  0  0  0  0  0  0  0  0
   -2.3725   -6.8151    0.0000 C   0  0  0  0  0  0  0  0  0  0  0  0
    1.9381   -0.3299    0.0000 C   0  0  1  0  0  0  0  0  0  0  0  0
    3.9422   -4.2007    0.0000 C   0  0  0  0  0  0  0  0  0  0  0  0
    4.4728   -2.8783    0.0000 O   0  0  0  0  0  0  0  0  0  0  0  0
    5.4762   -4.8164    0.0000 C   0  0  1  0  0  0  0  0  0  0  0  0
    3.1780   -3.8955    0.0000 C   0  0  2  0  0  0  0  0  0  0  0  0
   -2.4054   -5.9903    0.0000 C   0  0  0  0  0  0  0  0  0  0  0  0
    2.6996   -0.6350    0.0000 C   0  0  0  0  0  0  0  0  0  0  0  0
    2.8206   -1.4515    0.0000 C   0  0  0  0  0  0  0  0  0  0  0  0
    1.8172    0.4866    0.0000 O   0  0  0  0  0  0  0  0  0  0  0  0
   -0.6405   -3.3759    0.0000 C   0  0  0  0  0  0  0  0  0  0  0  0
    2.4659    0.9979    0.0000 C   0  0  0  0  0  0  0  0  0  0  0  0
    0.8770   -2.9801    0.0000 C   0  0  0  0  0  0  0  0  0  0  0  0
    1.6440   -3.2852    0.0000 O   0  0  0  0  0  0  0  0  0  0  0  0
    0.7588   -2.1636    0.0000 C   0  0  0  0  0  0  0  0  0  0  0  0
   -0.2144   -7.1422    0.0000 O   0  0  0  0  0  0  0  0  0  0  0  0
    3.0598   -3.0790    0.0000 C   0  0  0  0  0  0  0  0  0  0  0  0
    3.7058   -2.5732    0.0000 C   0  0  1  0  0  0  0  0  0  0  0  0
    1.2894   -0.8357    0.0000 C   0  0  2  0  0  0  0  0  0  0  0  0
   -3.1340   -5.6082    0.0000 O   0  0  0  0  0  0  0  0  0  0  0  0
    6.1223   -4.3051    0.0000 C   0  0  2  0  0  0  0  0  0  0  0  0
    1.4048   -1.6522    0.0000 C   0  0  0  0  0  0  0  0  0  0  0  0
    0.3986   -5.1326    0.0000 O   0  0  0  0  0  0  0  0  0  0  0  0
    5.2370   -3.1835    0.0000 C   0  0  0  0  0  0  0  0  0  0  0  0
    3.2329    0.6928    0.0000 O   0  0  0  0  0  0  0  0  0  0  0  0
    6.0040   -3.4886    0.0000 C   0  0  0  0  0  0  0  0  0  0  0  0
    3.5876   -1.7567    0.0000 C   0  0  0  0  0  0  0  0  0  0  0  0
    5.5944   -5.6274    0.0000 C   0  0  2  0  0  0  0  0  0  0  0  0
   -1.7072   -5.5504    0.0000 O   0  0  0  0  0  0  0  0  0  0  0  0
    0.4811   -6.6996    0.0000 C   0  0  0  0  0  0  0  0  0  0  0  0
   -1.6082   -8.0246    0.0000 C   0  0  0  0  0  0  0  0  0  0  0  0
   -3.0708   -7.2522    0.0000 C   0  0  0  0  0  0  0  0  0  0  0  0
    3.3512   -0.1237    0.0000 C   0  0  0  0  0  0  0  0  0  0  0  0
    2.3450    1.8144    0.0000 C   0  0  0  0  0  0  0  0  0  0  0  0
    0.5224   -0.5306    0.0000 C   0  0  0  0  0  0  0  0  0  0  0  0
    6.8893   -4.6102    0.0000 C   0  0  0  0  0  0  0  0  0  0  0  0
    6.3587   -5.9381    0.0000 C   0  0  0  0  0  0  0  0  0  0  0  0
    4.9429   -6.1388    0.0000 C   0  0  0  0  0  0  0  0  0  0  0  0
   -2.3065   -8.4645    0.0000 C   0  0  0  0  0  0  0  0  0  0  0  0
   -3.0405   -8.0769    0.0000 C   0  0  0  0  0  0  0  0  0  0  0  0
    6.4769   -6.7491    0.0000 C   0  0  0  0  0  0  0  0  0  0  0  0
    4.8274   -5.3223    0.0000 H   0  0  0  0  0  0  0  0  0  0  0  0
    4.3546   -2.0618    0.0000 H   0  0  0  0  0  0  0  0  0  0  0  0
    3.2934   -4.7120    0.0000 H   0  0  0  0  0  0  0  0  0  0  0  0
    0.9979   -3.7965    0.0000 H   0  0  0  0  0  0  0  0  0  0  0  0
   -1.0529   -5.0336    0.0000 H   0  0  0  0  0  0  0  0  0  0  0  0
  2  1  1  0  0  0  0
  3  2  1  0  0  0  0
  4  1  1  0  0  0  0
  5  1  1  0  0  0  0
  6 18  1  0  0  0  0
  7  3  1  0  0  0  0
  8 12  1  0  0  0  0
  9  5  2  0  0  0  0
 10  3  1  0  0  0  0
 11  2  1  0  0  0  0
  7 12  1  1  0  0  0
  6 13  1  6  0  0  0
 14  4  1  0  0  0  0
 15  8  1  0  0  0  0
 16 15  2  0  0  0  0
 17 34  1  0  0  0  0
 18 21  1  0  0  0  0
 19  6  1  0  0  0  0
 20 13  1  0  0  0  0
 21 14  1  0  0  0  0
 22 16  1  0  0  0  0
 23 17  1  0  0  0  0
 24 42  1  4  0  0  0
 17 25  1  6  0  0  0
 26 11  1  0  0  0  0
 27 25  1  0  0  0  0
 28 11  2  0  0  0  0
 29  4  2  0  0  0  0
 28 30  1  4  0  0  0
 31  8  2  0  0  0  0
 32 21  1  0  0  0  0
 33 32  1  0  0  0  0
 34 37  1  0  0  0  0
 35 22  2  0  0  0  0
 36 20  1  0  0  0  0
 37 30  2  0  0  0  0
  2 38  1  6  0  0  0
 39  6  1  0  0  0  0
 40 27  2  0  0  0  0
 41 39  1  0  0  0  0
 42 33  1  0  0  0  0
 20 43  1  1  0  0  0
 44 22  1  0  0  0  0
 45  9  1  0  0  0  0
 46 15  1  0  0  0  0
 47 16  1  0  0  0  0
 48 23  1  0  0  0  0
 49 27  1  0  0  0  0
 34 50  1  6  0  0  0
 36 51  1  6  0  0  0
 52 43  1  0  0  0  0
 43 53  1  6  0  0  0
 54 46  2  0  0  0  0
 55 47  2  0  0  0  0
 56 52  1  0  0  0  0
 20 57  1  6  0  0  0
 33 58  1  6  0  0  0
 21 59  1  6  0  0  0
  1 60  1  1  0  0  0
  3 61  1  6  0  0  0
  7  9  1  0  0  0  0
 26 10  1  0  0  0  0
 19 33  1  0  0  0  0
 36 41  1  0  0  0  0
 24 23  2  0  0  0  0
 55 54  1  0  0  0  0
M  END
>  <IDNUMBER>
F3409-1090

>  <Chemical_Name>
2-{[(1'R,2R,4'S,5S,6R,8'R,12'S,13'S,14'E,20'R,21'R,24'S)-12'-(acetyloxy)-6-[(2S)-butan-2-yl]-24'-hydroxy-5,11',13',22'-tetramethyl-2'-oxo-3',7',19'-trioxaspiro[oxane-2,6'-tetracyclo[15.6.1.1?,?.0??,??]pentacosane]-10',14',16',22'-tetraen-21'-yloxy]carbonyl}benzoic acid

>  <PriceCoeff>
7.00

>  <CAS>
3054372-05-0

>  <MW>
776.92

>  <Description>
solid

>  <FSP3>
0.59

>  <clogP>
6.66

>  <TPSA>
164.12

>  <Acceptor>
12

>  <Donor>
1

>  <RotBonds>
8

>  <HAC>
56

$$$$
F3409-1091
  Mrv2219 10102508112D          

 58 63  0  0  1  0            999 V2000
   -0.9706   -6.2635    0.0000 C   0  0  2  0  0  0  0  0  0  0  0  0
   -1.7322   -5.9583    0.0000 C   0  0  1  0  0  0  0  0  0  0  0  0
   -2.3976   -6.3213    0.0000 C   0  0  2  0  0  0  0  0  0  0  0  0
   -0.3189   -5.7521    0.0000 C   0  0  0  0  0  0  0  0  0  0  0  0
   -0.9376   -7.0884    0.0000 C   0  0  0  0  0  0  0  0  0  0  0  0
    2.5076   -5.3452    0.0000 C   0  0  2  0  0  0  0  0  0  0  0  0
    0.3822   -0.6516    0.0000 C   0  0  0  0  0  0  0  0  0  0  0  0
   -1.6332   -7.5311    0.0000 C   0  0  0  0  0  0  0  0  0  0  0  0
   -3.0328   -5.7934    0.0000 O   0  0  0  0  0  0  0  0  0  0  0  0
   -1.8532   -5.1417    0.0000 C   0  0  0  0  0  0  0  0  0  0  0  0
   -0.2640   -1.1631    0.0000 O   0  0  0  0  0  0  0  0  0  0  0  0
   -2.3646   -7.1462    0.0000 C   0  0  1  0  0  0  0  0  0  0  0  0
    2.6259   -6.1563    0.0000 O   0  0  0  0  0  0  0  0  0  0  0  0
    0.4454   -6.0573    0.0000 O   0  0  0  0  0  0  0  0  0  0  0  0
    0.2640    0.1650    0.0000 C   0  0  0  0  0  0  0  0  0  0  0  0
   -0.1457   -1.9797    0.0000 C   0  0  2  0  0  0  0  0  0  0  0  0
   -0.4509    0.5774    0.0000 C   0  0  0  0  0  0  0  0  0  0  0  0
    1.8587   -5.8511    0.0000 C   0  0  0  0  0  0  0  0  0  0  0  0
    2.3867   -4.5285    0.0000 O   0  0  0  0  0  0  0  0  0  0  0  0
    3.3930   -6.4670    0.0000 C   0  0  1  0  0  0  0  0  0  0  0  0
    1.0916   -5.5459    0.0000 C   0  0  2  0  0  0  0  0  0  0  0  0
    0.6214   -2.2849    0.0000 C   0  0  0  0  0  0  0  0  0  0  0  0
   -1.1631    0.1650    0.0000 C   0  0  0  0  0  0  0  0  0  0  0  0
    0.7369   -3.1015    0.0000 C   0  0  0  0  0  0  0  0  0  0  0  0
   -2.7276   -5.0262    0.0000 C   0  0  0  0  0  0  0  0  0  0  0  0
   -1.2043   -4.6303    0.0000 C   0  0  0  0  0  0  0  0  0  0  0  0
   -0.4372   -4.9355    0.0000 O   0  0  0  0  0  0  0  0  0  0  0  0
   -1.3253   -3.8137    0.0000 C   0  0  0  0  0  0  0  0  0  0  0  0
    1.1493   -0.9569    0.0000 O   0  0  0  0  0  0  0  0  0  0  0  0
    0.9761   -4.7293    0.0000 C   0  0  0  0  0  0  0  0  0  0  0  0
    1.6250   -4.2233    0.0000 C   0  0  1  0  0  0  0  0  0  0  0  0
   -0.7974   -2.4856    0.0000 C   0  0  2  0  0  0  0  0  0  0  0  0
   -1.1631   -0.6599    0.0000 O   0  0  0  0  0  0  0  0  0  0  0  0
    4.0419   -5.9556    0.0000 C   0  0  2  0  0  0  0  0  0  0  0  0
   -0.6736   -3.3023    0.0000 C   0  0  0  0  0  0  0  0  0  0  0  0
   -1.6827   -6.7832    0.0000 O   0  0  0  0  0  0  0  0  0  0  0  0
    3.1538   -4.8337    0.0000 C   0  0  0  0  0  0  0  0  0  0  0  0
    3.9209   -5.1390    0.0000 C   0  0  0  0  0  0  0  0  0  0  0  0
    1.5040   -3.4067    0.0000 C   0  0  0  0  0  0  0  0  0  0  0  0
    3.5085   -7.2781    0.0000 C   0  0  2  0  0  0  0  0  0  0  0  0
   -3.0630   -7.5833    0.0000 O   0  0  0  0  0  0  0  0  0  0  0  0
   -1.8779    0.5774    0.0000 O   0  0  0  0  0  0  0  0  0  0  0  0
   -1.6003   -8.3505    0.0000 C   0  0  0  0  0  0  0  0  0  0  0  0
    0.9761    0.5774    0.0000 C   0  0  0  0  0  0  0  0  0  0  0  0
   -0.4509    1.4023    0.0000 C   0  0  0  0  0  0  0  0  0  0  0  0
    1.2648   -1.7735    0.0000 C   0  0  0  0  0  0  0  0  0  0  0  0
   -1.5590   -2.1804    0.0000 C   0  0  0  0  0  0  0  0  0  0  0  0
    4.8035   -6.2608    0.0000 C   0  0  0  0  0  0  0  0  0  0  0  0
    4.2756   -7.5888    0.0000 C   0  0  0  0  0  0  0  0  0  0  0  0
    2.8651   -7.7896    0.0000 C   0  0  0  0  0  0  0  0  0  0  0  0
    0.9761    1.4023    0.0000 C   0  0  0  0  0  0  0  0  0  0  0  0
    0.2640    1.8147    0.0000 C   0  0  0  0  0  0  0  0  0  0  0  0
    4.3966   -8.4000    0.0000 C   0  0  0  0  0  0  0  0  0  0  0  0
    1.2126   -6.3625    0.0000 H   0  0  0  0  0  0  0  0  0  0  0  0
   -1.0861   -5.4469    0.0000 H   0  0  0  0  0  0  0  0  0  0  0  0
   -3.1345   -6.6842    0.0000 H   0  0  0  0  0  0  0  0  0  0  0  0
    2.7413   -6.9729    0.0000 H   0  0  0  0  0  0  0  0  0  0  0  0
    2.2712   -3.7119    0.0000 H   0  0  0  0  0  0  0  0  0  0  0  0
  2  1  1  0  0  0  0
  3  2  1  0  0  0  0
  4  1  1  0  0  0  0
  5  1  1  0  0  0  0
  6 18  1  0  0  0  0
  7 11  1  0  0  0  0
  8  5  2  0  0  0  0
  9  3  1  0  0  0  0
 10  2  1  0  0  0  0
 16 11  1  6  0  0  0
 12  3  1  0  0  0  0
  6 13  1  6  0  0  0
 14  4  1  0  0  0  0
 15  7  1  0  0  0  0
 16 32  1  0  0  0  0
 17 15  1  0  0  0  0
 18 21  1  0  0  0  0
 19  6  1  0  0  0  0
 20 13  1  0  0  0  0
 21 14  1  0  0  0  0
 22 16  1  0  0  0  0
 23 17  1  0  0  0  0
 24 39  1  4  0  0  0
 25 10  1  0  0  0  0
 26 10  2  0  0  0  0
 27  4  2  0  0  0  0
 26 28  1  4  0  0  0
 29  7  2  0  0  0  0
 30 21  1  0  0  0  0
 31 30  1  0  0  0  0
 32 35  1  0  0  0  0
 33 23  2  0  0  0  0
 34 20  1  0  0  0  0
 35 28  2  0  0  0  0
  2 36  1  6  0  0  0
 37  6  1  0  0  0  0
 38 37  1  0  0  0  0
 39 31  1  0  0  0  0
 20 40  1  1  0  0  0
 12 41  1  1  0  0  0
 42 23  1  0  0  0  0
 43  8  1  0  0  0  0
 44 15  2  0  0  0  0
 45 17  2  0  0  0  0
 46 22  1  0  0  0  0
 32 47  1  6  0  0  0
 34 48  1  6  0  0  0
 49 40  1  0  0  0  0
 40 50  1  6  0  0  0
 51 44  1  0  0  0  0
 52 51  2  0  0  0  0
 53 49  1  0  0  0  0
 21 54  1  6  0  0  0
  1 55  1  1  0  0  0
  3 56  1  6  0  0  0
 20 57  1  6  0  0  0
 31 58  1  6  0  0  0
 25  9  1  0  0  0  0
 12  8  1  0  0  0  0
 19 31  1  0  0  0  0
 34 38  1  0  0  0  0
 24 22  2  0  0  0  0
 45 52  1  0  0  0  0
M  END
>  <IDNUMBER>
F3409-1091

>  <Chemical_Name>
2-{[(1'R,2R,4'S,5S,6R,8'R,12'S,13'S,14'E,20'R,21'R,24'S)-6-[(2S)-butan-2-yl]-21',24'-dihydroxy-5,11',13',22'-tetramethyl-2'-oxo-3',7',19'-trioxaspiro[oxane-2,6'-tetracyclo[15.6.1.1?,?.0??,??]pentacosane]-10',14',16',22'-tetraen-12'-yloxy]carbonyl}benzoic acid

>  <PriceCoeff>
7.00

>  <CAS>
3054372-13-0

>  <MW>
734.88

>  <Description>
solid

>  <FSP3>
0.60

>  <clogP>
6.09

>  <TPSA>
158.05

>  <Acceptor>
11

>  <Donor>
2

>  <RotBonds>
6

>  <HAC>
53

$$$$
F5017-2080
  Mrv2219 10102508112D          

 30 32  0  0  0  0            999 V2000
   -4.5726    3.7911    0.0000 S   0  0  0  0  0  0  0  0  0  0  0  0
   -6.7010    3.3505    0.0000 N   0  0  0  0  0  0  0  0  0  0  0  0
   -0.9935    6.6844    0.0000 C   0  0  0  0  0  0  0  0  0  0  0  0
   -1.7085    6.2645    0.0000 N   0  0  0  0  0  0  0  0  0  0  0  0
   -7.4243    3.7495    0.0000 C   0  0  0  0  0  0  0  0  0  0  0  0
   -6.6885    2.5149    0.0000 C   0  0  0  0  0  0  0  0  0  0  0  0
   -5.2752    3.3754    0.0000 C   0  0  0  0  0  0  0  0  0  0  0  0
   -5.9902    3.7745    0.0000 C   0  0  0  0  0  0  0  0  0  0  0  0
   -0.2744    6.2770    0.0000 O   0  0  0  0  0  0  0  0  0  0  0  0
   -3.8535    4.2027    0.0000 N   0  0  0  0  0  0  0  0  0  0  0  0
   -4.1486    3.1010    0.0000 O   0  0  0  0  0  0  0  0  0  0  0  0
   -4.9966    4.4937    0.0000 O   0  0  0  0  0  0  0  0  0  0  0  0
   -0.9977    7.5074    0.0000 O   0  0  0  0  0  0  0  0  0  0  0  0
   -2.4151    6.6761    0.0000 C   0  0  0  0  0  0  0  0  0  0  0  0
   -1.7043    5.4415    0.0000 C   0  0  0  0  0  0  0  0  0  0  0  0
   -7.4493    4.5685    0.0000 O   0  0  0  0  0  0  0  0  0  0  0  0
   -5.9693    2.1158    0.0000 O   0  0  0  0  0  0  0  0  0  0  0  0
    0.4407    6.6885    0.0000 C   0  0  0  0  0  0  0  0  0  0  0  0
   -3.8535    5.0175    0.0000 C   0  0  0  0  0  0  0  0  0  0  0  0
   -2.4193    5.0299    0.0000 C   0  0  0  0  0  0  0  0  0  0  0  0
   -3.1302    6.2603    0.0000 C   0  0  0  0  0  0  0  0  0  0  0  0
   -3.1385    5.4373    0.0000 C   0  0  0  0  0  0  0  0  0  0  0  0
   -7.3869    2.0909    0.0000 C   0  0  0  0  0  0  0  0  0  0  0  0
   -8.1352    3.3130    0.0000 C   0  0  0  0  0  0  0  0  0  0  0  0
   -8.1102    2.4817    0.0000 C   0  0  0  0  0  0  0  0  0  0  0  0
    0.4407    7.5116    0.0000 C   0  0  0  0  0  0  0  0  0  0  0  0
    1.1598    6.2770    0.0000 C   0  0  0  0  0  0  0  0  0  0  0  0
    1.8748    6.6885    0.0000 C   0  0  0  0  0  0  0  0  0  0  0  0
    1.1515    7.9314    0.0000 C   0  0  0  0  0  0  0  0  0  0  0  0
    1.8623    7.5116    0.0000 C   0  0  0  0  0  0  0  0  0  0  0  0
  2  8  1  0  0  0  0
  3  4  1  0  0  0  0
  4 14  1  0  0  0  0
  5  2  1  0  0  0  0
  6  2  1  0  0  0  0
  7  1  1  0  0  0  0
  8  7  1  0  0  0  0
  9  3  1  0  0  0  0
 10  1  1  0  0  0  0
 11  1  2  0  0  0  0
 12  1  2  0  0  0  0
 13  3  2  0  0  0  0
 14 21  1  0  0  0  0
 15 20  1  0  0  0  0
 16  5  2  0  0  0  0
 17  6  2  0  0  0  0
 18  9  1  0  0  0  0
 19 10  1  0  0  0  0
 20 22  1  0  0  0  0
 21 22  1  0  0  0  0
 22 19  1  0  0  0  0
 23  6  1  0  0  0  0
 24  5  1  0  0  0  0
 25 23  1  0  0  0  0
 26 18  1  0  0  0  0
 27 18  2  0  0  0  0
 28 27  1  0  0  0  0
 29 26  2  0  0  0  0
 30 28  2  0  0  0  0
 15  4  1  0  0  0  0
 24 25  1  0  0  0  0
 30 29  1  0  0  0  0
M  END
>  <IDNUMBER>
F5017-2080

>  <Chemical_Name>
phenyl 4-{[2-(2,6-dioxopiperidin-1-yl)ethanesulfonamido]methyl}piperidine-1-carboxylate

>  <PriceCoeff>
1.00

>  <MW>
437.51

>  <Description>
oil

>  <FSP3>
0.55

>  <clogP>
1.45

>  <TPSA>
121.47

>  <Acceptor>
6

>  <Donor>
1

>  <RotBonds>
9

>  <HAC>
30

>  <Collection>
General

$$$$
F5027-0654
  Mrv2219 10102508112D          

 26 28  0  0  0  0            999 V2000
   -5.2945    2.5763    0.0000 N   0  0  0  0  0  0  0  0  0  0  0  0
   -3.8665    4.2215    0.0000 N   0  0  0  0  0  0  0  0  0  0  0  0
   -4.5806    3.8081    0.0000 C   0  0  0  0  0  0  0  0  0  0  0  0
   -4.5806    2.9939    0.0000 C   0  0  0  0  0  0  0  0  0  0  0  0
   -5.3739    1.7495    0.0000 C   0  0  0  0  0  0  0  0  0  0  0  0
   -6.0421    2.9062    0.0000 C   0  0  0  0  0  0  0  0  0  0  0  0
    0.4426    2.5931    0.0000 C   0  0  0  0  0  0  0  0  0  0  0  0
   -3.1525    3.8164    0.0000 C   0  0  0  0  0  0  0  0  0  0  0  0
   -2.4259    4.2257    0.0000 C   0  0  0  0  0  0  0  0  0  0  0  0
   -0.2756    3.0022    0.0000 C   0  0  0  0  0  0  0  0  0  0  0  0
   -1.7119    3.8206    0.0000 C   0  0  0  0  0  0  0  0  0  0  0  0
   -2.4384    5.0524    0.0000 O   0  0  0  0  0  0  0  0  0  0  0  0
   -5.3071    4.2215    0.0000 O   0  0  0  0  0  0  0  0  0  0  0  0
   -6.5890    2.2881    0.0000 C   0  0  0  0  0  0  0  0  0  0  0  0
   -6.1799    1.5742    0.0000 C   0  0  0  0  0  0  0  0  0  0  0  0
   -6.2175    3.7162    0.0000 O   0  0  0  0  0  0  0  0  0  0  0  0
   -4.7559    1.1859    0.0000 O   0  0  0  0  0  0  0  0  0  0  0  0
   -0.9896    2.5889    0.0000 C   0  0  0  0  0  0  0  0  0  0  0  0
   -0.2839    3.8414    0.0000 C   0  0  0  0  0  0  0  0  0  0  0  0
    0.8561    3.3028    0.0000 F   0  0  0  0  0  0  0  0  0  0  0  0
    1.1692    2.1754    0.0000 F   0  0  0  0  0  0  0  0  0  0  0  0
    0.0376    1.8665    0.0000 F   0  0  0  0  0  0  0  0  0  0  0  0
   -0.9980    4.2298    0.0000 C   0  0  0  0  0  0  0  0  0  0  0  0
   -1.7119    3.0022    0.0000 C   0  0  0  0  0  0  0  0  0  0  0  0
   -3.8665    5.0524    0.0000 C   0  0  0  0  0  0  0  0  0  0  0  0
   -3.1525    5.4658    0.0000 C   0  0  0  0  0  0  0  0  0  0  0  0
  2  3  1  0  0  0  0
  3  4  1  0  0  0  0
  4  1  1  0  0  0  0
  5  1  1  0  0  0  0
  6  1  1  0  0  0  0
  7 10  1  0  0  0  0
  8  2  1  0  0  0  0
  9  8  1  0  0  0  0
 10 18  2  0  0  0  0
 11  9  1  0  0  0  0
 12 26  1  0  0  0  0
 13  3  2  0  0  0  0
 14  6  1  0  0  0  0
 15  5  1  0  0  0  0
 16  6  2  0  0  0  0
 17  5  2  0  0  0  0
 18 24  1  0  0  0  0
 19 23  2  0  0  0  0
 20  7  1  0  0  0  0
 21  7  1  0  0  0  0
 22  7  1  0  0  0  0
 23 11  1  0  0  0  0
 24 11  2  0  0  0  0
 25  2  1  0  0  0  0
 26 25  1  0  0  0  0
 15 14  1  0  0  0  0
  9 12  1  0  0  0  0
 19 10  1  0  0  0  0
M  END
>  <IDNUMBER>
F5027-0654

>  <Chemical_Name>
1-(2-oxo-2-{2-[4-(trifluoromethyl)phenyl]morpholin-4-yl}ethyl)pyrrolidine-2,5-dione

>  <PriceCoeff>
1.50

>  <CAS>
1351589-20-2

>  <MW>
370.32

>  <Description>
solid

>  <FSP3>
0.47

>  <clogP>
1.75

>  <TPSA>
66.92

>  <Acceptor>
4

>  <Donor>
0

>  <RotBonds>
4

>  <HAC>
26

>  <Collection>
Advanced

>  <PPDS>
+

$$$$
F5032-0039
  Mrv2219 10102508112D          

 19 20  0  0  0  0            999 V2000
    2.1586   -0.7424    0.0000 C   0  0  0  0  0  0  0  0  0  0  0  0
    2.4164   -1.5296    0.0000 C   0  0  0  0  0  0  0  0  0  0  0  0
    1.3543   -0.5706    0.0000 N   0  0  0  0  0  0  0  0  0  0  0  0
    1.0553   -1.9627    0.0000 N   0  0  0  0  0  0  0  0  0  0  0  0
    0.8043   -1.1755    0.0000 C   0  0  0  0  0  0  0  0  0  0  0  0
    1.8596   -2.1380    0.0000 C   0  0  0  0  0  0  0  0  0  0  0  0
    2.8289   -0.2613    0.0000 N   0  0  0  0  0  0  0  0  0  0  0  0
    3.2413   -1.5296    0.0000 N   0  0  0  0  0  0  0  0  0  0  0  0
    3.4991   -0.7424    0.0000 C   0  0  0  0  0  0  0  0  0  0  0  0
    0.0000   -1.0002    0.0000 O   0  0  0  0  0  0  0  0  0  0  0  0
    2.1071   -2.9285    0.0000 O   0  0  0  0  0  0  0  0  0  0  0  0
    4.2828   -0.4846    0.0000 N   0  0  0  0  0  0  0  0  0  0  0  0
    1.1068    0.2131    0.0000 C   0  0  0  0  0  0  0  0  0  0  0  0
    0.4984   -2.5711    0.0000 C   0  0  0  0  0  0  0  0  0  0  0  0
    5.2315    0.5843    0.0000 C   0  0  0  0  0  0  0  0  0  0  0  0
    6.1767    1.6499    0.0000 O   0  0  0  0  0  0  0  0  0  0  0  0
    4.4478    0.3265    0.0000 C   0  0  0  0  0  0  0  0  0  0  0  0
    5.3965    1.3989    0.0000 C   0  0  0  0  0  0  0  0  0  0  0  0
    6.3452    2.4610    0.0000 C   0  0  0  0  0  0  0  0  0  0  0  0
  2  1  2  0  0  0  0
  3  1  1  0  0  0  0
  4  5  1  0  0  0  0
  5  3  1  0  0  0  0
  6  2  1  0  0  0  0
  7  1  1  0  0  0  0
  8  2  1  0  0  0  0
  9  7  2  0  0  0  0
 10  5  2  0  0  0  0
 11  6  2  0  0  0  0
 12  9  1  0  0  0  0
 13  3  1  0  0  0  0
 14  4  1  0  0  0  0
 15 17  1  0  0  0  0
 16 18  1  0  0  0  0
 17 12  1  0  0  0  0
 18 15  1  0  0  0  0
 19 16  1  0  0  0  0
  9  8  1  0  0  0  0
  4  6  1  0  0  0  0
M  END
>  <IDNUMBER>
F5032-0039

>  <Chemical_Name>
8-[(3-methoxypropyl)amino]-1,3-dimethyl-2,3,6,7-tetrahydro-1H-purine-2,6-dione

>  <PriceCoeff>
1.50

>  <MW>
267.28

>  <Description>
solid

>  <FSP3>
0.55

>  <clogP>
0.88

>  <TPSA>
90.56

>  <Acceptor>
5

>  <Donor>
3

>  <RotBonds>
5

>  <HAC>
19

>  <Collection>
Advanced

>  <PPDS>
+

$$$$
F5032-0055
  Mrv2219 10102508112D          

 21 23  0  0  0  0            999 V2000
    2.5581    1.6791    0.0000 C   0  0  0  0  0  0  0  0  0  0  0  0
    2.8156    0.8927    0.0000 C   0  0  0  0  0  0  0  0  0  0  0  0
    1.4524    0.4601    0.0000 N   0  0  0  0  0  0  0  0  0  0  0  0
    3.2277    2.1597    0.0000 N   0  0  0  0  0  0  0  0  0  0  0  0
    1.7546    1.8507    0.0000 N   0  0  0  0  0  0  0  0  0  0  0  0
    1.2052    1.2430    0.0000 C   0  0  0  0  0  0  0  0  0  0  0  0
    2.2594    0.2850    0.0000 C   0  0  0  0  0  0  0  0  0  0  0  0
    3.8938    1.6791    0.0000 C   0  0  0  0  0  0  0  0  0  0  0  0
    3.6397    0.8927    0.0000 N   0  0  0  0  0  0  0  0  0  0  0  0
    0.7863   -0.2713    0.0000 C   0  0  0  0  0  0  0  0  0  0  0  0
    0.3949    1.4215    0.0000 O   0  0  0  0  0  0  0  0  0  0  0  0
    2.4036   -0.1889    0.0000 O   0  0  0  0  0  0  0  0  0  0  0  0
    4.6766    1.9366    0.0000 O   0  0  0  0  0  0  0  0  0  0  0  0
    1.5039    2.6336    0.0000 C   0  0  0  0  0  0  0  0  0  0  0  0
    4.1238    0.2232    0.0000 C   0  0  0  0  0  0  0  0  0  0  0  0
    1.0336   -1.0610    0.0000 C   0  0  0  0  0  0  0  0  0  0  0  0
    1.8439   -1.2361    0.0000 C   0  0  0  0  0  0  0  0  0  0  0  0
    0.4773   -1.6722    0.0000 C   0  0  0  0  0  0  0  0  0  0  0  0
    0.7314   -2.4516    0.0000 C   0  0  0  0  0  0  0  0  0  0  0  0
    2.0911   -2.0224    0.0000 C   0  0  0  0  0  0  0  0  0  0  0  0
    1.5383   -2.6302    0.0000 C   0  0  0  0  0  0  0  0  0  0  0  0
  2  1  2  0  0  0  0
  3  6  1  0  0  0  0
  4  1  1  0  0  0  0
  5  1  1  0  0  0  0
  6  5  1  0  0  0  0
  7  2  1  0  0  0  0
  8  4  2  0  0  0  0
  9  2  1  0  0  0  0
 10  3  1  0  0  0  0
 11  6  2  0  0  0  0
 12  7  2  0  0  0  0
 13  8  1  0  0  0  0
 14  5  1  0  0  0  0
 15  9  1  0  0  0  0
 16 10  1  0  0  0  0
 17 16  1  0  0  0  0
 18 16  2  0  0  0  0
 19 18  1  0  0  0  0
 20 17  2  0  0  0  0
 21 19  2  0  0  0  0
  8  9  1  0  0  0  0
  3  7  1  0  0  0  0
 21 20  1  0  0  0  0
M  END
>  <IDNUMBER>
F5032-0055

>  <Chemical_Name>
1-benzyl-8-hydroxy-3,7-dimethyl-2,3,6,7-tetrahydro-1H-purine-2,6-dione

>  <PriceCoeff>
1.50

>  <CAS>
223444-18-6

>  <MW>
286.29

>  <Description>
solid

>  <FSP3>
0.21

>  <clogP>
2.09

>  <TPSA>
78.67

>  <Acceptor>
4

>  <Donor>
2

>  <RotBonds>
2

>  <HAC>
21

>  <Collection>
Advanced

>  <PPDS>
+

$$$$
F5033-0010
  Mrv2219 10102508112D          

 19 20  0  0  0  0            999 V2000
   -0.8787    6.2467    0.0000 N   0  0  0  0  0  0  0  0  0  0  0  0
   -3.7388    3.7803    0.0000 C   0  0  0  0  0  0  0  0  0  0  0  0
   -3.0300    4.1907    0.0000 N   0  0  0  0  0  0  0  0  0  0  0  0
   -4.4476    4.1907    0.0000 O   0  0  0  0  0  0  0  0  0  0  0  0
   -4.4352    2.5326    0.0000 O   0  0  0  0  0  0  0  0  0  0  0  0
   -3.7388    2.9679    0.0000 C   0  0  0  0  0  0  0  0  0  0  0  0
   -1.5917    6.6570    0.0000 C   0  0  0  0  0  0  0  0  0  0  0  0
   -0.8829    5.4342    0.0000 C   0  0  0  0  0  0  0  0  0  0  0  0
   -3.0300    5.0032    0.0000 C   0  0  0  0  0  0  0  0  0  0  0  0
   -4.4145    1.7161    0.0000 C   0  0  0  0  0  0  0  0  0  0  0  0
   -2.3130    5.4218    0.0000 C   0  0  0  0  0  0  0  0  0  0  0  0
   -1.6000    5.0156    0.0000 C   0  0  0  0  0  0  0  0  0  0  0  0
   -2.3088    6.2467    0.0000 C   0  0  0  0  0  0  0  0  0  0  0  0
   -0.1617    6.6653    0.0000 C   0  0  0  0  0  0  0  0  0  0  0  0
   -5.1192    1.2933    0.0000 C   0  0  0  0  0  0  0  0  0  0  0  0
   -3.7140    1.3140    0.0000 C   0  0  0  0  0  0  0  0  0  0  0  0
   -3.6891    0.4850    0.0000 C   0  0  0  0  0  0  0  0  0  0  0  0
   -5.1316    0.4684    0.0000 C   0  0  0  0  0  0  0  0  0  0  0  0
   -4.4103    0.0580    0.0000 C   0  0  0  0  0  0  0  0  0  0  0  0
  2  3  1  0  0  0  0
  3  9  1  0  0  0  0
  4  2  2  0  0  0  0
  5  6  1  0  0  0  0
  6  2  1  0  0  0  0
  7  1  1  0  0  0  0
  8  1  1  0  0  0  0
  9 11  1  0  0  0  0
 10  5  1  0  0  0  0
 11 12  1  0  0  0  0
 12  8  1  0  0  0  0
 13  7  1  0  0  0  0
 14  1  1  0  0  0  0
 15 10  2  0  0  0  0
 16 10  1  0  0  0  0
 17 16  2  0  0  0  0
 18 15  1  0  0  0  0
 19 17  1  0  0  0  0
 13 11  1  0  0  0  0
 19 18  2  0  0  0  0
M  END
>  <IDNUMBER>
F5033-0010

>  <Chemical_Name>
N-[(1-methylpiperidin-4-yl)methyl]-2-phenoxyacetamide

>  <PriceCoeff>
1.50

>  <CAS>
953960-03-7

>  <MW>
262.35

>  <Description>
solid

>  <FSP3>
0.53

>  <clogP>
1.50

>  <TPSA>
41.57

>  <Acceptor>
2

>  <Donor>
2

>  <RotBonds>
5

>  <HAC>
19

>  <Collection>
Advanced

>  <PPDS>
+

$$$$
F5033-0182
  Mrv2219 10102508112D          

 22 23  0  0  0  0            999 V2000
   -0.8954    6.2719    0.0000 N   0  0  0  0  0  0  0  0  0  0  0  0
   -3.7565    3.7981    0.0000 C   0  0  0  0  0  0  0  0  0  0  0  0
   -3.0443    4.2104    0.0000 N   0  0  0  0  0  0  0  0  0  0  0  0
   -0.8954    5.4515    0.0000 C   0  0  0  0  0  0  0  0  0  0  0  0
   -1.6075    6.6884    0.0000 C   0  0  0  0  0  0  0  0  0  0  0  0
   -4.4686    4.2021    0.0000 O   0  0  0  0  0  0  0  0  0  0  0  0
   -0.1832    6.6884    0.0000 C   0  0  0  0  0  0  0  0  0  0  0  0
   -4.4811    2.5695    0.0000 O   0  0  0  0  0  0  0  0  0  0  0  0
   -3.7565    2.9818    0.0000 C   0  0  0  0  0  0  0  0  0  0  0  0
   -4.4853    1.7449    0.0000 C   0  0  0  0  0  0  0  0  0  0  0  0
   -3.0443    5.0267    0.0000 C   0  0  0  0  0  0  0  0  0  0  0  0
   -1.6075    5.0392    0.0000 C   0  0  0  0  0  0  0  0  0  0  0  0
   -2.3197    6.2761    0.0000 C   0  0  0  0  0  0  0  0  0  0  0  0
   -4.5311    0.0875    0.0000 C   0  0  0  0  0  0  0  0  0  0  0  0
   -2.3239    5.4473    0.0000 C   0  0  0  0  0  0  0  0  0  0  0  0
   -5.2182    1.3493    0.0000 C   0  0  0  0  0  0  0  0  0  0  0  0
   -3.7856    1.3119    0.0000 C   0  0  0  0  0  0  0  0  0  0  0  0
   -5.2349    0.5205    0.0000 C   0  0  0  0  0  0  0  0  0  0  0  0
   -3.8064    0.4831    0.0000 C   0  0  0  0  0  0  0  0  0  0  0  0
   -0.1832    7.5130    0.0000 C   0  0  0  0  0  0  0  0  0  0  0  0
    0.5289    6.2761    0.0000 C   0  0  0  0  0  0  0  0  0  0  0  0
   -4.5561   -0.7413    0.0000 C   0  0  0  0  0  0  0  0  0  0  0  0
  2  3  1  0  0  0  0
  3 11  1  0  0  0  0
  4  1  1  0  0  0  0
  5  1  1  0  0  0  0
  6  2  2  0  0  0  0
  7  1  1  0  0  0  0
  8  9  1  0  0  0  0
  9  2  1  0  0  0  0
 10  8  1  0  0  0  0
 11 15  1  0  0  0  0
 12  4  1  0  0  0  0
 13  5  1  0  0  0  0
 14 19  1  0  0  0  0
 15 13  1  0  0  0  0
 16 10  2  0  0  0  0
 17 10  1  0  0  0  0
 18 16  1  0  0  0  0
 19 17  2  0  0  0  0
 20  7  1  0  0  0  0
 21  7  1  0  0  0  0
 22 14  1  0  0  0  0
 12 15  1  0  0  0  0
 14 18  2  0  0  0  0
M  END
>  <IDNUMBER>
F5033-0182

>  <Chemical_Name>
2-(4-methylphenoxy)-N-{[1-(propan-2-yl)piperidin-4-yl]methyl}acetamide

>  <PriceCoeff>
1.50

>  <CAS>
946270-97-9

>  <MW>
304.43

>  <Description>
solid

>  <FSP3>
0.61

>  <clogP>
2.84

>  <TPSA>
41.57

>  <Acceptor>
2

>  <Donor>
2

>  <RotBonds>
6

>  <HAC>
22

>  <Collection>
Advanced

>  <PPDS>
+

$$$$
F5033-0277
  Mrv2219 10102508112D          

 23 24  0  0  0  0            999 V2000
   -0.8788    6.2473    0.0000 N   0  0  0  0  0  0  0  0  0  0  0  0
   -3.7392    3.7807    0.0000 C   0  0  0  0  0  0  0  0  0  0  0  0
   -3.0303    4.1911    0.0000 N   0  0  0  0  0  0  0  0  0  0  0  0
   -4.4481    4.1829    0.0000 O   0  0  0  0  0  0  0  0  0  0  0  0
   -4.4605    2.5577    0.0000 O   0  0  0  0  0  0  0  0  0  0  0  0
   -3.7392    2.9682    0.0000 C   0  0  0  0  0  0  0  0  0  0  0  0
   -1.5919    6.6577    0.0000 C   0  0  0  0  0  0  0  0  0  0  0  0
   -0.8830    5.4348    0.0000 C   0  0  0  0  0  0  0  0  0  0  0  0
   -4.4647    1.7369    0.0000 C   0  0  0  0  0  0  0  0  0  0  0  0
   -3.0303    5.0037    0.0000 C   0  0  0  0  0  0  0  0  0  0  0  0
   -4.5103    0.0871    0.0000 C   0  0  0  0  0  0  0  0  0  0  0  0
   -2.3132    5.4223    0.0000 C   0  0  0  0  0  0  0  0  0  0  0  0
   -5.1943    1.3431    0.0000 C   0  0  0  0  0  0  0  0  0  0  0  0
   -3.7683    1.3058    0.0000 C   0  0  0  0  0  0  0  0  0  0  0  0
   -5.2109    0.5182    0.0000 C   0  0  0  0  0  0  0  0  0  0  0  0
   -3.7890    0.4808    0.0000 C   0  0  0  0  0  0  0  0  0  0  0  0
   -2.3090    6.2473    0.0000 C   0  0  0  0  0  0  0  0  0  0  0  0
   -1.6001    5.0161    0.0000 C   0  0  0  0  0  0  0  0  0  0  0  0
   -0.1699    6.6577    0.0000 C   0  0  0  0  0  0  0  0  0  0  0  0
    1.2603    6.6702    0.0000 O   0  0  0  0  0  0  0  0  0  0  0  0
    0.5472    6.2598    0.0000 C   0  0  0  0  0  0  0  0  0  0  0  0
   -4.5352   -0.7379    0.0000 C   0  0  0  0  0  0  0  0  0  0  0  0
    1.9816    6.2473    0.0000 C   0  0  0  0  0  0  0  0  0  0  0  0
  2  3  1  0  0  0  0
  3 10  1  0  0  0  0
  4  2  2  0  0  0  0
  5  6  1  0  0  0  0
  6  2  1  0  0  0  0
  7  1  1  0  0  0  0
  8  1  1  0  0  0  0
  9  5  1  0  0  0  0
 10 12  1  0  0  0  0
 11 16  1  0  0  0  0
 12 18  1  0  0  0  0
 13  9  2  0  0  0  0
 14  9  1  0  0  0  0
 15 13  1  0  0  0  0
 16 14  2  0  0  0  0
 17  7  1  0  0  0  0
 18  8  1  0  0  0  0
 19  1  1  0  0  0  0
 20 21  1  0  0  0  0
 21 19  1  0  0  0  0
 22 11  1  0  0  0  0
 23 20  1  0  0  0  0
 17 12  1  0  0  0  0
 11 15  2  0  0  0  0
M  END
>  <IDNUMBER>
F5033-0277

>  <Chemical_Name>
N-{[1-(2-methoxyethyl)piperidin-4-yl]methyl}-2-(4-methylphenoxy)acetamide

>  <PriceCoeff>
1.00

>  <CAS>
954078-00-3

>  <MW>
320.43

>  <Description>
oil

>  <FSP3>
0.61

>  <clogP>
2.18

>  <TPSA>
50.80

>  <Acceptor>
3

>  <Donor>
2

>  <RotBonds>
8

>  <HAC>
23

>  <Collection>
General

>  <PPDS>
+

$$$$
F5033-3623
  Mrv2219 10102508112D          

 27 29  0  0  0  0            999 V2000
   -5.2804    2.5508    0.0000 N   0  0  0  0  0  0  0  0  0  0  0  0
   -0.9929    6.6805    0.0000 C   0  0  0  0  0  0  0  0  0  0  0  0
   -1.7075    6.2609    0.0000 N   0  0  0  0  0  0  0  0  0  0  0  0
   -5.3552    1.7283    0.0000 C   0  0  0  0  0  0  0  0  0  0  0  0
   -6.0116    2.8874    0.0000 C   0  0  0  0  0  0  0  0  0  0  0  0
   -4.5699    2.9746    0.0000 C   0  0  0  0  0  0  0  0  0  0  0  0
   -0.2742    6.2733    0.0000 O   0  0  0  0  0  0  0  0  0  0  0  0
   -4.5699    3.7889    0.0000 C   0  0  0  0  0  0  0  0  0  0  0  0
   -0.9971    7.5031    0.0000 O   0  0  0  0  0  0  0  0  0  0  0  0
   -3.8512    4.2003    0.0000 N   0  0  0  0  0  0  0  0  0  0  0  0
   -6.1487    1.5537    0.0000 C   0  0  0  0  0  0  0  0  0  0  0  0
   -6.5683    2.2684    0.0000 C   0  0  0  0  0  0  0  0  0  0  0  0
   -4.7444    1.1674    0.0000 O   0  0  0  0  0  0  0  0  0  0  0  0
   -6.1944    3.6975    0.0000 O   0  0  0  0  0  0  0  0  0  0  0  0
   -1.7033    5.4383    0.0000 C   0  0  0  0  0  0  0  0  0  0  0  0
   -2.4137    6.6722    0.0000 C   0  0  0  0  0  0  0  0  0  0  0  0
   -5.2846    4.2003    0.0000 O   0  0  0  0  0  0  0  0  0  0  0  0
    0.4404    6.6847    0.0000 C   0  0  0  0  0  0  0  0  0  0  0  0
   -3.8512    5.0145    0.0000 C   0  0  0  0  0  0  0  0  0  0  0  0
   -2.4179    5.0270    0.0000 C   0  0  0  0  0  0  0  0  0  0  0  0
   -3.1284    6.2567    0.0000 C   0  0  0  0  0  0  0  0  0  0  0  0
   -3.1367    5.4341    0.0000 C   0  0  0  0  0  0  0  0  0  0  0  0
    1.1591    6.2733    0.0000 C   0  0  0  0  0  0  0  0  0  0  0  0
    0.4404    7.5073    0.0000 C   0  0  0  0  0  0  0  0  0  0  0  0
    1.1508    7.9268    0.0000 C   0  0  0  0  0  0  0  0  0  0  0  0
    1.8738    6.6847    0.0000 C   0  0  0  0  0  0  0  0  0  0  0  0
    1.8613    7.5073    0.0000 C   0  0  0  0  0  0  0  0  0  0  0  0
  2  3  1  0  0  0  0
  3 16  1  0  0  0  0
  4  1  1  0  0  0  0
  5  1  1  0  0  0  0
  6  1  1  0  0  0  0
  7  2  1  0  0  0  0
  8  6  1  0  0  0  0
  9  2  2  0  0  0  0
 10  8  1  0  0  0  0
 11  4  1  0  0  0  0
 12  5  1  0  0  0  0
 13  4  2  0  0  0  0
 14  5  2  0  0  0  0
 15 20  1  0  0  0  0
 16 21  1  0  0  0  0
 17  8  2  0  0  0  0
 18  7  1  0  0  0  0
 19 10  1  0  0  0  0
 20 22  1  0  0  0  0
 21 22  1  0  0  0  0
 22 19  1  0  0  0  0
 23 18  2  0  0  0  0
 24 18  1  0  0  0  0
 25 24  2  0  0  0  0
 26 23  1  0  0  0  0
 27 25  1  0  0  0  0
 11 12  1  0  0  0  0
 15  3  1  0  0  0  0
 26 27  2  0  0  0  0
M  END
>  <IDNUMBER>
F5033-3623

>  <Chemical_Name>
phenyl 4-{[2-(2,5-dioxopyrrolidin-1-yl)acetamido]methyl}piperidine-1-carboxylate

>  <PriceCoeff>
1.00

>  <CAS>
1234986-35-6

>  <MW>
373.40

>  <Description>
solid

>  <FSP3>
0.47

>  <clogP>
0.67

>  <TPSA>
96.02

>  <Acceptor>
5

>  <Donor>
1

>  <RotBonds>
7

>  <HAC>
27

>  <Collection>
General

>  <PPDS>
+

$$$$
F5033-5422
  Mrv2219 10102508112D          

 27 29  0  0  0  0            999 V2000
   -5.2834    2.5523    0.0000 N   0  0  0  0  0  0  0  0  0  0  0  0
   -5.3583    1.7293    0.0000 C   0  0  0  0  0  0  0  0  0  0  0  0
   -6.0151    2.8890    0.0000 C   0  0  0  0  0  0  0  0  0  0  0  0
   -1.7043    6.2521    0.0000 N   0  0  0  0  0  0  0  0  0  0  0  0
   -4.5726    2.9763    0.0000 C   0  0  0  0  0  0  0  0  0  0  0  0
   -0.2702    6.2521    0.0000 C   0  0  0  0  0  0  0  0  0  0  0  0
   -4.5726    3.7911    0.0000 C   0  0  0  0  0  0  0  0  0  0  0  0
   -0.9935    6.6636    0.0000 C   0  0  0  0  0  0  0  0  0  0  0  0
   -3.8535    4.2027    0.0000 N   0  0  0  0  0  0  0  0  0  0  0  0
   -6.1523    1.5547    0.0000 C   0  0  0  0  0  0  0  0  0  0  0  0
   -6.5721    2.2697    0.0000 C   0  0  0  0  0  0  0  0  0  0  0  0
    0.4531    6.6636    0.0000 C   0  0  0  0  0  0  0  0  0  0  0  0
   -4.7472    1.1681    0.0000 O   0  0  0  0  0  0  0  0  0  0  0  0
   -6.1980    3.6996    0.0000 O   0  0  0  0  0  0  0  0  0  0  0  0
   -5.2876    4.2027    0.0000 O   0  0  0  0  0  0  0  0  0  0  0  0
   -2.4151    6.6636    0.0000 C   0  0  0  0  0  0  0  0  0  0  0  0
   -1.7085    5.4290    0.0000 C   0  0  0  0  0  0  0  0  0  0  0  0
    0.4531    7.4991    0.0000 S   0  0  0  0  0  0  0  0  0  0  0  0
   -3.8535    5.0175    0.0000 C   0  0  0  0  0  0  0  0  0  0  0  0
   -3.1385    5.4290    0.0000 C   0  0  0  0  0  0  0  0  0  0  0  0
   -3.1302    6.2521    0.0000 C   0  0  0  0  0  0  0  0  0  0  0  0
   -2.4276    5.0175    0.0000 C   0  0  0  0  0  0  0  0  0  0  0  0
   -0.2702    5.4248    0.0000 C   0  0  0  0  0  0  0  0  0  0  0  0
    1.1640    6.2479    0.0000 C   0  0  0  0  0  0  0  0  0  0  0  0
    1.1640    7.9107    0.0000 C   0  0  0  0  0  0  0  0  0  0  0  0
    0.4407    5.0175    0.0000 C   0  0  0  0  0  0  0  0  0  0  0  0
    1.1640    5.4290    0.0000 C   0  0  0  0  0  0  0  0  0  0  0  0
  2  1  1  0  0  0  0
  3  1  1  0  0  0  0
  4 17  1  0  0  0  0
  5  1  1  0  0  0  0
  6  8  1  0  0  0  0
  7  5  1  0  0  0  0
  8  4  1  0  0  0  0
  9  7  1  0  0  0  0
 10  2  1  0  0  0  0
 11  3  1  0  0  0  0
 12  6  1  0  0  0  0
 13  2  2  0  0  0  0
 14  3  2  0  0  0  0
 15  7  2  0  0  0  0
 16 21  1  0  0  0  0
 17 22  1  0  0  0  0
 18 12  1  0  0  0  0
 19  9  1  0  0  0  0
 20 19  1  0  0  0  0
 21 20  1  0  0  0  0
 22 20  1  0  0  0  0
 23  6  2  0  0  0  0
 24 12  2  0  0  0  0
 25 18  1  0  0  0  0
 26 23  1  0  0  0  0
 27 26  2  0  0  0  0
 10 11  1  0  0  0  0
 16  4  1  0  0  0  0
 24 27  1  0  0  0  0
M  END
>  <IDNUMBER>
F5033-5422

>  <Chemical_Name>
2-(2,5-dioxopyrrolidin-1-yl)-N-[(1-{[2-(methylsulfanyl)phenyl]methyl}piperidin-4-yl)methyl]acetamide

>  <PriceCoeff>
1.00

>  <CAS>
1235029-31-8

>  <MW>
389.51

>  <Description>
solid

>  <FSP3>
0.55

>  <clogP>
1.78

>  <TPSA>
95.02

>  <Acceptor>
3

>  <Donor>
2

>  <RotBonds>
7

>  <HAC>
27

>  <Collection>
General

>  <PPDS>
+

$$$$
F5045-0060
  Mrv2219 10102508112D          

 32 36  0  0  0  0            999 V2000
    2.6292   -2.0375    0.0000 N   0  0  0  0  0  0  0  0  0  0  0  0
    1.0292    1.3958    0.0000 C   0  0  0  0  0  0  0  0  0  0  0  0
   -0.0458    2.1833    0.0000 C   0  0  0  0  0  0  0  0  0  0  0  0
    0.2042    1.3958    0.0000 N   0  0  0  0  0  0  0  0  0  0  0  0
   -0.8333    2.4333    0.0000 C   0  0  0  0  0  0  0  0  0  0  0  0
    1.5167    0.7333    0.0000 N   0  0  0  0  0  0  0  0  0  0  0  0
   -1.4958    1.9583    0.0000 O   0  0  0  0  0  0  0  0  0  0  0  0
    2.9667   -1.2792    0.0000 C   0  0  0  0  0  0  0  0  0  0  0  0
    2.3375    0.8125    0.0000 C   0  0  0  0  0  0  0  0  0  0  0  0
   -1.0833    3.2208    0.0000 C   0  0  0  0  0  0  0  0  0  0  0  0
    3.0042   -2.7667    0.0000 C   0  0  0  0  0  0  0  0  0  0  0  0
    1.8042   -2.1625    0.0000 C   0  0  0  0  0  0  0  0  0  0  0  0
   -2.1708    2.4333    0.0000 C   0  0  0  0  0  0  0  0  0  0  0  0
    1.2875    2.1833    0.0000 S   0  0  0  0  0  0  0  0  0  0  0  0
    0.6167    2.6708    0.0000 C   0  0  0  0  0  0  0  0  0  0  0  0
   -1.9083    3.2208    0.0000 C   0  0  0  0  0  0  0  0  0  0  0  0
    2.4875   -0.6042    0.0000 C   0  0  0  0  0  0  0  0  0  0  0  0
    2.8167    0.1458    0.0000 C   0  0  0  0  0  0  0  0  0  0  0  0
   -2.9708    2.2708    0.0000 C   0  0  0  0  0  0  0  0  0  0  0  0
    2.6750    1.5708    0.0000 O   0  0  0  0  0  0  0  0  0  0  0  0
    2.4292   -3.3542    0.0000 C   0  0  0  0  0  0  0  0  0  0  0  0
    1.6917   -3.0000    0.0000 C   0  0  0  0  0  0  0  0  0  0  0  0
    3.8167   -2.9000    0.0000 O   0  0  0  0  0  0  0  0  0  0  0  0
    1.2250   -1.5875    0.0000 O   0  0  0  0  0  0  0  0  0  0  0  0
   -2.4583    3.8333    0.0000 C   0  0  0  0  0  0  0  0  0  0  0  0
   -3.5250    2.8750    0.0000 C   0  0  0  0  0  0  0  0  0  0  0  0
   -3.2708    3.6708    0.0000 C   0  0  0  0  0  0  0  0  0  0  0  0
    3.7875   -1.2042    0.0000 C   0  0  0  0  0  0  0  0  0  0  0  0
   -4.3333    2.6958    0.0000 O   0  0  0  0  0  0  0  0  0  0  0  0
    3.6500    0.2250    0.0000 C   0  0  0  0  0  0  0  0  0  0  0  0
    4.1292   -0.4417    0.0000 C   0  0  0  0  0  0  0  0  0  0  0  0
   -4.5833    1.9125    0.0000 C   0  0  0  0  0  0  0  0  0  0  0  0
  2  6  1  0  0  0  0
  3  4  1  0  0  0  0
  4  2  2  0  0  0  0
  5  3  1  0  0  0  0
  6  9  1  0  0  0  0
  7  5  1  0  0  0  0
  8  1  1  0  0  0  0
  9 18  1  0  0  0  0
 10  5  2  0  0  0  0
 11  1  1  0  0  0  0
 12  1  1  0  0  0  0
 13  7  1  0  0  0  0
 14  2  1  0  0  0  0
 15 14  1  0  0  0  0
 16 10  1  0  0  0  0
 17  8  1  0  0  0  0
 18 17  2  0  0  0  0
 19 13  1  0  0  0  0
 20  9  2  0  0  0  0
 21 11  1  0  0  0  0
 22 12  1  0  0  0  0
 23 11  2  0  0  0  0
 24 12  2  0  0  0  0
 25 16  1  0  0  0  0
 26 19  2  0  0  0  0
 27 25  2  0  0  0  0
 28  8  2  0  0  0  0
 29 26  1  0  0  0  0
 30 31  2  0  0  0  0
 31 28  1  0  0  0  0
 32 29  1  0  0  0  0
 22 21  1  0  0  0  0
 30 18  1  0  0  0  0
  3 15  2  0  0  0  0
 16 13  2  0  0  0  0
 26 27  1  0  0  0  0
M  END
>  <IDNUMBER>
F5045-0060

>  <Chemical_Name>
3-(2,5-dioxopyrrolidin-1-yl)-N-[4-(6-methoxy-1-benzofuran-2-yl)-1,3-thiazol-2-yl]benzamide

>  <PriceCoeff>
1.00

>  <CAS>
946275-17-8

>  <MW>
447.46

>  <Description>
solid

>  <FSP3>
0.13

>  <clogP>
2.81

>  <TPSA>
129.98

>  <Acceptor>
6

>  <Donor>
1

>  <RotBonds>
5

>  <HAC>
32

>  <Collection>
General

>  <PPDS>
+

$$$$
F5065-0008
  Mrv2219 10102508112D          

 27 30  0  0  0  0            999 V2000
   -3.3048   -1.1390    0.0000 C   0  0  0  0  0  0  0  0  0  0  0  0
   -4.0862   -0.8896    0.0000 N   0  0  0  0  0  0  0  0  0  0  0  0
   -3.3006   -1.9621    0.0000 C   0  0  0  0  0  0  0  0  0  0  0  0
   -4.5726   -1.5589    0.0000 N   0  0  0  0  0  0  0  0  0  0  0  0
   -4.0862   -2.2240    0.0000 N   0  0  0  0  0  0  0  0  0  0  0  0
   -2.5897   -0.7275    0.0000 C   0  0  0  0  0  0  0  0  0  0  0  0
   -2.5939    2.5565    0.0000 C   0  0  0  0  0  0  0  0  0  0  0  0
   -2.5939    1.7334    0.0000 N   0  0  0  0  0  0  0  0  0  0  0  0
   -2.5939    0.0873    0.0000 N   0  0  0  0  0  0  0  0  0  0  0  0
   -2.5897   -2.3736    0.0000 N   0  0  0  0  0  0  0  0  0  0  0  0
   -1.8789   -1.1390    0.0000 N   0  0  0  0  0  0  0  0  0  0  0  0
   -1.8789    2.9763    0.0000 N   0  0  0  0  0  0  0  0  0  0  0  0
   -0.4572    1.3177    0.0000 C   0  0  0  0  0  0  0  0  0  0  0  0
   -1.1681    1.7293    0.0000 C   0  0  0  0  0  0  0  0  0  0  0  0
   -1.8789   -1.9621    0.0000 C   0  0  0  0  0  0  0  0  0  0  0  0
   -1.1681    2.5565    0.0000 C   0  0  0  0  0  0  0  0  0  0  0  0
   -3.3048    2.9763    0.0000 O   0  0  0  0  0  0  0  0  0  0  0  0
   -1.8831    1.3219    0.0000 C   0  0  0  0  0  0  0  0  0  0  0  0
   -3.3130    1.3219    0.0000 C   0  0  0  0  0  0  0  0  0  0  0  0
   -1.8789    0.4988    0.0000 C   0  0  0  0  0  0  0  0  0  0  0  0
   -3.3130    0.4946    0.0000 C   0  0  0  0  0  0  0  0  0  0  0  0
    0.2661    1.7293    0.0000 C   0  0  0  0  0  0  0  0  0  0  0  0
    0.2661    2.5440    0.0000 C   0  0  0  0  0  0  0  0  0  0  0  0
   -0.4572    0.4946    0.0000 Cl  0  0  0  0  0  0  0  0  0  0  0  0
   -0.4448    2.9763    0.0000 C   0  0  0  0  0  0  0  0  0  0  0  0
    0.9769    1.3177    0.0000 Cl  0  0  0  0  0  0  0  0  0  0  0  0
   -4.3357   -3.0055    0.0000 C   0  0  0  0  0  0  0  0  0  0  0  0
  2  1  1  0  0  0  0
  3  1  2  0  0  0  0
  4  2  2  0  0  0  0
  5  3  1  0  0  0  0
  6  1  1  0  0  0  0
  7  8  1  0  0  0  0
  8 19  1  0  0  0  0
  9  6  1  0  0  0  0
 10  3  1  0  0  0  0
 11  6  2  0  0  0  0
 12  7  1  0  0  0  0
 13 14  1  0  0  0  0
 14 16  2  0  0  0  0
 15 11  1  0  0  0  0
 16 12  1  0  0  0  0
 17  7  2  0  0  0  0
 18 20  1  0  0  0  0
 19 21  1  0  0  0  0
 20  9  1  0  0  0  0
 21  9  1  0  0  0  0
 22 23  1  0  0  0  0
 23 25  2  0  0  0  0
 24 13  1  0  0  0  0
 25 16  1  0  0  0  0
 26 22  1  0  0  0  0
 27  5  1  0  0  0  0
  5  4  1  0  0  0  0
 15 10  2  0  0  0  0
  8 18  1  0  0  0  0
 22 13  2  0  0  0  0
M  END
>  <IDNUMBER>
F5065-0008

>  <Chemical_Name>
N-(3,4-dichlorophenyl)-4-{3-methyl-3H-[1,2,3]triazolo[4,5-d]pyrimidin-7-yl}piperazine-1-carboxamide

>  <PriceCoeff>
1.50

>  <CAS>
1058205-80-3

>  <MW>
407.26

>  <Description>
solid

>  <FSP3>
0.31

>  <clogP>
2.36

>  <TPSA>
92.07

>  <Acceptor>
5

>  <Donor>
2

>  <RotBonds>
3

>  <HAC>
27

>  <Collection>
Advanced

$$$$
F5065-0059
  Mrv2219 10102508112D          

 28 31  0  0  0  0            999 V2000
   -3.3048   -1.1390    0.0000 C   0  0  0  0  0  0  0  0  0  0  0  0
   -4.0862   -0.8896    0.0000 N   0  0  0  0  0  0  0  0  0  0  0  0
   -3.3006   -1.9621    0.0000 C   0  0  0  0  0  0  0  0  0  0  0  0
   -4.5726   -1.5589    0.0000 N   0  0  0  0  0  0  0  0  0  0  0  0
   -4.0862   -2.2240    0.0000 N   0  0  0  0  0  0  0  0  0  0  0  0
   -2.5897   -0.7275    0.0000 C   0  0  0  0  0  0  0  0  0  0  0  0
   -2.5939    2.5565    0.0000 C   0  0  0  0  0  0  0  0  0  0  0  0
   -2.5939    1.7334    0.0000 N   0  0  0  0  0  0  0  0  0  0  0  0
   -2.5939    0.0873    0.0000 N   0  0  0  0  0  0  0  0  0  0  0  0
   -2.5897   -2.3736    0.0000 N   0  0  0  0  0  0  0  0  0  0  0  0
   -1.8789   -1.1390    0.0000 N   0  0  0  0  0  0  0  0  0  0  0  0
   -1.8789    2.9763    0.0000 N   0  0  0  0  0  0  0  0  0  0  0  0
   -0.4572    1.3177    0.0000 C   0  0  0  0  0  0  0  0  0  0  0  0
   -1.1681    1.7293    0.0000 C   0  0  0  0  0  0  0  0  0  0  0  0
   -1.8789   -1.9621    0.0000 C   0  0  0  0  0  0  0  0  0  0  0  0
   -1.1681    2.5565    0.0000 C   0  0  0  0  0  0  0  0  0  0  0  0
   -3.3048    2.9763    0.0000 O   0  0  0  0  0  0  0  0  0  0  0  0
   -1.8831    1.3219    0.0000 C   0  0  0  0  0  0  0  0  0  0  0  0
   -3.3130    1.3219    0.0000 C   0  0  0  0  0  0  0  0  0  0  0  0
   -1.8789    0.4988    0.0000 C   0  0  0  0  0  0  0  0  0  0  0  0
   -3.3130    0.4946    0.0000 C   0  0  0  0  0  0  0  0  0  0  0  0
    0.2661    1.7293    0.0000 C   0  0  0  0  0  0  0  0  0  0  0  0
    0.2661    2.5440    0.0000 C   0  0  0  0  0  0  0  0  0  0  0  0
   -0.4572    0.4946    0.0000 Cl  0  0  0  0  0  0  0  0  0  0  0  0
   -0.4448    2.9763    0.0000 C   0  0  0  0  0  0  0  0  0  0  0  0
    0.9769    1.3177    0.0000 Cl  0  0  0  0  0  0  0  0  0  0  0  0
   -4.3357   -3.0055    0.0000 C   0  0  0  0  0  0  0  0  0  0  0  0
   -3.7787   -3.6165    0.0000 C   0  0  0  0  0  0  0  0  0  0  0  0
  2  1  1  0  0  0  0
  3  1  2  0  0  0  0
  4  2  2  0  0  0  0
  5  3  1  0  0  0  0
  6  1  1  0  0  0  0
  7  8  1  0  0  0  0
  8 19  1  0  0  0  0
  9  6  1  0  0  0  0
 10  3  1  0  0  0  0
 11  6  2  0  0  0  0
 12  7  1  0  0  0  0
 13 14  1  0  0  0  0
 14 16  2  0  0  0  0
 15 11  1  0  0  0  0
 16 12  1  0  0  0  0
 17  7  2  0  0  0  0
 18 20  1  0  0  0  0
 19 21  1  0  0  0  0
 20  9  1  0  0  0  0
 21  9  1  0  0  0  0
 22 23  1  0  0  0  0
 23 25  2  0  0  0  0
 24 13  1  0  0  0  0
 25 16  1  0  0  0  0
 26 22  1  0  0  0  0
 27  5  1  0  0  0  0
 28 27  1  0  0  0  0
  5  4  1  0  0  0  0
 15 10  2  0  0  0  0
  8 18  1  0  0  0  0
 22 13  2  0  0  0  0
M  END
>  <IDNUMBER>
F5065-0059

>  <Chemical_Name>
N-(3,4-dichlorophenyl)-4-{3-ethyl-3H-[1,2,3]triazolo[4,5-d]pyrimidin-7-yl}piperazine-1-carboxamide

>  <PriceCoeff>
1.50

>  <CAS>
1060163-33-8

>  <MW>
421.28

>  <Description>
solid

>  <FSP3>
0.35

>  <clogP>
2.89

>  <TPSA>
92.07

>  <Acceptor>
5

>  <Donor>
2

>  <RotBonds>
4

>  <HAC>
28

>  <Collection>
Advanced

$$$$
F5079-0263
  Mrv2219 10102508112D          

 28 31  0  0  0  0            999 V2000
    4.1898    2.0552    0.0000 N   0  0  0  0  0  0  0  0  0  0  0  0
    0.0794    3.2791    0.0000 C   0  0  0  0  0  0  0  0  0  0  0  0
   -0.2339    2.5147    0.0000 O   0  0  0  0  0  0  0  0  0  0  0  0
    0.8897    3.4671    0.0000 N   0  0  0  0  0  0  0  0  0  0  0  0
   -0.5389    3.8096    0.0000 N   0  0  0  0  0  0  0  0  0  0  0  0
   -1.0527    2.5773    0.0000 C   0  0  0  0  0  0  0  0  0  0  0  0
   -1.2490    3.3835    0.0000 N   0  0  0  0  0  0  0  0  0  0  0  0
    3.6259    2.6650    0.0000 C   0  0  0  0  0  0  0  0  0  0  0  0
    1.4537    2.8698    0.0000 C   0  0  0  0  0  0  0  0  0  0  0  0
    5.0127    2.1304    0.0000 C   0  0  0  0  0  0  0  0  0  0  0  0
    4.0018    1.2532    0.0000 C   0  0  0  0  0  0  0  0  0  0  0  0
   -3.1036    1.7502    0.0000 S   0  0  0  0  0  0  0  0  0  0  0  0
   -2.4520    2.2557    0.0000 C   0  0  0  0  0  0  0  0  0  0  0  0
   -3.7846    2.2264    0.0000 C   0  0  0  0  0  0  0  0  0  0  0  0
   -1.6542    2.0134    0.0000 C   0  0  0  0  0  0  0  0  0  0  0  0
    2.8196    2.4687    0.0000 C   0  0  0  0  0  0  0  0  0  0  0  0
    2.2474    3.0660    0.0000 C   0  0  0  0  0  0  0  0  0  0  0  0
   -3.5548    3.0159    0.0000 C   0  0  0  0  0  0  0  0  0  0  0  0
   -2.7277    3.0410    0.0000 C   0  0  0  0  0  0  0  0  0  0  0  0
    1.2198    2.0760    0.0000 O   0  0  0  0  0  0  0  0  0  0  0  0
    5.3427    1.3743    0.0000 C   0  0  0  0  0  0  0  0  0  0  0  0
    4.7286    0.8354    0.0000 C   0  0  0  0  0  0  0  0  0  0  0  0
    5.4430    2.8279    0.0000 O   0  0  0  0  0  0  0  0  0  0  0  0
    3.2457    0.9357    0.0000 O   0  0  0  0  0  0  0  0  0  0  0  0
   -4.5698    1.9507    0.0000 Cl  0  0  0  0  0  0  0  0  0  0  0  0
    3.8640    3.4462    0.0000 C   0  0  0  0  0  0  0  0  0  0  0  0
    2.4855    3.8555    0.0000 C   0  0  0  0  0  0  0  0  0  0  0  0
    3.2958    4.0394    0.0000 C   0  0  0  0  0  0  0  0  0  0  0  0
  2  4  1  0  0  0  0
  3  2  1  0  0  0  0
  4  9  1  0  0  0  0
  5  2  2  0  0  0  0
  6  3  1  0  0  0  0
  7  5  1  0  0  0  0
  8  1  1  0  0  0  0
  9 17  1  0  0  0  0
 10  1  1  0  0  0  0
 11  1  1  0  0  0  0
 12 13  1  0  0  0  0
 13 15  1  0  0  0  0
 14 12  1  0  0  0  0
 15  6  1  0  0  0  0
 16  8  1  0  0  0  0
 17 16  2  0  0  0  0
 18 19  1  0  0  0  0
 19 13  2  0  0  0  0
 20  9  2  0  0  0  0
 21 10  1  0  0  0  0
 22 11  1  0  0  0  0
 23 10  2  0  0  0  0
 24 11  2  0  0  0  0
 25 14  1  0  0  0  0
 26  8  2  0  0  0  0
 27 28  2  0  0  0  0
 28 26  1  0  0  0  0
 22 21  1  0  0  0  0
 27 17  1  0  0  0  0
  6  7  2  0  0  0  0
 14 18  2  0  0  0  0
M  END
>  <IDNUMBER>
F5079-0263

>  <Chemical_Name>
N-{5-[(5-chlorothiophen-2-yl)methyl]-1,3,4-oxadiazol-2-yl}-3-(2,5-dioxopyrrolidin-1-yl)benzamide

>  <PriceCoeff>
1.00

>  <CAS>
1021083-15-7

>  <MW>
416.84

>  <Description>
solid

>  <FSP3>
0.17

>  <clogP>
0.95

>  <TPSA>
133.64

>  <Acceptor>
6

>  <Donor>
1

>  <RotBonds>
5

>  <HAC>
28

>  <Collection>
General

>  <PPDS>
+

$$$$
F5103-0371
  Mrv2219 10102508112D          

 18 19  0  0  0  0            999 V2000
   -5.2895    2.5552    0.0000 N   0  0  0  0  0  0  0  0  0  0  0  0
   -5.3644    1.7312    0.0000 C   0  0  0  0  0  0  0  0  0  0  0  0
   -6.0220    2.8923    0.0000 C   0  0  0  0  0  0  0  0  0  0  0  0
   -4.5778    2.9797    0.0000 C   0  0  0  0  0  0  0  0  0  0  0  0
   -4.5778    3.7955    0.0000 C   0  0  0  0  0  0  0  0  0  0  0  0
   -3.5582    7.5327    0.0000 S   0  0  0  0  0  0  0  0  0  0  0  0
   -3.1545    6.2592    0.0000 C   0  0  0  0  0  0  0  0  0  0  0  0
   -3.8162    6.7461    0.0000 C   0  0  0  0  0  0  0  0  0  0  0  0
   -6.1593    1.5564    0.0000 C   0  0  0  0  0  0  0  0  0  0  0  0
   -6.5796    2.2723    0.0000 C   0  0  0  0  0  0  0  0  0  0  0  0
   -4.7526    1.1694    0.0000 O   0  0  0  0  0  0  0  0  0  0  0  0
   -6.2051    3.7039    0.0000 O   0  0  0  0  0  0  0  0  0  0  0  0
   -2.7342    7.5327    0.0000 C   0  0  0  0  0  0  0  0  0  0  0  0
   -2.4803    6.7461    0.0000 C   0  0  0  0  0  0  0  0  0  0  0  0
   -5.2937    4.2075    0.0000 O   0  0  0  0  0  0  0  0  0  0  0  0
   -3.8579    4.2075    0.0000 N   0  0  0  0  0  0  0  0  0  0  0  0
   -3.8579    5.0232    0.0000 C   0  0  0  0  0  0  0  0  0  0  0  0
   -3.1462    5.4352    0.0000 C   0  0  0  0  0  0  0  0  0  0  0  0
  2  1  1  0  0  0  0
  3  1  1  0  0  0  0
  4  1  1  0  0  0  0
  5  4  1  0  0  0  0
  6  8  1  0  0  0  0
  7 18  1  0  0  0  0
  8  7  2  0  0  0  0
  9  2  1  0  0  0  0
 10  3  1  0  0  0  0
 11  2  2  0  0  0  0
 12  3  2  0  0  0  0
 13 14  2  0  0  0  0
 14  7  1  0  0  0  0
 15  5  2  0  0  0  0
 16  5  1  0  0  0  0
 17 16  1  0  0  0  0
 18 17  1  0  0  0  0
 10  9  1  0  0  0  0
  6 13  1  0  0  0  0
M  END
>  <IDNUMBER>
F5103-0371

>  <Chemical_Name>
2-(2,5-dioxopyrrolidin-1-yl)-N-[2-(thiophen-3-yl)ethyl]acetamide

>  <PriceCoeff>
1.00

>  <CAS>
1251577-20-4

>  <MW>
266.32

>  <Description>
solid

>  <FSP3>
0.42

>  <clogP>
0.50

>  <TPSA>
94.72

>  <Acceptor>
3

>  <Donor>
1

>  <RotBonds>
5

>  <HAC>
18

>  <Collection>
General

>  <PPDS>
+

$$$$
F5123-0411
  Mrv2219 10102508112D          

 28 31  0  0  0  0            999 V2000
    0.4400    6.0821    0.0000 N   0  0  0  0  0  0  0  0  0  0  0  0
   -0.2704    5.6696    0.0000 N   0  0  0  0  0  0  0  0  0  0  0  0
    0.4400    6.9071    0.0000 C   0  0  0  0  0  0  0  0  0  0  0  0
   -0.9854    6.0821    0.0000 C   0  0  0  0  0  0  0  0  0  0  0  0
    1.2237    7.1638    0.0000 N   0  0  0  0  0  0  0  0  0  0  0  0
    1.7050    6.4900    0.0000 N   0  0  0  0  0  0  0  0  0  0  0  0
    1.2237    5.8346    0.0000 C   0  0  0  0  0  0  0  0  0  0  0  0
   -3.8454    4.4321    0.0000 C   0  0  0  0  0  0  0  0  0  0  0  0
   -3.1212    4.8446    0.0000 N   0  0  0  0  0  0  0  0  0  0  0  0
   -1.7004    5.6696    0.0000 N   0  0  0  0  0  0  0  0  0  0  0  0
   -0.2704    7.3196    0.0000 C   0  0  0  0  0  0  0  0  0  0  0  0
   -0.9854    6.9071    0.0000 C   0  0  0  0  0  0  0  0  0  0  0  0
   -4.5604    4.8446    0.0000 N   0  0  0  0  0  0  0  0  0  0  0  0
   -5.9812    3.1991    0.0000 C   0  0  0  0  0  0  0  0  0  0  0  0
   -5.2754    3.6116    0.0000 C   0  0  0  0  0  0  0  0  0  0  0  0
   -5.2754    4.4321    0.0000 C   0  0  0  0  0  0  0  0  0  0  0  0
   -3.8454    3.6116    0.0000 O   0  0  0  0  0  0  0  0  0  0  0  0
   -3.1212    5.6696    0.0000 C   0  0  0  0  0  0  0  0  0  0  0  0
   -2.4062    4.4321    0.0000 C   0  0  0  0  0  0  0  0  0  0  0  0
   -2.4062    6.0821    0.0000 C   0  0  0  0  0  0  0  0  0  0  0  0
   -1.7004    4.8446    0.0000 C   0  0  0  0  0  0  0  0  0  0  0  0
   -6.7009    3.6116    0.0000 C   0  0  0  0  0  0  0  0  0  0  0  0
   -6.7009    4.4321    0.0000 C   0  0  0  0  0  0  0  0  0  0  0  0
   -5.9766    2.3741    0.0000 Cl  0  0  0  0  0  0  0  0  0  0  0  0
   -5.9904    4.8446    0.0000 C   0  0  0  0  0  0  0  0  0  0  0  0
   -7.4250    3.1991    0.0000 Cl  0  0  0  0  0  0  0  0  0  0  0  0
    1.4850    5.0371    0.0000 C   0  0  0  0  0  0  0  0  0  0  0  0
    2.2871    4.8584    0.0000 C   0  0  0  0  0  0  0  0  0  0  0  0
  2  1  1  0  0  0  0
  3  1  1  0  0  0  0
  4  2  2  0  0  0  0
  5  3  2  0  0  0  0
  6  7  2  0  0  0  0
  7  1  1  0  0  0  0
  8  9  1  0  0  0  0
  9 19  1  0  0  0  0
 10  4  1  0  0  0  0
 11  3  1  0  0  0  0
 12 11  2  0  0  0  0
 13  8  1  0  0  0  0
 14 15  2  0  0  0  0
 15 16  1  0  0  0  0
 16 13  1  0  0  0  0
 17  8  2  0  0  0  0
 18 20  1  0  0  0  0
 19 21  1  0  0  0  0
 20 10  1  0  0  0  0
 21 10  1  0  0  0  0
 22 23  2  0  0  0  0
 23 25  1  0  0  0  0
 24 14  1  0  0  0  0
 25 16  2  0  0  0  0
 26 22  1  0  0  0  0
 27  7  1  0  0  0  0
 28 27  1  0  0  0  0
  5  6  1  0  0  0  0
  4 12  1  0  0  0  0
  9 18  1  0  0  0  0
 14 22  1  0  0  0  0
M  END
>  <IDNUMBER>
F5123-0411

>  <Chemical_Name>
N-(3,4-dichlorophenyl)-4-{3-ethyl-[1,2,4]triazolo[4,3-b]pyridazin-6-yl}piperazine-1-carboxamide

>  <PriceCoeff>
1.50

>  <CAS>
1058255-91-6

>  <MW>
420.30

>  <Description>
solid

>  <FSP3>
0.33

>  <clogP>
3.04

>  <TPSA>
78.66

>  <Acceptor>
4

>  <Donor>
2

>  <RotBonds>
4

>  <HAC>
28

>  <Collection>
Advanced

$$$$
F5225-0161
  Mrv2219 10102508112D          

 19 20  0  0  0  0            999 V2000
   -3.4076    7.5139    0.0000 C   0  0  0  0  0  0  0  0  0  0  0  0
   -3.4113    8.3389    0.0000 C   0  0  0  0  0  0  0  0  0  0  0  0
   -2.6830    7.1014    0.0000 N   0  0  0  0  0  0  0  0  0  0  0  0
   -3.3965    5.8640    0.0000 N   0  0  0  0  0  0  0  0  0  0  0  0
   -3.3965    5.0390    0.0000 N   0  0  0  0  0  0  0  0  0  0  0  0
   -2.6830    6.2690    0.0000 C   0  0  0  0  0  0  0  0  0  0  0  0
   -2.6756    4.6302    0.0000 C   0  0  0  0  0  0  0  0  0  0  0  0
   -2.6867    8.7551    0.0000 C   0  0  0  0  0  0  0  0  0  0  0  0
   -4.1211    7.1014    0.0000 O   0  0  0  0  0  0  0  0  0  0  0  0
   -2.6756    3.8015    0.0000 S   0  0  0  0  0  0  0  0  0  0  0  0
   -1.9695    5.8677    0.0000 C   0  0  0  0  0  0  0  0  0  0  0  0
   -1.9732    8.3500    0.0000 F   0  0  0  0  0  0  0  0  0  0  0  0
   -1.9621    5.0427    0.0000 C   0  0  0  0  0  0  0  0  0  0  0  0
   -4.1322    8.7551    0.0000 C   0  0  0  0  0  0  0  0  0  0  0  0
   -2.6941    9.5875    0.0000 C   0  0  0  0  0  0  0  0  0  0  0  0
   -1.9621    3.3891    0.0000 C   0  0  0  0  0  0  0  0  0  0  0  0
   -4.1322    9.5763    0.0000 C   0  0  0  0  0  0  0  0  0  0  0  0
   -1.2449    3.8015    0.0000 C   0  0  0  0  0  0  0  0  0  0  0  0
   -3.4076    9.9925    0.0000 C   0  0  0  0  0  0  0  0  0  0  0  0
  2  1  1  0  0  0  0
  3  1  1  0  0  0  0
  4  6  2  0  0  0  0
  5  4  1  0  0  0  0
  6  3  1  0  0  0  0
  7 13  1  0  0  0  0
  8  2  1  0  0  0  0
  9  1  2  0  0  0  0
 10  7  1  0  0  0  0
 11  6  1  0  0  0  0
 12  8  1  0  0  0  0
 13 11  2  0  0  0  0
 14  2  2  0  0  0  0
 15  8  2  0  0  0  0
 16 10  1  0  0  0  0
 17 14  1  0  0  0  0
 18 16  1  0  0  0  0
 19 17  2  0  0  0  0
 19 15  1  0  0  0  0
  7  5  2  0  0  0  0
M  END
>  <IDNUMBER>
F5225-0161

>  <Chemical_Name>
N-[6-(ethylsulfanyl)pyridazin-3-yl]-2-fluorobenzamide

>  <PriceCoeff>
1.50

>  <CAS>
1021121-03-8

>  <MW>
277.32

>  <Description>
solid

>  <FSP3>
0.15

>  <clogP>
3.08

>  <TPSA>
54.88

>  <Acceptor>
3

>  <Donor>
1

>  <RotBonds>
4

>  <HAC>
19

>  <Collection>
Advanced

>  <PPDS>
+

$$$$
F5228-0080
  Mrv2219 10102508112D          

 25 27  0  0  0  0            999 V2000
   -1.2824    4.1282    0.0000 N   0  0  0  0  0  0  0  0  0  0  0  0
    0.1109    4.4941    0.0000 C   0  0  0  0  0  0  0  0  0  0  0  0
   -0.4842    3.9065    0.0000 C   0  0  0  0  0  0  0  0  0  0  0  0
   -0.8981    5.5104    0.0000 N   0  0  0  0  0  0  0  0  0  0  0  0
   -0.0998    5.2924    0.0000 C   0  0  0  0  0  0  0  0  0  0  0  0
   -1.4857    4.9339    0.0000 C   0  0  0  0  0  0  0  0  0  0  0  0
   -3.8436    2.6351    0.0000 C   0  0  0  0  0  0  0  0  0  0  0  0
   -2.6610    3.7808    0.0000 C   0  0  0  0  0  0  0  0  0  0  0  0
   -3.2449    3.2116    0.0000 N   0  0  0  0  0  0  0  0  0  0  0  0
   -1.8589    3.5591    0.0000 C   0  0  0  0  0  0  0  0  0  0  0  0
   -3.6329    1.8294    0.0000 C   0  0  0  0  0  0  0  0  0  0  0  0
   -4.6308    2.8569    0.0000 C   0  0  0  0  0  0  0  0  0  0  0  0
   -0.2772    3.1266    0.0000 O   0  0  0  0  0  0  0  0  0  0  0  0
    0.4768    5.8690    0.0000 C   0  0  0  0  0  0  0  0  0  0  0  0
   -2.8680    4.5717    0.0000 O   0  0  0  0  0  0  0  0  0  0  0  0
   -5.2184    2.2803    0.0000 C   0  0  0  0  0  0  0  0  0  0  0  0
   -4.2205    1.2602    0.0000 C   0  0  0  0  0  0  0  0  0  0  0  0
   -5.0189    1.4820    0.0000 C   0  0  0  0  0  0  0  0  0  0  0  0
   -4.0210    0.4546    0.0000 Cl  0  0  0  0  0  0  0  0  0  0  0  0
   -4.8304    3.6404    0.0000 O   0  0  0  0  0  0  0  0  0  0  0  0
    1.2751    5.6583    0.0000 C   0  0  0  0  0  0  0  0  0  0  0  0
    0.2698    6.6746    0.0000 C   0  0  0  0  0  0  0  0  0  0  0  0
    1.8553    6.2349    0.0000 C   0  0  0  0  0  0  0  0  0  0  0  0
    0.8574    7.2549    0.0000 C   0  0  0  0  0  0  0  0  0  0  0  0
    1.6521    7.0331    0.0000 C   0  0  0  0  0  0  0  0  0  0  0  0
  2  3  1  0  0  0  0
  3  1  1  0  0  0  0
  4  6  2  0  0  0  0
  5  4  1  0  0  0  0
  6  1  1  0  0  0  0
  7  9  1  0  0  0  0
  8 10  1  0  0  0  0
  9  8  1  0  0  0  0
 10  1  1  0  0  0  0
 11  7  1  0  0  0  0
 12  7  2  0  0  0  0
 13  3  2  0  0  0  0
 14  5  1  0  0  0  0
 15  8  2  0  0  0  0
 16 12  1  0  0  0  0
 17 11  2  0  0  0  0
 18 16  2  0  0  0  0
 19 17  1  0  0  0  0
 20 12  1  0  0  0  0
 21 14  2  0  0  0  0
 22 14  1  0  0  0  0
 23 21  1  0  0  0  0
 24 22  2  0  0  0  0
 25 24  1  0  0  0  0
  5  2  2  0  0  0  0
 17 18  1  0  0  0  0
 25 23  2  0  0  0  0
M  END
>  <IDNUMBER>
F5228-0080

>  <Chemical_Name>
N-(5-chloro-2-hydroxyphenyl)-2-(6-oxo-4-phenyl-1,6-dihydropyrimidin-1-yl)acetamide

>  <PriceCoeff>
1.00

>  <CAS>
1058226-06-4

>  <MW>
355.78

>  <Description>
solid

>  <FSP3>
0.06

>  <clogP>
2.99

>  <TPSA>
82.00

>  <Acceptor>
4

>  <Donor>
2

>  <RotBonds>
4

>  <HAC>
25

>  <Collection>
General

>  <PPDS>
+

$$$$
F5252-0200
  Mrv2219 10102508112D          

 30 33  0  0  0  0            999 V2000
   -2.3982    0.1196    0.0000 C   0  0  0  0  0  0  0  0  0  0  0  0
   -1.5972   -0.0967    0.0000 N   0  0  0  0  0  0  0  0  0  0  0  0
   -2.3016   -1.2199    0.0000 N   0  0  0  0  0  0  0  0  0  0  0  0
   -1.5467   -0.9161    0.0000 N   0  0  0  0  0  0  0  0  0  0  0  0
   -2.8402   -0.5801    0.0000 N   0  0  0  0  0  0  0  0  0  0  0  0
   -0.2715    3.2268    0.0000 C   0  0  0  0  0  0  0  0  0  0  0  0
   -0.8700    2.6514    0.0000 N   0  0  0  0  0  0  0  0  0  0  0  0
    0.5156    2.9921    0.0000 N   0  0  0  0  0  0  0  0  0  0  0  0
   -2.6100    0.9068    0.0000 C   0  0  0  0  0  0  0  0  0  0  0  0
   -2.0392    1.4868    0.0000 N   0  0  0  0  0  0  0  0  0  0  0  0
   -0.9344    0.4004    0.0000 C   0  0  0  0  0  0  0  0  0  0  0  0
    2.4904    3.9036    0.0000 C   0  0  0  0  0  0  0  0  0  0  0  0
    1.9058    3.3373    0.0000 C   0  0  0  0  0  0  0  0  0  0  0  0
    1.1094    3.5721    0.0000 C   0  0  0  0  0  0  0  0  0  0  0  0
   -0.4695    4.0278    0.0000 O   0  0  0  0  0  0  0  0  0  0  0  0
    2.3062    4.6999    0.0000 C   0  0  0  0  0  0  0  0  0  0  0  0
   -0.6583    1.8597    0.0000 C   0  0  0  0  0  0  0  0  0  0  0  0
   -1.6802    2.8725    0.0000 C   0  0  0  0  0  0  0  0  0  0  0  0
   -1.0449    1.2244    0.0000 C   0  0  0  0  0  0  0  0  0  0  0  0
   -0.1749    0.0782    0.0000 C   0  0  0  0  0  0  0  0  0  0  0  0
    1.5099    4.9300    0.0000 C   0  0  0  0  0  0  0  0  0  0  0  0
   -2.2602    2.2878    0.0000 C   0  0  0  0  0  0  0  0  0  0  0  0
   -1.2382    1.2796    0.0000 C   0  0  0  0  0  0  0  0  0  0  0  0
    3.3052    3.6825    0.0000 Cl  0  0  0  0  0  0  0  0  0  0  0  0
    0.9161    4.3592    0.0000 C   0  0  0  0  0  0  0  0  0  0  0  0
    2.9047    5.2662    0.0000 Cl  0  0  0  0  0  0  0  0  0  0  0  0
    0.4879    0.5801    0.0000 C   0  0  0  0  0  0  0  0  0  0  0  0
   -0.3820    1.7216    0.0000 C   0  0  0  0  0  0  0  0  0  0  0  0
    0.3775    1.4039    0.0000 C   0  0  0  0  0  0  0  0  0  0  0  0
    1.0404    1.9149    0.0000 C   0  0  0  0  0  0  0  0  0  0  0  0
  2  1  1  0  0  0  0
  3  5  1  0  0  0  0
  4  2  1  0  0  0  0
  5  1  2  0  0  0  0
  6  7  1  0  0  0  0
  7 17  1  0  0  0  0
  8  6  1  0  0  0  0
  9  1  1  0  0  0  0
 10  9  1  0  0  0  0
 11  2  1  0  0  0  0
 12 13  1  0  0  0  0
 13 14  2  0  0  0  0
 14  8  1  0  0  0  0
 15  6  2  0  0  0  0
 16 21  1  0  0  0  0
 17 23  1  0  0  0  0
 18 22  1  0  0  0  0
 19 11  2  0  0  0  0
 20 11  1  0  0  0  0
 21 25  2  0  0  0  0
 22 10  1  0  0  0  0
 23 10  1  0  0  0  0
 24 12  1  0  0  0  0
 25 14  1  0  0  0  0
 26 16  1  0  0  0  0
 27 20  2  0  0  0  0
 28 19  1  0  0  0  0
 29 27  1  0  0  0  0
 30 29  1  0  0  0  0
  4  3  2  0  0  0  0
 18  7  1  0  0  0  0
 28 29  2  0  0  0  0
 16 12  2  0  0  0  0
M  END
>  <IDNUMBER>
F5252-0200

>  <Chemical_Name>
N-(3,4-dichlorophenyl)-4-{[1-(4-methylphenyl)-1H-1,2,3,4-tetrazol-5-yl]methyl}piperazine-1-carboxamide

>  <PriceCoeff>
1.00

>  <CAS>
1049364-36-4

>  <MW>
446.33

>  <Description>
solid

>  <FSP3>
0.30

>  <clogP>
3.94

>  <TPSA>
79.18

>  <Acceptor>
4

>  <Donor>
2

>  <RotBonds>
5

>  <HAC>
30

>  <Collection>
General

>  <PPDS>
+

$$$$
F5252-0296
  Mrv2219 10102508112D          

 31 34  0  0  0  0            999 V2000
   -2.3982    0.1196    0.0000 C   0  0  0  0  0  0  0  0  0  0  0  0
   -1.5972   -0.0967    0.0000 N   0  0  0  0  0  0  0  0  0  0  0  0
   -2.3016   -1.2199    0.0000 N   0  0  0  0  0  0  0  0  0  0  0  0
   -1.5467   -0.9161    0.0000 N   0  0  0  0  0  0  0  0  0  0  0  0
   -2.8402   -0.5801    0.0000 N   0  0  0  0  0  0  0  0  0  0  0  0
   -0.2715    3.2268    0.0000 C   0  0  0  0  0  0  0  0  0  0  0  0
   -0.8700    2.6514    0.0000 N   0  0  0  0  0  0  0  0  0  0  0  0
    0.5156    2.9921    0.0000 N   0  0  0  0  0  0  0  0  0  0  0  0
   -2.6100    0.9068    0.0000 C   0  0  0  0  0  0  0  0  0  0  0  0
   -2.0392    1.4868    0.0000 N   0  0  0  0  0  0  0  0  0  0  0  0
   -0.9344    0.4004    0.0000 C   0  0  0  0  0  0  0  0  0  0  0  0
    2.4904    3.9036    0.0000 C   0  0  0  0  0  0  0  0  0  0  0  0
    1.9058    3.3373    0.0000 C   0  0  0  0  0  0  0  0  0  0  0  0
    1.1094    3.5721    0.0000 C   0  0  0  0  0  0  0  0  0  0  0  0
   -0.4695    4.0278    0.0000 O   0  0  0  0  0  0  0  0  0  0  0  0
    2.3062    4.6999    0.0000 C   0  0  0  0  0  0  0  0  0  0  0  0
   -0.6583    1.8597    0.0000 C   0  0  0  0  0  0  0  0  0  0  0  0
   -1.6802    2.8725    0.0000 C   0  0  0  0  0  0  0  0  0  0  0  0
   -1.0449    1.2244    0.0000 C   0  0  0  0  0  0  0  0  0  0  0  0
   -0.1749    0.0782    0.0000 C   0  0  0  0  0  0  0  0  0  0  0  0
    1.5099    4.9300    0.0000 C   0  0  0  0  0  0  0  0  0  0  0  0
   -2.2602    2.2878    0.0000 C   0  0  0  0  0  0  0  0  0  0  0  0
   -1.2382    1.2796    0.0000 C   0  0  0  0  0  0  0  0  0  0  0  0
    3.3052    3.6825    0.0000 Cl  0  0  0  0  0  0  0  0  0  0  0  0
    0.9161    4.3592    0.0000 C   0  0  0  0  0  0  0  0  0  0  0  0
    2.9047    5.2662    0.0000 Cl  0  0  0  0  0  0  0  0  0  0  0  0
    0.3775    1.4039    0.0000 C   0  0  0  0  0  0  0  0  0  0  0  0
    0.4879    0.5801    0.0000 C   0  0  0  0  0  0  0  0  0  0  0  0
   -0.3820    1.7216    0.0000 C   0  0  0  0  0  0  0  0  0  0  0  0
    1.0404    1.9149    0.0000 O   0  0  0  0  0  0  0  0  0  0  0  0
    1.8091    1.6019    0.0000 C   0  0  0  0  0  0  0  0  0  0  0  0
  2  1  1  0  0  0  0
  3  5  1  0  0  0  0
  4  2  1  0  0  0  0
  5  1  2  0  0  0  0
  6  7  1  0  0  0  0
  7 17  1  0  0  0  0
  8  6  1  0  0  0  0
  9  1  1  0  0  0  0
 10  9  1  0  0  0  0
 11  2  1  0  0  0  0
 12 13  1  0  0  0  0
 13 14  2  0  0  0  0
 14  8  1  0  0  0  0
 15  6  2  0  0  0  0
 16 21  1  0  0  0  0
 17 23  1  0  0  0  0
 18 22  1  0  0  0  0
 19 11  2  0  0  0  0
 20 11  1  0  0  0  0
 21 25  2  0  0  0  0
 22 10  1  0  0  0  0
 23 10  1  0  0  0  0
 24 12  1  0  0  0  0
 25 14  1  0  0  0  0
 26 16  1  0  0  0  0
 27 28  1  0  0  0  0
 28 20  2  0  0  0  0
 29 19  1  0  0  0  0
 30 27  1  0  0  0  0
 31 30  1  0  0  0  0
  4  3  2  0  0  0  0
 18  7  1  0  0  0  0
 29 27  2  0  0  0  0
 16 12  2  0  0  0  0
M  END
>  <IDNUMBER>
F5252-0296

>  <Chemical_Name>
N-(3,4-dichlorophenyl)-4-{[1-(4-methoxyphenyl)-1H-1,2,3,4-tetrazol-5-yl]methyl}piperazine-1-carboxamide

>  <PriceCoeff>
1.00

>  <CAS>
1049411-71-3

>  <MW>
462.33

>  <Description>
solid

>  <FSP3>
0.30

>  <clogP>
3.82

>  <TPSA>
88.41

>  <Acceptor>
5

>  <Donor>
2

>  <RotBonds>
6

>  <HAC>
31

>  <Collection>
General

>  <PPDS>
+

$$$$
F5323-0338
  Mrv2219 10102508112D          

 25 28  0  0  0  0            999 V2000
   -2.8062    2.0757    0.0000 C   0  0  0  0  0  0  0  0  0  0  0  0
   -2.1624    2.5462    0.0000 N   0  0  0  0  0  0  0  0  0  0  0  0
   -2.4100    3.3262    0.0000 N   0  0  0  0  0  0  0  0  0  0  0  0
   -3.4747    2.5462    0.0000 C   0  0  0  0  0  0  0  0  0  0  0  0
   -2.8062   -0.4705    0.0000 N   0  0  0  0  0  0  0  0  0  0  0  0
   -3.2189    3.3262    0.0000 C   0  0  0  0  0  0  0  0  0  0  0  0
   -2.7938    1.2586    0.0000 N   0  0  0  0  0  0  0  0  0  0  0  0
   -2.6452   -1.2793    0.0000 C   0  0  0  0  0  0  0  0  0  0  0  0
   -2.0923   -0.0537    0.0000 C   0  0  0  0  0  0  0  0  0  0  0  0
   -3.6398    0.6933    0.0000 C   0  0  0  0  0  0  0  0  0  0  0  0
   -3.5614   -0.1280    0.0000 C   0  0  0  0  0  0  0  0  0  0  0  0
   -1.3742    2.2986    0.0000 C   0  0  0  0  0  0  0  0  0  0  0  0
   -1.4815   -0.6108    0.0000 C   0  0  0  0  0  0  0  0  0  0  0  0
   -1.8158   -1.3660    0.0000 C   0  0  0  0  0  0  0  0  0  0  0  0
   -1.9932    0.7634    0.0000 O   0  0  0  0  0  0  0  0  0  0  0  0
   -3.2065   -1.8860    0.0000 O   0  0  0  0  0  0  0  0  0  0  0  0
   -4.3826    1.0028    0.0000 O   0  0  0  0  0  0  0  0  0  0  0  0
   -4.2794    2.5462    0.0000 C   0  0  0  0  0  0  0  0  0  0  0  0
   -3.8833    3.7966    0.0000 C   0  0  0  0  0  0  0  0  0  0  0  0
   -4.5394    3.3138    0.0000 C   0  0  0  0  0  0  0  0  0  0  0  0
   -0.7634    2.8557    0.0000 C   0  0  0  0  0  0  0  0  0  0  0  0
   -1.2009    1.4939    0.0000 C   0  0  0  0  0  0  0  0  0  0  0  0
   -0.4168    1.2339    0.0000 C   0  0  0  0  0  0  0  0  0  0  0  0
    0.0248    2.5999    0.0000 C   0  0  0  0  0  0  0  0  0  0  0  0
    0.2022    1.7910    0.0000 C   0  0  0  0  0  0  0  0  0  0  0  0
  2  1  1  0  0  0  0
  3  2  1  0  0  0  0
  4  1  2  0  0  0  0
  5 11  1  0  0  0  0
  6  4  1  0  0  0  0
  7  1  1  0  0  0  0
  8  5  1  0  0  0  0
  9  5  1  0  0  0  0
 10  7  1  0  0  0  0
 11 10  1  0  0  0  0
 12  2  1  0  0  0  0
 13  9  1  0  0  0  0
 14  8  1  0  0  0  0
 15  9  2  0  0  0  0
 16  8  2  0  0  0  0
 17 10  2  0  0  0  0
 18  4  1  0  0  0  0
 19  6  1  0  0  0  0
 20 18  1  0  0  0  0
 21 12  2  0  0  0  0
 22 12  1  0  0  0  0
 23 22  2  0  0  0  0
 24 21  1  0  0  0  0
 25 23  1  0  0  0  0
  3  6  2  0  0  0  0
 19 20  1  0  0  0  0
 25 24  2  0  0  0  0
 14 13  1  0  0  0  0
M  END
>  <IDNUMBER>
F5323-0338

>  <Chemical_Name>
2-(2,5-dioxopyrrolidin-1-yl)-N-{2-phenyl-2H,4H,5H,6H-cyclopenta[c]pyrazol-3-yl}acetamide

>  <PriceCoeff>
1.00

>  <CAS>
1203204-82-3

>  <MW>
338.36

>  <Description>
solid

>  <FSP3>
0.33

>  <clogP>
1.63

>  <TPSA>
84.30

>  <Acceptor>
4

>  <Donor>
1

>  <RotBonds>
4

>  <HAC>
25

>  <Collection>
General

>  <PPDS>
+

$$$$
F5323-0610
  Mrv2219 10102508112D          

 28 32  0  0  0  0            999 V2000
   -2.1672    2.5518    0.0000 N   0  0  0  0  0  0  0  0  0  0  0  0
   -2.8124    2.0803    0.0000 C   0  0  0  0  0  0  0  0  0  0  0  0
   -1.3773    2.3037    0.0000 C   0  0  0  0  0  0  0  0  0  0  0  0
   -2.4153    3.3335    0.0000 N   0  0  0  0  0  0  0  0  0  0  0  0
   -3.4824    2.5518    0.0000 C   0  0  0  0  0  0  0  0  0  0  0  0
   -2.8124   -0.4715    0.0000 N   0  0  0  0  0  0  0  0  0  0  0  0
   -1.1249    1.5096    0.0000 N   0  0  0  0  0  0  0  0  0  0  0  0
   -0.7155    2.7917    0.0000 S   0  0  0  0  0  0  0  0  0  0  0  0
   -3.2260    3.3335    0.0000 C   0  0  0  0  0  0  0  0  0  0  0  0
   -2.8000    1.2614    0.0000 N   0  0  0  0  0  0  0  0  0  0  0  0
   -2.6511   -1.2822    0.0000 C   0  0  0  0  0  0  0  0  0  0  0  0
   -2.0969   -0.0538    0.0000 C   0  0  0  0  0  0  0  0  0  0  0  0
   -3.6479    0.6948    0.0000 C   0  0  0  0  0  0  0  0  0  0  0  0
   -0.2978    1.5220    0.0000 C   0  0  0  0  0  0  0  0  0  0  0  0
   -0.0372    2.3037    0.0000 C   0  0  0  0  0  0  0  0  0  0  0  0
   -3.5693   -0.1282    0.0000 C   0  0  0  0  0  0  0  0  0  0  0  0
   -1.4848   -0.6121    0.0000 C   0  0  0  0  0  0  0  0  0  0  0  0
   -1.8198   -1.3690    0.0000 C   0  0  0  0  0  0  0  0  0  0  0  0
   -1.9977    0.7651    0.0000 O   0  0  0  0  0  0  0  0  0  0  0  0
   -3.2136   -1.8901    0.0000 O   0  0  0  0  0  0  0  0  0  0  0  0
   -4.3924    1.0050    0.0000 O   0  0  0  0  0  0  0  0  0  0  0  0
   -4.2889    2.5518    0.0000 C   0  0  0  0  0  0  0  0  0  0  0  0
   -3.8919    3.8050    0.0000 C   0  0  0  0  0  0  0  0  0  0  0  0
   -4.5495    3.3211    0.0000 C   0  0  0  0  0  0  0  0  0  0  0  0
    0.2523    0.9016    0.0000 C   0  0  0  0  0  0  0  0  0  0  0  0
    0.7693    2.4774    0.0000 C   0  0  0  0  0  0  0  0  0  0  0  0
    1.3194    1.8694    0.0000 C   0  0  0  0  0  0  0  0  0  0  0  0
    1.0671    1.0753    0.0000 C   0  0  0  0  0  0  0  0  0  0  0  0
  2  1  1  0  0  0  0
  3  1  1  0  0  0  0
  4  1  1  0  0  0  0
  5  2  2  0  0  0  0
  6 16  1  0  0  0  0
  7  3  2  0  0  0  0
  8  3  1  0  0  0  0
  9  4  2  0  0  0  0
 10  2  1  0  0  0  0
 11  6  1  0  0  0  0
 12  6  1  0  0  0  0
 13 10  1  0  0  0  0
 14  7  1  0  0  0  0
 15  8  1  0  0  0  0
 16 13  1  0  0  0  0
 17 12  1  0  0  0  0
 18 11  1  0  0  0  0
 19 12  2  0  0  0  0
 20 11  2  0  0  0  0
 21 13  2  0  0  0  0
 22  5  1  0  0  0  0
 23  9  1  0  0  0  0
 24 23  1  0  0  0  0
 25 14  1  0  0  0  0
 26 15  1  0  0  0  0
 27 26  2  0  0  0  0
 28 25  2  0  0  0  0
  5  9  1  0  0  0  0
 14 15  2  0  0  0  0
 22 24  1  0  0  0  0
 27 28  1  0  0  0  0
 18 17  1  0  0  0  0
M  END
>  <IDNUMBER>
F5323-0610

>  <Chemical_Name>
N-[2-(1,3-benzothiazol-2-yl)-2H,4H,5H,6H-cyclopenta[c]pyrazol-3-yl]-2-(2,5-dioxopyrrolidin-1-yl)acetamide

>  <PriceCoeff>
1.00

>  <CAS>
1172526-39-4

>  <MW>
395.43

>  <Description>
solid

>  <FSP3>
0.32

>  <clogP>
2.32

>  <TPSA>
125.43

>  <Acceptor>
5

>  <Donor>
1

>  <RotBonds>
4

>  <HAC>
28

>  <Collection>
General

>  <PPDS>
+

$$$$
F5381-0001
  Mrv2219 10102508112D          

 25 27  0  0  0  0            999 V2000
   -3.0801    4.1395    0.0000 S   0  0  0  0  0  0  0  0  0  0  0  0
   -0.9408    4.5526    0.0000 N   0  0  0  0  0  0  0  0  0  0  0  0
   -3.7918    3.7304    0.0000 N   0  0  0  0  0  0  0  0  0  0  0  0
   -2.3683    4.5567    0.0000 C   0  0  0  0  0  0  0  0  0  0  0  0
   -0.2209    4.1395    0.0000 C   0  0  0  0  0  0  0  0  0  0  0  0
   -0.9326    5.3666    0.0000 C   0  0  0  0  0  0  0  0  0  0  0  0
   -5.2234    2.9083    0.0000 N   0  0  0  0  0  0  0  0  0  0  0  0
   -1.6566    4.1354    0.0000 C   0  0  0  0  0  0  0  0  0  0  0  0
   -4.5117    4.1395    0.0000 C   0  0  0  0  0  0  0  0  0  0  0  0
   -3.7918    2.9164    0.0000 C   0  0  0  0  0  0  0  0  0  0  0  0
   -3.4850    4.8512    0.0000 O   0  0  0  0  0  0  0  0  0  0  0  0
   -2.6587    3.4359    0.0000 O   0  0  0  0  0  0  0  0  0  0  0  0
   -4.5117    2.4992    0.0000 C   0  0  0  0  0  0  0  0  0  0  0  0
   -5.2234    3.7427    0.0000 C   0  0  0  0  0  0  0  0  0  0  0  0
   -1.6525    5.7838    0.0000 O   0  0  0  0  0  0  0  0  0  0  0  0
   -0.2290    3.3214    0.0000 O   0  0  0  0  0  0  0  0  0  0  0  0
   -5.9311    2.5115    0.0000 C   0  0  0  0  0  0  0  0  0  0  0  0
   -0.2290    5.7838    0.0000 C   0  0  0  0  0  0  0  0  0  0  0  0
    0.4950    4.5526    0.0000 C   0  0  0  0  0  0  0  0  0  0  0  0
    0.4827    5.3666    0.0000 C   0  0  0  0  0  0  0  0  0  0  0  0
   -6.6428    2.9287    0.0000 C   0  0  0  0  0  0  0  0  0  0  0  0
   -5.9311    1.6893    0.0000 C   0  0  0  0  0  0  0  0  0  0  0  0
   -6.6428    1.2762    0.0000 C   0  0  0  0  0  0  0  0  0  0  0  0
   -7.3627    2.5156    0.0000 C   0  0  0  0  0  0  0  0  0  0  0  0
   -7.3668    1.6893    0.0000 C   0  0  0  0  0  0  0  0  0  0  0  0
  2  8  1  0  0  0  0
  3  1  1  0  0  0  0
  4  1  1  0  0  0  0
  5  2  1  0  0  0  0
  6  2  1  0  0  0  0
  7 13  1  0  0  0  0
  8  4  1  0  0  0  0
  9  3  1  0  0  0  0
 10  3  1  0  0  0  0
 11  1  2  0  0  0  0
 12  1  2  0  0  0  0
 13 10  1  0  0  0  0
 14  9  1  0  0  0  0
 15  6  2  0  0  0  0
 16  5  2  0  0  0  0
 17  7  1  0  0  0  0
 18  6  1  0  0  0  0
 19  5  1  0  0  0  0
 20 18  1  0  0  0  0
 21 17  2  0  0  0  0
 22 17  1  0  0  0  0
 23 22  2  0  0  0  0
 24 21  1  0  0  0  0
 25 23  1  0  0  0  0
  7 14  1  0  0  0  0
 20 19  1  0  0  0  0
 24 25  2  0  0  0  0
M  END
>  <IDNUMBER>
F5381-0001

>  <Chemical_Name>
1-{2-[(4-phenylpiperazin-1-yl)sulfonyl]ethyl}piperidine-2,6-dione

>  <PriceCoeff>
1.00

>  <CAS>
1040674-39-2

>  <MW>
365.45

>  <Description>
solid

>  <FSP3>
0.53

>  <clogP>
2.12

>  <TPSA>
86.38

>  <Acceptor>
5

>  <Donor>
1

>  <RotBonds>
5

>  <HAC>
25

>  <Collection>
General

>  <PPDS>
+

$$$$
F5381-0005
  Mrv2219 10102508112D          

 26 28  0  0  0  0            999 V2000
   -3.0801    4.1395    0.0000 S   0  0  0  0  0  0  0  0  0  0  0  0
   -0.9408    4.5526    0.0000 N   0  0  0  0  0  0  0  0  0  0  0  0
   -3.7918    3.7304    0.0000 N   0  0  0  0  0  0  0  0  0  0  0  0
   -2.3683    4.5567    0.0000 C   0  0  0  0  0  0  0  0  0  0  0  0
   -5.2357    2.9083    0.0000 N   0  0  0  0  0  0  0  0  0  0  0  0
   -0.9326    5.3666    0.0000 C   0  0  0  0  0  0  0  0  0  0  0  0
   -0.2209    4.1395    0.0000 C   0  0  0  0  0  0  0  0  0  0  0  0
   -1.6566    4.1354    0.0000 C   0  0  0  0  0  0  0  0  0  0  0  0
   -5.9311    2.5033    0.0000 C   0  0  0  0  0  0  0  0  0  0  0  0
   -4.5117    4.1395    0.0000 C   0  0  0  0  0  0  0  0  0  0  0  0
   -3.7918    2.9164    0.0000 C   0  0  0  0  0  0  0  0  0  0  0  0
   -2.6587    3.4359    0.0000 O   0  0  0  0  0  0  0  0  0  0  0  0
   -3.4850    4.8512    0.0000 O   0  0  0  0  0  0  0  0  0  0  0  0
   -4.5117    2.5033    0.0000 C   0  0  0  0  0  0  0  0  0  0  0  0
   -5.2357    3.7386    0.0000 C   0  0  0  0  0  0  0  0  0  0  0  0
   -0.2290    3.3214    0.0000 O   0  0  0  0  0  0  0  0  0  0  0  0
   -1.6525    5.7838    0.0000 O   0  0  0  0  0  0  0  0  0  0  0  0
   -6.6510    2.9164    0.0000 C   0  0  0  0  0  0  0  0  0  0  0  0
   -6.6428    3.7386    0.0000 Cl  0  0  0  0  0  0  0  0  0  0  0  0
   -0.2290    5.7838    0.0000 C   0  0  0  0  0  0  0  0  0  0  0  0
    0.4950    4.5526    0.0000 C   0  0  0  0  0  0  0  0  0  0  0  0
    0.4827    5.3666    0.0000 C   0  0  0  0  0  0  0  0  0  0  0  0
   -5.9311    1.6893    0.0000 C   0  0  0  0  0  0  0  0  0  0  0  0
   -7.3627    2.5033    0.0000 C   0  0  0  0  0  0  0  0  0  0  0  0
   -6.6428    1.2721    0.0000 C   0  0  0  0  0  0  0  0  0  0  0  0
   -7.3545    1.6770    0.0000 C   0  0  0  0  0  0  0  0  0  0  0  0
  2  8  1  0  0  0  0
  3  1  1  0  0  0  0
  4  1  1  0  0  0  0
  5 14  1  0  0  0  0
  6  2  1  0  0  0  0
  7  2  1  0  0  0  0
  8  4  1  0  0  0  0
  9  5  1  0  0  0  0
 10  3  1  0  0  0  0
 11  3  1  0  0  0  0
 12  1  2  0  0  0  0
 13  1  2  0  0  0  0
 14 11  1  0  0  0  0
 15 10  1  0  0  0  0
 16  7  2  0  0  0  0
 17  6  2  0  0  0  0
 18  9  2  0  0  0  0
 19 18  1  0  0  0  0
 20  6  1  0  0  0  0
 21  7  1  0  0  0  0
 22 21  1  0  0  0  0
 23  9  1  0  0  0  0
 24 18  1  0  0  0  0
 25 23  2  0  0  0  0
 26 25  1  0  0  0  0
  5 15  1  0  0  0  0
 20 22  1  0  0  0  0
 24 26  2  0  0  0  0
M  END
>  <IDNUMBER>
F5381-0005

>  <Chemical_Name>
1-(2-{[4-(2-chlorophenyl)piperazin-1-yl]sulfonyl}ethyl)piperidine-2,6-dione

>  <PriceCoeff>
1.00

>  <CAS>
1040674-55-2

>  <MW>
399.89

>  <Description>
solid

>  <FSP3>
0.53

>  <clogP>
3.00

>  <TPSA>
86.38

>  <Acceptor>
5

>  <Donor>
1

>  <RotBonds>
5

>  <HAC>
26

>  <Collection>
General

>  <PPDS>
+

$$$$
F5381-0007
  Mrv2219 10102508112D          

 26 28  0  0  0  0            999 V2000
   -3.0801    4.1395    0.0000 S   0  0  0  0  0  0  0  0  0  0  0  0
   -0.9408    4.5526    0.0000 N   0  0  0  0  0  0  0  0  0  0  0  0
   -3.7918    3.7304    0.0000 N   0  0  0  0  0  0  0  0  0  0  0  0
   -2.3683    4.5567    0.0000 C   0  0  0  0  0  0  0  0  0  0  0  0
   -5.2357    2.9041    0.0000 N   0  0  0  0  0  0  0  0  0  0  0  0
   -0.9326    5.3666    0.0000 C   0  0  0  0  0  0  0  0  0  0  0  0
   -0.2209    4.1395    0.0000 C   0  0  0  0  0  0  0  0  0  0  0  0
   -1.6566    4.1354    0.0000 C   0  0  0  0  0  0  0  0  0  0  0  0
   -5.9311    2.4992    0.0000 C   0  0  0  0  0  0  0  0  0  0  0  0
   -4.5158    4.1354    0.0000 C   0  0  0  0  0  0  0  0  0  0  0  0
   -3.7999    2.9083    0.0000 C   0  0  0  0  0  0  0  0  0  0  0  0
   -2.6587    3.4359    0.0000 O   0  0  0  0  0  0  0  0  0  0  0  0
   -3.4850    4.8512    0.0000 O   0  0  0  0  0  0  0  0  0  0  0  0
   -5.2357    3.7386    0.0000 C   0  0  0  0  0  0  0  0  0  0  0  0
   -4.5117    2.4992    0.0000 C   0  0  0  0  0  0  0  0  0  0  0  0
   -0.2290    3.3214    0.0000 O   0  0  0  0  0  0  0  0  0  0  0  0
   -1.6525    5.7838    0.0000 O   0  0  0  0  0  0  0  0  0  0  0  0
   -6.6510    2.9287    0.0000 C   0  0  0  0  0  0  0  0  0  0  0  0
   -6.6428    3.7427    0.0000 F   0  0  0  0  0  0  0  0  0  0  0  0
   -0.2290    5.7838    0.0000 C   0  0  0  0  0  0  0  0  0  0  0  0
    0.4950    4.5526    0.0000 C   0  0  0  0  0  0  0  0  0  0  0  0
    0.4827    5.3666    0.0000 C   0  0  0  0  0  0  0  0  0  0  0  0
   -5.9311    1.6811    0.0000 C   0  0  0  0  0  0  0  0  0  0  0  0
   -7.3627    2.5115    0.0000 C   0  0  0  0  0  0  0  0  0  0  0  0
   -6.6428    1.2721    0.0000 C   0  0  0  0  0  0  0  0  0  0  0  0
   -7.3668    1.6811    0.0000 C   0  0  0  0  0  0  0  0  0  0  0  0
  2  8  1  0  0  0  0
  3  1  1  0  0  0  0
  4  1  1  0  0  0  0
  5 15  1  0  0  0  0
  6  2  1  0  0  0  0
  7  2  1  0  0  0  0
  8  4  1  0  0  0  0
  9  5  1  0  0  0  0
 10  3  1  0  0  0  0
 11  3  1  0  0  0  0
 12  1  2  0  0  0  0
 13  1  2  0  0  0  0
 14 10  1  0  0  0  0
 15 11  1  0  0  0  0
 16  7  2  0  0  0  0
 17  6  2  0  0  0  0
 18  9  2  0  0  0  0
 19 18  1  0  0  0  0
 20  6  1  0  0  0  0
 21  7  1  0  0  0  0
 22 21  1  0  0  0  0
 23  9  1  0  0  0  0
 24 18  1  0  0  0  0
 25 23  2  0  0  0  0
 26 25  1  0  0  0  0
  5 14  1  0  0  0  0
 20 22  1  0  0  0  0
 24 26  2  0  0  0  0
M  END
>  <IDNUMBER>
F5381-0007

>  <Chemical_Name>
1-(2-{[4-(2-fluorophenyl)piperazin-1-yl]sulfonyl}ethyl)piperidine-2,6-dione

>  <PriceCoeff>
1.00

>  <CAS>
1040674-63-2

>  <MW>
383.44

>  <Description>
solid

>  <FSP3>
0.53

>  <clogP>
2.43

>  <TPSA>
86.38

>  <Acceptor>
5

>  <Donor>
1

>  <RotBonds>
5

>  <HAC>
26

>  <Collection>
General

>  <PPDS>
+

$$$$
F5381-0010
  Mrv2219 10102508112D          

 27 29  0  0  0  0            999 V2000
   -3.0801    4.1395    0.0000 S   0  0  0  0  0  0  0  0  0  0  0  0
   -0.9408    4.5526    0.0000 N   0  0  0  0  0  0  0  0  0  0  0  0
   -3.7918    3.7304    0.0000 N   0  0  0  0  0  0  0  0  0  0  0  0
   -2.3683    4.5567    0.0000 C   0  0  0  0  0  0  0  0  0  0  0  0
   -5.2357    2.9164    0.0000 N   0  0  0  0  0  0  0  0  0  0  0  0
   -0.9326    5.3666    0.0000 C   0  0  0  0  0  0  0  0  0  0  0  0
   -0.2209    4.1395    0.0000 C   0  0  0  0  0  0  0  0  0  0  0  0
   -1.6566    4.1354    0.0000 C   0  0  0  0  0  0  0  0  0  0  0  0
   -5.9311    2.4992    0.0000 C   0  0  0  0  0  0  0  0  0  0  0  0
   -4.5158    4.1395    0.0000 C   0  0  0  0  0  0  0  0  0  0  0  0
   -3.7999    2.9164    0.0000 C   0  0  0  0  0  0  0  0  0  0  0  0
   -2.6587    3.4359    0.0000 O   0  0  0  0  0  0  0  0  0  0  0  0
   -3.4850    4.8512    0.0000 O   0  0  0  0  0  0  0  0  0  0  0  0
   -4.5117    2.4992    0.0000 C   0  0  0  0  0  0  0  0  0  0  0  0
   -5.2357    3.7386    0.0000 C   0  0  0  0  0  0  0  0  0  0  0  0
   -0.2290    3.3214    0.0000 O   0  0  0  0  0  0  0  0  0  0  0  0
   -1.6525    5.7838    0.0000 O   0  0  0  0  0  0  0  0  0  0  0  0
   -6.6510    2.9287    0.0000 C   0  0  0  0  0  0  0  0  0  0  0  0
    0.4950    4.5526    0.0000 C   0  0  0  0  0  0  0  0  0  0  0  0
   -0.2290    5.7838    0.0000 C   0  0  0  0  0  0  0  0  0  0  0  0
   -6.6428    3.7386    0.0000 O   0  0  0  0  0  0  0  0  0  0  0  0
    0.4827    5.3666    0.0000 C   0  0  0  0  0  0  0  0  0  0  0  0
   -5.9311    1.6811    0.0000 C   0  0  0  0  0  0  0  0  0  0  0  0
   -7.3627    2.5033    0.0000 C   0  0  0  0  0  0  0  0  0  0  0  0
   -7.3545    4.1395    0.0000 C   0  0  0  0  0  0  0  0  0  0  0  0
   -6.6428    1.2721    0.0000 C   0  0  0  0  0  0  0  0  0  0  0  0
   -7.3668    1.6770    0.0000 C   0  0  0  0  0  0  0  0  0  0  0  0
  2  8  1  0  0  0  0
  3  1  1  0  0  0  0
  4  1  1  0  0  0  0
  5 14  1  0  0  0  0
  6  2  1  0  0  0  0
  7  2  1  0  0  0  0
  8  4  1  0  0  0  0
  9  5  1  0  0  0  0
 10  3  1  0  0  0  0
 11  3  1  0  0  0  0
 12  1  2  0  0  0  0
 13  1  2  0  0  0  0
 14 11  1  0  0  0  0
 15 10  1  0  0  0  0
 16  7  2  0  0  0  0
 17  6  2  0  0  0  0
 18  9  2  0  0  0  0
 19  7  1  0  0  0  0
 20  6  1  0  0  0  0
 21 18  1  0  0  0  0
 22 19  1  0  0  0  0
 23  9  1  0  0  0  0
 24 18  1  0  0  0  0
 25 21  1  0  0  0  0
 26 23  2  0  0  0  0
 27 26  1  0  0  0  0
  5 15  1  0  0  0  0
 20 22  1  0  0  0  0
 24 27  2  0  0  0  0
M  END
>  <IDNUMBER>
F5381-0010

>  <Chemical_Name>
1-(2-{[4-(2-methoxyphenyl)piperazin-1-yl]sulfonyl}ethyl)piperidine-2,6-dione

>  <PriceCoeff>
1.00

>  <CAS>
1040674-71-2

>  <MW>
395.47

>  <Description>
solid

>  <FSP3>
0.56

>  <clogP>
2.14

>  <TPSA>
95.61

>  <Acceptor>
6

>  <Donor>
1

>  <RotBonds>
6

>  <HAC>
27

>  <Collection>
General

>  <PPDS>
+

$$$$
F5381-0011
  Mrv2219 10102508112D          

 26 28  0  0  0  0            999 V2000
   -3.0954    4.1601    0.0000 S   0  0  0  0  0  0  0  0  0  0  0  0
   -0.9454    4.5753    0.0000 N   0  0  0  0  0  0  0  0  0  0  0  0
   -3.8107    3.7490    0.0000 N   0  0  0  0  0  0  0  0  0  0  0  0
   -5.9606    2.5158    0.0000 C   0  0  0  0  0  0  0  0  0  0  0  0
   -5.2617    2.9309    0.0000 N   0  0  0  0  0  0  0  0  0  0  0  0
   -2.3801    4.5794    0.0000 C   0  0  0  0  0  0  0  0  0  0  0  0
   -0.2220    4.1601    0.0000 C   0  0  0  0  0  0  0  0  0  0  0  0
   -0.9373    5.3934    0.0000 C   0  0  0  0  0  0  0  0  0  0  0  0
   -6.6759    2.9433    0.0000 C   0  0  0  0  0  0  0  0  0  0  0  0
   -1.6649    4.1560    0.0000 C   0  0  0  0  0  0  0  0  0  0  0  0
   -4.5341    4.1601    0.0000 C   0  0  0  0  0  0  0  0  0  0  0  0
   -3.8189    2.9228    0.0000 C   0  0  0  0  0  0  0  0  0  0  0  0
   -3.5024    4.8754    0.0000 O   0  0  0  0  0  0  0  0  0  0  0  0
   -2.6720    3.4530    0.0000 O   0  0  0  0  0  0  0  0  0  0  0  0
   -7.4405    2.5980    0.0000 O   0  0  0  0  0  0  0  0  0  0  0  0
   -4.5341    2.5116    0.0000 C   0  0  0  0  0  0  0  0  0  0  0  0
   -5.2494    3.7572    0.0000 C   0  0  0  0  0  0  0  0  0  0  0  0
   -5.9606    1.6895    0.0000 O   0  0  0  0  0  0  0  0  0  0  0  0
   -6.7622    3.7572    0.0000 C   0  0  0  0  0  0  0  0  0  0  0  0
   -0.2302    3.3379    0.0000 O   0  0  0  0  0  0  0  0  0  0  0  0
   -1.6607    5.8126    0.0000 O   0  0  0  0  0  0  0  0  0  0  0  0
   -7.9831    3.2146    0.0000 C   0  0  0  0  0  0  0  0  0  0  0  0
   -7.5638    3.9340    0.0000 C   0  0  0  0  0  0  0  0  0  0  0  0
   -0.2302    5.8126    0.0000 C   0  0  0  0  0  0  0  0  0  0  0  0
    0.4974    4.5753    0.0000 C   0  0  0  0  0  0  0  0  0  0  0  0
    0.4851    5.3934    0.0000 C   0  0  0  0  0  0  0  0  0  0  0  0
  2 10  1  0  0  0  0
  3  1  1  0  0  0  0
  4  5  1  0  0  0  0
  5 16  1  0  0  0  0
  6  1  1  0  0  0  0
  7  2  1  0  0  0  0
  8  2  1  0  0  0  0
  9  4  1  0  0  0  0
 10  6  1  0  0  0  0
 11  3  1  0  0  0  0
 12  3  1  0  0  0  0
 13  1  2  0  0  0  0
 14  1  2  0  0  0  0
 15  9  1  0  0  0  0
 16 12  1  0  0  0  0
 17 11  1  0  0  0  0
 18  4  2  0  0  0  0
 19  9  2  0  0  0  0
 20  7  2  0  0  0  0
 21  8  2  0  0  0  0
 22 15  1  0  0  0  0
 23 19  1  0  0  0  0
 24  8  1  0  0  0  0
 25  7  1  0  0  0  0
 26 24  1  0  0  0  0
  5 17  1  0  0  0  0
 26 25  1  0  0  0  0
 23 22  2  0  0  0  0
M  END
>  <IDNUMBER>
F5381-0011

>  <Chemical_Name>
1-(2-{[4-(furan-2-carbonyl)piperazin-1-yl]sulfonyl}ethyl)piperidine-2,6-dione

>  <PriceCoeff>
1.00

>  <CAS>
1040674-79-0

>  <MW>
383.42

>  <Description>
solid

>  <FSP3>
0.56

>  <clogP>
0.47

>  <TPSA>
116.59

>  <Acceptor>
6

>  <Donor>
0

>  <RotBonds>
6

>  <HAC>
26

>  <Collection>
General

>  <PPDS>
+

$$$$
F5381-0015
  Mrv2219 10102508112D          

 28 30  0  0  0  0            999 V2000
   -3.0801    4.1395    0.0000 S   0  0  0  0  0  0  0  0  0  0  0  0
   -0.9408    4.5526    0.0000 N   0  0  0  0  0  0  0  0  0  0  0  0
   -3.7918    3.7304    0.0000 N   0  0  0  0  0  0  0  0  0  0  0  0
   -2.3683    4.5567    0.0000 C   0  0  0  0  0  0  0  0  0  0  0  0
   -0.2209    4.1395    0.0000 C   0  0  0  0  0  0  0  0  0  0  0  0
   -0.9326    5.3666    0.0000 C   0  0  0  0  0  0  0  0  0  0  0  0
   -5.2234    2.9164    0.0000 N   0  0  0  0  0  0  0  0  0  0  0  0
   -1.6566    4.1354    0.0000 C   0  0  0  0  0  0  0  0  0  0  0  0
   -3.7918    2.9083    0.0000 C   0  0  0  0  0  0  0  0  0  0  0  0
   -4.5117    4.1395    0.0000 C   0  0  0  0  0  0  0  0  0  0  0  0
   -3.4850    4.8512    0.0000 O   0  0  0  0  0  0  0  0  0  0  0  0
   -2.6587    3.4359    0.0000 O   0  0  0  0  0  0  0  0  0  0  0  0
   -5.9188    2.5115    0.0000 C   0  0  0  0  0  0  0  0  0  0  0  0
   -4.4994    2.5033    0.0000 C   0  0  0  0  0  0  0  0  0  0  0  0
   -5.2234    3.7386    0.0000 C   0  0  0  0  0  0  0  0  0  0  0  0
   -7.3545    1.6811    0.0000 C   0  0  0  0  0  0  0  0  0  0  0  0
   -8.0663    1.2721    0.0000 C   0  0  0  0  0  0  0  0  0  0  0  0
   -0.2290    3.3214    0.0000 O   0  0  0  0  0  0  0  0  0  0  0  0
   -1.6525    5.7838    0.0000 O   0  0  0  0  0  0  0  0  0  0  0  0
   -8.7780    1.6811    0.0000 O   0  0  0  0  0  0  0  0  0  0  0  0
   -5.9188    1.6811    0.0000 C   0  0  0  0  0  0  0  0  0  0  0  0
   -6.6428    2.9164    0.0000 C   0  0  0  0  0  0  0  0  0  0  0  0
   -7.3627    2.5115    0.0000 C   0  0  0  0  0  0  0  0  0  0  0  0
   -6.6305    1.2639    0.0000 C   0  0  0  0  0  0  0  0  0  0  0  0
    0.4950    4.5526    0.0000 C   0  0  0  0  0  0  0  0  0  0  0  0
   -0.2290    5.7838    0.0000 C   0  0  0  0  0  0  0  0  0  0  0  0
    0.4827    5.3666    0.0000 C   0  0  0  0  0  0  0  0  0  0  0  0
   -8.0663    0.4499    0.0000 C   0  0  0  0  0  0  0  0  0  0  0  0
  2  8  1  0  0  0  0
  3  1  1  0  0  0  0
  4  1  1  0  0  0  0
  5  2  1  0  0  0  0
  6  2  1  0  0  0  0
  7 15  1  0  0  0  0
  8  4  1  0  0  0  0
  9  3  1  0  0  0  0
 10  3  1  0  0  0  0
 11  1  2  0  0  0  0
 12  1  2  0  0  0  0
 13  7  1  0  0  0  0
 14  9  1  0  0  0  0
 15 10  1  0  0  0  0
 16 23  2  0  0  0  0
 17 16  1  0  0  0  0
 18  5  2  0  0  0  0
 19  6  2  0  0  0  0
 20 17  2  0  0  0  0
 21 13  1  0  0  0  0
 22 13  2  0  0  0  0
 23 22  1  0  0  0  0
 24 21  2  0  0  0  0
 25  5  1  0  0  0  0
 26  6  1  0  0  0  0
 27 26  1  0  0  0  0
 28 17  1  0  0  0  0
 14  7  1  0  0  0  0
 27 25  1  0  0  0  0
 16 24  1  0  0  0  0
M  END
>  <IDNUMBER>
F5381-0015

>  <Chemical_Name>
1-(2-{[4-(4-acetylphenyl)piperazin-1-yl]sulfonyl}ethyl)piperidine-2,6-dione

>  <PriceCoeff>
1.00

>  <CAS>
1040674-86-9

>  <MW>
407.48

>  <Description>
solid

>  <FSP3>
0.53

>  <clogP>
1.87

>  <TPSA>
103.45

>  <Acceptor>
6

>  <Donor>
1

>  <RotBonds>
6

>  <HAC>
28

>  <Collection>
General

>  <PPDS>
+

$$$$
F5381-0016
  Mrv2219 10102508112D          

 29 32  0  0  0  0            999 V2000
   -3.0906    4.1537    0.0000 S   0  0  0  0  0  0  0  0  0  0  0  0
   -0.9440    4.5682    0.0000 N   0  0  0  0  0  0  0  0  0  0  0  0
   -3.8048    3.7432    0.0000 N   0  0  0  0  0  0  0  0  0  0  0  0
   -2.3765    4.5724    0.0000 C   0  0  0  0  0  0  0  0  0  0  0  0
   -0.2216    4.1537    0.0000 C   0  0  0  0  0  0  0  0  0  0  0  0
   -0.9358    5.3850    0.0000 C   0  0  0  0  0  0  0  0  0  0  0  0
   -1.6623    4.1496    0.0000 C   0  0  0  0  0  0  0  0  0  0  0  0
   -5.2413    2.9141    0.0000 N   0  0  0  0  0  0  0  0  0  0  0  0
   -8.1063    2.9141    0.0000 C   0  0  0  0  0  0  0  0  0  0  0  0
   -3.8048    2.9182    0.0000 C   0  0  0  0  0  0  0  0  0  0  0  0
   -4.5271    4.1537    0.0000 C   0  0  0  0  0  0  0  0  0  0  0  0
   -2.6678    3.4477    0.0000 O   0  0  0  0  0  0  0  0  0  0  0  0
   -3.4970    4.8679    0.0000 O   0  0  0  0  0  0  0  0  0  0  0  0
   -8.1063    3.7391    0.0000 C   0  0  0  0  0  0  0  0  0  0  0  0
   -8.8943    2.6555    0.0000 O   0  0  0  0  0  0  0  0  0  0  0  0
   -8.8943    3.9813    0.0000 O   0  0  0  0  0  0  0  0  0  0  0  0
   -9.3745    3.3246    0.0000 C   0  0  0  0  0  0  0  0  0  0  0  0
   -7.3921    2.4955    0.0000 C   0  0  0  0  0  0  0  0  0  0  0  0
   -1.6582    5.8037    0.0000 O   0  0  0  0  0  0  0  0  0  0  0  0
   -0.2298    3.3328    0.0000 O   0  0  0  0  0  0  0  0  0  0  0  0
   -6.6738    2.9141    0.0000 C   0  0  0  0  0  0  0  0  0  0  0  0
   -5.9515    2.4955    0.0000 C   0  0  0  0  0  0  0  0  0  0  0  0
   -4.5271    2.5078    0.0000 C   0  0  0  0  0  0  0  0  0  0  0  0
   -5.2413    3.7432    0.0000 C   0  0  0  0  0  0  0  0  0  0  0  0
   -7.3921    4.1414    0.0000 C   0  0  0  0  0  0  0  0  0  0  0  0
   -6.6779    3.7391    0.0000 C   0  0  0  0  0  0  0  0  0  0  0  0
    0.4967    4.5682    0.0000 C   0  0  0  0  0  0  0  0  0  0  0  0
   -0.2298    5.8037    0.0000 C   0  0  0  0  0  0  0  0  0  0  0  0
    0.4844    5.3850    0.0000 C   0  0  0  0  0  0  0  0  0  0  0  0
  2  7  1  0  0  0  0
  3  1  1  0  0  0  0
  4  1  1  0  0  0  0
  5  2  1  0  0  0  0
  6  2  1  0  0  0  0
  7  4  1  0  0  0  0
  8 24  1  0  0  0  0
  9 18  2  0  0  0  0
 10  3  1  0  0  0  0
 11  3  1  0  0  0  0
 12  1  2  0  0  0  0
 13  1  2  0  0  0  0
 14 25  2  0  0  0  0
 15  9  1  0  0  0  0
 16 14  1  0  0  0  0
 17 15  1  0  0  0  0
 18 21  1  0  0  0  0
 19  6  2  0  0  0  0
 20  5  2  0  0  0  0
 21 22  1  0  0  0  0
 22  8  1  0  0  0  0
 23 10  1  0  0  0  0
 24 11  1  0  0  0  0
 25 26  1  0  0  0  0
 26 21  2  0  0  0  0
 27  5  1  0  0  0  0
 28  6  1  0  0  0  0
 29 28  1  0  0  0  0
 23  8  1  0  0  0  0
 29 27  1  0  0  0  0
 14  9  1  0  0  0  0
 17 16  1  0  0  0  0
M  END
>  <IDNUMBER>
F5381-0016

>  <Chemical_Name>
1-[2-({4-[(2H-1,3-benzodioxol-5-yl)methyl]piperazin-1-yl}sulfonyl)ethyl]piperidine-2,6-dione

>  <PriceCoeff>
1.00

>  <CAS>
1040674-93-8

>  <MW>
423.48

>  <Description>
solid

>  <FSP3>
0.58

>  <clogP>
2.37

>  <TPSA>
104.84

>  <Acceptor>
7

>  <Donor>
1

>  <RotBonds>
6

>  <HAC>
29

>  <Collection>
General

>  <PPDS>
+

$$$$
F5381-0017
  Mrv2219 10102508112D          

 27 29  0  0  0  0            999 V2000
   -3.0896    4.1523    0.0000 S   0  0  0  0  0  0  0  0  0  0  0  0
   -0.9437    4.5667    0.0000 N   0  0  0  0  0  0  0  0  0  0  0  0
   -3.8035    3.7420    0.0000 N   0  0  0  0  0  0  0  0  0  0  0  0
   -2.3757    4.5708    0.0000 C   0  0  0  0  0  0  0  0  0  0  0  0
   -0.2216    4.1523    0.0000 C   0  0  0  0  0  0  0  0  0  0  0  0
   -0.9355    5.3833    0.0000 C   0  0  0  0  0  0  0  0  0  0  0  0
   -1.6617    4.1482    0.0000 C   0  0  0  0  0  0  0  0  0  0  0  0
   -5.2314    2.9131    0.0000 N   0  0  0  0  0  0  0  0  0  0  0  0
   -3.8117    2.9255    0.0000 C   0  0  0  0  0  0  0  0  0  0  0  0
   -4.5298    4.1523    0.0000 C   0  0  0  0  0  0  0  0  0  0  0  0
   -3.4958    4.8663    0.0000 O   0  0  0  0  0  0  0  0  0  0  0  0
   -2.6670    3.4466    0.0000 O   0  0  0  0  0  0  0  0  0  0  0  0
   -1.6576    5.8018    0.0000 O   0  0  0  0  0  0  0  0  0  0  0  0
   -0.2297    3.3317    0.0000 O   0  0  0  0  0  0  0  0  0  0  0  0
   -4.5256    2.5069    0.0000 C   0  0  0  0  0  0  0  0  0  0  0  0
   -5.2519    3.7420    0.0000 C   0  0  0  0  0  0  0  0  0  0  0  0
   -5.9372    2.4946    0.0000 C   0  0  0  0  0  0  0  0  0  0  0  0
   -5.9372    1.6699    0.0000 C   0  0  0  0  0  0  0  0  0  0  0  0
    0.4965    4.5667    0.0000 C   0  0  0  0  0  0  0  0  0  0  0  0
   -0.2297    5.8018    0.0000 C   0  0  0  0  0  0  0  0  0  0  0  0
   -6.6511    1.2514    0.0000 C   0  0  0  0  0  0  0  0  0  0  0  0
    0.4842    5.3833    0.0000 C   0  0  0  0  0  0  0  0  0  0  0  0
   -7.3650    1.6576    0.0000 C   0  0  0  0  0  0  0  0  0  0  0  0
   -6.6388    0.4267    0.0000 C   0  0  0  0  0  0  0  0  0  0  0  0
   -7.3486    0.0082    0.0000 C   0  0  0  0  0  0  0  0  0  0  0  0
   -8.0790    1.2391    0.0000 C   0  0  0  0  0  0  0  0  0  0  0  0
   -8.0667    0.4144    0.0000 C   0  0  0  0  0  0  0  0  0  0  0  0
  2  7  1  0  0  0  0
  3  1  1  0  0  0  0
  4  1  1  0  0  0  0
  5  2  1  0  0  0  0
  6  2  1  0  0  0  0
  7  4  1  0  0  0  0
  8 16  1  0  0  0  0
  9  3  1  0  0  0  0
 10  3  1  0  0  0  0
 11  1  2  0  0  0  0
 12  1  2  0  0  0  0
 13  6  2  0  0  0  0
 14  5  2  0  0  0  0
 15  9  1  0  0  0  0
 16 10  1  0  0  0  0
 17  8  1  0  0  0  0
 18 17  1  0  0  0  0
 19  5  1  0  0  0  0
 20  6  1  0  0  0  0
 21 18  1  0  0  0  0
 22 20  1  0  0  0  0
 23 21  2  0  0  0  0
 24 21  1  0  0  0  0
 25 24  2  0  0  0  0
 26 23  1  0  0  0  0
 27 25  1  0  0  0  0
 15  8  1  0  0  0  0
 22 19  1  0  0  0  0
 27 26  2  0  0  0  0
M  END
>  <IDNUMBER>
F5381-0017

>  <Chemical_Name>
1-(2-{[4-(2-phenylethyl)piperazin-1-yl]sulfonyl}ethyl)piperidine-2,6-dione

>  <PriceCoeff>
1.00

>  <CAS>
1040675-00-0

>  <MW>
393.50

>  <Description>
solid

>  <FSP3>
0.58

>  <clogP>
2.66

>  <TPSA>
86.38

>  <Acceptor>
5

>  <Donor>
1

>  <RotBonds>
7

>  <HAC>
27

>  <Collection>
General

>  <PPDS>
+

$$$$
F5381-0021
  Mrv2219 10102508112D          

 26 28  0  0  0  0            999 V2000
   -3.0752    4.1330    0.0000 S   0  0  0  0  0  0  0  0  0  0  0  0
   -0.9393    4.5455    0.0000 N   0  0  0  0  0  0  0  0  0  0  0  0
   -3.7859    3.7246    0.0000 N   0  0  0  0  0  0  0  0  0  0  0  0
   -2.3646    4.5496    0.0000 C   0  0  0  0  0  0  0  0  0  0  0  0
   -5.2152    2.9037    0.0000 N   0  0  0  0  0  0  0  0  0  0  0  0
   -0.9312    5.3582    0.0000 C   0  0  0  0  0  0  0  0  0  0  0  0
   -0.2205    4.1330    0.0000 C   0  0  0  0  0  0  0  0  0  0  0  0
   -1.6540    4.1289    0.0000 C   0  0  0  0  0  0  0  0  0  0  0  0
   -5.9096    2.4872    0.0000 C   0  0  0  0  0  0  0  0  0  0  0  0
   -3.7859    2.9037    0.0000 C   0  0  0  0  0  0  0  0  0  0  0  0
   -4.5046    4.1330    0.0000 C   0  0  0  0  0  0  0  0  0  0  0  0
   -2.6546    3.4306    0.0000 O   0  0  0  0  0  0  0  0  0  0  0  0
   -3.4796    4.8437    0.0000 O   0  0  0  0  0  0  0  0  0  0  0  0
   -4.5046    2.4953    0.0000 C   0  0  0  0  0  0  0  0  0  0  0  0
   -5.2152    3.7246    0.0000 C   0  0  0  0  0  0  0  0  0  0  0  0
   -0.2287    3.3162    0.0000 O   0  0  0  0  0  0  0  0  0  0  0  0
   -1.6499    5.7748    0.0000 O   0  0  0  0  0  0  0  0  0  0  0  0
   -6.6283    2.8996    0.0000 C   0  0  0  0  0  0  0  0  0  0  0  0
   -7.3308    2.4872    0.0000 C   0  0  0  0  0  0  0  0  0  0  0  0
   -0.2287    5.7748    0.0000 C   0  0  0  0  0  0  0  0  0  0  0  0
    0.4942    4.5455    0.0000 C   0  0  0  0  0  0  0  0  0  0  0  0
   -5.9096    1.6622    0.0000 C   0  0  0  0  0  0  0  0  0  0  0  0
    0.4819    5.3582    0.0000 C   0  0  0  0  0  0  0  0  0  0  0  0
   -6.6283    1.2497    0.0000 C   0  0  0  0  0  0  0  0  0  0  0  0
   -7.3308    1.6622    0.0000 C   0  0  0  0  0  0  0  0  0  0  0  0
   -8.0496    2.8996    0.0000 C   0  0  0  0  0  0  0  0  0  0  0  0
  2  8  1  0  0  0  0
  3  1  1  0  0  0  0
  4  1  1  0  0  0  0
  5 15  1  0  0  0  0
  6  2  1  0  0  0  0
  7  2  1  0  0  0  0
  8  4  1  0  0  0  0
  9  5  1  0  0  0  0
 10  3  1  0  0  0  0
 11  3  1  0  0  0  0
 12  1  2  0  0  0  0
 13  1  2  0  0  0  0
 14 10  1  0  0  0  0
 15 11  1  0  0  0  0
 16  7  2  0  0  0  0
 17  6  2  0  0  0  0
 18  9  2  0  0  0  0
 19 18  1  0  0  0  0
 20  6  1  0  0  0  0
 21  7  1  0  0  0  0
 22  9  1  0  0  0  0
 23 21  1  0  0  0  0
 24 22  2  0  0  0  0
 25 24  1  0  0  0  0
 26 19  1  0  0  0  0
 14  5  1  0  0  0  0
 20 23  1  0  0  0  0
 25 19  2  0  0  0  0
M  END
>  <IDNUMBER>
F5381-0021

>  <Chemical_Name>
1-(2-{[4-(3-methylphenyl)piperazin-1-yl]sulfonyl}ethyl)piperidine-2,6-dione

>  <PriceCoeff>
1.00

>  <CAS>
1040675-07-7

>  <MW>
379.47

>  <Description>
solid

>  <FSP3>
0.56

>  <clogP>
2.62

>  <TPSA>
86.38

>  <Acceptor>
5

>  <Donor>
1

>  <RotBonds>
5

>  <HAC>
26

>  <Collection>
General

>  <PPDS>
+

$$$$
F5381-0023
  Mrv2219 10102508112D          

 25 27  0  0  0  0            999 V2000
   -3.0907    4.1538    0.0000 S   0  0  0  0  0  0  0  0  0  0  0  0
   -0.9440    4.5683    0.0000 N   0  0  0  0  0  0  0  0  0  0  0  0
   -3.8049    3.7433    0.0000 N   0  0  0  0  0  0  0  0  0  0  0  0
   -5.9392    2.5078    0.0000 C   0  0  0  0  0  0  0  0  0  0  0  0
   -5.2332    2.9183    0.0000 N   0  0  0  0  0  0  0  0  0  0  0  0
   -2.3765    4.5724    0.0000 C   0  0  0  0  0  0  0  0  0  0  0  0
   -0.2216    4.1538    0.0000 C   0  0  0  0  0  0  0  0  0  0  0  0
   -0.9358    5.3851    0.0000 C   0  0  0  0  0  0  0  0  0  0  0  0
   -1.6623    4.1496    0.0000 C   0  0  0  0  0  0  0  0  0  0  0  0
   -3.8049    2.9141    0.0000 C   0  0  0  0  0  0  0  0  0  0  0  0
   -4.5272    4.1538    0.0000 C   0  0  0  0  0  0  0  0  0  0  0  0
   -2.6679    3.4478    0.0000 O   0  0  0  0  0  0  0  0  0  0  0  0
   -3.4970    4.8679    0.0000 O   0  0  0  0  0  0  0  0  0  0  0  0
   -5.9392    1.6746    0.0000 N   0  0  0  0  0  0  0  0  0  0  0  0
   -6.6534    2.9183    0.0000 N   0  0  0  0  0  0  0  0  0  0  0  0
   -4.5272    2.5078    0.0000 C   0  0  0  0  0  0  0  0  0  0  0  0
   -5.2414    3.7515    0.0000 C   0  0  0  0  0  0  0  0  0  0  0  0
   -0.2298    3.3328    0.0000 O   0  0  0  0  0  0  0  0  0  0  0  0
   -1.6582    5.8038    0.0000 O   0  0  0  0  0  0  0  0  0  0  0  0
   -0.2298    5.8038    0.0000 C   0  0  0  0  0  0  0  0  0  0  0  0
    0.4967    4.5683    0.0000 C   0  0  0  0  0  0  0  0  0  0  0  0
   -7.3676    1.6746    0.0000 C   0  0  0  0  0  0  0  0  0  0  0  0
   -6.6616    1.2641    0.0000 C   0  0  0  0  0  0  0  0  0  0  0  0
   -7.3676    2.4996    0.0000 C   0  0  0  0  0  0  0  0  0  0  0  0
    0.4844    5.3851    0.0000 C   0  0  0  0  0  0  0  0  0  0  0  0
  2  9  1  0  0  0  0
  3  1  1  0  0  0  0
  4  5  1  0  0  0  0
  5 17  1  0  0  0  0
  6  1  1  0  0  0  0
  7  2  1  0  0  0  0
  8  2  1  0  0  0  0
  9  6  1  0  0  0  0
 10  3  1  0  0  0  0
 11  3  1  0  0  0  0
 12  1  2  0  0  0  0
 13  1  2  0  0  0  0
 14  4  1  0  0  0  0
 15  4  2  0  0  0  0
 16 10  1  0  0  0  0
 17 11  1  0  0  0  0
 18  7  2  0  0  0  0
 19  8  2  0  0  0  0
 20  8  1  0  0  0  0
 21  7  1  0  0  0  0
 22 24  2  0  0  0  0
 23 14  2  0  0  0  0
 24 15  1  0  0  0  0
 25 20  1  0  0  0  0
 16  5  1  0  0  0  0
 25 21  1  0  0  0  0
 23 22  1  0  0  0  0
M  END
>  <IDNUMBER>
F5381-0023

>  <Chemical_Name>
1-(2-{[4-(pyrimidin-2-yl)piperazin-1-yl]sulfonyl}ethyl)piperidine-2,6-dione

>  <PriceCoeff>
1.00

>  <CAS>
1040675-21-5

>  <MW>
367.42

>  <Description>
solid

>  <FSP3>
0.60

>  <clogP>
0.40

>  <TPSA>
112.16

>  <Acceptor>
6

>  <Donor>
1

>  <RotBonds>
5

>  <HAC>
25

>  <Collection>
General

>  <PPDS>
+

$$$$
F5381-0024
  Mrv2219 10102508112D          

 27 29  0  0  0  0            999 V2000
   -3.0801    4.1395    0.0000 S   0  0  0  0  0  0  0  0  0  0  0  0
   -0.9408    4.5526    0.0000 N   0  0  0  0  0  0  0  0  0  0  0  0
   -3.7918    3.7304    0.0000 N   0  0  0  0  0  0  0  0  0  0  0  0
   -2.3683    4.5567    0.0000 C   0  0  0  0  0  0  0  0  0  0  0  0
   -5.2234    2.9041    0.0000 N   0  0  0  0  0  0  0  0  0  0  0  0
   -0.9326    5.3666    0.0000 C   0  0  0  0  0  0  0  0  0  0  0  0
   -0.2209    4.1395    0.0000 C   0  0  0  0  0  0  0  0  0  0  0  0
   -5.9188    2.4910    0.0000 C   0  0  0  0  0  0  0  0  0  0  0  0
   -1.6566    4.1354    0.0000 C   0  0  0  0  0  0  0  0  0  0  0  0
   -4.5158    4.1354    0.0000 C   0  0  0  0  0  0  0  0  0  0  0  0
   -3.7999    2.9041    0.0000 C   0  0  0  0  0  0  0  0  0  0  0  0
   -2.6587    3.4359    0.0000 O   0  0  0  0  0  0  0  0  0  0  0  0
   -3.4850    4.8512    0.0000 O   0  0  0  0  0  0  0  0  0  0  0  0
   -4.5117    2.4910    0.0000 C   0  0  0  0  0  0  0  0  0  0  0  0
   -5.2357    3.7263    0.0000 C   0  0  0  0  0  0  0  0  0  0  0  0
   -6.6428    2.9083    0.0000 C   0  0  0  0  0  0  0  0  0  0  0  0
   -5.9188    1.6689    0.0000 C   0  0  0  0  0  0  0  0  0  0  0  0
   -0.2290    3.3214    0.0000 O   0  0  0  0  0  0  0  0  0  0  0  0
   -1.6525    5.7838    0.0000 O   0  0  0  0  0  0  0  0  0  0  0  0
   -7.3545    2.4910    0.0000 C   0  0  0  0  0  0  0  0  0  0  0  0
   -6.6305    1.2517    0.0000 C   0  0  0  0  0  0  0  0  0  0  0  0
   -7.3545    1.6648    0.0000 C   0  0  0  0  0  0  0  0  0  0  0  0
    0.4950    4.5526    0.0000 C   0  0  0  0  0  0  0  0  0  0  0  0
   -0.2290    5.7838    0.0000 C   0  0  0  0  0  0  0  0  0  0  0  0
    0.4827    5.3666    0.0000 C   0  0  0  0  0  0  0  0  0  0  0  0
   -6.6387    3.7263    0.0000 C   0  0  0  0  0  0  0  0  0  0  0  0
   -6.6305    0.4295    0.0000 C   0  0  0  0  0  0  0  0  0  0  0  0
  2  9  1  0  0  0  0
  3  1  1  0  0  0  0
  4  1  1  0  0  0  0
  5 14  1  0  0  0  0
  6  2  1  0  0  0  0
  7  2  1  0  0  0  0
  8  5  1  0  0  0  0
  9  4  1  0  0  0  0
 10  3  1  0  0  0  0
 11  3  1  0  0  0  0
 12  1  2  0  0  0  0
 13  1  2  0  0  0  0
 14 11  1  0  0  0  0
 15 10  1  0  0  0  0
 16  8  2  0  0  0  0
 17  8  1  0  0  0  0
 18  7  2  0  0  0  0
 19  6  2  0  0  0  0
 20 16  1  0  0  0  0
 21 17  2  0  0  0  0
 22 21  1  0  0  0  0
 23  7  1  0  0  0  0
 24  6  1  0  0  0  0
 25 23  1  0  0  0  0
 26 16  1  0  0  0  0
 27 21  1  0  0  0  0
  5 15  1  0  0  0  0
 24 25  1  0  0  0  0
 22 20  2  0  0  0  0
M  END
>  <IDNUMBER>
F5381-0024

>  <Chemical_Name>
1-(2-{[4-(2,5-dimethylphenyl)piperazin-1-yl]sulfonyl}ethyl)piperidine-2,6-dione

>  <PriceCoeff>
1.00

>  <CAS>
1040675-29-3

>  <MW>
393.50

>  <Description>
solid

>  <FSP3>
0.58

>  <clogP>
3.12

>  <TPSA>
86.38

>  <Acceptor>
5

>  <Donor>
1

>  <RotBonds>
5

>  <HAC>
27

>  <Collection>
General

>  <PPDS>
+

$$$$
F5381-0025
  Mrv2219 10102508112D          

 27 29  0  0  0  0            999 V2000
   -3.0801    4.1395    0.0000 S   0  0  0  0  0  0  0  0  0  0  0  0
   -0.9408    4.5526    0.0000 N   0  0  0  0  0  0  0  0  0  0  0  0
   -3.7918    3.7304    0.0000 N   0  0  0  0  0  0  0  0  0  0  0  0
   -2.3683    4.5567    0.0000 C   0  0  0  0  0  0  0  0  0  0  0  0
   -6.6428    2.9164    0.0000 C   0  0  0  0  0  0  0  0  0  0  0  0
   -5.2234    2.9083    0.0000 N   0  0  0  0  0  0  0  0  0  0  0  0
   -5.9311    2.4992    0.0000 C   0  0  0  0  0  0  0  0  0  0  0  0
   -0.9326    5.3666    0.0000 C   0  0  0  0  0  0  0  0  0  0  0  0
   -0.2209    4.1395    0.0000 C   0  0  0  0  0  0  0  0  0  0  0  0
   -1.6566    4.1354    0.0000 C   0  0  0  0  0  0  0  0  0  0  0  0
   -3.7999    2.9041    0.0000 C   0  0  0  0  0  0  0  0  0  0  0  0
   -4.5117    4.1354    0.0000 C   0  0  0  0  0  0  0  0  0  0  0  0
   -3.4850    4.8512    0.0000 O   0  0  0  0  0  0  0  0  0  0  0  0
   -2.6587    3.4359    0.0000 O   0  0  0  0  0  0  0  0  0  0  0  0
   -5.2234    3.7304    0.0000 C   0  0  0  0  0  0  0  0  0  0  0  0
   -4.5117    2.4910    0.0000 C   0  0  0  0  0  0  0  0  0  0  0  0
   -7.3545    2.4992    0.0000 C   0  0  0  0  0  0  0  0  0  0  0  0
   -0.2290    3.3214    0.0000 O   0  0  0  0  0  0  0  0  0  0  0  0
   -1.6525    5.7838    0.0000 O   0  0  0  0  0  0  0  0  0  0  0  0
   -6.6387    3.7304    0.0000 Cl  0  0  0  0  0  0  0  0  0  0  0  0
   -8.0663    2.9041    0.0000 Cl  0  0  0  0  0  0  0  0  0  0  0  0
   -0.2290    5.7838    0.0000 C   0  0  0  0  0  0  0  0  0  0  0  0
    0.4950    4.5526    0.0000 C   0  0  0  0  0  0  0  0  0  0  0  0
   -5.9311    1.6770    0.0000 C   0  0  0  0  0  0  0  0  0  0  0  0
    0.4827    5.3666    0.0000 C   0  0  0  0  0  0  0  0  0  0  0  0
   -6.6387    1.2598    0.0000 C   0  0  0  0  0  0  0  0  0  0  0  0
   -7.3627    1.6689    0.0000 C   0  0  0  0  0  0  0  0  0  0  0  0
  2 10  1  0  0  0  0
  3  1  1  0  0  0  0
  4  1  1  0  0  0  0
  5  7  2  0  0  0  0
  6 15  1  0  0  0  0
  7  6  1  0  0  0  0
  8  2  1  0  0  0  0
  9  2  1  0  0  0  0
 10  4  1  0  0  0  0
 11  3  1  0  0  0  0
 12  3  1  0  0  0  0
 13  1  2  0  0  0  0
 14  1  2  0  0  0  0
 15 12  1  0  0  0  0
 16 11  1  0  0  0  0
 17  5  1  0  0  0  0
 18  9  2  0  0  0  0
 19  8  2  0  0  0  0
 20  5  1  0  0  0  0
 21 17  1  0  0  0  0
 22  8  1  0  0  0  0
 23  9  1  0  0  0  0
 24  7  1  0  0  0  0
 25 23  1  0  0  0  0
 26 24  2  0  0  0  0
 27 26  1  0  0  0  0
  6 16  1  0  0  0  0
 22 25  1  0  0  0  0
 27 17  2  0  0  0  0
M  END
>  <IDNUMBER>
F5381-0025

>  <Chemical_Name>
1-(2-{[4-(2,3-dichlorophenyl)piperazin-1-yl]sulfonyl}ethyl)piperidine-2,6-dione

>  <PriceCoeff>
1.00

>  <CAS>
1040675-35-1

>  <MW>
434.34

>  <Description>
solid

>  <FSP3>
0.53

>  <clogP>
3.65

>  <TPSA>
86.38

>  <Acceptor>
5

>  <Donor>
1

>  <RotBonds>
5

>  <HAC>
27

>  <Collection>
General

>  <PPDS>
+

$$$$
F5381-0026
  Mrv2219 10102508112D          

 27 29  0  0  0  0            999 V2000
   -3.0801    4.1395    0.0000 S   0  0  0  0  0  0  0  0  0  0  0  0
   -0.9408    4.5526    0.0000 N   0  0  0  0  0  0  0  0  0  0  0  0
   -3.7918    3.7304    0.0000 N   0  0  0  0  0  0  0  0  0  0  0  0
   -2.3683    4.5567    0.0000 C   0  0  0  0  0  0  0  0  0  0  0  0
   -5.2234    2.9041    0.0000 N   0  0  0  0  0  0  0  0  0  0  0  0
   -5.9311    2.4910    0.0000 C   0  0  0  0  0  0  0  0  0  0  0  0
   -0.2209    4.1395    0.0000 C   0  0  0  0  0  0  0  0  0  0  0  0
   -0.9326    5.3666    0.0000 C   0  0  0  0  0  0  0  0  0  0  0  0
   -1.6566    4.1354    0.0000 C   0  0  0  0  0  0  0  0  0  0  0  0
   -4.5158    4.1354    0.0000 C   0  0  0  0  0  0  0  0  0  0  0  0
   -3.8041    2.9041    0.0000 C   0  0  0  0  0  0  0  0  0  0  0  0
   -5.9311    1.6689    0.0000 C   0  0  0  0  0  0  0  0  0  0  0  0
   -3.4850    4.8512    0.0000 O   0  0  0  0  0  0  0  0  0  0  0  0
   -2.6587    3.4359    0.0000 O   0  0  0  0  0  0  0  0  0  0  0  0
   -5.2357    3.7263    0.0000 C   0  0  0  0  0  0  0  0  0  0  0  0
   -4.5117    2.4910    0.0000 C   0  0  0  0  0  0  0  0  0  0  0  0
   -6.6428    2.9041    0.0000 C   0  0  0  0  0  0  0  0  0  0  0  0
   -0.2290    3.3214    0.0000 O   0  0  0  0  0  0  0  0  0  0  0  0
   -1.6525    5.7838    0.0000 O   0  0  0  0  0  0  0  0  0  0  0  0
   -7.3627    2.4910    0.0000 C   0  0  0  0  0  0  0  0  0  0  0  0
   -6.6428    1.2517    0.0000 C   0  0  0  0  0  0  0  0  0  0  0  0
   -7.3627    1.6648    0.0000 C   0  0  0  0  0  0  0  0  0  0  0  0
   -6.6305    0.4295    0.0000 Cl  0  0  0  0  0  0  0  0  0  0  0  0
   -0.2290    5.7838    0.0000 C   0  0  0  0  0  0  0  0  0  0  0  0
    0.4950    4.5526    0.0000 C   0  0  0  0  0  0  0  0  0  0  0  0
    0.4827    5.3666    0.0000 C   0  0  0  0  0  0  0  0  0  0  0  0
   -6.6387    3.7263    0.0000 C   0  0  0  0  0  0  0  0  0  0  0  0
  2  9  1  0  0  0  0
  3  1  1  0  0  0  0
  4  1  1  0  0  0  0
  5 16  1  0  0  0  0
  6  5  1  0  0  0  0
  7  2  1  0  0  0  0
  8  2  1  0  0  0  0
  9  4  1  0  0  0  0
 10  3  1  0  0  0  0
 11  3  1  0  0  0  0
 12  6  1  0  0  0  0
 13  1  2  0  0  0  0
 14  1  2  0  0  0  0
 15 10  1  0  0  0  0
 16 11  1  0  0  0  0
 17  6  2  0  0  0  0
 18  7  2  0  0  0  0
 19  8  2  0  0  0  0
 20 17  1  0  0  0  0
 21 12  2  0  0  0  0
 22 20  2  0  0  0  0
 23 21  1  0  0  0  0
 24  8  1  0  0  0  0
 25  7  1  0  0  0  0
 26 24  1  0  0  0  0
 27 17  1  0  0  0  0
  5 15  1  0  0  0  0
 26 25  1  0  0  0  0
 22 21  1  0  0  0  0
M  END
>  <IDNUMBER>
F5381-0026

>  <Chemical_Name>
1-(2-{[4-(5-chloro-2-methylphenyl)piperazin-1-yl]sulfonyl}ethyl)piperidine-2,6-dione

>  <PriceCoeff>
1.00

>  <CAS>
1040675-41-9

>  <MW>
413.92

>  <Description>
solid

>  <FSP3>
0.56

>  <clogP>
3.50

>  <TPSA>
86.38

>  <Acceptor>
5

>  <Donor>
1

>  <RotBonds>
5

>  <HAC>
27

>  <Collection>
General

>  <PPDS>
+

$$$$
F5450-0502
  Mrv2219 10102508112D          

 33 36  0  0  0  0            999 V2000
   -5.1916    1.8558    0.0000 N   0  0  0  0  0  0  0  0  0  0  0  0
   -3.8582    6.2593    0.0000 C   0  0  0  0  0  0  0  0  0  0  0  0
   -3.9728    5.4345    0.0000 N   0  0  0  0  0  0  0  0  0  0  0  0
   -3.1296    6.6305    0.0000 N   0  0  0  0  0  0  0  0  0  0  0  0
   -3.2671    7.4507    0.0000 C   0  0  0  0  0  0  0  0  0  0  0  0
   -4.7380    5.1184    0.0000 C   0  0  0  0  0  0  0  0  0  0  0  0
   -4.6280    1.2601    0.0000 C   0  0  0  0  0  0  0  0  0  0  0  0
   -5.9339    1.5075    0.0000 C   0  0  0  0  0  0  0  0  0  0  0  0
   -4.4493    6.8367    0.0000 S   0  0  0  0  0  0  0  0  0  0  0  0
   -3.0518    8.8712    0.0000 N   0  0  0  0  0  0  0  0  0  0  0  0
   -4.0828    7.5744    0.0000 C   0  0  0  0  0  0  0  0  0  0  0  0
   -5.0816    2.6760    0.0000 C   0  0  0  0  0  0  0  0  0  0  0  0
   -4.8526    4.3118    0.0000 C   0  0  0  0  0  0  0  0  0  0  0  0
   -4.1744    9.7601    0.0000 C   0  0  0  0  0  0  0  0  0  0  0  0
   -3.8719    8.9949    0.0000 C   0  0  0  0  0  0  0  0  0  0  0  0
   -2.7493    8.0968    0.0000 C   0  0  0  0  0  0  0  0  0  0  0  0
   -5.3978    5.6270    0.0000 O   0  0  0  0  0  0  0  0  0  0  0  0
   -5.0129    0.5452    0.0000 C   0  0  0  0  0  0  0  0  0  0  0  0
   -5.8240    0.6827    0.0000 C   0  0  0  0  0  0  0  0  0  0  0  0
   -3.8032    1.3609    0.0000 O   0  0  0  0  0  0  0  0  0  0  0  0
   -6.6580    1.9062    0.0000 O   0  0  0  0  0  0  0  0  0  0  0  0
   -3.6566   10.3971    0.0000 C   0  0  0  0  0  0  0  0  0  0  0  0
   -5.7415    3.1846    0.0000 C   0  0  0  0  0  0  0  0  0  0  0  0
   -4.3164    2.9921    0.0000 C   0  0  0  0  0  0  0  0  0  0  0  0
   -5.6178    3.9957    0.0000 C   0  0  0  0  0  0  0  0  0  0  0  0
   -4.2019    3.8032    0.0000 C   0  0  0  0  0  0  0  0  0  0  0  0
   -2.5385    9.5127    0.0000 C   0  0  0  0  0  0  0  0  0  0  0  0
   -2.8409   10.2734    0.0000 C   0  0  0  0  0  0  0  0  0  0  0  0
   -4.9854    9.8838    0.0000 C   0  0  0  0  0  0  0  0  0  0  0  0
   -3.9590   11.1669    0.0000 C   0  0  0  0  0  0  0  0  0  0  0  0
   -5.2878   10.6536    0.0000 C   0  0  0  0  0  0  0  0  0  0  0  0
   -4.7792   11.2906    0.0000 C   0  0  0  0  0  0  0  0  0  0  0  0
   -1.0126    6.0210    0.0000 Cl  0  0  0  0  0  0  0  0  0  0  0  0
  3  6  1  0  0  0  0
  4  2  2  0  0  0  0
  5  4  1  0  0  0  0
  6 13  1  0  0  0  0
  7  1  1  0  0  0  0
  8  1  1  0  0  0  0
  9  2  1  0  0  0  0
 10 16  1  0  0  0  0
 11  9  1  0  0  0  0
 12  1  1  0  0  0  0
 13 26  1  0  0  0  0
 14 15  1  0  0  0  0
 15 10  1  0  0  0  0
 16  5  1  0  0  0  0
 17  6  2  0  0  0  0
 18  7  1  0  0  0  0
 19  8  1  0  0  0  0
 20  7  2  0  0  0  0
 21  8  2  0  0  0  0
 22 28  1  0  0  0  0
 23 12  2  0  0  0  0
 24 12  1  0  0  0  0
 25 23  1  0  0  0  0
 26 24  2  0  0  0  0
 27 10  1  0  0  0  0
 28 27  1  0  0  0  0
 29 14  2  0  0  0  0
 30 22  2  0  0  0  0
 31 29  1  0  0  0  0
 32 30  1  0  0  0  0
 19 18  1  0  0  0  0
 25 13  2  0  0  0  0
 11  5  2  0  0  0  0
 14 22  1  0  0  0  0
 31 32  2  0  0  0  0
  2  3  1  0  0  0  0
M  END
>  <IDNUMBER>
F5450-0502

>  <Chemical_Name>
4-(2,5-dioxopyrrolidin-1-yl)-N-{4-[(1,2,3,4-tetrahydroisoquinolin-2-yl)methyl]-1,3-thiazol-2-yl}benzamide hydrochloride

>  <PriceCoeff>
1.00

>  <CAS>
1215842-13-9

>  <MW>
446.52

>  <Description>
solid

>  <FSP3>
0.25

>  <clogP>
1.91

>  <TPSA>
110.85

>  <Acceptor>
4

>  <Donor>
2

>  <RotBonds>
5

>  <HAC>
32

>  <Collection>
General

>  <PPDS>
+

$$$$
F5460-0026
  Mrv2219 10102508112D          

 31 35  0  0  0  0            999 V2000
   -4.4283    5.9336    0.0000 N   0  0  0  0  0  0  0  0  0  0  0  0
   -5.2406    5.7592    0.0000 C   0  0  0  0  0  0  0  0  0  0  0  0
   -3.7951    5.4013    0.0000 C   0  0  0  0  0  0  0  0  0  0  0  0
   -0.2982    4.0291    0.0000 N   0  0  0  0  0  0  0  0  0  0  0  0
   -5.8188    6.3466    0.0000 N   0  0  0  0  0  0  0  0  0  0  0  0
   -4.1255    6.6954    0.0000 N   0  0  0  0  0  0  0  0  0  0  0  0
   -5.5985    5.0387    0.0000 S   0  0  0  0  0  0  0  0  0  0  0  0
   -3.1067    5.8556    0.0000 C   0  0  0  0  0  0  0  0  0  0  0  0
   -3.8410    4.5753    0.0000 N   0  0  0  0  0  0  0  0  0  0  0  0
   -0.9912    4.4514    0.0000 C   0  0  0  0  0  0  0  0  0  0  0  0
   -3.1526    4.1392    0.0000 C   0  0  0  0  0  0  0  0  0  0  0  0
   -0.2707    3.2031    0.0000 C   0  0  0  0  0  0  0  0  0  0  0  0
    0.4865    4.3044    0.0000 C   0  0  0  0  0  0  0  0  0  0  0  0
   -3.2995    6.6403    0.0000 C   0  0  0  0  0  0  0  0  0  0  0  0
   -6.5622    5.9657    0.0000 C   0  0  0  0  0  0  0  0  0  0  0  0
   -6.4108    5.1535    0.0000 C   0  0  0  0  0  0  0  0  0  0  0  0
   -1.7300    4.0842    0.0000 C   0  0  0  0  0  0  0  0  0  0  0  0
   -2.4230    4.5202    0.0000 C   0  0  0  0  0  0  0  0  0  0  0  0
   -3.1939    3.3132    0.0000 O   0  0  0  0  0  0  0  0  0  0  0  0
    0.5231    2.9690    0.0000 C   0  0  0  0  0  0  0  0  0  0  0  0
    0.9958    3.6436    0.0000 C   0  0  0  0  0  0  0  0  0  0  0  0
   -0.9224    2.6846    0.0000 O   0  0  0  0  0  0  0  0  0  0  0  0
    0.7297    5.0984    0.0000 O   0  0  0  0  0  0  0  0  0  0  0  0
   -0.9591    5.2911    0.0000 C   0  0  0  0  0  0  0  0  0  0  0  0
   -2.3908    5.3462    0.0000 C   0  0  0  0  0  0  0  0  0  0  0  0
   -1.6612    5.7317    0.0000 C   0  0  0  0  0  0  0  0  0  0  0  0
   -2.7625    7.2736    0.0000 C   0  0  0  0  0  0  0  0  0  0  0  0
   -7.3240    6.2411    0.0000 C   0  0  0  0  0  0  0  0  0  0  0  0
   -7.0396    4.6303    0.0000 C   0  0  0  0  0  0  0  0  0  0  0  0
   -7.9619    5.7179    0.0000 C   0  0  0  0  0  0  0  0  0  0  0  0
   -7.8105    4.9194    0.0000 C   0  0  0  0  0  0  0  0  0  0  0  0
  2  1  1  0  0  0  0
  3  1  1  0  0  0  0
  4 10  1  0  0  0  0
  5  2  2  0  0  0  0
  6  1  1  0  0  0  0
  7  2  1  0  0  0  0
  8  3  2  0  0  0  0
  9  3  1  0  0  0  0
 10 17  1  0  0  0  0
 11  9  1  0  0  0  0
 12  4  1  0  0  0  0
 13  4  1  0  0  0  0
 14  6  2  0  0  0  0
 15  5  1  0  0  0  0
 16  7  1  0  0  0  0
 17 18  2  0  0  0  0
 18 11  1  0  0  0  0
 19 11  2  0  0  0  0
 20 12  1  0  0  0  0
 21 13  1  0  0  0  0
 22 12  2  0  0  0  0
 23 13  2  0  0  0  0
 24 26  1  0  0  0  0
 25 18  1  0  0  0  0
 26 25  2  0  0  0  0
 27 14  1  0  0  0  0
 28 15  1  0  0  0  0
 29 16  1  0  0  0  0
 30 28  2  0  0  0  0
 31 29  2  0  0  0  0
 14  8  1  0  0  0  0
 15 16  2  0  0  0  0
 31 30  1  0  0  0  0
 10 24  2  0  0  0  0
 20 21  1  0  0  0  0
M  END
>  <IDNUMBER>
F5460-0026

>  <Chemical_Name>
N-[1-(1,3-benzothiazol-2-yl)-3-methyl-1H-pyrazol-5-yl]-3-(2,5-dioxopyrrolidin-1-yl)benzamide

>  <PriceCoeff>
1.00

>  <CAS>
1172262-91-7

>  <MW>
431.47

>  <Description>
solid

>  <FSP3>
0.14

>  <clogP>
1.98

>  <TPSA>
125.43

>  <Acceptor>
5

>  <Donor>
1

>  <RotBonds>
4

>  <HAC>
31

>  <Collection>
General

>  <PPDS>
+

$$$$
F5460-0040
  Mrv2219 10102508112D          

 26 29  0  0  0  0            999 V2000
   -4.4371    5.9453    0.0000 N   0  0  0  0  0  0  0  0  0  0  0  0
   -5.2509    5.7706    0.0000 C   0  0  0  0  0  0  0  0  0  0  0  0
   -3.8025    5.4119    0.0000 C   0  0  0  0  0  0  0  0  0  0  0  0
   -2.5059    2.8692    0.0000 N   0  0  0  0  0  0  0  0  0  0  0  0
   -5.8303    6.3591    0.0000 N   0  0  0  0  0  0  0  0  0  0  0  0
   -4.1336    6.7086    0.0000 N   0  0  0  0  0  0  0  0  0  0  0  0
   -5.6096    5.0487    0.0000 S   0  0  0  0  0  0  0  0  0  0  0  0
   -3.1128    5.8671    0.0000 C   0  0  0  0  0  0  0  0  0  0  0  0
   -3.8486    4.5843    0.0000 N   0  0  0  0  0  0  0  0  0  0  0  0
   -2.3726    2.0507    0.0000 C   0  0  0  0  0  0  0  0  0  0  0  0
   -1.7748    3.2508    0.0000 C   0  0  0  0  0  0  0  0  0  0  0  0
   -3.3060    6.6534    0.0000 C   0  0  0  0  0  0  0  0  0  0  0  0
   -3.1589    4.1474    0.0000 C   0  0  0  0  0  0  0  0  0  0  0  0
   -6.5752    5.9775    0.0000 C   0  0  0  0  0  0  0  0  0  0  0  0
   -6.4234    5.1636    0.0000 C   0  0  0  0  0  0  0  0  0  0  0  0
   -3.2002    3.3198    0.0000 C   0  0  0  0  0  0  0  0  0  0  0  0
   -1.1863    2.6623    0.0000 C   0  0  0  0  0  0  0  0  0  0  0  0
   -1.5587    1.9265    0.0000 C   0  0  0  0  0  0  0  0  0  0  0  0
   -1.6415    4.0693    0.0000 O   0  0  0  0  0  0  0  0  0  0  0  0
   -2.9473    1.4713    0.0000 O   0  0  0  0  0  0  0  0  0  0  0  0
   -2.4278    4.5153    0.0000 O   0  0  0  0  0  0  0  0  0  0  0  0
   -2.7680    7.2879    0.0000 C   0  0  0  0  0  0  0  0  0  0  0  0
   -7.3385    6.2534    0.0000 C   0  0  0  0  0  0  0  0  0  0  0  0
   -7.0534    4.6395    0.0000 C   0  0  0  0  0  0  0  0  0  0  0  0
   -7.8259    4.9291    0.0000 C   0  0  0  0  0  0  0  0  0  0  0  0
   -7.9776    5.7292    0.0000 C   0  0  0  0  0  0  0  0  0  0  0  0
  2  1  1  0  0  0  0
  3  1  1  0  0  0  0
  4 16  1  0  0  0  0
  5  2  2  0  0  0  0
  6  1  1  0  0  0  0
  7  2  1  0  0  0  0
  8  3  2  0  0  0  0
  9  3  1  0  0  0  0
 10  4  1  0  0  0  0
 11  4  1  0  0  0  0
 12  6  2  0  0  0  0
 13  9  1  0  0  0  0
 14  5  1  0  0  0  0
 15  7  1  0  0  0  0
 16 13  1  0  0  0  0
 17 11  1  0  0  0  0
 18 10  1  0  0  0  0
 19 11  2  0  0  0  0
 20 10  2  0  0  0  0
 21 13  2  0  0  0  0
 22 12  1  0  0  0  0
 23 14  1  0  0  0  0
 24 15  1  0  0  0  0
 25 24  2  0  0  0  0
 26 23  2  0  0  0  0
 12  8  1  0  0  0  0
 14 15  2  0  0  0  0
 25 26  1  0  0  0  0
 17 18  1  0  0  0  0
M  END
>  <IDNUMBER>
F5460-0040

>  <Chemical_Name>
N-[1-(1,3-benzothiazol-2-yl)-3-methyl-1H-pyrazol-5-yl]-2-(2,5-dioxopyrrolidin-1-yl)acetamide

>  <PriceCoeff>
1.00

>  <CAS>
1172976-51-0

>  <MW>
369.40

>  <Description>
solid

>  <FSP3>
0.24

>  <clogP>
1.80

>  <TPSA>
125.43

>  <Acceptor>
5

>  <Donor>
1

>  <RotBonds>
4

>  <HAC>
26

>  <Collection>
General

>  <PPDS>
+

$$$$
F5460-0270
  Mrv2219 10102508112D          

 28 31  0  0  0  0            999 V2000
   -4.4371    5.9499    0.0000 N   0  0  0  0  0  0  0  0  0  0  0  0
   -5.2509    5.7706    0.0000 C   0  0  0  0  0  0  0  0  0  0  0  0
   -3.8025    5.4257    0.0000 C   0  0  0  0  0  0  0  0  0  0  0  0
   -2.5059    2.8783    0.0000 N   0  0  0  0  0  0  0  0  0  0  0  0
   -5.8349    6.3637    0.0000 N   0  0  0  0  0  0  0  0  0  0  0  0
   -4.1336    6.7177    0.0000 N   0  0  0  0  0  0  0  0  0  0  0  0
   -5.6096    5.0533    0.0000 S   0  0  0  0  0  0  0  0  0  0  0  0
   -3.1128    5.8671    0.0000 C   0  0  0  0  0  0  0  0  0  0  0  0
   -3.8486    4.5981    0.0000 N   0  0  0  0  0  0  0  0  0  0  0  0
   -2.3726    2.0553    0.0000 C   0  0  0  0  0  0  0  0  0  0  0  0
   -1.7748    3.2646    0.0000 C   0  0  0  0  0  0  0  0  0  0  0  0
   -6.4234    5.1636    0.0000 C   0  0  0  0  0  0  0  0  0  0  0  0
   -6.5752    5.9775    0.0000 C   0  0  0  0  0  0  0  0  0  0  0  0
   -3.3060    6.6534    0.0000 C   0  0  0  0  0  0  0  0  0  0  0  0
   -3.1589    4.1474    0.0000 C   0  0  0  0  0  0  0  0  0  0  0  0
   -3.2002    3.3198    0.0000 C   0  0  0  0  0  0  0  0  0  0  0  0
   -7.0534    4.6395    0.0000 C   0  0  0  0  0  0  0  0  0  0  0  0
   -1.1863    2.6714    0.0000 C   0  0  0  0  0  0  0  0  0  0  0  0
   -1.5587    1.9265    0.0000 C   0  0  0  0  0  0  0  0  0  0  0  0
   -1.6415    4.0784    0.0000 O   0  0  0  0  0  0  0  0  0  0  0  0
   -2.9473    1.4713    0.0000 O   0  0  0  0  0  0  0  0  0  0  0  0
   -2.4278    4.5291    0.0000 O   0  0  0  0  0  0  0  0  0  0  0  0
   -7.3385    6.2672    0.0000 C   0  0  0  0  0  0  0  0  0  0  0  0
   -7.8259    4.9291    0.0000 C   0  0  0  0  0  0  0  0  0  0  0  0
   -7.9776    5.7292    0.0000 C   0  0  0  0  0  0  0  0  0  0  0  0
   -8.4742    4.4095    0.0000 O   0  0  0  0  0  0  0  0  0  0  0  0
   -2.7680    7.2971    0.0000 C   0  0  0  0  0  0  0  0  0  0  0  0
   -9.2467    4.6946    0.0000 C   0  0  0  0  0  0  0  0  0  0  0  0
  2  1  1  0  0  0  0
  3  1  1  0  0  0  0
  4 16  1  0  0  0  0
  5  2  2  0  0  0  0
  6  1  1  0  0  0  0
  7  2  1  0  0  0  0
  8  3  2  0  0  0  0
  9  3  1  0  0  0  0
 10  4  1  0  0  0  0
 11  4  1  0  0  0  0
 12  7  1  0  0  0  0
 13  5  1  0  0  0  0
 14  6  2  0  0  0  0
 15  9  1  0  0  0  0
 16 15  1  0  0  0  0
 17 12  1  0  0  0  0
 18 11  1  0  0  0  0
 19 10  1  0  0  0  0
 20 11  2  0  0  0  0
 21 10  2  0  0  0  0
 22 15  2  0  0  0  0
 23 13  1  0  0  0  0
 24 17  2  0  0  0  0
 25 23  2  0  0  0  0
 26 24  1  0  0  0  0
 27 14  1  0  0  0  0
 28 26  1  0  0  0  0
 14  8  1  0  0  0  0
 13 12  2  0  0  0  0
 24 25  1  0  0  0  0
 18 19  1  0  0  0  0
M  END
>  <IDNUMBER>
F5460-0270

>  <Chemical_Name>
2-(2,5-dioxopyrrolidin-1-yl)-N-[1-(6-methoxy-1,3-benzothiazol-2-yl)-3-methyl-1H-pyrazol-5-yl]acetamide

>  <PriceCoeff>
1.00

>  <CAS>
1171627-67-0

>  <MW>
399.42

>  <Description>
solid

>  <FSP3>
0.28

>  <clogP>
2.07

>  <TPSA>
134.66

>  <Acceptor>
6

>  <Donor>
1

>  <RotBonds>
5

>  <HAC>
28

>  <Collection>
General

>  <PPDS>
+

$$$$
F5460-0486
  Mrv2219 10102508112D          

 32 36  0  0  0  0            999 V2000
   -4.4317    5.9427    0.0000 N   0  0  0  0  0  0  0  0  0  0  0  0
   -5.2308    5.7636    0.0000 C   0  0  0  0  0  0  0  0  0  0  0  0
   -3.7888    5.4192    0.0000 C   0  0  0  0  0  0  0  0  0  0  0  0
   -0.2847    4.0460    0.0000 N   0  0  0  0  0  0  0  0  0  0  0  0
   -5.8232    6.3561    0.0000 N   0  0  0  0  0  0  0  0  0  0  0  0
   -4.1148    6.7143    0.0000 N   0  0  0  0  0  0  0  0  0  0  0  0
   -5.6028    5.0472    0.0000 S   0  0  0  0  0  0  0  0  0  0  0  0
   -3.0953    5.8692    0.0000 C   0  0  0  0  0  0  0  0  0  0  0  0
   -3.8393    4.5925    0.0000 N   0  0  0  0  0  0  0  0  0  0  0  0
   -0.9873    4.4685    0.0000 C   0  0  0  0  0  0  0  0  0  0  0  0
   -3.1504    4.1562    0.0000 C   0  0  0  0  0  0  0  0  0  0  0  0
   -6.4065    5.1666    0.0000 C   0  0  0  0  0  0  0  0  0  0  0  0
   -0.2571    3.2102    0.0000 C   0  0  0  0  0  0  0  0  0  0  0  0
    0.5006    4.3215    0.0000 C   0  0  0  0  0  0  0  0  0  0  0  0
   -6.5535    5.9703    0.0000 C   0  0  0  0  0  0  0  0  0  0  0  0
   -3.2928    6.6592    0.0000 C   0  0  0  0  0  0  0  0  0  0  0  0
   -1.7176    4.0873    0.0000 C   0  0  0  0  0  0  0  0  0  0  0  0
   -2.4202    4.5236    0.0000 C   0  0  0  0  0  0  0  0  0  0  0  0
   -7.0403    4.6430    0.0000 C   0  0  0  0  0  0  0  0  0  0  0  0
   -3.1917    3.3295    0.0000 O   0  0  0  0  0  0  0  0  0  0  0  0
    0.5282    2.9851    0.0000 C   0  0  0  0  0  0  0  0  0  0  0  0
    1.0058    3.6602    0.0000 C   0  0  0  0  0  0  0  0  0  0  0  0
   -0.9185    2.6958    0.0000 O   0  0  0  0  0  0  0  0  0  0  0  0
    0.7440    5.1114    0.0000 O   0  0  0  0  0  0  0  0  0  0  0  0
   -7.3205    6.2596    0.0000 C   0  0  0  0  0  0  0  0  0  0  0  0
   -7.8118    4.9232    0.0000 C   0  0  0  0  0  0  0  0  0  0  0  0
   -7.9542    5.7314    0.0000 C   0  0  0  0  0  0  0  0  0  0  0  0
   -8.4502    4.4042    0.0000 F   0  0  0  0  0  0  0  0  0  0  0  0
   -0.9506    5.3090    0.0000 C   0  0  0  0  0  0  0  0  0  0  0  0
   -2.3789    5.3503    0.0000 C   0  0  0  0  0  0  0  0  0  0  0  0
   -1.6533    5.7452    0.0000 C   0  0  0  0  0  0  0  0  0  0  0  0
   -2.7555    7.2929    0.0000 C   0  0  0  0  0  0  0  0  0  0  0  0
  2  1  1  0  0  0  0
  3  1  1  0  0  0  0
  4 10  1  0  0  0  0
  5  2  2  0  0  0  0
  6  1  1  0  0  0  0
  7  2  1  0  0  0  0
  8  3  2  0  0  0  0
  9  3  1  0  0  0  0
 10 17  1  0  0  0  0
 11  9  1  0  0  0  0
 12  7  1  0  0  0  0
 13  4  1  0  0  0  0
 14  4  1  0  0  0  0
 15  5  1  0  0  0  0
 16  6  2  0  0  0  0
 17 18  2  0  0  0  0
 18 11  1  0  0  0  0
 19 12  1  0  0  0  0
 20 11  2  0  0  0  0
 21 13  1  0  0  0  0
 22 14  1  0  0  0  0
 23 13  2  0  0  0  0
 24 14  2  0  0  0  0
 25 15  1  0  0  0  0
 26 19  2  0  0  0  0
 27 25  2  0  0  0  0
 28 26  1  0  0  0  0
 29 31  1  0  0  0  0
 30 18  1  0  0  0  0
 31 30  2  0  0  0  0
 32 16  1  0  0  0  0
 16  8  1  0  0  0  0
 15 12  2  0  0  0  0
 26 27  1  0  0  0  0
 10 29  2  0  0  0  0
 21 22  1  0  0  0  0
M  END
>  <IDNUMBER>
F5460-0486

>  <Chemical_Name>
3-(2,5-dioxopyrrolidin-1-yl)-N-[1-(6-fluoro-1,3-benzothiazol-2-yl)-3-methyl-1H-pyrazol-5-yl]benzamide

>  <PriceCoeff>
1.00

>  <CAS>
1171008-68-6

>  <MW>
449.46

>  <Description>
solid

>  <FSP3>
0.14

>  <clogP>
2.12

>  <TPSA>
125.43

>  <Acceptor>
5

>  <Donor>
1

>  <RotBonds>
4

>  <HAC>
32

>  <Collection>
General

>  <PPDS>
+

$$$$
F5460-0500
  Mrv2219 10102508112D          

 27 30  0  0  0  0            999 V2000
   -4.4390    5.9525    0.0000 N   0  0  0  0  0  0  0  0  0  0  0  0
   -5.2394    5.7731    0.0000 C   0  0  0  0  0  0  0  0  0  0  0  0
   -3.7951    5.4281    0.0000 C   0  0  0  0  0  0  0  0  0  0  0  0
   -2.4978    2.8796    0.0000 N   0  0  0  0  0  0  0  0  0  0  0  0
   -5.8328    6.3666    0.0000 N   0  0  0  0  0  0  0  0  0  0  0  0
   -4.1216    6.7253    0.0000 N   0  0  0  0  0  0  0  0  0  0  0  0
   -5.6120    5.0555    0.0000 S   0  0  0  0  0  0  0  0  0  0  0  0
   -3.1004    5.8788    0.0000 C   0  0  0  0  0  0  0  0  0  0  0  0
   -3.8456    4.6001    0.0000 N   0  0  0  0  0  0  0  0  0  0  0  0
   -2.3690    2.0653    0.0000 C   0  0  0  0  0  0  0  0  0  0  0  0
   -1.7618    3.2660    0.0000 C   0  0  0  0  0  0  0  0  0  0  0  0
   -6.4171    5.1751    0.0000 C   0  0  0  0  0  0  0  0  0  0  0  0
   -6.5643    5.9801    0.0000 C   0  0  0  0  0  0  0  0  0  0  0  0
   -3.2982    6.6701    0.0000 C   0  0  0  0  0  0  0  0  0  0  0  0
   -3.1556    4.1630    0.0000 C   0  0  0  0  0  0  0  0  0  0  0  0
   -3.1970    3.3350    0.0000 C   0  0  0  0  0  0  0  0  0  0  0  0
   -7.0519    4.6506    0.0000 C   0  0  0  0  0  0  0  0  0  0  0  0
   -1.1822    2.6726    0.0000 C   0  0  0  0  0  0  0  0  0  0  0  0
   -1.5548    1.9320    0.0000 C   0  0  0  0  0  0  0  0  0  0  0  0
   -1.6376    4.0802    0.0000 O   0  0  0  0  0  0  0  0  0  0  0  0
   -2.9394    1.4766    0.0000 O   0  0  0  0  0  0  0  0  0  0  0  0
   -2.4242    4.5311    0.0000 O   0  0  0  0  0  0  0  0  0  0  0  0
   -7.3325    6.2699    0.0000 C   0  0  0  0  0  0  0  0  0  0  0  0
   -7.8247    4.9313    0.0000 C   0  0  0  0  0  0  0  0  0  0  0  0
   -7.9674    5.7409    0.0000 C   0  0  0  0  0  0  0  0  0  0  0  0
   -8.4641    4.4114    0.0000 F   0  0  0  0  0  0  0  0  0  0  0  0
   -2.7600    7.3049    0.0000 C   0  0  0  0  0  0  0  0  0  0  0  0
  2  1  1  0  0  0  0
  3  1  1  0  0  0  0
  4 16  1  0  0  0  0
  5  2  2  0  0  0  0
  6  1  1  0  0  0  0
  7  2  1  0  0  0  0
  8  3  2  0  0  0  0
  9  3  1  0  0  0  0
 10  4  1  0  0  0  0
 11  4  1  0  0  0  0
 12  7  1  0  0  0  0
 13  5  1  0  0  0  0
 14  6  2  0  0  0  0
 15  9  1  0  0  0  0
 16 15  1  0  0  0  0
 17 12  1  0  0  0  0
 18 11  1  0  0  0  0
 19 10  1  0  0  0  0
 20 11  2  0  0  0  0
 21 10  2  0  0  0  0
 22 15  2  0  0  0  0
 23 13  1  0  0  0  0
 24 17  2  0  0  0  0
 25 23  2  0  0  0  0
 26 24  1  0  0  0  0
 27 14  1  0  0  0  0
 14  8  1  0  0  0  0
 13 12  2  0  0  0  0
 24 25  1  0  0  0  0
 18 19  1  0  0  0  0
M  END
>  <IDNUMBER>
F5460-0500

>  <Chemical_Name>
2-(2,5-dioxopyrrolidin-1-yl)-N-[1-(6-fluoro-1,3-benzothiazol-2-yl)-3-methyl-1H-pyrazol-5-yl]acetamide

>  <PriceCoeff>
1.00

>  <CAS>
1171479-94-9

>  <MW>
387.39

>  <Description>
solid

>  <FSP3>
0.24

>  <clogP>
1.94

>  <TPSA>
125.43

>  <Acceptor>
5

>  <Donor>
1

>  <RotBonds>
4

>  <HAC>
27

>  <Collection>
General

>  <PPDS>
+

$$$$
F5460-0730
  Mrv2219 10102508112D          

 27 30  0  0  0  0            999 V2000
   -4.4346    5.9328    0.0000 N   0  0  0  0  0  0  0  0  0  0  0  0
   -5.2388    5.7536    0.0000 C   0  0  0  0  0  0  0  0  0  0  0  0
   -3.8004    5.4089    0.0000 C   0  0  0  0  0  0  0  0  0  0  0  0
   -5.8270    6.3464    0.0000 N   0  0  0  0  0  0  0  0  0  0  0  0
   -2.5045    2.8629    0.0000 N   0  0  0  0  0  0  0  0  0  0  0  0
   -4.1221    6.7048    0.0000 N   0  0  0  0  0  0  0  0  0  0  0  0
   -5.6064    5.0367    0.0000 S   0  0  0  0  0  0  0  0  0  0  0  0
   -3.1019    5.8592    0.0000 C   0  0  0  0  0  0  0  0  0  0  0  0
   -6.5577    5.9604    0.0000 C   0  0  0  0  0  0  0  0  0  0  0  0
   -3.8418    4.5817    0.0000 N   0  0  0  0  0  0  0  0  0  0  0  0
   -2.3666    2.0495    0.0000 C   0  0  0  0  0  0  0  0  0  0  0  0
   -1.7647    3.2490    0.0000 C   0  0  0  0  0  0  0  0  0  0  0  0
   -6.4198    5.1470    0.0000 C   0  0  0  0  0  0  0  0  0  0  0  0
   -3.3041    6.6497    0.0000 C   0  0  0  0  0  0  0  0  0  0  0  0
   -3.1525    4.1359    0.0000 C   0  0  0  0  0  0  0  0  0  0  0  0
   -3.1938    3.3087    0.0000 C   0  0  0  0  0  0  0  0  0  0  0  0
   -7.3252    6.2499    0.0000 C   0  0  0  0  0  0  0  0  0  0  0  0
   -1.1810    2.6561    0.0000 C   0  0  0  0  0  0  0  0  0  0  0  0
   -1.5532    1.9163    0.0000 C   0  0  0  0  0  0  0  0  0  0  0  0
   -1.6360    4.0624    0.0000 O   0  0  0  0  0  0  0  0  0  0  0  0
   -2.9457    1.4614    0.0000 O   0  0  0  0  0  0  0  0  0  0  0  0
   -2.4218    4.5128    0.0000 O   0  0  0  0  0  0  0  0  0  0  0  0
   -7.4631    7.0633    0.0000 F   0  0  0  0  0  0  0  0  0  0  0  0
   -7.0495    4.6322    0.0000 C   0  0  0  0  0  0  0  0  0  0  0  0
   -7.8215    4.9218    0.0000 C   0  0  0  0  0  0  0  0  0  0  0  0
   -2.7664    7.2839    0.0000 C   0  0  0  0  0  0  0  0  0  0  0  0
   -7.9594    5.7214    0.0000 C   0  0  0  0  0  0  0  0  0  0  0  0
  2  1  1  0  0  0  0
  3  1  1  0  0  0  0
  4  2  2  0  0  0  0
  5 16  1  0  0  0  0
  6  1  1  0  0  0  0
  7  2  1  0  0  0  0
  8  3  2  0  0  0  0
  9  4  1  0  0  0  0
 10  3  1  0  0  0  0
 11  5  1  0  0  0  0
 12  5  1  0  0  0  0
 13  7  1  0  0  0  0
 14  6  2  0  0  0  0
 15 10  1  0  0  0  0
 16 15  1  0  0  0  0
 17  9  1  0  0  0  0
 18 12  1  0  0  0  0
 19 11  1  0  0  0  0
 20 12  2  0  0  0  0
 21 11  2  0  0  0  0
 22 15  2  0  0  0  0
 23 17  1  0  0  0  0
 24 13  1  0  0  0  0
 25 24  2  0  0  0  0
 26 14  1  0  0  0  0
 27 17  2  0  0  0  0
 14  8  1  0  0  0  0
  9 13  2  0  0  0  0
 25 27  1  0  0  0  0
 18 19  1  0  0  0  0
M  END
>  <IDNUMBER>
F5460-0730

>  <Chemical_Name>
2-(2,5-dioxopyrrolidin-1-yl)-N-[1-(4-fluoro-1,3-benzothiazol-2-yl)-3-methyl-1H-pyrazol-5-yl]acetamide

>  <PriceCoeff>
1.00

>  <CAS>
1173100-97-4

>  <MW>
387.39

>  <Description>
solid

>  <FSP3>
0.24

>  <clogP>
1.94

>  <TPSA>
125.43

>  <Acceptor>
5

>  <Donor>
1

>  <RotBonds>
4

>  <HAC>
27

>  <Collection>
General

>  <PPDS>
+

$$$$
F5460-1190
  Mrv2219 10102508112D          

 29 32  0  0  0  0            999 V2000
   -4.4371    5.9591    0.0000 N   0  0  0  0  0  0  0  0  0  0  0  0
   -5.2371    5.7844    0.0000 C   0  0  0  0  0  0  0  0  0  0  0  0
   -3.7934    5.4257    0.0000 C   0  0  0  0  0  0  0  0  0  0  0  0
   -5.8303    6.3729    0.0000 N   0  0  0  0  0  0  0  0  0  0  0  0
   -2.4967    2.8830    0.0000 N   0  0  0  0  0  0  0  0  0  0  0  0
   -4.1198    6.7224    0.0000 N   0  0  0  0  0  0  0  0  0  0  0  0
   -5.6096    5.0624    0.0000 S   0  0  0  0  0  0  0  0  0  0  0  0
   -3.0990    5.8809    0.0000 C   0  0  0  0  0  0  0  0  0  0  0  0
   -6.5614    5.9913    0.0000 C   0  0  0  0  0  0  0  0  0  0  0  0
   -3.8439    4.5981    0.0000 N   0  0  0  0  0  0  0  0  0  0  0  0
   -2.3680    2.0645    0.0000 C   0  0  0  0  0  0  0  0  0  0  0  0
   -1.7610    3.2646    0.0000 C   0  0  0  0  0  0  0  0  0  0  0  0
   -6.4143    5.1774    0.0000 C   0  0  0  0  0  0  0  0  0  0  0  0
   -3.2968    6.6672    0.0000 C   0  0  0  0  0  0  0  0  0  0  0  0
   -3.1542    4.1612    0.0000 C   0  0  0  0  0  0  0  0  0  0  0  0
   -3.1956    3.3335    0.0000 C   0  0  0  0  0  0  0  0  0  0  0  0
   -7.3293    6.2763    0.0000 C   0  0  0  0  0  0  0  0  0  0  0  0
   -1.1817    2.6761    0.0000 C   0  0  0  0  0  0  0  0  0  0  0  0
   -1.5541    1.9403    0.0000 C   0  0  0  0  0  0  0  0  0  0  0  0
   -1.6369    4.0922    0.0000 O   0  0  0  0  0  0  0  0  0  0  0  0
   -2.9382    1.4851    0.0000 O   0  0  0  0  0  0  0  0  0  0  0  0
   -2.4231    4.5291    0.0000 O   0  0  0  0  0  0  0  0  0  0  0  0
   -7.4673    7.0948    0.0000 O   0  0  0  0  0  0  0  0  0  0  0  0
   -7.0488    4.6533    0.0000 C   0  0  0  0  0  0  0  0  0  0  0  0
   -7.8213    4.9429    0.0000 C   0  0  0  0  0  0  0  0  0  0  0  0
   -2.7588    7.3017    0.0000 C   0  0  0  0  0  0  0  0  0  0  0  0
   -7.9639    5.7430    0.0000 C   0  0  0  0  0  0  0  0  0  0  0  0
   -6.8281    7.6190    0.0000 C   0  0  0  0  0  0  0  0  0  0  0  0
   -6.9569    8.4329    0.0000 C   0  0  0  0  0  0  0  0  0  0  0  0
  2  1  1  0  0  0  0
  3  1  1  0  0  0  0
  4  2  2  0  0  0  0
  5 16  1  0  0  0  0
  6  1  1  0  0  0  0
  7  2  1  0  0  0  0
  8  3  2  0  0  0  0
  9  4  1  0  0  0  0
 10  3  1  0  0  0  0
 11  5  1  0  0  0  0
 12  5  1  0  0  0  0
 13  7  1  0  0  0  0
 14  6  2  0  0  0  0
 15 10  1  0  0  0  0
 16 15  1  0  0  0  0
 17  9  1  0  0  0  0
 18 12  1  0  0  0  0
 19 11  1  0  0  0  0
 20 12  2  0  0  0  0
 21 11  2  0  0  0  0
 22 15  2  0  0  0  0
 23 17  1  0  0  0  0
 24 13  1  0  0  0  0
 25 24  2  0  0  0  0
 26 14  1  0  0  0  0
 27 17  2  0  0  0  0
 28 23  1  0  0  0  0
 29 28  1  0  0  0  0
 14  8  1  0  0  0  0
  9 13  2  0  0  0  0
 25 27  1  0  0  0  0
 18 19  1  0  0  0  0
M  END
>  <IDNUMBER>
F5460-1190

>  <Chemical_Name>
2-(2,5-dioxopyrrolidin-1-yl)-N-[1-(4-ethoxy-1,3-benzothiazol-2-yl)-3-methyl-1H-pyrazol-5-yl]acetamide

>  <PriceCoeff>
1.00

>  <CAS>
1172804-94-2

>  <MW>
413.45

>  <Description>
solid

>  <FSP3>
0.32

>  <clogP>
2.60

>  <TPSA>
134.66

>  <Acceptor>
6

>  <Donor>
1

>  <RotBonds>
6

>  <HAC>
29

>  <Collection>
General

>  <PPDS>
+

$$$$
F5461-0265
  Mrv2219 10102508112D          

 35 38  0  0  0  0            999 V2000
   -4.0929    0.7516    0.0000 N   0  0  0  0  0  0  0  0  0  0  0  0
   -1.8516    7.0996    0.0000 N   0  0  0  0  0  0  0  0  0  0  0  0
   -1.5125    7.8513    0.0000 C   0  0  0  0  0  0  0  0  0  0  0  0
   -4.0975    4.0516    0.0000 C   0  0  0  0  0  0  0  0  0  0  0  0
   -1.2375    6.5450    0.0000 C   0  0  0  0  0  0  0  0  0  0  0  0
   -3.3825    4.4734    0.0000 N   0  0  0  0  0  0  0  0  0  0  0  0
   -3.4512    0.2429    0.0000 C   0  0  0  0  0  0  0  0  0  0  0  0
   -4.7804    0.2979    0.0000 C   0  0  0  0  0  0  0  0  0  0  0  0
   -0.5316    6.9575    0.0000 S   0  0  0  0  0  0  0  0  0  0  0  0
   -0.7012    7.7687    0.0000 C   0  0  0  0  0  0  0  0  0  0  0  0
   -1.9616    5.2984    0.0000 N   0  0  0  0  0  0  0  0  0  0  0  0
   -4.0929    1.5766    0.0000 C   0  0  0  0  0  0  0  0  0  0  0  0
   -4.0929    3.2266    0.0000 C   0  0  0  0  0  0  0  0  0  0  0  0
   -1.8929    8.5800    0.0000 C   0  0  0  0  0  0  0  0  0  0  0  0
   -1.2375    5.7200    0.0000 C   0  0  0  0  0  0  0  0  0  0  0  0
   -4.8216    4.4596    0.0000 O   0  0  0  0  0  0  0  0  0  0  0  0
   -3.7491   -0.5271    0.0000 C   0  0  0  0  0  0  0  0  0  0  0  0
   -4.5604   -0.4996    0.0000 C   0  0  0  0  0  0  0  0  0  0  0  0
   -2.6766    4.0654    0.0000 C   0  0  0  0  0  0  0  0  0  0  0  0
   -3.3825    5.2984    0.0000 C   0  0  0  0  0  0  0  0  0  0  0  0
   -2.6538    0.4629    0.0000 O   0  0  0  0  0  0  0  0  0  0  0  0
   -5.5641    0.5866    0.0000 O   0  0  0  0  0  0  0  0  0  0  0  0
   -4.8079    1.9891    0.0000 C   0  0  0  0  0  0  0  0  0  0  0  0
   -3.3825    1.9891    0.0000 C   0  0  0  0  0  0  0  0  0  0  0  0
   -4.8079    2.8141    0.0000 C   0  0  0  0  0  0  0  0  0  0  0  0
   -3.3825    2.8141    0.0000 C   0  0  0  0  0  0  0  0  0  0  0  0
   -2.7225    8.6121    0.0000 C   0  0  0  0  0  0  0  0  0  0  0  0
   -1.4529    9.2721    0.0000 C   0  0  0  0  0  0  0  0  0  0  0  0
   -1.9616    4.4734    0.0000 C   0  0  0  0  0  0  0  0  0  0  0  0
   -2.6766    5.7109    0.0000 C   0  0  0  0  0  0  0  0  0  0  0  0
   -2.6538   10.0421    0.0000 C   0  0  0  0  0  0  0  0  0  0  0  0
   -1.8288   10.0100    0.0000 C   0  0  0  0  0  0  0  0  0  0  0  0
   -3.1075    9.3409    0.0000 C   0  0  0  0  0  0  0  0  0  0  0  0
   -3.0204   10.7984    0.0000 F   0  0  0  0  0  0  0  0  0  0  0  0
    1.0862    5.3029    0.0000 Cl  0  0  0  0  0  0  0  0  0  0  0  0
  3  2  1  0  0  0  0
  4 13  1  0  0  0  0
  5 15  1  0  0  0  0
  6  4  1  0  0  0  0
  7  1  1  0  0  0  0
  8  1  1  0  0  0  0
  9  5  1  0  0  0  0
 10  9  1  0  0  0  0
 11 30  1  0  0  0  0
 12  1  1  0  0  0  0
 13 26  1  0  0  0  0
 14  3  1  0  0  0  0
 15 11  1  0  0  0  0
 16  4  2  0  0  0  0
 17  7  1  0  0  0  0
 18  8  1  0  0  0  0
 19  6  1  0  0  0  0
 20  6  1  0  0  0  0
 21  7  2  0  0  0  0
 22  8  2  0  0  0  0
 23 12  2  0  0  0  0
 24 12  1  0  0  0  0
 25 23  1  0  0  0  0
 26 24  2  0  0  0  0
 27 14  1  0  0  0  0
 28 14  2  0  0  0  0
 29 19  1  0  0  0  0
 30 20  1  0  0  0  0
 31 32  2  0  0  0  0
 32 28  1  0  0  0  0
 33 27  2  0  0  0  0
 34 31  1  0  0  0  0
 18 17  1  0  0  0  0
 25 13  2  0  0  0  0
 11 29  1  0  0  0  0
  3 10  2  0  0  0  0
 33 31  1  0  0  0  0
  2  5  2  0  0  0  0
M  END
>  <IDNUMBER>
F5461-0265

>  <Chemical_Name>
1-[4-(4-{[4-(4-fluorophenyl)-1,3-thiazol-2-yl]methyl}piperazine-1-carbonyl)phenyl]pyrrolidine-2,5-dione hydrochloride

>  <PriceCoeff>
1.00

>  <CAS>
1215759-13-9

>  <MW>
478.54

>  <Description>
solid

>  <FSP3>
0.28

>  <clogP>
1.98

>  <TPSA>
102.06

>  <Acceptor>
4

>  <Donor>
1

>  <RotBonds>
6

>  <HAC>
34

>  <Collection>
General

>  <PPDS>
+

$$$$
F5461-1211
  Mrv2219 10102508112D          

 30 34  0  0  0  0            999 V2000
   -3.8954    0.4999    0.0000 N   0  0  0  0  0  0  0  0  0  0  0  0
   -1.6831    6.7784    0.0000 N   0  0  0  0  0  0  0  0  0  0  0  0
   -1.4331    7.5658    0.0000 C   0  0  0  0  0  0  0  0  0  0  0  0
   -3.8704    3.7996    0.0000 C   0  0  0  0  0  0  0  0  0  0  0  0
   -1.0082    6.2910    0.0000 C   0  0  0  0  0  0  0  0  0  0  0  0
   -3.1579    4.2120    0.0000 N   0  0  0  0  0  0  0  0  0  0  0  0
   -3.2204    0.0083    0.0000 C   0  0  0  0  0  0  0  0  0  0  0  0
   -4.5620    0.0208    0.0000 C   0  0  0  0  0  0  0  0  0  0  0  0
   -1.9123    8.2283    0.0000 C   0  0  0  0  0  0  0  0  0  0  0  0
   -0.3375    6.7784    0.0000 S   0  0  0  0  0  0  0  0  0  0  0  0
   -0.5999    7.5658    0.0000 C   0  0  0  0  0  0  0  0  0  0  0  0
   -1.9998    9.0407    0.0000 C   0  0  0  0  0  0  0  0  0  0  0  0
   -2.6622    8.5615    0.0000 C   0  0  0  0  0  0  0  0  0  0  0  0
   -1.7331    5.0411    0.0000 N   0  0  0  0  0  0  0  0  0  0  0  0
   -3.8829    1.3206    0.0000 C   0  0  0  0  0  0  0  0  0  0  0  0
   -3.8704    2.9830    0.0000 C   0  0  0  0  0  0  0  0  0  0  0  0
   -0.9999    5.4619    0.0000 C   0  0  0  0  0  0  0  0  0  0  0  0
   -4.5828    4.2120    0.0000 O   0  0  0  0  0  0  0  0  0  0  0  0
   -3.4829   -0.7791    0.0000 C   0  0  0  0  0  0  0  0  0  0  0  0
   -4.3203   -0.7666    0.0000 C   0  0  0  0  0  0  0  0  0  0  0  0
   -2.4372    3.7996    0.0000 C   0  0  0  0  0  0  0  0  0  0  0  0
   -3.1579    5.0286    0.0000 C   0  0  0  0  0  0  0  0  0  0  0  0
   -2.4372    0.2500    0.0000 O   0  0  0  0  0  0  0  0  0  0  0  0
   -5.3452    0.2833    0.0000 O   0  0  0  0  0  0  0  0  0  0  0  0
   -4.5953    1.7456    0.0000 C   0  0  0  0  0  0  0  0  0  0  0  0
   -3.1579    1.7331    0.0000 C   0  0  0  0  0  0  0  0  0  0  0  0
   -4.5828    2.5705    0.0000 C   0  0  0  0  0  0  0  0  0  0  0  0
   -3.1579    2.5580    0.0000 C   0  0  0  0  0  0  0  0  0  0  0  0
   -1.7206    4.2037    0.0000 C   0  0  0  0  0  0  0  0  0  0  0  0
   -2.4455    5.4494    0.0000 C   0  0  0  0  0  0  0  0  0  0  0  0
  2  5  2  0  0  0  0
  3  2  1  0  0  0  0
  4 16  1  0  0  0  0
  5 17  1  0  0  0  0
  6  4  1  0  0  0  0
  7  1  1  0  0  0  0
  8  1  1  0  0  0  0
  9  3  1  0  0  0  0
 10  5  1  0  0  0  0
 11 10  1  0  0  0  0
 12  9  1  0  0  0  0
 13  9  1  0  0  0  0
 14 30  1  0  0  0  0
 15  1  1  0  0  0  0
 16 28  1  0  0  0  0
 17 14  1  0  0  0  0
 18  4  2  0  0  0  0
 19  7  1  0  0  0  0
 20  8  1  0  0  0  0
 21  6  1  0  0  0  0
 22  6  1  0  0  0  0
 23  7  2  0  0  0  0
 24  8  2  0  0  0  0
 25 15  2  0  0  0  0
 26 15  1  0  0  0  0
 27 25  1  0  0  0  0
 28 26  2  0  0  0  0
 29 21  1  0  0  0  0
 30 22  1  0  0  0  0
 20 19  1  0  0  0  0
 27 16  2  0  0  0  0
 14 29  1  0  0  0  0
  3 11  2  0  0  0  0
 12 13  1  0  0  0  0
M  END
>  <IDNUMBER>
F5461-1211

>  <Chemical_Name>
1-(4-{4-[(4-cyclopropyl-1,3-thiazol-2-yl)methyl]piperazine-1-carbonyl}phenyl)pyrrolidine-2,5-dione

>  <PriceCoeff>
1.50

>  <CAS>
1105233-83-7

>  <MW>
424.52

>  <Description>
solid

>  <FSP3>
0.45

>  <clogP>
0.67

>  <TPSA>
102.06

>  <Acceptor>
4

>  <Donor>
1

>  <RotBonds>
6

>  <HAC>
30

>  <Collection>
Advanced

>  <PPDS>
+

$$$$
F5476-0546
  Mrv2219 10102508112D          

 26 28  0  0  0  0            999 V2000
   -3.1458    6.2792    0.0000 C   0  0  0  0  0  0  0  0  0  0  0  0
   -5.2833    2.5708    0.0000 N   0  0  0  0  0  0  0  0  0  0  0  0
   -3.8208    6.7625    0.0000 C   0  0  0  0  0  0  0  0  0  0  0  0
   -3.5708    7.5542    0.0000 N   0  0  0  0  0  0  0  0  0  0  0  0
   -2.4833    6.7667    0.0000 C   0  0  0  0  0  0  0  0  0  0  0  0
   -2.7375    7.5542    0.0000 C   0  0  0  0  0  0  0  0  0  0  0  0
   -5.3625    1.7458    0.0000 C   0  0  0  0  0  0  0  0  0  0  0  0
   -6.0292    2.9000    0.0000 C   0  0  0  0  0  0  0  0  0  0  0  0
   -3.1500    5.4542    0.0000 C   0  0  0  0  0  0  0  0  0  0  0  0
   -4.5708    2.9875    0.0000 C   0  0  0  0  0  0  0  0  0  0  0  0
   -4.5708    3.8000    0.0000 C   0  0  0  0  0  0  0  0  0  0  0  0
   -3.8583    5.0333    0.0000 C   0  0  0  0  0  0  0  0  0  0  0  0
   -3.8583    4.2125    0.0000 N   0  0  0  0  0  0  0  0  0  0  0  0
   -2.4333    5.0417    0.0000 N   0  0  0  0  0  0  0  0  0  0  0  0
   -6.1667    1.5708    0.0000 C   0  0  0  0  0  0  0  0  0  0  0  0
   -6.5750    2.2833    0.0000 C   0  0  0  0  0  0  0  0  0  0  0  0
   -4.7458    1.1833    0.0000 O   0  0  0  0  0  0  0  0  0  0  0  0
   -6.2042    3.7083    0.0000 O   0  0  0  0  0  0  0  0  0  0  0  0
   -5.2958    4.2125    0.0000 O   0  0  0  0  0  0  0  0  0  0  0  0
   -4.0625    8.2167    0.0000 C   0  0  0  0  0  0  0  0  0  0  0  0
   -1.6750    6.5917    0.0000 C   0  0  0  0  0  0  0  0  0  0  0  0
   -2.1958    8.1667    0.0000 C   0  0  0  0  0  0  0  0  0  0  0  0
   -2.4333    4.2125    0.0000 C   0  0  0  0  0  0  0  0  0  0  0  0
   -1.7208    5.4542    0.0000 C   0  0  0  0  0  0  0  0  0  0  0  0
   -1.1333    7.2167    0.0000 C   0  0  0  0  0  0  0  0  0  0  0  0
   -1.3833    8.0042    0.0000 C   0  0  0  0  0  0  0  0  0  0  0  0
  2 10  1  0  0  0  0
  3  1  2  0  0  0  0
  4  3  1  0  0  0  0
  5  1  1  0  0  0  0
  6  5  1  0  0  0  0
  7  2  1  0  0  0  0
  8  2  1  0  0  0  0
  9  1  1  0  0  0  0
 10 11  1  0  0  0  0
 11 13  1  0  0  0  0
 12  9  1  0  0  0  0
 13 12  1  0  0  0  0
 14  9  1  0  0  0  0
 15  7  1  0  0  0  0
 16  8  1  0  0  0  0
 17  7  2  0  0  0  0
 18  8  2  0  0  0  0
 19 11  2  0  0  0  0
 20  4  1  0  0  0  0
 21  5  2  0  0  0  0
 22  6  2  0  0  0  0
 23 14  1  0  0  0  0
 24 14  1  0  0  0  0
 25 21  1  0  0  0  0
 26 25  2  0  0  0  0
  4  6  1  0  0  0  0
 26 22  1  0  0  0  0
 15 16  1  0  0  0  0
M  END
>  <IDNUMBER>
F5476-0546

>  <Chemical_Name>
N-[2-(dimethylamino)-2-(1-methyl-1H-indol-3-yl)ethyl]-2-(2,5-dioxopyrrolidin-1-yl)acetamide

>  <PriceCoeff>
1.00

>  <CAS>
1396768-58-3

>  <MW>
356.42

>  <Description>
solid

>  <FSP3>
0.42

>  <clogP>
1.49

>  <TPSA>
74.65

>  <Acceptor>
3

>  <Donor>
2

>  <RotBonds>
6

>  <HAC>
26

>  <Collection>
General

>  <PPDS>
+

$$$$
F5493-0462
  Mrv2219 10102508112D          

 28 31  0  0  0  0            999 V2000
   -4.5784    2.5681    0.0000 N   0  0  0  0  0  0  0  0  0  0  0  0
   -2.0186    7.5212    0.0000 C   0  0  0  0  0  0  0  0  0  0  0  0
   -1.7689    6.7470    0.0000 S   0  0  0  0  0  0  0  0  0  0  0  0
   -2.4349    6.2558    0.0000 C   0  0  0  0  0  0  0  0  0  0  0  0
   -2.8428    7.5212    0.0000 N   0  0  0  0  0  0  0  0  0  0  0  0
   -3.1050    6.7470    0.0000 N   0  0  0  0  0  0  0  0  0  0  0  0
   -3.1549    4.2080    0.0000 N   0  0  0  0  0  0  0  0  0  0  0  0
   -3.8667    3.7960    0.0000 C   0  0  0  0  0  0  0  0  0  0  0  0
   -1.5234    8.2038    0.0000 C   0  0  0  0  0  0  0  0  0  0  0  0
   -3.8584    2.9801    0.0000 C   0  0  0  0  0  0  0  0  0  0  0  0
   -5.3401    2.9094    0.0000 C   0  0  0  0  0  0  0  0  0  0  0  0
   -4.6700    1.7564    0.0000 C   0  0  0  0  0  0  0  0  0  0  0  0
   -2.4349    5.4359    0.0000 C   0  0  0  0  0  0  0  0  0  0  0  0
   -3.1549    5.0238    0.0000 C   0  0  0  0  0  0  0  0  0  0  0  0
   -1.8688    8.9530    0.0000 C   0  0  0  0  0  0  0  0  0  0  0  0
   -4.5659    4.2080    0.0000 O   0  0  0  0  0  0  0  0  0  0  0  0
   -5.4817    1.5941    0.0000 C   0  0  0  0  0  0  0  0  0  0  0  0
   -5.8895    2.3058    0.0000 C   0  0  0  0  0  0  0  0  0  0  0  0
   -4.0665    1.1987    0.0000 O   0  0  0  0  0  0  0  0  0  0  0  0
   -5.5024    3.7293    0.0000 O   0  0  0  0  0  0  0  0  0  0  0  0
   -2.6929    9.0404    0.0000 F   0  0  0  0  0  0  0  0  0  0  0  0
   -2.4432    3.7960    0.0000 C   0  0  0  0  0  0  0  0  0  0  0  0
   -1.7232    5.0238    0.0000 C   0  0  0  0  0  0  0  0  0  0  0  0
   -0.6993    8.1039    0.0000 C   0  0  0  0  0  0  0  0  0  0  0  0
   -1.7315    4.1997    0.0000 C   0  0  0  0  0  0  0  0  0  0  0  0
   -1.3735    9.6189    0.0000 C   0  0  0  0  0  0  0  0  0  0  0  0
   -0.2081    8.7781    0.0000 C   0  0  0  0  0  0  0  0  0  0  0  0
   -0.5494    9.5398    0.0000 C   0  0  0  0  0  0  0  0  0  0  0  0
  2  3  1  0  0  0  0
  3  4  1  0  0  0  0
  4 13  1  0  0  0  0
  5  6  1  0  0  0  0
  6  4  2  0  0  0  0
  7  8  1  0  0  0  0
  8 10  1  0  0  0  0
  9  2  1  0  0  0  0
 10  1  1  0  0  0  0
 11  1  1  0  0  0  0
 12  1  1  0  0  0  0
 13 14  1  0  0  0  0
 14  7  1  0  0  0  0
 15  9  1  0  0  0  0
 16  8  2  0  0  0  0
 17 12  1  0  0  0  0
 18 11  1  0  0  0  0
 19 12  2  0  0  0  0
 20 11  2  0  0  0  0
 21 15  1  0  0  0  0
 22  7  1  0  0  0  0
 23 25  1  0  0  0  0
 24  9  2  0  0  0  0
 25 22  1  0  0  0  0
 26 15  2  0  0  0  0
 27 24  1  0  0  0  0
 28 27  2  0  0  0  0
 17 18  1  0  0  0  0
 23 13  1  0  0  0  0
  5  2  2  0  0  0  0
 26 28  1  0  0  0  0
M  END
>  <IDNUMBER>
F5493-0462

>  <Chemical_Name>
1-(2-{3-[5-(2-fluorophenyl)-1,3,4-thiadiazol-2-yl]piperidin-1-yl}-2-oxoethyl)pyrrolidine-2,5-dione

>  <PriceCoeff>
1.50

>  <CAS>
1219901-88-8

>  <MW>
402.44

>  <Description>
solid

>  <FSP3>
0.42

>  <clogP>
1.16

>  <TPSA>
111.71

>  <Acceptor>
5

>  <Donor>
0

>  <RotBonds>
5

>  <HAC>
28

>  <Collection>
Advanced

>  <PPDS>
+

$$$$
F5494-0170
  Mrv2219 10102508112D          

 31 34  0  0  0  0            999 V2000
   -3.8291    1.6760    0.0000 S   0  0  0  0  0  0  0  0  0  0  0  0
   -0.0705    2.7588    0.0000 C   0  0  0  0  0  0  0  0  0  0  0  0
   -0.8339    2.4643    0.0000 S   0  0  0  0  0  0  0  0  0  0  0  0
   -3.0119    0.2447    0.0000 N   0  0  0  0  0  0  0  0  0  0  0  0
   -1.3442    3.1073    0.0000 C   0  0  0  0  0  0  0  0  0  0  0  0
   -0.1078    3.5678    0.0000 N   0  0  0  0  0  0  0  0  0  0  0  0
   -0.8920    3.7835    0.0000 N   0  0  0  0  0  0  0  0  0  0  0  0
   -3.4060    2.3897    0.0000 N   0  0  0  0  0  0  0  0  0  0  0  0
    0.6223    2.3107    0.0000 C   0  0  0  0  0  0  0  0  0  0  0  0
   -4.2524    0.9666    0.0000 C   0  0  0  0  0  0  0  0  0  0  0  0
   -2.1738    3.1073    0.0000 C   0  0  0  0  0  0  0  0  0  0  0  0
   -2.5971    0.9542    0.0000 C   0  0  0  0  0  0  0  0  0  0  0  0
   -2.6095   -0.4771    0.0000 C   0  0  0  0  0  0  0  0  0  0  0  0
   -3.8416    0.2447    0.0000 C   0  0  0  0  0  0  0  0  0  0  0  0
   -2.5846    2.3897    0.0000 C   0  0  0  0  0  0  0  0  0  0  0  0
   -3.1073    1.2529    0.0000 O   0  0  0  0  0  0  0  0  0  0  0  0
   -4.5428    2.0909    0.0000 O   0  0  0  0  0  0  0  0  0  0  0  0
    1.3608    2.6717    0.0000 C   0  0  0  0  0  0  0  0  0  0  0  0
   -3.0077    1.6760    0.0000 O   0  0  0  0  0  0  0  0  0  0  0  0
   -3.0244   -1.1948    0.0000 O   0  0  0  0  0  0  0  0  0  0  0  0
   -3.8167    3.1073    0.0000 C   0  0  0  0  0  0  0  0  0  0  0  0
    1.4355    3.4475    0.0000 F   0  0  0  0  0  0  0  0  0  0  0  0
   -2.5846    3.8167    0.0000 C   0  0  0  0  0  0  0  0  0  0  0  0
    0.5767    1.4769    0.0000 C   0  0  0  0  0  0  0  0  0  0  0  0
   -1.7756    0.9459    0.0000 C   0  0  0  0  0  0  0  0  0  0  0  0
   -1.7880   -0.4729    0.0000 C   0  0  0  0  0  0  0  0  0  0  0  0
   -3.4060    3.8167    0.0000 C   0  0  0  0  0  0  0  0  0  0  0  0
   -1.3649    0.2365    0.0000 C   0  0  0  0  0  0  0  0  0  0  0  0
    2.0535    2.2236    0.0000 C   0  0  0  0  0  0  0  0  0  0  0  0
    1.2695    1.0289    0.0000 C   0  0  0  0  0  0  0  0  0  0  0  0
    2.0080    1.4022    0.0000 C   0  0  0  0  0  0  0  0  0  0  0  0
  2  3  1  0  0  0  0
  3  5  1  0  0  0  0
  4 14  1  0  0  0  0
  5 11  1  0  0  0  0
  6  7  1  0  0  0  0
  7  5  2  0  0  0  0
  8  1  1  0  0  0  0
  9  2  1  0  0  0  0
 10  1  1  0  0  0  0
 11 15  1  0  0  0  0
 12  4  1  0  0  0  0
 13  4  1  0  0  0  0
 14 10  1  0  0  0  0
 15  8  1  0  0  0  0
 16  1  2  0  0  0  0
 17  1  2  0  0  0  0
 18  9  1  0  0  0  0
 19 12  2  0  0  0  0
 20 13  2  0  0  0  0
 21  8  1  0  0  0  0
 22 18  1  0  0  0  0
 23 27  1  0  0  0  0
 24  9  2  0  0  0  0
 25 12  1  0  0  0  0
 26 13  1  0  0  0  0
 27 21  1  0  0  0  0
 28 26  1  0  0  0  0
 29 18  2  0  0  0  0
 30 24  1  0  0  0  0
 31 30  2  0  0  0  0
 23 11  1  0  0  0  0
 28 25  1  0  0  0  0
  6  2  2  0  0  0  0
 29 31  1  0  0  0  0
M  END
>  <IDNUMBER>
F5494-0170

>  <Chemical_Name>
1-[2-({3-[5-(2-fluorophenyl)-1,3,4-thiadiazol-2-yl]piperidin-1-yl}sulfonyl)ethyl]piperidine-2,6-dione

>  <PriceCoeff>
1.00

>  <CAS>
1170432-31-1

>  <MW>
466.55

>  <Description>
solid

>  <FSP3>
0.50

>  <clogP>
2.16

>  <TPSA>
137.16

>  <Acceptor>
6

>  <Donor>
0

>  <RotBonds>
6

>  <HAC>
31

>  <Collection>
General

>  <PPDS>
+

$$$$
F5497-0110
  Mrv2219 10102508112D          

 29 32  0  0  0  0            999 V2000
   -3.7604    2.9850    0.0000 S   0  0  0  0  0  0  0  0  0  0  0  0
    0.8380    2.6265    0.0000 C   0  0  0  0  0  0  0  0  0  0  0  0
    0.0667    2.3347    0.0000 S   0  0  0  0  0  0  0  0  0  0  0  0
   -4.5609    1.5466    0.0000 N   0  0  0  0  0  0  0  0  0  0  0  0
    0.8004    3.4394    0.0000 N   0  0  0  0  0  0  0  0  0  0  0  0
    0.0042    3.6604    0.0000 N   0  0  0  0  0  0  0  0  0  0  0  0
   -0.4461    2.9850    0.0000 C   0  0  0  0  0  0  0  0  0  0  0  0
   -2.9350    2.9850    0.0000 N   0  0  0  0  0  0  0  0  0  0  0  0
   -4.5859    2.9725    0.0000 C   0  0  0  0  0  0  0  0  0  0  0  0
   -3.7354    1.5591    0.0000 C   0  0  0  0  0  0  0  0  0  0  0  0
   -4.9861    0.8338    0.0000 C   0  0  0  0  0  0  0  0  0  0  0  0
    1.5258    2.1763    0.0000 C   0  0  0  0  0  0  0  0  0  0  0  0
   -4.9861    2.2596    0.0000 C   0  0  0  0  0  0  0  0  0  0  0  0
   -3.7604    2.1512    0.0000 O   0  0  0  0  0  0  0  0  0  0  0  0
   -3.7604    3.8021    0.0000 O   0  0  0  0  0  0  0  0  0  0  0  0
    1.5675    1.3633    0.0000 O   0  0  0  0  0  0  0  0  0  0  0  0
   -1.2758    2.9850    0.0000 C   0  0  0  0  0  0  0  0  0  0  0  0
   -2.5222    3.6896    0.0000 C   0  0  0  0  0  0  0  0  0  0  0  0
   -2.5222    2.2596    0.0000 C   0  0  0  0  0  0  0  0  0  0  0  0
    2.2930    2.4722    0.0000 C   0  0  0  0  0  0  0  0  0  0  0  0
   -3.3351    2.2721    0.0000 O   0  0  0  0  0  0  0  0  0  0  0  0
   -5.8116    0.8212    0.0000 O   0  0  0  0  0  0  0  0  0  0  0  0
    2.3555    1.1382    0.0000 C   0  0  0  0  0  0  0  0  0  0  0  0
    2.8058    1.8260    0.0000 C   0  0  0  0  0  0  0  0  0  0  0  0
   -1.6884    2.2596    0.0000 C   0  0  0  0  0  0  0  0  0  0  0  0
   -1.6884    3.6896    0.0000 C   0  0  0  0  0  0  0  0  0  0  0  0
   -3.3226    0.8463    0.0000 C   0  0  0  0  0  0  0  0  0  0  0  0
   -4.5483    0.1251    0.0000 C   0  0  0  0  0  0  0  0  0  0  0  0
   -3.7229    0.1334    0.0000 C   0  0  0  0  0  0  0  0  0  0  0  0
  2  3  1  0  0  0  0
  3  7  1  0  0  0  0
  4 13  1  0  0  0  0
  5  6  1  0  0  0  0
  6  7  2  0  0  0  0
  7 17  1  0  0  0  0
  8  1  1  0  0  0  0
  9  1  1  0  0  0  0
 10  4  1  0  0  0  0
 11  4  1  0  0  0  0
 12  2  1  0  0  0  0
 13  9  1  0  0  0  0
 14  1  2  0  0  0  0
 15  1  2  0  0  0  0
 16 12  1  0  0  0  0
 17 25  1  0  0  0  0
 18  8  1  0  0  0  0
 19  8  1  0  0  0  0
 20 12  2  0  0  0  0
 21 10  2  0  0  0  0
 22 11  2  0  0  0  0
 23 16  1  0  0  0  0
 24 20  1  0  0  0  0
 25 19  1  0  0  0  0
 26 18  1  0  0  0  0
 27 10  1  0  0  0  0
 28 11  1  0  0  0  0
 29 28  1  0  0  0  0
 26 17  1  0  0  0  0
 29 27  1  0  0  0  0
  5  2  2  0  0  0  0
 24 23  2  0  0  0  0
M  END
>  <IDNUMBER>
F5497-0110

>  <Chemical_Name>
1-[2-({4-[5-(furan-2-yl)-1,3,4-thiadiazol-2-yl]piperidin-1-yl}sulfonyl)ethyl]piperidine-2,6-dione

>  <PriceCoeff>
1.00

>  <CAS>
1105209-37-7

>  <MW>
438.52

>  <Description>
solid

>  <FSP3>
0.56

>  <clogP>
1.25

>  <TPSA>
150.30

>  <Acceptor>
7

>  <Donor>
0

>  <RotBonds>
6

>  <HAC>
29

>  <Collection>
General

>  <PPDS>
+

$$$$
F5520-0095
  Mrv2219 10102508112D          

 28 30  0  0  0  0            999 V2000
   -1.2879    2.8554    0.0000 C   0  0  0  0  0  0  0  0  0  0  0  0
   -0.4766    2.7087    0.0000 S   0  0  0  0  0  0  0  0  0  0  0  0
   -5.5779   -1.2925    0.0000 N   0  3  0  0  0  0  0  0  0  0  0  0
   -4.8537   -0.8709    0.0000 C   0  0  0  0  0  0  0  0  0  0  0  0
   -1.4116    3.6666    0.0000 N   0  0  0  0  0  0  0  0  0  0  0  0
   -0.0916    3.4466    0.0000 C   0  0  0  0  0  0  0  0  0  0  0  0
   -0.6691    4.0379    0.0000 N   0  0  0  0  0  0  0  0  0  0  0  0
   -4.1479    1.1916    0.0000 C   0  0  0  0  0  0  0  0  0  0  0  0
   -2.0029    2.4337    0.0000 N   0  0  0  0  0  0  0  0  0  0  0  0
   -3.4237    1.6087    0.0000 N   0  0  0  0  0  0  0  0  0  0  0  0
   -4.8537   -0.0459    0.0000 C   0  0  0  0  0  0  0  0  0  0  0  0
   -4.1387    0.3666    0.0000 C   0  0  0  0  0  0  0  0  0  0  0  0
   -4.1387   -1.2834    0.0000 C   0  0  0  0  0  0  0  0  0  0  0  0
   -6.2929   -0.8800    0.0000 O   0  5  0  0  0  0  0  0  0  0  0  0
   -5.5779   -2.1175    0.0000 O   0  0  0  0  0  0  0  0  0  0  0  0
    0.7287    3.5612    0.0000 S   0  0  0  0  0  0  0  0  0  0  0  0
    2.0534    3.0341    0.0000 C   0  0  0  0  0  0  0  0  0  0  0  0
   -2.7179    2.8554    0.0000 C   0  0  0  0  0  0  0  0  0  0  0  0
   -2.0029    1.6087    0.0000 C   0  0  0  0  0  0  0  0  0  0  0  0
   -3.4237    2.4337    0.0000 C   0  0  0  0  0  0  0  0  0  0  0  0
   -2.7179    1.2054    0.0000 C   0  0  0  0  0  0  0  0  0  0  0  0
   -4.8675    1.6041    0.0000 O   0  0  0  0  0  0  0  0  0  0  0  0
   -3.4329   -0.0459    0.0000 C   0  0  0  0  0  0  0  0  0  0  0  0
    2.3650    3.8041    0.0000 O   0  0  0  0  0  0  0  0  0  0  0  0
   -3.4329   -0.8709    0.0000 C   0  0  0  0  0  0  0  0  0  0  0  0
    1.2375    2.9150    0.0000 C   0  0  0  0  0  0  0  0  0  0  0  0
    2.5484    2.3787    0.0000 N   0  0  0  0  0  0  0  0  0  0  0  0
   -4.1387   -2.1084    0.0000 Cl  0  0  0  0  0  0  0  0  0  0  0  0
  2  1  1  0  0  0  0
  3  4  1  0  0  0  0
  4 11  2  0  0  0  0
  5  1  2  0  0  0  0
  6  2  1  0  0  0  0
  7  5  1  0  0  0  0
  8 10  1  0  0  0  0
  9  1  1  0  0  0  0
 10 21  1  0  0  0  0
 11 12  1  0  0  0  0
 12  8  1  0  0  0  0
 13 25  2  0  0  0  0
 14  3  1  0  0  0  0
 15  3  2  0  0  0  0
 16  6  1  0  0  0  0
 17 26  1  0  0  0  0
 18  9  1  0  0  0  0
 19  9  1  0  0  0  0
 20 18  1  0  0  0  0
 21 19  1  0  0  0  0
 22  8  2  0  0  0  0
 23 12  2  0  0  0  0
 24 17  2  0  0  0  0
 25 23  1  0  0  0  0
 26 16  1  0  0  0  0
 27 17  1  0  0  0  0
 28 13  1  0  0  0  0
  7  6  2  0  0  0  0
 10 20  1  0  0  0  0
  4 13  1  0  0  0  0
M  CHG  2   3   1  14  -1
M  END
>  <IDNUMBER>
F5520-0095

>  <Chemical_Name>
2-({5-[4-(4-chloro-3-nitrobenzoyl)piperazin-1-yl]-1,3,4-thiadiazol-2-yl}sulfanyl)acetamide

>  <PriceCoeff>
1.00

>  <CAS>
1105198-05-7

>  <MW>
442.90

>  <Description>
solid

>  <FSP3>
0.33

>  <clogP>
0.48

>  <TPSA>
189.10

>  <Acceptor>
6

>  <Donor>
2

>  <RotBonds>
7

>  <HAC>
28

>  <Collection>
General

>  <PPDS>
+

$$$$
F5526-0036
  Mrv2219 10102508112D          

 22 23  0  0  0  0            999 V2000
   -2.9562    4.5696    0.0000 N   0  3  0  0  0  0  0  0  0  0  0  0
   -2.2366    4.9821    0.0000 C   0  0  0  0  0  0  0  0  0  0  0  0
   -2.2366    5.8071    0.0000 C   0  0  0  0  0  0  0  0  0  0  0  0
   -1.5216    7.0446    0.0000 C   0  0  0  0  0  0  0  0  0  0  0  0
   -1.5216    6.2196    0.0000 C   0  0  0  0  0  0  0  0  0  0  0  0
   -1.5216    4.5696    0.0000 C   0  0  0  0  0  0  0  0  0  0  0  0
   -3.6712    4.9821    0.0000 O   0  5  0  0  0  0  0  0  0  0  0  0
   -2.9562    3.7491    0.0000 O   0  0  0  0  0  0  0  0  0  0  0  0
   -0.8112    7.4571    0.0000 O   0  0  0  0  0  0  0  0  0  0  0  0
   -0.8112    5.8071    0.0000 C   0  0  0  0  0  0  0  0  0  0  0  0
   -0.8112    4.9821    0.0000 C   0  0  0  0  0  0  0  0  0  0  0  0
   -2.2366    7.4571    0.0000 N   0  0  0  0  0  0  0  0  0  0  0  0
   -1.5125    3.7491    0.0000 Cl  0  0  0  0  0  0  0  0  0  0  0  0
   -5.1104    7.4571    0.0000 C   0  0  0  0  0  0  0  0  0  0  0  0
   -4.3816    7.0446    0.0000 O   0  0  0  0  0  0  0  0  0  0  0  0
   -2.9516    7.0446    0.0000 C   0  0  0  0  0  0  0  0  0  0  0  0
   -3.6666    7.4571    0.0000 C   0  0  0  0  0  0  0  0  0  0  0  0
   -5.8162    7.0446    0.0000 C   0  0  0  0  0  0  0  0  0  0  0  0
   -5.1104    8.2821    0.0000 C   0  0  0  0  0  0  0  0  0  0  0  0
   -6.5266    7.4571    0.0000 C   0  0  0  0  0  0  0  0  0  0  0  0
   -5.8162    8.6946    0.0000 C   0  0  0  0  0  0  0  0  0  0  0  0
   -6.5266    8.2821    0.0000 C   0  0  0  0  0  0  0  0  0  0  0  0
  2  1  1  0  0  0  0
  3  2  1  0  0  0  0
  4  5  1  0  0  0  0
  5  3  2  0  0  0  0
  6  2  2  0  0  0  0
  7  1  1  0  0  0  0
  8  1  2  0  0  0  0
  9  4  2  0  0  0  0
 10 11  2  0  0  0  0
 11  6  1  0  0  0  0
 12  4  1  0  0  0  0
 13  6  1  0  0  0  0
 14 15  1  0  0  0  0
 15 17  1  0  0  0  0
 16 12  1  0  0  0  0
 17 16  1  0  0  0  0
 18 14  1  0  0  0  0
 19 14  2  0  0  0  0
 20 18  2  0  0  0  0
 21 19  1  0  0  0  0
 22 21  2  0  0  0  0
  5 10  1  0  0  0  0
 20 22  1  0  0  0  0
M  CHG  2   1   1   7  -1
M  END
>  <IDNUMBER>
F5526-0036

>  <Chemical_Name>
4-chloro-3-nitro-N-(2-phenoxyethyl)benzamide

>  <PriceCoeff>
1.00

>  <CAS>
1105226-81-0

>  <MW>
320.73

>  <Description>
solid

>  <FSP3>
0.13

>  <clogP>
3.67

>  <TPSA>
81.47

>  <Acceptor>
4

>  <Donor>
1

>  <RotBonds>
6

>  <HAC>
22

>  <Collection>
General

>  <PPDS>
+

$$$$
F5526-0149
  Mrv2219 10102508112D          

 23 24  0  0  0  0            999 V2000
   -1.5216    3.7629    0.0000 N   0  3  0  0  0  0  0  0  0  0  0  0
   -1.5216    6.2196    0.0000 C   0  0  0  0  0  0  0  0  0  0  0  0
   -2.2366    5.8071    0.0000 C   0  0  0  0  0  0  0  0  0  0  0  0
   -1.5216    4.5696    0.0000 C   0  0  0  0  0  0  0  0  0  0  0  0
   -1.5216    7.0446    0.0000 C   0  0  0  0  0  0  0  0  0  0  0  0
   -2.2366    4.9821    0.0000 C   0  0  0  0  0  0  0  0  0  0  0  0
   -0.8066    5.8071    0.0000 C   0  0  0  0  0  0  0  0  0  0  0  0
   -2.2366    3.3504    0.0000 O   0  5  0  0  0  0  0  0  0  0  0  0
   -0.8066    3.3504    0.0000 O   0  0  0  0  0  0  0  0  0  0  0  0
   -0.8066    4.9821    0.0000 C   0  0  0  0  0  0  0  0  0  0  0  0
   -0.8112    7.4571    0.0000 O   0  0  0  0  0  0  0  0  0  0  0  0
   -2.2366    7.4571    0.0000 N   0  0  0  0  0  0  0  0  0  0  0  0
   -2.9516    6.2334    0.0000 Cl  0  0  0  0  0  0  0  0  0  0  0  0
   -6.5266    8.2959    0.0000 C   0  0  0  0  0  0  0  0  0  0  0  0
   -5.1104    7.4709    0.0000 C   0  0  0  0  0  0  0  0  0  0  0  0
   -7.2462    8.7084    0.0000 F   0  0  0  0  0  0  0  0  0  0  0  0
   -6.5266    7.4709    0.0000 C   0  0  0  0  0  0  0  0  0  0  0  0
   -5.8162    8.7084    0.0000 C   0  0  0  0  0  0  0  0  0  0  0  0
   -5.8162    7.0584    0.0000 C   0  0  0  0  0  0  0  0  0  0  0  0
   -5.1104    8.2959    0.0000 C   0  0  0  0  0  0  0  0  0  0  0  0
   -4.3816    7.0446    0.0000 O   0  0  0  0  0  0  0  0  0  0  0  0
   -2.9516    7.0446    0.0000 C   0  0  0  0  0  0  0  0  0  0  0  0
   -3.6666    7.4571    0.0000 C   0  0  0  0  0  0  0  0  0  0  0  0
  2  7  1  0  0  0  0
  3  6  1  0  0  0  0
  4  1  1  0  0  0  0
  5  2  1  0  0  0  0
  6  4  2  0  0  0  0
  7 10  2  0  0  0  0
  8  1  1  0  0  0  0
  9  1  2  0  0  0  0
 10  4  1  0  0  0  0
 11  5  2  0  0  0  0
 12  5  1  0  0  0  0
 13  3  1  0  0  0  0
 14 18  2  0  0  0  0
 15 21  1  0  0  0  0
 16 14  1  0  0  0  0
 17 19  2  0  0  0  0
 18 20  1  0  0  0  0
 19 15  1  0  0  0  0
 20 15  2  0  0  0  0
 21 23  1  0  0  0  0
 22 12  1  0  0  0  0
 23 22  1  0  0  0  0
  2  3  2  0  0  0  0
 17 14  1  0  0  0  0
M  CHG  2   1   1   8  -1
M  END
>  <IDNUMBER>
F5526-0149

>  <Chemical_Name>
2-chloro-N-[2-(4-fluorophenoxy)ethyl]-4-nitrobenzamide

>  <PriceCoeff>
1.00

>  <CAS>
1105209-81-1

>  <MW>
338.72

>  <Description>
solid

>  <FSP3>
0.13

>  <clogP>
3.27

>  <TPSA>
81.47

>  <Acceptor>
4

>  <Donor>
1

>  <RotBonds>
6

>  <HAC>
23

>  <Collection>
General

>  <PPDS>
+

$$$$
F5526-0150
  Mrv2219 10102508112D          

 23 24  0  0  0  0            999 V2000
   -2.9562    4.5696    0.0000 N   0  3  0  0  0  0  0  0  0  0  0  0
   -2.2366    4.9821    0.0000 C   0  0  0  0  0  0  0  0  0  0  0  0
   -2.2366    5.8071    0.0000 C   0  0  0  0  0  0  0  0  0  0  0  0
   -1.5216    7.0446    0.0000 C   0  0  0  0  0  0  0  0  0  0  0  0
   -1.5216    6.2196    0.0000 C   0  0  0  0  0  0  0  0  0  0  0  0
   -1.5216    4.5696    0.0000 C   0  0  0  0  0  0  0  0  0  0  0  0
   -3.6712    4.9821    0.0000 O   0  5  0  0  0  0  0  0  0  0  0  0
   -2.9562    3.7491    0.0000 O   0  0  0  0  0  0  0  0  0  0  0  0
   -0.8112    7.4571    0.0000 O   0  0  0  0  0  0  0  0  0  0  0  0
   -0.8112    5.8071    0.0000 C   0  0  0  0  0  0  0  0  0  0  0  0
   -0.8112    4.9821    0.0000 C   0  0  0  0  0  0  0  0  0  0  0  0
   -2.2366    7.4571    0.0000 N   0  0  0  0  0  0  0  0  0  0  0  0
   -1.5125    3.7629    0.0000 Cl  0  0  0  0  0  0  0  0  0  0  0  0
   -6.5266    8.2959    0.0000 C   0  0  0  0  0  0  0  0  0  0  0  0
   -5.1104    7.4709    0.0000 C   0  0  0  0  0  0  0  0  0  0  0  0
   -7.2462    8.7084    0.0000 F   0  0  0  0  0  0  0  0  0  0  0  0
   -6.5266    7.4709    0.0000 C   0  0  0  0  0  0  0  0  0  0  0  0
   -5.8162    8.7084    0.0000 C   0  0  0  0  0  0  0  0  0  0  0  0
   -5.8162    7.0584    0.0000 C   0  0  0  0  0  0  0  0  0  0  0  0
   -5.1104    8.2959    0.0000 C   0  0  0  0  0  0  0  0  0  0  0  0
   -4.3816    7.0446    0.0000 O   0  0  0  0  0  0  0  0  0  0  0  0
   -2.9516    7.0446    0.0000 C   0  0  0  0  0  0  0  0  0  0  0  0
   -3.6666    7.4571    0.0000 C   0  0  0  0  0  0  0  0  0  0  0  0
  2  1  1  0  0  0  0
  3  2  1  0  0  0  0
  4  5  1  0  0  0  0
  5  3  2  0  0  0  0
  6  2  2  0  0  0  0
  7  1  1  0  0  0  0
  8  1  2  0  0  0  0
  9  4  2  0  0  0  0
 10 11  2  0  0  0  0
 11  6  1  0  0  0  0
 12  4  1  0  0  0  0
 13  6  1  0  0  0  0
 14 18  2  0  0  0  0
 15 21  1  0  0  0  0
 16 14  1  0  0  0  0
 17 19  2  0  0  0  0
 18 20  1  0  0  0  0
 19 15  1  0  0  0  0
 20 15  2  0  0  0  0
 21 23  1  0  0  0  0
 22 12  1  0  0  0  0
 23 22  1  0  0  0  0
  5 10  1  0  0  0  0
 17 14  1  0  0  0  0
M  CHG  2   1   1   7  -1
M  END
>  <IDNUMBER>
F5526-0150

>  <Chemical_Name>
4-chloro-N-[2-(4-fluorophenoxy)ethyl]-3-nitrobenzamide

>  <PriceCoeff>
1.00

>  <CAS>
1105227-99-3

>  <MW>
338.72

>  <Description>
solid

>  <FSP3>
0.13

>  <clogP>
3.95

>  <TPSA>
81.47

>  <Acceptor>
4

>  <Donor>
1

>  <RotBonds>
6

>  <HAC>
23

>  <Collection>
General

>  <PPDS>
+

$$$$
F5526-0468
  Mrv2219 10102508112D          

 23 24  0  0  0  0            999 V2000
   -1.5216    7.0446    0.0000 C   0  0  0  0  0  0  0  0  0  0  0  0
   -1.5216    6.2196    0.0000 C   0  0  0  0  0  0  0  0  0  0  0  0
   -0.8112    7.4571    0.0000 O   0  0  0  0  0  0  0  0  0  0  0  0
   -2.2366    7.4571    0.0000 N   0  0  0  0  0  0  0  0  0  0  0  0
   -2.2366    5.8071    0.0000 C   0  0  0  0  0  0  0  0  0  0  0  0
   -0.8112    5.8071    0.0000 C   0  0  0  0  0  0  0  0  0  0  0  0
   -1.5216    4.5696    0.0000 C   0  0  0  0  0  0  0  0  0  0  0  0
   -5.1104    7.4571    0.0000 C   0  0  0  0  0  0  0  0  0  0  0  0
   -6.5266    8.2821    0.0000 C   0  0  0  0  0  0  0  0  0  0  0  0
   -0.8112    4.9821    0.0000 C   0  0  0  0  0  0  0  0  0  0  0  0
   -2.2366    4.9821    0.0000 C   0  0  0  0  0  0  0  0  0  0  0  0
   -5.8162    7.0446    0.0000 C   0  0  0  0  0  0  0  0  0  0  0  0
   -5.8162    8.6946    0.0000 C   0  0  0  0  0  0  0  0  0  0  0  0
   -5.1104    8.2821    0.0000 C   0  0  0  0  0  0  0  0  0  0  0  0
   -6.5266    7.4571    0.0000 C   0  0  0  0  0  0  0  0  0  0  0  0
   -1.5125    3.7491    0.0000 O   0  0  0  0  0  0  0  0  0  0  0  0
   -7.2462    8.7084    0.0000 O   0  0  0  0  0  0  0  0  0  0  0  0
   -4.3816    7.0446    0.0000 O   0  0  0  0  0  0  0  0  0  0  0  0
   -2.9516    7.0446    0.0000 C   0  0  0  0  0  0  0  0  0  0  0  0
   -3.6666    7.4571    0.0000 C   0  0  0  0  0  0  0  0  0  0  0  0
   -7.2462    9.5334    0.0000 C   0  0  0  0  0  0  0  0  0  0  0  0
   -2.2229    3.3366    0.0000 C   0  0  0  0  0  0  0  0  0  0  0  0
   -7.9521    9.9459    0.0000 C   0  0  0  0  0  0  0  0  0  0  0  0
  2  1  1  0  0  0  0
  3  1  2  0  0  0  0
  4  1  1  0  0  0  0
  5  2  2  0  0  0  0
  6  2  1  0  0  0  0
  7 10  1  0  0  0  0
  8 18  1  0  0  0  0
  9 13  2  0  0  0  0
 10  6  2  0  0  0  0
 11  5  1  0  0  0  0
 12  8  1  0  0  0  0
 13 14  1  0  0  0  0
 14  8  2  0  0  0  0
 15 12  2  0  0  0  0
 16  7  1  0  0  0  0
 17  9  1  0  0  0  0
 18 20  1  0  0  0  0
 19  4  1  0  0  0  0
 20 19  1  0  0  0  0
 21 17  1  0  0  0  0
 22 16  1  0  0  0  0
 23 21  1  0  0  0  0
 11  7  2  0  0  0  0
 15  9  1  0  0  0  0
M  END
>  <IDNUMBER>
F5526-0468

>  <Chemical_Name>
N-[2-(4-ethoxyphenoxy)ethyl]-4-methoxybenzamide

>  <PriceCoeff>
1.00

>  <CAS>
1170934-01-6

>  <MW>
315.36

>  <Description>
solid

>  <FSP3>
0.28

>  <clogP>
3.68

>  <TPSA>
56.79

>  <Acceptor>
4

>  <Donor>
1

>  <RotBonds>
8

>  <HAC>
23

>  <Collection>
General

>  <PPDS>
+

$$$$
F5526-0475
  Mrv2219 10102508112D          

 25 26  0  0  0  0            999 V2000
   -1.5262    3.7491    0.0000 N   0  3  0  0  0  0  0  0  0  0  0  0
   -1.5262    6.2196    0.0000 C   0  0  0  0  0  0  0  0  0  0  0  0
   -2.2366    5.8071    0.0000 C   0  0  0  0  0  0  0  0  0  0  0  0
   -1.5262    4.5696    0.0000 C   0  0  0  0  0  0  0  0  0  0  0  0
   -1.5262    7.0446    0.0000 C   0  0  0  0  0  0  0  0  0  0  0  0
   -2.2366    4.9821    0.0000 C   0  0  0  0  0  0  0  0  0  0  0  0
   -0.8112    5.8071    0.0000 C   0  0  0  0  0  0  0  0  0  0  0  0
   -2.2366    3.3366    0.0000 O   0  5  0  0  0  0  0  0  0  0  0  0
   -0.8112    3.3366    0.0000 O   0  0  0  0  0  0  0  0  0  0  0  0
   -0.8112    4.9821    0.0000 C   0  0  0  0  0  0  0  0  0  0  0  0
   -0.8204    7.4571    0.0000 O   0  0  0  0  0  0  0  0  0  0  0  0
   -2.2412    7.4571    0.0000 N   0  0  0  0  0  0  0  0  0  0  0  0
   -2.9562    6.2334    0.0000 Cl  0  0  0  0  0  0  0  0  0  0  0  0
   -5.1104    7.4571    0.0000 C   0  0  0  0  0  0  0  0  0  0  0  0
   -6.5313    8.2821    0.0000 C   0  0  0  0  0  0  0  0  0  0  0  0
   -5.8162    7.0446    0.0000 C   0  0  0  0  0  0  0  0  0  0  0  0
   -5.8162    8.6946    0.0000 C   0  0  0  0  0  0  0  0  0  0  0  0
   -5.1104    8.2821    0.0000 C   0  0  0  0  0  0  0  0  0  0  0  0
   -6.5313    7.4571    0.0000 C   0  0  0  0  0  0  0  0  0  0  0  0
   -7.2509    8.7084    0.0000 O   0  0  0  0  0  0  0  0  0  0  0  0
   -4.3862    7.0446    0.0000 O   0  0  0  0  0  0  0  0  0  0  0  0
   -2.9562    7.0446    0.0000 C   0  0  0  0  0  0  0  0  0  0  0  0
   -3.6712    7.4571    0.0000 C   0  0  0  0  0  0  0  0  0  0  0  0
   -7.2509    9.5334    0.0000 C   0  0  0  0  0  0  0  0  0  0  0  0
   -7.9521    9.9459    0.0000 C   0  0  0  0  0  0  0  0  0  0  0  0
  2  7  1  0  0  0  0
  3  6  1  0  0  0  0
  4  1  1  0  0  0  0
  5  2  1  0  0  0  0
  6  4  2  0  0  0  0
  7 10  2  0  0  0  0
  8  1  1  0  0  0  0
  9  1  2  0  0  0  0
 10  4  1  0  0  0  0
 11  5  2  0  0  0  0
 12  5  1  0  0  0  0
 13  3  1  0  0  0  0
 14 21  1  0  0  0  0
 15 17  2  0  0  0  0
 16 14  1  0  0  0  0
 17 18  1  0  0  0  0
 18 14  2  0  0  0  0
 19 16  2  0  0  0  0
 20 15  1  0  0  0  0
 21 23  1  0  0  0  0
 22 12  1  0  0  0  0
 23 22  1  0  0  0  0
 24 20  1  0  0  0  0
 25 24  1  0  0  0  0
  2  3  2  0  0  0  0
 19 15  1  0  0  0  0
M  CHG  2   1   1   8  -1
M  END
>  <IDNUMBER>
F5526-0475

>  <Chemical_Name>
2-chloro-N-[2-(4-ethoxyphenoxy)ethyl]-4-nitrobenzamide

>  <PriceCoeff>
1.00

>  <CAS>
1105212-18-7

>  <MW>
364.78

>  <Description>
solid

>  <FSP3>
0.24

>  <clogP>
3.60

>  <TPSA>
90.70

>  <Acceptor>
5

>  <Donor>
1

>  <RotBonds>
8

>  <HAC>
25

>  <Collection>
General

>  <PPDS>
+

$$$$
F5526-0591
  Mrv2219 10102508112D          

 25 27  0  0  0  0            999 V2000
   -4.4688    2.0625    0.0000 N   0  3  0  0  0  0  0  0  0  0  0  0
   -3.7491    2.4841    0.0000 C   0  0  0  0  0  0  0  0  0  0  0  0
   -3.7491    3.3091    0.0000 C   0  0  0  0  0  0  0  0  0  0  0  0
   -3.0341    4.5421    0.0000 C   0  0  0  0  0  0  0  0  0  0  0  0
   -3.0341    3.7216    0.0000 C   0  0  0  0  0  0  0  0  0  0  0  0
   -5.8941    8.6671    0.0000 C   0  0  0  0  0  0  0  0  0  0  0  0
   -3.0341    2.0716    0.0000 C   0  0  0  0  0  0  0  0  0  0  0  0
   -5.1929    2.4750    0.0000 O   0  5  0  0  0  0  0  0  0  0  0  0
   -5.1791    8.2546    0.0000 C   0  0  0  0  0  0  0  0  0  0  0  0
   -6.6000    8.2546    0.0000 C   0  0  0  0  0  0  0  0  0  0  0  0
   -4.4688    1.2375    0.0000 O   0  0  0  0  0  0  0  0  0  0  0  0
   -6.0729    9.4784    0.0000 O   0  0  0  0  0  0  0  0  0  0  0  0
   -7.2096    8.8046    0.0000 O   0  0  0  0  0  0  0  0  0  0  0  0
   -6.8750    9.5609    0.0000 C   0  0  0  0  0  0  0  0  0  0  0  0
   -2.3237    4.9546    0.0000 O   0  0  0  0  0  0  0  0  0  0  0  0
   -2.3237    3.3091    0.0000 C   0  0  0  0  0  0  0  0  0  0  0  0
   -2.3237    2.4841    0.0000 C   0  0  0  0  0  0  0  0  0  0  0  0
   -6.6000    7.4296    0.0000 C   0  0  0  0  0  0  0  0  0  0  0  0
   -3.7491    4.9546    0.0000 N   0  0  0  0  0  0  0  0  0  0  0  0
   -5.1791    7.4296    0.0000 C   0  0  0  0  0  0  0  0  0  0  0  0
   -3.0250    1.2466    0.0000 Cl  0  0  0  0  0  0  0  0  0  0  0  0
   -5.8941    7.0171    0.0000 C   0  0  0  0  0  0  0  0  0  0  0  0
   -4.4550    7.0171    0.0000 O   0  0  0  0  0  0  0  0  0  0  0  0
   -3.7491    5.7796    0.0000 C   0  0  0  0  0  0  0  0  0  0  0  0
   -4.4550    6.1921    0.0000 C   0  0  0  0  0  0  0  0  0  0  0  0
  2  1  1  0  0  0  0
  3  2  1  0  0  0  0
  4  5  1  0  0  0  0
  5  3  2  0  0  0  0
  6  9  1  0  0  0  0
  7  2  2  0  0  0  0
  8  1  1  0  0  0  0
  9 20  2  0  0  0  0
 10 18  1  0  0  0  0
 11  1  2  0  0  0  0
 12  6  1  0  0  0  0
 13 10  1  0  0  0  0
 14 12  1  0  0  0  0
 15  4  2  0  0  0  0
 16 17  2  0  0  0  0
 17  7  1  0  0  0  0
 18 22  2  0  0  0  0
 19  4  1  0  0  0  0
 20 23  1  0  0  0  0
 21  7  1  0  0  0  0
 22 20  1  0  0  0  0
 23 25  1  0  0  0  0
 24 19  1  0  0  0  0
 25 24  1  0  0  0  0
  5 16  1  0  0  0  0
 10  6  2  0  0  0  0
 13 14  1  0  0  0  0
M  CHG  2   1   1   8  -1
M  END
>  <IDNUMBER>
F5526-0591

>  <Chemical_Name>
N-[2-(2H-1,3-benzodioxol-5-yloxy)ethyl]-4-chloro-3-nitrobenzamide

>  <PriceCoeff>
1.00

>  <CAS>
1171792-46-3

>  <MW>
364.74

>  <Description>
solid

>  <FSP3>
0.19

>  <clogP>
3.70

>  <TPSA>
99.93

>  <Acceptor>
6

>  <Donor>
1

>  <RotBonds>
6

>  <HAC>
25

>  <Collection>
General

>  <PPDS>
+

$$$$
F5539-0018
  Mrv2219 10102508112D          

 21 23  0  0  0  0            999 V2000
   -2.9958    7.4917    0.0000 N   0  0  0  0  0  0  0  0  0  0  0  0
   -3.8708    3.8000    0.0000 C   0  0  0  0  0  0  0  0  0  0  0  0
   -2.1708    7.5792    0.0000 C   0  0  0  0  0  0  0  0  0  0  0  0
   -3.1708    6.6792    0.0000 C   0  0  0  0  0  0  0  0  0  0  0  0
   -2.4458    6.2667    0.0000 C   0  0  0  0  0  0  0  0  0  0  0  0
   -3.1583    4.2125    0.0000 N   0  0  0  0  0  0  0  0  0  0  0  0
   -3.8625    2.9708    0.0000 N   0  0  0  0  0  0  0  0  0  0  0  0
   -1.8333    6.8250    0.0000 C   0  0  0  0  0  0  0  0  0  0  0  0
   -2.4458    5.4417    0.0000 C   0  0  0  0  0  0  0  0  0  0  0  0
   -3.1583    5.0292    0.0000 C   0  0  0  0  0  0  0  0  0  0  0  0
   -4.5833    4.2125    0.0000 O   0  0  0  0  0  0  0  0  0  0  0  0
   -1.7625    8.2917    0.0000 O   0  0  0  0  0  0  0  0  0  0  0  0
   -3.8833    6.2667    0.0000 C   0  0  0  0  0  0  0  0  0  0  0  0
   -4.5833    2.5500    0.0000 C   0  0  0  0  0  0  0  0  0  0  0  0
   -3.8750    5.4417    0.0000 C   0  0  0  0  0  0  0  0  0  0  0  0
   -6.0000    1.7333    0.0000 C   0  0  0  0  0  0  0  0  0  0  0  0
   -5.2875    2.9625    0.0000 C   0  0  0  0  0  0  0  0  0  0  0  0
   -4.5833    1.7250    0.0000 C   0  0  0  0  0  0  0  0  0  0  0  0
   -6.0000    2.5583    0.0000 C   0  0  0  0  0  0  0  0  0  0  0  0
   -5.2958    1.3125    0.0000 C   0  0  0  0  0  0  0  0  0  0  0  0
   -6.7167    1.3208    0.0000 C   0  0  0  0  0  0  0  0  0  0  0  0
  2  6  1  0  0  0  0
  3  1  1  0  0  0  0
  4  1  1  0  0  0  0
  5  4  2  0  0  0  0
  6 10  1  0  0  0  0
  7  2  1  0  0  0  0
  8  3  1  0  0  0  0
  9  5  1  0  0  0  0
 10 15  1  0  0  0  0
 11  2  2  0  0  0  0
 12  3  2  0  0  0  0
 13  4  1  0  0  0  0
 14  7  1  0  0  0  0
 15 13  2  0  0  0  0
 16 20  2  0  0  0  0
 17 14  1  0  0  0  0
 18 14  2  0  0  0  0
 19 17  2  0  0  0  0
 20 18  1  0  0  0  0
 21 16  1  0  0  0  0
  8  5  1  0  0  0  0
 10  9  2  0  0  0  0
 16 19  1  0  0  0  0
M  END
>  <IDNUMBER>
F5539-0018

>  <Chemical_Name>
1-(4-methylphenyl)-3-(2-oxo-2,3-dihydro-1H-indol-5-yl)urea

>  <PriceCoeff>
1.00

>  <CAS>
1171576-53-6

>  <MW>
281.31

>  <Description>
solid

>  <FSP3>
0.12

>  <clogP>
2.07

>  <TPSA>
70.23

>  <Acceptor>
2

>  <Donor>
3

>  <RotBonds>
2

>  <HAC>
21

>  <Collection>
General

>  <PPDS>
+

$$$$
F5577-0009
  Mrv2219 10102508112D          

 21 23  0  0  0  0            999 V2000
   -1.0083    2.5583    0.0000 C   0  0  0  0  0  0  0  0  0  0  0  0
   -2.4333    2.5583    0.0000 C   0  0  0  0  0  0  0  0  0  0  0  0
   -1.7208    2.9833    0.0000 C   0  0  0  0  0  0  0  0  0  0  0  0
   -2.4375    1.7333    0.0000 C   0  0  0  0  0  0  0  0  0  0  0  0
   -1.0083    1.7333    0.0000 C   0  0  0  0  0  0  0  0  0  0  0  0
   -1.7208    1.3208    0.0000 N   0  0  0  0  0  0  0  0  0  0  0  0
   -3.1500    1.3208    0.0000 C   0  0  0  0  0  0  0  0  0  0  0  0
   -3.8625    1.7333    0.0000 C   0  0  0  0  0  0  0  0  0  0  0  0
   -3.1500    2.9708    0.0000 C   0  0  0  0  0  0  0  0  0  0  0  0
   -0.2875    2.9708    0.0000 C   0  0  0  0  0  0  0  0  0  0  0  0
   -3.8625    2.5583    0.0000 C   0  0  0  0  0  0  0  0  0  0  0  0
   -4.5833    1.3208    0.0000 N   0  0  0  0  0  0  0  0  0  0  0  0
   -1.7208    3.8000    0.0000 O   0  0  0  0  0  0  0  0  0  0  0  0
   -0.2875    3.7958    0.0000 O   0  0  0  0  0  0  0  0  0  0  0  0
   -4.5833    2.9708    0.0000 F   0  0  0  0  0  0  0  0  0  0  0  0
    0.4250    2.5583    0.0000 O   0  0  0  0  0  0  0  0  0  0  0  0
   -1.7250    0.4958    0.0000 C   0  0  0  0  0  0  0  0  0  0  0  0
   -4.6625    0.4958    0.0000 C   0  0  0  0  0  0  0  0  0  0  0  0
   -5.3333    1.6583    0.0000 C   0  0  0  0  0  0  0  0  0  0  0  0
   -5.8833    1.0375    0.0000 C   0  0  0  0  0  0  0  0  0  0  0  0
   -5.4708    0.3250    0.0000 C   0  0  0  0  0  0  0  0  0  0  0  0
  2  3  1  0  0  0  0
  3  1  1  0  0  0  0
  4  6  1  0  0  0  0
  5  1  2  0  0  0  0
  6  5  1  0  0  0  0
  7  4  2  0  0  0  0
  8  7  1  0  0  0  0
  9  2  2  0  0  0  0
 10  1  1  0  0  0  0
 11  9  1  0  0  0  0
 12  8  1  0  0  0  0
 13  3  2  0  0  0  0
 14 10  2  0  0  0  0
 15 11  1  0  0  0  0
 16 10  1  0  0  0  0
 17  6  1  0  0  0  0
 18 12  1  0  0  0  0
 19 12  1  0  0  0  0
 20 19  1  0  0  0  0
 21 18  1  0  0  0  0
  4  2  1  0  0  0  0
  8 11  2  0  0  0  0
 21 20  1  0  0  0  0
M  END
>  <IDNUMBER>
F5577-0009

>  <Chemical_Name>
6-fluoro-1-methyl-4-oxo-7-(pyrrolidin-1-yl)-1,4-dihydroquinoline-3-carboxylic acid

>  <PriceCoeff>
1.00

>  <CAS>
1291486-62-8

>  <MW>
290.29

>  <Description>
solid

>  <FSP3>
0.33

>  <clogP>
2.03

>  <TPSA>
60.85

>  <Acceptor>
5

>  <Donor>
2

>  <RotBonds>
2

>  <HAC>
21

>  <Collection>
General

$$$$
F5577-0010
  Mrv2219 10102508112D          

 22 24  0  0  0  0            999 V2000
   -1.0083    2.5583    0.0000 C   0  0  0  0  0  0  0  0  0  0  0  0
   -2.4333    2.5583    0.0000 C   0  0  0  0  0  0  0  0  0  0  0  0
   -1.7208    2.9833    0.0000 C   0  0  0  0  0  0  0  0  0  0  0  0
   -2.4375    1.7333    0.0000 C   0  0  0  0  0  0  0  0  0  0  0  0
   -1.0083    1.7333    0.0000 C   0  0  0  0  0  0  0  0  0  0  0  0
   -1.7208    1.3208    0.0000 N   0  0  0  0  0  0  0  0  0  0  0  0
   -3.1500    1.3208    0.0000 C   0  0  0  0  0  0  0  0  0  0  0  0
   -3.8625    1.7333    0.0000 C   0  0  0  0  0  0  0  0  0  0  0  0
   -3.1500    2.9708    0.0000 C   0  0  0  0  0  0  0  0  0  0  0  0
   -0.2875    2.9708    0.0000 C   0  0  0  0  0  0  0  0  0  0  0  0
   -3.8625    2.5583    0.0000 C   0  0  0  0  0  0  0  0  0  0  0  0
   -4.5833    1.3208    0.0000 N   0  0  0  0  0  0  0  0  0  0  0  0
   -1.7208    3.8000    0.0000 O   0  0  0  0  0  0  0  0  0  0  0  0
   -0.2875    3.7958    0.0000 O   0  0  0  0  0  0  0  0  0  0  0  0
   -4.5833    2.9708    0.0000 F   0  0  0  0  0  0  0  0  0  0  0  0
    0.4250    2.5583    0.0000 O   0  0  0  0  0  0  0  0  0  0  0  0
   -1.7250    0.4958    0.0000 C   0  0  0  0  0  0  0  0  0  0  0  0
   -4.5833    0.4958    0.0000 C   0  0  0  0  0  0  0  0  0  0  0  0
   -5.2958    1.7333    0.0000 C   0  0  0  0  0  0  0  0  0  0  0  0
   -5.2958    0.0833    0.0000 C   0  0  0  0  0  0  0  0  0  0  0  0
   -6.0000    1.3208    0.0000 C   0  0  0  0  0  0  0  0  0  0  0  0
   -6.0125    0.4958    0.0000 C   0  0  0  0  0  0  0  0  0  0  0  0
  2  3  1  0  0  0  0
  3  1  1  0  0  0  0
  4  6  1  0  0  0  0
  5  1  2  0  0  0  0
  6  5  1  0  0  0  0
  7  4  2  0  0  0  0
  8  7  1  0  0  0  0
  9  2  2  0  0  0  0
 10  1  1  0  0  0  0
 11  9  1  0  0  0  0
 12  8  1  0  0  0  0
 13  3  2  0  0  0  0
 14 10  2  0  0  0  0
 15 11  1  0  0  0  0
 16 10  1  0  0  0  0
 17  6  1  0  0  0  0
 18 12  1  0  0  0  0
 19 12  1  0  0  0  0
 20 18  1  0  0  0  0
 21 19  1  0  0  0  0
 22 21  1  0  0  0  0
  4  2  1  0  0  0  0
  8 11  2  0  0  0  0
 22 20  1  0  0  0  0
M  END
>  <IDNUMBER>
F5577-0010

>  <Chemical_Name>
6-fluoro-1-methyl-4-oxo-7-(piperidin-1-yl)-1,4-dihydroquinoline-3-carboxylic acid

>  <PriceCoeff>
1.50

>  <CAS>
1030120-88-7

>  <MW>
304.32

>  <Description>
solid

>  <FSP3>
0.38

>  <clogP>
2.36

>  <TPSA>
60.85

>  <Acceptor>
5

>  <Donor>
2

>  <RotBonds>
2

>  <HAC>
22

>  <Collection>
Advanced

$$$$
F5577-0013
  Mrv2219 10102508112D          

 23 25  0  0  0  0            999 V2000
   -1.0083    2.5583    0.0000 C   0  0  0  0  0  0  0  0  0  0  0  0
   -2.4333    2.5583    0.0000 C   0  0  0  0  0  0  0  0  0  0  0  0
   -1.7208    2.9833    0.0000 C   0  0  0  0  0  0  0  0  0  0  0  0
   -2.4375    1.7333    0.0000 C   0  0  0  0  0  0  0  0  0  0  0  0
   -1.0083    1.7333    0.0000 C   0  0  0  0  0  0  0  0  0  0  0  0
   -1.7208    1.3208    0.0000 N   0  0  0  0  0  0  0  0  0  0  0  0
   -3.1500    1.3208    0.0000 C   0  0  0  0  0  0  0  0  0  0  0  0
   -3.8625    1.7333    0.0000 C   0  0  0  0  0  0  0  0  0  0  0  0
   -3.1500    2.9708    0.0000 C   0  0  0  0  0  0  0  0  0  0  0  0
   -4.5833    1.3208    0.0000 N   0  0  0  0  0  0  0  0  0  0  0  0
   -0.2875    2.9708    0.0000 C   0  0  0  0  0  0  0  0  0  0  0  0
   -3.8625    2.5583    0.0000 C   0  0  0  0  0  0  0  0  0  0  0  0
   -1.7208    3.8000    0.0000 O   0  0  0  0  0  0  0  0  0  0  0  0
   -4.5833    0.4958    0.0000 C   0  0  0  0  0  0  0  0  0  0  0  0
   -5.2958    1.7333    0.0000 C   0  0  0  0  0  0  0  0  0  0  0  0
   -0.2875    3.7958    0.0000 O   0  0  0  0  0  0  0  0  0  0  0  0
   -4.5833    2.9708    0.0000 F   0  0  0  0  0  0  0  0  0  0  0  0
    0.4250    2.5583    0.0000 O   0  0  0  0  0  0  0  0  0  0  0  0
   -1.7250    0.4958    0.0000 C   0  0  0  0  0  0  0  0  0  0  0  0
   -5.2958    0.0833    0.0000 C   0  0  0  0  0  0  0  0  0  0  0  0
   -6.0000    1.3208    0.0000 C   0  0  0  0  0  0  0  0  0  0  0  0
   -6.0125    0.4958    0.0000 C   0  0  0  0  0  0  0  0  0  0  0  0
   -6.7292    0.0833    0.0000 C   0  0  0  0  0  0  0  0  0  0  0  0
  2  3  1  0  0  0  0
  3  1  1  0  0  0  0
  4  6  1  0  0  0  0
  5  1  2  0  0  0  0
  6  5  1  0  0  0  0
  7  4  2  0  0  0  0
  8  7  1  0  0  0  0
  9  2  2  0  0  0  0
 10  8  1  0  0  0  0
 11  1  1  0  0  0  0
 12  9  1  0  0  0  0
 13  3  2  0  0  0  0
 14 10  1  0  0  0  0
 15 10  1  0  0  0  0
 16 11  2  0  0  0  0
 17 12  1  0  0  0  0
 18 11  1  0  0  0  0
 19  6  1  0  0  0  0
 20 14  1  0  0  0  0
 21 15  1  0  0  0  0
 22 21  1  0  0  0  0
 23 22  1  0  0  0  0
  4  2  1  0  0  0  0
  8 12  2  0  0  0  0
 22 20  1  0  0  0  0
M  END
>  <IDNUMBER>
F5577-0013

>  <Chemical_Name>
6-fluoro-1-methyl-7-(4-methylpiperidin-1-yl)-4-oxo-1,4-dihydroquinoline-3-carboxylic acid

>  <PriceCoeff>
1.50

>  <CAS>
1031989-25-9

>  <MW>
318.34

>  <Description>
solid

>  <FSP3>
0.41

>  <clogP>
2.88

>  <TPSA>
60.85

>  <Acceptor>
5

>  <Donor>
2

>  <RotBonds>
2

>  <HAC>
23

>  <Collection>
Advanced

$$$$
F5577-0021
  Mrv2219 10102508112D          

 22 24  0  0  0  0            999 V2000
   -1.0083    2.5583    0.0000 C   0  0  0  0  0  0  0  0  0  0  0  0
   -2.4333    2.5583    0.0000 C   0  0  0  0  0  0  0  0  0  0  0  0
   -1.7208    2.9833    0.0000 C   0  0  0  0  0  0  0  0  0  0  0  0
   -2.4375    1.7333    0.0000 C   0  0  0  0  0  0  0  0  0  0  0  0
   -1.0083    1.7333    0.0000 C   0  0  0  0  0  0  0  0  0  0  0  0
   -1.7208    1.3208    0.0000 N   0  0  0  0  0  0  0  0  0  0  0  0
   -3.1500    1.3208    0.0000 C   0  0  0  0  0  0  0  0  0  0  0  0
   -3.8625    1.7333    0.0000 C   0  0  0  0  0  0  0  0  0  0  0  0
   -3.1500    2.9708    0.0000 C   0  0  0  0  0  0  0  0  0  0  0  0
   -0.2875    2.9708    0.0000 C   0  0  0  0  0  0  0  0  0  0  0  0
   -3.8625    2.5583    0.0000 C   0  0  0  0  0  0  0  0  0  0  0  0
   -4.5833    1.3208    0.0000 N   0  0  0  0  0  0  0  0  0  0  0  0
   -1.7208    3.8000    0.0000 O   0  0  0  0  0  0  0  0  0  0  0  0
   -0.2875    3.7958    0.0000 O   0  0  0  0  0  0  0  0  0  0  0  0
   -6.0125    0.4958    0.0000 O   0  0  0  0  0  0  0  0  0  0  0  0
   -4.5833    2.9708    0.0000 F   0  0  0  0  0  0  0  0  0  0  0  0
    0.4250    2.5583    0.0000 O   0  0  0  0  0  0  0  0  0  0  0  0
   -1.7250    0.4958    0.0000 C   0  0  0  0  0  0  0  0  0  0  0  0
   -5.2958    1.7333    0.0000 C   0  0  0  0  0  0  0  0  0  0  0  0
   -4.5833    0.4958    0.0000 C   0  0  0  0  0  0  0  0  0  0  0  0
   -6.0000    1.3208    0.0000 C   0  0  0  0  0  0  0  0  0  0  0  0
   -5.2958    0.0833    0.0000 C   0  0  0  0  0  0  0  0  0  0  0  0
  2  3  1  0  0  0  0
  3  1  1  0  0  0  0
  4  6  1  0  0  0  0
  5  1  2  0  0  0  0
  6  5  1  0  0  0  0
  7  4  2  0  0  0  0
  8  7  1  0  0  0  0
  9  2  2  0  0  0  0
 10  1  1  0  0  0  0
 11  9  1  0  0  0  0
 12  8  1  0  0  0  0
 13  3  2  0  0  0  0
 14 10  2  0  0  0  0
 15 22  1  0  0  0  0
 16 11  1  0  0  0  0
 17 10  1  0  0  0  0
 18  6  1  0  0  0  0
 19 12  1  0  0  0  0
 20 12  1  0  0  0  0
 21 19  1  0  0  0  0
 22 20  1  0  0  0  0
  4  2  1  0  0  0  0
  8 11  2  0  0  0  0
 15 21  1  0  0  0  0
M  END
>  <IDNUMBER>
F5577-0021

>  <Chemical_Name>
6-fluoro-1-methyl-7-(morpholin-4-yl)-4-oxo-1,4-dihydroquinoline-3-carboxylic acid

>  <PriceCoeff>
1.50

>  <MW>
306.29

>  <Description>
solid

>  <FSP3>
0.33

>  <clogP>
0.97

>  <TPSA>
70.08

>  <Acceptor>
6

>  <Donor>
2

>  <RotBonds>
2

>  <HAC>
22

>  <Collection>
Advanced

$$$$
F5577-0024
  Mrv2219 10102508112D          

 24 26  0  0  0  0            999 V2000
   -1.0083    2.5583    0.0000 C   0  0  0  0  0  0  0  0  0  0  0  0
   -2.4333    2.5583    0.0000 C   0  0  0  0  0  0  0  0  0  0  0  0
   -1.7208    2.9833    0.0000 C   0  0  0  0  0  0  0  0  0  0  0  0
   -2.4375    1.7333    0.0000 C   0  0  0  0  0  0  0  0  0  0  0  0
   -1.0083    1.7333    0.0000 C   0  0  0  0  0  0  0  0  0  0  0  0
   -1.7208    1.3208    0.0000 N   0  0  0  0  0  0  0  0  0  0  0  0
   -3.1500    1.3208    0.0000 C   0  0  0  0  0  0  0  0  0  0  0  0
   -3.8625    1.7333    0.0000 C   0  0  0  0  0  0  0  0  0  0  0  0
   -3.1500    2.9708    0.0000 C   0  0  0  0  0  0  0  0  0  0  0  0
   -4.5833    1.3208    0.0000 N   0  0  0  0  0  0  0  0  0  0  0  0
   -0.2875    2.9708    0.0000 C   0  0  0  0  0  0  0  0  0  0  0  0
   -3.8625    2.5583    0.0000 C   0  0  0  0  0  0  0  0  0  0  0  0
   -6.0125    0.4958    0.0000 N   0  0  0  0  0  0  0  0  0  0  0  0
   -1.7208    3.8000    0.0000 O   0  0  0  0  0  0  0  0  0  0  0  0
   -5.2958    1.7333    0.0000 C   0  0  0  0  0  0  0  0  0  0  0  0
   -4.5833    0.4958    0.0000 C   0  0  0  0  0  0  0  0  0  0  0  0
   -0.2875    3.7958    0.0000 O   0  0  0  0  0  0  0  0  0  0  0  0
   -6.0000    1.3208    0.0000 C   0  0  0  0  0  0  0  0  0  0  0  0
   -5.2958    0.0833    0.0000 C   0  0  0  0  0  0  0  0  0  0  0  0
   -4.5833    2.9708    0.0000 F   0  0  0  0  0  0  0  0  0  0  0  0
    0.4250    2.5583    0.0000 O   0  0  0  0  0  0  0  0  0  0  0  0
   -1.7250    0.4958    0.0000 C   0  0  0  0  0  0  0  0  0  0  0  0
   -6.7292    0.0833    0.0000 C   0  0  0  0  0  0  0  0  0  0  0  0
   -7.4417    0.4958    0.0000 C   0  0  0  0  0  0  0  0  0  0  0  0
  2  3  1  0  0  0  0
  3  1  1  0  0  0  0
  4  6  1  0  0  0  0
  5  1  2  0  0  0  0
  6  5  1  0  0  0  0
  7  4  2  0  0  0  0
  8  7  1  0  0  0  0
  9  2  2  0  0  0  0
 10  8  1  0  0  0  0
 11  1  1  0  0  0  0
 12  9  1  0  0  0  0
 13 19  1  0  0  0  0
 14  3  2  0  0  0  0
 15 10  1  0  0  0  0
 16 10  1  0  0  0  0
 17 11  2  0  0  0  0
 18 15  1  0  0  0  0
 19 16  1  0  0  0  0
 20 12  1  0  0  0  0
 21 11  1  0  0  0  0
 22  6  1  0  0  0  0
 23 13  1  0  0  0  0
 24 23  1  0  0  0  0
  4  2  1  0  0  0  0
  8 12  2  0  0  0  0
 13 18  1  0  0  0  0
M  END
>  <IDNUMBER>
F5577-0024

>  <Chemical_Name>
7-(4-ethylpiperazin-1-yl)-6-fluoro-1-methyl-4-oxo-1,4-dihydroquinoline-3-carboxylic acid

>  <PriceCoeff>
1.00

>  <CAS>
1291486-74-2

>  <MW>
333.36

>  <Description>
solid

>  <FSP3>
0.41

>  <clogP>
-0.65

>  <TPSA>
64.09

>  <Acceptor>
5

>  <Donor>
3

>  <RotBonds>
3

>  <HAC>
24

>  <Collection>
General

$$$$
F5577-0081
  Mrv2219 10102508112D          

 24 26  0  0  0  0            999 V2000
   -1.0083    2.5583    0.0000 C   0  0  0  0  0  0  0  0  0  0  0  0
   -2.4333    2.5583    0.0000 C   0  0  0  0  0  0  0  0  0  0  0  0
   -1.7208    2.9833    0.0000 C   0  0  0  0  0  0  0  0  0  0  0  0
   -2.4375    1.7333    0.0000 C   0  0  0  0  0  0  0  0  0  0  0  0
   -1.0083    1.7333    0.0000 C   0  0  0  0  0  0  0  0  0  0  0  0
   -1.7208    1.3208    0.0000 N   0  0  0  0  0  0  0  0  0  0  0  0
   -3.1500    1.3208    0.0000 C   0  0  0  0  0  0  0  0  0  0  0  0
   -3.8625    1.7333    0.0000 C   0  0  0  0  0  0  0  0  0  0  0  0
   -3.1500    2.9708    0.0000 C   0  0  0  0  0  0  0  0  0  0  0  0
   -4.5833    1.3208    0.0000 N   0  0  0  0  0  0  0  0  0  0  0  0
   -0.2875    2.9708    0.0000 C   0  0  0  0  0  0  0  0  0  0  0  0
   -3.8625    2.5583    0.0000 C   0  0  0  0  0  0  0  0  0  0  0  0
   -1.7208    3.8000    0.0000 O   0  0  0  0  0  0  0  0  0  0  0  0
   -4.5833    0.4958    0.0000 C   0  0  0  0  0  0  0  0  0  0  0  0
   -5.2958    1.7333    0.0000 C   0  0  0  0  0  0  0  0  0  0  0  0
   -0.2875    3.7958    0.0000 O   0  0  0  0  0  0  0  0  0  0  0  0
   -4.5833    2.9708    0.0000 F   0  0  0  0  0  0  0  0  0  0  0  0
    0.4250    2.5583    0.0000 O   0  0  0  0  0  0  0  0  0  0  0  0
   -1.7250    0.4958    0.0000 C   0  0  0  0  0  0  0  0  0  0  0  0
   -5.2958    0.0833    0.0000 C   0  0  0  0  0  0  0  0  0  0  0  0
   -6.0000    1.3208    0.0000 C   0  0  0  0  0  0  0  0  0  0  0  0
   -6.0125    0.4958    0.0000 C   0  0  0  0  0  0  0  0  0  0  0  0
   -6.7292    0.0833    0.0000 C   0  0  0  0  0  0  0  0  0  0  0  0
   -1.0083    0.0833    0.0000 C   0  0  0  0  0  0  0  0  0  0  0  0
  2  3  1  0  0  0  0
  3  1  1  0  0  0  0
  4  6  1  0  0  0  0
  5  1  2  0  0  0  0
  6  5  1  0  0  0  0
  7  4  2  0  0  0  0
  8  7  1  0  0  0  0
  9  2  2  0  0  0  0
 10  8  1  0  0  0  0
 11  1  1  0  0  0  0
 12  9  1  0  0  0  0
 13  3  2  0  0  0  0
 14 10  1  0  0  0  0
 15 10  1  0  0  0  0
 16 11  2  0  0  0  0
 17 12  1  0  0  0  0
 18 11  1  0  0  0  0
 19  6  1  0  0  0  0
 20 14  1  0  0  0  0
 21 15  1  0  0  0  0
 22 21  1  0  0  0  0
 23 22  1  0  0  0  0
 24 19  1  0  0  0  0
  4  2  1  0  0  0  0
  8 12  2  0  0  0  0
 22 20  1  0  0  0  0
M  END
>  <IDNUMBER>
F5577-0081

>  <Chemical_Name>
1-ethyl-6-fluoro-7-(4-methylpiperidin-1-yl)-4-oxo-1,4-dihydroquinoline-3-carboxylic acid

>  <PriceCoeff>
1.00

>  <CAS>
153114-24-0

>  <MW>
332.38

>  <Description>
solid

>  <FSP3>
0.44

>  <clogP>
3.12

>  <TPSA>
60.85

>  <Acceptor>
5

>  <Donor>
2

>  <RotBonds>
3

>  <HAC>
24

>  <Collection>
General

$$$$
F5577-0089
  Mrv2219 10102508112D          

 23 25  0  0  0  0            999 V2000
   -1.0083    2.5583    0.0000 C   0  0  0  0  0  0  0  0  0  0  0  0
   -2.4333    2.5583    0.0000 C   0  0  0  0  0  0  0  0  0  0  0  0
   -1.7208    2.9833    0.0000 C   0  0  0  0  0  0  0  0  0  0  0  0
   -2.4375    1.7333    0.0000 C   0  0  0  0  0  0  0  0  0  0  0  0
   -1.0083    1.7333    0.0000 C   0  0  0  0  0  0  0  0  0  0  0  0
   -1.7208    1.3208    0.0000 N   0  0  0  0  0  0  0  0  0  0  0  0
   -3.1500    1.3208    0.0000 C   0  0  0  0  0  0  0  0  0  0  0  0
   -3.8625    1.7333    0.0000 C   0  0  0  0  0  0  0  0  0  0  0  0
   -3.1500    2.9708    0.0000 C   0  0  0  0  0  0  0  0  0  0  0  0
   -0.2875    2.9708    0.0000 C   0  0  0  0  0  0  0  0  0  0  0  0
   -3.8625    2.5583    0.0000 C   0  0  0  0  0  0  0  0  0  0  0  0
   -4.5833    1.3208    0.0000 N   0  0  0  0  0  0  0  0  0  0  0  0
   -1.7208    3.8000    0.0000 O   0  0  0  0  0  0  0  0  0  0  0  0
   -0.2875    3.7958    0.0000 O   0  0  0  0  0  0  0  0  0  0  0  0
   -6.0125    0.4958    0.0000 O   0  0  0  0  0  0  0  0  0  0  0  0
   -4.5833    2.9708    0.0000 F   0  0  0  0  0  0  0  0  0  0  0  0
    0.4250    2.5583    0.0000 O   0  0  0  0  0  0  0  0  0  0  0  0
   -1.7250    0.4958    0.0000 C   0  0  0  0  0  0  0  0  0  0  0  0
   -5.2958    1.7333    0.0000 C   0  0  0  0  0  0  0  0  0  0  0  0
   -4.5833    0.4958    0.0000 C   0  0  0  0  0  0  0  0  0  0  0  0
   -6.0000    1.3208    0.0000 C   0  0  0  0  0  0  0  0  0  0  0  0
   -5.2958    0.0833    0.0000 C   0  0  0  0  0  0  0  0  0  0  0  0
   -1.0083    0.0833    0.0000 C   0  0  0  0  0  0  0  0  0  0  0  0
  2  3  1  0  0  0  0
  3  1  1  0  0  0  0
  4  6  1  0  0  0  0
  5  1  2  0  0  0  0
  6  5  1  0  0  0  0
  7  4  2  0  0  0  0
  8  7  1  0  0  0  0
  9  2  2  0  0  0  0
 10  1  1  0  0  0  0
 11  9  1  0  0  0  0
 12  8  1  0  0  0  0
 13  3  2  0  0  0  0
 14 10  2  0  0  0  0
 15 22  1  0  0  0  0
 16 11  1  0  0  0  0
 17 10  1  0  0  0  0
 18  6  1  0  0  0  0
 19 12  1  0  0  0  0
 20 12  1  0  0  0  0
 21 19  1  0  0  0  0
 22 20  1  0  0  0  0
 23 18  1  0  0  0  0
  4  2  1  0  0  0  0
  8 11  2  0  0  0  0
 15 21  1  0  0  0  0
M  END
>  <IDNUMBER>
F5577-0089

>  <Chemical_Name>
1-ethyl-6-fluoro-7-(morpholin-4-yl)-4-oxo-1,4-dihydroquinoline-3-carboxylic acid

>  <PriceCoeff>
1.00

>  <CAS>
70458-98-9

>  <MW>
320.32

>  <Description>
solid

>  <FSP3>
0.38

>  <clogP>
1.76

>  <TPSA>
70.08

>  <Acceptor>
6

>  <Donor>
2

>  <RotBonds>
3

>  <HAC>
23

>  <Collection>
General

$$$$
F5577-0091
  Mrv2219 10102508112D          

 24 26  0  0  0  0            999 V2000
   -1.0083    2.5583    0.0000 C   0  0  0  0  0  0  0  0  0  0  0  0
   -2.4333    2.5583    0.0000 C   0  0  0  0  0  0  0  0  0  0  0  0
   -1.7208    2.9833    0.0000 C   0  0  0  0  0  0  0  0  0  0  0  0
   -2.4375    1.7333    0.0000 C   0  0  0  0  0  0  0  0  0  0  0  0
   -1.0083    1.7333    0.0000 C   0  0  0  0  0  0  0  0  0  0  0  0
   -1.7208    1.3208    0.0000 N   0  0  0  0  0  0  0  0  0  0  0  0
   -3.1500    1.3208    0.0000 C   0  0  0  0  0  0  0  0  0  0  0  0
   -3.8625    1.7333    0.0000 C   0  0  0  0  0  0  0  0  0  0  0  0
   -3.1500    2.9708    0.0000 C   0  0  0  0  0  0  0  0  0  0  0  0
   -4.5833    1.3208    0.0000 N   0  0  0  0  0  0  0  0  0  0  0  0
   -0.2875    2.9708    0.0000 C   0  0  0  0  0  0  0  0  0  0  0  0
   -3.8625    2.5583    0.0000 C   0  0  0  0  0  0  0  0  0  0  0  0
   -6.0125    0.4958    0.0000 N   0  0  0  0  0  0  0  0  0  0  0  0
   -1.7208    3.8000    0.0000 O   0  0  0  0  0  0  0  0  0  0  0  0
   -5.2958    1.7333    0.0000 C   0  0  0  0  0  0  0  0  0  0  0  0
   -4.5833    0.4958    0.0000 C   0  0  0  0  0  0  0  0  0  0  0  0
   -0.2875    3.7958    0.0000 O   0  0  0  0  0  0  0  0  0  0  0  0
   -6.0000    1.3208    0.0000 C   0  0  0  0  0  0  0  0  0  0  0  0
   -5.2958    0.0833    0.0000 C   0  0  0  0  0  0  0  0  0  0  0  0
   -4.5833    2.9708    0.0000 F   0  0  0  0  0  0  0  0  0  0  0  0
    0.4250    2.5583    0.0000 O   0  0  0  0  0  0  0  0  0  0  0  0
   -1.7250    0.4958    0.0000 C   0  0  0  0  0  0  0  0  0  0  0  0
   -6.7292    0.0833    0.0000 C   0  0  0  0  0  0  0  0  0  0  0  0
   -1.0083    0.0833    0.0000 C   0  0  0  0  0  0  0  0  0  0  0  0
  2  3  1  0  0  0  0
  3  1  1  0  0  0  0
  4  6  1  0  0  0  0
  5  1  2  0  0  0  0
  6  5  1  0  0  0  0
  7  4  2  0  0  0  0
  8  7  1  0  0  0  0
  9  2  2  0  0  0  0
 10  8  1  0  0  0  0
 11  1  1  0  0  0  0
 12  9  1  0  0  0  0
 13 19  1  0  0  0  0
 14  3  2  0  0  0  0
 15 10  1  0  0  0  0
 16 10  1  0  0  0  0
 17 11  2  0  0  0  0
 18 15  1  0  0  0  0
 19 16  1  0  0  0  0
 20 12  1  0  0  0  0
 21 11  1  0  0  0  0
 22  6  1  0  0  0  0
 23 13  1  0  0  0  0
 24 22  1  0  0  0  0
  4  2  1  0  0  0  0
  8 12  2  0  0  0  0
 13 18  1  0  0  0  0
M  END
>  <IDNUMBER>
F5577-0091

>  <Chemical_Name>
1-ethyl-6-fluoro-7-(4-methylpiperazin-1-yl)-4-oxo-1,4-dihydroquinoline-3-carboxylic acid

>  <PriceCoeff>
1.50

>  <CAS>
70458-92-3

>  <MW>
333.36

>  <Description>
solid

>  <FSP3>
0.41

>  <clogP>
-0.32

>  <TPSA>
64.09

>  <Acceptor>
5

>  <Donor>
3

>  <RotBonds>
3

>  <HAC>
24

>  <Collection>
Advanced

$$$$
F5577-0281
  Mrv2219 10102508112D          

 24 26  0  0  0  0            999 V2000
   -1.0083    2.5583    0.0000 C   0  0  0  0  0  0  0  0  0  0  0  0
   -2.4333    2.5583    0.0000 C   0  0  0  0  0  0  0  0  0  0  0  0
   -1.7208    2.9833    0.0000 C   0  0  0  0  0  0  0  0  0  0  0  0
   -2.4375    1.7333    0.0000 C   0  0  0  0  0  0  0  0  0  0  0  0
   -1.0083    1.7333    0.0000 C   0  0  0  0  0  0  0  0  0  0  0  0
   -1.7208    1.3208    0.0000 N   0  0  0  0  0  0  0  0  0  0  0  0
   -3.1500    1.3208    0.0000 C   0  0  0  0  0  0  0  0  0  0  0  0
   -3.8625    1.7333    0.0000 C   0  0  0  0  0  0  0  0  0  0  0  0
   -3.1500    2.9708    0.0000 C   0  0  0  0  0  0  0  0  0  0  0  0
   -0.2875    2.9708    0.0000 C   0  0  0  0  0  0  0  0  0  0  0  0
   -3.8625    2.5583    0.0000 C   0  0  0  0  0  0  0  0  0  0  0  0
   -4.5833    1.3208    0.0000 N   0  0  0  0  0  0  0  0  0  0  0  0
   -1.7208    3.8000    0.0000 O   0  0  0  0  0  0  0  0  0  0  0  0
   -0.2875    3.7958    0.0000 O   0  0  0  0  0  0  0  0  0  0  0  0
   -4.5833    2.9708    0.0000 F   0  0  0  0  0  0  0  0  0  0  0  0
    0.4250    2.5583    0.0000 O   0  0  0  0  0  0  0  0  0  0  0  0
   -1.7250    0.4958    0.0000 C   0  0  0  0  0  0  0  0  0  0  0  0
   -4.5833    0.4958    0.0000 C   0  0  0  0  0  0  0  0  0  0  0  0
   -5.2958    1.7333    0.0000 C   0  0  0  0  0  0  0  0  0  0  0  0
    0.4250    1.7333    0.0000 C   0  0  0  0  0  0  0  0  0  0  0  0
   -5.2958    0.0833    0.0000 C   0  0  0  0  0  0  0  0  0  0  0  0
   -6.0000    1.3208    0.0000 C   0  0  0  0  0  0  0  0  0  0  0  0
   -0.2958    1.3208    0.0000 C   0  0  0  0  0  0  0  0  0  0  0  0
   -6.0125    0.4958    0.0000 C   0  0  0  0  0  0  0  0  0  0  0  0
  2  3  1  0  0  0  0
  3  1  1  0  0  0  0
  4  6  1  0  0  0  0
  5  1  2  0  0  0  0
  6  5  1  0  0  0  0
  7  4  2  0  0  0  0
  8  7  1  0  0  0  0
  9  2  2  0  0  0  0
 10  1  1  0  0  0  0
 11  9  1  0  0  0  0
 12  8  1  0  0  0  0
 13  3  2  0  0  0  0
 14 10  2  0  0  0  0
 15 11  1  0  0  0  0
 16 10  1  0  0  0  0
 17  6  1  0  0  0  0
 18 12  1  0  0  0  0
 19 12  1  0  0  0  0
 20 16  1  0  0  0  0
 21 18  1  0  0  0  0
 22 19  1  0  0  0  0
 23 20  1  0  0  0  0
 24 22  1  0  0  0  0
  4  2  1  0  0  0  0
  8 11  2  0  0  0  0
 24 21  1  0  0  0  0
M  END
>  <IDNUMBER>
F5577-0281

>  <Chemical_Name>
ethyl 6-fluoro-1-methyl-4-oxo-7-(piperidin-1-yl)-1,4-dihydroquinoline-3-carboxylate

>  <PriceCoeff>
1.00

>  <CAS>
2549005-51-6

>  <MW>
332.38

>  <Description>
solid

>  <FSP3>
0.44

>  <clogP>
2.10

>  <TPSA>
49.85

>  <Acceptor>
5

>  <Donor>
2

>  <RotBonds>
4

>  <HAC>
24

>  <Collection>
General

$$$$
F5581-0025
  Mrv2219 10102508112D          

 32 36  0  0  0  0            999 V2000
   -5.8666    3.4191    0.0000 C   0  0  0  0  0  0  0  0  0  0  0  0
   -5.1516    2.9929    0.0000 N   0  0  0  0  0  0  0  0  0  0  0  0
   -3.0204    0.9304    0.0000 N   0  0  0  0  0  0  0  0  0  0  0  0
   -5.9491    4.2441    0.0000 N   0  0  0  0  0  0  0  0  0  0  0  0
   -6.6184    3.0891    0.0000 S   0  0  0  0  0  0  0  0  0  0  0  0
   -4.4366    3.4054    0.0000 C   0  0  0  0  0  0  0  0  0  0  0  0
   -3.0112    1.7554    0.0000 C   0  0  0  0  0  0  0  0  0  0  0  0
   -2.3741    0.4125    0.0000 C   0  0  0  0  0  0  0  0  0  0  0  0
   -3.7079    0.4675    0.0000 C   0  0  0  0  0  0  0  0  0  0  0  0
   -5.8666    0.9213    0.0000 N   0  0  0  0  0  0  0  0  0  0  0  0
   -3.7216    2.9929    0.0000 C   0  0  0  0  0  0  0  0  0  0  0  0
   -5.2616    0.3666    0.0000 N   0  0  0  0  0  0  0  0  0  0  0  0
   -6.7559    4.4046    0.0000 C   0  0  0  0  0  0  0  0  0  0  0  0
   -7.1684    3.6987    0.0000 C   0  0  0  0  0  0  0  0  0  0  0  0
   -5.1563    2.1587    0.0000 C   0  0  0  0  0  0  0  0  0  0  0  0
   -3.7216    2.1679    0.0000 C   0  0  0  0  0  0  0  0  0  0  0  0
   -5.8666    1.7462    0.0000 C   0  0  0  0  0  0  0  0  0  0  0  0
   -6.4029   -0.3025    0.0000 C   0  0  0  0  0  0  0  0  0  0  0  0
   -4.4366    4.2304    0.0000 O   0  0  0  0  0  0  0  0  0  0  0  0
   -6.5816    0.5088    0.0000 C   0  0  0  0  0  0  0  0  0  0  0  0
   -2.6675   -0.3575    0.0000 C   0  0  0  0  0  0  0  0  0  0  0  0
   -3.4741   -0.3300    0.0000 C   0  0  0  0  0  0  0  0  0  0  0  0
   -1.5766    0.6325    0.0000 O   0  0  0  0  0  0  0  0  0  0  0  0
   -4.4916    0.7563    0.0000 O   0  0  0  0  0  0  0  0  0  0  0  0
   -5.5916   -0.3850    0.0000 C   0  0  0  0  0  0  0  0  0  0  0  0
   -2.2916    2.1679    0.0000 C   0  0  0  0  0  0  0  0  0  0  0  0
   -3.0066    3.4054    0.0000 C   0  0  0  0  0  0  0  0  0  0  0  0
   -2.2916    2.9929    0.0000 C   0  0  0  0  0  0  0  0  0  0  0  0
   -7.1684    5.1196    0.0000 C   0  0  0  0  0  0  0  0  0  0  0  0
   -7.9934    3.6987    0.0000 C   0  0  0  0  0  0  0  0  0  0  0  0
   -8.4059    4.4046    0.0000 C   0  0  0  0  0  0  0  0  0  0  0  0
   -7.9934    5.1196    0.0000 C   0  0  0  0  0  0  0  0  0  0  0  0
  2  1  1  0  0  0  0
  3  7  1  0  0  0  0
  4  1  2  0  0  0  0
  5  1  1  0  0  0  0
  6  2  1  0  0  0  0
  7 16  1  0  0  0  0
  8  3  1  0  0  0  0
  9  3  1  0  0  0  0
 10 17  1  0  0  0  0
 11  6  1  0  0  0  0
 12 10  1  0  0  0  0
 13  4  1  0  0  0  0
 14  5  1  0  0  0  0
 15  2  1  0  0  0  0
 16 11  2  0  0  0  0
 17 15  1  0  0  0  0
 18 20  2  0  0  0  0
 19  6  2  0  0  0  0
 20 10  1  0  0  0  0
 21  8  1  0  0  0  0
 22  9  1  0  0  0  0
 23  8  2  0  0  0  0
 24  9  2  0  0  0  0
 25 12  2  0  0  0  0
 26 28  1  0  0  0  0
 27 11  1  0  0  0  0
 28 27  2  0  0  0  0
 29 13  1  0  0  0  0
 30 14  1  0  0  0  0
 31 30  2  0  0  0  0
 32 29  2  0  0  0  0
 13 14  2  0  0  0  0
 31 32  1  0  0  0  0
 25 18  1  0  0  0  0
  7 26  2  0  0  0  0
 22 21  1  0  0  0  0
M  END
>  <IDNUMBER>
F5581-0025

>  <Chemical_Name>
N-(1,3-benzothiazol-2-yl)-3-(2,5-dioxopyrrolidin-1-yl)-N-[2-(1H-pyrazol-1-yl)ethyl]benzamide

>  <PriceCoeff>
1.00

>  <MW>
445.50

>  <Description>
solid

>  <FSP3>
0.17

>  <clogP>
1.08

>  <TPSA>
55.86

>  <Acceptor>
5

>  <Donor>
0

>  <RotBonds>
7

>  <HAC>
32

>  <Collection>
General

$$$$
F5581-0445
  Mrv2219 10102508112D          

 34 38  0  0  0  0            999 V2000
   -5.8529    3.4191    0.0000 C   0  0  0  0  0  0  0  0  0  0  0  0
   -5.1287    2.9929    0.0000 N   0  0  0  0  0  0  0  0  0  0  0  0
   -2.9975    0.9304    0.0000 N   0  0  0  0  0  0  0  0  0  0  0  0
   -5.9354    4.2441    0.0000 N   0  0  0  0  0  0  0  0  0  0  0  0
   -6.6000    3.0891    0.0000 S   0  0  0  0  0  0  0  0  0  0  0  0
   -4.4229    3.4054    0.0000 C   0  0  0  0  0  0  0  0  0  0  0  0
   -2.9929    1.7554    0.0000 C   0  0  0  0  0  0  0  0  0  0  0  0
   -7.1546    3.7079    0.0000 C   0  0  0  0  0  0  0  0  0  0  0  0
   -2.3604    0.4216    0.0000 C   0  0  0  0  0  0  0  0  0  0  0  0
   -3.6850    0.4766    0.0000 C   0  0  0  0  0  0  0  0  0  0  0  0
   -6.7421    4.4138    0.0000 C   0  0  0  0  0  0  0  0  0  0  0  0
   -5.8529    0.9304    0.0000 N   0  0  0  0  0  0  0  0  0  0  0  0
   -3.7079    2.9929    0.0000 C   0  0  0  0  0  0  0  0  0  0  0  0
   -5.2341    0.3713    0.0000 N   0  0  0  0  0  0  0  0  0  0  0  0
   -5.1379    2.1679    0.0000 C   0  0  0  0  0  0  0  0  0  0  0  0
   -3.7079    2.1679    0.0000 C   0  0  0  0  0  0  0  0  0  0  0  0
   -7.9796    3.7079    0.0000 C   0  0  0  0  0  0  0  0  0  0  0  0
   -5.8529    1.7554    0.0000 C   0  0  0  0  0  0  0  0  0  0  0  0
   -6.3891   -0.2934    0.0000 C   0  0  0  0  0  0  0  0  0  0  0  0
   -4.4229    4.2304    0.0000 O   0  0  0  0  0  0  0  0  0  0  0  0
   -6.5679    0.5179    0.0000 C   0  0  0  0  0  0  0  0  0  0  0  0
   -2.6491   -0.3484    0.0000 C   0  0  0  0  0  0  0  0  0  0  0  0
   -3.4604   -0.3209    0.0000 C   0  0  0  0  0  0  0  0  0  0  0  0
   -1.5629    0.6416    0.0000 O   0  0  0  0  0  0  0  0  0  0  0  0
   -4.4688    0.7654    0.0000 O   0  0  0  0  0  0  0  0  0  0  0  0
   -5.5779   -0.3759    0.0000 C   0  0  0  0  0  0  0  0  0  0  0  0
   -7.1546    5.1196    0.0000 C   0  0  0  0  0  0  0  0  0  0  0  0
   -8.3921    4.4138    0.0000 C   0  0  0  0  0  0  0  0  0  0  0  0
   -7.9796    5.1196    0.0000 C   0  0  0  0  0  0  0  0  0  0  0  0
   -2.2779    2.1679    0.0000 C   0  0  0  0  0  0  0  0  0  0  0  0
   -2.9929    3.4054    0.0000 C   0  0  0  0  0  0  0  0  0  0  0  0
   -9.2171    4.4138    0.0000 O   0  0  0  0  0  0  0  0  0  0  0  0
   -2.2779    2.9929    0.0000 C   0  0  0  0  0  0  0  0  0  0  0  0
   -9.6296    5.1196    0.0000 C   0  0  0  0  0  0  0  0  0  0  0  0
  2  1  1  0  0  0  0
  3  7  1  0  0  0  0
  4  1  2  0  0  0  0
  5  1  1  0  0  0  0
  6  2  1  0  0  0  0
  7 16  1  0  0  0  0
  8  5  1  0  0  0  0
  9  3  1  0  0  0  0
 10  3  1  0  0  0  0
 11  4  1  0  0  0  0
 12 18  1  0  0  0  0
 13  6  1  0  0  0  0
 14 12  1  0  0  0  0
 15  2  1  0  0  0  0
 16 13  2  0  0  0  0
 17  8  1  0  0  0  0
 18 15  1  0  0  0  0
 19 21  2  0  0  0  0
 20  6  2  0  0  0  0
 21 12  1  0  0  0  0
 22  9  1  0  0  0  0
 23 10  1  0  0  0  0
 24  9  2  0  0  0  0
 25 10  2  0  0  0  0
 26 14  2  0  0  0  0
 27 11  1  0  0  0  0
 28 17  2  0  0  0  0
 29 27  2  0  0  0  0
 30 33  1  0  0  0  0
 31 13  1  0  0  0  0
 32 28  1  0  0  0  0
 33 31  2  0  0  0  0
 34 32  1  0  0  0  0
 11  8  2  0  0  0  0
 28 29  1  0  0  0  0
 26 19  1  0  0  0  0
  7 30  2  0  0  0  0
 23 22  1  0  0  0  0
M  END
>  <IDNUMBER>
F5581-0445

>  <Chemical_Name>
3-(2,5-dioxopyrrolidin-1-yl)-N-(6-methoxy-1,3-benzothiazol-2-yl)-N-[2-(1H-pyrazol-1-yl)ethyl]benzamide

>  <PriceCoeff>
1.00

>  <CAS>
1170508-90-3

>  <MW>
475.52

>  <Description>
solid

>  <FSP3>
0.21

>  <clogP>
1.38

>  <TPSA>
125.87

>  <Acceptor>
6

>  <Donor>
0

>  <RotBonds>
8

>  <HAC>
34

>  <Collection>
General

>  <PPDS>
+

$$$$
F5581-0655
  Mrv2219 10102508112D          

 33 37  0  0  0  0            999 V2000
   -5.8666    3.4191    0.0000 C   0  0  0  0  0  0  0  0  0  0  0  0
   -5.1516    2.9929    0.0000 N   0  0  0  0  0  0  0  0  0  0  0  0
   -3.0204    0.9304    0.0000 N   0  0  0  0  0  0  0  0  0  0  0  0
   -5.9491    4.2441    0.0000 N   0  0  0  0  0  0  0  0  0  0  0  0
   -6.6184    3.0891    0.0000 S   0  0  0  0  0  0  0  0  0  0  0  0
   -4.4366    3.4054    0.0000 C   0  0  0  0  0  0  0  0  0  0  0  0
   -3.0112    1.7554    0.0000 C   0  0  0  0  0  0  0  0  0  0  0  0
   -7.1684    3.6987    0.0000 C   0  0  0  0  0  0  0  0  0  0  0  0
   -2.3741    0.4125    0.0000 C   0  0  0  0  0  0  0  0  0  0  0  0
   -3.7079    0.4675    0.0000 C   0  0  0  0  0  0  0  0  0  0  0  0
   -6.7559    4.4046    0.0000 C   0  0  0  0  0  0  0  0  0  0  0  0
   -5.8666    0.9213    0.0000 N   0  0  0  0  0  0  0  0  0  0  0  0
   -3.7216    2.9929    0.0000 C   0  0  0  0  0  0  0  0  0  0  0  0
   -5.2616    0.3666    0.0000 N   0  0  0  0  0  0  0  0  0  0  0  0
   -5.1563    2.1587    0.0000 C   0  0  0  0  0  0  0  0  0  0  0  0
   -3.7216    2.1679    0.0000 C   0  0  0  0  0  0  0  0  0  0  0  0
   -7.9934    3.6987    0.0000 C   0  0  0  0  0  0  0  0  0  0  0  0
   -5.8666    1.7462    0.0000 C   0  0  0  0  0  0  0  0  0  0  0  0
   -6.4029   -0.3025    0.0000 C   0  0  0  0  0  0  0  0  0  0  0  0
   -4.4366    4.2304    0.0000 O   0  0  0  0  0  0  0  0  0  0  0  0
   -6.5816    0.5088    0.0000 C   0  0  0  0  0  0  0  0  0  0  0  0
   -2.6675   -0.3575    0.0000 C   0  0  0  0  0  0  0  0  0  0  0  0
   -3.4741   -0.3300    0.0000 C   0  0  0  0  0  0  0  0  0  0  0  0
   -1.5766    0.6325    0.0000 O   0  0  0  0  0  0  0  0  0  0  0  0
   -4.4916    0.7563    0.0000 O   0  0  0  0  0  0  0  0  0  0  0  0
   -5.5916   -0.3850    0.0000 C   0  0  0  0  0  0  0  0  0  0  0  0
   -7.1684    5.1196    0.0000 C   0  0  0  0  0  0  0  0  0  0  0  0
   -8.4059    4.4046    0.0000 C   0  0  0  0  0  0  0  0  0  0  0  0
   -7.9934    5.1196    0.0000 C   0  0  0  0  0  0  0  0  0  0  0  0
   -9.2309    4.4046    0.0000 F   0  0  0  0  0  0  0  0  0  0  0  0
   -2.2916    2.1679    0.0000 C   0  0  0  0  0  0  0  0  0  0  0  0
   -3.0066    3.4054    0.0000 C   0  0  0  0  0  0  0  0  0  0  0  0
   -2.2916    2.9929    0.0000 C   0  0  0  0  0  0  0  0  0  0  0  0
  2  1  1  0  0  0  0
  3  7  1  0  0  0  0
  4  1  2  0  0  0  0
  5  1  1  0  0  0  0
  6  2  1  0  0  0  0
  7 16  1  0  0  0  0
  8  5  1  0  0  0  0
  9  3  1  0  0  0  0
 10  3  1  0  0  0  0
 11  4  1  0  0  0  0
 12 18  1  0  0  0  0
 13  6  1  0  0  0  0
 14 12  1  0  0  0  0
 15  2  1  0  0  0  0
 16 13  2  0  0  0  0
 17  8  1  0  0  0  0
 18 15  1  0  0  0  0
 19 21  2  0  0  0  0
 20  6  2  0  0  0  0
 21 12  1  0  0  0  0
 22  9  1  0  0  0  0
 23 10  1  0  0  0  0
 24  9  2  0  0  0  0
 25 10  2  0  0  0  0
 26 14  2  0  0  0  0
 27 11  1  0  0  0  0
 28 17  2  0  0  0  0
 29 27  2  0  0  0  0
 30 28  1  0  0  0  0
 31 33  1  0  0  0  0
 32 13  1  0  0  0  0
 33 32  2  0  0  0  0
 11  8  2  0  0  0  0
 28 29  1  0  0  0  0
 26 19  1  0  0  0  0
  7 31  2  0  0  0  0
 23 22  1  0  0  0  0
M  END
>  <IDNUMBER>
F5581-0655

>  <Chemical_Name>
3-(2,5-dioxopyrrolidin-1-yl)-N-(6-fluoro-1,3-benzothiazol-2-yl)-N-[2-(1H-pyrazol-1-yl)ethyl]benzamide

>  <PriceCoeff>
1.00

>  <CAS>
1172810-83-1

>  <MW>
463.48

>  <Description>
solid

>  <FSP3>
0.17

>  <clogP>
1.25

>  <TPSA>
116.64

>  <Acceptor>
5

>  <Donor>
0

>  <RotBonds>
7

>  <HAC>
33

>  <Collection>
General

>  <PPDS>
+

$$$$
F5581-0865
  Mrv2219 10102508112D          

 35 39  0  0  0  0            999 V2000
   -5.8666    3.4191    0.0000 C   0  0  0  0  0  0  0  0  0  0  0  0
   -5.9491    4.2441    0.0000 N   0  0  0  0  0  0  0  0  0  0  0  0
   -5.1516    2.9929    0.0000 N   0  0  0  0  0  0  0  0  0  0  0  0
   -3.0204    0.9304    0.0000 N   0  0  0  0  0  0  0  0  0  0  0  0
   -6.6184    3.0891    0.0000 S   0  0  0  0  0  0  0  0  0  0  0  0
   -4.4366    3.4054    0.0000 C   0  0  0  0  0  0  0  0  0  0  0  0
   -6.7559    4.4046    0.0000 C   0  0  0  0  0  0  0  0  0  0  0  0
   -3.0112    1.7554    0.0000 C   0  0  0  0  0  0  0  0  0  0  0  0
   -2.3741    0.4125    0.0000 C   0  0  0  0  0  0  0  0  0  0  0  0
   -3.7079    0.4675    0.0000 C   0  0  0  0  0  0  0  0  0  0  0  0
   -7.1684    3.6987    0.0000 C   0  0  0  0  0  0  0  0  0  0  0  0
   -5.8666    0.9213    0.0000 N   0  0  0  0  0  0  0  0  0  0  0  0
   -3.7216    2.9929    0.0000 C   0  0  0  0  0  0  0  0  0  0  0  0
   -5.2616    0.3666    0.0000 N   0  0  0  0  0  0  0  0  0  0  0  0
   -5.1563    2.1587    0.0000 C   0  0  0  0  0  0  0  0  0  0  0  0
   -3.7216    2.1679    0.0000 C   0  0  0  0  0  0  0  0  0  0  0  0
   -5.8666    1.7462    0.0000 C   0  0  0  0  0  0  0  0  0  0  0  0
   -6.4029   -0.3025    0.0000 C   0  0  0  0  0  0  0  0  0  0  0  0
   -4.4366    4.2304    0.0000 O   0  0  0  0  0  0  0  0  0  0  0  0
   -6.5816    0.5088    0.0000 C   0  0  0  0  0  0  0  0  0  0  0  0
   -7.1684    5.1196    0.0000 C   0  0  0  0  0  0  0  0  0  0  0  0
   -2.6675   -0.3575    0.0000 C   0  0  0  0  0  0  0  0  0  0  0  0
   -3.4741   -0.3300    0.0000 C   0  0  0  0  0  0  0  0  0  0  0  0
   -1.5766    0.6325    0.0000 O   0  0  0  0  0  0  0  0  0  0  0  0
   -4.4916    0.7563    0.0000 O   0  0  0  0  0  0  0  0  0  0  0  0
   -5.5916   -0.3850    0.0000 C   0  0  0  0  0  0  0  0  0  0  0  0
   -2.2916    2.1679    0.0000 C   0  0  0  0  0  0  0  0  0  0  0  0
   -6.7559    5.8438    0.0000 O   0  0  0  0  0  0  0  0  0  0  0  0
   -7.9934    3.6987    0.0000 C   0  0  0  0  0  0  0  0  0  0  0  0
   -3.0066    3.4054    0.0000 C   0  0  0  0  0  0  0  0  0  0  0  0
   -2.2916    2.9929    0.0000 C   0  0  0  0  0  0  0  0  0  0  0  0
   -8.4059    4.4046    0.0000 C   0  0  0  0  0  0  0  0  0  0  0  0
   -7.9934    5.1196    0.0000 C   0  0  0  0  0  0  0  0  0  0  0  0
   -5.9354    5.8438    0.0000 C   0  0  0  0  0  0  0  0  0  0  0  0
   -5.5229    6.5496    0.0000 C   0  0  0  0  0  0  0  0  0  0  0  0
  2  1  2  0  0  0  0
  3  1  1  0  0  0  0
  4  8  1  0  0  0  0
  5  1  1  0  0  0  0
  6  3  1  0  0  0  0
  7  2  1  0  0  0  0
  8 16  1  0  0  0  0
  9  4  1  0  0  0  0
 10  4  1  0  0  0  0
 11  5  1  0  0  0  0
 12 17  1  0  0  0  0
 13  6  1  0  0  0  0
 14 12  1  0  0  0  0
 15  3  1  0  0  0  0
 16 13  2  0  0  0  0
 17 15  1  0  0  0  0
 18 20  2  0  0  0  0
 19  6  2  0  0  0  0
 20 12  1  0  0  0  0
 21  7  1  0  0  0  0
 22  9  1  0  0  0  0
 23 10  1  0  0  0  0
 24  9  2  0  0  0  0
 25 10  2  0  0  0  0
 26 14  2  0  0  0  0
 27 31  1  0  0  0  0
 28 21  1  0  0  0  0
 29 11  1  0  0  0  0
 30 13  1  0  0  0  0
 31 30  2  0  0  0  0
 32 29  2  0  0  0  0
 33 21  2  0  0  0  0
 34 28  1  0  0  0  0
 35 34  1  0  0  0  0
  7 11  2  0  0  0  0
 32 33  1  0  0  0  0
 26 18  1  0  0  0  0
  8 27  2  0  0  0  0
 23 22  1  0  0  0  0
M  END
>  <IDNUMBER>
F5581-0865

>  <Chemical_Name>
3-(2,5-dioxopyrrolidin-1-yl)-N-(4-ethoxy-1,3-benzothiazol-2-yl)-N-[2-(1H-pyrazol-1-yl)ethyl]benzamide

>  <PriceCoeff>
1.00

>  <CAS>
1171601-06-1

>  <MW>
489.55

>  <Description>
solid

>  <FSP3>
0.24

>  <clogP>
1.90

>  <TPSA>
125.87

>  <Acceptor>
6

>  <Donor>
0

>  <RotBonds>
9

>  <HAC>
35

>  <Collection>
General

>  <PPDS>
+

$$$$
F5581-1075
  Mrv2219 10102508112D          

 34 38  0  0  0  0            999 V2000
   -5.8666    3.4191    0.0000 C   0  0  0  0  0  0  0  0  0  0  0  0
   -5.9491    4.2441    0.0000 N   0  0  0  0  0  0  0  0  0  0  0  0
   -5.1516    2.9929    0.0000 N   0  0  0  0  0  0  0  0  0  0  0  0
   -3.0204    0.9304    0.0000 N   0  0  0  0  0  0  0  0  0  0  0  0
   -6.6184    3.0891    0.0000 S   0  0  0  0  0  0  0  0  0  0  0  0
   -4.4366    3.4054    0.0000 C   0  0  0  0  0  0  0  0  0  0  0  0
   -6.7559    4.4046    0.0000 C   0  0  0  0  0  0  0  0  0  0  0  0
   -7.1684    3.6987    0.0000 C   0  0  0  0  0  0  0  0  0  0  0  0
   -3.0112    1.7554    0.0000 C   0  0  0  0  0  0  0  0  0  0  0  0
   -2.3741    0.4125    0.0000 C   0  0  0  0  0  0  0  0  0  0  0  0
   -3.7079    0.4675    0.0000 C   0  0  0  0  0  0  0  0  0  0  0  0
   -5.8666    0.9213    0.0000 N   0  0  0  0  0  0  0  0  0  0  0  0
   -3.7216    2.9929    0.0000 C   0  0  0  0  0  0  0  0  0  0  0  0
   -5.2616    0.3666    0.0000 N   0  0  0  0  0  0  0  0  0  0  0  0
   -7.1684    5.1196    0.0000 C   0  0  0  0  0  0  0  0  0  0  0  0
   -5.1563    2.1587    0.0000 C   0  0  0  0  0  0  0  0  0  0  0  0
   -3.7216    2.1679    0.0000 C   0  0  0  0  0  0  0  0  0  0  0  0
   -7.9934    3.6987    0.0000 C   0  0  0  0  0  0  0  0  0  0  0  0
   -5.8666    1.7462    0.0000 C   0  0  0  0  0  0  0  0  0  0  0  0
   -6.4029   -0.3025    0.0000 C   0  0  0  0  0  0  0  0  0  0  0  0
   -4.4366    4.2304    0.0000 O   0  0  0  0  0  0  0  0  0  0  0  0
   -6.5816    0.5088    0.0000 C   0  0  0  0  0  0  0  0  0  0  0  0
   -7.9934    5.1196    0.0000 C   0  0  0  0  0  0  0  0  0  0  0  0
   -2.6675   -0.3575    0.0000 C   0  0  0  0  0  0  0  0  0  0  0  0
   -3.4741   -0.3300    0.0000 C   0  0  0  0  0  0  0  0  0  0  0  0
   -1.5766    0.6325    0.0000 O   0  0  0  0  0  0  0  0  0  0  0  0
   -4.4916    0.7563    0.0000 O   0  0  0  0  0  0  0  0  0  0  0  0
   -8.4059    4.4046    0.0000 C   0  0  0  0  0  0  0  0  0  0  0  0
   -5.5916   -0.3850    0.0000 C   0  0  0  0  0  0  0  0  0  0  0  0
   -2.2916    2.1679    0.0000 C   0  0  0  0  0  0  0  0  0  0  0  0
   -3.0066    3.4054    0.0000 C   0  0  0  0  0  0  0  0  0  0  0  0
   -6.7559    5.8438    0.0000 C   0  0  0  0  0  0  0  0  0  0  0  0
   -2.2916    2.9929    0.0000 C   0  0  0  0  0  0  0  0  0  0  0  0
   -9.2309    4.4046    0.0000 C   0  0  0  0  0  0  0  0  0  0  0  0
  2  1  2  0  0  0  0
  3  1  1  0  0  0  0
  4  9  1  0  0  0  0
  5  1  1  0  0  0  0
  6  3  1  0  0  0  0
  7  2  1  0  0  0  0
  8  5  1  0  0  0  0
  9 17  1  0  0  0  0
 10  4  1  0  0  0  0
 11  4  1  0  0  0  0
 12 19  1  0  0  0  0
 13  6  1  0  0  0  0
 14 12  1  0  0  0  0
 15  7  1  0  0  0  0
 16  3  1  0  0  0  0
 17 13  2  0  0  0  0
 18  8  1  0  0  0  0
 19 16  1  0  0  0  0
 20 22  2  0  0  0  0
 21  6  2  0  0  0  0
 22 12  1  0  0  0  0
 23 15  2  0  0  0  0
 24 10  1  0  0  0  0
 25 11  1  0  0  0  0
 26 10  2  0  0  0  0
 27 11  2  0  0  0  0
 28 18  2  0  0  0  0
 29 14  2  0  0  0  0
 30 33  1  0  0  0  0
 31 13  1  0  0  0  0
 32 15  1  0  0  0  0
 33 31  2  0  0  0  0
 34 28  1  0  0  0  0
  7  8  2  0  0  0  0
 28 23  1  0  0  0  0
 29 20  1  0  0  0  0
  9 30  2  0  0  0  0
 25 24  1  0  0  0  0
M  END
>  <IDNUMBER>
F5581-1075

>  <Chemical_Name>
N-(4,6-dimethyl-1,3-benzothiazol-2-yl)-3-(2,5-dioxopyrrolidin-1-yl)-N-[2-(1H-pyrazol-1-yl)ethyl]benzamide

>  <PriceCoeff>
1.00

>  <CAS>
1171660-43-7

>  <MW>
473.55

>  <Description>
solid

>  <FSP3>
0.24

>  <clogP>
2.08

>  <TPSA>
116.64

>  <Acceptor>
5

>  <Donor>
0

>  <RotBonds>
7

>  <HAC>
34

>  <Collection>
General

>  <PPDS>
+

$$$$
F5592-0043
  Mrv2219 10102508112D          

 31 34  0  0  0  0            999 V2000
   -3.7375   -0.1917    0.0000 S   0  0  0  0  0  0  0  0  0  0  0  0
   -3.7458   -1.8417    0.0000 N   0  0  0  0  0  0  0  0  0  0  0  0
    2.0167    2.3583    0.0000 N   0  0  0  0  0  0  0  0  0  0  0  0
    1.2625    2.6958    0.0000 C   0  0  0  0  0  0  0  0  0  0  0  0
   -3.0208    0.2125    0.0000 N   0  0  0  0  0  0  0  0  0  0  0  0
    1.3417    3.5208    0.0000 N   0  0  0  0  0  0  0  0  0  0  0  0
   -4.4583   -0.6042    0.0000 C   0  0  0  0  0  0  0  0  0  0  0  0
   -1.5958    1.0333    0.0000 N   0  0  0  0  0  0  0  0  0  0  0  0
   -3.7458   -2.6667    0.0000 C   0  0  0  0  0  0  0  0  0  0  0  0
   -3.0333   -1.4292    0.0000 C   0  0  0  0  0  0  0  0  0  0  0  0
    0.5500    2.2708    0.0000 C   0  0  0  0  0  0  0  0  0  0  0  0
   -0.8833    1.4458    0.0000 C   0  0  0  0  0  0  0  0  0  0  0  0
    2.5667    2.9708    0.0000 C   0  0  0  0  0  0  0  0  0  0  0  0
   -0.1708    1.0333    0.0000 N   0  0  0  0  0  0  0  0  0  0  0  0
   -4.4583   -1.4375    0.0000 C   0  0  0  0  0  0  0  0  0  0  0  0
    2.1500    3.6875    0.0000 O   0  0  0  0  0  0  0  0  0  0  0  0
   -2.3083   -0.2000    0.0000 C   0  0  0  0  0  0  0  0  0  0  0  0
   -3.0208    1.0375    0.0000 C   0  0  0  0  0  0  0  0  0  0  0  0
   -4.1458    0.5208    0.0000 O   0  0  0  0  0  0  0  0  0  0  0  0
   -3.3333   -0.9125    0.0000 O   0  0  0  0  0  0  0  0  0  0  0  0
    0.5500    1.4458    0.0000 C   0  0  0  0  0  0  0  0  0  0  0  0
   -1.5875    0.2083    0.0000 C   0  0  0  0  0  0  0  0  0  0  0  0
   -2.3083    1.4458    0.0000 C   0  0  0  0  0  0  0  0  0  0  0  0
   -0.1708    2.6833    0.0000 C   0  0  0  0  0  0  0  0  0  0  0  0
   -4.4583   -3.0792    0.0000 O   0  0  0  0  0  0  0  0  0  0  0  0
   -3.0250   -0.6042    0.0000 O   0  0  0  0  0  0  0  0  0  0  0  0
   -0.8833    2.2708    0.0000 C   0  0  0  0  0  0  0  0  0  0  0  0
   -2.3208   -1.8375    0.0000 C   0  0  0  0  0  0  0  0  0  0  0  0
   -3.0333   -3.0792    0.0000 C   0  0  0  0  0  0  0  0  0  0  0  0
    3.3875    2.8958    0.0000 C   0  0  0  0  0  0  0  0  0  0  0  0
   -2.3208   -2.6625    0.0000 C   0  0  0  0  0  0  0  0  0  0  0  0
  2 15  1  0  0  0  0
  3  4  1  0  0  0  0
  4 11  1  0  0  0  0
  5  1  1  0  0  0  0
  6  4  2  0  0  0  0
  7  1  1  0  0  0  0
  8 23  1  0  0  0  0
  9  2  1  0  0  0  0
 10  2  1  0  0  0  0
 11 24  2  0  0  0  0
 12  8  1  0  0  0  0
 13  3  2  0  0  0  0
 14 12  1  0  0  0  0
 15  7  1  0  0  0  0
 16  6  1  0  0  0  0
 17  5  1  0  0  0  0
 18  5  1  0  0  0  0
 19  1  2  0  0  0  0
 20  1  2  0  0  0  0
 21 14  2  0  0  0  0
 22 17  1  0  0  0  0
 23 18  1  0  0  0  0
 24 27  1  0  0  0  0
 25  9  2  0  0  0  0
 26 10  2  0  0  0  0
 27 12  2  0  0  0  0
 28 10  1  0  0  0  0
 29  9  1  0  0  0  0
 30 13  1  0  0  0  0
 31 28  1  0  0  0  0
  8 22  1  0  0  0  0
 31 29  1  0  0  0  0
 11 21  1  0  0  0  0
 16 13  1  0  0  0  0
M  END
>  <IDNUMBER>
F5592-0043

>  <Chemical_Name>
1-[2-({4-[5-(5-methyl-1,2,4-oxadiazol-3-yl)pyridin-2-yl]piperazin-1-yl}sulfonyl)ethyl]piperidine-2,6-dione

>  <PriceCoeff>
1.00

>  <CAS>
1421457-56-8

>  <MW>
448.50

>  <Description>
solid

>  <FSP3>
0.53

>  <clogP>
1.03

>  <TPSA>
138.19

>  <Acceptor>
8

>  <Donor>
2

>  <RotBonds>
6

>  <HAC>
31

>  <Collection>
General

>  <PPDS>
+

$$$$
F5610-0162
  Mrv2219 10102508112D          

 24 26  0  0  0  0            999 V2000
    1.7268   -0.1544    0.0000 C   0  0  0  0  0  0  0  0  0  0  0  0
    0.7925   -1.7560    0.0000 N   0  0  0  0  0  0  0  0  0  0  0  0
    2.3232   -0.7175    0.0000 N   0  0  0  0  0  0  0  0  0  0  0  0
    0.9051   -0.2753    0.0000 C   0  0  0  0  0  0  0  0  0  0  0  0
    1.5809   -2.0021    0.0000 C   0  0  0  0  0  0  0  0  0  0  0  0
    0.4922   -0.9885    0.0000 C   0  0  0  0  0  0  0  0  0  0  0  0
    2.2566   -1.5308    0.0000 C   0  0  0  0  0  0  0  0  0  0  0  0
    4.4171   -2.7821    0.0000 N   0  0  0  0  0  0  0  0  0  0  0  0
    3.7039   -3.1950    0.0000 C   0  0  0  0  0  0  0  0  0  0  0  0
    1.9813    0.6465    0.0000 O   0  0  0  0  0  0  0  0  0  0  0  0
    1.7185   -2.8280    0.0000 O   0  0  0  0  0  0  0  0  0  0  0  0
    2.9906   -2.7821    0.0000 C   0  0  0  0  0  0  0  0  0  0  0  0
    3.7039   -4.0292    0.0000 O   0  0  0  0  0  0  0  0  0  0  0  0
    2.9823   -1.9520    0.0000 C   0  0  0  0  0  0  0  0  0  0  0  0
    0.4922    0.4463    0.0000 C   0  0  0  0  0  0  0  0  0  0  0  0
    5.0595   -3.2951    0.0000 C   0  0  0  0  0  0  0  0  0  0  0  0
    4.4171   -1.9562    0.0000 C   0  0  0  0  0  0  0  0  0  0  0  0
   -0.3379   -0.9885    0.0000 C   0  0  0  0  0  0  0  0  0  0  0  0
   -0.3379    0.4463    0.0000 C   0  0  0  0  0  0  0  0  0  0  0  0
    5.0595   -1.4432    0.0000 C   0  0  0  0  0  0  0  0  0  0  0  0
    5.8603   -3.1158    0.0000 C   0  0  0  0  0  0  0  0  0  0  0  0
   -0.7508   -0.2753    0.0000 C   0  0  0  0  0  0  0  0  0  0  0  0
    6.2190   -2.3775    0.0000 C   0  0  0  0  0  0  0  0  0  0  0  0
    5.8603   -1.6267    0.0000 C   0  0  0  0  0  0  0  0  0  0  0  0
  2  6  1  0  0  0  0
  3  1  1  0  0  0  0
  4  1  1  0  0  0  0
  5  7  1  0  0  0  0
  6  4  1  0  0  0  0
  7  3  1  0  0  0  0
  8  9  1  0  0  0  0
  9 12  1  0  0  0  0
 10  1  2  0  0  0  0
 11  5  2  0  0  0  0
 12 14  1  0  0  0  0
 13  9  2  0  0  0  0
 14  7  1  0  0  0  0
 15  4  2  0  0  0  0
 16  8  1  0  0  0  0
 17  8  1  0  0  0  0
 18  6  2  0  0  0  0
 19 15  1  0  0  0  0
 20 17  1  0  0  0  0
 21 16  1  0  0  0  0
 22 19  2  0  0  0  0
 23 21  1  0  0  0  0
 24 20  1  0  0  0  0
  2  5  1  0  0  0  0
 22 18  1  0  0  0  0
 23 24  1  0  0  0  0
M  END
>  <IDNUMBER>
F5610-0162

>  <Chemical_Name>
3-[3-(azepan-1-yl)-3-oxopropyl]-2,3,4,5-tetrahydro-1H-1,4-benzodiazepine-2,5-dione

>  <PriceCoeff>
1.50

>  <CAS>
1190758-47-4

>  <MW>
329.39

>  <Description>
solid

>  <FSP3>
0.50

>  <clogP>
0.56

>  <TPSA>
78.51

>  <Acceptor>
3

>  <Donor>
2

>  <RotBonds>
4

>  <HAC>
24

>  <Collection>
Advanced

>  <PPDS>
+

$$$$
F5610-0202
  Mrv2219 10102508112D          

 24 26  0  0  0  0            999 V2000
    2.5792   -0.6875    0.0000 C   0  0  0  0  0  0  0  0  0  0  0  0
    1.6500   -2.2917    0.0000 N   0  0  0  0  0  0  0  0  0  0  0  0
    3.1792   -1.2542    0.0000 N   0  0  0  0  0  0  0  0  0  0  0  0
    1.7542   -0.8042    0.0000 C   0  0  0  0  0  0  0  0  0  0  0  0
    2.4375   -2.5292    0.0000 C   0  0  0  0  0  0  0  0  0  0  0  0
    5.2667   -3.3167    0.0000 N   0  0  0  0  0  0  0  0  0  0  0  0
    1.3417   -1.5167    0.0000 C   0  0  0  0  0  0  0  0  0  0  0  0
    4.5542   -3.7292    0.0000 C   0  0  0  0  0  0  0  0  0  0  0  0
    3.1125   -2.0667    0.0000 C   0  0  0  0  0  0  0  0  0  0  0  0
    5.9792   -3.7292    0.0000 C   0  0  0  0  0  0  0  0  0  0  0  0
    2.8375    0.1083    0.0000 O   0  0  0  0  0  0  0  0  0  0  0  0
    2.5667   -3.3542    0.0000 O   0  0  0  0  0  0  0  0  0  0  0  0
    3.8417   -3.3167    0.0000 C   0  0  0  0  0  0  0  0  0  0  0  0
    4.5542   -4.5542    0.0000 O   0  0  0  0  0  0  0  0  0  0  0  0
    3.8375   -2.4792    0.0000 C   0  0  0  0  0  0  0  0  0  0  0  0
    5.2667   -2.4875    0.0000 C   0  0  0  0  0  0  0  0  0  0  0  0
    1.3417   -0.0917    0.0000 C   0  0  0  0  0  0  0  0  0  0  0  0
    6.7000   -3.3167    0.0000 C   0  0  0  0  0  0  0  0  0  0  0  0
    0.5167   -1.5167    0.0000 C   0  0  0  0  0  0  0  0  0  0  0  0
    5.9792   -2.0750    0.0000 C   0  0  0  0  0  0  0  0  0  0  0  0
    6.7000   -2.4875    0.0000 C   0  0  0  0  0  0  0  0  0  0  0  0
    7.4125   -3.7292    0.0000 C   0  0  0  0  0  0  0  0  0  0  0  0
    0.5167   -0.0917    0.0000 C   0  0  0  0  0  0  0  0  0  0  0  0
    0.1042   -0.8125    0.0000 C   0  0  0  0  0  0  0  0  0  0  0  0
  2  7  1  0  0  0  0
  3  1  1  0  0  0  0
  4  1  1  0  0  0  0
  5  9  1  0  0  0  0
  6  8  1  0  0  0  0
  7  4  1  0  0  0  0
  8 13  1  0  0  0  0
  9  3  1  0  0  0  0
 10  6  1  0  0  0  0
 11  1  2  0  0  0  0
 12  5  2  0  0  0  0
 13 15  1  0  0  0  0
 14  8  2  0  0  0  0
 15  9  1  0  0  0  0
 16  6  1  0  0  0  0
 17  4  2  0  0  0  0
 18 10  1  0  0  0  0
 19  7  2  0  0  0  0
 20 16  1  0  0  0  0
 21 20  1  0  0  0  0
 22 18  1  0  0  0  0
 23 17  1  0  0  0  0
 24 23  2  0  0  0  0
  2  5  1  0  0  0  0
 19 24  1  0  0  0  0
 18 21  1  0  0  0  0
M  END
>  <IDNUMBER>
F5610-0202

>  <Chemical_Name>
3-[3-(3-methylpiperidin-1-yl)-3-oxopropyl]-2,3,4,5-tetrahydro-1H-1,4-benzodiazepine-2,5-dione

>  <PriceCoeff>
1.50

>  <CAS>
1192279-84-7

>  <MW>
329.39

>  <Description>
solid

>  <FSP3>
0.50

>  <clogP>
0.52

>  <TPSA>
78.51

>  <Acceptor>
3

>  <Donor>
2

>  <RotBonds>
4

>  <HAC>
24

>  <Collection>
Advanced

>  <PPDS>
+

$$$$
F5610-0213
  Mrv2219 10102508112D          

 26 28  0  0  0  0            999 V2000
    2.8900    0.3498    0.0000 C   0  0  0  0  0  0  0  0  0  0  0  0
    1.9656   -1.2535    0.0000 N   0  0  0  0  0  0  0  0  0  0  0  0
    3.4897   -0.2166    0.0000 N   0  0  0  0  0  0  0  0  0  0  0  0
    2.0696    0.2332    0.0000 C   0  0  0  0  0  0  0  0  0  0  0  0
    2.7526   -1.4908    0.0000 C   0  0  0  0  0  0  0  0  0  0  0  0
    1.6615   -0.4789    0.0000 C   0  0  0  0  0  0  0  0  0  0  0  0
    3.4272   -1.0286    0.0000 C   0  0  0  0  0  0  0  0  0  0  0  0
    4.8639   -2.6902    0.0000 C   0  0  0  0  0  0  0  0  0  0  0  0
    3.1524    1.1451    0.0000 O   0  0  0  0  0  0  0  0  0  0  0  0
    2.8858   -2.3154    0.0000 O   0  0  0  0  0  0  0  0  0  0  0  0
    4.8639   -3.5147    0.0000 O   0  0  0  0  0  0  0  0  0  0  0  0
    4.1518   -1.4409    0.0000 C   0  0  0  0  0  0  0  0  0  0  0  0
    5.5843   -2.2779    0.0000 N   0  0  0  0  0  0  0  0  0  0  0  0
    4.1518   -2.2779    0.0000 C   0  0  0  0  0  0  0  0  0  0  0  0
    1.6615    0.9453    0.0000 C   0  0  0  0  0  0  0  0  0  0  0  0
    6.2881   -2.7151    0.0000 C   0  0  0  0  0  0  0  0  0  0  0  0
    0.8287   -0.4789    0.0000 C   0  0  0  0  0  0  0  0  0  0  0  0
    7.7081   -2.7651    0.0000 C   0  0  0  0  0  0  0  0  0  0  0  0
    7.0210   -2.3404    0.0000 C   0  0  0  0  0  0  0  0  0  0  0  0
    7.6873   -3.5896    0.0000 C   0  0  0  0  0  0  0  0  0  0  0  0
    8.4494   -2.3861    0.0000 C   0  0  0  0  0  0  0  0  0  0  0  0
    0.8287    0.9453    0.0000 C   0  0  0  0  0  0  0  0  0  0  0  0
    0.4165    0.2249    0.0000 C   0  0  0  0  0  0  0  0  0  0  0  0
    9.1490   -2.8234    0.0000 C   0  0  0  0  0  0  0  0  0  0  0  0
    8.3952   -4.0269    0.0000 C   0  0  0  0  0  0  0  0  0  0  0  0
    9.1323   -3.6479    0.0000 C   0  0  0  0  0  0  0  0  0  0  0  0
  2  6  1  0  0  0  0
  3  1  1  0  0  0  0
  4  1  1  0  0  0  0
  5  7  1  0  0  0  0
  6  4  1  0  0  0  0
  7  3  1  0  0  0  0
  8 14  1  0  0  0  0
  9  1  2  0  0  0  0
 10  5  2  0  0  0  0
 11  8  2  0  0  0  0
 12  7  1  0  0  0  0
 13  8  1  0  0  0  0
 14 12  1  0  0  0  0
 15  4  2  0  0  0  0
 16 13  1  0  0  0  0
 17  6  2  0  0  0  0
 18 19  1  0  0  0  0
 19 16  1  0  0  0  0
 20 18  1  0  0  0  0
 21 18  2  0  0  0  0
 22 15  1  0  0  0  0
 23 22  2  0  0  0  0
 24 21  1  0  0  0  0
 25 20  2  0  0  0  0
 26 24  2  0  0  0  0
  2  5  1  0  0  0  0
 17 23  1  0  0  0  0
 26 25  1  0  0  0  0
M  END
>  <IDNUMBER>
F5610-0213

>  <Chemical_Name>
3-(2,5-dioxo-2,3,4,5-tetrahydro-1H-1,4-benzodiazepin-3-yl)-N-(2-phenylethyl)propanamide

>  <PriceCoeff>
1.00

>  <CAS>
1190844-90-6

>  <MW>
351.40

>  <Description>
solid

>  <FSP3>
0.25

>  <clogP>
1.04

>  <TPSA>
87.30

>  <Acceptor>
3

>  <Donor>
3

>  <RotBonds>
6

>  <HAC>
26

>  <Collection>
General

>  <PPDS>
+

$$$$
F5614-0448
  Mrv2219 10102508112D          

 27 30  0  0  0  0            999 V2000
   -2.4509    2.9895    0.0000 N   0  0  0  0  0  0  0  0  0  0  0  0
   -7.4321    1.7494    0.0000 C   0  0  0  0  0  0  0  0  0  0  0  0
   -7.5198    2.5678    0.0000 N   0  0  0  0  0  0  0  0  0  0  0  0
   -8.1836    1.4112    0.0000 N   0  0  0  0  0  0  0  0  0  0  0  0
   -3.8705    2.9895    0.0000 C   0  0  0  0  0  0  0  0  0  0  0  0
   -3.1565    2.5761    0.0000 C   0  0  0  0  0  0  0  0  0  0  0  0
   -2.3549    3.8037    0.0000 C   0  0  0  0  0  0  0  0  0  0  0  0
   -1.6910    2.6513    0.0000 C   0  0  0  0  0  0  0  0  0  0  0  0
   -8.7348    2.0250    0.0000 C   0  0  0  0  0  0  0  0  0  0  0  0
   -4.5928    2.5761    0.0000 N   0  0  0  0  0  0  0  0  0  0  0  0
   -8.3214    2.7390    0.0000 C   0  0  0  0  0  0  0  0  0  0  0  0
   -6.0124    1.7411    0.0000 N   0  0  0  0  0  0  0  0  0  0  0  0
   -6.7181    1.3277    0.0000 C   0  0  0  0  0  0  0  0  0  0  0  0
   -3.8705    3.8079    0.0000 O   0  0  0  0  0  0  0  0  0  0  0  0
   -1.1399    3.2525    0.0000 C   0  0  0  0  0  0  0  0  0  0  0  0
   -1.5490    3.9665    0.0000 C   0  0  0  0  0  0  0  0  0  0  0  0
   -1.5240    1.8246    0.0000 O   0  0  0  0  0  0  0  0  0  0  0  0
   -2.9644    4.3465    0.0000 O   0  0  0  0  0  0  0  0  0  0  0  0
   -4.5928    1.7411    0.0000 C   0  0  0  0  0  0  0  0  0  0  0  0
   -5.2985    2.9895    0.0000 C   0  0  0  0  0  0  0  0  0  0  0  0
   -5.2985    1.3361    0.0000 C   0  0  0  0  0  0  0  0  0  0  0  0
   -6.0124    2.5678    0.0000 C   0  0  0  0  0  0  0  0  0  0  0  0
   -8.3548    0.6012    0.0000 C   0  0  0  0  0  0  0  0  0  0  0  0
   -9.5489    2.0250    0.0000 C   0  0  0  0  0  0  0  0  0  0  0  0
   -8.7348    3.4529    0.0000 C   0  0  0  0  0  0  0  0  0  0  0  0
   -9.9748    2.7390    0.0000 C   0  0  0  0  0  0  0  0  0  0  0  0
   -9.5615    3.4529    0.0000 C   0  0  0  0  0  0  0  0  0  0  0  0
  2 13  1  0  0  0  0
  3  2  2  0  0  0  0
  4  2  1  0  0  0  0
  5  6  1  0  0  0  0
  6  1  1  0  0  0  0
  7  1  1  0  0  0  0
  8  1  1  0  0  0  0
  9  4  1  0  0  0  0
 10  5  1  0  0  0  0
 11  3  1  0  0  0  0
 12 22  1  0  0  0  0
 13 12  1  0  0  0  0
 14  5  2  0  0  0  0
 15  8  1  0  0  0  0
 16  7  1  0  0  0  0
 17  8  2  0  0  0  0
 18  7  2  0  0  0  0
 19 10  1  0  0  0  0
 20 10  1  0  0  0  0
 21 19  1  0  0  0  0
 22 20  1  0  0  0  0
 23  4  1  0  0  0  0
 24  9  1  0  0  0  0
 25 11  1  0  0  0  0
 26 24  2  0  0  0  0
 27 25  2  0  0  0  0
 16 15  1  0  0  0  0
 21 12  1  0  0  0  0
  9 11  2  0  0  0  0
 26 27  1  0  0  0  0
M  END
>  <IDNUMBER>
F5614-0448

>  <Chemical_Name>
1-(2-{4-[(1-methyl-1H-1,3-benzodiazol-2-yl)methyl]piperazin-1-yl}-2-oxoethyl)pyrrolidine-2,5-dione

>  <PriceCoeff>
1.50

>  <CAS>
1172379-56-4

>  <MW>
369.42

>  <Description>
solid

>  <FSP3>
0.47

>  <clogP>
1.03

>  <TPSA>
78.75

>  <Acceptor>
4

>  <Donor>
1

>  <RotBonds>
5

>  <HAC>
27

>  <Collection>
Advanced

>  <PPDS>
+

$$$$
F5614-0649
  Mrv2219 10102508112D          

 33 37  0  0  0  0            999 V2000
   -7.4392    1.7428    0.0000 C   0  0  0  0  0  0  0  0  0  0  0  0
   -8.1914    1.4126    0.0000 N   0  0  0  0  0  0  0  0  0  0  0  0
   -2.4532    2.9923    0.0000 N   0  0  0  0  0  0  0  0  0  0  0  0
   -7.5269    2.5703    0.0000 N   0  0  0  0  0  0  0  0  0  0  0  0
   -3.8742    2.9923    0.0000 C   0  0  0  0  0  0  0  0  0  0  0  0
   -3.1595    2.5786    0.0000 C   0  0  0  0  0  0  0  0  0  0  0  0
   -8.7431    2.0269    0.0000 C   0  0  0  0  0  0  0  0  0  0  0  0
   -2.3571    3.8073    0.0000 C   0  0  0  0  0  0  0  0  0  0  0  0
   -1.6926    2.6538    0.0000 C   0  0  0  0  0  0  0  0  0  0  0  0
   -4.5972    2.5786    0.0000 N   0  0  0  0  0  0  0  0  0  0  0  0
   -8.3293    2.7416    0.0000 C   0  0  0  0  0  0  0  0  0  0  0  0
   -6.0182    1.7428    0.0000 N   0  0  0  0  0  0  0  0  0  0  0  0
   -6.7245    1.3290    0.0000 C   0  0  0  0  0  0  0  0  0  0  0  0
   -8.3627    0.6018    0.0000 C   0  0  0  0  0  0  0  0  0  0  0  0
   -3.8742    3.8115    0.0000 O   0  0  0  0  0  0  0  0  0  0  0  0
   -1.1409    3.2556    0.0000 C   0  0  0  0  0  0  0  0  0  0  0  0
   -1.5505    3.9703    0.0000 C   0  0  0  0  0  0  0  0  0  0  0  0
   -1.5254    1.8263    0.0000 O   0  0  0  0  0  0  0  0  0  0  0  0
   -2.9673    4.3506    0.0000 O   0  0  0  0  0  0  0  0  0  0  0  0
   -5.3035    2.9923    0.0000 C   0  0  0  0  0  0  0  0  0  0  0  0
   -4.5972    1.7428    0.0000 C   0  0  0  0  0  0  0  0  0  0  0  0
   -6.0182    2.5703    0.0000 C   0  0  0  0  0  0  0  0  0  0  0  0
   -5.3035    1.3373    0.0000 C   0  0  0  0  0  0  0  0  0  0  0  0
   -9.1443    0.3468    0.0000 C   0  0  0  0  0  0  0  0  0  0  0  0
   -9.5580    2.0269    0.0000 C   0  0  0  0  0  0  0  0  0  0  0  0
   -8.7431    3.4562    0.0000 C   0  0  0  0  0  0  0  0  0  0  0  0
   -9.7587    0.9027    0.0000 C   0  0  0  0  0  0  0  0  0  0  0  0
   -9.3073   -0.4556    0.0000 C   0  0  0  0  0  0  0  0  0  0  0  0
   -9.9843    2.7332    0.0000 C   0  0  0  0  0  0  0  0  0  0  0  0
   -9.5706    3.4562    0.0000 C   0  0  0  0  0  0  0  0  0  0  0  0
  -10.0972   -0.7147    0.0000 C   0  0  0  0  0  0  0  0  0  0  0  0
  -10.5360    0.6478    0.0000 C   0  0  0  0  0  0  0  0  0  0  0  0
  -10.7115   -0.1547    0.0000 C   0  0  0  0  0  0  0  0  0  0  0  0
  2  1  1  0  0  0  0
  3  6  1  0  0  0  0
  4  1  2  0  0  0  0
  5 10  1  0  0  0  0
  6  5  1  0  0  0  0
  7  2  1  0  0  0  0
  8  3  1  0  0  0  0
  9  3  1  0  0  0  0
 10 21  1  0  0  0  0
 11  4  1  0  0  0  0
 12 13  1  0  0  0  0
 13  1  1  0  0  0  0
 14  2  1  0  0  0  0
 15  5  2  0  0  0  0
 16  9  1  0  0  0  0
 17  8  1  0  0  0  0
 18  9  2  0  0  0  0
 19  8  2  0  0  0  0
 20 22  1  0  0  0  0
 21 23  1  0  0  0  0
 22 12  1  0  0  0  0
 23 12  1  0  0  0  0
 24 14  1  0  0  0  0
 25  7  1  0  0  0  0
 26 11  1  0  0  0  0
 27 24  2  0  0  0  0
 28 24  1  0  0  0  0
 29 25  2  0  0  0  0
 30 26  2  0  0  0  0
 31 28  2  0  0  0  0
 32 27  1  0  0  0  0
 33 31  1  0  0  0  0
  7 11  2  0  0  0  0
 10 20  1  0  0  0  0
 29 30  1  0  0  0  0
 33 32  2  0  0  0  0
 17 16  1  0  0  0  0
M  END
>  <IDNUMBER>
F5614-0649

>  <Chemical_Name>
1-(2-{4-[(1-benzyl-1H-1,3-benzodiazol-2-yl)methyl]piperazin-1-yl}-2-oxoethyl)pyrrolidine-2,5-dione

>  <PriceCoeff>
1.00

>  <CAS>
1170950-80-7

>  <MW>
445.51

>  <Description>
solid

>  <FSP3>
0.36

>  <clogP>
2.55

>  <TPSA>
78.75

>  <Acceptor>
4

>  <Donor>
1

>  <RotBonds>
7

>  <HAC>
33

>  <Collection>
General

>  <PPDS>
+

$$$$
F5658-0165
  Mrv2219 10102508112D          

 20 21  0  0  0  0            999 V2000
    7.7542   -7.8417    0.0000 C   0  0  0  0  0  0  0  0  0  0  0  0
    8.5375   -7.5917    0.0000 C   0  0  0  0  0  0  0  0  0  0  0  0
    7.7542   -8.6667    0.0000 C   0  0  0  0  0  0  0  0  0  0  0  0
    4.1667   -7.4417    0.0000 C   0  0  0  0  0  0  0  0  0  0  0  0
    7.0417   -7.4292    0.0000 C   0  0  0  0  0  0  0  0  0  0  0  0
    9.0167   -8.2625    0.0000 C   0  0  0  0  0  0  0  0  0  0  0  0
    8.7917   -6.8042    0.0000 O   0  0  0  0  0  0  0  0  0  0  0  0
    4.1625   -6.6125    0.0000 O   0  0  0  0  0  0  0  0  0  0  0  0
    8.5375   -8.9250    0.0000 C   0  0  0  0  0  0  0  0  0  0  0  0
    7.0417   -9.0792    0.0000 C   0  0  0  0  0  0  0  0  0  0  0  0
    3.4542   -7.8542    0.0000 N   0  0  0  0  0  0  0  0  0  0  0  0
    6.3250   -7.8417    0.0000 C   0  0  0  0  0  0  0  0  0  0  0  0
    5.6042   -7.4292    0.0000 O   0  0  0  0  0  0  0  0  0  0  0  0
    4.8917   -7.8500    0.0000 C   0  0  0  0  0  0  0  0  0  0  0  0
    6.3250   -8.6667    0.0000 C   0  0  0  0  0  0  0  0  0  0  0  0
    2.7417   -7.4417    0.0000 C   0  0  0  0  0  0  0  0  0  0  0  0
    2.0250   -7.8542    0.0000 C   0  0  0  0  0  0  0  0  0  0  0  0
    1.3042   -7.4417    0.0000 C   0  0  0  0  0  0  0  0  0  0  0  0
    1.3042   -6.6125    0.0000 C   0  0  0  0  0  0  0  0  0  0  0  0
    0.5917   -7.8542    0.0000 C   0  0  0  0  0  0  0  0  0  0  0  0
  2  1  1  0  0  0  0
  3  1  1  0  0  0  0
  4 14  1  0  0  0  0
  5  1  2  0  0  0  0
  6  2  1  0  0  0  0
  7  2  2  0  0  0  0
  8  4  2  0  0  0  0
  9  3  1  0  0  0  0
 10  3  2  0  0  0  0
 11  4  1  0  0  0  0
 12  5  1  0  0  0  0
 13 12  1  0  0  0  0
 14 13  1  0  0  0  0
 15 12  2  0  0  0  0
 16 11  1  0  0  0  0
 17 16  1  0  0  0  0
 18 17  1  0  0  0  0
 19 18  1  0  0  0  0
 20 18  1  0  0  0  0
  9  6  1  0  0  0  0
 10 15  1  0  0  0  0
M  END
>  <IDNUMBER>
F5658-0165

>  <Chemical_Name>
N-(3-methylbutyl)-2-[(3-oxo-2,3-dihydro-1H-inden-5-yl)oxy]acetamide

>  <PriceCoeff>
1.50

>  <MW>
275.34

>  <Description>
solid

>  <FSP3>
0.50

>  <clogP>
2.68

>  <TPSA>
55.40

>  <Acceptor>
3

>  <Donor>
1

>  <RotBonds>
6

>  <HAC>
20

>  <Collection>
Advanced

>  <PPDS>
+

$$$$
F5658-0167
  Mrv2219 10102508112D          

 23 25  0  0  0  0            999 V2000
    1.6628   -8.0229    0.0000 N   0  0  0  0  0  0  0  0  0  0  0  0
    5.9486   -8.0187    0.0000 C   0  0  0  0  0  0  0  0  0  0  0  0
    2.3736   -7.6114    0.0000 C   0  0  0  0  0  0  0  0  0  0  0  0
   -0.4946   -9.2700    0.0000 C   0  0  0  0  0  0  0  0  0  0  0  0
    6.7260   -7.7610    0.0000 C   0  0  0  0  0  0  0  0  0  0  0  0
    5.9486   -8.8418    0.0000 C   0  0  0  0  0  0  0  0  0  0  0  0
    5.2377   -7.6072    0.0000 C   0  0  0  0  0  0  0  0  0  0  0  0
    0.2287   -8.8543    0.0000 C   0  0  0  0  0  0  0  0  0  0  0  0
    1.6628   -8.8543    0.0000 C   0  0  0  0  0  0  0  0  0  0  0  0
    0.9478   -7.6114    0.0000 C   0  0  0  0  0  0  0  0  0  0  0  0
    3.0928   -8.0229    0.0000 C   0  0  0  0  0  0  0  0  0  0  0  0
    2.3612   -6.7883    0.0000 O   0  0  0  0  0  0  0  0  0  0  0  0
   -1.2097   -8.8543    0.0000 O   0  0  0  0  0  0  0  0  0  0  0  0
    7.2123   -8.4345    0.0000 C   0  0  0  0  0  0  0  0  0  0  0  0
    6.9837   -6.9754    0.0000 O   0  0  0  0  0  0  0  0  0  0  0  0
    6.7260   -9.0954    0.0000 C   0  0  0  0  0  0  0  0  0  0  0  0
    0.2287   -8.0229    0.0000 C   0  0  0  0  0  0  0  0  0  0  0  0
    0.9520   -9.2658    0.0000 C   0  0  0  0  0  0  0  0  0  0  0  0
    5.2377   -9.2533    0.0000 C   0  0  0  0  0  0  0  0  0  0  0  0
    3.8036   -7.6072    0.0000 O   0  0  0  0  0  0  0  0  0  0  0  0
   -0.4946  -10.0931    0.0000 N   0  0  0  0  0  0  0  0  0  0  0  0
    4.5186   -8.0187    0.0000 C   0  0  0  0  0  0  0  0  0  0  0  0
    4.5186   -8.8418    0.0000 C   0  0  0  0  0  0  0  0  0  0  0  0
  2  7  2  0  0  0  0
  3  1  1  0  0  0  0
  4  8  1  0  0  0  0
  5  2  1  0  0  0  0
  6 19  2  0  0  0  0
  7 22  1  0  0  0  0
  8 17  1  0  0  0  0
  9  1  1  0  0  0  0
 10  1  1  0  0  0  0
 11  3  1  0  0  0  0
 12  3  2  0  0  0  0
 13  4  2  0  0  0  0
 14  5  1  0  0  0  0
 15  5  2  0  0  0  0
 16  6  1  0  0  0  0
 17 10  1  0  0  0  0
 18  9  1  0  0  0  0
 19 23  1  0  0  0  0
 20 11  1  0  0  0  0
 21  4  1  0  0  0  0
 22 20  1  0  0  0  0
 23 22  2  0  0  0  0
  8 18  1  0  0  0  0
  6  2  1  0  0  0  0
 14 16  1  0  0  0  0
M  END
>  <IDNUMBER>
F5658-0167

>  <Chemical_Name>
1-{2-[(3-oxo-2,3-dihydro-1H-inden-5-yl)oxy]acetyl}piperidine-4-carboxamide

>  <PriceCoeff>
1.50

>  <CAS>
1203355-66-1

>  <MW>
316.35

>  <Description>
solid

>  <FSP3>
0.47

>  <clogP>
-0.40

>  <TPSA>
89.70

>  <Acceptor>
4

>  <Donor>
1

>  <RotBonds>
5

>  <HAC>
23

>  <Collection>
Advanced

>  <PPDS>
+

$$$$
F5672-0114
  Mrv2219 10102508112D          

 30 31  0  0  0  0            999 V2000
    1.1723    0.8439    0.0000 N   0  0  0  0  0  0  0  0  0  0  0  0
    1.2014    2.2781    0.0000 C   0  0  0  0  0  0  0  0  0  0  0  0
    1.6005    1.5547    0.0000 C   0  0  0  0  0  0  0  0  0  0  0  0
    0.3492    0.7815    0.0000 C   0  0  0  0  0  0  0  0  0  0  0  0
    1.4841    0.0956    0.0000 C   0  0  0  0  0  0  0  0  0  0  0  0
    0.3783    2.3030    0.0000 N   0  0  0  0  0  0  0  0  0  0  0  0
   -2.4776    3.0887    0.0000 C   0  0  0  0  0  0  0  0  0  0  0  0
   -3.3007    3.1054    0.0000 C   0  0  0  0  0  0  0  0  0  0  0  0
   -1.2554    2.3446    0.0000 N   0  0  0  0  0  0  0  0  0  0  0  0
   -3.7996    2.4527    0.0000 S   0  0  0  0  0  0  0  0  0  0  0  0
   -2.0785    2.3654    0.0000 C   0  0  0  0  0  0  0  0  0  0  0  0
    1.6338    2.9765    0.0000 O   0  0  0  0  0  0  0  0  0  0  0  0
   -3.7664    3.7871    0.0000 C   0  0  0  0  0  0  0  0  0  0  0  0
    0.8730   -0.4532    0.0000 C   0  0  0  0  0  0  0  0  0  0  0  0
    0.1538   -0.0291    0.0000 C   0  0  0  0  0  0  0  0  0  0  0  0
    2.2865   -0.0915    0.0000 O   0  0  0  0  0  0  0  0  0  0  0  0
   -0.1871    1.4051    0.0000 O   0  0  0  0  0  0  0  0  0  0  0  0
   -0.0499    1.6046    0.0000 C   0  0  0  0  0  0  0  0  0  0  0  0
   -0.0083    3.0264    0.0000 C   0  0  0  0  0  0  0  0  0  0  0  0
   -2.0453    3.7913    0.0000 O   0  0  0  0  0  0  0  0  0  0  0  0
   -4.5728    2.7270    0.0000 C   0  0  0  0  0  0  0  0  0  0  0  0
   -4.5603    3.5502    0.0000 C   0  0  0  0  0  0  0  0  0  0  0  0
   -0.8688    1.6213    0.0000 C   0  0  0  0  0  0  0  0  0  0  0  0
   -0.8356    3.0513    0.0000 C   0  0  0  0  0  0  0  0  0  0  0  0
    4.6365    1.4212    0.0000 C   0  0  0  0  0  0  0  0  0  0  0  0
    4.8578    2.2122    0.0000 C   0  0  0  0  0  0  0  0  0  0  0  0
    5.2142    0.8291    0.0000 O   0  0  0  0  0  0  0  0  0  0  0  0
    4.2800    2.8043    0.0000 O   0  0  0  0  0  0  0  0  0  0  0  0
    5.6569    2.4171    0.0000 O   0  0  0  0  0  0  0  0  0  0  0  0
    3.8343    1.2135    0.0000 O   0  0  0  0  0  0  0  0  0  0  0  0
  8  7  1  0  0  0  0
  9 24  1  0  0  0  0
 10  8  1  0  0  0  0
 11  9  1  0  0  0  0
 12  2  2  0  0  0  0
 13  8  2  0  0  0  0
 14  5  1  0  0  0  0
 15  4  1  0  0  0  0
 16  5  2  0  0  0  0
 17  4  2  0  0  0  0
 18  6  1  0  0  0  0
 19  6  1  0  0  0  0
 20  7  2  0  0  0  0
 21 10  1  0  0  0  0
 22 13  1  0  0  0  0
 23 18  1  0  0  0  0
 24 19  1  0  0  0  0
 15 14  1  0  0  0  0
 23  9  1  0  0  0  0
 21 22  2  0  0  0  0
  2  3  1  0  0  0  0
  3  1  1  0  0  0  0
  4  1  1  0  0  0  0
  5  1  1  0  0  0  0
  6  2  1  0  0  0  0
  7 11  1  0  0  0  0
 26 25  1  0  0  0  0
 27 25  2  0  0  0  0
 28 26  2  0  0  0  0
 29 26  1  0  0  0  0
 30 25  1  0  0  0  0
M  END
>  <IDNUMBER>
F5672-0114

>  <Chemical_Name>
1-(2-oxo-2-{4-[2-oxo-2-(thiophen-2-yl)ethyl]piperazin-1-yl}ethyl)pyrrolidine-2,5-dione; oxalic acid

>  <PriceCoeff>
1.50

>  <CAS>
1351631-38-3

>  <MW>
349.40

>  <Description>
solid

>  <FSP3>
0.50

>  <clogP>
0.99

>  <TPSA>
106.24

>  <Acceptor>
4

>  <Donor>
1

>  <RotBonds>
6

>  <HAC>
24

>  <Collection>
Advanced

>  <PPDS>
+

$$$$
F5689-0059
  Mrv2219 10102508112D          

 31 34  0  0  0  0            999 V2000
   -2.8251    7.5531    0.0000 N   0  0  0  0  0  0  0  0  0  0  0  0
   -3.0796    6.7727    0.0000 C   0  0  0  0  0  0  0  0  0  0  0  0
   -1.9905    7.5531    0.0000 C   0  0  0  0  0  0  0  0  0  0  0  0
   -1.7401    6.7727    0.0000 N   0  0  0  0  0  0  0  0  0  0  0  0
   -2.4119    6.2845    0.0000 N   0  0  0  0  0  0  0  0  0  0  0  0
   -6.7268    5.4457    0.0000 N   0  0  0  0  0  0  0  0  0  0  0  0
   -7.3403    4.8949    0.0000 C   0  0  0  0  0  0  0  0  0  0  0  0
   -7.0648    6.2136    0.0000 C   0  0  0  0  0  0  0  0  0  0  0  0
   -3.8683    3.8057    0.0000 C   0  0  0  0  0  0  0  0  0  0  0  0
   -6.0133    5.0368    0.0000 C   0  0  0  0  0  0  0  0  0  0  0  0
   -3.8641    6.5265    0.0000 O   0  0  0  0  0  0  0  0  0  0  0  0
   -1.5023    8.2166    0.0000 C   0  0  0  0  0  0  0  0  0  0  0  0
   -4.5902    4.2105    0.0000 C   0  0  0  0  0  0  0  0  0  0  0  0
   -7.8911    6.1134    0.0000 C   0  0  0  0  0  0  0  0  0  0  0  0
   -8.0664    5.3122    0.0000 C   0  0  0  0  0  0  0  0  0  0  0  0
   -7.2652    4.0728    0.0000 O   0  0  0  0  0  0  0  0  0  0  0  0
   -6.6517    6.9271    0.0000 O   0  0  0  0  0  0  0  0  0  0  0  0
   -2.4245    5.4499    0.0000 C   0  0  0  0  0  0  0  0  0  0  0  0
   -3.8766    2.9878    0.0000 O   0  0  0  0  0  0  0  0  0  0  0  0
   -6.0133    4.2105    0.0000 C   0  0  0  0  0  0  0  0  0  0  0  0
   -5.3080    5.4499    0.0000 C   0  0  0  0  0  0  0  0  0  0  0  0
   -3.3008    8.2291    0.0000 C   0  0  0  0  0  0  0  0  0  0  0  0
   -3.1548    4.2189    0.0000 N   0  0  0  0  0  0  0  0  0  0  0  0
   -4.6027    5.0493    0.0000 C   0  0  0  0  0  0  0  0  0  0  0  0
   -5.3038    3.8057    0.0000 C   0  0  0  0  0  0  0  0  0  0  0  0
   -3.1548    5.0493    0.0000 C   0  0  0  0  0  0  0  0  0  0  0  0
   -0.6843    8.1290    0.0000 C   0  0  0  0  0  0  0  0  0  0  0  0
   -1.8361    8.9677    0.0000 C   0  0  0  0  0  0  0  0  0  0  0  0
   -1.3520    9.6437    0.0000 C   0  0  0  0  0  0  0  0  0  0  0  0
   -0.1961    8.7925    0.0000 C   0  0  0  0  0  0  0  0  0  0  0  0
   -0.5216    9.5561    0.0000 C   0  0  0  0  0  0  0  0  0  0  0  0
  2  1  1  0  0  0  0
  3  1  1  0  0  0  0
  4  3  2  0  0  0  0
  5  2  1  0  0  0  0
  6 10  1  0  0  0  0
  7  6  1  0  0  0  0
  8  6  1  0  0  0  0
  9 23  1  0  0  0  0
 10 20  2  0  0  0  0
 11  2  2  0  0  0  0
 12  3  1  0  0  0  0
 13  9  1  0  0  0  0
 14  8  1  0  0  0  0
 15  7  1  0  0  0  0
 16  7  2  0  0  0  0
 17  8  2  0  0  0  0
 18  5  1  0  0  0  0
 19  9  2  0  0  0  0
 20 25  1  0  0  0  0
 21 24  2  0  0  0  0
 22  1  1  0  0  0  0
 23 26  1  0  0  0  0
 24 13  1  0  0  0  0
 25 13  2  0  0  0  0
 26 18  1  0  0  0  0
 27 12  2  0  0  0  0
 28 12  1  0  0  0  0
 29 28  2  0  0  0  0
 30 27  1  0  0  0  0
 31 29  1  0  0  0  0
  4  5  1  0  0  0  0
 31 30  2  0  0  0  0
 10 21  1  0  0  0  0
 15 14  1  0  0  0  0
M  END
>  <IDNUMBER>
F5689-0059

>  <Chemical_Name>
4-(2,5-dioxopyrrolidin-1-yl)-N-[2-(4-methyl-5-oxo-3-phenyl-4,5-dihydro-1H-1,2,4-triazol-1-yl)ethyl]benzamide

>  <PriceCoeff>
1.00

>  <CAS>
1203318-83-5

>  <MW>
419.43

>  <Description>
solid

>  <FSP3>
0.23

>  <clogP>
0.88

>  <TPSA>
102.39

>  <Acceptor>
5

>  <Donor>
1

>  <RotBonds>
6

>  <HAC>
31

>  <Collection>
General

>  <PPDS>
+

$$$$
F5689-1366
  Mrv2219 10102508112D          

 30 33  0  0  0  0            999 V2000
   -2.8405    7.5358    0.0000 N   0  0  0  0  0  0  0  0  0  0  0  0
   -2.0176    7.5232    0.0000 C   0  0  0  0  0  0  0  0  0  0  0  0
   -3.1036    6.7463    0.0000 C   0  0  0  0  0  0  0  0  0  0  0  0
   -1.7544    6.7337    0.0000 N   0  0  0  0  0  0  0  0  0  0  0  0
   -2.4311    6.2701    0.0000 N   0  0  0  0  0  0  0  0  0  0  0  0
   -3.8806    0.5263    0.0000 N   0  0  0  0  0  0  0  0  0  0  0  0
   -1.5372    8.1957    0.0000 C   0  0  0  0  0  0  0  0  0  0  0  0
   -3.0953    0.2715    0.0000 C   0  0  0  0  0  0  0  0  0  0  0  0
   -4.3819   -0.1421    0.0000 C   0  0  0  0  0  0  0  0  0  0  0  0
   -3.8723    3.8096    0.0000 C   0  0  0  0  0  0  0  0  0  0  0  0
   -3.8848    1.3492    0.0000 C   0  0  0  0  0  0  0  0  0  0  0  0
   -1.7753    8.9852    0.0000 S   0  0  0  0  0  0  0  0  0  0  0  0
   -3.8848    6.5082    0.0000 O   0  0  0  0  0  0  0  0  0  0  0  0
   -3.8806    2.9909    0.0000 C   0  0  0  0  0  0  0  0  0  0  0  0
   -0.6976    8.1957    0.0000 C   0  0  0  0  0  0  0  0  0  0  0  0
   -3.8931   -0.8062    0.0000 C   0  0  0  0  0  0  0  0  0  0  0  0
   -3.1036   -0.5556    0.0000 C   0  0  0  0  0  0  0  0  0  0  0  0
   -2.4269    0.7477    0.0000 O   0  0  0  0  0  0  0  0  0  0  0  0
   -5.2007   -0.1295    0.0000 O   0  0  0  0  0  0  0  0  0  0  0  0
   -2.4395    5.4430    0.0000 C   0  0  0  0  0  0  0  0  0  0  0  0
   -1.1111    9.4656    0.0000 C   0  0  0  0  0  0  0  0  0  0  0  0
   -4.5949    4.2149    0.0000 O   0  0  0  0  0  0  0  0  0  0  0  0
   -0.4386    8.9769    0.0000 C   0  0  0  0  0  0  0  0  0  0  0  0
   -3.3292    8.1957    0.0000 C   0  0  0  0  0  0  0  0  0  0  0  0
   -3.1663    1.7502    0.0000 C   0  0  0  0  0  0  0  0  0  0  0  0
   -4.5949    1.7544    0.0000 C   0  0  0  0  0  0  0  0  0  0  0  0
   -3.1580    4.2149    0.0000 N   0  0  0  0  0  0  0  0  0  0  0  0
   -4.5949    2.5773    0.0000 C   0  0  0  0  0  0  0  0  0  0  0  0
   -3.1663    2.5773    0.0000 C   0  0  0  0  0  0  0  0  0  0  0  0
   -3.1580    5.0419    0.0000 C   0  0  0  0  0  0  0  0  0  0  0  0
  2  1  1  0  0  0  0
  3  1  1  0  0  0  0
  4  2  2  0  0  0  0
  5  3  1  0  0  0  0
  6 11  1  0  0  0  0
  7  2  1  0  0  0  0
  8  6  1  0  0  0  0
  9  6  1  0  0  0  0
 10 27  1  0  0  0  0
 11 25  2  0  0  0  0
 12  7  1  0  0  0  0
 13  3  2  0  0  0  0
 14 10  1  0  0  0  0
 15  7  2  0  0  0  0
 16  9  1  0  0  0  0
 17  8  1  0  0  0  0
 18  8  2  0  0  0  0
 19  9  2  0  0  0  0
 20  5  1  0  0  0  0
 21 12  1  0  0  0  0
 22 10  2  0  0  0  0
 23 15  1  0  0  0  0
 24  1  1  0  0  0  0
 25 29  1  0  0  0  0
 26 28  2  0  0  0  0
 27 30  1  0  0  0  0
 28 14  1  0  0  0  0
 29 14  2  0  0  0  0
 30 20  1  0  0  0  0
  4  5  1  0  0  0  0
 21 23  2  0  0  0  0
 11 26  1  0  0  0  0
 17 16  1  0  0  0  0
M  END
>  <IDNUMBER>
F5689-1366

>  <Chemical_Name>
4-(2,5-dioxopyrrolidin-1-yl)-N-{2-[4-methyl-5-oxo-3-(thiophen-2-yl)-4,5-dihydro-1H-1,2,4-triazol-1-yl]ethyl}benzamide

>  <PriceCoeff>
1.00

>  <CAS>
1203014-22-5

>  <MW>
425.46

>  <Description>
solid

>  <FSP3>
0.25

>  <clogP>
0.75

>  <TPSA>
130.63

>  <Acceptor>
5

>  <Donor>
1

>  <RotBonds>
6

>  <HAC>
30

>  <Collection>
General

>  <PPDS>
+

$$$$
F5729-1016
  Mrv2219 10102508112D          

 33 35  0  0  0  0            999 V2000
    0.5956    9.2683    0.0000 N   0  0  0  0  0  0  0  0  0  0  0  0
   -0.2749    5.5664    0.0000 N   0  0  0  0  0  0  0  0  0  0  0  0
    0.5498    4.5265    0.0000 N   0  0  0  0  0  0  0  0  0  0  0  0
   -0.2428    4.7464    0.0000 C   0  0  0  0  0  0  0  0  0  0  0  0
   -0.8247    9.3233    0.0000 C   0  0  0  0  0  0  0  0  0  0  0  0
   -0.0962    9.7081    0.0000 C   0  0  0  0  0  0  0  0  0  0  0  0
    0.4948    5.8597    0.0000 C   0  0  0  0  0  0  0  0  0  0  0  0
    0.7331    8.4528    0.0000 C   0  0  0  0  0  0  0  0  0  0  0  0
    1.3332    9.6531    0.0000 C   0  0  0  0  0  0  0  0  0  0  0  0
   -0.8613    8.4986    0.0000 N   0  0  0  0  0  0  0  0  0  0  0  0
    1.0080    5.2137    0.0000 C   0  0  0  0  0  0  0  0  0  0  0  0
   -0.9758    6.0109    0.0000 C   0  0  0  0  0  0  0  0  0  0  0  0
   -1.5210    9.7631    0.0000 O   0  0  0  0  0  0  0  0  0  0  0  0
    1.9151    9.0621    0.0000 C   0  0  0  0  0  0  0  0  0  0  0  0
    1.5531    8.3291    0.0000 C   0  0  0  0  0  0  0  0  0  0  0  0
    1.4478   10.4640    0.0000 O   0  0  0  0  0  0  0  0  0  0  0  0
    0.1649    7.8664    0.0000 O   0  0  0  0  0  0  0  0  0  0  0  0
   -1.5943    8.1138    0.0000 C   0  0  0  0  0  0  0  0  0  0  0  0
   -0.1741    8.0588    0.0000 C   0  0  0  0  0  0  0  0  0  0  0  0
   -0.9346    6.8493    0.0000 C   0  0  0  0  0  0  0  0  0  0  0  0
   -0.8888    4.2286    0.0000 C   0  0  0  0  0  0  0  0  0  0  0  0
   -1.6310    7.2891    0.0000 C   0  0  0  0  0  0  0  0  0  0  0  0
   -0.2062    7.2341    0.0000 C   0  0  0  0  0  0  0  0  0  0  0  0
    0.7972    6.6248    0.0000 C   0  0  0  0  0  0  0  0  0  0  0  0
    1.8280    5.3374    0.0000 C   0  0  0  0  0  0  0  0  0  0  0  0
    1.6127    6.7485    0.0000 C   0  0  0  0  0  0  0  0  0  0  0  0
    2.1212    6.1071    0.0000 C   0  0  0  0  0  0  0  0  0  0  0  0
    4.5692    7.0560    0.0000 C   0  0  0  0  0  0  0  0  0  0  0  0
    4.8130    7.9343    0.0000 C   0  0  0  0  0  0  0  0  0  0  0  0
    5.2059    6.4074    0.0000 O   0  0  0  0  0  0  0  0  0  0  0  0
    4.1763    8.5831    0.0000 O   0  0  0  0  0  0  0  0  0  0  0  0
    5.6938    8.1576    0.0000 O   0  0  0  0  0  0  0  0  0  0  0  0
    3.6851    6.8267    0.0000 O   0  0  0  0  0  0  0  0  0  0  0  0
  8  1  1  0  0  0  0
  9  1  1  0  0  0  0
 10  5  1  0  0  0  0
 11  7  2  0  0  0  0
 12 20  1  0  0  0  0
 13  5  2  0  0  0  0
 14  9  1  0  0  0  0
 15  8  1  0  0  0  0
 16  9  2  0  0  0  0
 17  8  2  0  0  0  0
 18 10  1  0  0  0  0
 19 10  1  0  0  0  0
 20 23  1  0  0  0  0
 21  4  1  0  0  0  0
 22 18  1  0  0  0  0
 23 19  1  0  0  0  0
 24  7  1  0  0  0  0
 25 11  1  0  0  0  0
 26 24  2  0  0  0  0
 27 26  1  0  0  0  0
 14 15  1  0  0  0  0
 20 22  1  0  0  0  0
  3 11  1  0  0  0  0
 25 27  2  0  0  0  0
  2 12  1  0  0  0  0
  3  4  2  0  0  0  0
  4  2  1  0  0  0  0
  5  6  1  0  0  0  0
  6  1  1  0  0  0  0
  7  2  1  0  0  0  0
 29 28  1  0  0  0  0
 30 28  2  0  0  0  0
 31 29  2  0  0  0  0
 32 29  1  0  0  0  0
 33 28  1  0  0  0  0
M  END
>  <IDNUMBER>
F5729-1016

>  <Chemical_Name>
1-(2-{4-[(2-methyl-1H-1,3-benzodiazol-1-yl)methyl]piperidin-1-yl}-2-oxoethyl)pyrrolidine-2,5-dione; oxalic acid

>  <PriceCoeff>
1.50

>  <CAS>
1351599-32-0

>  <MW>
368.43

>  <Description>
solid

>  <FSP3>
0.50

>  <clogP>
1.25

>  <TPSA>
75.51

>  <Acceptor>
4

>  <Donor>
0

>  <RotBonds>
5

>  <HAC>
27

>  <Collection>
Advanced

>  <PPDS>
+

$$$$
F5729-1223
  Mrv2219 10102508112D          

 34 36  0  0  0  0            999 V2000
    0.5953    9.2905    0.0000 N   0  0  0  0  0  0  0  0  0  0  0  0
   -0.2747    5.5816    0.0000 N   0  0  0  0  0  0  0  0  0  0  0  0
    0.5495    4.5468    0.0000 N   0  0  0  0  0  0  0  0  0  0  0  0
    0.4945    5.8701    0.0000 C   0  0  0  0  0  0  0  0  0  0  0  0
   -0.8333    9.3317    0.0000 C   0  0  0  0  0  0  0  0  0  0  0  0
   -0.1099    9.7254    0.0000 C   0  0  0  0  0  0  0  0  0  0  0  0
   -0.2426    4.7574    0.0000 C   0  0  0  0  0  0  0  0  0  0  0  0
    1.0074    5.2336    0.0000 C   0  0  0  0  0  0  0  0  0  0  0  0
    0.7418    8.4800    0.0000 C   0  0  0  0  0  0  0  0  0  0  0  0
    1.3233    9.6842    0.0000 C   0  0  0  0  0  0  0  0  0  0  0  0
   -0.8608    8.5075    0.0000 N   0  0  0  0  0  0  0  0  0  0  0  0
    0.7967    6.6393    0.0000 C   0  0  0  0  0  0  0  0  0  0  0  0
    1.8178    5.3572    0.0000 C   0  0  0  0  0  0  0  0  0  0  0  0
    1.6118    6.7630    0.0000 C   0  0  0  0  0  0  0  0  0  0  0  0
    2.1200    6.1173    0.0000 C   0  0  0  0  0  0  0  0  0  0  0  0
   -0.9753    6.0349    0.0000 C   0  0  0  0  0  0  0  0  0  0  0  0
   -1.5385    9.7712    0.0000 O   0  0  0  0  0  0  0  0  0  0  0  0
    1.9140    9.1119    0.0000 C   0  0  0  0  0  0  0  0  0  0  0  0
    1.5522    8.3701    0.0000 C   0  0  0  0  0  0  0  0  0  0  0  0
    1.4332   10.5084    0.0000 O   0  0  0  0  0  0  0  0  0  0  0  0
    0.1786    7.8847    0.0000 O   0  0  0  0  0  0  0  0  0  0  0  0
   -0.1648    8.0679    0.0000 C   0  0  0  0  0  0  0  0  0  0  0  0
   -1.5888    8.1229    0.0000 C   0  0  0  0  0  0  0  0  0  0  0  0
   -0.9341    6.8591    0.0000 C   0  0  0  0  0  0  0  0  0  0  0  0
   -0.2014    7.2437    0.0000 C   0  0  0  0  0  0  0  0  0  0  0  0
   -1.6300    7.2987    0.0000 C   0  0  0  0  0  0  0  0  0  0  0  0
    1.9140    7.5322    0.0000 C   0  0  0  0  0  0  0  0  0  0  0  0
    2.9442    6.2501    0.0000 C   0  0  0  0  0  0  0  0  0  0  0  0
    5.3907    7.0886    0.0000 C   0  0  0  0  0  0  0  0  0  0  0  0
    5.6345    7.9665    0.0000 C   0  0  0  0  0  0  0  0  0  0  0  0
    6.0271    6.4404    0.0000 O   0  0  0  0  0  0  0  0  0  0  0  0
    4.9981    8.6147    0.0000 O   0  0  0  0  0  0  0  0  0  0  0  0
    6.5147    8.1896    0.0000 O   0  0  0  0  0  0  0  0  0  0  0  0
    4.5072    6.8594    0.0000 O   0  0  0  0  0  0  0  0  0  0  0  0
  8  4  2  0  0  0  0
  9  1  1  0  0  0  0
 10  1  1  0  0  0  0
 11  5  1  0  0  0  0
 12  4  1  0  0  0  0
 13  8  1  0  0  0  0
 14 12  2  0  0  0  0
 15 14  1  0  0  0  0
 16 24  1  0  0  0  0
 17  5  2  0  0  0  0
 18 10  1  0  0  0  0
 19  9  1  0  0  0  0
 20 10  2  0  0  0  0
 21  9  2  0  0  0  0
 22 11  1  0  0  0  0
 23 11  1  0  0  0  0
 24 26  1  0  0  0  0
 25 22  1  0  0  0  0
 26 23  1  0  0  0  0
 27 14  1  0  0  0  0
 28 15  1  0  0  0  0
 18 19  1  0  0  0  0
 24 25  1  0  0  0  0
  3  8  1  0  0  0  0
 13 15  2  0  0  0  0
  2 16  1  0  0  0  0
  3  7  2  0  0  0  0
  4  2  1  0  0  0  0
  5  6  1  0  0  0  0
  6  1  1  0  0  0  0
  7  2  1  0  0  0  0
 30 29  1  0  0  0  0
 31 29  2  0  0  0  0
 32 30  2  0  0  0  0
 33 30  1  0  0  0  0
 34 29  1  0  0  0  0
M  END
>  <IDNUMBER>
F5729-1223

>  <Chemical_Name>
1-(2-{4-[(5,6-dimethyl-1H-1,3-benzodiazol-1-yl)methyl]piperidin-1-yl}-2-oxoethyl)pyrrolidine-2,5-dione; oxalic acid

>  <PriceCoeff>
1.50

>  <CAS>
1351632-39-7

>  <MW>
382.46

>  <Description>
solid

>  <FSP3>
0.52

>  <clogP>
1.93

>  <TPSA>
75.51

>  <Acceptor>
4

>  <Donor>
0

>  <RotBonds>
5

>  <HAC>
28

>  <Collection>
Advanced

>  <PPDS>
+

$$$$
F5753-0272
  Mrv2219 10102508112D          

 31 34  0  0  0  0            999 V2000
   -3.8661    3.7954    0.0000 S   0  0  0  0  0  0  0  0  0  0  0  0
   -6.0052    3.4416    0.0000 N   0  0  0  0  0  0  0  0  0  0  0  0
   -0.2830    5.0231    0.0000 N   0  0  0  0  0  0  0  0  0  0  0  0
    0.6035    4.0243    0.0000 N   0  0  0  0  0  0  0  0  0  0  0  0
   -3.1545    4.2074    0.0000 N   0  0  0  0  0  0  0  0  0  0  0  0
    0.4661    5.3477    0.0000 C   0  0  0  0  0  0  0  0  0  0  0  0
   -0.2080    4.1991    0.0000 C   0  0  0  0  0  0  0  0  0  0  0  0
    1.0155    4.7235    0.0000 C   0  0  0  0  0  0  0  0  0  0  0  0
   -4.5902    3.4042    0.0000 C   0  0  0  0  0  0  0  0  0  0  0  0
   -6.0219    2.6176    0.0000 C   0  0  0  0  0  0  0  0  0  0  0  0
   -6.7085    3.8703    0.0000 C   0  0  0  0  0  0  0  0  0  0  0  0
    0.7283    6.1300    0.0000 C   0  0  0  0  0  0  0  0  0  0  0  0
   -5.2894    3.8286    0.0000 C   0  0  0  0  0  0  0  0  0  0  0  0
    1.8353    4.8982    0.0000 C   0  0  0  0  0  0  0  0  0  0  0  0
    1.5481    6.3048    0.0000 C   0  0  0  0  0  0  0  0  0  0  0  0
   -3.4666    3.0796    0.0000 O   0  0  0  0  0  0  0  0  0  0  0  0
   -4.0659    4.5986    0.0000 O   0  0  0  0  0  0  0  0  0  0  0  0
    2.0892    5.6806    0.0000 C   0  0  0  0  0  0  0  0  0  0  0  0
   -1.0071    5.4351    0.0000 C   0  0  0  0  0  0  0  0  0  0  0  0
   -3.1462    5.0231    0.0000 C   0  0  0  0  0  0  0  0  0  0  0  0
   -2.4303    3.8037    0.0000 C   0  0  0  0  0  0  0  0  0  0  0  0
   -5.3268    2.1806    0.0000 O   0  0  0  0  0  0  0  0  0  0  0  0
   -6.6919    4.6860    0.0000 O   0  0  0  0  0  0  0  0  0  0  0  0
   -1.7312    5.0189    0.0000 C   0  0  0  0  0  0  0  0  0  0  0  0
   -2.4303    5.4351    0.0000 C   0  0  0  0  0  0  0  0  0  0  0  0
   -1.7104    4.1991    0.0000 C   0  0  0  0  0  0  0  0  0  0  0  0
   -6.7460    2.2223    0.0000 C   0  0  0  0  0  0  0  0  0  0  0  0
   -7.4285    3.4791    0.0000 C   0  0  0  0  0  0  0  0  0  0  0  0
   -7.4451    2.6468    0.0000 C   0  0  0  0  0  0  0  0  0  0  0  0
    1.8020    7.0789    0.0000 C   0  0  0  0  0  0  0  0  0  0  0  0
    2.9090    5.8471    0.0000 C   0  0  0  0  0  0  0  0  0  0  0  0
  2 13  1  0  0  0  0
  3 19  1  0  0  0  0
  4  7  2  0  0  0  0
  5  1  1  0  0  0  0
  6  3  1  0  0  0  0
  7  3  1  0  0  0  0
  8  6  2  0  0  0  0
  9  1  1  0  0  0  0
 10  2  1  0  0  0  0
 11  2  1  0  0  0  0
 12  6  1  0  0  0  0
 13  9  1  0  0  0  0
 14  8  1  0  0  0  0
 15 12  2  0  0  0  0
 16  1  2  0  0  0  0
 17  1  2  0  0  0  0
 18 15  1  0  0  0  0
 19 24  1  0  0  0  0
 20  5  1  0  0  0  0
 21  5  1  0  0  0  0
 22 10  2  0  0  0  0
 23 11  2  0  0  0  0
 24 26  1  0  0  0  0
 25 20  1  0  0  0  0
 26 21  1  0  0  0  0
 27 10  1  0  0  0  0
 28 11  1  0  0  0  0
 29 28  1  0  0  0  0
 30 15  1  0  0  0  0
 31 18  1  0  0  0  0
 24 25  1  0  0  0  0
 29 27  1  0  0  0  0
  4  8  1  0  0  0  0
 14 18  2  0  0  0  0
M  END
>  <IDNUMBER>
F5753-0272

>  <Chemical_Name>
1-[2-({4-[(5,6-dimethyl-1H-1,3-benzodiazol-1-yl)methyl]piperidin-1-yl}sulfonyl)ethyl]piperidine-2,6-dione

>  <PriceCoeff>
1.50

>  <CAS>
1207025-23-7

>  <MW>
446.56

>  <Description>
solid

>  <FSP3>
0.59

>  <clogP>
2.92

>  <TPSA>
100.96

>  <Acceptor>
5

>  <Donor>
0

>  <RotBonds>
6

>  <HAC>
31

>  <Collection>
Advanced

>  <PPDS>
+

$$$$
F5791-0108
  Mrv2219 10102508112D          

 22 24  0  0  0  0            999 V2000
    3.7911   -5.4823    0.0000 N   0  0  0  0  0  0  0  0  0  0  0  0
    3.7126   -4.6656    0.0000 C   0  0  0  0  0  0  0  0  0  0  0  0
    3.0362   -5.8041    0.0000 C   0  0  0  0  0  0  0  0  0  0  0  0
    7.3552   -5.9073    0.0000 C   0  0  0  0  0  0  0  0  0  0  0  0
    8.7742   -5.9196    0.0000 N   0  0  0  0  0  0  0  0  0  0  0  0
    5.2142   -5.4865    0.0000 C   0  0  0  0  0  0  0  0  0  0  0  0
    6.6374   -5.4947    0.0000 C   0  0  0  0  0  0  0  0  0  0  0  0
    8.0688   -5.5071    0.0000 C   0  0  0  0  0  0  0  0  0  0  0  0
    5.9196   -5.9031    0.0000 N   0  0  0  0  0  0  0  0  0  0  0  0
    4.4965   -5.8949    0.0000 C   0  0  0  0  0  0  0  0  0  0  0  0
    7.3428   -6.7241    0.0000 C   0  0  0  0  0  0  0  0  0  0  0  0
    2.9124   -4.4841    0.0000 C   0  0  0  0  0  0  0  0  0  0  0  0
    2.4998   -5.1853    0.0000 C   0  0  0  0  0  0  0  0  0  0  0  0
    4.3232   -4.1128    0.0000 O   0  0  0  0  0  0  0  0  0  0  0  0
    2.8629   -6.6127    0.0000 O   0  0  0  0  0  0  0  0  0  0  0  0
    5.2142   -4.6656    0.0000 O   0  0  0  0  0  0  0  0  0  0  0  0
    8.7660   -6.7364    0.0000 C   0  0  0  0  0  0  0  0  0  0  0  0
    8.0482   -7.1448    0.0000 C   0  0  0  0  0  0  0  0  0  0  0  0
    6.6374   -4.6697    0.0000 C   0  0  0  0  0  0  0  0  0  0  0  0
    8.0688   -4.6779    0.0000 C   0  0  0  0  0  0  0  0  0  0  0  0
    7.3552   -4.2613    0.0000 C   0  0  0  0  0  0  0  0  0  0  0  0
    9.4796   -7.1530    0.0000 C   0  0  0  0  0  0  0  0  0  0  0  0
  2  1  1  0  0  0  0
  3  1  1  0  0  0  0
  4  7  2  0  0  0  0
  5  8  1  0  0  0  0
  6 10  1  0  0  0  0
  7  9  1  0  0  0  0
  8  4  1  0  0  0  0
  9  6  1  0  0  0  0
 10  1  1  0  0  0  0
 11  4  1  0  0  0  0
 12  2  1  0  0  0  0
 13  3  1  0  0  0  0
 14  2  2  0  0  0  0
 15  3  2  0  0  0  0
 16  6  2  0  0  0  0
 17 18  1  0  0  0  0
 18 11  2  0  0  0  0
 19  7  1  0  0  0  0
 20 21  1  0  0  0  0
 21 19  2  0  0  0  0
 22 17  1  0  0  0  0
 13 12  1  0  0  0  0
 20  8  2  0  0  0  0
  5 17  2  0  0  0  0
M  END
>  <IDNUMBER>
F5791-0108

>  <Chemical_Name>
2-(2,5-dioxopyrrolidin-1-yl)-N-(2-methylquinolin-5-yl)acetamide

>  <PriceCoeff>
1.50

>  <CAS>
1207008-59-0

>  <MW>
297.31

>  <Description>
solid

>  <FSP3>
0.25

>  <clogP>
1.62

>  <TPSA>
79.37

>  <Acceptor>
4

>  <Donor>
2

>  <RotBonds>
3

>  <HAC>
22

>  <Collection>
Advanced

>  <PPDS>
+

$$$$
F5792-0435
  Mrv2219 10102508112D          

 29 31  0  0  0  0            999 V2000
    3.8094   -5.5088    0.0000 N   0  0  0  0  0  0  0  0  0  0  0  0
    8.0954   -7.1752    0.0000 C   0  0  0  0  0  0  0  0  0  0  0  0
    8.0829   -8.0001    0.0000 N   0  0  0  0  0  0  0  0  0  0  0  0
    8.7959   -8.4229    0.0000 N   0  0  0  0  0  0  0  0  0  0  0  0
    5.2394   -5.5130    0.0000 C   0  0  0  0  0  0  0  0  0  0  0  0
    4.5182   -5.9234    0.0000 C   0  0  0  0  0  0  0  0  0  0  0  0
    7.3783   -6.7565    0.0000 N   0  0  0  0  0  0  0  0  0  0  0  0
    3.7306   -4.6881    0.0000 C   0  0  0  0  0  0  0  0  0  0  0  0
    3.0508   -5.8321    0.0000 C   0  0  0  0  0  0  0  0  0  0  0  0
    5.9482   -5.9234    0.0000 N   0  0  0  0  0  0  0  0  0  0  0  0
    8.8084   -6.7565    0.0000 S   0  0  0  0  0  0  0  0  0  0  0  0
    9.5172   -8.0125    0.0000 C   0  0  0  0  0  0  0  0  0  0  0  0
    9.5254   -7.1793    0.0000 C   0  0  0  0  0  0  0  0  0  0  0  0
    6.6570   -7.1669    0.0000 C   0  0  0  0  0  0  0  0  0  0  0  0
    7.3866   -5.9234    0.0000 C   0  0  0  0  0  0  0  0  0  0  0  0
    5.9482   -6.7524    0.0000 C   0  0  0  0  0  0  0  0  0  0  0  0
    6.6695   -5.5130    0.0000 C   0  0  0  0  0  0  0  0  0  0  0  0
    5.2394   -4.6881    0.0000 O   0  0  0  0  0  0  0  0  0  0  0  0
    2.5119   -5.2104    0.0000 C   0  0  0  0  0  0  0  0  0  0  0  0
    2.9265   -4.5057    0.0000 C   0  0  0  0  0  0  0  0  0  0  0  0
    2.8767   -6.6446    0.0000 O   0  0  0  0  0  0  0  0  0  0  0  0
    4.3441   -4.1327    0.0000 O   0  0  0  0  0  0  0  0  0  0  0  0
   10.2260   -8.4311    0.0000 C   0  0  0  0  0  0  0  0  0  0  0  0
   10.2135   -9.2560    0.0000 C   0  0  0  0  0  0  0  0  0  0  0  0
   10.9472   -8.0249    0.0000 C   0  0  0  0  0  0  0  0  0  0  0  0
   11.6560   -8.4436    0.0000 C   0  0  0  0  0  0  0  0  0  0  0  0
   10.9306   -9.6788    0.0000 C   0  0  0  0  0  0  0  0  0  0  0  0
   11.6519   -9.2685    0.0000 C   0  0  0  0  0  0  0  0  0  0  0  0
   13.0363   -6.7524    0.0000 Cl  0  0  0  0  0  0  0  0  0  0  0  0
  3  2  2  0  0  0  0
  4  3  1  0  0  0  0
  5  6  1  0  0  0  0
  6  1  1  0  0  0  0
  7 15  1  0  0  0  0
  8  1  1  0  0  0  0
  9  1  1  0  0  0  0
 10  5  1  0  0  0  0
 11  2  1  0  0  0  0
 12 13  1  0  0  0  0
 13 11  1  0  0  0  0
 14 16  1  0  0  0  0
 15 17  1  0  0  0  0
 16 10  1  0  0  0  0
 17 10  1  0  0  0  0
 18  5  2  0  0  0  0
 19  9  1  0  0  0  0
 20  8  1  0  0  0  0
 21  9  2  0  0  0  0
 22  8  2  0  0  0  0
 23 12  1  0  0  0  0
 24 23  2  0  0  0  0
 25 23  1  0  0  0  0
 26 25  2  0  0  0  0
 27 24  1  0  0  0  0
 28 26  1  0  0  0  0
 20 19  1  0  0  0  0
 14  7  1  0  0  0  0
  4 12  2  0  0  0  0
 27 28  2  0  0  0  0
  2  7  1  0  0  0  0
M  END
>  <IDNUMBER>
F5792-0435

>  <Chemical_Name>
1-{2-oxo-2-[4-(5-phenyl-6H-1,3,4-thiadiazin-2-yl)piperazin-1-yl]ethyl}pyrrolidine-2,5-dione hydrochloride

>  <PriceCoeff>
1.50

>  <CAS>
1351654-69-7

>  <MW>
399.47

>  <Description>
solid

>  <FSP3>
0.42

>  <clogP>
1.95

>  <TPSA>
110.95

>  <Acceptor>
4

>  <Donor>
2

>  <RotBonds>
5

>  <HAC>
28

>  <Collection>
Advanced

>  <PPDS>
+

$$$$
F5795-1955
  Mrv2219 10102508112D          

 29 31  0  0  0  0            999 V2000
    1.2015   -4.0173    0.0000 S   0  0  0  0  0  0  0  0  0  0  0  0
    2.0231   -4.0255    0.0000 C   0  0  0  0  0  0  0  0  0  0  0  0
    0.3716   -4.0049    0.0000 N   0  0  0  0  0  0  0  0  0  0  0  0
    2.5805   -3.4104    0.0000 C   0  0  0  0  0  0  0  0  0  0  0  0
    3.3195   -3.7530    0.0000 C   0  0  0  0  0  0  0  0  0  0  0  0
    2.4195   -4.7357    0.0000 C   0  0  0  0  0  0  0  0  0  0  0  0
    3.2370   -4.5747    0.0000 O   0  0  0  0  0  0  0  0  0  0  0  0
    4.0379   -3.3360    0.0000 C   0  0  0  0  0  0  0  0  0  0  0  0
    4.7605   -3.7448    0.0000 N   0  0  0  0  0  0  0  0  0  0  0  0
    6.1807   -3.7406    0.0000 C   0  0  0  0  0  0  0  0  0  0  0  0
   -0.0372   -3.2865    0.0000 C   0  0  0  0  0  0  0  0  0  0  0  0
   -0.0495   -4.7233    0.0000 C   0  0  0  0  0  0  0  0  0  0  0  0
    5.4747   -3.3319    0.0000 C   0  0  0  0  0  0  0  0  0  0  0  0
    6.1807   -5.3756    0.0000 N   0  0  0  0  0  0  0  0  0  0  0  0
    1.1932   -4.8430    0.0000 O   0  0  0  0  0  0  0  0  0  0  0  0
    1.2056   -3.1956    0.0000 O   0  0  0  0  0  0  0  0  0  0  0  0
    6.1807   -4.5581    0.0000 C   0  0  0  0  0  0  0  0  0  0  0  0
   -1.2882   -3.9883    0.0000 O   0  0  0  0  0  0  0  0  0  0  0  0
    6.8909   -3.3319    0.0000 C   0  0  0  0  0  0  0  0  0  0  0  0
   -0.8876   -4.7109    0.0000 C   0  0  0  0  0  0  0  0  0  0  0  0
   -0.8670   -3.2741    0.0000 C   0  0  0  0  0  0  0  0  0  0  0  0
    4.0297   -2.5062    0.0000 O   0  0  0  0  0  0  0  0  0  0  0  0
    5.4747   -2.5062    0.0000 C   0  0  0  0  0  0  0  0  0  0  0  0
    6.8909   -2.5062    0.0000 C   0  0  0  0  0  0  0  0  0  0  0  0
    6.1807   -2.0974    0.0000 C   0  0  0  0  0  0  0  0  0  0  0  0
    2.0809   -5.4995    0.0000 C   0  0  0  0  0  0  0  0  0  0  0  0
    7.6051   -2.0933    0.0000 Cl  0  0  0  0  0  0  0  0  0  0  0  0
   -1.3088   -5.4169    0.0000 C   0  0  0  0  0  0  0  0  0  0  0  0
   -1.2716   -2.5557    0.0000 C   0  0  0  0  0  0  0  0  0  0  0  0
  2  1  1  0  0  0  0
  3  1  1  0  0  0  0
  4  2  1  0  0  0  0
  5  4  2  0  0  0  0
  6  2  2  0  0  0  0
  7  6  1  0  0  0  0
  8  5  1  0  0  0  0
  9  8  1  0  0  0  0
 10 13  1  0  0  0  0
 11  3  1  0  0  0  0
 12  3  1  0  0  0  0
 13  9  1  0  0  0  0
 14 17  3  0  0  0  0
 15  1  2  0  0  0  0
 16  1  2  0  0  0  0
 17 10  1  0  0  0  0
 18 20  1  0  0  0  0
 19 10  2  0  0  0  0
 20 12  1  0  0  0  0
 21 11  1  0  0  0  0
 22  8  2  0  0  0  0
 23 13  2  0  0  0  0
 24 25  2  0  0  0  0
 25 23  1  0  0  0  0
 26  6  1  0  0  0  0
 27 24  1  0  0  0  0
 28 20  1  0  0  0  0
 29 21  1  0  0  0  0
 18 21  1  0  0  0  0
  5  7  1  0  0  0  0
 24 19  1  0  0  0  0
M  END
>  <IDNUMBER>
F5795-1955

>  <Chemical_Name>
N-(4-chloro-2-cyanophenyl)-4-[(2,6-dimethylmorpholin-4-yl)sulfonyl]-5-methylfuran-2-carboxamide

>  <PriceCoeff>
1.00

>  <CAS>
1207018-21-0

>  <MW>
437.90

>  <Description>
solid

>  <FSP3>
0.37

>  <clogP>
2.71

>  <TPSA>
121.02

>  <Acceptor>
6

>  <Donor>
1

>  <RotBonds>
4

>  <HAC>
29

>  <Collection>
General

>  <PPDS>
+

$$$$
F5796-1601
  Mrv2219 10102508112D          

 25 26  0  0  0  0            999 V2000
    1.3869   -3.9009    0.0000 C   0  0  0  0  0  0  0  0  0  0  0  0
    1.1606   -4.6551    0.0000 S   0  0  0  0  0  0  0  0  0  0  0  0
    2.1160   -3.6496    0.0000 C   0  0  0  0  0  0  0  0  0  0  0  0
    0.9092   -3.2724    0.0000 C   0  0  0  0  0  0  0  0  0  0  0  0
    3.3981   -4.4078    0.0000 C   0  0  0  0  0  0  0  0  0  0  0  0
    2.1160   -2.8659    0.0000 C   0  0  0  0  0  0  0  0  0  0  0  0
    1.3618   -2.6313    0.0000 O   0  0  0  0  0  0  0  0  0  0  0  0
    4.1355   -4.0098    0.0000 N   0  0  0  0  0  0  0  0  0  0  0  0
    4.8772   -2.7779    0.0000 C   0  0  0  0  0  0  0  0  0  0  0  0
    0.9469   -5.4218    0.0000 N   0  0  0  0  0  0  0  0  0  0  0  0
    4.1523   -3.1719    0.0000 C   0  0  0  0  0  0  0  0  0  0  0  0
    6.2892   -3.6579    0.0000 N   0  0  0  0  0  0  0  0  0  0  0  0
    5.5810   -3.2179    0.0000 C   0  0  0  0  0  0  0  0  0  0  0  0
    1.9232   -4.8814    0.0000 O   0  0  0  0  0  0  0  0  0  0  0  0
    0.4023   -4.4414    0.0000 O   0  0  0  0  0  0  0  0  0  0  0  0
    3.3730   -5.2668    0.0000 O   0  0  0  0  0  0  0  0  0  0  0  0
    4.8940   -1.9400    0.0000 C   0  0  0  0  0  0  0  0  0  0  0  0
    3.4358   -2.7445    0.0000 C   0  0  0  0  0  0  0  0  0  0  0  0
    4.1774   -1.5126    0.0000 C   0  0  0  0  0  0  0  0  0  0  0  0
    0.1174   -3.2808    0.0000 C   0  0  0  0  0  0  0  0  0  0  0  0
    2.4428   -2.2542    0.0000 C   0  0  0  0  0  0  0  0  0  0  0  0
    3.4610   -1.9149    0.0000 C   0  0  0  0  0  0  0  0  0  0  0  0
    4.1900   -0.6788    0.0000 Cl  0  0  0  0  0  0  0  0  0  0  0  0
    0.1760   -5.6187    0.0000 C   0  0  0  0  0  0  0  0  0  0  0  0
    1.4875   -5.9875    0.0000 C   0  0  0  0  0  0  0  0  0  0  0  0
  2  1  1  0  0  0  0
  3  1  1  0  0  0  0
  4  1  2  0  0  0  0
  5  3  1  0  0  0  0
  6  3  2  0  0  0  0
  7  4  1  0  0  0  0
  8  5  1  0  0  0  0
  9 11  1  0  0  0  0
 10  2  1  0  0  0  0
 11  8  1  0  0  0  0
 12 13  3  0  0  0  0
 13  9  1  0  0  0  0
 14  2  2  0  0  0  0
 15  2  2  0  0  0  0
 16  5  2  0  0  0  0
 17  9  2  0  0  0  0
 18 11  2  0  0  0  0
 19 22  2  0  0  0  0
 20  4  1  0  0  0  0
 21  6  1  0  0  0  0
 22 18  1  0  0  0  0
 23 19  1  0  0  0  0
 24 10  1  0  0  0  0
 25 10  1  0  0  0  0
  6  7  1  0  0  0  0
 17 19  1  0  0  0  0
M  END
>  <IDNUMBER>
F5796-1601

>  <Chemical_Name>
N-(4-chloro-2-cyanophenyl)-4-(dimethylsulfamoyl)-2,5-dimethylfuran-3-carboxamide

>  <PriceCoeff>
1.00

>  <CAS>
1207016-76-9

>  <MW>
381.83

>  <Description>
solid

>  <FSP3>
0.25

>  <clogP>
1.88

>  <TPSA>
111.79

>  <Acceptor>
5

>  <Donor>
1

>  <RotBonds>
4

>  <HAC>
25

>  <Collection>
General

>  <PPDS>
+

$$$$
F5822-0970
  Mrv2219 10102508112D          

 25 27  0  0  0  0            999 V2000
    3.8098   -5.5095    0.0000 N   0  0  0  0  0  0  0  0  0  0  0  0
    8.1087   -8.0010    0.0000 N   0  0  0  0  0  0  0  0  0  0  0  0
    8.7803   -8.4860    0.0000 C   0  0  0  0  0  0  0  0  0  0  0  0
    5.2400   -5.5136    0.0000 C   0  0  0  0  0  0  0  0  0  0  0  0
    4.5187   -5.9240    0.0000 C   0  0  0  0  0  0  0  0  0  0  0  0
    3.7310   -4.6886    0.0000 C   0  0  0  0  0  0  0  0  0  0  0  0
    3.0512   -5.8328    0.0000 C   0  0  0  0  0  0  0  0  0  0  0  0
    5.9489   -5.9240    0.0000 N   0  0  0  0  0  0  0  0  0  0  0  0
    8.5233   -9.2695    0.0000 N   0  0  0  0  0  0  0  0  0  0  0  0
    7.6983   -9.2695    0.0000 C   0  0  0  0  0  0  0  0  0  0  0  0
    7.4413   -8.4860    0.0000 C   0  0  0  0  0  0  0  0  0  0  0  0
    8.1087   -7.1760    0.0000 C   0  0  0  0  0  0  0  0  0  0  0  0
    5.2400   -4.6886    0.0000 O   0  0  0  0  0  0  0  0  0  0  0  0
    2.9268   -4.5063    0.0000 C   0  0  0  0  0  0  0  0  0  0  0  0
    2.5122   -5.2110    0.0000 C   0  0  0  0  0  0  0  0  0  0  0  0
    4.3446   -4.1332    0.0000 O   0  0  0  0  0  0  0  0  0  0  0  0
    2.8771   -6.6454    0.0000 O   0  0  0  0  0  0  0  0  0  0  0  0
    6.6702   -5.5136    0.0000 C   0  0  0  0  0  0  0  0  0  0  0  0
    5.9489   -6.7573    0.0000 C   0  0  0  0  0  0  0  0  0  0  0  0
    9.5638   -8.2248    0.0000 C   0  0  0  0  0  0  0  0  0  0  0  0
    7.3791   -6.7573    0.0000 C   0  0  0  0  0  0  0  0  0  0  0  0
    7.3791   -5.9323    0.0000 C   0  0  0  0  0  0  0  0  0  0  0  0
    6.6578   -7.1677    0.0000 C   0  0  0  0  0  0  0  0  0  0  0  0
   10.1774   -8.7803    0.0000 C   0  0  0  0  0  0  0  0  0  0  0  0
    9.7297   -7.4164    0.0000 C   0  0  0  0  0  0  0  0  0  0  0  0
  2 12  1  0  0  0  0
  3  2  1  0  0  0  0
  4  5  1  0  0  0  0
  5  1  1  0  0  0  0
  6  1  1  0  0  0  0
  7  1  1  0  0  0  0
  8  4  1  0  0  0  0
  9  3  2  0  0  0  0
 10 11  2  0  0  0  0
 11  2  1  0  0  0  0
 12 21  1  0  0  0  0
 13  4  2  0  0  0  0
 14  6  1  0  0  0  0
 15  7  1  0  0  0  0
 16  6  2  0  0  0  0
 17  7  2  0  0  0  0
 18  8  1  0  0  0  0
 19  8  1  0  0  0  0
 20  3  1  0  0  0  0
 21 23  1  0  0  0  0
 22 18  1  0  0  0  0
 23 19  1  0  0  0  0
 24 20  1  0  0  0  0
 25 20  1  0  0  0  0
 15 14  1  0  0  0  0
 22 21  1  0  0  0  0
  9 10  1  0  0  0  0
M  END
>  <IDNUMBER>
F5822-0970

>  <Chemical_Name>
1-[2-oxo-2-(4-{[2-(propan-2-yl)-1H-imidazol-1-yl]methyl}piperidin-1-yl)ethyl]pyrrolidine-2,5-dione

>  <PriceCoeff>
1.50

>  <CAS>
1334374-84-3

>  <MW>
346.42

>  <Description>
oil

>  <FSP3>
0.67

>  <clogP>
0.58

>  <TPSA>
75.51

>  <Acceptor>
4

>  <Donor>
1

>  <RotBonds>
6

>  <HAC>
25

>  <Collection>
Advanced

>  <PPDS>
+

$$$$
F5823-0653
  Mrv2219 10102508112D          

 23 25  0  0  0  0            999 V2000
   -3.7738    3.7487    0.0000 C   0  0  0  0  0  0  0  0  0  0  0  0
   -3.0584    4.1546    0.0000 N   0  0  0  0  0  0  0  0  0  0  0  0
   -0.1966    4.9831    0.0000 N   0  0  0  0  0  0  0  0  0  0  0  0
    0.5649    5.3261    0.0000 N   0  0  0  0  0  0  0  0  0  0  0  0
   -3.7236    2.9246    0.0000 N   0  0  0  0  0  0  0  0  0  0  0  0
   -5.8365    2.3931    0.0000 C   0  0  0  0  0  0  0  0  0  0  0  0
   -5.1545    2.8451    0.0000 C   0  0  0  0  0  0  0  0  0  0  0  0
   -4.4140    2.4727    0.0000 C   0  0  0  0  0  0  0  0  0  0  0  0
    0.7029    4.0040    0.0000 C   0  0  0  0  0  0  0  0  0  0  0  0
   -4.4726    4.1965    0.0000 O   0  0  0  0  0  0  0  0  0  0  0  0
   -0.1004    4.1714    0.0000 C   0  0  0  0  0  0  0  0  0  0  0  0
   -5.7946    1.5521    0.0000 C   0  0  0  0  0  0  0  0  0  0  0  0
   -3.0584    4.9831    0.0000 C   0  0  0  0  0  0  0  0  0  0  0  0
   -2.3429    3.7487    0.0000 C   0  0  0  0  0  0  0  0  0  0  0  0
    1.1171    4.7111    0.0000 C   0  0  0  0  0  0  0  0  0  0  0  0
   -0.8995    5.4014    0.0000 C   0  0  0  0  0  0  0  0  0  0  0  0
   -5.0541    1.1882    0.0000 C   0  0  0  0  0  0  0  0  0  0  0  0
   -6.5687    2.7572    0.0000 Cl  0  0  0  0  0  0  0  0  0  0  0  0
   -4.3638    1.6401    0.0000 C   0  0  0  0  0  0  0  0  0  0  0  0
   -6.4683    1.1003    0.0000 Cl  0  0  0  0  0  0  0  0  0  0  0  0
   -2.3346    5.4014    0.0000 C   0  0  0  0  0  0  0  0  0  0  0  0
   -1.6276    4.1588    0.0000 C   0  0  0  0  0  0  0  0  0  0  0  0
   -1.6276    4.9831    0.0000 C   0  0  0  0  0  0  0  0  0  0  0  0
  2  1  1  0  0  0  0
  3 16  1  0  0  0  0
  4  3  1  0  0  0  0
  5  1  1  0  0  0  0
  6  7  1  0  0  0  0
  7  8  2  0  0  0  0
  8  5  1  0  0  0  0
  9 11  2  0  0  0  0
 10  1  2  0  0  0  0
 11  3  1  0  0  0  0
 12 17  1  0  0  0  0
 13  2  1  0  0  0  0
 14  2  1  0  0  0  0
 15  4  2  0  0  0  0
 16 23  1  0  0  0  0
 17 19  2  0  0  0  0
 18  6  1  0  0  0  0
 19  8  1  0  0  0  0
 20 12  1  0  0  0  0
 21 13  1  0  0  0  0
 22 14  1  0  0  0  0
 23 22  1  0  0  0  0
 21 23  1  0  0  0  0
  6 12  2  0  0  0  0
 15  9  1  0  0  0  0
M  END
>  <IDNUMBER>
F5823-0653

>  <Chemical_Name>
N-(3,4-dichlorophenyl)-4-[(1H-pyrazol-1-yl)methyl]piperidine-1-carboxamide

>  <PriceCoeff>
1.00

>  <CAS>
1421444-23-6

>  <MW>
353.25

>  <Description>
solid

>  <FSP3>
0.38

>  <clogP>
3.12

>  <TPSA>
50.16

>  <Acceptor>
2

>  <Donor>
1

>  <RotBonds>
4

>  <HAC>
23

>  <Collection>
General

>  <PPDS>
+

$$$$
F5823-0721
  Mrv2219 10102508112D          

 25 27  0  0  0  0            999 V2000
   -3.7777    3.7526    0.0000 S   0  0  0  0  0  0  0  0  0  0  0  0
   -5.9346    3.3924    0.0000 N   0  0  0  0  0  0  0  0  0  0  0  0
   -3.0615    4.1588    0.0000 N   0  0  0  0  0  0  0  0  0  0  0  0
   -4.5064    3.3631    0.0000 C   0  0  0  0  0  0  0  0  0  0  0  0
   -5.9513    2.5715    0.0000 C   0  0  0  0  0  0  0  0  0  0  0  0
   -6.6298    3.8279    0.0000 C   0  0  0  0  0  0  0  0  0  0  0  0
   -0.1968    4.9881    0.0000 N   0  0  0  0  0  0  0  0  0  0  0  0
   -5.2017    3.7902    0.0000 C   0  0  0  0  0  0  0  0  0  0  0  0
    0.5654    5.3316    0.0000 N   0  0  0  0  0  0  0  0  0  0  0  0
   -3.3882    3.0364    0.0000 O   0  0  0  0  0  0  0  0  0  0  0  0
   -3.9787    4.5526    0.0000 O   0  0  0  0  0  0  0  0  0  0  0  0
    0.7036    4.0081    0.0000 C   0  0  0  0  0  0  0  0  0  0  0  0
   -0.1005    4.1756    0.0000 C   0  0  0  0  0  0  0  0  0  0  0  0
   -2.3453    3.7526    0.0000 C   0  0  0  0  0  0  0  0  0  0  0  0
   -3.0615    4.9881    0.0000 C   0  0  0  0  0  0  0  0  0  0  0  0
   -5.2436    2.1317    0.0000 O   0  0  0  0  0  0  0  0  0  0  0  0
   -6.6131    4.6405    0.0000 O   0  0  0  0  0  0  0  0  0  0  0  0
    1.1182    4.7159    0.0000 C   0  0  0  0  0  0  0  0  0  0  0  0
   -0.9004    5.4069    0.0000 C   0  0  0  0  0  0  0  0  0  0  0  0
   -1.6292    4.1631    0.0000 C   0  0  0  0  0  0  0  0  0  0  0  0
   -2.3370    5.4069    0.0000 C   0  0  0  0  0  0  0  0  0  0  0  0
   -1.6292    4.9881    0.0000 C   0  0  0  0  0  0  0  0  0  0  0  0
   -6.6717    2.1694    0.0000 C   0  0  0  0  0  0  0  0  0  0  0  0
   -7.3502    3.4259    0.0000 C   0  0  0  0  0  0  0  0  0  0  0  0
   -7.3670    2.5966    0.0000 C   0  0  0  0  0  0  0  0  0  0  0  0
  2  8  1  0  0  0  0
  3  1  1  0  0  0  0
  4  1  1  0  0  0  0
  5  2  1  0  0  0  0
  6  2  1  0  0  0  0
  7 19  1  0  0  0  0
  8  4  1  0  0  0  0
  9  7  1  0  0  0  0
 10  1  2  0  0  0  0
 11  1  2  0  0  0  0
 12 13  2  0  0  0  0
 13  7  1  0  0  0  0
 14  3  1  0  0  0  0
 15  3  1  0  0  0  0
 16  5  2  0  0  0  0
 17  6  2  0  0  0  0
 18  9  2  0  0  0  0
 19 22  1  0  0  0  0
 20 14  1  0  0  0  0
 21 15  1  0  0  0  0
 22 21  1  0  0  0  0
 23  5  1  0  0  0  0
 24  6  1  0  0  0  0
 25 24  1  0  0  0  0
 20 22  1  0  0  0  0
 23 25  1  0  0  0  0
 18 12  1  0  0  0  0
M  END
>  <IDNUMBER>
F5823-0721

>  <Chemical_Name>
1-[2-({4-[(1H-pyrazol-1-yl)methyl]piperidin-1-yl}sulfonyl)ethyl]piperidine-2,6-dione

>  <PriceCoeff>
1.00

>  <MW>
368.45

>  <Description>
solid

>  <FSP3>
0.69

>  <clogP>
0.65

>  <TPSA>
92.04

>  <Acceptor>
5

>  <Donor>
0

>  <RotBonds>
6

>  <HAC>
25

>  <Collection>
General

$$$$
F5825-0161
  Mrv2219 10102508112D          

 29 32  0  0  0  0            999 V2000
   12.7212   -5.2195    0.0000 C   0  0  0  0  0  0  0  0  0  0  0  0
    9.4293   -5.1486    0.0000 S   0  0  0  0  0  0  0  0  0  0  0  0
   13.2553   -4.5978    0.0000 N   0  0  0  0  0  0  0  0  0  0  0  0
   13.1426   -5.9204    0.0000 N   0  0  0  0  0  0  0  0  0  0  0  0
    7.3473   -5.8245    0.0000 N   0  0  0  0  0  0  0  0  0  0  0  0
   10.2555   -5.1611    0.0000 N   0  0  0  0  0  0  0  0  0  0  0  0
   11.8952   -5.1987    0.0000 N   0  0  0  0  0  0  0  0  0  0  0  0
   13.9479   -5.7243    0.0000 C   0  0  0  0  0  0  0  0  0  0  0  0
   14.0104   -4.9108    0.0000 C   0  0  0  0  0  0  0  0  0  0  0  0
    8.6033   -5.1361    0.0000 C   0  0  0  0  0  0  0  0  0  0  0  0
    6.9468   -5.1069    0.0000 C   0  0  0  0  0  0  0  0  0  0  0  0
    6.9135   -6.5255    0.0000 C   0  0  0  0  0  0  0  0  0  0  0  0
    8.1777   -5.8453    0.0000 C   0  0  0  0  0  0  0  0  0  0  0  0
   10.6810   -4.4476    0.0000 C   0  0  0  0  0  0  0  0  0  0  0  0
   10.6517   -5.8871    0.0000 C   0  0  0  0  0  0  0  0  0  0  0  0
    9.4502   -4.3225    0.0000 O   0  0  0  0  0  0  0  0  0  0  0  0
    9.4168   -5.9747    0.0000 O   0  0  0  0  0  0  0  0  0  0  0  0
   11.4696   -5.9079    0.0000 C   0  0  0  0  0  0  0  0  0  0  0  0
   11.5071   -4.4727    0.0000 C   0  0  0  0  0  0  0  0  0  0  0  0
    7.3723   -4.3850    0.0000 O   0  0  0  0  0  0  0  0  0  0  0  0
    7.3140   -7.2514    0.0000 O   0  0  0  0  0  0  0  0  0  0  0  0
   12.8047   -6.6757    0.0000 C   0  0  0  0  0  0  0  0  0  0  0  0
    6.1249   -5.0860    0.0000 C   0  0  0  0  0  0  0  0  0  0  0  0
    6.0873   -6.5129    0.0000 C   0  0  0  0  0  0  0  0  0  0  0  0
   14.6321   -6.2000    0.0000 C   0  0  0  0  0  0  0  0  0  0  0  0
   14.7573   -4.5603    0.0000 C   0  0  0  0  0  0  0  0  0  0  0  0
    5.6951   -5.7869    0.0000 C   0  0  0  0  0  0  0  0  0  0  0  0
   15.3706   -5.8453    0.0000 C   0  0  0  0  0  0  0  0  0  0  0  0
   15.4373   -5.0234    0.0000 C   0  0  0  0  0  0  0  0  0  0  0  0
  2  6  1  0  0  0  0
  3  1  2  0  0  0  0
  4  1  1  0  0  0  0
  5 13  1  0  0  0  0
  6 14  1  0  0  0  0
  7  1  1  0  0  0  0
  8  4  1  0  0  0  0
  9  3  1  0  0  0  0
 10  2  1  0  0  0  0
 11  5  1  0  0  0  0
 12  5  1  0  0  0  0
 13 10  1  0  0  0  0
 14 19  1  0  0  0  0
 15 18  1  0  0  0  0
 16  2  2  0  0  0  0
 17  2  2  0  0  0  0
 18  7  1  0  0  0  0
 19  7  1  0  0  0  0
 20 11  2  0  0  0  0
 21 12  2  0  0  0  0
 22  4  1  0  0  0  0
 23 11  1  0  0  0  0
 24 12  1  0  0  0  0
 25  8  1  0  0  0  0
 26  9  1  0  0  0  0
 27 24  1  0  0  0  0
 28 25  2  0  0  0  0
 29 26  2  0  0  0  0
  8  9  2  0  0  0  0
 15  6  1  0  0  0  0
 29 28  1  0  0  0  0
 23 27  1  0  0  0  0
M  END
>  <IDNUMBER>
F5825-0161

>  <Chemical_Name>
1-(2-{[4-(1-methyl-1H-1,3-benzodiazol-2-yl)piperazin-1-yl]sulfonyl}ethyl)piperidine-2,6-dione

>  <PriceCoeff>
1.50

>  <CAS>
1219912-02-3

>  <MW>
419.50

>  <Description>
solid

>  <FSP3>
0.53

>  <clogP>
2.11

>  <TPSA>
104.20

>  <Acceptor>
5

>  <Donor>
1

>  <RotBonds>
5

>  <HAC>
29

>  <Collection>
Advanced

>  <PPDS>
+

$$$$
F5831-0290
  Mrv2219 10102508112D          

 32 34  0  0  0  0            999 V2000
   -1.7270    6.2865    0.0000 S   0  0  0  0  0  0  0  0  0  0  0  0
   -2.4486    6.6994    0.0000 N   0  0  0  0  0  0  0  0  0  0  0  0
   -6.7245    3.3622    0.0000 N   0  0  0  0  0  0  0  0  0  0  0  0
   -4.5886    3.8044    0.0000 S   0  0  0  0  0  0  0  0  0  0  0  0
   -7.4503    3.7626    0.0000 C   0  0  0  0  0  0  0  0  0  0  0  0
   -6.7120    2.5237    0.0000 C   0  0  0  0  0  0  0  0  0  0  0  0
   -5.2936    3.3872    0.0000 C   0  0  0  0  0  0  0  0  0  0  0  0
   -6.0111    3.7877    0.0000 C   0  0  0  0  0  0  0  0  0  0  0  0
   -1.0095    5.8818    0.0000 C   0  0  0  0  0  0  0  0  0  0  0  0
   -2.1400    5.5731    0.0000 O   0  0  0  0  0  0  0  0  0  0  0  0
   -1.3223    6.9998    0.0000 O   0  0  0  0  0  0  0  0  0  0  0  0
   -4.1631    3.1119    0.0000 O   0  0  0  0  0  0  0  0  0  0  0  0
   -5.0141    4.5094    0.0000 O   0  0  0  0  0  0  0  0  0  0  0  0
   -3.1494    6.2739    0.0000 C   0  0  0  0  0  0  0  0  0  0  0  0
   -3.8670    4.2174    0.0000 N   0  0  0  0  0  0  0  0  0  0  0  0
   -5.9902    2.1233    0.0000 O   0  0  0  0  0  0  0  0  0  0  0  0
   -7.4753    4.5845    0.0000 O   0  0  0  0  0  0  0  0  0  0  0  0
   -1.0012    5.0600    0.0000 C   0  0  0  0  0  0  0  0  0  0  0  0
   -0.3087    6.3115    0.0000 C   0  0  0  0  0  0  0  0  0  0  0  0
   -2.4403    7.5129    0.0000 C   0  0  0  0  0  0  0  0  0  0  0  0
   -3.1494    5.4563    0.0000 C   0  0  0  0  0  0  0  0  0  0  0  0
   -3.8670    5.0475    0.0000 C   0  0  0  0  0  0  0  0  0  0  0  0
    0.4172    5.9110    0.0000 C   0  0  0  0  0  0  0  0  0  0  0  0
   -0.2836    4.6596    0.0000 C   0  0  0  0  0  0  0  0  0  0  0  0
    0.4297    5.0809    0.0000 C   0  0  0  0  0  0  0  0  0  0  0  0
   -7.4128    2.0982    0.0000 C   0  0  0  0  0  0  0  0  0  0  0  0
   -8.1636    3.3246    0.0000 C   0  0  0  0  0  0  0  0  0  0  0  0
   -8.1386    2.4904    0.0000 C   0  0  0  0  0  0  0  0  0  0  0  0
   -3.8628    6.6869    0.0000 C   0  0  0  0  0  0  0  0  0  0  0  0
    1.1513    4.6721    0.0000 C   0  0  0  0  0  0  0  0  0  0  0  0
   -3.1620    7.9259    0.0000 C   0  0  0  0  0  0  0  0  0  0  0  0
   -3.8795    7.5212    0.0000 C   0  0  0  0  0  0  0  0  0  0  0  0
  2  1  1  0  0  0  0
  3  8  1  0  0  0  0
  4 15  1  0  0  0  0
  5  3  1  0  0  0  0
  6  3  1  0  0  0  0
  7  4  1  0  0  0  0
  8  7  1  0  0  0  0
  9  1  1  0  0  0  0
 10  1  2  0  0  0  0
 11  1  2  0  0  0  0
 12  4  2  0  0  0  0
 13  4  2  0  0  0  0
 14  2  1  0  0  0  0
 15 22  1  0  0  0  0
 16  6  2  0  0  0  0
 17  5  2  0  0  0  0
 18  9  1  0  0  0  0
 19  9  2  0  0  0  0
 20  2  1  0  0  0  0
 21 14  1  0  0  0  0
 22 21  1  0  0  0  0
 23 19  1  0  0  0  0
 24 18  2  0  0  0  0
 25 23  2  0  0  0  0
 26  6  1  0  0  0  0
 27  5  1  0  0  0  0
 28 26  1  0  0  0  0
 29 14  1  0  0  0  0
 30 25  1  0  0  0  0
 31 20  1  0  0  0  0
 32 31  1  0  0  0  0
 25 24  1  0  0  0  0
 32 29  1  0  0  0  0
 27 28  1  0  0  0  0
M  END
>  <IDNUMBER>
F5831-0290

>  <Chemical_Name>
2-(2,6-dioxopiperidin-1-yl)-N-{2-[1-(4-methylbenzenesulfonyl)piperidin-2-yl]ethyl}ethane-1-sulfonamide

>  <PriceCoeff>
1.00

>  <CAS>
1251547-91-7

>  <MW>
485.62

>  <Description>
oil

>  <FSP3>
0.62

>  <clogP>
3.08

>  <TPSA>
137.69

>  <Acceptor>
6

>  <Donor>
1

>  <RotBonds>
9

>  <HAC>
32

>  <Collection>
General

>  <PPDS>
+

$$$$
F5831-1860
  Mrv2219 10102508112D          

 19 20  0  0  0  0            999 V2000
   -5.2715    2.5547    0.0000 N   0  0  0  0  0  0  0  0  0  0  0  0
   -5.3545    1.7280    0.0000 C   0  0  0  0  0  0  0  0  0  0  0  0
   -6.0109    2.8912    0.0000 C   0  0  0  0  0  0  0  0  0  0  0  0
   -4.5694    3.7885    0.0000 C   0  0  0  0  0  0  0  0  0  0  0  0
   -4.5694    2.9742    0.0000 C   0  0  0  0  0  0  0  0  0  0  0  0
   -4.5694    6.2560    0.0000 C   0  0  0  0  0  0  0  0  0  0  0  0
   -3.8508    4.1997    0.0000 N   0  0  0  0  0  0  0  0  0  0  0  0
   -5.2299    6.7462    0.0000 O   0  0  0  0  0  0  0  0  0  0  0  0
   -6.1480    1.5536    0.0000 C   0  0  0  0  0  0  0  0  0  0  0  0
   -6.5675    2.2764    0.0000 C   0  0  0  0  0  0  0  0  0  0  0  0
   -4.5694    5.4377    0.0000 C   0  0  0  0  0  0  0  0  0  0  0  0
   -4.7439    1.1672    0.0000 O   0  0  0  0  0  0  0  0  0  0  0  0
   -6.1937    3.6970    0.0000 O   0  0  0  0  0  0  0  0  0  0  0  0
   -3.8964    6.7462    0.0000 C   0  0  0  0  0  0  0  0  0  0  0  0
   -5.2839    4.1997    0.0000 O   0  0  0  0  0  0  0  0  0  0  0  0
   -4.9806    7.5313    0.0000 C   0  0  0  0  0  0  0  0  0  0  0  0
   -4.1499    7.5313    0.0000 C   0  0  0  0  0  0  0  0  0  0  0  0
   -3.8508    5.0139    0.0000 C   0  0  0  0  0  0  0  0  0  0  0  0
   -3.1363    5.4252    0.0000 C   0  0  0  0  0  0  0  0  0  0  0  0
  2  1  1  0  0  0  0
  3  1  1  0  0  0  0
  4  5  1  0  0  0  0
  5  1  1  0  0  0  0
  6 11  1  0  0  0  0
  7  4  1  0  0  0  0
  8  6  1  0  0  0  0
  9  2  1  0  0  0  0
 10  3  1  0  0  0  0
 11 18  1  0  0  0  0
 12  2  2  0  0  0  0
 13  3  2  0  0  0  0
 14  6  2  0  0  0  0
 15  4  2  0  0  0  0
 16  8  1  0  0  0  0
 17 14  1  0  0  0  0
 18  7  1  0  0  0  0
 19 18  1  0  0  0  0
  9 10  1  0  0  0  0
 17 16  2  0  0  0  0
M  END
>  <IDNUMBER>
F5831-1860

>  <Chemical_Name>
2-(2,5-dioxopyrrolidin-1-yl)-N-[1-(furan-2-yl)propan-2-yl]acetamide

>  <PriceCoeff>
1.00

>  <CAS>
1219913-38-8

>  <MW>
264.28

>  <Description>
solid

>  <FSP3>
0.46

>  <clogP>
0.34

>  <TPSA>
79.62

>  <Acceptor>
4

>  <Donor>
1

>  <RotBonds>
5

>  <HAC>
19

>  <Collection>
General

>  <PPDS>
+

$$$$
F5831-2082
  Mrv2219 10102508112D          

 22 23  0  0  0  0            999 V2000
   -4.5710    3.7898    0.0000 S   0  0  0  0  0  0  0  0  0  0  0  0
   -6.6987    3.3493    0.0000 N   0  0  0  0  0  0  0  0  0  0  0  0
   -7.4217    3.7482    0.0000 C   0  0  0  0  0  0  0  0  0  0  0  0
   -6.6862    2.5140    0.0000 C   0  0  0  0  0  0  0  0  0  0  0  0
   -5.2733    3.3742    0.0000 C   0  0  0  0  0  0  0  0  0  0  0  0
   -5.9881    3.7731    0.0000 C   0  0  0  0  0  0  0  0  0  0  0  0
   -3.8521    4.2012    0.0000 N   0  0  0  0  0  0  0  0  0  0  0  0
   -4.5710    6.2582    0.0000 C   0  0  0  0  0  0  0  0  0  0  0  0
   -4.1471    3.1000    0.0000 O   0  0  0  0  0  0  0  0  0  0  0  0
   -4.9949    4.4921    0.0000 O   0  0  0  0  0  0  0  0  0  0  0  0
   -5.2317    6.7485    0.0000 O   0  0  0  0  0  0  0  0  0  0  0  0
   -4.5710    5.4396    0.0000 C   0  0  0  0  0  0  0  0  0  0  0  0
   -5.9672    2.1151    0.0000 O   0  0  0  0  0  0  0  0  0  0  0  0
   -7.4467    4.5669    0.0000 O   0  0  0  0  0  0  0  0  0  0  0  0
   -3.8978    6.7485    0.0000 C   0  0  0  0  0  0  0  0  0  0  0  0
   -4.9824    7.5339    0.0000 C   0  0  0  0  0  0  0  0  0  0  0  0
   -4.1513    7.5339    0.0000 C   0  0  0  0  0  0  0  0  0  0  0  0
   -3.8521    5.0157    0.0000 C   0  0  0  0  0  0  0  0  0  0  0  0
   -7.3843    2.0902    0.0000 C   0  0  0  0  0  0  0  0  0  0  0  0
   -8.1323    3.3119    0.0000 C   0  0  0  0  0  0  0  0  0  0  0  0
   -8.1074    2.4808    0.0000 C   0  0  0  0  0  0  0  0  0  0  0  0
   -3.1374    5.4271    0.0000 C   0  0  0  0  0  0  0  0  0  0  0  0
  2  6  1  0  0  0  0
  3  2  1  0  0  0  0
  4  2  1  0  0  0  0
  5  1  1  0  0  0  0
  6  5  1  0  0  0  0
  7  1  1  0  0  0  0
  8 12  1  0  0  0  0
  9  1  2  0  0  0  0
 10  1  2  0  0  0  0
 11  8  1  0  0  0  0
 12 18  1  0  0  0  0
 13  4  2  0  0  0  0
 14  3  2  0  0  0  0
 15  8  2  0  0  0  0
 16 11  1  0  0  0  0
 17 15  1  0  0  0  0
 18  7  1  0  0  0  0
 19  4  1  0  0  0  0
 20  3  1  0  0  0  0
 21 19  1  0  0  0  0
 22 18  1  0  0  0  0
 17 16  2  0  0  0  0
 20 21  1  0  0  0  0
M  END
>  <IDNUMBER>
F5831-2082

>  <Chemical_Name>
2-(2,6-dioxopiperidin-1-yl)-N-[1-(furan-2-yl)propan-2-yl]ethane-1-sulfonamide

>  <PriceCoeff>
1.50

>  <MW>
328.38

>  <Description>
oil

>  <FSP3>
0.57

>  <clogP>
1.12

>  <TPSA>
105.07

>  <Acceptor>
5

>  <Donor>
1

>  <RotBonds>
7

>  <HAC>
22

>  <Collection>
Advanced

$$$$
F5831-2307
  Mrv2219 10102508112D          

 19 20  0  0  0  0            999 V2000
   -5.2752    2.5565    0.0000 N   0  0  0  0  0  0  0  0  0  0  0  0
   -5.3583    1.7293    0.0000 C   0  0  0  0  0  0  0  0  0  0  0  0
   -6.0151    2.8932    0.0000 C   0  0  0  0  0  0  0  0  0  0  0  0
   -4.5726    3.7911    0.0000 C   0  0  0  0  0  0  0  0  0  0  0  0
   -4.5726    2.9763    0.0000 C   0  0  0  0  0  0  0  0  0  0  0  0
   -4.5601    6.2603    0.0000 C   0  0  0  0  0  0  0  0  0  0  0  0
   -5.2211    6.7509    0.0000 S   0  0  0  0  0  0  0  0  0  0  0  0
   -3.8535    4.2027    0.0000 N   0  0  0  0  0  0  0  0  0  0  0  0
   -6.1523    1.5547    0.0000 C   0  0  0  0  0  0  0  0  0  0  0  0
   -6.5721    2.2780    0.0000 C   0  0  0  0  0  0  0  0  0  0  0  0
   -4.5726    5.4415    0.0000 C   0  0  0  0  0  0  0  0  0  0  0  0
   -4.7472    1.1681    0.0000 O   0  0  0  0  0  0  0  0  0  0  0  0
   -6.1980    3.6996    0.0000 O   0  0  0  0  0  0  0  0  0  0  0  0
   -4.9634    7.5324    0.0000 C   0  0  0  0  0  0  0  0  0  0  0  0
   -3.8867    6.7384    0.0000 C   0  0  0  0  0  0  0  0  0  0  0  0
   -5.2876    4.2027    0.0000 O   0  0  0  0  0  0  0  0  0  0  0  0
   -4.1486    7.5241    0.0000 C   0  0  0  0  0  0  0  0  0  0  0  0
   -3.8535    5.0175    0.0000 C   0  0  0  0  0  0  0  0  0  0  0  0
   -3.1385    5.4290    0.0000 C   0  0  0  0  0  0  0  0  0  0  0  0
  2  1  1  0  0  0  0
  3  1  1  0  0  0  0
  4  5  1  0  0  0  0
  5  1  1  0  0  0  0
  6 11  1  0  0  0  0
  7  6  1  0  0  0  0
  8  4  1  0  0  0  0
  9  2  1  0  0  0  0
 10  3  1  0  0  0  0
 11 18  1  0  0  0  0
 12  2  2  0  0  0  0
 13  3  2  0  0  0  0
 14  7  1  0  0  0  0
 15  6  2  0  0  0  0
 16  4  2  0  0  0  0
 17 15  1  0  0  0  0
 18  8  1  0  0  0  0
 19 18  1  0  0  0  0
  9 10  1  0  0  0  0
 17 14  2  0  0  0  0
M  END
>  <IDNUMBER>
F5831-2307

>  <Chemical_Name>
2-(2,5-dioxopyrrolidin-1-yl)-N-[1-(thiophen-2-yl)propan-2-yl]acetamide

>  <PriceCoeff>
1.00

>  <CAS>
1210779-47-7

>  <MW>
280.34

>  <Description>
solid

>  <FSP3>
0.46

>  <clogP>
0.81

>  <TPSA>
94.72

>  <Acceptor>
3

>  <Donor>
1

>  <RotBonds>
5

>  <HAC>
19

>  <Collection>
General

>  <PPDS>
+

$$$$
F5831-3041
  Mrv2219 10102508112D          

 24 26  0  0  0  0            999 V2000
   -4.5936    3.8085    0.0000 C   0  0  0  0  0  0  0  0  0  0  0  0
   -3.8711    4.2219    0.0000 N   0  0  0  0  0  0  0  0  0  0  0  0
   -4.5936    2.9900    0.0000 N   0  0  0  0  0  0  0  0  0  0  0  0
   -3.1153    3.8920    0.0000 C   0  0  0  0  0  0  0  0  0  0  0  0
   -6.0176    1.3363    0.0000 C   0  0  0  0  0  0  0  0  0  0  0  0
   -5.3119    1.7497    0.0000 C   0  0  0  0  0  0  0  0  0  0  0  0
   -2.5640    4.5018    0.0000 C   0  0  0  0  0  0  0  0  0  0  0  0
   -5.3119    2.5766    0.0000 C   0  0  0  0  0  0  0  0  0  0  0  0
   -3.7835    5.0405    0.0000 C   0  0  0  0  0  0  0  0  0  0  0  0
   -5.3077    4.2219    0.0000 O   0  0  0  0  0  0  0  0  0  0  0  0
   -1.7372    4.5018    0.0000 C   0  0  0  0  0  0  0  0  0  0  0  0
   -6.7317    1.7497    0.0000 C   0  0  0  0  0  0  0  0  0  0  0  0
   -2.9775    5.2159    0.0000 C   0  0  0  0  0  0  0  0  0  0  0  0
   -6.7317    2.5682    0.0000 C   0  0  0  0  0  0  0  0  0  0  0  0
   -1.3238    3.8043    0.0000 C   0  0  0  0  0  0  0  0  0  0  0  0
   -1.3238    5.2242    0.0000 C   0  0  0  0  0  0  0  0  0  0  0  0
   -6.0176    0.5094    0.0000 Cl  0  0  0  0  0  0  0  0  0  0  0  0
   -6.0176    2.9900    0.0000 C   0  0  0  0  0  0  0  0  0  0  0  0
   -7.4542    1.3238    0.0000 Cl  0  0  0  0  0  0  0  0  0  0  0  0
   -0.0835    4.5018    0.0000 C   0  0  0  0  0  0  0  0  0  0  0  0
   -0.5011    5.2242    0.0000 C   0  0  0  0  0  0  0  0  0  0  0  0
   -0.4969    3.8043    0.0000 C   0  0  0  0  0  0  0  0  0  0  0  0
    0.7392    4.5018    0.0000 O   0  0  0  0  0  0  0  0  0  0  0  0
    1.1526    3.8043    0.0000 C   0  0  0  0  0  0  0  0  0  0  0  0
  2  1  1  0  0  0  0
  3  1  1  0  0  0  0
  4  2  1  0  0  0  0
  5  6  1  0  0  0  0
  6  8  2  0  0  0  0
  7  4  1  0  0  0  0
  8  3  1  0  0  0  0
  9  2  1  0  0  0  0
 10  1  2  0  0  0  0
 11  7  1  0  0  0  0
 12 14  1  0  0  0  0
 13  9  1  0  0  0  0
 14 18  2  0  0  0  0
 15 11  1  0  0  0  0
 16 11  2  0  0  0  0
 17  5  1  0  0  0  0
 18  8  1  0  0  0  0
 19 12  1  0  0  0  0
 20 21  2  0  0  0  0
 21 16  1  0  0  0  0
 22 15  2  0  0  0  0
 23 20  1  0  0  0  0
 24 23  1  0  0  0  0
  7 13  1  0  0  0  0
  5 12  2  0  0  0  0
 22 20  1  0  0  0  0
M  END
>  <IDNUMBER>
F5831-3041

>  <Chemical_Name>
N-(3,4-dichlorophenyl)-3-(4-methoxyphenyl)pyrrolidine-1-carboxamide

>  <PriceCoeff>
1.00

>  <CAS>
1210395-78-0

>  <MW>
365.25

>  <Description>
solid

>  <FSP3>
0.28

>  <clogP>
4.48

>  <TPSA>
41.57

>  <Acceptor>
2

>  <Donor>
1

>  <RotBonds>
4

>  <HAC>
24

>  <Collection>
General

>  <PPDS>
+

$$$$
F5831-3334
  Mrv2219 10102508112D          

 24 26  0  0  0  0            999 V2000
   -4.5928    3.8079    0.0000 S   0  0  0  0  0  0  0  0  0  0  0  0
   -6.7306    3.3653    0.0000 N   0  0  0  0  0  0  0  0  0  0  0  0
   -3.8705    4.2212    0.0000 N   0  0  0  0  0  0  0  0  0  0  0  0
   -5.2985    3.3903    0.0000 C   0  0  0  0  0  0  0  0  0  0  0  0
   -6.7181    2.5260    0.0000 C   0  0  0  0  0  0  0  0  0  0  0  0
   -7.4571    3.7661    0.0000 C   0  0  0  0  0  0  0  0  0  0  0  0
   -6.0166    3.7911    0.0000 C   0  0  0  0  0  0  0  0  0  0  0  0
   -3.1147    3.8913    0.0000 C   0  0  0  0  0  0  0  0  0  0  0  0
   -4.1669    3.1147    0.0000 O   0  0  0  0  0  0  0  0  0  0  0  0
   -5.0187    4.5135    0.0000 O   0  0  0  0  0  0  0  0  0  0  0  0
   -2.5636    4.5010    0.0000 C   0  0  0  0  0  0  0  0  0  0  0  0
   -3.7828    5.0396    0.0000 C   0  0  0  0  0  0  0  0  0  0  0  0
   -5.9957    2.1252    0.0000 O   0  0  0  0  0  0  0  0  0  0  0  0
   -7.4822    4.5887    0.0000 O   0  0  0  0  0  0  0  0  0  0  0  0
   -2.9770    5.2150    0.0000 C   0  0  0  0  0  0  0  0  0  0  0  0
   -1.7369    4.5010    0.0000 C   0  0  0  0  0  0  0  0  0  0  0  0
   -7.4195    2.1001    0.0000 C   0  0  0  0  0  0  0  0  0  0  0  0
   -8.1711    3.3277    0.0000 C   0  0  0  0  0  0  0  0  0  0  0  0
   -8.1460    2.4927    0.0000 C   0  0  0  0  0  0  0  0  0  0  0  0
   -1.3235    5.2233    0.0000 C   0  0  0  0  0  0  0  0  0  0  0  0
   -1.3235    3.8037    0.0000 C   0  0  0  0  0  0  0  0  0  0  0  0
   -0.5010    5.2233    0.0000 C   0  0  0  0  0  0  0  0  0  0  0  0
   -0.4968    3.8037    0.0000 C   0  0  0  0  0  0  0  0  0  0  0  0
   -0.0835    4.5010    0.0000 C   0  0  0  0  0  0  0  0  0  0  0  0
  2  7  1  0  0  0  0
  3  1  1  0  0  0  0
  4  1  1  0  0  0  0
  5  2  1  0  0  0  0
  6  2  1  0  0  0  0
  7  4  1  0  0  0  0
  8  3  1  0  0  0  0
  9  1  2  0  0  0  0
 10  1  2  0  0  0  0
 11  8  1  0  0  0  0
 12  3  1  0  0  0  0
 13  5  2  0  0  0  0
 14  6  2  0  0  0  0
 15 12  1  0  0  0  0
 16 11  1  0  0  0  0
 17  5  1  0  0  0  0
 18  6  1  0  0  0  0
 19 18  1  0  0  0  0
 20 16  2  0  0  0  0
 21 16  1  0  0  0  0
 22 20  1  0  0  0  0
 23 21  2  0  0  0  0
 24 23  1  0  0  0  0
 11 15  1  0  0  0  0
 19 17  1  0  0  0  0
 24 22  2  0  0  0  0
M  END
>  <IDNUMBER>
F5831-3334

>  <Chemical_Name>
1-{2-[(3-phenylpyrrolidin-1-yl)sulfonyl]ethyl}piperidine-2,6-dione

>  <PriceCoeff>
1.00

>  <MW>
350.43

>  <Description>
oil

>  <FSP3>
0.53

>  <clogP>
2.10

>  <TPSA>
77.28

>  <Acceptor>
4

>  <Donor>
0

>  <RotBonds>
5

>  <HAC>
24

>  <Collection>
General

$$$$
F5831-4222
  Mrv2219 10102508112D          

 22 24  0  0  0  0            999 V2000
   -5.2631    2.5507    0.0000 N   0  0  0  0  0  0  0  0  0  0  0  0
   -5.3460    1.7253    0.0000 C   0  0  0  0  0  0  0  0  0  0  0  0
   -6.0013    2.8866    0.0000 C   0  0  0  0  0  0  0  0  0  0  0  0
   -2.2520    6.4119    0.0000 C   0  0  0  0  0  0  0  0  0  0  0  0
   -3.0483    6.2377    0.0000 O   0  0  0  0  0  0  0  0  0  0  0  0
   -4.5621    2.9695    0.0000 C   0  0  0  0  0  0  0  0  0  0  0  0
   -1.8373    5.7027    0.0000 O   0  0  0  0  0  0  0  0  0  0  0  0
   -4.5621    3.7824    0.0000 C   0  0  0  0  0  0  0  0  0  0  0  0
   -3.8447    4.1930    0.0000 N   0  0  0  0  0  0  0  0  0  0  0  0
   -6.1382    1.5511    0.0000 C   0  0  0  0  0  0  0  0  0  0  0  0
   -6.5571    2.2727    0.0000 C   0  0  0  0  0  0  0  0  0  0  0  0
   -4.7363    1.1654    0.0000 O   0  0  0  0  0  0  0  0  0  0  0  0
   -6.1838    3.6912    0.0000 O   0  0  0  0  0  0  0  0  0  0  0  0
   -3.1313    5.4248    0.0000 C   0  0  0  0  0  0  0  0  0  0  0  0
   -5.2755    4.1930    0.0000 O   0  0  0  0  0  0  0  0  0  0  0  0
   -2.3765    5.0931    0.0000 C   0  0  0  0  0  0  0  0  0  0  0  0
   -3.8447    5.0060    0.0000 C   0  0  0  0  0  0  0  0  0  0  0  0
   -2.4718    7.2082    0.0000 C   0  0  0  0  0  0  0  0  0  0  0  0
   -1.4640    6.2004    0.0000 C   0  0  0  0  0  0  0  0  0  0  0  0
   -1.8995    7.7888    0.0000 C   0  0  0  0  0  0  0  0  0  0  0  0
   -0.8792    6.7852    0.0000 C   0  0  0  0  0  0  0  0  0  0  0  0
   -1.0949    7.5815    0.0000 C   0  0  0  0  0  0  0  0  0  0  0  0
  2  1  1  0  0  0  0
  3  1  1  0  0  0  0
  4  5  1  0  0  0  0
  5 14  1  0  0  0  0
  6  1  1  0  0  0  0
  7 16  1  0  0  0  0
  8  6  1  0  0  0  0
  9  8  1  0  0  0  0
 10  2  1  0  0  0  0
 11  3  1  0  0  0  0
 12  2  2  0  0  0  0
 13  3  2  0  0  0  0
 14 17  1  0  0  0  0
 15  8  2  0  0  0  0
 16 14  1  0  0  0  0
 17  9  1  0  0  0  0
 18  4  1  0  0  0  0
 19  4  1  0  0  0  0
 20 18  1  0  0  0  0
 21 19  1  0  0  0  0
 22 21  1  0  0  0  0
 10 11  1  0  0  0  0
  7  4  1  0  0  0  0
 20 22  1  0  0  0  0
M  END
>  <IDNUMBER>
F5831-4222

>  <Chemical_Name>
N-({1,4-dioxaspiro[4.5]decan-2-yl}methyl)-2-(2,5-dioxopyrrolidin-1-yl)acetamide

>  <PriceCoeff>
1.00

>  <CAS>
1211724-61-6

>  <MW>
310.35

>  <Description>
solid

>  <FSP3>
0.80

>  <clogP>
0.97

>  <TPSA>
84.94

>  <Acceptor>
5

>  <Donor>
1

>  <RotBonds>
4

>  <HAC>
22

>  <Collection>
General

>  <PPDS>
+

$$$$
F5831-6629
  Mrv2219 10102508112D          

 28 30  0  0  0  0            999 V2000
   -4.5833    3.8000    0.0000 S   0  0  0  0  0  0  0  0  0  0  0  0
   -6.7167    3.3583    0.0000 N   0  0  0  0  0  0  0  0  0  0  0  0
   -7.4417    3.7583    0.0000 C   0  0  0  0  0  0  0  0  0  0  0  0
   -6.7042    2.5208    0.0000 C   0  0  0  0  0  0  0  0  0  0  0  0
   -5.2875    3.3833    0.0000 C   0  0  0  0  0  0  0  0  0  0  0  0
   -6.0042    3.7833    0.0000 C   0  0  0  0  0  0  0  0  0  0  0  0
   -1.7208    6.2667    0.0000 N   0  0  0  0  0  0  0  0  0  0  0  0
   -3.8625    4.2125    0.0000 N   0  0  0  0  0  0  0  0  0  0  0  0
   -4.1583    3.1083    0.0000 O   0  0  0  0  0  0  0  0  0  0  0  0
   -5.0083    4.5042    0.0000 O   0  0  0  0  0  0  0  0  0  0  0  0
   -5.9833    2.1208    0.0000 O   0  0  0  0  0  0  0  0  0  0  0  0
   -7.4667    4.5792    0.0000 O   0  0  0  0  0  0  0  0  0  0  0  0
   -1.0083    6.6792    0.0000 C   0  0  0  0  0  0  0  0  0  0  0  0
   -2.4250    6.6917    0.0000 C   0  0  0  0  0  0  0  0  0  0  0  0
   -1.7125    5.4542    0.0000 C   0  0  0  0  0  0  0  0  0  0  0  0
   -3.8625    5.0292    0.0000 C   0  0  0  0  0  0  0  0  0  0  0  0
   -3.1458    5.4500    0.0000 C   0  0  0  0  0  0  0  0  0  0  0  0
   -1.0083    7.5125    0.0000 C   0  0  0  0  0  0  0  0  0  0  0  0
   -7.4042    2.0958    0.0000 C   0  0  0  0  0  0  0  0  0  0  0  0
   -8.1542    3.3208    0.0000 C   0  0  0  0  0  0  0  0  0  0  0  0
   -2.4333    5.0417    0.0000 C   0  0  0  0  0  0  0  0  0  0  0  0
   -3.1458    6.2792    0.0000 C   0  0  0  0  0  0  0  0  0  0  0  0
   -8.1292    2.4875    0.0000 C   0  0  0  0  0  0  0  0  0  0  0  0
   -0.2875    7.9167    0.0000 C   0  0  0  0  0  0  0  0  0  0  0  0
   -1.7208    7.9167    0.0000 C   0  0  0  0  0  0  0  0  0  0  0  0
   -1.7208    8.7417    0.0000 C   0  0  0  0  0  0  0  0  0  0  0  0
   -0.2875    8.7417    0.0000 C   0  0  0  0  0  0  0  0  0  0  0  0
   -1.0083    9.1542    0.0000 C   0  0  0  0  0  0  0  0  0  0  0  0
  2  6  1  0  0  0  0
  3  2  1  0  0  0  0
  4  2  1  0  0  0  0
  5  1  1  0  0  0  0
  6  5  1  0  0  0  0
  7 14  1  0  0  0  0
  8  1  1  0  0  0  0
  9  1  2  0  0  0  0
 10  1  2  0  0  0  0
 11  4  2  0  0  0  0
 12  3  2  0  0  0  0
 13  7  1  0  0  0  0
 14 22  1  0  0  0  0
 15 21  1  0  0  0  0
 16  8  1  0  0  0  0
 17 16  1  0  0  0  0
 18 13  1  0  0  0  0
 19  4  1  0  0  0  0
 20  3  1  0  0  0  0
 21 17  1  0  0  0  0
 22 17  1  0  0  0  0
 23 19  1  0  0  0  0
 24 18  1  0  0  0  0
 25 18  2  0  0  0  0
 26 25  1  0  0  0  0
 27 24  2  0  0  0  0
 28 26  2  0  0  0  0
  7 15  1  0  0  0  0
 20 23  1  0  0  0  0
 27 28  1  0  0  0  0
M  END
>  <IDNUMBER>
F5831-6629

>  <Chemical_Name>
N-[(1-benzylpiperidin-4-yl)methyl]-2-(2,6-dioxopiperidin-1-yl)ethane-1-sulfonamide

>  <PriceCoeff>
1.00

>  <CAS>
1210203-38-5

>  <MW>
407.53

>  <Description>
solid

>  <FSP3>
0.60

>  <clogP>
2.00

>  <TPSA>
95.17

>  <Acceptor>
4

>  <Donor>
2

>  <RotBonds>
8

>  <HAC>
28

>  <Collection>
General

>  <PPDS>
+

$$$$
F5831-7018
  Mrv2219 10102508112D          

 27 29  0  0  0  0            999 V2000
   -4.5833    3.8000    0.0000 S   0  0  0  0  0  0  0  0  0  0  0  0
   -6.7167    3.3583    0.0000 N   0  0  0  0  0  0  0  0  0  0  0  0
   -7.4417    3.7583    0.0000 C   0  0  0  0  0  0  0  0  0  0  0  0
   -6.7042    2.5208    0.0000 C   0  0  0  0  0  0  0  0  0  0  0  0
   -5.2875    3.3833    0.0000 C   0  0  0  0  0  0  0  0  0  0  0  0
   -6.0042    3.7833    0.0000 C   0  0  0  0  0  0  0  0  0  0  0  0
   -1.7083    6.2750    0.0000 N   0  0  0  0  0  0  0  0  0  0  0  0
   -3.8625    4.2125    0.0000 N   0  0  0  0  0  0  0  0  0  0  0  0
   -1.6000    8.0667    0.0000 S   0  0  0  0  0  0  0  0  0  0  0  0
   -0.9958    7.5167    0.0000 C   0  0  0  0  0  0  0  0  0  0  0  0
   -4.1583    3.1083    0.0000 O   0  0  0  0  0  0  0  0  0  0  0  0
   -5.0083    4.5042    0.0000 O   0  0  0  0  0  0  0  0  0  0  0  0
   -5.9833    2.1208    0.0000 O   0  0  0  0  0  0  0  0  0  0  0  0
   -7.4667    4.5792    0.0000 O   0  0  0  0  0  0  0  0  0  0  0  0
   -1.2708    8.8167    0.0000 C   0  0  0  0  0  0  0  0  0  0  0  0
   -0.2833    7.9250    0.0000 C   0  0  0  0  0  0  0  0  0  0  0  0
   -0.9958    6.6917    0.0000 C   0  0  0  0  0  0  0  0  0  0  0  0
   -0.4500    8.7292    0.0000 C   0  0  0  0  0  0  0  0  0  0  0  0
   -1.7083    5.4542    0.0000 C   0  0  0  0  0  0  0  0  0  0  0  0
   -2.4208    6.6917    0.0000 C   0  0  0  0  0  0  0  0  0  0  0  0
   -3.8625    5.0292    0.0000 C   0  0  0  0  0  0  0  0  0  0  0  0
   -3.1458    5.4500    0.0000 C   0  0  0  0  0  0  0  0  0  0  0  0
   -7.4042    2.0958    0.0000 C   0  0  0  0  0  0  0  0  0  0  0  0
   -8.1542    3.3208    0.0000 C   0  0  0  0  0  0  0  0  0  0  0  0
   -2.4333    5.0417    0.0000 C   0  0  0  0  0  0  0  0  0  0  0  0
   -3.1458    6.2792    0.0000 C   0  0  0  0  0  0  0  0  0  0  0  0
   -8.1292    2.4875    0.0000 C   0  0  0  0  0  0  0  0  0  0  0  0
  2  6  1  0  0  0  0
  3  2  1  0  0  0  0
  4  2  1  0  0  0  0
  5  1  1  0  0  0  0
  6  5  1  0  0  0  0
  7 20  1  0  0  0  0
  8  1  1  0  0  0  0
  9 10  1  0  0  0  0
 10 17  1  0  0  0  0
 11  1  2  0  0  0  0
 12  1  2  0  0  0  0
 13  4  2  0  0  0  0
 14  3  2  0  0  0  0
 15  9  1  0  0  0  0
 16 10  2  0  0  0  0
 17  7  1  0  0  0  0
 18 16  1  0  0  0  0
 19 25  1  0  0  0  0
 20 26  1  0  0  0  0
 21  8  1  0  0  0  0
 22 21  1  0  0  0  0
 23  4  1  0  0  0  0
 24  3  1  0  0  0  0
 25 22  1  0  0  0  0
 26 22  1  0  0  0  0
 27 23  1  0  0  0  0
  7 19  1  0  0  0  0
 24 27  1  0  0  0  0
 18 15  2  0  0  0  0
M  END
>  <IDNUMBER>
F5831-7018

>  <Chemical_Name>
2-(2,6-dioxopiperidin-1-yl)-N-({1-[(thiophen-2-yl)methyl]piperidin-4-yl}methyl)ethane-1-sulfonamide

>  <PriceCoeff>
1.00

>  <CAS>
1211699-08-9

>  <MW>
413.55

>  <Description>
solid

>  <FSP3>
0.67

>  <clogP>
1.65

>  <TPSA>
123.41

>  <Acceptor>
4

>  <Donor>
2

>  <RotBonds>
8

>  <HAC>
27

>  <Collection>
General

>  <PPDS>
+

$$$$
F5831-7582
  Mrv2219 10102508112D          

 20 21  0  0  0  0            999 V2000
   -4.5725    3.7910    0.0000 S   0  0  0  0  0  0  0  0  0  0  0  0
   -6.7008    3.3504    0.0000 N   0  0  0  0  0  0  0  0  0  0  0  0
   -7.4241    3.7494    0.0000 C   0  0  0  0  0  0  0  0  0  0  0  0
   -6.6884    2.5148    0.0000 C   0  0  0  0  0  0  0  0  0  0  0  0
   -5.2750    3.3753    0.0000 C   0  0  0  0  0  0  0  0  0  0  0  0
   -5.9900    3.7744    0.0000 C   0  0  0  0  0  0  0  0  0  0  0  0
   -3.1384    5.4371    0.0000 C   0  0  0  0  0  0  0  0  0  0  0  0
   -3.8534    4.2026    0.0000 N   0  0  0  0  0  0  0  0  0  0  0  0
   -2.2447    6.4140    0.0000 S   0  0  0  0  0  0  0  0  0  0  0  0
   -4.1485    3.1010    0.0000 O   0  0  0  0  0  0  0  0  0  0  0  0
   -4.9965    4.4936    0.0000 O   0  0  0  0  0  0  0  0  0  0  0  0
   -3.0511    6.2602    0.0000 C   0  0  0  0  0  0  0  0  0  0  0  0
   -2.3901    5.0921    0.0000 C   0  0  0  0  0  0  0  0  0  0  0  0
   -5.9692    2.1158    0.0000 O   0  0  0  0  0  0  0  0  0  0  0  0
   -7.4491    4.5684    0.0000 O   0  0  0  0  0  0  0  0  0  0  0  0
   -1.8414    5.7157    0.0000 C   0  0  0  0  0  0  0  0  0  0  0  0
   -3.8534    5.0173    0.0000 C   0  0  0  0  0  0  0  0  0  0  0  0
   -7.3867    2.0909    0.0000 C   0  0  0  0  0  0  0  0  0  0  0  0
   -8.1349    3.3130    0.0000 C   0  0  0  0  0  0  0  0  0  0  0  0
   -8.1100    2.4816    0.0000 C   0  0  0  0  0  0  0  0  0  0  0  0
  2  6  1  0  0  0  0
  3  2  1  0  0  0  0
  4  2  1  0  0  0  0
  5  1  1  0  0  0  0
  6  5  1  0  0  0  0
  7 17  1  0  0  0  0
  8  1  1  0  0  0  0
  9 12  1  0  0  0  0
 10  1  2  0  0  0  0
 11  1  2  0  0  0  0
 12  7  2  0  0  0  0
 13  7  1  0  0  0  0
 14  4  2  0  0  0  0
 15  3  2  0  0  0  0
 16 13  2  0  0  0  0
 17  8  1  0  0  0  0
 18  4  1  0  0  0  0
 19  3  1  0  0  0  0
 20 18  1  0  0  0  0
  9 16  1  0  0  0  0
 19 20  1  0  0  0  0
M  END
>  <IDNUMBER>
F5831-7582

>  <Chemical_Name>
2-(2,6-dioxopiperidin-1-yl)-N-[(thiophen-3-yl)methyl]ethane-1-sulfonamide

>  <PriceCoeff>
1.00

>  <CAS>
1207001-25-9

>  <MW>
316.40

>  <Description>
solid

>  <FSP3>
0.50

>  <clogP>
0.83

>  <TPSA>
120.17

>  <Acceptor>
4

>  <Donor>
1

>  <RotBonds>
6

>  <HAC>
20

>  <Collection>
General

>  <PPDS>
+

$$$$
F5831-9107
  Mrv2219 10102508112D          

 22 24  0  0  0  0            999 V2000
   -5.2875    2.5625    0.0000 N   0  0  0  0  0  0  0  0  0  0  0  0
   -3.1500    5.4542    0.0000 C   0  0  0  0  0  0  0  0  0  0  0  0
   -5.3708    1.7333    0.0000 C   0  0  0  0  0  0  0  0  0  0  0  0
   -6.0292    2.9000    0.0000 C   0  0  0  0  0  0  0  0  0  0  0  0
   -2.7375    6.1667    0.0000 C   0  0  0  0  0  0  0  0  0  0  0  0
   -3.5625    6.1667    0.0000 C   0  0  0  0  0  0  0  0  0  0  0  0
   -4.5833    2.9833    0.0000 C   0  0  0  0  0  0  0  0  0  0  0  0
   -4.5833    3.8000    0.0000 C   0  0  0  0  0  0  0  0  0  0  0  0
   -2.4333    5.0417    0.0000 C   0  0  0  0  0  0  0  0  0  0  0  0
   -3.8625    5.0292    0.0000 C   0  0  0  0  0  0  0  0  0  0  0  0
   -3.8625    4.2125    0.0000 N   0  0  0  0  0  0  0  0  0  0  0  0
   -6.1667    1.5583    0.0000 C   0  0  0  0  0  0  0  0  0  0  0  0
   -6.5875    2.2833    0.0000 C   0  0  0  0  0  0  0  0  0  0  0  0
   -4.7583    1.1708    0.0000 O   0  0  0  0  0  0  0  0  0  0  0  0
   -6.2125    3.7083    0.0000 O   0  0  0  0  0  0  0  0  0  0  0  0
   -5.3000    4.2125    0.0000 O   0  0  0  0  0  0  0  0  0  0  0  0
   -1.7208    5.4542    0.0000 C   0  0  0  0  0  0  0  0  0  0  0  0
   -2.4333    4.2125    0.0000 C   0  0  0  0  0  0  0  0  0  0  0  0
   -1.0083    4.2167    0.0000 C   0  0  0  0  0  0  0  0  0  0  0  0
   -1.0083    5.0417    0.0000 C   0  0  0  0  0  0  0  0  0  0  0  0
   -1.7208    3.8000    0.0000 C   0  0  0  0  0  0  0  0  0  0  0  0
   -0.2958    3.8083    0.0000 F   0  0  0  0  0  0  0  0  0  0  0  0
  2 10  1  0  0  0  0
  3  1  1  0  0  0  0
  4  1  1  0  0  0  0
  5  2  1  0  0  0  0
  6  2  1  0  0  0  0
  7  1  1  0  0  0  0
  8  7  1  0  0  0  0
  9  2  1  0  0  0  0
 10 11  1  0  0  0  0
 11  8  1  0  0  0  0
 12  3  1  0  0  0  0
 13  4  1  0  0  0  0
 14  3  2  0  0  0  0
 15  4  2  0  0  0  0
 16  8  2  0  0  0  0
 17  9  2  0  0  0  0
 18  9  1  0  0  0  0
 19 21  1  0  0  0  0
 20 17  1  0  0  0  0
 21 18  2  0  0  0  0
 22 19  1  0  0  0  0
 12 13  1  0  0  0  0
  5  6  1  0  0  0  0
 20 19  2  0  0  0  0
M  END
>  <IDNUMBER>
F5831-9107

>  <Chemical_Name>
2-(2,5-dioxopyrrolidin-1-yl)-N-{[1-(4-fluorophenyl)cyclopropyl]methyl}acetamide

>  <PriceCoeff>
1.00

>  <CAS>
1207052-67-2

>  <MW>
304.32

>  <Description>
solid

>  <FSP3>
0.44

>  <clogP>
1.43

>  <TPSA>
66.48

>  <Acceptor>
3

>  <Donor>
1

>  <RotBonds>
5

>  <HAC>
22

>  <Collection>
General

>  <PPDS>
+

$$$$
F5831-9284
  Mrv2219 10102508112D          

 24 26  0  0  0  0            999 V2000
   -5.2607    2.5495    0.0000 N   0  0  0  0  0  0  0  0  0  0  0  0
   -5.3436    1.7245    0.0000 C   0  0  0  0  0  0  0  0  0  0  0  0
   -5.9987    2.8853    0.0000 C   0  0  0  0  0  0  0  0  0  0  0  0
   -4.5601    2.9682    0.0000 C   0  0  0  0  0  0  0  0  0  0  0  0
   -4.5601    3.7808    0.0000 C   0  0  0  0  0  0  0  0  0  0  0  0
   -3.1216    5.4266    0.0000 C   0  0  0  0  0  0  0  0  0  0  0  0
   -3.8429    4.1912    0.0000 N   0  0  0  0  0  0  0  0  0  0  0  0
   -6.1355    1.5504    0.0000 C   0  0  0  0  0  0  0  0  0  0  0  0
   -6.5541    2.2717    0.0000 C   0  0  0  0  0  0  0  0  0  0  0  0
   -4.7342    1.1649    0.0000 O   0  0  0  0  0  0  0  0  0  0  0  0
   -6.1810    3.6895    0.0000 O   0  0  0  0  0  0  0  0  0  0  0  0
   -3.8429    5.0037    0.0000 C   0  0  0  0  0  0  0  0  0  0  0  0
   -5.2732    4.1912    0.0000 O   0  0  0  0  0  0  0  0  0  0  0  0
   -2.4210    5.0162    0.0000 C   0  0  0  0  0  0  0  0  0  0  0  0
   -3.1216    7.0558    0.0000 O   0  0  0  0  0  0  0  0  0  0  0  0
   -2.4334    5.8370    0.0000 C   0  0  0  0  0  0  0  0  0  0  0  0
   -3.8429    5.8370    0.0000 C   0  0  0  0  0  0  0  0  0  0  0  0
   -3.8429    6.6661    0.0000 C   0  0  0  0  0  0  0  0  0  0  0  0
   -2.4334    6.6661    0.0000 C   0  0  0  0  0  0  0  0  0  0  0  0
   -1.6996    5.4266    0.0000 C   0  0  0  0  0  0  0  0  0  0  0  0
   -2.4210    4.1912    0.0000 C   0  0  0  0  0  0  0  0  0  0  0  0
   -0.9908    5.0162    0.0000 C   0  0  0  0  0  0  0  0  0  0  0  0
   -1.6996    3.7808    0.0000 C   0  0  0  0  0  0  0  0  0  0  0  0
   -0.9908    4.1912    0.0000 C   0  0  0  0  0  0  0  0  0  0  0  0
  2  1  1  0  0  0  0
  3  1  1  0  0  0  0
  4  1  1  0  0  0  0
  5  4  1  0  0  0  0
  6 12  1  0  0  0  0
  7  5  1  0  0  0  0
  8  2  1  0  0  0  0
  9  3  1  0  0  0  0
 10  2  2  0  0  0  0
 11  3  2  0  0  0  0
 12  7  1  0  0  0  0
 13  5  2  0  0  0  0
 14  6  1  0  0  0  0
 15 18  1  0  0  0  0
 16  6  1  0  0  0  0
 17  6  1  0  0  0  0
 18 17  1  0  0  0  0
 19 16  1  0  0  0  0
 20 14  2  0  0  0  0
 21 14  1  0  0  0  0
 22 20  1  0  0  0  0
 23 21  2  0  0  0  0
 24 23  1  0  0  0  0
  8  9  1  0  0  0  0
 19 15  1  0  0  0  0
 24 22  2  0  0  0  0
M  END
>  <IDNUMBER>
F5831-9284

>  <Chemical_Name>
2-(2,5-dioxopyrrolidin-1-yl)-N-[(4-phenyloxan-4-yl)methyl]acetamide

>  <PriceCoeff>
1.00

>  <CAS>
1207011-50-4

>  <MW>
330.38

>  <Description>
solid

>  <FSP3>
0.50

>  <clogP>
0.57

>  <TPSA>
75.71

>  <Acceptor>
4

>  <Donor>
1

>  <RotBonds>
5

>  <HAC>
24

>  <Collection>
General

>  <PPDS>
+

$$$$
F5831-9365
  Mrv2219 10102508112D          

 27 29  0  0  0  0            999 V2000
   -4.5601    3.7808    0.0000 S   0  0  0  0  0  0  0  0  0  0  0  0
   -6.6827    3.3413    0.0000 N   0  0  0  0  0  0  0  0  0  0  0  0
   -7.4040    3.7393    0.0000 C   0  0  0  0  0  0  0  0  0  0  0  0
   -6.6702    2.5080    0.0000 C   0  0  0  0  0  0  0  0  0  0  0  0
   -5.2607    3.3662    0.0000 C   0  0  0  0  0  0  0  0  0  0  0  0
   -5.9738    3.7641    0.0000 C   0  0  0  0  0  0  0  0  0  0  0  0
   -3.8429    4.1912    0.0000 N   0  0  0  0  0  0  0  0  0  0  0  0
   -3.1216    5.4266    0.0000 C   0  0  0  0  0  0  0  0  0  0  0  0
   -4.1372    3.0926    0.0000 O   0  0  0  0  0  0  0  0  0  0  0  0
   -4.9829    4.4814    0.0000 O   0  0  0  0  0  0  0  0  0  0  0  0
   -3.8429    5.0037    0.0000 C   0  0  0  0  0  0  0  0  0  0  0  0
   -5.9530    2.1101    0.0000 O   0  0  0  0  0  0  0  0  0  0  0  0
   -7.4289    4.5560    0.0000 O   0  0  0  0  0  0  0  0  0  0  0  0
   -2.4210    5.0162    0.0000 C   0  0  0  0  0  0  0  0  0  0  0  0
   -3.1216    7.0558    0.0000 O   0  0  0  0  0  0  0  0  0  0  0  0
   -7.3667    2.0852    0.0000 C   0  0  0  0  0  0  0  0  0  0  0  0
   -8.1129    3.3040    0.0000 C   0  0  0  0  0  0  0  0  0  0  0  0
   -8.0880    2.4749    0.0000 C   0  0  0  0  0  0  0  0  0  0  0  0
   -3.8429    5.8370    0.0000 C   0  0  0  0  0  0  0  0  0  0  0  0
   -2.4334    5.8370    0.0000 C   0  0  0  0  0  0  0  0  0  0  0  0
   -2.4334    6.6661    0.0000 C   0  0  0  0  0  0  0  0  0  0  0  0
   -3.8429    6.6661    0.0000 C   0  0  0  0  0  0  0  0  0  0  0  0
   -2.4210    4.1912    0.0000 C   0  0  0  0  0  0  0  0  0  0  0  0
   -1.6996    5.4266    0.0000 C   0  0  0  0  0  0  0  0  0  0  0  0
   -1.6996    3.7808    0.0000 C   0  0  0  0  0  0  0  0  0  0  0  0
   -0.9908    5.0162    0.0000 C   0  0  0  0  0  0  0  0  0  0  0  0
   -0.9908    4.1912    0.0000 C   0  0  0  0  0  0  0  0  0  0  0  0
  2  6  1  0  0  0  0
  3  2  1  0  0  0  0
  4  2  1  0  0  0  0
  5  1  1  0  0  0  0
  6  5  1  0  0  0  0
  7  1  1  0  0  0  0
  8 11  1  0  0  0  0
  9  1  2  0  0  0  0
 10  1  2  0  0  0  0
 11  7  1  0  0  0  0
 12  4  2  0  0  0  0
 13  3  2  0  0  0  0
 14  8  1  0  0  0  0
 15 21  1  0  0  0  0
 16  4  1  0  0  0  0
 17  3  1  0  0  0  0
 18 16  1  0  0  0  0
 19  8  1  0  0  0  0
 20  8  1  0  0  0  0
 21 20  1  0  0  0  0
 22 19  1  0  0  0  0
 23 14  1  0  0  0  0
 24 14  2  0  0  0  0
 25 23  2  0  0  0  0
 26 24  1  0  0  0  0
 27 26  2  0  0  0  0
 15 22  1  0  0  0  0
 17 18  1  0  0  0  0
 27 25  1  0  0  0  0
M  END
>  <IDNUMBER>
F5831-9365

>  <Chemical_Name>
2-(2,6-dioxopiperidin-1-yl)-N-[(4-phenyloxan-4-yl)methyl]ethane-1-sulfonamide

>  <PriceCoeff>
1.50

>  <CAS>
1207018-27-6

>  <MW>
394.49

>  <Description>
solid

>  <FSP3>
0.58

>  <clogP>
1.34

>  <TPSA>
101.16

>  <Acceptor>
5

>  <Donor>
1

>  <RotBonds>
7

>  <HAC>
27

>  <Collection>
Advanced

>  <PPDS>
+

$$$$
F5831-9803
  Mrv2219 10102508112D          

 20 22  0  0  0  0            999 V2000
   -5.2733    2.5556    0.0000 N   0  0  0  0  0  0  0  0  0  0  0  0
   -3.1374    5.4354    0.0000 C   0  0  0  0  0  0  0  0  0  0  0  0
   -5.3564    1.7286    0.0000 C   0  0  0  0  0  0  0  0  0  0  0  0
   -6.0130    2.8922    0.0000 C   0  0  0  0  0  0  0  0  0  0  0  0
   -2.4310    5.0282    0.0000 C   0  0  0  0  0  0  0  0  0  0  0  0
   -2.7302    6.1501    0.0000 C   0  0  0  0  0  0  0  0  0  0  0  0
   -3.5529    6.1501    0.0000 C   0  0  0  0  0  0  0  0  0  0  0  0
   -4.5710    2.9753    0.0000 C   0  0  0  0  0  0  0  0  0  0  0  0
   -1.6456    5.2775    0.0000 S   0  0  0  0  0  0  0  0  0  0  0  0
   -4.5710    3.7898    0.0000 C   0  0  0  0  0  0  0  0  0  0  0  0
   -3.8521    5.0282    0.0000 C   0  0  0  0  0  0  0  0  0  0  0  0
   -3.8521    4.2012    0.0000 N   0  0  0  0  0  0  0  0  0  0  0  0
   -2.4268    4.2012    0.0000 C   0  0  0  0  0  0  0  0  0  0  0  0
   -6.1501    1.5541    0.0000 C   0  0  0  0  0  0  0  0  0  0  0  0
   -6.5698    2.2772    0.0000 C   0  0  0  0  0  0  0  0  0  0  0  0
   -4.7455    1.1677    0.0000 O   0  0  0  0  0  0  0  0  0  0  0  0
   -6.1958    3.6983    0.0000 O   0  0  0  0  0  0  0  0  0  0  0  0
   -1.1552    4.6168    0.0000 C   0  0  0  0  0  0  0  0  0  0  0  0
   -1.6414    3.9477    0.0000 C   0  0  0  0  0  0  0  0  0  0  0  0
   -5.2858    4.2012    0.0000 O   0  0  0  0  0  0  0  0  0  0  0  0
  2 11  1  0  0  0  0
  3  1  1  0  0  0  0
  4  1  1  0  0  0  0
  5  2  1  0  0  0  0
  6  2  1  0  0  0  0
  7  2  1  0  0  0  0
  8  1  1  0  0  0  0
  9  5  1  0  0  0  0
 10  8  1  0  0  0  0
 11 12  1  0  0  0  0
 12 10  1  0  0  0  0
 13  5  2  0  0  0  0
 14  3  1  0  0  0  0
 15  4  1  0  0  0  0
 16  3  2  0  0  0  0
 17  4  2  0  0  0  0
 18  9  1  0  0  0  0
 19 13  1  0  0  0  0
 20 10  2  0  0  0  0
 14 15  1  0  0  0  0
  6  7  1  0  0  0  0
 18 19  2  0  0  0  0
M  END
>  <IDNUMBER>
F5831-9803

>  <Chemical_Name>
2-(2,5-dioxopyrrolidin-1-yl)-N-{[1-(thiophen-2-yl)cyclopropyl]methyl}acetamide

>  <PriceCoeff>
1.00

>  <CAS>
1208383-99-6

>  <MW>
292.35

>  <Description>
solid

>  <FSP3>
0.50

>  <clogP>
0.93

>  <TPSA>
94.72

>  <Acceptor>
3

>  <Donor>
1

>  <RotBonds>
5

>  <HAC>
20

>  <Collection>
General

>  <PPDS>
+

$$$$
F5831-9881
  Mrv2219 10102508112D          

 23 25  0  0  0  0            999 V2000
   -4.5833    3.8000    0.0000 S   0  0  0  0  0  0  0  0  0  0  0  0
   -6.7167    3.3583    0.0000 N   0  0  0  0  0  0  0  0  0  0  0  0
   -3.1458    5.4500    0.0000 C   0  0  0  0  0  0  0  0  0  0  0  0
   -2.4375    5.0417    0.0000 C   0  0  0  0  0  0  0  0  0  0  0  0
   -7.4417    3.7583    0.0000 C   0  0  0  0  0  0  0  0  0  0  0  0
   -6.7042    2.5208    0.0000 C   0  0  0  0  0  0  0  0  0  0  0  0
   -5.2875    3.3833    0.0000 C   0  0  0  0  0  0  0  0  0  0  0  0
   -2.7375    6.1667    0.0000 C   0  0  0  0  0  0  0  0  0  0  0  0
   -3.5625    6.1667    0.0000 C   0  0  0  0  0  0  0  0  0  0  0  0
   -6.0042    3.7833    0.0000 C   0  0  0  0  0  0  0  0  0  0  0  0
   -3.8625    4.2125    0.0000 N   0  0  0  0  0  0  0  0  0  0  0  0
   -1.6500    5.2917    0.0000 S   0  0  0  0  0  0  0  0  0  0  0  0
   -3.8625    5.0417    0.0000 C   0  0  0  0  0  0  0  0  0  0  0  0
   -4.1583    3.1083    0.0000 O   0  0  0  0  0  0  0  0  0  0  0  0
   -5.0083    4.5042    0.0000 O   0  0  0  0  0  0  0  0  0  0  0  0
   -2.4333    4.2125    0.0000 C   0  0  0  0  0  0  0  0  0  0  0  0
   -5.9833    2.1208    0.0000 O   0  0  0  0  0  0  0  0  0  0  0  0
   -7.4667    4.5792    0.0000 O   0  0  0  0  0  0  0  0  0  0  0  0
   -1.1583    4.6292    0.0000 C   0  0  0  0  0  0  0  0  0  0  0  0
   -1.6458    3.9583    0.0000 C   0  0  0  0  0  0  0  0  0  0  0  0
   -7.4042    2.0958    0.0000 C   0  0  0  0  0  0  0  0  0  0  0  0
   -8.1542    3.3208    0.0000 C   0  0  0  0  0  0  0  0  0  0  0  0
   -8.1292    2.4875    0.0000 C   0  0  0  0  0  0  0  0  0  0  0  0
  2 10  1  0  0  0  0
  3 13  1  0  0  0  0
  4  3  1  0  0  0  0
  5  2  1  0  0  0  0
  6  2  1  0  0  0  0
  7  1  1  0  0  0  0
  8  3  1  0  0  0  0
  9  3  1  0  0  0  0
 10  7  1  0  0  0  0
 11  1  1  0  0  0  0
 12  4  1  0  0  0  0
 13 11  1  0  0  0  0
 14  1  2  0  0  0  0
 15  1  2  0  0  0  0
 16  4  2  0  0  0  0
 17  6  2  0  0  0  0
 18  5  2  0  0  0  0
 19 12  1  0  0  0  0
 20 16  1  0  0  0  0
 21  6  1  0  0  0  0
 22  5  1  0  0  0  0
 23 21  1  0  0  0  0
  8  9  1  0  0  0  0
 19 20  2  0  0  0  0
 22 23  1  0  0  0  0
M  END
>  <IDNUMBER>
F5831-9881

>  <Chemical_Name>
2-(2,6-dioxopiperidin-1-yl)-N-{[1-(thiophen-2-yl)cyclopropyl]methyl}ethane-1-sulfonamide

>  <PriceCoeff>
1.50

>  <MW>
356.46

>  <Description>
solid

>  <FSP3>
0.60

>  <clogP>
1.71

>  <TPSA>
120.17

>  <Acceptor>
4

>  <Donor>
1

>  <RotBonds>
7

>  <HAC>
23

>  <Collection>
Advanced

$$$$
F5832-0313
  Mrv2219 10102508112D          

 28 30  0  0  0  0            999 V2000
   -4.5833    3.8000    0.0000 S   0  0  0  0  0  0  0  0  0  0  0  0
   -6.7167    3.3583    0.0000 N   0  0  0  0  0  0  0  0  0  0  0  0
   -7.4417    3.7583    0.0000 C   0  0  0  0  0  0  0  0  0  0  0  0
   -6.7042    2.5208    0.0000 C   0  0  0  0  0  0  0  0  0  0  0  0
   -5.2875    3.3833    0.0000 C   0  0  0  0  0  0  0  0  0  0  0  0
   -6.0042    3.7833    0.0000 C   0  0  0  0  0  0  0  0  0  0  0  0
   -3.8625    4.2125    0.0000 N   0  0  0  0  0  0  0  0  0  0  0  0
   -3.1500    5.4542    0.0000 C   0  0  0  0  0  0  0  0  0  0  0  0
   -4.1583    3.1083    0.0000 O   0  0  0  0  0  0  0  0  0  0  0  0
   -5.0083    4.5042    0.0000 O   0  0  0  0  0  0  0  0  0  0  0  0
   -2.4458    5.0417    0.0000 C   0  0  0  0  0  0  0  0  0  0  0  0
   -3.8625    5.0292    0.0000 C   0  0  0  0  0  0  0  0  0  0  0  0
   -5.9833    2.1208    0.0000 O   0  0  0  0  0  0  0  0  0  0  0  0
   -7.4667    4.5792    0.0000 O   0  0  0  0  0  0  0  0  0  0  0  0
   -2.4333    4.2167    0.0000 C   0  0  0  0  0  0  0  0  0  0  0  0
   -1.7333    5.4625    0.0000 C   0  0  0  0  0  0  0  0  0  0  0  0
   -1.0083    4.2292    0.0000 C   0  0  0  0  0  0  0  0  0  0  0  0
   -1.0125    5.0542    0.0000 C   0  0  0  0  0  0  0  0  0  0  0  0
   -1.7208    3.8083    0.0000 C   0  0  0  0  0  0  0  0  0  0  0  0
   -7.4042    2.0958    0.0000 C   0  0  0  0  0  0  0  0  0  0  0  0
   -8.1542    3.3208    0.0000 C   0  0  0  0  0  0  0  0  0  0  0  0
   -0.2833    3.8208    0.0000 O   0  0  0  0  0  0  0  0  0  0  0  0
   -8.1292    2.4875    0.0000 C   0  0  0  0  0  0  0  0  0  0  0  0
   -3.8208    5.9375    0.0000 C   0  0  0  0  0  0  0  0  0  0  0  0
   -2.4833    5.9375    0.0000 C   0  0  0  0  0  0  0  0  0  0  0  0
   -0.2750    2.9958    0.0000 C   0  0  0  0  0  0  0  0  0  0  0  0
   -2.7375    6.7167    0.0000 C   0  0  0  0  0  0  0  0  0  0  0  0
   -3.5625    6.7167    0.0000 C   0  0  0  0  0  0  0  0  0  0  0  0
  2  6  1  0  0  0  0
  3  2  1  0  0  0  0
  4  2  1  0  0  0  0
  5  1  1  0  0  0  0
  6  5  1  0  0  0  0
  7  1  1  0  0  0  0
  8 12  1  0  0  0  0
  9  1  2  0  0  0  0
 10  1  2  0  0  0  0
 11  8  1  0  0  0  0
 12  7  1  0  0  0  0
 13  4  2  0  0  0  0
 14  3  2  0  0  0  0
 15 11  2  0  0  0  0
 16 11  1  0  0  0  0
 17 18  1  0  0  0  0
 18 16  2  0  0  0  0
 19 15  1  0  0  0  0
 20  4  1  0  0  0  0
 21  3  1  0  0  0  0
 22 17  1  0  0  0  0
 23 20  1  0  0  0  0
 24  8  1  0  0  0  0
 25  8  1  0  0  0  0
 26 22  1  0  0  0  0
 27 25  1  0  0  0  0
 28 24  1  0  0  0  0
 28 27  1  0  0  0  0
 17 19  2  0  0  0  0
 21 23  1  0  0  0  0
M  END
>  <IDNUMBER>
F5832-0313

>  <Chemical_Name>
2-(2,6-dioxopiperidin-1-yl)-N-{[1-(4-methoxyphenyl)cyclopentyl]methyl}ethane-1-sulfonamide

>  <PriceCoeff>
1.00

>  <MW>
408.51

>  <Description>
oil

>  <FSP3>
0.60

>  <clogP>
3.10

>  <TPSA>
101.16

>  <Acceptor>
5

>  <Donor>
1

>  <RotBonds>
8

>  <HAC>
28

>  <Collection>
General

$$$$
F5832-2362
  Mrv2219 10102508112D          

 26 28  0  0  0  0            999 V2000
   -5.2826    2.5601    0.0000 N   0  0  0  0  0  0  0  0  0  0  0  0
   -5.3658    1.7317    0.0000 C   0  0  0  0  0  0  0  0  0  0  0  0
   -6.0236    2.8973    0.0000 C   0  0  0  0  0  0  0  0  0  0  0  0
   -2.4435    5.0578    0.0000 N   0  0  0  0  0  0  0  0  0  0  0  0
   -4.5791    2.9805    0.0000 C   0  0  0  0  0  0  0  0  0  0  0  0
   -3.1596    5.4491    0.0000 C   0  0  0  0  0  0  0  0  0  0  0  0
   -4.5791    3.7965    0.0000 C   0  0  0  0  0  0  0  0  0  0  0  0
   -3.8589    5.0245    0.0000 C   0  0  0  0  0  0  0  0  0  0  0  0
   -3.8589    4.2086    0.0000 N   0  0  0  0  0  0  0  0  0  0  0  0
   -3.1679    6.2734    0.0000 C   0  0  0  0  0  0  0  0  0  0  0  0
   -6.1610    1.5569    0.0000 C   0  0  0  0  0  0  0  0  0  0  0  0
   -6.5814    2.2812    0.0000 C   0  0  0  0  0  0  0  0  0  0  0  0
   -4.7539    1.1697    0.0000 O   0  0  0  0  0  0  0  0  0  0  0  0
   -6.2067    3.7049    0.0000 O   0  0  0  0  0  0  0  0  0  0  0  0
   -5.2951    4.2086    0.0000 O   0  0  0  0  0  0  0  0  0  0  0  0
   -0.9824    4.2627    0.0000 O   0  0  0  0  0  0  0  0  0  0  0  0
   -2.4560    6.7230    0.0000 C   0  0  0  0  0  0  0  0  0  0  0  0
   -3.8797    6.6813    0.0000 C   0  0  0  0  0  0  0  0  0  0  0  0
   -3.1845    7.9301    0.0000 C   0  0  0  0  0  0  0  0  0  0  0  0
   -3.8964    7.5097    0.0000 C   0  0  0  0  0  0  0  0  0  0  0  0
   -2.4685    7.5222    0.0000 C   0  0  0  0  0  0  0  0  0  0  0  0
   -3.2303    8.7711    0.0000 F   0  0  0  0  0  0  0  0  0  0  0  0
   -2.4310    4.2253    0.0000 C   0  0  0  0  0  0  0  0  0  0  0  0
   -1.7359    5.4741    0.0000 C   0  0  0  0  0  0  0  0  0  0  0  0
   -1.6942    3.8339    0.0000 C   0  0  0  0  0  0  0  0  0  0  0  0
   -1.0074    5.0870    0.0000 C   0  0  0  0  0  0  0  0  0  0  0  0
  2  1  1  0  0  0  0
  3  1  1  0  0  0  0
  4  6  1  0  0  0  0
  5  1  1  0  0  0  0
  6  8  1  0  0  0  0
  7  5  1  0  0  0  0
  8  9  1  0  0  0  0
  9  7  1  0  0  0  0
 10  6  1  0  0  0  0
 11  2  1  0  0  0  0
 12  3  1  0  0  0  0
 13  2  2  0  0  0  0
 14  3  2  0  0  0  0
 15  7  2  0  0  0  0
 16 26  1  0  0  0  0
 17 10  2  0  0  0  0
 18 10  1  0  0  0  0
 19 20  1  0  0  0  0
 20 18  2  0  0  0  0
 21 17  1  0  0  0  0
 22 19  1  0  0  0  0
 23  4  1  0  0  0  0
 24  4  1  0  0  0  0
 25 23  1  0  0  0  0
 26 24  1  0  0  0  0
 11 12  1  0  0  0  0
 21 19  2  0  0  0  0
 16 25  1  0  0  0  0
M  END
>  <IDNUMBER>
F5832-2362

>  <Chemical_Name>
2-(2,5-dioxopyrrolidin-1-yl)-N-[2-(4-fluorophenyl)-2-(morpholin-4-yl)ethyl]acetamide

>  <PriceCoeff>
1.00

>  <MW>
363.38

>  <Description>
solid

>  <FSP3>
0.50

>  <clogP>
0.95

>  <TPSA>
78.95

>  <Acceptor>
4

>  <Donor>
2

>  <RotBonds>
6

>  <HAC>
26

>  <Collection>
General

$$$$
F5832-4178
  Mrv2219 10102508112D          

 21 22  0  0  0  0            999 V2000
   -5.2606    2.5494    0.0000 N   0  0  0  0  0  0  0  0  0  0  0  0
   -5.3434    1.7245    0.0000 C   0  0  0  0  0  0  0  0  0  0  0  0
   -5.9985    2.8853    0.0000 C   0  0  0  0  0  0  0  0  0  0  0  0
   -2.4209    5.0035    0.0000 C   0  0  0  0  0  0  0  0  0  0  0  0
   -3.1297    5.4140    0.0000 C   0  0  0  0  0  0  0  0  0  0  0  0
   -4.5600    2.9681    0.0000 C   0  0  0  0  0  0  0  0  0  0  0  0
   -2.3338    4.1910    0.0000 S   0  0  0  0  0  0  0  0  0  0  0  0
   -4.5600    3.7807    0.0000 C   0  0  0  0  0  0  0  0  0  0  0  0
   -3.8429    5.0160    0.0000 C   0  0  0  0  0  0  0  0  0  0  0  0
   -3.8429    4.1910    0.0000 N   0  0  0  0  0  0  0  0  0  0  0  0
   -3.1297    6.2472    0.0000 N   0  0  0  0  0  0  0  0  0  0  0  0
   -6.1353    1.5503    0.0000 C   0  0  0  0  0  0  0  0  0  0  0  0
   -6.5540    2.2716    0.0000 C   0  0  0  0  0  0  0  0  0  0  0  0
   -1.6665    5.3394    0.0000 C   0  0  0  0  0  0  0  0  0  0  0  0
   -4.7341    1.1649    0.0000 O   0  0  0  0  0  0  0  0  0  0  0  0
   -6.1809    3.6894    0.0000 O   0  0  0  0  0  0  0  0  0  0  0  0
   -1.5296    4.0086    0.0000 C   0  0  0  0  0  0  0  0  0  0  0  0
   -1.1151    4.7258    0.0000 C   0  0  0  0  0  0  0  0  0  0  0  0
   -5.2730    4.1910    0.0000 O   0  0  0  0  0  0  0  0  0  0  0  0
   -3.8262    6.6700    0.0000 C   0  0  0  0  0  0  0  0  0  0  0  0
   -2.4084    6.6576    0.0000 C   0  0  0  0  0  0  0  0  0  0  0  0
  2  1  1  0  0  0  0
  3  1  1  0  0  0  0
  4  5  1  0  0  0  0
  5  9  1  0  0  0  0
  6  1  1  0  0  0  0
  7  4  1  0  0  0  0
  8  6  1  0  0  0  0
  9 10  1  0  0  0  0
 10  8  1  0  0  0  0
 11  5  1  0  0  0  0
 12  2  1  0  0  0  0
 13  3  1  0  0  0  0
 14  4  2  0  0  0  0
 15  2  2  0  0  0  0
 16  3  2  0  0  0  0
 17  7  1  0  0  0  0
 18 14  1  0  0  0  0
 19  8  2  0  0  0  0
 20 11  1  0  0  0  0
 21 11  1  0  0  0  0
 12 13  1  0  0  0  0
 18 17  2  0  0  0  0
M  END
>  <IDNUMBER>
F5832-4178

>  <Chemical_Name>
N-[2-(dimethylamino)-2-(thiophen-2-yl)ethyl]-2-(2,5-dioxopyrrolidin-1-yl)acetamide

>  <PriceCoeff>
1.00

>  <CAS>
1209982-16-0

>  <MW>
309.38

>  <Description>
solid

>  <FSP3>
0.50

>  <clogP>
0.68

>  <TPSA>
97.96

>  <Acceptor>
3

>  <Donor>
2

>  <RotBonds>
6

>  <HAC>
21

>  <Collection>
General

>  <PPDS>
+

$$$$
F5833-3365
  Mrv2219 10102508112D          

 28 30  0  0  0  0            999 V2000
   -1.7281    6.2853    0.0000 S   0  0  0  0  0  0  0  0  0  0  0  0
   -2.4385    6.6841    0.0000 N   0  0  0  0  0  0  0  0  0  0  0  0
   -4.5695    3.7886    0.0000 S   0  0  0  0  0  0  0  0  0  0  0  0
   -6.6965    3.3482    0.0000 N   0  0  0  0  0  0  0  0  0  0  0  0
   -3.1488    6.2728    0.0000 C   0  0  0  0  0  0  0  0  0  0  0  0
   -7.4194    3.7470    0.0000 C   0  0  0  0  0  0  0  0  0  0  0  0
   -6.6841    2.5132    0.0000 C   0  0  0  0  0  0  0  0  0  0  0  0
   -5.2716    3.3731    0.0000 C   0  0  0  0  0  0  0  0  0  0  0  0
   -5.9862    3.7719    0.0000 C   0  0  0  0  0  0  0  0  0  0  0  0
   -3.8509    4.1999    0.0000 N   0  0  0  0  0  0  0  0  0  0  0  0
   -3.1405    5.4461    0.0000 C   0  0  0  0  0  0  0  0  0  0  0  0
   -1.3168    6.9956    0.0000 O   0  0  0  0  0  0  0  0  0  0  0  0
   -2.1311    5.5583    0.0000 O   0  0  0  0  0  0  0  0  0  0  0  0
   -4.1458    3.0990    0.0000 O   0  0  0  0  0  0  0  0  0  0  0  0
   -4.9933    4.4907    0.0000 O   0  0  0  0  0  0  0  0  0  0  0  0
   -3.8634    6.6799    0.0000 C   0  0  0  0  0  0  0  0  0  0  0  0
   -3.8509    5.0266    0.0000 C   0  0  0  0  0  0  0  0  0  0  0  0
   -5.9653    2.1144    0.0000 O   0  0  0  0  0  0  0  0  0  0  0  0
   -7.4443    4.5655    0.0000 O   0  0  0  0  0  0  0  0  0  0  0  0
   -4.5820    6.2604    0.0000 C   0  0  0  0  0  0  0  0  0  0  0  0
   -1.0053    5.8740    0.0000 C   0  0  0  0  0  0  0  0  0  0  0  0
   -2.4385    7.5066    0.0000 C   0  0  0  0  0  0  0  0  0  0  0  0
   -4.5695    5.4378    0.0000 C   0  0  0  0  0  0  0  0  0  0  0  0
   -7.3820    2.0895    0.0000 C   0  0  0  0  0  0  0  0  0  0  0  0
   -8.1297    3.3108    0.0000 C   0  0  0  0  0  0  0  0  0  0  0  0
   -3.1613    7.9179    0.0000 C   0  0  0  0  0  0  0  0  0  0  0  0
   -8.1048    2.4800    0.0000 C   0  0  0  0  0  0  0  0  0  0  0  0
   -3.8716    7.5066    0.0000 C   0  0  0  0  0  0  0  0  0  0  0  0
  2  1  1  0  0  0  0
  3 10  1  0  0  0  0
  4  9  1  0  0  0  0
  5  2  1  0  0  0  0
  6  4  1  0  0  0  0
  7  4  1  0  0  0  0
  8  3  1  0  0  0  0
  9  8  1  0  0  0  0
 10 17  1  0  0  0  0
 11  5  1  0  0  0  0
 12  1  2  0  0  0  0
 13  1  2  0  0  0  0
 14  3  2  0  0  0  0
 15  3  2  0  0  0  0
 16  5  2  0  0  0  0
 17 11  2  0  0  0  0
 18  7  2  0  0  0  0
 19  6  2  0  0  0  0
 20 16  1  0  0  0  0
 21  1  1  0  0  0  0
 22  2  1  0  0  0  0
 23 20  2  0  0  0  0
 24  7  1  0  0  0  0
 25  6  1  0  0  0  0
 26 22  1  0  0  0  0
 27 24  1  0  0  0  0
 28 26  1  0  0  0  0
 16 28  1  0  0  0  0
 17 23  1  0  0  0  0
 27 25  1  0  0  0  0
M  END
>  <IDNUMBER>
F5833-3365

>  <Chemical_Name>
2-(2,6-dioxopiperidin-1-yl)-N-(1-methanesulfonyl-1,2,3,4-tetrahydroquinolin-7-yl)ethane-1-sulfonamide

>  <PriceCoeff>
1.00

>  <MW>
429.51

>  <Description>
solid

>  <FSP3>
0.53

>  <clogP>
0.71

>  <TPSA>
105.38

>  <Acceptor>
8

>  <Donor>
1

>  <RotBonds>
6

>  <HAC>
28

>  <Collection>
General

$$$$
F5833-7571
  Mrv2219 10102508112D          

 29 32  0  0  0  0            999 V2000
   -3.8509    7.5066    0.0000 N   0  0  0  0  0  0  0  0  0  0  0  0
   -4.5695    7.9179    0.0000 C   0  0  0  0  0  0  0  0  0  0  0  0
   -3.8467    6.6799    0.0000 C   0  0  0  0  0  0  0  0  0  0  0  0
   -4.5695    3.7886    0.0000 C   0  0  0  0  0  0  0  0  0  0  0  0
   -3.1364    6.2604    0.0000 C   0  0  0  0  0  0  0  0  0  0  0  0
   -3.8509    4.1999    0.0000 N   0  0  0  0  0  0  0  0  0  0  0  0
   -4.5695    6.2604    0.0000 C   0  0  0  0  0  0  0  0  0  0  0  0
   -4.5695    2.9494    0.0000 C   0  0  0  0  0  0  0  0  0  0  0  0
   -5.2841    7.5066    0.0000 O   0  0  0  0  0  0  0  0  0  0  0  0
   -3.8509    5.0141    0.0000 C   0  0  0  0  0  0  0  0  0  0  0  0
   -3.1364    5.4378    0.0000 C   0  0  0  0  0  0  0  0  0  0  0  0
   -4.5695    8.7404    0.0000 C   0  0  0  0  0  0  0  0  0  0  0  0
   -5.2674    4.1791    0.0000 O   0  0  0  0  0  0  0  0  0  0  0  0
   -5.2674    2.5382    0.0000 C   0  0  0  0  0  0  0  0  0  0  0  0
   -3.8467    2.5174    0.0000 C   0  0  0  0  0  0  0  0  0  0  0  0
   -3.1281    7.9054    0.0000 C   0  0  0  0  0  0  0  0  0  0  0  0
   -4.5695    5.4378    0.0000 C   0  0  0  0  0  0  0  0  0  0  0  0
   -3.8467    1.7032    0.0000 C   0  0  0  0  0  0  0  0  0  0  0  0
   -5.2799    1.7156    0.0000 C   0  0  0  0  0  0  0  0  0  0  0  0
   -4.5820    1.2919    0.0000 C   0  0  0  0  0  0  0  0  0  0  0  0
   -2.4177    6.6716    0.0000 C   0  0  0  0  0  0  0  0  0  0  0  0
   -2.4135    7.4941    0.0000 C   0  0  0  0  0  0  0  0  0  0  0  0
   -3.8467    9.1517    0.0000 C   0  0  0  0  0  0  0  0  0  0  0  0
   -5.2799    9.1392    0.0000 C   0  0  0  0  0  0  0  0  0  0  0  0
   -4.5820    0.4611    0.0000 C   0  0  0  0  0  0  0  0  0  0  0  0
   -5.3048    0.0581    0.0000 C   0  0  0  0  0  0  0  0  0  0  0  0
   -5.2841    9.9742    0.0000 C   0  0  0  0  0  0  0  0  0  0  0  0
   -3.8467    9.9742    0.0000 C   0  0  0  0  0  0  0  0  0  0  0  0
   -4.5571   10.3937    0.0000 C   0  0  0  0  0  0  0  0  0  0  0  0
  2  1  1  0  0  0  0
  3  1  1  0  0  0  0
  4  6  1  0  0  0  0
  5  3  2  0  0  0  0
  6 10  1  0  0  0  0
  7  3  1  0  0  0  0
  8  4  1  0  0  0  0
  9  2  2  0  0  0  0
 10 17  1  0  0  0  0
 11  5  1  0  0  0  0
 12  2  1  0  0  0  0
 13  4  2  0  0  0  0
 14  8  2  0  0  0  0
 15  8  1  0  0  0  0
 16  1  1  0  0  0  0
 17  7  2  0  0  0  0
 18 15  2  0  0  0  0
 19 14  1  0  0  0  0
 20 18  1  0  0  0  0
 21 22  1  0  0  0  0
 22 16  1  0  0  0  0
 23 12  2  0  0  0  0
 24 12  1  0  0  0  0
 25 20  1  0  0  0  0
 26 25  1  0  0  0  0
 27 24  2  0  0  0  0
 28 23  1  0  0  0  0
 29 27  1  0  0  0  0
 21  5  1  0  0  0  0
 11 10  2  0  0  0  0
 29 28  2  0  0  0  0
 19 20  2  0  0  0  0
M  END
>  <IDNUMBER>
F5833-7571

>  <Chemical_Name>
N-(1-benzoyl-1,2,3,4-tetrahydroquinolin-6-yl)-4-ethylbenzamide

>  <PriceCoeff>
1.00

>  <CAS>
1210423-54-3

>  <MW>
384.47

>  <Description>
solid

>  <FSP3>
0.20

>  <clogP>
4.58

>  <TPSA>
49.41

>  <Acceptor>
2

>  <Donor>
1

>  <RotBonds>
5

>  <HAC>
29

>  <Collection>
General

>  <PPDS>
+

$$$$
F5833-7585
  Mrv2219 10102508112D          

 30 33  0  0  0  0            999 V2000
   -3.8484    7.5017    0.0000 N   0  0  0  0  0  0  0  0  0  0  0  0
   -4.5666    7.9127    0.0000 C   0  0  0  0  0  0  0  0  0  0  0  0
   -3.8442    6.6755    0.0000 C   0  0  0  0  0  0  0  0  0  0  0  0
   -4.5666    3.7861    0.0000 C   0  0  0  0  0  0  0  0  0  0  0  0
   -3.1343    6.2563    0.0000 C   0  0  0  0  0  0  0  0  0  0  0  0
   -3.8484    4.1971    0.0000 N   0  0  0  0  0  0  0  0  0  0  0  0
   -4.5666    6.2563    0.0000 C   0  0  0  0  0  0  0  0  0  0  0  0
   -4.5666    2.9475    0.0000 C   0  0  0  0  0  0  0  0  0  0  0  0
   -5.2806    7.5017    0.0000 O   0  0  0  0  0  0  0  0  0  0  0  0
   -3.8484    5.0108    0.0000 C   0  0  0  0  0  0  0  0  0  0  0  0
   -3.1343    5.4343    0.0000 C   0  0  0  0  0  0  0  0  0  0  0  0
   -4.5666    8.7347    0.0000 C   0  0  0  0  0  0  0  0  0  0  0  0
   -5.2640    4.1847    0.0000 O   0  0  0  0  0  0  0  0  0  0  0  0
   -5.2640    2.5365    0.0000 C   0  0  0  0  0  0  0  0  0  0  0  0
   -3.8442    2.5282    0.0000 C   0  0  0  0  0  0  0  0  0  0  0  0
   -3.1260    7.9002    0.0000 C   0  0  0  0  0  0  0  0  0  0  0  0
   -4.5666    5.4343    0.0000 C   0  0  0  0  0  0  0  0  0  0  0  0
   -3.8442    1.7062    0.0000 C   0  0  0  0  0  0  0  0  0  0  0  0
   -5.2682    1.7270    0.0000 C   0  0  0  0  0  0  0  0  0  0  0  0
   -4.5790    1.2953    0.0000 C   0  0  0  0  0  0  0  0  0  0  0  0
   -2.4161    6.6673    0.0000 C   0  0  0  0  0  0  0  0  0  0  0  0
   -2.4120    7.4892    0.0000 C   0  0  0  0  0  0  0  0  0  0  0  0
   -3.8442    9.1457    0.0000 C   0  0  0  0  0  0  0  0  0  0  0  0
   -5.2765    9.1332    0.0000 C   0  0  0  0  0  0  0  0  0  0  0  0
   -4.5790    0.4691    0.0000 C   0  0  0  0  0  0  0  0  0  0  0  0
   -5.3138    0.0623    0.0000 C   0  0  0  0  0  0  0  0  0  0  0  0
   -5.3138   -0.7639    0.0000 C   0  0  0  0  0  0  0  0  0  0  0  0
   -3.8442    9.9677    0.0000 C   0  0  0  0  0  0  0  0  0  0  0  0
   -5.2806    9.9677    0.0000 C   0  0  0  0  0  0  0  0  0  0  0  0
   -4.5541   10.3869    0.0000 C   0  0  0  0  0  0  0  0  0  0  0  0
  2  1  1  0  0  0  0
  3  1  1  0  0  0  0
  4  6  1  0  0  0  0
  5  3  2  0  0  0  0
  6 10  1  0  0  0  0
  7  3  1  0  0  0  0
  8  4  1  0  0  0  0
  9  2  2  0  0  0  0
 10 17  1  0  0  0  0
 11  5  1  0  0  0  0
 12  2  1  0  0  0  0
 13  4  2  0  0  0  0
 14  8  2  0  0  0  0
 15  8  1  0  0  0  0
 16  1  1  0  0  0  0
 17  7  2  0  0  0  0
 18 15  2  0  0  0  0
 19 14  1  0  0  0  0
 20 18  1  0  0  0  0
 21 22  1  0  0  0  0
 22 16  1  0  0  0  0
 23 12  2  0  0  0  0
 24 12  1  0  0  0  0
 25 20  1  0  0  0  0
 26 25  1  0  0  0  0
 27 26  1  0  0  0  0
 28 23  1  0  0  0  0
 29 24  2  0  0  0  0
 30 29  1  0  0  0  0
 21  5  1  0  0  0  0
 11 10  2  0  0  0  0
 30 28  2  0  0  0  0
 20 19  2  0  0  0  0
M  END
>  <IDNUMBER>
F5833-7585

>  <Chemical_Name>
N-(1-benzoyl-1,2,3,4-tetrahydroquinolin-6-yl)-4-propylbenzamide

>  <PriceCoeff>
1.00

>  <CAS>
1210710-84-1

>  <MW>
398.50

>  <Description>
solid

>  <FSP3>
0.23

>  <clogP>
5.11

>  <TPSA>
49.41

>  <Acceptor>
2

>  <Donor>
1

>  <RotBonds>
6

>  <HAC>
30

>  <Collection>
General

>  <PPDS>
+

$$$$
F5833-7898
  Mrv2219 10102508112D          

 27 29  0  0  0  0            999 V2000
   -4.5578    7.9283    0.0000 S   0  0  0  0  0  0  0  0  0  0  0  0
   -5.2869    2.5622    0.0000 N   0  0  0  0  0  0  0  0  0  0  0  0
   -3.8454    7.5033    0.0000 N   0  0  0  0  0  0  0  0  0  0  0  0
   -3.8496    6.6867    0.0000 C   0  0  0  0  0  0  0  0  0  0  0  0
   -5.3702    1.7331    0.0000 C   0  0  0  0  0  0  0  0  0  0  0  0
   -6.0285    2.8997    0.0000 C   0  0  0  0  0  0  0  0  0  0  0  0
   -3.1371    6.2660    0.0000 C   0  0  0  0  0  0  0  0  0  0  0  0
   -4.5828    3.7996    0.0000 C   0  0  0  0  0  0  0  0  0  0  0  0
   -4.5828    2.9830    0.0000 C   0  0  0  0  0  0  0  0  0  0  0  0
   -4.9702    7.2159    0.0000 O   0  0  0  0  0  0  0  0  0  0  0  0
   -4.1328    8.6407    0.0000 O   0  0  0  0  0  0  0  0  0  0  0  0
   -4.5703    6.2785    0.0000 C   0  0  0  0  0  0  0  0  0  0  0  0
   -3.8621    4.2120    0.0000 N   0  0  0  0  0  0  0  0  0  0  0  0
   -3.1454    5.4411    0.0000 C   0  0  0  0  0  0  0  0  0  0  0  0
   -3.8621    5.0286    0.0000 C   0  0  0  0  0  0  0  0  0  0  0  0
   -6.1660    1.5581    0.0000 C   0  0  0  0  0  0  0  0  0  0  0  0
   -6.5867    2.2830    0.0000 C   0  0  0  0  0  0  0  0  0  0  0  0
   -4.7578    1.1707    0.0000 O   0  0  0  0  0  0  0  0  0  0  0  0
   -6.2118    3.7079    0.0000 O   0  0  0  0  0  0  0  0  0  0  0  0
   -5.2994    4.2120    0.0000 O   0  0  0  0  0  0  0  0  0  0  0  0
   -5.2577    8.3532    0.0000 C   0  0  0  0  0  0  0  0  0  0  0  0
   -4.5828    5.4536    0.0000 C   0  0  0  0  0  0  0  0  0  0  0  0
   -3.1246    7.9158    0.0000 C   0  0  0  0  0  0  0  0  0  0  0  0
   -2.4247    6.6659    0.0000 C   0  0  0  0  0  0  0  0  0  0  0  0
   -2.4205    7.4908    0.0000 C   0  0  0  0  0  0  0  0  0  0  0  0
   -5.2452    9.1781    0.0000 C   0  0  0  0  0  0  0  0  0  0  0  0
   -5.9576    9.6114    0.0000 C   0  0  0  0  0  0  0  0  0  0  0  0
  2  9  1  0  0  0  0
  3  1  1  0  0  0  0
  4  3  1  0  0  0  0
  5  2  1  0  0  0  0
  6  2  1  0  0  0  0
  7  4  2  0  0  0  0
  8 13  1  0  0  0  0
  9  8  1  0  0  0  0
 10  1  2  0  0  0  0
 11  1  2  0  0  0  0
 12  4  1  0  0  0  0
 13 15  1  0  0  0  0
 14  7  1  0  0  0  0
 15 22  1  0  0  0  0
 16  5  1  0  0  0  0
 17  6  1  0  0  0  0
 18  5  2  0  0  0  0
 19  6  2  0  0  0  0
 20  8  2  0  0  0  0
 21  1  1  0  0  0  0
 22 12  2  0  0  0  0
 23  3  1  0  0  0  0
 24 25  1  0  0  0  0
 25 23  1  0  0  0  0
 26 21  1  0  0  0  0
 27 26  1  0  0  0  0
  7 24  1  0  0  0  0
 14 15  2  0  0  0  0
 17 16  1  0  0  0  0
M  END
>  <IDNUMBER>
F5833-7898

>  <Chemical_Name>
2-(2,5-dioxopyrrolidin-1-yl)-N-[1-(propane-1-sulfonyl)-1,2,3,4-tetrahydroquinolin-6-yl]acetamide

>  <PriceCoeff>
1.00

>  <CAS>
1207035-61-7

>  <MW>
393.46

>  <Description>
solid

>  <FSP3>
0.50

>  <clogP>
1.21

>  <TPSA>
112.24

>  <Acceptor>
6

>  <Donor>
1

>  <RotBonds>
6

>  <HAC>
27

>  <Collection>
General

>  <PPDS>
+

$$$$
F5834-1577
  Mrv2219 10102508112D          

 25 28  0  0  0  0            999 V2000
   -2.5453    6.8070    0.0000 N   0  0  0  0  0  0  0  0  0  0  0  0
   -5.2607    2.5495    0.0000 N   0  0  0  0  0  0  0  0  0  0  0  0
   -1.7369    6.6453    0.0000 C   0  0  0  0  0  0  0  0  0  0  0  0
   -3.1423    6.2598    0.0000 C   0  0  0  0  0  0  0  0  0  0  0  0
   -5.3435    1.7245    0.0000 C   0  0  0  0  0  0  0  0  0  0  0  0
   -5.9986    2.8853    0.0000 C   0  0  0  0  0  0  0  0  0  0  0  0
   -1.1897    7.2671    0.0000 C   0  0  0  0  0  0  0  0  0  0  0  0
   -4.5600    3.7807    0.0000 C   0  0  0  0  0  0  0  0  0  0  0  0
   -2.8811    7.5532    0.0000 C   0  0  0  0  0  0  0  0  0  0  0  0
   -4.5600    2.9682    0.0000 C   0  0  0  0  0  0  0  0  0  0  0  0
   -0.4062    7.5283    0.0000 C   0  0  0  0  0  0  0  0  0  0  0  0
   -1.0281    8.0755    0.0000 C   0  0  0  0  0  0  0  0  0  0  0  0
   -3.1340    5.4389    0.0000 C   0  0  0  0  0  0  0  0  0  0  0  0
   -3.8553    6.6660    0.0000 C   0  0  0  0  0  0  0  0  0  0  0  0
   -3.8429    4.1911    0.0000 N   0  0  0  0  0  0  0  0  0  0  0  0
   -1.4675    5.8742    0.0000 O   0  0  0  0  0  0  0  0  0  0  0  0
   -3.8429    5.0037    0.0000 C   0  0  0  0  0  0  0  0  0  0  0  0
   -6.1354    1.5504    0.0000 C   0  0  0  0  0  0  0  0  0  0  0  0
   -6.5540    2.2717    0.0000 C   0  0  0  0  0  0  0  0  0  0  0  0
   -4.7341    1.1649    0.0000 O   0  0  0  0  0  0  0  0  0  0  0  0
   -6.1810    3.6895    0.0000 O   0  0  0  0  0  0  0  0  0  0  0  0
   -3.6936    7.4661    0.0000 C   0  0  0  0  0  0  0  0  0  0  0  0
   -5.2731    4.1911    0.0000 O   0  0  0  0  0  0  0  0  0  0  0  0
   -4.5766    6.2473    0.0000 C   0  0  0  0  0  0  0  0  0  0  0  0
   -4.5725    5.4223    0.0000 C   0  0  0  0  0  0  0  0  0  0  0  0
  2 10  1  0  0  0  0
  3  1  1  0  0  0  0
  4  1  1  0  0  0  0
  5  2  1  0  0  0  0
  6  2  1  0  0  0  0
  7  3  1  0  0  0  0
  8 15  1  0  0  0  0
  9  1  1  0  0  0  0
 10  8  1  0  0  0  0
 11  7  1  0  0  0  0
 12  7  1  0  0  0  0
 13  4  1  0  0  0  0
 14  4  2  0  0  0  0
 15 17  1  0  0  0  0
 16  3  2  0  0  0  0
 17 13  2  0  0  0  0
 18  5  1  0  0  0  0
 19  6  1  0  0  0  0
 20  5  2  0  0  0  0
 21  6  2  0  0  0  0
 22  9  1  0  0  0  0
 23  8  2  0  0  0  0
 24 14  1  0  0  0  0
 25 24  2  0  0  0  0
 22 14  1  0  0  0  0
 12 11  1  0  0  0  0
 25 17  1  0  0  0  0
 19 18  1  0  0  0  0
M  END
>  <IDNUMBER>
F5834-1577

>  <Chemical_Name>
N-(1-cyclopropanecarbonyl-2,3-dihydro-1H-indol-6-yl)-2-(2,5-dioxopyrrolidin-1-yl)acetamide

>  <PriceCoeff>
1.00

>  <CAS>
1206995-06-3

>  <MW>
341.36

>  <Description>
solid

>  <FSP3>
0.44

>  <clogP>
0.42

>  <TPSA>
86.79

>  <Acceptor>
4

>  <Donor>
1

>  <RotBonds>
5

>  <HAC>
25

>  <Collection>
General

>  <PPDS>
+

$$$$
F5834-1816
  Mrv2219 10102508112D          

 26 28  0  0  0  0            999 V2000
   -4.5928    3.8079    0.0000 S   0  0  0  0  0  0  0  0  0  0  0  0
   -6.7306    3.3653    0.0000 N   0  0  0  0  0  0  0  0  0  0  0  0
   -2.5428    6.8434    0.0000 N   0  0  0  0  0  0  0  0  0  0  0  0
   -3.1648    6.2922    0.0000 C   0  0  0  0  0  0  0  0  0  0  0  0
   -7.4571    3.7661    0.0000 C   0  0  0  0  0  0  0  0  0  0  0  0
   -6.7181    2.5260    0.0000 C   0  0  0  0  0  0  0  0  0  0  0  0
   -1.7411    6.6805    0.0000 C   0  0  0  0  0  0  0  0  0  0  0  0
   -5.2985    3.3903    0.0000 C   0  0  0  0  0  0  0  0  0  0  0  0
   -6.0166    3.7911    0.0000 C   0  0  0  0  0  0  0  0  0  0  0  0
   -3.8705    4.2212    0.0000 N   0  0  0  0  0  0  0  0  0  0  0  0
   -2.8893    7.5949    0.0000 C   0  0  0  0  0  0  0  0  0  0  0  0
   -3.1565    5.4655    0.0000 C   0  0  0  0  0  0  0  0  0  0  0  0
   -3.8788    6.7014    0.0000 C   0  0  0  0  0  0  0  0  0  0  0  0
   -4.1669    3.1147    0.0000 O   0  0  0  0  0  0  0  0  0  0  0  0
   -5.0187    4.5135    0.0000 O   0  0  0  0  0  0  0  0  0  0  0  0
   -3.8705    5.0521    0.0000 C   0  0  0  0  0  0  0  0  0  0  0  0
   -5.9957    2.1252    0.0000 O   0  0  0  0  0  0  0  0  0  0  0  0
   -7.4822    4.5887    0.0000 O   0  0  0  0  0  0  0  0  0  0  0  0
   -1.4864    5.8914    0.0000 O   0  0  0  0  0  0  0  0  0  0  0  0
   -3.7077    7.5072    0.0000 C   0  0  0  0  0  0  0  0  0  0  0  0
   -4.6053    6.2880    0.0000 C   0  0  0  0  0  0  0  0  0  0  0  0
   -4.5928    5.4655    0.0000 C   0  0  0  0  0  0  0  0  0  0  0  0
   -7.4195    2.1001    0.0000 C   0  0  0  0  0  0  0  0  0  0  0  0
   -8.1711    3.3277    0.0000 C   0  0  0  0  0  0  0  0  0  0  0  0
   -1.1900    7.2943    0.0000 C   0  0  0  0  0  0  0  0  0  0  0  0
   -8.1460    2.4927    0.0000 C   0  0  0  0  0  0  0  0  0  0  0  0
  2  9  1  0  0  0  0
  3  4  1  0  0  0  0
  4 12  1  0  0  0  0
  5  2  1  0  0  0  0
  6  2  1  0  0  0  0
  7  3  1  0  0  0  0
  8  1  1  0  0  0  0
  9  8  1  0  0  0  0
 10  1  1  0  0  0  0
 11  3  1  0  0  0  0
 12 16  2  0  0  0  0
 13 21  1  0  0  0  0
 14  1  2  0  0  0  0
 15  1  2  0  0  0  0
 16 10  1  0  0  0  0
 17  6  2  0  0  0  0
 18  5  2  0  0  0  0
 19  7  2  0  0  0  0
 20 13  1  0  0  0  0
 21 22  2  0  0  0  0
 22 16  1  0  0  0  0
 23  6  1  0  0  0  0
 24  5  1  0  0  0  0
 25  7  1  0  0  0  0
 26 23  1  0  0  0  0
 13  4  2  0  0  0  0
 20 11  1  0  0  0  0
 26 24  1  0  0  0  0
M  END
>  <IDNUMBER>
F5834-1816

>  <Chemical_Name>
N-(1-acetyl-2,3-dihydro-1H-indol-6-yl)-2-(2,6-dioxopiperidin-1-yl)ethane-1-sulfonamide

>  <PriceCoeff>
1.00

>  <CAS>
1207055-49-9

>  <MW>
379.43

>  <Description>
solid

>  <FSP3>
0.47

>  <clogP>
0.40

>  <TPSA>
112.24

>  <Acceptor>
6

>  <Donor>
1

>  <RotBonds>
6

>  <HAC>
26

>  <Collection>
General

>  <PPDS>
+

$$$$
F5834-2996
  Mrv2219 10102508112D          

 28 31  0  0  0  0            999 V2000
   -5.2869    2.5622    0.0000 N   0  0  0  0  0  0  0  0  0  0  0  0
   -5.3077    7.5283    0.0000 N   0  0  0  0  0  0  0  0  0  0  0  0
   -5.9993    7.9533    0.0000 C   0  0  0  0  0  0  0  0  0  0  0  0
   -5.3702    1.7331    0.0000 C   0  0  0  0  0  0  0  0  0  0  0  0
   -6.0285    2.8997    0.0000 C   0  0  0  0  0  0  0  0  0  0  0  0
   -5.9993    8.7782    0.0000 C   0  0  0  0  0  0  0  0  0  0  0  0
   -4.5828    6.2785    0.0000 C   0  0  0  0  0  0  0  0  0  0  0  0
   -5.3077    6.7034    0.0000 C   0  0  0  0  0  0  0  0  0  0  0  0
   -4.5828    3.7996    0.0000 C   0  0  0  0  0  0  0  0  0  0  0  0
   -4.5828    2.9830    0.0000 C   0  0  0  0  0  0  0  0  0  0  0  0
   -6.6784    9.2739    0.0000 S   0  0  0  0  0  0  0  0  0  0  0  0
   -3.8621    4.2120    0.0000 N   0  0  0  0  0  0  0  0  0  0  0  0
   -3.8621    6.7034    0.0000 C   0  0  0  0  0  0  0  0  0  0  0  0
   -4.5828    7.9408    0.0000 C   0  0  0  0  0  0  0  0  0  0  0  0
   -4.5953    5.4536    0.0000 C   0  0  0  0  0  0  0  0  0  0  0  0
   -6.7284    7.5408    0.0000 O   0  0  0  0  0  0  0  0  0  0  0  0
   -3.8621    5.0411    0.0000 C   0  0  0  0  0  0  0  0  0  0  0  0
   -5.3452    9.2531    0.0000 C   0  0  0  0  0  0  0  0  0  0  0  0
   -6.1660    1.5581    0.0000 C   0  0  0  0  0  0  0  0  0  0  0  0
   -6.5867    2.2830    0.0000 C   0  0  0  0  0  0  0  0  0  0  0  0
   -4.7578    1.1707    0.0000 O   0  0  0  0  0  0  0  0  0  0  0  0
   -6.2118    3.7079    0.0000 O   0  0  0  0  0  0  0  0  0  0  0  0
   -6.4160   10.0613    0.0000 C   0  0  0  0  0  0  0  0  0  0  0  0
   -5.2994    4.2120    0.0000 O   0  0  0  0  0  0  0  0  0  0  0  0
   -5.5952   10.0488    0.0000 C   0  0  0  0  0  0  0  0  0  0  0  0
   -3.8621    7.5158    0.0000 C   0  0  0  0  0  0  0  0  0  0  0  0
   -3.1579    6.2785    0.0000 C   0  0  0  0  0  0  0  0  0  0  0  0
   -3.1579    5.4536    0.0000 C   0  0  0  0  0  0  0  0  0  0  0  0
  2  8  1  0  0  0  0
  3  2  1  0  0  0  0
  4  1  1  0  0  0  0
  5  1  1  0  0  0  0
  6  3  1  0  0  0  0
  7 15  1  0  0  0  0
  8  7  1  0  0  0  0
  9 10  1  0  0  0  0
 10  1  1  0  0  0  0
 11  6  1  0  0  0  0
 12  9  1  0  0  0  0
 13 27  1  0  0  0  0
 14 26  1  0  0  0  0
 15 17  2  0  0  0  0
 16  3  2  0  0  0  0
 17 12  1  0  0  0  0
 18  6  2  0  0  0  0
 19  4  1  0  0  0  0
 20  5  1  0  0  0  0
 21  4  2  0  0  0  0
 22  5  2  0  0  0  0
 23 11  1  0  0  0  0
 24  9  2  0  0  0  0
 25 18  1  0  0  0  0
 26 13  1  0  0  0  0
 27 28  2  0  0  0  0
 28 17  1  0  0  0  0
 20 19  1  0  0  0  0
 13  7  2  0  0  0  0
 14  2  1  0  0  0  0
 23 25  2  0  0  0  0
M  END
>  <IDNUMBER>
F5834-2996

>  <Chemical_Name>
2-(2,5-dioxopyrrolidin-1-yl)-N-[2-(thiophene-2-carbonyl)-1,2,3,4-tetrahydroisoquinolin-7-yl]acetamide

>  <PriceCoeff>
1.00

>  <CAS>
1206987-08-7

>  <MW>
397.45

>  <Description>
solid

>  <FSP3>
0.30

>  <clogP>
1.33

>  <TPSA>
115.03

>  <Acceptor>
4

>  <Donor>
1

>  <RotBonds>
5

>  <HAC>
28

>  <Collection>
General

>  <PPDS>
+

$$$$
F5834-4449
  Mrv2219 10102508112D          

 31 34  0  0  0  0            999 V2000
   -4.5149    3.7433    0.0000 S   0  0  0  0  0  0  0  0  0  0  0  0
   -6.6165    3.3082    0.0000 N   0  0  0  0  0  0  0  0  0  0  0  0
   -2.4339    6.3825    0.0000 C   0  0  0  0  0  0  0  0  0  0  0  0
   -3.0988    6.2060    0.0000 C   0  0  0  0  0  0  0  0  0  0  0  0
   -2.1549    7.1336    0.0000 N   0  0  0  0  0  0  0  0  0  0  0  0
   -3.9772    7.2937    0.0000 O   0  0  0  0  0  0  0  0  0  0  0  0
   -3.8130    6.6165    0.0000 C   0  0  0  0  0  0  0  0  0  0  0  0
   -2.6063    7.8313    0.0000 C   0  0  0  0  0  0  0  0  0  0  0  0
   -7.3306    3.7022    0.0000 C   0  0  0  0  0  0  0  0  0  0  0  0
   -6.6041    2.4832    0.0000 C   0  0  0  0  0  0  0  0  0  0  0  0
   -5.2086    3.3328    0.0000 C   0  0  0  0  0  0  0  0  0  0  0  0
   -3.4559    7.9052    0.0000 C   0  0  0  0  0  0  0  0  0  0  0  0
   -5.9146    3.7268    0.0000 C   0  0  0  0  0  0  0  0  0  0  0  0
   -3.8049    4.1496    0.0000 N   0  0  0  0  0  0  0  0  0  0  0  0
   -3.0907    5.3810    0.0000 C   0  0  0  0  0  0  0  0  0  0  0  0
   -4.0962    3.0619    0.0000 O   0  0  0  0  0  0  0  0  0  0  0  0
   -4.9335    4.4370    0.0000 O   0  0  0  0  0  0  0  0  0  0  0  0
   -1.8840    5.7791    0.0000 O   0  0  0  0  0  0  0  0  0  0  0  0
   -3.8049    4.9665    0.0000 C   0  0  0  0  0  0  0  0  0  0  0  0
   -2.1179    8.5250    0.0000 C   0  0  0  0  0  0  0  0  0  0  0  0
   -5.8940    2.0891    0.0000 O   0  0  0  0  0  0  0  0  0  0  0  0
   -7.3553    4.5109    0.0000 O   0  0  0  0  0  0  0  0  0  0  0  0
   -4.5272    6.2060    0.0000 C   0  0  0  0  0  0  0  0  0  0  0  0
   -3.8130    8.6728    0.0000 C   0  0  0  0  0  0  0  0  0  0  0  0
   -2.4832    9.2885    0.0000 C   0  0  0  0  0  0  0  0  0  0  0  0
   -4.5272    5.3810    0.0000 C   0  0  0  0  0  0  0  0  0  0  0  0
   -3.3328    9.3623    0.0000 C   0  0  0  0  0  0  0  0  0  0  0  0
   -7.2937    2.0645    0.0000 C   0  0  0  0  0  0  0  0  0  0  0  0
   -8.0325    3.2712    0.0000 C   0  0  0  0  0  0  0  0  0  0  0  0
   -8.0079    2.4504    0.0000 C   0  0  0  0  0  0  0  0  0  0  0  0
   -2.0071    9.9657    0.0000 C   0  0  0  0  0  0  0  0  0  0  0  0
  2 13  1  0  0  0  0
  3  4  1  0  0  0  0
  4 15  1  0  0  0  0
  5  3  1  0  0  0  0
  6  7  1  0  0  0  0
  7 23  1  0  0  0  0
  8  5  1  0  0  0  0
  9  2  1  0  0  0  0
 10  2  1  0  0  0  0
 11  1  1  0  0  0  0
 12  6  1  0  0  0  0
 13 11  1  0  0  0  0
 14  1  1  0  0  0  0
 15 19  2  0  0  0  0
 16  1  2  0  0  0  0
 17  1  2  0  0  0  0
 18  3  2  0  0  0  0
 19 14  1  0  0  0  0
 20  8  1  0  0  0  0
 21 10  2  0  0  0  0
 22  9  2  0  0  0  0
 23 26  2  0  0  0  0
 24 12  1  0  0  0  0
 25 20  2  0  0  0  0
 26 19  1  0  0  0  0
 27 24  2  0  0  0  0
 28 10  1  0  0  0  0
 29  9  1  0  0  0  0
 30 28  1  0  0  0  0
 31 25  1  0  0  0  0
  4  7  2  0  0  0  0
 30 29  1  0  0  0  0
 12  8  2  0  0  0  0
 27 25  1  0  0  0  0
M  END
>  <IDNUMBER>
F5834-4449

>  <Chemical_Name>
2-(2,6-dioxopiperidin-1-yl)-N-{6-methyl-10-oxo-2-oxa-9-azatricyclo[9.4.0.0?,?]pentadeca-1(15),3,5,7,11,13-hexaen-13-yl}ethane-1-sulfonamide

>  <PriceCoeff>
1.00

>  <CAS>
1207055-97-7

>  <MW>
443.47

>  <Description>
solid

>  <FSP3>
0.29

>  <clogP>
2.60

>  <TPSA>
130.26

>  <Acceptor>
7

>  <Donor>
2

>  <RotBonds>
5

>  <HAC>
31

>  <Collection>
General

>  <PPDS>
+

$$$$
F5834-4901
  Mrv2219 10102508112D          

 30 32  0  0  0  0            999 V2000
   -4.5833    3.8000    0.0000 S   0  0  0  0  0  0  0  0  0  0  0  0
   -6.7167    3.3583    0.0000 N   0  0  0  0  0  0  0  0  0  0  0  0
   -7.4417    3.7583    0.0000 C   0  0  0  0  0  0  0  0  0  0  0  0
   -6.7042    2.5208    0.0000 C   0  0  0  0  0  0  0  0  0  0  0  0
   -5.2875    3.3833    0.0000 C   0  0  0  0  0  0  0  0  0  0  0  0
   -6.0042    3.7833    0.0000 C   0  0  0  0  0  0  0  0  0  0  0  0
   -3.8625    4.2125    0.0000 N   0  0  0  0  0  0  0  0  0  0  0  0
   -1.7375   10.4542    0.0000 S   0  0  0  0  0  0  0  0  0  0  0  0
   -2.4125    9.9750    0.0000 C   0  0  0  0  0  0  0  0  0  0  0  0
   -3.1458    7.9167    0.0000 C   0  0  0  0  0  0  0  0  0  0  0  0
   -4.1583    3.1083    0.0000 O   0  0  0  0  0  0  0  0  0  0  0  0
   -5.0083    4.5042    0.0000 O   0  0  0  0  0  0  0  0  0  0  0  0
   -3.1375    8.7417    0.0000 N   0  0  0  0  0  0  0  0  0  0  0  0
   -5.9833    2.1208    0.0000 O   0  0  0  0  0  0  0  0  0  0  0  0
   -7.4667    4.5792    0.0000 O   0  0  0  0  0  0  0  0  0  0  0  0
   -1.9875   11.2417    0.0000 C   0  0  0  0  0  0  0  0  0  0  0  0
   -3.0750   10.4667    0.0000 C   0  0  0  0  0  0  0  0  0  0  0  0
   -2.8125   11.2542    0.0000 C   0  0  0  0  0  0  0  0  0  0  0  0
   -2.4333    7.5042    0.0000 O   0  0  0  0  0  0  0  0  0  0  0  0
   -2.4208    9.1542    0.0000 C   0  0  0  0  0  0  0  0  0  0  0  0
   -3.8625    5.0292    0.0000 C   0  0  0  0  0  0  0  0  0  0  0  0
   -3.8583    7.5125    0.0000 C   0  0  0  0  0  0  0  0  0  0  0  0
   -3.8625    6.6792    0.0000 C   0  0  0  0  0  0  0  0  0  0  0  0
   -4.5833    5.4500    0.0000 C   0  0  0  0  0  0  0  0  0  0  0  0
   -3.1500    5.4417    0.0000 C   0  0  0  0  0  0  0  0  0  0  0  0
   -4.5833    6.2792    0.0000 C   0  0  0  0  0  0  0  0  0  0  0  0
   -3.1500    6.2667    0.0000 C   0  0  0  0  0  0  0  0  0  0  0  0
   -7.4042    2.0958    0.0000 C   0  0  0  0  0  0  0  0  0  0  0  0
   -8.1542    3.3208    0.0000 C   0  0  0  0  0  0  0  0  0  0  0  0
   -8.1292    2.4875    0.0000 C   0  0  0  0  0  0  0  0  0  0  0  0
  2  6  1  0  0  0  0
  3  2  1  0  0  0  0
  4  2  1  0  0  0  0
  5  1  1  0  0  0  0
  6  5  1  0  0  0  0
  7  1  1  0  0  0  0
  8  9  1  0  0  0  0
  9 20  1  0  0  0  0
 10 22  1  0  0  0  0
 11  1  2  0  0  0  0
 12  1  2  0  0  0  0
 13 10  1  0  0  0  0
 14  4  2  0  0  0  0
 15  3  2  0  0  0  0
 16  8  1  0  0  0  0
 17  9  2  0  0  0  0
 18 17  1  0  0  0  0
 19 10  2  0  0  0  0
 20 13  1  0  0  0  0
 21  7  1  0  0  0  0
 22 23  1  0  0  0  0
 23 27  2  0  0  0  0
 24 21  1  0  0  0  0
 25 21  2  0  0  0  0
 26 24  2  0  0  0  0
 27 25  1  0  0  0  0
 28  4  1  0  0  0  0
 29  3  1  0  0  0  0
 30 28  1  0  0  0  0
 23 26  1  0  0  0  0
 30 29  1  0  0  0  0
 16 18  2  0  0  0  0
M  END
>  <IDNUMBER>
F5834-4901

>  <Chemical_Name>
2-{4-[2-(2,6-dioxopiperidin-1-yl)ethanesulfonamido]phenyl}-N-[(thiophen-2-yl)methyl]acetamide

>  <PriceCoeff>
1.00

>  <CAS>
1207022-45-4

>  <MW>
449.54

>  <Description>
solid

>  <FSP3>
0.35

>  <clogP>
1.40

>  <TPSA>
149.27

>  <Acceptor>
6

>  <Donor>
2

>  <RotBonds>
9

>  <HAC>
30

>  <Collection>
General

>  <PPDS>
+

$$$$
F5854-1753
  Mrv2219 10102508112D          

 25 27  0  0  0  0            999 V2000
   -5.2942    2.5761    0.0000 N   0  0  0  0  0  0  0  0  0  0  0  0
   -4.5803    2.9937    0.0000 C   0  0  0  0  0  0  0  0  0  0  0  0
   -6.0417    2.9060    0.0000 C   0  0  0  0  0  0  0  0  0  0  0  0
   -5.3736    1.7494    0.0000 C   0  0  0  0  0  0  0  0  0  0  0  0
   -4.5803    3.8079    0.0000 C   0  0  0  0  0  0  0  0  0  0  0  0
   -3.8663    4.2212    0.0000 N   0  0  0  0  0  0  0  0  0  0  0  0
   -1.7118    3.8079    0.0000 C   0  0  0  0  0  0  0  0  0  0  0  0
   -0.9478    4.1127    0.0000 S   0  0  0  0  0  0  0  0  0  0  0  0
   -3.8663    5.0396    0.0000 C   0  0  0  0  0  0  0  0  0  0  0  0
   -5.3068    4.2212    0.0000 O   0  0  0  0  0  0  0  0  0  0  0  0
   -6.5886    2.2880    0.0000 C   0  0  0  0  0  0  0  0  0  0  0  0
   -6.1795    1.5741    0.0000 C   0  0  0  0  0  0  0  0  0  0  0  0
   -6.2171    3.7160    0.0000 O   0  0  0  0  0  0  0  0  0  0  0  0
   -4.7556    1.1858    0.0000 O   0  0  0  0  0  0  0  0  0  0  0  0
   -3.1523    3.8162    0.0000 C   0  0  0  0  0  0  0  0  0  0  0  0
   -0.4091    3.5030    0.0000 C   0  0  0  0  0  0  0  0  0  0  0  0
   -2.4300    4.2129    0.0000 C   0  0  0  0  0  0  0  0  0  0  0  0
   -1.6284    2.9770    0.0000 C   0  0  0  0  0  0  0  0  0  0  0  0
   -6.0082    5.4613    0.0000 N   0  0  0  0  0  0  0  0  0  0  0  0
   -0.8267    2.8016    0.0000 C   0  0  0  0  0  0  0  0  0  0  0  0
   -4.5803    5.4530    0.0000 C   0  0  0  0  0  0  0  0  0  0  0  0
   -5.2942    5.0396    0.0000 C   0  0  0  0  0  0  0  0  0  0  0  0
   -6.0082    6.2922    0.0000 C   0  0  0  0  0  0  0  0  0  0  0  0
   -4.5720    6.2797    0.0000 C   0  0  0  0  0  0  0  0  0  0  0  0
   -5.2985    6.7181    0.0000 C   0  0  0  0  0  0  0  0  0  0  0  0
  2  1  1  0  0  0  0
  3  1  1  0  0  0  0
  4  1  1  0  0  0  0
  5  2  1  0  0  0  0
  6  5  1  0  0  0  0
  7 17  1  0  0  0  0
  8  7  1  0  0  0  0
  9  6  1  0  0  0  0
 10  5  2  0  0  0  0
 11  3  1  0  0  0  0
 12  4  1  0  0  0  0
 13  3  2  0  0  0  0
 14  4  2  0  0  0  0
 15  6  1  0  0  0  0
 16  8  1  0  0  0  0
 17 15  1  0  0  0  0
 18  7  2  0  0  0  0
 19 22  1  0  0  0  0
 20 18  1  0  0  0  0
 21  9  1  0  0  0  0
 22 21  2  0  0  0  0
 23 25  1  0  0  0  0
 24 21  1  0  0  0  0
 25 24  2  0  0  0  0
 12 11  1  0  0  0  0
 20 16  2  0  0  0  0
 19 23  2  0  0  0  0
M  END
>  <IDNUMBER>
F5854-1753

>  <Chemical_Name>
2-(2,5-dioxopyrrolidin-1-yl)-N-[(pyridin-3-yl)methyl]-N-[2-(thiophen-2-yl)ethyl]acetamide

>  <PriceCoeff>
1.00

>  <CAS>
1396715-03-9

>  <MW>
357.43

>  <Description>
oil

>  <FSP3>
0.33

>  <clogP>
1.14

>  <TPSA>
98.82

>  <Acceptor>
4

>  <Donor>
1

>  <RotBonds>
8

>  <HAC>
25

>  <Collection>
General

>  <PPDS>
+

$$$$
F5854-2005
  Mrv2219 10102508112D          

 26 28  0  0  0  0            999 V2000
   -4.5803    3.8079    0.0000 C   0  0  0  0  0  0  0  0  0  0  0  0
   -3.8663    4.2212    0.0000 N   0  0  0  0  0  0  0  0  0  0  0  0
   -4.5928    2.9895    0.0000 N   0  0  0  0  0  0  0  0  0  0  0  0
   -1.7118    3.8079    0.0000 C   0  0  0  0  0  0  0  0  0  0  0  0
   -6.0166    1.3403    0.0000 C   0  0  0  0  0  0  0  0  0  0  0  0
   -0.9478    4.1127    0.0000 S   0  0  0  0  0  0  0  0  0  0  0  0
   -5.3110    1.7494    0.0000 C   0  0  0  0  0  0  0  0  0  0  0  0
   -5.3068    2.5887    0.0000 C   0  0  0  0  0  0  0  0  0  0  0  0
   -5.3068    4.2212    0.0000 O   0  0  0  0  0  0  0  0  0  0  0  0
   -3.8663    5.0396    0.0000 C   0  0  0  0  0  0  0  0  0  0  0  0
   -6.7306    1.7494    0.0000 C   0  0  0  0  0  0  0  0  0  0  0  0
   -3.1523    3.8162    0.0000 C   0  0  0  0  0  0  0  0  0  0  0  0
   -0.4091    3.5030    0.0000 C   0  0  0  0  0  0  0  0  0  0  0  0
   -2.4300    4.2129    0.0000 C   0  0  0  0  0  0  0  0  0  0  0  0
   -1.6284    2.9770    0.0000 C   0  0  0  0  0  0  0  0  0  0  0  0
   -6.0082    5.4613    0.0000 N   0  0  0  0  0  0  0  0  0  0  0  0
   -0.8267    2.8016    0.0000 C   0  0  0  0  0  0  0  0  0  0  0  0
   -4.5803    5.4530    0.0000 C   0  0  0  0  0  0  0  0  0  0  0  0
   -6.7306    2.5761    0.0000 C   0  0  0  0  0  0  0  0  0  0  0  0
   -6.0166    0.5094    0.0000 Cl  0  0  0  0  0  0  0  0  0  0  0  0
   -6.0166    2.9895    0.0000 C   0  0  0  0  0  0  0  0  0  0  0  0
   -7.4529    1.3277    0.0000 Cl  0  0  0  0  0  0  0  0  0  0  0  0
   -5.2942    5.0396    0.0000 C   0  0  0  0  0  0  0  0  0  0  0  0
   -6.0082    6.2922    0.0000 C   0  0  0  0  0  0  0  0  0  0  0  0
   -4.5720    6.2797    0.0000 C   0  0  0  0  0  0  0  0  0  0  0  0
   -5.2985    6.7181    0.0000 C   0  0  0  0  0  0  0  0  0  0  0  0
  2  1  1  0  0  0  0
  3  1  1  0  0  0  0
  4 14  1  0  0  0  0
  5  7  1  0  0  0  0
  6  4  1  0  0  0  0
  7  8  2  0  0  0  0
  8  3  1  0  0  0  0
  9  1  2  0  0  0  0
 10  2  1  0  0  0  0
 11 19  1  0  0  0  0
 12  2  1  0  0  0  0
 13  6  1  0  0  0  0
 14 12  1  0  0  0  0
 15  4  2  0  0  0  0
 16 23  1  0  0  0  0
 17 15  1  0  0  0  0
 18 10  1  0  0  0  0
 19 21  2  0  0  0  0
 20  5  1  0  0  0  0
 21  8  1  0  0  0  0
 22 11  1  0  0  0  0
 23 18  2  0  0  0  0
 24 26  1  0  0  0  0
 25 18  1  0  0  0  0
 26 25  2  0  0  0  0
  5 11  2  0  0  0  0
 17 13  2  0  0  0  0
 16 24  2  0  0  0  0
M  END
>  <IDNUMBER>
F5854-2005

>  <Chemical_Name>
3-(3,4-dichlorophenyl)-1-[(pyridin-3-yl)methyl]-1-[2-(thiophen-2-yl)ethyl]urea

>  <PriceCoeff>
1.00

>  <CAS>
1396715-59-5

>  <MW>
406.33

>  <Description>
solid

>  <FSP3>
0.16

>  <clogP>
4.47

>  <TPSA>
73.47

>  <Acceptor>
2

>  <Donor>
2

>  <RotBonds>
7

>  <HAC>
26

>  <Collection>
General

$$$$
F5854-2345
  Mrv2219 10102508112D          

 23 25  0  0  0  0            999 V2000
   -5.3066    2.5821    0.0000 N   0  0  0  0  0  0  0  0  0  0  0  0
   -4.5910    3.0007    0.0000 C   0  0  0  0  0  0  0  0  0  0  0  0
   -4.5910    3.8168    0.0000 C   0  0  0  0  0  0  0  0  0  0  0  0
   -5.3862    1.7535    0.0000 C   0  0  0  0  0  0  0  0  0  0  0  0
   -6.0558    2.9128    0.0000 C   0  0  0  0  0  0  0  0  0  0  0  0
   -3.8753    4.2311    0.0000 N   0  0  0  0  0  0  0  0  0  0  0  0
   -2.4315    4.2311    0.0000 C   0  0  0  0  0  0  0  0  0  0  0  0
   -4.5910    5.4532    0.0000 C   0  0  0  0  0  0  0  0  0  0  0  0
   -3.1597    3.8251    0.0000 C   0  0  0  0  0  0  0  0  0  0  0  0
   -1.1174    4.4990    0.0000 S   0  0  0  0  0  0  0  0  0  0  0  0
   -3.8753    5.0514    0.0000 C   0  0  0  0  0  0  0  0  0  0  0  0
   -5.3694    5.1100    0.0000 O   0  0  0  0  0  0  0  0  0  0  0  0
   -1.6782    3.9130    0.0000 C   0  0  0  0  0  0  0  0  0  0  0  0
   -5.3192    4.2311    0.0000 O   0  0  0  0  0  0  0  0  0  0  0  0
   -2.3436    5.0514    0.0000 C   0  0  0  0  0  0  0  0  0  0  0  0
   -6.6040    2.2934    0.0000 C   0  0  0  0  0  0  0  0  0  0  0  0
   -6.1939    1.5777    0.0000 C   0  0  0  0  0  0  0  0  0  0  0  0
   -6.2316    3.7247    0.0000 O   0  0  0  0  0  0  0  0  0  0  0  0
   -4.7668    1.1885    0.0000 O   0  0  0  0  0  0  0  0  0  0  0  0
   -1.5317    5.2272    0.0000 C   0  0  0  0  0  0  0  0  0  0  0  0
   -4.7082    6.2693    0.0000 C   0  0  0  0  0  0  0  0  0  0  0  0
   -5.9386    5.7252    0.0000 C   0  0  0  0  0  0  0  0  0  0  0  0
   -5.5243    6.4325    0.0000 C   0  0  0  0  0  0  0  0  0  0  0  0
  2  1  1  0  0  0  0
  3  2  1  0  0  0  0
  4  1  1  0  0  0  0
  5  1  1  0  0  0  0
  6  3  1  0  0  0  0
  7  9  1  0  0  0  0
  8 11  1  0  0  0  0
  9  6  1  0  0  0  0
 10 13  1  0  0  0  0
 11  6  1  0  0  0  0
 12  8  1  0  0  0  0
 13  7  2  0  0  0  0
 14  3  2  0  0  0  0
 15  7  1  0  0  0  0
 16  5  1  0  0  0  0
 17  4  1  0  0  0  0
 18  5  2  0  0  0  0
 19  4  2  0  0  0  0
 20 15  2  0  0  0  0
 21  8  2  0  0  0  0
 22 12  1  0  0  0  0
 23 21  1  0  0  0  0
 17 16  1  0  0  0  0
 23 22  2  0  0  0  0
 20 10  1  0  0  0  0
M  END
>  <IDNUMBER>
F5854-2345

>  <Chemical_Name>
2-(2,5-dioxopyrrolidin-1-yl)-N-[(furan-2-yl)methyl]-N-[(thiophen-3-yl)methyl]acetamide

>  <PriceCoeff>
1.00

>  <CAS>
1219845-16-5

>  <MW>
332.37

>  <Description>
solid

>  <FSP3>
0.31

>  <clogP>
1.35

>  <TPSA>
99.07

>  <Acceptor>
4

>  <Donor>
0

>  <RotBonds>
7

>  <HAC>
23

>  <Collection>
General

>  <PPDS>
+

$$$$
F5854-2642
  Mrv2219 10102508112D          

 24 26  0  0  0  0            999 V2000
   -5.2960    2.5770    0.0000 N   0  0  0  0  0  0  0  0  0  0  0  0
   -4.5818    2.9947    0.0000 C   0  0  0  0  0  0  0  0  0  0  0  0
   -6.0437    2.9070    0.0000 C   0  0  0  0  0  0  0  0  0  0  0  0
   -5.3754    1.7500    0.0000 C   0  0  0  0  0  0  0  0  0  0  0  0
   -4.5818    3.8091    0.0000 C   0  0  0  0  0  0  0  0  0  0  0  0
   -3.8676    4.2226    0.0000 N   0  0  0  0  0  0  0  0  0  0  0  0
   -1.7124    3.8091    0.0000 C   0  0  0  0  0  0  0  0  0  0  0  0
   -4.5735    5.4423    0.0000 C   0  0  0  0  0  0  0  0  0  0  0  0
   -0.9481    4.1141    0.0000 S   0  0  0  0  0  0  0  0  0  0  0  0
   -3.8676    5.0413    0.0000 C   0  0  0  0  0  0  0  0  0  0  0  0
   -5.3461    5.1039    0.0000 O   0  0  0  0  0  0  0  0  0  0  0  0
   -5.3085    4.2226    0.0000 O   0  0  0  0  0  0  0  0  0  0  0  0
   -6.5908    2.2888    0.0000 C   0  0  0  0  0  0  0  0  0  0  0  0
   -6.1815    1.5746    0.0000 C   0  0  0  0  0  0  0  0  0  0  0  0
   -6.2191    3.7172    0.0000 O   0  0  0  0  0  0  0  0  0  0  0  0
   -4.7572    1.1861    0.0000 O   0  0  0  0  0  0  0  0  0  0  0  0
   -3.1534    3.8175    0.0000 C   0  0  0  0  0  0  0  0  0  0  0  0
   -0.4010    3.5042    0.0000 C   0  0  0  0  0  0  0  0  0  0  0  0
   -2.4308    4.2143    0.0000 C   0  0  0  0  0  0  0  0  0  0  0  0
   -1.6289    2.9779    0.0000 C   0  0  0  0  0  0  0  0  0  0  0  0
   -4.6946    6.2650    0.0000 C   0  0  0  0  0  0  0  0  0  0  0  0
   -5.9225    5.7179    0.0000 C   0  0  0  0  0  0  0  0  0  0  0  0
   -0.8228    2.8025    0.0000 C   0  0  0  0  0  0  0  0  0  0  0  0
   -5.5090    6.4321    0.0000 C   0  0  0  0  0  0  0  0  0  0  0  0
  2  1  1  0  0  0  0
  3  1  1  0  0  0  0
  4  1  1  0  0  0  0
  5  2  1  0  0  0  0
  6  5  1  0  0  0  0
  7 19  1  0  0  0  0
  8 10  1  0  0  0  0
  9  7  1  0  0  0  0
 10  6  1  0  0  0  0
 11  8  1  0  0  0  0
 12  5  2  0  0  0  0
 13  3  1  0  0  0  0
 14  4  1  0  0  0  0
 15  3  2  0  0  0  0
 16  4  2  0  0  0  0
 17  6  1  0  0  0  0
 18  9  1  0  0  0  0
 19 17  1  0  0  0  0
 20  7  2  0  0  0  0
 21  8  2  0  0  0  0
 22 11  1  0  0  0  0
 23 20  1  0  0  0  0
 24 21  1  0  0  0  0
 14 13  1  0  0  0  0
 24 22  2  0  0  0  0
 23 18  2  0  0  0  0
M  END
>  <IDNUMBER>
F5854-2642

>  <Chemical_Name>
2-(2,5-dioxopyrrolidin-1-yl)-N-[(furan-2-yl)methyl]-N-[2-(thiophen-2-yl)ethyl]acetamide

>  <PriceCoeff>
1.00

>  <CAS>
1396852-57-5

>  <MW>
346.40

>  <Description>
oil

>  <FSP3>
0.35

>  <clogP>
1.81

>  <TPSA>
99.07

>  <Acceptor>
4

>  <Donor>
0

>  <RotBonds>
8

>  <HAC>
24

>  <Collection>
General

>  <PPDS>
+

$$$$
F5854-2938
  Mrv2219 10102508112D          

 24 26  0  0  0  0            999 V2000
   -5.2935    2.5757    0.0000 N   0  0  0  0  0  0  0  0  0  0  0  0
   -4.5796    2.9932    0.0000 C   0  0  0  0  0  0  0  0  0  0  0  0
   -4.5796    3.8073    0.0000 C   0  0  0  0  0  0  0  0  0  0  0  0
   -5.3728    1.7492    0.0000 C   0  0  0  0  0  0  0  0  0  0  0  0
   -6.0408    2.9056    0.0000 C   0  0  0  0  0  0  0  0  0  0  0  0
   -2.4297    4.2123    0.0000 C   0  0  0  0  0  0  0  0  0  0  0  0
   -3.8657    4.2206    0.0000 N   0  0  0  0  0  0  0  0  0  0  0  0
   -1.6865    3.8825    0.0000 N   0  0  0  0  0  0  0  0  0  0  0  0
   -3.1519    3.8156    0.0000 C   0  0  0  0  0  0  0  0  0  0  0  0
   -4.5921    5.4522    0.0000 C   0  0  0  0  0  0  0  0  0  0  0  0
   -5.3436    5.1140    0.0000 S   0  0  0  0  0  0  0  0  0  0  0  0
   -3.8657    5.0389    0.0000 C   0  0  0  0  0  0  0  0  0  0  0  0
   -1.1146    4.4711    0.0000 C   0  0  0  0  0  0  0  0  0  0  0  0
   -2.3378    5.0347    0.0000 C   0  0  0  0  0  0  0  0  0  0  0  0
   -1.5279    5.1766    0.0000 C   0  0  0  0  0  0  0  0  0  0  0  0
   -5.3060    4.2206    0.0000 O   0  0  0  0  0  0  0  0  0  0  0  0
   -6.5876    2.2877    0.0000 C   0  0  0  0  0  0  0  0  0  0  0  0
   -6.1786    1.5738    0.0000 C   0  0  0  0  0  0  0  0  0  0  0  0
   -6.2161    3.7154    0.0000 O   0  0  0  0  0  0  0  0  0  0  0  0
   -4.7549    1.1856    0.0000 O   0  0  0  0  0  0  0  0  0  0  0  0
   -5.9071    5.7277    0.0000 C   0  0  0  0  0  0  0  0  0  0  0  0
   -4.6673    6.2871    0.0000 C   0  0  0  0  0  0  0  0  0  0  0  0
   -5.4813    6.4541    0.0000 C   0  0  0  0  0  0  0  0  0  0  0  0
   -1.5112    3.0642    0.0000 C   0  0  0  0  0  0  0  0  0  0  0  0
  2  1  1  0  0  0  0
  3  2  1  0  0  0  0
  4  1  1  0  0  0  0
  5  1  1  0  0  0  0
  6  9  1  0  0  0  0
  7  3  1  0  0  0  0
  8  6  1  0  0  0  0
  9  7  1  0  0  0  0
 10 12  1  0  0  0  0
 11 10  1  0  0  0  0
 12  7  1  0  0  0  0
 13  8  1  0  0  0  0
 14  6  2  0  0  0  0
 15 14  1  0  0  0  0
 16  3  2  0  0  0  0
 17  5  1  0  0  0  0
 18  4  1  0  0  0  0
 19  5  2  0  0  0  0
 20  4  2  0  0  0  0
 21 11  1  0  0  0  0
 22 10  2  0  0  0  0
 23 22  1  0  0  0  0
 24  8  1  0  0  0  0
 18 17  1  0  0  0  0
 21 23  2  0  0  0  0
 15 13  2  0  0  0  0
M  END
>  <IDNUMBER>
F5854-2938

>  <Chemical_Name>
2-(2,5-dioxopyrrolidin-1-yl)-N-[(1-methyl-1H-pyrrol-2-yl)methyl]-N-[(thiophen-2-yl)methyl]acetamide

>  <PriceCoeff>
1.00

>  <CAS>
1286704-02-6

>  <MW>
345.42

>  <Description>
solid

>  <FSP3>
0.35

>  <clogP>
1.24

>  <TPSA>
90.86

>  <Acceptor>
3

>  <Donor>
0

>  <RotBonds>
7

>  <HAC>
24

>  <Collection>
General

>  <PPDS>
+

$$$$
F5854-3791
  Mrv2219 10102508112D          

 21 23  0  0  0  0            999 V2000
   -5.2927    2.5754    0.0000 N   0  0  0  0  0  0  0  0  0  0  0  0
   -4.5789    3.8067    0.0000 C   0  0  0  0  0  0  0  0  0  0  0  0
   -3.8651    4.2200    0.0000 N   0  0  0  0  0  0  0  0  0  0  0  0
   -4.5789    2.9928    0.0000 C   0  0  0  0  0  0  0  0  0  0  0  0
   -2.4251    4.2117    0.0000 C   0  0  0  0  0  0  0  0  0  0  0  0
   -5.3720    1.7489    0.0000 C   0  0  0  0  0  0  0  0  0  0  0  0
   -6.0399    2.9051    0.0000 C   0  0  0  0  0  0  0  0  0  0  0  0
   -1.6780    3.8819    0.0000 N   0  0  0  0  0  0  0  0  0  0  0  0
   -3.1514    3.8151    0.0000 C   0  0  0  0  0  0  0  0  0  0  0  0
   -3.8651    5.0381    0.0000 C   0  0  0  0  0  0  0  0  0  0  0  0
   -4.2784    5.7644    0.0000 C   0  0  0  0  0  0  0  0  0  0  0  0
   -3.4394    5.7519    0.0000 C   0  0  0  0  0  0  0  0  0  0  0  0
   -1.1103    4.4704    0.0000 C   0  0  0  0  0  0  0  0  0  0  0  0
   -2.3291    5.0339    0.0000 C   0  0  0  0  0  0  0  0  0  0  0  0
   -1.5235    5.1759    0.0000 C   0  0  0  0  0  0  0  0  0  0  0  0
   -5.3052    4.2200    0.0000 O   0  0  0  0  0  0  0  0  0  0  0  0
   -6.5867    2.2874    0.0000 C   0  0  0  0  0  0  0  0  0  0  0  0
   -6.1776    1.5736    0.0000 C   0  0  0  0  0  0  0  0  0  0  0  0
   -6.2152    3.7149    0.0000 O   0  0  0  0  0  0  0  0  0  0  0  0
   -4.7542    1.1854    0.0000 O   0  0  0  0  0  0  0  0  0  0  0  0
   -1.5110    3.0637    0.0000 C   0  0  0  0  0  0  0  0  0  0  0  0
  2  4  1  0  0  0  0
  3  2  1  0  0  0  0
  4  1  1  0  0  0  0
  5  9  1  0  0  0  0
  6  1  1  0  0  0  0
  7  1  1  0  0  0  0
  8  5  1  0  0  0  0
  9  3  1  0  0  0  0
 10  3  1  0  0  0  0
 11 10  1  0  0  0  0
 12 10  1  0  0  0  0
 13  8  1  0  0  0  0
 14  5  2  0  0  0  0
 15 14  1  0  0  0  0
 16  2  2  0  0  0  0
 17  7  1  0  0  0  0
 18  6  1  0  0  0  0
 19  7  2  0  0  0  0
 20  6  2  0  0  0  0
 21  8  1  0  0  0  0
 18 17  1  0  0  0  0
 12 11  1  0  0  0  0
 15 13  2  0  0  0  0
M  END
>  <IDNUMBER>
F5854-3791

>  <Chemical_Name>
N-cyclopropyl-2-(2,5-dioxopyrrolidin-1-yl)-N-[(1-methyl-1H-pyrrol-2-yl)methyl]acetamide

>  <PriceCoeff>
1.00

>  <MW>
289.33

>  <Description>
solid

>  <FSP3>
0.53

>  <clogP>
0.55

>  <TPSA>
62.62

>  <Acceptor>
3

>  <Donor>
0

>  <RotBonds>
6

>  <HAC>
21

>  <Collection>
General

$$$$
F5855-0774
  Mrv2219 10102508112D          

 28 31  0  0  0  0            999 V2000
    8.0807   -7.9939    0.0000 C   0  0  0  0  0  0  0  0  0  0  0  0
    3.8025   -5.4989    0.0000 N   0  0  0  0  0  0  0  0  0  0  0  0
    8.4945   -8.7056    0.0000 C   0  0  0  0  0  0  0  0  0  0  0  0
    8.0849   -7.1664    0.0000 C   0  0  0  0  0  0  0  0  0  0  0  0
    7.6629   -8.7056    0.0000 C   0  0  0  0  0  0  0  0  0  0  0  0
    5.2300   -5.5030    0.0000 C   0  0  0  0  0  0  0  0  0  0  0  0
    4.5100   -5.9127    0.0000 C   0  0  0  0  0  0  0  0  0  0  0  0
    7.3732   -6.7526    0.0000 N   0  0  0  0  0  0  0  0  0  0  0  0
    3.0453   -5.8216    0.0000 C   0  0  0  0  0  0  0  0  0  0  0  0
    3.7238   -4.6796    0.0000 C   0  0  0  0  0  0  0  0  0  0  0  0
    5.9375   -5.9127    0.0000 N   0  0  0  0  0  0  0  0  0  0  0  0
    9.2021   -9.1276    0.0000 C   0  0  0  0  0  0  0  0  0  0  0  0
    8.8007   -6.7567    0.0000 O   0  0  0  0  0  0  0  0  0  0  0  0
    7.3774   -5.9209    0.0000 C   0  0  0  0  0  0  0  0  0  0  0  0
    6.6574   -7.1540    0.0000 C   0  0  0  0  0  0  0  0  0  0  0  0
    5.9375   -6.7402    0.0000 C   0  0  0  0  0  0  0  0  0  0  0  0
    6.6574   -5.5030    0.0000 C   0  0  0  0  0  0  0  0  0  0  0  0
    5.2300   -4.6796    0.0000 O   0  0  0  0  0  0  0  0  0  0  0  0
    2.5074   -5.2010    0.0000 C   0  0  0  0  0  0  0  0  0  0  0  0
    2.9212   -4.4976    0.0000 C   0  0  0  0  0  0  0  0  0  0  0  0
    2.8715   -6.6326    0.0000 O   0  0  0  0  0  0  0  0  0  0  0  0
    4.3362   -4.1252    0.0000 O   0  0  0  0  0  0  0  0  0  0  0  0
    9.1979   -9.9468    0.0000 C   0  0  0  0  0  0  0  0  0  0  0  0
    9.9096   -8.7138    0.0000 C   0  0  0  0  0  0  0  0  0  0  0  0
   10.6254   -9.9551    0.0000 C   0  0  0  0  0  0  0  0  0  0  0  0
   10.6254   -9.1276    0.0000 C   0  0  0  0  0  0  0  0  0  0  0  0
    9.9096  -10.3647    0.0000 C   0  0  0  0  0  0  0  0  0  0  0  0
   11.3371  -10.3689    0.0000 F   0  0  0  0  0  0  0  0  0  0  0  0
  2  7  1  0  0  0  0
  3  1  1  0  0  0  0
  4  1  1  0  0  0  0
  5  1  1  0  0  0  0
  6 11  1  0  0  0  0
  7  6  1  0  0  0  0
  8  4  1  0  0  0  0
  9  2  1  0  0  0  0
 10  2  1  0  0  0  0
 11 16  1  0  0  0  0
 12  3  1  0  0  0  0
 13  4  2  0  0  0  0
 14  8  1  0  0  0  0
 15  8  1  0  0  0  0
 16 15  1  0  0  0  0
 17 14  1  0  0  0  0
 18  6  2  0  0  0  0
 19  9  1  0  0  0  0
 20 10  1  0  0  0  0
 21  9  2  0  0  0  0
 22 10  2  0  0  0  0
 23 12  2  0  0  0  0
 24 12  1  0  0  0  0
 25 26  1  0  0  0  0
 26 24  2  0  0  0  0
 27 23  1  0  0  0  0
 28 25  1  0  0  0  0
  5  3  1  0  0  0  0
 11 17  1  0  0  0  0
 25 27  2  0  0  0  0
 19 20  1  0  0  0  0
M  END
>  <IDNUMBER>
F5855-0774

>  <Chemical_Name>
1-(2-{4-[2-(4-fluorophenyl)cyclopropanecarbonyl]piperazin-1-yl}-2-oxoethyl)pyrrolidine-2,5-dione

>  <PriceCoeff>
1.00

>  <CAS>
1208543-85-4

>  <MW>
387.40

>  <Description>
oil

>  <FSP3>
0.50

>  <clogP>
1.17

>  <TPSA>
78.00

>  <Acceptor>
4

>  <Donor>
0

>  <RotBonds>
6

>  <HAC>
28

>  <Collection>
General

>  <PPDS>
+

$$$$
F5857-2313
  Mrv2219 10102508112D          

 24 26  0  0  0  0            999 V2000
   -5.2927    2.5754    0.0000 N   0  0  0  0  0  0  0  0  0  0  0  0
   -5.3720    1.7489    0.0000 C   0  0  0  0  0  0  0  0  0  0  0  0
   -6.0399    2.9051    0.0000 C   0  0  0  0  0  0  0  0  0  0  0  0
   -3.1514    6.2903    0.0000 C   0  0  0  0  0  0  0  0  0  0  0  0
   -4.5789    2.9928    0.0000 C   0  0  0  0  0  0  0  0  0  0  0  0
   -2.4293    6.7036    0.0000 C   0  0  0  0  0  0  0  0  0  0  0  0
   -4.5789    3.8067    0.0000 C   0  0  0  0  0  0  0  0  0  0  0  0
   -3.8651    4.2200    0.0000 N   0  0  0  0  0  0  0  0  0  0  0  0
   -6.1776    1.5736    0.0000 C   0  0  0  0  0  0  0  0  0  0  0  0
   -6.5867    2.2874    0.0000 C   0  0  0  0  0  0  0  0  0  0  0  0
   -4.7542    1.1854    0.0000 O   0  0  0  0  0  0  0  0  0  0  0  0
   -6.2152    3.7149    0.0000 O   0  0  0  0  0  0  0  0  0  0  0  0
   -3.1514    5.4597    0.0000 C   0  0  0  0  0  0  0  0  0  0  0  0
   -5.3052    4.2200    0.0000 O   0  0  0  0  0  0  0  0  0  0  0  0
   -3.8651    5.0506    0.0000 C   0  0  0  0  0  0  0  0  0  0  0  0
   -2.4293    7.5258    0.0000 C   0  0  0  0  0  0  0  0  0  0  0  0
   -2.4376    5.0381    0.0000 O   0  0  0  0  0  0  0  0  0  0  0  0
   -3.8526    6.6994    0.0000 C   0  0  0  0  0  0  0  0  0  0  0  0
   -1.7030    6.2861    0.0000 C   0  0  0  0  0  0  0  0  0  0  0  0
   -3.8651    7.5300    0.0000 C   0  0  0  0  0  0  0  0  0  0  0  0
   -3.1389    7.9307    0.0000 C   0  0  0  0  0  0  0  0  0  0  0  0
   -1.7113    7.9307    0.0000 C   0  0  0  0  0  0  0  0  0  0  0  0
   -0.9767    6.6994    0.0000 C   0  0  0  0  0  0  0  0  0  0  0  0
   -0.9767    7.5175    0.0000 C   0  0  0  0  0  0  0  0  0  0  0  0
  2  1  1  0  0  0  0
  3  1  1  0  0  0  0
  4 13  1  0  0  0  0
  5  1  1  0  0  0  0
  6  4  2  0  0  0  0
  7  5  1  0  0  0  0
  8  7  1  0  0  0  0
  9  2  1  0  0  0  0
 10  3  1  0  0  0  0
 11  2  2  0  0  0  0
 12  3  2  0  0  0  0
 13 15  1  0  0  0  0
 14  7  2  0  0  0  0
 15  8  1  0  0  0  0
 16  6  1  0  0  0  0
 17 13  1  0  0  0  0
 18  4  1  0  0  0  0
 19  6  1  0  0  0  0
 20 18  2  0  0  0  0
 21 20  1  0  0  0  0
 22 16  1  0  0  0  0
 23 19  2  0  0  0  0
 24 23  1  0  0  0  0
  9 10  1  0  0  0  0
 16 21  2  0  0  0  0
 22 24  2  0  0  0  0
M  END
>  <IDNUMBER>
F5857-2313

>  <Chemical_Name>
2-(2,5-dioxopyrrolidin-1-yl)-N-[2-hydroxy-2-(naphthalen-1-yl)ethyl]acetamide

>  <PriceCoeff>
1.00

>  <CAS>
1351597-93-7

>  <MW>
326.35

>  <Description>
solid

>  <FSP3>
0.28

>  <clogP>
1.17

>  <TPSA>
86.71

>  <Acceptor>
4

>  <Donor>
2

>  <RotBonds>
5

>  <HAC>
24

>  <Collection>
General

>  <PPDS>
+

$$$$
F5857-2692
  Mrv2219 10102508112D          

 27 29  0  0  0  0            999 V2000
   -5.2927    2.5754    0.0000 N   0  0  0  0  0  0  0  0  0  0  0  0
   -5.3720    1.7489    0.0000 C   0  0  0  0  0  0  0  0  0  0  0  0
   -6.0399    2.9051    0.0000 C   0  0  0  0  0  0  0  0  0  0  0  0
   -4.5789    2.9928    0.0000 C   0  0  0  0  0  0  0  0  0  0  0  0
   -4.5789    3.8067    0.0000 C   0  0  0  0  0  0  0  0  0  0  0  0
   -3.1514    5.4514    0.0000 C   0  0  0  0  0  0  0  0  0  0  0  0
   -2.4376    5.8646    0.0000 C   0  0  0  0  0  0  0  0  0  0  0  0
   -3.8651    4.2200    0.0000 N   0  0  0  0  0  0  0  0  0  0  0  0
   -6.1776    1.5736    0.0000 C   0  0  0  0  0  0  0  0  0  0  0  0
   -6.5867    2.2874    0.0000 C   0  0  0  0  0  0  0  0  0  0  0  0
   -0.9976    6.6868    0.0000 C   0  0  0  0  0  0  0  0  0  0  0  0
   -4.7542    1.1854    0.0000 O   0  0  0  0  0  0  0  0  0  0  0  0
   -6.2152    3.7149    0.0000 O   0  0  0  0  0  0  0  0  0  0  0  0
   -3.8651    5.0506    0.0000 C   0  0  0  0  0  0  0  0  0  0  0  0
   -5.3052    4.2200    0.0000 O   0  0  0  0  0  0  0  0  0  0  0  0
   -1.7113    5.4471    0.0000 C   0  0  0  0  0  0  0  0  0  0  0  0
   -2.4251    6.6994    0.0000 C   0  0  0  0  0  0  0  0  0  0  0  0
   -0.9976    5.8646    0.0000 C   0  0  0  0  0  0  0  0  0  0  0  0
   -1.7113    7.1043    0.0000 C   0  0  0  0  0  0  0  0  0  0  0  0
   -0.2838    7.1001    0.0000 C   0  0  0  0  0  0  0  0  0  0  0  0
   -3.5646    6.1776    0.0000 O   0  0  0  0  0  0  0  0  0  0  0  0
   -2.7424    4.7376    0.0000 C   0  0  0  0  0  0  0  0  0  0  0  0
    0.4383    6.6660    0.0000 C   0  0  0  0  0  0  0  0  0  0  0  0
   -0.2713    7.9307    0.0000 C   0  0  0  0  0  0  0  0  0  0  0  0
    1.1562    7.0792    0.0000 C   0  0  0  0  0  0  0  0  0  0  0  0
    0.4550    8.3315    0.0000 C   0  0  0  0  0  0  0  0  0  0  0  0
    1.1646    7.9140    0.0000 C   0  0  0  0  0  0  0  0  0  0  0  0
  2  1  1  0  0  0  0
  3  1  1  0  0  0  0
  4  1  1  0  0  0  0
  5  4  1  0  0  0  0
  6 14  1  0  0  0  0
  7  6  1  0  0  0  0
  8  5  1  0  0  0  0
  9  2  1  0  0  0  0
 10  3  1  0  0  0  0
 11 19  2  0  0  0  0
 12  2  2  0  0  0  0
 13  3  2  0  0  0  0
 14  8  1  0  0  0  0
 15  5  2  0  0  0  0
 16  7  1  0  0  0  0
 17  7  2  0  0  0  0
 18 16  2  0  0  0  0
 19 17  1  0  0  0  0
 20 11  1  0  0  0  0
 21  6  1  0  0  0  0
 22  6  1  0  0  0  0
 23 20  2  0  0  0  0
 24 20  1  0  0  0  0
 25 23  1  0  0  0  0
 26 24  2  0  0  0  0
 27 26  1  0  0  0  0
  9 10  1  0  0  0  0
 18 11  1  0  0  0  0
 25 27  2  0  0  0  0
M  END
>  <IDNUMBER>
F5857-2692

>  <Chemical_Name>
N-(2-{[1,1'-biphenyl]-4-yl}-2-hydroxypropyl)-2-(2,5-dioxopyrrolidin-1-yl)acetamide

>  <PriceCoeff>
1.00

>  <CAS>
1396868-80-6

>  <MW>
366.41

>  <Description>
solid

>  <FSP3>
0.29

>  <clogP>
2.29

>  <TPSA>
86.71

>  <Acceptor>
4

>  <Donor>
2

>  <RotBonds>
6

>  <HAC>
27

>  <Collection>
General

>  <PPDS>
+

$$$$
F5857-3071
  Mrv2219 10102508112D          

 24 26  0  0  0  0            999 V2000
   -5.2942    2.5761    0.0000 N   0  0  0  0  0  0  0  0  0  0  0  0
   -5.3736    1.7494    0.0000 C   0  0  0  0  0  0  0  0  0  0  0  0
   -6.0417    2.9060    0.0000 C   0  0  0  0  0  0  0  0  0  0  0  0
   -4.5803    2.9937    0.0000 C   0  0  0  0  0  0  0  0  0  0  0  0
   -1.7244    7.1272    0.0000 C   0  0  0  0  0  0  0  0  0  0  0  0
   -2.4383    5.8663    0.0000 C   0  0  0  0  0  0  0  0  0  0  0  0
   -4.5803    3.8079    0.0000 C   0  0  0  0  0  0  0  0  0  0  0  0
   -3.1523    5.4530    0.0000 C   0  0  0  0  0  0  0  0  0  0  0  0
   -2.4383    6.7014    0.0000 C   0  0  0  0  0  0  0  0  0  0  0  0
   -1.0104    6.7181    0.0000 C   0  0  0  0  0  0  0  0  0  0  0  0
   -1.5490    7.9206    0.0000 O   0  0  0  0  0  0  0  0  0  0  0  0
   -0.3966    7.2692    0.0000 O   0  0  0  0  0  0  0  0  0  0  0  0
   -3.8663    4.2212    0.0000 N   0  0  0  0  0  0  0  0  0  0  0  0
   -0.7348    8.0208    0.0000 C   0  0  0  0  0  0  0  0  0  0  0  0
   -6.1795    1.5741    0.0000 C   0  0  0  0  0  0  0  0  0  0  0  0
   -6.5886    2.2880    0.0000 C   0  0  0  0  0  0  0  0  0  0  0  0
   -4.7556    1.1858    0.0000 O   0  0  0  0  0  0  0  0  0  0  0  0
   -6.2171    3.7160    0.0000 O   0  0  0  0  0  0  0  0  0  0  0  0
   -3.8663    5.0396    0.0000 C   0  0  0  0  0  0  0  0  0  0  0  0
   -1.7160    5.4655    0.0000 C   0  0  0  0  0  0  0  0  0  0  0  0
   -5.3068    4.2212    0.0000 O   0  0  0  0  0  0  0  0  0  0  0  0
   -0.9979    5.8872    0.0000 C   0  0  0  0  0  0  0  0  0  0  0  0
   -3.5657    6.1670    0.0000 O   0  0  0  0  0  0  0  0  0  0  0  0
   -2.7390    4.7390    0.0000 C   0  0  0  0  0  0  0  0  0  0  0  0
  2  1  1  0  0  0  0
  3  1  1  0  0  0  0
  4  1  1  0  0  0  0
  5  9  1  0  0  0  0
  6  8  1  0  0  0  0
  7  4  1  0  0  0  0
  8 19  1  0  0  0  0
  9  6  2  0  0  0  0
 10 22  1  0  0  0  0
 11  5  1  0  0  0  0
 12 10  1  0  0  0  0
 13  7  1  0  0  0  0
 14 11  1  0  0  0  0
 15  2  1  0  0  0  0
 16  3  1  0  0  0  0
 17  2  2  0  0  0  0
 18  3  2  0  0  0  0
 19 13  1  0  0  0  0
 20  6  1  0  0  0  0
 21  7  2  0  0  0  0
 22 20  2  0  0  0  0
 23  8  1  0  0  0  0
 24  8  1  0  0  0  0
 15 16  1  0  0  0  0
  5 10  2  0  0  0  0
 14 12  1  0  0  0  0
M  END
>  <IDNUMBER>
F5857-3071

>  <Chemical_Name>
N-[2-(2H-1,3-benzodioxol-5-yl)-2-hydroxypropyl]-2-(2,5-dioxopyrrolidin-1-yl)acetamide

>  <PriceCoeff>
1.00

>  <CAS>
1396711-55-9

>  <MW>
334.32

>  <Description>
solid

>  <FSP3>
0.44

>  <clogP>
0.36

>  <TPSA>
105.17

>  <Acceptor>
6

>  <Donor>
2

>  <RotBonds>
5

>  <HAC>
24

>  <Collection>
General

>  <PPDS>
+

$$$$
F5857-3829
  Mrv2219 10102508112D          

 24 25  0  0  0  0            999 V2000
   -5.2927    2.5754    0.0000 N   0  0  0  0  0  0  0  0  0  0  0  0
   -5.3720    1.7489    0.0000 C   0  0  0  0  0  0  0  0  0  0  0  0
   -6.0399    2.9051    0.0000 C   0  0  0  0  0  0  0  0  0  0  0  0
   -4.5789    2.9928    0.0000 C   0  0  0  0  0  0  0  0  0  0  0  0
   -4.5789    3.8067    0.0000 C   0  0  0  0  0  0  0  0  0  0  0  0
   -3.8651    4.2200    0.0000 N   0  0  0  0  0  0  0  0  0  0  0  0
   -6.1776    1.5736    0.0000 C   0  0  0  0  0  0  0  0  0  0  0  0
   -6.5867    2.2874    0.0000 C   0  0  0  0  0  0  0  0  0  0  0  0
   -4.7542    1.1854    0.0000 O   0  0  0  0  0  0  0  0  0  0  0  0
   -6.2152    3.7149    0.0000 O   0  0  0  0  0  0  0  0  0  0  0  0
   -3.1514    5.4597    0.0000 C   0  0  0  0  0  0  0  0  0  0  0  0
   -5.3052    4.2200    0.0000 O   0  0  0  0  0  0  0  0  0  0  0  0
   -3.8651    5.0381    0.0000 C   0  0  0  0  0  0  0  0  0  0  0  0
   -2.4168    5.8646    0.0000 C   0  0  0  0  0  0  0  0  0  0  0  0
   -2.4126    6.7036    0.0000 C   0  0  0  0  0  0  0  0  0  0  0  0
   -2.4126    8.3440    0.0000 C   0  0  0  0  0  0  0  0  0  0  0  0
   -3.5688    6.1860    0.0000 O   0  0  0  0  0  0  0  0  0  0  0  0
   -3.1305    7.1168    0.0000 C   0  0  0  0  0  0  0  0  0  0  0  0
   -1.7030    7.1043    0.0000 C   0  0  0  0  0  0  0  0  0  0  0  0
   -1.6988    7.9182    0.0000 C   0  0  0  0  0  0  0  0  0  0  0  0
   -3.1263    7.9391    0.0000 C   0  0  0  0  0  0  0  0  0  0  0  0
   -2.4126    9.1788    0.0000 O   0  0  0  0  0  0  0  0  0  0  0  0
   -2.7298    4.7376    0.0000 C   0  0  0  0  0  0  0  0  0  0  0  0
   -1.6863    9.5837    0.0000 C   0  0  0  0  0  0  0  0  0  0  0  0
  2  1  1  0  0  0  0
  3  1  1  0  0  0  0
  4  1  1  0  0  0  0
  5  4  1  0  0  0  0
  6  5  1  0  0  0  0
  7  2  1  0  0  0  0
  8  3  1  0  0  0  0
  9  2  2  0  0  0  0
 10  3  2  0  0  0  0
 11 13  1  0  0  0  0
 12  5  2  0  0  0  0
 13  6  1  0  0  0  0
 14 11  1  0  0  0  0
 15 14  1  0  0  0  0
 16 20  1  0  0  0  0
 17 11  1  0  0  0  0
 18 15  2  0  0  0  0
 19 15  1  0  0  0  0
 20 19  2  0  0  0  0
 21 18  1  0  0  0  0
 22 16  1  0  0  0  0
 23 11  1  0  0  0  0
 24 22  1  0  0  0  0
  7  8  1  0  0  0  0
 21 16  2  0  0  0  0
M  END
>  <IDNUMBER>
F5857-3829

>  <Chemical_Name>
2-(2,5-dioxopyrrolidin-1-yl)-N-[2-hydroxy-3-(4-methoxyphenyl)-2-methylpropyl]acetamide

>  <PriceCoeff>
1.00

>  <CAS>
1396853-26-1

>  <MW>
334.37

>  <Description>
solid

>  <FSP3>
0.47

>  <clogP>
0.62

>  <TPSA>
95.94

>  <Acceptor>
5

>  <Donor>
2

>  <RotBonds>
7

>  <HAC>
24

>  <Collection>
General

>  <PPDS>
+

$$$$
F5857-4208
  Mrv2219 10102508112D          

 23 24  0  0  0  0            999 V2000
   -5.2927    2.5754    0.0000 N   0  0  0  0  0  0  0  0  0  0  0  0
   -5.3720    1.7489    0.0000 C   0  0  0  0  0  0  0  0  0  0  0  0
   -6.0399    2.9051    0.0000 C   0  0  0  0  0  0  0  0  0  0  0  0
   -4.5789    2.9928    0.0000 C   0  0  0  0  0  0  0  0  0  0  0  0
   -4.5789    3.8067    0.0000 C   0  0  0  0  0  0  0  0  0  0  0  0
   -3.8651    4.2200    0.0000 N   0  0  0  0  0  0  0  0  0  0  0  0
   -6.1776    1.5736    0.0000 C   0  0  0  0  0  0  0  0  0  0  0  0
   -6.5867    2.2874    0.0000 C   0  0  0  0  0  0  0  0  0  0  0  0
   -4.7542    1.1854    0.0000 O   0  0  0  0  0  0  0  0  0  0  0  0
   -6.2152    3.7149    0.0000 O   0  0  0  0  0  0  0  0  0  0  0  0
   -5.3052    4.2200    0.0000 O   0  0  0  0  0  0  0  0  0  0  0  0
   -3.1556    5.4639    0.0000 C   0  0  0  0  0  0  0  0  0  0  0  0
   -3.8651    5.0381    0.0000 C   0  0  0  0  0  0  0  0  0  0  0  0
   -2.4293    5.8854    0.0000 C   0  0  0  0  0  0  0  0  0  0  0  0
   -3.5813    6.1776    0.0000 O   0  0  0  0  0  0  0  0  0  0  0  0
   -2.4376    6.7036    0.0000 C   0  0  0  0  0  0  0  0  0  0  0  0
   -1.7364    7.1251    0.0000 C   0  0  0  0  0  0  0  0  0  0  0  0
   -2.7381    4.7376    0.0000 C   0  0  0  0  0  0  0  0  0  0  0  0
   -1.7489    7.9558    0.0000 C   0  0  0  0  0  0  0  0  0  0  0  0
   -1.0143    6.7286    0.0000 C   0  0  0  0  0  0  0  0  0  0  0  0
   -0.3088    7.1669    0.0000 C   0  0  0  0  0  0  0  0  0  0  0  0
   -1.0351    8.3899    0.0000 C   0  0  0  0  0  0  0  0  0  0  0  0
   -0.3131    7.9934    0.0000 C   0  0  0  0  0  0  0  0  0  0  0  0
  2  1  1  0  0  0  0
  3  1  1  0  0  0  0
  4  1  1  0  0  0  0
  5  4  1  0  0  0  0
  6  5  1  0  0  0  0
  7  2  1  0  0  0  0
  8  3  1  0  0  0  0
  9  2  2  0  0  0  0
 10  3  2  0  0  0  0
 11  5  2  0  0  0  0
 12 13  1  0  0  0  0
 13  6  1  0  0  0  0
 14 12  1  0  0  0  0
 15 12  1  0  0  0  0
 16 14  1  0  0  0  0
 17 16  1  0  0  0  0
 18 12  1  0  0  0  0
 19 17  2  0  0  0  0
 20 17  1  0  0  0  0
 21 20  2  0  0  0  0
 22 19  1  0  0  0  0
 23 21  1  0  0  0  0
  7  8  1  0  0  0  0
 23 22  2  0  0  0  0
M  END
>  <IDNUMBER>
F5857-4208

>  <Chemical_Name>
2-(2,5-dioxopyrrolidin-1-yl)-N-(2-hydroxy-2-methyl-4-phenylbutyl)acetamide

>  <PriceCoeff>
1.00

>  <CAS>
1286714-31-5

>  <MW>
318.37

>  <Description>
solid

>  <FSP3>
0.47

>  <clogP>
1.08

>  <TPSA>
86.71

>  <Acceptor>
4

>  <Donor>
2

>  <RotBonds>
7

>  <HAC>
23

>  <Collection>
General

>  <PPDS>
+

$$$$
F5857-5345
  Mrv2219 10102508112D          

 22 24  0  0  0  0            999 V2000
   -5.2927    2.5754    0.0000 N   0  0  0  0  0  0  0  0  0  0  0  0
   -5.3720    1.7489    0.0000 C   0  0  0  0  0  0  0  0  0  0  0  0
   -6.0399    2.9051    0.0000 C   0  0  0  0  0  0  0  0  0  0  0  0
   -3.1514    5.4514    0.0000 C   0  0  0  0  0  0  0  0  0  0  0  0
   -4.5789    2.9928    0.0000 C   0  0  0  0  0  0  0  0  0  0  0  0
   -2.4794    5.9397    0.0000 C   0  0  0  0  0  0  0  0  0  0  0  0
   -4.5789    3.8067    0.0000 C   0  0  0  0  0  0  0  0  0  0  0  0
   -3.8651    4.2200    0.0000 N   0  0  0  0  0  0  0  0  0  0  0  0
   -2.7381    6.7286    0.0000 C   0  0  0  0  0  0  0  0  0  0  0  0
   -6.1776    1.5736    0.0000 C   0  0  0  0  0  0  0  0  0  0  0  0
   -6.5867    2.2874    0.0000 C   0  0  0  0  0  0  0  0  0  0  0  0
   -3.8651    5.0506    0.0000 C   0  0  0  0  0  0  0  0  0  0  0  0
   -4.7542    1.1854    0.0000 O   0  0  0  0  0  0  0  0  0  0  0  0
   -6.2152    3.7149    0.0000 O   0  0  0  0  0  0  0  0  0  0  0  0
   -3.8276    5.9480    0.0000 C   0  0  0  0  0  0  0  0  0  0  0  0
   -5.3052    4.2200    0.0000 O   0  0  0  0  0  0  0  0  0  0  0  0
   -3.5646    6.7286    0.0000 C   0  0  0  0  0  0  0  0  0  0  0  0
   -2.4501    5.0506    0.0000 O   0  0  0  0  0  0  0  0  0  0  0  0
   -1.6738    5.7644    0.0000 C   0  0  0  0  0  0  0  0  0  0  0  0
   -2.1747    7.3422    0.0000 C   0  0  0  0  0  0  0  0  0  0  0  0
   -1.1145    6.3780    0.0000 C   0  0  0  0  0  0  0  0  0  0  0  0
   -1.3732    7.1669    0.0000 C   0  0  0  0  0  0  0  0  0  0  0  0
  2  1  1  0  0  0  0
  3  1  1  0  0  0  0
  4 12  1  0  0  0  0
  5  1  1  0  0  0  0
  6  4  1  0  0  0  0
  7  5  1  0  0  0  0
  8  7  1  0  0  0  0
  9  6  1  0  0  0  0
 10  2  1  0  0  0  0
 11  3  1  0  0  0  0
 12  8  1  0  0  0  0
 13  2  2  0  0  0  0
 14  3  2  0  0  0  0
 15  4  1  0  0  0  0
 16  7  2  0  0  0  0
 17 15  1  0  0  0  0
 18  4  1  0  0  0  0
 19  6  2  0  0  0  0
 20  9  2  0  0  0  0
 21 19  1  0  0  0  0
 22 21  2  0  0  0  0
 10 11  1  0  0  0  0
  9 17  1  0  0  0  0
 20 22  1  0  0  0  0
M  END
>  <IDNUMBER>
F5857-5345

>  <Chemical_Name>
2-(2,5-dioxopyrrolidin-1-yl)-N-[(1-hydroxy-2,3-dihydro-1H-inden-1-yl)methyl]acetamide

>  <PriceCoeff>
1.00

>  <MW>
302.33

>  <Description>
solid

>  <FSP3>
0.44

>  <clogP>
0.62

>  <TPSA>
86.71

>  <Acceptor>
4

>  <Donor>
2

>  <RotBonds>
4

>  <HAC>
22

>  <Collection>
General

$$$$
F5860-4145
  Mrv2219 10102508112D          

 25 28  0  0  0  0            999 V2000
    3.8292   -5.5375    0.0000 N   0  0  0  0  0  0  0  0  0  0  0  0
    7.3167   -4.1917    0.0000 C   0  0  0  0  0  0  0  0  0  0  0  0
    3.0667   -5.8625    0.0000 C   0  0  0  0  0  0  0  0  0  0  0  0
    3.7500   -4.7125    0.0000 C   0  0  0  0  0  0  0  0  0  0  0  0
    6.6875   -5.5542    0.0000 C   0  0  0  0  0  0  0  0  0  0  0  0
    7.0792   -3.4125    0.0000 C   0  0  0  0  0  0  0  0  0  0  0  0
    5.2667   -5.5417    0.0000 C   0  0  0  0  0  0  0  0  0  0  0  0
    6.6417   -4.7292    0.0000 C   0  0  0  0  0  0  0  0  0  0  0  0
    4.5417   -5.9542    0.0000 C   0  0  0  0  0  0  0  0  0  0  0  0
    5.9792   -5.9542    0.0000 N   0  0  0  0  0  0  0  0  0  0  0  0
    7.8542   -4.8167    0.0000 C   0  0  0  0  0  0  0  0  0  0  0  0
    8.1167   -4.3792    0.0000 C   0  0  0  0  0  0  0  0  0  0  0  0
    8.0042   -5.6292    0.0000 C   0  0  0  0  0  0  0  0  0  0  0  0
    8.3625   -5.1667    0.0000 C   0  0  0  0  0  0  0  0  0  0  0  0
    2.5250   -5.2375    0.0000 C   0  0  0  0  0  0  0  0  0  0  0  0
    2.9417   -4.5292    0.0000 C   0  0  0  0  0  0  0  0  0  0  0  0
    7.4750   -5.7667    0.0000 C   0  0  0  0  0  0  0  0  0  0  0  0
    7.3167   -6.0667    0.0000 C   0  0  0  0  0  0  0  0  0  0  0  0
    2.8917   -6.6792    0.0000 O   0  0  0  0  0  0  0  0  0  0  0  0
    4.3667   -4.1542    0.0000 O   0  0  0  0  0  0  0  0  0  0  0  0
    6.2792   -3.2292    0.0000 O   0  0  0  0  0  0  0  0  0  0  0  0
    5.2667   -4.7125    0.0000 O   0  0  0  0  0  0  0  0  0  0  0  0
    8.8292   -5.7250    0.0000 C   0  0  0  0  0  0  0  0  0  0  0  0
    7.6292   -2.8167    0.0000 O   0  0  0  0  0  0  0  0  0  0  0  0
    8.4292   -2.9917    0.0000 C   0  0  0  0  0  0  0  0  0  0  0  0
  2  8  1  0  0  0  0
  3  1  1  0  0  0  0
  4  1  1  0  0  0  0
  5 10  1  0  0  0  0
  6  2  1  0  0  0  0
  7  9  1  0  0  0  0
  8  5  1  0  0  0  0
  9  1  1  0  0  0  0
 10  7  1  0  0  0  0
 11 13  1  0  0  0  0
 12 14  1  0  0  0  0
 13 18  1  0  0  0  0
 14 17  1  0  0  0  0
 15  3  1  0  0  0  0
 16  4  1  0  0  0  0
 17  5  1  0  0  0  0
 18  5  1  0  0  0  0
 19  3  2  0  0  0  0
 20  4  2  0  0  0  0
 21  6  2  0  0  0  0
 22  7  2  0  0  0  0
 23 13  1  0  0  0  0
 24  6  1  0  0  0  0
 25 24  1  0  0  0  0
 16 15  1  0  0  0  0
 14 23  1  0  0  0  0
 11  2  1  0  0  0  0
 12  2  1  0  0  0  0
M  END
>  <IDNUMBER>
F5860-4145

>  <Chemical_Name>
methyl 3-[2-(2,5-dioxopyrrolidin-1-yl)acetamido]adamantane-1-carboxylate

>  <PriceCoeff>
1.00

>  <CAS>
1207023-16-2

>  <MW>
348.39

>  <Description>
solid

>  <FSP3>
0.78

>  <clogP>
1.11

>  <TPSA>
92.78

>  <Acceptor>
5

>  <Donor>
1

>  <RotBonds>
5

>  <HAC>
25

>  <Collection>
General

>  <PPDS>
+

$$$$
F5860-4825
  Mrv2219 10102508112D          

 27 29  0  0  0  0            999 V2000
    9.4283   -5.1480    0.0000 S   0  0  0  0  0  0  0  0  0  0  0  0
   13.1160   -5.9365    0.0000 C   0  0  0  0  0  0  0  0  0  0  0  0
    7.3465   -5.8238    0.0000 N   0  0  0  0  0  0  0  0  0  0  0  0
   10.2542   -5.1606    0.0000 N   0  0  0  0  0  0  0  0  0  0  0  0
   13.3664   -7.2506    0.0000 N   0  0  0  0  0  0  0  0  0  0  0  0
    8.6022   -5.1355    0.0000 C   0  0  0  0  0  0  0  0  0  0  0  0
   14.0923   -6.8584    0.0000 O   0  0  0  0  0  0  0  0  0  0  0  0
   13.9421   -6.0449    0.0000 C   0  0  0  0  0  0  0  0  0  0  0  0
    6.9460   -5.1063    0.0000 C   0  0  0  0  0  0  0  0  0  0  0  0
    6.9127   -6.5247    0.0000 C   0  0  0  0  0  0  0  0  0  0  0  0
   12.7656   -6.6832    0.0000 C   0  0  0  0  0  0  0  0  0  0  0  0
    8.1767   -5.8446    0.0000 C   0  0  0  0  0  0  0  0  0  0  0  0
   12.7198   -5.2106    0.0000 C   0  0  0  0  0  0  0  0  0  0  0  0
   11.8937   -5.1939    0.0000 N   0  0  0  0  0  0  0  0  0  0  0  0
   10.6548   -5.8739    0.0000 C   0  0  0  0  0  0  0  0  0  0  0  0
   10.6798   -4.4471    0.0000 C   0  0  0  0  0  0  0  0  0  0  0  0
    9.4158   -5.9740    0.0000 O   0  0  0  0  0  0  0  0  0  0  0  0
    9.4491   -4.3220    0.0000 O   0  0  0  0  0  0  0  0  0  0  0  0
    7.3131   -7.2506    0.0000 O   0  0  0  0  0  0  0  0  0  0  0  0
    7.3715   -4.3846    0.0000 O   0  0  0  0  0  0  0  0  0  0  0  0
   11.4682   -5.8989    0.0000 C   0  0  0  0  0  0  0  0  0  0  0  0
   11.5058   -4.4680    0.0000 C   0  0  0  0  0  0  0  0  0  0  0  0
    6.1242   -5.0855    0.0000 C   0  0  0  0  0  0  0  0  0  0  0  0
    6.0866   -6.5122    0.0000 C   0  0  0  0  0  0  0  0  0  0  0  0
   14.5053   -5.4484    0.0000 C   0  0  0  0  0  0  0  0  0  0  0  0
    5.6945   -5.7863    0.0000 C   0  0  0  0  0  0  0  0  0  0  0  0
   11.9564   -6.8334    0.0000 C   0  0  0  0  0  0  0  0  0  0  0  0
  2 13  1  0  0  0  0
  3 12  1  0  0  0  0
  4  1  1  0  0  0  0
  5 11  2  0  0  0  0
  6  1  1  0  0  0  0
  7  8  1  0  0  0  0
  8  2  2  0  0  0  0
  9  3  1  0  0  0  0
 10  3  1  0  0  0  0
 11  2  1  0  0  0  0
 12  6  1  0  0  0  0
 13 14  1  0  0  0  0
 14 22  1  0  0  0  0
 15  4  1  0  0  0  0
 16  4  1  0  0  0  0
 17  1  2  0  0  0  0
 18  1  2  0  0  0  0
 19 10  2  0  0  0  0
 20  9  2  0  0  0  0
 21 15  1  0  0  0  0
 22 16  1  0  0  0  0
 23  9  1  0  0  0  0
 24 10  1  0  0  0  0
 25  8  1  0  0  0  0
 26 24  1  0  0  0  0
 27 11  1  0  0  0  0
 21 14  1  0  0  0  0
 26 23  1  0  0  0  0
  5  7  1  0  0  0  0
M  END
>  <IDNUMBER>
F5860-4825

>  <Chemical_Name>
1-[2-({4-[(3,5-dimethyl-1,2-oxazol-4-yl)methyl]piperazin-1-yl}sulfonyl)ethyl]piperidine-2,6-dione

>  <PriceCoeff>
1.00

>  <CAS>
1207009-02-6

>  <MW>
398.48

>  <Description>
solid

>  <FSP3>
0.71

>  <clogP>
0.83

>  <TPSA>
112.41

>  <Acceptor>
7

>  <Donor>
1

>  <RotBonds>
6

>  <HAC>
27

>  <Collection>
General

>  <PPDS>
+

$$$$
F5860-4860
  Mrv2219 10102508112D          

 29 31  0  0  0  0            999 V2000
    9.4283   -5.1480    0.0000 S   0  0  0  0  0  0  0  0  0  0  0  0
    7.3465   -5.8238    0.0000 N   0  0  0  0  0  0  0  0  0  0  0  0
    6.9460   -5.1063    0.0000 C   0  0  0  0  0  0  0  0  0  0  0  0
    6.9127   -6.5247    0.0000 C   0  0  0  0  0  0  0  0  0  0  0  0
    8.6022   -5.1355    0.0000 C   0  0  0  0  0  0  0  0  0  0  0  0
    8.1767   -5.8446    0.0000 C   0  0  0  0  0  0  0  0  0  0  0  0
   10.2542   -5.1689    0.0000 N   0  0  0  0  0  0  0  0  0  0  0  0
    9.4491   -4.3220    0.0000 O   0  0  0  0  0  0  0  0  0  0  0  0
    9.4158   -5.9740    0.0000 O   0  0  0  0  0  0  0  0  0  0  0  0
    7.3715   -4.3846    0.0000 O   0  0  0  0  0  0  0  0  0  0  0  0
    7.3131   -7.2506    0.0000 O   0  0  0  0  0  0  0  0  0  0  0  0
   13.1160   -5.9365    0.0000 O   0  0  0  0  0  0  0  0  0  0  0  0
   12.7198   -5.2106    0.0000 C   0  0  0  0  0  0  0  0  0  0  0  0
   13.9421   -5.9573    0.0000 C   0  0  0  0  0  0  0  0  0  0  0  0
   11.9020   -5.1981    0.0000 C   0  0  0  0  0  0  0  0  0  0  0  0
   10.6798   -4.4596    0.0000 C   0  0  0  0  0  0  0  0  0  0  0  0
   15.5858   -5.9948    0.0000 C   0  0  0  0  0  0  0  0  0  0  0  0
   11.5016   -4.4805    0.0000 C   0  0  0  0  0  0  0  0  0  0  0  0
   16.4119   -6.0115    0.0000 F   0  0  0  0  0  0  0  0  0  0  0  0
   14.3676   -5.2565    0.0000 C   0  0  0  0  0  0  0  0  0  0  0  0
   14.3343   -6.6749    0.0000 C   0  0  0  0  0  0  0  0  0  0  0  0
   15.1603   -6.6999    0.0000 C   0  0  0  0  0  0  0  0  0  0  0  0
   15.1853   -5.2690    0.0000 C   0  0  0  0  0  0  0  0  0  0  0  0
    6.0866   -6.5122    0.0000 C   0  0  0  0  0  0  0  0  0  0  0  0
    6.1242   -5.0855    0.0000 C   0  0  0  0  0  0  0  0  0  0  0  0
    5.6945   -5.7863    0.0000 C   0  0  0  0  0  0  0  0  0  0  0  0
   12.7573   -3.7839    0.0000 C   0  0  0  0  0  0  0  0  0  0  0  0
   13.1536   -4.5097    0.0000 C   0  0  0  0  0  0  0  0  0  0  0  0
   11.9313   -3.7672    0.0000 C   0  0  0  0  0  0  0  0  0  0  0  0
  2  6  1  0  0  0  0
  3  2  1  0  0  0  0
  4  2  1  0  0  0  0
  5  1  1  0  0  0  0
  6  5  1  0  0  0  0
  7  1  1  0  0  0  0
  8  1  2  0  0  0  0
  9  1  2  0  0  0  0
 10  3  2  0  0  0  0
 11  4  2  0  0  0  0
 12 13  1  0  0  0  0
 13 15  1  0  0  0  0
 14 12  1  0  0  0  0
 15 18  2  0  0  0  0
 16  7  1  0  0  0  0
 17 22  2  0  0  0  0
 18 16  1  0  0  0  0
 19 17  1  0  0  0  0
 20 14  1  0  0  0  0
 21 14  2  0  0  0  0
 22 21  1  0  0  0  0
 23 20  2  0  0  0  0
 24  4  1  0  0  0  0
 25  3  1  0  0  0  0
 26 24  1  0  0  0  0
 27 29  2  0  0  0  0
 28 27  1  0  0  0  0
 29 18  1  0  0  0  0
 13 28  2  0  0  0  0
 26 25  1  0  0  0  0
 23 17  1  0  0  0  0
M  END
>  <IDNUMBER>
F5860-4860

>  <Chemical_Name>
2-(2,6-dioxopiperidin-1-yl)-N-{[3-(4-fluorophenoxy)phenyl]methyl}ethane-1-sulfonamide

>  <PriceCoeff>
1.00

>  <CAS>
1207011-92-4

>  <MW>
420.45

>  <Description>
solid

>  <FSP3>
0.30

>  <clogP>
3.43

>  <TPSA>
101.16

>  <Acceptor>
5

>  <Donor>
1

>  <RotBonds>
8

>  <HAC>
29

>  <Collection>
General

$$$$
F5870-0404
  Mrv2219 10102508112D          

 26 28  0  0  0  0            999 V2000
   -5.2834    2.5523    0.0000 N   0  0  0  0  0  0  0  0  0  0  0  0
   -5.3583    1.7293    0.0000 C   0  0  0  0  0  0  0  0  0  0  0  0
   -6.0151    2.8890    0.0000 C   0  0  0  0  0  0  0  0  0  0  0  0
   -4.5726    2.9763    0.0000 C   0  0  0  0  0  0  0  0  0  0  0  0
   -3.1385    5.4415    0.0000 C   0  0  0  0  0  0  0  0  0  0  0  0
   -4.5726    3.7911    0.0000 C   0  0  0  0  0  0  0  0  0  0  0  0
   -2.4276    5.0299    0.0000 C   0  0  0  0  0  0  0  0  0  0  0  0
   -3.8535    4.2027    0.0000 N   0  0  0  0  0  0  0  0  0  0  0  0
   -6.1523    1.5547    0.0000 C   0  0  0  0  0  0  0  0  0  0  0  0
   -6.5721    2.2697    0.0000 C   0  0  0  0  0  0  0  0  0  0  0  0
   -4.7472    1.1681    0.0000 O   0  0  0  0  0  0  0  0  0  0  0  0
   -6.1980    3.6996    0.0000 O   0  0  0  0  0  0  0  0  0  0  0  0
   -3.8535    5.0299    0.0000 C   0  0  0  0  0  0  0  0  0  0  0  0
   -1.7168    5.4415    0.0000 C   0  0  0  0  0  0  0  0  0  0  0  0
   -5.2876    4.2027    0.0000 O   0  0  0  0  0  0  0  0  0  0  0  0
   -3.1385    7.1084    0.0000 O   0  0  0  0  0  0  0  0  0  0  0  0
   -1.7210    6.2770    0.0000 O   0  0  0  0  0  0  0  0  0  0  0  0
   -2.4276    5.8655    0.0000 C   0  0  0  0  0  0  0  0  0  0  0  0
   -3.8535    5.8655    0.0000 C   0  0  0  0  0  0  0  0  0  0  0  0
   -2.4276    4.2069    0.0000 C   0  0  0  0  0  0  0  0  0  0  0  0
   -2.4276    6.6885    0.0000 C   0  0  0  0  0  0  0  0  0  0  0  0
   -3.8535    6.6885    0.0000 C   0  0  0  0  0  0  0  0  0  0  0  0
   -1.0059    5.0424    0.0000 C   0  0  0  0  0  0  0  0  0  0  0  0
   -1.0059    6.6968    0.0000 C   0  0  0  0  0  0  0  0  0  0  0  0
   -1.7085    3.7994    0.0000 C   0  0  0  0  0  0  0  0  0  0  0  0
   -0.9935    4.2069    0.0000 C   0  0  0  0  0  0  0  0  0  0  0  0
  2  1  1  0  0  0  0
  3  1  1  0  0  0  0
  4  1  1  0  0  0  0
  5 13  1  0  0  0  0
  6  4  1  0  0  0  0
  7  5  1  0  0  0  0
  8  6  1  0  0  0  0
  9  2  1  0  0  0  0
 10  3  1  0  0  0  0
 11  2  2  0  0  0  0
 12  3  2  0  0  0  0
 13  8  1  0  0  0  0
 14  7  1  0  0  0  0
 15  6  2  0  0  0  0
 16 22  1  0  0  0  0
 17 14  1  0  0  0  0
 18  5  1  0  0  0  0
 19  5  1  0  0  0  0
 20  7  2  0  0  0  0
 21 18  1  0  0  0  0
 22 19  1  0  0  0  0
 23 14  2  0  0  0  0
 24 17  1  0  0  0  0
 25 20  1  0  0  0  0
 26 25  2  0  0  0  0
  9 10  1  0  0  0  0
 21 16  1  0  0  0  0
 26 23  1  0  0  0  0
M  END
>  <IDNUMBER>
F5870-0404

>  <Chemical_Name>
2-(2,5-dioxopyrrolidin-1-yl)-N-{[4-(2-methoxyphenyl)oxan-4-yl]methyl}acetamide

>  <PriceCoeff>
1.00

>  <CAS>
1207030-19-0

>  <MW>
360.40

>  <Description>
solid

>  <FSP3>
0.53

>  <clogP>
0.48

>  <TPSA>
84.94

>  <Acceptor>
5

>  <Donor>
1

>  <RotBonds>
6

>  <HAC>
26

>  <Collection>
General

>  <PPDS>
+

$$$$
F5871-4512
  Mrv2219 10102508112D          

 29 31  0  0  0  0            999 V2000
    7.3629   -5.8368    0.0000 N   0  0  0  0  0  0  0  0  0  0  0  0
    9.4492   -5.1595    0.0000 S   0  0  0  0  0  0  0  0  0  0  0  0
    9.8255   -0.6188    0.0000 C   0  0  0  0  0  0  0  0  0  0  0  0
    9.7753   -1.4425    0.0000 N   0  0  0  0  0  0  0  0  0  0  0  0
    6.9615   -5.1176    0.0000 C   0  0  0  0  0  0  0  0  0  0  0  0
    6.9281   -6.5392    0.0000 C   0  0  0  0  0  0  0  0  0  0  0  0
   10.5530   -0.2509    0.0000 C   0  0  0  0  0  0  0  0  0  0  0  0
    8.6214   -5.1469    0.0000 C   0  0  0  0  0  0  0  0  0  0  0  0
    8.1949   -5.8577    0.0000 C   0  0  0  0  0  0  0  0  0  0  0  0
   11.2931   -0.6271    0.0000 S   0  0  0  0  0  0  0  0  0  0  0  0
    9.6750   -3.0856    0.0000 N   0  0  0  0  0  0  0  0  0  0  0  0
    9.4701   -4.3316    0.0000 O   0  0  0  0  0  0  0  0  0  0  0  0
    9.4366   -5.9873    0.0000 O   0  0  0  0  0  0  0  0  0  0  0  0
   10.2771   -5.1804    0.0000 N   0  0  0  0  0  0  0  0  0  0  0  0
    9.1357   -0.1673    0.0000 O   0  0  0  0  0  0  0  0  0  0  0  0
   10.6910    0.5644    0.0000 C   0  0  0  0  0  0  0  0  0  0  0  0
   10.4610   -1.8982    0.0000 C   0  0  0  0  0  0  0  0  0  0  0  0
    9.0353   -1.8104    0.0000 C   0  0  0  0  0  0  0  0  0  0  0  0
    7.3295   -7.2668    0.0000 O   0  0  0  0  0  0  0  0  0  0  0  0
    7.3880   -4.3944    0.0000 O   0  0  0  0  0  0  0  0  0  0  0  0
   11.8784   -0.0418    0.0000 C   0  0  0  0  0  0  0  0  0  0  0  0
   11.5063    0.6898    0.0000 C   0  0  0  0  0  0  0  0  0  0  0  0
   10.3231   -4.3567    0.0000 C   0  0  0  0  0  0  0  0  0  0  0  0
    8.9851   -2.6382    0.0000 C   0  0  0  0  0  0  0  0  0  0  0  0
   10.4150   -2.7135    0.0000 C   0  0  0  0  0  0  0  0  0  0  0  0
    9.6331   -3.9051    0.0000 C   0  0  0  0  0  0  0  0  0  0  0  0
    6.1379   -5.0968    0.0000 C   0  0  0  0  0  0  0  0  0  0  0  0
    6.1002   -6.5266    0.0000 C   0  0  0  0  0  0  0  0  0  0  0  0
    5.7071   -5.7992    0.0000 C   0  0  0  0  0  0  0  0  0  0  0  0
  2  8  1  0  0  0  0
  3  4  1  0  0  0  0
  4 17  1  0  0  0  0
  5  1  1  0  0  0  0
  6  1  1  0  0  0  0
  7  3  1  0  0  0  0
  8  9  1  0  0  0  0
  9  1  1  0  0  0  0
 10  7  1  0  0  0  0
 11 26  1  0  0  0  0
 12  2  2  0  0  0  0
 13  2  2  0  0  0  0
 14  2  1  0  0  0  0
 15  3  2  0  0  0  0
 16  7  2  0  0  0  0
 17 25  1  0  0  0  0
 18 24  1  0  0  0  0
 19  6  2  0  0  0  0
 20  5  2  0  0  0  0
 21 10  1  0  0  0  0
 22 16  1  0  0  0  0
 23 14  1  0  0  0  0
 24 11  1  0  0  0  0
 25 11  1  0  0  0  0
 26 23  1  0  0  0  0
 27  5  1  0  0  0  0
 28  6  1  0  0  0  0
 29 28  1  0  0  0  0
 29 27  1  0  0  0  0
 18  4  1  0  0  0  0
 22 21  2  0  0  0  0
M  END
>  <IDNUMBER>
F5871-4512

>  <Chemical_Name>
2-(2,6-dioxopiperidin-1-yl)-N-{2-[4-(thiophene-2-carbonyl)piperazin-1-yl]ethyl}ethane-1-sulfonamide

>  <PriceCoeff>
1.00

>  <CAS>
1207003-07-3

>  <MW>
442.55

>  <Description>
solid

>  <FSP3>
0.61

>  <clogP>
1.03

>  <TPSA>
143.72

>  <Acceptor>
6

>  <Donor>
2

>  <RotBonds>
9

>  <HAC>
29

>  <Collection>
General

>  <PPDS>
+

$$$$
F5871-4548
  Mrv2219 10102508112D          

 29 31  0  0  0  0            999 V2000
    7.3497   -5.8263    0.0000 N   0  0  0  0  0  0  0  0  0  0  0  0
    9.4323   -5.1502    0.0000 S   0  0  0  0  0  0  0  0  0  0  0  0
    9.8079   -0.6177    0.0000 C   0  0  0  0  0  0  0  0  0  0  0  0
   10.5341   -0.2504    0.0000 C   0  0  0  0  0  0  0  0  0  0  0  0
    9.7578   -1.4399    0.0000 N   0  0  0  0  0  0  0  0  0  0  0  0
    6.9156   -6.5275    0.0000 C   0  0  0  0  0  0  0  0  0  0  0  0
    6.9490   -5.1085    0.0000 C   0  0  0  0  0  0  0  0  0  0  0  0
    8.6059   -5.1377    0.0000 C   0  0  0  0  0  0  0  0  0  0  0  0
    8.1802   -5.8472    0.0000 C   0  0  0  0  0  0  0  0  0  0  0  0
    9.6577   -3.0801    0.0000 N   0  0  0  0  0  0  0  0  0  0  0  0
   11.8571   -0.0418    0.0000 S   0  0  0  0  0  0  0  0  0  0  0  0
   11.2728   -0.6260    0.0000 C   0  0  0  0  0  0  0  0  0  0  0  0
    9.4198   -5.9766    0.0000 O   0  0  0  0  0  0  0  0  0  0  0  0
    9.4531   -4.3239    0.0000 O   0  0  0  0  0  0  0  0  0  0  0  0
   10.2587   -5.1711    0.0000 N   0  0  0  0  0  0  0  0  0  0  0  0
   10.6719    0.5634    0.0000 C   0  0  0  0  0  0  0  0  0  0  0  0
    9.1193   -0.1670    0.0000 O   0  0  0  0  0  0  0  0  0  0  0  0
    9.0191   -1.8072    0.0000 C   0  0  0  0  0  0  0  0  0  0  0  0
   10.4423   -1.8948    0.0000 C   0  0  0  0  0  0  0  0  0  0  0  0
   11.4857    0.6886    0.0000 C   0  0  0  0  0  0  0  0  0  0  0  0
    7.3163   -7.2537    0.0000 O   0  0  0  0  0  0  0  0  0  0  0  0
    7.3747   -4.3865    0.0000 O   0  0  0  0  0  0  0  0  0  0  0  0
   10.3045   -4.3489    0.0000 C   0  0  0  0  0  0  0  0  0  0  0  0
    8.9690   -2.6336    0.0000 C   0  0  0  0  0  0  0  0  0  0  0  0
   10.3964   -2.7087    0.0000 C   0  0  0  0  0  0  0  0  0  0  0  0
    9.6159   -3.8981    0.0000 C   0  0  0  0  0  0  0  0  0  0  0  0
    6.1268   -5.0876    0.0000 C   0  0  0  0  0  0  0  0  0  0  0  0
    6.0893   -6.5150    0.0000 C   0  0  0  0  0  0  0  0  0  0  0  0
    5.6969   -5.7888    0.0000 C   0  0  0  0  0  0  0  0  0  0  0  0
  2  8  1  0  0  0  0
  3  5  1  0  0  0  0
  4  3  1  0  0  0  0
  5 19  1  0  0  0  0
  6  1  1  0  0  0  0
  7  1  1  0  0  0  0
  8  9  1  0  0  0  0
  9  1  1  0  0  0  0
 10 26  1  0  0  0  0
 11 12  1  0  0  0  0
 12  4  2  0  0  0  0
 13  2  2  0  0  0  0
 14  2  2  0  0  0  0
 15  2  1  0  0  0  0
 16  4  1  0  0  0  0
 17  3  2  0  0  0  0
 18 24  1  0  0  0  0
 19 25  1  0  0  0  0
 20 16  2  0  0  0  0
 21  6  2  0  0  0  0
 22  7  2  0  0  0  0
 23 15  1  0  0  0  0
 24 10  1  0  0  0  0
 25 10  1  0  0  0  0
 26 23  1  0  0  0  0
 27  7  1  0  0  0  0
 28  6  1  0  0  0  0
 29 27  1  0  0  0  0
 28 29  1  0  0  0  0
 18  5  1  0  0  0  0
 20 11  1  0  0  0  0
M  END
>  <IDNUMBER>
F5871-4548

>  <Chemical_Name>
2-(2,6-dioxopiperidin-1-yl)-N-{2-[4-(thiophene-3-carbonyl)piperazin-1-yl]ethyl}ethane-1-sulfonamide

>  <PriceCoeff>
1.00

>  <CAS>
1251574-21-6

>  <MW>
442.55

>  <Description>
solid

>  <FSP3>
0.61

>  <clogP>
1.03

>  <TPSA>
143.72

>  <Acceptor>
6

>  <Donor>
2

>  <RotBonds>
9

>  <HAC>
29

>  <Collection>
General

>  <PPDS>
+

$$$$
F5882-0705
  Mrv2219 10102508112D          

 23 24  0  0  0  0            999 V2000
    3.8114   -5.5118    0.0000 N   0  0  0  0  0  0  0  0  0  0  0  0
    5.2422   -5.5160    0.0000 C   0  0  0  0  0  0  0  0  0  0  0  0
    4.5206   -5.9266    0.0000 C   0  0  0  0  0  0  0  0  0  0  0  0
    3.7326   -4.6906    0.0000 C   0  0  0  0  0  0  0  0  0  0  0  0
    3.0525   -5.8353    0.0000 C   0  0  0  0  0  0  0  0  0  0  0  0
    5.9514   -5.9348    0.0000 N   0  0  0  0  0  0  0  0  0  0  0  0
    8.0915   -8.0044    0.0000 C   0  0  0  0  0  0  0  0  0  0  0  0
    7.3823   -6.7602    0.0000 N   0  0  0  0  0  0  0  0  0  0  0  0
    7.6767   -9.2817    0.0000 S   0  0  0  0  0  0  0  0  0  0  0  0
    7.4279   -8.4896    0.0000 C   0  0  0  0  0  0  0  0  0  0  0  0
    5.2422   -4.6906    0.0000 O   0  0  0  0  0  0  0  0  0  0  0  0
    2.9280   -4.5082    0.0000 C   0  0  0  0  0  0  0  0  0  0  0  0
    2.5133   -5.2132    0.0000 C   0  0  0  0  0  0  0  0  0  0  0  0
    8.7633   -8.5020    0.0000 C   0  0  0  0  0  0  0  0  0  0  0  0
    2.8783   -6.6482    0.0000 O   0  0  0  0  0  0  0  0  0  0  0  0
    4.3464   -4.1349    0.0000 O   0  0  0  0  0  0  0  0  0  0  0  0
    5.9514   -6.7602    0.0000 C   0  0  0  0  0  0  0  0  0  0  0  0
    6.6731   -5.5242    0.0000 C   0  0  0  0  0  0  0  0  0  0  0  0
    8.0997   -7.1832    0.0000 C   0  0  0  0  0  0  0  0  0  0  0  0
    8.5020   -9.2859    0.0000 C   0  0  0  0  0  0  0  0  0  0  0  0
    6.6606   -7.1708    0.0000 C   0  0  0  0  0  0  0  0  0  0  0  0
    7.3905   -5.9348    0.0000 C   0  0  0  0  0  0  0  0  0  0  0  0
   10.1444   -6.7062    0.0000 Cl  0  0  0  0  0  0  0  0  0  0  0  0
  3  1  1  0  0  0  0
  4  1  1  0  0  0  0
  5  1  1  0  0  0  0
  6  2  1  0  0  0  0
  7 19  1  0  0  0  0
  8 22  1  0  0  0  0
  9 10  1  0  0  0  0
 10  7  2  0  0  0  0
 11  2  2  0  0  0  0
 12  4  1  0  0  0  0
 13  5  1  0  0  0  0
 14  7  1  0  0  0  0
 15  5  2  0  0  0  0
 16  4  2  0  0  0  0
 17  6  1  0  0  0  0
 18  6  1  0  0  0  0
 19  8  1  0  0  0  0
 20 14  2  0  0  0  0
 21 17  1  0  0  0  0
 22 18  1  0  0  0  0
 13 12  1  0  0  0  0
  8 21  1  0  0  0  0
 20  9  1  0  0  0  0
  2  3  1  0  0  0  0
M  END
>  <IDNUMBER>
F5882-0705

>  <Chemical_Name>
1-(2-oxo-2-{4-[(thiophen-3-yl)methyl]piperazin-1-yl}ethyl)pyrrolidine-2,5-dione hydrochloride

>  <PriceCoeff>
1.00

>  <CAS>
1351609-79-4

>  <MW>
321.39

>  <Description>
solid

>  <FSP3>
0.53

>  <clogP>
1.24

>  <TPSA>
89.17

>  <Acceptor>
3

>  <Donor>
1

>  <RotBonds>
5

>  <HAC>
22

>  <Collection>
General

>  <PPDS>
+

$$$$
F5882-3004
  Mrv2219 10102508112D          

 23 25  0  0  0  0            999 V2000
    7.6005   -6.4593    0.0000 C   0  0  0  0  0  0  0  0  0  0  0  0
    8.3126   -6.8633    0.0000 N   0  0  0  0  0  0  0  0  0  0  0  0
    6.8883   -6.8758    0.0000 N   0  0  0  0  0  0  0  0  0  0  0  0
   10.4740   -8.8998    0.0000 C   0  0  0  0  0  0  0  0  0  0  0  0
    9.7494   -7.6712    0.0000 N   0  0  0  0  0  0  0  0  0  0  0  0
    5.4473   -5.2474    0.0000 C   0  0  0  0  0  0  0  0  0  0  0  0
    6.1637   -5.6514    0.0000 C   0  0  0  0  0  0  0  0  0  0  0  0
   10.0742  -10.1742    0.0000 S   0  0  0  0  0  0  0  0  0  0  0  0
    6.1720   -6.4760    0.0000 C   0  0  0  0  0  0  0  0  0  0  0  0
    7.5880   -5.6347    0.0000 O   0  0  0  0  0  0  0  0  0  0  0  0
    9.8119   -9.3954    0.0000 C   0  0  0  0  0  0  0  0  0  0  0  0
    4.7352   -5.6639    0.0000 C   0  0  0  0  0  0  0  0  0  0  0  0
   11.1487   -9.3871    0.0000 C   0  0  0  0  0  0  0  0  0  0  0  0
    8.3251   -7.6837    0.0000 C   0  0  0  0  0  0  0  0  0  0  0  0
    9.0248   -6.4468    0.0000 C   0  0  0  0  0  0  0  0  0  0  0  0
   10.4698   -8.0752    0.0000 C   0  0  0  0  0  0  0  0  0  0  0  0
   10.8988  -10.1742    0.0000 C   0  0  0  0  0  0  0  0  0  0  0  0
    4.7394   -6.4885    0.0000 C   0  0  0  0  0  0  0  0  0  0  0  0
    9.0373   -8.0877    0.0000 C   0  0  0  0  0  0  0  0  0  0  0  0
    9.7494   -6.8466    0.0000 C   0  0  0  0  0  0  0  0  0  0  0  0
    5.4390   -4.4228    0.0000 Cl  0  0  0  0  0  0  0  0  0  0  0  0
    5.4598   -6.8966    0.0000 C   0  0  0  0  0  0  0  0  0  0  0  0
    4.0147   -5.2599    0.0000 Cl  0  0  0  0  0  0  0  0  0  0  0  0
  2  1  1  0  0  0  0
  3  1  1  0  0  0  0
  4 16  1  0  0  0  0
  5 20  1  0  0  0  0
  6  7  1  0  0  0  0
  7  9  2  0  0  0  0
  8 11  1  0  0  0  0
  9  3  1  0  0  0  0
 10  1  2  0  0  0  0
 11  4  2  0  0  0  0
 12 18  1  0  0  0  0
 13  4  1  0  0  0  0
 14  2  1  0  0  0  0
 15  2  1  0  0  0  0
 16  5  1  0  0  0  0
 17 13  2  0  0  0  0
 18 22  2  0  0  0  0
 19 14  1  0  0  0  0
 20 15  1  0  0  0  0
 21  6  1  0  0  0  0
 22  9  1  0  0  0  0
 23 12  1  0  0  0  0
 19  5  1  0  0  0  0
  6 12  2  0  0  0  0
  8 17  1  0  0  0  0
M  END
>  <IDNUMBER>
F5882-3004

>  <Chemical_Name>
N-(3,4-dichlorophenyl)-4-[(thiophen-3-yl)methyl]piperazine-1-carboxamide

>  <PriceCoeff>
1.00

>  <CAS>
1226444-53-6

>  <MW>
370.30

>  <Description>
solid

>  <FSP3>
0.31

>  <clogP>
4.45

>  <TPSA>
63.82

>  <Acceptor>
1

>  <Donor>
2

>  <RotBonds>
4

>  <HAC>
23

>  <Collection>
General

>  <PPDS>
+

$$$$
F5882-3200
  Mrv2219 10102508112D          

 23 25  0  0  0  0            999 V2000
    7.6042   -6.4625    0.0000 C   0  0  0  0  0  0  0  0  0  0  0  0
   10.4917   -8.0750    0.0000 N   0  0  0  0  0  0  0  0  0  0  0  0
    8.3167   -6.8667    0.0000 N   0  0  0  0  0  0  0  0  0  0  0  0
   10.5792   -8.8917    0.0000 C   0  0  0  0  0  0  0  0  0  0  0  0
    6.8917   -6.8792    0.0000 N   0  0  0  0  0  0  0  0  0  0  0  0
    9.7667   -7.6750    0.0000 C   0  0  0  0  0  0  0  0  0  0  0  0
    5.4500   -5.2500    0.0000 C   0  0  0  0  0  0  0  0  0  0  0  0
    6.1667   -5.6542    0.0000 C   0  0  0  0  0  0  0  0  0  0  0  0
    6.1750   -6.4792    0.0000 C   0  0  0  0  0  0  0  0  0  0  0  0
    9.0417   -8.0917    0.0000 C   0  0  0  0  0  0  0  0  0  0  0  0
    9.7375   -6.8542    0.0000 C   0  0  0  0  0  0  0  0  0  0  0  0
    8.3292   -7.7000    0.0000 C   0  0  0  0  0  0  0  0  0  0  0  0
    9.0167   -6.4542    0.0000 C   0  0  0  0  0  0  0  0  0  0  0  0
    7.5917   -5.6375    0.0000 O   0  0  0  0  0  0  0  0  0  0  0  0
    4.7375   -5.6667    0.0000 C   0  0  0  0  0  0  0  0  0  0  0  0
    9.9750   -9.4625    0.0000 O   0  0  0  0  0  0  0  0  0  0  0  0
    4.7417   -6.4917    0.0000 C   0  0  0  0  0  0  0  0  0  0  0  0
    5.4417   -4.4250    0.0000 Cl  0  0  0  0  0  0  0  0  0  0  0  0
    5.4625   -6.9000    0.0000 C   0  0  0  0  0  0  0  0  0  0  0  0
   11.2292   -7.7250    0.0000 C   0  0  0  0  0  0  0  0  0  0  0  0
    4.0167   -5.2625    0.0000 Cl  0  0  0  0  0  0  0  0  0  0  0  0
   11.3917   -9.0542    0.0000 C   0  0  0  0  0  0  0  0  0  0  0  0
   11.7917   -8.3375    0.0000 C   0  0  0  0  0  0  0  0  0  0  0  0
  2  6  1  0  0  0  0
  3  1  1  0  0  0  0
  4  2  1  0  0  0  0
  5  1  1  0  0  0  0
  6 11  1  0  0  0  0
  7  8  1  0  0  0  0
  8  9  2  0  0  0  0
  9  5  1  0  0  0  0
 10 12  1  0  0  0  0
 11 13  1  0  0  0  0
 12  3  1  0  0  0  0
 13  3  1  0  0  0  0
 14  1  2  0  0  0  0
 15 17  1  0  0  0  0
 16  4  2  0  0  0  0
 17 19  2  0  0  0  0
 18  7  1  0  0  0  0
 19  9  1  0  0  0  0
 20  2  1  0  0  0  0
 21 15  1  0  0  0  0
 22  4  1  0  0  0  0
 23 20  1  0  0  0  0
 10  6  1  0  0  0  0
  7 15  2  0  0  0  0
 22 23  1  0  0  0  0
M  END
>  <IDNUMBER>
F5882-3200

>  <Chemical_Name>
N-(3,4-dichlorophenyl)-4-(2-oxopyrrolidin-1-yl)piperidine-1-carboxamide

>  <PriceCoeff>
1.50

>  <CAS>
1421481-77-7

>  <MW>
356.25

>  <Description>
solid

>  <FSP3>
0.50

>  <clogP>
1.75

>  <TPSA>
52.65

>  <Acceptor>
2

>  <Donor>
1

>  <RotBonds>
3

>  <HAC>
23

>  <Collection>
Advanced

$$$$
F5882-4966
  Mrv2219 10102508112D          

 25 28  0  0  0  0            999 V2000
   10.8442   -7.0381    0.0000 N   0  0  0  0  0  0  0  0  0  0  0  0
    8.6770   -5.8276    0.0000 N   0  0  0  0  0  0  0  0  0  0  0  0
    7.9657   -5.4200    0.0000 C   0  0  0  0  0  0  0  0  0  0  0  0
   10.9315   -7.8617    0.0000 C   0  0  0  0  0  0  0  0  0  0  0  0
    7.2544   -5.8318    0.0000 C   0  0  0  0  0  0  0  0  0  0  0  0
    4.3968   -5.8568    0.0000 C   0  0  0  0  0  0  0  0  0  0  0  0
   10.1204   -6.6305    0.0000 C   0  0  0  0  0  0  0  0  0  0  0  0
    6.5306   -5.4200    0.0000 C   0  0  0  0  0  0  0  0  0  0  0  0
    4.4092   -6.6804    0.0000 C   0  0  0  0  0  0  0  0  0  0  0  0
    3.5981   -5.6072    0.0000 O   0  0  0  0  0  0  0  0  0  0  0  0
    9.4008   -7.0548    0.0000 C   0  0  0  0  0  0  0  0  0  0  0  0
   10.0954   -5.8152    0.0000 C   0  0  0  0  0  0  0  0  0  0  0  0
    3.6231   -6.9549    0.0000 O   0  0  0  0  0  0  0  0  0  0  0  0
    8.6853   -6.6554    0.0000 C   0  0  0  0  0  0  0  0  0  0  0  0
    9.3758   -5.4158    0.0000 C   0  0  0  0  0  0  0  0  0  0  0  0
    3.1239   -6.2936    0.0000 C   0  0  0  0  0  0  0  0  0  0  0  0
   10.3242   -8.4150    0.0000 O   0  0  0  0  0  0  0  0  0  0  0  0
    5.1081   -5.4325    0.0000 C   0  0  0  0  0  0  0  0  0  0  0  0
    7.9532   -4.5964    0.0000 O   0  0  0  0  0  0  0  0  0  0  0  0
    5.8194   -5.8443    0.0000 C   0  0  0  0  0  0  0  0  0  0  0  0
    5.1205   -7.0922    0.0000 C   0  0  0  0  0  0  0  0  0  0  0  0
   11.5846   -6.6929    0.0000 C   0  0  0  0  0  0  0  0  0  0  0  0
    5.8318   -6.6679    0.0000 C   0  0  0  0  0  0  0  0  0  0  0  0
   11.7426   -8.0239    0.0000 C   0  0  0  0  0  0  0  0  0  0  0  0
   12.1461   -7.3043    0.0000 C   0  0  0  0  0  0  0  0  0  0  0  0
  2 15  1  0  0  0  0
  3  2  1  0  0  0  0
  4  1  1  0  0  0  0
  5  3  1  0  0  0  0
  6 18  2  0  0  0  0
  7  1  1  0  0  0  0
  8  5  2  0  0  0  0
  9 21  2  0  0  0  0
 10  6  1  0  0  0  0
 11  7  1  0  0  0  0
 12  7  1  0  0  0  0
 13  9  1  0  0  0  0
 14 11  1  0  0  0  0
 15 12  1  0  0  0  0
 16 10  1  0  0  0  0
 17  4  2  0  0  0  0
 18 20  1  0  0  0  0
 19  3  2  0  0  0  0
 20  8  1  0  0  0  0
 21 23  1  0  0  0  0
 22  1  1  0  0  0  0
 23 20  2  0  0  0  0
 24  4  1  0  0  0  0
 25 22  1  0  0  0  0
 24 25  1  0  0  0  0
  2 14  1  0  0  0  0
  6  9  1  0  0  0  0
 16 13  1  0  0  0  0
M  END
>  <IDNUMBER>
F5882-4966

>  <Chemical_Name>
1-{1-[(2E)-3-(2H-1,3-benzodioxol-5-yl)prop-2-enoyl]piperidin-4-yl}pyrrolidin-2-one

>  <PriceCoeff>
1.00

>  <CAS>
1421586-44-8

>  <MW>
342.39

>  <Description>
solid

>  <FSP3>
0.47

>  <clogP>
1.05

>  <TPSA>
59.08

>  <Acceptor>
4

>  <Donor>
0

>  <RotBonds>
4

>  <HAC>
25

>  <Collection>
General

$$$$
F5882-5135
  Mrv2219 10102508112D          

 23 25  0  0  0  0            999 V2000
    3.8112   -5.5114    0.0000 N   0  0  0  0  0  0  0  0  0  0  0  0
    9.5963   -4.6779    0.0000 N   0  0  0  0  0  0  0  0  0  0  0  0
    8.8623   -4.2798    0.0000 C   0  0  0  0  0  0  0  0  0  0  0  0
    9.8327   -3.3633    0.0000 N   0  0  0  0  0  0  0  0  0  0  0  0
    3.0523   -5.8349    0.0000 C   0  0  0  0  0  0  0  0  0  0  0  0
    3.7323   -4.6903    0.0000 C   0  0  0  0  0  0  0  0  0  0  0  0
    9.0198   -3.4628    0.0000 O   0  0  0  0  0  0  0  0  0  0  0  0
   10.1893   -4.1056    0.0000 C   0  0  0  0  0  0  0  0  0  0  0  0
    5.2419   -5.5156    0.0000 C   0  0  0  0  0  0  0  0  0  0  0  0
    4.5203   -5.9262    0.0000 C   0  0  0  0  0  0  0  0  0  0  0  0
    8.1034   -4.6903    0.0000 C   0  0  0  0  0  0  0  0  0  0  0  0
    5.9593   -5.9386    0.0000 N   0  0  0  0  0  0  0  0  0  0  0  0
    2.5131   -5.2128    0.0000 C   0  0  0  0  0  0  0  0  0  0  0  0
    2.9279   -4.5079    0.0000 C   0  0  0  0  0  0  0  0  0  0  0  0
    2.8781   -6.6478    0.0000 O   0  0  0  0  0  0  0  0  0  0  0  0
    4.3461   -4.1346    0.0000 O   0  0  0  0  0  0  0  0  0  0  0  0
    5.2419   -4.6903    0.0000 O   0  0  0  0  0  0  0  0  0  0  0  0
    7.3818   -4.2839    0.0000 C   0  0  0  0  0  0  0  0  0  0  0  0
    8.1034   -5.5156    0.0000 C   0  0  0  0  0  0  0  0  0  0  0  0
    6.6809   -5.5239    0.0000 C   0  0  0  0  0  0  0  0  0  0  0  0
    7.3942   -5.9262    0.0000 C   0  0  0  0  0  0  0  0  0  0  0  0
    6.6685   -4.6945    0.0000 C   0  0  0  0  0  0  0  0  0  0  0  0
   11.0022   -4.2466    0.0000 C   0  0  0  0  0  0  0  0  0  0  0  0
  2  3  2  0  0  0  0
  3 11  1  0  0  0  0
  4  7  1  0  0  0  0
  5  1  1  0  0  0  0
  6  1  1  0  0  0  0
  7  3  1  0  0  0  0
  8  2  1  0  0  0  0
  9 10  1  0  0  0  0
 10  1  1  0  0  0  0
 11 18  2  0  0  0  0
 12  9  1  0  0  0  0
 13  5  1  0  0  0  0
 14  6  1  0  0  0  0
 15  5  2  0  0  0  0
 16  6  2  0  0  0  0
 17  9  2  0  0  0  0
 18 22  1  0  0  0  0
 19 21  2  0  0  0  0
 20 12  1  0  0  0  0
 21 20  1  0  0  0  0
 22 20  2  0  0  0  0
 23  8  1  0  0  0  0
 14 13  1  0  0  0  0
 19 11  1  0  0  0  0
  4  8  2  0  0  0  0
M  END
>  <IDNUMBER>
F5882-5135

>  <Chemical_Name>
2-(2,5-dioxopyrrolidin-1-yl)-N-[4-(3-methyl-1,2,4-oxadiazol-5-yl)phenyl]acetamide

>  <PriceCoeff>
1.00

>  <CAS>
1251706-39-4

>  <MW>
314.30

>  <Description>
solid

>  <FSP3>
0.27

>  <clogP>
0.55

>  <TPSA>
105.40

>  <Acceptor>
6

>  <Donor>
1

>  <RotBonds>
4

>  <HAC>
23

>  <Collection>
General

>  <PPDS>
+

$$$$
F5882-7382
  Mrv2219 10102508112D          

 25 27  0  0  0  0            999 V2000
   12.7232   -5.2119    0.0000 S   0  0  0  0  0  0  0  0  0  0  0  0
    9.4308   -5.1494    0.0000 S   0  0  0  0  0  0  0  0  0  0  0  0
    7.3485   -5.8254    0.0000 N   0  0  0  0  0  0  0  0  0  0  0  0
   11.8970   -5.1994    0.0000 N   0  0  0  0  0  0  0  0  0  0  0  0
   10.2570   -5.1619    0.0000 N   0  0  0  0  0  0  0  0  0  0  0  0
   13.5495   -5.2245    0.0000 C   0  0  0  0  0  0  0  0  0  0  0  0
    8.6046   -5.1368    0.0000 C   0  0  0  0  0  0  0  0  0  0  0  0
    6.9145   -6.5264    0.0000 C   0  0  0  0  0  0  0  0  0  0  0  0
    6.9479   -5.1076    0.0000 C   0  0  0  0  0  0  0  0  0  0  0  0
    8.1789   -5.8462    0.0000 C   0  0  0  0  0  0  0  0  0  0  0  0
   14.2587   -5.6459    0.0000 C   0  0  0  0  0  0  0  0  0  0  0  0
   14.2629   -4.8239    0.0000 C   0  0  0  0  0  0  0  0  0  0  0  0
   11.4713   -5.9005    0.0000 C   0  0  0  0  0  0  0  0  0  0  0  0
   11.5089   -4.4733    0.0000 C   0  0  0  0  0  0  0  0  0  0  0  0
   10.6534   -5.8838    0.0000 C   0  0  0  0  0  0  0  0  0  0  0  0
   10.6826   -4.4608    0.0000 C   0  0  0  0  0  0  0  0  0  0  0  0
   12.7107   -6.0382    0.0000 O   0  0  0  0  0  0  0  0  0  0  0  0
   12.7357   -4.3857    0.0000 O   0  0  0  0  0  0  0  0  0  0  0  0
    9.4183   -5.9756    0.0000 O   0  0  0  0  0  0  0  0  0  0  0  0
    9.4516   -4.3231    0.0000 O   0  0  0  0  0  0  0  0  0  0  0  0
    7.3151   -7.2525    0.0000 O   0  0  0  0  0  0  0  0  0  0  0  0
    7.3735   -4.3857    0.0000 O   0  0  0  0  0  0  0  0  0  0  0  0
    6.1259   -5.0868    0.0000 C   0  0  0  0  0  0  0  0  0  0  0  0
    6.0882   -6.5139    0.0000 C   0  0  0  0  0  0  0  0  0  0  0  0
    5.6960   -5.7878    0.0000 C   0  0  0  0  0  0  0  0  0  0  0  0
  2  5  1  0  0  0  0
  3 10  1  0  0  0  0
  4  1  1  0  0  0  0
  5 16  1  0  0  0  0
  6  1  1  0  0  0  0
  7  2  1  0  0  0  0
  8  3  1  0  0  0  0
  9  3  1  0  0  0  0
 10  7  1  0  0  0  0
 11  6  1  0  0  0  0
 12  6  1  0  0  0  0
 13  4  1  0  0  0  0
 14  4  1  0  0  0  0
 15 13  1  0  0  0  0
 16 14  1  0  0  0  0
 17  1  2  0  0  0  0
 18  1  2  0  0  0  0
 19  2  2  0  0  0  0
 20  2  2  0  0  0  0
 21  8  2  0  0  0  0
 22  9  2  0  0  0  0
 23  9  1  0  0  0  0
 24  8  1  0  0  0  0
 25 23  1  0  0  0  0
 12 11  1  0  0  0  0
 15  5  1  0  0  0  0
 24 25  1  0  0  0  0
M  END
>  <IDNUMBER>
F5882-7382

>  <Chemical_Name>
1-(2-{[4-(cyclopropanesulfonyl)piperazin-1-yl]sulfonyl}ethyl)piperidine-2,6-dione

>  <PriceCoeff>
1.00

>  <CAS>
1226431-83-9

>  <MW>
393.48

>  <Description>
solid

>  <FSP3>
0.86

>  <clogP>
0.71

>  <TPSA>
128.90

>  <Acceptor>
6

>  <Donor>
0

>  <RotBonds>
6

>  <HAC>
25

>  <Collection>
General

>  <PPDS>
+

$$$$
F5882-7419
  Mrv2219 10102508112D          

 30 32  0  0  0  0            999 V2000
    9.4256   -5.1466    0.0000 S   0  0  0  0  0  0  0  0  0  0  0  0
    7.3444   -5.8222    0.0000 N   0  0  0  0  0  0  0  0  0  0  0  0
   12.0031   -3.8161    0.0000 N   0  0  0  0  0  0  0  0  0  0  0  0
   11.5026   -4.4709    0.0000 C   0  0  0  0  0  0  0  0  0  0  0  0
   12.7788   -4.0831    0.0000 C   0  0  0  0  0  0  0  0  0  0  0  0
   12.7663   -4.9088    0.0000 N   0  0  0  0  0  0  0  0  0  0  0  0
    6.9441   -5.1048    0.0000 C   0  0  0  0  0  0  0  0  0  0  0  0
    6.9107   -6.5229    0.0000 C   0  0  0  0  0  0  0  0  0  0  0  0
   11.9780   -5.1466    0.0000 O   0  0  0  0  0  0  0  0  0  0  0  0
    8.5998   -5.1341    0.0000 C   0  0  0  0  0  0  0  0  0  0  0  0
    8.1744   -5.8430    0.0000 C   0  0  0  0  0  0  0  0  0  0  0  0
   10.2514   -5.1591    0.0000 N   0  0  0  0  0  0  0  0  0  0  0  0
   10.6768   -4.4584    0.0000 C   0  0  0  0  0  0  0  0  0  0  0  0
    9.4464   -4.3208    0.0000 O   0  0  0  0  0  0  0  0  0  0  0  0
    9.4131   -5.9724    0.0000 O   0  0  0  0  0  0  0  0  0  0  0  0
    7.3695   -4.3833    0.0000 O   0  0  0  0  0  0  0  0  0  0  0  0
    7.3111   -7.2486    0.0000 O   0  0  0  0  0  0  0  0  0  0  0  0
   13.4544   -3.6076    0.0000 C   0  0  0  0  0  0  0  0  0  0  0  0
   13.3877   -2.7943    0.0000 O   0  0  0  0  0  0  0  0  0  0  0  0
   14.0550   -2.3189    0.0000 C   0  0  0  0  0  0  0  0  0  0  0  0
   15.4063   -1.3805    0.0000 C   0  0  0  0  0  0  0  0  0  0  0  0
   14.8057   -2.6692    0.0000 C   0  0  0  0  0  0  0  0  0  0  0  0
   13.9882   -1.5056    0.0000 C   0  0  0  0  0  0  0  0  0  0  0  0
   14.6556   -1.0302    0.0000 C   0  0  0  0  0  0  0  0  0  0  0  0
   15.4813   -2.2021    0.0000 C   0  0  0  0  0  0  0  0  0  0  0  0
    6.0850   -6.5104    0.0000 C   0  0  0  0  0  0  0  0  0  0  0  0
    6.1225   -5.0840    0.0000 C   0  0  0  0  0  0  0  0  0  0  0  0
   16.0819   -0.9051    0.0000 O   0  0  0  0  0  0  0  0  0  0  0  0
    5.6929   -5.7847    0.0000 C   0  0  0  0  0  0  0  0  0  0  0  0
   16.8326   -1.2554    0.0000 C   0  0  0  0  0  0  0  0  0  0  0  0
  2 11  1  0  0  0  0
  3  4  2  0  0  0  0
  4 13  1  0  0  0  0
  5  3  1  0  0  0  0
  6  9  1  0  0  0  0
  7  2  1  0  0  0  0
  8  2  1  0  0  0  0
  9  4  1  0  0  0  0
 10  1  1  0  0  0  0
 11 10  1  0  0  0  0
 12  1  1  0  0  0  0
 13 12  1  0  0  0  0
 14  1  2  0  0  0  0
 15  1  2  0  0  0  0
 16  7  2  0  0  0  0
 17  8  2  0  0  0  0
 18  5  1  0  0  0  0
 19 18  1  0  0  0  0
 20 19  1  0  0  0  0
 21 24  1  0  0  0  0
 22 20  2  0  0  0  0
 23 20  1  0  0  0  0
 24 23  2  0  0  0  0
 25 22  1  0  0  0  0
 26  8  1  0  0  0  0
 27  7  1  0  0  0  0
 28 21  1  0  0  0  0
 29 26  1  0  0  0  0
 30 28  1  0  0  0  0
  6  5  2  0  0  0  0
 27 29  1  0  0  0  0
 25 21  2  0  0  0  0
M  END
>  <IDNUMBER>
F5882-7419

>  <Chemical_Name>
2-(2,6-dioxopiperidin-1-yl)-N-({3-[(4-methoxyphenoxy)methyl]-1,2,4-oxadiazol-5-yl}methyl)ethane-1-sulfonamide

>  <PriceCoeff>
1.00

>  <CAS>
1226457-60-8

>  <MW>
438.45

>  <Description>
solid

>  <FSP3>
0.44

>  <clogP>
0.32

>  <TPSA>
149.31

>  <Acceptor>
9

>  <Donor>
1

>  <RotBonds>
10

>  <HAC>
30

>  <Collection>
General

$$$$
F5889-0027
  Mrv2219 10102508112D          

 21 23  0  0  0  0            999 V2000
   -2.0833    0.8208    0.0000 C   0  0  0  0  0  0  0  0  0  0  0  0
   -1.3375    0.4833    0.0000 C   0  0  0  0  0  0  0  0  0  0  0  0
   -2.2375    1.6333    0.0000 C   0  0  0  0  0  0  0  0  0  0  0  0
   -2.6458    0.2000    0.0000 C   0  0  0  0  0  0  0  0  0  0  0  0
   -1.4208   -0.3375    0.0000 N   0  0  0  0  0  0  0  0  0  0  0  0
   -3.9375    2.9958    0.0000 C   0  0  0  0  0  0  0  0  0  0  0  0
   -4.0833    3.8000    0.0000 N   0  0  0  0  0  0  0  0  0  0  0  0
   -3.0125    1.9083    0.0000 N   0  0  0  0  0  0  0  0  0  0  0  0
   -2.2333   -0.5125    0.0000 C   0  0  0  0  0  0  0  0  0  0  0  0
   -3.1625    2.7208    0.0000 C   0  0  0  0  0  0  0  0  0  0  0  0
   -1.6125    2.1708    0.0000 O   0  0  0  0  0  0  0  0  0  0  0  0
   -4.5625    2.4583    0.0000 O   0  0  0  0  0  0  0  0  0  0  0  0
   -4.3833    5.4167    0.0000 O   0  0  0  0  0  0  0  0  0  0  0  0
   -3.4500    4.3250    0.0000 C   0  0  0  0  0  0  0  0  0  0  0  0
   -4.8583    4.0667    0.0000 C   0  0  0  0  0  0  0  0  0  0  0  0
   -3.4708    0.2000    0.0000 C   0  0  0  0  0  0  0  0  0  0  0  0
   -3.6000    5.1375    0.0000 C   0  0  0  0  0  0  0  0  0  0  0  0
   -5.0083    4.8792    0.0000 C   0  0  0  0  0  0  0  0  0  0  0  0
   -2.6458   -1.2292    0.0000 C   0  0  0  0  0  0  0  0  0  0  0  0
   -3.8833   -0.5125    0.0000 C   0  0  0  0  0  0  0  0  0  0  0  0
   -3.4708   -1.2292    0.0000 C   0  0  0  0  0  0  0  0  0  0  0  0
  2  1  2  0  0  0  0
  3  1  1  0  0  0  0
  4  1  1  0  0  0  0
  5  2  1  0  0  0  0
  6 10  1  0  0  0  0
  7  6  1  0  0  0  0
  8  3  1  0  0  0  0
  9  4  2  0  0  0  0
 10  8  1  0  0  0  0
 11  3  2  0  0  0  0
 12  6  2  0  0  0  0
 13 18  1  0  0  0  0
 14  7  1  0  0  0  0
 15  7  1  0  0  0  0
 16  4  1  0  0  0  0
 17 14  1  0  0  0  0
 18 15  1  0  0  0  0
 19  9  1  0  0  0  0
 20 16  2  0  0  0  0
 21 20  1  0  0  0  0
  5  9  1  0  0  0  0
 21 19  2  0  0  0  0
 17 13  1  0  0  0  0
M  END
>  <IDNUMBER>
F5889-0027

>  <Chemical_Name>
N-[2-(morpholin-4-yl)-2-oxoethyl]-1H-indole-3-carboxamide

>  <PriceCoeff>
1.50

>  <CAS>
1251576-35-8

>  <MW>
287.31

>  <Description>
solid

>  <FSP3>
0.33

>  <clogP>
0.80

>  <TPSA>
74.43

>  <Acceptor>
3

>  <Donor>
2

>  <RotBonds>
4

>  <HAC>
21

>  <Collection>
Advanced

>  <PPDS>
+

$$$$
F5893-0231
  Mrv2219 10102508112D          

 23 25  0  0  0  0            999 V2000
   -3.3779    0.0504    0.0000 N   0  0  0  0  0  0  0  0  0  0  0  0
   -3.1991   -0.7609    0.0000 C   0  0  0  0  0  0  0  0  0  0  0  0
   -2.6629    0.4629    0.0000 C   0  0  0  0  0  0  0  0  0  0  0  0
   -1.9616    2.5254    0.0000 N   0  0  0  0  0  0  0  0  0  0  0  0
   -2.6629    2.9379    0.0000 C   0  0  0  0  0  0  0  0  0  0  0  0
   -4.0837    1.2879    0.0000 C   0  0  0  0  0  0  0  0  0  0  0  0
   -3.3779    2.5254    0.0000 C   0  0  0  0  0  0  0  0  0  0  0  0
   -3.3779    1.7004    0.0000 N   0  0  0  0  0  0  0  0  0  0  0  0
   -4.0837    0.4629    0.0000 C   0  0  0  0  0  0  0  0  0  0  0  0
   -1.2375    2.9379    0.0000 C   0  0  0  0  0  0  0  0  0  0  0  0
   -2.3787   -0.8434    0.0000 C   0  0  0  0  0  0  0  0  0  0  0  0
   -2.0441   -0.0962    0.0000 C   0  0  0  0  0  0  0  0  0  0  0  0
   -3.7491   -1.3796    0.0000 O   0  0  0  0  0  0  0  0  0  0  0  0
   -2.5804    1.2879    0.0000 O   0  0  0  0  0  0  0  0  0  0  0  0
   -4.7988    1.7004    0.0000 O   0  0  0  0  0  0  0  0  0  0  0  0
   -2.6629    3.7629    0.0000 C   0  0  0  0  0  0  0  0  0  0  0  0
   -1.9616    4.1754    0.0000 C   0  0  0  0  0  0  0  0  0  0  0  0
   -1.2375    3.7629    0.0000 C   0  0  0  0  0  0  0  0  0  0  0  0
   -0.5179    2.5162    0.0000 O   0  0  0  0  0  0  0  0  0  0  0  0
   -4.0929    2.9379    0.0000 C   0  0  0  0  0  0  0  0  0  0  0  0
   -4.0929    3.7629    0.0000 C   0  0  0  0  0  0  0  0  0  0  0  0
   -3.3779    4.1754    0.0000 C   0  0  0  0  0  0  0  0  0  0  0  0
   -0.5179    1.6912    0.0000 C   0  0  0  0  0  0  0  0  0  0  0  0
  2  1  1  0  0  0  0
  3  1  1  0  0  0  0
  4  5  1  0  0  0  0
  5  7  2  0  0  0  0
  6  9  1  0  0  0  0
  7  8  1  0  0  0  0
  8  6  1  0  0  0  0
  9  1  1  0  0  0  0
 10  4  2  0  0  0  0
 11  2  1  0  0  0  0
 12  3  1  0  0  0  0
 13  2  2  0  0  0  0
 14  3  2  0  0  0  0
 15  6  2  0  0  0  0
 16  5  1  0  0  0  0
 17 16  1  0  0  0  0
 18 17  2  0  0  0  0
 19 10  1  0  0  0  0
 20  7  1  0  0  0  0
 21 20  2  0  0  0  0
 22 21  1  0  0  0  0
 23 19  1  0  0  0  0
 12 11  1  0  0  0  0
 22 16  2  0  0  0  0
 18 10  1  0  0  0  0
M  END
>  <IDNUMBER>
F5893-0231

>  <Chemical_Name>
2-(2,5-dioxopyrrolidin-1-yl)-N-(2-methoxyquinolin-8-yl)acetamide

>  <PriceCoeff>
1.00

>  <CAS>
1226440-24-9

>  <MW>
313.31

>  <Description>
solid

>  <FSP3>
0.25

>  <clogP>
1.94

>  <TPSA>
88.60

>  <Acceptor>
5

>  <Donor>
2

>  <RotBonds>
4

>  <HAC>
23

>  <Collection>
General

>  <PPDS>
+

$$$$
F5896-0231
  Mrv2219 10102508112D          

 26 29  0  0  0  0            999 V2000
   -3.3779    0.0504    0.0000 N   0  0  0  0  0  0  0  0  0  0  0  0
   -1.9616    2.5254    0.0000 N   0  0  0  0  0  0  0  0  0  0  0  0
   -1.2375    2.9379    0.0000 C   0  0  0  0  0  0  0  0  0  0  0  0
   -3.1991   -0.7609    0.0000 C   0  0  0  0  0  0  0  0  0  0  0  0
   -2.6629    0.4629    0.0000 C   0  0  0  0  0  0  0  0  0  0  0  0
   -0.5316    2.5254    0.0000 N   0  0  0  0  0  0  0  0  0  0  0  0
   -2.6629    2.9379    0.0000 C   0  0  0  0  0  0  0  0  0  0  0  0
   -4.0837    1.2879    0.0000 C   0  0  0  0  0  0  0  0  0  0  0  0
   -3.3779    2.5254    0.0000 C   0  0  0  0  0  0  0  0  0  0  0  0
   -3.3779    1.7004    0.0000 N   0  0  0  0  0  0  0  0  0  0  0  0
   -4.0837    0.4629    0.0000 C   0  0  0  0  0  0  0  0  0  0  0  0
   -0.4079    1.7050    0.0000 C   0  0  0  0  0  0  0  0  0  0  0  0
    0.2109    2.8829    0.0000 C   0  0  0  0  0  0  0  0  0  0  0  0
   -2.3787   -0.8434    0.0000 C   0  0  0  0  0  0  0  0  0  0  0  0
   -2.0441   -0.0962    0.0000 C   0  0  0  0  0  0  0  0  0  0  0  0
   -1.2375    3.7629    0.0000 C   0  0  0  0  0  0  0  0  0  0  0  0
   -3.7491   -1.3796    0.0000 O   0  0  0  0  0  0  0  0  0  0  0  0
   -2.5804    1.2879    0.0000 O   0  0  0  0  0  0  0  0  0  0  0  0
   -4.7988    1.7004    0.0000 O   0  0  0  0  0  0  0  0  0  0  0  0
   -2.6629    3.7629    0.0000 C   0  0  0  0  0  0  0  0  0  0  0  0
    0.7884    2.2916    0.0000 C   0  0  0  0  0  0  0  0  0  0  0  0
    0.4034    1.5629    0.0000 C   0  0  0  0  0  0  0  0  0  0  0  0
   -1.9616    4.1754    0.0000 C   0  0  0  0  0  0  0  0  0  0  0  0
   -4.0929    2.9379    0.0000 C   0  0  0  0  0  0  0  0  0  0  0  0
   -4.0929    3.7629    0.0000 C   0  0  0  0  0  0  0  0  0  0  0  0
   -3.3779    4.1754    0.0000 C   0  0  0  0  0  0  0  0  0  0  0  0
  2  7  1  0  0  0  0
  3  2  2  0  0  0  0
  4  1  1  0  0  0  0
  5  1  1  0  0  0  0
  6  3  1  0  0  0  0
  7  9  2  0  0  0  0
  8 11  1  0  0  0  0
  9 10  1  0  0  0  0
 10  8  1  0  0  0  0
 11  1  1  0  0  0  0
 12  6  1  0  0  0  0
 13  6  1  0  0  0  0
 14  4  1  0  0  0  0
 15  5  1  0  0  0  0
 16 23  2  0  0  0  0
 17  4  2  0  0  0  0
 18  5  2  0  0  0  0
 19  8  2  0  0  0  0
 20  7  1  0  0  0  0
 21 13  2  0  0  0  0
 22 12  2  0  0  0  0
 23 20  1  0  0  0  0
 24  9  1  0  0  0  0
 25 24  2  0  0  0  0
 26 25  1  0  0  0  0
 15 14  1  0  0  0  0
 26 20  2  0  0  0  0
 16  3  1  0  0  0  0
 21 22  1  0  0  0  0
M  END
>  <IDNUMBER>
F5896-0231

>  <Chemical_Name>
2-(2,5-dioxopyrrolidin-1-yl)-N-[2-(1H-pyrrol-1-yl)quinolin-8-yl]acetamide

>  <PriceCoeff>
1.00

>  <CAS>
1226441-11-7

>  <MW>
348.36

>  <Description>
solid

>  <FSP3>
0.16

>  <clogP>
2.56

>  <TPSA>
84.30

>  <Acceptor>
4

>  <Donor>
2

>  <RotBonds>
4

>  <HAC>
26

>  <Collection>
General

>  <PPDS>
+

$$$$
F5939-1176
  Mrv2219 10102508112D          

 27 30  0  0  0  0            999 V2000
    3.8039   -5.5009    0.0000 N   0  0  0  0  0  0  0  0  0  0  0  0
    8.0755   -7.9886    0.0000 C   0  0  0  0  0  0  0  0  0  0  0  0
    8.7460   -8.4811    0.0000 N   0  0  0  0  0  0  0  0  0  0  0  0
    8.4853   -9.2676    0.0000 C   0  0  0  0  0  0  0  0  0  0  0  0
    7.4132   -8.4728    0.0000 S   0  0  0  0  0  0  0  0  0  0  0  0
    5.2319   -5.5051    0.0000 C   0  0  0  0  0  0  0  0  0  0  0  0
    4.5117   -5.9149    0.0000 C   0  0  0  0  0  0  0  0  0  0  0  0
    3.7252   -4.6814    0.0000 C   0  0  0  0  0  0  0  0  0  0  0  0
    3.0464   -5.8238    0.0000 C   0  0  0  0  0  0  0  0  0  0  0  0
    5.9397   -5.9149    0.0000 N   0  0  0  0  0  0  0  0  0  0  0  0
    7.6657   -9.2551    0.0000 C   0  0  0  0  0  0  0  0  0  0  0  0
    8.0837   -7.1648    0.0000 O   0  0  0  0  0  0  0  0  0  0  0  0
    8.8950   -9.9836    0.0000 C   0  0  0  0  0  0  0  0  0  0  0  0
    5.9397   -6.7468    0.0000 C   0  0  0  0  0  0  0  0  0  0  0  0
    6.6599   -5.5051    0.0000 C   0  0  0  0  0  0  0  0  0  0  0  0
    5.2319   -4.6814    0.0000 O   0  0  0  0  0  0  0  0  0  0  0  0
    2.5083   -5.2029    0.0000 C   0  0  0  0  0  0  0  0  0  0  0  0
    2.9223   -4.4993    0.0000 C   0  0  0  0  0  0  0  0  0  0  0  0
    2.8726   -6.6351    0.0000 O   0  0  0  0  0  0  0  0  0  0  0  0
    4.3378   -4.1268    0.0000 O   0  0  0  0  0  0  0  0  0  0  0  0
    7.3759   -5.9149    0.0000 C   0  0  0  0  0  0  0  0  0  0  0  0
    6.6475   -7.1566    0.0000 C   0  0  0  0  0  0  0  0  0  0  0  0
    7.3677   -6.7468    0.0000 C   0  0  0  0  0  0  0  0  0  0  0  0
    9.7228   -9.9878    0.0000 Cl  0  0  0  0  0  0  0  0  0  0  0  0
    7.2435   -9.9712    0.0000 C   0  0  0  0  0  0  0  0  0  0  0  0
    7.6533  -10.6914    0.0000 C   0  0  0  0  0  0  0  0  0  0  0  0
    8.4853  -10.6914    0.0000 C   0  0  0  0  0  0  0  0  0  0  0  0
  2 12  1  0  0  0  0
  3  2  2  0  0  0  0
  4  3  1  0  0  0  0
  5  2  1  0  0  0  0
  6  7  1  0  0  0  0
  7  1  1  0  0  0  0
  8  1  1  0  0  0  0
  9  1  1  0  0  0  0
 10  6  1  0  0  0  0
 11  5  1  0  0  0  0
 12 23  1  0  0  0  0
 13  4  1  0  0  0  0
 14 10  1  0  0  0  0
 15 10  1  0  0  0  0
 16  6  2  0  0  0  0
 17  9  1  0  0  0  0
 18  8  1  0  0  0  0
 19  9  2  0  0  0  0
 20  8  2  0  0  0  0
 21 15  1  0  0  0  0
 22 14  1  0  0  0  0
 23 21  1  0  0  0  0
 24 13  1  0  0  0  0
 25 11  1  0  0  0  0
 26 25  2  0  0  0  0
 27 13  2  0  0  0  0
 18 17  1  0  0  0  0
 22 23  1  0  0  0  0
  4 11  2  0  0  0  0
 26 27  1  0  0  0  0
M  END
>  <IDNUMBER>
F5939-1176

>  <Chemical_Name>
1-(2-{4-[(4-chloro-1,3-benzothiazol-2-yl)oxy]piperidin-1-yl}-2-oxoethyl)pyrrolidine-2,5-dione

>  <PriceCoeff>
1.50

>  <CAS>
1286722-53-9

>  <MW>
407.87

>  <Description>
solid

>  <FSP3>
0.44

>  <clogP>
2.38

>  <TPSA>
108.05

>  <Acceptor>
5

>  <Donor>
0

>  <RotBonds>
5

>  <HAC>
27

>  <Collection>
Advanced

>  <PPDS>
+

$$$$
F5939-1203
  Mrv2219 10102508112D          

 32 36  0  0  0  0            999 V2000
   -1.5450   -8.9120    0.0000 N   0  0  0  0  0  0  0  0  0  0  0  0
    4.1853  -11.3856    0.0000 C   0  0  0  0  0  0  0  0  0  0  0  0
    4.8516  -11.8729    0.0000 N   0  0  0  0  0  0  0  0  0  0  0  0
    4.5975  -12.6600    0.0000 C   0  0  0  0  0  0  0  0  0  0  0  0
    3.5148  -11.8729    0.0000 S   0  0  0  0  0  0  0  0  0  0  0  0
    1.3243   -8.9120    0.0000 C   0  0  0  0  0  0  0  0  0  0  0  0
   -0.8246   -9.3242    0.0000 C   0  0  0  0  0  0  0  0  0  0  0  0
    2.0406   -9.3242    0.0000 N   0  0  0  0  0  0  0  0  0  0  0  0
   -2.3071   -9.2201    0.0000 C   0  0  0  0  0  0  0  0  0  0  0  0
   -1.5867   -8.0874    0.0000 C   0  0  0  0  0  0  0  0  0  0  0  0
    3.7730  -12.6558    0.0000 C   0  0  0  0  0  0  0  0  0  0  0  0
    0.6039   -9.3242    0.0000 C   0  0  0  0  0  0  0  0  0  0  0  0
   -0.1082   -8.9120    0.0000 C   0  0  0  0  0  0  0  0  0  0  0  0
    4.1853  -10.5611    0.0000 O   0  0  0  0  0  0  0  0  0  0  0  0
    5.0015  -13.3721    0.0000 C   0  0  0  0  0  0  0  0  0  0  0  0
    2.0406  -10.1488    0.0000 C   0  0  0  0  0  0  0  0  0  0  0  0
    2.7610   -8.9120    0.0000 C   0  0  0  0  0  0  0  0  0  0  0  0
    1.3160   -8.0832    0.0000 O   0  0  0  0  0  0  0  0  0  0  0  0
   -2.4070   -7.8875    0.0000 C   0  0  0  0  0  0  0  0  0  0  0  0
   -2.8443   -8.5871    0.0000 C   0  0  0  0  0  0  0  0  0  0  0  0
   -0.9578   -7.5585    0.0000 O   0  0  0  0  0  0  0  0  0  0  0  0
   -2.5237  -10.0114    0.0000 O   0  0  0  0  0  0  0  0  0  0  0  0
    3.4773   -9.3242    0.0000 C   0  0  0  0  0  0  0  0  0  0  0  0
    2.7527  -10.5611    0.0000 C   0  0  0  0  0  0  0  0  0  0  0  0
    3.4731  -10.1446    0.0000 C   0  0  0  0  0  0  0  0  0  0  0  0
    5.8261  -13.3804    0.0000 Cl  0  0  0  0  0  0  0  0  0  0  0  0
   -0.8246  -10.1488    0.0000 C   0  0  0  0  0  0  0  0  0  0  0  0
    3.3607  -13.3679    0.0000 C   0  0  0  0  0  0  0  0  0  0  0  0
    0.6039  -10.1488    0.0000 C   0  0  0  0  0  0  0  0  0  0  0  0
   -0.1124  -10.5694    0.0000 C   0  0  0  0  0  0  0  0  0  0  0  0
    3.7647  -14.0842    0.0000 C   0  0  0  0  0  0  0  0  0  0  0  0
    4.5975  -14.0842    0.0000 C   0  0  0  0  0  0  0  0  0  0  0  0
  2 14  1  0  0  0  0
  3  2  2  0  0  0  0
  4  3  1  0  0  0  0
  5  2  1  0  0  0  0
  6 12  1  0  0  0  0
  7  1  1  0  0  0  0
  8  6  1  0  0  0  0
  9  1  1  0  0  0  0
 10  1  1  0  0  0  0
 11  5  1  0  0  0  0
 12 13  2  0  0  0  0
 13  7  1  0  0  0  0
 14 25  1  0  0  0  0
 15  4  1  0  0  0  0
 16  8  1  0  0  0  0
 17  8  1  0  0  0  0
 18  6  2  0  0  0  0
 19 10  1  0  0  0  0
 20  9  1  0  0  0  0
 21 10  2  0  0  0  0
 22  9  2  0  0  0  0
 23 17  1  0  0  0  0
 24 16  1  0  0  0  0
 25 23  1  0  0  0  0
 26 15  1  0  0  0  0
 27  7  2  0  0  0  0
 28 11  1  0  0  0  0
 29 30  2  0  0  0  0
 30 27  1  0  0  0  0
 31 28  2  0  0  0  0
 32 15  2  0  0  0  0
 20 19  1  0  0  0  0
 12 29  1  0  0  0  0
 24 25  1  0  0  0  0
  4 11  2  0  0  0  0
 31 32  1  0  0  0  0
M  END
>  <IDNUMBER>
F5939-1203

>  <Chemical_Name>
1-(3-{4-[(4-chloro-1,3-benzothiazol-2-yl)oxy]piperidine-1-carbonyl}phenyl)pyrrolidine-2,5-dione

>  <PriceCoeff>
1.00

>  <CAS>
1331359-76-2

>  <MW>
469.94

>  <Description>
solid

>  <FSP3>
0.30

>  <clogP>
2.41

>  <TPSA>
108.05

>  <Acceptor>
5

>  <Donor>
0

>  <RotBonds>
5

>  <HAC>
32

>  <Collection>
General

>  <PPDS>
+

$$$$
F5939-1818
  Mrv2219 10102508112D          

 27 30  0  0  0  0            999 V2000
    3.8042   -5.5014    0.0000 N   0  0  0  0  0  0  0  0  0  0  0  0
    8.0762   -7.9893    0.0000 C   0  0  0  0  0  0  0  0  0  0  0  0
    8.7467   -8.4818    0.0000 N   0  0  0  0  0  0  0  0  0  0  0  0
    7.4138   -8.4735    0.0000 S   0  0  0  0  0  0  0  0  0  0  0  0
    5.2323   -5.5056    0.0000 C   0  0  0  0  0  0  0  0  0  0  0  0
    4.5121   -5.9154    0.0000 C   0  0  0  0  0  0  0  0  0  0  0  0
    3.0467   -5.8243    0.0000 C   0  0  0  0  0  0  0  0  0  0  0  0
    3.7255   -4.6818    0.0000 C   0  0  0  0  0  0  0  0  0  0  0  0
    5.9402   -5.9154    0.0000 N   0  0  0  0  0  0  0  0  0  0  0  0
    7.6663   -9.2559    0.0000 C   0  0  0  0  0  0  0  0  0  0  0  0
    8.4860   -9.2684    0.0000 C   0  0  0  0  0  0  0  0  0  0  0  0
    7.2441   -9.9720    0.0000 C   0  0  0  0  0  0  0  0  0  0  0  0
    8.0844   -7.1654    0.0000 O   0  0  0  0  0  0  0  0  0  0  0  0
    5.9402   -6.7474    0.0000 C   0  0  0  0  0  0  0  0  0  0  0  0
    6.6605   -5.5056    0.0000 C   0  0  0  0  0  0  0  0  0  0  0  0
    5.2323   -4.6818    0.0000 O   0  0  0  0  0  0  0  0  0  0  0  0
    2.5085   -5.2033    0.0000 C   0  0  0  0  0  0  0  0  0  0  0  0
    2.9225   -4.4997    0.0000 C   0  0  0  0  0  0  0  0  0  0  0  0
    2.8728   -6.6357    0.0000 O   0  0  0  0  0  0  0  0  0  0  0  0
    4.3382   -4.1271    0.0000 O   0  0  0  0  0  0  0  0  0  0  0  0
    8.8958   -9.9844    0.0000 C   0  0  0  0  0  0  0  0  0  0  0  0
    6.6481   -7.1572    0.0000 C   0  0  0  0  0  0  0  0  0  0  0  0
    7.3765   -5.9154    0.0000 C   0  0  0  0  0  0  0  0  0  0  0  0
    7.6539  -10.6923    0.0000 C   0  0  0  0  0  0  0  0  0  0  0  0
    7.3683   -6.7474    0.0000 C   0  0  0  0  0  0  0  0  0  0  0  0
    8.4860  -10.6923    0.0000 C   0  0  0  0  0  0  0  0  0  0  0  0
    7.2400  -11.4002    0.0000 F   0  0  0  0  0  0  0  0  0  0  0  0
  2 13  1  0  0  0  0
  3  2  2  0  0  0  0
  4  2  1  0  0  0  0
  5  6  1  0  0  0  0
  6  1  1  0  0  0  0
  7  1  1  0  0  0  0
  8  1  1  0  0  0  0
  9  5  1  0  0  0  0
 10  4  1  0  0  0  0
 11  3  1  0  0  0  0
 12 10  1  0  0  0  0
 13 25  1  0  0  0  0
 14  9  1  0  0  0  0
 15  9  1  0  0  0  0
 16  5  2  0  0  0  0
 17  7  1  0  0  0  0
 18  8  1  0  0  0  0
 19  7  2  0  0  0  0
 20  8  2  0  0  0  0
 21 11  1  0  0  0  0
 22 14  1  0  0  0  0
 23 15  1  0  0  0  0
 24 12  2  0  0  0  0
 25 23  1  0  0  0  0
 26 21  2  0  0  0  0
 27 24  1  0  0  0  0
 18 17  1  0  0  0  0
 22 25  1  0  0  0  0
 11 10  2  0  0  0  0
 24 26  1  0  0  0  0
M  END
>  <IDNUMBER>
F5939-1818

>  <Chemical_Name>
1-(2-{4-[(6-fluoro-1,3-benzothiazol-2-yl)oxy]piperidin-1-yl}-2-oxoethyl)pyrrolidine-2,5-dione

>  <PriceCoeff>
1.50

>  <CAS>
1324171-50-7

>  <MW>
391.42

>  <Description>
solid

>  <FSP3>
0.44

>  <clogP>
1.81

>  <TPSA>
108.05

>  <Acceptor>
5

>  <Donor>
0

>  <RotBonds>
5

>  <HAC>
27

>  <Collection>
Advanced

>  <PPDS>
+

$$$$
F5940-0534
  Mrv2219 10102508112D          

 25 27  0  0  0  0            999 V2000
    3.8039   -5.5009    0.0000 N   0  0  0  0  0  0  0  0  0  0  0  0
    5.2319   -5.5051    0.0000 C   0  0  0  0  0  0  0  0  0  0  0  0
    4.5117   -5.9149    0.0000 C   0  0  0  0  0  0  0  0  0  0  0  0
    3.7252   -4.6814    0.0000 C   0  0  0  0  0  0  0  0  0  0  0  0
    3.0464   -5.8238    0.0000 C   0  0  0  0  0  0  0  0  0  0  0  0
    5.9397   -5.9149    0.0000 N   0  0  0  0  0  0  0  0  0  0  0  0
    5.2319   -4.6814    0.0000 O   0  0  0  0  0  0  0  0  0  0  0  0
    2.9223   -4.4993    0.0000 C   0  0  0  0  0  0  0  0  0  0  0  0
    2.5083   -5.2029    0.0000 C   0  0  0  0  0  0  0  0  0  0  0  0
    4.3378   -4.1268    0.0000 O   0  0  0  0  0  0  0  0  0  0  0  0
    2.8726   -6.6351    0.0000 O   0  0  0  0  0  0  0  0  0  0  0  0
    6.6599   -5.5051    0.0000 C   0  0  0  0  0  0  0  0  0  0  0  0
    5.9397   -6.7468    0.0000 C   0  0  0  0  0  0  0  0  0  0  0  0
    8.0755   -7.9886    0.0000 O   0  0  0  0  0  0  0  0  0  0  0  0
    7.3801   -5.9149    0.0000 C   0  0  0  0  0  0  0  0  0  0  0  0
    6.6475   -7.1566    0.0000 C   0  0  0  0  0  0  0  0  0  0  0  0
    7.3677   -6.7468    0.0000 C   0  0  0  0  0  0  0  0  0  0  0  0
    8.7833   -9.2303    0.0000 C   0  0  0  0  0  0  0  0  0  0  0  0
    8.7915   -8.3983    0.0000 C   0  0  0  0  0  0  0  0  0  0  0  0
    8.0837   -7.1566    0.0000 C   0  0  0  0  0  0  0  0  0  0  0  0
    8.0713   -9.6359    0.0000 C   0  0  0  0  0  0  0  0  0  0  0  0
    9.4993   -9.6401    0.0000 C   0  0  0  0  0  0  0  0  0  0  0  0
    9.4993  -10.4596    0.0000 C   0  0  0  0  0  0  0  0  0  0  0  0
    8.0631  -10.4596    0.0000 C   0  0  0  0  0  0  0  0  0  0  0  0
    8.7791  -10.8777    0.0000 C   0  0  0  0  0  0  0  0  0  0  0  0
  2  3  1  0  0  0  0
  3  1  1  0  0  0  0
  4  1  1  0  0  0  0
  5  1  1  0  0  0  0
  6  2  1  0  0  0  0
  7  2  2  0  0  0  0
  8  4  1  0  0  0  0
  9  5  1  0  0  0  0
 10  4  2  0  0  0  0
 11  5  2  0  0  0  0
 12  6  1  0  0  0  0
 13  6  1  0  0  0  0
 14 20  1  0  0  0  0
 15 12  1  0  0  0  0
 16 13  1  0  0  0  0
 17 16  1  0  0  0  0
 18 19  1  0  0  0  0
 19 14  1  0  0  0  0
 20 17  1  0  0  0  0
 21 18  2  0  0  0  0
 22 18  1  0  0  0  0
 23 22  2  0  0  0  0
 24 21  1  0  0  0  0
 25 23  1  0  0  0  0
  9  8  1  0  0  0  0
 15 17  1  0  0  0  0
 25 24  2  0  0  0  0
M  END
>  <IDNUMBER>
F5940-0534

>  <Chemical_Name>
1-(2-{4-[(benzyloxy)methyl]piperidin-1-yl}-2-oxoethyl)pyrrolidine-2,5-dione

>  <PriceCoeff>
1.50

>  <CAS>
1226429-28-2

>  <MW>
344.40

>  <Description>
oil

>  <FSP3>
0.53

>  <clogP>
1.20

>  <TPSA>
66.92

>  <Acceptor>
4

>  <Donor>
0

>  <RotBonds>
7

>  <HAC>
25

>  <Collection>
Advanced

>  <PPDS>
+

$$$$
F5940-1789
  Mrv2219 10102508112D          

 22 23  0  0  0  0            999 V2000
    7.6042   -6.4625    0.0000 C   0  0  0  0  0  0  0  0  0  0  0  0
    8.3167   -6.8625    0.0000 N   0  0  0  0  0  0  0  0  0  0  0  0
    6.8917   -6.8792    0.0000 N   0  0  0  0  0  0  0  0  0  0  0  0
   11.2042  -10.1292    0.0000 C   0  0  0  0  0  0  0  0  0  0  0  0
    5.4500   -5.2500    0.0000 C   0  0  0  0  0  0  0  0  0  0  0  0
   11.2125  -10.9542    0.0000 C   0  0  0  0  0  0  0  0  0  0  0  0
    6.1667   -5.6542    0.0000 C   0  0  0  0  0  0  0  0  0  0  0  0
    6.1750   -6.4792    0.0000 C   0  0  0  0  0  0  0  0  0  0  0  0
    7.5917   -5.6375    0.0000 O   0  0  0  0  0  0  0  0  0  0  0  0
    4.7375   -5.6667    0.0000 C   0  0  0  0  0  0  0  0  0  0  0  0
    9.0292   -6.4417    0.0000 C   0  0  0  0  0  0  0  0  0  0  0  0
    8.3292   -7.6917    0.0000 C   0  0  0  0  0  0  0  0  0  0  0  0
    4.7417   -6.4917    0.0000 C   0  0  0  0  0  0  0  0  0  0  0  0
    5.4417   -4.4250    0.0000 Cl  0  0  0  0  0  0  0  0  0  0  0  0
    5.4625   -6.9000    0.0000 C   0  0  0  0  0  0  0  0  0  0  0  0
    4.0167   -5.2625    0.0000 Cl  0  0  0  0  0  0  0  0  0  0  0  0
    9.0417   -8.0917    0.0000 C   0  0  0  0  0  0  0  0  0  0  0  0
    9.7542   -6.8417    0.0000 C   0  0  0  0  0  0  0  0  0  0  0  0
   11.2000   -9.3042    0.0000 C   0  0  0  0  0  0  0  0  0  0  0  0
    9.7542   -7.6667    0.0000 C   0  0  0  0  0  0  0  0  0  0  0  0
   10.4792   -8.9000    0.0000 O   0  0  0  0  0  0  0  0  0  0  0  0
   10.4750   -8.0792    0.0000 C   0  0  0  0  0  0  0  0  0  0  0  0
  2  1  1  0  0  0  0
  3  1  1  0  0  0  0
  4 19  1  0  0  0  0
  5  7  1  0  0  0  0
  6  4  3  0  0  0  0
  7  8  2  0  0  0  0
  8  3  1  0  0  0  0
  9  1  2  0  0  0  0
 10 13  1  0  0  0  0
 11  2  1  0  0  0  0
 12  2  1  0  0  0  0
 13 15  2  0  0  0  0
 14  5  1  0  0  0  0
 15  8  1  0  0  0  0
 16 10  1  0  0  0  0
 17 12  1  0  0  0  0
 18 11  1  0  0  0  0
 19 21  1  0  0  0  0
 20 17  1  0  0  0  0
 21 22  1  0  0  0  0
 22 20  1  0  0  0  0
 20 18  1  0  0  0  0
  5 10  2  0  0  0  0
M  END
>  <IDNUMBER>
F5940-1789

>  <Chemical_Name>
N-(3,4-dichlorophenyl)-4-[(prop-2-yn-1-yloxy)methyl]piperidine-1-carboxamide

>  <PriceCoeff>
1.00

>  <CAS>
1251559-76-8

>  <MW>
341.23

>  <Description>
solid

>  <FSP3>
0.44

>  <clogP>
3.27

>  <TPSA>
41.57

>  <Acceptor>
2

>  <Donor>
1

>  <RotBonds>
6

>  <HAC>
22

>  <Collection>
General

$$$$
F5940-1920
  Mrv2219 10102508112D          

 28 30  0  0  0  0            999 V2000
    9.4276   -5.1476    0.0000 S   0  0  0  0  0  0  0  0  0  0  0  0
    7.3460   -5.8234    0.0000 N   0  0  0  0  0  0  0  0  0  0  0  0
   10.2535   -5.1602    0.0000 N   0  0  0  0  0  0  0  0  0  0  0  0
    8.6016   -5.1351    0.0000 C   0  0  0  0  0  0  0  0  0  0  0  0
    6.9455   -5.1059    0.0000 C   0  0  0  0  0  0  0  0  0  0  0  0
    6.9122   -6.5242    0.0000 C   0  0  0  0  0  0  0  0  0  0  0  0
    8.1761   -5.8442    0.0000 C   0  0  0  0  0  0  0  0  0  0  0  0
    9.4484   -4.3217    0.0000 O   0  0  0  0  0  0  0  0  0  0  0  0
    9.4151   -5.9736    0.0000 O   0  0  0  0  0  0  0  0  0  0  0  0
   10.6790   -4.4468    0.0000 C   0  0  0  0  0  0  0  0  0  0  0  0
   10.6498   -5.8860    0.0000 C   0  0  0  0  0  0  0  0  0  0  0  0
    7.3710   -4.3843    0.0000 O   0  0  0  0  0  0  0  0  0  0  0  0
    7.3126   -7.2501    0.0000 O   0  0  0  0  0  0  0  0  0  0  0  0
   13.1194   -5.9319    0.0000 O   0  0  0  0  0  0  0  0  0  0  0  0
   11.5050   -4.4719    0.0000 C   0  0  0  0  0  0  0  0  0  0  0  0
   11.4674   -5.8985    0.0000 C   0  0  0  0  0  0  0  0  0  0  0  0
    6.1238   -5.0851    0.0000 C   0  0  0  0  0  0  0  0  0  0  0  0
    6.0862   -6.5117    0.0000 C   0  0  0  0  0  0  0  0  0  0  0  0
   11.9012   -5.1935    0.0000 C   0  0  0  0  0  0  0  0  0  0  0  0
   14.3333   -6.6744    0.0000 C   0  0  0  0  0  0  0  0  0  0  0  0
    5.6941   -5.7859    0.0000 C   0  0  0  0  0  0  0  0  0  0  0  0
   13.9411   -5.9486    0.0000 C   0  0  0  0  0  0  0  0  0  0  0  0
   12.7189   -5.2102    0.0000 C   0  0  0  0  0  0  0  0  0  0  0  0
   13.9078   -7.3752    0.0000 C   0  0  0  0  0  0  0  0  0  0  0  0
   15.1550   -6.6869    0.0000 C   0  0  0  0  0  0  0  0  0  0  0  0
   15.5555   -7.4086    0.0000 C   0  0  0  0  0  0  0  0  0  0  0  0
   14.3040   -8.1011    0.0000 C   0  0  0  0  0  0  0  0  0  0  0  0
   15.1217   -8.1136    0.0000 C   0  0  0  0  0  0  0  0  0  0  0  0
  2  7  1  0  0  0  0
  3  1  1  0  0  0  0
  4  1  1  0  0  0  0
  5  2  1  0  0  0  0
  6  2  1  0  0  0  0
  7  4  1  0  0  0  0
  8  1  2  0  0  0  0
  9  1  2  0  0  0  0
 10  3  1  0  0  0  0
 11  3  1  0  0  0  0
 12  5  2  0  0  0  0
 13  6  2  0  0  0  0
 14 23  1  0  0  0  0
 15 10  1  0  0  0  0
 16 11  1  0  0  0  0
 17  5  1  0  0  0  0
 18  6  1  0  0  0  0
 19 16  1  0  0  0  0
 20 22  1  0  0  0  0
 21 18  1  0  0  0  0
 22 14  1  0  0  0  0
 23 19  1  0  0  0  0
 24 20  2  0  0  0  0
 25 20  1  0  0  0  0
 26 25  2  0  0  0  0
 27 24  1  0  0  0  0
 28 26  1  0  0  0  0
 19 15  1  0  0  0  0
 21 17  1  0  0  0  0
 27 28  2  0  0  0  0
M  END
>  <IDNUMBER>
F5940-1920

>  <Chemical_Name>
1-[2-({4-[(benzyloxy)methyl]piperidin-1-yl}sulfonyl)ethyl]piperidine-2,6-dione

>  <PriceCoeff>
1.00

>  <CAS>
1226459-83-1

>  <MW>
408.51

>  <Description>
solid

>  <FSP3>
0.60

>  <clogP>
2.20

>  <TPSA>
92.37

>  <Acceptor>
5

>  <Donor>
0

>  <RotBonds>
8

>  <HAC>
28

>  <Collection>
General

>  <PPDS>
+

$$$$
F5958-0082
  Mrv2219 10102508112D          

 23 24  0  0  0  0            999 V2000
   -6.7010    3.3505    0.0000 N   0  0  0  0  0  0  0  0  0  0  0  0
   -4.5726    3.7911    0.0000 S   0  0  0  0  0  0  0  0  0  0  0  0
   -3.1385    6.2521    0.0000 N   0  0  0  0  0  0  0  0  0  0  0  0
   -2.4775    6.7509    0.0000 N   0  0  0  0  0  0  0  0  0  0  0  0
   -3.8036    6.7467    0.0000 C   0  0  0  0  0  0  0  0  0  0  0  0
   -3.5542    7.5366    0.0000 C   0  0  0  0  0  0  0  0  0  0  0  0
   -7.4243    3.7495    0.0000 C   0  0  0  0  0  0  0  0  0  0  0  0
   -6.6885    2.5149    0.0000 C   0  0  0  0  0  0  0  0  0  0  0  0
   -5.2752    3.3754    0.0000 C   0  0  0  0  0  0  0  0  0  0  0  0
   -2.7186    7.5366    0.0000 C   0  0  0  0  0  0  0  0  0  0  0  0
   -5.9902    3.7745    0.0000 C   0  0  0  0  0  0  0  0  0  0  0  0
   -4.1486    3.1010    0.0000 O   0  0  0  0  0  0  0  0  0  0  0  0
   -4.9966    4.4937    0.0000 O   0  0  0  0  0  0  0  0  0  0  0  0
   -3.8535    4.2027    0.0000 N   0  0  0  0  0  0  0  0  0  0  0  0
   -7.4493    4.5685    0.0000 O   0  0  0  0  0  0  0  0  0  0  0  0
   -5.9693    2.1158    0.0000 O   0  0  0  0  0  0  0  0  0  0  0  0
   -3.1385    5.4290    0.0000 C   0  0  0  0  0  0  0  0  0  0  0  0
   -3.8535    5.0175    0.0000 C   0  0  0  0  0  0  0  0  0  0  0  0
   -7.3869    2.0909    0.0000 C   0  0  0  0  0  0  0  0  0  0  0  0
   -8.1352    3.3130    0.0000 C   0  0  0  0  0  0  0  0  0  0  0  0
   -4.5893    6.4890    0.0000 C   0  0  0  0  0  0  0  0  0  0  0  0
   -8.1102    2.4817    0.0000 C   0  0  0  0  0  0  0  0  0  0  0  0
   -2.2406    8.1975    0.0000 C   0  0  0  0  0  0  0  0  0  0  0  0
  2  9  1  0  0  0  0
  3 17  1  0  0  0  0
  4  3  1  0  0  0  0
  5  3  1  0  0  0  0
  6  5  2  0  0  0  0
  7  1  1  0  0  0  0
  8  1  1  0  0  0  0
  9 11  1  0  0  0  0
 10  4  2  0  0  0  0
 11  1  1  0  0  0  0
 12  2  2  0  0  0  0
 13  2  2  0  0  0  0
 14  2  1  0  0  0  0
 15  7  2  0  0  0  0
 16  8  2  0  0  0  0
 17 18  1  0  0  0  0
 18 14  1  0  0  0  0
 19  8  1  0  0  0  0
 20  7  1  0  0  0  0
 21  5  1  0  0  0  0
 22 19  1  0  0  0  0
 23 10  1  0  0  0  0
 20 22  1  0  0  0  0
  6 10  1  0  0  0  0
M  END
>  <IDNUMBER>
F5958-0082

>  <Chemical_Name>
N-[2-(3,5-dimethyl-1H-pyrazol-1-yl)ethyl]-2-(2,6-dioxopiperidin-1-yl)ethane-1-sulfonamide

>  <PriceCoeff>
1.50

>  <CAS>
1226442-04-1

>  <MW>
342.41

>  <Description>
solid

>  <FSP3>
0.64

>  <clogP>
0.60

>  <TPSA>
109.75

>  <Acceptor>
5

>  <Donor>
1

>  <RotBonds>
7

>  <HAC>
23

>  <Collection>
Advanced

>  <PPDS>
+

$$$$
F5967-0071
  Mrv2219 10102508112D          

 28 31  0  0  0  0            999 V2000
   -5.3530    6.4702    0.0000 C   0  0  0  0  0  0  0  0  0  0  0  0
   -5.2783    2.5498    0.0000 N   0  0  0  0  0  0  0  0  0  0  0  0
   -4.5681    6.2584    0.0000 C   0  0  0  0  0  0  0  0  0  0  0  0
   -5.7641    7.1803    0.0000 N   0  0  0  0  0  0  0  0  0  0  0  0
   -5.3530    1.7276    0.0000 C   0  0  0  0  0  0  0  0  0  0  0  0
   -6.0092    2.8862    0.0000 C   0  0  0  0  0  0  0  0  0  0  0  0
   -4.5681    3.7874    0.0000 C   0  0  0  0  0  0  0  0  0  0  0  0
   -4.5681    2.9734    0.0000 C   0  0  0  0  0  0  0  0  0  0  0  0
   -3.8455    6.6695    0.0000 C   0  0  0  0  0  0  0  0  0  0  0  0
   -4.5681    5.4361    0.0000 C   0  0  0  0  0  0  0  0  0  0  0  0
   -3.8497    4.1985    0.0000 N   0  0  0  0  0  0  0  0  0  0  0  0
   -5.8763    5.8182    0.0000 O   0  0  0  0  0  0  0  0  0  0  0  0
   -5.5523    7.9735    0.0000 C   0  0  0  0  0  0  0  0  0  0  0  0
   -3.8497    5.0125    0.0000 C   0  0  0  0  0  0  0  0  0  0  0  0
   -3.6337    7.4669    0.0000 O   0  0  0  0  0  0  0  0  0  0  0  0
   -6.1463    1.5531    0.0000 C   0  0  0  0  0  0  0  0  0  0  0  0
   -6.5657    2.2675    0.0000 C   0  0  0  0  0  0  0  0  0  0  0  0
   -4.7425    1.1669    0.0000 O   0  0  0  0  0  0  0  0  0  0  0  0
   -6.1919    3.6960    0.0000 O   0  0  0  0  0  0  0  0  0  0  0  0
   -5.2824    4.1985    0.0000 O   0  0  0  0  0  0  0  0  0  0  0  0
   -3.1354    6.2584    0.0000 C   0  0  0  0  0  0  0  0  0  0  0  0
   -6.5449    6.9685    0.0000 C   0  0  0  0  0  0  0  0  0  0  0  0
   -3.1354    5.4319    0.0000 C   0  0  0  0  0  0  0  0  0  0  0  0
   -4.8297    8.3764    0.0000 C   0  0  0  0  0  0  0  0  0  0  0  0
   -4.0449    8.1646    0.0000 C   0  0  0  0  0  0  0  0  0  0  0  0
   -6.1214    8.5508    0.0000 C   0  0  0  0  0  0  0  0  0  0  0  0
   -7.1305    7.5624    0.0000 C   0  0  0  0  0  0  0  0  0  0  0  0
   -6.9187    8.3390    0.0000 C   0  0  0  0  0  0  0  0  0  0  0  0
  2  8  1  0  0  0  0
  3  1  1  0  0  0  0
  4  1  1  0  0  0  0
  5  2  1  0  0  0  0
  6  2  1  0  0  0  0
  7 11  1  0  0  0  0
  8  7  1  0  0  0  0
  9  3  1  0  0  0  0
 10  3  2  0  0  0  0
 11 14  1  0  0  0  0
 12  1  2  0  0  0  0
 13  4  1  0  0  0  0
 14 10  1  0  0  0  0
 15  9  1  0  0  0  0
 16  5  1  0  0  0  0
 17  6  1  0  0  0  0
 18  5  2  0  0  0  0
 19  6  2  0  0  0  0
 20  7  2  0  0  0  0
 21  9  2  0  0  0  0
 22  4  1  0  0  0  0
 23 14  2  0  0  0  0
 24 13  1  0  0  0  0
 25 24  1  0  0  0  0
 26 13  1  0  0  0  0
 27 22  1  0  0  0  0
 28 27  1  0  0  0  0
 28 26  1  0  0  0  0
 25 15  1  0  0  0  0
 21 23  1  0  0  0  0
 17 16  1  0  0  0  0
M  END
>  <IDNUMBER>
F5967-0071

>  <Chemical_Name>
2-(2,5-dioxopyrrolidin-1-yl)-N-{2-oxo-9-oxa-1-azatricyclo[10.4.0.0?,?]hexadeca-3(8),4,6-trien-5-yl}acetamide

>  <PriceCoeff>
1.00

>  <CAS>
1226438-93-2

>  <MW>
385.41

>  <Description>
solid

>  <FSP3>
0.50

>  <clogP>
0.72

>  <TPSA>
96.02

>  <Acceptor>
5

>  <Donor>
1

>  <RotBonds>
3

>  <HAC>
28

>  <Collection>
General

>  <PPDS>
+

$$$$
F5971-0150
  Mrv2219 10102508112D          

 21 22  0  0  0  0            999 V2000
   -6.0099    0.5130    0.0000 C   0  0  0  0  0  0  0  0  0  0  0  0
   -4.5876    3.8036    0.0000 C   0  0  0  0  0  0  0  0  0  0  0  0
   -4.5876    2.9862    0.0000 C   0  0  0  0  0  0  0  0  0  0  0  0
   -5.3009    0.1084    0.0000 C   0  0  0  0  0  0  0  0  0  0  0  0
   -6.6314   -0.0543    0.0000 O   0  0  0  0  0  0  0  0  0  0  0  0
   -5.3051    2.5733    0.0000 C   0  0  0  0  0  0  0  0  0  0  0  0
   -5.4760   -0.7131    0.0000 O   0  0  0  0  0  0  0  0  0  0  0  0
   -3.1530    5.4551    0.0000 C   0  0  0  0  0  0  0  0  0  0  0  0
   -6.2852   -0.8049    0.0000 C   0  0  0  0  0  0  0  0  0  0  0  0
   -3.8662    4.2166    0.0000 N   0  0  0  0  0  0  0  0  0  0  0  0
   -6.0099    1.3388    0.0000 C   0  0  0  0  0  0  0  0  0  0  0  0
   -5.3009    4.2083    0.0000 O   0  0  0  0  0  0  0  0  0  0  0  0
   -5.3051    1.7475    0.0000 C   0  0  0  0  0  0  0  0  0  0  0  0
   -4.5876    0.5088    0.0000 C   0  0  0  0  0  0  0  0  0  0  0  0
   -3.8662    5.0340    0.0000 C   0  0  0  0  0  0  0  0  0  0  0  0
   -3.5617    6.1601    0.0000 O   0  0  0  0  0  0  0  0  0  0  0  0
   -4.6002    1.3346    0.0000 C   0  0  0  0  0  0  0  0  0  0  0  0
   -2.4481    5.8723    0.0000 C   0  0  0  0  0  0  0  0  0  0  0  0
   -1.7267    5.4593    0.0000 O   0  0  0  0  0  0  0  0  0  0  0  0
   -2.7359    4.7212    0.0000 C   0  0  0  0  0  0  0  0  0  0  0  0
   -1.0134    5.8723    0.0000 C   0  0  0  0  0  0  0  0  0  0  0  0
  2  3  1  0  0  0  0
  3  6  2  0  0  0  0
  4  1  1  0  0  0  0
  5  1  1  0  0  0  0
  6 13  1  0  0  0  0
  7  4  1  0  0  0  0
  8 15  1  0  0  0  0
  9  5  1  0  0  0  0
 10  2  1  0  0  0  0
 11  1  2  0  0  0  0
 12  2  2  0  0  0  0
 13 11  1  0  0  0  0
 14  4  2  0  0  0  0
 15 10  1  0  0  0  0
 16  8  1  0  0  0  0
 17 13  2  0  0  0  0
 18  8  1  0  0  0  0
 19 18  1  0  0  0  0
 20  8  1  0  0  0  0
 21 19  1  0  0  0  0
  7  9  1  0  0  0  0
 17 14  1  0  0  0  0
M  END
>  <IDNUMBER>
F5971-0150

>  <Chemical_Name>
(2E)-3-(2H-1,3-benzodioxol-5-yl)-N-(2-hydroxy-3-methoxy-2-methylpropyl)prop-2-enamide

>  <PriceCoeff>
1.00

>  <MW>
293.32

>  <Description>
oil

>  <FSP3>
0.40

>  <clogP>
1.50

>  <TPSA>
77.02

>  <Acceptor>
5

>  <Donor>
2

>  <RotBonds>
6

>  <HAC>
21

>  <Collection>
General

$$$$
F6036-2026
  Mrv2219 10102508112D          

 29 32  0  0  0  0            999 V2000
   -4.5694    3.7988    0.0000 S   0  0  0  0  0  0  0  0  0  0  0  0
   -3.8571    4.2112    0.0000 N   0  0  0  0  0  0  0  0  0  0  0  0
   -6.7021    3.3573    0.0000 N   0  0  0  0  0  0  0  0  0  0  0  0
   -1.3621    4.9152    0.0000 N   0  0  0  0  0  0  0  0  0  0  0  0
   -2.1368    5.2151    0.0000 C   0  0  0  0  0  0  0  0  0  0  0  0
   -2.8491    4.7778    0.0000 C   0  0  0  0  0  0  0  0  0  0  0  0
   -0.8497    5.5650    0.0000 C   0  0  0  0  0  0  0  0  0  0  0  0
   -1.2871    6.2606    0.0000 N   0  0  0  0  0  0  0  0  0  0  0  0
   -5.2816    3.3823    0.0000 C   0  0  0  0  0  0  0  0  0  0  0  0
   -2.0827    6.0399    0.0000 O   0  0  0  0  0  0  0  0  0  0  0  0
   -6.6896    2.5325    0.0000 C   0  0  0  0  0  0  0  0  0  0  0  0
   -7.4269    3.7571    0.0000 C   0  0  0  0  0  0  0  0  0  0  0  0
   -3.6446    5.0026    0.0000 C   0  0  0  0  0  0  0  0  0  0  0  0
   -3.0574    3.9987    0.0000 C   0  0  0  0  0  0  0  0  0  0  0  0
   -5.9982    3.7821    0.0000 C   0  0  0  0  0  0  0  0  0  0  0  0
   -4.1445    3.1074    0.0000 O   0  0  0  0  0  0  0  0  0  0  0  0
   -4.9942    4.5028    0.0000 O   0  0  0  0  0  0  0  0  0  0  0  0
   -7.4477    4.5736    0.0000 O   0  0  0  0  0  0  0  0  0  0  0  0
   -5.9690    2.1327    0.0000 O   0  0  0  0  0  0  0  0  0  0  0  0
   -0.0125    5.5233    0.0000 C   0  0  0  0  0  0  0  0  0  0  0  0
    0.4416    6.2148    0.0000 C   0  0  0  0  0  0  0  0  0  0  0  0
   -7.3894    2.0994    0.0000 C   0  0  0  0  0  0  0  0  0  0  0  0
   -8.1267    3.3323    0.0000 C   0  0  0  0  0  0  0  0  0  0  0  0
   -8.1142    2.4992    0.0000 C   0  0  0  0  0  0  0  0  0  0  0  0
    0.0500    6.9395    0.0000 C   0  0  0  0  0  0  0  0  0  0  0  0
    1.2538    6.1731    0.0000 C   0  0  0  0  0  0  0  0  0  0  0  0
    1.7037    6.8646    0.0000 C   0  0  0  0  0  0  0  0  0  0  0  0
    0.5041    7.6352    0.0000 C   0  0  0  0  0  0  0  0  0  0  0  0
    1.3371    7.6019    0.0000 C   0  0  0  0  0  0  0  0  0  0  0  0
  2  1  1  0  0  0  0
  3 15  1  0  0  0  0
  4  5  2  0  0  0  0
  5  6  1  0  0  0  0
  6 14  1  0  0  0  0
  7  4  1  0  0  0  0
  8 10  1  0  0  0  0
  9  1  1  0  0  0  0
 10  5  1  0  0  0  0
 11  3  1  0  0  0  0
 12  3  1  0  0  0  0
 13  2  1  0  0  0  0
 14  2  1  0  0  0  0
 15  9  1  0  0  0  0
 16  1  2  0  0  0  0
 17  1  2  0  0  0  0
 18 12  2  0  0  0  0
 19 11  2  0  0  0  0
 20  7  1  0  0  0  0
 21 20  1  0  0  0  0
 22 11  1  0  0  0  0
 23 12  1  0  0  0  0
 24 23  1  0  0  0  0
 25 21  1  0  0  0  0
 26 21  2  0  0  0  0
 27 26  1  0  0  0  0
 28 25  2  0  0  0  0
 29 27  2  0  0  0  0
  6 13  1  0  0  0  0
 24 22  1  0  0  0  0
  7  8  2  0  0  0  0
 29 28  1  0  0  0  0
M  END
>  <IDNUMBER>
F6036-2026

>  <Chemical_Name>
1-(2-{[3-(3-benzyl-1,2,4-oxadiazol-5-yl)azetidin-1-yl]sulfonyl}ethyl)piperidine-2,6-dione

>  <PriceCoeff>
1.00

>  <CAS>
1351631-56-5

>  <MW>
418.47

>  <Description>
solid

>  <FSP3>
0.47

>  <clogP>
0.50

>  <TPSA>
122.06

>  <Acceptor>
7

>  <Donor>
0

>  <RotBonds>
7

>  <HAC>
29

>  <Collection>
General

>  <PPDS>
+

$$$$
F6037-0311
  Mrv2219 10102508112D          

 26 29  0  0  0  0            999 V2000
    9.4283   -5.1480    0.0000 S   0  0  0  0  0  0  0  0  0  0  0  0
   12.2400   -5.1981    0.0000 C   0  0  0  0  0  0  0  0  0  0  0  0
   10.2542   -5.1606    0.0000 N   0  0  0  0  0  0  0  0  0  0  0  0
    7.3465   -5.8238    0.0000 N   0  0  0  0  0  0  0  0  0  0  0  0
   12.7073   -5.8739    0.0000 N   0  0  0  0  0  0  0  0  0  0  0  0
   11.4182   -5.1856    0.0000 C   0  0  0  0  0  0  0  0  0  0  0  0
   12.7323   -4.5430    0.0000 N   0  0  0  0  0  0  0  0  0  0  0  0
    8.6022   -5.1355    0.0000 C   0  0  0  0  0  0  0  0  0  0  0  0
    6.9460   -5.1063    0.0000 C   0  0  0  0  0  0  0  0  0  0  0  0
    6.9127   -6.5247    0.0000 C   0  0  0  0  0  0  0  0  0  0  0  0
   10.8425   -4.5931    0.0000 C   0  0  0  0  0  0  0  0  0  0  0  0
   10.8258   -5.7570    0.0000 C   0  0  0  0  0  0  0  0  0  0  0  0
    8.1767   -5.8446    0.0000 C   0  0  0  0  0  0  0  0  0  0  0  0
   13.5041   -5.6361    0.0000 C   0  0  0  0  0  0  0  0  0  0  0  0
   13.5166   -4.8101    0.0000 C   0  0  0  0  0  0  0  0  0  0  0  0
    9.4491   -4.3220    0.0000 O   0  0  0  0  0  0  0  0  0  0  0  0
    9.4158   -5.9740    0.0000 O   0  0  0  0  0  0  0  0  0  0  0  0
    7.3715   -4.3846    0.0000 O   0  0  0  0  0  0  0  0  0  0  0  0
    7.3131   -7.2506    0.0000 O   0  0  0  0  0  0  0  0  0  0  0  0
    6.0866   -6.5122    0.0000 C   0  0  0  0  0  0  0  0  0  0  0  0
    6.1242   -5.0855    0.0000 C   0  0  0  0  0  0  0  0  0  0  0  0
    5.6945   -5.7863    0.0000 C   0  0  0  0  0  0  0  0  0  0  0  0
   14.2049   -6.0616    0.0000 C   0  0  0  0  0  0  0  0  0  0  0  0
   14.2467   -4.4096    0.0000 C   0  0  0  0  0  0  0  0  0  0  0  0
   14.9476   -4.8434    0.0000 C   0  0  0  0  0  0  0  0  0  0  0  0
   14.9225   -5.6694    0.0000 C   0  0  0  0  0  0  0  0  0  0  0  0
  2  6  1  0  0  0  0
  3  1  1  0  0  0  0
  4 13  1  0  0  0  0
  5  2  2  0  0  0  0
  6 12  1  0  0  0  0
  7  2  1  0  0  0  0
  8  1  1  0  0  0  0
  9  4  1  0  0  0  0
 10  4  1  0  0  0  0
 11  3  1  0  0  0  0
 12  3  1  0  0  0  0
 13  8  1  0  0  0  0
 14  5  1  0  0  0  0
 15  7  1  0  0  0  0
 16  1  2  0  0  0  0
 17  1  2  0  0  0  0
 18  9  2  0  0  0  0
 19 10  2  0  0  0  0
 20 10  1  0  0  0  0
 21  9  1  0  0  0  0
 22 20  1  0  0  0  0
 23 14  2  0  0  0  0
 24 15  2  0  0  0  0
 25 24  1  0  0  0  0
 26 23  1  0  0  0  0
  6 11  1  0  0  0  0
 22 21  1  0  0  0  0
 14 15  1  0  0  0  0
 26 25  2  0  0  0  0
M  END
>  <IDNUMBER>
F6037-0311

>  <Chemical_Name>
1-(2-{[3-(1H-1,3-benzodiazol-2-yl)azetidin-1-yl]sulfonyl}ethyl)piperidine-2,6-dione

>  <PriceCoeff>
1.00

>  <CAS>
1251612-31-3

>  <MW>
376.43

>  <Description>
solid

>  <FSP3>
0.47

>  <clogP>
0.73

>  <TPSA>
111.82

>  <Acceptor>
6

>  <Donor>
2

>  <RotBonds>
5

>  <HAC>
26

>  <Collection>
General

>  <PPDS>
+

$$$$
F6057-0486
  Mrv2219 10102508112D          

 24 26  0  0  0  0            999 V2000
   -0.8116    3.8111    0.0000 C   0  0  0  0  0  0  0  0  0  0  0  0
   -1.4057    3.2464    0.0000 N   0  0  0  0  0  0  0  0  0  0  0  0
   -4.1919    2.5729    0.0000 N   0  0  0  0  0  0  0  0  0  0  0  0
   -3.6605    3.2004    0.0000 N   0  0  0  0  0  0  0  0  0  0  0  0
   -1.0500    4.5977    0.0000 N   0  0  0  0  0  0  0  0  0  0  0  0
   -2.6063    2.1085    0.0000 N   0  0  0  0  0  0  0  0  0  0  0  0
    0.8828    5.6101    0.0000 C   0  0  0  0  0  0  0  0  0  0  0  0
    0.3180    5.0119    0.0000 C   0  0  0  0  0  0  0  0  0  0  0  0
   -0.4853    5.1917    0.0000 C   0  0  0  0  0  0  0  0  0  0  0  0
   -4.8905    3.7192    0.0000 C   0  0  0  0  0  0  0  0  0  0  0  0
   -0.0334    3.5309    0.0000 O   0  0  0  0  0  0  0  0  0  0  0  0
   -4.9658    2.8866    0.0000 C   0  0  0  0  0  0  0  0  0  0  0  0
    0.6443    6.4050    0.0000 C   0  0  0  0  0  0  0  0  0  0  0  0
   -3.9994    1.7696    0.0000 C   0  0  0  0  0  0  0  0  0  0  0  0
   -2.2047    3.4848    0.0000 C   0  0  0  0  0  0  0  0  0  0  0  0
   -1.2174    2.4431    0.0000 C   0  0  0  0  0  0  0  0  0  0  0  0
   -4.0873    3.9115    0.0000 C   0  0  0  0  0  0  0  0  0  0  0  0
   -3.2087    1.5395    0.0000 C   0  0  0  0  0  0  0  0  0  0  0  0
   -0.1589    6.5932    0.0000 C   0  0  0  0  0  0  0  0  0  0  0  0
   -2.8071    2.9117    0.0000 C   0  0  0  0  0  0  0  0  0  0  0  0
   -1.8156    1.8784    0.0000 C   0  0  0  0  0  0  0  0  0  0  0  0
    1.6860    5.4260    0.0000 Cl  0  0  0  0  0  0  0  0  0  0  0  0
   -0.7237    5.9949    0.0000 C   0  0  0  0  0  0  0  0  0  0  0  0
    1.2091    7.0074    0.0000 Cl  0  0  0  0  0  0  0  0  0  0  0  0
  2  1  1  0  0  0  0
  3 14  1  0  0  0  0
  4  3  1  0  0  0  0
  5  1  1  0  0  0  0
  6 21  1  0  0  0  0
  7  8  1  0  0  0  0
  8  9  2  0  0  0  0
  9  5  1  0  0  0  0
 10 12  2  0  0  0  0
 11  1  2  0  0  0  0
 12  3  1  0  0  0  0
 13 19  1  0  0  0  0
 14 18  1  0  0  0  0
 15  2  1  0  0  0  0
 16  2  1  0  0  0  0
 17  4  2  0  0  0  0
 18  6  1  0  0  0  0
 19 23  2  0  0  0  0
 20 15  1  0  0  0  0
 21 16  1  0  0  0  0
 22  7  1  0  0  0  0
 23  9  1  0  0  0  0
 24 13  1  0  0  0  0
  6 20  1  0  0  0  0
 13  7  2  0  0  0  0
 17 10  1  0  0  0  0
M  END
>  <IDNUMBER>
F6057-0486

>  <Chemical_Name>
N-(3,4-dichlorophenyl)-4-[2-(1H-pyrazol-1-yl)ethyl]piperazine-1-carboxamide

>  <PriceCoeff>
1.00

>  <CAS>
1396851-74-3

>  <MW>
368.26

>  <Description>
solid

>  <FSP3>
0.38

>  <clogP>
3.14

>  <TPSA>
53.40

>  <Acceptor>
2

>  <Donor>
2

>  <RotBonds>
5

>  <HAC>
24

>  <Collection>
General

$$$$
F6057-0607
  Mrv2219 10102508112D          

 26 28  0  0  0  0            999 V2000
   -4.1992    2.5773    0.0000 N   0  0  0  0  0  0  0  0  0  0  0  0
   -3.6668    3.2059    0.0000 N   0  0  0  0  0  0  0  0  0  0  0  0
   -0.8130    3.8177    0.0000 C   0  0  0  0  0  0  0  0  0  0  0  0
   -4.9660    2.8916    0.0000 C   0  0  0  0  0  0  0  0  0  0  0  0
   -1.4081    3.2520    0.0000 N   0  0  0  0  0  0  0  0  0  0  0  0
   -4.8989    3.7171    0.0000 C   0  0  0  0  0  0  0  0  0  0  0  0
   -4.1028    3.9057    0.0000 C   0  0  0  0  0  0  0  0  0  0  0  0
   -1.0519    4.6057    0.0000 N   0  0  0  0  0  0  0  0  0  0  0  0
   -2.6108    2.1122    0.0000 N   0  0  0  0  0  0  0  0  0  0  0  0
   -4.0063    1.7727    0.0000 C   0  0  0  0  0  0  0  0  0  0  0  0
    0.8843    5.6199    0.0000 C   0  0  0  0  0  0  0  0  0  0  0  0
    0.3186    5.0206    0.0000 C   0  0  0  0  0  0  0  0  0  0  0  0
   -0.4861    5.2007    0.0000 C   0  0  0  0  0  0  0  0  0  0  0  0
   -0.0335    3.5371    0.0000 O   0  0  0  0  0  0  0  0  0  0  0  0
    0.6454    6.4161    0.0000 C   0  0  0  0  0  0  0  0  0  0  0  0
   -1.2195    2.4474    0.0000 C   0  0  0  0  0  0  0  0  0  0  0  0
   -2.2085    3.4909    0.0000 C   0  0  0  0  0  0  0  0  0  0  0  0
   -3.2143    1.5422    0.0000 C   0  0  0  0  0  0  0  0  0  0  0  0
   -0.1592    6.6047    0.0000 C   0  0  0  0  0  0  0  0  0  0  0  0
   -2.8119    2.9168    0.0000 C   0  0  0  0  0  0  0  0  0  0  0  0
   -1.8187    1.8816    0.0000 C   0  0  0  0  0  0  0  0  0  0  0  0
    1.6889    5.4355    0.0000 Cl  0  0  0  0  0  0  0  0  0  0  0  0
   -0.7249    6.0053    0.0000 C   0  0  0  0  0  0  0  0  0  0  0  0
    1.2112    7.0195    0.0000 Cl  0  0  0  0  0  0  0  0  0  0  0  0
   -5.6658    2.4726    0.0000 C   0  0  0  0  0  0  0  0  0  0  0  0
   -3.7842    4.6685    0.0000 C   0  0  0  0  0  0  0  0  0  0  0  0
  2  1  1  0  0  0  0
  3  5  1  0  0  0  0
  4  1  1  0  0  0  0
  5 16  1  0  0  0  0
  6  4  2  0  0  0  0
  7  2  2  0  0  0  0
  8  3  1  0  0  0  0
  9 18  1  0  0  0  0
 10  1  1  0  0  0  0
 11 12  1  0  0  0  0
 12 13  2  0  0  0  0
 13  8  1  0  0  0  0
 14  3  2  0  0  0  0
 15 19  1  0  0  0  0
 16 21  1  0  0  0  0
 17 20  1  0  0  0  0
 18 10  1  0  0  0  0
 19 23  2  0  0  0  0
 20  9  1  0  0  0  0
 21  9  1  0  0  0  0
 22 11  1  0  0  0  0
 23 13  1  0  0  0  0
 24 15  1  0  0  0  0
 25  4  1  0  0  0  0
 26  7  1  0  0  0  0
  7  6  1  0  0  0  0
 17  5  1  0  0  0  0
 15 11  2  0  0  0  0
M  END
>  <IDNUMBER>
F6057-0607

>  <Chemical_Name>
N-(3,4-dichlorophenyl)-4-[2-(3,5-dimethyl-1H-pyrazol-1-yl)ethyl]piperazine-1-carboxamide

>  <PriceCoeff>
1.50

>  <CAS>
1396794-42-5

>  <MW>
396.31

>  <Description>
solid

>  <FSP3>
0.44

>  <clogP>
3.77

>  <TPSA>
53.40

>  <Acceptor>
2

>  <Donor>
2

>  <RotBonds>
5

>  <HAC>
26

>  <Collection>
Advanced

$$$$
F6064-0987
  Mrv2219 10102508112D          

 26 29  0  0  0  0            999 V2000
   11.0042   -8.7667    0.0000 C   0  0  0  0  0  0  0  0  0  0  0  0
   10.1792   -8.6500    0.0000 N   0  0  0  0  0  0  0  0  0  0  0  0
   10.0500   -7.8292    0.0000 C   0  0  0  0  0  0  0  0  0  0  0  0
    8.3167   -6.8625    0.0000 N   0  0  0  0  0  0  0  0  0  0  0  0
   11.3750   -8.0375    0.0000 N   0  0  0  0  0  0  0  0  0  0  0  0
    7.6042   -6.4625    0.0000 C   0  0  0  0  0  0  0  0  0  0  0  0
    9.3292   -7.4292    0.0000 C   0  0  0  0  0  0  0  0  0  0  0  0
   10.7917   -7.4542    0.0000 O   0  0  0  0  0  0  0  0  0  0  0  0
   11.3792   -9.5000    0.0000 C   0  0  0  0  0  0  0  0  0  0  0  0
    8.5417   -7.6542    0.0000 C   0  0  0  0  0  0  0  0  0  0  0  0
    9.1125   -6.6417    0.0000 C   0  0  0  0  0  0  0  0  0  0  0  0
    6.8917   -6.8792    0.0000 N   0  0  0  0  0  0  0  0  0  0  0  0
    5.4500   -5.2500    0.0000 C   0  0  0  0  0  0  0  0  0  0  0  0
    6.1667   -5.6542    0.0000 C   0  0  0  0  0  0  0  0  0  0  0  0
   10.9417  -10.1917    0.0000 N   0  0  0  0  0  0  0  0  0  0  0  0
   12.2042   -9.5375    0.0000 N   0  0  0  0  0  0  0  0  0  0  0  0
    6.1750   -6.4792    0.0000 C   0  0  0  0  0  0  0  0  0  0  0  0
    7.5917   -5.6375    0.0000 O   0  0  0  0  0  0  0  0  0  0  0  0
    4.7375   -5.6667    0.0000 C   0  0  0  0  0  0  0  0  0  0  0  0
    4.7417   -6.4917    0.0000 C   0  0  0  0  0  0  0  0  0  0  0  0
    5.4417   -4.4250    0.0000 Cl  0  0  0  0  0  0  0  0  0  0  0  0
    5.4625   -6.9000    0.0000 C   0  0  0  0  0  0  0  0  0  0  0  0
    4.0167   -5.2625    0.0000 Cl  0  0  0  0  0  0  0  0  0  0  0  0
   12.1417  -10.9625    0.0000 C   0  0  0  0  0  0  0  0  0  0  0  0
   12.5792  -10.2625    0.0000 C   0  0  0  0  0  0  0  0  0  0  0  0
   11.3167  -10.9250    0.0000 C   0  0  0  0  0  0  0  0  0  0  0  0
  2  1  1  0  0  0  0
  3  2  2  0  0  0  0
  4 11  1  0  0  0  0
  5  1  2  0  0  0  0
  6  4  1  0  0  0  0
  7  3  1  0  0  0  0
  8  5  1  0  0  0  0
  9  1  1  0  0  0  0
 10  7  1  0  0  0  0
 11  7  1  0  0  0  0
 12  6  1  0  0  0  0
 13 14  1  0  0  0  0
 14 17  2  0  0  0  0
 15  9  2  0  0  0  0
 16  9  1  0  0  0  0
 17 12  1  0  0  0  0
 18  6  2  0  0  0  0
 19 20  1  0  0  0  0
 20 22  2  0  0  0  0
 21 13  1  0  0  0  0
 22 17  1  0  0  0  0
 23 19  1  0  0  0  0
 24 25  1  0  0  0  0
 25 16  2  0  0  0  0
 26 15  1  0  0  0  0
  3  8  1  0  0  0  0
 24 26  2  0  0  0  0
 10  4  1  0  0  0  0
 13 19  2  0  0  0  0
M  END
>  <IDNUMBER>
F6064-0987

>  <Chemical_Name>
N-(3,4-dichlorophenyl)-3-[3-(pyrimidin-2-yl)-1,2,4-oxadiazol-5-yl]azetidine-1-carboxamide

>  <PriceCoeff>
1.00

>  <CAS>
1327529-24-7

>  <MW>
391.21

>  <Description>
solid

>  <FSP3>
0.19

>  <clogP>
1.06

>  <TPSA>
97.04

>  <Acceptor>
6

>  <Donor>
1

>  <RotBonds>
4

>  <HAC>
26

>  <Collection>
General

>  <PPDS>
+

$$$$
F6064-1564
  Mrv2219 10102508112D          

 27 30  0  0  0  0            999 V2000
    9.4351   -5.1517    0.0000 S   0  0  0  0  0  0  0  0  0  0  0  0
   12.7540   -5.8781    0.0000 N   0  0  0  0  0  0  0  0  0  0  0  0
   13.5431   -5.6026    0.0000 C   0  0  0  0  0  0  0  0  0  0  0  0
   10.2617   -5.1768    0.0000 N   0  0  0  0  0  0  0  0  0  0  0  0
    7.3518   -5.8280    0.0000 N   0  0  0  0  0  0  0  0  0  0  0  0
   12.2531   -5.2227    0.0000 C   0  0  0  0  0  0  0  0  0  0  0  0
   13.5180   -4.7760    0.0000 N   0  0  0  0  0  0  0  0  0  0  0  0
   11.4264   -5.2018    0.0000 C   0  0  0  0  0  0  0  0  0  0  0  0
   12.7290   -4.5380    0.0000 O   0  0  0  0  0  0  0  0  0  0  0  0
    8.6085   -5.1392    0.0000 C   0  0  0  0  0  0  0  0  0  0  0  0
   14.2194   -6.0743    0.0000 C   0  0  0  0  0  0  0  0  0  0  0  0
    6.9177   -6.5294    0.0000 C   0  0  0  0  0  0  0  0  0  0  0  0
    6.9510   -5.1099    0.0000 C   0  0  0  0  0  0  0  0  0  0  0  0
   10.8336   -5.7737    0.0000 C   0  0  0  0  0  0  0  0  0  0  0  0
   10.8628   -4.6007    0.0000 C   0  0  0  0  0  0  0  0  0  0  0  0
    8.1826   -5.8489    0.0000 C   0  0  0  0  0  0  0  0  0  0  0  0
   14.2402   -6.8926    0.0000 S   0  0  0  0  0  0  0  0  0  0  0  0
    9.4559   -4.3251    0.0000 O   0  0  0  0  0  0  0  0  0  0  0  0
    9.4225   -5.9783    0.0000 O   0  0  0  0  0  0  0  0  0  0  0  0
   14.9959   -5.7988    0.0000 C   0  0  0  0  0  0  0  0  0  0  0  0
    7.3184   -7.2558    0.0000 O   0  0  0  0  0  0  0  0  0  0  0  0
    7.3769   -4.3877    0.0000 O   0  0  0  0  0  0  0  0  0  0  0  0
   15.0335   -7.1306    0.0000 C   0  0  0  0  0  0  0  0  0  0  0  0
   15.4969   -6.4543    0.0000 C   0  0  0  0  0  0  0  0  0  0  0  0
    6.1286   -5.0891    0.0000 C   0  0  0  0  0  0  0  0  0  0  0  0
    6.0911   -6.5169    0.0000 C   0  0  0  0  0  0  0  0  0  0  0  0
    5.6986   -5.7905    0.0000 C   0  0  0  0  0  0  0  0  0  0  0  0
  2  6  2  0  0  0  0
  3  2  1  0  0  0  0
  4  1  1  0  0  0  0
  5 16  1  0  0  0  0
  6  8  1  0  0  0  0
  7  9  1  0  0  0  0
  8 15  1  0  0  0  0
  9  6  1  0  0  0  0
 10  1  1  0  0  0  0
 11  3  1  0  0  0  0
 12  5  1  0  0  0  0
 13  5  1  0  0  0  0
 14  4  1  0  0  0  0
 15  4  1  0  0  0  0
 16 10  1  0  0  0  0
 17 11  1  0  0  0  0
 18  1  2  0  0  0  0
 19  1  2  0  0  0  0
 20 11  2  0  0  0  0
 21 12  2  0  0  0  0
 22 13  2  0  0  0  0
 23 17  1  0  0  0  0
 24 20  1  0  0  0  0
 25 13  1  0  0  0  0
 26 12  1  0  0  0  0
 27 25  1  0  0  0  0
  8 14  1  0  0  0  0
 27 26  1  0  0  0  0
  7  3  2  0  0  0  0
 24 23  2  0  0  0  0
M  END
>  <IDNUMBER>
F6064-1564

>  <Chemical_Name>
1-[2-({3-[3-(thiophen-2-yl)-1,2,4-oxadiazol-5-yl]azetidin-1-yl}sulfonyl)ethyl]piperidine-2,6-dione

>  <PriceCoeff>
1.00

>  <CAS>
1323776-29-9

>  <MW>
410.47

>  <Description>
solid

>  <FSP3>
0.50

>  <clogP>
0.89

>  <TPSA>
150.30

>  <Acceptor>
7

>  <Donor>
0

>  <RotBonds>
6

>  <HAC>
27

>  <Collection>
General

>  <PPDS>
+

$$$$
F6064-2523
  Mrv2219 10102508112D          

 26 29  0  0  0  0            999 V2000
   10.1875   -8.6500    0.0000 N   0  0  0  0  0  0  0  0  0  0  0  0
   11.0042   -8.7667    0.0000 C   0  0  0  0  0  0  0  0  0  0  0  0
   10.0542   -7.8292    0.0000 C   0  0  0  0  0  0  0  0  0  0  0  0
    8.3167   -6.8625    0.0000 N   0  0  0  0  0  0  0  0  0  0  0  0
    7.6042   -6.4625    0.0000 C   0  0  0  0  0  0  0  0  0  0  0  0
   11.3792   -8.0292    0.0000 N   0  0  0  0  0  0  0  0  0  0  0  0
    9.3292   -7.4292    0.0000 C   0  0  0  0  0  0  0  0  0  0  0  0
   10.7917   -7.4542    0.0000 O   0  0  0  0  0  0  0  0  0  0  0  0
   11.3875   -9.5000    0.0000 C   0  0  0  0  0  0  0  0  0  0  0  0
    8.5417   -7.6542    0.0000 C   0  0  0  0  0  0  0  0  0  0  0  0
    9.1167   -6.6375    0.0000 C   0  0  0  0  0  0  0  0  0  0  0  0
    6.8917   -6.8792    0.0000 N   0  0  0  0  0  0  0  0  0  0  0  0
    5.4500   -5.2500    0.0000 C   0  0  0  0  0  0  0  0  0  0  0  0
    6.1667   -5.6542    0.0000 C   0  0  0  0  0  0  0  0  0  0  0  0
   10.9417  -10.1917    0.0000 N   0  0  0  0  0  0  0  0  0  0  0  0
    6.1750   -6.4792    0.0000 C   0  0  0  0  0  0  0  0  0  0  0  0
    7.5917   -5.6375    0.0000 O   0  0  0  0  0  0  0  0  0  0  0  0
    4.7375   -5.6667    0.0000 C   0  0  0  0  0  0  0  0  0  0  0  0
   12.5875  -10.2625    0.0000 N   0  0  0  0  0  0  0  0  0  0  0  0
    4.7417   -6.4917    0.0000 C   0  0  0  0  0  0  0  0  0  0  0  0
    5.4417   -4.4250    0.0000 Cl  0  0  0  0  0  0  0  0  0  0  0  0
   12.2042   -9.5292    0.0000 C   0  0  0  0  0  0  0  0  0  0  0  0
    5.4625   -6.9000    0.0000 C   0  0  0  0  0  0  0  0  0  0  0  0
    4.0167   -5.2625    0.0000 Cl  0  0  0  0  0  0  0  0  0  0  0  0
   11.3250  -10.9250    0.0000 C   0  0  0  0  0  0  0  0  0  0  0  0
   12.1417  -10.9542    0.0000 C   0  0  0  0  0  0  0  0  0  0  0  0
  2  1  1  0  0  0  0
  3  1  2  0  0  0  0
  4 11  1  0  0  0  0
  5  4  1  0  0  0  0
  6  2  2  0  0  0  0
  7  3  1  0  0  0  0
  8  3  1  0  0  0  0
  9  2  1  0  0  0  0
 10  7  1  0  0  0  0
 11  7  1  0  0  0  0
 12  5  1  0  0  0  0
 13 14  1  0  0  0  0
 14 16  2  0  0  0  0
 15  9  2  0  0  0  0
 16 12  1  0  0  0  0
 17  5  2  0  0  0  0
 18 20  1  0  0  0  0
 19 22  2  0  0  0  0
 20 23  2  0  0  0  0
 21 13  1  0  0  0  0
 22  9  1  0  0  0  0
 23 16  1  0  0  0  0
 24 18  1  0  0  0  0
 25 15  1  0  0  0  0
 26 19  1  0  0  0  0
  8  6  1  0  0  0  0
 10  4  1  0  0  0  0
 26 25  2  0  0  0  0
 13 18  2  0  0  0  0
M  END
>  <IDNUMBER>
F6064-2523

>  <Chemical_Name>
N-(3,4-dichlorophenyl)-3-[3-(pyrazin-2-yl)-1,2,4-oxadiazol-5-yl]azetidine-1-carboxamide

>  <PriceCoeff>
1.00

>  <CAS>
1327231-84-4

>  <MW>
391.21

>  <Description>
solid

>  <FSP3>
0.19

>  <clogP>
1.06

>  <TPSA>
97.04

>  <Acceptor>
6

>  <Donor>
1

>  <RotBonds>
4

>  <HAC>
26

>  <Collection>
General

>  <PPDS>
+

$$$$
F6064-2776
  Mrv2219 10102508112D          

 26 29  0  0  0  0            999 V2000
   -5.2985    2.5761    0.0000 N   0  0  0  0  0  0  0  0  0  0  0  0
   -1.3862    4.8851    0.0000 N   0  0  0  0  0  0  0  0  0  0  0  0
   -2.1419    5.2150    0.0000 C   0  0  0  0  0  0  0  0  0  0  0  0
   -0.8267    5.5031    0.0000 C   0  0  0  0  0  0  0  0  0  0  0  0
   -3.8705    4.2212    0.0000 N   0  0  0  0  0  0  0  0  0  0  0  0
   -1.2484    6.2171    0.0000 N   0  0  0  0  0  0  0  0  0  0  0  0
   -2.8559    4.8016    0.0000 C   0  0  0  0  0  0  0  0  0  0  0  0
   -4.5928    3.8162    0.0000 C   0  0  0  0  0  0  0  0  0  0  0  0
   -4.5928    2.9937    0.0000 C   0  0  0  0  0  0  0  0  0  0  0  0
   -2.0500    6.0417    0.0000 O   0  0  0  0  0  0  0  0  0  0  0  0
   -5.3819    1.7494    0.0000 C   0  0  0  0  0  0  0  0  0  0  0  0
   -6.0417    2.9060    0.0000 C   0  0  0  0  0  0  0  0  0  0  0  0
   -3.0688    4.0083    0.0000 C   0  0  0  0  0  0  0  0  0  0  0  0
   -3.6534    5.0146    0.0000 C   0  0  0  0  0  0  0  0  0  0  0  0
    0.0000    5.4154    0.0000 C   0  0  0  0  0  0  0  0  0  0  0  0
   -5.3068    4.2212    0.0000 O   0  0  0  0  0  0  0  0  0  0  0  0
   -6.5928    2.2880    0.0000 C   0  0  0  0  0  0  0  0  0  0  0  0
   -6.1795    1.5741    0.0000 C   0  0  0  0  0  0  0  0  0  0  0  0
   -6.2171    3.7160    0.0000 O   0  0  0  0  0  0  0  0  0  0  0  0
   -4.7598    1.1858    0.0000 O   0  0  0  0  0  0  0  0  0  0  0  0
    0.3382    4.6638    0.0000 C   0  0  0  0  0  0  0  0  0  0  0  0
    1.1566    4.5762    0.0000 C   0  0  0  0  0  0  0  0  0  0  0  0
    1.4948    3.8287    0.0000 Cl  0  0  0  0  0  0  0  0  0  0  0  0
    0.4802    6.0918    0.0000 C   0  0  0  0  0  0  0  0  0  0  0  0
    1.3069    6.0041    0.0000 C   0  0  0  0  0  0  0  0  0  0  0  0
    1.6451    5.2400    0.0000 C   0  0  0  0  0  0  0  0  0  0  0  0
  2  3  2  0  0  0  0
  3  7  1  0  0  0  0
  4  2  1  0  0  0  0
  5  8  1  0  0  0  0
  6 10  1  0  0  0  0
  7 14  1  0  0  0  0
  8  9  1  0  0  0  0
  9  1  1  0  0  0  0
 10  3  1  0  0  0  0
 11  1  1  0  0  0  0
 12  1  1  0  0  0  0
 13  5  1  0  0  0  0
 14  5  1  0  0  0  0
 15  4  1  0  0  0  0
 16  8  2  0  0  0  0
 17 12  1  0  0  0  0
 18 11  1  0  0  0  0
 19 12  2  0  0  0  0
 20 11  2  0  0  0  0
 21 15  2  0  0  0  0
 22 21  1  0  0  0  0
 23 22  1  0  0  0  0
 24 15  1  0  0  0  0
 25 24  2  0  0  0  0
 26 25  1  0  0  0  0
 17 18  1  0  0  0  0
 13  7  1  0  0  0  0
  4  6  2  0  0  0  0
 22 26  2  0  0  0  0
M  END
>  <IDNUMBER>
F6064-2776

>  <Chemical_Name>
1-(2-{3-[3-(3-chlorophenyl)-1,2,4-oxadiazol-5-yl]azetidin-1-yl}-2-oxoethyl)pyrrolidine-2,5-dione

>  <PriceCoeff>
1.00

>  <CAS>
1351599-88-6

>  <MW>
374.78

>  <Description>
solid

>  <FSP3>
0.35

>  <clogP>
0.48

>  <TPSA>
96.61

>  <Acceptor>
6

>  <Donor>
0

>  <RotBonds>
5

>  <HAC>
26

>  <Collection>
General

>  <PPDS>
+

$$$$
F6064-3285
  Mrv2219 10102508112D          

 29 32  0  0  0  0            999 V2000
   -5.2842    2.5651    0.0000 N   0  0  0  0  0  0  0  0  0  0  0  0
   -1.3720    4.8560    0.0000 N   0  0  0  0  0  0  0  0  0  0  0  0
   -2.1286    5.1927    0.0000 C   0  0  0  0  0  0  0  0  0  0  0  0
   -0.8231    5.4672    0.0000 C   0  0  0  0  0  0  0  0  0  0  0  0
   -3.8540    4.2032    0.0000 N   0  0  0  0  0  0  0  0  0  0  0  0
   -1.2306    6.1863    0.0000 N   0  0  0  0  0  0  0  0  0  0  0  0
   -2.8395    4.7811    0.0000 C   0  0  0  0  0  0  0  0  0  0  0  0
   -4.5732    3.7999    0.0000 C   0  0  0  0  0  0  0  0  0  0  0  0
   -4.5732    2.9892    0.0000 C   0  0  0  0  0  0  0  0  0  0  0  0
    1.4884    3.7917    0.0000 C   0  0  0  0  0  0  0  0  0  0  0  0
   -2.0330    6.0117    0.0000 O   0  0  0  0  0  0  0  0  0  0  0  0
   -5.3632    1.7420    0.0000 C   0  0  0  0  0  0  0  0  0  0  0  0
   -6.0159    2.9019    0.0000 C   0  0  0  0  0  0  0  0  0  0  0  0
   -3.6378    5.0015    0.0000 C   0  0  0  0  0  0  0  0  0  0  0  0
   -3.0557    3.9912    0.0000 C   0  0  0  0  0  0  0  0  0  0  0  0
    0.0042    5.3798    0.0000 C   0  0  0  0  0  0  0  0  0  0  0  0
    1.1516    4.5317    0.0000 C   0  0  0  0  0  0  0  0  0  0  0  0
    0.3285    4.6273    0.0000 C   0  0  0  0  0  0  0  0  0  0  0  0
   -5.2842    4.2074    0.0000 O   0  0  0  0  0  0  0  0  0  0  0  0
   -6.5730    2.2908    0.0000 C   0  0  0  0  0  0  0  0  0  0  0  0
   -6.1531    1.5715    0.0000 C   0  0  0  0  0  0  0  0  0  0  0  0
   -6.1905    3.7126    0.0000 O   0  0  0  0  0  0  0  0  0  0  0  0
   -4.7478    1.1849    0.0000 O   0  0  0  0  0  0  0  0  0  0  0  0
    1.1017    3.0266    0.0000 F   0  0  0  0  0  0  0  0  0  0  0  0
    2.3241    3.5629    0.0000 F   0  0  0  0  0  0  0  0  0  0  0  0
    1.7878    3.1056    0.0000 F   0  0  0  0  0  0  0  0  0  0  0  0
    1.6464    5.2052    0.0000 C   0  0  0  0  0  0  0  0  0  0  0  0
    0.4865    6.0491    0.0000 C   0  0  0  0  0  0  0  0  0  0  0  0
    1.3013    5.9660    0.0000 C   0  0  0  0  0  0  0  0  0  0  0  0
  2  3  2  0  0  0  0
  3  7  1  0  0  0  0
  4  2  1  0  0  0  0
  5  8  1  0  0  0  0
  6 11  1  0  0  0  0
  7 15  1  0  0  0  0
  8  9  1  0  0  0  0
  9  1  1  0  0  0  0
 10 17  1  0  0  0  0
 11  3  1  0  0  0  0
 12  1  1  0  0  0  0
 13  1  1  0  0  0  0
 14  5  1  0  0  0  0
 15  5  1  0  0  0  0
 16  4  1  0  0  0  0
 17 18  1  0  0  0  0
 18 16  2  0  0  0  0
 19  8  2  0  0  0  0
 20 13  1  0  0  0  0
 21 12  1  0  0  0  0
 22 13  2  0  0  0  0
 23 12  2  0  0  0  0
 24 10  1  0  0  0  0
 25 10  1  0  0  0  0
 26 10  1  0  0  0  0
 27 29  1  0  0  0  0
 28 16  1  0  0  0  0
 29 28  2  0  0  0  0
 20 21  1  0  0  0  0
  7 14  1  0  0  0  0
  4  6  2  0  0  0  0
 17 27  2  0  0  0  0
M  END
>  <IDNUMBER>
F6064-3285

>  <Chemical_Name>
1-[2-oxo-2-(3-{3-[3-(trifluoromethyl)phenyl]-1,2,4-oxadiazol-5-yl}azetidin-1-yl)ethyl]pyrrolidine-2,5-dione

>  <PriceCoeff>
1.00

>  <CAS>
1396843-19-8

>  <MW>
408.33

>  <Description>
solid

>  <FSP3>
0.39

>  <clogP>
0.65

>  <TPSA>
96.61

>  <Acceptor>
6

>  <Donor>
0

>  <RotBonds>
5

>  <HAC>
29

>  <Collection>
General

>  <PPDS>
+

$$$$
F6064-3978
  Mrv2219 10102508112D          

 30 33  0  0  0  0            999 V2000
   -1.3885    4.8850    0.0000 N   0  0  0  0  0  0  0  0  0  0  0  0
   -2.1455    5.2238    0.0000 C   0  0  0  0  0  0  0  0  0  0  0  0
   -3.8770    4.2284    0.0000 N   0  0  0  0  0  0  0  0  0  0  0  0
   -0.8281    5.4998    0.0000 C   0  0  0  0  0  0  0  0  0  0  0  0
   -4.6006    3.8143    0.0000 C   0  0  0  0  0  0  0  0  0  0  0  0
   -1.2505    6.2276    0.0000 N   0  0  0  0  0  0  0  0  0  0  0  0
   -2.8691    4.8097    0.0000 C   0  0  0  0  0  0  0  0  0  0  0  0
   -2.0577    6.0477    0.0000 O   0  0  0  0  0  0  0  0  0  0  0  0
   -3.0824    4.0151    0.0000 C   0  0  0  0  0  0  0  0  0  0  0  0
   -3.6637    5.0230    0.0000 C   0  0  0  0  0  0  0  0  0  0  0  0
   -4.6006    2.9945    0.0000 N   0  0  0  0  0  0  0  0  0  0  0  0
    1.4848    3.8268    0.0000 C   0  0  0  0  0  0  0  0  0  0  0  0
   -0.0083    5.4245    0.0000 C   0  0  0  0  0  0  0  0  0  0  0  0
    1.1460    4.5797    0.0000 C   0  0  0  0  0  0  0  0  0  0  0  0
   -6.0268    1.3425    0.0000 C   0  0  0  0  0  0  0  0  0  0  0  0
    0.3304    4.6592    0.0000 C   0  0  0  0  0  0  0  0  0  0  0  0
   -5.3283    1.7524    0.0000 C   0  0  0  0  0  0  0  0  0  0  0  0
   -5.3199    2.5930    0.0000 C   0  0  0  0  0  0  0  0  0  0  0  0
   -5.3199    4.2284    0.0000 O   0  0  0  0  0  0  0  0  0  0  0  0
   -6.7420    1.7524    0.0000 C   0  0  0  0  0  0  0  0  0  0  0  0
    2.3129    3.7474    0.0000 O   0  0  0  0  0  0  0  0  0  0  0  0
    1.0038    3.1576    0.0000 N   0  0  0  0  0  0  0  0  0  0  0  0
   -6.7420    2.5805    0.0000 C   0  0  0  0  0  0  0  0  0  0  0  0
   -6.0268    0.5102    0.0000 Cl  0  0  0  0  0  0  0  0  0  0  0  0
   -6.0268    2.9945    0.0000 C   0  0  0  0  0  0  0  0  0  0  0  0
   -7.4697    1.3300    0.0000 Cl  0  0  0  0  0  0  0  0  0  0  0  0
    0.4768    6.0895    0.0000 C   0  0  0  0  0  0  0  0  0  0  0  0
    1.6353    5.2489    0.0000 C   0  0  0  0  0  0  0  0  0  0  0  0
    1.2966    6.0017    0.0000 C   0  0  0  0  0  0  0  0  0  0  0  0
    1.3342    2.4048    0.0000 C   0  0  0  0  0  0  0  0  0  0  0  0
  2  1  2  0  0  0  0
  3 10  1  0  0  0  0
  4  1  1  0  0  0  0
  5  3  1  0  0  0  0
  6  4  2  0  0  0  0
  7  2  1  0  0  0  0
  8  2  1  0  0  0  0
  9  7  1  0  0  0  0
 10  7  1  0  0  0  0
 11  5  1  0  0  0  0
 12 14  1  0  0  0  0
 13  4  1  0  0  0  0
 14 16  1  0  0  0  0
 15 17  1  0  0  0  0
 16 13  2  0  0  0  0
 17 18  2  0  0  0  0
 18 11  1  0  0  0  0
 19  5  2  0  0  0  0
 20 23  1  0  0  0  0
 21 12  2  0  0  0  0
 22 12  1  0  0  0  0
 23 25  2  0  0  0  0
 24 15  1  0  0  0  0
 25 18  1  0  0  0  0
 26 20  1  0  0  0  0
 27 13  1  0  0  0  0
 28 29  1  0  0  0  0
 29 27  2  0  0  0  0
 30 22  1  0  0  0  0
  6  8  1  0  0  0  0
  3  9  1  0  0  0  0
 14 28  2  0  0  0  0
 15 20  2  0  0  0  0
M  END
>  <IDNUMBER>
F6064-3978

>  <Chemical_Name>
N-(3,4-dichlorophenyl)-3-{3-[3-(methylcarbamoyl)phenyl]-1,2,4-oxadiazol-5-yl}azetidine-1-carboxamide

>  <PriceCoeff>
1.00

>  <CAS>
1396802-36-0

>  <MW>
446.29

>  <Description>
solid

>  <FSP3>
0.20

>  <clogP>
2.12

>  <TPSA>
100.36

>  <Acceptor>
5

>  <Donor>
2

>  <RotBonds>
5

>  <HAC>
30

>  <Collection>
General

>  <PPDS>
+

$$$$
F6064-4996
  Mrv2219 10102508112D          

 25 28  0  0  0  0            999 V2000
   -1.3743    4.8643    0.0000 N   0  0  0  0  0  0  0  0  0  0  0  0
   -0.8204    5.4765    0.0000 C   0  0  0  0  0  0  0  0  0  0  0  0
   -2.1323    5.2016    0.0000 C   0  0  0  0  0  0  0  0  0  0  0  0
   -3.8606    4.2104    0.0000 N   0  0  0  0  0  0  0  0  0  0  0  0
   -4.5810    3.8064    0.0000 C   0  0  0  0  0  0  0  0  0  0  0  0
   -1.2327    6.1887    0.0000 N   0  0  0  0  0  0  0  0  0  0  0  0
   -2.8486    4.7768    0.0000 C   0  0  0  0  0  0  0  0  0  0  0  0
    0.0042    5.3890    0.0000 C   0  0  0  0  0  0  0  0  0  0  0  0
   -2.0323    6.0137    0.0000 O   0  0  0  0  0  0  0  0  0  0  0  0
   -3.6440    5.0017    0.0000 C   0  0  0  0  0  0  0  0  0  0  0  0
   -3.0610    3.9980    0.0000 C   0  0  0  0  0  0  0  0  0  0  0  0
   -4.5810    2.9818    0.0000 N   0  0  0  0  0  0  0  0  0  0  0  0
   -6.0095    1.3368    0.0000 C   0  0  0  0  0  0  0  0  0  0  0  0
   -5.3057    1.7449    0.0000 C   0  0  0  0  0  0  0  0  0  0  0  0
    1.3161    5.6639    0.0000 S   0  0  0  0  0  0  0  0  0  0  0  0
    0.5539    6.0012    0.0000 C   0  0  0  0  0  0  0  0  0  0  0  0
    0.4165    4.6644    0.0000 C   0  0  0  0  0  0  0  0  0  0  0  0
   -5.2974    2.5820    0.0000 C   0  0  0  0  0  0  0  0  0  0  0  0
   -5.2974    4.2146    0.0000 O   0  0  0  0  0  0  0  0  0  0  0  0
   -6.7134    1.7491    0.0000 C   0  0  0  0  0  0  0  0  0  0  0  0
    1.2244    4.8393    0.0000 C   0  0  0  0  0  0  0  0  0  0  0  0
   -6.7134    2.5695    0.0000 C   0  0  0  0  0  0  0  0  0  0  0  0
   -6.0137    0.5122    0.0000 Cl  0  0  0  0  0  0  0  0  0  0  0  0
   -6.0012    2.9860    0.0000 C   0  0  0  0  0  0  0  0  0  0  0  0
   -7.4380    1.3326    0.0000 Cl  0  0  0  0  0  0  0  0  0  0  0  0
  2  1  1  0  0  0  0
  3  1  2  0  0  0  0
  4 11  1  0  0  0  0
  5  4  1  0  0  0  0
  6  2  2  0  0  0  0
  7  3  1  0  0  0  0
  8  2  1  0  0  0  0
  9  3  1  0  0  0  0
 10  7  1  0  0  0  0
 11  7  1  0  0  0  0
 12  5  1  0  0  0  0
 13 14  1  0  0  0  0
 14 18  2  0  0  0  0
 15 16  1  0  0  0  0
 16  8  2  0  0  0  0
 17  8  1  0  0  0  0
 18 12  1  0  0  0  0
 19  5  2  0  0  0  0
 20 22  1  0  0  0  0
 21 17  2  0  0  0  0
 22 24  2  0  0  0  0
 23 13  1  0  0  0  0
 24 18  1  0  0  0  0
 25 20  1  0  0  0  0
  6  9  1  0  0  0  0
 10  4  1  0  0  0  0
 21 15  1  0  0  0  0
 13 20  2  0  0  0  0
M  END
>  <IDNUMBER>
F6064-4996

>  <Chemical_Name>
N-(3,4-dichlorophenyl)-3-[3-(thiophen-3-yl)-1,2,4-oxadiazol-5-yl]azetidine-1-carboxamide

>  <PriceCoeff>
1.00

>  <CAS>
1396749-87-3

>  <MW>
395.26

>  <Description>
solid

>  <FSP3>
0.19

>  <clogP>
3.14

>  <TPSA>
99.50

>  <Acceptor>
4

>  <Donor>
1

>  <RotBonds>
4

>  <HAC>
25

>  <Collection>
General

>  <PPDS>
+

$$$$
F6064-5505
  Mrv2219 10102508112D          

 29 32  0  0  0  0            999 V2000
   -1.3847    4.8716    0.0000 N   0  0  0  0  0  0  0  0  0  0  0  0
   -3.8664    4.2167    0.0000 N   0  0  0  0  0  0  0  0  0  0  0  0
   -2.1396    5.2094    0.0000 C   0  0  0  0  0  0  0  0  0  0  0  0
   -4.5879    3.8121    0.0000 C   0  0  0  0  0  0  0  0  0  0  0  0
   -2.8529    4.7965    0.0000 C   0  0  0  0  0  0  0  0  0  0  0  0
   -0.8216    5.4847    0.0000 C   0  0  0  0  0  0  0  0  0  0  0  0
   -1.2387    6.2104    0.0000 N   0  0  0  0  0  0  0  0  0  0  0  0
   -2.0479    6.0353    0.0000 O   0  0  0  0  0  0  0  0  0  0  0  0
   -3.0739    4.0040    0.0000 C   0  0  0  0  0  0  0  0  0  0  0  0
   -3.6495    5.0092    0.0000 C   0  0  0  0  0  0  0  0  0  0  0  0
   -4.5879    2.9863    0.0000 N   0  0  0  0  0  0  0  0  0  0  0  0
   -6.0102    1.3388    0.0000 C   0  0  0  0  0  0  0  0  0  0  0  0
   -5.3136    1.7476    0.0000 C   0  0  0  0  0  0  0  0  0  0  0  0
    0.0000    5.3971    0.0000 C   0  0  0  0  0  0  0  0  0  0  0  0
    0.4922    6.0728    0.0000 C   0  0  0  0  0  0  0  0  0  0  0  0
   -5.3053    2.5859    0.0000 C   0  0  0  0  0  0  0  0  0  0  0  0
   -5.3053    4.2167    0.0000 O   0  0  0  0  0  0  0  0  0  0  0  0
   -6.7235    1.7476    0.0000 C   0  0  0  0  0  0  0  0  0  0  0  0
    1.3055    5.9852    0.0000 C   0  0  0  0  0  0  0  0  0  0  0  0
   -6.7235    2.5734    0.0000 C   0  0  0  0  0  0  0  0  0  0  0  0
   -6.0185    0.5088    0.0000 Cl  0  0  0  0  0  0  0  0  0  0  0  0
   -6.0102    2.9863    0.0000 C   0  0  0  0  0  0  0  0  0  0  0  0
   -7.4492    1.3263    0.0000 Cl  0  0  0  0  0  0  0  0  0  0  0  0
    1.6434    5.2219    0.0000 O   0  0  0  0  0  0  0  0  0  0  0  0
    0.1502    6.8236    0.0000 C   0  0  0  0  0  0  0  0  0  0  0  0
    1.7935    6.6484    0.0000 C   0  0  0  0  0  0  0  0  0  0  0  0
    2.4692    5.1344    0.0000 C   0  0  0  0  0  0  0  0  0  0  0  0
    0.6298    7.4950    0.0000 C   0  0  0  0  0  0  0  0  0  0  0  0
    1.4640    7.4074    0.0000 C   0  0  0  0  0  0  0  0  0  0  0  0
  2 10  1  0  0  0  0
  3  1  2  0  0  0  0
  4  2  1  0  0  0  0
  5  3  1  0  0  0  0
  6  1  1  0  0  0  0
  7  6  2  0  0  0  0
  8  3  1  0  0  0  0
  9  5  1  0  0  0  0
 10  5  1  0  0  0  0
 11  4  1  0  0  0  0
 12 13  1  0  0  0  0
 13 16  2  0  0  0  0
 14  6  1  0  0  0  0
 15 14  1  0  0  0  0
 16 11  1  0  0  0  0
 17  4  2  0  0  0  0
 18 20  1  0  0  0  0
 19 15  2  0  0  0  0
 20 22  2  0  0  0  0
 21 12  1  0  0  0  0
 22 16  1  0  0  0  0
 23 18  1  0  0  0  0
 24 19  1  0  0  0  0
 25 15  1  0  0  0  0
 26 19  1  0  0  0  0
 27 24  1  0  0  0  0
 28 25  2  0  0  0  0
 29 28  1  0  0  0  0
  7  8  1  0  0  0  0
  2  9  1  0  0  0  0
 26 29  2  0  0  0  0
 12 18  2  0  0  0  0
M  END
>  <IDNUMBER>
F6064-5505

>  <Chemical_Name>
N-(3,4-dichlorophenyl)-3-{3-[(2-methoxyphenyl)methyl]-1,2,4-oxadiazol-5-yl}azetidine-1-carboxamide

>  <PriceCoeff>
1.00

>  <CAS>
1396682-96-4

>  <MW>
433.29

>  <Description>
solid

>  <FSP3>
0.25

>  <clogP>
3.11

>  <TPSA>
80.49

>  <Acceptor>
5

>  <Donor>
1

>  <RotBonds>
6

>  <HAC>
29

>  <Collection>
General

$$$$
F6089-7965
  Mrv2219 10102508112D          

 21 22  0  0  0  0            999 V2000
   -4.5765    3.7943    0.0000 S   0  0  0  0  0  0  0  0  0  0  0  0
   -6.7067    3.3533    0.0000 N   0  0  0  0  0  0  0  0  0  0  0  0
   -7.4306    3.7527    0.0000 C   0  0  0  0  0  0  0  0  0  0  0  0
   -6.6942    2.5170    0.0000 C   0  0  0  0  0  0  0  0  0  0  0  0
   -5.2796    3.3783    0.0000 C   0  0  0  0  0  0  0  0  0  0  0  0
   -5.9953    3.7777    0.0000 C   0  0  0  0  0  0  0  0  0  0  0  0
   -3.8567    4.2062    0.0000 N   0  0  0  0  0  0  0  0  0  0  0  0
   -4.1521    3.1037    0.0000 O   0  0  0  0  0  0  0  0  0  0  0  0
   -5.0008    4.4975    0.0000 O   0  0  0  0  0  0  0  0  0  0  0  0
   -3.1411    5.4461    0.0000 C   0  0  0  0  0  0  0  0  0  0  0  0
   -3.8567    5.0342    0.0000 C   0  0  0  0  0  0  0  0  0  0  0  0
   -7.4556    4.5724    0.0000 O   0  0  0  0  0  0  0  0  0  0  0  0
   -5.9744    2.1176    0.0000 O   0  0  0  0  0  0  0  0  0  0  0  0
   -2.4297    5.0342    0.0000 O   0  0  0  0  0  0  0  0  0  0  0  0
   -7.3932    2.0927    0.0000 C   0  0  0  0  0  0  0  0  0  0  0  0
   -8.1421    3.3159    0.0000 C   0  0  0  0  0  0  0  0  0  0  0  0
   -8.1171    2.4838    0.0000 C   0  0  0  0  0  0  0  0  0  0  0  0
   -2.4796    5.9329    0.0000 C   0  0  0  0  0  0  0  0  0  0  0  0
   -3.8151    5.9329    0.0000 C   0  0  0  0  0  0  0  0  0  0  0  0
   -3.5530    6.7192    0.0000 C   0  0  0  0  0  0  0  0  0  0  0  0
   -2.7292    6.7192    0.0000 C   0  0  0  0  0  0  0  0  0  0  0  0
  2  6  1  0  0  0  0
  3  2  1  0  0  0  0
  4  2  1  0  0  0  0
  5  1  1  0  0  0  0
  6  5  1  0  0  0  0
  7  1  1  0  0  0  0
  8  1  2  0  0  0  0
  9  1  2  0  0  0  0
 10 11  1  0  0  0  0
 11  7  1  0  0  0  0
 12  3  2  0  0  0  0
 13  4  2  0  0  0  0
 14 10  1  0  0  0  0
 15  4  1  0  0  0  0
 16  3  1  0  0  0  0
 17 15  1  0  0  0  0
 18 10  1  0  0  0  0
 19 10  1  0  0  0  0
 20 19  1  0  0  0  0
 21 18  1  0  0  0  0
 20 21  1  0  0  0  0
 16 17  1  0  0  0  0
M  END
>  <IDNUMBER>
F6089-7965

>  <Chemical_Name>
2-(2,6-dioxopiperidin-1-yl)-N-[(1-hydroxycyclopentyl)methyl]ethane-1-sulfonamide

>  <PriceCoeff>
1.00

>  <MW>
318.39

>  <Description>
oil

>  <FSP3>
0.85

>  <clogP>
0.62

>  <TPSA>
117.52

>  <Acceptor>
5

>  <Donor>
2

>  <RotBonds>
6

>  <HAC>
21

>  <Collection>
General

$$$$
F6110-1885
  Mrv2219 10102508112D          

 30 30  0  0  0  0            999 V2000
   -4.5642    3.7841    0.0000 C   0  0  0  0  0  0  0  0  0  0  0  0
   -4.5642    2.9668    0.0000 C   0  0  0  0  0  0  0  0  0  0  0  0
   -1.7261    6.2654    0.0000 N   0  0  0  0  0  0  0  0  0  0  0  0
   -3.8464    4.1949    0.0000 N   0  0  0  0  0  0  0  0  0  0  0  0
   -1.7385    7.9210    0.0000 N   0  0  0  0  0  0  0  0  0  0  0  0
   -1.0165    6.6927    0.0000 C   0  0  0  0  0  0  0  0  0  0  0  0
   -5.2779    2.5476    0.0000 C   0  0  0  0  0  0  0  0  0  0  0  0
   -1.7178    5.4439    0.0000 C   0  0  0  0  0  0  0  0  0  0  0  0
   -1.0207    7.5227    0.0000 C   0  0  0  0  0  0  0  0  0  0  0  0
   -5.2737    4.1866    0.0000 O   0  0  0  0  0  0  0  0  0  0  0  0
   -2.4398    6.6845    0.0000 C   0  0  0  0  0  0  0  0  0  0  0  0
   -3.8464    5.0207    0.0000 C   0  0  0  0  0  0  0  0  0  0  0  0
   -3.1327    3.7841    0.0000 C   0  0  0  0  0  0  0  0  0  0  0  0
   -2.4480    7.5102    0.0000 C   0  0  0  0  0  0  0  0  0  0  0  0
   -5.9791    2.9584    0.0000 F   0  0  0  0  0  0  0  0  0  0  0  0
   -2.4356    5.0123    0.0000 C   0  0  0  0  0  0  0  0  0  0  0  0
   -3.8464    2.5601    0.0000 C   0  0  0  0  0  0  0  0  0  0  0  0
   -3.1451    5.4314    0.0000 C   0  0  0  0  0  0  0  0  0  0  0  0
   -2.4149    4.1991    0.0000 C   0  0  0  0  0  0  0  0  0  0  0  0
   -1.7510    8.7426    0.0000 C   0  0  0  0  0  0  0  0  0  0  0  0
   -0.2946    6.2903    0.0000 C   0  0  0  0  0  0  0  0  0  0  0  0
   -5.2737    1.7261    0.0000 C   0  0  0  0  0  0  0  0  0  0  0  0
   -3.8464    1.7385    0.0000 C   0  0  0  0  0  0  0  0  0  0  0  0
   -4.5601    1.3195    0.0000 C   0  0  0  0  0  0  0  0  0  0  0  0
    1.9428    5.6638    0.0000 C   0  0  0  0  0  0  0  0  0  0  0  0
    2.3549    6.3813    0.0000 O   0  0  0  0  0  0  0  0  0  0  0  0
    1.1212    5.6704    0.0000 O   0  0  0  0  0  0  0  0  0  0  0  0
    2.0672    3.8713    0.0000 C   0  0  0  0  0  0  0  0  0  0  0  0
    2.4794    4.5889    0.0000 O   0  0  0  0  0  0  0  0  0  0  0  0
    1.2457    3.8729    0.0000 O   0  0  0  0  0  0  0  0  0  0  0  0
  8 16  1  0  0  0  0
  9  6  1  0  0  0  0
 10  1  2  0  0  0  0
 11  3  1  0  0  0  0
 12  4  1  0  0  0  0
 13  4  1  0  0  0  0
 14 11  1  0  0  0  0
 15  7  1  0  0  0  0
 16 19  1  0  0  0  0
 17  2  2  0  0  0  0
 18 12  1  0  0  0  0
 19 13  1  0  0  0  0
 20  5  1  0  0  0  0
 21  6  1  0  0  0  0
 22  7  2  0  0  0  0
 23 17  1  0  0  0  0
 24 23  2  0  0  0  0
 16 18  1  0  0  0  0
 24 22  1  0  0  0  0
  9  5  1  0  0  0  0
  2  1  1  0  0  0  0
  3  8  1  0  0  0  0
  4  1  1  0  0  0  0
  5 14  1  0  0  0  0
  6  3  1  0  0  0  0
  7  2  1  0  0  0  0
 25 26  1  0  0  0  0
 25 27  2  0  0  0  0
 28 29  1  0  0  0  0
 28 30  2  0  0  0  0
M  END
>  <IDNUMBER>
F6110-1885

>  <Chemical_Name>
1-{[1-(2-fluorobenzoyl)piperidin-4-yl]methyl}-2,4-dimethylpiperazine; bis(formic acid)

>  <PriceCoeff>
1.50

>  <CAS>
1421490-62-1

>  <MW>
333.45

>  <Description>
oil

>  <FSP3>
0.63

>  <clogP>
0.90

>  <TPSA>
26.79

>  <Acceptor>
3

>  <Donor>
2

>  <RotBonds>
3

>  <HAC>
24

>  <Collection>
Advanced

>  <PPDS>
+

$$$$
F6110-1919
  Mrv2219 10102508112D          

 31 31  0  0  0  0            999 V2000
   -4.5601    3.7808    0.0000 C   0  0  0  0  0  0  0  0  0  0  0  0
   -4.5601    2.9558    0.0000 C   0  0  0  0  0  0  0  0  0  0  0  0
   -1.7245    6.2598    0.0000 N   0  0  0  0  0  0  0  0  0  0  0  0
   -3.8429    4.1912    0.0000 N   0  0  0  0  0  0  0  0  0  0  0  0
   -1.7370    7.9139    0.0000 N   0  0  0  0  0  0  0  0  0  0  0  0
   -1.0156    6.6868    0.0000 C   0  0  0  0  0  0  0  0  0  0  0  0
   -3.8636    2.5453    0.0000 C   0  0  0  0  0  0  0  0  0  0  0  0
   -5.2732    2.5578    0.0000 C   0  0  0  0  0  0  0  0  0  0  0  0
   -1.7163    5.4390    0.0000 C   0  0  0  0  0  0  0  0  0  0  0  0
   -1.0198    7.5159    0.0000 C   0  0  0  0  0  0  0  0  0  0  0  0
   -5.2732    4.1829    0.0000 O   0  0  0  0  0  0  0  0  0  0  0  0
   -2.4376    6.6785    0.0000 C   0  0  0  0  0  0  0  0  0  0  0  0
   -3.1299    3.7808    0.0000 C   0  0  0  0  0  0  0  0  0  0  0  0
   -3.8429    5.0162    0.0000 C   0  0  0  0  0  0  0  0  0  0  0  0
   -2.4458    7.5035    0.0000 C   0  0  0  0  0  0  0  0  0  0  0  0
   -5.9987    2.9558    0.0000 F   0  0  0  0  0  0  0  0  0  0  0  0
   -3.1547    2.9475    0.0000 F   0  0  0  0  0  0  0  0  0  0  0  0
   -2.4334    5.0078    0.0000 C   0  0  0  0  0  0  0  0  0  0  0  0
   -2.4127    4.1953    0.0000 C   0  0  0  0  0  0  0  0  0  0  0  0
   -3.1423    5.4266    0.0000 C   0  0  0  0  0  0  0  0  0  0  0  0
   -1.7494    8.7347    0.0000 C   0  0  0  0  0  0  0  0  0  0  0  0
   -4.5725    1.3017    0.0000 C   0  0  0  0  0  0  0  0  0  0  0  0
   -5.2938    1.7245    0.0000 C   0  0  0  0  0  0  0  0  0  0  0  0
   -3.8720    1.7287    0.0000 C   0  0  0  0  0  0  0  0  0  0  0  0
   -0.2943    6.2847    0.0000 C   0  0  0  0  0  0  0  0  0  0  0  0
    1.9410    5.6504    0.0000 C   0  0  0  0  0  0  0  0  0  0  0  0
    2.3528    6.3674    0.0000 O   0  0  0  0  0  0  0  0  0  0  0  0
    1.1202    5.6571    0.0000 O   0  0  0  0  0  0  0  0  0  0  0  0
    2.0654    3.8596    0.0000 C   0  0  0  0  0  0  0  0  0  0  0  0
    2.4772    4.5765    0.0000 O   0  0  0  0  0  0  0  0  0  0  0  0
    1.2446    3.8611    0.0000 O   0  0  0  0  0  0  0  0  0  0  0  0
  8  2  1  0  0  0  0
  9 18  1  0  0  0  0
 10  6  1  0  0  0  0
 11  1  2  0  0  0  0
 12  3  1  0  0  0  0
 13  4  1  0  0  0  0
 14  4  1  0  0  0  0
 15 12  1  0  0  0  0
 16  8  1  0  0  0  0
 17  7  1  0  0  0  0
 18 20  1  0  0  0  0
 19 13  1  0  0  0  0
 20 14  1  0  0  0  0
 21  5  1  0  0  0  0
 22 23  1  0  0  0  0
 23  8  2  0  0  0  0
 24  7  1  0  0  0  0
 25  6  1  0  0  0  0
 19 18  1  0  0  0  0
 22 24  2  0  0  0  0
 10  5  1  0  0  0  0
  2  1  1  0  0  0  0
  3  9  1  0  0  0  0
  4  1  1  0  0  0  0
  5 15  1  0  0  0  0
  6  3  1  0  0  0  0
  7  2  2  0  0  0  0
 26 27  1  0  0  0  0
 26 28  2  0  0  0  0
 29 30  1  0  0  0  0
 29 31  2  0  0  0  0
M  END
>  <IDNUMBER>
F6110-1919

>  <Chemical_Name>
1-{[1-(2,6-difluorobenzoyl)piperidin-4-yl]methyl}-2,4-dimethylpiperazine; bis(formic acid)

>  <PriceCoeff>
1.50

>  <CAS>
1421452-85-8

>  <MW>
351.44

>  <Description>
oil

>  <FSP3>
0.63

>  <clogP>
1.07

>  <TPSA>
26.79

>  <Acceptor>
3

>  <Donor>
2

>  <RotBonds>
3

>  <HAC>
25

>  <Collection>
Advanced

>  <PPDS>
+

$$$$
F6110-1920
  Mrv2219 10102508112D          

 25 27  0  0  0  0            999 V2000
   -4.5601    2.9558    0.0000 C   0  0  0  0  0  0  0  0  0  0  0  0
   -4.5601    3.7808    0.0000 C   0  0  0  0  0  0  0  0  0  0  0  0
   -1.7245    6.2598    0.0000 N   0  0  0  0  0  0  0  0  0  0  0  0
   -3.8429    4.1912    0.0000 N   0  0  0  0  0  0  0  0  0  0  0  0
   -5.2690    2.5453    0.0000 C   0  0  0  0  0  0  0  0  0  0  0  0
   -1.7370    7.9139    0.0000 N   0  0  0  0  0  0  0  0  0  0  0  0
   -3.8388    2.5453    0.0000 C   0  0  0  0  0  0  0  0  0  0  0  0
   -1.0156    6.6868    0.0000 C   0  0  0  0  0  0  0  0  0  0  0  0
   -5.2607    1.7121    0.0000 C   0  0  0  0  0  0  0  0  0  0  0  0
   -1.7163    5.4390    0.0000 C   0  0  0  0  0  0  0  0  0  0  0  0
   -1.0198    7.5159    0.0000 C   0  0  0  0  0  0  0  0  0  0  0  0
   -5.2690    4.1829    0.0000 O   0  0  0  0  0  0  0  0  0  0  0  0
   -2.4376    6.6785    0.0000 C   0  0  0  0  0  0  0  0  0  0  0  0
   -3.8429    5.0162    0.0000 C   0  0  0  0  0  0  0  0  0  0  0  0
   -3.1299    3.7808    0.0000 C   0  0  0  0  0  0  0  0  0  0  0  0
   -4.5476    1.3017    0.0000 C   0  0  0  0  0  0  0  0  0  0  0  0
   -2.4458    7.5035    0.0000 C   0  0  0  0  0  0  0  0  0  0  0  0
   -5.9738    2.9475    0.0000 F   0  0  0  0  0  0  0  0  0  0  0  0
   -3.8305    1.7245    0.0000 C   0  0  0  0  0  0  0  0  0  0  0  0
   -2.4334    5.0078    0.0000 C   0  0  0  0  0  0  0  0  0  0  0  0
   -2.4127    4.1953    0.0000 C   0  0  0  0  0  0  0  0  0  0  0  0
   -3.1423    5.4266    0.0000 C   0  0  0  0  0  0  0  0  0  0  0  0
   -4.5476    0.4850    0.0000 F   0  0  0  0  0  0  0  0  0  0  0  0
   -1.7494    8.7347    0.0000 C   0  0  0  0  0  0  0  0  0  0  0  0
   -0.2943    6.2847    0.0000 C   0  0  0  0  0  0  0  0  0  0  0  0
  2  1  1  0  0  0  0
  3 10  1  0  0  0  0
  4  2  1  0  0  0  0
  5  1  1  0  0  0  0
  6 17  1  0  0  0  0
  7  1  2  0  0  0  0
  8  3  1  0  0  0  0
  9  5  2  0  0  0  0
 10 20  1  0  0  0  0
 11  8  1  0  0  0  0
 12  2  2  0  0  0  0
 13  3  1  0  0  0  0
 14  4  1  0  0  0  0
 15  4  1  0  0  0  0
 16 19  2  0  0  0  0
 17 13  1  0  0  0  0
 18  5  1  0  0  0  0
 19  7  1  0  0  0  0
 20 21  1  0  0  0  0
 21 15  1  0  0  0  0
 22 14  1  0  0  0  0
 23 16  1  0  0  0  0
 24  6  1  0  0  0  0
 25  8  1  0  0  0  0
  9 16  1  0  0  0  0
 20 22  1  0  0  0  0
 11  6  1  0  0  0  0
M  END
>  <IDNUMBER>
F6110-1920

>  <Chemical_Name>
1-{[1-(2,4-difluorobenzoyl)piperidin-4-yl]methyl}-2,4-dimethylpiperazine

>  <PriceCoeff>
1.50

>  <CAS>
1421515-75-4

>  <MW>
351.43

>  <Description>
oil

>  <FSP3>
0.63

>  <clogP>
1.07

>  <TPSA>
26.79

>  <Acceptor>
3

>  <Donor>
2

>  <RotBonds>
4

>  <HAC>
25

>  <Collection>
Advanced

>  <PPDS>
+

$$$$
F6110-1933
  Mrv2219 10102508112D          

 26 28  0  0  0  0            999 V2000
   -1.7280    6.2724    0.0000 N   0  0  0  0  0  0  0  0  0  0  0  0
   -3.8507    4.1996    0.0000 N   0  0  0  0  0  0  0  0  0  0  0  0
   -4.5693    3.7884    0.0000 C   0  0  0  0  0  0  0  0  0  0  0  0
   -1.7405    7.9298    0.0000 N   0  0  0  0  0  0  0  0  0  0  0  0
   -1.0177    6.7002    0.0000 C   0  0  0  0  0  0  0  0  0  0  0  0
   -1.7197    5.4500    0.0000 C   0  0  0  0  0  0  0  0  0  0  0  0
   -1.0219    7.5311    0.0000 C   0  0  0  0  0  0  0  0  0  0  0  0
   -2.4425    6.6919    0.0000 C   0  0  0  0  0  0  0  0  0  0  0  0
   -3.1362    3.7884    0.0000 C   0  0  0  0  0  0  0  0  0  0  0  0
   -3.8507    5.0263    0.0000 C   0  0  0  0  0  0  0  0  0  0  0  0
   -4.5693    2.9701    0.0000 C   0  0  0  0  0  0  0  0  0  0  0  0
   -5.2713    4.1913    0.0000 O   0  0  0  0  0  0  0  0  0  0  0  0
   -5.2796    2.5505    0.0000 O   0  0  0  0  0  0  0  0  0  0  0  0
   -2.4508    7.5186    0.0000 C   0  0  0  0  0  0  0  0  0  0  0  0
   -5.2838    1.7155    0.0000 C   0  0  0  0  0  0  0  0  0  0  0  0
   -2.4383    5.0179    0.0000 C   0  0  0  0  0  0  0  0  0  0  0  0
   -5.9941    1.3292    0.0000 C   0  0  0  0  0  0  0  0  0  0  0  0
   -3.1486    5.4375    0.0000 C   0  0  0  0  0  0  0  0  0  0  0  0
   -2.4176    4.2038    0.0000 C   0  0  0  0  0  0  0  0  0  0  0  0
   -5.9858    0.4943    0.0000 C   0  0  0  0  0  0  0  0  0  0  0  0
   -1.7529    8.7523    0.0000 C   0  0  0  0  0  0  0  0  0  0  0  0
   -4.5693    0.4943    0.0000 C   0  0  0  0  0  0  0  0  0  0  0  0
   -0.2949    6.2974    0.0000 C   0  0  0  0  0  0  0  0  0  0  0  0
   -4.5776    1.3085    0.0000 C   0  0  0  0  0  0  0  0  0  0  0  0
   -5.2962    0.0830    0.0000 C   0  0  0  0  0  0  0  0  0  0  0  0
   -6.7086    0.0955    0.0000 C   0  0  0  0  0  0  0  0  0  0  0  0
  2  9  1  0  0  0  0
  3  2  1  0  0  0  0
  4 14  1  0  0  0  0
  5  1  1  0  0  0  0
  6  1  1  0  0  0  0
  7  5  1  0  0  0  0
  8  1  1  0  0  0  0
  9 19  1  0  0  0  0
 10 18  1  0  0  0  0
 11  3  1  0  0  0  0
 12  3  2  0  0  0  0
 13 11  1  0  0  0  0
 14  8  1  0  0  0  0
 15 13  1  0  0  0  0
 16  6  1  0  0  0  0
 17 15  2  0  0  0  0
 18 16  1  0  0  0  0
 19 16  1  0  0  0  0
 20 17  1  0  0  0  0
 21  4  1  0  0  0  0
 22 24  2  0  0  0  0
 23  5  1  0  0  0  0
 24 15  1  0  0  0  0
 25 22  1  0  0  0  0
 26 20  1  0  0  0  0
  7  4  1  0  0  0  0
 10  2  1  0  0  0  0
 25 20  2  0  0  0  0
M  END
>  <IDNUMBER>
F6110-1933

>  <Chemical_Name>
1-{4-[(2,4-dimethylpiperazin-1-yl)methyl]piperidin-1-yl}-2-(3-methylphenoxy)ethan-1-one

>  <PriceCoeff>
1.50

>  <CAS>
1421472-39-0

>  <MW>
359.51

>  <Description>
oil

>  <FSP3>
0.67

>  <clogP>
1.55

>  <TPSA>
36.02

>  <Acceptor>
4

>  <Donor>
2

>  <RotBonds>
6

>  <HAC>
26

>  <Collection>
Advanced

>  <PPDS>
+

$$$$
F6110-1934
  Mrv2219 10102508112D          

 26 28  0  0  0  0            999 V2000
   -1.7245    6.2599    0.0000 N   0  0  0  0  0  0  0  0  0  0  0  0
   -3.8430    4.1913    0.0000 N   0  0  0  0  0  0  0  0  0  0  0  0
   -4.5602    3.7809    0.0000 C   0  0  0  0  0  0  0  0  0  0  0  0
   -1.7370    7.9141    0.0000 N   0  0  0  0  0  0  0  0  0  0  0  0
   -1.0157    6.6869    0.0000 C   0  0  0  0  0  0  0  0  0  0  0  0
   -1.7163    5.4391    0.0000 C   0  0  0  0  0  0  0  0  0  0  0  0
   -1.0199    7.5161    0.0000 C   0  0  0  0  0  0  0  0  0  0  0  0
   -2.4377    6.6787    0.0000 C   0  0  0  0  0  0  0  0  0  0  0  0
   -3.1299    3.7809    0.0000 C   0  0  0  0  0  0  0  0  0  0  0  0
   -3.8430    5.0163    0.0000 C   0  0  0  0  0  0  0  0  0  0  0  0
   -4.5561    2.9682    0.0000 C   0  0  0  0  0  0  0  0  0  0  0  0
   -5.2609    4.1830    0.0000 O   0  0  0  0  0  0  0  0  0  0  0  0
   -5.2733    2.5579    0.0000 O   0  0  0  0  0  0  0  0  0  0  0  0
   -2.4459    7.5036    0.0000 C   0  0  0  0  0  0  0  0  0  0  0  0
   -5.2815    1.7411    0.0000 C   0  0  0  0  0  0  0  0  0  0  0  0
   -2.4335    5.0080    0.0000 C   0  0  0  0  0  0  0  0  0  0  0  0
   -2.4128    4.1954    0.0000 C   0  0  0  0  0  0  0  0  0  0  0  0
   -3.1423    5.4267    0.0000 C   0  0  0  0  0  0  0  0  0  0  0  0
   -5.3355    0.0995    0.0000 C   0  0  0  0  0  0  0  0  0  0  0  0
   -4.5975    1.3183    0.0000 C   0  0  0  0  0  0  0  0  0  0  0  0
   -6.0112    1.3515    0.0000 C   0  0  0  0  0  0  0  0  0  0  0  0
   -4.6099    0.4933    0.0000 C   0  0  0  0  0  0  0  0  0  0  0  0
   -6.0236    0.5306    0.0000 C   0  0  0  0  0  0  0  0  0  0  0  0
   -1.7494    8.7349    0.0000 C   0  0  0  0  0  0  0  0  0  0  0  0
   -0.2943    6.2849    0.0000 C   0  0  0  0  0  0  0  0  0  0  0  0
   -5.3645   -0.7256    0.0000 C   0  0  0  0  0  0  0  0  0  0  0  0
  2 10  1  0  0  0  0
  3  2  1  0  0  0  0
  4 14  1  0  0  0  0
  5  1  1  0  0  0  0
  6  1  1  0  0  0  0
  7  5  1  0  0  0  0
  8  1  1  0  0  0  0
  9 17  1  0  0  0  0
 10 18  1  0  0  0  0
 11  3  1  0  0  0  0
 12  3  2  0  0  0  0
 13 11  1  0  0  0  0
 14  8  1  0  0  0  0
 15 13  1  0  0  0  0
 16  6  1  0  0  0  0
 17 16  1  0  0  0  0
 18 16  1  0  0  0  0
 19 23  2  0  0  0  0
 20 15  1  0  0  0  0
 21 15  2  0  0  0  0
 22 20  2  0  0  0  0
 23 21  1  0  0  0  0
 24  4  1  0  0  0  0
 25  5  1  0  0  0  0
 26 19  1  0  0  0  0
  7  4  1  0  0  0  0
  2  9  1  0  0  0  0
 22 19  1  0  0  0  0
M  END
>  <IDNUMBER>
F6110-1934

>  <Chemical_Name>
1-{4-[(2,4-dimethylpiperazin-1-yl)methyl]piperidin-1-yl}-2-(4-methylphenoxy)ethan-1-one

>  <PriceCoeff>
1.50

>  <CAS>
1421461-79-1

>  <MW>
359.51

>  <Description>
oil

>  <FSP3>
0.67

>  <clogP>
1.55

>  <TPSA>
36.02

>  <Acceptor>
4

>  <Donor>
2

>  <RotBonds>
6

>  <HAC>
26

>  <Collection>
Advanced

>  <PPDS>
+

$$$$
F6159-0248
  Mrv2219 10102508112D          

 32 36  0  0  0  0            999 V2000
   -1.5458   -8.9167    0.0000 N   0  0  0  0  0  0  0  0  0  0  0  0
    5.6042  -10.5500    0.0000 C   0  0  0  0  0  0  0  0  0  0  0  0
    5.7000  -11.3667    0.0000 N   0  0  0  0  0  0  0  0  0  0  0  0
    1.3250   -8.9167    0.0000 C   0  0  0  0  0  0  0  0  0  0  0  0
   -0.8250   -9.3292    0.0000 C   0  0  0  0  0  0  0  0  0  0  0  0
    6.3625  -10.2042    0.0000 S   0  0  0  0  0  0  0  0  0  0  0  0
    2.0417   -9.3292    0.0000 N   0  0  0  0  0  0  0  0  0  0  0  0
   -1.5875   -8.0917    0.0000 C   0  0  0  0  0  0  0  0  0  0  0  0
   -2.3083   -9.2250    0.0000 C   0  0  0  0  0  0  0  0  0  0  0  0
    0.6042   -9.3292    0.0000 C   0  0  0  0  0  0  0  0  0  0  0  0
    6.5125  -11.5417    0.0000 C   0  0  0  0  0  0  0  0  0  0  0  0
   -0.1083   -8.9167    0.0000 C   0  0  0  0  0  0  0  0  0  0  0  0
    6.9167  -10.8167    0.0000 C   0  0  0  0  0  0  0  0  0  0  0  0
    1.3167   -8.0875    0.0000 O   0  0  0  0  0  0  0  0  0  0  0  0
    4.8917  -10.1417    0.0000 O   0  0  0  0  0  0  0  0  0  0  0  0
   -2.8458   -8.5917    0.0000 C   0  0  0  0  0  0  0  0  0  0  0  0
   -2.4083   -7.8917    0.0000 C   0  0  0  0  0  0  0  0  0  0  0  0
   -2.5250  -10.0167    0.0000 O   0  0  0  0  0  0  0  0  0  0  0  0
   -0.9583   -7.5625    0.0000 O   0  0  0  0  0  0  0  0  0  0  0  0
    2.7542   -8.9167    0.0000 C   0  0  0  0  0  0  0  0  0  0  0  0
    2.0417  -10.1542    0.0000 C   0  0  0  0  0  0  0  0  0  0  0  0
    4.1792  -10.5542    0.0000 C   0  0  0  0  0  0  0  0  0  0  0  0
    3.4667   -9.3250    0.0000 C   0  0  0  0  0  0  0  0  0  0  0  0
    2.7542  -10.5667    0.0000 C   0  0  0  0  0  0  0  0  0  0  0  0
   -0.8250  -10.1542    0.0000 C   0  0  0  0  0  0  0  0  0  0  0  0
    3.4667  -10.1417    0.0000 C   0  0  0  0  0  0  0  0  0  0  0  0
    0.6042  -10.1542    0.0000 C   0  0  0  0  0  0  0  0  0  0  0  0
   -0.1125  -10.5750    0.0000 C   0  0  0  0  0  0  0  0  0  0  0  0
    6.9292  -12.2500    0.0000 C   0  0  0  0  0  0  0  0  0  0  0  0
    7.7417  -10.8167    0.0000 C   0  0  0  0  0  0  0  0  0  0  0  0
    8.1625  -11.5292    0.0000 C   0  0  0  0  0  0  0  0  0  0  0  0
    7.7500  -12.2417    0.0000 C   0  0  0  0  0  0  0  0  0  0  0  0
  2 15  1  0  0  0  0
  3  2  2  0  0  0  0
  4 10  1  0  0  0  0
  5  1  1  0  0  0  0
  6  2  1  0  0  0  0
  7  4  1  0  0  0  0
  8  1  1  0  0  0  0
  9  1  1  0  0  0  0
 10 12  2  0  0  0  0
 11  3  1  0  0  0  0
 12  5  1  0  0  0  0
 13  6  1  0  0  0  0
 14  4  2  0  0  0  0
 15 22  1  0  0  0  0
 16  9  1  0  0  0  0
 17  8  1  0  0  0  0
 18  9  2  0  0  0  0
 19  8  2  0  0  0  0
 20  7  1  0  0  0  0
 21  7  1  0  0  0  0
 22 26  1  0  0  0  0
 23 20  1  0  0  0  0
 24 21  1  0  0  0  0
 25  5  2  0  0  0  0
 26 24  1  0  0  0  0
 27 28  2  0  0  0  0
 28 25  1  0  0  0  0
 29 11  2  0  0  0  0
 30 13  2  0  0  0  0
 31 30  1  0  0  0  0
 32 29  1  0  0  0  0
 16 17  1  0  0  0  0
 10 27  1  0  0  0  0
 26 23  1  0  0  0  0
 11 13  1  0  0  0  0
 32 31  2  0  0  0  0
M  END
>  <IDNUMBER>
F6159-0248

>  <Chemical_Name>
1-(3-{4-[(1,3-benzothiazol-2-yloxy)methyl]piperidine-1-carbonyl}phenyl)pyrrolidine-2,5-dione

>  <PriceCoeff>
1.00

>  <CAS>
1788530-37-9

>  <MW>
449.52

>  <Description>
oil

>  <FSP3>
0.33

>  <clogP>
2.33

>  <TPSA>
108.05

>  <Acceptor>
5

>  <Donor>
0

>  <RotBonds>
6

>  <HAC>
32

>  <Collection>
General

>  <PPDS>
+

$$$$
F6169-0499
  Mrv2219 10102508112D          

 27 29  0  0  0  0            999 V2000
   -1.7237    4.2822    0.0000 N   0  0  0  0  0  0  0  0  0  0  0  0
   -1.7738    5.1002    0.0000 N   0  0  0  0  0  0  0  0  0  0  0  0
   -1.0726    5.5510    0.0000 C   0  0  0  0  0  0  0  0  0  0  0  0
   -5.7304    1.6235    0.0000 N   0  3  0  0  0  0  0  0  0  0  0  0
   -5.5801    2.4374    0.0000 C   0  0  0  0  0  0  0  0  0  0  0  0
   -2.4248    3.8397    0.0000 C   0  0  0  0  0  0  0  0  0  0  0  0
   -3.1636    4.2195    0.0000 C   0  0  0  0  0  0  0  0  0  0  0  0
   -1.1227    6.3773    0.0000 N   0  0  0  0  0  0  0  0  0  0  0  0
   -0.9975    3.9065    0.0000 C   0  0  0  0  0  0  0  0  0  0  0  0
   -0.3381    5.1753    0.0000 C   0  0  0  0  0  0  0  0  0  0  0  0
   -0.4716    6.8907    0.0000 N   0  0  0  0  0  0  0  0  0  0  0  0
   -0.3005    4.3490    0.0000 C   0  0  0  0  0  0  0  0  0  0  0  0
   -3.8522    3.7771    0.0000 N   0  0  0  0  0  0  0  0  0  0  0  0
   -4.7913    2.7003    0.0000 C   0  0  0  0  0  0  0  0  0  0  0  0
   -6.1895    2.9632    0.0000 C   0  0  0  0  0  0  0  0  0  0  0  0
   -6.5109    1.3481    0.0000 O   0  5  0  0  0  0  0  0  0  0  0  0
   -1.8113    6.8281    0.0000 C   0  0  0  0  0  0  0  0  0  0  0  0
   -5.1168    1.0726    0.0000 O   0  0  0  0  0  0  0  0  0  0  0  0
   -4.6327    3.5059    0.0000 C   0  0  0  0  0  0  0  0  0  0  0  0
   -1.5902    7.6169    0.0000 C   0  0  0  0  0  0  0  0  0  0  0  0
   -3.2011    5.0376    0.0000 O   0  0  0  0  0  0  0  0  0  0  0  0
   -0.9599    3.0885    0.0000 O   0  0  0  0  0  0  0  0  0  0  0  0
   -0.7721    7.6670    0.0000 C   0  0  0  0  0  0  0  0  0  0  0  0
   -6.0393    3.7813    0.0000 C   0  0  0  0  0  0  0  0  0  0  0  0
   -5.2588    4.0485    0.0000 C   0  0  0  0  0  0  0  0  0  0  0  0
   -6.9784    2.7003    0.0000 Cl  0  0  0  0  0  0  0  0  0  0  0  0
   -2.3873    3.0217    0.0000 C   0  0  0  0  0  0  0  0  0  0  0  0
  2  1  1  0  0  0  0
  3  2  2  0  0  0  0
  4  5  1  0  0  0  0
  5 14  2  0  0  0  0
  6  1  1  0  0  0  0
  7  6  1  0  0  0  0
  8  3  1  0  0  0  0
  9  1  1  0  0  0  0
 10 12  2  0  0  0  0
 11  8  1  0  0  0  0
 12  9  1  0  0  0  0
 13  7  1  0  0  0  0
 14 19  1  0  0  0  0
 15 24  2  0  0  0  0
 16  4  1  0  0  0  0
 17  8  1  0  0  0  0
 18  4  2  0  0  0  0
 19 13  1  0  0  0  0
 20 17  2  0  0  0  0
 21  7  2  0  0  0  0
 22  9  2  0  0  0  0
 23 11  2  0  0  0  0
 24 25  1  0  0  0  0
 25 19  2  0  0  0  0
 26 15  1  0  0  0  0
 27  6  1  0  0  0  0
  3 10  1  0  0  0  0
 23 20  1  0  0  0  0
 15  5  1  0  0  0  0
M  CHG  2   4   1  16  -1
M  END
>  <IDNUMBER>
F6169-0499

>  <Chemical_Name>
N-(4-chloro-3-nitrophenyl)-2-[6-oxo-3-(1H-pyrazol-1-yl)-1,6-dihydropyridazin-1-yl]propanamide

>  <PriceCoeff>
1.00

>  <CAS>
1334372-56-3

>  <MW>
388.77

>  <Description>
solid

>  <FSP3>
0.12

>  <clogP>
0.76

>  <TPSA>
122.73

>  <Acceptor>
5

>  <Donor>
2

>  <RotBonds>
5

>  <HAC>
27

>  <Collection>
General

>  <PPDS>
+

$$$$
F6170-0024
  Mrv2219 10102508112D          

 38 39  0  0  0  0            999 V2000
   -1.1258   -1.4982    0.0000 C   0  0  0  0  0  0  0  0  0  0  0  0
    0.3049   -1.4923    0.0000 C   0  0  0  0  0  0  0  0  0  0  0  0
   -0.4104   -1.0877    0.0000 C   0  0  0  0  0  0  0  0  0  0  0  0
    0.3020   -2.3250    0.0000 C   0  0  0  0  0  0  0  0  0  0  0  0
   -1.1317   -2.3191    0.0000 C   0  0  0  0  0  0  0  0  0  0  0  0
   -0.4164   -2.7354    0.0000 N   0  0  0  0  0  0  0  0  0  0  0  0
   -1.8383   -1.0819    0.0000 C   0  0  0  0  0  0  0  0  0  0  0  0
    1.0203   -1.0819    0.0000 C   0  0  0  0  0  0  0  0  0  0  0  0
   -0.4104   -0.2609    0.0000 C   0  0  0  0  0  0  0  0  0  0  0  0
    0.3049    0.1495    0.0000 C   0  0  0  0  0  0  0  0  0  0  0  0
    1.0203   -0.2521    0.0000 O   0  0  0  0  0  0  0  0  0  0  0  0
   -1.8383   -0.2521    0.0000 O   0  0  0  0  0  0  0  0  0  0  0  0
    1.0173   -2.7413    0.0000 C   0  0  0  0  0  0  0  0  0  0  0  0
   -2.5595   -1.4894    0.0000 O   0  0  0  0  0  0  0  0  0  0  0  0
    1.7386   -1.4923    0.0000 O   0  0  0  0  0  0  0  0  0  0  0  0
   -1.8500   -2.7296    0.0000 C   0  0  0  0  0  0  0  0  0  0  0  0
    1.0203    0.5688    0.0000 Cl  0  0  0  0  0  0  0  0  0  0  0  0
    3.8789   -2.7501    0.0000 N   0  0  0  0  0  0  0  0  0  0  0  0
   -1.1258    0.1495    0.0000 C   0  0  0  0  0  0  0  0  0  0  0  0
    1.7386   -2.3191    0.0000 O   0  0  0  0  0  0  0  0  0  0  0  0
    0.3049    0.9793    0.0000 C   0  0  0  0  0  0  0  0  0  0  0  0
    3.1664   -2.3367    0.0000 C   0  0  0  0  0  0  0  0  0  0  0  0
    2.4510   -1.0819    0.0000 C   0  0  0  0  0  0  0  0  0  0  0  0
    2.4481   -2.7472    0.0000 C   0  0  0  0  0  0  0  0  0  0  0  0
   -3.2720   -1.0731    0.0000 C   0  0  0  0  0  0  0  0  0  0  0  0
   -1.1258    0.9763    0.0000 C   0  0  0  0  0  0  0  0  0  0  0  0
    3.1723   -1.4894    0.0000 C   0  0  0  0  0  0  0  0  0  0  0  0
   -0.4104    1.3956    0.0000 C   0  0  0  0  0  0  0  0  0  0  0  0
    5.0330   -1.1023    0.0000 C   0  0  0  0  0  0  0  0  0  0  0  0
    5.0322   -1.6845    0.0000 C   0  0  0  0  0  0  0  0  0  0  0  0
    5.5351   -1.9751    0.0000 C   0  0  0  0  0  0  0  0  0  0  0  0
    6.0393   -1.6842    0.0000 C   0  0  0  0  0  0  0  0  0  0  0  0
    6.0373   -1.0998    0.0000 C   0  0  0  0  0  0  0  0  0  0  0  0
    5.5339   -0.8119    0.0000 C   0  0  0  0  0  0  0  0  0  0  0  0
    5.5295   -0.2287    0.0000 S   0  0  0  0  0  0  0  0  0  0  0  0
    4.9490   -0.2287    0.0000 O   0  0  0  0  0  0  0  0  0  0  0  0
    6.1100   -0.2287    0.0000 O   0  0  0  0  0  0  0  0  0  0  0  0
    5.5266    0.3518    0.0000 O   0  0  0  0  0  0  0  0  0  0  0  0
 12  7  2  0  0  0  0
 13  4  1  0  0  0  0
 14  7  1  0  0  0  0
 15  8  1  0  0  0  0
 16  5  1  0  0  0  0
 17 10  1  0  0  0  0
 18 22  1  0  0  0  0
 19  9  1  0  0  0  0
 20 13  1  0  0  0  0
 21 10  1  0  0  0  0
 22 24  1  0  0  0  0
 23 15  1  0  0  0  0
 24 20  1  0  0  0  0
 25 14  1  0  0  0  0
 26 19  2  0  0  0  0
 27 23  1  0  0  0  0
 28 26  1  0  0  0  0
  2  4  2  0  0  0  0
 28 21  2  0  0  0  0
  2  3  1  0  0  0  0
  3  1  1  0  0  0  0
  4  6  1  0  0  0  0
  5  1  2  0  0  0  0
  6  5  1  0  0  0  0
  7  1  1  0  0  0  0
  8  2  1  0  0  0  0
  9  3  1  0  0  0  0
 10  9  2  0  0  0  0
 11  8  2  0  0  0  0
 30 31  1  0  0  0  0
 33 34  2  0  0  0  0
 34 29  1  0  0  0  0
 29 30  2  0  0  0  0
 34 35  1  0  0  0  0
 31 32  2  0  0  0  0
 35 36  2  0  0  0  0
 35 37  2  0  0  0  0
 32 33  1  0  0  0  0
 35 38  1  0  0  0  0
M  END
>  <IDNUMBER>
F6170-0024

>  <Chemical_Name>
3-ethyl 5-methyl 2-[(2-aminoethoxy)methyl]-4-(2-chlorophenyl)-6-methyl-1,4-dihydropyridine-3,5-dicarboxylate; benzenesulfonic acid

>  <PriceCoeff>
1.00

>  <CAS>
111470-99-6

>  <MW>
408.88

>  <Description>
solid

>  <FSP3>
0.40

>  <clogP>
2.27

>  <TPSA>
99.88

>  <Acceptor>
5

>  <Donor>
2

>  <RotBonds>
10

>  <HAC>
28

>  <Collection>
General

$$$$
F6170-0105
  Mrv2219 10102508112D          

 12 13  0  0  0  0            999 V2000
    6.3276   -5.9284    0.0000 C   0  0  0  0  0  0  0  0  0  0  0  0
    6.3316   -5.1053    0.0000 C   0  0  0  0  0  0  0  0  0  0  0  0
    7.0426   -6.3441    0.0000 C   0  0  0  0  0  0  0  0  0  0  0  0
    5.6166   -4.6937    0.0000 C   0  0  0  0  0  0  0  0  0  0  0  0
    7.7577   -5.9325    0.0000 C   0  0  0  0  0  0  0  0  0  0  0  0
    7.0426   -4.6895    0.0000 O   0  0  0  0  0  0  0  0  0  0  0  0
    5.6166   -6.3441    0.0000 C   0  0  0  0  0  0  0  0  0  0  0  0
    7.7577   -5.1053    0.0000 C   0  0  0  0  0  0  0  0  0  0  0  0
    7.0385   -7.1673    0.0000 O   0  0  0  0  0  0  0  0  0  0  0  0
    4.9057   -5.1053    0.0000 C   0  0  0  0  0  0  0  0  0  0  0  0
    4.9057   -5.9325    0.0000 C   0  0  0  0  0  0  0  0  0  0  0  0
    4.1948   -4.6978    0.0000 O   0  0  0  0  0  0  0  0  0  0  0  0
  2  1  1  0  0  0  0
  3  1  1  0  0  0  0
  4  2  2  0  0  0  0
  5  3  1  0  0  0  0
  6  2  1  0  0  0  0
  7  1  2  0  0  0  0
  8  6  1  0  0  0  0
  9  3  2  0  0  0  0
 10  4  1  0  0  0  0
 11  7  1  0  0  0  0
 12 10  1  0  0  0  0
 11 10  2  0  0  0  0
  8  5  2  0  0  0  0
M  END
>  <IDNUMBER>
F6170-0105

>  <Chemical_Name>
7-hydroxy-4H-chromen-4-one

>  <PriceCoeff>
1.00

>  <CAS>
59887-89-7

>  <MW>
162.14

>  <Description>
solid

>  <FSP3>
0.00

>  <clogP>
1.37

>  <TPSA>
46.53

>  <Acceptor>
3

>  <Donor>
1

>  <RotBonds>
0

>  <HAC>
12

>  <Collection>
General

>  <PPDS>
+

$$$$
F6170-0156
  Mrv2219 10102508112D          

 73 79  0  0  0  0            999 V2000
   -1.5576    1.6038    0.0000 C   0  0  2  0  0  0  0  0  0  0  0  0
   -2.2900    1.1488    0.0000 C   0  0  1  0  0  0  0  0  0  0  0  0
   -2.2900    0.3392    0.0000 C   0  0  1  0  0  0  0  0  0  0  0  0
   -1.5576    2.4288    0.0000 C   0  0  0  0  0  0  0  0  0  0  0  0
   -0.1234    4.8808    0.0000 C   0  0  2  0  0  0  0  0  0  0  0  0
   -0.8790    1.1951    0.0000 C   0  0  0  0  0  0  0  0  0  0  0  0
   -1.5576   -0.0616    0.0000 C   0  0  1  0  0  0  0  0  0  0  0  0
   -0.8790    0.3392    0.0000 C   0  0  0  0  0  0  0  0  0  0  0  0
   -3.0687    0.0616    0.0000 O   0  0  0  0  0  0  0  0  0  0  0  0
   -3.0687    1.3801    0.0000 C   0  0  0  0  0  0  0  0  0  0  0  0
   -7.2864    4.0712    0.0000 C   0  0  2  0  0  0  0  0  0  0  0  0
   -7.9726    1.1719    0.0000 C   0  0  2  0  0  0  0  0  0  0  0  0
   -0.1234    5.7135    0.0000 O   0  0  0  0  0  0  0  0  0  0  0  0
   -7.9804    2.8220    0.0000 C   0  0  2  0  0  0  0  0  0  0  0  0
   -5.8601    4.9117    0.0000 C   0  0  2  0  0  0  0  0  0  0  0  0
   -0.8790    2.8220    0.0000 O   0  0  0  0  0  0  0  0  0  0  0  0
   -8.6743    2.4057    0.0000 O   0  0  0  0  0  0  0  0  0  0  0  0
   -6.5847    5.3280    0.0000 O   0  0  0  0  0  0  0  0  0  0  0  0
   -5.8523    4.0943    0.0000 C   0  0  0  0  0  0  0  0  0  0  0  0
   -7.2555    2.4210    0.0000 C   0  0  0  0  0  0  0  0  0  0  0  0
   -7.2555    1.5961    0.0000 C   0  0  2  0  0  0  0  0  0  0  0  0
   -6.5540    3.6779    0.0000 C   0  0  2  0  0  0  0  0  0  0  0  0
   -4.4490    4.9348    0.0000 C   0  0  1  0  0  0  0  0  0  0  0  0
   -0.1234    4.0402    0.0000 C   0  0  0  0  0  0  0  0  0  0  0  0
   -0.8559    5.2971    0.0000 O   0  0  0  0  0  0  0  0  0  0  0  0
   -8.6743    1.5807    0.0000 C   0  0  1  0  0  0  0  0  0  0  0  0
   -7.2942    4.8961    0.0000 C   0  0  1  0  0  0  0  0  0  0  0  0
    0.5861    6.0758    0.0000 C   0  0  1  0  0  0  0  0  0  0  0  0
   -0.8790    3.6470    0.0000 C   0  0  2  0  0  0  0  0  0  0  0  0
   -3.7010    5.3512    0.0000 C   0  0  0  0  0  0  0  0  0  0  0  0
   -7.9804    3.6470    0.0000 O   0  0  0  0  0  0  0  0  0  0  0  0
    0.5398    4.5184    0.0000 C   0  0  0  0  0  0  0  0  0  0  0  0
   -5.1506    5.3512    0.0000 O   0  0  0  0  0  0  0  0  0  0  0  0
   -1.5267   -0.8712    0.0000 O   0  0  0  0  0  0  0  0  0  0  0  0
   -7.9726    0.3470    0.0000 O   0  0  0  0  0  0  0  0  0  0  0  0
    1.2722    4.9039    0.0000 C   0  0  0  0  0  0  0  0  0  0  0  0
   -2.9917    4.9348    0.0000 C   0  0  0  0  0  0  0  0  0  0  0  0
   -3.5545    0.7787    0.0000 C   0  0  0  0  0  0  0  0  0  0  0  0
   -8.6897   -0.0694    0.0000 C   0  0  0  0  0  0  0  0  0  0  0  0
   -0.7942   -1.2645    0.0000 C   0  0  0  0  0  0  0  0  0  0  0  0
   -3.0687    2.2360    0.0000 C   0  0  0  0  0  0  0  0  0  0  0  0
   -2.2900    2.8452    0.0000 O   0  0  0  0  0  0  0  0  0  0  0  0
   -3.6239    2.6370    0.0000 C   0  0  0  0  0  0  0  0  0  0  0  0
    1.2569    5.6595    0.0000 C   0  0  2  0  0  0  0  0  0  0  0  0
   -1.5576    4.0558    0.0000 C   0  0  0  0  0  0  0  0  0  0  0  0
   -1.5576    4.9117    0.0000 C   0  0  1  0  0  0  0  0  0  0  0  0
   -4.4490    4.0402    0.0000 C   0  0  2  0  0  0  0  0  0  0  0  0
   -3.6239    3.5160    0.0000 C   0  0  0  0  0  0  0  0  0  0  0  0
   -2.3054    2.0509    0.0000 O   0  0  0  0  0  0  0  0  0  0  0  0
   -0.0925   -0.8250    0.0000 O   0  0  0  0  0  0  0  0  0  0  0  0
   -9.4145    0.3470    0.0000 O   0  0  0  0  0  0  0  0  0  0  0  0
   -2.2669    5.3512    0.0000 C   0  0  0  0  0  0  0  0  0  0  0  0
    0.2776    6.8160    0.0000 C   0  0  2  0  0  0  0  0  0  0  0  0
   -6.5385    1.1719    0.0000 O   0  0  0  0  0  0  0  0  0  0  0  0
   -6.5385    2.8452    0.0000 O   0  0  0  0  0  0  0  0  0  0  0  0
   -0.1773   -0.0848    0.0000 C   0  0  0  0  0  0  0  0  0  0  0  0
   -3.7242    6.2533    0.0000 C   0  0  0  0  0  0  0  0  0  0  0  0
   -9.3992    1.1643    0.0000 C   0  0  0  0  0  0  0  0  0  0  0  0
   -8.0189    5.2818    0.0000 C   0  0  0  0  0  0  0  0  0  0  0  0
   -8.6897   -0.8944    0.0000 C   0  0  0  0  0  0  0  0  0  0  0  0
   -0.7633   -2.0896    0.0000 C   0  0  0  0  0  0  0  0  0  0  0  0
    1.9815    6.0296    0.0000 C   0  0  0  0  0  0  0  0  0  0  0  0
   -5.1506    3.6470    0.0000 C   0  0  0  0  0  0  0  0  0  0  0  0
   -0.5398    6.9395    0.0000 C   0  0  0  0  0  0  0  0  0  0  0  0
    0.8636    7.4946    0.0000 C   0  0  0  0  0  0  0  0  0  0  0  0
   -5.7520    2.5907    0.0000 C   0  0  0  0  0  0  0  0  0  0  0  0
   -5.7982    1.5652    0.0000 C   0  0  0  0  0  0  0  0  0  0  0  0
   -0.6939    7.7491    0.0000 C   0  0  0  0  0  0  0  0  0  0  0  0
   -0.8559    2.0124    0.0000 H   0  0  0  0  0  0  0  0  0  0  0  0
   -0.2082    3.1922    0.0000 H   0  0  0  0  0  0  0  0  0  0  0  0
   -1.5420    5.9139    0.0000 H   0  0  0  0  0  0  0  0  0  0  0  0
    1.2028    6.6078    0.0000 H   0  0  0  0  0  0  0  0  0  0  0  0
   -2.3054   -0.5629    0.0000 H   0  0  0  0  0  0  0  0  0  0  0  0
  2  1  1  0  0  0  0
  3  2  1  0  0  0  0
  4  1  1  0  0  0  0
  5 24  1  0  0  0  0
  6  1  1  0  0  0  0
  7  3  1  0  0  0  0
  8  6  2  0  0  0  0
  9  3  1  0  0  0  0
 10  2  1  0  0  0  0
 11 27  1  0  0  0  0
 12 26  1  0  0  0  0
 13  5  1  0  0  0  0
 14 31  1  1  0  0  0
 15 33  1  1  0  0  0
 16  4  1  0  0  0  0
 17 14  1  0  0  0  0
 18 15  1  0  0  0  0
 19 15  1  0  0  0  0
 20 14  1  0  0  0  0
 21 20  1  0  0  0  0
 22 19  1  0  0  0  0
 23 47  1  0  0  0  0
 24 29  1  0  0  0  0
 25 46  1  0  0  0  0
 26 17  1  0  0  0  0
 27 18  1  0  0  0  0
 28 13  1  0  0  0  0
 29 16  1  0  0  0  0
 30 23  1  0  0  0  0
 11 31  1  1  0  0  0
  5 32  1  1  0  0  0
 23 33  1  6  0  0  0
  7 34  1  1  0  0  0
 12 35  1  1  0  0  0
 36 32  2  0  0  0  0
 37 52  1  0  0  0  0
 38 10  1  0  0  0  0
 39 35  1  0  0  0  0
 40 34  1  0  0  0  0
 41 10  2  0  0  0  0
 42  4  2  0  0  0  0
 43 41  1  0  0  0  0
 44 36  1  0  0  0  0
 45 29  1  0  0  0  0
 46 45  1  0  0  0  0
 47 48  1  0  0  0  0
 48 43  2  0  0  0  0
  2 49  1  6  0  0  0
 50 40  2  0  0  0  0
 51 39  2  0  0  0  0
 52 46  1  0  0  0  0
 53 28  1  0  0  0  0
 21 54  1  6  0  0  0
 22 55  1  6  0  0  0
 56  8  1  0  0  0  0
 57 30  1  0  0  0  0
 26 58  1  6  0  0  0
 27 59  1  6  0  0  0
 60 39  1  0  0  0  0
 61 40  1  0  0  0  0
 44 62  1  1  0  0  0
 47 63  1  6  0  0  0
 64 53  1  0  0  0  0
 53 65  1  6  0  0  0
 66 55  1  0  0  0  0
 67 54  1  0  0  0  0
 68 64  1  0  0  0  0
  1 69  1  1  0  0  0
 29 70  1  6  0  0  0
 46 71  1  6  0  0  0
 28 72  1  1  0  0  0
  3 73  1  6  0  0  0
  8  7  1  0  0  0  0
 38  9  1  0  0  0  0
 25  5  1  0  0  0  0
 37 30  2  0  0  0  0
 44 28  1  0  0  0  0
 11 22  1  0  0  0  0
 12 21  1  0  0  0  0
M  END
>  <IDNUMBER>
F6170-0156

>  <Chemical_Name>
(1'R,2S,4'S,5S,6R,8'R,10'E,12'S,13'S,14'E,16'E,20'R,21'R,24'S)-12'-{[(2R,4S,5S,6S)-5-{[(2S,4S,5S,6S)-5-(acetyloxy)-4-methoxy-6-methyloxan-2-yl]oxy}-4-methoxy-6-methyloxan-2-yl]oxy}-6-[(2S)-butan-2-yl]-24'-hydroxy-5,11',13',22'-tetramethyl-2'-oxo-5,6-dihydro-3',7',19'-trioxaspiro[pyran-2,6'-tetracyclo[15.6.1.1?,?.0??,??]pentacosane]-10',14',16',22'-tetraen-21'-yl acetate

>  <PriceCoeff>
7.00

>  <MW>
957.16

>  <Description>
solid

>  <FSP3>
0.75

>  <clogP>
6.20

>  <TPSA>
182.20

>  <Acceptor>
16

>  <Donor>
1

>  <RotBonds>
12

>  <HAC>
68

$$$$
F6170-0158
  Mrv2219 10102508112D          

 76 83  0  0  0  0            999 V2000
    9.7191  -10.2158    0.0000 C   0  0  2  0  0  0  0  0  0  0  0  0
    8.9819  -10.6691    0.0000 C   0  0  1  0  0  0  0  0  0  0  0  0
    8.9819  -11.4826    0.0000 C   0  0  1  0  0  0  0  0  0  0  0  0
    9.7136   -9.3860    0.0000 C   0  0  0  0  0  0  0  0  0  0  0  0
   11.1495   -6.9344    0.0000 C   0  0  2  0  0  0  0  0  0  0  0  0
   10.3960  -10.6200    0.0000 C   0  0  0  0  0  0  0  0  0  0  0  0
    9.7191  -11.8758    0.0000 C   0  0  1  0  0  0  0  0  0  0  0  0
   10.3960  -11.4826    0.0000 C   0  0  0  0  0  0  0  0  0  0  0  0
    8.2066  -11.7556    0.0000 O   0  0  0  0  0  0  0  0  0  0  0  0
    8.2066  -10.4343    0.0000 C   0  0  0  0  0  0  0  0  0  0  0  0
    9.7463  -12.6948    0.0000 O   0  0  0  0  0  0  0  0  0  0  0  0
    3.9859   -7.7479    0.0000 C   0  0  2  0  0  0  0  0  0  0  0  0
   11.1495   -6.0990    0.0000 O   0  0  0  0  0  0  0  0  0  0  0  0
    3.2870   -8.9983    0.0000 C   0  0  2  0  0  0  0  0  0  0  0  0
    5.4110   -6.9016    0.0000 C   0  0  2  0  0  0  0  0  0  0  0  0
   10.3960   -8.9983    0.0000 O   0  0  0  0  0  0  0  0  0  0  0  0
   10.4507  -13.0934    0.0000 C   0  0  0  0  0  0  0  0  0  0  0  0
    4.6848   -6.4921    0.0000 O   0  0  0  0  0  0  0  0  0  0  0  0
    2.5881   -9.4132    0.0000 O   0  0  0  0  0  0  0  0  0  0  0  0
    5.4164   -7.7207    0.0000 C   0  0  0  0  0  0  0  0  0  0  0  0
    4.0132   -9.3968    0.0000 C   0  0  0  0  0  0  0  0  0  0  0  0
    4.7120   -8.1410    0.0000 C   0  0  2  0  0  0  0  0  0  0  0  0
    3.2980  -10.6472    0.0000 C   0  0  2  0  0  0  0  0  0  0  0  0
    6.8251   -6.8853    0.0000 C   0  0  1  0  0  0  0  0  0  0  0  0
   11.1495   -7.7752    0.0000 C   0  0  0  0  0  0  0  0  0  0  0  0
   10.4234   -6.5139    0.0000 O   0  0  0  0  0  0  0  0  0  0  0  0
    3.9749   -6.9234    0.0000 C   0  0  1  0  0  0  0  0  0  0  0  0
   11.8649   -5.7386    0.0000 C   0  0  1  0  0  0  0  0  0  0  0  0
    4.0132  -10.2269    0.0000 C   0  0  1  0  0  0  0  0  0  0  0  0
   10.3960   -8.1683    0.0000 C   0  0  2  0  0  0  0  0  0  0  0  0
    2.5881  -10.2377    0.0000 C   0  0  2  0  0  0  0  0  0  0  0  0
    7.5677   -6.4647    0.0000 C   0  0  0  0  0  0  0  0  0  0  0  0
    3.2870   -8.1683    0.0000 O   0  0  0  0  0  0  0  0  0  0  0  0
   11.8158   -7.3001    0.0000 C   0  0  0  0  0  0  0  0  0  0  0  0
    6.1263   -6.4647    0.0000 O   0  0  0  0  0  0  0  0  0  0  0  0
   12.5474   -6.9125    0.0000 C   0  0  0  0  0  0  0  0  0  0  0  0
    8.2830   -6.8853    0.0000 C   0  0  0  0  0  0  0  0  0  0  0  0
    7.7207  -11.0404    0.0000 C   0  0  0  0  0  0  0  0  0  0  0  0
   11.2206  -12.8858    0.0000 C   0  0  0  0  0  0  0  0  0  0  0  0
    8.2066   -9.5825    0.0000 C   0  0  0  0  0  0  0  0  0  0  0  0
    8.9819   -8.9709    0.0000 O   0  0  0  0  0  0  0  0  0  0  0  0
    7.6496   -9.1785    0.0000 C   0  0  0  0  0  0  0  0  0  0  0  0
   12.5310   -6.1590    0.0000 C   0  0  2  0  0  0  0  0  0  0  0  0
    9.7191   -7.7643    0.0000 C   0  0  0  0  0  0  0  0  0  0  0  0
    9.7191   -6.9016    0.0000 C   0  0  1  0  0  0  0  0  0  0  0  0
   10.4398  -13.8961    0.0000 O   0  0  0  0  0  0  0  0  0  0  0  0
    6.8251   -7.7752    0.0000 C   0  0  2  0  0  0  0  0  0  0  0  0
    7.6496   -8.2993    0.0000 C   0  0  0  0  0  0  0  0  0  0  0  0
    8.9709   -9.7682    0.0000 O   0  0  0  0  0  0  0  0  0  0  0  0
   11.7830  -13.4483    0.0000 C   0  0  0  0  0  0  0  0  0  0  0  0
   11.4280  -12.1215    0.0000 C   0  0  0  0  0  0  0  0  0  0  0  0
    9.0092   -6.4647    0.0000 C   0  0  0  0  0  0  0  0  0  0  0  0
   11.5482   -4.9960    0.0000 C   0  0  2  0  0  0  0  0  0  0  0  0
    3.2980  -11.4718    0.0000 O   0  0  0  0  0  0  0  0  0  0  0  0
   12.7548  -12.4763    0.0000 C   0  0  0  0  0  0  0  0  0  0  0  0
    4.7284   -8.9709    0.0000 O   0  0  0  0  0  0  0  0  0  0  0  0
    4.7284  -10.6472    0.0000 O   0  0  0  0  0  0  0  0  0  0  0  0
   12.5474  -13.2408    0.0000 C   0  0  0  0  0  0  0  0  0  0  0  0
   12.1870  -11.9140    0.0000 C   0  0  0  0  0  0  0  0  0  0  0  0
   13.5193  -12.2689    0.0000 F   0  0  0  0  0  0  0  0  0  0  0  0
   11.1059  -11.9030    0.0000 C   0  0  0  0  0  0  0  0  0  0  0  0
    7.5514   -5.5638    0.0000 C   0  0  0  0  0  0  0  0  0  0  0  0
    3.2488   -6.5303    0.0000 C   0  0  0  0  0  0  0  0  0  0  0  0
    1.8729  -10.6581    0.0000 C   0  0  0  0  0  0  0  0  0  0  0  0
   13.2572   -5.7878    0.0000 C   0  0  0  0  0  0  0  0  0  0  0  0
    6.1263   -8.1683    0.0000 C   0  0  0  0  0  0  0  0  0  0  0  0
   10.7346   -4.8758    0.0000 C   0  0  0  0  0  0  0  0  0  0  0  0
   12.1379   -4.3244    0.0000 C   0  0  0  0  0  0  0  0  0  0  0  0
    5.4710  -10.2486    0.0000 C   0  0  0  0  0  0  0  0  0  0  0  0
    5.5202   -9.2277    0.0000 C   0  0  0  0  0  0  0  0  0  0  0  0
   10.5817   -4.0623    0.0000 C   0  0  0  0  0  0  0  0  0  0  0  0
    9.7354   -5.9024    0.0000 H   0  0  0  0  0  0  0  0  0  0  0  0
   12.4818   -5.2035    0.0000 H   0  0  0  0  0  0  0  0  0  0  0  0
    8.9709  -12.3836    0.0000 H   0  0  0  0  0  0  0  0  0  0  0  0
   10.4234   -9.8063    0.0000 H   0  0  0  0  0  0  0  0  0  0  0  0
   11.0676   -8.6270    0.0000 H   0  0  0  0  0  0  0  0  0  0  0  0
  2  1  1  0  0  0  0
  3  2  1  0  0  0  0
  4  1  1  0  0  0  0
  5 25  1  0  0  0  0
  6  1  1  0  0  0  0
  7  8  1  0  0  0  0
  8  6  2  0  0  0  0
  9  3  1  0  0  0  0
 10  2  1  0  0  0  0
  7 11  1  1  0  0  0
 12 27  1  0  0  0  0
 13  5  1  0  0  0  0
 14 33  1  1  0  0  0
 15 35  1  1  0  0  0
 16  4  1  0  0  0  0
 17 11  1  0  0  0  0
 18 15  1  0  0  0  0
 19 14  1  0  0  0  0
 20 15  1  0  0  0  0
 21 14  1  0  0  0  0
 22 20  1  0  0  0  0
 23 31  1  0  0  0  0
 24 47  1  0  0  0  0
 25 30  1  0  0  0  0
 26 45  1  0  0  0  0
 27 18  1  0  0  0  0
 28 13  1  0  0  0  0
 29 21  1  0  0  0  0
 30 16  1  0  0  0  0
 31 19  1  0  0  0  0
 32 37  2  0  0  0  0
 12 33  1  1  0  0  0
  5 34  1  1  0  0  0
 24 35  1  6  0  0  0
 36 34  2  0  0  0  0
 37 52  1  0  0  0  0
 38 10  1  0  0  0  0
 39 17  1  0  0  0  0
 40 10  2  0  0  0  0
 41  4  2  0  0  0  0
 42 40  1  0  0  0  0
 43 36  1  0  0  0  0
 44 30  1  0  0  0  0
 45 44  1  0  0  0  0
 46 17  2  0  0  0  0
 47 48  1  0  0  0  0
 48 42  2  0  0  0  0
  2 49  1  6  0  0  0
 50 39  2  0  0  0  0
 51 39  1  0  0  0  0
 52 45  1  0  0  0  0
 53 28  1  0  0  0  0
 23 54  1  1  0  0  0
 55 59  1  0  0  0  0
 22 56  1  6  0  0  0
 29 57  1  6  0  0  0
 58 50  1  0  0  0  0
 59 51  2  0  0  0  0
 60 55  1  0  0  0  0
 61  8  1  0  0  0  0
 62 32  1  0  0  0  0
 27 63  1  6  0  0  0
 31 64  1  6  0  0  0
 43 65  1  1  0  0  0
 47 66  1  6  0  0  0
 67 53  1  0  0  0  0
 53 68  1  6  0  0  0
 69 57  1  0  0  0  0
 70 56  1  0  0  0  0
 71 67  1  0  0  0  0
 45 72  1  6  0  0  0
 28 73  1  1  0  0  0
  3 74  1  6  0  0  0
  1 75  1  1  0  0  0
 30 76  1  6  0  0  0
  7  3  1  0  0  0  0
 38  9  1  0  0  0  0
 26  5  1  0  0  0  0
 55 58  2  0  0  0  0
 32 24  1  0  0  0  0
 43 28  1  0  0  0  0
 12 22  1  0  0  0  0
 23 29  1  0  0  0  0
M  END
>  <IDNUMBER>
F6170-0158

>  <Chemical_Name>
(1'R,2S,4'S,5S,6R,8'R,10'E,12'S,13'S,14'E,16'E,20'R,21'R,24'S)-6-[(2S)-butan-2-yl]-24'-hydroxy-12'-{[(2R,4S,5S,6S)-5-{[(2S,4S,5S,6S)-5-hydroxy-4-methoxy-6-methyloxan-2-yl]oxy}-4-methoxy-6-methyloxan-2-yl]oxy}-5,11',13',22'-tetramethyl-2'-oxo-5,6-dihydro-3',7',19'-trioxaspiro[pyran-2,6'-tetracyclo[15.6.1.1?,?.0??,??]pentacosane]-10',14',16',22'-tetraen-21'-yl 4-fluorobenzoate

>  <PriceCoeff>
7.00

>  <MW>
995.19

>  <Description>
solid

>  <FSP3>
0.67

>  <clogP>
7.22

>  <TPSA>
176.13

>  <Acceptor>
15

>  <Donor>
2

>  <RotBonds>
11

>  <HAC>
71

$$$$
F6170-0159
  Mrv2219 10102508112D          

 85 93  0  0  0  0            999 V2000
    9.7751  -10.2748    0.0000 C   0  0  2  0  0  0  0  0  0  0  0  0
    9.0337  -10.7307    0.0000 C   0  0  1  0  0  0  0  0  0  0  0  0
    9.0337  -11.5489    0.0000 C   0  0  1  0  0  0  0  0  0  0  0  0
    9.7696   -9.4401    0.0000 C   0  0  0  0  0  0  0  0  0  0  0  0
   11.2138   -6.9744    0.0000 C   0  0  2  0  0  0  0  0  0  0  0  0
   10.4560  -10.6812    0.0000 C   0  0  0  0  0  0  0  0  0  0  0  0
    9.7751  -11.9443    0.0000 C   0  0  1  0  0  0  0  0  0  0  0  0
   10.4560  -11.5489    0.0000 C   0  0  0  0  0  0  0  0  0  0  0  0
    3.3170  -10.7086    0.0000 C   0  0  2  0  0  0  0  0  0  0  0  0
    8.2539  -11.8234    0.0000 O   0  0  0  0  0  0  0  0  0  0  0  0
    8.2539  -10.4945    0.0000 C   0  0  0  0  0  0  0  0  0  0  0  0
    9.8025  -12.7680    0.0000 O   0  0  0  0  0  0  0  0  0  0  0  0
    3.3170  -11.5379    0.0000 O   0  0  0  0  0  0  0  0  0  0  0  0
    4.0089   -7.7926    0.0000 C   0  0  2  0  0  0  0  0  0  0  0  0
   11.2138   -6.1342    0.0000 O   0  0  0  0  0  0  0  0  0  0  0  0
    3.3059   -9.0502    0.0000 C   0  0  2  0  0  0  0  0  0  0  0  0
    5.4422   -6.9414    0.0000 C   0  0  2  0  0  0  0  0  0  0  0  0
   10.4560   -9.0502    0.0000 O   0  0  0  0  0  0  0  0  0  0  0  0
    4.1187  -11.7521    0.0000 C   0  0  0  0  0  0  0  0  0  0  0  0
   10.5109  -13.1689    0.0000 C   0  0  0  0  0  0  0  0  0  0  0  0
    4.7118   -6.5296    0.0000 O   0  0  0  0  0  0  0  0  0  0  0  0
    2.6030   -9.4675    0.0000 O   0  0  0  0  0  0  0  0  0  0  0  0
    4.0363   -9.4510    0.0000 C   0  0  0  0  0  0  0  0  0  0  0  0
    5.4476   -7.7652    0.0000 C   0  0  0  0  0  0  0  0  0  0  0  0
    4.0363  -10.2858    0.0000 C   0  0  2  0  0  0  0  0  0  0  0  0
    4.7392   -8.1880    0.0000 C   0  0  2  0  0  0  0  0  0  0  0  0
    6.8645   -6.9250    0.0000 C   0  0  1  0  0  0  0  0  0  0  0  0
    2.6030  -10.2968    0.0000 C   0  0  1  0  0  0  0  0  0  0  0  0
   11.2138   -7.8200    0.0000 C   0  0  0  0  0  0  0  0  0  0  0  0
   10.4835   -6.5515    0.0000 O   0  0  0  0  0  0  0  0  0  0  0  0
    3.9979   -6.9633    0.0000 C   0  0  1  0  0  0  0  0  0  0  0  0
   11.9333   -5.7717    0.0000 C   0  0  1  0  0  0  0  0  0  0  0  0
   10.4560   -8.2154    0.0000 C   0  0  2  0  0  0  0  0  0  0  0  0
    7.6114   -6.5020    0.0000 C   0  0  0  0  0  0  0  0  0  0  0  0
    3.3059   -8.2154    0.0000 O   0  0  0  0  0  0  0  0  0  0  0  0
   11.8839   -7.3422    0.0000 C   0  0  0  0  0  0  0  0  0  0  0  0
    6.1616   -6.5020    0.0000 O   0  0  0  0  0  0  0  0  0  0  0  0
   12.6197   -6.9524    0.0000 C   0  0  0  0  0  0  0  0  0  0  0  0
    8.3307   -6.9250    0.0000 C   0  0  0  0  0  0  0  0  0  0  0  0
    7.7652  -11.1040    0.0000 C   0  0  0  0  0  0  0  0  0  0  0  0
    4.1078  -12.5758    0.0000 C   0  0  0  0  0  0  0  0  0  0  0  0
   11.2853  -12.9602    0.0000 C   0  0  0  0  0  0  0  0  0  0  0  0
    8.2539   -9.6378    0.0000 C   0  0  0  0  0  0  0  0  0  0  0  0
    9.0337   -9.0227    0.0000 O   0  0  0  0  0  0  0  0  0  0  0  0
    7.6938   -9.2314    0.0000 C   0  0  0  0  0  0  0  0  0  0  0  0
   12.6033   -6.1945    0.0000 C   0  0  2  0  0  0  0  0  0  0  0  0
    9.7751   -7.8091    0.0000 C   0  0  0  0  0  0  0  0  0  0  0  0
    9.7751   -6.9414    0.0000 C   0  0  1  0  0  0  0  0  0  0  0  0
   10.5000  -13.9762    0.0000 O   0  0  0  0  0  0  0  0  0  0  0  0
    4.8327  -11.3347    0.0000 O   0  0  0  0  0  0  0  0  0  0  0  0
    6.8645   -7.8200    0.0000 C   0  0  2  0  0  0  0  0  0  0  0  0
    7.6938   -8.3472    0.0000 C   0  0  0  0  0  0  0  0  0  0  0  0
    9.0227   -9.8245    0.0000 O   0  0  0  0  0  0  0  0  0  0  0  0
   11.4939  -12.1914    0.0000 C   0  0  0  0  0  0  0  0  0  0  0  0
    4.8162  -12.9877    0.0000 C   0  0  0  0  0  0  0  0  0  0  0  0
    3.3938  -12.9877    0.0000 C   0  0  0  0  0  0  0  0  0  0  0  0
   11.8509  -13.5258    0.0000 C   0  0  0  0  0  0  0  0  0  0  0  0
    9.0612   -6.5020    0.0000 C   0  0  0  0  0  0  0  0  0  0  0  0
   11.6148   -5.0248    0.0000 C   0  0  2  0  0  0  0  0  0  0  0  0
    4.1078  -14.2178    0.0000 C   0  0  0  0  0  0  0  0  0  0  0  0
   12.8284  -12.5483    0.0000 C   0  0  0  0  0  0  0  0  0  0  0  0
    4.7557  -10.7086    0.0000 O   0  0  0  0  0  0  0  0  0  0  0  0
    4.7557   -9.0227    0.0000 O   0  0  0  0  0  0  0  0  0  0  0  0
    3.3938  -13.8059    0.0000 C   0  0  0  0  0  0  0  0  0  0  0  0
   12.6197  -13.3172    0.0000 C   0  0  0  0  0  0  0  0  0  0  0  0
    4.8216  -13.8059    0.0000 C   0  0  0  0  0  0  0  0  0  0  0  0
   12.2573  -11.9827    0.0000 C   0  0  0  0  0  0  0  0  0  0  0  0
   13.5973  -12.3397    0.0000 F   0  0  0  0  0  0  0  0  0  0  0  0
    4.1022  -15.0306    0.0000 F   0  0  0  0  0  0  0  0  0  0  0  0
   11.1699  -11.9717    0.0000 C   0  0  0  0  0  0  0  0  0  0  0  0
    7.5949   -5.5959    0.0000 C   0  0  0  0  0  0  0  0  0  0  0  0
    1.8837  -10.7196    0.0000 C   0  0  0  0  0  0  0  0  0  0  0  0
    3.2676   -6.5679    0.0000 C   0  0  0  0  0  0  0  0  0  0  0  0
   13.3337   -5.8212    0.0000 C   0  0  0  0  0  0  0  0  0  0  0  0
    6.1616   -8.2154    0.0000 C   0  0  0  0  0  0  0  0  0  0  0  0
   10.7966   -4.9040    0.0000 C   0  0  0  0  0  0  0  0  0  0  0  0
   12.2079   -4.3494    0.0000 C   0  0  0  0  0  0  0  0  0  0  0  0
    5.5520   -9.2809    0.0000 C   0  0  0  0  0  0  0  0  0  0  0  0
    5.5026  -10.3077    0.0000 C   0  0  0  0  0  0  0  0  0  0  0  0
   10.6427   -4.0858    0.0000 C   0  0  0  0  0  0  0  0  0  0  0  0
   10.4835   -9.8629    0.0000 H   0  0  0  0  0  0  0  0  0  0  0  0
   11.1315   -8.6767    0.0000 H   0  0  0  0  0  0  0  0  0  0  0  0
    9.7916   -5.9365    0.0000 H   0  0  0  0  0  0  0  0  0  0  0  0
   12.5538   -5.2335    0.0000 H   0  0  0  0  0  0  0  0  0  0  0  0
    9.0227  -12.4550    0.0000 H   0  0  0  0  0  0  0  0  0  0  0  0
  2  1  1  0  0  0  0
  3  2  1  0  0  0  0
  4  1  1  0  0  0  0
  5 29  1  0  0  0  0
  6  1  1  0  0  0  0
  7  8  1  0  0  0  0
  8  6  2  0  0  0  0
  9 28  1  0  0  0  0
 10  3  1  0  0  0  0
 11  2  1  0  0  0  0
  7 12  1  1  0  0  0
  9 13  1  1  0  0  0
 14 31  1  0  0  0  0
 15  5  1  0  0  0  0
 16 35  1  1  0  0  0
 17 37  1  1  0  0  0
 18  4  1  0  0  0  0
 19 13  1  0  0  0  0
 20 12  1  0  0  0  0
 21 17  1  0  0  0  0
 22 16  1  0  0  0  0
 23 16  1  0  0  0  0
 24 17  1  0  0  0  0
 25 23  1  0  0  0  0
 26 24  1  0  0  0  0
 27 51  1  0  0  0  0
 28 22  1  0  0  0  0
 29 33  1  0  0  0  0
 30 48  1  0  0  0  0
 31 21  1  0  0  0  0
 32 15  1  0  0  0  0
 33 18  1  0  0  0  0
 34 39  2  0  0  0  0
 14 35  1  1  0  0  0
  5 36  1  1  0  0  0
 27 37  1  6  0  0  0
 38 36  2  0  0  0  0
 39 58  1  0  0  0  0
 40 11  1  0  0  0  0
 41 19  1  0  0  0  0
 42 20  1  0  0  0  0
 43 11  2  0  0  0  0
 44  4  2  0  0  0  0
 45 43  1  0  0  0  0
 46 38  1  0  0  0  0
 47 33  1  0  0  0  0
 48 47  1  0  0  0  0
 49 20  2  0  0  0  0
 50 19  2  0  0  0  0
 51 52  1  0  0  0  0
 52 45  2  0  0  0  0
  2 53  1  6  0  0  0
 54 42  1  0  0  0  0
 55 41  1  0  0  0  0
 56 41  2  0  0  0  0
 57 42  2  0  0  0  0
 58 48  1  0  0  0  0
 59 32  1  0  0  0  0
 60 64  2  0  0  0  0
 61 65  2  0  0  0  0
 25 62  1  6  0  0  0
 26 63  1  6  0  0  0
 64 56  1  0  0  0  0
 65 57  1  0  0  0  0
 66 55  2  0  0  0  0
 67 54  2  0  0  0  0
 68 61  1  0  0  0  0
 69 60  1  0  0  0  0
 70  8  1  0  0  0  0
 71 34  1  0  0  0  0
 28 72  1  6  0  0  0
 31 73  1  6  0  0  0
 46 74  1  1  0  0  0
 51 75  1  6  0  0  0
 76 59  1  0  0  0  0
 59 77  1  6  0  0  0
 78 63  1  0  0  0  0
 79 62  1  0  0  0  0
 80 76  1  0  0  0  0
  1 81  1  1  0  0  0
 33 82  1  6  0  0  0
 48 83  1  6  0  0  0
 32 84  1  1  0  0  0
  3 85  1  6  0  0  0
  7  3  1  0  0  0  0
 40 10  1  0  0  0  0
 30  5  1  0  0  0  0
 67 61  1  0  0  0  0
 34 27  1  0  0  0  0
 46 32  1  0  0  0  0
 14 26  1  0  0  0  0
  9 25  1  0  0  0  0
 66 60  1  0  0  0  0
M  END
>  <IDNUMBER>
F6170-0159

>  <Chemical_Name>
(2S,3S,4S,6S)-6-{[(2S,3S,4S,6R)-6-[(1'R,2S,4'S,5S,6R,8'R,10'E,12'S,13'S,14'E,16'E,20'R,21'R,24'S)-6-[(2S)-butan-2-yl]-21'-(4-fluorobenzoyloxy)-24'-hydroxy-5,11',13',22'-tetramethyl-5,6-dihydro-3',7',19'-trioxaspiro[pyran-2,6'-tetracyclo[15.6.1.1?,?.0??,??]pentacosane]-10',14',16',22'-tetraen-2'-oneoxy]-4-methoxy-2-methyloxan-3-yl]oxy}-4-methoxy-2-methyloxan-3-yl 4-fluorobenzoate

>  <PriceCoeff>
7.00

>  <MW>
1 117.29

>  <Description>
solid

>  <FSP3>
0.60

>  <clogP>
9.71

>  <TPSA>
182.20

>  <Acceptor>
16

>  <Donor>
1

>  <RotBonds>
14

>  <HAC>
80

$$$$
F6170-0161
  Mrv2219 10102508112D          

 54 58  0  0  0  0            999 V2000
    9.7191  -10.2158    0.0000 C   0  0  2  0  0  0  0  0  0  0  0  0
    8.9819  -10.6691    0.0000 C   0  0  1  0  0  0  0  0  0  0  0  0
    8.9819  -11.4826    0.0000 C   0  0  1  0  0  0  0  0  0  0  0  0
    9.7191  -11.8758    0.0000 C   0  0  1  0  0  0  0  0  0  0  0  0
    9.7136   -9.3860    0.0000 C   0  0  0  0  0  0  0  0  0  0  0  0
   11.1495   -6.9344    0.0000 C   0  0  2  0  0  0  0  0  0  0  0  0
   10.3960  -10.6200    0.0000 C   0  0  0  0  0  0  0  0  0  0  0  0
   10.3960  -11.4826    0.0000 C   0  0  0  0  0  0  0  0  0  0  0  0
    8.2066  -11.7556    0.0000 O   0  0  0  0  0  0  0  0  0  0  0  0
    8.2066  -10.4343    0.0000 C   0  0  0  0  0  0  0  0  0  0  0  0
    9.7463  -12.6948    0.0000 O   0  0  0  0  0  0  0  0  0  0  0  0
   11.1495   -6.0990    0.0000 O   0  0  0  0  0  0  0  0  0  0  0  0
   10.3960   -8.9983    0.0000 O   0  0  0  0  0  0  0  0  0  0  0  0
   10.4507  -13.0934    0.0000 Si  0  0  0  0  0  0  0  0  0  0  0  0
   11.1495   -7.7752    0.0000 C   0  0  0  0  0  0  0  0  0  0  0  0
   10.4234   -6.5139    0.0000 O   0  0  0  0  0  0  0  0  0  0  0  0
   11.8649   -5.7386    0.0000 C   0  0  1  0  0  0  0  0  0  0  0  0
   10.3960   -8.1683    0.0000 C   0  0  2  0  0  0  0  0  0  0  0  0
   11.8158   -7.3001    0.0000 C   0  0  0  0  0  0  0  0  0  0  0  0
    7.5677   -6.4647    0.0000 C   0  0  0  0  0  0  0  0  0  0  0  0
   12.5474   -6.9125    0.0000 C   0  0  0  0  0  0  0  0  0  0  0  0
    8.2830   -6.8853    0.0000 C   0  0  0  0  0  0  0  0  0  0  0  0
    7.7207  -11.0404    0.0000 C   0  0  0  0  0  0  0  0  0  0  0  0
    6.8251   -6.8853    0.0000 C   0  0  2  0  0  0  0  0  0  0  0  0
   11.0131  -13.6667    0.0000 C   0  0  0  0  0  0  0  0  0  0  0  0
    8.2066   -9.5825    0.0000 C   0  0  0  0  0  0  0  0  0  0  0  0
    8.9819   -8.9709    0.0000 O   0  0  0  0  0  0  0  0  0  0  0  0
    7.6496   -9.1785    0.0000 C   0  0  0  0  0  0  0  0  0  0  0  0
   12.5310   -6.1590    0.0000 C   0  0  2  0  0  0  0  0  0  0  0  0
    9.7191   -7.7643    0.0000 C   0  0  0  0  0  0  0  0  0  0  0  0
    9.7191   -6.9016    0.0000 C   0  0  1  0  0  0  0  0  0  0  0  0
    7.6496   -8.2993    0.0000 C   0  0  0  0  0  0  0  0  0  0  0  0
    8.9709   -9.7682    0.0000 O   0  0  0  0  0  0  0  0  0  0  0  0
    6.8251   -7.7752    0.0000 C   0  0  2  0  0  0  0  0  0  0  0  0
    9.0092   -6.4647    0.0000 C   0  0  0  0  0  0  0  0  0  0  0  0
   11.5482   -4.9960    0.0000 C   0  0  2  0  0  0  0  0  0  0  0  0
    6.1263   -6.4647    0.0000 O   0  0  0  0  0  0  0  0  0  0  0  0
   11.1059  -11.9030    0.0000 C   0  0  0  0  0  0  0  0  0  0  0  0
    9.8774  -13.6667    0.0000 C   0  0  0  0  0  0  0  0  0  0  0  0
   11.1442  -12.6948    0.0000 C   0  0  0  0  0  0  0  0  0  0  0  0
    7.5514   -5.5638    0.0000 C   0  0  0  0  0  0  0  0  0  0  0  0
   10.8002  -14.4366    0.0000 C   0  0  0  0  0  0  0  0  0  0  0  0
   11.8158  -13.6667    0.0000 C   0  0  0  0  0  0  0  0  0  0  0  0
   11.5809  -14.2237    0.0000 C   0  0  0  0  0  0  0  0  0  0  0  0
   13.2572   -5.7878    0.0000 C   0  0  0  0  0  0  0  0  0  0  0  0
    6.1263   -8.1683    0.0000 C   0  0  0  0  0  0  0  0  0  0  0  0
   10.7346   -4.8758    0.0000 C   0  0  0  0  0  0  0  0  0  0  0  0
   12.1379   -4.3244    0.0000 C   0  0  0  0  0  0  0  0  0  0  0  0
   10.5817   -4.0623    0.0000 C   0  0  0  0  0  0  0  0  0  0  0  0
   11.0676   -8.6270    0.0000 H   0  0  0  0  0  0  0  0  0  0  0  0
    9.7354   -5.9024    0.0000 H   0  0  0  0  0  0  0  0  0  0  0  0
   12.4818   -5.2035    0.0000 H   0  0  0  0  0  0  0  0  0  0  0  0
    8.9709  -12.3836    0.0000 H   0  0  0  0  0  0  0  0  0  0  0  0
   10.4234   -9.8063    0.0000 H   0  0  0  0  0  0  0  0  0  0  0  0
  2  1  1  0  0  0  0
  3  2  1  0  0  0  0
  4  3  1  0  0  0  0
  5  1  1  0  0  0  0
  6 15  1  0  0  0  0
  7  1  1  0  0  0  0
  8  7  2  0  0  0  0
  9  3  1  0  0  0  0
 10  2  1  0  0  0  0
  4 11  1  1  0  0  0
 12  6  1  0  0  0  0
 13  5  1  0  0  0  0
 14 11  1  0  0  0  0
 15 18  1  0  0  0  0
 16 31  1  0  0  0  0
 17 12  1  0  0  0  0
 18 13  1  0  0  0  0
  6 19  1  1  0  0  0
 20 24  1  0  0  0  0
 21 19  2  0  0  0  0
 22 35  1  0  0  0  0
 23 10  1  0  0  0  0
 24 34  1  0  0  0  0
 25 14  1  0  0  0  0
 26 10  2  0  0  0  0
 27  5  2  0  0  0  0
 28 26  1  0  0  0  0
 29 21  1  0  0  0  0
 30 18  1  0  0  0  0
 31 30  1  0  0  0  0
 32 28  2  0  0  0  0
  2 33  1  6  0  0  0
 34 32  1  0  0  0  0
 35 31  1  0  0  0  0
 36 17  1  0  0  0  0
 24 37  1  6  0  0  0
 38  8  1  0  0  0  0
 39 14  1  0  0  0  0
 40 14  1  0  0  0  0
 41 20  1  0  0  0  0
 42 25  1  0  0  0  0
 43 25  1  0  0  0  0
 44 25  1  0  0  0  0
 29 45  1  1  0  0  0
 34 46  1  6  0  0  0
 47 36  1  0  0  0  0
 36 48  1  6  0  0  0
 49 47  1  0  0  0  0
 18 50  1  6  0  0  0
 31 51  1  6  0  0  0
 17 52  1  1  0  0  0
  3 53  1  6  0  0  0
  1 54  1  1  0  0  0
  8  4  1  0  0  0  0
 23  9  1  0  0  0  0
 16  6  1  0  0  0  0
 22 20  2  0  0  0  0
 29 17  1  0  0  0  0
M  END
>  <IDNUMBER>
F6170-0161

>  <Chemical_Name>
(1'R,2S,4'S,5S,6R,8'R,10'E,12'S,13'S,14'E,16'E,20'R,21'R,24'S)-6-[(2S)-butan-2-yl]-21'-[(tert-butyldimethylsilyl)oxy]-12',24'-dihydroxy-5,11',13',22'-tetramethyl-5,6-dihydro-3',7',19'-trioxaspiro[pyran-2,6'-tetracyclo[15.6.1.1?,?.0??,??]pentacosane]-10',14',16',22'-tetraen-2'-one

>  <PriceCoeff>
7.00

>  <CAS>
73162-84-2

>  <MW>
699.01

>  <Description>
solid

>  <FSP3>
0.73

>  <clogP>
7.56

>  <TPSA>
103.68

>  <Acceptor>
8

>  <Donor>
2

>  <RotBonds>
5

>  <HAC>
49

$$$$
F6170-0162
  Mrv2219 10102508112D          

 53 57  0  0  0  0            999 V2000
    6.3212   -4.0598    0.0000 C   0  0  2  0  0  0  0  0  0  0  0  0
    5.5869   -4.5104    0.0000 C   0  0  1  0  0  0  0  0  0  0  0  0
    5.5869   -5.3198    0.0000 C   0  0  1  0  0  0  0  0  0  0  0  0
    6.3128   -3.2336    0.0000 C   0  0  0  0  0  0  0  0  0  0  0  0
    7.7439   -0.7928    0.0000 C   0  0  2  0  0  0  0  0  0  0  0  0
    6.9929   -4.4603    0.0000 C   0  0  0  0  0  0  0  0  0  0  0  0
    6.3212   -5.7120    0.0000 C   0  0  1  0  0  0  0  0  0  0  0  0
    6.9929   -5.3198    0.0000 C   0  0  0  0  0  0  0  0  0  0  0  0
    4.8149   -5.5910    0.0000 O   0  0  0  0  0  0  0  0  0  0  0  0
    4.8149   -4.2767    0.0000 C   0  0  0  0  0  0  0  0  0  0  0  0
    7.7439    0.0376    0.0000 O   0  0  0  0  0  0  0  0  0  0  0  0
    6.9929   -2.8456    0.0000 O   0  0  0  0  0  0  0  0  0  0  0  0
    7.7439   -1.6314    0.0000 C   0  0  0  0  0  0  0  0  0  0  0  0
    7.0221   -0.3755    0.0000 O   0  0  0  0  0  0  0  0  0  0  0  0
    3.4380   -0.7427    0.0000 C   0  0  1  0  0  0  0  0  0  0  0  0
    8.4574    0.3963    0.0000 C   0  0  1  0  0  0  0  0  0  0  0  0
    6.9929   -2.0195    0.0000 C   0  0  2  0  0  0  0  0  0  0  0  0
    4.1724   -0.3254    0.0000 C   0  0  0  0  0  0  0  0  0  0  0  0
    8.4073   -1.1558    0.0000 C   0  0  0  0  0  0  0  0  0  0  0  0
    6.3462   -6.5256    0.0000 O   0  0  0  0  0  0  0  0  0  0  0  0
    9.1292   -0.7719    0.0000 C   0  0  0  0  0  0  0  0  0  0  0  0
    4.8900   -0.7427    0.0000 C   0  0  0  0  0  0  0  0  0  0  0  0
    2.7413   -0.3254    0.0000 O   0  0  0  0  0  0  0  0  0  0  0  0
    4.3309   -4.8817    0.0000 C   0  0  0  0  0  0  0  0  0  0  0  0
    7.0597   -6.9387    0.0000 C   0  0  0  0  0  0  0  0  0  0  0  0
    2.7496    0.5007    0.0000 C   0  0  0  0  0  0  0  0  0  0  0  0
    4.8149   -3.4297    0.0000 C   0  0  0  0  0  0  0  0  0  0  0  0
    5.5869   -2.8206    0.0000 O   0  0  0  0  0  0  0  0  0  0  0  0
    4.2600   -3.0249    0.0000 C   0  0  0  0  0  0  0  0  0  0  0  0
    9.1167   -0.0208    0.0000 C   0  0  2  0  0  0  0  0  0  0  0  0
    6.3212   -1.6189    0.0000 C   0  0  0  0  0  0  0  0  0  0  0  0
    6.3212   -0.7593    0.0000 C   0  0  1  0  0  0  0  0  0  0  0  0
    3.4380   -1.6314    0.0000 C   0  0  2  0  0  0  0  0  0  0  0  0
    4.2600   -2.1529    0.0000 C   0  0  0  0  0  0  0  0  0  0  0  0
    5.5743   -3.6132    0.0000 O   0  0  0  0  0  0  0  0  0  0  0  0
    3.4715    0.9012    0.0000 O   0  0  0  0  0  0  0  0  0  0  0  0
    7.7731   -6.5256    0.0000 O   0  0  0  0  0  0  0  0  0  0  0  0
    5.6119   -0.3254    0.0000 C   0  0  0  0  0  0  0  0  0  0  0  0
    8.1404    1.1349    0.0000 C   0  0  2  0  0  0  0  0  0  0  0  0
    7.6980   -5.7371    0.0000 C   0  0  0  0  0  0  0  0  0  0  0  0
    4.1599    0.5716    0.0000 C   0  0  0  0  0  0  0  0  0  0  0  0
    7.0555   -7.7648    0.0000 C   0  0  0  0  0  0  0  0  0  0  0  0
    2.0403    0.9221    0.0000 C   0  0  0  0  0  0  0  0  0  0  0  0
    9.8427    0.3505    0.0000 C   0  0  0  0  0  0  0  0  0  0  0  0
    2.7413   -2.0195    0.0000 C   0  0  0  0  0  0  0  0  0  0  0  0
    7.3308    1.2559    0.0000 C   0  0  0  0  0  0  0  0  0  0  0  0
    8.7287    1.8067    0.0000 C   0  0  0  0  0  0  0  0  0  0  0  0
    7.1765    2.0653    0.0000 C   0  0  0  0  0  0  0  0  0  0  0  0
    7.0221   -3.6508    0.0000 H   0  0  0  0  0  0  0  0  0  0  0  0
    7.6605   -2.4784    0.0000 H   0  0  0  0  0  0  0  0  0  0  0  0
    6.3379    0.2336    0.0000 H   0  0  0  0  0  0  0  0  0  0  0  0
    9.0707    0.9305    0.0000 H   0  0  0  0  0  0  0  0  0  0  0  0
    5.5743   -6.2168    0.0000 H   0  0  0  0  0  0  0  0  0  0  0  0
  2  1  1  0  0  0  0
  3  2  1  0  0  0  0
  4  1  1  0  0  0  0
  5 13  1  0  0  0  0
  6  1  1  0  0  0  0
  7  3  1  0  0  0  0
  8  6  2  0  0  0  0
  9  3  1  0  0  0  0
 10  2  1  0  0  0  0
 11  5  1  0  0  0  0
 12  4  1  0  0  0  0
 13 17  1  0  0  0  0
 14 32  1  0  0  0  0
 15 33  1  0  0  0  0
 16 11  1  0  0  0  0
 17 12  1  0  0  0  0
 18 15  1  0  0  0  0
  5 19  1  1  0  0  0
  7 20  1  1  0  0  0
 21 19  2  0  0  0  0
 22 38  1  0  0  0  0
 15 23  1  6  0  0  0
 24 10  1  0  0  0  0
 25 20  1  0  0  0  0
 26 23  1  0  0  0  0
 27 10  2  0  0  0  0
 28  4  2  0  0  0  0
 29 27  1  0  0  0  0
 30 21  1  0  0  0  0
 31 17  1  0  0  0  0
 32 31  1  0  0  0  0
 33 34  1  0  0  0  0
 34 29  2  0  0  0  0
  2 35  1  6  0  0  0
 36 26  2  0  0  0  0
 37 25  2  0  0  0  0
 38 32  1  0  0  0  0
 39 16  1  0  0  0  0
 40  8  1  0  0  0  0
 41 18  1  0  0  0  0
 42 25  1  0  0  0  0
 43 26  1  0  0  0  0
 30 44  1  1  0  0  0
 33 45  1  6  0  0  0
 46 39  1  0  0  0  0
 39 47  1  6  0  0  0
 48 46  1  0  0  0  0
  1 49  1  1  0  0  0
 17 50  1  6  0  0  0
 32 51  1  6  0  0  0
 16 52  1  1  0  0  0
  3 53  1  6  0  0  0
  8  7  1  0  0  0  0
 24  9  1  0  0  0  0
 14  5  1  0  0  0  0
 22 18  2  0  0  0  0
 30 16  1  0  0  0  0
M  END
>  <IDNUMBER>
F6170-0162

>  <Chemical_Name>
(1'R,2S,4'S,5S,6R,8'R,10'E,12'S,13'S,14'E,16'E,20'R,21'R,24'S)-12'-(acetyloxy)-6-[(2S)-butan-2-yl]-24'-hydroxy-5,11',13',22'-tetramethyl-2'-oxo-5,6-dihydro-3',7',19'-trioxaspiro[pyran-2,6'-tetracyclo[15.6.1.1?,?.0??,??]pentacosane]-10',14',16',22'-tetraen-21'-yl acetate

>  <PriceCoeff>
7.00

>  <MW>
668.82

>  <Description>
solid

>  <FSP3>
0.66

>  <clogP>
6.03

>  <TPSA>
126.82

>  <Acceptor>
10

>  <Donor>
1

>  <RotBonds>
6

>  <HAC>
48

$$$$
F6170-0173
  Mrv2219 10102508112D          

 51 55  0  0  0  0            999 V2000
   -3.5355    1.6352    0.0000 C   0  0  2  0  0  0  0  0  0  0  0  0
   -4.2572    1.2153    0.0000 C   0  0  1  0  0  0  0  0  0  0  0  0
   -4.2572    0.3903    0.0000 C   0  0  1  0  0  0  0  0  0  0  0  0
   -3.5355    2.4453    0.0000 C   0  0  0  0  0  0  0  0  0  0  0  0
   -2.1213    4.9276    0.0000 C   0  0  2  0  0  0  0  0  0  0  0  0
   -3.5355   -0.0221    0.0000 C   0  0  1  0  0  0  0  0  0  0  0  0
   -4.2647   -1.2521    0.0000 S   0  0  0  0  0  0  0  0  0  0  0  0
   -2.8431    1.2153    0.0000 C   0  0  0  0  0  0  0  0  0  0  0  0
   -2.8431    0.3903    0.0000 C   0  0  0  0  0  0  0  0  0  0  0  0
   -5.6642    0.3903    0.0000 O   0  0  0  0  0  0  0  0  0  0  0  0
   -4.9497    1.6352    0.0000 C   0  0  0  0  0  0  0  0  0  0  0  0
   -2.1213    5.7526    0.0000 O   0  0  0  0  0  0  0  0  0  0  0  0
   -2.8431    2.8652    0.0000 O   0  0  0  0  0  0  0  0  0  0  0  0
   -3.5355   -0.8471    0.0000 O   0  0  0  0  0  0  0  0  0  0  0  0
   -2.1213    4.1026    0.0000 C   0  0  0  0  0  0  0  0  0  0  0  0
   -2.8431    5.3400    0.0000 O   0  0  0  0  0  0  0  0  0  0  0  0
   -1.4142    6.1650    0.0000 C   0  0  1  0  0  0  0  0  0  0  0  0
   -2.8431    3.6902    0.0000 C   0  0  2  0  0  0  0  0  0  0  0  0
   -1.4142    4.5224    0.0000 C   0  0  0  0  0  0  0  0  0  0  0  0
   -5.6642    5.3400    0.0000 C   0  0  0  0  0  0  0  0  0  0  0  0
   -0.7145    4.9276    0.0000 C   0  0  0  0  0  0  0  0  0  0  0  0
   -4.9497    4.9276    0.0000 C   0  0  0  0  0  0  0  0  0  0  0  0
   -5.6642    1.2153    0.0000 C   0  0  0  0  0  0  0  0  0  0  0  0
   -6.3713    4.9276    0.0000 C   0  0  2  0  0  0  0  0  0  0  0  0
   -4.2647   -2.0771    0.0000 O   0  0  0  0  0  0  0  0  0  0  0  0
   -4.9718   -0.8471    0.0000 O   0  0  0  0  0  0  0  0  0  0  0  0
   -4.9497    2.4453    0.0000 C   0  0  0  0  0  0  0  0  0  0  0  0
   -4.1468    2.8505    0.0000 O   0  0  0  0  0  0  0  0  0  0  0  0
   -5.6642    2.8652    0.0000 C   0  0  0  0  0  0  0  0  0  0  0  0
   -0.7145    5.7526    0.0000 C   0  0  2  0  0  0  0  0  0  0  0  0
   -3.5355    4.1026    0.0000 C   0  0  0  0  0  0  0  0  0  0  0  0
   -3.5355    4.9276    0.0000 C   0  0  1  0  0  0  0  0  0  0  0  0
   -5.6642    3.6902    0.0000 C   0  0  0  0  0  0  0  0  0  0  0  0
   -4.2572    2.0329    0.0000 O   0  0  0  0  0  0  0  0  0  0  0  0
   -6.3713    4.1026    0.0000 C   0  0  2  0  0  0  0  0  0  0  0  0
   -4.2572    5.3400    0.0000 C   0  0  0  0  0  0  0  0  0  0  0  0
   -1.4142    6.9972    0.0000 C   0  0  2  0  0  0  0  0  0  0  0  0
   -4.8392   -1.8266    0.0000 C   0  0  0  0  0  0  0  0  0  0  0  0
   -7.0856    5.3400    0.0000 O   0  0  0  0  0  0  0  0  0  0  0  0
   -2.1213   -0.0221    0.0000 C   0  0  0  0  0  0  0  0  0  0  0  0
   -5.6642    6.1650    0.0000 C   0  0  0  0  0  0  0  0  0  0  0  0
    0.0000    6.1650    0.0000 C   0  0  0  0  0  0  0  0  0  0  0  0
   -7.0856    3.6902    0.0000 C   0  0  0  0  0  0  0  0  0  0  0  0
   -0.7145    7.3877    0.0000 C   0  0  0  0  0  0  0  0  0  0  0  0
   -2.1287    7.3877    0.0000 C   0  0  0  0  0  0  0  0  0  0  0  0
    0.0000    6.9972    0.0000 C   0  0  0  0  0  0  0  0  0  0  0  0
   -4.2572   -0.4419    0.0000 H   0  0  0  0  0  0  0  0  0  0  0  0
   -0.7145    6.5848    0.0000 H   0  0  0  0  0  0  0  0  0  0  0  0
   -2.8431    4.5077    0.0000 H   0  0  0  0  0  0  0  0  0  0  0  0
   -3.5355    5.7526    0.0000 H   0  0  0  0  0  0  0  0  0  0  0  0
   -3.5355    0.8102    0.0000 H   0  0  0  0  0  0  0  0  0  0  0  0
  2  1  1  0  0  0  0
  3  2  1  0  0  0  0
  4  1  1  0  0  0  0
  5 15  1  6  0  0  0
  6  9  1  0  0  0  0
  7 14  1  0  0  0  0
  8  1  1  0  0  0  0
  9  8  2  0  0  0  0
 10  3  1  0  0  0  0
 11  2  1  0  0  0  0
 12  5  1  0  0  0  0
 13  4  1  0  0  0  0
  6 14  1  1  0  0  0
 15 18  1  0  0  0  0
 16 32  1  0  0  0  0
 17 12  1  0  0  0  0
 18 13  1  0  0  0  0
 19  5  1  0  0  0  0
 20 22  2  0  0  0  0
 21 19  2  0  0  0  0
 22 36  1  0  0  0  0
 23 11  1  0  0  0  0
 24 35  1  0  0  0  0
 25  7  2  0  0  0  0
 26  7  2  0  0  0  0
 27 11  2  0  0  0  0
 28  4  2  0  0  0  0
 29 27  1  0  0  0  0
 30 21  1  0  0  0  0
 31 18  1  0  0  0  0
 32 31  1  0  0  0  0
 33 29  2  0  0  0  0
  2 34  1  6  0  0  0
 35 33  1  0  0  0  0
 36 32  1  0  0  0  0
 37 17  1  0  0  0  0
 38  7  1  0  0  0  0
 24 39  1  6  0  0  0
 40  9  1  0  0  0  0
 41 20  1  0  0  0  0
 30 42  1  1  0  0  0
 35 43  1  6  0  0  0
 44 37  1  0  0  0  0
 37 45  1  1  0  0  0
 46 44  1  0  0  0  0
  3 47  1  6  0  0  0
 17 48  1  1  0  0  0
 18 49  1  6  0  0  0
 32 50  1  6  0  0  0
  1 51  1  1  0  0  0
  3  6  1  0  0  0  0
 23 10  1  0  0  0  0
  5 16  1  1  0  0  0
 20 24  1  0  0  0  0
 30 17  1  0  0  0  0
M  END
>  <IDNUMBER>
F6170-0173

>  <Chemical_Name>
(1'R,2S,4'S,5S,6R,8'R,10'E,12'S,13'S,14'E,16'E,20'R,21'R,24'S)-6-[(2S)-butan-2-yl]-12',24'-dihydroxy-5,11',13',22'-tetramethyl-2'-oxo-5,6-dihydro-3',7',19'-trioxaspiro[pyran-2,6'-tetracyclo[15.6.1.1?,?.0??,??]pentacosane]-10',14',16',22'-tetraen-21'-yl methanesulfonate

>  <PriceCoeff>
7.00

>  <MW>
662.84

>  <Description>
solid

>  <FSP3>
0.69

>  <clogP>
4.57

>  <TPSA>
137.82

>  <Acceptor>
10

>  <Donor>
2

>  <RotBonds>
4

>  <HAC>
46

$$$$
F6170-0174
  Mrv2219 10102508112D          

 56 61  0  0  0  0            999 V2000
    3.5001   -1.4128    0.0000 C   0  0  2  0  0  0  0  0  0  0  0  0
    2.7858   -1.8334    0.0000 C   0  0  1  0  0  0  0  0  0  0  0  0
    2.7858   -2.6668    0.0000 C   0  0  1  0  0  0  0  0  0  0  0  0
    3.5001   -0.5953    0.0000 C   0  0  0  0  0  0  0  0  0  0  0  0
    4.9129    1.8968    0.0000 C   0  0  2  0  0  0  0  0  0  0  0  0
    4.1986   -1.8334    0.0000 C   0  0  0  0  0  0  0  0  0  0  0  0
    3.5001   -3.0795    0.0000 C   0  0  1  0  0  0  0  0  0  0  0  0
    4.1986   -2.6668    0.0000 C   0  0  0  0  0  0  0  0  0  0  0  0
    1.3652   -2.6668    0.0000 O   0  0  0  0  0  0  0  0  0  0  0  0
    2.0795   -1.4128    0.0000 C   0  0  0  0  0  0  0  0  0  0  0  0
    3.5001   -3.9049    0.0000 O   0  0  0  0  0  0  0  0  0  0  0  0
    4.9129    2.7302    0.0000 O   0  0  0  0  0  0  0  0  0  0  0  0
    4.1986   -0.1747    0.0000 O   0  0  0  0  0  0  0  0  0  0  0  0
    2.7700   -4.3177    0.0000 C   0  0  0  0  0  0  0  0  0  0  0  0
    4.9129    1.0715    0.0000 C   0  0  0  0  0  0  0  0  0  0  0  0
    4.1986    2.3096    0.0000 O   0  0  0  0  0  0  0  0  0  0  0  0
    5.6272    3.1430    0.0000 C   0  0  1  0  0  0  0  0  0  0  0  0
    4.1986    0.6587    0.0000 C   0  0  2  0  0  0  0  0  0  0  0  0
    5.6272    1.4921    0.0000 C   0  0  0  0  0  0  0  0  0  0  0  0
    1.3652    2.3096    0.0000 C   0  0  0  0  0  0  0  0  0  0  0  0
    6.3416    1.8968    0.0000 C   0  0  0  0  0  0  0  0  0  0  0  0
    2.0795    1.8968    0.0000 C   0  0  0  0  0  0  0  0  0  0  0  0
    1.3652   -1.8334    0.0000 C   0  0  0  0  0  0  0  0  0  0  0  0
    0.6509    1.8968    0.0000 C   0  0  2  0  0  0  0  0  0  0  0  0
    2.7700   -5.1430    0.0000 C   0  0  0  0  0  0  0  0  0  0  0  0
    2.0795   -0.5953    0.0000 C   0  0  0  0  0  0  0  0  0  0  0  0
    2.8891   -0.1825    0.0000 O   0  0  0  0  0  0  0  0  0  0  0  0
    1.3652   -0.1747    0.0000 C   0  0  0  0  0  0  0  0  0  0  0  0
    6.3416    2.7302    0.0000 C   0  0  2  0  0  0  0  0  0  0  0  0
    3.5001    1.0715    0.0000 C   0  0  0  0  0  0  0  0  0  0  0  0
    3.5001    1.8968    0.0000 C   0  0  1  0  0  0  0  0  0  0  0  0
    2.0557   -3.9049    0.0000 O   0  0  0  0  0  0  0  0  0  0  0  0
    1.3652    0.6587    0.0000 C   0  0  0  0  0  0  0  0  0  0  0  0
    2.7858   -1.0080    0.0000 O   0  0  0  0  0  0  0  0  0  0  0  0
    0.6509    1.0715    0.0000 C   0  0  2  0  0  0  0  0  0  0  0  0
    2.0557   -5.5478    0.0000 C   0  0  0  0  0  0  0  0  0  0  0  0
    3.4843   -5.5478    0.0000 C   0  0  0  0  0  0  0  0  0  0  0  0
    2.7858    2.3096    0.0000 C   0  0  0  0  0  0  0  0  0  0  0  0
    5.6272    3.9763    0.0000 C   0  0  2  0  0  0  0  0  0  0  0  0
    2.7700   -6.7860    0.0000 C   0  0  0  0  0  0  0  0  0  0  0  0
   -0.0634    2.3096    0.0000 O   0  0  0  0  0  0  0  0  0  0  0  0
    3.5001   -6.3654    0.0000 C   0  0  0  0  0  0  0  0  0  0  0  0
    2.0557   -6.3654    0.0000 C   0  0  0  0  0  0  0  0  0  0  0  0
    2.7700   -7.6035    0.0000 F   0  0  0  0  0  0  0  0  0  0  0  0
    4.9129   -3.0795    0.0000 C   0  0  0  0  0  0  0  0  0  0  0  0
    1.3652    3.1430    0.0000 C   0  0  0  0  0  0  0  0  0  0  0  0
    7.0559    3.1430    0.0000 C   0  0  0  0  0  0  0  0  0  0  0  0
   -0.0634    0.6587    0.0000 C   0  0  0  0  0  0  0  0  0  0  0  0
    6.3416    4.3811    0.0000 C   0  0  0  0  0  0  0  0  0  0  0  0
    4.9129    4.3811    0.0000 C   0  0  0  0  0  0  0  0  0  0  0  0
    7.0559    3.9763    0.0000 C   0  0  0  0  0  0  0  0  0  0  0  0
    2.7858   -3.5001    0.0000 H   0  0  0  0  0  0  0  0  0  0  0  0
    6.3416    3.5636    0.0000 H   0  0  0  0  0  0  0  0  0  0  0  0
    4.1986    1.4762    0.0000 H   0  0  0  0  0  0  0  0  0  0  0  0
    3.5001    2.7302    0.0000 H   0  0  0  0  0  0  0  0  0  0  0  0
    3.5001   -2.2382    0.0000 H   0  0  0  0  0  0  0  0  0  0  0  0
  2  1  1  0  0  0  0
  3  2  1  0  0  0  0
  4  1  1  0  0  0  0
  5 15  1  6  0  0  0
  6  1  1  0  0  0  0
  7  8  1  0  0  0  0
  8  6  2  0  0  0  0
  9  3  1  0  0  0  0
 10  2  1  0  0  0  0
  7 11  1  1  0  0  0
 12  5  1  0  0  0  0
 13  4  1  0  0  0  0
 14 11  1  0  0  0  0
 15 18  1  0  0  0  0
 16 31  1  0  0  0  0
 17 12  1  0  0  0  0
 18 13  1  0  0  0  0
 19  5  1  0  0  0  0
 20 22  2  0  0  0  0
 21 19  2  0  0  0  0
 22 38  1  0  0  0  0
 23 10  1  0  0  0  0
 24 35  1  0  0  0  0
 25 14  1  0  0  0  0
 26 10  2  0  0  0  0
 27  4  2  0  0  0  0
 28 26  1  0  0  0  0
 29 21  1  0  0  0  0
 30 18  1  0  0  0  0
 31 30  1  0  0  0  0
 32 14  2  0  0  0  0
 33 28  2  0  0  0  0
  2 34  1  6  0  0  0
 35 33  1  0  0  0  0
 36 25  2  0  0  0  0
 37 25  1  0  0  0  0
 38 31  1  0  0  0  0
 39 17  1  0  0  0  0
 40 42  1  0  0  0  0
 24 41  1  6  0  0  0
 42 37  2  0  0  0  0
 43 36  1  0  0  0  0
 44 40  1  0  0  0  0
 45  8  1  0  0  0  0
 46 20  1  0  0  0  0
 29 47  1  1  0  0  0
 35 48  1  6  0  0  0
 49 39  1  0  0  0  0
 39 50  1  1  0  0  0
 51 49  1  0  0  0  0
  3 52  1  6  0  0  0
 17 53  1  1  0  0  0
 18 54  1  6  0  0  0
 31 55  1  6  0  0  0
  1 56  1  1  0  0  0
  7  3  1  0  0  0  0
 23  9  1  0  0  0  0
  5 16  1  1  0  0  0
 20 24  1  0  0  0  0
 43 40  2  0  0  0  0
 29 17  1  0  0  0  0
M  END
>  <IDNUMBER>
F6170-0174

>  <Chemical_Name>
(1'R,2S,4'S,5S,6R,8'R,10'E,12'S,13'S,14'E,16'E,20'R,21'R,24'S)-6-[(2S)-butan-2-yl]-12',24'-dihydroxy-5,11',13',22'-tetramethyl-2'-oxo-5,6-dihydro-3',7',19'-trioxaspiro[pyran-2,6'-tetracyclo[15.6.1.1?,?.0??,??]pentacosane]-10',14',16',22'-tetraen-21'-yl 4-fluorobenzoate

>  <PriceCoeff>
7.00

>  <MW>
706.85

>  <Description>
solid

>  <FSP3>
0.56

>  <clogP>
6.95

>  <TPSA>
120.75

>  <Acceptor>
9

>  <Donor>
2

>  <RotBonds>
5

>  <HAC>
51

$$$$
F6170-0176
  Mrv2219 10102508112D          

 50 54  0  0  0  0            999 V2000
    4.6792   -2.6375    0.0000 C   0  0  2  0  0  0  0  0  0  0  0  0
    3.9667   -3.0500    0.0000 C   0  0  1  0  0  0  0  0  0  0  0  0
    3.9667   -3.8750    0.0000 C   0  0  2  0  0  0  0  0  0  0  0  0
    4.6792   -1.8125    0.0000 C   0  0  0  0  0  0  0  0  0  0  0  0
    6.1042    0.6833    0.0000 C   0  0  2  0  0  0  0  0  0  0  0  0
    5.3875   -3.0500    0.0000 C   0  0  0  0  0  0  0  0  0  0  0  0
    5.3875   -3.8750    0.0000 C   0  0  0  0  0  0  0  0  0  0  0  0
    2.5500   -3.8750    0.0000 O   0  0  0  0  0  0  0  0  0  0  0  0
    3.2625   -2.6375    0.0000 C   0  0  0  0  0  0  0  0  0  0  0  0
    4.6792   -4.2917    0.0000 C   0  0  1  0  0  0  0  0  0  0  0  0
    6.1042    1.5125    0.0000 O   0  0  0  0  0  0  0  0  0  0  0  0
    5.3875   -1.3917    0.0000 O   0  0  0  0  0  0  0  0  0  0  0  0
    6.1042   -0.1500    0.0000 C   0  0  0  0  0  0  0  0  0  0  0  0
    5.3875    1.0958    0.0000 O   0  0  0  0  0  0  0  0  0  0  0  0
    1.8292    0.6833    0.0000 C   0  0  1  0  0  0  0  0  0  0  0  0
    6.8167    1.9333    0.0000 C   0  0  1  0  0  0  0  0  0  0  0  0
    5.3875   -0.5667    0.0000 C   0  0  2  0  0  0  0  0  0  0  0  0
    2.5500    1.0958    0.0000 C   0  0  0  0  0  0  0  0  0  0  0  0
    6.8167    0.2708    0.0000 C   0  0  0  0  0  0  0  0  0  0  0  0
    7.5167    0.6833    0.0000 C   0  0  0  0  0  0  0  0  0  0  0  0
    3.2625    0.6833    0.0000 C   0  0  0  0  0  0  0  0  0  0  0  0
    1.1167    1.0958    0.0000 O   0  0  0  0  0  0  0  0  0  0  0  0
    2.5500   -3.0500    0.0000 C   0  0  0  0  0  0  0  0  0  0  0  0
    1.1167    1.9208    0.0000 C   0  0  0  0  0  0  0  0  0  0  0  0
    3.2625   -1.8125    0.0000 C   0  0  0  0  0  0  0  0  0  0  0  0
    4.0750   -1.4125    0.0000 O   0  0  0  0  0  0  0  0  0  0  0  0
    2.5500   -1.3917    0.0000 C   0  0  0  0  0  0  0  0  0  0  0  0
    7.5167    1.5125    0.0000 C   0  0  2  0  0  0  0  0  0  0  0  0
    4.6792   -0.1500    0.0000 C   0  0  0  0  0  0  0  0  0  0  0  0
    4.6792    0.6833    0.0000 C   0  0  1  0  0  0  0  0  0  0  0  0
    1.8292   -0.1500    0.0000 C   0  0  2  0  0  0  0  0  0  0  0  0
    2.5500   -0.5667    0.0000 C   0  0  0  0  0  0  0  0  0  0  0  0
    3.9667   -2.2292    0.0000 O   0  0  0  0  0  0  0  0  0  0  0  0
    1.8292    2.3333    0.0000 O   0  0  0  0  0  0  0  0  0  0  0  0
    3.9667    1.0958    0.0000 C   0  0  0  0  0  0  0  0  0  0  0  0
    6.8167    2.7583    0.0000 C   0  0  2  0  0  0  0  0  0  0  0  0
    4.6792   -5.1167    0.0000 O   0  0  0  0  0  0  0  0  0  0  0  0
    6.1042   -4.2917    0.0000 C   0  0  0  0  0  0  0  0  0  0  0  0
    2.5500    1.9208    0.0000 C   0  0  0  0  0  0  0  0  0  0  0  0
    0.4042    2.3333    0.0000 C   0  0  0  0  0  0  0  0  0  0  0  0
    8.2375    1.9250    0.0000 C   0  0  0  0  0  0  0  0  0  0  0  0
    1.1167   -0.5542    0.0000 C   0  0  0  0  0  0  0  0  0  0  0  0
    7.5167    3.1708    0.0000 C   0  0  0  0  0  0  0  0  0  0  0  0
    6.1042    3.1708    0.0000 C   0  0  0  0  0  0  0  0  0  0  0  0
    8.2375    2.7583    0.0000 C   0  0  0  0  0  0  0  0  0  0  0  0
    3.9667   -4.7125    0.0000 H   0  0  0  0  0  0  0  0  0  0  0  0
    7.5167    2.3375    0.0000 H   0  0  0  0  0  0  0  0  0  0  0  0
    5.3875    0.2583    0.0000 H   0  0  0  0  0  0  0  0  0  0  0  0
    4.6792    1.5125    0.0000 H   0  0  0  0  0  0  0  0  0  0  0  0
    4.6792   -3.4542    0.0000 H   0  0  0  0  0  0  0  0  0  0  0  0
  2  1  1  0  0  0  0
  3  2  1  0  0  0  0
  4  1  1  0  0  0  0
  5 13  1  6  0  0  0
  6  1  1  0  0  0  0
  7  6  2  0  0  0  0
  8  3  1  0  0  0  0
  9  2  1  0  0  0  0
 10  7  1  0  0  0  0
 11  5  1  0  0  0  0
 12  4  1  0  0  0  0
 13 17  1  0  0  0  0
 14 30  1  0  0  0  0
 15 31  1  0  0  0  0
 16 11  1  0  0  0  0
 17 12  1  0  0  0  0
 18 21  2  0  0  0  0
 19  5  1  0  0  0  0
 20 19  2  0  0  0  0
 21 35  1  0  0  0  0
 15 22  1  6  0  0  0
 23  9  1  0  0  0  0
 24 22  1  0  0  0  0
 25  9  2  0  0  0  0
 26  4  2  0  0  0  0
 27 25  1  0  0  0  0
 28 20  1  0  0  0  0
 29 17  1  0  0  0  0
 30 29  1  0  0  0  0
 31 32  1  0  0  0  0
 32 27  2  0  0  0  0
  2 33  1  6  0  0  0
 34 24  2  0  0  0  0
 35 30  1  0  0  0  0
 36 16  1  0  0  0  0
 10 37  1  1  0  0  0
 38  7  1  0  0  0  0
 39 18  1  0  0  0  0
 40 24  1  0  0  0  0
 28 41  1  1  0  0  0
 31 42  1  6  0  0  0
 43 36  1  0  0  0  0
 36 44  1  1  0  0  0
 45 43  1  0  0  0  0
  3 46  1  6  0  0  0
 16 47  1  1  0  0  0
 17 48  1  6  0  0  0
 30 49  1  6  0  0  0
  1 50  1  1  0  0  0
  3 10  1  0  0  0  0
 23  8  1  0  0  0  0
  5 14  1  1  0  0  0
 18 15  1  0  0  0  0
 28 16  1  0  0  0  0
M  END
>  <IDNUMBER>
F6170-0176

>  <Chemical_Name>
(1'R,2S,4'S,5S,6R,8'R,10'E,12'S,13'S,14'E,16'E,20'R,21'R,24'S)-6-[(2S)-butan-2-yl]-21',24'-dihydroxy-5,11',13',22'-tetramethyl-2'-oxo-5,6-dihydro-3',7',19'-trioxaspiro[pyran-2,6'-tetracyclo[15.6.1.1?,?.0??,??]pentacosane]-10',14',16',22'-tetraen-12'-yl acetate

>  <PriceCoeff>
7.00

>  <MW>
626.79

>  <Description>
solid

>  <FSP3>
0.67

>  <clogP>
5.78

>  <TPSA>
120.75

>  <Acceptor>
9

>  <Donor>
2

>  <RotBonds>
4

>  <HAC>
45

$$$$
F6170-0177
  Mrv2219 10102508112D          

 56 61  0  0  0  0            999 V2000
    3.5001   -1.4128    0.0000 C   0  0  2  0  0  0  0  0  0  0  0  0
    2.7858   -1.8334    0.0000 C   0  0  1  0  0  0  0  0  0  0  0  0
    2.7858   -2.6668    0.0000 C   0  0  1  0  0  0  0  0  0  0  0  0
    3.5001   -0.5953    0.0000 C   0  0  0  0  0  0  0  0  0  0  0  0
    4.9129    1.8968    0.0000 C   0  0  2  0  0  0  0  0  0  0  0  0
    4.1986   -1.8334    0.0000 C   0  0  0  0  0  0  0  0  0  0  0  0
    3.5001   -3.0795    0.0000 C   0  0  1  0  0  0  0  0  0  0  0  0
    4.1986   -2.6668    0.0000 C   0  0  0  0  0  0  0  0  0  0  0  0
    1.3572   -2.6510    0.0000 O   0  0  0  0  0  0  0  0  0  0  0  0
    2.0795   -1.4128    0.0000 C   0  0  0  0  0  0  0  0  0  0  0  0
    4.9129    2.7302    0.0000 O   0  0  0  0  0  0  0  0  0  0  0  0
    4.1986   -0.1747    0.0000 O   0  0  0  0  0  0  0  0  0  0  0  0
    2.7700   -4.3177    0.0000 C   0  0  0  0  0  0  0  0  0  0  0  0
    4.9129    1.0715    0.0000 C   0  0  0  0  0  0  0  0  0  0  0  0
    4.1986    2.3096    0.0000 O   0  0  0  0  0  0  0  0  0  0  0  0
    5.6272    3.1430    0.0000 C   0  0  1  0  0  0  0  0  0  0  0  0
    4.1986    0.6587    0.0000 C   0  0  2  0  0  0  0  0  0  0  0  0
    3.5001   -3.9049    0.0000 O   0  0  0  0  0  0  0  0  0  0  0  0
    5.6272    1.4921    0.0000 C   0  0  0  0  0  0  0  0  0  0  0  0
    1.3652    2.3096    0.0000 C   0  0  0  0  0  0  0  0  0  0  0  0
    6.3416    1.8968    0.0000 C   0  0  0  0  0  0  0  0  0  0  0  0
    2.0795    1.8968    0.0000 C   0  0  0  0  0  0  0  0  0  0  0  0
    1.3652   -1.8334    0.0000 C   0  0  0  0  0  0  0  0  0  0  0  0
    0.6509    1.8968    0.0000 C   0  0  2  0  0  0  0  0  0  0  0  0
    2.0557   -3.9049    0.0000 N   0  0  0  0  0  0  0  0  0  0  0  0
    2.0795   -0.5953    0.0000 C   0  0  0  0  0  0  0  0  0  0  0  0
    2.8891   -0.1825    0.0000 O   0  0  0  0  0  0  0  0  0  0  0  0
    1.3652   -0.1747    0.0000 C   0  0  0  0  0  0  0  0  0  0  0  0
    6.3416    2.7302    0.0000 C   0  0  2  0  0  0  0  0  0  0  0  0
    3.5001    1.0715    0.0000 C   0  0  0  0  0  0  0  0  0  0  0  0
    3.5001    1.8968    0.0000 C   0  0  1  0  0  0  0  0  0  0  0  0
    2.7700   -5.1430    0.0000 O   0  0  0  0  0  0  0  0  0  0  0  0
    1.3652    0.6587    0.0000 C   0  0  0  0  0  0  0  0  0  0  0  0
    2.7858   -1.0080    0.0000 O   0  0  0  0  0  0  0  0  0  0  0  0
    0.6509    1.0715    0.0000 C   0  0  2  0  0  0  0  0  0  0  0  0
    2.7858    2.3096    0.0000 C   0  0  0  0  0  0  0  0  0  0  0  0
    5.6272    3.9763    0.0000 C   0  0  2  0  0  0  0  0  0  0  0  0
    1.3414   -4.3177    0.0000 C   0  0  0  0  0  0  0  0  0  0  0  0
   -0.0634    2.3096    0.0000 O   0  0  0  0  0  0  0  0  0  0  0  0
    4.9129   -3.0795    0.0000 C   0  0  0  0  0  0  0  0  0  0  0  0
    1.3652    3.1350    0.0000 C   0  0  0  0  0  0  0  0  0  0  0  0
    7.0559    3.1430    0.0000 C   0  0  0  0  0  0  0  0  0  0  0  0
   -0.0634    0.6587    0.0000 C   0  0  0  0  0  0  0  0  0  0  0  0
    6.3416    4.3811    0.0000 C   0  0  0  0  0  0  0  0  0  0  0  0
    4.9129    4.3811    0.0000 C   0  0  0  0  0  0  0  0  0  0  0  0
    0.6271   -3.9049    0.0000 C   0  0  0  0  0  0  0  0  0  0  0  0
    1.3572   -5.1430    0.0000 C   0  0  0  0  0  0  0  0  0  0  0  0
    7.0559    3.9763    0.0000 C   0  0  0  0  0  0  0  0  0  0  0  0
    0.6509   -5.5558    0.0000 C   0  0  0  0  0  0  0  0  0  0  0  0
   -0.0872   -4.3177    0.0000 C   0  0  0  0  0  0  0  0  0  0  0  0
   -0.0714   -5.1510    0.0000 C   0  0  0  0  0  0  0  0  0  0  0  0
    6.3416    3.5636    0.0000 H   0  0  0  0  0  0  0  0  0  0  0  0
    4.1986    1.4762    0.0000 H   0  0  0  0  0  0  0  0  0  0  0  0
    3.5001    2.7302    0.0000 H   0  0  0  0  0  0  0  0  0  0  0  0
    3.5001   -2.2382    0.0000 H   0  0  0  0  0  0  0  0  0  0  0  0
    2.7858   -3.5001    0.0000 H   0  0  0  0  0  0  0  0  0  0  0  0
  2  1  1  0  0  0  0
  3  2  1  0  0  0  0
  4  1  1  0  0  0  0
  5 14  1  6  0  0  0
  6  1  1  0  0  0  0
  7  8  1  0  0  0  0
  8  6  2  0  0  0  0
  9  3  1  0  0  0  0
 10  2  1  0  0  0  0
 11  5  1  0  0  0  0
 12  4  1  0  0  0  0
 13 18  1  0  0  0  0
 14 17  1  0  0  0  0
 15 31  1  0  0  0  0
 16 11  1  0  0  0  0
 17 12  1  0  0  0  0
  7 18  1  1  0  0  0
 19  5  1  0  0  0  0
 20 22  2  0  0  0  0
 21 19  2  0  0  0  0
 22 36  1  0  0  0  0
 23 10  1  0  0  0  0
 24 35  1  0  0  0  0
 25 13  1  0  0  0  0
 26 10  2  0  0  0  0
 27  4  2  0  0  0  0
 28 26  1  0  0  0  0
 29 21  1  0  0  0  0
 30 17  1  0  0  0  0
 31 30  1  0  0  0  0
 32 13  2  0  0  0  0
 33 28  2  0  0  0  0
  2 34  1  6  0  0  0
 35 33  1  0  0  0  0
 36 31  1  0  0  0  0
 37 16  1  0  0  0  0
 38 25  1  0  0  0  0
 24 39  1  6  0  0  0
 40  8  1  0  0  0  0
 41 20  1  0  0  0  0
 29 42  1  1  0  0  0
 35 43  1  6  0  0  0
 44 37  1  0  0  0  0
 37 45  1  1  0  0  0
 46 38  2  0  0  0  0
 47 38  1  0  0  0  0
 48 44  1  0  0  0  0
 49 47  2  0  0  0  0
 50 46  1  0  0  0  0
 51 49  1  0  0  0  0
 16 52  1  1  0  0  0
 17 53  1  6  0  0  0
 31 54  1  6  0  0  0
  1 55  1  1  0  0  0
  3 56  1  6  0  0  0
  7  3  1  0  0  0  0
 23  9  1  0  0  0  0
  5 15  1  1  0  0  0
 20 24  1  0  0  0  0
 29 16  1  0  0  0  0
 50 51  2  0  0  0  0
M  END
>  <IDNUMBER>
F6170-0177

>  <Chemical_Name>
(1'R,2S,4'S,5S,6R,8'R,10'E,12'S,13'S,14'E,16'E,20'R,21'R,24'S)-6-[(2S)-butan-2-yl]-12',24'-dihydroxy-5,11',13',22'-tetramethyl-2'-oxo-5,6-dihydro-3',7',19'-trioxaspiro[pyran-2,6'-tetracyclo[15.6.1.1?,?.0??,??]pentacosane]-10',14',16',22'-tetraen-21'-yl N-phenylcarbamate

>  <PriceCoeff>
7.00

>  <MW>
703.87

>  <Description>
solid

>  <FSP3>
0.56

>  <clogP>
6.42

>  <TPSA>
132.78

>  <Acceptor>
9

>  <Donor>
3

>  <RotBonds>
5

>  <HAC>
51

$$$$
F6170-0178
  Mrv2219 10102508112D          

 59 64  0  0  0  0            999 V2000
    6.1157   -4.3985    0.0000 C   0  0  2  0  0  0  0  0  0  0  0  0
    5.4044   -4.8109    0.0000 C   0  0  1  0  0  0  0  0  0  0  0  0
    5.4044   -5.6359    0.0000 C   0  0  1  0  0  0  0  0  0  0  0  0
    6.1157   -3.5735    0.0000 C   0  0  0  0  0  0  0  0  0  0  0  0
    7.5300   -1.0775    0.0000 C   0  0  2  0  0  0  0  0  0  0  0  0
    6.8186   -4.8109    0.0000 C   0  0  0  0  0  0  0  0  0  0  0  0
    6.1157   -6.0526    0.0000 C   0  0  1  0  0  0  0  0  0  0  0  0
    6.8186   -5.6359    0.0000 C   0  0  0  0  0  0  0  0  0  0  0  0
    3.9818   -5.6359    0.0000 O   0  0  0  0  0  0  0  0  0  0  0  0
    4.6889   -4.3985    0.0000 C   0  0  0  0  0  0  0  0  0  0  0  0
    6.1157   -6.8817    0.0000 O   0  0  0  0  0  0  0  0  0  0  0  0
    7.5300   -0.2442    0.0000 O   0  0  0  0  0  0  0  0  0  0  0  0
    6.8186   -3.1484    0.0000 O   0  0  0  0  0  0  0  0  0  0  0  0
    6.8355   -7.2984    0.0000 C   0  0  0  0  0  0  0  0  0  0  0  0
    7.5300   -1.9067    0.0000 C   0  0  0  0  0  0  0  0  0  0  0  0
    6.8186   -0.6692    0.0000 O   0  0  0  0  0  0  0  0  0  0  0  0
    3.2620   -1.0775    0.0000 C   0  0  1  0  0  0  0  0  0  0  0  0
    8.2497    0.1725    0.0000 C   0  0  1  0  0  0  0  0  0  0  0  0
    6.8186   -2.3276    0.0000 C   0  0  2  0  0  0  0  0  0  0  0  0
    3.9818   -0.6692    0.0000 C   0  0  0  0  0  0  0  0  0  0  0  0
    8.2497   -1.4942    0.0000 C   0  0  0  0  0  0  0  0  0  0  0  0
    8.9526   -1.0775    0.0000 C   0  0  0  0  0  0  0  0  0  0  0  0
    4.6889   -1.0775    0.0000 C   0  0  0  0  0  0  0  0  0  0  0  0
    2.5507   -0.6692    0.0000 O   0  0  0  0  0  0  0  0  0  0  0  0
    3.9818   -4.8109    0.0000 C   0  0  0  0  0  0  0  0  0  0  0  0
    2.5507    0.1599    0.0000 C   0  0  0  0  0  0  0  0  0  0  0  0
    6.8355   -8.1318    0.0000 C   0  0  0  0  0  0  0  0  0  0  0  0
    4.6889   -3.5735    0.0000 C   0  0  0  0  0  0  0  0  0  0  0  0
    5.5054   -3.1694    0.0000 O   0  0  0  0  0  0  0  0  0  0  0  0
    3.9818   -3.1484    0.0000 C   0  0  0  0  0  0  0  0  0  0  0  0
    8.9526   -0.2442    0.0000 C   0  0  2  0  0  0  0  0  0  0  0  0
    6.1157   -1.9067    0.0000 C   0  0  0  0  0  0  0  0  0  0  0  0
    6.1157   -1.0775    0.0000 C   0  0  1  0  0  0  0  0  0  0  0  0
    7.5552   -6.8817    0.0000 O   0  0  0  0  0  0  0  0  0  0  0  0
    3.2620   -1.9067    0.0000 C   0  0  2  0  0  0  0  0  0  0  0  0
    3.9818   -2.3276    0.0000 C   0  0  0  0  0  0  0  0  0  0  0  0
    5.4044   -3.9944    0.0000 O   0  0  0  0  0  0  0  0  0  0  0  0
    3.2620    0.5682    0.0000 O   0  0  0  0  0  0  0  0  0  0  0  0
    6.1115   -8.5401    0.0000 C   0  0  0  0  0  0  0  0  0  0  0  0
    7.5552   -8.5401    0.0000 C   0  0  0  0  0  0  0  0  0  0  0  0
    5.4044   -0.6692    0.0000 C   0  0  0  0  0  0  0  0  0  0  0  0
    8.2497    0.9975    0.0000 C   0  0  2  0  0  0  0  0  0  0  0  0
    6.8312   -9.7902    0.0000 C   0  0  0  0  0  0  0  0  0  0  0  0
    7.5552   -9.3735    0.0000 C   0  0  0  0  0  0  0  0  0  0  0  0
    6.1115   -9.3735    0.0000 C   0  0  0  0  0  0  0  0  0  0  0  0
    6.8355  -10.6236    0.0000 F   0  0  0  0  0  0  0  0  0  0  0  0
    7.5300   -6.0526    0.0000 C   0  0  0  0  0  0  0  0  0  0  0  0
    3.9818    0.1599    0.0000 C   0  0  0  0  0  0  0  0  0  0  0  0
    1.8352    0.5682    0.0000 C   0  0  0  0  0  0  0  0  0  0  0  0
    9.6723    0.1642    0.0000 C   0  0  0  0  0  0  0  0  0  0  0  0
    2.5507   -2.3150    0.0000 C   0  0  0  0  0  0  0  0  0  0  0  0
    8.9526    1.4016    0.0000 C   0  0  0  0  0  0  0  0  0  0  0  0
    7.5300    1.4016    0.0000 C   0  0  0  0  0  0  0  0  0  0  0  0
    9.6723    0.9975    0.0000 C   0  0  0  0  0  0  0  0  0  0  0  0
    6.1157   -5.2150    0.0000 H   0  0  0  0  0  0  0  0  0  0  0  0
    5.4044   -6.4693    0.0000 H   0  0  0  0  0  0  0  0  0  0  0  0
    8.9526    0.5766    0.0000 H   0  0  0  0  0  0  0  0  0  0  0  0
    6.8186   -1.5026    0.0000 H   0  0  0  0  0  0  0  0  0  0  0  0
    6.1157   -0.2525    0.0000 H   0  0  0  0  0  0  0  0  0  0  0  0
  2  1  1  0  0  0  0
  3  2  1  0  0  0  0
  4  1  1  0  0  0  0
  5 15  1  6  0  0  0
  6  1  1  0  0  0  0
  7  8  1  0  0  0  0
  8  6  2  0  0  0  0
  9  3  1  0  0  0  0
 10  2  1  0  0  0  0
  7 11  1  1  0  0  0
 12  5  1  0  0  0  0
 13  4  1  0  0  0  0
 14 11  1  0  0  0  0
 15 19  1  0  0  0  0
 16 33  1  0  0  0  0
 17 35  1  0  0  0  0
 18 12  1  0  0  0  0
 19 13  1  0  0  0  0
 20 23  2  0  0  0  0
 21  5  1  0  0  0  0
 22 21  2  0  0  0  0
 23 41  1  0  0  0  0
 17 24  1  6  0  0  0
 25 10  1  0  0  0  0
 26 24  1  0  0  0  0
 27 14  1  0  0  0  0
 28 10  2  0  0  0  0
 29  4  2  0  0  0  0
 30 28  1  0  0  0  0
 31 22  1  0  0  0  0
 32 19  1  0  0  0  0
 33 32  1  0  0  0  0
 34 14  2  0  0  0  0
 35 36  1  0  0  0  0
 36 30  2  0  0  0  0
  2 37  1  6  0  0  0
 38 26  2  0  0  0  0
 39 27  2  0  0  0  0
 40 27  1  0  0  0  0
 41 33  1  0  0  0  0
 42 18  1  0  0  0  0
 43 44  1  0  0  0  0
 44 40  2  0  0  0  0
 45 39  1  0  0  0  0
 46 43  1  0  0  0  0
 47  8  1  0  0  0  0
 48 20  1  0  0  0  0
 49 26  1  0  0  0  0
 31 50  1  1  0  0  0
 35 51  1  6  0  0  0
 52 42  1  0  0  0  0
 42 53  1  1  0  0  0
 54 52  1  0  0  0  0
  1 55  1  1  0  0  0
  3 56  1  6  0  0  0
 18 57  1  1  0  0  0
 19 58  1  6  0  0  0
 33 59  1  6  0  0  0
  7  3  1  0  0  0  0
 25  9  1  0  0  0  0
  5 16  1  1  0  0  0
 45 43  2  0  0  0  0
 20 17  1  0  0  0  0
 18 31  1  0  0  0  0
M  END
>  <IDNUMBER>
F6170-0178

>  <Chemical_Name>
(1'R,2S,4'S,5S,6R,8'R,10'E,12'S,13'S,14'E,16'E,20'R,21'R,24'S)-12'-(acetyloxy)-6-[(2S)-butan-2-yl]-24'-hydroxy-5,11',13',22'-tetramethyl-2'-oxo-5,6-dihydro-3',7',19'-trioxaspiro[pyran-2,6'-tetracyclo[15.6.1.1?,?.0??,??]pentacosane]-10',14',16',22'-tetraen-21'-yl 4-fluorobenzoate

>  <PriceCoeff>
7.00

>  <MW>
748.89

>  <Description>
solid

>  <FSP3>
0.56

>  <clogP>
7.89

>  <TPSA>
126.82

>  <Acceptor>
10

>  <Donor>
1

>  <RotBonds>
7

>  <HAC>
54

$$$$
F6170-0180
  Mrv2219 10102508112D          

 59 64  0  0  0  0            999 V2000
    7.4416   -6.5661    0.0000 C   0  0  2  0  0  0  0  0  0  0  0  0
    6.7302   -6.9828    0.0000 C   0  0  1  0  0  0  0  0  0  0  0  0
    6.7302   -7.8035    0.0000 C   0  0  1  0  0  0  0  0  0  0  0  0
    7.4416   -5.7369    0.0000 C   0  0  0  0  0  0  0  0  0  0  0  0
    8.8684   -3.2494    0.0000 C   0  0  2  0  0  0  0  0  0  0  0  0
    8.1487   -6.9828    0.0000 C   0  0  0  0  0  0  0  0  0  0  0  0
    7.4416   -8.2244    0.0000 C   0  0  1  0  0  0  0  0  0  0  0  0
    8.1487   -7.8035    0.0000 C   0  0  0  0  0  0  0  0  0  0  0  0
    5.3034   -7.8035    0.0000 O   0  0  0  0  0  0  0  0  0  0  0  0
    6.0231   -6.5661    0.0000 C   0  0  0  0  0  0  0  0  0  0  0  0
    8.8684   -2.4160    0.0000 O   0  0  0  0  0  0  0  0  0  0  0  0
    8.1487   -5.3202    0.0000 O   0  0  0  0  0  0  0  0  0  0  0  0
    6.7218   -9.4619    0.0000 C   0  0  0  0  0  0  0  0  0  0  0  0
    8.8684   -4.0785    0.0000 C   0  0  0  0  0  0  0  0  0  0  0  0
    8.1487   -2.8327    0.0000 O   0  0  0  0  0  0  0  0  0  0  0  0
    4.5962   -3.2494    0.0000 C   0  0  1  0  0  0  0  0  0  0  0  0
    9.5755   -1.9951    0.0000 C   0  0  1  0  0  0  0  0  0  0  0  0
    8.1487   -4.4868    0.0000 C   0  0  2  0  0  0  0  0  0  0  0  0
    5.3076   -2.8327    0.0000 C   0  0  0  0  0  0  0  0  0  0  0  0
    7.4416   -9.0452    0.0000 O   0  0  0  0  0  0  0  0  0  0  0  0
    9.5755   -3.6618    0.0000 C   0  0  0  0  0  0  0  0  0  0  0  0
   10.2826   -3.2494    0.0000 C   0  0  0  0  0  0  0  0  0  0  0  0
    6.0231   -3.2494    0.0000 C   0  0  0  0  0  0  0  0  0  0  0  0
    3.8807   -2.8327    0.0000 O   0  0  0  0  0  0  0  0  0  0  0  0
    5.3076   -6.9828    0.0000 C   0  0  0  0  0  0  0  0  0  0  0  0
    6.0105   -9.0452    0.0000 N   0  0  0  0  0  0  0  0  0  0  0  0
    3.8765   -1.9993    0.0000 C   0  0  0  0  0  0  0  0  0  0  0  0
    6.0231   -5.7369    0.0000 C   0  0  0  0  0  0  0  0  0  0  0  0
    6.8355   -5.3412    0.0000 O   0  0  0  0  0  0  0  0  0  0  0  0
    5.3076   -5.3202    0.0000 C   0  0  0  0  0  0  0  0  0  0  0  0
   10.2826   -2.4160    0.0000 C   0  0  2  0  0  0  0  0  0  0  0  0
    7.4416   -4.0785    0.0000 C   0  0  0  0  0  0  0  0  0  0  0  0
    7.4416   -3.2494    0.0000 C   0  0  1  0  0  0  0  0  0  0  0  0
    6.7218  -10.2910    0.0000 O   0  0  0  0  0  0  0  0  0  0  0  0
    4.5962   -4.0785    0.0000 C   0  0  2  0  0  0  0  0  0  0  0  0
    5.3076   -4.4868    0.0000 C   0  0  0  0  0  0  0  0  0  0  0  0
    6.7302   -6.1620    0.0000 O   0  0  0  0  0  0  0  0  0  0  0  0
    4.6005   -1.5826    0.0000 O   0  0  0  0  0  0  0  0  0  0  0  0
    6.7302   -2.8327    0.0000 C   0  0  0  0  0  0  0  0  0  0  0  0
    9.5755   -1.1743    0.0000 C   0  0  2  0  0  0  0  0  0  0  0  0
    5.2950   -9.4619    0.0000 C   0  0  0  0  0  0  0  0  0  0  0  0
    8.8684   -8.2244    0.0000 C   0  0  0  0  0  0  0  0  0  0  0  0
    5.3076   -2.0119    0.0000 C   0  0  0  0  0  0  0  0  0  0  0  0
    3.1568   -1.5826    0.0000 C   0  0  0  0  0  0  0  0  0  0  0  0
   11.0024   -1.9993    0.0000 C   0  0  0  0  0  0  0  0  0  0  0  0
    3.8807   -4.4868    0.0000 C   0  0  0  0  0  0  0  0  0  0  0  0
   10.2826   -0.7619    0.0000 C   0  0  0  0  0  0  0  0  0  0  0  0
    8.8684   -0.7619    0.0000 C   0  0  0  0  0  0  0  0  0  0  0  0
    5.3034  -10.2910    0.0000 C   0  0  0  0  0  0  0  0  0  0  0  0
    4.5752   -9.0452    0.0000 C   0  0  0  0  0  0  0  0  0  0  0  0
   11.0024   -1.1743    0.0000 C   0  0  0  0  0  0  0  0  0  0  0  0
    3.8681   -9.4703    0.0000 C   0  0  0  0  0  0  0  0  0  0  0  0
    4.5962  -10.7077    0.0000 C   0  0  0  0  0  0  0  0  0  0  0  0
    3.8681  -10.2953    0.0000 C   0  0  0  0  0  0  0  0  0  0  0  0
    7.4416   -7.3868    0.0000 H   0  0  0  0  0  0  0  0  0  0  0  0
    6.7302   -8.6369    0.0000 H   0  0  0  0  0  0  0  0  0  0  0  0
   10.2826   -1.5910    0.0000 H   0  0  0  0  0  0  0  0  0  0  0  0
    8.1487   -3.6745    0.0000 H   0  0  0  0  0  0  0  0  0  0  0  0
    7.4416   -2.4160    0.0000 H   0  0  0  0  0  0  0  0  0  0  0  0
  2  1  1  0  0  0  0
  3  2  1  0  0  0  0
  4  1  1  0  0  0  0
  5 14  1  6  0  0  0
  6  1  1  0  0  0  0
  7  8  1  0  0  0  0
  8  6  2  0  0  0  0
  9  3  1  0  0  0  0
 10  2  1  0  0  0  0
 11  5  1  0  0  0  0
 12  4  1  0  0  0  0
 13 20  1  0  0  0  0
 14 18  1  0  0  0  0
 15 33  1  0  0  0  0
 16 35  1  0  0  0  0
 17 11  1  0  0  0  0
 18 12  1  0  0  0  0
 19 23  2  0  0  0  0
  7 20  1  1  0  0  0
 21  5  1  0  0  0  0
 22 21  2  0  0  0  0
 23 39  1  0  0  0  0
 16 24  1  6  0  0  0
 25 10  1  0  0  0  0
 26 13  1  0  0  0  0
 27 24  1  0  0  0  0
 28 10  2  0  0  0  0
 29  4  2  0  0  0  0
 30 28  1  0  0  0  0
 31 22  1  0  0  0  0
 32 18  1  0  0  0  0
 33 32  1  0  0  0  0
 34 13  2  0  0  0  0
 35 36  1  0  0  0  0
 36 30  2  0  0  0  0
  2 37  1  6  0  0  0
 38 27  2  0  0  0  0
 39 33  1  0  0  0  0
 40 17  1  0  0  0  0
 41 26  1  0  0  0  0
 42  8  1  0  0  0  0
 43 19  1  0  0  0  0
 44 27  1  0  0  0  0
 31 45  1  1  0  0  0
 35 46  1  6  0  0  0
 47 40  1  0  0  0  0
 40 48  1  1  0  0  0
 49 41  1  0  0  0  0
 50 41  2  0  0  0  0
 51 47  1  0  0  0  0
 52 50  1  0  0  0  0
 53 49  2  0  0  0  0
 54 52  2  0  0  0  0
  1 55  1  1  0  0  0
  3 56  1  6  0  0  0
 17 57  1  1  0  0  0
 18 58  1  6  0  0  0
 33 59  1  6  0  0  0
  7  3  1  0  0  0  0
 25  9  1  0  0  0  0
  5 15  1  1  0  0  0
 19 16  1  0  0  0  0
 17 31  1  0  0  0  0
 53 54  1  0  0  0  0
M  END
>  <IDNUMBER>
F6170-0180

>  <Chemical_Name>
(1'R,2S,4'S,5S,6R,8'R,10'E,12'S,13'S,14'E,16'E,20'R,21'R,24'S)-6-[(2S)-butan-2-yl]-24'-hydroxy-5,11',13',22'-tetramethyl-2'-oxo-21'-[(phenylcarbamoyl)oxy]-5,6-dihydro-3',7',19'-trioxaspiro[pyran-2,6'-tetracyclo[15.6.1.1?,?.0??,??]pentacosane]-10',14',16',22'-tetraen-12'-yl acetate

>  <PriceCoeff>
7.00

>  <MW>
745.91

>  <Description>
solid

>  <FSP3>
0.56

>  <clogP>
7.37

>  <TPSA>
138.85

>  <Acceptor>
10

>  <Donor>
2

>  <RotBonds>
7

>  <HAC>
54

$$$$
F6170-0181
  Mrv2219 10102508112D          

 57 62  0  0  0  0            999 V2000
    0.5051   -3.1484    0.0000 C   0  0  2  0  0  0  0  0  0  0  0  0
   -0.2104   -3.5608    0.0000 C   0  0  1  0  0  0  0  0  0  0  0  0
   -0.2104   -4.3858    0.0000 C   0  0  1  0  0  0  0  0  0  0  0  0
    0.5051   -2.3234    0.0000 C   0  0  0  0  0  0  0  0  0  0  0  0
    1.9236    0.1725    0.0000 C   0  0  2  0  0  0  0  0  0  0  0  0
    1.2122   -3.5608    0.0000 C   0  0  0  0  0  0  0  0  0  0  0  0
    0.5051   -4.8025    0.0000 C   0  0  1  0  0  0  0  0  0  0  0  0
    1.2122   -4.3858    0.0000 C   0  0  0  0  0  0  0  0  0  0  0  0
   -1.6373   -4.3858    0.0000 O   0  0  0  0  0  0  0  0  0  0  0  0
   -0.9175   -3.1484    0.0000 C   0  0  0  0  0  0  0  0  0  0  0  0
    1.9236    1.0059    0.0000 O   0  0  0  0  0  0  0  0  0  0  0  0
    1.2122   -1.8983    0.0000 O   0  0  0  0  0  0  0  0  0  0  0  0
   -0.2230   -6.0484    0.0000 C   0  0  0  0  0  0  0  0  0  0  0  0
    1.9236   -0.6566    0.0000 C   0  0  0  0  0  0  0  0  0  0  0  0
    1.2122    0.5808    0.0000 O   0  0  0  0  0  0  0  0  0  0  0  0
    2.6391    1.4226    0.0000 C   0  0  1  0  0  0  0  0  0  0  0  0
    1.2122   -1.0775    0.0000 C   0  0  2  0  0  0  0  0  0  0  0  0
    0.5051   -5.6317    0.0000 O   0  0  0  0  0  0  0  0  0  0  0  0
    2.6391   -0.2442    0.0000 C   0  0  0  0  0  0  0  0  0  0  0  0
   -1.6289    0.5808    0.0000 C   0  0  0  0  0  0  0  0  0  0  0  0
    3.3462    0.1725    0.0000 C   0  0  0  0  0  0  0  0  0  0  0  0
   -0.9175    0.1725    0.0000 C   0  0  0  0  0  0  0  0  0  0  0  0
   -1.6289   -3.5608    0.0000 C   0  0  0  0  0  0  0  0  0  0  0  0
   -2.3444    0.1725    0.0000 C   0  0  2  0  0  0  0  0  0  0  0  0
   -0.9428   -5.6317    0.0000 N   0  0  0  0  0  0  0  0  0  0  0  0
   -0.9175   -2.3234    0.0000 C   0  0  0  0  0  0  0  0  0  0  0  0
   -0.1010   -1.9193    0.0000 O   0  0  0  0  0  0  0  0  0  0  0  0
   -1.6289   -1.8983    0.0000 C   0  0  0  0  0  0  0  0  0  0  0  0
    3.3462    1.0059    0.0000 C   0  0  2  0  0  0  0  0  0  0  0  0
    0.5051   -0.6566    0.0000 C   0  0  0  0  0  0  0  0  0  0  0  0
    0.5051    0.1725    0.0000 C   0  0  1  0  0  0  0  0  0  0  0  0
   -0.2230   -6.8817    0.0000 O   0  0  0  0  0  0  0  0  0  0  0  0
   -1.6289   -1.0775    0.0000 C   0  0  0  0  0  0  0  0  0  0  0  0
   -0.2104   -2.7443    0.0000 O   0  0  0  0  0  0  0  0  0  0  0  0
   -2.3444   -0.6566    0.0000 C   0  0  2  0  0  0  0  0  0  0  0  0
   -0.2104    0.5808    0.0000 C   0  0  0  0  0  0  0  0  0  0  0  0
   -1.6625   -6.0484    0.0000 C   0  0  0  0  0  0  0  0  0  0  0  0
    2.6391    2.2476    0.0000 C   0  0  2  0  0  0  0  0  0  0  0  0
   -3.0641    0.5808    0.0000 O   0  0  0  0  0  0  0  0  0  0  0  0
   -3.1020   -6.8734    0.0000 C   0  0  0  0  0  0  0  0  0  0  0  0
    1.9236   -4.8025    0.0000 C   0  0  0  0  0  0  0  0  0  0  0  0
   -2.3823   -5.6233    0.0000 C   0  0  0  0  0  0  0  0  0  0  0  0
   -1.6625   -6.8734    0.0000 C   0  0  0  0  0  0  0  0  0  0  0  0
   -2.3823   -7.2900    0.0000 C   0  0  0  0  0  0  0  0  0  0  0  0
   -3.1020   -6.0400    0.0000 C   0  0  0  0  0  0  0  0  0  0  0  0
   -1.6289    1.4100    0.0000 C   0  0  0  0  0  0  0  0  0  0  0  0
    4.0659    1.4142    0.0000 C   0  0  0  0  0  0  0  0  0  0  0  0
   -3.0641   -1.0649    0.0000 C   0  0  0  0  0  0  0  0  0  0  0  0
    3.3462    2.6517    0.0000 C   0  0  0  0  0  0  0  0  0  0  0  0
    1.9236    2.6517    0.0000 C   0  0  0  0  0  0  0  0  0  0  0  0
   -3.8260   -7.2900    0.0000 C   0  0  0  0  0  0  0  0  0  0  0  0
    4.0659    2.2476    0.0000 C   0  0  0  0  0  0  0  0  0  0  0  0
    0.5051    0.9975    0.0000 H   0  0  0  0  0  0  0  0  0  0  0  0
    0.5051   -3.9649    0.0000 H   0  0  0  0  0  0  0  0  0  0  0  0
   -0.2104   -5.2192    0.0000 H   0  0  0  0  0  0  0  0  0  0  0  0
    3.3462    1.8267    0.0000 H   0  0  0  0  0  0  0  0  0  0  0  0
    1.2122   -0.2525    0.0000 H   0  0  0  0  0  0  0  0  0  0  0  0
  2  1  1  0  0  0  0
  3  2  1  0  0  0  0
  4  1  1  0  0  0  0
  5 14  1  6  0  0  0
  6  1  1  0  0  0  0
  7  8  1  0  0  0  0
  8  6  2  0  0  0  0
  9  3  1  0  0  0  0
 10  2  1  0  0  0  0
 11  5  1  0  0  0  0
 12  4  1  0  0  0  0
 13 18  1  0  0  0  0
 14 17  1  0  0  0  0
 15 31  1  0  0  0  0
 16 11  1  0  0  0  0
 17 12  1  0  0  0  0
  7 18  1  1  0  0  0
 19  5  1  0  0  0  0
 20 22  2  0  0  0  0
 21 19  2  0  0  0  0
 22 36  1  0  0  0  0
 23 10  1  0  0  0  0
 24 35  1  0  0  0  0
 25 13  1  0  0  0  0
 26 10  2  0  0  0  0
 27  4  2  0  0  0  0
 28 26  1  0  0  0  0
 29 21  1  0  0  0  0
 30 17  1  0  0  0  0
 31 30  1  0  0  0  0
 32 13  2  0  0  0  0
 33 28  2  0  0  0  0
  2 34  1  6  0  0  0
 35 33  1  0  0  0  0
 36 31  1  0  0  0  0
 37 25  1  0  0  0  0
 38 16  1  0  0  0  0
 24 39  1  6  0  0  0
 40 44  1  0  0  0  0
 41  8  1  0  0  0  0
 42 37  2  0  0  0  0
 43 37  1  0  0  0  0
 44 43  2  0  0  0  0
 45 42  1  0  0  0  0
 46 20  1  0  0  0  0
 29 47  1  1  0  0  0
 35 48  1  6  0  0  0
 49 38  1  0  0  0  0
 38 50  1  1  0  0  0
 51 40  1  0  0  0  0
 52 49  1  0  0  0  0
 31 53  1  6  0  0  0
  1 54  1  1  0  0  0
  3 55  1  6  0  0  0
 16 56  1  1  0  0  0
 17 57  1  6  0  0  0
  7  3  1  0  0  0  0
 23  9  1  0  0  0  0
  5 15  1  1  0  0  0
 20 24  1  0  0  0  0
 16 29  1  0  0  0  0
 45 40  2  0  0  0  0
M  END
>  <IDNUMBER>
F6170-0181

>  <Chemical_Name>
(1'R,2S,4'S,5S,6R,8'R,10'E,12'S,13'S,14'E,16'E,20'R,21'R,24'S)-6-[(2S)-butan-2-yl]-12',24'-dihydroxy-5,11',13',22'-tetramethyl-2'-oxo-5,6-dihydro-3',7',19'-trioxaspiro[pyran-2,6'-tetracyclo[15.6.1.1?,?.0??,??]pentacosane]-10',14',16',22'-tetraen-21'-yl N-(4-methylphenyl)carbamate

>  <PriceCoeff>
7.00

>  <MW>
717.90

>  <Description>
solid

>  <FSP3>
0.57

>  <clogP>
6.92

>  <TPSA>
132.78

>  <Acceptor>
9

>  <Donor>
3

>  <RotBonds>
5

>  <HAC>
52

$$$$
F6170-0182
  Mrv2219 10102508112D          

 58 63  0  0  0  0            999 V2000
    4.2658   -3.4876    0.0000 C   0  0  2  0  0  0  0  0  0  0  0  0
    3.5507   -3.9041    0.0000 C   0  0  1  0  0  0  0  0  0  0  0  0
    3.5507   -4.7328    0.0000 C   0  0  1  0  0  0  0  0  0  0  0  0
    4.2658   -2.6672    0.0000 C   0  0  0  0  0  0  0  0  0  0  0  0
    5.6836   -0.1767    0.0000 C   0  0  2  0  0  0  0  0  0  0  0  0
    4.9726   -3.9041    0.0000 C   0  0  0  0  0  0  0  0  0  0  0  0
    4.2658   -5.1493    0.0000 C   0  0  1  0  0  0  0  0  0  0  0  0
    3.5128   -9.7180    0.0000 N   0  3  0  0  0  0  0  0  0  0  0  0
    4.9726   -4.7328    0.0000 C   0  0  0  0  0  0  0  0  0  0  0  0
    2.1245   -4.7244    0.0000 O   0  0  0  0  0  0  0  0  0  0  0  0
    2.8439   -3.4876    0.0000 C   0  0  0  0  0  0  0  0  0  0  0  0
    4.2658   -5.9739    0.0000 O   0  0  0  0  0  0  0  0  0  0  0  0
    5.6836    0.6563    0.0000 O   0  0  0  0  0  0  0  0  0  0  0  0
    4.9726   -2.2465    0.0000 O   0  0  0  0  0  0  0  0  0  0  0  0
    3.5381   -6.3904    0.0000 C   0  0  0  0  0  0  0  0  0  0  0  0
    5.6836   -1.0013    0.0000 C   0  0  0  0  0  0  0  0  0  0  0  0
    4.9726    0.2356    0.0000 O   0  0  0  0  0  0  0  0  0  0  0  0
    6.3988    1.0728    0.0000 C   0  0  1  0  0  0  0  0  0  0  0  0
    4.9726   -1.4178    0.0000 C   0  0  2  0  0  0  0  0  0  0  0  0
    6.3988   -0.5848    0.0000 C   0  0  0  0  0  0  0  0  0  0  0  0
    2.1329    0.2356    0.0000 C   0  0  0  0  0  0  0  0  0  0  0  0
    7.1055   -0.1767    0.0000 C   0  0  0  0  0  0  0  0  0  0  0  0
    2.8439   -0.1767    0.0000 C   0  0  0  0  0  0  0  0  0  0  0  0
    3.5212   -8.8851    0.0000 C   0  0  0  0  0  0  0  0  0  0  0  0
    2.1329   -3.9041    0.0000 C   0  0  0  0  0  0  0  0  0  0  0  0
    1.4178   -0.1767    0.0000 C   0  0  2  0  0  0  0  0  0  0  0  0
    4.2322  -10.1388    0.0000 O   0  5  0  0  0  0  0  0  0  0  0  0
    3.5381   -7.2233    0.0000 C   0  0  0  0  0  0  0  0  0  0  0  0
    2.7934  -10.1261    0.0000 O   0  0  0  0  0  0  0  0  0  0  0  0
    2.8439   -2.6672    0.0000 C   0  0  0  0  0  0  0  0  0  0  0  0
    3.6600   -2.2634    0.0000 O   0  0  0  0  0  0  0  0  0  0  0  0
    2.1329   -2.2465    0.0000 C   0  0  0  0  0  0  0  0  0  0  0  0
    7.1055    0.6563    0.0000 C   0  0  2  0  0  0  0  0  0  0  0  0
    4.2658   -1.0013    0.0000 C   0  0  0  0  0  0  0  0  0  0  0  0
    4.2658   -0.1767    0.0000 C   0  0  1  0  0  0  0  0  0  0  0  0
    2.8187   -5.9696    0.0000 O   0  0  0  0  0  0  0  0  0  0  0  0
    2.1329   -1.4178    0.0000 C   0  0  0  0  0  0  0  0  0  0  0  0
    3.5507   -3.0837    0.0000 O   0  0  0  0  0  0  0  0  0  0  0  0
    1.4178   -1.0013    0.0000 C   0  0  2  0  0  0  0  0  0  0  0  0
    4.2448   -8.4686    0.0000 C   0  0  0  0  0  0  0  0  0  0  0  0
    2.8018   -8.4602    0.0000 C   0  0  0  0  0  0  0  0  0  0  0  0
    4.2532   -7.6398    0.0000 C   0  0  0  0  0  0  0  0  0  0  0  0
    2.8061   -7.6272    0.0000 C   0  0  0  0  0  0  0  0  0  0  0  0
    3.5507    0.2356    0.0000 C   0  0  0  0  0  0  0  0  0  0  0  0
    6.3988    1.9015    0.0000 C   0  0  2  0  0  0  0  0  0  0  0  0
    0.6984    0.2356    0.0000 O   0  0  0  0  0  0  0  0  0  0  0  0
    5.6836   -5.1493    0.0000 C   0  0  0  0  0  0  0  0  0  0  0  0
    2.1329    1.0601    0.0000 C   0  0  0  0  0  0  0  0  0  0  0  0
    7.8249    1.0685    0.0000 C   0  0  0  0  0  0  0  0  0  0  0  0
    0.6984   -1.4135    0.0000 C   0  0  0  0  0  0  0  0  0  0  0  0
    7.1055    2.3054    0.0000 C   0  0  0  0  0  0  0  0  0  0  0  0
    5.6836    2.3054    0.0000 C   0  0  0  0  0  0  0  0  0  0  0  0
    7.8249    1.9015    0.0000 C   0  0  0  0  0  0  0  0  0  0  0  0
    4.2658   -4.3079    0.0000 H   0  0  0  0  0  0  0  0  0  0  0  0
    3.5507   -5.5658    0.0000 H   0  0  0  0  0  0  0  0  0  0  0  0
    7.1055    1.4850    0.0000 H   0  0  0  0  0  0  0  0  0  0  0  0
    4.9726   -0.5974    0.0000 H   0  0  0  0  0  0  0  0  0  0  0  0
    4.2658    0.6563    0.0000 H   0  0  0  0  0  0  0  0  0  0  0  0
  2  1  1  0  0  0  0
  3  2  1  0  0  0  0
  4  1  1  0  0  0  0
  5 16  1  6  0  0  0
  6  1  1  0  0  0  0
  7  9  1  0  0  0  0
  8 24  1  0  0  0  0
  9  6  2  0  0  0  0
 10  3  1  0  0  0  0
 11  2  1  0  0  0  0
  7 12  1  1  0  0  0
 13  5  1  0  0  0  0
 14  4  1  0  0  0  0
 15 12  1  0  0  0  0
 16 19  1  0  0  0  0
 17 35  1  0  0  0  0
 18 13  1  0  0  0  0
 19 14  1  0  0  0  0
 20  5  1  0  0  0  0
 21 23  2  0  0  0  0
 22 20  2  0  0  0  0
 23 44  1  0  0  0  0
 24 41  2  0  0  0  0
 25 11  1  0  0  0  0
 26 39  1  0  0  0  0
 27  8  1  0  0  0  0
 28 15  1  0  0  0  0
 29  8  2  0  0  0  0
 30 11  2  0  0  0  0
 31  4  2  0  0  0  0
 32 30  1  0  0  0  0
 33 22  1  0  0  0  0
 34 19  1  0  0  0  0
 35 34  1  0  0  0  0
 36 15  2  0  0  0  0
 37 32  2  0  0  0  0
  2 38  1  6  0  0  0
 39 37  1  0  0  0  0
 40 42  2  0  0  0  0
 41 43  1  0  0  0  0
 42 28  1  0  0  0  0
 43 28  2  0  0  0  0
 44 35  1  0  0  0  0
 45 18  1  0  0  0  0
 26 46  1  6  0  0  0
 47  9  1  0  0  0  0
 48 21  1  0  0  0  0
 33 49  1  1  0  0  0
 39 50  1  6  0  0  0
 51 45  1  0  0  0  0
 45 52  1  1  0  0  0
 53 51  1  0  0  0  0
  1 54  1  1  0  0  0
  3 55  1  6  0  0  0
 18 56  1  1  0  0  0
 19 57  1  6  0  0  0
 35 58  1  6  0  0  0
  7  3  1  0  0  0  0
 25 10  1  0  0  0  0
  5 17  1  1  0  0  0
 21 26  1  0  0  0  0
 40 24  1  0  0  0  0
 18 33  1  0  0  0  0
M  CHG  2   8   1  27  -1
M  END
>  <IDNUMBER>
F6170-0182

>  <Chemical_Name>
(1'R,2S,4'S,5S,6R,8'R,10'E,12'S,13'S,14'E,16'E,20'R,21'R,24'S)-6-[(2S)-butan-2-yl]-12',24'-dihydroxy-5,11',13',22'-tetramethyl-2'-oxo-5,6-dihydro-3',7',19'-trioxaspiro[pyran-2,6'-tetracyclo[15.6.1.1?,?.0??,??]pentacosane]-10',14',16',22'-tetraen-21'-yl 4-nitrobenzoate

>  <PriceCoeff>
7.00

>  <MW>
733.86

>  <Description>
solid

>  <FSP3>
0.56

>  <clogP>
6.55

>  <TPSA>
163.89

>  <Acceptor>
11

>  <Donor>
2

>  <RotBonds>
6

>  <HAC>
53

$$$$
F6170-0197
  Mrv2219 10102508112D          

 65 71  0  0  0  0            999 V2000
   -3.3588    3.3969    0.0000 C   0  0  2  0  0  0  0  0  0  0  0  0
   -4.0893    2.9792    0.0000 C   0  0  1  0  0  0  0  0  0  0  0  0
   -4.0893    2.1537    0.0000 C   0  0  1  0  0  0  0  0  0  0  0  0
   -3.3588    4.2128    0.0000 C   0  0  0  0  0  0  0  0  0  0  0  0
   -1.9452    6.6892    0.0000 C   0  0  2  0  0  0  0  0  0  0  0  0
   -2.6661    2.9792    0.0000 C   0  0  0  0  0  0  0  0  0  0  0  0
   -3.3588    1.7552    0.0000 C   0  0  1  0  0  0  0  0  0  0  0  0
   -2.6661    2.1537    0.0000 C   0  0  0  0  0  0  0  0  0  0  0  0
   -5.4937    2.1537    0.0000 O   0  0  0  0  0  0  0  0  0  0  0  0
   -4.7821    3.3969    0.0000 C   0  0  0  0  0  0  0  0  0  0  0  0
   -3.3588    0.9204    0.0000 O   0  0  0  0  0  0  0  0  0  0  0  0
   -1.9452    7.5242    0.0000 O   0  0  0  0  0  0  0  0  0  0  0  0
   -6.9073    7.1066    0.0000 O   0  0  0  0  0  0  0  0  0  0  0  0
   -2.6661    4.6302    0.0000 O   0  0  0  0  0  0  0  0  0  0  0  0
   -4.0893    0.5124    0.0000 C   0  0  0  0  0  0  0  0  0  0  0  0
   -6.9169    7.9321    0.0000 C   0  0  0  0  0  0  0  0  0  0  0  0
   -6.1957    6.6892    0.0000 C   0  0  2  0  0  0  0  0  0  0  0  0
   -1.9452    5.8733    0.0000 C   0  0  0  0  0  0  0  0  0  0  0  0
   -2.6661    7.1066    0.0000 O   0  0  0  0  0  0  0  0  0  0  0  0
   -1.2429    7.9321    0.0000 C   0  0  1  0  0  0  0  0  0  0  0  0
   -2.6661    5.4556    0.0000 C   0  0  2  0  0  0  0  0  0  0  0  0
   -5.4937    7.1066    0.0000 C   0  0  0  0  0  0  0  0  0  0  0  0
   -1.2429    6.2811    0.0000 C   0  0  0  0  0  0  0  0  0  0  0  0
   -0.5408    6.6892    0.0000 C   0  0  0  0  0  0  0  0  0  0  0  0
   -4.7821    6.6892    0.0000 C   0  0  0  0  0  0  0  0  0  0  0  0
   -5.4937    2.9792    0.0000 C   0  0  0  0  0  0  0  0  0  0  0  0
   -4.0893   -0.3131    0.0000 C   0  0  0  0  0  0  0  0  0  0  0  0
   -7.6285    8.3590    0.0000 C   0  0  0  0  0  0  0  0  0  0  0  0
   -4.7821    4.2128    0.0000 C   0  0  0  0  0  0  0  0  0  0  0  0
   -3.9755    4.6302    0.0000 O   0  0  0  0  0  0  0  0  0  0  0  0
   -5.4937    4.6302    0.0000 C   0  0  0  0  0  0  0  0  0  0  0  0
   -0.5408    7.5242    0.0000 C   0  0  2  0  0  0  0  0  0  0  0  0
   -3.3588    5.8733    0.0000 C   0  0  0  0  0  0  0  0  0  0  0  0
   -3.3588    6.6892    0.0000 C   0  0  1  0  0  0  0  0  0  0  0  0
   -4.8010    0.9204    0.0000 O   0  0  0  0  0  0  0  0  0  0  0  0
   -6.1957    8.3590    0.0000 O   0  0  0  0  0  0  0  0  0  0  0  0
   -6.1957    5.8733    0.0000 C   0  0  2  0  0  0  0  0  0  0  0  0
   -5.4937    5.4556    0.0000 C   0  0  0  0  0  0  0  0  0  0  0  0
   -4.0893    3.7954    0.0000 O   0  0  0  0  0  0  0  0  0  0  0  0
   -3.3777   -0.7116    0.0000 C   0  0  0  0  0  0  0  0  0  0  0  0
   -4.8010   -0.7116    0.0000 C   0  0  0  0  0  0  0  0  0  0  0  0
   -7.6285    9.1845    0.0000 C   0  0  0  0  0  0  0  0  0  0  0  0
   -8.3401    7.9321    0.0000 C   0  0  0  0  0  0  0  0  0  0  0  0
   -4.0893    7.1066    0.0000 C   0  0  0  0  0  0  0  0  0  0  0  0
   -1.2429    8.7575    0.0000 C   0  0  2  0  0  0  0  0  0  0  0  0
   -9.0707    9.1752    0.0000 C   0  0  0  0  0  0  0  0  0  0  0  0
   -4.0893   -1.9452    0.0000 C   0  0  0  0  0  0  0  0  0  0  0  0
   -8.3590    9.5926    0.0000 C   0  0  0  0  0  0  0  0  0  0  0  0
   -3.3588   -1.5371    0.0000 C   0  0  0  0  0  0  0  0  0  0  0  0
   -9.0613    8.3497    0.0000 C   0  0  0  0  0  0  0  0  0  0  0  0
   -4.8010   -1.5371    0.0000 C   0  0  0  0  0  0  0  0  0  0  0  0
   -4.0893   -2.7706    0.0000 F   0  0  0  0  0  0  0  0  0  0  0  0
   -9.7918    9.5926    0.0000 F   0  0  0  0  0  0  0  0  0  0  0  0
   -1.9452    1.7552    0.0000 C   0  0  0  0  0  0  0  0  0  0  0  0
   -5.4937    7.9321    0.0000 C   0  0  0  0  0  0  0  0  0  0  0  0
    0.1708    7.9321    0.0000 C   0  0  0  0  0  0  0  0  0  0  0  0
   -6.9073    5.4556    0.0000 C   0  0  0  0  0  0  0  0  0  0  0  0
   -0.5408    9.1656    0.0000 C   0  0  0  0  0  0  0  0  0  0  0  0
   -1.9452    9.1656    0.0000 C   0  0  0  0  0  0  0  0  0  0  0  0
    0.1708    8.7575    0.0000 C   0  0  0  0  0  0  0  0  0  0  0  0
   -3.3588    2.5807    0.0000 H   0  0  0  0  0  0  0  0  0  0  0  0
   -4.0893    1.3283    0.0000 H   0  0  0  0  0  0  0  0  0  0  0  0
   -0.5408    8.3497    0.0000 H   0  0  0  0  0  0  0  0  0  0  0  0
   -2.6661    6.2811    0.0000 H   0  0  0  0  0  0  0  0  0  0  0  0
   -3.3588    7.5147    0.0000 H   0  0  0  0  0  0  0  0  0  0  0  0
  2  1  1  0  0  0  0
  3  2  1  0  0  0  0
  4  1  1  0  0  0  0
  5 18  1  6  0  0  0
  6  1  1  0  0  0  0
  7  8  1  0  0  0  0
  8  6  2  0  0  0  0
  9  3  1  0  0  0  0
 10  2  1  0  0  0  0
  7 11  1  1  0  0  0
 12  5  1  0  0  0  0
 17 13  1  6  0  0  0
 14  4  1  0  0  0  0
 15 11  1  0  0  0  0
 16 13  1  0  0  0  0
 17 37  1  0  0  0  0
 18 21  1  0  0  0  0
 19 34  1  0  0  0  0
 20 12  1  0  0  0  0
 21 14  1  0  0  0  0
 22 25  2  0  0  0  0
 23  5  1  0  0  0  0
 24 23  2  0  0  0  0
 25 44  1  0  0  0  0
 26 10  1  0  0  0  0
 27 15  1  0  0  0  0
 28 16  1  0  0  0  0
 29 10  2  0  0  0  0
 30  4  2  0  0  0  0
 31 29  1  0  0  0  0
 32 24  1  0  0  0  0
 33 21  1  0  0  0  0
 34 33  1  0  0  0  0
 35 15  2  0  0  0  0
 36 16  2  0  0  0  0
 37 38  1  0  0  0  0
 38 31  2  0  0  0  0
  2 39  1  6  0  0  0
 40 27  1  0  0  0  0
 41 27  2  0  0  0  0
 42 28  2  0  0  0  0
 43 28  1  0  0  0  0
 44 34  1  0  0  0  0
 45 20  1  0  0  0  0
 46 50  1  0  0  0  0
 47 51  2  0  0  0  0
 48 42  1  0  0  0  0
 49 40  2  0  0  0  0
 50 43  2  0  0  0  0
 51 41  1  0  0  0  0
 52 47  1  0  0  0  0
 53 46  1  0  0  0  0
 54  8  1  0  0  0  0
 55 22  1  0  0  0  0
 32 56  1  1  0  0  0
 37 57  1  6  0  0  0
 58 45  1  0  0  0  0
 45 59  1  1  0  0  0
 60 58  1  0  0  0  0
  1 61  1  1  0  0  0
  3 62  1  6  0  0  0
 20 63  1  1  0  0  0
 21 64  1  6  0  0  0
 34 65  1  6  0  0  0
  7  3  1  0  0  0  0
 26  9  1  0  0  0  0
  5 19  1  1  0  0  0
 49 47  1  0  0  0  0
 22 17  1  0  0  0  0
 20 32  1  0  0  0  0
 48 46  2  0  0  0  0
M  END
>  <IDNUMBER>
F6170-0197

>  <Chemical_Name>
(1'R,2S,4'S,5S,6R,8'R,10'E,12'S,13'S,14'E,16'E,20'R,21'R,24'S)-6-[(2S)-butan-2-yl]-12'-(4-fluorobenzoyloxy)-24'-hydroxy-5,11',13',22'-tetramethyl-2'-oxo-5,6-dihydro-3',7',19'-trioxaspiro[pyran-2,6'-tetracyclo[15.6.1.1?,?.0??,??]pentacosane]-10',14',16',22'-tetraen-21'-yl 4-fluorobenzoate

>  <PriceCoeff>
7.00

>  <MW>
828.95

>  <Description>
solid

>  <FSP3>
0.48

>  <clogP>
9.97

>  <TPSA>
126.82

>  <Acceptor>
10

>  <Donor>
1

>  <RotBonds>
8

>  <HAC>
60

$$$$
F6170-0199
  Mrv2219 10102508112D          

 59 64  0  0  0  0            999 V2000
    5.4377   -5.3745    0.0000 C   0  0  2  0  0  0  0  0  0  0  0  0
    4.7259   -5.7915    0.0000 C   0  0  1  0  0  0  0  0  0  0  0  0
    4.7259   -6.6213    0.0000 C   0  0  1  0  0  0  0  0  0  0  0  0
    5.4377   -4.5532    0.0000 C   0  0  0  0  0  0  0  0  0  0  0  0
    6.8656   -2.0513    0.0000 C   0  0  2  0  0  0  0  0  0  0  0  0
    6.1453   -5.7915    0.0000 C   0  0  0  0  0  0  0  0  0  0  0  0
    5.4377   -7.0382    0.0000 C   0  0  1  0  0  0  0  0  0  0  0  0
    6.1453   -6.6213    0.0000 C   0  0  0  0  0  0  0  0  0  0  0  0
    3.3022   -6.6213    0.0000 O   0  0  0  0  0  0  0  0  0  0  0  0
    4.0182   -5.3745    0.0000 C   0  0  0  0  0  0  0  0  0  0  0  0
    5.4377   -7.8638    0.0000 O   0  0  0  0  0  0  0  0  0  0  0  0
    6.8656   -1.2173    0.0000 O   0  0  0  0  0  0  0  0  0  0  0  0
    4.7175  -11.5788    0.0000 C   0  0  0  0  0  0  0  0  0  0  0  0
    6.1453   -4.1320    0.0000 O   0  0  0  0  0  0  0  0  0  0  0  0
    4.7175   -8.2766    0.0000 C   0  0  0  0  0  0  0  0  0  0  0  0
    6.8656   -2.8853    0.0000 C   0  0  0  0  0  0  0  0  0  0  0  0
    6.1453   -1.6427    0.0000 O   0  0  0  0  0  0  0  0  0  0  0  0
    7.5732   -0.8087    0.0000 C   0  0  1  0  0  0  0  0  0  0  0  0
    6.1453   -3.3022    0.0000 C   0  0  2  0  0  0  0  0  0  0  0  0
    7.5732   -2.4683    0.0000 C   0  0  0  0  0  0  0  0  0  0  0  0
    3.3022   -1.6427    0.0000 C   0  0  0  0  0  0  0  0  0  0  0  0
    8.2808   -2.0513    0.0000 C   0  0  0  0  0  0  0  0  0  0  0  0
    4.0182   -2.0513    0.0000 C   0  0  0  0  0  0  0  0  0  0  0  0
    3.3022   -5.7915    0.0000 C   0  0  0  0  0  0  0  0  0  0  0  0
    2.5904   -2.0513    0.0000 C   0  0  2  0  0  0  0  0  0  0  0  0
    4.7175  -10.7448    0.0000 C   0  0  0  0  0  0  0  0  0  0  0  0
    4.7175   -9.1022    0.0000 C   0  0  0  0  0  0  0  0  0  0  0  0
    4.0182   -4.5532    0.0000 C   0  0  0  0  0  0  0  0  0  0  0  0
    4.8312   -4.1446    0.0000 O   0  0  0  0  0  0  0  0  0  0  0  0
    3.3022   -4.1320    0.0000 C   0  0  0  0  0  0  0  0  0  0  0  0
    8.2808   -1.2173    0.0000 C   0  0  2  0  0  0  0  0  0  0  0  0
    5.4377   -2.8853    0.0000 C   0  0  0  0  0  0  0  0  0  0  0  0
    5.4377   -2.0513    0.0000 C   0  0  1  0  0  0  0  0  0  0  0  0
    4.0056   -7.8638    0.0000 O   0  0  0  0  0  0  0  0  0  0  0  0
    3.3022   -3.3022    0.0000 C   0  0  0  0  0  0  0  0  0  0  0  0
    4.7259   -4.9702    0.0000 O   0  0  0  0  0  0  0  0  0  0  0  0
    2.5904   -2.8853    0.0000 C   0  0  2  0  0  0  0  0  0  0  0  0
    5.4377  -10.3278    0.0000 C   0  0  0  0  0  0  0  0  0  0  0  0
    4.0056  -10.3278    0.0000 C   0  0  0  0  0  0  0  0  0  0  0  0
    5.4335   -9.5065    0.0000 C   0  0  0  0  0  0  0  0  0  0  0  0
    4.0056   -9.5065    0.0000 C   0  0  0  0  0  0  0  0  0  0  0  0
    3.9930  -11.9958    0.0000 F   0  0  0  0  0  0  0  0  0  0  0  0
    5.4377  -11.9958    0.0000 F   0  0  0  0  0  0  0  0  0  0  0  0
    4.7132  -12.4128    0.0000 F   0  0  0  0  0  0  0  0  0  0  0  0
    4.7259   -1.6427    0.0000 C   0  0  0  0  0  0  0  0  0  0  0  0
    7.5732    0.0253    0.0000 C   0  0  2  0  0  0  0  0  0  0  0  0
    1.8744   -1.6427    0.0000 O   0  0  0  0  0  0  0  0  0  0  0  0
    6.8656   -7.0382    0.0000 C   0  0  0  0  0  0  0  0  0  0  0  0
    3.3022   -0.8087    0.0000 C   0  0  0  0  0  0  0  0  0  0  0  0
    9.0011   -0.8087    0.0000 C   0  0  0  0  0  0  0  0  0  0  0  0
    1.8744   -3.2980    0.0000 C   0  0  0  0  0  0  0  0  0  0  0  0
    8.2808    0.4296    0.0000 C   0  0  0  0  0  0  0  0  0  0  0  0
    6.8656    0.4296    0.0000 C   0  0  0  0  0  0  0  0  0  0  0  0
    9.0011    0.0253    0.0000 C   0  0  0  0  0  0  0  0  0  0  0  0
    5.4377   -1.2257    0.0000 H   0  0  0  0  0  0  0  0  0  0  0  0
    5.4377   -6.1959    0.0000 H   0  0  0  0  0  0  0  0  0  0  0  0
    4.7259   -7.4552    0.0000 H   0  0  0  0  0  0  0  0  0  0  0  0
    8.2808   -0.3960    0.0000 H   0  0  0  0  0  0  0  0  0  0  0  0
    6.1453   -2.4767    0.0000 H   0  0  0  0  0  0  0  0  0  0  0  0
  2  1  1  0  0  0  0
  3  2  1  0  0  0  0
  4  1  1  0  0  0  0
  5 16  1  6  0  0  0
  6  1  1  0  0  0  0
  7  8  1  0  0  0  0
  8  6  2  0  0  0  0
  9  3  1  0  0  0  0
 10  2  1  0  0  0  0
  7 11  1  1  0  0  0
 12  5  1  0  0  0  0
 13 26  1  0  0  0  0
 14  4  1  0  0  0  0
 15 11  1  0  0  0  0
 16 19  1  0  0  0  0
 17 33  1  0  0  0  0
 18 12  1  0  0  0  0
 19 14  1  0  0  0  0
 20  5  1  0  0  0  0
 21 23  2  0  0  0  0
 22 20  2  0  0  0  0
 23 45  1  0  0  0  0
 24 10  1  0  0  0  0
 25 37  1  0  0  0  0
 26 39  2  0  0  0  0
 27 15  1  0  0  0  0
 28 10  2  0  0  0  0
 29  4  2  0  0  0  0
 30 28  1  0  0  0  0
 31 22  1  0  0  0  0
 32 19  1  0  0  0  0
 33 32  1  0  0  0  0
 34 15  2  0  0  0  0
 35 30  2  0  0  0  0
  2 36  1  6  0  0  0
 37 35  1  0  0  0  0
 38 40  2  0  0  0  0
 39 41  1  0  0  0  0
 40 27  1  0  0  0  0
 41 27  2  0  0  0  0
 42 13  1  0  0  0  0
 43 13  1  0  0  0  0
 44 13  1  0  0  0  0
 45 33  1  0  0  0  0
 46 18  1  0  0  0  0
 25 47  1  6  0  0  0
 48  8  1  0  0  0  0
 49 21  1  0  0  0  0
 31 50  1  1  0  0  0
 37 51  1  6  0  0  0
 52 46  1  0  0  0  0
 46 53  1  1  0  0  0
 54 52  1  0  0  0  0
 33 55  1  6  0  0  0
  1 56  1  1  0  0  0
  3 57  1  6  0  0  0
 18 58  1  1  0  0  0
 19 59  1  6  0  0  0
  7  3  1  0  0  0  0
 24  9  1  0  0  0  0
  5 17  1  1  0  0  0
 21 25  1  0  0  0  0
 38 26  1  0  0  0  0
 18 31  1  0  0  0  0
M  END
>  <IDNUMBER>
F6170-0199

>  <Chemical_Name>
(1'R,2S,4'S,5S,6R,8'R,10'E,12'S,13'S,14'E,16'E,20'R,21'R,24'S)-6-[(2S)-butan-2-yl]-12',24'-dihydroxy-5,11',13',22'-tetramethyl-2'-oxo-5,6-dihydro-3',7',19'-trioxaspiro[pyran-2,6'-tetracyclo[15.6.1.1?,?.0??,??]pentacosane]-10',14',16',22'-tetraen-21'-yl 4-(trifluoromethyl)benzoate

>  <PriceCoeff>
7.00

>  <MW>
756.86

>  <Description>
solid

>  <FSP3>
0.57

>  <clogP>
7.69

>  <TPSA>
120.75

>  <Acceptor>
9

>  <Donor>
2

>  <RotBonds>
5

>  <HAC>
54

$$$$
F6170-0200
  Mrv2219 10102508112D          

 62 67  0  0  0  0            999 V2000
    5.4377   -5.3745    0.0000 C   0  0  2  0  0  0  0  0  0  0  0  0
    4.7259   -5.7915    0.0000 C   0  0  1  0  0  0  0  0  0  0  0  0
    4.7259   -6.6213    0.0000 C   0  0  1  0  0  0  0  0  0  0  0  0
    5.4377   -4.5532    0.0000 C   0  0  0  0  0  0  0  0  0  0  0  0
    6.8656   -2.0513    0.0000 C   0  0  2  0  0  0  0  0  0  0  0  0
    6.1453   -5.7915    0.0000 C   0  0  0  0  0  0  0  0  0  0  0  0
    5.4377   -7.0382    0.0000 C   0  0  1  0  0  0  0  0  0  0  0  0
    6.1453   -6.6213    0.0000 C   0  0  0  0  0  0  0  0  0  0  0  0
    3.3022   -6.6213    0.0000 O   0  0  0  0  0  0  0  0  0  0  0  0
    4.0182   -5.3745    0.0000 C   0  0  0  0  0  0  0  0  0  0  0  0
    5.4377   -7.8638    0.0000 O   0  0  0  0  0  0  0  0  0  0  0  0
    6.8656   -1.2173    0.0000 O   0  0  0  0  0  0  0  0  0  0  0  0
    4.7175  -11.5788    0.0000 C   0  0  0  0  0  0  0  0  0  0  0  0
    6.1453   -4.1320    0.0000 O   0  0  0  0  0  0  0  0  0  0  0  0
    4.7175   -8.2766    0.0000 C   0  0  0  0  0  0  0  0  0  0  0  0
    6.8656   -2.8853    0.0000 C   0  0  0  0  0  0  0  0  0  0  0  0
    6.1453   -1.6427    0.0000 O   0  0  0  0  0  0  0  0  0  0  0  0
    2.5904   -2.0513    0.0000 C   0  0  1  0  0  0  0  0  0  0  0  0
    7.5732   -0.8087    0.0000 C   0  0  1  0  0  0  0  0  0  0  0  0
    6.1453   -3.3022    0.0000 C   0  0  2  0  0  0  0  0  0  0  0  0
    3.3022   -1.6427    0.0000 C   0  0  0  0  0  0  0  0  0  0  0  0
    7.5732   -2.4683    0.0000 C   0  0  0  0  0  0  0  0  0  0  0  0
    8.2808   -2.0513    0.0000 C   0  0  0  0  0  0  0  0  0  0  0  0
    4.0182   -2.0513    0.0000 C   0  0  0  0  0  0  0  0  0  0  0  0
    1.8744   -1.6427    0.0000 O   0  0  0  0  0  0  0  0  0  0  0  0
    3.3022   -5.7915    0.0000 C   0  0  0  0  0  0  0  0  0  0  0  0
    4.7175  -10.7448    0.0000 C   0  0  0  0  0  0  0  0  0  0  0  0
    4.7175   -9.1022    0.0000 C   0  0  0  0  0  0  0  0  0  0  0  0
    1.8701   -0.8087    0.0000 C   0  0  0  0  0  0  0  0  0  0  0  0
    4.0182   -4.5532    0.0000 C   0  0  0  0  0  0  0  0  0  0  0  0
    4.8312   -4.1446    0.0000 O   0  0  0  0  0  0  0  0  0  0  0  0
    3.3022   -4.1320    0.0000 C   0  0  0  0  0  0  0  0  0  0  0  0
    8.2808   -1.2173    0.0000 C   0  0  2  0  0  0  0  0  0  0  0  0
    5.4377   -2.8853    0.0000 C   0  0  0  0  0  0  0  0  0  0  0  0
    5.4377   -2.0513    0.0000 C   0  0  1  0  0  0  0  0  0  0  0  0
    4.0056   -7.8638    0.0000 O   0  0  0  0  0  0  0  0  0  0  0  0
    2.5904   -2.8853    0.0000 C   0  0  2  0  0  0  0  0  0  0  0  0
    3.3022   -3.3022    0.0000 C   0  0  0  0  0  0  0  0  0  0  0  0
    4.7259   -4.9702    0.0000 O   0  0  0  0  0  0  0  0  0  0  0  0
    2.5946   -0.3833    0.0000 O   0  0  0  0  0  0  0  0  0  0  0  0
    5.4377  -10.3278    0.0000 C   0  0  0  0  0  0  0  0  0  0  0  0
    4.0056  -10.3278    0.0000 C   0  0  0  0  0  0  0  0  0  0  0  0
    5.4335   -9.5065    0.0000 C   0  0  0  0  0  0  0  0  0  0  0  0
    4.0056   -9.5065    0.0000 C   0  0  0  0  0  0  0  0  0  0  0  0
    4.7132  -12.4128    0.0000 F   0  0  0  0  0  0  0  0  0  0  0  0
    3.9930  -11.9958    0.0000 F   0  0  0  0  0  0  0  0  0  0  0  0
    5.4377  -11.9958    0.0000 F   0  0  0  0  0  0  0  0  0  0  0  0
    4.7259   -1.6427    0.0000 C   0  0  0  0  0  0  0  0  0  0  0  0
    7.5732    0.0253    0.0000 C   0  0  2  0  0  0  0  0  0  0  0  0
    6.8656   -7.0382    0.0000 C   0  0  0  0  0  0  0  0  0  0  0  0
    3.3022   -0.8087    0.0000 C   0  0  0  0  0  0  0  0  0  0  0  0
    1.1499   -0.3917    0.0000 C   0  0  0  0  0  0  0  0  0  0  0  0
    9.0011   -0.8087    0.0000 C   0  0  0  0  0  0  0  0  0  0  0  0
    1.8744   -3.2980    0.0000 C   0  0  0  0  0  0  0  0  0  0  0  0
    8.2808    0.4296    0.0000 C   0  0  0  0  0  0  0  0  0  0  0  0
    6.8656    0.4296    0.0000 C   0  0  0  0  0  0  0  0  0  0  0  0
    9.0011    0.0253    0.0000 C   0  0  0  0  0  0  0  0  0  0  0  0
    8.2808   -0.3960    0.0000 H   0  0  0  0  0  0  0  0  0  0  0  0
    6.1453   -2.4767    0.0000 H   0  0  0  0  0  0  0  0  0  0  0  0
    5.4377   -1.2257    0.0000 H   0  0  0  0  0  0  0  0  0  0  0  0
    5.4377   -6.1959    0.0000 H   0  0  0  0  0  0  0  0  0  0  0  0
    4.7259   -7.4552    0.0000 H   0  0  0  0  0  0  0  0  0  0  0  0
  2  1  1  0  0  0  0
  3  2  1  0  0  0  0
  4  1  1  0  0  0  0
  5 16  1  6  0  0  0
  6  1  1  0  0  0  0
  7  8  1  0  0  0  0
  8  6  2  0  0  0  0
  9  3  1  0  0  0  0
 10  2  1  0  0  0  0
  7 11  1  1  0  0  0
 12  5  1  0  0  0  0
 13 27  1  0  0  0  0
 14  4  1  0  0  0  0
 15 11  1  0  0  0  0
 16 20  1  0  0  0  0
 17 35  1  0  0  0  0
 18 37  1  0  0  0  0
 19 12  1  0  0  0  0
 20 14  1  0  0  0  0
 21 24  2  0  0  0  0
 22  5  1  0  0  0  0
 23 22  2  0  0  0  0
 24 48  1  0  0  0  0
 18 25  1  6  0  0  0
 26 10  1  0  0  0  0
 27 42  2  0  0  0  0
 28 15  1  0  0  0  0
 29 25  1  0  0  0  0
 30 10  2  0  0  0  0
 31  4  2  0  0  0  0
 32 30  1  0  0  0  0
 33 23  1  0  0  0  0
 34 20  1  0  0  0  0
 35 34  1  0  0  0  0
 36 15  2  0  0  0  0
 37 38  1  0  0  0  0
 38 32  2  0  0  0  0
  2 39  1  6  0  0  0
 40 29  2  0  0  0  0
 41 43  2  0  0  0  0
 42 44  1  0  0  0  0
 43 28  1  0  0  0  0
 44 28  2  0  0  0  0
 45 13  1  0  0  0  0
 46 13  1  0  0  0  0
 47 13  1  0  0  0  0
 48 35  1  0  0  0  0
 49 19  1  0  0  0  0
 50  8  1  0  0  0  0
 51 21  1  0  0  0  0
 52 29  1  0  0  0  0
 33 53  1  1  0  0  0
 37 54  1  6  0  0  0
 55 49  1  0  0  0  0
 49 56  1  1  0  0  0
 57 55  1  0  0  0  0
 19 58  1  1  0  0  0
 20 59  1  6  0  0  0
 35 60  1  6  0  0  0
  1 61  1  1  0  0  0
  3 62  1  6  0  0  0
  7  3  1  0  0  0  0
 26  9  1  0  0  0  0
  5 17  1  1  0  0  0
 41 27  1  0  0  0  0
 21 18  1  0  0  0  0
 19 33  1  0  0  0  0
M  END
>  <IDNUMBER>
F6170-0200

>  <Chemical_Name>
(1'R,2S,4'S,5S,6R,8'R,10'E,12'S,13'S,14'E,16'E,20'R,21'R,24'S)-12'-(acetyloxy)-6-[(2S)-butan-2-yl]-24'-hydroxy-5,11',13',22'-tetramethyl-2'-oxo-5,6-dihydro-3',7',19'-trioxaspiro[pyran-2,6'-tetracyclo[15.6.1.1?,?.0??,??]pentacosane]-10',14',16',22'-tetraen-21'-yl 4-(trifluoromethyl)benzoate

>  <PriceCoeff>
7.00

>  <MW>
798.89

>  <Description>
solid

>  <FSP3>
0.57

>  <clogP>
8.63

>  <TPSA>
126.82

>  <Acceptor>
10

>  <Donor>
1

>  <RotBonds>
7

>  <HAC>
57

$$$$
F6170-0201
  Mrv2219 10102508112D          

 59 64  0  0  0  0            999 V2000
    5.4377   -5.3745    0.0000 C   0  0  2  0  0  0  0  0  0  0  0  0
    4.7259   -5.7915    0.0000 C   0  0  1  0  0  0  0  0  0  0  0  0
    4.7259   -6.6213    0.0000 C   0  0  1  0  0  0  0  0  0  0  0  0
    5.4377   -4.5532    0.0000 C   0  0  0  0  0  0  0  0  0  0  0  0
    6.8656   -2.0513    0.0000 C   0  0  2  0  0  0  0  0  0  0  0  0
    6.1453   -5.7915    0.0000 C   0  0  0  0  0  0  0  0  0  0  0  0
    5.4377   -7.0382    0.0000 C   0  0  1  0  0  0  0  0  0  0  0  0
    6.1453   -6.6213    0.0000 C   0  0  0  0  0  0  0  0  0  0  0  0
    3.3022   -6.6213    0.0000 O   0  0  0  0  0  0  0  0  0  0  0  0
    4.0182   -5.3745    0.0000 C   0  0  0  0  0  0  0  0  0  0  0  0
    5.4377   -7.8638    0.0000 O   0  0  0  0  0  0  0  0  0  0  0  0
    4.7175   -8.2766    0.0000 C   0  0  0  0  0  0  0  0  0  0  0  0
    6.8656   -1.2173    0.0000 O   0  0  0  0  0  0  0  0  0  0  0  0
    6.1453   -4.1320    0.0000 O   0  0  0  0  0  0  0  0  0  0  0  0
    4.7175   -9.1022    0.0000 C   0  0  0  0  0  0  0  0  0  0  0  0
    6.8656   -2.8853    0.0000 C   0  0  0  0  0  0  0  0  0  0  0  0
    6.1453   -1.6427    0.0000 O   0  0  0  0  0  0  0  0  0  0  0  0
    7.5732   -0.8087    0.0000 C   0  0  1  0  0  0  0  0  0  0  0  0
    6.1453   -3.3022    0.0000 C   0  0  2  0  0  0  0  0  0  0  0  0
    7.5732   -2.4683    0.0000 C   0  0  0  0  0  0  0  0  0  0  0  0
    3.3022   -1.6427    0.0000 C   0  0  0  0  0  0  0  0  0  0  0  0
    8.2808   -2.0513    0.0000 C   0  0  0  0  0  0  0  0  0  0  0  0
    4.0182   -2.0513    0.0000 C   0  0  0  0  0  0  0  0  0  0  0  0
    3.3022   -5.7915    0.0000 C   0  0  0  0  0  0  0  0  0  0  0  0
    2.5904   -2.0513    0.0000 C   0  0  2  0  0  0  0  0  0  0  0  0
    4.0182   -4.5532    0.0000 C   0  0  0  0  0  0  0  0  0  0  0  0
    4.8312   -4.1446    0.0000 O   0  0  0  0  0  0  0  0  0  0  0  0
    3.3022   -4.1320    0.0000 C   0  0  0  0  0  0  0  0  0  0  0  0
    4.0056   -9.5065    0.0000 C   0  0  0  0  0  0  0  0  0  0  0  0
    5.4335   -9.5065    0.0000 C   0  0  0  0  0  0  0  0  0  0  0  0
    8.2808   -1.2173    0.0000 C   0  0  2  0  0  0  0  0  0  0  0  0
    5.4377   -2.8853    0.0000 C   0  0  0  0  0  0  0  0  0  0  0  0
    5.4377   -2.0513    0.0000 C   0  0  1  0  0  0  0  0  0  0  0  0
    4.0056   -7.8638    0.0000 O   0  0  0  0  0  0  0  0  0  0  0  0
    4.7175  -10.7448    0.0000 C   0  0  0  0  0  0  0  0  0  0  0  0
    5.4377  -10.3278    0.0000 C   0  0  0  0  0  0  0  0  0  0  0  0
    4.0056  -10.3278    0.0000 C   0  0  0  0  0  0  0  0  0  0  0  0
    3.3022   -3.3022    0.0000 C   0  0  0  0  0  0  0  0  0  0  0  0
    4.7259   -4.9702    0.0000 O   0  0  0  0  0  0  0  0  0  0  0  0
    2.5904   -2.8853    0.0000 C   0  0  2  0  0  0  0  0  0  0  0  0
    4.7259   -1.6427    0.0000 C   0  0  0  0  0  0  0  0  0  0  0  0
    7.5732    0.0253    0.0000 C   0  0  2  0  0  0  0  0  0  0  0  0
    1.8744   -1.6427    0.0000 O   0  0  0  0  0  0  0  0  0  0  0  0
    6.8656   -7.0382    0.0000 C   0  0  0  0  0  0  0  0  0  0  0  0
    6.1580  -10.7448    0.0000 O   0  0  0  0  0  0  0  0  0  0  0  0
    3.2770  -10.7448    0.0000 O   0  0  0  0  0  0  0  0  0  0  0  0
    3.3022   -0.8087    0.0000 C   0  0  0  0  0  0  0  0  0  0  0  0
    9.0011   -0.8087    0.0000 C   0  0  0  0  0  0  0  0  0  0  0  0
    1.8744   -3.2980    0.0000 C   0  0  0  0  0  0  0  0  0  0  0  0
    8.2808    0.4296    0.0000 C   0  0  0  0  0  0  0  0  0  0  0  0
    6.8656    0.4296    0.0000 C   0  0  0  0  0  0  0  0  0  0  0  0
    2.5567  -10.3278    0.0000 C   0  0  0  0  0  0  0  0  0  0  0  0
    6.8866  -10.3278    0.0000 C   0  0  0  0  0  0  0  0  0  0  0  0
    9.0011    0.0253    0.0000 C   0  0  0  0  0  0  0  0  0  0  0  0
    5.4377   -1.2257    0.0000 H   0  0  0  0  0  0  0  0  0  0  0  0
    5.4377   -6.1959    0.0000 H   0  0  0  0  0  0  0  0  0  0  0  0
    4.7259   -7.4552    0.0000 H   0  0  0  0  0  0  0  0  0  0  0  0
    8.2808   -0.3960    0.0000 H   0  0  0  0  0  0  0  0  0  0  0  0
    6.1453   -2.4767    0.0000 H   0  0  0  0  0  0  0  0  0  0  0  0
  2  1  1  0  0  0  0
  3  2  1  0  0  0  0
  4  1  1  0  0  0  0
  5 16  1  6  0  0  0
  6  1  1  0  0  0  0
  7  8  1  0  0  0  0
  8  6  2  0  0  0  0
  9  3  1  0  0  0  0
 10  2  1  0  0  0  0
  7 11  1  1  0  0  0
 12 11  1  0  0  0  0
 13  5  1  0  0  0  0
 14  4  1  0  0  0  0
 15 12  1  0  0  0  0
 16 19  1  0  0  0  0
 17 33  1  0  0  0  0
 18 13  1  0  0  0  0
 19 14  1  0  0  0  0
 20  5  1  0  0  0  0
 21 23  2  0  0  0  0
 22 20  2  0  0  0  0
 23 41  1  0  0  0  0
 24 10  1  0  0  0  0
 25 40  1  0  0  0  0
 26 10  2  0  0  0  0
 27  4  2  0  0  0  0
 28 26  1  0  0  0  0
 29 15  2  0  0  0  0
 30 15  1  0  0  0  0
 31 22  1  0  0  0  0
 32 19  1  0  0  0  0
 33 32  1  0  0  0  0
 34 12  2  0  0  0  0
 35 36  1  0  0  0  0
 36 30  2  0  0  0  0
 37 29  1  0  0  0  0
 38 28  2  0  0  0  0
  2 39  1  6  0  0  0
 40 38  1  0  0  0  0
 41 33  1  0  0  0  0
 42 18  1  0  0  0  0
 25 43  1  6  0  0  0
 44  8  1  0  0  0  0
 45 36  1  0  0  0  0
 46 37  1  0  0  0  0
 47 21  1  0  0  0  0
 31 48  1  1  0  0  0
 40 49  1  6  0  0  0
 50 42  1  0  0  0  0
 42 51  1  1  0  0  0
 52 46  1  0  0  0  0
 53 45  1  0  0  0  0
 54 50  1  0  0  0  0
 33 55  1  6  0  0  0
  1 56  1  1  0  0  0
  3 57  1  6  0  0  0
 18 58  1  1  0  0  0
 19 59  1  6  0  0  0
  7  3  1  0  0  0  0
 24  9  1  0  0  0  0
  5 17  1  1  0  0  0
 21 25  1  0  0  0  0
 37 35  2  0  0  0  0
 18 31  1  0  0  0  0
M  END
>  <IDNUMBER>
F6170-0201

>  <Chemical_Name>
(1'R,2S,4'S,5S,6R,8'R,10'E,12'S,13'S,14'E,16'E,20'R,21'R,24'S)-6-[(2S)-butan-2-yl]-12',24'-dihydroxy-5,11',13',22'-tetramethyl-2'-oxo-5,6-dihydro-3',7',19'-trioxaspiro[pyran-2,6'-tetracyclo[15.6.1.1?,?.0??,??]pentacosane]-10',14',16',22'-tetraen-21'-yl 3,5-dimethoxybenzoate

>  <PriceCoeff>
7.00

>  <MW>
748.91

>  <Description>
solid

>  <FSP3>
0.58

>  <clogP>
7.03

>  <TPSA>
139.21

>  <Acceptor>
11

>  <Donor>
2

>  <RotBonds>
7

>  <HAC>
54

$$$$
F6170-0202
  Mrv2219 10102508112D          

 62 67  0  0  0  0            999 V2000
    5.4377   -5.3745    0.0000 C   0  0  2  0  0  0  0  0  0  0  0  0
    4.7259   -5.7915    0.0000 C   0  0  1  0  0  0  0  0  0  0  0  0
    4.7259   -6.6213    0.0000 C   0  0  1  0  0  0  0  0  0  0  0  0
    5.4377   -4.5532    0.0000 C   0  0  0  0  0  0  0  0  0  0  0  0
    6.8656   -2.0513    0.0000 C   0  0  2  0  0  0  0  0  0  0  0  0
    6.1453   -5.7915    0.0000 C   0  0  0  0  0  0  0  0  0  0  0  0
    5.4377   -7.0382    0.0000 C   0  0  1  0  0  0  0  0  0  0  0  0
    6.1453   -6.6213    0.0000 C   0  0  0  0  0  0  0  0  0  0  0  0
    3.3022   -6.6213    0.0000 O   0  0  0  0  0  0  0  0  0  0  0  0
    4.0182   -5.3745    0.0000 C   0  0  0  0  0  0  0  0  0  0  0  0
    5.4377   -7.8638    0.0000 O   0  0  0  0  0  0  0  0  0  0  0  0
    4.7175   -8.2766    0.0000 C   0  0  0  0  0  0  0  0  0  0  0  0
    6.8656   -1.2173    0.0000 O   0  0  0  0  0  0  0  0  0  0  0  0
    6.1453   -4.1320    0.0000 O   0  0  0  0  0  0  0  0  0  0  0  0
    4.7175   -9.1022    0.0000 C   0  0  0  0  0  0  0  0  0  0  0  0
    6.8656   -2.8853    0.0000 C   0  0  0  0  0  0  0  0  0  0  0  0
    6.1453   -1.6427    0.0000 O   0  0  0  0  0  0  0  0  0  0  0  0
    2.5904   -2.0513    0.0000 C   0  0  1  0  0  0  0  0  0  0  0  0
    7.5732   -0.8087    0.0000 C   0  0  1  0  0  0  0  0  0  0  0  0
    6.1453   -3.3022    0.0000 C   0  0  2  0  0  0  0  0  0  0  0  0
    3.3022   -1.6427    0.0000 C   0  0  0  0  0  0  0  0  0  0  0  0
    7.5732   -2.4683    0.0000 C   0  0  0  0  0  0  0  0  0  0  0  0
    8.2808   -2.0513    0.0000 C   0  0  0  0  0  0  0  0  0  0  0  0
    4.0182   -2.0513    0.0000 C   0  0  0  0  0  0  0  0  0  0  0  0
    1.8744   -1.6427    0.0000 O   0  0  0  0  0  0  0  0  0  0  0  0
    3.3022   -5.7915    0.0000 C   0  0  0  0  0  0  0  0  0  0  0  0
    1.8701   -0.8087    0.0000 C   0  0  0  0  0  0  0  0  0  0  0  0
    4.0182   -4.5532    0.0000 C   0  0  0  0  0  0  0  0  0  0  0  0
    4.8312   -4.1446    0.0000 O   0  0  0  0  0  0  0  0  0  0  0  0
    3.3022   -4.1320    0.0000 C   0  0  0  0  0  0  0  0  0  0  0  0
    5.4335   -9.5065    0.0000 C   0  0  0  0  0  0  0  0  0  0  0  0
    4.0056   -9.5065    0.0000 C   0  0  0  0  0  0  0  0  0  0  0  0
    8.2808   -1.2173    0.0000 C   0  0  2  0  0  0  0  0  0  0  0  0
    5.4377   -2.8853    0.0000 C   0  0  0  0  0  0  0  0  0  0  0  0
    5.4377   -2.0513    0.0000 C   0  0  1  0  0  0  0  0  0  0  0  0
    4.0056   -7.8638    0.0000 O   0  0  0  0  0  0  0  0  0  0  0  0
    4.7175  -10.7448    0.0000 C   0  0  0  0  0  0  0  0  0  0  0  0
    4.0056  -10.3278    0.0000 C   0  0  0  0  0  0  0  0  0  0  0  0
    5.4377  -10.3278    0.0000 C   0  0  0  0  0  0  0  0  0  0  0  0
    2.5904   -2.8853    0.0000 C   0  0  2  0  0  0  0  0  0  0  0  0
    3.3022   -3.3022    0.0000 C   0  0  0  0  0  0  0  0  0  0  0  0
    4.7259   -4.9702    0.0000 O   0  0  0  0  0  0  0  0  0  0  0  0
    2.5946   -0.3833    0.0000 O   0  0  0  0  0  0  0  0  0  0  0  0
    4.7259   -1.6427    0.0000 C   0  0  0  0  0  0  0  0  0  0  0  0
    7.5732    0.0253    0.0000 C   0  0  2  0  0  0  0  0  0  0  0  0
    6.8656   -7.0382    0.0000 C   0  0  0  0  0  0  0  0  0  0  0  0
    6.1580  -10.7448    0.0000 O   0  0  0  0  0  0  0  0  0  0  0  0
    3.2770  -10.7448    0.0000 O   0  0  0  0  0  0  0  0  0  0  0  0
    3.3022   -0.8087    0.0000 C   0  0  0  0  0  0  0  0  0  0  0  0
    1.1499   -0.3917    0.0000 C   0  0  0  0  0  0  0  0  0  0  0  0
    9.0011   -0.8087    0.0000 C   0  0  0  0  0  0  0  0  0  0  0  0
    1.8744   -3.2980    0.0000 C   0  0  0  0  0  0  0  0  0  0  0  0
    8.2808    0.4296    0.0000 C   0  0  0  0  0  0  0  0  0  0  0  0
    6.8656    0.4296    0.0000 C   0  0  0  0  0  0  0  0  0  0  0  0
    2.5567  -10.3278    0.0000 C   0  0  0  0  0  0  0  0  0  0  0  0
    6.8866  -10.3278    0.0000 C   0  0  0  0  0  0  0  0  0  0  0  0
    9.0011    0.0253    0.0000 C   0  0  0  0  0  0  0  0  0  0  0  0
    8.2808   -0.3960    0.0000 H   0  0  0  0  0  0  0  0  0  0  0  0
    6.1453   -2.4767    0.0000 H   0  0  0  0  0  0  0  0  0  0  0  0
    5.4377   -1.2257    0.0000 H   0  0  0  0  0  0  0  0  0  0  0  0
    5.4377   -6.1959    0.0000 H   0  0  0  0  0  0  0  0  0  0  0  0
    4.7259   -7.4552    0.0000 H   0  0  0  0  0  0  0  0  0  0  0  0
  2  1  1  0  0  0  0
  3  2  1  0  0  0  0
  4  1  1  0  0  0  0
  5 16  1  6  0  0  0
  6  1  1  0  0  0  0
  7  8  1  0  0  0  0
  8  6  2  0  0  0  0
  9  3  1  0  0  0  0
 10  2  1  0  0  0  0
  7 11  1  1  0  0  0
 12 11  1  0  0  0  0
 13  5  1  0  0  0  0
 14  4  1  0  0  0  0
 15 12  1  0  0  0  0
 16 20  1  0  0  0  0
 17 35  1  0  0  0  0
 18 40  1  0  0  0  0
 19 13  1  0  0  0  0
 20 14  1  0  0  0  0
 21 24  2  0  0  0  0
 22  5  1  0  0  0  0
 23 22  2  0  0  0  0
 24 44  1  0  0  0  0
 18 25  1  6  0  0  0
 26 10  1  0  0  0  0
 27 25  1  0  0  0  0
 28 10  2  0  0  0  0
 29  4  2  0  0  0  0
 30 28  1  0  0  0  0
 31 15  1  0  0  0  0
 32 15  2  0  0  0  0
 33 23  1  0  0  0  0
 34 20  1  0  0  0  0
 35 34  1  0  0  0  0
 36 12  2  0  0  0  0
 37 38  2  0  0  0  0
 38 32  1  0  0  0  0
 39 31  2  0  0  0  0
 40 41  1  0  0  0  0
 41 30  2  0  0  0  0
  2 42  1  6  0  0  0
 43 27  2  0  0  0  0
 44 35  1  0  0  0  0
 45 19  1  0  0  0  0
 46  8  1  0  0  0  0
 47 39  1  0  0  0  0
 48 38  1  0  0  0  0
 49 21  1  0  0  0  0
 50 27  1  0  0  0  0
 33 51  1  1  0  0  0
 40 52  1  6  0  0  0
 53 45  1  0  0  0  0
 45 54  1  1  0  0  0
 55 48  1  0  0  0  0
 56 47  1  0  0  0  0
 57 53  1  0  0  0  0
 19 58  1  1  0  0  0
 20 59  1  6  0  0  0
 35 60  1  6  0  0  0
  1 61  1  1  0  0  0
  3 62  1  6  0  0  0
  7  3  1  0  0  0  0
 26  9  1  0  0  0  0
  5 17  1  1  0  0  0
 39 37  1  0  0  0  0
 21 18  1  0  0  0  0
 19 33  1  0  0  0  0
M  END
>  <IDNUMBER>
F6170-0202

>  <Chemical_Name>
(1'R,2S,4'S,5S,6R,8'R,10'E,12'S,13'S,14'E,16'E,20'R,21'R,24'S)-12'-(acetyloxy)-6-[(2S)-butan-2-yl]-24'-hydroxy-5,11',13',22'-tetramethyl-2'-oxo-5,6-dihydro-3',7',19'-trioxaspiro[pyran-2,6'-tetracyclo[15.6.1.1?,?.0??,??]pentacosane]-10',14',16',22'-tetraen-21'-yl 3,5-dimethoxybenzoate

>  <PriceCoeff>
7.00

>  <MW>
790.95

>  <Description>
solid

>  <FSP3>
0.58

>  <clogP>
7.98

>  <TPSA>
145.28

>  <Acceptor>
12

>  <Donor>
1

>  <RotBonds>
9

>  <HAC>
57

$$$$
F6170-0205
  Mrv2219 10102508112D          

 55 60  0  0  0  0            999 V2000
    5.4377   -5.3745    0.0000 C   0  0  2  0  0  0  0  0  0  0  0  0
    4.7259   -5.7915    0.0000 C   0  0  1  0  0  0  0  0  0  0  0  0
    4.7259   -6.6213    0.0000 C   0  0  1  0  0  0  0  0  0  0  0  0
    5.4377   -4.5532    0.0000 C   0  0  0  0  0  0  0  0  0  0  0  0
    6.8656   -2.0513    0.0000 C   0  0  2  0  0  0  0  0  0  0  0  0
    6.1453   -5.7915    0.0000 C   0  0  0  0  0  0  0  0  0  0  0  0
    5.4377   -7.0382    0.0000 C   0  0  1  0  0  0  0  0  0  0  0  0
    6.1453   -6.6213    0.0000 C   0  0  0  0  0  0  0  0  0  0  0  0
    3.3022   -6.6213    0.0000 O   0  0  0  0  0  0  0  0  0  0  0  0
    4.0182   -5.3745    0.0000 C   0  0  0  0  0  0  0  0  0  0  0  0
    5.4377   -7.8638    0.0000 O   0  0  0  0  0  0  0  0  0  0  0  0
    6.8656   -1.2173    0.0000 O   0  0  0  0  0  0  0  0  0  0  0  0
    6.1453   -4.1320    0.0000 O   0  0  0  0  0  0  0  0  0  0  0  0
    4.7175   -8.2766    0.0000 C   0  0  0  0  0  0  0  0  0  0  0  0
    6.8656   -2.8853    0.0000 C   0  0  0  0  0  0  0  0  0  0  0  0
    6.1453   -1.6427    0.0000 O   0  0  0  0  0  0  0  0  0  0  0  0
    7.5732   -0.8087    0.0000 C   0  0  1  0  0  0  0  0  0  0  0  0
    6.1453   -3.3022    0.0000 C   0  0  2  0  0  0  0  0  0  0  0  0
    7.5732   -2.4683    0.0000 C   0  0  0  0  0  0  0  0  0  0  0  0
    3.3022   -1.6427    0.0000 C   0  0  0  0  0  0  0  0  0  0  0  0
    8.2808   -2.0513    0.0000 C   0  0  0  0  0  0  0  0  0  0  0  0
    4.0182   -2.0513    0.0000 C   0  0  0  0  0  0  0  0  0  0  0  0
    3.3022   -5.7915    0.0000 C   0  0  0  0  0  0  0  0  0  0  0  0
    2.5904   -2.0513    0.0000 C   0  0  2  0  0  0  0  0  0  0  0  0
    4.0182   -4.5532    0.0000 C   0  0  0  0  0  0  0  0  0  0  0  0
    4.8312   -4.1446    0.0000 O   0  0  0  0  0  0  0  0  0  0  0  0
    3.3022   -4.1320    0.0000 C   0  0  0  0  0  0  0  0  0  0  0  0
    8.2808   -1.2173    0.0000 C   0  0  2  0  0  0  0  0  0  0  0  0
    5.4377   -2.8853    0.0000 C   0  0  0  0  0  0  0  0  0  0  0  0
    5.4377   -2.0513    0.0000 C   0  0  1  0  0  0  0  0  0  0  0  0
    4.0056   -7.8638    0.0000 O   0  0  0  0  0  0  0  0  0  0  0  0
    4.7175   -9.1022    0.0000 C   0  0  0  0  0  0  0  0  0  0  0  0
    3.3022   -3.3022    0.0000 C   0  0  0  0  0  0  0  0  0  0  0  0
    4.7259   -4.9702    0.0000 O   0  0  0  0  0  0  0  0  0  0  0  0
    4.7175  -10.7448    0.0000 N   0  0  0  0  0  0  0  0  0  0  0  0
    2.5904   -2.8853    0.0000 C   0  0  2  0  0  0  0  0  0  0  0  0
    4.7259   -1.6427    0.0000 C   0  0  0  0  0  0  0  0  0  0  0  0
    7.5732    0.0253    0.0000 C   0  0  2  0  0  0  0  0  0  0  0  0
    1.8744   -1.6427    0.0000 O   0  0  0  0  0  0  0  0  0  0  0  0
    6.8656   -7.0382    0.0000 C   0  0  0  0  0  0  0  0  0  0  0  0
    3.3022   -0.8087    0.0000 C   0  0  0  0  0  0  0  0  0  0  0  0
    3.9972  -10.3362    0.0000 C   0  0  0  0  0  0  0  0  0  0  0  0
    5.4335  -10.3278    0.0000 C   0  0  0  0  0  0  0  0  0  0  0  0
    3.9972   -9.5065    0.0000 C   0  0  0  0  0  0  0  0  0  0  0  0
    5.4335   -9.5065    0.0000 C   0  0  0  0  0  0  0  0  0  0  0  0
    9.0011   -0.8087    0.0000 C   0  0  0  0  0  0  0  0  0  0  0  0
    1.8744   -3.2980    0.0000 C   0  0  0  0  0  0  0  0  0  0  0  0
    8.2808    0.4296    0.0000 C   0  0  0  0  0  0  0  0  0  0  0  0
    6.8656    0.4296    0.0000 C   0  0  0  0  0  0  0  0  0  0  0  0
    9.0011    0.0253    0.0000 C   0  0  0  0  0  0  0  0  0  0  0  0
    5.4377   -6.1959    0.0000 H   0  0  0  0  0  0  0  0  0  0  0  0
    4.7259   -7.4552    0.0000 H   0  0  0  0  0  0  0  0  0  0  0  0
    8.2808   -0.3960    0.0000 H   0  0  0  0  0  0  0  0  0  0  0  0
    6.1453   -2.4767    0.0000 H   0  0  0  0  0  0  0  0  0  0  0  0
    5.4377   -1.2257    0.0000 H   0  0  0  0  0  0  0  0  0  0  0  0
  2  1  1  0  0  0  0
  3  2  1  0  0  0  0
  4  1  1  0  0  0  0
  5 15  1  6  0  0  0
  6  1  1  0  0  0  0
  7  8  1  0  0  0  0
  8  6  2  0  0  0  0
  9  3  1  0  0  0  0
 10  2  1  0  0  0  0
  7 11  1  1  0  0  0
 12  5  1  0  0  0  0
 13  4  1  0  0  0  0
 14 11  1  0  0  0  0
 15 18  1  0  0  0  0
 16 30  1  0  0  0  0
 17 12  1  0  0  0  0
 18 13  1  0  0  0  0
 19  5  1  0  0  0  0
 20 22  2  0  0  0  0
 21 19  2  0  0  0  0
 22 37  1  0  0  0  0
 23 10  1  0  0  0  0
 24 36  1  0  0  0  0
 25 10  2  0  0  0  0
 26  4  2  0  0  0  0
 27 25  1  0  0  0  0
 28 21  1  0  0  0  0
 29 18  1  0  0  0  0
 30 29  1  0  0  0  0
 31 14  2  0  0  0  0
 32 14  1  0  0  0  0
 33 27  2  0  0  0  0
  2 34  1  6  0  0  0
 35 43  1  0  0  0  0
 36 33  1  0  0  0  0
 37 30  1  0  0  0  0
 38 17  1  0  0  0  0
 24 39  1  6  0  0  0
 40  8  1  0  0  0  0
 41 20  1  0  0  0  0
 42 44  1  0  0  0  0
 43 45  2  0  0  0  0
 44 32  2  0  0  0  0
 45 32  1  0  0  0  0
 28 46  1  1  0  0  0
 36 47  1  6  0  0  0
 48 38  1  0  0  0  0
 38 49  1  1  0  0  0
 50 48  1  0  0  0  0
  1 51  1  1  0  0  0
  3 52  1  6  0  0  0
 17 53  1  1  0  0  0
 18 54  1  6  0  0  0
 30 55  1  6  0  0  0
  7  3  1  0  0  0  0
 23  9  1  0  0  0  0
  5 16  1  1  0  0  0
 20 24  1  0  0  0  0
 42 35  2  0  0  0  0
 28 17  1  0  0  0  0
M  END
>  <IDNUMBER>
F6170-0205

>  <Chemical_Name>
(1'R,2S,4'S,5S,6R,8'R,10'E,12'S,13'S,14'E,16'E,20'R,21'R,24'S)-6-[(2S)-butan-2-yl]-12',24'-dihydroxy-5,11',13',22'-tetramethyl-2'-oxo-5,6-dihydro-3',7',19'-trioxaspiro[pyran-2,6'-tetracyclo[15.6.1.1?,?.0??,??]pentacosane]-10',14',16',22'-tetraen-21'-yl pyridine-4-carboxylate

>  <PriceCoeff>
7.00

>  <MW>
689.85

>  <Description>
solid

>  <FSP3>
0.58

>  <clogP>
5.46

>  <TPSA>
133.64

>  <Acceptor>
10

>  <Donor>
3

>  <RotBonds>
5

>  <HAC>
50

$$$$
F6170-0206
  Mrv2219 10102508112D          

 64 70  0  0  0  0            999 V2000
    5.4297   -5.3666    0.0000 C   0  0  2  0  0  0  0  0  0  0  0  0
    4.7189   -5.7830    0.0000 C   0  0  1  0  0  0  0  0  0  0  0  0
    4.7189   -6.6115    0.0000 C   0  0  1  0  0  0  0  0  0  0  0  0
    5.4297   -4.5465    0.0000 C   0  0  0  0  0  0  0  0  0  0  0  0
    6.8554   -2.0482    0.0000 C   0  0  2  0  0  0  0  0  0  0  0  0
    6.1363   -5.7830    0.0000 C   0  0  0  0  0  0  0  0  0  0  0  0
    5.4297   -7.0278    0.0000 C   0  0  1  0  0  0  0  0  0  0  0  0
    6.1363   -6.6115    0.0000 C   0  0  0  0  0  0  0  0  0  0  0  0
    3.2974   -6.6115    0.0000 O   0  0  0  0  0  0  0  0  0  0  0  0
    4.0123   -5.3666    0.0000 C   0  0  0  0  0  0  0  0  0  0  0  0
    5.4297   -7.8522    0.0000 O   0  0  0  0  0  0  0  0  0  0  0  0
    6.8554   -1.2155    0.0000 O   0  0  0  0  0  0  0  0  0  0  0  0
    1.8716   -1.6403    0.0000 O   0  0  0  0  0  0  0  0  0  0  0  0
    6.1363   -4.1259    0.0000 O   0  0  0  0  0  0  0  0  0  0  0  0
    1.8674   -0.8075    0.0000 C   0  0  0  0  0  0  0  0  0  0  0  0
    4.7105   -8.2643    0.0000 C   0  0  0  0  0  0  0  0  0  0  0  0
    2.5865   -2.0482    0.0000 C   0  0  2  0  0  0  0  0  0  0  0  0
    6.8554   -2.8810    0.0000 C   0  0  0  0  0  0  0  0  0  0  0  0
    6.1363   -1.6403    0.0000 O   0  0  0  0  0  0  0  0  0  0  0  0
    7.5620   -0.8075    0.0000 C   0  0  1  0  0  0  0  0  0  0  0  0
    6.1363   -3.2974    0.0000 C   0  0  2  0  0  0  0  0  0  0  0  0
    3.2974   -1.6403    0.0000 C   0  0  0  0  0  0  0  0  0  0  0  0
    7.5620   -2.4646    0.0000 C   0  0  0  0  0  0  0  0  0  0  0  0
    8.2686   -2.0482    0.0000 C   0  0  0  0  0  0  0  0  0  0  0  0
    4.0123   -2.0482    0.0000 C   0  0  0  0  0  0  0  0  0  0  0  0
    3.2974   -5.7830    0.0000 C   0  0  0  0  0  0  0  0  0  0  0  0
    1.1482   -0.3911    0.0000 C   0  0  0  0  0  0  0  0  0  0  0  0
    4.0123   -4.5465    0.0000 C   0  0  0  0  0  0  0  0  0  0  0  0
    4.8241   -4.1385    0.0000 O   0  0  0  0  0  0  0  0  0  0  0  0
    3.2974   -4.1259    0.0000 C   0  0  0  0  0  0  0  0  0  0  0  0
    8.2686   -1.2155    0.0000 C   0  0  2  0  0  0  0  0  0  0  0  0
    5.4297   -2.8810    0.0000 C   0  0  0  0  0  0  0  0  0  0  0  0
    5.4297   -2.0482    0.0000 C   0  0  1  0  0  0  0  0  0  0  0  0
    3.9997   -7.8522    0.0000 O   0  0  0  0  0  0  0  0  0  0  0  0
    2.5908   -0.3828    0.0000 O   0  0  0  0  0  0  0  0  0  0  0  0
    4.7105   -9.0887    0.0000 C   0  0  0  0  0  0  0  0  0  0  0  0
    2.5865   -2.8810    0.0000 C   0  0  2  0  0  0  0  0  0  0  0  0
    3.2974   -3.2974    0.0000 C   0  0  0  0  0  0  0  0  0  0  0  0
    4.7189   -4.9628    0.0000 O   0  0  0  0  0  0  0  0  0  0  0  0
    4.7105  -10.7290    0.0000 N   0  0  0  0  0  0  0  0  0  0  0  0
    1.1524    0.4500    0.0000 C   0  0  0  0  0  0  0  0  0  0  0  0
    0.4332   -0.8075    0.0000 C   0  0  0  0  0  0  0  0  0  0  0  0
    4.7189   -1.6403    0.0000 C   0  0  0  0  0  0  0  0  0  0  0  0
    7.5620    0.0252    0.0000 C   0  0  2  0  0  0  0  0  0  0  0  0
   -0.2902    0.4416    0.0000 C   0  0  0  0  0  0  0  0  0  0  0  0
   -0.2860   -0.3954    0.0000 C   0  0  0  0  0  0  0  0  0  0  0  0
    0.4290    0.8580    0.0000 C   0  0  0  0  0  0  0  0  0  0  0  0
   -1.0178    0.8580    0.0000 F   0  0  0  0  0  0  0  0  0  0  0  0
    6.8554   -7.0278    0.0000 C   0  0  0  0  0  0  0  0  0  0  0  0
    3.2974   -0.8075    0.0000 C   0  0  0  0  0  0  0  0  0  0  0  0
    5.4254  -10.3126    0.0000 C   0  0  0  0  0  0  0  0  0  0  0  0
    3.9913  -10.3210    0.0000 C   0  0  0  0  0  0  0  0  0  0  0  0
    5.4254   -9.4925    0.0000 C   0  0  0  0  0  0  0  0  0  0  0  0
    3.9913   -9.4925    0.0000 C   0  0  0  0  0  0  0  0  0  0  0  0
    8.9878   -0.8075    0.0000 C   0  0  0  0  0  0  0  0  0  0  0  0
    1.8716   -3.2931    0.0000 C   0  0  0  0  0  0  0  0  0  0  0  0
    8.2686    0.4290    0.0000 C   0  0  0  0  0  0  0  0  0  0  0  0
    6.8554    0.4290    0.0000 C   0  0  0  0  0  0  0  0  0  0  0  0
    8.9878    0.0252    0.0000 C   0  0  0  0  0  0  0  0  0  0  0  0
    5.4297   -1.2239    0.0000 H   0  0  0  0  0  0  0  0  0  0  0  0
    5.4297   -6.1867    0.0000 H   0  0  0  0  0  0  0  0  0  0  0  0
    4.7189   -7.4442    0.0000 H   0  0  0  0  0  0  0  0  0  0  0  0
    8.2686   -0.3954    0.0000 H   0  0  0  0  0  0  0  0  0  0  0  0
    6.1363   -2.4730    0.0000 H   0  0  0  0  0  0  0  0  0  0  0  0
  2  1  1  0  0  0  0
  3  2  1  0  0  0  0
  4  1  1  0  0  0  0
  5 18  1  6  0  0  0
  6  1  1  0  0  0  0
  7  8  1  0  0  0  0
  8  6  2  0  0  0  0
  9  3  1  0  0  0  0
 10  2  1  0  0  0  0
  7 11  1  1  0  0  0
 12  5  1  0  0  0  0
 17 13  1  6  0  0  0
 14  4  1  0  0  0  0
 15 13  1  0  0  0  0
 16 11  1  0  0  0  0
 17 37  1  0  0  0  0
 18 21  1  0  0  0  0
 19 33  1  0  0  0  0
 20 12  1  0  0  0  0
 21 14  1  0  0  0  0
 22 25  2  0  0  0  0
 23  5  1  0  0  0  0
 24 23  2  0  0  0  0
 25 43  1  0  0  0  0
 26 10  1  0  0  0  0
 27 15  1  0  0  0  0
 28 10  2  0  0  0  0
 29  4  2  0  0  0  0
 30 28  1  0  0  0  0
 31 24  1  0  0  0  0
 32 21  1  0  0  0  0
 33 32  1  0  0  0  0
 34 16  2  0  0  0  0
 35 15  2  0  0  0  0
 36 16  1  0  0  0  0
 37 38  1  0  0  0  0
 38 30  2  0  0  0  0
  2 39  1  6  0  0  0
 40 52  2  0  0  0  0
 41 27  2  0  0  0  0
 42 27  1  0  0  0  0
 43 33  1  0  0  0  0
 44 20  1  0  0  0  0
 45 46  1  0  0  0  0
 46 42  2  0  0  0  0
 47 41  1  0  0  0  0
 48 45  1  0  0  0  0
 49  8  1  0  0  0  0
 50 22  1  0  0  0  0
 51 53  2  0  0  0  0
 52 54  1  0  0  0  0
 53 36  1  0  0  0  0
 54 36  2  0  0  0  0
 31 55  1  1  0  0  0
 37 56  1  6  0  0  0
 57 44  1  0  0  0  0
 44 58  1  1  0  0  0
 59 57  1  0  0  0  0
 33 60  1  6  0  0  0
  1 61  1  1  0  0  0
  3 62  1  6  0  0  0
 20 63  1  1  0  0  0
 21 64  1  6  0  0  0
  7  3  1  0  0  0  0
 26  9  1  0  0  0  0
  5 19  1  1  0  0  0
 51 40  1  0  0  0  0
 22 17  1  0  0  0  0
 20 31  1  0  0  0  0
 47 45  2  0  0  0  0
M  END
>  <IDNUMBER>
F6170-0206

>  <Chemical_Name>
(1'R,2S,4'S,5S,6R,8'R,10'E,12'S,13'S,14'E,16'E,20'R,21'R,24'S)-6-[(2S)-butan-2-yl]-12'-(4-fluorobenzoyloxy)-24'-hydroxy-5,11',13',22'-tetramethyl-2'-oxo-5,6-dihydro-3',7',19'-trioxaspiro[pyran-2,6'-tetracyclo[15.6.1.1?,?.0??,??]pentacosane]-10',14',16',22'-tetraen-21'-yl pyridine-4-carboxylate

>  <PriceCoeff>
7.00

>  <MW>
811.94

>  <Description>
solid

>  <FSP3>
0.49

>  <clogP>
8.48

>  <TPSA>
139.71

>  <Acceptor>
11

>  <Donor>
2

>  <RotBonds>
8

>  <HAC>
59

$$$$
F6170-0207
  Mrv2219 10102508112D          

 63 69  0  0  0  0            999 V2000
    6.0526   -8.0855    0.0000 C   0  0  2  0  0  0  0  0  0  0  0  0
    5.3329   -8.5022    0.0000 C   0  0  1  0  0  0  0  0  0  0  0  0
    5.3329   -9.3314    0.0000 C   0  0  1  0  0  0  0  0  0  0  0  0
    6.0526   -7.2648    0.0000 C   0  0  0  0  0  0  0  0  0  0  0  0
    7.4752   -4.7646    0.0000 C   0  0  2  0  0  0  0  0  0  0  0  0
    6.7597   -8.5022    0.0000 C   0  0  0  0  0  0  0  0  0  0  0  0
    6.0526   -9.7481    0.0000 C   0  0  1  0  0  0  0  0  0  0  0  0
    6.7597   -9.3314    0.0000 C   0  0  0  0  0  0  0  0  0  0  0  0
    3.9186   -9.3314    0.0000 O   0  0  0  0  0  0  0  0  0  0  0  0
    4.6257   -8.0855    0.0000 C   0  0  0  0  0  0  0  0  0  0  0  0
    6.0526  -10.5731    0.0000 O   0  0  0  0  0  0  0  0  0  0  0  0
    7.4752   -3.9313    0.0000 O   0  0  0  0  0  0  0  0  0  0  0  0
    2.4875   -4.3563    0.0000 O   0  0  0  0  0  0  0  0  0  0  0  0
    6.7597   -6.8439    0.0000 O   0  0  0  0  0  0  0  0  0  0  0  0
    5.3286  -10.9855    0.0000 C   0  0  0  0  0  0  0  0  0  0  0  0
    2.4791   -3.5229    0.0000 C   0  0  0  0  0  0  0  0  0  0  0  0
    3.1989   -4.7646    0.0000 C   0  0  2  0  0  0  0  0  0  0  0  0
    7.4752   -5.5980    0.0000 C   0  0  0  0  0  0  0  0  0  0  0  0
    6.7597   -4.3563    0.0000 O   0  0  0  0  0  0  0  0  0  0  0  0
    8.1866   -3.5229    0.0000 C   0  0  1  0  0  0  0  0  0  0  0  0
    6.7597   -6.0147    0.0000 C   0  0  2  0  0  0  0  0  0  0  0  0
    3.9186   -4.3563    0.0000 C   0  0  0  0  0  0  0  0  0  0  0  0
    8.1866   -5.1813    0.0000 C   0  0  0  0  0  0  0  0  0  0  0  0
    8.8937   -4.7646    0.0000 C   0  0  0  0  0  0  0  0  0  0  0  0
    4.6257   -4.7646    0.0000 C   0  0  0  0  0  0  0  0  0  0  0  0
    3.9186   -8.5022    0.0000 C   0  0  0  0  0  0  0  0  0  0  0  0
    4.6257   -7.2648    0.0000 C   0  0  0  0  0  0  0  0  0  0  0  0
    5.4423   -6.8565    0.0000 O   0  0  0  0  0  0  0  0  0  0  0  0
    3.9186   -6.8439    0.0000 C   0  0  0  0  0  0  0  0  0  0  0  0
    8.8937   -3.9313    0.0000 C   0  0  2  0  0  0  0  0  0  0  0  0
    6.0526   -5.5980    0.0000 C   0  0  0  0  0  0  0  0  0  0  0  0
    6.0526   -4.7646    0.0000 C   0  0  1  0  0  0  0  0  0  0  0  0
    4.6131  -10.5731    0.0000 O   0  0  0  0  0  0  0  0  0  0  0  0
    3.2073   -3.0979    0.0000 O   0  0  0  0  0  0  0  0  0  0  0  0
    1.7594   -3.1063    0.0000 C   0  0  0  0  0  0  0  0  0  0  0  0
    5.3286  -11.8105    0.0000 C   0  0  0  0  0  0  0  0  0  0  0  0
    3.1989   -5.5980    0.0000 C   0  0  2  0  0  0  0  0  0  0  0  0
    3.9186   -6.0147    0.0000 C   0  0  0  0  0  0  0  0  0  0  0  0
    5.3329   -7.6815    0.0000 O   0  0  0  0  0  0  0  0  0  0  0  0
    5.3286  -13.4520    0.0000 N   0  0  0  0  0  0  0  0  0  0  0  0
    0.3199   -2.2729    0.0000 N   0  0  0  0  0  0  0  0  0  0  0  0
    5.3329   -4.3563    0.0000 C   0  0  0  0  0  0  0  0  0  0  0  0
    8.1866   -2.6896    0.0000 C   0  0  2  0  0  0  0  0  0  0  0  0
    7.4752   -9.7481    0.0000 C   0  0  0  0  0  0  0  0  0  0  0  0
    3.9186   -3.5229    0.0000 C   0  0  0  0  0  0  0  0  0  0  0  0
    4.6131  -13.0437    0.0000 C   0  0  0  0  0  0  0  0  0  0  0  0
    1.0397   -1.8562    0.0000 C   0  0  0  0  0  0  0  0  0  0  0  0
    6.0400  -13.0353    0.0000 C   0  0  0  0  0  0  0  0  0  0  0  0
    0.3283   -3.1105    0.0000 C   0  0  0  0  0  0  0  0  0  0  0  0
    6.0400  -12.2146    0.0000 C   0  0  0  0  0  0  0  0  0  0  0  0
    4.6131  -12.2146    0.0000 C   0  0  0  0  0  0  0  0  0  0  0  0
    1.7678   -2.2645    0.0000 C   0  0  0  0  0  0  0  0  0  0  0  0
    1.0480   -3.5229    0.0000 C   0  0  0  0  0  0  0  0  0  0  0  0
    9.6092   -3.5229    0.0000 C   0  0  0  0  0  0  0  0  0  0  0  0
    2.4875   -6.0105    0.0000 C   0  0  0  0  0  0  0  0  0  0  0  0
    8.8937   -2.2855    0.0000 C   0  0  0  0  0  0  0  0  0  0  0  0
    7.4752   -2.2855    0.0000 C   0  0  0  0  0  0  0  0  0  0  0  0
    9.6092   -2.6896    0.0000 C   0  0  0  0  0  0  0  0  0  0  0  0
    6.7597   -5.1897    0.0000 H   0  0  0  0  0  0  0  0  0  0  0  0
    6.0526   -3.9396    0.0000 H   0  0  0  0  0  0  0  0  0  0  0  0
    6.0526   -8.9063    0.0000 H   0  0  0  0  0  0  0  0  0  0  0  0
    5.3329  -10.1648    0.0000 H   0  0  0  0  0  0  0  0  0  0  0  0
    8.8937   -3.1105    0.0000 H   0  0  0  0  0  0  0  0  0  0  0  0
  2  1  1  0  0  0  0
  3  2  1  0  0  0  0
  4  1  1  0  0  0  0
  5 18  1  6  0  0  0
  6  1  1  0  0  0  0
  7  8  1  0  0  0  0
  8  6  2  0  0  0  0
  9  3  1  0  0  0  0
 10  2  1  0  0  0  0
  7 11  1  1  0  0  0
 12  5  1  0  0  0  0
 17 13  1  6  0  0  0
 14  4  1  0  0  0  0
 15 11  1  0  0  0  0
 16 13  1  0  0  0  0
 17 37  1  0  0  0  0
 18 21  1  0  0  0  0
 19 32  1  0  0  0  0
 20 12  1  0  0  0  0
 21 14  1  0  0  0  0
 22 25  2  0  0  0  0
 23  5  1  0  0  0  0
 24 23  2  0  0  0  0
 25 42  1  0  0  0  0
 26 10  1  0  0  0  0
 27 10  2  0  0  0  0
 28  4  2  0  0  0  0
 29 27  1  0  0  0  0
 30 24  1  0  0  0  0
 31 21  1  0  0  0  0
 32 31  1  0  0  0  0
 33 15  2  0  0  0  0
 34 16  2  0  0  0  0
 35 16  1  0  0  0  0
 36 15  1  0  0  0  0
 37 38  1  0  0  0  0
 38 29  2  0  0  0  0
  2 39  1  6  0  0  0
 40 46  2  0  0  0  0
 41 49  1  0  0  0  0
 42 32  1  0  0  0  0
 43 20  1  0  0  0  0
 44  8  1  0  0  0  0
 45 22  1  0  0  0  0
 46 51  1  0  0  0  0
 47 52  1  0  0  0  0
 48 50  2  0  0  0  0
 49 53  2  0  0  0  0
 50 36  1  0  0  0  0
 51 36  2  0  0  0  0
 52 35  2  0  0  0  0
 53 35  1  0  0  0  0
 30 54  1  1  0  0  0
 37 55  1  6  0  0  0
 56 43  1  0  0  0  0
 43 57  1  1  0  0  0
 58 56  1  0  0  0  0
 21 59  1  6  0  0  0
 32 60  1  6  0  0  0
  1 61  1  1  0  0  0
  3 62  1  6  0  0  0
 20 63  1  1  0  0  0
  7  3  1  0  0  0  0
 26  9  1  0  0  0  0
  5 19  1  1  0  0  0
 48 40  1  0  0  0  0
 22 17  1  0  0  0  0
 20 30  1  0  0  0  0
 47 41  2  0  0  0  0
M  END
>  <IDNUMBER>
F6170-0207

>  <Chemical_Name>
(1'R,2S,4'S,5S,6R,8'R,10'E,12'S,13'S,14'E,16'E,20'R,21'R,24'S)-6-[(2S)-butan-2-yl]-24'-hydroxy-5,11',13',22'-tetramethyl-2'-oxo-21'-(pyridine-4-carbonyloxy)-5,6-dihydro-3',7',19'-trioxaspiro[pyran-2,6'-tetracyclo[15.6.1.1?,?.0??,??]pentacosane]-10',14',16',22'-tetraen-12'-yl pyridine-4-carboxylate

>  <PriceCoeff>
7.00

>  <MW>
794.94

>  <Description>
solid

>  <FSP3>
0.50

>  <clogP>
6.99

>  <TPSA>
152.60

>  <Acceptor>
12

>  <Donor>
3

>  <RotBonds>
8

>  <HAC>
58

$$$$
F6170-0208
  Mrv2219 10102508112D          

 57 62  0  0  0  0            999 V2000
    5.4228   -5.3598    0.0000 C   0  0  2  0  0  0  0  0  0  0  0  0
    4.7129   -5.7757    0.0000 C   0  0  1  0  0  0  0  0  0  0  0  0
    4.7129   -6.6031    0.0000 C   0  0  1  0  0  0  0  0  0  0  0  0
    5.4228   -4.5407    0.0000 C   0  0  0  0  0  0  0  0  0  0  0  0
    6.8468   -2.0457    0.0000 C   0  0  2  0  0  0  0  0  0  0  0  0
    6.1285   -5.7757    0.0000 C   0  0  0  0  0  0  0  0  0  0  0  0
    5.4228   -7.0190    0.0000 C   0  0  1  0  0  0  0  0  0  0  0  0
    6.1285   -6.6031    0.0000 C   0  0  0  0  0  0  0  0  0  0  0  0
    3.2932   -6.6031    0.0000 O   0  0  0  0  0  0  0  0  0  0  0  0
    4.0072   -5.3598    0.0000 C   0  0  0  0  0  0  0  0  0  0  0  0
    6.8468   -1.2140    0.0000 O   0  0  0  0  0  0  0  0  0  0  0  0
    6.1285   -4.1207    0.0000 O   0  0  0  0  0  0  0  0  0  0  0  0
    4.7046   -8.2582    0.0000 C   0  0  0  0  0  0  0  0  0  0  0  0
    6.8468   -2.8774    0.0000 C   0  0  0  0  0  0  0  0  0  0  0  0
    6.1285   -1.6382    0.0000 O   0  0  0  0  0  0  0  0  0  0  0  0
    7.5525   -0.8065    0.0000 C   0  0  1  0  0  0  0  0  0  0  0  0
    6.1285   -3.2932    0.0000 C   0  0  2  0  0  0  0  0  0  0  0  0
    5.4228   -7.8423    0.0000 O   0  0  0  0  0  0  0  0  0  0  0  0
    7.5525   -2.4615    0.0000 C   0  0  0  0  0  0  0  0  0  0  0  0
    3.2932   -1.6382    0.0000 C   0  0  0  0  0  0  0  0  0  0  0  0
    8.2582   -2.0457    0.0000 C   0  0  0  0  0  0  0  0  0  0  0  0
    4.0072   -2.0457    0.0000 C   0  0  0  0  0  0  0  0  0  0  0  0
    3.2932   -5.7757    0.0000 C   0  0  0  0  0  0  0  0  0  0  0  0
    2.5833   -2.0457    0.0000 C   0  0  2  0  0  0  0  0  0  0  0  0
    4.7046   -9.0898    0.0000 N   0  0  0  0  0  0  0  0  0  0  0  0
    4.0072   -4.5407    0.0000 C   0  0  0  0  0  0  0  0  0  0  0  0
    4.8180   -4.1333    0.0000 O   0  0  0  0  0  0  0  0  0  0  0  0
    3.2932   -4.1207    0.0000 C   0  0  0  0  0  0  0  0  0  0  0  0
    8.2582   -1.2140    0.0000 C   0  0  2  0  0  0  0  0  0  0  0  0
    5.4228   -2.8774    0.0000 C   0  0  0  0  0  0  0  0  0  0  0  0
    5.4228   -2.0457    0.0000 C   0  0  1  0  0  0  0  0  0  0  0  0
    3.9863   -7.8423    0.0000 O   0  0  0  0  0  0  0  0  0  0  0  0
    3.2932   -3.2932    0.0000 C   0  0  0  0  0  0  0  0  0  0  0  0
    4.7129   -4.9566    0.0000 O   0  0  0  0  0  0  0  0  0  0  0  0
    2.5833   -2.8774    0.0000 C   0  0  2  0  0  0  0  0  0  0  0  0
    4.7129   -1.6382    0.0000 C   0  0  0  0  0  0  0  0  0  0  0  0
    5.4228   -9.5057    0.0000 C   0  0  0  0  0  0  0  0  0  0  0  0
    7.5525    0.0252    0.0000 C   0  0  2  0  0  0  0  0  0  0  0  0
    6.8594  -10.3374    0.0000 C   0  0  0  0  0  0  0  0  0  0  0  0
    1.8692   -1.6382    0.0000 O   0  0  0  0  0  0  0  0  0  0  0  0
    7.5777  -10.7532    0.0000 Cl  0  0  0  0  0  0  0  0  0  0  0  0
    6.8468   -7.0190    0.0000 C   0  0  0  0  0  0  0  0  0  0  0  0
    6.1411   -9.0898    0.0000 C   0  0  0  0  0  0  0  0  0  0  0  0
    5.4228  -10.3374    0.0000 C   0  0  0  0  0  0  0  0  0  0  0  0
    6.1411  -10.7532    0.0000 C   0  0  0  0  0  0  0  0  0  0  0  0
    6.8594   -9.5015    0.0000 C   0  0  0  0  0  0  0  0  0  0  0  0
    3.2932   -0.8065    0.0000 C   0  0  0  0  0  0  0  0  0  0  0  0
    8.9764   -0.8065    0.0000 C   0  0  0  0  0  0  0  0  0  0  0  0
    1.8692   -3.2890    0.0000 C   0  0  0  0  0  0  0  0  0  0  0  0
    8.2582    0.4284    0.0000 C   0  0  0  0  0  0  0  0  0  0  0  0
    6.8468    0.4284    0.0000 C   0  0  0  0  0  0  0  0  0  0  0  0
    8.9764    0.0252    0.0000 C   0  0  0  0  0  0  0  0  0  0  0  0
    8.2582   -0.3949    0.0000 H   0  0  0  0  0  0  0  0  0  0  0  0
    6.1285   -2.4699    0.0000 H   0  0  0  0  0  0  0  0  0  0  0  0
    5.4228   -1.2223    0.0000 H   0  0  0  0  0  0  0  0  0  0  0  0
    5.4228   -6.1789    0.0000 H   0  0  0  0  0  0  0  0  0  0  0  0
    4.7129   -7.4348    0.0000 H   0  0  0  0  0  0  0  0  0  0  0  0
  2  1  1  0  0  0  0
  3  2  1  0  0  0  0
  4  1  1  0  0  0  0
  5 14  1  6  0  0  0
  6  1  1  0  0  0  0
  7  8  1  0  0  0  0
  8  6  2  0  0  0  0
  9  3  1  0  0  0  0
 10  2  1  0  0  0  0
 11  5  1  0  0  0  0
 12  4  1  0  0  0  0
 13 18  1  0  0  0  0
 14 17  1  0  0  0  0
 15 31  1  0  0  0  0
 16 11  1  0  0  0  0
 17 12  1  0  0  0  0
  7 18  1  1  0  0  0
 19  5  1  0  0  0  0
 20 22  2  0  0  0  0
 21 19  2  0  0  0  0
 22 36  1  0  0  0  0
 23 10  1  0  0  0  0
 24 35  1  0  0  0  0
 25 13  1  0  0  0  0
 26 10  2  0  0  0  0
 27  4  2  0  0  0  0
 28 26  1  0  0  0  0
 29 21  1  0  0  0  0
 30 17  1  0  0  0  0
 31 30  1  0  0  0  0
 32 13  2  0  0  0  0
 33 28  2  0  0  0  0
  2 34  1  6  0  0  0
 35 33  1  0  0  0  0
 36 31  1  0  0  0  0
 37 25  1  0  0  0  0
 38 16  1  0  0  0  0
 39 45  2  0  0  0  0
 24 40  1  6  0  0  0
 41 39  1  0  0  0  0
 42  8  1  0  0  0  0
 43 37  1  0  0  0  0
 44 37  2  0  0  0  0
 45 44  1  0  0  0  0
 46 43  2  0  0  0  0
 47 20  1  0  0  0  0
 29 48  1  1  0  0  0
 35 49  1  6  0  0  0
 50 38  1  0  0  0  0
 38 51  1  1  0  0  0
 52 50  1  0  0  0  0
 16 53  1  1  0  0  0
 17 54  1  6  0  0  0
 31 55  1  6  0  0  0
  1 56  1  1  0  0  0
  3 57  1  6  0  0  0
  7  3  1  0  0  0  0
 23  9  1  0  0  0  0
  5 15  1  1  0  0  0
 20 24  1  0  0  0  0
 29 16  1  0  0  0  0
 46 39  1  0  0  0  0
M  END
>  <IDNUMBER>
F6170-0208

>  <Chemical_Name>
(1'R,2S,4'S,5S,6R,8'R,10'E,12'S,13'S,14'E,16'E,20'R,21'R,24'S)-6-[(2S)-butan-2-yl]-12',24'-dihydroxy-5,11',13',22'-tetramethyl-2'-oxo-5,6-dihydro-3',7',19'-trioxaspiro[pyran-2,6'-tetracyclo[15.6.1.1?,?.0??,??]pentacosane]-10',14',16',22'-tetraen-21'-yl N-(4-chlorophenyl)carbamate

>  <PriceCoeff>
7.00

>  <MW>
738.32

>  <Description>
solid

>  <FSP3>
0.56

>  <clogP>
7.34

>  <TPSA>
132.78

>  <Acceptor>
9

>  <Donor>
3

>  <RotBonds>
5

>  <HAC>
52

$$$$
F6170-0209
  Mrv2219 10102508112D          

 60 65  0  0  0  0            999 V2000
    5.4175   -5.3546    0.0000 C   0  0  2  0  0  0  0  0  0  0  0  0
    4.7083   -5.7700    0.0000 C   0  0  1  0  0  0  0  0  0  0  0  0
    4.7083   -6.5966    0.0000 C   0  0  1  0  0  0  0  0  0  0  0  0
    5.4175   -4.5363    0.0000 C   0  0  0  0  0  0  0  0  0  0  0  0
    6.8401   -2.0437    0.0000 C   0  0  2  0  0  0  0  0  0  0  0  0
    6.1225   -5.7700    0.0000 C   0  0  0  0  0  0  0  0  0  0  0  0
    5.4175   -7.0121    0.0000 C   0  0  1  0  0  0  0  0  0  0  0  0
    6.1225   -6.5966    0.0000 C   0  0  0  0  0  0  0  0  0  0  0  0
    3.2900   -6.5966    0.0000 O   0  0  0  0  0  0  0  0  0  0  0  0
    4.0033   -5.3546    0.0000 C   0  0  0  0  0  0  0  0  0  0  0  0
    6.8401   -1.2128    0.0000 O   0  0  0  0  0  0  0  0  0  0  0  0
    7.5702  -10.7427    0.0000 C   0  0  0  0  0  0  0  0  0  0  0  0
    6.1225   -4.1166    0.0000 O   0  0  0  0  0  0  0  0  0  0  0  0
    4.6999   -8.2500    0.0000 C   0  0  0  0  0  0  0  0  0  0  0  0
    6.8401   -2.8745    0.0000 C   0  0  0  0  0  0  0  0  0  0  0  0
    6.1225   -1.6366    0.0000 O   0  0  0  0  0  0  0  0  0  0  0  0
    7.5450   -0.8057    0.0000 C   0  0  1  0  0  0  0  0  0  0  0  0
    6.1225   -3.2900    0.0000 C   0  0  2  0  0  0  0  0  0  0  0  0
    5.4175   -7.8346    0.0000 O   0  0  0  0  0  0  0  0  0  0  0  0
    7.5450   -2.4591    0.0000 C   0  0  0  0  0  0  0  0  0  0  0  0
    3.2900   -1.6366    0.0000 C   0  0  0  0  0  0  0  0  0  0  0  0
    8.2500   -2.0437    0.0000 C   0  0  0  0  0  0  0  0  0  0  0  0
    4.0033   -2.0437    0.0000 C   0  0  0  0  0  0  0  0  0  0  0  0
    3.2900   -5.7700    0.0000 C   0  0  0  0  0  0  0  0  0  0  0  0
    2.5807   -2.0437    0.0000 C   0  0  2  0  0  0  0  0  0  0  0  0
    4.6999   -9.0809    0.0000 N   0  0  0  0  0  0  0  0  0  0  0  0
    6.8527  -10.3272    0.0000 C   0  0  0  0  0  0  0  0  0  0  0  0
    4.0033   -4.5363    0.0000 C   0  0  0  0  0  0  0  0  0  0  0  0
    4.8132   -4.1292    0.0000 O   0  0  0  0  0  0  0  0  0  0  0  0
    3.2900   -4.1166    0.0000 C   0  0  0  0  0  0  0  0  0  0  0  0
    8.2500   -1.2128    0.0000 C   0  0  2  0  0  0  0  0  0  0  0  0
    5.4175   -2.8745    0.0000 C   0  0  0  0  0  0  0  0  0  0  0  0
    5.4175   -2.0437    0.0000 C   0  0  1  0  0  0  0  0  0  0  0  0
    3.9824   -7.8346    0.0000 O   0  0  0  0  0  0  0  0  0  0  0  0
    3.2900   -3.2900    0.0000 C   0  0  0  0  0  0  0  0  0  0  0  0
    4.7083   -4.9517    0.0000 O   0  0  0  0  0  0  0  0  0  0  0  0
    2.5807   -2.8745    0.0000 C   0  0  2  0  0  0  0  0  0  0  0  0
    7.5786  -11.5735    0.0000 F   0  0  0  0  0  0  0  0  0  0  0  0
    8.2962  -10.3230    0.0000 F   0  0  0  0  0  0  0  0  0  0  0  0
    8.2878  -11.1539    0.0000 F   0  0  0  0  0  0  0  0  0  0  0  0
    6.1351  -10.7427    0.0000 C   0  0  0  0  0  0  0  0  0  0  0  0
    6.8527   -9.4921    0.0000 C   0  0  0  0  0  0  0  0  0  0  0  0
    4.7083   -1.6366    0.0000 C   0  0  0  0  0  0  0  0  0  0  0  0
    5.4175   -9.4963    0.0000 C   0  0  0  0  0  0  0  0  0  0  0  0
    7.5450    0.0252    0.0000 C   0  0  2  0  0  0  0  0  0  0  0  0
    1.8674   -1.6366    0.0000 O   0  0  0  0  0  0  0  0  0  0  0  0
    5.4175  -10.3272    0.0000 C   0  0  0  0  0  0  0  0  0  0  0  0
    6.1351   -9.0809    0.0000 C   0  0  0  0  0  0  0  0  0  0  0  0
    6.8401   -7.0121    0.0000 C   0  0  0  0  0  0  0  0  0  0  0  0
    3.2900   -0.8057    0.0000 C   0  0  0  0  0  0  0  0  0  0  0  0
    8.9676   -0.8057    0.0000 C   0  0  0  0  0  0  0  0  0  0  0  0
    1.8674   -3.2857    0.0000 C   0  0  0  0  0  0  0  0  0  0  0  0
    8.2500    0.4280    0.0000 C   0  0  0  0  0  0  0  0  0  0  0  0
    6.8401    0.4280    0.0000 C   0  0  0  0  0  0  0  0  0  0  0  0
    8.9676    0.0252    0.0000 C   0  0  0  0  0  0  0  0  0  0  0  0
    5.4175   -6.1728    0.0000 H   0  0  0  0  0  0  0  0  0  0  0  0
    4.7083   -7.4275    0.0000 H   0  0  0  0  0  0  0  0  0  0  0  0
    8.2500   -0.3945    0.0000 H   0  0  0  0  0  0  0  0  0  0  0  0
    6.1225   -2.4674    0.0000 H   0  0  0  0  0  0  0  0  0  0  0  0
    5.4175   -1.2211    0.0000 H   0  0  0  0  0  0  0  0  0  0  0  0
  2  1  1  0  0  0  0
  3  2  1  0  0  0  0
  4  1  1  0  0  0  0
  5 15  1  6  0  0  0
  6  1  1  0  0  0  0
  7  8  1  0  0  0  0
  8  6  2  0  0  0  0
  9  3  1  0  0  0  0
 10  2  1  0  0  0  0
 11  5  1  0  0  0  0
 12 27  1  0  0  0  0
 13  4  1  0  0  0  0
 14 19  1  0  0  0  0
 15 18  1  0  0  0  0
 16 33  1  0  0  0  0
 17 11  1  0  0  0  0
 18 13  1  0  0  0  0
  7 19  1  1  0  0  0
 20  5  1  0  0  0  0
 21 23  2  0  0  0  0
 22 20  2  0  0  0  0
 23 43  1  0  0  0  0
 24 10  1  0  0  0  0
 25 37  1  0  0  0  0
 26 14  1  0  0  0  0
 27 42  1  0  0  0  0
 28 10  2  0  0  0  0
 29  4  2  0  0  0  0
 30 28  1  0  0  0  0
 31 22  1  0  0  0  0
 32 18  1  0  0  0  0
 33 32  1  0  0  0  0
 34 14  2  0  0  0  0
 35 30  2  0  0  0  0
  2 36  1  6  0  0  0
 37 35  1  0  0  0  0
 38 12  1  0  0  0  0
 39 12  1  0  0  0  0
 40 12  1  0  0  0  0
 41 47  1  0  0  0  0
 42 48  2  0  0  0  0
 43 33  1  0  0  0  0
 44 26  1  0  0  0  0
 45 17  1  0  0  0  0
 25 46  1  6  0  0  0
 47 44  2  0  0  0  0
 48 44  1  0  0  0  0
 49  8  1  0  0  0  0
 50 21  1  0  0  0  0
 31 51  1  1  0  0  0
 37 52  1  6  0  0  0
 53 45  1  0  0  0  0
 45 54  1  1  0  0  0
 55 53  1  0  0  0  0
  1 56  1  1  0  0  0
  3 57  1  6  0  0  0
 17 58  1  1  0  0  0
 18 59  1  6  0  0  0
 33 60  1  6  0  0  0
  7  3  1  0  0  0  0
 24  9  1  0  0  0  0
  5 16  1  1  0  0  0
 21 25  1  0  0  0  0
 17 31  1  0  0  0  0
 41 27  2  0  0  0  0
M  END
>  <IDNUMBER>
F6170-0209

>  <Chemical_Name>
(1'R,2S,4'S,5S,6R,8'R,10'E,12'S,13'S,14'E,16'E,20'R,21'R,24'S)-6-[(2S)-butan-2-yl]-12',24'-dihydroxy-5,11',13',22'-tetramethyl-2'-oxo-5,6-dihydro-3',7',19'-trioxaspiro[pyran-2,6'-tetracyclo[15.6.1.1?,?.0??,??]pentacosane]-10',14',16',22'-tetraen-21'-yl N-[4-(trifluoromethyl)phenyl]carbamate

>  <PriceCoeff>
7.00

>  <MW>
771.87

>  <Description>
solid

>  <FSP3>
0.57

>  <clogP>
7.67

>  <TPSA>
132.78

>  <Acceptor>
9

>  <Donor>
3

>  <RotBonds>
5

>  <HAC>
55

$$$$
F6170-0210
  Mrv2219 10102508112D          

 69 75  0  0  0  0            999 V2000
    6.0185   -5.9305    0.0000 C   0  0  2  0  0  0  0  0  0  0  0  0
    5.3014   -6.3414    0.0000 C   0  0  1  0  0  0  0  0  0  0  0  0
    5.3014   -7.1636    0.0000 C   0  0  1  0  0  0  0  0  0  0  0  0
    6.0185   -5.1084    0.0000 C   0  0  0  0  0  0  0  0  0  0  0  0
    7.4361   -2.6214    0.0000 C   0  0  2  0  0  0  0  0  0  0  0  0
    6.7231   -6.3414    0.0000 C   0  0  0  0  0  0  0  0  0  0  0  0
    6.0185   -7.5787    0.0000 C   0  0  1  0  0  0  0  0  0  0  0  0
    6.7231   -7.1636    0.0000 C   0  0  0  0  0  0  0  0  0  0  0  0
    3.8922   -7.1636    0.0000 O   0  0  0  0  0  0  0  0  0  0  0  0
    4.5967   -5.9305    0.0000 C   0  0  0  0  0  0  0  0  0  0  0  0
    7.4361   -1.7909    0.0000 O   0  0  0  0  0  0  0  0  0  0  0  0
    8.1701  -11.3115    0.0000 C   0  0  0  0  0  0  0  0  0  0  0  0
    2.4578   -2.2061    0.0000 O   0  0  0  0  0  0  0  0  0  0  0  0
    6.7231   -4.6848    0.0000 O   0  0  0  0  0  0  0  0  0  0  0  0
    5.2972   -8.8202    0.0000 C   0  0  0  0  0  0  0  0  0  0  0  0
    2.4578   -1.3757    0.0000 C   0  0  0  0  0  0  0  0  0  0  0  0
    3.1749   -2.6214    0.0000 C   0  0  2  0  0  0  0  0  0  0  0  0
    7.4361   -3.4475    0.0000 C   0  0  0  0  0  0  0  0  0  0  0  0
    6.7231   -2.2061    0.0000 O   0  0  0  0  0  0  0  0  0  0  0  0
    8.1449   -1.3757    0.0000 C   0  0  1  0  0  0  0  0  0  0  0  0
    6.7231   -3.8670    0.0000 C   0  0  2  0  0  0  0  0  0  0  0  0
    3.8922   -2.2061    0.0000 C   0  0  0  0  0  0  0  0  0  0  0  0
    6.0185   -8.4050    0.0000 O   0  0  0  0  0  0  0  0  0  0  0  0
    8.1449   -3.0365    0.0000 C   0  0  0  0  0  0  0  0  0  0  0  0
    8.8496   -2.6214    0.0000 C   0  0  0  0  0  0  0  0  0  0  0  0
    4.5967   -2.6214    0.0000 C   0  0  0  0  0  0  0  0  0  0  0  0
    3.8922   -6.3414    0.0000 C   0  0  0  0  0  0  0  0  0  0  0  0
    5.2972   -9.6505    0.0000 N   0  0  0  0  0  0  0  0  0  0  0  0
    7.4529  -10.8962    0.0000 C   0  0  0  0  0  0  0  0  0  0  0  0
    1.7406   -0.9605    0.0000 C   0  0  0  0  0  0  0  0  0  0  0  0
    4.5967   -5.1084    0.0000 C   0  0  0  0  0  0  0  0  0  0  0  0
    5.4104   -4.7057    0.0000 O   0  0  0  0  0  0  0  0  0  0  0  0
    3.8922   -4.6848    0.0000 C   0  0  0  0  0  0  0  0  0  0  0  0
    8.8496   -1.7909    0.0000 C   0  0  2  0  0  0  0  0  0  0  0  0
    6.0185   -3.4475    0.0000 C   0  0  0  0  0  0  0  0  0  0  0  0
    6.0185   -2.6214    0.0000 C   0  0  1  0  0  0  0  0  0  0  0  0
    4.5799   -8.4050    0.0000 O   0  0  0  0  0  0  0  0  0  0  0  0
    3.1833   -0.9605    0.0000 O   0  0  0  0  0  0  0  0  0  0  0  0
    3.1749   -3.4475    0.0000 C   0  0  2  0  0  0  0  0  0  0  0  0
    3.8922   -3.8670    0.0000 C   0  0  0  0  0  0  0  0  0  0  0  0
    5.3014   -5.5279    0.0000 O   0  0  0  0  0  0  0  0  0  0  0  0
    8.1701  -12.1419    0.0000 F   0  0  0  0  0  0  0  0  0  0  0  0
    8.8873  -10.8878    0.0000 F   0  0  0  0  0  0  0  0  0  0  0  0
    8.8873  -11.7183    0.0000 F   0  0  0  0  0  0  0  0  0  0  0  0
    7.4487  -10.0575    0.0000 C   0  0  0  0  0  0  0  0  0  0  0  0
    6.7315  -11.3115    0.0000 C   0  0  0  0  0  0  0  0  0  0  0  0
    1.7489   -0.1300    0.0000 C   0  0  0  0  0  0  0  0  0  0  0  0
    1.0318   -1.3757    0.0000 C   0  0  0  0  0  0  0  0  0  0  0  0
    5.3014   -2.2061    0.0000 C   0  0  0  0  0  0  0  0  0  0  0  0
    6.0185  -10.0658    0.0000 C   0  0  0  0  0  0  0  0  0  0  0  0
    8.1449   -0.5536    0.0000 C   0  0  2  0  0  0  0  0  0  0  0  0
    0.3062   -0.1300    0.0000 C   0  0  0  0  0  0  0  0  0  0  0  0
    6.0143  -10.8962    0.0000 C   0  0  0  0  0  0  0  0  0  0  0  0
    6.7315   -9.6505    0.0000 C   0  0  0  0  0  0  0  0  0  0  0  0
    0.3145   -0.9689    0.0000 C   0  0  0  0  0  0  0  0  0  0  0  0
    1.0234    0.2851    0.0000 C   0  0  0  0  0  0  0  0  0  0  0  0
   -0.4110    0.2851    0.0000 F   0  0  0  0  0  0  0  0  0  0  0  0
    7.4361   -7.5787    0.0000 C   0  0  0  0  0  0  0  0  0  0  0  0
    3.8922   -1.3757    0.0000 C   0  0  0  0  0  0  0  0  0  0  0  0
    9.5625   -1.3757    0.0000 C   0  0  0  0  0  0  0  0  0  0  0  0
    2.4578   -3.8544    0.0000 C   0  0  0  0  0  0  0  0  0  0  0  0
    8.8496   -0.1426    0.0000 C   0  0  0  0  0  0  0  0  0  0  0  0
    7.4361   -0.1426    0.0000 C   0  0  0  0  0  0  0  0  0  0  0  0
    9.5625   -0.5536    0.0000 C   0  0  0  0  0  0  0  0  0  0  0  0
    6.0185   -1.7909    0.0000 H   0  0  0  0  0  0  0  0  0  0  0  0
    6.0185   -6.7440    0.0000 H   0  0  0  0  0  0  0  0  0  0  0  0
    5.3014   -7.9939    0.0000 H   0  0  0  0  0  0  0  0  0  0  0  0
    8.8496   -0.9689    0.0000 H   0  0  0  0  0  0  0  0  0  0  0  0
    6.7231   -3.0449    0.0000 H   0  0  0  0  0  0  0  0  0  0  0  0
  2  1  1  0  0  0  0
  3  2  1  0  0  0  0
  4  1  1  0  0  0  0
  5 18  1  6  0  0  0
  6  1  1  0  0  0  0
  7  8  1  0  0  0  0
  8  6  2  0  0  0  0
  9  3  1  0  0  0  0
 10  2  1  0  0  0  0
 11  5  1  0  0  0  0
 12 29  1  0  0  0  0
 17 13  1  6  0  0  0
 14  4  1  0  0  0  0
 15 23  1  0  0  0  0
 16 13  1  0  0  0  0
 17 39  1  0  0  0  0
 18 21  1  0  0  0  0
 19 36  1  0  0  0  0
 20 11  1  0  0  0  0
 21 14  1  0  0  0  0
 22 26  2  0  0  0  0
  7 23  1  1  0  0  0
 24  5  1  0  0  0  0
 25 24  2  0  0  0  0
 26 49  1  0  0  0  0
 27 10  1  0  0  0  0
 28 15  1  0  0  0  0
 29 45  1  0  0  0  0
 30 16  1  0  0  0  0
 31 10  2  0  0  0  0
 32  4  2  0  0  0  0
 33 31  1  0  0  0  0
 34 25  1  0  0  0  0
 35 21  1  0  0  0  0
 36 35  1  0  0  0  0
 37 15  2  0  0  0  0
 38 16  2  0  0  0  0
 39 40  1  0  0  0  0
 40 33  2  0  0  0  0
  2 41  1  6  0  0  0
 42 12  1  0  0  0  0
 43 12  1  0  0  0  0
 44 12  1  0  0  0  0
 45 54  2  0  0  0  0
 46 53  1  0  0  0  0
 47 30  2  0  0  0  0
 48 30  1  0  0  0  0
 49 36  1  0  0  0  0
 50 28  1  0  0  0  0
 51 20  1  0  0  0  0
 52 55  1  0  0  0  0
 53 50  2  0  0  0  0
 54 50  1  0  0  0  0
 55 48  2  0  0  0  0
 56 47  1  0  0  0  0
 57 52  1  0  0  0  0
 58  8  1  0  0  0  0
 59 22  1  0  0  0  0
 34 60  1  1  0  0  0
 39 61  1  6  0  0  0
 62 51  1  0  0  0  0
 51 63  1  1  0  0  0
 64 62  1  0  0  0  0
 36 65  1  6  0  0  0
  1 66  1  1  0  0  0
  3 67  1  6  0  0  0
 20 68  1  1  0  0  0
 21 69  1  6  0  0  0
  7  3  1  0  0  0  0
 27  9  1  0  0  0  0
  5 19  1  1  0  0  0
 22 17  1  0  0  0  0
 34 20  1  0  0  0  0
 46 29  2  0  0  0  0
 56 52  2  0  0  0  0
M  END
>  <IDNUMBER>
F6170-0210

>  <Chemical_Name>
(1'R,2S,4'S,5S,6R,8'R,10'E,12'S,13'S,14'E,16'E,20'R,21'R,24'S)-6-[(2S)-butan-2-yl]-24'-hydroxy-5,11',13',22'-tetramethyl-2'-oxo-21'-({[4-(trifluoromethyl)phenyl]carbamoyl}oxy)-5,6-dihydro-3',7',19'-trioxaspiro[pyran-2,6'-tetracyclo[15.6.1.1?,?.0??,??]pentacosane]-10',14',16',22'-tetraen-12'-yl 4-fluorobenzoate

>  <PriceCoeff>
7.00

>  <MW>
893.97

>  <Description>
solid

>  <FSP3>
0.49

>  <clogP>
10.69

>  <TPSA>
138.85

>  <Acceptor>
10

>  <Donor>
2

>  <RotBonds>
8

>  <HAC>
64

$$$$
F6170-0218
  Mrv2219 10102508112D          

 68 74  0  0  0  0            999 V2000
   -2.8307    2.9524    0.0000 C   0  0  2  0  0  0  0  0  0  0  0  0
   -3.5341    2.5269    0.0000 C   0  0  1  0  0  0  0  0  0  0  0  0
   -3.5341    1.7106    0.0000 C   0  0  1  0  0  0  0  0  0  0  0  0
   -2.8307    3.7773    0.0000 C   0  0  0  0  0  0  0  0  0  0  0  0
   -1.4067    6.2693    0.0000 C   0  0  2  0  0  0  0  0  0  0  0  0
   -2.1101    2.5269    0.0000 C   0  0  0  0  0  0  0  0  0  0  0  0
   -2.8307    1.2938    0.0000 C   0  0  1  0  0  0  0  0  0  0  0  0
   -2.1101    1.7106    0.0000 C   0  0  0  0  0  0  0  0  0  0  0  0
   -4.9495    1.7106    0.0000 O   0  0  0  0  0  0  0  0  0  0  0  0
   -4.2374    2.9524    0.0000 C   0  0  0  0  0  0  0  0  0  0  0  0
   -2.8307    0.4689    0.0000 O   0  0  0  0  0  0  0  0  0  0  0  0
   -3.5428    0.0521    0.0000 C   0  0  0  0  0  0  0  0  0  0  0  0
   -1.4067    7.1029    0.0000 O   0  0  0  0  0  0  0  0  0  0  0  0
   -7.0944    6.2693    0.0000 C   0  0  2  0  0  0  0  0  0  0  0  0
   -2.1101    4.2028    0.0000 O   0  0  0  0  0  0  0  0  0  0  0  0
   -7.0944    5.4445    0.0000 O   0  0  0  0  0  0  0  0  0  0  0  0
   -7.8063    6.6861    0.0000 C   0  0  0  0  0  0  0  0  0  0  0  0
   -3.5428   -0.7642    0.0000 C   0  0  0  0  0  0  0  0  0  0  0  0
   -8.5184    5.4445    0.0000 C   0  0  2  0  0  0  0  0  0  0  0  0
   -5.6702    6.2693    0.0000 C   0  0  1  0  0  0  0  0  0  0  0  0
   -1.4067    5.4357    0.0000 C   0  0  0  0  0  0  0  0  0  0  0  0
   -2.1101    6.6861    0.0000 O   0  0  0  0  0  0  0  0  0  0  0  0
   -0.6946    7.5197    0.0000 C   0  0  1  0  0  0  0  0  0  0  0  0
   -8.5184    6.2693    0.0000 C   0  0  1  0  0  0  0  0  0  0  0  0
   -2.1101    5.0189    0.0000 C   0  0  2  0  0  0  0  0  0  0  0  0
   -7.8063    5.0450    0.0000 C   0  0  2  0  0  0  0  0  0  0  0  0
   -4.9495    6.6861    0.0000 C   0  0  0  0  0  0  0  0  0  0  0  0
   -0.6946    5.8525    0.0000 C   0  0  0  0  0  0  0  0  0  0  0  0
   -6.3823    6.6861    0.0000 O   0  0  0  0  0  0  0  0  0  0  0  0
    0.0173    6.2693    0.0000 C   0  0  0  0  0  0  0  0  0  0  0  0
   -4.2374    6.2693    0.0000 C   0  0  0  0  0  0  0  0  0  0  0  0
   -4.9495    2.5269    0.0000 C   0  0  0  0  0  0  0  0  0  0  0  0
   -4.2374    3.7773    0.0000 C   0  0  0  0  0  0  0  0  0  0  0  0
   -3.4299    4.1680    0.0000 O   0  0  0  0  0  0  0  0  0  0  0  0
   -4.9495    4.2028    0.0000 C   0  0  0  0  0  0  0  0  0  0  0  0
    0.0173    7.1029    0.0000 C   0  0  2  0  0  0  0  0  0  0  0  0
   -4.2635   -1.1723    0.0000 C   0  0  0  0  0  0  0  0  0  0  0  0
   -2.8307   -1.1723    0.0000 C   0  0  0  0  0  0  0  0  0  0  0  0
   -2.8307    5.4357    0.0000 C   0  0  0  0  0  0  0  0  0  0  0  0
   -2.8307    6.2693    0.0000 C   0  0  1  0  0  0  0  0  0  0  0  0
   -4.2635    0.4689    0.0000 O   0  0  0  0  0  0  0  0  0  0  0  0
   -5.6702    5.4357    0.0000 C   0  0  2  0  0  0  0  0  0  0  0  0
   -4.9495    5.0189    0.0000 C   0  0  0  0  0  0  0  0  0  0  0  0
   -3.5341    3.3517    0.0000 O   0  0  0  0  0  0  0  0  0  0  0  0
   -2.8307   -2.0059    0.0000 C   0  0  0  0  0  0  0  0  0  0  0  0
   -4.2635   -2.0059    0.0000 C   0  0  0  0  0  0  0  0  0  0  0  0
   -3.5341    6.6861    0.0000 C   0  0  0  0  0  0  0  0  0  0  0  0
   -0.6946    8.3361    0.0000 C   0  0  2  0  0  0  0  0  0  0  0  0
   -3.5428   -2.4054    0.0000 C   0  0  0  0  0  0  0  0  0  0  0  0
   -9.2218    5.0450    0.0000 O   0  0  0  0  0  0  0  0  0  0  0  0
   -9.2218    6.6861    0.0000 O   0  0  0  0  0  0  0  0  0  0  0  0
   -1.4067    1.2938    0.0000 C   0  0  0  0  0  0  0  0  0  0  0  0
   -4.9495    7.5197    0.0000 C   0  0  0  0  0  0  0  0  0  0  0  0
   -7.8063    4.2114    0.0000 C   0  0  0  0  0  0  0  0  0  0  0  0
    0.7382    7.5197    0.0000 C   0  0  0  0  0  0  0  0  0  0  0  0
   -4.9756   -2.4054    0.0000 C   0  0  0  0  0  0  0  0  0  0  0  0
   -2.1013   -2.4054    0.0000 C   0  0  0  0  0  0  0  0  0  0  0  0
   -6.3823    5.0277    0.0000 C   0  0  0  0  0  0  0  0  0  0  0  0
    0.0173    8.7616    0.0000 C   0  0  0  0  0  0  0  0  0  0  0  0
   -1.4067    8.7616    0.0000 C   0  0  0  0  0  0  0  0  0  0  0  0
   -9.2218    7.5197    0.0000 C   0  0  0  0  0  0  0  0  0  0  0  0
    0.7382    8.3361    0.0000 C   0  0  0  0  0  0  0  0  0  0  0  0
   -2.8307    2.1274    0.0000 H   0  0  0  0  0  0  0  0  0  0  0  0
   -3.5341    0.8770    0.0000 H   0  0  0  0  0  0  0  0  0  0  0  0
   -6.3823    5.8613    0.0000 H   0  0  0  0  0  0  0  0  0  0  0  0
    0.0173    7.9280    0.0000 H   0  0  0  0  0  0  0  0  0  0  0  0
   -2.1101    5.8352    0.0000 H   0  0  0  0  0  0  0  0  0  0  0  0
   -2.8307    7.1029    0.0000 H   0  0  0  0  0  0  0  0  0  0  0  0
  2  1  1  0  0  0  0
  3  2  1  0  0  0  0
  4  1  1  0  0  0  0
  5 21  1  6  0  0  0
  6  1  1  0  0  0  0
  7  8  1  0  0  0  0
  8  6  2  0  0  0  0
  9  3  1  0  0  0  0
 10  2  1  0  0  0  0
  7 11  1  1  0  0  0
 12 11  1  0  0  0  0
 13  5  1  0  0  0  0
 14 29  1  0  0  0  0
 15  4  1  0  0  0  0
 16 14  1  0  0  0  0
 17 14  1  0  0  0  0
 18 12  1  0  0  0  0
 19 24  1  0  0  0  0
 20 42  1  0  0  0  0
 21 25  1  0  0  0  0
 22 40  1  0  0  0  0
 23 13  1  0  0  0  0
 24 17  1  0  0  0  0
 25 15  1  0  0  0  0
 26 16  1  0  0  0  0
 27 31  2  0  0  0  0
 28  5  1  0  0  0  0
 20 29  1  6  0  0  0
 30 28  2  0  0  0  0
 31 47  1  0  0  0  0
 32 10  1  0  0  0  0
 33 10  2  0  0  0  0
 34  4  2  0  0  0  0
 35 33  1  0  0  0  0
 36 30  1  0  0  0  0
 37 18  2  0  0  0  0
 38 18  1  0  0  0  0
 39 25  1  0  0  0  0
 40 39  1  0  0  0  0
 41 12  2  0  0  0  0
 42 43  1  0  0  0  0
 43 35  2  0  0  0  0
  2 44  1  6  0  0  0
 45 38  2  0  0  0  0
 46 37  1  0  0  0  0
 47 40  1  0  0  0  0
 48 23  1  0  0  0  0
 49 45  1  0  0  0  0
 19 50  1  6  0  0  0
 24 51  1  1  0  0  0
 52  8  1  0  0  0  0
 53 27  1  0  0  0  0
 26 54  1  1  0  0  0
 36 55  1  1  0  0  0
 56 46  1  0  0  0  0
 57 45  1  0  0  0  0
 42 58  1  6  0  0  0
 59 48  1  0  0  0  0
 48 60  1  1  0  0  0
 61 51  1  0  0  0  0
 62 59  1  0  0  0  0
  1 63  1  1  0  0  0
  3 64  1  6  0  0  0
 14 65  1  1  0  0  0
 23 66  1  1  0  0  0
 25 67  1  6  0  0  0
 40 68  1  6  0  0  0
  7  3  1  0  0  0  0
 32  9  1  0  0  0  0
  5 22  1  1  0  0  0
 27 20  1  0  0  0  0
 36 23  1  0  0  0  0
 46 49  2  0  0  0  0
 19 26  1  0  0  0  0
M  END
>  <IDNUMBER>
F6170-0218

>  <Chemical_Name>
(1'R,2S,4'S,5S,6R,8'R,10'E,12'S,13'S,14'E,16'E,20'R,21'R,24'S)-6-[(2S)-butan-2-yl]-24'-hydroxy-12'-{[(2R,4S,5S,6S)-5-hydroxy-4-methoxy-6-methyloxan-2-yl]oxy}-5,11',13',22'-tetramethyl-2'-oxo-5,6-dihydro-3',7',19'-trioxaspiro[pyran-2,6'-tetracyclo[15.6.1.1?,?.0??,??]pentacosane]-10',14',16',22'-tetraen-21'-yl 3,5-dimethylbenzoate

>  <PriceCoeff>
7.00

>  <MW>
861.08

>  <Description>
solid

>  <FSP3>
0.64

>  <clogP>
7.89

>  <TPSA>
148.44

>  <Acceptor>
12

>  <Donor>
2

>  <RotBonds>
8

>  <HAC>
62

$$$$
F6170-0221
  Mrv2219 10102508112D          

 67 73  0  0  0  0            999 V2000
    9.0265   -4.4605    0.0000 C   0  0  2  0  0  0  0  0  0  0  0  0
    8.3139   -4.8762    0.0000 C   0  0  1  0  0  0  0  0  0  0  0  0
    8.3139   -5.7009    0.0000 C   0  0  1  0  0  0  0  0  0  0  0  0
    9.0265   -3.6423    0.0000 C   0  0  0  0  0  0  0  0  0  0  0  0
   10.4386   -1.1548    0.0000 C   0  0  2  0  0  0  0  0  0  0  0  0
    9.7260   -4.8762    0.0000 C   0  0  0  0  0  0  0  0  0  0  0  0
    9.0265   -6.1233    0.0000 C   0  0  1  0  0  0  0  0  0  0  0  0
    9.7260   -5.7009    0.0000 C   0  0  0  0  0  0  0  0  0  0  0  0
    6.8953   -5.7009    0.0000 O   0  0  0  0  0  0  0  0  0  0  0  0
    7.6079   -4.4605    0.0000 C   0  0  0  0  0  0  0  0  0  0  0  0
    9.0265   -6.9414    0.0000 O   0  0  0  0  0  0  0  0  0  0  0  0
   10.4386   -0.3234    0.0000 O   0  0  0  0  0  0  0  0  0  0  0  0
    4.7574   -1.1548    0.0000 C   0  0  2  0  0  0  0  0  0  0  0  0
    9.7260   -3.2134    0.0000 O   0  0  0  0  0  0  0  0  0  0  0  0
    8.3007   -7.3506    0.0000 C   0  0  0  0  0  0  0  0  0  0  0  0
    4.7574   -1.9663    0.0000 O   0  0  0  0  0  0  0  0  0  0  0  0
    4.0448   -0.7391    0.0000 C   0  0  0  0  0  0  0  0  0  0  0  0
    3.3453   -1.9663    0.0000 C   0  0  2  0  0  0  0  0  0  0  0  0
    6.1827   -1.1548    0.0000 C   0  0  1  0  0  0  0  0  0  0  0  0
   10.4386   -1.9861    0.0000 C   0  0  0  0  0  0  0  0  0  0  0  0
    9.7260   -0.7391    0.0000 O   0  0  0  0  0  0  0  0  0  0  0  0
   11.1512    0.0923    0.0000 C   0  0  1  0  0  0  0  0  0  0  0  0
    3.3453   -1.1548    0.0000 C   0  0  1  0  0  0  0  0  0  0  0  0
    9.7260   -2.4018    0.0000 C   0  0  2  0  0  0  0  0  0  0  0  0
    4.0448   -2.3820    0.0000 C   0  0  2  0  0  0  0  0  0  0  0  0
    6.8953   -0.7391    0.0000 C   0  0  0  0  0  0  0  0  0  0  0  0
   11.1512   -1.5705    0.0000 C   0  0  0  0  0  0  0  0  0  0  0  0
    5.4701   -0.7391    0.0000 O   0  0  0  0  0  0  0  0  0  0  0  0
   11.8440   -1.1548    0.0000 C   0  0  0  0  0  0  0  0  0  0  0  0
    7.6079   -1.1548    0.0000 C   0  0  0  0  0  0  0  0  0  0  0  0
    6.8953   -4.8762    0.0000 C   0  0  0  0  0  0  0  0  0  0  0  0
    8.3007   -8.1820    0.0000 C   0  0  0  0  0  0  0  0  0  0  0  0
    7.6079   -3.6423    0.0000 C   0  0  0  0  0  0  0  0  0  0  0  0
    8.4128   -3.2332    0.0000 O   0  0  0  0  0  0  0  0  0  0  0  0
    6.8953   -3.2134    0.0000 C   0  0  0  0  0  0  0  0  0  0  0  0
   11.8440   -0.3234    0.0000 C   0  0  2  0  0  0  0  0  0  0  0  0
    9.0265   -1.9861    0.0000 C   0  0  0  0  0  0  0  0  0  0  0  0
    9.0265   -1.1548    0.0000 C   0  0  1  0  0  0  0  0  0  0  0  0
    7.5881   -6.9414    0.0000 O   0  0  0  0  0  0  0  0  0  0  0  0
    6.1827   -1.9861    0.0000 C   0  0  2  0  0  0  0  0  0  0  0  0
    6.8953   -2.4018    0.0000 C   0  0  0  0  0  0  0  0  0  0  0  0
    8.3139   -4.0646    0.0000 O   0  0  0  0  0  0  0  0  0  0  0  0
    7.5881   -8.5779    0.0000 C   0  0  0  0  0  0  0  0  0  0  0  0
    9.0133   -8.5779    0.0000 C   0  0  0  0  0  0  0  0  0  0  0  0
    8.3139   -0.7391    0.0000 C   0  0  0  0  0  0  0  0  0  0  0  0
   11.1512    0.9237    0.0000 C   0  0  2  0  0  0  0  0  0  0  0  0
    2.6327   -2.3820    0.0000 O   0  0  0  0  0  0  0  0  0  0  0  0
    8.3007   -9.8183    0.0000 C   0  0  0  0  0  0  0  0  0  0  0  0
    2.6327   -0.7391    0.0000 O   0  0  0  0  0  0  0  0  0  0  0  0
    9.0265   -9.4092    0.0000 C   0  0  0  0  0  0  0  0  0  0  0  0
    7.5881   -9.4092    0.0000 C   0  0  0  0  0  0  0  0  0  0  0  0
    8.3007  -10.6365    0.0000 F   0  0  0  0  0  0  0  0  0  0  0  0
   10.4386   -6.1233    0.0000 C   0  0  0  0  0  0  0  0  0  0  0  0
    6.8953    0.0923    0.0000 C   0  0  0  0  0  0  0  0  0  0  0  0
    4.0448   -3.2134    0.0000 C   0  0  0  0  0  0  0  0  0  0  0  0
   12.5698    0.0923    0.0000 C   0  0  0  0  0  0  0  0  0  0  0  0
    5.4701   -2.3952    0.0000 C   0  0  0  0  0  0  0  0  0  0  0  0
   11.8440    1.3196    0.0000 C   0  0  0  0  0  0  0  0  0  0  0  0
   10.4386    1.3196    0.0000 C   0  0  0  0  0  0  0  0  0  0  0  0
    2.6327    0.0923    0.0000 C   0  0  0  0  0  0  0  0  0  0  0  0
   12.5698    0.9237    0.0000 C   0  0  0  0  0  0  0  0  0  0  0  0
    9.0265   -0.3234    0.0000 H   0  0  0  0  0  0  0  0  0  0  0  0
    9.0265   -5.2852    0.0000 H   0  0  0  0  0  0  0  0  0  0  0  0
    8.3139   -6.5323    0.0000 H   0  0  0  0  0  0  0  0  0  0  0  0
    5.4701   -1.5638    0.0000 H   0  0  0  0  0  0  0  0  0  0  0  0
   11.8440    0.4949    0.0000 H   0  0  0  0  0  0  0  0  0  0  0  0
    9.7260   -1.5705    0.0000 H   0  0  0  0  0  0  0  0  0  0  0  0
  2  1  1  0  0  0  0
  3  2  1  0  0  0  0
  4  1  1  0  0  0  0
  5 20  1  6  0  0  0
  6  1  1  0  0  0  0
  7  8  1  0  0  0  0
  8  6  2  0  0  0  0
  9  3  1  0  0  0  0
 10  2  1  0  0  0  0
  7 11  1  1  0  0  0
 12  5  1  0  0  0  0
 13 28  1  0  0  0  0
 14  4  1  0  0  0  0
 15 11  1  0  0  0  0
 16 13  1  0  0  0  0
 17 13  1  0  0  0  0
 18 23  1  0  0  0  0
 19 40  1  0  0  0  0
 20 24  1  0  0  0  0
 21 38  1  0  0  0  0
 22 12  1  0  0  0  0
 23 17  1  0  0  0  0
 24 14  1  0  0  0  0
 25 16  1  0  0  0  0
 26 30  2  0  0  0  0
 27  5  1  0  0  0  0
 19 28  1  6  0  0  0
 29 27  2  0  0  0  0
 30 45  1  0  0  0  0
 31 10  1  0  0  0  0
 32 15  1  0  0  0  0
 33 10  2  0  0  0  0
 34  4  2  0  0  0  0
 35 33  1  0  0  0  0
 36 29  1  0  0  0  0
 37 24  1  0  0  0  0
 38 37  1  0  0  0  0
 39 15  2  0  0  0  0
 40 41  1  0  0  0  0
 41 35  2  0  0  0  0
  2 42  1  6  0  0  0
 43 32  2  0  0  0  0
 44 32  1  0  0  0  0
 45 38  1  0  0  0  0
 46 22  1  0  0  0  0
 18 47  1  6  0  0  0
 48 50  1  0  0  0  0
 23 49  1  1  0  0  0
 50 44  2  0  0  0  0
 51 43  1  0  0  0  0
 52 48  1  0  0  0  0
 53  8  1  0  0  0  0
 54 26  1  0  0  0  0
 25 55  1  1  0  0  0
 36 56  1  1  0  0  0
 40 57  1  6  0  0  0
 58 46  1  0  0  0  0
 46 59  1  1  0  0  0
 60 49  1  0  0  0  0
 61 58  1  0  0  0  0
 38 62  1  6  0  0  0
  1 63  1  1  0  0  0
  3 64  1  6  0  0  0
 13 65  1  1  0  0  0
 22 66  1  1  0  0  0
 24 67  1  6  0  0  0
  7  3  1  0  0  0  0
 31  9  1  0  0  0  0
  5 21  1  1  0  0  0
 51 48  2  0  0  0  0
 26 19  1  0  0  0  0
 36 22  1  0  0  0  0
 18 25  1  0  0  0  0
M  END
>  <IDNUMBER>
F6170-0221

>  <Chemical_Name>
(1'R,2S,4'S,5S,6R,8'R,10'E,12'S,13'S,14'E,16'E,20'R,21'R,24'S)-6-[(2S)-butan-2-yl]-24'-hydroxy-12'-{[(2R,4S,5S,6S)-5-hydroxy-4-methoxy-6-methyloxan-2-yl]oxy}-5,11',13',22'-tetramethyl-2'-oxo-5,6-dihydro-3',7',19'-trioxaspiro[pyran-2,6'-tetracyclo[15.6.1.1?,?.0??,??]pentacosane]-10',14',16',22'-tetraen-21'-yl 4-fluorobenzoate

>  <PriceCoeff>
7.00

>  <MW>
851.02

>  <Description>
solid

>  <FSP3>
0.63

>  <clogP>
7.04

>  <TPSA>
148.44

>  <Acceptor>
12

>  <Donor>
2

>  <RotBonds>
8

>  <HAC>
61

$$$$
F6170-0222
  Mrv2219 10102508112D          

 76 83  0  0  0  0            999 V2000
    9.0265   -4.4605    0.0000 C   0  0  2  0  0  0  0  0  0  0  0  0
    8.3139   -4.8762    0.0000 C   0  0  1  0  0  0  0  0  0  0  0  0
    8.3139   -5.7009    0.0000 C   0  0  1  0  0  0  0  0  0  0  0  0
    9.0265   -3.6423    0.0000 C   0  0  0  0  0  0  0  0  0  0  0  0
   10.4386   -1.1548    0.0000 C   0  0  2  0  0  0  0  0  0  0  0  0
    9.7260   -4.8762    0.0000 C   0  0  0  0  0  0  0  0  0  0  0  0
    9.0265   -6.1233    0.0000 C   0  0  1  0  0  0  0  0  0  0  0  0
    9.7260   -5.7009    0.0000 C   0  0  0  0  0  0  0  0  0  0  0  0
    3.3453   -1.9663    0.0000 C   0  0  2  0  0  0  0  0  0  0  0  0
    6.8953   -5.7009    0.0000 O   0  0  0  0  0  0  0  0  0  0  0  0
    7.6079   -4.4605    0.0000 C   0  0  0  0  0  0  0  0  0  0  0  0
    9.0265   -6.9414    0.0000 O   0  0  0  0  0  0  0  0  0  0  0  0
    2.6327   -2.3820    0.0000 O   0  0  0  0  0  0  0  0  0  0  0  0
   10.4386   -0.3234    0.0000 O   0  0  0  0  0  0  0  0  0  0  0  0
    4.7574   -1.1548    0.0000 C   0  0  2  0  0  0  0  0  0  0  0  0
    9.7260   -3.2134    0.0000 O   0  0  0  0  0  0  0  0  0  0  0  0
    1.9070   -1.9663    0.0000 C   0  0  0  0  0  0  0  0  0  0  0  0
    8.3007   -7.3506    0.0000 C   0  0  0  0  0  0  0  0  0  0  0  0
    4.7574   -1.9663    0.0000 O   0  0  0  0  0  0  0  0  0  0  0  0
    4.0448   -0.7391    0.0000 C   0  0  0  0  0  0  0  0  0  0  0  0
    3.3453   -1.1548    0.0000 C   0  0  2  0  0  0  0  0  0  0  0  0
    6.1827   -1.1548    0.0000 C   0  0  1  0  0  0  0  0  0  0  0  0
    4.0448   -2.3820    0.0000 C   0  0  1  0  0  0  0  0  0  0  0  0
   10.4386   -1.9861    0.0000 C   0  0  0  0  0  0  0  0  0  0  0  0
    9.7260   -0.7391    0.0000 O   0  0  0  0  0  0  0  0  0  0  0  0
   11.1512    0.0923    0.0000 C   0  0  1  0  0  0  0  0  0  0  0  0
    9.7260   -2.4018    0.0000 C   0  0  2  0  0  0  0  0  0  0  0  0
    6.8953   -0.7391    0.0000 C   0  0  0  0  0  0  0  0  0  0  0  0
   11.1512   -1.5705    0.0000 C   0  0  0  0  0  0  0  0  0  0  0  0
    5.4701   -0.7391    0.0000 O   0  0  0  0  0  0  0  0  0  0  0  0
   11.8440   -1.1548    0.0000 C   0  0  0  0  0  0  0  0  0  0  0  0
    7.6079   -1.1548    0.0000 C   0  0  0  0  0  0  0  0  0  0  0  0
    6.8953   -4.8762    0.0000 C   0  0  0  0  0  0  0  0  0  0  0  0
    8.3007   -8.1820    0.0000 C   0  0  0  0  0  0  0  0  0  0  0  0
    1.1943   -2.3820    0.0000 C   0  0  0  0  0  0  0  0  0  0  0  0
    7.6079   -3.6423    0.0000 C   0  0  0  0  0  0  0  0  0  0  0  0
    8.4128   -3.2332    0.0000 O   0  0  0  0  0  0  0  0  0  0  0  0
    6.8953   -3.2134    0.0000 C   0  0  0  0  0  0  0  0  0  0  0  0
   11.8440   -0.3234    0.0000 C   0  0  2  0  0  0  0  0  0  0  0  0
    9.0265   -1.9861    0.0000 C   0  0  0  0  0  0  0  0  0  0  0  0
    9.0265   -1.1548    0.0000 C   0  0  1  0  0  0  0  0  0  0  0  0
    7.5881   -6.9414    0.0000 O   0  0  0  0  0  0  0  0  0  0  0  0
    1.9070   -1.1481    0.0000 O   0  0  0  0  0  0  0  0  0  0  0  0
    6.1827   -1.9861    0.0000 C   0  0  2  0  0  0  0  0  0  0  0  0
    6.8953   -2.4018    0.0000 C   0  0  0  0  0  0  0  0  0  0  0  0
    8.3139   -4.0646    0.0000 O   0  0  0  0  0  0  0  0  0  0  0  0
    9.0133   -8.5779    0.0000 C   0  0  0  0  0  0  0  0  0  0  0  0
    7.5881   -8.5779    0.0000 C   0  0  0  0  0  0  0  0  0  0  0  0
    0.4817   -1.9795    0.0000 C   0  0  0  0  0  0  0  0  0  0  0  0
    1.2141   -3.2134    0.0000 C   0  0  0  0  0  0  0  0  0  0  0  0
    8.3139   -0.7391    0.0000 C   0  0  0  0  0  0  0  0  0  0  0  0
   11.1512    0.9237    0.0000 C   0  0  2  0  0  0  0  0  0  0  0  0
   -0.2177   -3.2134    0.0000 C   0  0  0  0  0  0  0  0  0  0  0  0
    8.3007   -9.8183    0.0000 C   0  0  0  0  0  0  0  0  0  0  0  0
    2.6327   -0.7391    0.0000 O   0  0  0  0  0  0  0  0  0  0  0  0
   -0.2309   -2.3952    0.0000 C   0  0  0  0  0  0  0  0  0  0  0  0
    9.0265   -9.4092    0.0000 C   0  0  0  0  0  0  0  0  0  0  0  0
    0.5015   -3.6291    0.0000 C   0  0  0  0  0  0  0  0  0  0  0  0
    7.5881   -9.4092    0.0000 C   0  0  0  0  0  0  0  0  0  0  0  0
    8.3007  -10.6365    0.0000 F   0  0  0  0  0  0  0  0  0  0  0  0
   -0.9304   -3.6291    0.0000 F   0  0  0  0  0  0  0  0  0  0  0  0
   10.4386   -6.1233    0.0000 C   0  0  0  0  0  0  0  0  0  0  0  0
    6.8953    0.0923    0.0000 C   0  0  0  0  0  0  0  0  0  0  0  0
    4.0448   -3.2134    0.0000 C   0  0  0  0  0  0  0  0  0  0  0  0
   12.5698    0.0923    0.0000 C   0  0  0  0  0  0  0  0  0  0  0  0
    5.4701   -2.3952    0.0000 C   0  0  0  0  0  0  0  0  0  0  0  0
   11.8440    1.3196    0.0000 C   0  0  0  0  0  0  0  0  0  0  0  0
   10.4386    1.3196    0.0000 C   0  0  0  0  0  0  0  0  0  0  0  0
    2.6327    0.0923    0.0000 C   0  0  0  0  0  0  0  0  0  0  0  0
   12.5698    0.9237    0.0000 C   0  0  0  0  0  0  0  0  0  0  0  0
    5.4701   -1.5638    0.0000 H   0  0  0  0  0  0  0  0  0  0  0  0
   11.8440    0.4949    0.0000 H   0  0  0  0  0  0  0  0  0  0  0  0
    9.7260   -1.5705    0.0000 H   0  0  0  0  0  0  0  0  0  0  0  0
    9.0265   -0.3234    0.0000 H   0  0  0  0  0  0  0  0  0  0  0  0
    9.0265   -5.2852    0.0000 H   0  0  0  0  0  0  0  0  0  0  0  0
    8.3139   -6.5323    0.0000 H   0  0  0  0  0  0  0  0  0  0  0  0
  2  1  1  0  0  0  0
  3  2  1  0  0  0  0
  4  1  1  0  0  0  0
  5 24  1  6  0  0  0
  6  1  1  0  0  0  0
  7  8  1  0  0  0  0
  8  6  2  0  0  0  0
  9 21  1  0  0  0  0
 10  3  1  0  0  0  0
 11  2  1  0  0  0  0
  7 12  1  1  0  0  0
  9 13  1  6  0  0  0
 14  5  1  0  0  0  0
 15 30  1  0  0  0  0
 16  4  1  0  0  0  0
 17 13  1  0  0  0  0
 18 12  1  0  0  0  0
 19 15  1  0  0  0  0
 20 15  1  0  0  0  0
 21 20  1  0  0  0  0
 22 44  1  0  0  0  0
 23 19  1  0  0  0  0
 24 27  1  0  0  0  0
 25 41  1  0  0  0  0
 26 14  1  0  0  0  0
 27 16  1  0  0  0  0
 28 32  2  0  0  0  0
 29  5  1  0  0  0  0
 22 30  1  6  0  0  0
 31 29  2  0  0  0  0
 32 51  1  0  0  0  0
 33 11  1  0  0  0  0
 34 18  1  0  0  0  0
 35 17  1  0  0  0  0
 36 11  2  0  0  0  0
 37  4  2  0  0  0  0
 38 36  1  0  0  0  0
 39 31  1  0  0  0  0
 40 27  1  0  0  0  0
 41 40  1  0  0  0  0
 42 18  2  0  0  0  0
 43 17  2  0  0  0  0
 44 45  1  0  0  0  0
 45 38  2  0  0  0  0
  2 46  1  6  0  0  0
 47 34  1  0  0  0  0
 48 34  2  0  0  0  0
 49 35  2  0  0  0  0
 50 35  1  0  0  0  0
 51 41  1  0  0  0  0
 52 26  1  0  0  0  0
 53 58  1  0  0  0  0
 54 59  2  0  0  0  0
 21 55  1  1  0  0  0
 56 49  1  0  0  0  0
 57 47  2  0  0  0  0
 58 50  2  0  0  0  0
 59 48  1  0  0  0  0
 60 54  1  0  0  0  0
 61 53  1  0  0  0  0
 62  8  1  0  0  0  0
 63 28  1  0  0  0  0
 23 64  1  1  0  0  0
 39 65  1  1  0  0  0
 44 66  1  6  0  0  0
 67 52  1  0  0  0  0
 52 68  1  1  0  0  0
 69 55  1  0  0  0  0
 70 67  1  0  0  0  0
 15 71  1  1  0  0  0
 26 72  1  1  0  0  0
 27 73  1  6  0  0  0
 41 74  1  6  0  0  0
  1 75  1  1  0  0  0
  3 76  1  6  0  0  0
  7  3  1  0  0  0  0
 33 10  1  0  0  0  0
  5 25  1  1  0  0  0
 57 54  1  0  0  0  0
 28 22  1  0  0  0  0
 26 39  1  0  0  0  0
  9 23  1  0  0  0  0
 56 53  2  0  0  0  0
M  END
>  <IDNUMBER>
F6170-0222

>  <Chemical_Name>
(1'R,2S,4'S,5S,6R,8'R,10'E,12'S,13'S,14'E,16'E,20'R,21'R,24'S)-6-[(2S)-butan-2-yl]-12'-{[(2R,4S,5S,6S)-5-(4-fluorobenzoyloxy)-4-methoxy-6-methyloxan-2-yl]oxy}-24'-hydroxy-5,11',13',22'-tetramethyl-2'-oxo-5,6-dihydro-3',7',19'-trioxaspiro[pyran-2,6'-tetracyclo[15.6.1.1?,?.0??,??]pentacosane]-10',14',16',22'-tetraen-21'-yl 4-fluorobenzoate

>  <PriceCoeff>
7.00

>  <MW>
973.12

>  <Description>
solid

>  <FSP3>
0.55

>  <clogP>
9.53

>  <TPSA>
154.51

>  <Acceptor>
13

>  <Donor>
1

>  <RotBonds>
11

>  <HAC>
70

$$$$
F6170-0223
  Mrv2219 10102508112D          

 68 74  0  0  0  0            999 V2000
   13.1728    0.5494    0.0000 C   0  0  2  0  0  0  0  0  0  0  0  0
   12.4592    0.1427    0.0000 C   0  0  1  0  0  0  0  0  0  0  0  0
   12.4592   -0.6922    0.0000 C   0  0  1  0  0  0  0  0  0  0  0  0
   13.1728    1.3629    0.0000 C   0  0  0  0  0  0  0  0  0  0  0  0
   14.5999    3.8462    0.0000 C   0  0  2  0  0  0  0  0  0  0  0  0
   13.8793    0.1427    0.0000 C   0  0  0  0  0  0  0  0  0  0  0  0
   13.1728   -1.1132    0.0000 C   0  0  1  0  0  0  0  0  0  0  0  0
   13.8793   -0.6922    0.0000 C   0  0  0  0  0  0  0  0  0  0  0  0
   11.0321   -0.6922    0.0000 O   0  0  0  0  0  0  0  0  0  0  0  0
   11.7527    0.5494    0.0000 C   0  0  0  0  0  0  0  0  0  0  0  0
   13.1728   -1.9339    0.0000 O   0  0  0  0  0  0  0  0  0  0  0  0
   14.5999    4.6810    0.0000 O   0  0  0  0  0  0  0  0  0  0  0  0
    8.8913    3.8462    0.0000 C   0  0  2  0  0  0  0  0  0  0  0  0
   13.8793    1.7910    0.0000 O   0  0  0  0  0  0  0  0  0  0  0  0
   12.4449   -2.3406    0.0000 C   0  0  0  0  0  0  0  0  0  0  0  0
    8.8913    3.0327    0.0000 O   0  0  0  0  0  0  0  0  0  0  0  0
    8.1634    4.2601    0.0000 C   0  0  0  0  0  0  0  0  0  0  0  0
    7.4570    3.0327    0.0000 C   0  0  2  0  0  0  0  0  0  0  0  0
   10.3184    3.8462    0.0000 C   0  0  1  0  0  0  0  0  0  0  0  0
   14.5999    3.0185    0.0000 C   0  0  0  0  0  0  0  0  0  0  0  0
   13.8793    4.2601    0.0000 O   0  0  0  0  0  0  0  0  0  0  0  0
   15.3136    5.1022    0.0000 C   0  0  1  0  0  0  0  0  0  0  0  0
    7.4570    3.8462    0.0000 C   0  0  1  0  0  0  0  0  0  0  0  0
   13.8793    2.6045    0.0000 C   0  0  2  0  0  0  0  0  0  0  0  0
    8.1634    2.6259    0.0000 C   0  0  2  0  0  0  0  0  0  0  0  0
   11.0321    4.2601    0.0000 C   0  0  0  0  0  0  0  0  0  0  0  0
   15.3136    3.4394    0.0000 C   0  0  0  0  0  0  0  0  0  0  0  0
   11.7385   -6.0369    0.0000 N   0  0  0  0  0  0  0  0  0  0  0  0
    9.5978    4.2601    0.0000 O   0  0  0  0  0  0  0  0  0  0  0  0
   16.0200    3.8462    0.0000 C   0  0  0  0  0  0  0  0  0  0  0  0
   11.7527    3.8462    0.0000 C   0  0  0  0  0  0  0  0  0  0  0  0
   11.0321    0.1427    0.0000 C   0  0  0  0  0  0  0  0  0  0  0  0
   12.4449   -5.6302    0.0000 C   0  0  0  0  0  0  0  0  0  0  0  0
   12.4449   -3.1683    0.0000 C   0  0  0  0  0  0  0  0  0  0  0  0
   11.7527    1.3629    0.0000 C   0  0  0  0  0  0  0  0  0  0  0  0
   12.5520    1.7696    0.0000 O   0  0  0  0  0  0  0  0  0  0  0  0
   11.0321    1.7910    0.0000 C   0  0  0  0  0  0  0  0  0  0  0  0
   16.0200    4.6810    0.0000 C   0  0  2  0  0  0  0  0  0  0  0  0
   13.1728    3.0185    0.0000 C   0  0  0  0  0  0  0  0  0  0  0  0
   13.1728    3.8462    0.0000 C   0  0  1  0  0  0  0  0  0  0  0  0
   11.7385   -1.9339    0.0000 O   0  0  0  0  0  0  0  0  0  0  0  0
   10.3184    3.0185    0.0000 C   0  0  2  0  0  0  0  0  0  0  0  0
   11.0321    2.6045    0.0000 C   0  0  0  0  0  0  0  0  0  0  0  0
   12.4592    0.9419    0.0000 O   0  0  0  0  0  0  0  0  0  0  0  0
   11.7385   -3.5751    0.0000 C   0  0  0  0  0  0  0  0  0  0  0  0
   13.1728   -3.5751    0.0000 C   0  0  0  0  0  0  0  0  0  0  0  0
   12.4449   -4.8025    0.0000 C   0  0  0  0  0  0  0  0  0  0  0  0
   12.4592    4.2601    0.0000 C   0  0  0  0  0  0  0  0  0  0  0  0
   15.3136    5.9227    0.0000 C   0  0  2  0  0  0  0  0  0  0  0  0
    6.7506    2.6259    0.0000 O   0  0  0  0  0  0  0  0  0  0  0  0
    6.7506    4.2601    0.0000 O   0  0  0  0  0  0  0  0  0  0  0  0
   13.1728   -4.3957    0.0000 C   0  0  0  0  0  0  0  0  0  0  0  0
   11.7385   -4.3957    0.0000 C   0  0  0  0  0  0  0  0  0  0  0  0
   14.5999   -1.1132    0.0000 C   0  0  0  0  0  0  0  0  0  0  0  0
   11.0321    5.0878    0.0000 C   0  0  0  0  0  0  0  0  0  0  0  0
    8.1634    1.7910    0.0000 C   0  0  0  0  0  0  0  0  0  0  0  0
   16.7407    5.0878    0.0000 C   0  0  0  0  0  0  0  0  0  0  0  0
    9.5978    2.6117    0.0000 C   0  0  0  0  0  0  0  0  0  0  0  0
   16.0200    6.3294    0.0000 C   0  0  0  0  0  0  0  0  0  0  0  0
   14.5999    6.3294    0.0000 C   0  0  0  0  0  0  0  0  0  0  0  0
    6.7506    5.0878    0.0000 C   0  0  0  0  0  0  0  0  0  0  0  0
   16.7407    5.9227    0.0000 C   0  0  0  0  0  0  0  0  0  0  0  0
   13.1728   -0.2711    0.0000 H   0  0  0  0  0  0  0  0  0  0  0  0
   12.4592   -1.5199    0.0000 H   0  0  0  0  0  0  0  0  0  0  0  0
    9.5978    3.4394    0.0000 H   0  0  0  0  0  0  0  0  0  0  0  0
   16.0200    5.4945    0.0000 H   0  0  0  0  0  0  0  0  0  0  0  0
   13.8793    3.4394    0.0000 H   0  0  0  0  0  0  0  0  0  0  0  0
   13.1728    4.6810    0.0000 H   0  0  0  0  0  0  0  0  0  0  0  0
  2  1  1  0  0  0  0
  3  2  1  0  0  0  0
  4  1  1  0  0  0  0
  5 20  1  6  0  0  0
  6  1  1  0  0  0  0
  7  8  1  0  0  0  0
  8  6  2  0  0  0  0
  9  3  1  0  0  0  0
 10  2  1  0  0  0  0
  7 11  1  1  0  0  0
 12  5  1  0  0  0  0
 13 29  1  0  0  0  0
 14  4  1  0  0  0  0
 15 11  1  0  0  0  0
 16 13  1  0  0  0  0
 17 13  1  0  0  0  0
 18 23  1  0  0  0  0
 19 42  1  0  0  0  0
 20 24  1  0  0  0  0
 21 40  1  0  0  0  0
 22 12  1  0  0  0  0
 23 17  1  0  0  0  0
 24 14  1  0  0  0  0
 25 16  1  0  0  0  0
 26 31  2  0  0  0  0
 27  5  1  0  0  0  0
 28 33  3  0  0  0  0
 19 29  1  6  0  0  0
 30 27  2  0  0  0  0
 31 48  1  0  0  0  0
 32 10  1  0  0  0  0
 33 47  1  0  0  0  0
 34 15  1  0  0  0  0
 35 10  2  0  0  0  0
 36  4  2  0  0  0  0
 37 35  1  0  0  0  0
 38 30  1  0  0  0  0
 39 24  1  0  0  0  0
 40 39  1  0  0  0  0
 41 15  2  0  0  0  0
 42 43  1  0  0  0  0
 43 37  2  0  0  0  0
  2 44  1  6  0  0  0
 45 34  2  0  0  0  0
 46 34  1  0  0  0  0
 47 52  1  0  0  0  0
 48 40  1  0  0  0  0
 49 22  1  0  0  0  0
 18 50  1  6  0  0  0
 23 51  1  1  0  0  0
 52 46  2  0  0  0  0
 53 45  1  0  0  0  0
 54  8  1  0  0  0  0
 55 26  1  0  0  0  0
 25 56  1  1  0  0  0
 38 57  1  1  0  0  0
 42 58  1  6  0  0  0
 59 49  1  0  0  0  0
 49 60  1  1  0  0  0
 61 51  1  0  0  0  0
 62 59  1  0  0  0  0
  1 63  1  1  0  0  0
  3 64  1  6  0  0  0
 13 65  1  1  0  0  0
 22 66  1  1  0  0  0
 24 67  1  6  0  0  0
 40 68  1  6  0  0  0
  7  3  1  0  0  0  0
 32  9  1  0  0  0  0
  5 21  1  1  0  0  0
 53 47  2  0  0  0  0
 26 19  1  0  0  0  0
 22 38  1  0  0  0  0
 18 25  1  0  0  0  0
M  END
>  <IDNUMBER>
F6170-0223

>  <Chemical_Name>
(1'R,2S,4'S,5S,6R,8'R,10'E,12'S,13'S,14'E,16'E,20'R,21'R,24'S)-6-[(2S)-butan-2-yl]-24'-hydroxy-12'-{[(2R,4S,5S,6S)-5-hydroxy-4-methoxy-6-methyloxan-2-yl]oxy}-5,11',13',22'-tetramethyl-2'-oxo-5,6-dihydro-3',7',19'-trioxaspiro[pyran-2,6'-tetracyclo[15.6.1.1?,?.0??,??]pentacosane]-10',14',16',22'-tetraen-21'-yl 4-cyanobenzoate

>  <PriceCoeff>
7.00

>  <MW>
858.04

>  <Description>
solid

>  <FSP3>
0.61

>  <clogP>
6.33

>  <TPSA>
172.23

>  <Acceptor>
13

>  <Donor>
2

>  <RotBonds>
8

>  <HAC>
62

$$$$
F6170-0243
  Mrv2219 10102508112D          

 57 62  0  0  0  0            999 V2000
   -4.5639    3.8143    0.0000 C   0  0  2  0  0  0  0  0  0  0  0  0
   -5.2755    3.4062    0.0000 C   0  0  1  0  0  0  0  0  0  0  0  0
   -5.2755    2.5807    0.0000 C   0  0  1  0  0  0  0  0  0  0  0  0
   -4.5639    4.6302    0.0000 C   0  0  0  0  0  0  0  0  0  0  0  0
   -3.1500    7.1162    0.0000 C   0  0  2  0  0  0  0  0  0  0  0  0
   -3.8616    3.4062    0.0000 C   0  0  0  0  0  0  0  0  0  0  0  0
   -4.5639    2.1537    0.0000 C   0  0  1  0  0  0  0  0  0  0  0  0
   -3.8616    2.5807    0.0000 C   0  0  0  0  0  0  0  0  0  0  0  0
   -6.6892    2.5807    0.0000 O   0  0  0  0  0  0  0  0  0  0  0  0
   -5.9776    3.8143    0.0000 C   0  0  0  0  0  0  0  0  0  0  0  0
   -4.5639    1.3283    0.0000 O   0  0  0  0  0  0  0  0  0  0  0  0
   -3.1500    7.9416    0.0000 O   0  0  0  0  0  0  0  0  0  0  0  0
   -3.8616    5.0571    0.0000 O   0  0  0  0  0  0  0  0  0  0  0  0
   -5.2849    0.9298    0.0000 C   0  0  0  0  0  0  0  0  0  0  0  0
   -3.1500    6.2811    0.0000 C   0  0  0  0  0  0  0  0  0  0  0  0
   -3.8616    7.5336    0.0000 O   0  0  0  0  0  0  0  0  0  0  0  0
   -2.4384    8.3590    0.0000 C   0  0  1  0  0  0  0  0  0  0  0  0
   -3.8616    5.8733    0.0000 C   0  0  2  0  0  0  0  0  0  0  0  0
   -2.4384    6.7081    0.0000 C   0  0  0  0  0  0  0  0  0  0  0  0
   -6.6892    7.5336    0.0000 C   0  0  0  0  0  0  0  0  0  0  0  0
   -5.9965   -2.7706    0.0000 N   0  0  0  0  0  0  0  0  0  0  0  0
   -1.7459    7.1162    0.0000 C   0  0  0  0  0  0  0  0  0  0  0  0
   -5.9776    7.1162    0.0000 C   0  0  0  0  0  0  0  0  0  0  0  0
   -6.6892    3.4062    0.0000 C   0  0  0  0  0  0  0  0  0  0  0  0
   -7.4008    7.1162    0.0000 C   0  0  2  0  0  0  0  0  0  0  0  0
   -5.2849   -2.3626    0.0000 C   0  0  0  0  0  0  0  0  0  0  0  0
   -5.2849    0.0950    0.0000 C   0  0  0  0  0  0  0  0  0  0  0  0
   -5.9776    4.6302    0.0000 C   0  0  0  0  0  0  0  0  0  0  0  0
   -5.1710    5.0382    0.0000 O   0  0  0  0  0  0  0  0  0  0  0  0
   -6.6892    5.0571    0.0000 C   0  0  0  0  0  0  0  0  0  0  0  0
   -1.7459    7.9416    0.0000 C   0  0  2  0  0  0  0  0  0  0  0  0
   -4.5639    6.2811    0.0000 C   0  0  0  0  0  0  0  0  0  0  0  0
   -4.5639    7.1162    0.0000 C   0  0  1  0  0  0  0  0  0  0  0  0
   -5.9965    1.3283    0.0000 O   0  0  0  0  0  0  0  0  0  0  0  0
   -6.6892    5.8733    0.0000 C   0  0  0  0  0  0  0  0  0  0  0  0
   -5.2755    4.2128    0.0000 O   0  0  0  0  0  0  0  0  0  0  0  0
   -7.4008    6.2811    0.0000 C   0  0  2  0  0  0  0  0  0  0  0  0
   -5.9965   -0.3035    0.0000 C   0  0  0  0  0  0  0  0  0  0  0  0
   -4.5732   -0.3035    0.0000 C   0  0  0  0  0  0  0  0  0  0  0  0
   -5.2849   -1.5371    0.0000 C   0  0  0  0  0  0  0  0  0  0  0  0
   -5.2755    7.5336    0.0000 C   0  0  0  0  0  0  0  0  0  0  0  0
   -2.4384    9.1845    0.0000 C   0  0  2  0  0  0  0  0  0  0  0  0
   -8.1124    7.5336    0.0000 O   0  0  0  0  0  0  0  0  0  0  0  0
   -4.5639   -1.1290    0.0000 C   0  0  0  0  0  0  0  0  0  0  0  0
   -5.9965   -1.1290    0.0000 C   0  0  0  0  0  0  0  0  0  0  0  0
   -3.1500    2.1537    0.0000 C   0  0  0  0  0  0  0  0  0  0  0  0
   -6.6892    8.3590    0.0000 C   0  0  0  0  0  0  0  0  0  0  0  0
   -1.0152    8.3590    0.0000 C   0  0  0  0  0  0  0  0  0  0  0  0
   -8.1124    5.8826    0.0000 C   0  0  0  0  0  0  0  0  0  0  0  0
   -1.7459    9.5926    0.0000 C   0  0  0  0  0  0  0  0  0  0  0  0
   -3.1500    9.5926    0.0000 C   0  0  0  0  0  0  0  0  0  0  0  0
   -1.0152    9.1845    0.0000 C   0  0  0  0  0  0  0  0  0  0  0  0
   -1.7459    8.7767    0.0000 H   0  0  0  0  0  0  0  0  0  0  0  0
   -3.8616    6.6988    0.0000 H   0  0  0  0  0  0  0  0  0  0  0  0
   -4.5639    7.9416    0.0000 H   0  0  0  0  0  0  0  0  0  0  0  0
   -4.5639    2.9888    0.0000 H   0  0  0  0  0  0  0  0  0  0  0  0
   -5.2755    1.7363    0.0000 H   0  0  0  0  0  0  0  0  0  0  0  0
  2  1  1  0  0  0  0
  3  2  1  0  0  0  0
  4  1  1  0  0  0  0
  5 15  1  6  0  0  0
  6  1  1  0  0  0  0
  7  8  1  0  0  0  0
  8  6  2  0  0  0  0
  9  3  1  0  0  0  0
 10  2  1  0  0  0  0
  7 11  1  1  0  0  0
 12  5  1  0  0  0  0
 13  4  1  0  0  0  0
 14 11  1  0  0  0  0
 15 18  1  0  0  0  0
 16 33  1  0  0  0  0
 17 12  1  0  0  0  0
 18 13  1  0  0  0  0
 19  5  1  0  0  0  0
 20 23  2  0  0  0  0
 21 26  3  0  0  0  0
 22 19  2  0  0  0  0
 23 41  1  0  0  0  0
 24 10  1  0  0  0  0
 25 37  1  0  0  0  0
 26 40  1  0  0  0  0
 27 14  1  0  0  0  0
 28 10  2  0  0  0  0
 29  4  2  0  0  0  0
 30 28  1  0  0  0  0
 31 22  1  0  0  0  0
 32 18  1  0  0  0  0
 33 32  1  0  0  0  0
 34 14  2  0  0  0  0
 35 30  2  0  0  0  0
  2 36  1  6  0  0  0
 37 35  1  0  0  0  0
 38 27  2  0  0  0  0
 39 27  1  0  0  0  0
 40 44  1  0  0  0  0
 41 33  1  0  0  0  0
 42 17  1  0  0  0  0
 25 43  1  6  0  0  0
 44 39  2  0  0  0  0
 45 38  1  0  0  0  0
 46  8  1  0  0  0  0
 47 20  1  0  0  0  0
 31 48  1  1  0  0  0
 37 49  1  6  0  0  0
 50 42  1  0  0  0  0
 42 51  1  1  0  0  0
 52 50  1  0  0  0  0
 17 53  1  1  0  0  0
 18 54  1  6  0  0  0
 33 55  1  6  0  0  0
  1 56  1  1  0  0  0
  3 57  1  6  0  0  0
  3  7  1  0  0  0  0
  9 24  1  0  0  0  0
  5 16  1  1  0  0  0
 25 20  1  0  0  0  0
 40 45  2  0  0  0  0
 17 31  1  0  0  0  0
M  END
>  <IDNUMBER>
F6170-0243

>  <Chemical_Name>
(1'R,2S,4'S,5S,6R,8'R,10'E,12'S,13'S,14'E,16'E,20'R,21'R,24'S)-6-[(2S)-butan-2-yl]-12',24'-dihydroxy-5,11',13',22'-tetramethyl-2'-oxo-5,6-dihydro-3',7',19'-trioxaspiro[pyran-2,6'-tetracyclo[15.6.1.1?,?.0??,??]pentacosane]-10',14',16',22'-tetraen-21'-yl 4-cyanobenzoate

>  <PriceCoeff>
7.00

>  <MW>
713.87

>  <Description>
solid

>  <FSP3>
0.55

>  <clogP>
6.24

>  <TPSA>
144.54

>  <Acceptor>
10

>  <Donor>
2

>  <RotBonds>
5

>  <HAC>
52

$$$$
F6170-0244
  Mrv2219 10102508112D          

 60 65  0  0  0  0            999 V2000
    9.2615   -3.4087    0.0000 C   0  0  2  0  0  0  0  0  0  0  0  0
    8.5481   -3.8248    0.0000 C   0  0  1  0  0  0  0  0  0  0  0  0
    8.5481   -4.6440    0.0000 C   0  0  1  0  0  0  0  0  0  0  0  0
    9.2615   -2.5830    0.0000 C   0  0  0  0  0  0  0  0  0  0  0  0
   10.6751   -0.0991    0.0000 C   0  0  2  0  0  0  0  0  0  0  0  0
    9.9617   -3.8248    0.0000 C   0  0  0  0  0  0  0  0  0  0  0  0
    9.2615   -5.0667    0.0000 C   0  0  1  0  0  0  0  0  0  0  0  0
    9.9617   -4.6440    0.0000 C   0  0  0  0  0  0  0  0  0  0  0  0
    7.1343   -4.6440    0.0000 O   0  0  0  0  0  0  0  0  0  0  0  0
    7.8412   -3.4087    0.0000 C   0  0  0  0  0  0  0  0  0  0  0  0
    9.2615   -5.8926    0.0000 O   0  0  0  0  0  0  0  0  0  0  0  0
   10.6751    0.7333    0.0000 O   0  0  0  0  0  0  0  0  0  0  0  0
    9.9617   -2.1602    0.0000 O   0  0  0  0  0  0  0  0  0  0  0  0
    8.5415   -6.3020    0.0000 C   0  0  0  0  0  0  0  0  0  0  0  0
   10.6751   -0.9315    0.0000 C   0  0  0  0  0  0  0  0  0  0  0  0
    9.9617    0.3171    0.0000 O   0  0  0  0  0  0  0  0  0  0  0  0
    6.4078   -0.0991    0.0000 C   0  0  1  0  0  0  0  0  0  0  0  0
   11.3885    1.1494    0.0000 C   0  0  1  0  0  0  0  0  0  0  0  0
    9.9617   -1.3409    0.0000 C   0  0  2  0  0  0  0  0  0  0  0  0
    7.1343    0.3171    0.0000 C   0  0  0  0  0  0  0  0  0  0  0  0
   11.3885   -0.5021    0.0000 C   0  0  0  0  0  0  0  0  0  0  0  0
    7.8280  -10.0013    0.0000 N   0  0  0  0  0  0  0  0  0  0  0  0
   12.0888   -0.0991    0.0000 C   0  0  0  0  0  0  0  0  0  0  0  0
    7.8412   -0.0991    0.0000 C   0  0  0  0  0  0  0  0  0  0  0  0
    5.7075    0.3171    0.0000 O   0  0  0  0  0  0  0  0  0  0  0  0
    7.1343   -3.8248    0.0000 C   0  0  0  0  0  0  0  0  0  0  0  0
    8.5415   -9.5917    0.0000 C   0  0  0  0  0  0  0  0  0  0  0  0
    4.9874   -0.0859    0.0000 C   0  0  0  0  0  0  0  0  0  0  0  0
    8.5415   -7.1277    0.0000 C   0  0  0  0  0  0  0  0  0  0  0  0
    7.8412   -2.5830    0.0000 C   0  0  0  0  0  0  0  0  0  0  0  0
    8.6472   -2.1800    0.0000 O   0  0  0  0  0  0  0  0  0  0  0  0
    7.1343   -2.1602    0.0000 C   0  0  0  0  0  0  0  0  0  0  0  0
   12.0888    0.7333    0.0000 C   0  0  2  0  0  0  0  0  0  0  0  0
    9.2615   -0.9315    0.0000 C   0  0  0  0  0  0  0  0  0  0  0  0
    9.2615   -0.0991    0.0000 C   0  0  1  0  0  0  0  0  0  0  0  0
    7.8280   -5.8926    0.0000 O   0  0  0  0  0  0  0  0  0  0  0  0
    6.4078   -0.9315    0.0000 C   0  0  2  0  0  0  0  0  0  0  0  0
    7.1343   -1.3409    0.0000 C   0  0  0  0  0  0  0  0  0  0  0  0
    8.5481   -2.9991    0.0000 O   0  0  0  0  0  0  0  0  0  0  0  0
    4.9809   -0.9050    0.0000 O   0  0  0  0  0  0  0  0  0  0  0  0
    7.8280   -7.5307    0.0000 C   0  0  0  0  0  0  0  0  0  0  0  0
    9.2549   -7.5307    0.0000 C   0  0  0  0  0  0  0  0  0  0  0  0
    8.5415   -8.7661    0.0000 C   0  0  0  0  0  0  0  0  0  0  0  0
    8.5481    0.3171    0.0000 C   0  0  0  0  0  0  0  0  0  0  0  0
   11.3885    1.9818    0.0000 C   0  0  2  0  0  0  0  0  0  0  0  0
    9.2615   -8.3564    0.0000 C   0  0  0  0  0  0  0  0  0  0  0  0
    7.8280   -8.3564    0.0000 C   0  0  0  0  0  0  0  0  0  0  0  0
   10.6751   -5.0667    0.0000 C   0  0  0  0  0  0  0  0  0  0  0  0
    7.1343    1.1494    0.0000 C   0  0  0  0  0  0  0  0  0  0  0  0
    4.2806    0.3302    0.0000 C   0  0  0  0  0  0  0  0  0  0  0  0
   12.8089    1.1494    0.0000 C   0  0  0  0  0  0  0  0  0  0  0  0
    5.7075   -1.3344    0.0000 C   0  0  0  0  0  0  0  0  0  0  0  0
   12.0888    2.3848    0.0000 C   0  0  0  0  0  0  0  0  0  0  0  0
   10.6686    2.3848    0.0000 C   0  0  0  0  0  0  0  0  0  0  0  0
   12.8089    1.9818    0.0000 C   0  0  0  0  0  0  0  0  0  0  0  0
    9.2615   -4.2278    0.0000 H   0  0  0  0  0  0  0  0  0  0  0  0
    8.5481   -5.4763    0.0000 H   0  0  0  0  0  0  0  0  0  0  0  0
   12.0888    1.5589    0.0000 H   0  0  0  0  0  0  0  0  0  0  0  0
    9.9617   -0.5152    0.0000 H   0  0  0  0  0  0  0  0  0  0  0  0
    9.2615    0.7333    0.0000 H   0  0  0  0  0  0  0  0  0  0  0  0
  2  1  1  0  0  0  0
  3  2  1  0  0  0  0
  4  1  1  0  0  0  0
  5 15  1  6  0  0  0
  6  1  1  0  0  0  0
  7  8  1  0  0  0  0
  8  6  2  0  0  0  0
  9  3  1  0  0  0  0
 10  2  1  0  0  0  0
  7 11  1  1  0  0  0
 12  5  1  0  0  0  0
 13  4  1  0  0  0  0
 14 11  1  0  0  0  0
 15 19  1  0  0  0  0
 16 35  1  0  0  0  0
 17 37  1  0  0  0  0
 18 12  1  0  0  0  0
 19 13  1  0  0  0  0
 20 24  2  0  0  0  0
 21  5  1  0  0  0  0
 22 27  3  0  0  0  0
 23 21  2  0  0  0  0
 24 44  1  0  0  0  0
 17 25  1  6  0  0  0
 26 10  1  0  0  0  0
 27 43  1  0  0  0  0
 28 25  1  0  0  0  0
 29 14  1  0  0  0  0
 30 10  2  0  0  0  0
 31  4  2  0  0  0  0
 32 30  1  0  0  0  0
 33 18  1  0  0  0  0
 34 19  1  0  0  0  0
 35 34  1  0  0  0  0
 36 14  2  0  0  0  0
 37 38  1  0  0  0  0
 38 32  2  0  0  0  0
  2 39  1  6  0  0  0
 40 28  2  0  0  0  0
 41 29  2  0  0  0  0
 42 29  1  0  0  0  0
 43 46  1  0  0  0  0
 44 35  1  0  0  0  0
 45 18  1  0  0  0  0
 46 42  2  0  0  0  0
 47 41  1  0  0  0  0
 48  8  1  0  0  0  0
 49 20  1  0  0  0  0
 50 28  1  0  0  0  0
 33 51  1  1  0  0  0
 37 52  1  6  0  0  0
 53 45  1  0  0  0  0
 45 54  1  1  0  0  0
 55 53  1  0  0  0  0
  1 56  1  1  0  0  0
  3 57  1  6  0  0  0
 18 58  1  1  0  0  0
 19 59  1  6  0  0  0
 35 60  1  6  0  0  0
  3  7  1  0  0  0  0
  9 26  1  0  0  0  0
  5 16  1  1  0  0  0
 43 47  2  0  0  0  0
 17 20  1  0  0  0  0
 23 33  1  0  0  0  0
M  END
>  <IDNUMBER>
F6170-0244

>  <Chemical_Name>
(1'R,2S,4'S,5S,6R,8'R,10'E,12'S,13'S,14'E,16'E,20'R,21'R,24'S)-12'-(acetyloxy)-6-[(2S)-butan-2-yl]-24'-hydroxy-5,11',13',22'-tetramethyl-2'-oxo-5,6-dihydro-3',7',19'-trioxaspiro[pyran-2,6'-tetracyclo[15.6.1.1?,?.0??,??]pentacosane]-10',14',16',22'-tetraen-21'-yl 4-cyanobenzoate

>  <PriceCoeff>
7.00

>  <MW>
755.91

>  <Description>
solid

>  <FSP3>
0.55

>  <clogP>
7.18

>  <TPSA>
150.61

>  <Acceptor>
11

>  <Donor>
1

>  <RotBonds>
7

>  <HAC>
55

$$$$
F6170-0245
  Mrv2219 10102508112D          

 67 73  0  0  0  0            999 V2000
    9.2864   -3.4178    0.0000 C   0  0  2  0  0  0  0  0  0  0  0  0
    8.5711   -3.8351    0.0000 C   0  0  1  0  0  0  0  0  0  0  0  0
    8.5711   -4.6565    0.0000 C   0  0  1  0  0  0  0  0  0  0  0  0
    9.2864   -2.5899    0.0000 C   0  0  0  0  0  0  0  0  0  0  0  0
   10.7038   -0.0994    0.0000 C   0  0  2  0  0  0  0  0  0  0  0  0
    9.9885   -3.8351    0.0000 C   0  0  0  0  0  0  0  0  0  0  0  0
    9.2864   -5.0803    0.0000 C   0  0  1  0  0  0  0  0  0  0  0  0
    9.9885   -4.6565    0.0000 C   0  0  0  0  0  0  0  0  0  0  0  0
    7.1536   -4.6565    0.0000 O   0  0  0  0  0  0  0  0  0  0  0  0
    7.8622   -3.4178    0.0000 C   0  0  0  0  0  0  0  0  0  0  0  0
    9.2864   -5.9083    0.0000 O   0  0  0  0  0  0  0  0  0  0  0  0
   10.7038    0.7352    0.0000 O   0  0  0  0  0  0  0  0  0  0  0  0
    5.7229    0.3180    0.0000 O   0  0  0  0  0  0  0  0  0  0  0  0
    9.9885   -2.1660    0.0000 O   0  0  0  0  0  0  0  0  0  0  0  0
    8.5644   -6.3190    0.0000 C   0  0  0  0  0  0  0  0  0  0  0  0
    5.0008   -0.0862    0.0000 C   0  0  0  0  0  0  0  0  0  0  0  0
    6.4250   -0.0994    0.0000 C   0  0  2  0  0  0  0  0  0  0  0  0
   10.7038   -0.9339    0.0000 C   0  0  0  0  0  0  0  0  0  0  0  0
    9.9885    0.3180    0.0000 O   0  0  0  0  0  0  0  0  0  0  0  0
   11.4192    1.1526    0.0000 C   0  0  1  0  0  0  0  0  0  0  0  0
    9.9885   -1.3445    0.0000 C   0  0  2  0  0  0  0  0  0  0  0  0
    7.1536    0.3180    0.0000 C   0  0  0  0  0  0  0  0  0  0  0  0
   11.4192   -0.5034    0.0000 C   0  0  0  0  0  0  0  0  0  0  0  0
    7.8490  -10.0282    0.0000 N   0  0  0  0  0  0  0  0  0  0  0  0
    2.1727    2.4110    0.0000 N   0  0  0  0  0  0  0  0  0  0  0  0
   12.1213   -0.0994    0.0000 C   0  0  0  0  0  0  0  0  0  0  0  0
    7.8622   -0.0994    0.0000 C   0  0  0  0  0  0  0  0  0  0  0  0
    7.1536   -3.8351    0.0000 C   0  0  0  0  0  0  0  0  0  0  0  0
    2.1727    1.5830    0.0000 C   0  0  0  0  0  0  0  0  0  0  0  0
    8.5644   -9.6176    0.0000 C   0  0  0  0  0  0  0  0  0  0  0  0
    8.5644   -7.1469    0.0000 C   0  0  0  0  0  0  0  0  0  0  0  0
    4.2921    0.3312    0.0000 C   0  0  0  0  0  0  0  0  0  0  0  0
    7.8622   -2.5899    0.0000 C   0  0  0  0  0  0  0  0  0  0  0  0
    8.6704   -2.1859    0.0000 O   0  0  0  0  0  0  0  0  0  0  0  0
    7.1536   -2.1660    0.0000 C   0  0  0  0  0  0  0  0  0  0  0  0
   12.1213    0.7352    0.0000 C   0  0  2  0  0  0  0  0  0  0  0  0
    9.2864   -0.9339    0.0000 C   0  0  0  0  0  0  0  0  0  0  0  0
    9.2864   -0.0994    0.0000 C   0  0  1  0  0  0  0  0  0  0  0  0
    7.8490   -5.9083    0.0000 O   0  0  0  0  0  0  0  0  0  0  0  0
    4.9943   -0.9074    0.0000 O   0  0  0  0  0  0  0  0  0  0  0  0
    6.4250   -0.9339    0.0000 C   0  0  2  0  0  0  0  0  0  0  0  0
    7.1536   -1.3445    0.0000 C   0  0  0  0  0  0  0  0  0  0  0  0
    8.5711   -3.0072    0.0000 O   0  0  0  0  0  0  0  0  0  0  0  0
    4.3053    1.1592    0.0000 C   0  0  0  0  0  0  0  0  0  0  0  0
    3.5835   -0.0728    0.0000 C   0  0  0  0  0  0  0  0  0  0  0  0
    9.2797   -7.5509    0.0000 C   0  0  0  0  0  0  0  0  0  0  0  0
    7.8490   -7.5509    0.0000 C   0  0  0  0  0  0  0  0  0  0  0  0
    2.8813    1.1657    0.0000 C   0  0  0  0  0  0  0  0  0  0  0  0
    8.5644   -8.7897    0.0000 C   0  0  0  0  0  0  0  0  0  0  0  0
    8.5711    0.3180    0.0000 C   0  0  0  0  0  0  0  0  0  0  0  0
   11.4192    1.9871    0.0000 C   0  0  2  0  0  0  0  0  0  0  0  0
    2.8746    0.3445    0.0000 C   0  0  0  0  0  0  0  0  0  0  0  0
    7.8490   -8.3789    0.0000 C   0  0  0  0  0  0  0  0  0  0  0  0
    3.5967    1.5765    0.0000 C   0  0  0  0  0  0  0  0  0  0  0  0
    9.2864   -8.3789    0.0000 C   0  0  0  0  0  0  0  0  0  0  0  0
   10.7038   -5.0803    0.0000 C   0  0  0  0  0  0  0  0  0  0  0  0
    7.1536    1.1526    0.0000 C   0  0  0  0  0  0  0  0  0  0  0  0
   12.8433    1.1526    0.0000 C   0  0  0  0  0  0  0  0  0  0  0  0
    5.7229   -1.3380    0.0000 C   0  0  0  0  0  0  0  0  0  0  0  0
   12.1213    2.3912    0.0000 C   0  0  0  0  0  0  0  0  0  0  0  0
   10.6973    2.3912    0.0000 C   0  0  0  0  0  0  0  0  0  0  0  0
   12.8433    1.9871    0.0000 C   0  0  0  0  0  0  0  0  0  0  0  0
   12.1213    1.5631    0.0000 H   0  0  0  0  0  0  0  0  0  0  0  0
    9.9885   -0.5166    0.0000 H   0  0  0  0  0  0  0  0  0  0  0  0
    9.2864    0.7352    0.0000 H   0  0  0  0  0  0  0  0  0  0  0  0
    9.2864   -4.2392    0.0000 H   0  0  0  0  0  0  0  0  0  0  0  0
    8.5711   -5.4911    0.0000 H   0  0  0  0  0  0  0  0  0  0  0  0
  2  1  1  0  0  0  0
  3  2  1  0  0  0  0
  4  1  1  0  0  0  0
  5 18  1  6  0  0  0
  6  1  1  0  0  0  0
  7  8  1  0  0  0  0
  8  6  2  0  0  0  0
  9  3  1  0  0  0  0
 10  2  1  0  0  0  0
  7 11  1  1  0  0  0
 12  5  1  0  0  0  0
 17 13  1  6  0  0  0
 14  4  1  0  0  0  0
 15 11  1  0  0  0  0
 16 13  1  0  0  0  0
 17 41  1  0  0  0  0
 18 21  1  0  0  0  0
  5 19  1  1  0  0  0
 20 12  1  0  0  0  0
 21 14  1  0  0  0  0
 22 27  2  0  0  0  0
 23  5  1  0  0  0  0
 24 30  3  0  0  0  0
 25 29  3  0  0  0  0
 26 23  2  0  0  0  0
 27 50  1  0  0  0  0
 28 10  1  0  0  0  0
 29 48  1  0  0  0  0
 30 49  1  0  0  0  0
 31 15  1  0  0  0  0
 32 16  1  0  0  0  0
 33 10  2  0  0  0  0
 34  4  2  0  0  0  0
 35 33  1  0  0  0  0
 36 26  1  0  0  0  0
 37 21  1  0  0  0  0
 38 37  1  0  0  0  0
 39 15  2  0  0  0  0
 40 16  2  0  0  0  0
 41 42  1  0  0  0  0
 42 35  2  0  0  0  0
  2 43  1  6  0  0  0
 44 32  2  0  0  0  0
 45 32  1  0  0  0  0
 46 31  1  0  0  0  0
 47 31  2  0  0  0  0
 48 52  1  0  0  0  0
 49 55  1  0  0  0  0
 50 38  1  0  0  0  0
 51 20  1  0  0  0  0
 52 45  2  0  0  0  0
 53 47  1  0  0  0  0
 54 44  1  0  0  0  0
 55 46  2  0  0  0  0
 56  8  1  0  0  0  0
 57 22  1  0  0  0  0
 36 58  1  1  0  0  0
 41 59  1  6  0  0  0
 60 51  1  0  0  0  0
 51 61  1  1  0  0  0
 62 60  1  0  0  0  0
 20 63  1  1  0  0  0
 21 64  1  6  0  0  0
 38 65  1  6  0  0  0
  1 66  1  1  0  0  0
  3 67  1  6  0  0  0
  3  7  1  0  0  0  0
  9 28  1  0  0  0  0
 38 19  1  0  0  0  0
 49 53  2  0  0  0  0
 20 36  1  0  0  0  0
 17 22  1  0  0  0  0
 48 54  2  0  0  0  0
M  END
>  <IDNUMBER>
F6170-0245

>  <Chemical_Name>
(1'R,2S,4'S,5S,6R,8'R,10'E,12'S,13'S,14'E,16'E,20'R,21'R,24'S)-6-[(2S)-butan-2-yl]-12'-(4-cyanobenzoyloxy)-24'-hydroxy-5,11',13',22'-tetramethyl-2'-oxo-5,6-dihydro-3',7',19'-trioxaspiro[pyran-2,6'-tetracyclo[15.6.1.1?,?.0??,??]pentacosane]-10',14',16',22'-tetraen-21'-yl 4-cyanobenzoate

>  <PriceCoeff>
7.00

>  <MW>
842.99

>  <Description>
solid

>  <FSP3>
0.46

>  <clogP>
8.55

>  <TPSA>
174.40

>  <Acceptor>
12

>  <Donor>
1

>  <RotBonds>
8

>  <HAC>
62

$$$$
F6170-0246
  Mrv2219 10102508112D          

 61 67  0  0  0  0            999 V2000
   12.0427    1.3524    0.0000 C   0  0  2  0  0  0  0  0  0  0  0  0
   11.3381    0.9233    0.0000 C   0  0  1  0  0  0  0  0  0  0  0  0
   11.3381    0.0972    0.0000 C   0  0  1  0  0  0  0  0  0  0  0  0
   12.0427    2.1785    0.0000 C   0  0  0  0  0  0  0  0  0  0  0  0
   13.4439    4.6973    0.0000 C   0  0  2  0  0  0  0  0  0  0  0  0
   12.7393    0.9233    0.0000 C   0  0  0  0  0  0  0  0  0  0  0  0
   12.0427   -0.3320    0.0000 C   0  0  1  0  0  0  0  0  0  0  0  0
   12.7393    0.0972    0.0000 C   0  0  0  0  0  0  0  0  0  0  0  0
    9.9453    0.0972    0.0000 O   0  0  0  0  0  0  0  0  0  0  0  0
   10.6417    1.3524    0.0000 C   0  0  0  0  0  0  0  0  0  0  0  0
   12.0427   -1.1662    0.0000 O   0  0  0  0  0  0  0  0  0  0  0  0
   13.4439    5.5313    0.0000 O   0  0  0  0  0  0  0  0  0  0  0  0
   12.7393    2.6078    0.0000 O   0  0  0  0  0  0  0  0  0  0  0  0
   11.3301   -1.5792    0.0000 C   0  0  0  0  0  0  0  0  0  0  0  0
   13.4439    3.8631    0.0000 C   0  0  0  0  0  0  0  0  0  0  0  0
   12.7393    5.1183    0.0000 O   0  0  0  0  0  0  0  0  0  0  0  0
   14.1403    5.9525    0.0000 C   0  0  1  0  0  0  0  0  0  0  0  0
   12.7393    3.4419    0.0000 C   0  0  2  0  0  0  0  0  0  0  0  0
   14.1403    4.2843    0.0000 C   0  0  0  0  0  0  0  0  0  0  0  0
    9.9453    5.1183    0.0000 C   0  0  0  0  0  0  0  0  0  0  0  0
   14.8367    4.6973    0.0000 C   0  0  0  0  0  0  0  0  0  0  0  0
   10.6417    4.6973    0.0000 C   0  0  0  0  0  0  0  0  0  0  0  0
    9.9453    0.9233    0.0000 C   0  0  0  0  0  0  0  0  0  0  0  0
    9.2325    4.6973    0.0000 C   0  0  2  0  0  0  0  0  0  0  0  0
   11.3301   -2.4135    0.0000 C   0  0  0  0  0  0  0  0  0  0  0  0
   10.6417    2.1785    0.0000 C   0  0  0  0  0  0  0  0  0  0  0  0
   11.4435    2.5915    0.0000 O   0  0  0  0  0  0  0  0  0  0  0  0
    9.9453    2.6078    0.0000 C   0  0  0  0  0  0  0  0  0  0  0  0
   14.8367    5.5313    0.0000 C   0  0  2  0  0  0  0  0  0  0  0  0
   12.0427    3.8631    0.0000 C   0  0  0  0  0  0  0  0  0  0  0  0
   12.0427    4.6973    0.0000 C   0  0  1  0  0  0  0  0  0  0  0  0
   10.6255   -1.1662    0.0000 O   0  0  0  0  0  0  0  0  0  0  0  0
   11.3301   -4.0736    0.0000 C   0  0  0  0  0  0  0  0  0  0  0  0
    9.9453    3.4419    0.0000 C   0  0  0  0  0  0  0  0  0  0  0  0
   11.3381    1.7654    0.0000 O   0  0  0  0  0  0  0  0  0  0  0  0
    9.2325    3.8631    0.0000 C   0  0  2  0  0  0  0  0  0  0  0  0
   10.6255   -2.8183    0.0000 C   0  0  0  0  0  0  0  0  0  0  0  0
   12.0347   -2.8183    0.0000 C   0  0  0  0  0  0  0  0  0  0  0  0
   12.0427   -3.6526    0.0000 C   0  0  0  0  0  0  0  0  0  0  0  0
   10.6255   -3.6526    0.0000 C   0  0  0  0  0  0  0  0  0  0  0  0
   11.3301   -4.9078    0.0000 C   0  0  0  0  0  0  0  0  0  0  0  0
   11.3381    5.1183    0.0000 C   0  0  0  0  0  0  0  0  0  0  0  0
   14.1403    6.7947    0.0000 C   0  0  2  0  0  0  0  0  0  0  0  0
    8.5361    5.1183    0.0000 O   0  0  0  0  0  0  0  0  0  0  0  0
   13.4439   -0.3320    0.0000 C   0  0  0  0  0  0  0  0  0  0  0  0
    9.9453    5.9687    0.0000 C   0  0  0  0  0  0  0  0  0  0  0  0
   15.5495    5.9687    0.0000 C   0  0  0  0  0  0  0  0  0  0  0  0
   10.6255   -5.3208    0.0000 C   0  0  0  0  0  0  0  0  0  0  0  0
   12.0347   -5.3208    0.0000 C   0  0  0  0  0  0  0  0  0  0  0  0
    8.5361    3.4419    0.0000 C   0  0  0  0  0  0  0  0  0  0  0  0
   14.8367    7.2078    0.0000 C   0  0  0  0  0  0  0  0  0  0  0  0
   13.4439    7.2078    0.0000 C   0  0  0  0  0  0  0  0  0  0  0  0
   15.5495    6.7947    0.0000 C   0  0  0  0  0  0  0  0  0  0  0  0
   12.0427   -6.1469    0.0000 C   0  0  0  0  0  0  0  0  0  0  0  0
   10.6255   -6.1551    0.0000 C   0  0  0  0  0  0  0  0  0  0  0  0
   11.3381   -6.5681    0.0000 C   0  0  0  0  0  0  0  0  0  0  0  0
   11.3381   -0.7532    0.0000 H   0  0  0  0  0  0  0  0  0  0  0  0
   14.8367    6.3737    0.0000 H   0  0  0  0  0  0  0  0  0  0  0  0
   12.7393    4.2761    0.0000 H   0  0  0  0  0  0  0  0  0  0  0  0
   12.0427    5.5313    0.0000 H   0  0  0  0  0  0  0  0  0  0  0  0
   12.0427    0.5102    0.0000 H   0  0  0  0  0  0  0  0  0  0  0  0
  2  1  1  0  0  0  0
  3  2  1  0  0  0  0
  4  1  1  0  0  0  0
  5 15  1  6  0  0  0
  6  1  1  0  0  0  0
  7  8  1  0  0  0  0
  8  6  2  0  0  0  0
  9  3  1  0  0  0  0
 10  2  1  0  0  0  0
  7 11  1  1  0  0  0
 12  5  1  0  0  0  0
 13  4  1  0  0  0  0
 14 11  1  0  0  0  0
 15 18  1  0  0  0  0
  5 16  1  1  0  0  0
 17 12  1  0  0  0  0
 18 13  1  0  0  0  0
 19  5  1  0  0  0  0
 20 22  2  0  0  0  0
 21 19  2  0  0  0  0
 22 42  1  0  0  0  0
 23 10  1  0  0  0  0
 24 36  1  0  0  0  0
 25 14  1  0  0  0  0
 26 10  2  0  0  0  0
 27  4  2  0  0  0  0
 28 26  1  0  0  0  0
 29 17  1  0  0  0  0
 30 18  1  0  0  0  0
 31 30  1  0  0  0  0
 32 14  2  0  0  0  0
 33 39  1  0  0  0  0
 34 28  2  0  0  0  0
  2 35  1  6  0  0  0
 36 34  1  0  0  0  0
 37 25  2  0  0  0  0
 38 25  1  0  0  0  0
 39 38  2  0  0  0  0
 40 37  1  0  0  0  0
 41 33  1  0  0  0  0
 42 31  1  0  0  0  0
 43 17  1  0  0  0  0
 24 44  1  6  0  0  0
 45  8  1  0  0  0  0
 46 20  1  0  0  0  0
 29 47  1  1  0  0  0
 48 41  2  0  0  0  0
 49 41  1  0  0  0  0
 36 50  1  6  0  0  0
 51 43  1  0  0  0  0
 43 52  1  1  0  0  0
 53 51  1  0  0  0  0
 54 49  2  0  0  0  0
 55 48  1  0  0  0  0
 56 54  1  0  0  0  0
  3 57  1  6  0  0  0
 17 58  1  1  0  0  0
 18 59  1  6  0  0  0
 31 60  1  6  0  0  0
  1 61  1  1  0  0  0
  3  7  1  0  0  0  0
  9 23  1  0  0  0  0
 31 16  1  0  0  0  0
 24 20  1  0  0  0  0
 33 40  2  0  0  0  0
 21 29  1  0  0  0  0
 56 55  2  0  0  0  0
M  END
>  <IDNUMBER>
F6170-0246

>  <Chemical_Name>
(1'R,2S,4'S,5S,6R,8'R,10'E,12'S,13'S,14'E,16'E,20'R,21'R,24'S)-6-[(2S)-butan-2-yl]-12',24'-dihydroxy-5,11',13',22'-tetramethyl-2'-oxo-5,6-dihydro-3',7',19'-trioxaspiro[pyran-2,6'-tetracyclo[15.6.1.1?,?.0??,??]pentacosane]-10',14',16',22'-tetraen-21'-yl [1,1'-biphenyl]-4-carboxylate

>  <PriceCoeff>
7.00

>  <MW>
764.96

>  <Description>
solid

>  <FSP3>
0.49

>  <clogP>
8.69

>  <TPSA>
120.75

>  <Acceptor>
9

>  <Donor>
2

>  <RotBonds>
6

>  <HAC>
56

$$$$
F6170-0247
  Mrv2219 10102508112D          

 64 70  0  0  0  0            999 V2000
    9.2615   -3.4087    0.0000 C   0  0  2  0  0  0  0  0  0  0  0  0
    8.5481   -3.8248    0.0000 C   0  0  1  0  0  0  0  0  0  0  0  0
    8.5481   -4.6440    0.0000 C   0  0  1  0  0  0  0  0  0  0  0  0
    9.2615   -2.5830    0.0000 C   0  0  0  0  0  0  0  0  0  0  0  0
   10.6751   -0.0991    0.0000 C   0  0  2  0  0  0  0  0  0  0  0  0
    9.9617   -3.8248    0.0000 C   0  0  0  0  0  0  0  0  0  0  0  0
    9.2615   -5.0667    0.0000 C   0  0  1  0  0  0  0  0  0  0  0  0
    9.9617   -4.6440    0.0000 C   0  0  0  0  0  0  0  0  0  0  0  0
    7.1343   -4.6440    0.0000 O   0  0  0  0  0  0  0  0  0  0  0  0
    7.8412   -3.4087    0.0000 C   0  0  0  0  0  0  0  0  0  0  0  0
    9.2615   -5.8926    0.0000 O   0  0  0  0  0  0  0  0  0  0  0  0
   10.6751    0.7333    0.0000 O   0  0  0  0  0  0  0  0  0  0  0  0
    9.9617   -2.1602    0.0000 O   0  0  0  0  0  0  0  0  0  0  0  0
    8.5415   -6.3020    0.0000 C   0  0  0  0  0  0  0  0  0  0  0  0
   10.6751   -0.9315    0.0000 C   0  0  0  0  0  0  0  0  0  0  0  0
    9.9617    0.3171    0.0000 O   0  0  0  0  0  0  0  0  0  0  0  0
    6.4078   -0.0991    0.0000 C   0  0  1  0  0  0  0  0  0  0  0  0
   11.3885    1.1494    0.0000 C   0  0  1  0  0  0  0  0  0  0  0  0
    9.9617   -1.3409    0.0000 C   0  0  2  0  0  0  0  0  0  0  0  0
    7.1343    0.3171    0.0000 C   0  0  0  0  0  0  0  0  0  0  0  0
   11.3885   -0.5021    0.0000 C   0  0  0  0  0  0  0  0  0  0  0  0
   12.0888   -0.0991    0.0000 C   0  0  0  0  0  0  0  0  0  0  0  0
    7.8412   -0.0991    0.0000 C   0  0  0  0  0  0  0  0  0  0  0  0
    5.7075    0.3171    0.0000 O   0  0  0  0  0  0  0  0  0  0  0  0
    7.1343   -3.8248    0.0000 C   0  0  0  0  0  0  0  0  0  0  0  0
    8.5415   -7.1277    0.0000 C   0  0  0  0  0  0  0  0  0  0  0  0
    4.9874   -0.0859    0.0000 C   0  0  0  0  0  0  0  0  0  0  0  0
    7.8412   -2.5830    0.0000 C   0  0  0  0  0  0  0  0  0  0  0  0
    8.6472   -2.1800    0.0000 O   0  0  0  0  0  0  0  0  0  0  0  0
    7.1343   -2.1602    0.0000 C   0  0  0  0  0  0  0  0  0  0  0  0
   12.0888    0.7333    0.0000 C   0  0  2  0  0  0  0  0  0  0  0  0
    9.2615   -0.9315    0.0000 C   0  0  0  0  0  0  0  0  0  0  0  0
    9.2615   -0.0991    0.0000 C   0  0  1  0  0  0  0  0  0  0  0  0
    7.8280   -5.8926    0.0000 O   0  0  0  0  0  0  0  0  0  0  0  0
    8.5415   -8.7661    0.0000 C   0  0  0  0  0  0  0  0  0  0  0  0
    6.4078   -0.9315    0.0000 C   0  0  2  0  0  0  0  0  0  0  0  0
    7.1343   -1.3409    0.0000 C   0  0  0  0  0  0  0  0  0  0  0  0
    8.5481   -2.9991    0.0000 O   0  0  0  0  0  0  0  0  0  0  0  0
    4.9809   -0.9050    0.0000 O   0  0  0  0  0  0  0  0  0  0  0  0
    7.8280   -7.5307    0.0000 C   0  0  0  0  0  0  0  0  0  0  0  0
    9.2549   -7.5307    0.0000 C   0  0  0  0  0  0  0  0  0  0  0  0
    9.2615   -8.3564    0.0000 C   0  0  0  0  0  0  0  0  0  0  0  0
    7.8280   -8.3564    0.0000 C   0  0  0  0  0  0  0  0  0  0  0  0
    8.5415   -9.5917    0.0000 C   0  0  0  0  0  0  0  0  0  0  0  0
    8.5481    0.3171    0.0000 C   0  0  0  0  0  0  0  0  0  0  0  0
   11.3885    1.9818    0.0000 C   0  0  2  0  0  0  0  0  0  0  0  0
   10.6751   -5.0667    0.0000 C   0  0  0  0  0  0  0  0  0  0  0  0
    7.1343    1.1494    0.0000 C   0  0  0  0  0  0  0  0  0  0  0  0
    4.2806    0.3302    0.0000 C   0  0  0  0  0  0  0  0  0  0  0  0
   12.8089    1.1494    0.0000 C   0  0  0  0  0  0  0  0  0  0  0  0
    7.8280  -10.0013    0.0000 C   0  0  0  0  0  0  0  0  0  0  0  0
    9.2549  -10.0013    0.0000 C   0  0  0  0  0  0  0  0  0  0  0  0
    5.7075   -1.3344    0.0000 C   0  0  0  0  0  0  0  0  0  0  0  0
   12.0888    2.3848    0.0000 C   0  0  0  0  0  0  0  0  0  0  0  0
   10.6686    2.3848    0.0000 C   0  0  0  0  0  0  0  0  0  0  0  0
   12.8089    1.9818    0.0000 C   0  0  0  0  0  0  0  0  0  0  0  0
    9.2615  -10.8204    0.0000 C   0  0  0  0  0  0  0  0  0  0  0  0
    7.8280  -10.8271    0.0000 C   0  0  0  0  0  0  0  0  0  0  0  0
    8.5481  -11.2367    0.0000 C   0  0  0  0  0  0  0  0  0  0  0  0
    9.2615    0.7333    0.0000 H   0  0  0  0  0  0  0  0  0  0  0  0
    9.2615   -4.2278    0.0000 H   0  0  0  0  0  0  0  0  0  0  0  0
    8.5481   -5.4763    0.0000 H   0  0  0  0  0  0  0  0  0  0  0  0
   12.0888    1.5589    0.0000 H   0  0  0  0  0  0  0  0  0  0  0  0
    9.9617   -0.5152    0.0000 H   0  0  0  0  0  0  0  0  0  0  0  0
  2  1  1  0  0  0  0
  3  2  1  0  0  0  0
  4  1  1  0  0  0  0
  5 15  1  6  0  0  0
  6  1  1  0  0  0  0
  7  8  1  0  0  0  0
  8  6  2  0  0  0  0
  9  3  1  0  0  0  0
 10  2  1  0  0  0  0
  7 11  1  1  0  0  0
 12  5  1  0  0  0  0
 13  4  1  0  0  0  0
 14 11  1  0  0  0  0
 15 19  1  0  0  0  0
  5 16  1  1  0  0  0
 17 36  1  0  0  0  0
 18 12  1  0  0  0  0
 19 13  1  0  0  0  0
 20 23  2  0  0  0  0
 21  5  1  0  0  0  0
 22 21  2  0  0  0  0
 23 45  1  0  0  0  0
 17 24  1  6  0  0  0
 25 10  1  0  0  0  0
 26 14  1  0  0  0  0
 27 24  1  0  0  0  0
 28 10  2  0  0  0  0
 29  4  2  0  0  0  0
 30 28  1  0  0  0  0
 31 18  1  0  0  0  0
 32 19  1  0  0  0  0
 33 32  1  0  0  0  0
 34 14  2  0  0  0  0
 35 42  1  0  0  0  0
 36 37  1  0  0  0  0
 37 30  2  0  0  0  0
  2 38  1  6  0  0  0
 39 27  2  0  0  0  0
 40 26  2  0  0  0  0
 41 26  1  0  0  0  0
 42 41  2  0  0  0  0
 43 40  1  0  0  0  0
 44 35  1  0  0  0  0
 45 33  1  0  0  0  0
 46 18  1  0  0  0  0
 47  8  1  0  0  0  0
 48 20  1  0  0  0  0
 49 27  1  0  0  0  0
 31 50  1  1  0  0  0
 51 44  2  0  0  0  0
 52 44  1  0  0  0  0
 36 53  1  6  0  0  0
 54 46  1  0  0  0  0
 46 55  1  1  0  0  0
 56 54  1  0  0  0  0
 57 52  2  0  0  0  0
 58 51  1  0  0  0  0
 59 57  1  0  0  0  0
 33 60  1  6  0  0  0
  1 61  1  1  0  0  0
  3 62  1  6  0  0  0
 18 63  1  1  0  0  0
 19 64  1  6  0  0  0
  3  7  1  0  0  0  0
  9 25  1  0  0  0  0
 33 16  1  0  0  0  0
 35 43  2  0  0  0  0
 22 31  1  0  0  0  0
 17 20  1  0  0  0  0
 59 58  2  0  0  0  0
M  END
>  <IDNUMBER>
F6170-0247

>  <Chemical_Name>
(1'R,2S,4'S,5S,6R,8'R,10'E,12'S,13'S,14'E,16'E,20'R,21'R,24'S)-12'-(acetyloxy)-6-[(2S)-butan-2-yl]-24'-hydroxy-5,11',13',22'-tetramethyl-2'-oxo-5,6-dihydro-3',7',19'-trioxaspiro[pyran-2,6'-tetracyclo[15.6.1.1?,?.0??,??]pentacosane]-10',14',16',22'-tetraen-21'-yl [1,1'-biphenyl]-4-carboxylate

>  <PriceCoeff>
7.00

>  <MW>
806.99

>  <Description>
solid

>  <FSP3>
0.49

>  <clogP>
9.64

>  <TPSA>
126.82

>  <Acceptor>
10

>  <Donor>
1

>  <RotBonds>
8

>  <HAC>
59

$$$$
F6170-0249
  Mrv2219 10102508112D          

 59 64  0  0  0  0            999 V2000
    6.8781   -1.6849    0.0000 C   0  0  2  0  0  0  0  0  0  0  0  0
    6.1601   -2.1108    0.0000 C   0  0  1  0  0  0  0  0  0  0  0  0
    6.1601   -2.9436    0.0000 C   0  0  1  0  0  0  0  0  0  0  0  0
    6.8781   -0.8664    0.0000 C   0  0  0  0  0  0  0  0  0  0  0  0
    8.2757    1.6321    0.0000 C   0  0  2  0  0  0  0  0  0  0  0  0
    7.5673   -2.1108    0.0000 C   0  0  0  0  0  0  0  0  0  0  0  0
    6.8781   -3.3601    0.0000 C   0  0  1  0  0  0  0  0  0  0  0  0
    7.5673   -2.9436    0.0000 C   0  0  0  0  0  0  0  0  0  0  0  0
    4.7577   -2.9436    0.0000 O   0  0  0  0  0  0  0  0  0  0  0  0
    5.4613   -1.6849    0.0000 C   0  0  0  0  0  0  0  0  0  0  0  0
    6.8781   -4.1929    0.0000 O   0  0  0  0  0  0  0  0  0  0  0  0
    8.2757    2.4793    0.0000 O   0  0  0  0  0  0  0  0  0  0  0  0
    7.5673   -0.4403    0.0000 O   0  0  0  0  0  0  0  0  0  0  0  0
    6.1553   -4.6045    0.0000 C   0  0  0  0  0  0  0  0  0  0  0  0
    8.2757    0.8041    0.0000 C   0  0  0  0  0  0  0  0  0  0  0  0
    7.5673    2.0629    0.0000 O   0  0  0  0  0  0  0  0  0  0  0  0
    8.9793    2.9006    0.0000 C   0  0  1  0  0  0  0  0  0  0  0  0
    7.5673    0.3877    0.0000 C   0  0  2  0  0  0  0  0  0  0  0  0
    8.9793    1.2205    0.0000 C   0  0  0  0  0  0  0  0  0  0  0  0
    4.7577    2.0629    0.0000 C   0  0  0  0  0  0  0  0  0  0  0  0
    9.6781    1.6321    0.0000 C   0  0  0  0  0  0  0  0  0  0  0  0
    5.4613    1.6321    0.0000 C   0  0  0  0  0  0  0  0  0  0  0  0
    4.7577   -2.1108    0.0000 C   0  0  0  0  0  0  0  0  0  0  0  0
    4.0493    1.6321    0.0000 C   0  0  2  0  0  0  0  0  0  0  0  0
    6.1553   -5.4326    0.0000 C   0  0  0  0  0  0  0  0  0  0  0  0
    5.4613   -0.8664    0.0000 C   0  0  0  0  0  0  0  0  0  0  0  0
    6.2606   -0.4643    0.0000 O   0  0  0  0  0  0  0  0  0  0  0  0
    4.7577   -0.4403    0.0000 C   0  0  0  0  0  0  0  0  0  0  0  0
    9.6781    2.4793    0.0000 C   0  0  2  0  0  0  0  0  0  0  0  0
    6.8781    0.8041    0.0000 C   0  0  0  0  0  0  0  0  0  0  0  0
    6.8781    1.6321    0.0000 C   0  0  1  0  0  0  0  0  0  0  0  0
    5.4470   -4.1929    0.0000 O   0  0  0  0  0  0  0  0  0  0  0  0
    4.7577    0.3877    0.0000 C   0  0  0  0  0  0  0  0  0  0  0  0
    6.1601   -1.2923    0.0000 O   0  0  0  0  0  0  0  0  0  0  0  0
    4.0493    0.8041    0.0000 C   0  0  2  0  0  0  0  0  0  0  0  0
    5.4470   -5.8394    0.0000 C   0  0  0  0  0  0  0  0  0  0  0  0
    6.8781   -5.8394    0.0000 C   0  0  0  0  0  0  0  0  0  0  0  0
    6.1553   -7.9168    0.0000 O   0  0  0  0  0  0  0  0  0  0  0  0
    6.1601    2.0629    0.0000 C   0  0  0  0  0  0  0  0  0  0  0  0
    8.9793    3.7190    0.0000 C   0  0  2  0  0  0  0  0  0  0  0  0
    6.1553   -7.0839    0.0000 C   0  0  0  0  0  0  0  0  0  0  0  0
    3.3362    2.0629    0.0000 O   0  0  0  0  0  0  0  0  0  0  0  0
    5.4470   -6.6722    0.0000 C   0  0  0  0  0  0  0  0  0  0  0  0
    6.8781   -6.6722    0.0000 C   0  0  0  0  0  0  0  0  0  0  0  0
    8.2757   -3.3601    0.0000 C   0  0  0  0  0  0  0  0  0  0  0  0
    4.7577    2.8957    0.0000 C   0  0  0  0  0  0  0  0  0  0  0  0
    5.4470   -8.3235    0.0000 C   0  0  0  0  0  0  0  0  0  0  0  0
   10.3961    2.8957    0.0000 C   0  0  0  0  0  0  0  0  0  0  0  0
    3.3362    0.3972    0.0000 C   0  0  0  0  0  0  0  0  0  0  0  0
    9.6781    4.1403    0.0000 C   0  0  0  0  0  0  0  0  0  0  0  0
    8.2757    4.1403    0.0000 C   0  0  0  0  0  0  0  0  0  0  0  0
    5.4470   -9.1517    0.0000 C   0  0  0  0  0  0  0  0  0  0  0  0
    4.7385   -7.9071    0.0000 C   0  0  0  0  0  0  0  0  0  0  0  0
   10.3961    3.7190    0.0000 C   0  0  0  0  0  0  0  0  0  0  0  0
    6.8781    2.4698    0.0000 H   0  0  0  0  0  0  0  0  0  0  0  0
    6.8781   -2.5272    0.0000 H   0  0  0  0  0  0  0  0  0  0  0  0
    6.1601   -3.7765    0.0000 H   0  0  0  0  0  0  0  0  0  0  0  0
    9.6781    3.2978    0.0000 H   0  0  0  0  0  0  0  0  0  0  0  0
    7.5673    1.2205    0.0000 H   0  0  0  0  0  0  0  0  0  0  0  0
  2  1  1  0  0  0  0
  3  2  1  0  0  0  0
  4  1  1  0  0  0  0
  5 15  1  6  0  0  0
  6  1  1  0  0  0  0
  7  8  1  0  0  0  0
  8  6  2  0  0  0  0
  9  3  1  0  0  0  0
 10  2  1  0  0  0  0
  7 11  1  1  0  0  0
 12  5  1  0  0  0  0
 13  4  1  0  0  0  0
 14 11  1  0  0  0  0
 15 18  1  0  0  0  0
  5 16  1  1  0  0  0
 17 12  1  0  0  0  0
 18 13  1  0  0  0  0
 19  5  1  0  0  0  0
 20 22  2  0  0  0  0
 21 19  2  0  0  0  0
 22 39  1  0  0  0  0
 23 10  1  0  0  0  0
 24 35  1  0  0  0  0
 25 14  1  0  0  0  0
 26 10  2  0  0  0  0
 27  4  2  0  0  0  0
 28 26  1  0  0  0  0
 29 17  1  0  0  0  0
 30 18  1  0  0  0  0
 31 30  1  0  0  0  0
 32 14  2  0  0  0  0
 33 28  2  0  0  0  0
  2 34  1  6  0  0  0
 35 33  1  0  0  0  0
 36 25  2  0  0  0  0
 37 25  1  0  0  0  0
 38 41  1  0  0  0  0
 39 31  1  0  0  0  0
 40 17  1  0  0  0  0
 41 44  1  0  0  0  0
 24 42  1  6  0  0  0
 43 36  1  0  0  0  0
 44 37  2  0  0  0  0
 45  8  1  0  0  0  0
 46 20  1  0  0  0  0
 47 38  1  0  0  0  0
 29 48  1  1  0  0  0
 35 49  1  6  0  0  0
 50 40  1  0  0  0  0
 40 51  1  1  0  0  0
 52 47  1  0  0  0  0
 53 47  1  0  0  0  0
 54 50  1  0  0  0  0
 31 55  1  6  0  0  0
  1 56  1  1  0  0  0
  3 57  1  6  0  0  0
 17 58  1  1  0  0  0
 18 59  1  6  0  0  0
  3  7  1  0  0  0  0
  9 23  1  0  0  0  0
 31 16  1  0  0  0  0
 24 20  1  0  0  0  0
 41 43  2  0  0  0  0
 21 29  1  0  0  0  0
M  END
>  <IDNUMBER>
F6170-0249

>  <Chemical_Name>
(1'R,2S,4'S,5S,6R,8'R,10'E,12'S,13'S,14'E,16'E,20'R,21'R,24'S)-6-[(2S)-butan-2-yl]-12',24'-dihydroxy-5,11',13',22'-tetramethyl-2'-oxo-5,6-dihydro-3',7',19'-trioxaspiro[pyran-2,6'-tetracyclo[15.6.1.1?,?.0??,??]pentacosane]-10',14',16',22'-tetraen-21'-yl 4-(propan-2-yloxy)benzoate

>  <PriceCoeff>
7.00

>  <MW>
746.94

>  <Description>
solid

>  <FSP3>
0.59

>  <clogP>
7.82

>  <TPSA>
129.98

>  <Acceptor>
10

>  <Donor>
2

>  <RotBonds>
7

>  <HAC>
54

$$$$
F6170-0250
  Mrv2219 10102508112D          

 62 67  0  0  0  0            999 V2000
    6.9484   -1.6787    0.0000 C   0  0  2  0  0  0  0  0  0  0  0  0
    6.2331   -2.1031    0.0000 C   0  0  1  0  0  0  0  0  0  0  0  0
    6.2331   -2.9329    0.0000 C   0  0  1  0  0  0  0  0  0  0  0  0
    6.9484   -0.8632    0.0000 C   0  0  0  0  0  0  0  0  0  0  0  0
    8.3458    1.6262    0.0000 C   0  0  2  0  0  0  0  0  0  0  0  0
    7.6399   -2.1031    0.0000 C   0  0  0  0  0  0  0  0  0  0  0  0
    6.9484   -3.3478    0.0000 C   0  0  1  0  0  0  0  0  0  0  0  0
    7.6399   -2.9329    0.0000 C   0  0  0  0  0  0  0  0  0  0  0  0
    4.8310   -2.9329    0.0000 O   0  0  0  0  0  0  0  0  0  0  0  0
    5.5368   -1.6787    0.0000 C   0  0  0  0  0  0  0  0  0  0  0  0
    6.9484   -4.1776    0.0000 O   0  0  0  0  0  0  0  0  0  0  0  0
    8.3458    2.4703    0.0000 O   0  0  0  0  0  0  0  0  0  0  0  0
    7.6399   -0.4387    0.0000 O   0  0  0  0  0  0  0  0  0  0  0  0
    6.2284   -4.5877    0.0000 C   0  0  0  0  0  0  0  0  0  0  0  0
    8.3458    0.8012    0.0000 C   0  0  0  0  0  0  0  0  0  0  0  0
    7.6399    2.0554    0.0000 O   0  0  0  0  0  0  0  0  0  0  0  0
    4.1252    1.6262    0.0000 C   0  0  1  0  0  0  0  0  0  0  0  0
    9.0468    2.8900    0.0000 C   0  0  1  0  0  0  0  0  0  0  0  0
    7.6399    0.3863    0.0000 C   0  0  2  0  0  0  0  0  0  0  0  0
    4.8310    2.0554    0.0000 C   0  0  0  0  0  0  0  0  0  0  0  0
    9.0468    1.2161    0.0000 C   0  0  0  0  0  0  0  0  0  0  0  0
    9.7431    1.6262    0.0000 C   0  0  0  0  0  0  0  0  0  0  0  0
    5.5368    1.6262    0.0000 C   0  0  0  0  0  0  0  0  0  0  0  0
    3.4099    2.0554    0.0000 O   0  0  0  0  0  0  0  0  0  0  0  0
    4.8310   -2.1031    0.0000 C   0  0  0  0  0  0  0  0  0  0  0  0
    3.4146    2.8900    0.0000 C   0  0  0  0  0  0  0  0  0  0  0  0
    6.2284   -5.4129    0.0000 C   0  0  0  0  0  0  0  0  0  0  0  0
    5.5368   -0.8632    0.0000 C   0  0  0  0  0  0  0  0  0  0  0  0
    6.3380   -0.4626    0.0000 O   0  0  0  0  0  0  0  0  0  0  0  0
    4.8310   -0.4387    0.0000 C   0  0  0  0  0  0  0  0  0  0  0  0
    9.7431    2.4703    0.0000 C   0  0  2  0  0  0  0  0  0  0  0  0
    6.9484    0.8012    0.0000 C   0  0  0  0  0  0  0  0  0  0  0  0
    6.9484    1.6262    0.0000 C   0  0  1  0  0  0  0  0  0  0  0  0
    5.5225   -4.1776    0.0000 O   0  0  0  0  0  0  0  0  0  0  0  0
    4.1252    0.8012    0.0000 C   0  0  2  0  0  0  0  0  0  0  0  0
    4.8310    0.3863    0.0000 C   0  0  0  0  0  0  0  0  0  0  0  0
    6.2331   -1.2876    0.0000 O   0  0  0  0  0  0  0  0  0  0  0  0
    2.7040    3.3097    0.0000 O   0  0  0  0  0  0  0  0  0  0  0  0
    5.5225   -5.8181    0.0000 C   0  0  0  0  0  0  0  0  0  0  0  0
    6.9484   -5.8181    0.0000 C   0  0  0  0  0  0  0  0  0  0  0  0
    6.2284   -7.8880    0.0000 O   0  0  0  0  0  0  0  0  0  0  0  0
    6.2331    2.0554    0.0000 C   0  0  0  0  0  0  0  0  0  0  0  0
    9.0468    3.7055    0.0000 C   0  0  2  0  0  0  0  0  0  0  0  0
    6.2284   -7.0582    0.0000 C   0  0  0  0  0  0  0  0  0  0  0  0
    5.5225   -6.6480    0.0000 C   0  0  0  0  0  0  0  0  0  0  0  0
    6.9484   -6.6480    0.0000 C   0  0  0  0  0  0  0  0  0  0  0  0
    8.3458   -3.3478    0.0000 C   0  0  0  0  0  0  0  0  0  0  0  0
    4.8310    2.8852    0.0000 C   0  0  0  0  0  0  0  0  0  0  0  0
    5.5225   -8.2933    0.0000 C   0  0  0  0  0  0  0  0  0  0  0  0
    4.1347    3.3049    0.0000 C   0  0  0  0  0  0  0  0  0  0  0  0
   10.4584    2.8852    0.0000 C   0  0  0  0  0  0  0  0  0  0  0  0
    3.4099    0.3958    0.0000 C   0  0  0  0  0  0  0  0  0  0  0  0
    9.7431    4.1252    0.0000 C   0  0  0  0  0  0  0  0  0  0  0  0
    8.3458    4.1252    0.0000 C   0  0  0  0  0  0  0  0  0  0  0  0
    4.8167   -7.8784    0.0000 C   0  0  0  0  0  0  0  0  0  0  0  0
    5.5225   -9.1184    0.0000 C   0  0  0  0  0  0  0  0  0  0  0  0
   10.4584    3.7055    0.0000 C   0  0  0  0  0  0  0  0  0  0  0  0
    9.7431    3.2858    0.0000 H   0  0  0  0  0  0  0  0  0  0  0  0
    7.6399    1.2161    0.0000 H   0  0  0  0  0  0  0  0  0  0  0  0
    6.9484    2.4608    0.0000 H   0  0  0  0  0  0  0  0  0  0  0  0
    6.9484   -2.5180    0.0000 H   0  0  0  0  0  0  0  0  0  0  0  0
    6.2331   -3.7627    0.0000 H   0  0  0  0  0  0  0  0  0  0  0  0
  2  1  1  0  0  0  0
  3  2  1  0  0  0  0
  4  1  1  0  0  0  0
  5 15  1  6  0  0  0
  6  1  1  0  0  0  0
  7  8  1  0  0  0  0
  8  6  2  0  0  0  0
  9  3  1  0  0  0  0
 10  2  1  0  0  0  0
  7 11  1  1  0  0  0
 12  5  1  0  0  0  0
 13  4  1  0  0  0  0
 14 11  1  0  0  0  0
 15 19  1  0  0  0  0
  5 16  1  1  0  0  0
 17 35  1  0  0  0  0
 18 12  1  0  0  0  0
 19 13  1  0  0  0  0
 20 23  2  0  0  0  0
 21  5  1  0  0  0  0
 22 21  2  0  0  0  0
 23 42  1  0  0  0  0
 17 24  1  6  0  0  0
 25 10  1  0  0  0  0
 26 24  1  0  0  0  0
 27 14  1  0  0  0  0
 28 10  2  0  0  0  0
 29  4  2  0  0  0  0
 30 28  1  0  0  0  0
 31 22  1  0  0  0  0
 32 19  1  0  0  0  0
 33 32  1  0  0  0  0
 34 14  2  0  0  0  0
 35 36  1  0  0  0  0
 36 30  2  0  0  0  0
  2 37  1  6  0  0  0
 38 26  2  0  0  0  0
 39 27  2  0  0  0  0
 40 27  1  0  0  0  0
 41 44  1  0  0  0  0
 42 33  1  0  0  0  0
 43 18  1  0  0  0  0
 44 46  1  0  0  0  0
 45 39  1  0  0  0  0
 46 40  2  0  0  0  0
 47  8  1  0  0  0  0
 48 20  1  0  0  0  0
 49 41  1  0  0  0  0
 50 26  1  0  0  0  0
 31 51  1  1  0  0  0
 35 52  1  6  0  0  0
 53 43  1  0  0  0  0
 43 54  1  1  0  0  0
 55 49  1  0  0  0  0
 56 49  1  0  0  0  0
 57 53  1  0  0  0  0
 18 58  1  1  0  0  0
 19 59  1  6  0  0  0
 33 60  1  6  0  0  0
  1 61  1  1  0  0  0
  3 62  1  6  0  0  0
  3  7  1  0  0  0  0
  9 25  1  0  0  0  0
 33 16  1  0  0  0  0
 44 45  2  0  0  0  0
 18 31  1  0  0  0  0
 17 20  1  0  0  0  0
M  END
>  <IDNUMBER>
F6170-0250

>  <Chemical_Name>
(1'R,2S,4'S,5S,6R,8'R,10'E,12'S,13'S,14'E,16'E,20'R,21'R,24'S)-12'-(acetyloxy)-6-[(2S)-butan-2-yl]-24'-hydroxy-5,11',13',22'-tetramethyl-2'-oxo-5,6-dihydro-3',7',19'-trioxaspiro[pyran-2,6'-tetracyclo[15.6.1.1?,?.0??,??]pentacosane]-10',14',16',22'-tetraen-21'-yl 4-(propan-2-yloxy)benzoate

>  <PriceCoeff>
7.00

>  <MW>
788.98

>  <Description>
solid

>  <FSP3>
0.59

>  <clogP>
8.76

>  <TPSA>
136.05

>  <Acceptor>
11

>  <Donor>
1

>  <RotBonds>
9

>  <HAC>
57

$$$$
F6170-0256
  Mrv2219 10102508112D          

 60 65  0  0  0  0            999 V2000
    5.4884   -2.9766    0.0000 C   0  0  2  0  0  0  0  0  0  0  0  0
    4.7893   -3.3952    0.0000 C   0  0  1  0  0  0  0  0  0  0  0  0
    4.7893   -4.2493    0.0000 C   0  0  1  0  0  0  0  0  0  0  0  0
    5.4884   -2.1393    0.0000 C   0  0  0  0  0  0  0  0  0  0  0  0
    6.8448    0.4102    0.0000 C   0  0  2  0  0  0  0  0  0  0  0  0
    6.1624   -3.3952    0.0000 C   0  0  0  0  0  0  0  0  0  0  0  0
    5.4884   -4.6888    0.0000 C   0  0  1  0  0  0  0  0  0  0  0  0
    6.1624   -4.2493    0.0000 C   0  0  0  0  0  0  0  0  0  0  0  0
    3.4329   -4.2493    0.0000 O   0  0  0  0  0  0  0  0  0  0  0  0
    4.1195   -2.9766    0.0000 C   0  0  0  0  0  0  0  0  0  0  0  0
    6.8448    1.2643    0.0000 O   0  0  0  0  0  0  0  0  0  0  0  0
    6.1624   -1.6913    0.0000 O   0  0  0  0  0  0  0  0  0  0  0  0
    6.2085   -5.9531    0.0000 C   0  0  0  0  0  0  0  0  0  0  0  0
    6.8448   -0.4312    0.0000 C   0  0  0  0  0  0  0  0  0  0  0  0
    6.1624    0.8415    0.0000 O   0  0  0  0  0  0  0  0  0  0  0  0
    7.5398    1.7081    0.0000 C   0  0  1  0  0  0  0  0  0  0  0  0
    6.1624   -0.8624    0.0000 C   0  0  2  0  0  0  0  0  0  0  0  0
    5.4884   -5.5303    0.0000 O   0  0  0  0  0  0  0  0  0  0  0  0
    7.5398   -0.0042    0.0000 C   0  0  0  0  0  0  0  0  0  0  0  0
    3.4329    0.8415    0.0000 C   0  0  0  0  0  0  0  0  0  0  0  0
    8.2180    0.4102    0.0000 C   0  0  0  0  0  0  0  0  0  0  0  0
    4.1195    0.4102    0.0000 C   0  0  0  0  0  0  0  0  0  0  0  0
    6.9244   -5.5303    0.0000 N   0  0  0  0  0  0  0  0  0  0  0  0
    3.4329   -3.3952    0.0000 C   0  0  0  0  0  0  0  0  0  0  0  0
    2.7296    0.4102    0.0000 C   0  0  2  0  0  0  0  0  0  0  0  0
    8.3477   -5.5303    0.0000 C   0  0  0  0  0  0  0  0  0  0  0  0
    9.0636   -5.9531    0.0000 C   0  0  0  0  0  0  0  0  0  0  0  0
    4.1195   -2.1393    0.0000 C   0  0  0  0  0  0  0  0  0  0  0  0
    4.8898   -1.7332    0.0000 O   0  0  0  0  0  0  0  0  0  0  0  0
    3.4329   -1.6913    0.0000 C   0  0  0  0  0  0  0  0  0  0  0  0
    7.6361   -5.9531    0.0000 C   0  0  0  0  0  0  0  0  0  0  0  0
    8.2180    1.2643    0.0000 C   0  0  2  0  0  0  0  0  0  0  0  0
    5.4884   -0.4312    0.0000 C   0  0  0  0  0  0  0  0  0  0  0  0
    5.4884    0.4102    0.0000 C   0  0  1  0  0  0  0  0  0  0  0  0
    6.2001   -6.7820    0.0000 O   0  0  0  0  0  0  0  0  0  0  0  0
    9.0636   -6.7946    0.0000 C   0  0  0  0  0  0  0  0  0  0  0  0
    3.4329   -0.8624    0.0000 C   0  0  0  0  0  0  0  0  0  0  0  0
    4.7893   -2.5663    0.0000 O   0  0  0  0  0  0  0  0  0  0  0  0
    2.7296   -0.4312    0.0000 C   0  0  2  0  0  0  0  0  0  0  0  0
    8.3477   -7.2090    0.0000 C   0  0  0  0  0  0  0  0  0  0  0  0
    4.7893    0.8415    0.0000 C   0  0  0  0  0  0  0  0  0  0  0  0
    7.5398    2.5370    0.0000 C   0  0  2  0  0  0  0  0  0  0  0  0
    7.6277   -6.7820    0.0000 C   0  0  0  0  0  0  0  0  0  0  0  0
    2.0388    0.8415    0.0000 O   0  0  0  0  0  0  0  0  0  0  0  0
    9.7963   -5.5387    0.0000 O   0  0  0  0  0  0  0  0  0  0  0  0
    6.8448   -4.6888    0.0000 C   0  0  0  0  0  0  0  0  0  0  0  0
    9.7754   -7.2133    0.0000 O   0  0  0  0  0  0  0  0  0  0  0  0
    3.4329    1.6955    0.0000 C   0  0  0  0  0  0  0  0  0  0  0  0
    8.9171    1.6955    0.0000 C   0  0  0  0  0  0  0  0  0  0  0  0
    2.0388   -0.8583    0.0000 C   0  0  0  0  0  0  0  0  0  0  0  0
    8.2180    2.9598    0.0000 C   0  0  0  0  0  0  0  0  0  0  0  0
    6.8448    2.9598    0.0000 C   0  0  0  0  0  0  0  0  0  0  0  0
   10.5289   -5.9614    0.0000 C   0  0  0  0  0  0  0  0  0  0  0  0
   10.4954   -6.8029    0.0000 C   0  0  0  0  0  0  0  0  0  0  0  0
    8.9171    2.5370    0.0000 C   0  0  0  0  0  0  0  0  0  0  0  0
    5.4884   -3.8348    0.0000 H   0  0  0  0  0  0  0  0  0  0  0  0
    4.7893   -5.1116    0.0000 H   0  0  0  0  0  0  0  0  0  0  0  0
    8.2180    2.1057    0.0000 H   0  0  0  0  0  0  0  0  0  0  0  0
    6.1624   -0.0126    0.0000 H   0  0  0  0  0  0  0  0  0  0  0  0
    5.4884    1.2643    0.0000 H   0  0  0  0  0  0  0  0  0  0  0  0
  2  1  1  0  0  0  0
  3  2  1  0  0  0  0
  4  1  1  0  0  0  0
  5 14  1  6  0  0  0
  6  1  1  0  0  0  0
  7  8  1  0  0  0  0
  8  6  2  0  0  0  0
  9  3  1  0  0  0  0
 10  2  1  0  0  0  0
 11  5  1  0  0  0  0
 12  4  1  0  0  0  0
 13 18  1  0  0  0  0
 14 17  1  0  0  0  0
  5 15  1  1  0  0  0
 16 11  1  0  0  0  0
 17 12  1  0  0  0  0
  7 18  1  1  0  0  0
 19  5  1  0  0  0  0
 20 22  2  0  0  0  0
 21 19  2  0  0  0  0
 22 41  1  0  0  0  0
 23 13  1  0  0  0  0
 24 10  1  0  0  0  0
 25 39  1  0  0  0  0
 26 31  1  0  0  0  0
 27 26  2  0  0  0  0
 28 10  2  0  0  0  0
 29  4  2  0  0  0  0
 30 28  1  0  0  0  0
 31 23  1  0  0  0  0
 32 21  1  0  0  0  0
 33 17  1  0  0  0  0
 34 33  1  0  0  0  0
 35 13  2  0  0  0  0
 36 27  1  0  0  0  0
 37 30  2  0  0  0  0
  2 38  1  6  0  0  0
 39 37  1  0  0  0  0
 40 43  1  0  0  0  0
 41 34  1  0  0  0  0
 42 16  1  0  0  0  0
 43 31  2  0  0  0  0
 25 44  1  6  0  0  0
 45 27  1  0  0  0  0
 46  8  1  0  0  0  0
 47 36  1  0  0  0  0
 48 20  1  0  0  0  0
 32 49  1  1  0  0  0
 39 50  1  6  0  0  0
 51 42  1  0  0  0  0
 42 52  1  1  0  0  0
 53 45  1  0  0  0  0
 54 47  1  0  0  0  0
 55 51  1  0  0  0  0
  1 56  1  1  0  0  0
  3 57  1  6  0  0  0
 16 58  1  1  0  0  0
 17 59  1  6  0  0  0
 34 60  1  6  0  0  0
  3  7  1  0  0  0  0
  9 24  1  0  0  0  0
 34 15  1  0  0  0  0
 25 20  1  0  0  0  0
 16 32  1  0  0  0  0
 36 40  2  0  0  0  0
M  END
>  <IDNUMBER>
F6170-0256

>  <Chemical_Name>
(1'R,2S,4'S,5S,6R,8'R,10'E,12'S,13'S,14'E,16'E,20'R,21'R,24'S)-6-[(2S)-butan-2-yl]-12',24'-dihydroxy-5,11',13',22'-tetramethyl-2'-oxo-5,6-dihydro-3',7',19'-trioxaspiro[pyran-2,6'-tetracyclo[15.6.1.1?,?.0??,??]pentacosane]-10',14',16',22'-tetraen-21'-yl N-(3,4-dimethoxyphenyl)carbamate

>  <PriceCoeff>
7.00

>  <MW>
763.93

>  <Description>
oil

>  <FSP3>
0.58

>  <clogP>
6.13

>  <TPSA>
151.24

>  <Acceptor>
11

>  <Donor>
3

>  <RotBonds>
7

>  <HAC>
55

$$$$
F6170-0257
  Mrv2219 10102508112D          

 62 67  0  0  0  0            999 V2000
    5.5566   -2.4361    0.0000 C   0  0  2  0  0  0  0  0  0  0  0  0
    4.8594   -2.8602    0.0000 C   0  0  1  0  0  0  0  0  0  0  0  0
    4.8594   -3.7170    0.0000 C   0  0  1  0  0  0  0  0  0  0  0  0
    5.5566   -1.6002    0.0000 C   0  0  0  0  0  0  0  0  0  0  0  0
    6.9132    0.9660    0.0000 C   0  0  2  0  0  0  0  0  0  0  0  0
    6.2328   -2.8602    0.0000 C   0  0  0  0  0  0  0  0  0  0  0  0
    5.5566   -4.1580    0.0000 C   0  0  1  0  0  0  0  0  0  0  0  0
    6.2328   -3.7170    0.0000 C   0  0  0  0  0  0  0  0  0  0  0  0
    3.5112   -3.7170    0.0000 O   0  0  0  0  0  0  0  0  0  0  0  0
    4.1958   -2.4361    0.0000 C   0  0  0  0  0  0  0  0  0  0  0  0
    6.9132    1.8228    0.0000 O   0  0  0  0  0  0  0  0  0  0  0  0
    6.2328   -1.1466    0.0000 O   0  0  0  0  0  0  0  0  0  0  0  0
    6.2791   -5.4223    0.0000 C   0  0  0  0  0  0  0  0  0  0  0  0
    9.1225   -6.2748    0.0000 C   0  0  0  0  0  0  0  0  0  0  0  0
    6.9132    0.1134    0.0000 C   0  0  0  0  0  0  0  0  0  0  0  0
    6.2328    1.3986    0.0000 O   0  0  0  0  0  0  0  0  0  0  0  0
    8.4085   -6.6906    0.0000 C   0  0  0  0  0  0  0  0  0  0  0  0
    9.1225   -5.4264    0.0000 C   0  0  0  0  0  0  0  0  0  0  0  0
    7.6062    2.2680    0.0000 C   0  0  1  0  0  0  0  0  0  0  0  0
    6.2328   -0.3150    0.0000 C   0  0  2  0  0  0  0  0  0  0  0  0
    5.5566   -5.0022    0.0000 O   0  0  0  0  0  0  0  0  0  0  0  0
    7.6987   -5.4264    0.0000 C   0  0  0  0  0  0  0  0  0  0  0  0
    7.6062    0.5418    0.0000 C   0  0  0  0  0  0  0  0  0  0  0  0
    3.5112    1.3986    0.0000 C   0  0  0  0  0  0  0  0  0  0  0  0
    7.6944   -6.2665    0.0000 C   0  0  0  0  0  0  0  0  0  0  0  0
    8.4085   -5.0022    0.0000 C   0  0  0  0  0  0  0  0  0  0  0  0
    6.9930   -5.0022    0.0000 N   0  0  0  0  0  0  0  0  0  0  0  0
    8.2783    0.9660    0.0000 C   0  0  0  0  0  0  0  0  0  0  0  0
    4.1958    0.9660    0.0000 C   0  0  0  0  0  0  0  0  0  0  0  0
    3.5112   -2.8602    0.0000 C   0  0  0  0  0  0  0  0  0  0  0  0
    2.8098    0.9660    0.0000 C   0  0  2  0  0  0  0  0  0  0  0  0
    4.1958   -1.6002    0.0000 C   0  0  0  0  0  0  0  0  0  0  0  0
    4.9644   -1.1886    0.0000 O   0  0  0  0  0  0  0  0  0  0  0  0
    3.5112   -1.1466    0.0000 C   0  0  0  0  0  0  0  0  0  0  0  0
    8.2783    1.8228    0.0000 C   0  0  2  0  0  0  0  0  0  0  0  0
    5.5566    0.1134    0.0000 C   0  0  0  0  0  0  0  0  0  0  0  0
    5.5566    0.9660    0.0000 C   0  0  1  0  0  0  0  0  0  0  0  0
    6.2706   -6.2665    0.0000 O   0  0  0  0  0  0  0  0  0  0  0  0
    3.5112   -0.3150    0.0000 C   0  0  0  0  0  0  0  0  0  0  0  0
    4.8594   -2.0202    0.0000 O   0  0  0  0  0  0  0  0  0  0  0  0
    2.8098    0.1134    0.0000 C   0  0  2  0  0  0  0  0  0  0  0  0
    4.8594    1.3986    0.0000 C   0  0  0  0  0  0  0  0  0  0  0  0
    7.6062    3.1039    0.0000 C   0  0  2  0  0  0  0  0  0  0  0  0
    9.8364   -6.6949    0.0000 O   0  0  0  0  0  0  0  0  0  0  0  0
    9.8575   -5.0148    0.0000 O   0  0  0  0  0  0  0  0  0  0  0  0
    8.4043   -7.5223    0.0000 O   0  0  0  0  0  0  0  0  0  0  0  0
    2.1210    1.3986    0.0000 O   0  0  0  0  0  0  0  0  0  0  0  0
    6.9132   -4.1580    0.0000 C   0  0  0  0  0  0  0  0  0  0  0  0
    3.5112    2.2554    0.0000 C   0  0  0  0  0  0  0  0  0  0  0  0
    8.9839    2.2554    0.0000 C   0  0  0  0  0  0  0  0  0  0  0  0
    2.1210   -0.3066    0.0000 C   0  0  0  0  0  0  0  0  0  0  0  0
    8.2783    3.5280    0.0000 C   0  0  0  0  0  0  0  0  0  0  0  0
    6.9091    3.5280    0.0000 C   0  0  0  0  0  0  0  0  0  0  0  0
   10.5546   -6.2832    0.0000 C   0  0  0  0  0  0  0  0  0  0  0  0
   10.5883   -5.4390    0.0000 C   0  0  0  0  0  0  0  0  0  0  0  0
    7.6818   -7.9338    0.0000 C   0  0  0  0  0  0  0  0  0  0  0  0
    8.9839    3.1039    0.0000 C   0  0  0  0  0  0  0  0  0  0  0  0
    8.2783    2.6670    0.0000 H   0  0  0  0  0  0  0  0  0  0  0  0
    6.2328    0.5418    0.0000 H   0  0  0  0  0  0  0  0  0  0  0  0
    5.5566    1.8228    0.0000 H   0  0  0  0  0  0  0  0  0  0  0  0
    5.5566   -3.3012    0.0000 H   0  0  0  0  0  0  0  0  0  0  0  0
    4.8594   -4.5781    0.0000 H   0  0  0  0  0  0  0  0  0  0  0  0
  2  1  1  0  0  0  0
  3  2  1  0  0  0  0
  4  1  1  0  0  0  0
  5 15  1  6  0  0  0
  6  1  1  0  0  0  0
  7  8  1  0  0  0  0
  8  6  2  0  0  0  0
  9  3  1  0  0  0  0
 10  2  1  0  0  0  0
 11  5  1  0  0  0  0
 12  4  1  0  0  0  0
 13 21  1  0  0  0  0
 14 18  1  0  0  0  0
 15 20  1  0  0  0  0
 16 37  1  0  0  0  0
 17 25  1  0  0  0  0
 18 26  2  0  0  0  0
 19 11  1  0  0  0  0
 20 12  1  0  0  0  0
  7 21  1  1  0  0  0
 22 27  1  0  0  0  0
 23  5  1  0  0  0  0
 24 29  2  0  0  0  0
 25 22  2  0  0  0  0
 26 22  1  0  0  0  0
 27 13  1  0  0  0  0
 28 23  2  0  0  0  0
 29 42  1  0  0  0  0
 30 10  1  0  0  0  0
 31 41  1  0  0  0  0
 32 10  2  0  0  0  0
 33  4  2  0  0  0  0
 34 32  1  0  0  0  0
 35 28  1  0  0  0  0
 36 20  1  0  0  0  0
 37 36  1  0  0  0  0
 38 13  2  0  0  0  0
 39 34  2  0  0  0  0
  2 40  1  6  0  0  0
 41 39  1  0  0  0  0
 42 37  1  0  0  0  0
 43 19  1  0  0  0  0
 44 14  1  0  0  0  0
 45 18  1  0  0  0  0
 46 17  1  0  0  0  0
 31 47  1  6  0  0  0
 48  8  1  0  0  0  0
 49 24  1  0  0  0  0
 35 50  1  1  0  0  0
 41 51  1  6  0  0  0
 52 43  1  0  0  0  0
 43 53  1  1  0  0  0
 54 44  1  0  0  0  0
 55 45  1  0  0  0  0
 56 46  1  0  0  0  0
 57 52  1  0  0  0  0
 19 58  1  1  0  0  0
 20 59  1  6  0  0  0
 37 60  1  6  0  0  0
  1 61  1  1  0  0  0
  3 62  1  6  0  0  0
  3  7  1  0  0  0  0
  9 30  1  0  0  0  0
  5 16  1  1  0  0  0
 31 24  1  0  0  0  0
 19 35  1  0  0  0  0
 14 17  2  0  0  0  0
M  END
>  <IDNUMBER>
F6170-0257

>  <Chemical_Name>
(1'R,2S,4'S,5S,6R,8'R,10'E,12'S,13'S,14'E,16'E,20'R,21'R,24'S)-6-[(2S)-butan-2-yl]-12',24'-dihydroxy-5,11',13',22'-tetramethyl-2'-oxo-5,6-dihydro-3',7',19'-trioxaspiro[pyran-2,6'-tetracyclo[15.6.1.1?,?.0??,??]pentacosane]-10',14',16',22'-tetraen-21'-yl N-(3,4,5-trimethoxyphenyl)carbamate

>  <PriceCoeff>
7.00

>  <MW>
793.95

>  <Description>
solid

>  <FSP3>
0.59

>  <clogP>
5.74

>  <TPSA>
160.47

>  <Acceptor>
12

>  <Donor>
3

>  <RotBonds>
8

>  <HAC>
57

$$$$
F6170-0258
  Mrv2219 10102508112D          

 71 77  0  0  0  0            999 V2000
   10.9760   -4.5874    0.0000 C   0  0  2  0  0  0  0  0  0  0  0  0
   10.2756   -5.0108    0.0000 C   0  0  1  0  0  0  0  0  0  0  0  0
   10.2756   -5.8421    0.0000 C   0  0  1  0  0  0  0  0  0  0  0  0
   10.9760   -3.7716    0.0000 C   0  0  0  0  0  0  0  0  0  0  0  0
   12.3846   -1.2547    0.0000 C   0  0  2  0  0  0  0  0  0  0  0  0
   11.6688   -5.0108    0.0000 C   0  0  0  0  0  0  0  0  0  0  0  0
   10.9760   -6.2655    0.0000 C   0  0  1  0  0  0  0  0  0  0  0  0
   11.6688   -5.8421    0.0000 C   0  0  0  0  0  0  0  0  0  0  0  0
    8.8670   -5.8421    0.0000 O   0  0  0  0  0  0  0  0  0  0  0  0
    9.5828   -4.5874    0.0000 C   0  0  0  0  0  0  0  0  0  0  0  0
   10.9760   -7.0967    0.0000 O   0  0  0  0  0  0  0  0  0  0  0  0
   12.3846   -0.4079    0.0000 O   0  0  0  0  0  0  0  0  0  0  0  0
   10.2602  -10.8375    0.0000 C   0  0  0  0  0  0  0  0  0  0  0  0
    4.6260    1.7318    0.0000 C   0  0  0  0  0  0  0  0  0  0  0  0
    7.4662   -0.8390    0.0000 O   0  0  0  0  0  0  0  0  0  0  0  0
   11.6688   -3.3482    0.0000 O   0  0  0  0  0  0  0  0  0  0  0  0
   10.2602   -7.5124    0.0000 C   0  0  0  0  0  0  0  0  0  0  0  0
    7.4584    0.0000    0.0000 C   0  0  0  0  0  0  0  0  0  0  0  0
    8.1589   -1.2547    0.0000 C   0  0  2  0  0  0  0  0  0  0  0  0
   12.3846   -2.0935    0.0000 C   0  0  0  0  0  0  0  0  0  0  0  0
   11.6688   -0.8390    0.0000 O   0  0  0  0  0  0  0  0  0  0  0  0
   13.0773    0.0000    0.0000 C   0  0  1  0  0  0  0  0  0  0  0  0
   11.6688   -2.5169    0.0000 C   0  0  2  0  0  0  0  0  0  0  0  0
    8.8670   -0.8390    0.0000 C   0  0  0  0  0  0  0  0  0  0  0  0
   13.0773   -1.6703    0.0000 C   0  0  0  0  0  0  0  0  0  0  0  0
   13.7854   -1.2547    0.0000 C   0  0  0  0  0  0  0  0  0  0  0  0
    9.5828   -1.2547    0.0000 C   0  0  0  0  0  0  0  0  0  0  0  0
    8.8670   -5.0108    0.0000 C   0  0  0  0  0  0  0  0  0  0  0  0
    5.3341    1.3009    0.0000 C   0  0  0  0  0  0  0  0  0  0  0  0
   10.2602   -9.9985    0.0000 C   0  0  0  0  0  0  0  0  0  0  0  0
   10.2602   -8.3437    0.0000 C   0  0  0  0  0  0  0  0  0  0  0  0
    6.7504    0.4310    0.0000 C   0  0  0  0  0  0  0  0  0  0  0  0
    9.5828   -3.7716    0.0000 C   0  0  0  0  0  0  0  0  0  0  0  0
   10.3833   -3.3560    0.0000 O   0  0  0  0  0  0  0  0  0  0  0  0
    8.8670   -3.3482    0.0000 C   0  0  0  0  0  0  0  0  0  0  0  0
   13.7854   -0.4079    0.0000 C   0  0  2  0  0  0  0  0  0  0  0  0
   10.9760   -2.0935    0.0000 C   0  0  0  0  0  0  0  0  0  0  0  0
   10.9760   -1.2547    0.0000 C   0  0  1  0  0  0  0  0  0  0  0  0
    8.1820    0.4310    0.0000 O   0  0  0  0  0  0  0  0  0  0  0  0
    9.5675   -7.0967    0.0000 O   0  0  0  0  0  0  0  0  0  0  0  0
    8.1589   -2.0935    0.0000 C   0  0  2  0  0  0  0  0  0  0  0  0
    8.8670   -2.5169    0.0000 C   0  0  0  0  0  0  0  0  0  0  0  0
   10.2756   -4.1873    0.0000 O   0  0  0  0  0  0  0  0  0  0  0  0
    6.0576    1.6934    0.0000 C   0  0  0  0  0  0  0  0  0  0  0  0
    9.5675   -9.5828    0.0000 C   0  0  0  0  0  0  0  0  0  0  0  0
    5.3187    0.4618    0.0000 C   0  0  0  0  0  0  0  0  0  0  0  0
   10.9760   -9.5828    0.0000 C   0  0  0  0  0  0  0  0  0  0  0  0
   10.9760   -8.7593    0.0000 C   0  0  0  0  0  0  0  0  0  0  0  0
    6.7657    1.2623    0.0000 C   0  0  0  0  0  0  0  0  0  0  0  0
    6.0268    0.0384    0.0000 C   0  0  0  0  0  0  0  0  0  0  0  0
    9.5675   -8.7593    0.0000 C   0  0  0  0  0  0  0  0  0  0  0  0
    9.5597  -11.2531    0.0000 F   0  0  0  0  0  0  0  0  0  0  0  0
   10.9760  -11.2531    0.0000 F   0  0  0  0  0  0  0  0  0  0  0  0
   10.2602  -11.6841    0.0000 F   0  0  0  0  0  0  0  0  0  0  0  0
    4.6413    2.5554    0.0000 F   0  0  0  0  0  0  0  0  0  0  0  0
    3.8946    1.3315    0.0000 F   0  0  0  0  0  0  0  0  0  0  0  0
    3.9024    2.1475    0.0000 F   0  0  0  0  0  0  0  0  0  0  0  0
   10.2756   -0.8390    0.0000 C   0  0  0  0  0  0  0  0  0  0  0  0
   13.0773    0.8466    0.0000 C   0  0  2  0  0  0  0  0  0  0  0  0
   12.3846   -6.2655    0.0000 C   0  0  0  0  0  0  0  0  0  0  0  0
    8.8670    0.0000    0.0000 C   0  0  0  0  0  0  0  0  0  0  0  0
   14.4859    0.0000    0.0000 C   0  0  0  0  0  0  0  0  0  0  0  0
    7.4662   -2.5016    0.0000 C   0  0  0  0  0  0  0  0  0  0  0  0
   13.7854    1.2469    0.0000 C   0  0  0  0  0  0  0  0  0  0  0  0
   12.3846    1.2469    0.0000 C   0  0  0  0  0  0  0  0  0  0  0  0
   14.4859    0.8466    0.0000 C   0  0  0  0  0  0  0  0  0  0  0  0
   10.2756   -6.6811    0.0000 H   0  0  0  0  0  0  0  0  0  0  0  0
   13.7854    0.4156    0.0000 H   0  0  0  0  0  0  0  0  0  0  0  0
   11.6688   -1.6703    0.0000 H   0  0  0  0  0  0  0  0  0  0  0  0
   10.9760   -0.4079    0.0000 H   0  0  0  0  0  0  0  0  0  0  0  0
   10.9760   -5.4187    0.0000 H   0  0  0  0  0  0  0  0  0  0  0  0
  2  1  1  0  0  0  0
  3  2  1  0  0  0  0
  4  1  1  0  0  0  0
  5 20  1  6  0  0  0
  6  1  1  0  0  0  0
  7  8  1  0  0  0  0
  8  6  2  0  0  0  0
  9  3  1  0  0  0  0
 10  2  1  0  0  0  0
  7 11  1  1  0  0  0
 12  5  1  0  0  0  0
 13 30  1  0  0  0  0
 14 29  1  0  0  0  0
 19 15  1  6  0  0  0
 16  4  1  0  0  0  0
 17 11  1  0  0  0  0
 18 15  1  0  0  0  0
 19 41  1  0  0  0  0
 20 23  1  0  0  0  0
 21 38  1  0  0  0  0
 22 12  1  0  0  0  0
 23 16  1  0  0  0  0
 24 27  2  0  0  0  0
 25  5  1  0  0  0  0
 26 25  2  0  0  0  0
 27 58  1  0  0  0  0
 28 10  1  0  0  0  0
 29 46  1  0  0  0  0
 30 45  2  0  0  0  0
 31 17  1  0  0  0  0
 32 18  1  0  0  0  0
 33 10  2  0  0  0  0
 34  4  2  0  0  0  0
 35 33  1  0  0  0  0
 36 26  1  0  0  0  0
 37 23  1  0  0  0  0
 38 37  1  0  0  0  0
 39 18  2  0  0  0  0
 40 17  2  0  0  0  0
 41 42  1  0  0  0  0
 42 35  2  0  0  0  0
  2 43  1  6  0  0  0
 44 49  1  0  0  0  0
 45 51  1  0  0  0  0
 46 50  2  0  0  0  0
 47 48  2  0  0  0  0
 48 31  1  0  0  0  0
 49 32  2  0  0  0  0
 50 32  1  0  0  0  0
 51 31  2  0  0  0  0
 52 13  1  0  0  0  0
 53 13  1  0  0  0  0
 54 13  1  0  0  0  0
 55 14  1  0  0  0  0
 56 14  1  0  0  0  0
 57 14  1  0  0  0  0
 58 38  1  0  0  0  0
 59 22  1  0  0  0  0
 60  8  1  0  0  0  0
 61 24  1  0  0  0  0
 36 62  1  1  0  0  0
 41 63  1  6  0  0  0
 64 59  1  0  0  0  0
 59 65  1  1  0  0  0
 66 64  1  0  0  0  0
  3 67  1  6  0  0  0
 22 68  1  1  0  0  0
 23 69  1  6  0  0  0
 38 70  1  6  0  0  0
  1 71  1  1  0  0  0
  7  3  1  0  0  0  0
 28  9  1  0  0  0  0
  5 21  1  1  0  0  0
 47 30  1  0  0  0  0
 24 19  1  0  0  0  0
 22 36  1  0  0  0  0
 29 44  2  0  0  0  0
M  END
>  <IDNUMBER>
F6170-0258

>  <Chemical_Name>
(1'R,2S,4'S,5S,6R,8'R,10'E,12'S,13'S,14'E,16'E,20'R,21'R,24'S)-6-[(2S)-butan-2-yl]-24'-hydroxy-5,11',13',22'-tetramethyl-2'-oxo-21'-[4-(trifluoromethyl)benzoyloxy]-5,6-dihydro-3',7',19'-trioxaspiro[pyran-2,6'-tetracyclo[15.6.1.1?,?.0??,??]pentacosane]-10',14',16',22'-tetraen-12'-yl 4-(trifluoromethyl)benzoate

>  <PriceCoeff>
7.00

>  <MW>
928.96

>  <Description>
solid

>  <FSP3>
0.50

>  <clogP>
11.45

>  <TPSA>
126.82

>  <Acceptor>
10

>  <Donor>
1

>  <RotBonds>
8

>  <HAC>
66

$$$$
F6170-0260
  Mrv2219 10102508112D          

 71 77  0  0  0  0            999 V2000
   11.0268   -5.6274    0.0000 C   0  0  2  0  0  0  0  0  0  0  0  0
   10.3092   -6.0433    0.0000 C   0  0  1  0  0  0  0  0  0  0  0  0
   10.3092   -6.8683    0.0000 C   0  0  1  0  0  0  0  0  0  0  0  0
   11.0268   -4.8024    0.0000 C   0  0  0  0  0  0  0  0  0  0  0  0
   12.4220   -2.3007    0.0000 C   0  0  2  0  0  0  0  0  0  0  0  0
   11.7110   -6.0433    0.0000 C   0  0  0  0  0  0  0  0  0  0  0  0
   11.0268   -7.2909    0.0000 C   0  0  1  0  0  0  0  0  0  0  0  0
   11.7110   -6.8683    0.0000 C   0  0  0  0  0  0  0  0  0  0  0  0
    8.9140   -6.8683    0.0000 O   0  0  0  0  0  0  0  0  0  0  0  0
    9.6251   -5.6274    0.0000 C   0  0  0  0  0  0  0  0  0  0  0  0
   11.0268   -8.1091    0.0000 O   0  0  0  0  0  0  0  0  0  0  0  0
   10.3024   -8.5183    0.0000 C   0  0  0  0  0  0  0  0  0  0  0  0
    7.5256   -1.0463    0.0000 C   0  0  0  0  0  0  0  0  0  0  0  0
   12.4220   -1.4621    0.0000 O   0  0  0  0  0  0  0  0  0  0  0  0
    7.5122   -1.8781    0.0000 O   0  0  0  0  0  0  0  0  0  0  0  0
   11.7110   -4.3732    0.0000 O   0  0  0  0  0  0  0  0  0  0  0  0
    8.2165   -2.3007    0.0000 C   0  0  2  0  0  0  0  0  0  0  0  0
   10.3024   -9.3567    0.0000 C   0  0  0  0  0  0  0  0  0  0  0  0
    6.8146   -0.6170    0.0000 C   0  0  0  0  0  0  0  0  0  0  0  0
   12.4220   -3.1323    0.0000 C   0  0  0  0  0  0  0  0  0  0  0  0
   11.7110   -1.8781    0.0000 O   0  0  0  0  0  0  0  0  0  0  0  0
   13.1195   -1.0463    0.0000 C   0  0  1  0  0  0  0  0  0  0  0  0
   11.7110   -3.5482    0.0000 C   0  0  2  0  0  0  0  0  0  0  0  0
    8.9140   -1.8781    0.0000 C   0  0  0  0  0  0  0  0  0  0  0  0
   13.1195   -2.7165    0.0000 C   0  0  0  0  0  0  0  0  0  0  0  0
   13.8104   -2.3007    0.0000 C   0  0  0  0  0  0  0  0  0  0  0  0
    9.6251   -2.3007    0.0000 C   0  0  0  0  0  0  0  0  0  0  0  0
    8.9140   -6.0433    0.0000 C   0  0  0  0  0  0  0  0  0  0  0  0
    9.6251   -4.8024    0.0000 C   0  0  0  0  0  0  0  0  0  0  0  0
   10.4232   -4.3933    0.0000 O   0  0  0  0  0  0  0  0  0  0  0  0
    8.9140   -4.3732    0.0000 C   0  0  0  0  0  0  0  0  0  0  0  0
   11.0135   -9.7659    0.0000 C   0  0  0  0  0  0  0  0  0  0  0  0
    9.6049   -9.7659    0.0000 C   0  0  0  0  0  0  0  0  0  0  0  0
    6.8347    0.2146    0.0000 C   0  0  0  0  0  0  0  0  0  0  0  0
    6.0970   -1.0195    0.0000 C   0  0  0  0  0  0  0  0  0  0  0  0
   13.8104   -1.4621    0.0000 C   0  0  2  0  0  0  0  0  0  0  0  0
   11.0268   -3.1323    0.0000 C   0  0  0  0  0  0  0  0  0  0  0  0
   11.0268   -2.3007    0.0000 C   0  0  1  0  0  0  0  0  0  0  0  0
    9.6049   -8.1091    0.0000 O   0  0  0  0  0  0  0  0  0  0  0  0
    8.2500   -0.6439    0.0000 O   0  0  0  0  0  0  0  0  0  0  0  0
    5.3994    0.2415    0.0000 C   0  0  0  0  0  0  0  0  0  0  0  0
   10.3024  -10.9999    0.0000 C   0  0  0  0  0  0  0  0  0  0  0  0
    6.1238    0.6439    0.0000 C   0  0  0  0  0  0  0  0  0  0  0  0
    9.6049  -10.5841    0.0000 C   0  0  0  0  0  0  0  0  0  0  0  0
    5.3859   -0.5903    0.0000 C   0  0  0  0  0  0  0  0  0  0  0  0
   11.0268  -10.5841    0.0000 C   0  0  0  0  0  0  0  0  0  0  0  0
    8.2165   -3.1323    0.0000 C   0  0  2  0  0  0  0  0  0  0  0  0
    8.9140   -3.5482    0.0000 C   0  0  0  0  0  0  0  0  0  0  0  0
   10.3092   -5.2183    0.0000 O   0  0  0  0  0  0  0  0  0  0  0  0
   10.3092   -1.8781    0.0000 C   0  0  0  0  0  0  0  0  0  0  0  0
   13.1195   -0.2080    0.0000 C   0  0  2  0  0  0  0  0  0  0  0  0
   12.4220   -7.2909    0.0000 C   0  0  0  0  0  0  0  0  0  0  0  0
   11.7311  -10.9999    0.0000 O   0  0  0  0  0  0  0  0  0  0  0  0
    8.8939  -11.0067    0.0000 O   0  0  0  0  0  0  0  0  0  0  0  0
    6.1440    1.4757    0.0000 O   0  0  0  0  0  0  0  0  0  0  0  0
    4.6549   -0.9993    0.0000 O   0  0  0  0  0  0  0  0  0  0  0  0
    8.9140   -1.0463    0.0000 C   0  0  0  0  0  0  0  0  0  0  0  0
   14.5213   -1.0463    0.0000 C   0  0  0  0  0  0  0  0  0  0  0  0
    7.5122   -3.5415    0.0000 C   0  0  0  0  0  0  0  0  0  0  0  0
   13.8104    0.1945    0.0000 C   0  0  0  0  0  0  0  0  0  0  0  0
   12.4220    0.1945    0.0000 C   0  0  0  0  0  0  0  0  0  0  0  0
    8.1896  -10.5841    0.0000 C   0  0  0  0  0  0  0  0  0  0  0  0
   12.4354  -10.5774    0.0000 C   0  0  0  0  0  0  0  0  0  0  0  0
    3.9371   -0.5702    0.0000 C   0  0  0  0  0  0  0  0  0  0  0  0
    5.4329    1.9048    0.0000 C   0  0  0  0  0  0  0  0  0  0  0  0
   14.5213   -0.2080    0.0000 C   0  0  0  0  0  0  0  0  0  0  0  0
   10.3092   -7.7067    0.0000 H   0  0  0  0  0  0  0  0  0  0  0  0
   13.8104   -0.6371    0.0000 H   0  0  0  0  0  0  0  0  0  0  0  0
   11.7110   -2.7232    0.0000 H   0  0  0  0  0  0  0  0  0  0  0  0
   11.0268   -1.4555    0.0000 H   0  0  0  0  0  0  0  0  0  0  0  0
   11.0268   -6.4390    0.0000 H   0  0  0  0  0  0  0  0  0  0  0  0
  2  1  1  0  0  0  0
  3  2  1  0  0  0  0
  4  1  1  0  0  0  0
  5 20  1  6  0  0  0
  6  1  1  0  0  0  0
  7  8  1  0  0  0  0
  8  6  2  0  0  0  0
  9  3  1  0  0  0  0
 10  2  1  0  0  0  0
  7 11  1  1  0  0  0
 12 11  1  0  0  0  0
 13 15  1  0  0  0  0
 14  5  1  0  0  0  0
 17 15  1  6  0  0  0
 16  4  1  0  0  0  0
 17 47  1  0  0  0  0
 18 12  1  0  0  0  0
 19 13  1  0  0  0  0
 20 23  1  0  0  0  0
 21 38  1  0  0  0  0
 22 14  1  0  0  0  0
 23 16  1  0  0  0  0
 24 27  2  0  0  0  0
 25  5  1  0  0  0  0
 26 25  2  0  0  0  0
 27 50  1  0  0  0  0
 28 10  1  0  0  0  0
 29 10  2  0  0  0  0
 30  4  2  0  0  0  0
 31 29  1  0  0  0  0
 32 18  1  0  0  0  0
 33 18  2  0  0  0  0
 34 19  2  0  0  0  0
 35 19  1  0  0  0  0
 36 26  1  0  0  0  0
 37 23  1  0  0  0  0
 38 37  1  0  0  0  0
 39 12  2  0  0  0  0
 40 13  2  0  0  0  0
 41 45  1  0  0  0  0
 42 46  1  0  0  0  0
 43 34  1  0  0  0  0
 44 33  1  0  0  0  0
 45 35  2  0  0  0  0
 46 32  2  0  0  0  0
 47 48  1  0  0  0  0
 48 31  2  0  0  0  0
  2 49  1  6  0  0  0
 50 38  1  0  0  0  0
 51 22  1  0  0  0  0
 52  8  1  0  0  0  0
 53 46  1  0  0  0  0
 54 44  1  0  0  0  0
 55 43  1  0  0  0  0
 56 45  1  0  0  0  0
 57 24  1  0  0  0  0
 36 58  1  1  0  0  0
 47 59  1  6  0  0  0
 60 51  1  0  0  0  0
 51 61  1  1  0  0  0
 62 54  1  0  0  0  0
 63 53  1  0  0  0  0
 64 56  1  0  0  0  0
 65 55  1  0  0  0  0
 66 60  1  0  0  0  0
  3 67  1  6  0  0  0
 22 68  1  1  0  0  0
 23 69  1  6  0  0  0
 38 70  1  6  0  0  0
  1 71  1  1  0  0  0
  7  3  1  0  0  0  0
 28  9  1  0  0  0  0
  5 21  1  1  0  0  0
 44 42  2  0  0  0  0
 24 17  1  0  0  0  0
 22 36  1  0  0  0  0
 41 43  2  0  0  0  0
M  END
>  <IDNUMBER>
F6170-0260

>  <Chemical_Name>
(1'R,2S,4'S,5S,6R,8'R,10'E,12'S,13'S,14'E,16'E,20'R,21'R,24'S)-6-[(2S)-butan-2-yl]-12'-(3,5-dimethoxybenzoyloxy)-24'-hydroxy-5,11',13',22'-tetramethyl-2'-oxo-5,6-dihydro-3',7',19'-trioxaspiro[pyran-2,6'-tetracyclo[15.6.1.1?,?.0??,??]pentacosane]-10',14',16',22'-tetraen-21'-yl 3,5-dimethoxybenzoate

>  <PriceCoeff>
7.00

>  <MW>
913.07

>  <Description>
solid

>  <FSP3>
0.52

>  <clogP>
10.14

>  <TPSA>
163.74

>  <Acceptor>
14

>  <Donor>
1

>  <RotBonds>
12

>  <HAC>
66

$$$$
F6170-0321
  Mrv2219 10102508112D          

 56 61  0  0  0  0            999 V2000
   12.8463   -0.7093    0.0000 C   0  0  2  0  0  0  0  0  0  0  0  0
   12.1292   -1.1257    0.0000 C   0  0  1  0  0  0  0  0  0  0  0  0
   12.1292   -1.9663    0.0000 C   0  0  1  0  0  0  0  0  0  0  0  0
   12.8463    0.1234    0.0000 C   0  0  0  0  0  0  0  0  0  0  0  0
   14.2419    2.6140    0.0000 C   0  0  2  0  0  0  0  0  0  0  0  0
   13.5248   -1.1257    0.0000 C   0  0  0  0  0  0  0  0  0  0  0  0
   12.8463   -2.3827    0.0000 C   0  0  1  0  0  0  0  0  0  0  0  0
   13.5248   -1.9663    0.0000 C   0  0  0  0  0  0  0  0  0  0  0  0
   10.7335   -1.9663    0.0000 O   0  0  0  0  0  0  0  0  0  0  0  0
   11.4428   -0.7093    0.0000 C   0  0  0  0  0  0  0  0  0  0  0  0
   12.8463   -3.2001    0.0000 O   0  0  0  0  0  0  0  0  0  0  0  0
   14.2419    3.4699    0.0000 O   0  0  0  0  0  0  0  0  0  0  0  0
   13.5248    0.5474    0.0000 O   0  0  0  0  0  0  0  0  0  0  0  0
   12.1215   -3.6165    0.0000 C   0  0  0  0  0  0  0  0  0  0  0  0
   14.2419    1.7890    0.0000 C   0  0  0  0  0  0  0  0  0  0  0  0
   13.5248    3.0457    0.0000 O   0  0  0  0  0  0  0  0  0  0  0  0
   14.9359    3.8863    0.0000 C   0  0  1  0  0  0  0  0  0  0  0  0
   13.5248    1.3648    0.0000 C   0  0  2  0  0  0  0  0  0  0  0  0
   14.9359    2.2130    0.0000 C   0  0  0  0  0  0  0  0  0  0  0  0
   10.7335    3.0457    0.0000 C   0  0  0  0  0  0  0  0  0  0  0  0
   15.6223    2.6140    0.0000 C   0  0  0  0  0  0  0  0  0  0  0  0
   11.4428    2.6140    0.0000 C   0  0  0  0  0  0  0  0  0  0  0  0
   10.7335   -1.1257    0.0000 C   0  0  0  0  0  0  0  0  0  0  0  0
   10.0473    2.6140    0.0000 C   0  0  2  0  0  0  0  0  0  0  0  0
   12.1215   -4.4492    0.0000 C   0  0  0  0  0  0  0  0  0  0  0  0
   11.4428    0.1234    0.0000 C   0  0  0  0  0  0  0  0  0  0  0  0
   12.2449    0.5243    0.0000 O   0  0  0  0  0  0  0  0  0  0  0  0
   10.7335    0.5474    0.0000 C   0  0  0  0  0  0  0  0  0  0  0  0
   15.6223    3.4699    0.0000 C   0  0  2  0  0  0  0  0  0  0  0  0
   12.8463    1.7890    0.0000 C   0  0  0  0  0  0  0  0  0  0  0  0
   12.8463    2.6140    0.0000 C   0  0  1  0  0  0  0  0  0  0  0  0
   11.4197   -3.2001    0.0000 O   0  0  0  0  0  0  0  0  0  0  0  0
   10.7335    1.3648    0.0000 C   0  0  0  0  0  0  0  0  0  0  0  0
   12.1292   -0.3085    0.0000 O   0  0  0  0  0  0  0  0  0  0  0  0
   10.0473    1.7890    0.0000 C   0  0  2  0  0  0  0  0  0  0  0  0
   12.8386   -4.8656    0.0000 C   0  0  0  0  0  0  0  0  0  0  0  0
   11.4197   -4.8656    0.0000 C   0  0  0  0  0  0  0  0  0  0  0  0
   12.1292    3.0457    0.0000 C   0  0  0  0  0  0  0  0  0  0  0  0
   14.9359    4.7344    0.0000 C   0  0  2  0  0  0  0  0  0  0  0  0
   12.1215   -6.1070    0.0000 C   0  0  0  0  0  0  0  0  0  0  0  0
    9.3378    3.0457    0.0000 O   0  0  0  0  0  0  0  0  0  0  0  0
   12.8463   -5.6906    0.0000 C   0  0  0  0  0  0  0  0  0  0  0  0
   11.4197   -5.6906    0.0000 C   0  0  0  0  0  0  0  0  0  0  0  0
   12.1061   -6.9475    0.0000 Cl  0  0  0  0  0  0  0  0  0  0  0  0
   14.2419   -2.3827    0.0000 C   0  0  0  0  0  0  0  0  0  0  0  0
   10.7335    3.8863    0.0000 C   0  0  0  0  0  0  0  0  0  0  0  0
   16.3316    3.8863    0.0000 C   0  0  0  0  0  0  0  0  0  0  0  0
    9.3378    1.3802    0.0000 C   0  0  0  0  0  0  0  0  0  0  0  0
   15.6223    5.1354    0.0000 C   0  0  0  0  0  0  0  0  0  0  0  0
   14.2419    5.1354    0.0000 C   0  0  0  0  0  0  0  0  0  0  0  0
   16.3316    4.7344    0.0000 C   0  0  0  0  0  0  0  0  0  0  0  0
   12.8463   -1.5345    0.0000 H   0  0  0  0  0  0  0  0  0  0  0  0
   12.1292   -2.7990    0.0000 H   0  0  0  0  0  0  0  0  0  0  0  0
   15.6223    4.2949    0.0000 H   0  0  0  0  0  0  0  0  0  0  0  0
   13.5248    2.1976    0.0000 H   0  0  0  0  0  0  0  0  0  0  0  0
   12.8463    3.4699    0.0000 H   0  0  0  0  0  0  0  0  0  0  0  0
  2  1  1  0  0  0  0
  3  2  1  0  0  0  0
  4  1  1  0  0  0  0
  5 15  1  6  0  0  0
  6  1  1  0  0  0  0
  7  8  1  0  0  0  0
  8  6  2  0  0  0  0
  9  3  1  0  0  0  0
 10  2  1  0  0  0  0
  7 11  1  1  0  0  0
 12  5  1  0  0  0  0
 13  4  1  0  0  0  0
 14 11  1  0  0  0  0
 15 18  1  0  0  0  0
 16 31  1  0  0  0  0
 17 12  1  0  0  0  0
 18 13  1  0  0  0  0
 19  5  1  0  0  0  0
 20 22  2  0  0  0  0
 21 19  2  0  0  0  0
 22 38  1  0  0  0  0
 23 10  1  0  0  0  0
 24 35  1  0  0  0  0
 25 14  1  0  0  0  0
 26 10  2  0  0  0  0
 27  4  2  0  0  0  0
 28 26  1  0  0  0  0
 29 21  1  0  0  0  0
 30 18  1  0  0  0  0
 31 30  1  0  0  0  0
 32 14  2  0  0  0  0
 33 28  2  0  0  0  0
  2 34  1  6  0  0  0
 35 33  1  0  0  0  0
 36 25  1  0  0  0  0
 37 25  2  0  0  0  0
 38 31  1  0  0  0  0
 39 17  1  0  0  0  0
 40 42  1  0  0  0  0
 24 41  1  6  0  0  0
 42 36  2  0  0  0  0
 43 37  1  0  0  0  0
 44 40  1  0  0  0  0
 45  8  1  0  0  0  0
 46 20  1  0  0  0  0
 29 47  1  1  0  0  0
 35 48  1  6  0  0  0
 49 39  1  0  0  0  0
 39 50  1  1  0  0  0
 51 49  1  0  0  0  0
  1 52  1  1  0  0  0
  3 53  1  6  0  0  0
 17 54  1  1  0  0  0
 18 55  1  6  0  0  0
 31 56  1  6  0  0  0
  7  3  1  0  0  0  0
 23  9  1  0  0  0  0
  5 16  1  1  0  0  0
 20 24  1  0  0  0  0
 43 40  2  0  0  0  0
 17 29  1  0  0  0  0
M  END
>  <IDNUMBER>
F6170-0321

>  <Chemical_Name>
(1'R,2S,4'S,5S,6R,8'R,10'E,12'S,13'S,14'E,16'E,20'R,21'R,24'S)-6-[(2S)-butan-2-yl]-12',24'-dihydroxy-5,11',13',22'-tetramethyl-2'-oxo-5,6-dihydro-3',7',19'-trioxaspiro[pyran-2,6'-tetracyclo[15.6.1.1?,?.0??,??]pentacosane]-10',14',16',22'-tetraen-21'-yl 4-chlorobenzoate

>  <PriceCoeff>
7.00

>  <MW>
723.30

>  <Description>
solid

>  <FSP3>
0.56

>  <clogP>
7.52

>  <TPSA>
120.75

>  <Acceptor>
9

>  <Donor>
2

>  <RotBonds>
5

>  <HAC>
51

$$$$
F6170-0322
  Mrv2219 10102508112D          

 59 64  0  0  0  0            999 V2000
   12.0016    0.3371    0.0000 C   0  0  2  0  0  0  0  0  0  0  0  0
   11.2825   -0.0823    0.0000 C   0  0  1  0  0  0  0  0  0  0  0  0
   11.2825   -0.9215    0.0000 C   0  0  1  0  0  0  0  0  0  0  0  0
   12.0016    1.1763    0.0000 C   0  0  0  0  0  0  0  0  0  0  0  0
   13.3875    3.6859    0.0000 C   0  0  2  0  0  0  0  0  0  0  0  0
   12.6759   -0.0823    0.0000 C   0  0  0  0  0  0  0  0  0  0  0  0
   12.0016   -1.3410    0.0000 C   0  0  1  0  0  0  0  0  0  0  0  0
   12.6759   -0.9215    0.0000 C   0  0  0  0  0  0  0  0  0  0  0  0
    9.8966   -0.9215    0.0000 O   0  0  0  0  0  0  0  0  0  0  0  0
   10.6007    0.3371    0.0000 C   0  0  0  0  0  0  0  0  0  0  0  0
   12.0016   -2.1576    0.0000 O   0  0  0  0  0  0  0  0  0  0  0  0
   13.3875    4.5400    0.0000 O   0  0  0  0  0  0  0  0  0  0  0  0
   12.6759    1.5957    0.0000 O   0  0  0  0  0  0  0  0  0  0  0  0
   11.2675   -2.5847    0.0000 C   0  0  0  0  0  0  0  0  0  0  0  0
   13.3875    2.8468    0.0000 C   0  0  0  0  0  0  0  0  0  0  0  0
   12.6759    4.1054    0.0000 O   0  0  0  0  0  0  0  0  0  0  0  0
    9.2148    3.6859    0.0000 C   0  0  1  0  0  0  0  0  0  0  0  0
   14.0694    4.9594    0.0000 C   0  0  1  0  0  0  0  0  0  0  0  0
   12.6759    2.4274    0.0000 C   0  0  2  0  0  0  0  0  0  0  0  0
    9.8966    4.1054    0.0000 C   0  0  0  0  0  0  0  0  0  0  0  0
   14.0694    3.2589    0.0000 C   0  0  0  0  0  0  0  0  0  0  0  0
   14.7661    3.6859    0.0000 C   0  0  0  0  0  0  0  0  0  0  0  0
   10.6007    3.6859    0.0000 C   0  0  0  0  0  0  0  0  0  0  0  0
    8.5105    4.1054    0.0000 O   0  0  0  0  0  0  0  0  0  0  0  0
    9.8966   -0.0823    0.0000 C   0  0  0  0  0  0  0  0  0  0  0  0
    8.5256    4.9370    0.0000 C   0  0  0  0  0  0  0  0  0  0  0  0
   11.2675   -3.4237    0.0000 C   0  0  0  0  0  0  0  0  0  0  0  0
   10.6007    1.1763    0.0000 C   0  0  0  0  0  0  0  0  0  0  0  0
   11.4024    1.5733    0.0000 O   0  0  0  0  0  0  0  0  0  0  0  0
    9.8966    1.5957    0.0000 C   0  0  0  0  0  0  0  0  0  0  0  0
   14.7661    4.5400    0.0000 C   0  0  2  0  0  0  0  0  0  0  0  0
   12.0016    2.8468    0.0000 C   0  0  0  0  0  0  0  0  0  0  0  0
   12.0016    3.6859    0.0000 C   0  0  1  0  0  0  0  0  0  0  0  0
   10.5782   -2.1576    0.0000 O   0  0  0  0  0  0  0  0  0  0  0  0
    9.2148    2.8468    0.0000 C   0  0  2  0  0  0  0  0  0  0  0  0
    9.8966    2.4274    0.0000 C   0  0  0  0  0  0  0  0  0  0  0  0
   11.2825    0.7416    0.0000 O   0  0  0  0  0  0  0  0  0  0  0  0
    9.2373    5.3415    0.0000 O   0  0  0  0  0  0  0  0  0  0  0  0
   10.5782   -3.8283    0.0000 C   0  0  0  0  0  0  0  0  0  0  0  0
   11.9792   -3.8283    0.0000 C   0  0  0  0  0  0  0  0  0  0  0  0
   11.2825    4.1054    0.0000 C   0  0  0  0  0  0  0  0  0  0  0  0
   14.0694    5.7986    0.0000 C   0  0  2  0  0  0  0  0  0  0  0  0
   11.2675   -5.0793    0.0000 C   0  0  0  0  0  0  0  0  0  0  0  0
   12.0016   -4.6599    0.0000 C   0  0  0  0  0  0  0  0  0  0  0  0
   10.5782   -4.6599    0.0000 C   0  0  0  0  0  0  0  0  0  0  0  0
   11.2600   -5.9259    0.0000 Cl  0  0  0  0  0  0  0  0  0  0  0  0
   13.3875   -1.3410    0.0000 C   0  0  0  0  0  0  0  0  0  0  0  0
    9.8966    4.9594    0.0000 C   0  0  0  0  0  0  0  0  0  0  0  0
    7.8213    5.3715    0.0000 C   0  0  0  0  0  0  0  0  0  0  0  0
   15.4629    4.9594    0.0000 C   0  0  0  0  0  0  0  0  0  0  0  0
    8.5105    2.4274    0.0000 C   0  0  0  0  0  0  0  0  0  0  0  0
   14.7661    6.2107    0.0000 C   0  0  0  0  0  0  0  0  0  0  0  0
   13.3875    6.2107    0.0000 C   0  0  0  0  0  0  0  0  0  0  0  0
   15.4629    5.7986    0.0000 C   0  0  0  0  0  0  0  0  0  0  0  0
   12.6759    3.2589    0.0000 H   0  0  0  0  0  0  0  0  0  0  0  0
   12.0016    4.5400    0.0000 H   0  0  0  0  0  0  0  0  0  0  0  0
   12.0016   -0.4795    0.0000 H   0  0  0  0  0  0  0  0  0  0  0  0
   11.2825   -1.7606    0.0000 H   0  0  0  0  0  0  0  0  0  0  0  0
   14.7661    5.3640    0.0000 H   0  0  0  0  0  0  0  0  0  0  0  0
  2  1  1  0  0  0  0
  3  2  1  0  0  0  0
  4  1  1  0  0  0  0
  5 15  1  6  0  0  0
  6  1  1  0  0  0  0
  7  8  1  0  0  0  0
  8  6  2  0  0  0  0
  9  3  1  0  0  0  0
 10  2  1  0  0  0  0
  7 11  1  1  0  0  0
 12  5  1  0  0  0  0
 13  4  1  0  0  0  0
 14 11  1  0  0  0  0
 15 19  1  0  0  0  0
 16 33  1  0  0  0  0
 17 35  1  0  0  0  0
 18 12  1  0  0  0  0
 19 13  1  0  0  0  0
 20 23  2  0  0  0  0
 21  5  1  0  0  0  0
 22 21  2  0  0  0  0
 23 41  1  0  0  0  0
 17 24  1  6  0  0  0
 25 10  1  0  0  0  0
 26 24  1  0  0  0  0
 27 14  1  0  0  0  0
 28 10  2  0  0  0  0
 29  4  2  0  0  0  0
 30 28  1  0  0  0  0
 31 18  1  0  0  0  0
 32 19  1  0  0  0  0
 33 32  1  0  0  0  0
 34 14  2  0  0  0  0
 35 36  1  0  0  0  0
 36 30  2  0  0  0  0
  2 37  1  6  0  0  0
 38 26  2  0  0  0  0
 39 27  2  0  0  0  0
 40 27  1  0  0  0  0
 41 33  1  0  0  0  0
 42 18  1  0  0  0  0
 43 44  1  0  0  0  0
 44 40  2  0  0  0  0
 45 39  1  0  0  0  0
 46 43  1  0  0  0  0
 47  8  1  0  0  0  0
 48 20  1  0  0  0  0
 49 26  1  0  0  0  0
 31 50  1  1  0  0  0
 35 51  1  6  0  0  0
 52 42  1  0  0  0  0
 42 53  1  1  0  0  0
 54 52  1  0  0  0  0
 19 55  1  6  0  0  0
 33 56  1  6  0  0  0
  1 57  1  1  0  0  0
  3 58  1  6  0  0  0
 18 59  1  1  0  0  0
  7  3  1  0  0  0  0
 25  9  1  0  0  0  0
  5 16  1  1  0  0  0
 45 43  2  0  0  0  0
 20 17  1  0  0  0  0
 31 22  1  0  0  0  0
M  END
>  <IDNUMBER>
F6170-0322

>  <Chemical_Name>
(1'R,2S,4'S,5S,6R,8'R,10'E,12'S,13'S,14'E,16'E,20'R,21'R,24'S)-12'-(acetyloxy)-6-[(2S)-butan-2-yl]-24'-hydroxy-5,11',13',22'-tetramethyl-2'-oxo-5,6-dihydro-3',7',19'-trioxaspiro[pyran-2,6'-tetracyclo[15.6.1.1?,?.0??,??]pentacosane]-10',14',16',22'-tetraen-21'-yl 4-chlorobenzoate

>  <PriceCoeff>
7.00

>  <MW>
765.34

>  <Description>
solid

>  <FSP3>
0.56

>  <clogP>
8.46

>  <TPSA>
126.82

>  <Acceptor>
10

>  <Donor>
1

>  <RotBonds>
7

>  <HAC>
54

$$$$
F6170-0323
  Mrv2219 10102508112D          

 65 71  0  0  0  0            999 V2000
    5.9999   -2.5202    0.0000 C   0  0  2  0  0  0  0  0  0  0  0  0
    5.2822   -2.9373    0.0000 C   0  0  1  0  0  0  0  0  0  0  0  0
    5.2822   -3.7719    0.0000 C   0  0  1  0  0  0  0  0  0  0  0  0
    5.9999   -1.6856    0.0000 C   0  0  0  0  0  0  0  0  0  0  0  0
    7.3934    0.8136    0.0000 C   0  0  2  0  0  0  0  0  0  0  0  0
    6.6758   -2.9373    0.0000 C   0  0  0  0  0  0  0  0  0  0  0  0
    5.9999   -4.1974    0.0000 C   0  0  1  0  0  0  0  0  0  0  0  0
    6.6758   -3.7719    0.0000 C   0  0  0  0  0  0  0  0  0  0  0  0
    3.8803   -3.7719    0.0000 O   0  0  0  0  0  0  0  0  0  0  0  0
    4.5896   -2.5202    0.0000 C   0  0  0  0  0  0  0  0  0  0  0  0
    5.9999   -5.0111    0.0000 O   0  0  0  0  0  0  0  0  0  0  0  0
    7.3934    1.6648    0.0000 O   0  0  0  0  0  0  0  0  0  0  0  0
    2.4826    1.2392    0.0000 O   0  0  0  0  0  0  0  0  0  0  0  0
    6.6758   -1.2642    0.0000 O   0  0  0  0  0  0  0  0  0  0  0  0
    5.2697   -5.4324    0.0000 C   0  0  0  0  0  0  0  0  0  0  0  0
    2.4951    2.0653    0.0000 C   0  0  0  0  0  0  0  0  0  0  0  0
    3.1919    0.8136    0.0000 C   0  0  2  0  0  0  0  0  0  0  0  0
    7.3934   -0.0167    0.0000 C   0  0  0  0  0  0  0  0  0  0  0  0
    6.6758    1.2392    0.0000 O   0  0  0  0  0  0  0  0  0  0  0  0
    8.0861    2.0862    0.0000 C   0  0  1  0  0  0  0  0  0  0  0  0
    6.6758   -0.4381    0.0000 C   0  0  2  0  0  0  0  0  0  0  0  0
    3.8803    1.2392    0.0000 C   0  0  0  0  0  0  0  0  0  0  0  0
    8.0861    0.3963    0.0000 C   0  0  0  0  0  0  0  0  0  0  0  0
    8.7745    0.8136    0.0000 C   0  0  0  0  0  0  0  0  0  0  0  0
    4.5896    0.8136    0.0000 C   0  0  0  0  0  0  0  0  0  0  0  0
    3.8803   -2.9373    0.0000 C   0  0  0  0  0  0  0  0  0  0  0  0
    5.2697   -6.2711    0.0000 C   0  0  0  0  0  0  0  0  0  0  0  0
    1.7900    2.4951    0.0000 C   0  0  0  0  0  0  0  0  0  0  0  0
    4.5896   -1.6856    0.0000 C   0  0  0  0  0  0  0  0  0  0  0  0
    5.3949   -1.2851    0.0000 O   0  0  0  0  0  0  0  0  0  0  0  0
    3.8803   -1.2642    0.0000 C   0  0  0  0  0  0  0  0  0  0  0  0
    8.7745    1.6648    0.0000 C   0  0  2  0  0  0  0  0  0  0  0  0
    5.9999   -0.0167    0.0000 C   0  0  0  0  0  0  0  0  0  0  0  0
    5.9999    0.8136    0.0000 C   0  0  1  0  0  0  0  0  0  0  0  0
    4.5688   -5.0111    0.0000 O   0  0  0  0  0  0  0  0  0  0  0  0
    3.2169    2.4659    0.0000 O   0  0  0  0  0  0  0  0  0  0  0  0
    3.1919   -0.0167    0.0000 C   0  0  2  0  0  0  0  0  0  0  0  0
    3.8803   -0.4381    0.0000 C   0  0  0  0  0  0  0  0  0  0  0  0
    5.2822   -2.1196    0.0000 O   0  0  0  0  0  0  0  0  0  0  0  0
    5.9832   -6.6800    0.0000 C   0  0  0  0  0  0  0  0  0  0  0  0
    4.5688   -6.6800    0.0000 C   0  0  0  0  0  0  0  0  0  0  0  0
    1.8067    3.3212    0.0000 C   0  0  0  0  0  0  0  0  0  0  0  0
    1.0723    2.0946    0.0000 C   0  0  0  0  0  0  0  0  0  0  0  0
    5.2822    1.2392    0.0000 C   0  0  0  0  0  0  0  0  0  0  0  0
    8.0861    2.9290    0.0000 C   0  0  2  0  0  0  0  0  0  0  0  0
    0.3755    3.3463    0.0000 C   0  0  0  0  0  0  0  0  0  0  0  0
    5.2697   -7.9234    0.0000 C   0  0  0  0  0  0  0  0  0  0  0  0
    1.1015    3.7468    0.0000 C   0  0  0  0  0  0  0  0  0  0  0  0
    5.9999   -7.5020    0.0000 C   0  0  0  0  0  0  0  0  0  0  0  0
    0.3630    2.5159    0.0000 C   0  0  0  0  0  0  0  0  0  0  0  0
    4.5688   -7.5020    0.0000 C   0  0  0  0  0  0  0  0  0  0  0  0
    5.2530   -8.7662    0.0000 Cl  0  0  0  0  0  0  0  0  0  0  0  0
   -0.3338    3.7719    0.0000 Cl  0  0  0  0  0  0  0  0  0  0  0  0
    7.3934   -4.1974    0.0000 C   0  0  0  0  0  0  0  0  0  0  0  0
    3.8803    2.0862    0.0000 C   0  0  0  0  0  0  0  0  0  0  0  0
    9.4838    2.0862    0.0000 C   0  0  0  0  0  0  0  0  0  0  0  0
    2.4826   -0.4298    0.0000 C   0  0  0  0  0  0  0  0  0  0  0  0
    8.7745    3.3338    0.0000 C   0  0  0  0  0  0  0  0  0  0  0  0
    7.3934    3.3338    0.0000 C   0  0  0  0  0  0  0  0  0  0  0  0
    9.4838    2.9290    0.0000 C   0  0  0  0  0  0  0  0  0  0  0  0
    5.9999    1.6648    0.0000 H   0  0  0  0  0  0  0  0  0  0  0  0
    5.9999   -3.3463    0.0000 H   0  0  0  0  0  0  0  0  0  0  0  0
    5.2822   -4.6105    0.0000 H   0  0  0  0  0  0  0  0  0  0  0  0
    8.7745    2.4909    0.0000 H   0  0  0  0  0  0  0  0  0  0  0  0
    6.6758    0.3922    0.0000 H   0  0  0  0  0  0  0  0  0  0  0  0
  2  1  1  0  0  0  0
  3  2  1  0  0  0  0
  4  1  1  0  0  0  0
  5 18  1  6  0  0  0
  6  1  1  0  0  0  0
  7  8  1  0  0  0  0
  8  6  2  0  0  0  0
  9  3  1  0  0  0  0
 10  2  1  0  0  0  0
  7 11  1  1  0  0  0
 12  5  1  0  0  0  0
 17 13  1  6  0  0  0
 14  4  1  0  0  0  0
 15 11  1  0  0  0  0
 16 13  1  0  0  0  0
 17 37  1  0  0  0  0
 18 21  1  0  0  0  0
  5 19  1  1  0  0  0
 20 12  1  0  0  0  0
 21 14  1  0  0  0  0
 22 25  2  0  0  0  0
 23  5  1  0  0  0  0
 24 23  2  0  0  0  0
 25 44  1  0  0  0  0
 26 10  1  0  0  0  0
 27 15  1  0  0  0  0
 28 16  1  0  0  0  0
 29 10  2  0  0  0  0
 30  4  2  0  0  0  0
 31 29  1  0  0  0  0
 32 24  1  0  0  0  0
 33 21  1  0  0  0  0
 34 33  1  0  0  0  0
 35 15  2  0  0  0  0
 36 16  2  0  0  0  0
 37 38  1  0  0  0  0
 38 31  2  0  0  0  0
  2 39  1  6  0  0  0
 40 27  1  0  0  0  0
 41 27  2  0  0  0  0
 42 28  2  0  0  0  0
 43 28  1  0  0  0  0
 44 34  1  0  0  0  0
 45 20  1  0  0  0  0
 46 50  1  0  0  0  0
 47 49  1  0  0  0  0
 48 42  1  0  0  0  0
 49 40  2  0  0  0  0
 50 43  2  0  0  0  0
 51 41  1  0  0  0  0
 52 47  1  0  0  0  0
 53 46  1  0  0  0  0
 54  8  1  0  0  0  0
 55 22  1  0  0  0  0
 32 56  1  1  0  0  0
 37 57  1  6  0  0  0
 58 45  1  0  0  0  0
 45 59  1  1  0  0  0
 60 58  1  0  0  0  0
 34 61  1  6  0  0  0
  1 62  1  1  0  0  0
  3 63  1  6  0  0  0
 20 64  1  1  0  0  0
 21 65  1  6  0  0  0
  7  3  1  0  0  0  0
 26  9  1  0  0  0  0
 34 19  1  0  0  0  0
 51 47  2  0  0  0  0
 20 32  1  0  0  0  0
 22 17  1  0  0  0  0
 46 48  2  0  0  0  0
M  END
>  <IDNUMBER>
F6170-0323

>  <Chemical_Name>
(1'R,2S,4'S,5S,6R,8'R,10'E,12'S,13'S,14'E,16'E,20'R,21'R,24'S)-6-[(2S)-butan-2-yl]-12'-(4-chlorobenzoyloxy)-24'-hydroxy-5,11',13',22'-tetramethyl-2'-oxo-5,6-dihydro-3',7',19'-trioxaspiro[pyran-2,6'-tetracyclo[15.6.1.1?,?.0??,??]pentacosane]-10',14',16',22'-tetraen-21'-yl 4-chlorobenzoate

>  <PriceCoeff>
7.00

>  <MW>
861.85

>  <Description>
solid

>  <FSP3>
0.48

>  <clogP>
11.11

>  <TPSA>
126.82

>  <Acceptor>
10

>  <Donor>
1

>  <RotBonds>
8

>  <HAC>
60

$$$$
F6170-0326
  Mrv2219 10102508112D          

 66 72  0  0  0  0            999 V2000
    6.5762   -6.9696    0.0000 C   0  0  2  0  0  0  0  0  0  0  0  0
    5.8652   -7.3837    0.0000 C   0  0  1  0  0  0  0  0  0  0  0  0
    5.8652   -8.2078    0.0000 C   0  0  1  0  0  0  0  0  0  0  0  0
    6.5762   -6.1412    0.0000 C   0  0  0  0  0  0  0  0  0  0  0  0
    8.0028   -3.6563    0.0000 C   0  0  2  0  0  0  0  0  0  0  0  0
    7.2833   -7.3837    0.0000 C   0  0  0  0  0  0  0  0  0  0  0  0
    6.5762   -8.6261    0.0000 C   0  0  1  0  0  0  0  0  0  0  0  0
    7.2833   -8.2078    0.0000 C   0  0  0  0  0  0  0  0  0  0  0  0
    4.4344   -8.2078    0.0000 O   0  0  0  0  0  0  0  0  0  0  0  0
    5.1581   -6.9696    0.0000 C   0  0  0  0  0  0  0  0  0  0  0  0
    8.0028   -2.8196    0.0000 O   0  0  0  0  0  0  0  0  0  0  0  0
    3.0163   -3.2379    0.0000 O   0  0  0  0  0  0  0  0  0  0  0  0
    7.2833   -5.7311    0.0000 O   0  0  0  0  0  0  0  0  0  0  0  0
    5.8567   -9.8727    0.0000 C   0  0  0  0  0  0  0  0  0  0  0  0
    3.0163   -2.4096    0.0000 C   0  0  0  0  0  0  0  0  0  0  0  0
    3.7316   -3.6563    0.0000 C   0  0  2  0  0  0  0  0  0  0  0  0
    8.0028   -4.4846    0.0000 C   0  0  0  0  0  0  0  0  0  0  0  0
    7.2833   -3.2379    0.0000 O   0  0  0  0  0  0  0  0  0  0  0  0
    8.7098   -2.4013    0.0000 C   0  0  1  0  0  0  0  0  0  0  0  0
    7.2833   -4.8946    0.0000 C   0  0  2  0  0  0  0  0  0  0  0  0
    4.4427   -3.2379    0.0000 C   0  0  0  0  0  0  0  0  0  0  0  0
    6.5762   -9.4545    0.0000 O   0  0  0  0  0  0  0  0  0  0  0  0
    8.7098   -4.0663    0.0000 C   0  0  0  0  0  0  0  0  0  0  0  0
    0.1464    0.0753    0.0000 N   0  0  0  0  0  0  0  0  0  0  0  0
    9.4126   -3.6563    0.0000 C   0  0  0  0  0  0  0  0  0  0  0  0
    5.1581   -3.6563    0.0000 C   0  0  0  0  0  0  0  0  0  0  0  0
    4.4427   -7.3837    0.0000 C   0  0  0  0  0  0  0  0  0  0  0  0
    0.1506   -0.7530    0.0000 C   0  0  0  0  0  0  0  0  0  0  0  0
    5.1498   -9.4545    0.0000 N   0  0  0  0  0  0  0  0  0  0  0  0
    2.2967   -1.9955    0.0000 C   0  0  0  0  0  0  0  0  0  0  0  0
    5.1581   -6.1412    0.0000 C   0  0  0  0  0  0  0  0  0  0  0  0
    5.9697   -5.7479    0.0000 O   0  0  0  0  0  0  0  0  0  0  0  0
    4.4427   -5.7311    0.0000 C   0  0  0  0  0  0  0  0  0  0  0  0
    9.4126   -2.8196    0.0000 C   0  0  2  0  0  0  0  0  0  0  0  0
    6.5762   -4.4846    0.0000 C   0  0  0  0  0  0  0  0  0  0  0  0
    6.5762   -3.6563    0.0000 C   0  0  1  0  0  0  0  0  0  0  0  0
    5.8567  -10.6969    0.0000 O   0  0  0  0  0  0  0  0  0  0  0  0
    3.7400   -1.9913    0.0000 O   0  0  0  0  0  0  0  0  0  0  0  0
    3.7316   -4.4846    0.0000 C   0  0  2  0  0  0  0  0  0  0  0  0
    4.4427   -4.8946    0.0000 C   0  0  0  0  0  0  0  0  0  0  0  0
    5.8652   -6.5679    0.0000 O   0  0  0  0  0  0  0  0  0  0  0  0
    2.3009   -1.1629    0.0000 C   0  0  0  0  0  0  0  0  0  0  0  0
    1.5856   -2.4096    0.0000 C   0  0  0  0  0  0  0  0  0  0  0  0
    0.8660   -1.1629    0.0000 C   0  0  0  0  0  0  0  0  0  0  0  0
    5.8652   -3.2379    0.0000 C   0  0  0  0  0  0  0  0  0  0  0  0
    8.7098   -1.5813    0.0000 C   0  0  2  0  0  0  0  0  0  0  0  0
    4.4302   -9.8727    0.0000 C   0  0  0  0  0  0  0  0  0  0  0  0
    0.8702   -1.9997    0.0000 C   0  0  0  0  0  0  0  0  0  0  0  0
    1.5856   -0.7488    0.0000 C   0  0  0  0  0  0  0  0  0  0  0  0
    8.0028   -8.6261    0.0000 C   0  0  0  0  0  0  0  0  0  0  0  0
    4.4427   -2.4179    0.0000 C   0  0  0  0  0  0  0  0  0  0  0  0
   10.1363   -2.4096    0.0000 C   0  0  0  0  0  0  0  0  0  0  0  0
    3.0163   -4.8946    0.0000 C   0  0  0  0  0  0  0  0  0  0  0  0
    9.4126   -1.1714    0.0000 C   0  0  0  0  0  0  0  0  0  0  0  0
    8.0028   -1.1714    0.0000 C   0  0  0  0  0  0  0  0  0  0  0  0
    4.4344  -10.6969    0.0000 C   0  0  0  0  0  0  0  0  0  0  0  0
    3.7149   -9.4545    0.0000 C   0  0  0  0  0  0  0  0  0  0  0  0
   10.1363   -1.5813    0.0000 C   0  0  0  0  0  0  0  0  0  0  0  0
    2.9995   -9.8811    0.0000 C   0  0  0  0  0  0  0  0  0  0  0  0
    3.7316  -11.1111    0.0000 C   0  0  0  0  0  0  0  0  0  0  0  0
    2.9995  -10.7010    0.0000 C   0  0  0  0  0  0  0  0  0  0  0  0
    7.2833   -4.0830    0.0000 H   0  0  0  0  0  0  0  0  0  0  0  0
    6.5762   -2.8196    0.0000 H   0  0  0  0  0  0  0  0  0  0  0  0
    6.5762   -7.7853    0.0000 H   0  0  0  0  0  0  0  0  0  0  0  0
    5.8652   -9.0403    0.0000 H   0  0  0  0  0  0  0  0  0  0  0  0
    9.4126   -1.9997    0.0000 H   0  0  0  0  0  0  0  0  0  0  0  0
  2  1  1  0  0  0  0
  3  2  1  0  0  0  0
  4  1  1  0  0  0  0
  5 17  1  6  0  0  0
  6  1  1  0  0  0  0
  7  8  1  0  0  0  0
  8  6  2  0  0  0  0
  9  3  1  0  0  0  0
 10  2  1  0  0  0  0
 11  5  1  0  0  0  0
 16 12  1  6  0  0  0
 13  4  1  0  0  0  0
 14 22  1  0  0  0  0
 15 12  1  0  0  0  0
 16 39  1  0  0  0  0
 17 20  1  0  0  0  0
 18 36  1  0  0  0  0
 19 11  1  0  0  0  0
 20 13  1  0  0  0  0
 21 26  2  0  0  0  0
  7 22  1  1  0  0  0
 23  5  1  0  0  0  0
 24 28  3  0  0  0  0
 25 23  2  0  0  0  0
 26 45  1  0  0  0  0
 27 10  1  0  0  0  0
 28 44  1  0  0  0  0
 29 14  1  0  0  0  0
 30 15  1  0  0  0  0
 31 10  2  0  0  0  0
 32  4  2  0  0  0  0
 33 31  1  0  0  0  0
 34 25  1  0  0  0  0
 35 20  1  0  0  0  0
 36 35  1  0  0  0  0
 37 14  2  0  0  0  0
 38 15  2  0  0  0  0
 39 40  1  0  0  0  0
 40 33  2  0  0  0  0
  2 41  1  6  0  0  0
 42 30  2  0  0  0  0
 43 30  1  0  0  0  0
 44 48  1  0  0  0  0
 45 36  1  0  0  0  0
 46 19  1  0  0  0  0
 47 29  1  0  0  0  0
 48 43  2  0  0  0  0
 49 42  1  0  0  0  0
 50  8  1  0  0  0  0
 51 21  1  0  0  0  0
 34 52  1  1  0  0  0
 39 53  1  6  0  0  0
 54 46  1  0  0  0  0
 46 55  1  1  0  0  0
 56 47  1  0  0  0  0
 57 47  2  0  0  0  0
 58 54  1  0  0  0  0
 59 57  1  0  0  0  0
 60 56  2  0  0  0  0
 61 59  2  0  0  0  0
 20 62  1  6  0  0  0
 36 63  1  6  0  0  0
  1 64  1  1  0  0  0
  3 65  1  6  0  0  0
 19 66  1  1  0  0  0
  7  3  1  0  0  0  0
 27  9  1  0  0  0  0
  5 18  1  1  0  0  0
 21 16  1  0  0  0  0
 19 34  1  0  0  0  0
 60 61  1  0  0  0  0
 44 49  2  0  0  0  0
M  END
>  <IDNUMBER>
F6170-0326

>  <Chemical_Name>
(1'R,2S,4'S,5S,6R,8'R,10'E,12'S,13'S,14'E,16'E,20'R,21'R,24'S)-6-[(2S)-butan-2-yl]-24'-hydroxy-5,11',13',22'-tetramethyl-2'-oxo-21'-[(phenylcarbamoyl)oxy]-5,6-dihydro-3',7',19'-trioxaspiro[pyran-2,6'-tetracyclo[15.6.1.1?,?.0??,??]pentacosane]-10',14',16',22'-tetraen-12'-yl 4-cyanobenzoate

>  <PriceCoeff>
7.00

>  <MW>
832.99

>  <Description>
solid

>  <FSP3>
0.47

>  <clogP>
8.73

>  <TPSA>
162.64

>  <Acceptor>
11

>  <Donor>
2

>  <RotBonds>
8

>  <HAC>
61

$$$$
F6170-0327
  Mrv2219 10102508112D          

 68 74  0  0  0  0            999 V2000
    6.5762   -6.9696    0.0000 C   0  0  2  0  0  0  0  0  0  0  0  0
    5.8652   -7.3837    0.0000 C   0  0  1  0  0  0  0  0  0  0  0  0
    5.8652   -8.2078    0.0000 C   0  0  1  0  0  0  0  0  0  0  0  0
    6.5762   -6.1412    0.0000 C   0  0  0  0  0  0  0  0  0  0  0  0
    8.0028   -3.6563    0.0000 C   0  0  2  0  0  0  0  0  0  0  0  0
    7.2833   -7.3837    0.0000 C   0  0  0  0  0  0  0  0  0  0  0  0
    6.5762   -8.6261    0.0000 C   0  0  1  0  0  0  0  0  0  0  0  0
    7.2833   -8.2078    0.0000 C   0  0  0  0  0  0  0  0  0  0  0  0
    4.4344   -8.2078    0.0000 O   0  0  0  0  0  0  0  0  0  0  0  0
    5.1581   -6.9696    0.0000 C   0  0  0  0  0  0  0  0  0  0  0  0
    8.0028   -2.8196    0.0000 O   0  0  0  0  0  0  0  0  0  0  0  0
    0.1506   -0.7530    0.0000 C   0  0  0  0  0  0  0  0  0  0  0  0
    3.0163   -3.2379    0.0000 O   0  0  0  0  0  0  0  0  0  0  0  0
    7.2833   -5.7311    0.0000 O   0  0  0  0  0  0  0  0  0  0  0  0
    5.8567   -9.8727    0.0000 C   0  0  0  0  0  0  0  0  0  0  0  0
    3.0163   -2.4096    0.0000 C   0  0  0  0  0  0  0  0  0  0  0  0
    3.7316   -3.6563    0.0000 C   0  0  2  0  0  0  0  0  0  0  0  0
    8.0028   -4.4846    0.0000 C   0  0  0  0  0  0  0  0  0  0  0  0
    7.2833   -3.2379    0.0000 O   0  0  0  0  0  0  0  0  0  0  0  0
    8.7098   -2.4013    0.0000 C   0  0  1  0  0  0  0  0  0  0  0  0
    7.2833   -4.8946    0.0000 C   0  0  2  0  0  0  0  0  0  0  0  0
    4.4427   -3.2379    0.0000 C   0  0  0  0  0  0  0  0  0  0  0  0
    6.5762   -9.4545    0.0000 O   0  0  0  0  0  0  0  0  0  0  0  0
    8.7098   -4.0663    0.0000 C   0  0  0  0  0  0  0  0  0  0  0  0
    9.4126   -3.6563    0.0000 C   0  0  0  0  0  0  0  0  0  0  0  0
    5.1581   -3.6563    0.0000 C   0  0  0  0  0  0  0  0  0  0  0  0
    4.4427   -7.3837    0.0000 C   0  0  0  0  0  0  0  0  0  0  0  0
    0.8660   -1.1629    0.0000 C   0  0  0  0  0  0  0  0  0  0  0  0
    5.1498   -9.4545    0.0000 N   0  0  0  0  0  0  0  0  0  0  0  0
    2.2967   -1.9955    0.0000 C   0  0  0  0  0  0  0  0  0  0  0  0
    5.1581   -6.1412    0.0000 C   0  0  0  0  0  0  0  0  0  0  0  0
    5.9697   -5.7479    0.0000 O   0  0  0  0  0  0  0  0  0  0  0  0
    4.4427   -5.7311    0.0000 C   0  0  0  0  0  0  0  0  0  0  0  0
    9.4126   -2.8196    0.0000 C   0  0  2  0  0  0  0  0  0  0  0  0
    6.5762   -4.4846    0.0000 C   0  0  0  0  0  0  0  0  0  0  0  0
    6.5762   -3.6563    0.0000 C   0  0  1  0  0  0  0  0  0  0  0  0
    5.8567  -10.6969    0.0000 O   0  0  0  0  0  0  0  0  0  0  0  0
    3.7400   -1.9913    0.0000 O   0  0  0  0  0  0  0  0  0  0  0  0
    3.7316   -4.4846    0.0000 C   0  0  2  0  0  0  0  0  0  0  0  0
    4.4427   -4.8946    0.0000 C   0  0  0  0  0  0  0  0  0  0  0  0
    5.8652   -6.5679    0.0000 O   0  0  0  0  0  0  0  0  0  0  0  0
    0.8702   -1.9997    0.0000 C   0  0  0  0  0  0  0  0  0  0  0  0
    1.5856   -0.7488    0.0000 C   0  0  0  0  0  0  0  0  0  0  0  0
    1.5856   -2.4096    0.0000 C   0  0  0  0  0  0  0  0  0  0  0  0
    2.3009   -1.1629    0.0000 C   0  0  0  0  0  0  0  0  0  0  0  0
   -0.5690   -1.1672    0.0000 F   0  0  0  0  0  0  0  0  0  0  0  0
    0.1464    0.0753    0.0000 F   0  0  0  0  0  0  0  0  0  0  0  0
   -0.5731   -0.3388    0.0000 F   0  0  0  0  0  0  0  0  0  0  0  0
    5.8652   -3.2379    0.0000 C   0  0  0  0  0  0  0  0  0  0  0  0
    8.7098   -1.5813    0.0000 C   0  0  2  0  0  0  0  0  0  0  0  0
    4.4302   -9.8727    0.0000 C   0  0  0  0  0  0  0  0  0  0  0  0
    8.0028   -8.6261    0.0000 C   0  0  0  0  0  0  0  0  0  0  0  0
    4.4427   -2.4179    0.0000 C   0  0  0  0  0  0  0  0  0  0  0  0
   10.1363   -2.4096    0.0000 C   0  0  0  0  0  0  0  0  0  0  0  0
    3.0163   -4.8946    0.0000 C   0  0  0  0  0  0  0  0  0  0  0  0
    9.4126   -1.1714    0.0000 C   0  0  0  0  0  0  0  0  0  0  0  0
    8.0028   -1.1714    0.0000 C   0  0  0  0  0  0  0  0  0  0  0  0
    4.4344  -10.6969    0.0000 C   0  0  0  0  0  0  0  0  0  0  0  0
    3.7149   -9.4545    0.0000 C   0  0  0  0  0  0  0  0  0  0  0  0
   10.1363   -1.5813    0.0000 C   0  0  0  0  0  0  0  0  0  0  0  0
    2.9995   -9.8811    0.0000 C   0  0  0  0  0  0  0  0  0  0  0  0
    3.7316  -11.1111    0.0000 C   0  0  0  0  0  0  0  0  0  0  0  0
    2.9995  -10.7010    0.0000 C   0  0  0  0  0  0  0  0  0  0  0  0
    6.5762   -7.7853    0.0000 H   0  0  0  0  0  0  0  0  0  0  0  0
    5.8652   -9.0403    0.0000 H   0  0  0  0  0  0  0  0  0  0  0  0
    9.4126   -1.9997    0.0000 H   0  0  0  0  0  0  0  0  0  0  0  0
    7.2833   -4.0830    0.0000 H   0  0  0  0  0  0  0  0  0  0  0  0
    6.5762   -2.8196    0.0000 H   0  0  0  0  0  0  0  0  0  0  0  0
  2  1  1  0  0  0  0
  3  2  1  0  0  0  0
  4  1  1  0  0  0  0
  5 18  1  6  0  0  0
  6  1  1  0  0  0  0
  7  8  1  0  0  0  0
  8  6  2  0  0  0  0
  9  3  1  0  0  0  0
 10  2  1  0  0  0  0
 11  5  1  0  0  0  0
 12 28  1  0  0  0  0
 17 13  1  6  0  0  0
 14  4  1  0  0  0  0
 15 23  1  0  0  0  0
 16 13  1  0  0  0  0
 17 39  1  0  0  0  0
 18 21  1  0  0  0  0
 19 36  1  0  0  0  0
 20 11  1  0  0  0  0
 21 14  1  0  0  0  0
 22 26  2  0  0  0  0
  7 23  1  1  0  0  0
 24  5  1  0  0  0  0
 25 24  2  0  0  0  0
 26 49  1  0  0  0  0
 27 10  1  0  0  0  0
 28 42  1  0  0  0  0
 29 15  1  0  0  0  0
 30 16  1  0  0  0  0
 31 10  2  0  0  0  0
 32  4  2  0  0  0  0
 33 31  1  0  0  0  0
 34 25  1  0  0  0  0
 35 21  1  0  0  0  0
 36 35  1  0  0  0  0
 37 15  2  0  0  0  0
 38 16  2  0  0  0  0
 39 40  1  0  0  0  0
 40 33  2  0  0  0  0
  2 41  1  6  0  0  0
 42 44  2  0  0  0  0
 43 45  1  0  0  0  0
 44 30  1  0  0  0  0
 45 30  2  0  0  0  0
 46 12  1  0  0  0  0
 47 12  1  0  0  0  0
 48 12  1  0  0  0  0
 49 36  1  0  0  0  0
 50 20  1  0  0  0  0
 51 29  1  0  0  0  0
 52  8  1  0  0  0  0
 53 22  1  0  0  0  0
 34 54  1  1  0  0  0
 39 55  1  6  0  0  0
 56 50  1  0  0  0  0
 50 57  1  1  0  0  0
 58 51  1  0  0  0  0
 59 51  2  0  0  0  0
 60 56  1  0  0  0  0
 61 59  1  0  0  0  0
 62 58  2  0  0  0  0
 63 61  2  0  0  0  0
  1 64  1  1  0  0  0
  3 65  1  6  0  0  0
 20 66  1  1  0  0  0
 21 67  1  6  0  0  0
 36 68  1  6  0  0  0
  7  3  1  0  0  0  0
 27  9  1  0  0  0  0
  5 19  1  1  0  0  0
 22 17  1  0  0  0  0
 20 34  1  0  0  0  0
 62 63  1  0  0  0  0
 28 43  2  0  0  0  0
M  END
>  <IDNUMBER>
F6170-0327

>  <Chemical_Name>
(1'R,2S,4'S,5S,6R,8'R,10'E,12'S,13'S,14'E,16'E,20'R,21'R,24'S)-6-[(2S)-butan-2-yl]-24'-hydroxy-5,11',13',22'-tetramethyl-2'-oxo-21'-[(phenylcarbamoyl)oxy]-5,6-dihydro-3',7',19'-trioxaspiro[pyran-2,6'-tetracyclo[15.6.1.1?,?.0??,??]pentacosane]-10',14',16',22'-tetraen-12'-yl 4-(trifluoromethyl)benzoate

>  <PriceCoeff>
7.00

>  <MW>
875.98

>  <Description>
solid

>  <FSP3>
0.49

>  <clogP>
10.18

>  <TPSA>
138.85

>  <Acceptor>
10

>  <Donor>
2

>  <RotBonds>
8

>  <HAC>
63

$$$$
F6170-0332
  Mrv2219 10102508112D          

 56 61  0  0  0  0            999 V2000
   12.4103  -12.6427    0.0000 C   0  0  2  0  0  0  0  0  0  0  0  0
   11.7028  -13.0773    0.0000 C   0  0  1  0  0  0  0  0  0  0  0  0
   11.7028  -13.9160    0.0000 C   0  0  1  0  0  0  0  0  0  0  0  0
   12.4103  -11.8240    0.0000 C   0  0  0  0  0  0  0  0  0  0  0  0
   13.7846   -9.2875    0.0000 C   0  0  2  0  0  0  0  0  0  0  0  0
   13.0872  -13.0773    0.0000 C   0  0  0  0  0  0  0  0  0  0  0  0
   12.4103  -14.3404    0.0000 C   0  0  1  0  0  0  0  0  0  0  0  0
   13.0872  -13.9160    0.0000 C   0  0  0  0  0  0  0  0  0  0  0  0
   10.3283  -13.9160    0.0000 O   0  0  0  0  0  0  0  0  0  0  0  0
   11.0256  -12.6427    0.0000 C   0  0  0  0  0  0  0  0  0  0  0  0
   12.4103  -15.1792    0.0000 O   0  0  0  0  0  0  0  0  0  0  0  0
   13.7846   -8.4588    0.0000 O   0  0  0  0  0  0  0  0  0  0  0  0
   13.0872  -11.3894    0.0000 O   0  0  0  0  0  0  0  0  0  0  0  0
   11.7028  -15.5937    0.0000 C   0  0  0  0  0  0  0  0  0  0  0  0
   13.7846  -10.1364    0.0000 C   0  0  0  0  0  0  0  0  0  0  0  0
   13.0872   -8.8630    0.0000 O   0  0  0  0  0  0  0  0  0  0  0  0
   14.4818   -8.0142    0.0000 C   0  0  1  0  0  0  0  0  0  0  0  0
   13.0872  -10.5608    0.0000 C   0  0  2  0  0  0  0  0  0  0  0  0
   14.4818   -9.7120    0.0000 C   0  0  0  0  0  0  0  0  0  0  0  0
   10.3283   -8.8630    0.0000 C   0  0  0  0  0  0  0  0  0  0  0  0
   15.1591   -9.2875    0.0000 C   0  0  0  0  0  0  0  0  0  0  0  0
   11.0256   -9.2875    0.0000 C   0  0  0  0  0  0  0  0  0  0  0  0
   10.3283  -13.0773    0.0000 C   0  0  0  0  0  0  0  0  0  0  0  0
    9.6210   -9.2875    0.0000 C   0  0  2  0  0  0  0  0  0  0  0  0
   11.7028  -16.4323    0.0000 C   0  0  0  0  0  0  0  0  0  0  0  0
   11.0256  -11.8240    0.0000 C   0  0  0  0  0  0  0  0  0  0  0  0
   11.8039  -11.4098    0.0000 O   0  0  0  0  0  0  0  0  0  0  0  0
   10.3283  -11.3894    0.0000 C   0  0  0  0  0  0  0  0  0  0  0  0
   15.1591   -8.4588    0.0000 C   0  0  2  0  0  0  0  0  0  0  0  0
   12.4103  -10.1364    0.0000 C   0  0  0  0  0  0  0  0  0  0  0  0
   12.4103   -9.2875    0.0000 C   0  0  1  0  0  0  0  0  0  0  0  0
   11.0055  -15.1792    0.0000 O   0  0  0  0  0  0  0  0  0  0  0  0
   10.3283  -10.5608    0.0000 C   0  0  0  0  0  0  0  0  0  0  0  0
   11.7028  -12.2485    0.0000 O   0  0  0  0  0  0  0  0  0  0  0  0
    9.6210  -10.1364    0.0000 C   0  0  2  0  0  0  0  0  0  0  0  0
   10.9752  -16.8467    0.0000 C   0  0  0  0  0  0  0  0  0  0  0  0
   12.4304  -16.8467    0.0000 C   0  0  0  0  0  0  0  0  0  0  0  0
   11.7028   -8.8630    0.0000 C   0  0  0  0  0  0  0  0  0  0  0  0
   14.4818   -7.1956    0.0000 C   0  0  2  0  0  0  0  0  0  0  0  0
    8.9438   -8.8630    0.0000 O   0  0  0  0  0  0  0  0  0  0  0  0
   12.4304  -17.6754    0.0000 C   0  0  0  0  0  0  0  0  0  0  0  0
   10.9752  -17.6856    0.0000 C   0  0  0  0  0  0  0  0  0  0  0  0
   11.7028  -18.0999    0.0000 C   0  0  0  0  0  0  0  0  0  0  0  0
   13.7846  -14.3404    0.0000 C   0  0  0  0  0  0  0  0  0  0  0  0
   10.3283   -8.0142    0.0000 C   0  0  0  0  0  0  0  0  0  0  0  0
   15.8665   -8.0142    0.0000 C   0  0  0  0  0  0  0  0  0  0  0  0
    8.9438  -10.5507    0.0000 C   0  0  0  0  0  0  0  0  0  0  0  0
   15.1591   -6.7711    0.0000 C   0  0  0  0  0  0  0  0  0  0  0  0
   13.7846   -6.7711    0.0000 C   0  0  0  0  0  0  0  0  0  0  0  0
   11.7028  -18.9386    0.0000 C   0  0  0  0  0  0  0  0  0  0  0  0
   15.8665   -7.1956    0.0000 C   0  0  0  0  0  0  0  0  0  0  0  0
   11.7028  -14.7649    0.0000 H   0  0  0  0  0  0  0  0  0  0  0  0
   15.1591   -7.6098    0.0000 H   0  0  0  0  0  0  0  0  0  0  0  0
   13.0872   -9.7120    0.0000 H   0  0  0  0  0  0  0  0  0  0  0  0
   12.4103   -8.4588    0.0000 H   0  0  0  0  0  0  0  0  0  0  0  0
   12.4103  -13.4915    0.0000 H   0  0  0  0  0  0  0  0  0  0  0  0
  2  1  1  0  0  0  0
  3  2  1  0  0  0  0
  4  1  1  0  0  0  0
  5 15  1  6  0  0  0
  6  1  1  0  0  0  0
  7  8  1  0  0  0  0
  8  6  2  0  0  0  0
  9  3  1  0  0  0  0
 10  2  1  0  0  0  0
  7 11  1  1  0  0  0
 12  5  1  0  0  0  0
 13  4  1  0  0  0  0
 14 11  1  0  0  0  0
 15 18  1  0  0  0  0
  5 16  1  1  0  0  0
 17 12  1  0  0  0  0
 18 13  1  0  0  0  0
 19  5  1  0  0  0  0
 20 22  2  0  0  0  0
 21 19  2  0  0  0  0
 22 38  1  0  0  0  0
 23 10  1  0  0  0  0
 24 35  1  0  0  0  0
 25 14  1  0  0  0  0
 26 10  2  0  0  0  0
 27  4  2  0  0  0  0
 28 26  1  0  0  0  0
 29 21  1  0  0  0  0
 30 18  1  0  0  0  0
 31 30  1  0  0  0  0
 32 14  2  0  0  0  0
 33 28  2  0  0  0  0
  2 34  1  6  0  0  0
 35 33  1  0  0  0  0
 36 25  2  0  0  0  0
 37 25  1  0  0  0  0
 38 31  1  0  0  0  0
 39 17  1  0  0  0  0
 24 40  1  6  0  0  0
 41 37  2  0  0  0  0
 42 36  1  0  0  0  0
 43 41  1  0  0  0  0
 44  8  1  0  0  0  0
 45 20  1  0  0  0  0
 29 46  1  1  0  0  0
 35 47  1  6  0  0  0
 48 39  1  0  0  0  0
 39 49  1  1  0  0  0
 50 43  1  0  0  0  0
 51 48  1  0  0  0  0
  3 52  1  6  0  0  0
 17 53  1  1  0  0  0
 18 54  1  6  0  0  0
 31 55  1  6  0  0  0
  1 56  1  1  0  0  0
  3  7  1  0  0  0  0
  9 23  1  0  0  0  0
 31 16  1  0  0  0  0
 24 20  1  0  0  0  0
 17 29  1  0  0  0  0
 43 42  2  0  0  0  0
M  END
>  <IDNUMBER>
F6170-0332

>  <Chemical_Name>
(1'R,2S,4'S,5S,6R,8'R,10'E,12'S,13'S,14'E,16'E,20'R,21'R,24'S)-6-[(2S)-butan-2-yl]-12',24'-dihydroxy-5,11',13',22'-tetramethyl-2'-oxo-5,6-dihydro-3',7',19'-trioxaspiro[pyran-2,6'-tetracyclo[15.6.1.1?,?.0??,??]pentacosane]-10',14',16',22'-tetraen-21'-yl 4-methylbenzoate

>  <PriceCoeff>
7.00

>  <MW>
702.89

>  <Description>
solid

>  <FSP3>
0.57

>  <clogP>
7.30

>  <TPSA>
120.75

>  <Acceptor>
9

>  <Donor>
2

>  <RotBonds>
5

>  <HAC>
51

$$$$
F6170-0333
  Mrv2219 10102508112D          

 65 71  0  0  0  0            999 V2000
   -0.4757   -4.3076    0.0000 C   0  0  2  0  0  0  0  0  0  0  0  0
   -1.1825   -4.7436    0.0000 C   0  0  1  0  0  0  0  0  0  0  0  0
   -1.1825   -5.5892    0.0000 C   0  0  1  0  0  0  0  0  0  0  0  0
   -0.4757   -3.4950    0.0000 C   0  0  0  0  0  0  0  0  0  0  0  0
    0.8986   -0.9315    0.0000 C   0  0  2  0  0  0  0  0  0  0  0  0
    0.1982   -4.7436    0.0000 C   0  0  0  0  0  0  0  0  0  0  0  0
   -0.4757   -6.0121    0.0000 C   0  0  1  0  0  0  0  0  0  0  0  0
    0.1982   -5.5892    0.0000 C   0  0  0  0  0  0  0  0  0  0  0  0
   -2.5501   -5.5892    0.0000 O   0  0  0  0  0  0  0  0  0  0  0  0
   -1.8564   -4.3076    0.0000 C   0  0  0  0  0  0  0  0  0  0  0  0
   -0.4757   -6.8445    0.0000 O   0  0  0  0  0  0  0  0  0  0  0  0
    0.8986   -0.1189    0.0000 O   0  0  0  0  0  0  0  0  0  0  0  0
   -3.9177   -0.5022    0.0000 O   0  0  0  0  0  0  0  0  0  0  0  0
    0.1982   -3.0523    0.0000 O   0  0  0  0  0  0  0  0  0  0  0  0
   -1.1825   -7.2739    0.0000 C   0  0  0  0  0  0  0  0  0  0  0  0
   -3.8914    0.3238    0.0000 C   0  0  0  0  0  0  0  0  0  0  0  0
   -3.2438   -0.9315    0.0000 C   0  0  2  0  0  0  0  0  0  0  0  0
    0.8986   -1.7904    0.0000 C   0  0  0  0  0  0  0  0  0  0  0  0
    0.1982   -0.5022    0.0000 O   0  0  0  0  0  0  0  0  0  0  0  0
    1.6054    0.3501    0.0000 C   0  0  1  0  0  0  0  0  0  0  0  0
    0.1982   -2.2265    0.0000 C   0  0  2  0  0  0  0  0  0  0  0  0
   -2.5501   -0.5022    0.0000 C   0  0  0  0  0  0  0  0  0  0  0  0
    1.6054   -1.3742    0.0000 C   0  0  0  0  0  0  0  0  0  0  0  0
    2.2661   -0.9315    0.0000 C   0  0  0  0  0  0  0  0  0  0  0  0
   -1.8564   -0.9315    0.0000 C   0  0  0  0  0  0  0  0  0  0  0  0
   -2.5501   -4.7436    0.0000 C   0  0  0  0  0  0  0  0  0  0  0  0
   -1.1825   -8.1130    0.0000 C   0  0  0  0  0  0  0  0  0  0  0  0
   -4.5850    0.7663    0.0000 C   0  0  0  0  0  0  0  0  0  0  0  0
   -1.8564   -3.4950    0.0000 C   0  0  0  0  0  0  0  0  0  0  0  0
   -1.0703   -3.0787    0.0000 O   0  0  0  0  0  0  0  0  0  0  0  0
   -2.5501   -3.0523    0.0000 C   0  0  0  0  0  0  0  0  0  0  0  0
    2.2661   -0.1189    0.0000 C   0  0  2  0  0  0  0  0  0  0  0  0
   -0.4757   -1.7904    0.0000 C   0  0  0  0  0  0  0  0  0  0  0  0
   -0.4757   -0.9315    0.0000 C   0  0  1  0  0  0  0  0  0  0  0  0
   -1.8631   -6.8445    0.0000 O   0  0  0  0  0  0  0  0  0  0  0  0
   -3.1580    0.7202    0.0000 O   0  0  0  0  0  0  0  0  0  0  0  0
   -3.2438   -1.7904    0.0000 C   0  0  2  0  0  0  0  0  0  0  0  0
   -2.5501   -2.2265    0.0000 C   0  0  0  0  0  0  0  0  0  0  0  0
   -1.1825   -3.9112    0.0000 O   0  0  0  0  0  0  0  0  0  0  0  0
   -1.8960   -8.5225    0.0000 C   0  0  0  0  0  0  0  0  0  0  0  0
   -0.4492   -8.5225    0.0000 C   0  0  0  0  0  0  0  0  0  0  0  0
   -4.5586    1.5987    0.0000 C   0  0  0  0  0  0  0  0  0  0  0  0
   -5.3117    0.3766    0.0000 C   0  0  0  0  0  0  0  0  0  0  0  0
   -1.1825   -0.5022    0.0000 C   0  0  0  0  0  0  0  0  0  0  0  0
    1.6054    1.1627    0.0000 C   0  0  2  0  0  0  0  0  0  0  0  0
   -1.8960   -9.3616    0.0000 C   0  0  0  0  0  0  0  0  0  0  0  0
   -5.2523    2.0348    0.0000 C   0  0  0  0  0  0  0  0  0  0  0  0
   -6.0121    0.8126    0.0000 C   0  0  0  0  0  0  0  0  0  0  0  0
   -0.4492   -9.3616    0.0000 C   0  0  0  0  0  0  0  0  0  0  0  0
   -1.1825   -9.7910    0.0000 C   0  0  0  0  0  0  0  0  0  0  0  0
   -5.9856    1.6384    0.0000 C   0  0  0  0  0  0  0  0  0  0  0  0
    0.8986   -6.0121    0.0000 C   0  0  0  0  0  0  0  0  0  0  0  0
   -2.5501    0.3501    0.0000 C   0  0  0  0  0  0  0  0  0  0  0  0
    2.9796    0.3501    0.0000 C   0  0  0  0  0  0  0  0  0  0  0  0
   -3.9177   -2.2067    0.0000 C   0  0  0  0  0  0  0  0  0  0  0  0
    2.2661    1.5856    0.0000 C   0  0  0  0  0  0  0  0  0  0  0  0
    0.8986    1.5856    0.0000 C   0  0  0  0  0  0  0  0  0  0  0  0
   -1.1825  -10.6234    0.0000 C   0  0  0  0  0  0  0  0  0  0  0  0
   -6.6860    2.0877    0.0000 C   0  0  0  0  0  0  0  0  0  0  0  0
    2.9796    1.1627    0.0000 C   0  0  0  0  0  0  0  0  0  0  0  0
   -0.4757   -5.1598    0.0000 H   0  0  0  0  0  0  0  0  0  0  0  0
   -1.1825   -6.4481    0.0000 H   0  0  0  0  0  0  0  0  0  0  0  0
    2.2661    0.7532    0.0000 H   0  0  0  0  0  0  0  0  0  0  0  0
    0.1982   -1.3742    0.0000 H   0  0  0  0  0  0  0  0  0  0  0  0
   -0.4757   -0.1189    0.0000 H   0  0  0  0  0  0  0  0  0  0  0  0
  2  1  1  0  0  0  0
  3  2  1  0  0  0  0
  4  1  1  0  0  0  0
  5 18  1  6  0  0  0
  6  1  1  0  0  0  0
  7  8  1  0  0  0  0
  8  6  2  0  0  0  0
  9  3  1  0  0  0  0
 10  2  1  0  0  0  0
  7 11  1  1  0  0  0
 12  5  1  0  0  0  0
 17 13  1  6  0  0  0
 14  4  1  0  0  0  0
 15 11  1  0  0  0  0
 16 13  1  0  0  0  0
 17 37  1  0  0  0  0
 18 21  1  0  0  0  0
 19 34  1  0  0  0  0
 20 12  1  0  0  0  0
 21 14  1  0  0  0  0
 22 25  2  0  0  0  0
 23  5  1  0  0  0  0
 24 23  2  0  0  0  0
 25 44  1  0  0  0  0
 26 10  1  0  0  0  0
 27 15  1  0  0  0  0
 28 16  1  0  0  0  0
 29 10  2  0  0  0  0
 30  4  2  0  0  0  0
 31 29  1  0  0  0  0
 32 24  1  0  0  0  0
 33 21  1  0  0  0  0
 34 33  1  0  0  0  0
 35 15  2  0  0  0  0
 36 16  2  0  0  0  0
 37 38  1  0  0  0  0
 38 31  2  0  0  0  0
  2 39  1  6  0  0  0
 40 27  2  0  0  0  0
 41 27  1  0  0  0  0
 42 28  2  0  0  0  0
 43 28  1  0  0  0  0
 44 34  1  0  0  0  0
 45 20  1  0  0  0  0
 46 40  1  0  0  0  0
 47 42  1  0  0  0  0
 48 43  2  0  0  0  0
 49 41  2  0  0  0  0
 50 49  1  0  0  0  0
 51 48  1  0  0  0  0
 52  8  1  0  0  0  0
 53 22  1  0  0  0  0
 32 54  1  1  0  0  0
 37 55  1  6  0  0  0
 56 45  1  0  0  0  0
 45 57  1  1  0  0  0
 58 50  1  0  0  0  0
 59 51  1  0  0  0  0
 60 56  1  0  0  0  0
  1 61  1  1  0  0  0
  3 62  1  6  0  0  0
 20 63  1  1  0  0  0
 21 64  1  6  0  0  0
 34 65  1  6  0  0  0
  3  7  1  0  0  0  0
  9 26  1  0  0  0  0
  5 19  1  1  0  0  0
 17 22  1  0  0  0  0
 20 32  1  0  0  0  0
 50 46  2  0  0  0  0
 51 47  2  0  0  0  0
M  END
>  <IDNUMBER>
F6170-0333

>  <Chemical_Name>
(1'R,2S,4'S,5S,6R,8'R,10'E,12'S,13'S,14'E,16'E,20'R,21'R,24'S)-6-[(2S)-butan-2-yl]-24'-hydroxy-5,11',13',22'-tetramethyl-12'-(4-methylbenzoyloxy)-2'-oxo-5,6-dihydro-3',7',19'-trioxaspiro[pyran-2,6'-tetracyclo[15.6.1.1?,?.0??,??]pentacosane]-10',14',16',22'-tetraen-21'-yl 4-methylbenzoate

>  <PriceCoeff>
7.00

>  <MW>
821.02

>  <Description>
solid

>  <FSP3>
0.50

>  <clogP>
10.68

>  <TPSA>
126.82

>  <Acceptor>
10

>  <Donor>
1

>  <RotBonds>
8

>  <HAC>
60

$$$$
F6170-0334
  Mrv2219 10102508112D          

 59 64  0  0  0  0            999 V2000
    6.0098   -5.9888    0.0000 C   0  0  2  0  0  0  0  0  0  0  0  0
    5.3062   -6.4244    0.0000 C   0  0  1  0  0  0  0  0  0  0  0  0
    5.3062   -7.2662    0.0000 C   0  0  1  0  0  0  0  0  0  0  0  0
    6.0098   -5.1638    0.0000 C   0  0  0  0  0  0  0  0  0  0  0  0
    7.3876   -2.6427    0.0000 C   0  0  2  0  0  0  0  0  0  0  0  0
    6.6924   -6.4244    0.0000 C   0  0  0  0  0  0  0  0  0  0  0  0
    6.0098   -7.6891    0.0000 C   0  0  1  0  0  0  0  0  0  0  0  0
    6.6924   -7.2662    0.0000 C   0  0  0  0  0  0  0  0  0  0  0  0
    3.9325   -7.2662    0.0000 O   0  0  0  0  0  0  0  0  0  0  0  0
    4.6278   -5.9888    0.0000 C   0  0  0  0  0  0  0  0  0  0  0  0
    6.0098   -8.5267    0.0000 O   0  0  0  0  0  0  0  0  0  0  0  0
    7.3876   -1.7966    0.0000 O   0  0  0  0  0  0  0  0  0  0  0  0
    6.6924   -4.7366    0.0000 O   0  0  0  0  0  0  0  0  0  0  0  0
    5.3062   -8.9372    0.0000 C   0  0  0  0  0  0  0  0  0  0  0  0
    7.3876   -3.4802    0.0000 C   0  0  0  0  0  0  0  0  0  0  0  0
    6.6924   -2.2155    0.0000 O   0  0  0  0  0  0  0  0  0  0  0  0
    3.2289   -2.6427    0.0000 C   0  0  1  0  0  0  0  0  0  0  0  0
    8.0870   -1.3569    0.0000 C   0  0  1  0  0  0  0  0  0  0  0  0
    6.6924   -3.9074    0.0000 C   0  0  2  0  0  0  0  0  0  0  0  0
    3.9325   -2.2155    0.0000 C   0  0  0  0  0  0  0  0  0  0  0  0
    8.0870   -3.0573    0.0000 C   0  0  0  0  0  0  0  0  0  0  0  0
    8.7613   -2.6427    0.0000 C   0  0  0  0  0  0  0  0  0  0  0  0
    4.6278   -2.6427    0.0000 C   0  0  0  0  0  0  0  0  0  0  0  0
    2.5379   -2.2155    0.0000 O   0  0  0  0  0  0  0  0  0  0  0  0
    3.9325   -6.4244    0.0000 C   0  0  0  0  0  0  0  0  0  0  0  0
    1.8092   -2.6133    0.0000 C   0  0  0  0  0  0  0  0  0  0  0  0
    5.3062   -9.7831    0.0000 C   0  0  0  0  0  0  0  0  0  0  0  0
    4.6278   -5.1638    0.0000 C   0  0  0  0  0  0  0  0  0  0  0  0
    5.4067   -4.7617    0.0000 O   0  0  0  0  0  0  0  0  0  0  0  0
    3.9325   -4.7366    0.0000 C   0  0  0  0  0  0  0  0  0  0  0  0
    8.7613   -1.7966    0.0000 C   0  0  2  0  0  0  0  0  0  0  0  0
    6.0098   -3.4802    0.0000 C   0  0  0  0  0  0  0  0  0  0  0  0
    6.0098   -2.6427    0.0000 C   0  0  1  0  0  0  0  0  0  0  0  0
    4.6068   -8.5267    0.0000 O   0  0  0  0  0  0  0  0  0  0  0  0
    3.2289   -3.4802    0.0000 C   0  0  2  0  0  0  0  0  0  0  0  0
    3.9325   -3.9074    0.0000 C   0  0  0  0  0  0  0  0  0  0  0  0
    5.3062   -5.5952    0.0000 O   0  0  0  0  0  0  0  0  0  0  0  0
    1.1014   -2.1819    0.0000 O   0  0  0  0  0  0  0  0  0  0  0  0
    4.5775  -10.1977    0.0000 C   0  0  0  0  0  0  0  0  0  0  0  0
    6.0349  -10.1977    0.0000 C   0  0  0  0  0  0  0  0  0  0  0  0
    5.3062   -2.2155    0.0000 C   0  0  0  0  0  0  0  0  0  0  0  0
    8.0870   -0.5403    0.0000 C   0  0  2  0  0  0  0  0  0  0  0  0
    6.0349  -11.0269    0.0000 C   0  0  0  0  0  0  0  0  0  0  0  0
    4.5775  -11.0354    0.0000 C   0  0  0  0  0  0  0  0  0  0  0  0
    5.3062  -11.4500    0.0000 C   0  0  0  0  0  0  0  0  0  0  0  0
    7.3876   -7.6891    0.0000 C   0  0  0  0  0  0  0  0  0  0  0  0
    3.9325   -1.3695    0.0000 C   0  0  0  0  0  0  0  0  0  0  0  0
    1.7841   -3.4425    0.0000 C   0  0  0  0  0  0  0  0  0  0  0  0
    9.4732   -1.3695    0.0000 C   0  0  0  0  0  0  0  0  0  0  0  0
    2.5379   -3.8948    0.0000 C   0  0  0  0  0  0  0  0  0  0  0  0
    8.7613   -0.1131    0.0000 C   0  0  0  0  0  0  0  0  0  0  0  0
    7.3876   -0.1131    0.0000 C   0  0  0  0  0  0  0  0  0  0  0  0
    5.3062  -12.2918    0.0000 C   0  0  0  0  0  0  0  0  0  0  0  0
    9.4732   -0.5403    0.0000 C   0  0  0  0  0  0  0  0  0  0  0  0
    6.0098   -1.8009    0.0000 H   0  0  0  0  0  0  0  0  0  0  0  0
    6.0098   -6.8390    0.0000 H   0  0  0  0  0  0  0  0  0  0  0  0
    5.3062   -8.1080    0.0000 H   0  0  0  0  0  0  0  0  0  0  0  0
    8.7613   -0.9549    0.0000 H   0  0  0  0  0  0  0  0  0  0  0  0
    6.6924   -3.0573    0.0000 H   0  0  0  0  0  0  0  0  0  0  0  0
  2  1  1  0  0  0  0
  3  2  1  0  0  0  0
  4  1  1  0  0  0  0
  5 15  1  6  0  0  0
  6  1  1  0  0  0  0
  7  8  1  0  0  0  0
  8  6  2  0  0  0  0
  9  3  1  0  0  0  0
 10  2  1  0  0  0  0
  7 11  1  1  0  0  0
 12  5  1  0  0  0  0
 13  4  1  0  0  0  0
 14 11  1  0  0  0  0
 15 19  1  0  0  0  0
 16 33  1  0  0  0  0
 17 35  1  0  0  0  0
 18 12  1  0  0  0  0
 19 13  1  0  0  0  0
 20 23  2  0  0  0  0
 21  5  1  0  0  0  0
 22 21  2  0  0  0  0
 23 41  1  0  0  0  0
 17 24  1  6  0  0  0
 25 10  1  0  0  0  0
 26 24  1  0  0  0  0
 27 14  1  0  0  0  0
 28 10  2  0  0  0  0
 29  4  2  0  0  0  0
 30 28  1  0  0  0  0
 31 22  1  0  0  0  0
 32 19  1  0  0  0  0
 33 32  1  0  0  0  0
 34 14  2  0  0  0  0
 35 36  1  0  0  0  0
 36 30  2  0  0  0  0
  2 37  1  6  0  0  0
 38 26  2  0  0  0  0
 39 27  2  0  0  0  0
 40 27  1  0  0  0  0
 41 33  1  0  0  0  0
 42 18  1  0  0  0  0
 43 40  2  0  0  0  0
 44 39  1  0  0  0  0
 45 43  1  0  0  0  0
 46  8  1  0  0  0  0
 47 20  1  0  0  0  0
 48 26  1  0  0  0  0
 31 49  1  1  0  0  0
 35 50  1  6  0  0  0
 51 42  1  0  0  0  0
 42 52  1  1  0  0  0
 53 45  1  0  0  0  0
 54 51  1  0  0  0  0
 33 55  1  6  0  0  0
  1 56  1  1  0  0  0
  3 57  1  6  0  0  0
 18 58  1  1  0  0  0
 19 59  1  6  0  0  0
  3  7  1  0  0  0  0
  9 25  1  0  0  0  0
  5 16  1  1  0  0  0
 17 20  1  0  0  0  0
 18 31  1  0  0  0  0
 45 44  2  0  0  0  0
M  END
>  <IDNUMBER>
F6170-0334

>  <Chemical_Name>
(1'R,2S,4'S,5S,6R,8'R,10'E,12'S,13'S,14'E,16'E,20'R,21'R,24'S)-12'-(acetyloxy)-6-[(2S)-butan-2-yl]-24'-hydroxy-5,11',13',22'-tetramethyl-2'-oxo-5,6-dihydro-3',7',19'-trioxaspiro[pyran-2,6'-tetracyclo[15.6.1.1?,?.0??,??]pentacosane]-10',14',16',22'-tetraen-21'-yl 4-methylbenzoate

>  <PriceCoeff>
7.00

>  <MW>
744.92

>  <Description>
solid

>  <FSP3>
0.57

>  <clogP>
8.25

>  <TPSA>
126.82

>  <Acceptor>
10

>  <Donor>
1

>  <RotBonds>
7

>  <HAC>
54

$$$$
F6170-0335
  Mrv2219 10102508112D          

 59 65  0  0  0  0            999 V2000
    6.0182   -8.0702    0.0000 C   0  0  2  0  0  0  0  0  0  0  0  0
    5.3118   -8.5049    0.0000 C   0  0  1  0  0  0  0  0  0  0  0  0
    5.3118   -9.3449    0.0000 C   0  0  1  0  0  0  0  0  0  0  0  0
    6.0182   -7.2469    0.0000 C   0  0  0  0  0  0  0  0  0  0  0  0
    7.3890   -4.7310    0.0000 C   0  0  2  0  0  0  0  0  0  0  0  0
    6.6952   -8.5049    0.0000 C   0  0  0  0  0  0  0  0  0  0  0  0
    6.0182   -9.7670    0.0000 C   0  0  1  0  0  0  0  0  0  0  0  0
    6.6952   -9.3449    0.0000 C   0  0  0  0  0  0  0  0  0  0  0  0
    3.9411   -9.3449    0.0000 O   0  0  0  0  0  0  0  0  0  0  0  0
    4.6348   -8.0702    0.0000 C   0  0  0  0  0  0  0  0  0  0  0  0
    6.0182  -10.6028    0.0000 O   0  0  0  0  0  0  0  0  0  0  0  0
    7.3890   -3.8867    0.0000 O   0  0  0  0  0  0  0  0  0  0  0  0
    5.3118  -11.0124    0.0000 C   0  0  0  0  0  0  0  0  0  0  0  0
    6.6952   -6.8206    0.0000 O   0  0  0  0  0  0  0  0  0  0  0  0
    7.3890   -5.5668    0.0000 C   0  0  0  0  0  0  0  0  0  0  0  0
    6.6952   -4.3047    0.0000 O   0  0  0  0  0  0  0  0  0  0  0  0
    8.0869   -3.4479    0.0000 C   0  0  1  0  0  0  0  0  0  0  0  0
    6.6952   -5.9931    0.0000 C   0  0  2  0  0  0  0  0  0  0  0  0
    8.0869   -5.1447    0.0000 C   0  0  0  0  0  0  0  0  0  0  0  0
    5.3118  -11.8566    0.0000 C   0  0  0  0  0  0  0  0  0  0  0  0
    3.9411   -4.3047    0.0000 C   0  0  0  0  0  0  0  0  0  0  0  0
    8.7640   -4.7310    0.0000 C   0  0  0  0  0  0  0  0  0  0  0  0
    4.6348   -4.7310    0.0000 C   0  0  0  0  0  0  0  0  0  0  0  0
    3.9411   -8.5049    0.0000 C   0  0  0  0  0  0  0  0  0  0  0  0
    3.2390   -4.7310    0.0000 C   0  0  2  0  0  0  0  0  0  0  0  0
    6.0390  -12.2703    0.0000 C   0  0  0  0  0  0  0  0  0  0  0  0
    4.6348   -7.2469    0.0000 C   0  0  0  0  0  0  0  0  0  0  0  0
    5.4121   -6.8457    0.0000 O   0  0  0  0  0  0  0  0  0  0  0  0
    3.9411   -6.8206    0.0000 C   0  0  0  0  0  0  0  0  0  0  0  0
    8.7640   -3.8867    0.0000 C   0  0  2  0  0  0  0  0  0  0  0  0
    6.0182   -5.5668    0.0000 C   0  0  0  0  0  0  0  0  0  0  0  0
    6.0182   -4.7310    0.0000 C   0  0  1  0  0  0  0  0  0  0  0  0
    6.0349  -13.1104    0.0000 C   0  0  0  0  0  0  0  0  0  0  0  0
    4.6139  -10.6028    0.0000 O   0  0  0  0  0  0  0  0  0  0  0  0
    3.9411   -5.9931    0.0000 C   0  0  0  0  0  0  0  0  0  0  0  0
    5.3118   -7.6774    0.0000 O   0  0  0  0  0  0  0  0  0  0  0  0
    4.5805  -12.2703    0.0000 C   0  0  0  0  0  0  0  0  0  0  0  0
    3.2390   -5.5668    0.0000 C   0  0  2  0  0  0  0  0  0  0  0  0
    5.3077  -13.5283    0.0000 C   0  0  0  0  0  0  0  0  0  0  0  0
    4.5805  -13.1063    0.0000 C   0  0  0  0  0  0  0  0  0  0  0  0
    5.3118   -4.3047    0.0000 C   0  0  0  0  0  0  0  0  0  0  0  0
    8.0869   -2.6329    0.0000 C   0  0  2  0  0  0  0  0  0  0  0  0
    2.5494   -4.3047    0.0000 O   0  0  0  0  0  0  0  0  0  0  0  0
    7.3890   -9.7670    0.0000 C   0  0  0  0  0  0  0  0  0  0  0  0
    3.9411   -3.4604    0.0000 C   0  0  0  0  0  0  0  0  0  0  0  0
    6.7579  -13.5325    0.0000 C   0  0  0  0  0  0  0  0  0  0  0  0
    9.4703   -3.4604    0.0000 C   0  0  0  0  0  0  0  0  0  0  0  0
    2.5494   -5.9806    0.0000 C   0  0  0  0  0  0  0  0  0  0  0  0
    5.3035  -14.3642    0.0000 C   0  0  0  0  0  0  0  0  0  0  0  0
    8.7640   -2.2067    0.0000 C   0  0  0  0  0  0  0  0  0  0  0  0
    7.3890   -2.2067    0.0000 C   0  0  0  0  0  0  0  0  0  0  0  0
    9.4703   -2.6329    0.0000 C   0  0  0  0  0  0  0  0  0  0  0  0
    6.7579  -14.3684    0.0000 C   0  0  0  0  0  0  0  0  0  0  0  0
    6.0265  -14.7863    0.0000 C   0  0  0  0  0  0  0  0  0  0  0  0
    6.0182   -3.8909    0.0000 H   0  0  0  0  0  0  0  0  0  0  0  0
    6.0182   -8.9186    0.0000 H   0  0  0  0  0  0  0  0  0  0  0  0
    5.3118  -10.1849    0.0000 H   0  0  0  0  0  0  0  0  0  0  0  0
    8.7640   -3.0467    0.0000 H   0  0  0  0  0  0  0  0  0  0  0  0
    6.6952   -5.1447    0.0000 H   0  0  0  0  0  0  0  0  0  0  0  0
  2  1  1  0  0  0  0
  3  2  1  0  0  0  0
  4  1  1  0  0  0  0
  5 15  1  6  0  0  0
  6  1  1  0  0  0  0
  7  8  1  0  0  0  0
  8  6  2  0  0  0  0
  9  3  1  0  0  0  0
 10  2  1  0  0  0  0
  7 11  1  1  0  0  0
 12  5  1  0  0  0  0
 13 11  1  0  0  0  0
 14  4  1  0  0  0  0
 15 18  1  0  0  0  0
 16 32  1  0  0  0  0
 17 12  1  0  0  0  0
 18 14  1  0  0  0  0
 19  5  1  0  0  0  0
 20 13  1  0  0  0  0
 21 23  2  0  0  0  0
 22 19  2  0  0  0  0
 23 41  1  0  0  0  0
 24 10  1  0  0  0  0
 25 38  1  0  0  0  0
 26 20  2  0  0  0  0
 27 10  2  0  0  0  0
 28  4  2  0  0  0  0
 29 27  1  0  0  0  0
 30 22  1  0  0  0  0
 31 18  1  0  0  0  0
 32 31  1  0  0  0  0
 33 26  1  0  0  0  0
 34 13  2  0  0  0  0
 35 29  2  0  0  0  0
  2 36  1  6  0  0  0
 37 20  1  0  0  0  0
 38 35  1  0  0  0  0
 39 33  2  0  0  0  0
 40 37  2  0  0  0  0
 41 32  1  0  0  0  0
 42 17  1  0  0  0  0
 25 43  1  6  0  0  0
 44  8  1  0  0  0  0
 45 21  1  0  0  0  0
 46 33  1  0  0  0  0
 30 47  1  1  0  0  0
 38 48  1  6  0  0  0
 49 39  1  0  0  0  0
 50 42  1  0  0  0  0
 42 51  1  1  0  0  0
 52 50  1  0  0  0  0
 53 46  2  0  0  0  0
 54 53  1  0  0  0  0
 32 55  1  6  0  0  0
  1 56  1  1  0  0  0
  3 57  1  6  0  0  0
 17 58  1  1  0  0  0
 18 59  1  6  0  0  0
  3  7  1  0  0  0  0
  9 24  1  0  0  0  0
  5 16  1  1  0  0  0
 25 21  1  0  0  0  0
 39 40  1  0  0  0  0
 17 30  1  0  0  0  0
 54 49  2  0  0  0  0
M  END
>  <IDNUMBER>
F6170-0335

>  <Chemical_Name>
(1'R,2S,4'S,5S,6R,8'R,10'E,12'S,13'S,14'E,16'E,20'R,21'R,24'S)-6-[(2S)-butan-2-yl]-12',24'-dihydroxy-5,11',13',22'-tetramethyl-2'-oxo-5,6-dihydro-3',7',19'-trioxaspiro[pyran-2,6'-tetracyclo[15.6.1.1?,?.0??,??]pentacosane]-10',14',16',22'-tetraen-21'-yl naphthalene-2-carboxylate

>  <PriceCoeff>
7.00

>  <MW>
738.92

>  <Description>
solid

>  <FSP3>
0.51

>  <clogP>
7.98

>  <TPSA>
120.75

>  <Acceptor>
9

>  <Donor>
2

>  <RotBonds>
5

>  <HAC>
54

$$$$
F6170-0336
  Mrv2219 10102508112D          

 62 68  0  0  0  0            999 V2000
    6.3441   -8.0702    0.0000 C   0  0  2  0  0  0  0  0  0  0  0  0
    5.6420   -8.5049    0.0000 C   0  0  1  0  0  0  0  0  0  0  0  0
    5.6420   -9.3449    0.0000 C   0  0  1  0  0  0  0  0  0  0  0  0
    6.3441   -7.2469    0.0000 C   0  0  0  0  0  0  0  0  0  0  0  0
    7.7150   -4.7310    0.0000 C   0  0  2  0  0  0  0  0  0  0  0  0
    7.0254   -8.5049    0.0000 C   0  0  0  0  0  0  0  0  0  0  0  0
    6.3441   -9.7670    0.0000 C   0  0  1  0  0  0  0  0  0  0  0  0
    7.0254   -9.3449    0.0000 C   0  0  0  0  0  0  0  0  0  0  0  0
    4.2712   -9.3449    0.0000 O   0  0  0  0  0  0  0  0  0  0  0  0
    4.9650   -8.0702    0.0000 C   0  0  0  0  0  0  0  0  0  0  0  0
    6.3441  -10.6028    0.0000 O   0  0  0  0  0  0  0  0  0  0  0  0
    7.7150   -3.8867    0.0000 O   0  0  0  0  0  0  0  0  0  0  0  0
    5.6420  -11.0124    0.0000 C   0  0  0  0  0  0  0  0  0  0  0  0
    7.0254   -6.8206    0.0000 O   0  0  0  0  0  0  0  0  0  0  0  0
    7.7150   -5.5668    0.0000 C   0  0  0  0  0  0  0  0  0  0  0  0
    7.0254   -4.3047    0.0000 O   0  0  0  0  0  0  0  0  0  0  0  0
    3.5650   -4.7310    0.0000 C   0  0  1  0  0  0  0  0  0  0  0  0
    8.4171   -3.4479    0.0000 C   0  0  1  0  0  0  0  0  0  0  0  0
    7.0254   -5.9931    0.0000 C   0  0  2  0  0  0  0  0  0  0  0  0
    4.2712   -4.3047    0.0000 C   0  0  0  0  0  0  0  0  0  0  0  0
    8.4171   -5.1447    0.0000 C   0  0  0  0  0  0  0  0  0  0  0  0
    5.6420  -11.8566    0.0000 C   0  0  0  0  0  0  0  0  0  0  0  0
    9.0899   -4.7310    0.0000 C   0  0  0  0  0  0  0  0  0  0  0  0
    4.9650   -4.7310    0.0000 C   0  0  0  0  0  0  0  0  0  0  0  0
    2.8754   -4.3047    0.0000 O   0  0  0  0  0  0  0  0  0  0  0  0
    4.2712   -8.5049    0.0000 C   0  0  0  0  0  0  0  0  0  0  0  0
    6.3692  -12.2703    0.0000 C   0  0  0  0  0  0  0  0  0  0  0  0
    2.9005   -3.4813    0.0000 C   0  0  0  0  0  0  0  0  0  0  0  0
    4.9650   -7.2469    0.0000 C   0  0  0  0  0  0  0  0  0  0  0  0
    5.7423   -6.8457    0.0000 O   0  0  0  0  0  0  0  0  0  0  0  0
    4.2712   -6.8206    0.0000 C   0  0  0  0  0  0  0  0  0  0  0  0
    9.0899   -3.8867    0.0000 C   0  0  2  0  0  0  0  0  0  0  0  0
    6.3441   -5.5668    0.0000 C   0  0  0  0  0  0  0  0  0  0  0  0
    6.3441   -4.7310    0.0000 C   0  0  1  0  0  0  0  0  0  0  0  0
    6.3650  -13.1104    0.0000 C   0  0  0  0  0  0  0  0  0  0  0  0
    4.9441  -10.6028    0.0000 O   0  0  0  0  0  0  0  0  0  0  0  0
    3.5650   -5.5668    0.0000 C   0  0  2  0  0  0  0  0  0  0  0  0
    4.2712   -5.9931    0.0000 C   0  0  0  0  0  0  0  0  0  0  0  0
    5.6420   -7.6774    0.0000 O   0  0  0  0  0  0  0  0  0  0  0  0
    4.9106  -12.2703    0.0000 C   0  0  0  0  0  0  0  0  0  0  0  0
    3.6276   -3.0843    0.0000 O   0  0  0  0  0  0  0  0  0  0  0  0
    5.6378  -13.5283    0.0000 C   0  0  0  0  0  0  0  0  0  0  0  0
    4.9106  -13.1063    0.0000 C   0  0  0  0  0  0  0  0  0  0  0  0
    5.6420   -4.3047    0.0000 C   0  0  0  0  0  0  0  0  0  0  0  0
    8.4171   -2.6329    0.0000 C   0  0  2  0  0  0  0  0  0  0  0  0
    7.7150   -9.7670    0.0000 C   0  0  0  0  0  0  0  0  0  0  0  0
    4.2712   -3.4604    0.0000 C   0  0  0  0  0  0  0  0  0  0  0  0
    2.1941   -3.0467    0.0000 C   0  0  0  0  0  0  0  0  0  0  0  0
    7.0881  -13.5325    0.0000 C   0  0  0  0  0  0  0  0  0  0  0  0
    9.7963   -3.4604    0.0000 C   0  0  0  0  0  0  0  0  0  0  0  0
    2.8754   -5.9806    0.0000 C   0  0  0  0  0  0  0  0  0  0  0  0
    5.6337  -14.3642    0.0000 C   0  0  0  0  0  0  0  0  0  0  0  0
    9.0899   -2.2067    0.0000 C   0  0  0  0  0  0  0  0  0  0  0  0
    7.7150   -2.2067    0.0000 C   0  0  0  0  0  0  0  0  0  0  0  0
    9.7963   -2.6329    0.0000 C   0  0  0  0  0  0  0  0  0  0  0  0
    7.0881  -14.3684    0.0000 C   0  0  0  0  0  0  0  0  0  0  0  0
    6.3567  -14.7863    0.0000 C   0  0  0  0  0  0  0  0  0  0  0  0
    9.0899   -3.0467    0.0000 H   0  0  0  0  0  0  0  0  0  0  0  0
    7.0254   -5.1447    0.0000 H   0  0  0  0  0  0  0  0  0  0  0  0
    6.3441   -3.8909    0.0000 H   0  0  0  0  0  0  0  0  0  0  0  0
    6.3441   -8.9186    0.0000 H   0  0  0  0  0  0  0  0  0  0  0  0
    5.6420  -10.1849    0.0000 H   0  0  0  0  0  0  0  0  0  0  0  0
  2  1  1  0  0  0  0
  3  2  1  0  0  0  0
  4  1  1  0  0  0  0
  5 15  1  6  0  0  0
  6  1  1  0  0  0  0
  7  8  1  0  0  0  0
  8  6  2  0  0  0  0
  9  3  1  0  0  0  0
 10  2  1  0  0  0  0
  7 11  1  1  0  0  0
 12  5  1  0  0  0  0
 13 11  1  0  0  0  0
 14  4  1  0  0  0  0
 15 19  1  0  0  0  0
 16 34  1  0  0  0  0
 17 37  1  0  0  0  0
 18 12  1  0  0  0  0
 19 14  1  0  0  0  0
 20 24  2  0  0  0  0
 21  5  1  0  0  0  0
 22 13  1  0  0  0  0
 23 21  2  0  0  0  0
 24 44  1  0  0  0  0
 17 25  1  6  0  0  0
 26 10  1  0  0  0  0
 27 22  2  0  0  0  0
 28 25  1  0  0  0  0
 29 10  2  0  0  0  0
 30  4  2  0  0  0  0
 31 29  1  0  0  0  0
 32 23  1  0  0  0  0
 33 19  1  0  0  0  0
 34 33  1  0  0  0  0
 35 27  1  0  0  0  0
 36 13  2  0  0  0  0
 37 38  1  0  0  0  0
 38 31  2  0  0  0  0
  2 39  1  6  0  0  0
 40 22  1  0  0  0  0
 41 28  2  0  0  0  0
 42 35  2  0  0  0  0
 43 40  2  0  0  0  0
 44 34  1  0  0  0  0
 45 18  1  0  0  0  0
 46  8  1  0  0  0  0
 47 20  1  0  0  0  0
 48 28  1  0  0  0  0
 49 35  1  0  0  0  0
 32 50  1  1  0  0  0
 37 51  1  6  0  0  0
 52 42  1  0  0  0  0
 53 45  1  0  0  0  0
 45 54  1  1  0  0  0
 55 53  1  0  0  0  0
 56 49  2  0  0  0  0
 57 56  1  0  0  0  0
 18 58  1  1  0  0  0
 19 59  1  6  0  0  0
 34 60  1  6  0  0  0
  1 61  1  1  0  0  0
  3 62  1  6  0  0  0
  3  7  1  0  0  0  0
  9 26  1  0  0  0  0
  5 16  1  1  0  0  0
 42 43  1  0  0  0  0
 17 20  1  0  0  0  0
 18 32  1  0  0  0  0
 57 52  2  0  0  0  0
M  END
>  <IDNUMBER>
F6170-0336

>  <Chemical_Name>
(1'R,2S,4'S,5S,6R,8'R,10'E,12'S,13'S,14'E,16'E,20'R,21'R,24'S)-12'-(acetyloxy)-6-[(2S)-butan-2-yl]-24'-hydroxy-5,11',13',22'-tetramethyl-2'-oxo-5,6-dihydro-3',7',19'-trioxaspiro[pyran-2,6'-tetracyclo[15.6.1.1?,?.0??,??]pentacosane]-10',14',16',22'-tetraen-21'-yl naphthalene-2-carboxylate

>  <PriceCoeff>
7.00

>  <MW>
780.96

>  <Description>
solid

>  <FSP3>
0.51

>  <clogP>
8.93

>  <TPSA>
126.82

>  <Acceptor>
10

>  <Donor>
1

>  <RotBonds>
7

>  <HAC>
57

$$$$
F6170-0337
  Mrv2219 10102508112D          

 58 64  0  0  0  0            999 V2000
    6.0098   -5.9888    0.0000 C   0  0  2  0  0  0  0  0  0  0  0  0
    5.3062   -6.4244    0.0000 C   0  0  1  0  0  0  0  0  0  0  0  0
    5.3062   -7.2662    0.0000 C   0  0  1  0  0  0  0  0  0  0  0  0
    6.0098   -5.1638    0.0000 C   0  0  0  0  0  0  0  0  0  0  0  0
    7.3876   -2.6427    0.0000 C   0  0  2  0  0  0  0  0  0  0  0  0
    6.6924   -6.4244    0.0000 C   0  0  0  0  0  0  0  0  0  0  0  0
    6.0098   -7.6891    0.0000 C   0  0  1  0  0  0  0  0  0  0  0  0
    6.6924   -7.2662    0.0000 C   0  0  0  0  0  0  0  0  0  0  0  0
    3.9325   -7.2662    0.0000 O   0  0  0  0  0  0  0  0  0  0  0  0
    4.6278   -5.9888    0.0000 C   0  0  0  0  0  0  0  0  0  0  0  0
    6.0098   -8.5267    0.0000 O   0  0  0  0  0  0  0  0  0  0  0  0
    7.3876   -1.7966    0.0000 O   0  0  0  0  0  0  0  0  0  0  0  0
    5.3062   -8.9372    0.0000 C   0  0  0  0  0  0  0  0  0  0  0  0
    6.6924   -4.7366    0.0000 O   0  0  0  0  0  0  0  0  0  0  0  0
    7.3876   -3.4802    0.0000 C   0  0  0  0  0  0  0  0  0  0  0  0
    6.6924   -2.2155    0.0000 O   0  0  0  0  0  0  0  0  0  0  0  0
    8.0870   -1.3569    0.0000 C   0  0  1  0  0  0  0  0  0  0  0  0
    6.6924   -3.9074    0.0000 C   0  0  2  0  0  0  0  0  0  0  0  0
    5.3062   -9.7831    0.0000 C   0  0  0  0  0  0  0  0  0  0  0  0
    8.0870   -3.0573    0.0000 C   0  0  0  0  0  0  0  0  0  0  0  0
    3.9325   -2.2155    0.0000 C   0  0  0  0  0  0  0  0  0  0  0  0
    6.0349  -11.0269    0.0000 C   0  0  0  0  0  0  0  0  0  0  0  0
    8.7613   -2.6427    0.0000 C   0  0  0  0  0  0  0  0  0  0  0  0
    4.6278   -2.6427    0.0000 C   0  0  0  0  0  0  0  0  0  0  0  0
    6.0349  -10.1977    0.0000 C   0  0  0  0  0  0  0  0  0  0  0  0
    3.9325   -6.4244    0.0000 C   0  0  0  0  0  0  0  0  0  0  0  0
    3.2289   -2.6427    0.0000 C   0  0  2  0  0  0  0  0  0  0  0  0
    5.3103  -11.4541    0.0000 C   0  0  0  0  0  0  0  0  0  0  0  0
    6.6631  -11.5840    0.0000 O   0  0  0  0  0  0  0  0  0  0  0  0
    4.6278   -5.1638    0.0000 C   0  0  0  0  0  0  0  0  0  0  0  0
    5.4067   -4.7617    0.0000 O   0  0  0  0  0  0  0  0  0  0  0  0
    3.9325   -4.7366    0.0000 C   0  0  0  0  0  0  0  0  0  0  0  0
    5.4947  -12.2708    0.0000 O   0  0  0  0  0  0  0  0  0  0  0  0
    8.7613   -1.7966    0.0000 C   0  0  2  0  0  0  0  0  0  0  0  0
    6.0098   -3.4802    0.0000 C   0  0  0  0  0  0  0  0  0  0  0  0
    6.0098   -2.6427    0.0000 C   0  0  1  0  0  0  0  0  0  0  0  0
    6.3280  -12.3504    0.0000 C   0  0  0  0  0  0  0  0  0  0  0  0
    4.6068   -8.5267    0.0000 O   0  0  0  0  0  0  0  0  0  0  0  0
    3.9325   -3.9074    0.0000 C   0  0  0  0  0  0  0  0  0  0  0  0
    5.3062   -5.5952    0.0000 O   0  0  0  0  0  0  0  0  0  0  0  0
    4.5775  -10.1977    0.0000 C   0  0  0  0  0  0  0  0  0  0  0  0
    3.2289   -3.4802    0.0000 C   0  0  2  0  0  0  0  0  0  0  0  0
    4.5775  -11.0354    0.0000 C   0  0  0  0  0  0  0  0  0  0  0  0
    5.3062   -2.2155    0.0000 C   0  0  0  0  0  0  0  0  0  0  0  0
    8.0870   -0.5403    0.0000 C   0  0  2  0  0  0  0  0  0  0  0  0
    2.5379   -2.2155    0.0000 O   0  0  0  0  0  0  0  0  0  0  0  0
    7.3876   -7.6891    0.0000 C   0  0  0  0  0  0  0  0  0  0  0  0
    3.9325   -1.3695    0.0000 C   0  0  0  0  0  0  0  0  0  0  0  0
    9.4732   -1.3695    0.0000 C   0  0  0  0  0  0  0  0  0  0  0  0
    2.5379   -3.8948    0.0000 C   0  0  0  0  0  0  0  0  0  0  0  0
    8.7613   -0.1131    0.0000 C   0  0  0  0  0  0  0  0  0  0  0  0
    7.3876   -0.1131    0.0000 C   0  0  0  0  0  0  0  0  0  0  0  0
    9.4732   -0.5403    0.0000 C   0  0  0  0  0  0  0  0  0  0  0  0
    6.6924   -3.0573    0.0000 H   0  0  0  0  0  0  0  0  0  0  0  0
    6.0098   -1.8009    0.0000 H   0  0  0  0  0  0  0  0  0  0  0  0
    6.0098   -6.8390    0.0000 H   0  0  0  0  0  0  0  0  0  0  0  0
    5.3062   -8.1080    0.0000 H   0  0  0  0  0  0  0  0  0  0  0  0
    8.7613   -0.9549    0.0000 H   0  0  0  0  0  0  0  0  0  0  0  0
  2  1  1  0  0  0  0
  3  2  1  0  0  0  0
  4  1  1  0  0  0  0
  5 15  1  6  0  0  0
  6  1  1  0  0  0  0
  7  8  1  0  0  0  0
  8  6  2  0  0  0  0
  9  3  1  0  0  0  0
 10  2  1  0  0  0  0
  7 11  1  1  0  0  0
 12  5  1  0  0  0  0
 13 11  1  0  0  0  0
 14  4  1  0  0  0  0
 15 18  1  0  0  0  0
 16 36  1  0  0  0  0
 17 12  1  0  0  0  0
 18 14  1  0  0  0  0
 19 13  1  0  0  0  0
 20  5  1  0  0  0  0
 21 24  2  0  0  0  0
 22 25  2  0  0  0  0
 23 20  2  0  0  0  0
 24 44  1  0  0  0  0
 25 19  1  0  0  0  0
 26 10  1  0  0  0  0
 27 42  1  0  0  0  0
 28 22  1  0  0  0  0
 29 22  1  0  0  0  0
 30 10  2  0  0  0  0
 31  4  2  0  0  0  0
 32 30  1  0  0  0  0
 33 28  1  0  0  0  0
 34 23  1  0  0  0  0
 35 18  1  0  0  0  0
 36 35  1  0  0  0  0
 37 29  1  0  0  0  0
 38 13  2  0  0  0  0
 39 32  2  0  0  0  0
  2 40  1  6  0  0  0
 41 19  2  0  0  0  0
 42 39  1  0  0  0  0
 43 41  1  0  0  0  0
 44 36  1  0  0  0  0
 45 17  1  0  0  0  0
 27 46  1  6  0  0  0
 47  8  1  0  0  0  0
 48 21  1  0  0  0  0
 34 49  1  1  0  0  0
 42 50  1  6  0  0  0
 51 45  1  0  0  0  0
 45 52  1  1  0  0  0
 53 51  1  0  0  0  0
 18 54  1  6  0  0  0
 36 55  1  6  0  0  0
  1 56  1  1  0  0  0
  3 57  1  6  0  0  0
 17 58  1  1  0  0  0
  3  7  1  0  0  0  0
  9 26  1  0  0  0  0
  5 16  1  1  0  0  0
 27 21  1  0  0  0  0
 28 43  2  0  0  0  0
 17 34  1  0  0  0  0
 37 33  1  0  0  0  0
M  END
>  <IDNUMBER>
F6170-0337

>  <Chemical_Name>
(1'R,2S,4'S,5S,6R,8'R,10'E,12'S,13'S,14'E,16'E,20'R,21'R,24'S)-6-[(2S)-butan-2-yl]-12',24'-dihydroxy-5,11',13',22'-tetramethyl-2'-oxo-5,6-dihydro-3',7',19'-trioxaspiro[pyran-2,6'-tetracyclo[15.6.1.1?,?.0??,??]pentacosane]-10',14',16',22'-tetraen-21'-yl 2H-1,3-benzodioxole-5-carboxylate

>  <PriceCoeff>
7.00

>  <MW>
732.87

>  <Description>
solid

>  <FSP3>
0.57

>  <clogP>
6.99

>  <TPSA>
139.21

>  <Acceptor>
11

>  <Donor>
2

>  <RotBonds>
5

>  <HAC>
53

$$$$
F6170-0338
  Mrv2219 10102508112D          

 61 67  0  0  0  0            999 V2000
    6.0098   -5.9888    0.0000 C   0  0  2  0  0  0  0  0  0  0  0  0
    5.3062   -6.4244    0.0000 C   0  0  1  0  0  0  0  0  0  0  0  0
    5.3062   -7.2662    0.0000 C   0  0  1  0  0  0  0  0  0  0  0  0
    6.0098   -5.1638    0.0000 C   0  0  0  0  0  0  0  0  0  0  0  0
    7.3876   -2.6427    0.0000 C   0  0  2  0  0  0  0  0  0  0  0  0
    6.6924   -6.4244    0.0000 C   0  0  0  0  0  0  0  0  0  0  0  0
    6.0098   -7.6891    0.0000 C   0  0  1  0  0  0  0  0  0  0  0  0
    6.6924   -7.2662    0.0000 C   0  0  0  0  0  0  0  0  0  0  0  0
    3.9325   -7.2662    0.0000 O   0  0  0  0  0  0  0  0  0  0  0  0
    4.6278   -5.9888    0.0000 C   0  0  0  0  0  0  0  0  0  0  0  0
    6.0098   -8.5267    0.0000 O   0  0  0  0  0  0  0  0  0  0  0  0
    7.3876   -1.7966    0.0000 O   0  0  0  0  0  0  0  0  0  0  0  0
    5.3062   -8.9372    0.0000 C   0  0  0  0  0  0  0  0  0  0  0  0
    6.6924   -4.7366    0.0000 O   0  0  0  0  0  0  0  0  0  0  0  0
    7.3876   -3.4802    0.0000 C   0  0  0  0  0  0  0  0  0  0  0  0
    6.6924   -2.2155    0.0000 O   0  0  0  0  0  0  0  0  0  0  0  0
    3.2289   -2.6427    0.0000 C   0  0  1  0  0  0  0  0  0  0  0  0
    8.0870   -1.3569    0.0000 C   0  0  1  0  0  0  0  0  0  0  0  0
    6.6924   -3.9074    0.0000 C   0  0  2  0  0  0  0  0  0  0  0  0
    3.9325   -2.2155    0.0000 C   0  0  0  0  0  0  0  0  0  0  0  0
    5.3062   -9.7831    0.0000 C   0  0  0  0  0  0  0  0  0  0  0  0
    8.0870   -3.0573    0.0000 C   0  0  0  0  0  0  0  0  0  0  0  0
    6.0349  -11.0269    0.0000 C   0  0  0  0  0  0  0  0  0  0  0  0
    8.7613   -2.6427    0.0000 C   0  0  0  0  0  0  0  0  0  0  0  0
    4.6278   -2.6427    0.0000 C   0  0  0  0  0  0  0  0  0  0  0  0
    2.5379   -2.2155    0.0000 O   0  0  0  0  0  0  0  0  0  0  0  0
    6.0349  -10.1977    0.0000 C   0  0  0  0  0  0  0  0  0  0  0  0
    3.9325   -6.4244    0.0000 C   0  0  0  0  0  0  0  0  0  0  0  0
    2.5588   -1.3904    0.0000 C   0  0  0  0  0  0  0  0  0  0  0  0
    5.3103  -11.4541    0.0000 C   0  0  0  0  0  0  0  0  0  0  0  0
    6.6631  -11.5840    0.0000 O   0  0  0  0  0  0  0  0  0  0  0  0
    4.6278   -5.1638    0.0000 C   0  0  0  0  0  0  0  0  0  0  0  0
    5.4067   -4.7617    0.0000 O   0  0  0  0  0  0  0  0  0  0  0  0
    3.9325   -4.7366    0.0000 C   0  0  0  0  0  0  0  0  0  0  0  0
    5.4947  -12.2708    0.0000 O   0  0  0  0  0  0  0  0  0  0  0  0
    8.7613   -1.7966    0.0000 C   0  0  2  0  0  0  0  0  0  0  0  0
    6.0098   -3.4802    0.0000 C   0  0  0  0  0  0  0  0  0  0  0  0
    6.0098   -2.6427    0.0000 C   0  0  1  0  0  0  0  0  0  0  0  0
    6.3280  -12.3504    0.0000 C   0  0  0  0  0  0  0  0  0  0  0  0
    4.6068   -8.5267    0.0000 O   0  0  0  0  0  0  0  0  0  0  0  0
    3.2289   -3.4802    0.0000 C   0  0  2  0  0  0  0  0  0  0  0  0
    3.9325   -3.9074    0.0000 C   0  0  0  0  0  0  0  0  0  0  0  0
    5.3062   -5.5952    0.0000 O   0  0  0  0  0  0  0  0  0  0  0  0
    4.5775  -10.1977    0.0000 C   0  0  0  0  0  0  0  0  0  0  0  0
    3.2875   -0.9926    0.0000 O   0  0  0  0  0  0  0  0  0  0  0  0
    4.5775  -11.0354    0.0000 C   0  0  0  0  0  0  0  0  0  0  0  0
    5.3062   -2.2155    0.0000 C   0  0  0  0  0  0  0  0  0  0  0  0
    8.0870   -0.5403    0.0000 C   0  0  2  0  0  0  0  0  0  0  0  0
    7.3876   -7.6891    0.0000 C   0  0  0  0  0  0  0  0  0  0  0  0
    3.9325   -1.3695    0.0000 C   0  0  0  0  0  0  0  0  0  0  0  0
    1.8511   -0.9549    0.0000 C   0  0  0  0  0  0  0  0  0  0  0  0
    9.4732   -1.3695    0.0000 C   0  0  0  0  0  0  0  0  0  0  0  0
    2.5379   -3.8948    0.0000 C   0  0  0  0  0  0  0  0  0  0  0  0
    8.7613   -0.1131    0.0000 C   0  0  0  0  0  0  0  0  0  0  0  0
    7.3876   -0.1131    0.0000 C   0  0  0  0  0  0  0  0  0  0  0  0
    9.4732   -0.5403    0.0000 C   0  0  0  0  0  0  0  0  0  0  0  0
    5.3062   -8.1080    0.0000 H   0  0  0  0  0  0  0  0  0  0  0  0
    8.7613   -0.9549    0.0000 H   0  0  0  0  0  0  0  0  0  0  0  0
    6.6924   -3.0573    0.0000 H   0  0  0  0  0  0  0  0  0  0  0  0
    6.0098   -1.8009    0.0000 H   0  0  0  0  0  0  0  0  0  0  0  0
    6.0098   -6.8390    0.0000 H   0  0  0  0  0  0  0  0  0  0  0  0
  2  1  1  0  0  0  0
  3  2  1  0  0  0  0
  4  1  1  0  0  0  0
  5 15  1  6  0  0  0
  6  1  1  0  0  0  0
  7  8  1  0  0  0  0
  8  6  2  0  0  0  0
  9  3  1  0  0  0  0
 10  2  1  0  0  0  0
  7 11  1  1  0  0  0
 12  5  1  0  0  0  0
 13 11  1  0  0  0  0
 14  4  1  0  0  0  0
 15 19  1  0  0  0  0
 16 38  1  0  0  0  0
 17 41  1  0  0  0  0
 18 12  1  0  0  0  0
 19 14  1  0  0  0  0
 20 25  2  0  0  0  0
 21 13  1  0  0  0  0
 22  5  1  0  0  0  0
 23 27  2  0  0  0  0
 24 22  2  0  0  0  0
 25 47  1  0  0  0  0
 17 26  1  6  0  0  0
 27 21  1  0  0  0  0
 28 10  1  0  0  0  0
 29 26  1  0  0  0  0
 30 23  1  0  0  0  0
 31 23  1  0  0  0  0
 32 10  2  0  0  0  0
 33  4  2  0  0  0  0
 34 32  1  0  0  0  0
 35 30  1  0  0  0  0
 36 24  1  0  0  0  0
 37 19  1  0  0  0  0
 38 37  1  0  0  0  0
 39 31  1  0  0  0  0
 40 13  2  0  0  0  0
 41 42  1  0  0  0  0
 42 34  2  0  0  0  0
  2 43  1  6  0  0  0
 44 21  2  0  0  0  0
 45 29  2  0  0  0  0
 46 44  1  0  0  0  0
 47 38  1  0  0  0  0
 48 18  1  0  0  0  0
 49  8  1  0  0  0  0
 50 20  1  0  0  0  0
 51 29  1  0  0  0  0
 36 52  1  1  0  0  0
 41 53  1  6  0  0  0
 54 48  1  0  0  0  0
 48 55  1  1  0  0  0
 56 54  1  0  0  0  0
  3 57  1  6  0  0  0
 18 58  1  1  0  0  0
 19 59  1  6  0  0  0
 38 60  1  6  0  0  0
  1 61  1  1  0  0  0
  3  7  1  0  0  0  0
  9 28  1  0  0  0  0
  5 16  1  1  0  0  0
 30 46  2  0  0  0  0
 17 20  1  0  0  0  0
 18 36  1  0  0  0  0
 39 35  1  0  0  0  0
M  END
>  <IDNUMBER>
F6170-0338

>  <Chemical_Name>
(1'R,2S,4'S,5S,6R,8'R,10'E,12'S,13'S,14'E,16'E,20'R,21'R,24'S)-12'-(acetyloxy)-6-[(2S)-butan-2-yl]-24'-hydroxy-5,11',13',22'-tetramethyl-2'-oxo-5,6-dihydro-3',7',19'-trioxaspiro[pyran-2,6'-tetracyclo[15.6.1.1?,?.0??,??]pentacosane]-10',14',16',22'-tetraen-21'-yl 2H-1,3-benzodioxole-5-carboxylate

>  <PriceCoeff>
7.00

>  <MW>
774.90

>  <Description>
solid

>  <FSP3>
0.57

>  <clogP>
7.94

>  <TPSA>
145.28

>  <Acceptor>
12

>  <Donor>
1

>  <RotBonds>
7

>  <HAC>
56

$$$$
F6170-0340
  Mrv2219 10102508112D          

 56 61  0  0  0  0            999 V2000
    6.0167   -5.9957    0.0000 C   0  0  2  0  0  0  0  0  0  0  0  0
    5.3123   -6.4318    0.0000 C   0  0  1  0  0  0  0  0  0  0  0  0
    5.3123   -7.2745    0.0000 C   0  0  1  0  0  0  0  0  0  0  0  0
    6.0167   -5.1697    0.0000 C   0  0  0  0  0  0  0  0  0  0  0  0
    7.3961   -2.6457    0.0000 C   0  0  2  0  0  0  0  0  0  0  0  0
    6.7001   -6.4318    0.0000 C   0  0  0  0  0  0  0  0  0  0  0  0
    6.0167   -7.6980    0.0000 C   0  0  1  0  0  0  0  0  0  0  0  0
    6.7001   -7.2745    0.0000 C   0  0  0  0  0  0  0  0  0  0  0  0
    3.9370   -7.2745    0.0000 O   0  0  0  0  0  0  0  0  0  0  0  0
    4.6331   -5.9957    0.0000 C   0  0  0  0  0  0  0  0  0  0  0  0
    6.0167   -8.5365    0.0000 O   0  0  0  0  0  0  0  0  0  0  0  0
    7.3961   -1.7987    0.0000 O   0  0  0  0  0  0  0  0  0  0  0  0
    6.7001   -4.7421    0.0000 O   0  0  0  0  0  0  0  0  0  0  0  0
    5.3123   -8.9475    0.0000 C   0  0  0  0  0  0  0  0  0  0  0  0
    7.3961   -3.4842    0.0000 C   0  0  0  0  0  0  0  0  0  0  0  0
    6.7001   -2.2180    0.0000 O   0  0  0  0  0  0  0  0  0  0  0  0
    8.0963   -1.3585    0.0000 C   0  0  1  0  0  0  0  0  0  0  0  0
    6.7001   -3.9119    0.0000 C   0  0  2  0  0  0  0  0  0  0  0  0
    8.0963   -3.0608    0.0000 C   0  0  0  0  0  0  0  0  0  0  0  0
    3.9370   -2.2180    0.0000 C   0  0  0  0  0  0  0  0  0  0  0  0
    8.7714   -2.6457    0.0000 C   0  0  0  0  0  0  0  0  0  0  0  0
    4.6331   -2.6457    0.0000 C   0  0  0  0  0  0  0  0  0  0  0  0
    3.9370   -6.4318    0.0000 C   0  0  0  0  0  0  0  0  0  0  0  0
    3.2326   -2.6457    0.0000 C   0  0  2  0  0  0  0  0  0  0  0  0
    5.3123   -9.7943    0.0000 C   0  0  0  0  0  0  0  0  0  0  0  0
    4.6331   -5.1697    0.0000 C   0  0  0  0  0  0  0  0  0  0  0  0
    5.4129   -4.7672    0.0000 O   0  0  0  0  0  0  0  0  0  0  0  0
    3.9370   -4.7421    0.0000 C   0  0  0  0  0  0  0  0  0  0  0  0
    8.7714   -1.7987    0.0000 C   0  0  2  0  0  0  0  0  0  0  0  0
    6.0167   -3.4842    0.0000 C   0  0  0  0  0  0  0  0  0  0  0  0
    6.0167   -2.6457    0.0000 C   0  0  1  0  0  0  0  0  0  0  0  0
    4.6120   -8.5365    0.0000 O   0  0  0  0  0  0  0  0  0  0  0  0
    3.9370   -3.9119    0.0000 C   0  0  0  0  0  0  0  0  0  0  0  0
    5.3123   -5.6016    0.0000 O   0  0  0  0  0  0  0  0  0  0  0  0
    3.2326   -3.4842    0.0000 C   0  0  2  0  0  0  0  0  0  0  0  0
    4.5828  -10.2094    0.0000 C   0  0  0  0  0  0  0  0  0  0  0  0
    6.0419  -10.2094    0.0000 C   0  0  0  0  0  0  0  0  0  0  0  0
    5.3123   -2.2180    0.0000 C   0  0  0  0  0  0  0  0  0  0  0  0
    8.0963   -0.5409    0.0000 C   0  0  2  0  0  0  0  0  0  0  0  0
    5.3164  -11.4673    0.0000 C   0  0  0  0  0  0  0  0  0  0  0  0
    2.5408   -2.2180    0.0000 O   0  0  0  0  0  0  0  0  0  0  0  0
    6.0419  -11.0396    0.0000 C   0  0  0  0  0  0  0  0  0  0  0  0
    4.5828  -11.0481    0.0000 C   0  0  0  0  0  0  0  0  0  0  0  0
    5.3249  -12.2974    0.0000 Br  0  0  0  0  0  0  0  0  0  0  0  0
    7.3961   -7.6980    0.0000 C   0  0  0  0  0  0  0  0  0  0  0  0
    3.9370   -1.3710    0.0000 C   0  0  0  0  0  0  0  0  0  0  0  0
    9.4841   -1.3710    0.0000 C   0  0  0  0  0  0  0  0  0  0  0  0
    2.5408   -3.8993    0.0000 C   0  0  0  0  0  0  0  0  0  0  0  0
    8.7714   -0.1132    0.0000 C   0  0  0  0  0  0  0  0  0  0  0  0
    7.3961   -0.1132    0.0000 C   0  0  0  0  0  0  0  0  0  0  0  0
    9.4841   -0.5409    0.0000 C   0  0  0  0  0  0  0  0  0  0  0  0
    5.3123   -8.1173    0.0000 H   0  0  0  0  0  0  0  0  0  0  0  0
    8.7714   -0.9560    0.0000 H   0  0  0  0  0  0  0  0  0  0  0  0
    6.7001   -3.0608    0.0000 H   0  0  0  0  0  0  0  0  0  0  0  0
    6.0167   -1.8029    0.0000 H   0  0  0  0  0  0  0  0  0  0  0  0
    6.0167   -6.8469    0.0000 H   0  0  0  0  0  0  0  0  0  0  0  0
  2  1  1  0  0  0  0
  3  2  1  0  0  0  0
  4  1  1  0  0  0  0
  5 15  1  6  0  0  0
  6  1  1  0  0  0  0
  7  8  1  0  0  0  0
  8  6  2  0  0  0  0
  9  3  1  0  0  0  0
 10  2  1  0  0  0  0
  7 11  1  1  0  0  0
 12  5  1  0  0  0  0
 13  4  1  0  0  0  0
 14 11  1  0  0  0  0
 15 18  1  0  0  0  0
  5 16  1  1  0  0  0
 17 12  1  0  0  0  0
 18 13  1  0  0  0  0
 19  5  1  0  0  0  0
 20 22  2  0  0  0  0
 21 19  2  0  0  0  0
 22 38  1  0  0  0  0
 23 10  1  0  0  0  0
 24 35  1  0  0  0  0
 25 14  1  0  0  0  0
 26 10  2  0  0  0  0
 27  4  2  0  0  0  0
 28 26  1  0  0  0  0
 29 21  1  0  0  0  0
 30 18  1  0  0  0  0
 31 30  1  0  0  0  0
 32 14  2  0  0  0  0
 33 28  2  0  0  0  0
  2 34  1  6  0  0  0
 35 33  1  0  0  0  0
 36 25  2  0  0  0  0
 37 25  1  0  0  0  0
 38 31  1  0  0  0  0
 39 17  1  0  0  0  0
 40 42  1  0  0  0  0
 24 41  1  6  0  0  0
 42 37  2  0  0  0  0
 43 36  1  0  0  0  0
 44 40  1  0  0  0  0
 45  8  1  0  0  0  0
 46 20  1  0  0  0  0
 29 47  1  1  0  0  0
 35 48  1  6  0  0  0
 49 39  1  0  0  0  0
 39 50  1  1  0  0  0
 51 49  1  0  0  0  0
  3 52  1  6  0  0  0
 17 53  1  1  0  0  0
 18 54  1  6  0  0  0
 31 55  1  6  0  0  0
  1 56  1  1  0  0  0
  3  7  1  0  0  0  0
  9 23  1  0  0  0  0
 31 16  1  0  0  0  0
 24 20  1  0  0  0  0
 40 43  2  0  0  0  0
 17 29  1  0  0  0  0
M  END
>  <IDNUMBER>
F6170-0340

>  <Chemical_Name>
(1'R,2S,4'S,5S,6R,8'R,10'E,12'S,13'S,14'E,16'E,20'R,21'R,24'S)-6-[(2S)-butan-2-yl]-12',24'-dihydroxy-5,11',13',22'-tetramethyl-2'-oxo-5,6-dihydro-3',7',19'-trioxaspiro[pyran-2,6'-tetracyclo[15.6.1.1?,?.0??,??]pentacosane]-10',14',16',22'-tetraen-21'-yl 4-bromobenzoate

>  <PriceCoeff>
7.00

>  <MW>
767.75

>  <Description>
solid

>  <FSP3>
0.56

>  <clogP>
7.67

>  <TPSA>
120.75

>  <Acceptor>
9

>  <Donor>
2

>  <RotBonds>
5

>  <HAC>
51

$$$$
F6170-0341
  Mrv2219 10102508112D          

 59 64  0  0  0  0            999 V2000
    6.0098   -5.9888    0.0000 C   0  0  2  0  0  0  0  0  0  0  0  0
    5.3062   -6.4244    0.0000 C   0  0  1  0  0  0  0  0  0  0  0  0
    5.3062   -7.2662    0.0000 C   0  0  1  0  0  0  0  0  0  0  0  0
    6.0098   -5.1638    0.0000 C   0  0  0  0  0  0  0  0  0  0  0  0
    7.3876   -2.6427    0.0000 C   0  0  2  0  0  0  0  0  0  0  0  0
    6.6924   -6.4244    0.0000 C   0  0  0  0  0  0  0  0  0  0  0  0
    6.0098   -7.6891    0.0000 C   0  0  1  0  0  0  0  0  0  0  0  0
    6.6924   -7.2662    0.0000 C   0  0  0  0  0  0  0  0  0  0  0  0
    3.9325   -7.2662    0.0000 O   0  0  0  0  0  0  0  0  0  0  0  0
    4.6278   -5.9888    0.0000 C   0  0  0  0  0  0  0  0  0  0  0  0
    6.0098   -8.5267    0.0000 O   0  0  0  0  0  0  0  0  0  0  0  0
    7.3876   -1.7966    0.0000 O   0  0  0  0  0  0  0  0  0  0  0  0
    6.6924   -4.7366    0.0000 O   0  0  0  0  0  0  0  0  0  0  0  0
    5.3062   -8.9372    0.0000 C   0  0  0  0  0  0  0  0  0  0  0  0
    7.3876   -3.4802    0.0000 C   0  0  0  0  0  0  0  0  0  0  0  0
    6.6924   -2.2155    0.0000 O   0  0  0  0  0  0  0  0  0  0  0  0
    3.2289   -2.6427    0.0000 C   0  0  1  0  0  0  0  0  0  0  0  0
    8.0870   -1.3569    0.0000 C   0  0  1  0  0  0  0  0  0  0  0  0
    6.6924   -3.9074    0.0000 C   0  0  2  0  0  0  0  0  0  0  0  0
    3.9325   -2.2155    0.0000 C   0  0  0  0  0  0  0  0  0  0  0  0
    8.0870   -3.0573    0.0000 C   0  0  0  0  0  0  0  0  0  0  0  0
    8.7613   -2.6427    0.0000 C   0  0  0  0  0  0  0  0  0  0  0  0
    4.6278   -2.6427    0.0000 C   0  0  0  0  0  0  0  0  0  0  0  0
    2.5379   -2.2155    0.0000 O   0  0  0  0  0  0  0  0  0  0  0  0
    3.9325   -6.4244    0.0000 C   0  0  0  0  0  0  0  0  0  0  0  0
    2.5588   -1.3904    0.0000 C   0  0  0  0  0  0  0  0  0  0  0  0
    5.3062   -9.7831    0.0000 C   0  0  0  0  0  0  0  0  0  0  0  0
    4.6278   -5.1638    0.0000 C   0  0  0  0  0  0  0  0  0  0  0  0
    5.4067   -4.7617    0.0000 O   0  0  0  0  0  0  0  0  0  0  0  0
    3.9325   -4.7366    0.0000 C   0  0  0  0  0  0  0  0  0  0  0  0
    8.7613   -1.7966    0.0000 C   0  0  2  0  0  0  0  0  0  0  0  0
    6.0098   -3.4802    0.0000 C   0  0  0  0  0  0  0  0  0  0  0  0
    6.0098   -2.6427    0.0000 C   0  0  1  0  0  0  0  0  0  0  0  0
    4.6068   -8.5267    0.0000 O   0  0  0  0  0  0  0  0  0  0  0  0
    3.2289   -3.4802    0.0000 C   0  0  2  0  0  0  0  0  0  0  0  0
    3.9325   -3.9074    0.0000 C   0  0  0  0  0  0  0  0  0  0  0  0
    5.3062   -5.5952    0.0000 O   0  0  0  0  0  0  0  0  0  0  0  0
    3.2875   -0.9926    0.0000 O   0  0  0  0  0  0  0  0  0  0  0  0
    4.5775  -10.1977    0.0000 C   0  0  0  0  0  0  0  0  0  0  0  0
    6.0349  -10.1977    0.0000 C   0  0  0  0  0  0  0  0  0  0  0  0
    5.3062   -2.2155    0.0000 C   0  0  0  0  0  0  0  0  0  0  0  0
    8.0870   -0.5403    0.0000 C   0  0  2  0  0  0  0  0  0  0  0  0
    5.3103  -11.4541    0.0000 C   0  0  0  0  0  0  0  0  0  0  0  0
    6.0349  -11.0269    0.0000 C   0  0  0  0  0  0  0  0  0  0  0  0
    4.5775  -11.0354    0.0000 C   0  0  0  0  0  0  0  0  0  0  0  0
    5.3188  -12.2833    0.0000 Br  0  0  0  0  0  0  0  0  0  0  0  0
    7.3876   -7.6891    0.0000 C   0  0  0  0  0  0  0  0  0  0  0  0
    3.9325   -1.3695    0.0000 C   0  0  0  0  0  0  0  0  0  0  0  0
    1.8511   -0.9549    0.0000 C   0  0  0  0  0  0  0  0  0  0  0  0
    9.4732   -1.3695    0.0000 C   0  0  0  0  0  0  0  0  0  0  0  0
    2.5379   -3.8948    0.0000 C   0  0  0  0  0  0  0  0  0  0  0  0
    8.7613   -0.1131    0.0000 C   0  0  0  0  0  0  0  0  0  0  0  0
    7.3876   -0.1131    0.0000 C   0  0  0  0  0  0  0  0  0  0  0  0
    9.4732   -0.5403    0.0000 C   0  0  0  0  0  0  0  0  0  0  0  0
    6.0098   -1.8009    0.0000 H   0  0  0  0  0  0  0  0  0  0  0  0
    6.0098   -6.8390    0.0000 H   0  0  0  0  0  0  0  0  0  0  0  0
    5.3062   -8.1080    0.0000 H   0  0  0  0  0  0  0  0  0  0  0  0
    8.7613   -0.9549    0.0000 H   0  0  0  0  0  0  0  0  0  0  0  0
    6.6924   -3.0573    0.0000 H   0  0  0  0  0  0  0  0  0  0  0  0
  2  1  1  0  0  0  0
  3  2  1  0  0  0  0
  4  1  1  0  0  0  0
  5 15  1  6  0  0  0
  6  1  1  0  0  0  0
  7  8  1  0  0  0  0
  8  6  2  0  0  0  0
  9  3  1  0  0  0  0
 10  2  1  0  0  0  0
  7 11  1  1  0  0  0
 12  5  1  0  0  0  0
 13  4  1  0  0  0  0
 14 11  1  0  0  0  0
 15 19  1  0  0  0  0
 16 33  1  0  0  0  0
 17 35  1  0  0  0  0
 18 12  1  0  0  0  0
 19 13  1  0  0  0  0
 20 23  2  0  0  0  0
 21  5  1  0  0  0  0
 22 21  2  0  0  0  0
 23 41  1  0  0  0  0
 17 24  1  6  0  0  0
 25 10  1  0  0  0  0
 26 24  1  0  0  0  0
 27 14  1  0  0  0  0
 28 10  2  0  0  0  0
 29  4  2  0  0  0  0
 30 28  1  0  0  0  0
 31 22  1  0  0  0  0
 32 19  1  0  0  0  0
 33 32  1  0  0  0  0
 34 14  2  0  0  0  0
 35 36  1  0  0  0  0
 36 30  2  0  0  0  0
  2 37  1  6  0  0  0
 38 26  2  0  0  0  0
 39 27  2  0  0  0  0
 40 27  1  0  0  0  0
 41 33  1  0  0  0  0
 42 18  1  0  0  0  0
 43 44  1  0  0  0  0
 44 40  2  0  0  0  0
 45 39  1  0  0  0  0
 46 43  1  0  0  0  0
 47  8  1  0  0  0  0
 48 20  1  0  0  0  0
 49 26  1  0  0  0  0
 31 50  1  1  0  0  0
 35 51  1  6  0  0  0
 52 42  1  0  0  0  0
 42 53  1  1  0  0  0
 54 52  1  0  0  0  0
 33 55  1  6  0  0  0
  1 56  1  1  0  0  0
  3 57  1  6  0  0  0
 18 58  1  1  0  0  0
 19 59  1  6  0  0  0
  3  7  1  0  0  0  0
  9 25  1  0  0  0  0
  5 16  1  1  0  0  0
 43 45  2  0  0  0  0
 17 20  1  0  0  0  0
 18 31  1  0  0  0  0
M  END
>  <IDNUMBER>
F6170-0341

>  <Chemical_Name>
(1'R,2S,4'S,5S,6R,8'R,10'E,12'S,13'S,14'E,16'E,20'R,21'R,24'S)-12'-(acetyloxy)-6-[(2S)-butan-2-yl]-24'-hydroxy-5,11',13',22'-tetramethyl-2'-oxo-5,6-dihydro-3',7',19'-trioxaspiro[pyran-2,6'-tetracyclo[15.6.1.1?,?.0??,??]pentacosane]-10',14',16',22'-tetraen-21'-yl 4-bromobenzoate

>  <PriceCoeff>
7.00

>  <MW>
809.79

>  <Description>
solid

>  <FSP3>
0.56

>  <clogP>
8.61

>  <TPSA>
126.82

>  <Acceptor>
10

>  <Donor>
1

>  <RotBonds>
7

>  <HAC>
54

$$$$
F6170-0343
  Mrv2219 10102508112D          

 63 68  0  0  0  0            999 V2000
    6.0098   -5.9888    0.0000 C   0  0  2  0  0  0  0  0  0  0  0  0
    5.3062   -6.4244    0.0000 C   0  0  1  0  0  0  0  0  0  0  0  0
    5.3062   -7.2662    0.0000 C   0  0  1  0  0  0  0  0  0  0  0  0
    6.0098   -5.1638    0.0000 C   0  0  0  0  0  0  0  0  0  0  0  0
    7.3876   -2.6427    0.0000 C   0  0  2  0  0  0  0  0  0  0  0  0
    6.6924   -6.4244    0.0000 C   0  0  0  0  0  0  0  0  0  0  0  0
    6.0098   -7.6891    0.0000 C   0  0  1  0  0  0  0  0  0  0  0  0
    6.6924   -7.2662    0.0000 C   0  0  0  0  0  0  0  0  0  0  0  0
    3.9325   -7.2662    0.0000 O   0  0  0  0  0  0  0  0  0  0  0  0
    4.6278   -5.9888    0.0000 C   0  0  0  0  0  0  0  0  0  0  0  0
    6.7552  -11.4374    0.0000 C   0  0  0  0  0  0  0  0  0  0  0  0
    3.8614  -11.4500    0.0000 C   0  0  0  0  0  0  0  0  0  0  0  0
    6.0098   -8.5267    0.0000 O   0  0  0  0  0  0  0  0  0  0  0  0
    5.3062   -8.9372    0.0000 C   0  0  0  0  0  0  0  0  0  0  0  0
    7.3876   -1.7966    0.0000 O   0  0  0  0  0  0  0  0  0  0  0  0
    6.6924   -4.7366    0.0000 O   0  0  0  0  0  0  0  0  0  0  0  0
    4.5775  -11.0354    0.0000 C   0  0  0  0  0  0  0  0  0  0  0  0
    6.0349  -11.0269    0.0000 C   0  0  0  0  0  0  0  0  0  0  0  0
    5.3062   -9.7831    0.0000 C   0  0  0  0  0  0  0  0  0  0  0  0
    7.3876   -3.4802    0.0000 C   0  0  0  0  0  0  0  0  0  0  0  0
    6.6924   -2.2155    0.0000 O   0  0  0  0  0  0  0  0  0  0  0  0
    8.0870   -1.3569    0.0000 C   0  0  1  0  0  0  0  0  0  0  0  0
    6.6924   -3.9074    0.0000 C   0  0  2  0  0  0  0  0  0  0  0  0
    8.0870   -3.0573    0.0000 C   0  0  0  0  0  0  0  0  0  0  0  0
    3.9325   -2.2155    0.0000 C   0  0  0  0  0  0  0  0  0  0  0  0
    5.3103  -11.4541    0.0000 C   0  0  0  0  0  0  0  0  0  0  0  0
    4.5775  -10.1977    0.0000 C   0  0  0  0  0  0  0  0  0  0  0  0
    6.0349  -10.1977    0.0000 C   0  0  0  0  0  0  0  0  0  0  0  0
    8.7613   -2.6427    0.0000 C   0  0  0  0  0  0  0  0  0  0  0  0
    4.6278   -2.6427    0.0000 C   0  0  0  0  0  0  0  0  0  0  0  0
    3.9325   -6.4244    0.0000 C   0  0  0  0  0  0  0  0  0  0  0  0
    3.2289   -2.6427    0.0000 C   0  0  2  0  0  0  0  0  0  0  0  0
    4.6278   -5.1638    0.0000 C   0  0  0  0  0  0  0  0  0  0  0  0
    5.4067   -4.7617    0.0000 O   0  0  0  0  0  0  0  0  0  0  0  0
    3.9325   -4.7366    0.0000 C   0  0  0  0  0  0  0  0  0  0  0  0
    8.7613   -1.7966    0.0000 C   0  0  2  0  0  0  0  0  0  0  0  0
    6.0098   -3.4802    0.0000 C   0  0  0  0  0  0  0  0  0  0  0  0
    6.0098   -2.6427    0.0000 C   0  0  1  0  0  0  0  0  0  0  0  0
    4.6068   -8.5267    0.0000 O   0  0  0  0  0  0  0  0  0  0  0  0
    3.9325   -3.9074    0.0000 C   0  0  0  0  0  0  0  0  0  0  0  0
    5.3062   -5.5952    0.0000 O   0  0  0  0  0  0  0  0  0  0  0  0
    3.2289   -3.4802    0.0000 C   0  0  2  0  0  0  0  0  0  0  0  0
    3.1410  -11.0395    0.0000 F   0  0  0  0  0  0  0  0  0  0  0  0
    3.8655  -12.2792    0.0000 F   0  0  0  0  0  0  0  0  0  0  0  0
    3.1410  -11.8604    0.0000 F   0  0  0  0  0  0  0  0  0  0  0  0
    6.7594  -12.2666    0.0000 F   0  0  0  0  0  0  0  0  0  0  0  0
    7.4713  -11.0228    0.0000 F   0  0  0  0  0  0  0  0  0  0  0  0
    7.4672  -11.8520    0.0000 F   0  0  0  0  0  0  0  0  0  0  0  0
    5.3062   -2.2155    0.0000 C   0  0  0  0  0  0  0  0  0  0  0  0
    8.0870   -0.5403    0.0000 C   0  0  2  0  0  0  0  0  0  0  0  0
    2.5379   -2.2155    0.0000 O   0  0  0  0  0  0  0  0  0  0  0  0
    7.3876   -7.6891    0.0000 C   0  0  0  0  0  0  0  0  0  0  0  0
    3.9325   -1.3695    0.0000 C   0  0  0  0  0  0  0  0  0  0  0  0
    9.4732   -1.3695    0.0000 C   0  0  0  0  0  0  0  0  0  0  0  0
    2.5379   -3.8948    0.0000 C   0  0  0  0  0  0  0  0  0  0  0  0
    8.7613   -0.1131    0.0000 C   0  0  0  0  0  0  0  0  0  0  0  0
    7.3876   -0.1131    0.0000 C   0  0  0  0  0  0  0  0  0  0  0  0
    9.4732   -0.5403    0.0000 C   0  0  0  0  0  0  0  0  0  0  0  0
    6.6924   -3.0573    0.0000 H   0  0  0  0  0  0  0  0  0  0  0  0
    6.0098   -1.8009    0.0000 H   0  0  0  0  0  0  0  0  0  0  0  0
    6.0098   -6.8390    0.0000 H   0  0  0  0  0  0  0  0  0  0  0  0
    5.3062   -8.1080    0.0000 H   0  0  0  0  0  0  0  0  0  0  0  0
    8.7613   -0.9549    0.0000 H   0  0  0  0  0  0  0  0  0  0  0  0
  2  1  1  0  0  0  0
  3  2  1  0  0  0  0
  4  1  1  0  0  0  0
  5 20  1  6  0  0  0
  6  1  1  0  0  0  0
  7  8  1  0  0  0  0
  8  6  2  0  0  0  0
  9  3  1  0  0  0  0
 10  2  1  0  0  0  0
 11 18  1  0  0  0  0
 12 17  1  0  0  0  0
  7 13  1  1  0  0  0
 14 13  1  0  0  0  0
 15  5  1  0  0  0  0
 16  4  1  0  0  0  0
 17 27  1  0  0  0  0
 18 28  2  0  0  0  0
 19 14  1  0  0  0  0
 20 23  1  0  0  0  0
 21 38  1  0  0  0  0
 22 15  1  0  0  0  0
 23 16  1  0  0  0  0
 24  5  1  0  0  0  0
 25 30  2  0  0  0  0
 26 18  1  0  0  0  0
 27 19  2  0  0  0  0
 28 19  1  0  0  0  0
 29 24  2  0  0  0  0
 30 49  1  0  0  0  0
 31 10  1  0  0  0  0
 32 42  1  0  0  0  0
 33 10  2  0  0  0  0
 34  4  2  0  0  0  0
 35 33  1  0  0  0  0
 36 29  1  0  0  0  0
 37 23  1  0  0  0  0
 38 37  1  0  0  0  0
 39 14  2  0  0  0  0
 40 35  2  0  0  0  0
  2 41  1  6  0  0  0
 42 40  1  0  0  0  0
 43 12  1  0  0  0  0
 44 12  1  0  0  0  0
 45 12  1  0  0  0  0
 46 11  1  0  0  0  0
 47 11  1  0  0  0  0
 48 11  1  0  0  0  0
 49 38  1  0  0  0  0
 50 22  1  0  0  0  0
 32 51  1  6  0  0  0
 52  8  1  0  0  0  0
 53 25  1  0  0  0  0
 36 54  1  1  0  0  0
 42 55  1  6  0  0  0
 56 50  1  0  0  0  0
 50 57  1  1  0  0  0
 58 56  1  0  0  0  0
 23 59  1  6  0  0  0
 38 60  1  6  0  0  0
  1 61  1  1  0  0  0
  3 62  1  6  0  0  0
 22 63  1  1  0  0  0
  3  7  1  0  0  0  0
  9 31  1  0  0  0  0
  5 21  1  1  0  0  0
 32 25  1  0  0  0  0
 22 36  1  0  0  0  0
 26 17  2  0  0  0  0
M  END
>  <IDNUMBER>
F6170-0343

>  <Chemical_Name>
(1'R,2S,4'S,5S,6R,8'R,10'E,12'S,13'S,14'E,16'E,20'R,21'R,24'S)-6-[(2S)-butan-2-yl]-12',24'-dihydroxy-5,11',13',22'-tetramethyl-2'-oxo-5,6-dihydro-3',7',19'-trioxaspiro[pyran-2,6'-tetracyclo[15.6.1.1?,?.0??,??]pentacosane]-10',14',16',22'-tetraen-21'-yl 3,5-bis(trifluoromethyl)benzoate

>  <PriceCoeff>
7.00

>  <MW>
824.85

>  <Description>
solid

>  <FSP3>
0.58

>  <clogP>
8.57

>  <TPSA>
120.75

>  <Acceptor>
9

>  <Donor>
2

>  <RotBonds>
5

>  <HAC>
58

$$$$
F6170-0344
  Mrv2219 10102508112D          

 66 71  0  0  0  0            999 V2000
    3.8747   -3.6826    0.0000 C   0  0  2  0  0  0  0  0  0  0  0  0
    3.1733   -4.1127    0.0000 C   0  0  1  0  0  0  0  0  0  0  0  0
    3.1733   -4.9519    0.0000 C   0  0  1  0  0  0  0  0  0  0  0  0
    3.8747   -2.8559    0.0000 C   0  0  0  0  0  0  0  0  0  0  0  0
    5.2484   -0.3424    0.0000 C   0  0  2  0  0  0  0  0  0  0  0  0
    4.5552   -4.1127    0.0000 C   0  0  0  0  0  0  0  0  0  0  0  0
    3.8747   -5.3778    0.0000 C   0  0  1  0  0  0  0  0  0  0  0  0
    4.5552   -4.9519    0.0000 C   0  0  0  0  0  0  0  0  0  0  0  0
    1.8037   -4.9519    0.0000 O   0  0  0  0  0  0  0  0  0  0  0  0
    2.4969   -3.6826    0.0000 C   0  0  0  0  0  0  0  0  0  0  0  0
    4.6179   -9.1147    0.0000 C   0  0  0  0  0  0  0  0  0  0  0  0
    1.7328   -9.1272    0.0000 C   0  0  0  0  0  0  0  0  0  0  0  0
    3.8747   -6.2128    0.0000 O   0  0  0  0  0  0  0  0  0  0  0  0
    3.1733   -6.6262    0.0000 C   0  0  0  0  0  0  0  0  0  0  0  0
    5.2484    0.5010    0.0000 O   0  0  0  0  0  0  0  0  0  0  0  0
    4.5552   -2.4342    0.0000 O   0  0  0  0  0  0  0  0  0  0  0  0
    2.4468   -8.7138    0.0000 C   0  0  0  0  0  0  0  0  0  0  0  0
    3.8998   -8.7055    0.0000 C   0  0  0  0  0  0  0  0  0  0  0  0
    3.1733   -7.4654    0.0000 C   0  0  0  0  0  0  0  0  0  0  0  0
    5.2484   -1.1816    0.0000 C   0  0  0  0  0  0  0  0  0  0  0  0
    4.5552    0.0752    0.0000 O   0  0  0  0  0  0  0  0  0  0  0  0
    1.1023   -0.3424    0.0000 C   0  0  1  0  0  0  0  0  0  0  0  0
    5.9456    0.9352    0.0000 C   0  0  1  0  0  0  0  0  0  0  0  0
    4.5552   -1.6075    0.0000 C   0  0  2  0  0  0  0  0  0  0  0  0
    1.8037    0.0752    0.0000 C   0  0  0  0  0  0  0  0  0  0  0  0
    5.9456   -0.7641    0.0000 C   0  0  0  0  0  0  0  0  0  0  0  0
    3.1774   -9.1314    0.0000 C   0  0  0  0  0  0  0  0  0  0  0  0
    2.4468   -7.8788    0.0000 C   0  0  0  0  0  0  0  0  0  0  0  0
    3.8998   -7.8788    0.0000 C   0  0  0  0  0  0  0  0  0  0  0  0
    6.6179   -0.3424    0.0000 C   0  0  0  0  0  0  0  0  0  0  0  0
    2.4969   -0.3424    0.0000 C   0  0  0  0  0  0  0  0  0  0  0  0
    0.4134    0.0752    0.0000 O   0  0  0  0  0  0  0  0  0  0  0  0
    1.8037   -4.1127    0.0000 C   0  0  0  0  0  0  0  0  0  0  0  0
    0.4342    0.9019    0.0000 C   0  0  0  0  0  0  0  0  0  0  0  0
    2.4969   -2.8559    0.0000 C   0  0  0  0  0  0  0  0  0  0  0  0
    3.2735   -2.4551    0.0000 O   0  0  0  0  0  0  0  0  0  0  0  0
    1.8037   -2.4342    0.0000 C   0  0  0  0  0  0  0  0  0  0  0  0
    6.6179    0.5010    0.0000 C   0  0  2  0  0  0  0  0  0  0  0  0
    3.8747   -1.1816    0.0000 C   0  0  0  0  0  0  0  0  0  0  0  0
    3.8747   -0.3424    0.0000 C   0  0  1  0  0  0  0  0  0  0  0  0
    2.4759   -6.2128    0.0000 O   0  0  0  0  0  0  0  0  0  0  0  0
    1.1023   -1.1816    0.0000 C   0  0  2  0  0  0  0  0  0  0  0  0
    1.8037   -1.6075    0.0000 C   0  0  0  0  0  0  0  0  0  0  0  0
    3.1733   -3.2943    0.0000 O   0  0  0  0  0  0  0  0  0  0  0  0
    1.1607    1.2985    0.0000 O   0  0  0  0  0  0  0  0  0  0  0  0
    1.0146   -9.5364    0.0000 F   0  0  0  0  0  0  0  0  0  0  0  0
    4.6221   -9.9414    0.0000 F   0  0  0  0  0  0  0  0  0  0  0  0
    5.3318   -8.7013    0.0000 F   0  0  0  0  0  0  0  0  0  0  0  0
    5.3277   -9.5239    0.0000 F   0  0  0  0  0  0  0  0  0  0  0  0
    1.0146   -8.7180    0.0000 F   0  0  0  0  0  0  0  0  0  0  0  0
    1.7369   -9.9539    0.0000 F   0  0  0  0  0  0  0  0  0  0  0  0
    3.1733    0.0752    0.0000 C   0  0  0  0  0  0  0  0  0  0  0  0
    5.9456    1.7494    0.0000 C   0  0  2  0  0  0  0  0  0  0  0  0
    5.2484   -5.3778    0.0000 C   0  0  0  0  0  0  0  0  0  0  0  0
    1.8037    0.9227    0.0000 C   0  0  0  0  0  0  0  0  0  0  0  0
   -0.2714    1.3361    0.0000 C   0  0  0  0  0  0  0  0  0  0  0  0
    7.3277    0.9227    0.0000 C   0  0  0  0  0  0  0  0  0  0  0  0
    0.4134   -1.5950    0.0000 C   0  0  0  0  0  0  0  0  0  0  0  0
    6.6179    2.1753    0.0000 C   0  0  0  0  0  0  0  0  0  0  0  0
    5.2484    2.1753    0.0000 C   0  0  0  0  0  0  0  0  0  0  0  0
    7.3277    1.7494    0.0000 C   0  0  0  0  0  0  0  0  0  0  0  0
    3.1733   -5.7995    0.0000 H   0  0  0  0  0  0  0  0  0  0  0  0
    6.6179    1.3361    0.0000 H   0  0  0  0  0  0  0  0  0  0  0  0
    4.5552   -0.7558    0.0000 H   0  0  0  0  0  0  0  0  0  0  0  0
    3.8747    0.4885    0.0000 H   0  0  0  0  0  0  0  0  0  0  0  0
    3.8747   -4.5344    0.0000 H   0  0  0  0  0  0  0  0  0  0  0  0
  2  1  1  0  0  0  0
  3  2  1  0  0  0  0
  4  1  1  0  0  0  0
  5 20  1  6  0  0  0
  6  1  1  0  0  0  0
  7  8  1  0  0  0  0
  8  6  2  0  0  0  0
  9  3  1  0  0  0  0
 10  2  1  0  0  0  0
 11 18  1  0  0  0  0
 12 17  1  0  0  0  0
  7 13  1  1  0  0  0
 14 13  1  0  0  0  0
 15  5  1  0  0  0  0
 16  4  1  0  0  0  0
 17 28  1  0  0  0  0
 18 29  2  0  0  0  0
 19 14  1  0  0  0  0
 20 24  1  0  0  0  0
 21 40  1  0  0  0  0
 22 42  1  0  0  0  0
 23 15  1  0  0  0  0
 24 16  1  0  0  0  0
 25 31  2  0  0  0  0
 26  5  1  0  0  0  0
 27 18  1  0  0  0  0
 28 19  2  0  0  0  0
 29 19  1  0  0  0  0
 30 26  2  0  0  0  0
 31 52  1  0  0  0  0
 22 32  1  6  0  0  0
 33 10  1  0  0  0  0
 34 32  1  0  0  0  0
 35 10  2  0  0  0  0
 36  4  2  0  0  0  0
 37 35  1  0  0  0  0
 38 30  1  0  0  0  0
 39 24  1  0  0  0  0
 40 39  1  0  0  0  0
 41 14  2  0  0  0  0
 42 43  1  0  0  0  0
 43 37  2  0  0  0  0
  2 44  1  6  0  0  0
 45 34  2  0  0  0  0
 46 12  1  0  0  0  0
 47 11  1  0  0  0  0
 48 11  1  0  0  0  0
 49 11  1  0  0  0  0
 50 12  1  0  0  0  0
 51 12  1  0  0  0  0
 52 40  1  0  0  0  0
 53 23  1  0  0  0  0
 54  8  1  0  0  0  0
 55 25  1  0  0  0  0
 56 34  1  0  0  0  0
 38 57  1  1  0  0  0
 42 58  1  6  0  0  0
 59 53  1  0  0  0  0
 53 60  1  1  0  0  0
 61 59  1  0  0  0  0
  3 62  1  6  0  0  0
 23 63  1  1  0  0  0
 24 64  1  6  0  0  0
 40 65  1  6  0  0  0
  1 66  1  1  0  0  0
  3  7  1  0  0  0  0
  9 33  1  0  0  0  0
  5 21  1  1  0  0  0
 22 25  1  0  0  0  0
 23 38  1  0  0  0  0
 27 17  2  0  0  0  0
M  END
>  <IDNUMBER>
F6170-0344

>  <Chemical_Name>
(1'R,2S,4'S,5S,6R,8'R,10'E,12'S,13'S,14'E,16'E,20'R,21'R,24'S)-12'-(acetyloxy)-6-[(2S)-butan-2-yl]-24'-hydroxy-5,11',13',22'-tetramethyl-2'-oxo-5,6-dihydro-3',7',19'-trioxaspiro[pyran-2,6'-tetracyclo[15.6.1.1?,?.0??,??]pentacosane]-10',14',16',22'-tetraen-21'-yl 3,5-bis(trifluoromethyl)benzoate

>  <PriceCoeff>
7.00

>  <MW>
866.89

>  <Description>
solid

>  <FSP3>
0.58

>  <clogP>
9.52

>  <TPSA>
126.82

>  <Acceptor>
10

>  <Donor>
1

>  <RotBonds>
7

>  <HAC>
61

$$$$
F6170-0345
  Mrv2219 10102508112D          

 79 85  0  0  0  0            999 V2000
    5.5365   -7.0020    0.0000 C   0  0  2  0  0  0  0  0  0  0  0  0
    4.8308   -7.4321    0.0000 C   0  0  1  0  0  0  0  0  0  0  0  0
    4.8308   -8.2713    0.0000 C   0  0  1  0  0  0  0  0  0  0  0  0
    5.5365   -6.1753    0.0000 C   0  0  0  0  0  0  0  0  0  0  0  0
    6.9060   -3.6618    0.0000 C   0  0  2  0  0  0  0  0  0  0  0  0
    6.2128   -7.4321    0.0000 C   0  0  0  0  0  0  0  0  0  0  0  0
    5.5365   -8.6972    0.0000 C   0  0  1  0  0  0  0  0  0  0  0  0
    6.2128   -8.2713    0.0000 C   0  0  0  0  0  0  0  0  0  0  0  0
    3.4614   -8.2713    0.0000 O   0  0  0  0  0  0  0  0  0  0  0  0
    4.1544   -7.0020    0.0000 C   0  0  0  0  0  0  0  0  0  0  0  0
    6.2755  -12.4340    0.0000 C   0  0  0  0  0  0  0  0  0  0  0  0
    3.3903  -12.4465    0.0000 C   0  0  0  0  0  0  0  0  0  0  0  0
    0.7265    0.1002    0.0000 C   0  0  0  0  0  0  0  0  0  0  0  0
   -0.7641   -2.3507    0.0000 C   0  0  0  0  0  0  0  0  0  0  0  0
    5.5365   -9.5322    0.0000 O   0  0  0  0  0  0  0  0  0  0  0  0
    4.8308   -9.9456    0.0000 C   0  0  0  0  0  0  0  0  0  0  0  0
    2.0918   -2.4175    0.0000 C   0  0  0  0  0  0  0  0  0  0  0  0
    6.9060   -2.8183    0.0000 O   0  0  0  0  0  0  0  0  0  0  0  0
    2.0668   -3.2442    0.0000 O   0  0  0  0  0  0  0  0  0  0  0  0
    6.2128   -5.7536    0.0000 O   0  0  0  0  0  0  0  0  0  0  0  0
    0.7057   -0.7265    0.0000 C   0  0  0  0  0  0  0  0  0  0  0  0
   -0.0418   -1.9540    0.0000 C   0  0  0  0  0  0  0  0  0  0  0  0
    5.5573  -12.0249    0.0000 C   0  0  0  0  0  0  0  0  0  0  0  0
    4.1043  -12.0332    0.0000 C   0  0  0  0  0  0  0  0  0  0  0  0
    4.8308  -10.7848    0.0000 C   0  0  0  0  0  0  0  0  0  0  0  0
    1.3862   -1.9833    0.0000 C   0  0  0  0  0  0  0  0  0  0  0  0
    2.7557   -3.6618    0.0000 C   0  0  2  0  0  0  0  0  0  0  0  0
    6.9060   -4.5010    0.0000 C   0  0  0  0  0  0  0  0  0  0  0  0
    6.2128   -3.2442    0.0000 O   0  0  0  0  0  0  0  0  0  0  0  0
    7.6032   -2.3841    0.0000 C   0  0  1  0  0  0  0  0  0  0  0  0
    6.2128   -4.9269    0.0000 C   0  0  2  0  0  0  0  0  0  0  0  0
    3.4614   -3.2442    0.0000 C   0  0  0  0  0  0  0  0  0  0  0  0
    7.6032   -4.0792    0.0000 C   0  0  0  0  0  0  0  0  0  0  0  0
   -0.0208   -1.1231    0.0000 C   0  0  0  0  0  0  0  0  0  0  0  0
    4.8350  -12.4508    0.0000 C   0  0  0  0  0  0  0  0  0  0  0  0
    1.4112   -1.1607    0.0000 C   0  0  0  0  0  0  0  0  0  0  0  0
    0.6639   -2.3799    0.0000 C   0  0  0  0  0  0  0  0  0  0  0  0
    4.1043  -11.1982    0.0000 C   0  0  0  0  0  0  0  0  0  0  0  0
    5.5573  -11.1982    0.0000 C   0  0  0  0  0  0  0  0  0  0  0  0
    8.2796   -3.6618    0.0000 C   0  0  0  0  0  0  0  0  0  0  0  0
    4.1544   -3.6618    0.0000 C   0  0  0  0  0  0  0  0  0  0  0  0
    3.4614   -7.4321    0.0000 C   0  0  0  0  0  0  0  0  0  0  0  0
    4.1544   -6.1753    0.0000 C   0  0  0  0  0  0  0  0  0  0  0  0
    4.9269   -5.7744    0.0000 O   0  0  0  0  0  0  0  0  0  0  0  0
    3.4614   -5.7536    0.0000 C   0  0  0  0  0  0  0  0  0  0  0  0
    8.2796   -2.8183    0.0000 C   0  0  2  0  0  0  0  0  0  0  0  0
    5.5365   -4.5010    0.0000 C   0  0  0  0  0  0  0  0  0  0  0  0
    5.5365   -3.6618    0.0000 C   0  0  1  0  0  0  0  0  0  0  0  0
    2.8183   -2.0209    0.0000 O   0  0  0  0  0  0  0  0  0  0  0  0
    4.1335   -9.5322    0.0000 O   0  0  0  0  0  0  0  0  0  0  0  0
    2.7557   -4.5010    0.0000 C   0  0  2  0  0  0  0  0  0  0  0  0
    3.4614   -4.9269    0.0000 C   0  0  0  0  0  0  0  0  0  0  0  0
    4.8308   -6.6137    0.0000 O   0  0  0  0  0  0  0  0  0  0  0  0
    6.9895  -12.0207    0.0000 F   0  0  0  0  0  0  0  0  0  0  0  0
    6.9895  -12.8433    0.0000 F   0  0  0  0  0  0  0  0  0  0  0  0
    2.6722  -12.0374    0.0000 F   0  0  0  0  0  0  0  0  0  0  0  0
    3.3945  -13.2733    0.0000 F   0  0  0  0  0  0  0  0  0  0  0  0
    2.6722  -12.8558    0.0000 F   0  0  0  0  0  0  0  0  0  0  0  0
    1.4530    0.4927    0.0000 F   0  0  0  0  0  0  0  0  0  0  0  0
    0.0208    0.5303    0.0000 F   0  0  0  0  0  0  0  0  0  0  0  0
    0.7182    0.9269    0.0000 F   0  0  0  0  0  0  0  0  0  0  0  0
    6.2797  -13.2607    0.0000 F   0  0  0  0  0  0  0  0  0  0  0  0
   -1.4738   -1.9207    0.0000 F   0  0  0  0  0  0  0  0  0  0  0  0
   -0.7849   -3.1774    0.0000 F   0  0  0  0  0  0  0  0  0  0  0  0
   -1.4864   -2.7599    0.0000 F   0  0  0  0  0  0  0  0  0  0  0  0
    4.8308   -3.2442    0.0000 C   0  0  0  0  0  0  0  0  0  0  0  0
    7.6032   -1.5699    0.0000 C   0  0  2  0  0  0  0  0  0  0  0  0
    6.9060   -8.6972    0.0000 C   0  0  0  0  0  0  0  0  0  0  0  0
    3.4614   -2.3967    0.0000 C   0  0  0  0  0  0  0  0  0  0  0  0
    8.9853   -2.3967    0.0000 C   0  0  0  0  0  0  0  0  0  0  0  0
    2.0668   -4.9144    0.0000 C   0  0  0  0  0  0  0  0  0  0  0  0
    8.2796   -1.1441    0.0000 C   0  0  0  0  0  0  0  0  0  0  0  0
    6.9060   -1.1441    0.0000 C   0  0  0  0  0  0  0  0  0  0  0  0
    8.9853   -1.5699    0.0000 C   0  0  0  0  0  0  0  0  0  0  0  0
    5.5365   -2.8309    0.0000 H   0  0  0  0  0  0  0  0  0  0  0  0
    5.5365   -7.8537    0.0000 H   0  0  0  0  0  0  0  0  0  0  0  0
    4.8308   -9.1189    0.0000 H   0  0  0  0  0  0  0  0  0  0  0  0
    8.2796   -1.9833    0.0000 H   0  0  0  0  0  0  0  0  0  0  0  0
    6.2128   -4.0751    0.0000 H   0  0  0  0  0  0  0  0  0  0  0  0
  2  1  1  0  0  0  0
  3  2  1  0  0  0  0
  4  1  1  0  0  0  0
  5 28  1  6  0  0  0
  6  1  1  0  0  0  0
  7  8  1  0  0  0  0
  8  6  2  0  0  0  0
  9  3  1  0  0  0  0
 10  2  1  0  0  0  0
 11 23  1  0  0  0  0
 12 24  1  0  0  0  0
 13 21  1  0  0  0  0
 14 22  1  0  0  0  0
  7 15  1  1  0  0  0
 16 15  1  0  0  0  0
 17 19  1  0  0  0  0
 18  5  1  0  0  0  0
 27 19  1  6  0  0  0
 20  4  1  0  0  0  0
 21 36  1  0  0  0  0
 22 37  2  0  0  0  0
 23 39  2  0  0  0  0
 24 38  1  0  0  0  0
 25 16  1  0  0  0  0
 26 17  1  0  0  0  0
 27 51  1  0  0  0  0
 28 31  1  0  0  0  0
 29 48  1  0  0  0  0
 30 18  1  0  0  0  0
 31 20  1  0  0  0  0
 32 41  2  0  0  0  0
 33  5  1  0  0  0  0
 34 22  1  0  0  0  0
 35 23  1  0  0  0  0
 36 26  2  0  0  0  0
 37 26  1  0  0  0  0
 38 25  2  0  0  0  0
 39 25  1  0  0  0  0
 40 33  2  0  0  0  0
 41 66  1  0  0  0  0
 42 10  1  0  0  0  0
 43 10  2  0  0  0  0
 44  4  2  0  0  0  0
 45 43  1  0  0  0  0
 46 40  1  0  0  0  0
 47 31  1  0  0  0  0
 48 47  1  0  0  0  0
 49 17  2  0  0  0  0
 50 16  2  0  0  0  0
 51 52  1  0  0  0  0
 52 45  2  0  0  0  0
  2 53  1  6  0  0  0
 54 11  1  0  0  0  0
 55 11  1  0  0  0  0
 56 12  1  0  0  0  0
 57 12  1  0  0  0  0
 58 12  1  0  0  0  0
 59 13  1  0  0  0  0
 60 13  1  0  0  0  0
 61 13  1  0  0  0  0
 62 11  1  0  0  0  0
 63 14  1  0  0  0  0
 64 14  1  0  0  0  0
 65 14  1  0  0  0  0
 66 48  1  0  0  0  0
 67 30  1  0  0  0  0
 68  8  1  0  0  0  0
 69 32  1  0  0  0  0
 46 70  1  1  0  0  0
 51 71  1  6  0  0  0
 72 67  1  0  0  0  0
 67 73  1  1  0  0  0
 74 72  1  0  0  0  0
 48 75  1  6  0  0  0
  1 76  1  1  0  0  0
  3 77  1  6  0  0  0
 30 78  1  1  0  0  0
 31 79  1  6  0  0  0
  3  7  1  0  0  0  0
  9 42  1  0  0  0  0
  5 29  1  1  0  0  0
 27 32  1  0  0  0  0
 30 46  1  0  0  0  0
 35 24  2  0  0  0  0
 34 21  2  0  0  0  0
M  END
>  <IDNUMBER>
F6170-0345

>  <Chemical_Name>
(1'R,2S,4'S,5S,6R,8'R,10'E,12'S,13'S,14'E,16'E,20'R,21'R,24'S)-21'-[3,5-bis(trifluoromethyl)benzoyloxy]-6-[(2S)-butan-2-yl]-24'-hydroxy-5,11',13',22'-tetramethyl-2'-oxo-5,6-dihydro-3',7',19'-trioxaspiro[pyran-2,6'-tetracyclo[15.6.1.1?,?.0??,??]pentacosane]-10',14',16',22'-tetraen-12'-yl 3,5-bis(trifluoromethyl)benzoate

>  <PriceCoeff>
7.00

>  <MW>
1 064.96

>  <Description>
solid

>  <FSP3>
0.52

>  <clogP>
13.21

>  <TPSA>
126.82

>  <Acceptor>
10

>  <Donor>
1

>  <RotBonds>
8

>  <HAC>
74

$$$$
F6170-0354
  Mrv2219 10102508112D          

 57 62  0  0  0  0            999 V2000
    4.1126   -6.7175    0.0000 C   0  0  2  0  0  0  0  0  0  0  0  0
    3.4048   -7.1531    0.0000 C   0  0  1  0  0  0  0  0  0  0  0  0
    3.4048   -7.9949    0.0000 C   0  0  1  0  0  0  0  0  0  0  0  0
    4.1126   -5.8925    0.0000 C   0  0  0  0  0  0  0  0  0  0  0  0
    5.4862   -3.3714    0.0000 C   0  0  2  0  0  0  0  0  0  0  0  0
    4.7911   -7.1531    0.0000 C   0  0  0  0  0  0  0  0  0  0  0  0
    4.1126   -8.4179    0.0000 C   0  0  1  0  0  0  0  0  0  0  0  0
    4.7911   -7.9949    0.0000 C   0  0  0  0  0  0  0  0  0  0  0  0
    2.0311   -7.9949    0.0000 O   0  0  0  0  0  0  0  0  0  0  0  0
    2.7264   -6.7175    0.0000 C   0  0  0  0  0  0  0  0  0  0  0  0
    4.1126   -9.2554    0.0000 O   0  0  0  0  0  0  0  0  0  0  0  0
    5.4862   -2.5254    0.0000 O   0  0  0  0  0  0  0  0  0  0  0  0
    4.7911   -5.4653    0.0000 O   0  0  0  0  0  0  0  0  0  0  0  0
    3.3923   -9.6700    0.0000 C   0  0  0  0  0  0  0  0  0  0  0  0
    5.4862   -4.2089    0.0000 C   0  0  0  0  0  0  0  0  0  0  0  0
    4.7911   -2.9442    0.0000 O   0  0  0  0  0  0  0  0  0  0  0  0
    6.1857   -2.0856    0.0000 C   0  0  1  0  0  0  0  0  0  0  0  0
    4.7911   -4.6361    0.0000 C   0  0  2  0  0  0  0  0  0  0  0  0
    6.1857   -3.7860    0.0000 C   0  0  0  0  0  0  0  0  0  0  0  0
    2.0311   -2.9442    0.0000 C   0  0  0  0  0  0  0  0  0  0  0  0
    6.8641   -3.3714    0.0000 C   0  0  0  0  0  0  0  0  0  0  0  0
    2.7264   -3.3714    0.0000 C   0  0  0  0  0  0  0  0  0  0  0  0
    2.0311   -7.1531    0.0000 C   0  0  0  0  0  0  0  0  0  0  0  0
    1.3234   -3.3714    0.0000 C   0  0  2  0  0  0  0  0  0  0  0  0
    3.3923  -10.4993    0.0000 C   0  0  0  0  0  0  0  0  0  0  0  0
    2.7264   -5.8925    0.0000 C   0  0  0  0  0  0  0  0  0  0  0  0
    3.5053   -5.4905    0.0000 O   0  0  0  0  0  0  0  0  0  0  0  0
    2.0311   -5.4653    0.0000 C   0  0  0  0  0  0  0  0  0  0  0  0
    6.8641   -2.5254    0.0000 C   0  0  2  0  0  0  0  0  0  0  0  0
    4.1126   -4.2089    0.0000 C   0  0  0  0  0  0  0  0  0  0  0  0
    4.1126   -3.3714    0.0000 C   0  0  1  0  0  0  0  0  0  0  0  0
    2.6761   -9.2554    0.0000 O   0  0  0  0  0  0  0  0  0  0  0  0
    2.0311   -4.6361    0.0000 C   0  0  0  0  0  0  0  0  0  0  0  0
    3.4048   -6.3239    0.0000 O   0  0  0  0  0  0  0  0  0  0  0  0
    1.3234   -4.2089    0.0000 C   0  0  2  0  0  0  0  0  0  0  0  0
    2.6719  -10.9097    0.0000 C   0  0  0  0  0  0  0  0  0  0  0  0
    4.1084  -10.9055    0.0000 C   0  0  0  0  0  0  0  0  0  0  0  0
    3.4048   -2.9442    0.0000 C   0  0  0  0  0  0  0  0  0  0  0  0
    6.1857   -1.2690    0.0000 C   0  0  2  0  0  0  0  0  0  0  0  0
    0.6324   -2.9442    0.0000 O   0  0  0  0  0  0  0  0  0  0  0  0
    3.3880  -12.1536    0.0000 C   0  0  0  0  0  0  0  0  0  0  0  0
    4.1084  -11.7347    0.0000 C   0  0  0  0  0  0  0  0  0  0  0  0
    2.6719  -11.7347    0.0000 C   0  0  0  0  0  0  0  0  0  0  0  0
    5.4862   -8.4179    0.0000 C   0  0  0  0  0  0  0  0  0  0  0  0
    3.3923  -12.9828    0.0000 O   0  0  0  0  0  0  0  0  0  0  0  0
    2.0311   -2.0982    0.0000 C   0  0  0  0  0  0  0  0  0  0  0  0
    7.5677   -2.0982    0.0000 C   0  0  0  0  0  0  0  0  0  0  0  0
    0.6324   -4.6235    0.0000 C   0  0  0  0  0  0  0  0  0  0  0  0
    6.8641   -0.8418    0.0000 C   0  0  0  0  0  0  0  0  0  0  0  0
    5.4862   -0.8418    0.0000 C   0  0  0  0  0  0  0  0  0  0  0  0
    2.6719  -13.3974    0.0000 C   0  0  0  0  0  0  0  0  0  0  0  0
    7.5677   -1.2690    0.0000 C   0  0  0  0  0  0  0  0  0  0  0  0
    6.8641   -1.6836    0.0000 H   0  0  0  0  0  0  0  0  0  0  0  0
    4.7911   -3.7860    0.0000 H   0  0  0  0  0  0  0  0  0  0  0  0
    4.1126   -2.5296    0.0000 H   0  0  0  0  0  0  0  0  0  0  0  0
    4.1126   -7.5677    0.0000 H   0  0  0  0  0  0  0  0  0  0  0  0
    3.4048   -8.8367    0.0000 H   0  0  0  0  0  0  0  0  0  0  0  0
  2  1  1  0  0  0  0
  3  2  1  0  0  0  0
  4  1  1  0  0  0  0
  5 15  1  6  0  0  0
  6  1  1  0  0  0  0
  7  8  1  0  0  0  0
  8  6  2  0  0  0  0
  9  3  1  0  0  0  0
 10  2  1  0  0  0  0
  7 11  1  1  0  0  0
 12  5  1  0  0  0  0
 13  4  1  0  0  0  0
 14 11  1  0  0  0  0
 15 18  1  0  0  0  0
 16 31  1  0  0  0  0
 17 12  1  0  0  0  0
 18 13  1  0  0  0  0
 19  5  1  0  0  0  0
 20 22  2  0  0  0  0
 21 19  2  0  0  0  0
 22 38  1  0  0  0  0
 23 10  1  0  0  0  0
 24 35  1  0  0  0  0
 25 14  1  0  0  0  0
 26 10  2  0  0  0  0
 27  4  2  0  0  0  0
 28 26  1  0  0  0  0
 29 21  1  0  0  0  0
 30 18  1  0  0  0  0
 31 30  1  0  0  0  0
 32 14  2  0  0  0  0
 33 28  2  0  0  0  0
  2 34  1  6  0  0  0
 35 33  1  0  0  0  0
 36 25  2  0  0  0  0
 37 25  1  0  0  0  0
 38 31  1  0  0  0  0
 39 17  1  0  0  0  0
 24 40  1  6  0  0  0
 41 42  1  0  0  0  0
 42 37  2  0  0  0  0
 43 36  1  0  0  0  0
 44  8  1  0  0  0  0
 45 41  1  0  0  0  0
 46 20  1  0  0  0  0
 29 47  1  1  0  0  0
 35 48  1  6  0  0  0
 49 39  1  0  0  0  0
 39 50  1  1  0  0  0
 51 45  1  0  0  0  0
 52 49  1  0  0  0  0
 17 53  1  1  0  0  0
 18 54  1  6  0  0  0
 31 55  1  6  0  0  0
  1 56  1  1  0  0  0
  3 57  1  6  0  0  0
  3  7  1  0  0  0  0
  9 23  1  0  0  0  0
  5 16  1  1  0  0  0
 24 20  1  0  0  0  0
 41 43  2  0  0  0  0
 17 29  1  0  0  0  0
M  END
>  <IDNUMBER>
F6170-0354

>  <Chemical_Name>
(1'R,2S,4'S,5S,6R,8'R,10'E,12'S,13'S,14'E,16'E,20'R,21'R,24'S)-6-[(2S)-butan-2-yl]-12',24'-dihydroxy-5,11',13',22'-tetramethyl-2'-oxo-5,6-dihydro-3',7',19'-trioxaspiro[pyran-2,6'-tetracyclo[15.6.1.1?,?.0??,??]pentacosane]-10',14',16',22'-tetraen-21'-yl 4-methoxybenzoate

>  <PriceCoeff>
7.00

>  <MW>
718.88

>  <Description>
solid

>  <FSP3>
0.57

>  <clogP>
6.98

>  <TPSA>
129.98

>  <Acceptor>
10

>  <Donor>
2

>  <RotBonds>
6

>  <HAC>
52

$$$$
F6170-0355
  Mrv2219 10102508112D          

 60 65  0  0  0  0            999 V2000
    4.1126   -6.7175    0.0000 C   0  0  2  0  0  0  0  0  0  0  0  0
    3.4048   -7.1531    0.0000 C   0  0  1  0  0  0  0  0  0  0  0  0
    3.4048   -7.9949    0.0000 C   0  0  1  0  0  0  0  0  0  0  0  0
    4.1126   -5.8925    0.0000 C   0  0  0  0  0  0  0  0  0  0  0  0
    5.4862   -3.3714    0.0000 C   0  0  2  0  0  0  0  0  0  0  0  0
    4.7911   -7.1531    0.0000 C   0  0  0  0  0  0  0  0  0  0  0  0
    4.1126   -8.4179    0.0000 C   0  0  1  0  0  0  0  0  0  0  0  0
    4.7911   -7.9949    0.0000 C   0  0  0  0  0  0  0  0  0  0  0  0
    2.0311   -7.9949    0.0000 O   0  0  0  0  0  0  0  0  0  0  0  0
    2.7264   -6.7175    0.0000 C   0  0  0  0  0  0  0  0  0  0  0  0
    4.1126   -9.2554    0.0000 O   0  0  0  0  0  0  0  0  0  0  0  0
    5.4862   -2.5254    0.0000 O   0  0  0  0  0  0  0  0  0  0  0  0
    4.7911   -5.4653    0.0000 O   0  0  0  0  0  0  0  0  0  0  0  0
    3.3923   -9.6700    0.0000 C   0  0  0  0  0  0  0  0  0  0  0  0
    5.4862   -4.2089    0.0000 C   0  0  0  0  0  0  0  0  0  0  0  0
    4.7911   -2.9442    0.0000 O   0  0  0  0  0  0  0  0  0  0  0  0
    1.3234   -3.3714    0.0000 C   0  0  1  0  0  0  0  0  0  0  0  0
    6.1857   -2.0856    0.0000 C   0  0  1  0  0  0  0  0  0  0  0  0
    4.7911   -4.6361    0.0000 C   0  0  2  0  0  0  0  0  0  0  0  0
    2.0311   -2.9442    0.0000 C   0  0  0  0  0  0  0  0  0  0  0  0
    6.1857   -3.7860    0.0000 C   0  0  0  0  0  0  0  0  0  0  0  0
    6.8641   -3.3714    0.0000 C   0  0  0  0  0  0  0  0  0  0  0  0
    2.7264   -3.3714    0.0000 C   0  0  0  0  0  0  0  0  0  0  0  0
    0.6324   -2.9442    0.0000 O   0  0  0  0  0  0  0  0  0  0  0  0
    2.0311   -7.1531    0.0000 C   0  0  0  0  0  0  0  0  0  0  0  0
    0.6282   -2.1150    0.0000 C   0  0  0  0  0  0  0  0  0  0  0  0
    3.3923  -10.4993    0.0000 C   0  0  0  0  0  0  0  0  0  0  0  0
    2.7264   -5.8925    0.0000 C   0  0  0  0  0  0  0  0  0  0  0  0
    3.5053   -5.4905    0.0000 O   0  0  0  0  0  0  0  0  0  0  0  0
    2.0311   -5.4653    0.0000 C   0  0  0  0  0  0  0  0  0  0  0  0
    6.8641   -2.5254    0.0000 C   0  0  2  0  0  0  0  0  0  0  0  0
    4.1126   -4.2089    0.0000 C   0  0  0  0  0  0  0  0  0  0  0  0
    4.1126   -3.3714    0.0000 C   0  0  1  0  0  0  0  0  0  0  0  0
    2.6761   -9.2554    0.0000 O   0  0  0  0  0  0  0  0  0  0  0  0
    1.3234   -4.2089    0.0000 C   0  0  2  0  0  0  0  0  0  0  0  0
    2.0311   -4.6361    0.0000 C   0  0  0  0  0  0  0  0  0  0  0  0
    3.4048   -6.3239    0.0000 O   0  0  0  0  0  0  0  0  0  0  0  0
    1.3401   -1.6961    0.0000 O   0  0  0  0  0  0  0  0  0  0  0  0
    2.6719  -10.9097    0.0000 C   0  0  0  0  0  0  0  0  0  0  0  0
    4.1084  -10.9055    0.0000 C   0  0  0  0  0  0  0  0  0  0  0  0
    3.4048   -2.9442    0.0000 C   0  0  0  0  0  0  0  0  0  0  0  0
    6.1857   -1.2690    0.0000 C   0  0  2  0  0  0  0  0  0  0  0  0
    3.3880  -12.1536    0.0000 C   0  0  0  0  0  0  0  0  0  0  0  0
    4.1084  -11.7347    0.0000 C   0  0  0  0  0  0  0  0  0  0  0  0
    2.6719  -11.7347    0.0000 C   0  0  0  0  0  0  0  0  0  0  0  0
    5.4862   -8.4179    0.0000 C   0  0  0  0  0  0  0  0  0  0  0  0
    3.3923  -12.9828    0.0000 O   0  0  0  0  0  0  0  0  0  0  0  0
    2.0311   -2.0982    0.0000 C   0  0  0  0  0  0  0  0  0  0  0  0
   -0.0963   -1.7087    0.0000 C   0  0  0  0  0  0  0  0  0  0  0  0
    7.5677   -2.0982    0.0000 C   0  0  0  0  0  0  0  0  0  0  0  0
    0.6324   -4.6235    0.0000 C   0  0  0  0  0  0  0  0  0  0  0  0
    6.8641   -0.8418    0.0000 C   0  0  0  0  0  0  0  0  0  0  0  0
    5.4862   -0.8418    0.0000 C   0  0  0  0  0  0  0  0  0  0  0  0
    2.6719  -13.3974    0.0000 C   0  0  0  0  0  0  0  0  0  0  0  0
    7.5677   -1.2690    0.0000 C   0  0  0  0  0  0  0  0  0  0  0  0
    4.1126   -7.5677    0.0000 H   0  0  0  0  0  0  0  0  0  0  0  0
    3.4048   -8.8367    0.0000 H   0  0  0  0  0  0  0  0  0  0  0  0
    6.8641   -1.6836    0.0000 H   0  0  0  0  0  0  0  0  0  0  0  0
    4.7911   -3.7860    0.0000 H   0  0  0  0  0  0  0  0  0  0  0  0
    4.1126   -2.5296    0.0000 H   0  0  0  0  0  0  0  0  0  0  0  0
  2  1  1  0  0  0  0
  3  2  1  0  0  0  0
  4  1  1  0  0  0  0
  5 15  1  6  0  0  0
  6  1  1  0  0  0  0
  7  8  1  0  0  0  0
  8  6  2  0  0  0  0
  9  3  1  0  0  0  0
 10  2  1  0  0  0  0
  7 11  1  1  0  0  0
 12  5  1  0  0  0  0
 13  4  1  0  0  0  0
 14 11  1  0  0  0  0
 15 19  1  0  0  0  0
 16 33  1  0  0  0  0
 17 35  1  0  0  0  0
 18 12  1  0  0  0  0
 19 13  1  0  0  0  0
 20 23  2  0  0  0  0
 21  5  1  0  0  0  0
 22 21  2  0  0  0  0
 23 41  1  0  0  0  0
 17 24  1  6  0  0  0
 25 10  1  0  0  0  0
 26 24  1  0  0  0  0
 27 14  1  0  0  0  0
 28 10  2  0  0  0  0
 29  4  2  0  0  0  0
 30 28  1  0  0  0  0
 31 22  1  0  0  0  0
 32 19  1  0  0  0  0
 33 32  1  0  0  0  0
 34 14  2  0  0  0  0
 35 36  1  0  0  0  0
 36 30  2  0  0  0  0
  2 37  1  6  0  0  0
 38 26  2  0  0  0  0
 39 27  2  0  0  0  0
 40 27  1  0  0  0  0
 41 33  1  0  0  0  0
 42 18  1  0  0  0  0
 43 44  1  0  0  0  0
 44 40  2  0  0  0  0
 45 39  1  0  0  0  0
 46  8  1  0  0  0  0
 47 43  1  0  0  0  0
 48 20  1  0  0  0  0
 49 26  1  0  0  0  0
 31 50  1  1  0  0  0
 35 51  1  6  0  0  0
 52 42  1  0  0  0  0
 42 53  1  1  0  0  0
 54 47  1  0  0  0  0
 55 52  1  0  0  0  0
  1 56  1  1  0  0  0
  3 57  1  6  0  0  0
 18 58  1  1  0  0  0
 19 59  1  6  0  0  0
 33 60  1  6  0  0  0
  3  7  1  0  0  0  0
  9 25  1  0  0  0  0
  5 16  1  1  0  0  0
 43 45  2  0  0  0  0
 17 20  1  0  0  0  0
 18 31  1  0  0  0  0
M  END
>  <IDNUMBER>
F6170-0355

>  <Chemical_Name>
(1'R,2S,4'S,5S,6R,8'R,10'E,12'S,13'S,14'E,16'E,20'R,21'R,24'S)-12'-(acetyloxy)-6-[(2S)-butan-2-yl]-24'-hydroxy-5,11',13',22'-tetramethyl-2'-oxo-5,6-dihydro-3',7',19'-trioxaspiro[pyran-2,6'-tetracyclo[15.6.1.1?,?.0??,??]pentacosane]-10',14',16',22'-tetraen-21'-yl 4-methoxybenzoate

>  <PriceCoeff>
7.00

>  <MW>
760.92

>  <Description>
solid

>  <FSP3>
0.57

>  <clogP>
7.93

>  <TPSA>
136.05

>  <Acceptor>
11

>  <Donor>
1

>  <RotBonds>
8

>  <HAC>
55

$$$$
F6170-0357
  Mrv2219 10102508112D          

 57 62  0  0  0  0            999 V2000
    4.1126   -6.7175    0.0000 C   0  0  2  0  0  0  0  0  0  0  0  0
    3.4048   -7.1531    0.0000 C   0  0  1  0  0  0  0  0  0  0  0  0
    3.4048   -7.9949    0.0000 C   0  0  1  0  0  0  0  0  0  0  0  0
    4.1126   -5.8925    0.0000 C   0  0  0  0  0  0  0  0  0  0  0  0
    5.4862   -3.3714    0.0000 C   0  0  2  0  0  0  0  0  0  0  0  0
    4.7911   -7.1531    0.0000 C   0  0  0  0  0  0  0  0  0  0  0  0
    4.1126   -8.4179    0.0000 C   0  0  1  0  0  0  0  0  0  0  0  0
    4.7911   -7.9949    0.0000 C   0  0  0  0  0  0  0  0  0  0  0  0
    2.0311   -7.9949    0.0000 O   0  0  0  0  0  0  0  0  0  0  0  0
    2.7264   -6.7175    0.0000 C   0  0  0  0  0  0  0  0  0  0  0  0
    4.1126   -9.2554    0.0000 O   0  0  0  0  0  0  0  0  0  0  0  0
    3.3923   -9.6700    0.0000 C   0  0  0  0  0  0  0  0  0  0  0  0
    5.4862   -2.5254    0.0000 O   0  0  0  0  0  0  0  0  0  0  0  0
    4.7911   -5.4653    0.0000 O   0  0  0  0  0  0  0  0  0  0  0  0
    3.3923  -10.4993    0.0000 C   0  0  0  0  0  0  0  0  0  0  0  0
    5.4862   -4.2089    0.0000 C   0  0  0  0  0  0  0  0  0  0  0  0
    4.7911   -2.9442    0.0000 O   0  0  0  0  0  0  0  0  0  0  0  0
    6.1857   -2.0856    0.0000 C   0  0  1  0  0  0  0  0  0  0  0  0
    4.7911   -4.6361    0.0000 C   0  0  2  0  0  0  0  0  0  0  0  0
    6.1857   -3.7860    0.0000 C   0  0  0  0  0  0  0  0  0  0  0  0
    2.0311   -2.9442    0.0000 C   0  0  0  0  0  0  0  0  0  0  0  0
    6.8641   -3.3714    0.0000 C   0  0  0  0  0  0  0  0  0  0  0  0
    2.7264   -3.3714    0.0000 C   0  0  0  0  0  0  0  0  0  0  0  0
    2.0311   -7.1531    0.0000 C   0  0  0  0  0  0  0  0  0  0  0  0
    1.3234   -3.3714    0.0000 C   0  0  2  0  0  0  0  0  0  0  0  0
    2.7264   -5.8925    0.0000 C   0  0  0  0  0  0  0  0  0  0  0  0
    3.5053   -5.4905    0.0000 O   0  0  0  0  0  0  0  0  0  0  0  0
    2.0311   -5.4653    0.0000 C   0  0  0  0  0  0  0  0  0  0  0  0
    2.6719  -10.9097    0.0000 C   0  0  0  0  0  0  0  0  0  0  0  0
    4.1084  -10.9055    0.0000 C   0  0  0  0  0  0  0  0  0  0  0  0
    6.8641   -2.5254    0.0000 C   0  0  2  0  0  0  0  0  0  0  0  0
    4.1126   -4.2089    0.0000 C   0  0  0  0  0  0  0  0  0  0  0  0
    4.1126   -3.3714    0.0000 C   0  0  1  0  0  0  0  0  0  0  0  0
    2.6761   -9.2554    0.0000 O   0  0  0  0  0  0  0  0  0  0  0  0
    4.1084  -11.7347    0.0000 C   0  0  0  0  0  0  0  0  0  0  0  0
    2.6719  -11.7347    0.0000 C   0  0  0  0  0  0  0  0  0  0  0  0
    3.3880  -12.1536    0.0000 C   0  0  0  0  0  0  0  0  0  0  0  0
    2.0311   -4.6361    0.0000 C   0  0  0  0  0  0  0  0  0  0  0  0
    3.4048   -6.3239    0.0000 O   0  0  0  0  0  0  0  0  0  0  0  0
    1.3234   -4.2089    0.0000 C   0  0  2  0  0  0  0  0  0  0  0  0
    3.4048   -2.9442    0.0000 C   0  0  0  0  0  0  0  0  0  0  0  0
    6.1857   -1.2690    0.0000 C   0  0  2  0  0  0  0  0  0  0  0  0
    1.9516  -12.1494    0.0000 Cl  0  0  0  0  0  0  0  0  0  0  0  0
    4.8288  -12.1451    0.0000 Cl  0  0  0  0  0  0  0  0  0  0  0  0
    0.6324   -2.9442    0.0000 O   0  0  0  0  0  0  0  0  0  0  0  0
    5.4862   -8.4179    0.0000 C   0  0  0  0  0  0  0  0  0  0  0  0
    2.0311   -2.0982    0.0000 C   0  0  0  0  0  0  0  0  0  0  0  0
    7.5677   -2.0982    0.0000 C   0  0  0  0  0  0  0  0  0  0  0  0
    0.6324   -4.6235    0.0000 C   0  0  0  0  0  0  0  0  0  0  0  0
    6.8641   -0.8418    0.0000 C   0  0  0  0  0  0  0  0  0  0  0  0
    5.4862   -0.8418    0.0000 C   0  0  0  0  0  0  0  0  0  0  0  0
    7.5677   -1.2690    0.0000 C   0  0  0  0  0  0  0  0  0  0  0  0
    6.8641   -1.6836    0.0000 H   0  0  0  0  0  0  0  0  0  0  0  0
    4.7911   -3.7860    0.0000 H   0  0  0  0  0  0  0  0  0  0  0  0
    4.1126   -2.5296    0.0000 H   0  0  0  0  0  0  0  0  0  0  0  0
    4.1126   -7.5677    0.0000 H   0  0  0  0  0  0  0  0  0  0  0  0
    3.4048   -8.8367    0.0000 H   0  0  0  0  0  0  0  0  0  0  0  0
  2  1  1  0  0  0  0
  3  2  1  0  0  0  0
  4  1  1  0  0  0  0
  5 16  1  6  0  0  0
  6  1  1  0  0  0  0
  7  8  1  0  0  0  0
  8  6  2  0  0  0  0
  9  3  1  0  0  0  0
 10  2  1  0  0  0  0
  7 11  1  1  0  0  0
 12 11  1  0  0  0  0
 13  5  1  0  0  0  0
 14  4  1  0  0  0  0
 15 12  1  0  0  0  0
 16 19  1  0  0  0  0
 17 33  1  0  0  0  0
 18 13  1  0  0  0  0
 19 14  1  0  0  0  0
 20  5  1  0  0  0  0
 21 23  2  0  0  0  0
 22 20  2  0  0  0  0
 23 41  1  0  0  0  0
 24 10  1  0  0  0  0
 25 40  1  0  0  0  0
 26 10  2  0  0  0  0
 27  4  2  0  0  0  0
 28 26  1  0  0  0  0
 29 15  2  0  0  0  0
 30 15  1  0  0  0  0
 31 22  1  0  0  0  0
 32 19  1  0  0  0  0
 33 32  1  0  0  0  0
 34 12  2  0  0  0  0
 35 30  2  0  0  0  0
 36 29  1  0  0  0  0
 37 35  1  0  0  0  0
 38 28  2  0  0  0  0
  2 39  1  6  0  0  0
 40 38  1  0  0  0  0
 41 33  1  0  0  0  0
 42 18  1  0  0  0  0
 43 36  1  0  0  0  0
 44 35  1  0  0  0  0
 25 45  1  6  0  0  0
 46  8  1  0  0  0  0
 47 21  1  0  0  0  0
 31 48  1  1  0  0  0
 40 49  1  6  0  0  0
 50 42  1  0  0  0  0
 42 51  1  1  0  0  0
 52 50  1  0  0  0  0
 18 53  1  1  0  0  0
 19 54  1  6  0  0  0
 33 55  1  6  0  0  0
  1 56  1  1  0  0  0
  3 57  1  6  0  0  0
  3  7  1  0  0  0  0
  9 24  1  0  0  0  0
  5 17  1  1  0  0  0
 25 21  1  0  0  0  0
 18 31  1  0  0  0  0
 37 36  2  0  0  0  0
M  END
>  <IDNUMBER>
F6170-0357

>  <Chemical_Name>
(1'R,2S,4'S,5S,6R,8'R,10'E,12'S,13'S,14'E,16'E,20'R,21'R,24'S)-6-[(2S)-butan-2-yl]-12',24'-dihydroxy-5,11',13',22'-tetramethyl-2'-oxo-5,6-dihydro-3',7',19'-trioxaspiro[pyran-2,6'-tetracyclo[15.6.1.1?,?.0??,??]pentacosane]-10',14',16',22'-tetraen-21'-yl 3,5-dichlorobenzoate

>  <PriceCoeff>
7.00

>  <MW>
757.74

>  <Description>
solid

>  <FSP3>
0.56

>  <clogP>
8.23

>  <TPSA>
120.75

>  <Acceptor>
9

>  <Donor>
2

>  <RotBonds>
5

>  <HAC>
52

$$$$
F6170-0358
  Mrv2219 10102508112D          

 60 65  0  0  0  0            999 V2000
    4.1126   -6.7175    0.0000 C   0  0  2  0  0  0  0  0  0  0  0  0
    3.4048   -7.1531    0.0000 C   0  0  1  0  0  0  0  0  0  0  0  0
    3.4048   -7.9949    0.0000 C   0  0  1  0  0  0  0  0  0  0  0  0
    4.1126   -5.8925    0.0000 C   0  0  0  0  0  0  0  0  0  0  0  0
    5.4862   -3.3714    0.0000 C   0  0  2  0  0  0  0  0  0  0  0  0
    4.7911   -7.1531    0.0000 C   0  0  0  0  0  0  0  0  0  0  0  0
    4.1126   -8.4179    0.0000 C   0  0  1  0  0  0  0  0  0  0  0  0
    4.7911   -7.9949    0.0000 C   0  0  0  0  0  0  0  0  0  0  0  0
    2.0311   -7.9949    0.0000 O   0  0  0  0  0  0  0  0  0  0  0  0
    2.7264   -6.7175    0.0000 C   0  0  0  0  0  0  0  0  0  0  0  0
    4.1126   -9.2554    0.0000 O   0  0  0  0  0  0  0  0  0  0  0  0
    3.3923   -9.6700    0.0000 C   0  0  0  0  0  0  0  0  0  0  0  0
    5.4862   -2.5254    0.0000 O   0  0  0  0  0  0  0  0  0  0  0  0
    4.7911   -5.4653    0.0000 O   0  0  0  0  0  0  0  0  0  0  0  0
    3.3923  -10.4993    0.0000 C   0  0  0  0  0  0  0  0  0  0  0  0
    5.4862   -4.2089    0.0000 C   0  0  0  0  0  0  0  0  0  0  0  0
    4.7911   -2.9442    0.0000 O   0  0  0  0  0  0  0  0  0  0  0  0
    1.3234   -3.3714    0.0000 C   0  0  1  0  0  0  0  0  0  0  0  0
    6.1857   -2.0856    0.0000 C   0  0  1  0  0  0  0  0  0  0  0  0
    4.7911   -4.6361    0.0000 C   0  0  2  0  0  0  0  0  0  0  0  0
    2.0311   -2.9442    0.0000 C   0  0  0  0  0  0  0  0  0  0  0  0
    6.1857   -3.7860    0.0000 C   0  0  0  0  0  0  0  0  0  0  0  0
    6.8641   -3.3714    0.0000 C   0  0  0  0  0  0  0  0  0  0  0  0
    2.7264   -3.3714    0.0000 C   0  0  0  0  0  0  0  0  0  0  0  0
    0.6324   -2.9442    0.0000 O   0  0  0  0  0  0  0  0  0  0  0  0
    2.0311   -7.1531    0.0000 C   0  0  0  0  0  0  0  0  0  0  0  0
    0.6575   -2.1191    0.0000 C   0  0  0  0  0  0  0  0  0  0  0  0
    2.7264   -5.8925    0.0000 C   0  0  0  0  0  0  0  0  0  0  0  0
    3.5053   -5.4905    0.0000 O   0  0  0  0  0  0  0  0  0  0  0  0
    2.0311   -5.4653    0.0000 C   0  0  0  0  0  0  0  0  0  0  0  0
    4.1084  -10.9055    0.0000 C   0  0  0  0  0  0  0  0  0  0  0  0
    2.6719  -10.9097    0.0000 C   0  0  0  0  0  0  0  0  0  0  0  0
    6.8641   -2.5254    0.0000 C   0  0  2  0  0  0  0  0  0  0  0  0
    4.1126   -4.2089    0.0000 C   0  0  0  0  0  0  0  0  0  0  0  0
    4.1126   -3.3714    0.0000 C   0  0  1  0  0  0  0  0  0  0  0  0
    2.6761   -9.2554    0.0000 O   0  0  0  0  0  0  0  0  0  0  0  0
    2.6719  -11.7347    0.0000 C   0  0  0  0  0  0  0  0  0  0  0  0
    4.1084  -11.7347    0.0000 C   0  0  0  0  0  0  0  0  0  0  0  0
    3.3880  -12.1536    0.0000 C   0  0  0  0  0  0  0  0  0  0  0  0
    1.3234   -4.2089    0.0000 C   0  0  2  0  0  0  0  0  0  0  0  0
    2.0311   -4.6361    0.0000 C   0  0  0  0  0  0  0  0  0  0  0  0
    3.4048   -6.3239    0.0000 O   0  0  0  0  0  0  0  0  0  0  0  0
    1.3863   -1.7213    0.0000 O   0  0  0  0  0  0  0  0  0  0  0  0
    3.4048   -2.9442    0.0000 C   0  0  0  0  0  0  0  0  0  0  0  0
    6.1857   -1.2690    0.0000 C   0  0  2  0  0  0  0  0  0  0  0  0
    1.9516  -12.1494    0.0000 Cl  0  0  0  0  0  0  0  0  0  0  0  0
    4.8288  -12.1451    0.0000 Cl  0  0  0  0  0  0  0  0  0  0  0  0
    5.4862   -8.4179    0.0000 C   0  0  0  0  0  0  0  0  0  0  0  0
    2.0898   -2.1527    0.0000 C   0  0  0  0  0  0  0  0  0  0  0  0
   -0.0503   -1.6836    0.0000 C   0  0  0  0  0  0  0  0  0  0  0  0
    7.5677   -2.0982    0.0000 C   0  0  0  0  0  0  0  0  0  0  0  0
    0.6324   -4.6235    0.0000 C   0  0  0  0  0  0  0  0  0  0  0  0
    6.8641   -0.8418    0.0000 C   0  0  0  0  0  0  0  0  0  0  0  0
    5.4862   -0.8418    0.0000 C   0  0  0  0  0  0  0  0  0  0  0  0
    7.5677   -1.2690    0.0000 C   0  0  0  0  0  0  0  0  0  0  0  0
    3.4048   -8.8367    0.0000 H   0  0  0  0  0  0  0  0  0  0  0  0
    6.8641   -1.6836    0.0000 H   0  0  0  0  0  0  0  0  0  0  0  0
    4.7911   -3.7860    0.0000 H   0  0  0  0  0  0  0  0  0  0  0  0
    4.1126   -2.5296    0.0000 H   0  0  0  0  0  0  0  0  0  0  0  0
    4.1126   -7.5677    0.0000 H   0  0  0  0  0  0  0  0  0  0  0  0
  2  1  1  0  0  0  0
  3  2  1  0  0  0  0
  4  1  1  0  0  0  0
  5 16  1  6  0  0  0
  6  1  1  0  0  0  0
  7  8  1  0  0  0  0
  8  6  2  0  0  0  0
  9  3  1  0  0  0  0
 10  2  1  0  0  0  0
  7 11  1  1  0  0  0
 12 11  1  0  0  0  0
 13  5  1  0  0  0  0
 14  4  1  0  0  0  0
 15 12  1  0  0  0  0
 16 20  1  0  0  0  0
 17 35  1  0  0  0  0
 18 40  1  0  0  0  0
 19 13  1  0  0  0  0
 20 14  1  0  0  0  0
 21 24  2  0  0  0  0
 22  5  1  0  0  0  0
 23 22  2  0  0  0  0
 24 44  1  0  0  0  0
 18 25  1  6  0  0  0
 26 10  1  0  0  0  0
 27 25  1  0  0  0  0
 28 10  2  0  0  0  0
 29  4  2  0  0  0  0
 30 28  1  0  0  0  0
 31 15  1  0  0  0  0
 32 15  2  0  0  0  0
 33 23  1  0  0  0  0
 34 20  1  0  0  0  0
 35 34  1  0  0  0  0
 36 12  2  0  0  0  0
 37 32  1  0  0  0  0
 38 31  2  0  0  0  0
 39 38  1  0  0  0  0
 40 41  1  0  0  0  0
 41 30  2  0  0  0  0
  2 42  1  6  0  0  0
 43 27  2  0  0  0  0
 44 35  1  0  0  0  0
 45 19  1  0  0  0  0
 46 37  1  0  0  0  0
 47 38  1  0  0  0  0
 48  8  1  0  0  0  0
 49 21  1  0  0  0  0
 50 27  1  0  0  0  0
 33 51  1  1  0  0  0
 40 52  1  6  0  0  0
 53 45  1  0  0  0  0
 45 54  1  1  0  0  0
 55 53  1  0  0  0  0
  3 56  1  6  0  0  0
 19 57  1  1  0  0  0
 20 58  1  6  0  0  0
 35 59  1  6  0  0  0
  1 60  1  1  0  0  0
  3  7  1  0  0  0  0
  9 26  1  0  0  0  0
  5 17  1  1  0  0  0
 18 21  1  0  0  0  0
 19 33  1  0  0  0  0
 39 37  2  0  0  0  0
M  END
>  <IDNUMBER>
F6170-0358

>  <Chemical_Name>
(1'R,2S,4'S,5S,6R,8'R,10'E,12'S,13'S,14'E,16'E,20'R,21'R,24'S)-12'-(acetyloxy)-6-[(2S)-butan-2-yl]-24'-hydroxy-5,11',13',22'-tetramethyl-2'-oxo-5,6-dihydro-3',7',19'-trioxaspiro[pyran-2,6'-tetracyclo[15.6.1.1?,?.0??,??]pentacosane]-10',14',16',22'-tetraen-21'-yl 3,5-dichlorobenzoate

>  <PriceCoeff>
7.00

>  <MW>
799.78

>  <Description>
solid

>  <FSP3>
0.56

>  <clogP>
9.18

>  <TPSA>
126.82

>  <Acceptor>
10

>  <Donor>
1

>  <RotBonds>
7

>  <HAC>
55

$$$$
F6170-0419
  Mrv2219 10102508112D          

 62 67  0  0  0  0            999 V2000
   -4.2314    1.5261    0.0000 C   0  0  2  0  0  0  0  0  0  0  0  0
   -4.9714    1.0868    0.0000 C   0  0  1  0  0  0  0  0  0  0  0  0
   -4.9714    0.2543    0.0000 C   0  0  1  0  0  0  0  0  0  0  0  0
   -4.2314    2.3739    0.0000 C   0  0  0  0  0  0  0  0  0  0  0  0
   -2.7978    4.8404    0.0000 C   0  0  2  0  0  0  0  0  0  0  0  0
   -3.5531    1.1099    0.0000 C   0  0  0  0  0  0  0  0  0  0  0  0
   -4.2314   -0.1387    0.0000 C   0  0  1  0  0  0  0  0  0  0  0  0
   -3.5531    0.2543    0.0000 C   0  0  0  0  0  0  0  0  0  0  0  0
   -5.7498   -0.0309    0.0000 O   0  0  0  0  0  0  0  0  0  0  0  0
   -5.7498    1.3102    0.0000 C   0  0  0  0  0  0  0  0  0  0  0  0
   -2.7978    5.6959    0.0000 O   0  0  0  0  0  0  0  0  0  0  0  0
   -3.5531    2.7594    0.0000 O   0  0  0  0  0  0  0  0  0  0  0  0
   -2.7978    4.0002    0.0000 C   0  0  0  0  0  0  0  0  0  0  0  0
   -3.5300    5.2720    0.0000 O   0  0  0  0  0  0  0  0  0  0  0  0
   -7.1449    4.8942    0.0000 C   0  0  1  0  0  0  0  0  0  0  0  0
   -2.0733    6.0428    0.0000 C   0  0  1  0  0  0  0  0  0  0  0  0
   -3.5531    3.5994    0.0000 C   0  0  2  0  0  0  0  0  0  0  0  0
   -6.3896    5.3182    0.0000 C   0  0  0  0  0  0  0  0  0  0  0  0
   -2.1195    4.4858    0.0000 C   0  0  0  0  0  0  0  0  0  0  0  0
   -4.2083   -0.9789    0.0000 O   0  0  0  0  0  0  0  0  0  0  0  0
   -3.4837   -1.3720    0.0000 C   0  0  0  0  0  0  0  0  0  0  0  0
   -1.3796    4.8711    0.0000 C   0  0  0  0  0  0  0  0  0  0  0  0
   -5.6804    4.8942    0.0000 C   0  0  0  0  0  0  0  0  0  0  0  0
   -7.8463    5.3182    0.0000 O   0  0  0  0  0  0  0  0  0  0  0  0
   -6.2431    0.6937    0.0000 C   0  0  0  0  0  0  0  0  0  0  0  0
   -2.7747   -0.9327    0.0000 C   0  0  0  0  0  0  0  0  0  0  0  0
   -7.8308    6.1275    0.0000 C   0  0  0  0  0  0  0  0  0  0  0  0
   -5.7498    2.1735    0.0000 C   0  0  0  0  0  0  0  0  0  0  0  0
   -2.0964   -1.2717    0.0000 C   0  0  0  0  0  0  0  0  0  0  0  0
   -4.9714    2.7901    0.0000 O   0  0  0  0  0  0  0  0  0  0  0  0
   -6.3125    2.5744    0.0000 C   0  0  0  0  0  0  0  0  0  0  0  0
   -1.4027    5.6266    0.0000 C   0  0  2  0  0  0  0  0  0  0  0  0
   -4.2314    4.0002    0.0000 C   0  0  0  0  0  0  0  0  0  0  0  0
   -4.2314    4.8789    0.0000 C   0  0  1  0  0  0  0  0  0  0  0  0
   -7.1449    4.0002    0.0000 C   0  0  2  0  0  0  0  0  0  0  0  0
   -6.3125    3.4606    0.0000 C   0  0  0  0  0  0  0  0  0  0  0  0
   -4.9867    1.9808    0.0000 O   0  0  0  0  0  0  0  0  0  0  0  0
   -3.4606   -2.1966    0.0000 O   0  0  0  0  0  0  0  0  0  0  0  0
   -7.1140    6.5359    0.0000 O   0  0  0  0  0  0  0  0  0  0  0  0
   -4.9560    5.3182    0.0000 C   0  0  0  0  0  0  0  0  0  0  0  0
   -1.4567   -0.8555    0.0000 C   0  0  0  0  0  0  0  0  0  0  0  0
   -2.3970    6.7980    0.0000 C   0  0  2  0  0  0  0  0  0  0  0  0
   -0.1928   -0.0231    0.0000 C   0  0  0  0  0  0  0  0  0  0  0  0
   -2.8363   -0.1772    0.0000 C   0  0  0  0  0  0  0  0  0  0  0  0
   -1.5030   -0.1003    0.0000 C   0  0  0  0  0  0  0  0  0  0  0  0
   -0.7862   -1.2024    0.0000 C   0  0  0  0  0  0  0  0  0  0  0  0
   -0.1541   -0.7862    0.0000 C   0  0  0  0  0  0  0  0  0  0  0  0
   -0.8709    0.3159    0.0000 C   0  0  0  0  0  0  0  0  0  0  0  0
    0.4471    0.4009    0.0000 O   0  0  0  0  0  0  0  0  0  0  0  0
   -6.4050    6.2200    0.0000 C   0  0  0  0  0  0  0  0  0  0  0  0
   -8.5322    6.5515    0.0000 C   0  0  0  0  0  0  0  0  0  0  0  0
   -0.6783    6.0119    0.0000 C   0  0  0  0  0  0  0  0  0  0  0  0
   -7.8463    3.5994    0.0000 C   0  0  0  0  0  0  0  0  0  0  0  0
   -3.2063    6.9290    0.0000 C   0  0  0  0  0  0  0  0  0  0  0  0
   -1.7882    7.4840    0.0000 C   0  0  0  0  0  0  0  0  0  0  0  0
    1.1177    0.0616    0.0000 C   0  0  0  0  0  0  0  0  0  0  0  0
   -3.3528    7.7538    0.0000 C   0  0  0  0  0  0  0  0  0  0  0  0
   -4.9867   -0.6628    0.0000 H   0  0  0  0  0  0  0  0  0  0  0  0
   -3.5300    1.9423    0.0000 H   0  0  0  0  0  0  0  0  0  0  0  0
   -2.8826    3.1369    0.0000 H   0  0  0  0  0  0  0  0  0  0  0  0
   -4.2083    5.8885    0.0000 H   0  0  0  0  0  0  0  0  0  0  0  0
   -1.4490    6.5822    0.0000 H   0  0  0  0  0  0  0  0  0  0  0  0
  2  1  1  0  0  0  0
  3  2  1  0  0  0  0
  4  1  1  0  0  0  0
  5 13  1  0  0  0  0
  6  1  1  0  0  0  0
  7  8  1  0  0  0  0
  8  6  2  0  0  0  0
  9  3  1  0  0  0  0
 10  2  1  0  0  0  0
 11  5  1  0  0  0  0
 12  4  1  0  0  0  0
 13 17  1  0  0  0  0
 14 34  1  0  0  0  0
 15 35  1  0  0  0  0
 16 11  1  0  0  0  0
 17 12  1  0  0  0  0
 18 23  2  0  0  0  0
  5 19  1  1  0  0  0
  7 20  1  1  0  0  0
 21 20  1  0  0  0  0
 22 19  2  0  0  0  0
 23 40  1  0  0  0  0
 15 24  1  6  0  0  0
 25 10  1  0  0  0  0
 26 21  1  0  0  0  0
 27 24  1  0  0  0  0
 28 10  2  0  0  0  0
 29 26  2  0  0  0  0
 30  4  2  0  0  0  0
 31 28  1  0  0  0  0
 32 22  1  0  0  0  0
 33 17  1  0  0  0  0
 34 33  1  0  0  0  0
 35 36  1  0  0  0  0
 36 31  2  0  0  0  0
  2 37  1  6  0  0  0
 38 21  2  0  0  0  0
 39 27  2  0  0  0  0
 40 34  1  0  0  0  0
 41 29  1  0  0  0  0
 42 16  1  0  0  0  0
 43 47  2  0  0  0  0
 44  8  1  0  0  0  0
 45 41  1  0  0  0  0
 46 41  2  0  0  0  0
 47 46  1  0  0  0  0
 48 45  2  0  0  0  0
 49 43  1  0  0  0  0
 50 18  1  0  0  0  0
 51 27  1  0  0  0  0
 32 52  1  1  0  0  0
 35 53  1  6  0  0  0
 54 42  1  0  0  0  0
 42 55  1  6  0  0  0
 56 49  1  0  0  0  0
 57 54  1  0  0  0  0
  3 58  1  6  0  0  0
  1 59  1  1  0  0  0
 17 60  1  6  0  0  0
 34 61  1  6  0  0  0
 16 62  1  1  0  0  0
  3  7  1  0  0  0  0
  9 25  1  0  0  0  0
  5 14  1  0  0  0  0
 15 18  1  0  0  0  0
 16 32  1  0  0  0  0
 48 43  1  0  0  0  0
M  END
>  <IDNUMBER>
F6170-0419

>  <Chemical_Name>
(1'R,2S,4'S,5S,6R,8'R,10'E,12'S,13'S,14'E,16'E,20'R,21'R,24'S)-12'-(acetyloxy)-6-[(2S)-butan-2-yl]-24'-hydroxy-5,11',13',22'-tetramethyl-2'-oxo-5,6-dihydro-3',7',19'-trioxaspiro[pyran-2,6'-tetracyclo[15.6.1.1?,?.0??,??]pentacosane]-10',14',16',22'-tetraen-21'-yl (2E)-3-(4-methoxyphenyl)prop-2-enoate

>  <PriceCoeff>
7.00

>  <MW>
786.96

>  <Description>
solid

>  <FSP3>
0.54

>  <clogP>
8.12

>  <TPSA>
136.05

>  <Acceptor>
11

>  <Donor>
1

>  <RotBonds>
9

>  <HAC>
57

$$$$
F6170-0420
  Mrv2219 10102508112D          

 61 66  0  0  0  0            999 V2000
    8.3328   -0.9412    0.0000 C   0  0  2  0  0  0  0  0  0  0  0  0
    7.5954   -1.3908    0.0000 C   0  0  1  0  0  0  0  0  0  0  0  0
    7.5954   -2.2181    0.0000 C   0  0  1  0  0  0  0  0  0  0  0  0
    8.3268   -0.1079    0.0000 C   0  0  0  0  0  0  0  0  0  0  0  0
    9.7715    2.3679    0.0000 C   0  0  2  0  0  0  0  0  0  0  0  0
    9.0162   -1.3549    0.0000 C   0  0  0  0  0  0  0  0  0  0  0  0
    8.3328   -2.6138    0.0000 C   0  0  1  0  0  0  0  0  0  0  0  0
    9.0162   -2.2181    0.0000 C   0  0  0  0  0  0  0  0  0  0  0  0
    6.8161   -2.4998    0.0000 O   0  0  0  0  0  0  0  0  0  0  0  0
    6.8161   -1.1690    0.0000 C   0  0  0  0  0  0  0  0  0  0  0  0
    9.7715    3.2132    0.0000 O   0  0  0  0  0  0  0  0  0  0  0  0
    9.0162    0.2817    0.0000 O   0  0  0  0  0  0  0  0  0  0  0  0
    9.7715    1.5226    0.0000 C   0  0  0  0  0  0  0  0  0  0  0  0
    9.0342    2.7995    0.0000 O   0  0  0  0  0  0  0  0  0  0  0  0
    5.4373    2.4218    0.0000 C   0  0  1  0  0  0  0  0  0  0  0  0
   10.4909    3.5728    0.0000 C   0  0  1  0  0  0  0  0  0  0  0  0
    9.0162    1.1270    0.0000 C   0  0  2  0  0  0  0  0  0  0  0  0
    6.1747    2.8535    0.0000 C   0  0  0  0  0  0  0  0  0  0  0  0
   10.4370    2.0082    0.0000 C   0  0  0  0  0  0  0  0  0  0  0  0
    8.3508   -3.4530    0.0000 O   0  0  0  0  0  0  0  0  0  0  0  0
   10.4669   -3.7468    0.0000 C   0  0  0  0  0  0  0  0  0  0  0  0
    9.0821   -3.8487    0.0000 C   0  0  0  0  0  0  0  0  0  0  0  0
   11.1743    2.3919    0.0000 C   0  0  0  0  0  0  0  0  0  0  0  0
    6.8940    2.4218    0.0000 C   0  0  0  0  0  0  0  0  0  0  0  0
    4.7299    2.8535    0.0000 O   0  0  0  0  0  0  0  0  0  0  0  0
    9.7895   -3.4170    0.0000 C   0  0  0  0  0  0  0  0  0  0  0  0
    6.3305   -1.7685    0.0000 C   0  0  0  0  0  0  0  0  0  0  0  0
    4.7359    3.6807    0.0000 C   0  0  0  0  0  0  0  0  0  0  0  0
    6.8161   -0.3057    0.0000 C   0  0  0  0  0  0  0  0  0  0  0  0
    7.5954    0.3177    0.0000 O   0  0  0  0  0  0  0  0  0  0  0  0
    6.2586    0.1019    0.0000 C   0  0  0  0  0  0  0  0  0  0  0  0
   11.1563    3.1473    0.0000 C   0  0  2  0  0  0  0  0  0  0  0  0
    8.3328    1.5287    0.0000 C   0  0  0  0  0  0  0  0  0  0  0  0
    8.3328    2.4039    0.0000 C   0  0  1  0  0  0  0  0  0  0  0  0
   11.1024   -3.3331    0.0000 C   0  0  0  0  0  0  0  0  0  0  0  0
    5.4373    1.5226    0.0000 C   0  0  2  0  0  0  0  0  0  0  0  0
    6.2586    0.9831    0.0000 C   0  0  0  0  0  0  0  0  0  0  0  0
    7.5775   -0.4916    0.0000 O   0  0  0  0  0  0  0  0  0  0  0  0
    9.1061   -4.6640    0.0000 O   0  0  0  0  0  0  0  0  0  0  0  0
    5.4553    4.0764    0.0000 O   0  0  0  0  0  0  0  0  0  0  0  0
   11.7797   -3.6748    0.0000 C   0  0  0  0  0  0  0  0  0  0  0  0
    7.6254    2.8535    0.0000 C   0  0  0  0  0  0  0  0  0  0  0  0
   10.1672    4.3282    0.0000 C   0  0  2  0  0  0  0  0  0  0  0  0
    9.7176   -2.6497    0.0000 C   0  0  0  0  0  0  0  0  0  0  0  0
    6.1567    3.7527    0.0000 C   0  0  0  0  0  0  0  0  0  0  0  0
    4.0345    4.0944    0.0000 C   0  0  0  0  0  0  0  0  0  0  0  0
   11.0484   -2.5778    0.0000 C   0  0  0  0  0  0  0  0  0  0  0  0
   11.8157   -4.4421    0.0000 C   0  0  0  0  0  0  0  0  0  0  0  0
   11.8757    3.5369    0.0000 C   0  0  0  0  0  0  0  0  0  0  0  0
   12.4152   -3.2612    0.0000 C   0  0  0  0  0  0  0  0  0  0  0  0
    4.7299    1.1270    0.0000 C   0  0  0  0  0  0  0  0  0  0  0  0
    9.3519    4.4541    0.0000 C   0  0  0  0  0  0  0  0  0  0  0  0
   10.7607    5.0116    0.0000 C   0  0  0  0  0  0  0  0  0  0  0  0
    9.2080    5.2755    0.0000 C   0  0  0  0  0  0  0  0  0  0  0  0
   12.3613   -2.4879    0.0000 C   0  0  0  0  0  0  0  0  0  0  0  0
   11.6898   -2.1581    0.0000 C   0  0  0  0  0  0  0  0  0  0  0  0
   11.1143    4.1124    0.0000 H   0  0  0  0  0  0  0  0  0  0  0  0
    7.5775   -3.1353    0.0000 H   0  0  0  0  0  0  0  0  0  0  0  0
    9.0342   -0.5276    0.0000 H   0  0  0  0  0  0  0  0  0  0  0  0
    9.6816    0.6594    0.0000 H   0  0  0  0  0  0  0  0  0  0  0  0
    8.3508    3.4110    0.0000 H   0  0  0  0  0  0  0  0  0  0  0  0
  2  1  1  0  0  0  0
  3  2  1  0  0  0  0
  4  1  1  0  0  0  0
  5 13  1  0  0  0  0
  6  1  1  0  0  0  0
  7  8  1  0  0  0  0
  8  6  2  0  0  0  0
  9  3  1  0  0  0  0
 10  2  1  0  0  0  0
 11  5  1  0  0  0  0
 12  4  1  0  0  0  0
 13 17  1  0  0  0  0
 14 34  1  0  0  0  0
 15 36  1  0  0  0  0
 16 11  1  0  0  0  0
 17 12  1  0  0  0  0
 18 24  2  0  0  0  0
  5 19  1  1  0  0  0
  7 20  1  1  0  0  0
 21 26  2  0  0  0  0
 22 20  1  0  0  0  0
 23 19  2  0  0  0  0
 24 42  1  0  0  0  0
 15 25  1  6  0  0  0
 26 22  1  0  0  0  0
 27 10  1  0  0  0  0
 28 25  1  0  0  0  0
 29 10  2  0  0  0  0
 30  4  2  0  0  0  0
 31 29  1  0  0  0  0
 32 23  1  0  0  0  0
 33 17  1  0  0  0  0
 34 33  1  0  0  0  0
 35 21  1  0  0  0  0
 36 37  1  0  0  0  0
 37 31  2  0  0  0  0
  2 38  1  6  0  0  0
 39 22  2  0  0  0  0
 40 28  2  0  0  0  0
 41 35  2  0  0  0  0
 42 34  1  0  0  0  0
 43 16  1  0  0  0  0
 44  8  1  0  0  0  0
 45 18  1  0  0  0  0
 46 28  1  0  0  0  0
 47 35  1  0  0  0  0
 48 41  1  0  0  0  0
 32 49  1  1  0  0  0
 50 41  1  0  0  0  0
 36 51  1  6  0  0  0
 52 43  1  0  0  0  0
 43 53  1  6  0  0  0
 54 52  1  0  0  0  0
 55 56  1  0  0  0  0
 56 47  2  0  0  0  0
 16 57  1  1  0  0  0
  3 58  1  6  0  0  0
  1 59  1  1  0  0  0
 17 60  1  6  0  0  0
 34 61  1  6  0  0  0
  3  7  1  0  0  0  0
  9 27  1  0  0  0  0
  5 14  1  0  0  0  0
 15 18  1  0  0  0  0
 16 32  1  0  0  0  0
 50 55  2  0  0  0  0
M  END
>  <IDNUMBER>
F6170-0420

>  <Chemical_Name>
(1'R,2S,4'S,5S,6R,8'R,10'E,12'S,13'S,14'E,16'E,20'R,21'R,24'S)-12'-(acetyloxy)-6-[(2S)-butan-2-yl]-24'-hydroxy-5,11',13',22'-tetramethyl-2'-oxo-5,6-dihydro-3',7',19'-trioxaspiro[pyran-2,6'-tetracyclo[15.6.1.1?,?.0??,??]pentacosane]-10',14',16',22'-tetraen-21'-yl (2E)-3-(2-methylphenyl)prop-2-enoate

>  <PriceCoeff>
7.00

>  <MW>
770.96

>  <Description>
solid

>  <FSP3>
0.54

>  <clogP>
8.70

>  <TPSA>
126.82

>  <Acceptor>
10

>  <Donor>
1

>  <RotBonds>
8

>  <HAC>
56

$$$$
F6170-0423
  Mrv2219 10102508112D          

 61 66  0  0  0  0            999 V2000
    8.6190   -0.9430    0.0000 C   0  0  2  0  0  0  0  0  0  0  0  0
    7.8803   -1.4055    0.0000 C   0  0  1  0  0  0  0  0  0  0  0  0
    7.8803   -2.2224    0.0000 C   0  0  1  0  0  0  0  0  0  0  0  0
    8.6190   -0.0961    0.0000 C   0  0  0  0  0  0  0  0  0  0  0  0
   10.0605    2.3724    0.0000 C   0  0  2  0  0  0  0  0  0  0  0  0
    9.3037   -1.3575    0.0000 C   0  0  0  0  0  0  0  0  0  0  0  0
    8.6190   -2.6188    0.0000 C   0  0  1  0  0  0  0  0  0  0  0  0
    9.3037   -2.2224    0.0000 C   0  0  0  0  0  0  0  0  0  0  0  0
    7.1054   -2.5107    0.0000 O   0  0  0  0  0  0  0  0  0  0  0  0
    7.1054   -1.1712    0.0000 C   0  0  0  0  0  0  0  0  0  0  0  0
   10.0605    3.2193    0.0000 O   0  0  0  0  0  0  0  0  0  0  0  0
    9.3037    0.2822    0.0000 O   0  0  0  0  0  0  0  0  0  0  0  0
   10.0605    1.5316    0.0000 C   0  0  0  0  0  0  0  0  0  0  0  0
    9.3218    2.8049    0.0000 O   0  0  0  0  0  0  0  0  0  0  0  0
    5.7180    2.4265    0.0000 C   0  0  1  0  0  0  0  0  0  0  0  0
   10.7813    3.5797    0.0000 C   0  0  1  0  0  0  0  0  0  0  0  0
    9.3037    1.1172    0.0000 C   0  0  2  0  0  0  0  0  0  0  0  0
    6.4687    2.8589    0.0000 C   0  0  0  0  0  0  0  0  0  0  0  0
   10.7272    2.0120    0.0000 C   0  0  0  0  0  0  0  0  0  0  0  0
    8.6490   -3.4596    0.0000 O   0  0  0  0  0  0  0  0  0  0  0  0
   10.7572   -3.7540    0.0000 C   0  0  0  0  0  0  0  0  0  0  0  0
    9.3698   -3.8560    0.0000 C   0  0  0  0  0  0  0  0  0  0  0  0
   11.4599    2.3965    0.0000 C   0  0  0  0  0  0  0  0  0  0  0  0
    7.1775    2.4265    0.0000 C   0  0  0  0  0  0  0  0  0  0  0  0
    5.0333    2.8589    0.0000 O   0  0  0  0  0  0  0  0  0  0  0  0
   10.0785   -3.4116    0.0000 C   0  0  0  0  0  0  0  0  0  0  0  0
    6.6189   -1.7719    0.0000 C   0  0  0  0  0  0  0  0  0  0  0  0
    5.0513    3.6698    0.0000 C   0  0  0  0  0  0  0  0  0  0  0  0
    7.1054   -0.3124    0.0000 C   0  0  0  0  0  0  0  0  0  0  0  0
    7.8803    0.3183    0.0000 O   0  0  0  0  0  0  0  0  0  0  0  0
    6.5469    0.1021    0.0000 C   0  0  0  0  0  0  0  0  0  0  0  0
   11.4419    3.1533    0.0000 C   0  0  2  0  0  0  0  0  0  0  0  0
    8.6190    1.5316    0.0000 C   0  0  0  0  0  0  0  0  0  0  0  0
    8.6190    2.4085    0.0000 C   0  0  1  0  0  0  0  0  0  0  0  0
   11.3879   -3.3395    0.0000 C   0  0  0  0  0  0  0  0  0  0  0  0
    5.7180    1.5316    0.0000 C   0  0  2  0  0  0  0  0  0  0  0  0
    6.5469    0.9910    0.0000 C   0  0  0  0  0  0  0  0  0  0  0  0
    7.8803   -0.4926    0.0000 O   0  0  0  0  0  0  0  0  0  0  0  0
    9.3938   -4.6729    0.0000 O   0  0  0  0  0  0  0  0  0  0  0  0
    5.7660    4.0482    0.0000 O   0  0  0  0  0  0  0  0  0  0  0  0
   12.0246   -3.7540    0.0000 C   0  0  0  0  0  0  0  0  0  0  0  0
    7.9163    2.8589    0.0000 C   0  0  0  0  0  0  0  0  0  0  0  0
   10.4569    4.3365    0.0000 C   0  0  2  0  0  0  0  0  0  0  0  0
   12.0005   -4.5288    0.0000 Cl  0  0  0  0  0  0  0  0  0  0  0  0
   10.0065   -2.6548    0.0000 C   0  0  0  0  0  0  0  0  0  0  0  0
    6.4568    3.7599    0.0000 C   0  0  0  0  0  0  0  0  0  0  0  0
    4.3605    4.0903    0.0000 C   0  0  0  0  0  0  0  0  0  0  0  0
   11.4119   -2.5647    0.0000 C   0  0  0  0  0  0  0  0  0  0  0  0
   12.7093   -3.3936    0.0000 C   0  0  0  0  0  0  0  0  0  0  0  0
   12.1687    3.5436    0.0000 C   0  0  0  0  0  0  0  0  0  0  0  0
    5.0333    1.1172    0.0000 C   0  0  0  0  0  0  0  0  0  0  0  0
    9.6400    4.4626    0.0000 C   0  0  0  0  0  0  0  0  0  0  0  0
   11.0516    5.0212    0.0000 C   0  0  0  0  0  0  0  0  0  0  0  0
    9.4959    5.2856    0.0000 C   0  0  0  0  0  0  0  0  0  0  0  0
   12.7393   -2.6188    0.0000 C   0  0  0  0  0  0  0  0  0  0  0  0
   12.0966   -2.2043    0.0000 C   0  0  0  0  0  0  0  0  0  0  0  0
   11.3939    4.1263    0.0000 H   0  0  0  0  0  0  0  0  0  0  0  0
    7.8803   -3.1413    0.0000 H   0  0  0  0  0  0  0  0  0  0  0  0
    9.3218   -0.5286    0.0000 H   0  0  0  0  0  0  0  0  0  0  0  0
    9.9704    0.6606    0.0000 H   0  0  0  0  0  0  0  0  0  0  0  0
    8.6370    3.4175    0.0000 H   0  0  0  0  0  0  0  0  0  0  0  0
  2  1  1  0  0  0  0
  3  2  1  0  0  0  0
  4  1  1  0  0  0  0
  5 13  1  0  0  0  0
  6  1  1  0  0  0  0
  7  8  1  0  0  0  0
  8  6  2  0  0  0  0
  9  3  1  0  0  0  0
 10  2  1  0  0  0  0
 11  5  1  0  0  0  0
 12  4  1  0  0  0  0
 13 17  1  0  0  0  0
 14 34  1  0  0  0  0
 15 36  1  0  0  0  0
 16 11  1  0  0  0  0
 17 12  1  0  0  0  0
 18 24  2  0  0  0  0
  5 19  1  1  0  0  0
  7 20  1  1  0  0  0
 21 26  2  0  0  0  0
 22 20  1  0  0  0  0
 23 19  2  0  0  0  0
 24 42  1  0  0  0  0
 15 25  1  6  0  0  0
 26 22  1  0  0  0  0
 27 10  1  0  0  0  0
 28 25  1  0  0  0  0
 29 10  2  0  0  0  0
 30  4  2  0  0  0  0
 31 29  1  0  0  0  0
 32 23  1  0  0  0  0
 33 17  1  0  0  0  0
 34 33  1  0  0  0  0
 35 21  1  0  0  0  0
 36 37  1  0  0  0  0
 37 31  2  0  0  0  0
  2 38  1  6  0  0  0
 39 22  2  0  0  0  0
 40 28  2  0  0  0  0
 41 35  1  0  0  0  0
 42 34  1  0  0  0  0
 43 16  1  0  0  0  0
 44 41  1  0  0  0  0
 45  8  1  0  0  0  0
 46 18  1  0  0  0  0
 47 28  1  0  0  0  0
 48 35  2  0  0  0  0
 49 41  2  0  0  0  0
 32 50  1  1  0  0  0
 36 51  1  6  0  0  0
 52 43  1  0  0  0  0
 43 53  1  6  0  0  0
 54 52  1  0  0  0  0
 55 56  2  0  0  0  0
 56 48  1  0  0  0  0
 16 57  1  1  0  0  0
  3 58  1  6  0  0  0
  1 59  1  1  0  0  0
 17 60  1  6  0  0  0
 34 61  1  6  0  0  0
  3  7  1  0  0  0  0
  9 27  1  0  0  0  0
  5 14  1  0  0  0  0
 15 18  1  0  0  0  0
 16 32  1  0  0  0  0
 49 55  1  0  0  0  0
M  END
>  <IDNUMBER>
F6170-0423

>  <Chemical_Name>
(1'R,2S,4'S,5S,6R,8'R,10'E,12'S,13'S,14'E,16'E,20'R,21'R,24'S)-12'-(acetyloxy)-6-[(2S)-butan-2-yl]-24'-hydroxy-5,11',13',22'-tetramethyl-2'-oxo-5,6-dihydro-3',7',19'-trioxaspiro[pyran-2,6'-tetracyclo[15.6.1.1?,?.0??,??]pentacosane]-10',14',16',22'-tetraen-21'-yl (2E)-3-(2-chlorophenyl)prop-2-enoate

>  <PriceCoeff>
7.00

>  <MW>
791.38

>  <Description>
solid

>  <FSP3>
0.53

>  <clogP>
8.91

>  <TPSA>
126.82

>  <Acceptor>
10

>  <Donor>
1

>  <RotBonds>
8

>  <HAC>
56

$$$$
F6184-0072
  Mrv2219 10102508112D          

 21 23  0  0  0  0            999 V2000
   -5.2942    2.5761    0.0000 N   0  0  0  0  0  0  0  0  0  0  0  0
   -4.5803    3.8079    0.0000 C   0  0  0  0  0  0  0  0  0  0  0  0
   -4.5803    2.9937    0.0000 C   0  0  0  0  0  0  0  0  0  0  0  0
   -5.3736    1.7494    0.0000 C   0  0  0  0  0  0  0  0  0  0  0  0
   -6.0417    2.9060    0.0000 C   0  0  0  0  0  0  0  0  0  0  0  0
   -3.8663    4.2212    0.0000 N   0  0  0  0  0  0  0  0  0  0  0  0
   -1.7244    5.4530    0.0000 C   0  0  0  0  0  0  0  0  0  0  0  0
   -1.6367    6.2797    0.0000 S   0  0  0  0  0  0  0  0  0  0  0  0
   -2.4383    5.0396    0.0000 C   0  0  0  0  0  0  0  0  0  0  0  0
   -3.1523    3.8162    0.0000 C   0  0  0  0  0  0  0  0  0  0  0  0
   -3.8663    5.0396    0.0000 C   0  0  0  0  0  0  0  0  0  0  0  0
   -5.3068    4.2212    0.0000 O   0  0  0  0  0  0  0  0  0  0  0  0
   -6.5886    2.2880    0.0000 C   0  0  0  0  0  0  0  0  0  0  0  0
   -6.1795    1.5741    0.0000 C   0  0  0  0  0  0  0  0  0  0  0  0
   -0.9728    5.1148    0.0000 C   0  0  0  0  0  0  0  0  0  0  0  0
   -6.2171    3.7160    0.0000 O   0  0  0  0  0  0  0  0  0  0  0  0
   -4.7556    1.1858    0.0000 O   0  0  0  0  0  0  0  0  0  0  0  0
   -0.8267    6.4551    0.0000 C   0  0  0  0  0  0  0  0  0  0  0  0
   -0.4091    5.7285    0.0000 C   0  0  0  0  0  0  0  0  0  0  0  0
   -3.1523    5.4530    0.0000 C   0  0  0  0  0  0  0  0  0  0  0  0
   -2.4383    4.2212    0.0000 C   0  0  0  0  0  0  0  0  0  0  0  0
  2  3  1  0  0  0  0
  3  1  1  0  0  0  0
  4  1  1  0  0  0  0
  5  1  1  0  0  0  0
  6  2  1  0  0  0  0
  7  9  1  0  0  0  0
  8  7  1  0  0  0  0
  9 20  1  0  0  0  0
 10  6  1  0  0  0  0
 11  6  1  0  0  0  0
 12  2  2  0  0  0  0
 13  5  1  0  0  0  0
 14  4  1  0  0  0  0
 15  7  2  0  0  0  0
 16  5  2  0  0  0  0
 17  4  2  0  0  0  0
 18  8  1  0  0  0  0
 19 15  1  0  0  0  0
 20 11  1  0  0  0  0
 21 10  1  0  0  0  0
 14 13  1  0  0  0  0
 21  9  1  0  0  0  0
 18 19  2  0  0  0  0
M  END
>  <IDNUMBER>
F6184-0072

>  <Chemical_Name>
1-{2-oxo-2-[4-(thiophen-2-yl)piperidin-1-yl]ethyl}pyrrolidine-2,5-dione

>  <PriceCoeff>
1.50

>  <CAS>
1396809-08-7

>  <MW>
306.38

>  <Description>
solid

>  <FSP3>
0.53

>  <clogP>
1.15

>  <TPSA>
85.93

>  <Acceptor>
3

>  <Donor>
0

>  <RotBonds>
4

>  <HAC>
21

>  <Collection>
Advanced

>  <PPDS>
+

$$$$
F6188-0566
  Mrv2219 10102508112D          

 25 27  0  0  0  0            999 V2000
   -5.2833    2.5708    0.0000 N   0  0  0  0  0  0  0  0  0  0  0  0
   -5.3625    1.7458    0.0000 C   0  0  0  0  0  0  0  0  0  0  0  0
   -6.0292    2.9000    0.0000 C   0  0  0  0  0  0  0  0  0  0  0  0
   -4.5708    2.9875    0.0000 C   0  0  0  0  0  0  0  0  0  0  0  0
   -4.5708    3.8000    0.0000 C   0  0  0  0  0  0  0  0  0  0  0  0
   -3.1458    5.4500    0.0000 C   0  0  0  0  0  0  0  0  0  0  0  0
   -2.4333    5.0417    0.0000 S   0  0  0  0  0  0  0  0  0  0  0  0
   -3.8583    4.2125    0.0000 N   0  0  0  0  0  0  0  0  0  0  0  0
   -6.1667    1.5708    0.0000 C   0  0  0  0  0  0  0  0  0  0  0  0
   -6.5750    2.2833    0.0000 C   0  0  0  0  0  0  0  0  0  0  0  0
   -4.7458    1.1833    0.0000 O   0  0  0  0  0  0  0  0  0  0  0  0
   -6.2042    3.7083    0.0000 O   0  0  0  0  0  0  0  0  0  0  0  0
   -5.2958    4.2125    0.0000 O   0  0  0  0  0  0  0  0  0  0  0  0
   -3.1458    7.1042    0.0000 O   0  0  0  0  0  0  0  0  0  0  0  0
   -3.8583    5.0292    0.0000 C   0  0  0  0  0  0  0  0  0  0  0  0
   -2.4333    5.8667    0.0000 C   0  0  0  0  0  0  0  0  0  0  0  0
   -3.8583    5.8667    0.0000 C   0  0  0  0  0  0  0  0  0  0  0  0
   -1.7208    5.4542    0.0000 C   0  0  0  0  0  0  0  0  0  0  0  0
   -2.4333    6.6917    0.0000 C   0  0  0  0  0  0  0  0  0  0  0  0
   -3.8583    6.6917    0.0000 C   0  0  0  0  0  0  0  0  0  0  0  0
   -1.0000    5.0417    0.0000 C   0  0  0  0  0  0  0  0  0  0  0  0
   -1.7208    6.2792    0.0000 C   0  0  0  0  0  0  0  0  0  0  0  0
   -0.2833    5.4625    0.0000 C   0  0  0  0  0  0  0  0  0  0  0  0
   -1.0000    6.7042    0.0000 C   0  0  0  0  0  0  0  0  0  0  0  0
   -0.2833    6.2792    0.0000 C   0  0  0  0  0  0  0  0  0  0  0  0
  2  1  1  0  0  0  0
  3  1  1  0  0  0  0
  4  1  1  0  0  0  0
  5  4  1  0  0  0  0
  6 15  1  0  0  0  0
  7  6  1  0  0  0  0
  8  5  1  0  0  0  0
  9  2  1  0  0  0  0
 10  3  1  0  0  0  0
 11  2  2  0  0  0  0
 12  3  2  0  0  0  0
 13  5  2  0  0  0  0
 14 20  1  0  0  0  0
 15  8  1  0  0  0  0
 16  6  1  0  0  0  0
 17  6  1  0  0  0  0
 18  7  1  0  0  0  0
 19 16  1  0  0  0  0
 20 17  1  0  0  0  0
 21 18  2  0  0  0  0
 22 18  1  0  0  0  0
 23 21  1  0  0  0  0
 24 22  2  0  0  0  0
 25 24  1  0  0  0  0
 10  9  1  0  0  0  0
 19 14  1  0  0  0  0
 23 25  2  0  0  0  0
M  END
>  <IDNUMBER>
F6188-0566

>  <Chemical_Name>
2-(2,5-dioxopyrrolidin-1-yl)-N-{[4-(phenylsulfanyl)oxan-4-yl]methyl}acetamide

>  <PriceCoeff>
1.00

>  <CAS>
1797726-86-3

>  <MW>
362.44

>  <Description>
solid

>  <FSP3>
0.50

>  <clogP>
1.08

>  <TPSA>
101.01

>  <Acceptor>
4

>  <Donor>
1

>  <RotBonds>
6

>  <HAC>
25

>  <Collection>
General

>  <PPDS>
+

$$$$
F6195-0976
  Mrv2219 10102508112D          

 28 31  0  0  0  0            999 V2000
   -4.5803    3.8079    0.0000 S   0  0  0  0  0  0  0  0  0  0  0  0
   -1.1607    4.6513    0.0000 C   0  0  0  0  0  0  0  0  0  0  0  0
   -2.4383    4.2212    0.0000 C   0  0  0  0  0  0  0  0  0  0  0  0
   -6.7181    3.3653    0.0000 N   0  0  0  0  0  0  0  0  0  0  0  0
   -3.8663    4.2212    0.0000 N   0  0  0  0  0  0  0  0  0  0  0  0
   -1.6492    5.3152    0.0000 N   0  0  0  0  0  0  0  0  0  0  0  0
   -1.6409    3.9790    0.0000 S   0  0  0  0  0  0  0  0  0  0  0  0
   -0.3257    4.6513    0.0000 N   0  0  0  0  0  0  0  0  0  0  0  0
   -2.4426    5.0521    0.0000 C   0  0  0  0  0  0  0  0  0  0  0  0
    0.0877    5.3653    0.0000 C   0  0  0  0  0  0  0  0  0  0  0  0
   -3.1648    3.8162    0.0000 C   0  0  0  0  0  0  0  0  0  0  0  0
   -5.2942    3.3903    0.0000 C   0  0  0  0  0  0  0  0  0  0  0  0
   -6.7056    2.5386    0.0000 C   0  0  0  0  0  0  0  0  0  0  0  0
   -7.4446    3.7661    0.0000 C   0  0  0  0  0  0  0  0  0  0  0  0
    0.9186    5.3778    0.0000 C   0  0  0  0  0  0  0  0  0  0  0  0
   -6.0124    3.7911    0.0000 C   0  0  0  0  0  0  0  0  0  0  0  0
    1.6326    4.9728    0.0000 C   0  0  0  0  0  0  0  0  0  0  0  0
    1.6326    5.7912    0.0000 C   0  0  0  0  0  0  0  0  0  0  0  0
   -3.1648    5.4655    0.0000 C   0  0  0  0  0  0  0  0  0  0  0  0
   -4.1544    3.1147    0.0000 O   0  0  0  0  0  0  0  0  0  0  0  0
   -5.0062    4.5135    0.0000 O   0  0  0  0  0  0  0  0  0  0  0  0
   -3.8663    5.0521    0.0000 C   0  0  0  0  0  0  0  0  0  0  0  0
   -0.3340    6.0876    0.0000 O   0  0  0  0  0  0  0  0  0  0  0  0
   -7.4654    4.5845    0.0000 O   0  0  0  0  0  0  0  0  0  0  0  0
   -5.9832    2.1377    0.0000 O   0  0  0  0  0  0  0  0  0  0  0  0
   -7.4070    2.1044    0.0000 C   0  0  0  0  0  0  0  0  0  0  0  0
   -8.1460    3.3402    0.0000 C   0  0  0  0  0  0  0  0  0  0  0  0
   -8.1335    2.5052    0.0000 C   0  0  0  0  0  0  0  0  0  0  0  0
  2  7  1  0  0  0  0
  3 11  1  0  0  0  0
  4 16  1  0  0  0  0
  5  1  1  0  0  0  0
  6  9  1  0  0  0  0
  7  3  1  0  0  0  0
  8  2  1  0  0  0  0
  9 19  1  0  0  0  0
 10  8  1  0  0  0  0
 11  5  1  0  0  0  0
 12  1  1  0  0  0  0
 13  4  1  0  0  0  0
 14  4  1  0  0  0  0
 15 10  1  0  0  0  0
 16 12  1  0  0  0  0
 17 15  1  0  0  0  0
 18 15  1  0  0  0  0
 19 22  1  0  0  0  0
 20  1  2  0  0  0  0
 21  1  2  0  0  0  0
 22  5  1  0  0  0  0
 23 10  2  0  0  0  0
 24 14  2  0  0  0  0
 25 13  2  0  0  0  0
 26 13  1  0  0  0  0
 27 14  1  0  0  0  0
 28 27  1  0  0  0  0
  9  3  2  0  0  0  0
  2  6  2  0  0  0  0
 28 26  1  0  0  0  0
 18 17  1  0  0  0  0
M  END
>  <IDNUMBER>
F6195-0976

>  <Chemical_Name>
N-{5-[2-(2,6-dioxopiperidin-1-yl)ethanesulfonyl]-4H,5H,6H,7H-[1,3]thiazolo[5,4-c]pyridin-2-yl}cyclopropanecarboxamide

>  <PriceCoeff>
1.00

>  <CAS>
1351631-43-0

>  <MW>
426.51

>  <Description>
solid

>  <FSP3>
0.65

>  <clogP>
0.54

>  <TPSA>
153.37

>  <Acceptor>
6

>  <Donor>
1

>  <RotBonds>
6

>  <HAC>
28

>  <Collection>
General

>  <PPDS>
+

$$$$
F6195-1924
  Mrv2219 10102508112D          

 28 31  0  0  0  0            999 V2000
   -1.1582    4.6412    0.0000 C   0  0  0  0  0  0  0  0  0  0  0  0
   -2.4330    4.2162    0.0000 C   0  0  0  0  0  0  0  0  0  0  0  0
   -1.6498    5.3036    0.0000 N   0  0  0  0  0  0  0  0  0  0  0  0
   -4.5703    3.7996    0.0000 C   0  0  0  0  0  0  0  0  0  0  0  0
   -0.3250    4.6495    0.0000 N   0  0  0  0  0  0  0  0  0  0  0  0
   -1.6373    3.9703    0.0000 S   0  0  0  0  0  0  0  0  0  0  0  0
   -2.4455    5.0411    0.0000 C   0  0  0  0  0  0  0  0  0  0  0  0
   -3.8579    4.2120    0.0000 N   0  0  0  0  0  0  0  0  0  0  0  0
    0.0792    5.3536    0.0000 C   0  0  0  0  0  0  0  0  0  0  0  0
   -3.1579    3.8079    0.0000 C   0  0  0  0  0  0  0  0  0  0  0  0
    0.9124    5.3661    0.0000 C   0  0  0  0  0  0  0  0  0  0  0  0
   -4.5828    2.9830    0.0000 N   0  0  0  0  0  0  0  0  0  0  0  0
   -3.1579    5.4536    0.0000 C   0  0  0  0  0  0  0  0  0  0  0  0
   -6.0035    1.3373    0.0000 C   0  0  0  0  0  0  0  0  0  0  0  0
   -5.2994    1.7456    0.0000 C   0  0  0  0  0  0  0  0  0  0  0  0
    1.4040    4.7037    0.0000 O   0  0  0  0  0  0  0  0  0  0  0  0
   -3.8621    5.0411    0.0000 C   0  0  0  0  0  0  0  0  0  0  0  0
   -5.2952    2.5830    0.0000 C   0  0  0  0  0  0  0  0  0  0  0  0
   -5.2952    4.2120    0.0000 O   0  0  0  0  0  0  0  0  0  0  0  0
   -6.7159    1.7456    0.0000 C   0  0  0  0  0  0  0  0  0  0  0  0
   -0.3333    6.0785    0.0000 O   0  0  0  0  0  0  0  0  0  0  0  0
    1.3915    6.0410    0.0000 C   0  0  0  0  0  0  0  0  0  0  0  0
    2.1914    4.9661    0.0000 C   0  0  0  0  0  0  0  0  0  0  0  0
    2.1789    5.7910    0.0000 C   0  0  0  0  0  0  0  0  0  0  0  0
   -6.7159    2.5705    0.0000 C   0  0  0  0  0  0  0  0  0  0  0  0
   -6.0035    0.5082    0.0000 Cl  0  0  0  0  0  0  0  0  0  0  0  0
   -6.0035    2.9830    0.0000 C   0  0  0  0  0  0  0  0  0  0  0  0
   -7.4366    1.3248    0.0000 Cl  0  0  0  0  0  0  0  0  0  0  0  0
  2  6  1  0  0  0  0
  3  1  2  0  0  0  0
  4  8  1  0  0  0  0
  5  1  1  0  0  0  0
  6  1  1  0  0  0  0
  7  3  1  0  0  0  0
  8 10  1  0  0  0  0
  9  5  1  0  0  0  0
 10  2  1  0  0  0  0
 11  9  1  0  0  0  0
 12  4  1  0  0  0  0
 13  7  1  0  0  0  0
 14 15  1  0  0  0  0
 15 18  2  0  0  0  0
 16 11  1  0  0  0  0
 17 13  1  0  0  0  0
 18 12  1  0  0  0  0
 19  4  2  0  0  0  0
 20 25  1  0  0  0  0
 21  9  2  0  0  0  0
 22 11  2  0  0  0  0
 23 16  1  0  0  0  0
 24 22  1  0  0  0  0
 25 27  2  0  0  0  0
 26 14  1  0  0  0  0
 27 18  1  0  0  0  0
 28 20  1  0  0  0  0
  7  2  2  0  0  0  0
 17  8  1  0  0  0  0
 23 24  2  0  0  0  0
 20 14  2  0  0  0  0
M  END
>  <IDNUMBER>
F6195-1924

>  <Chemical_Name>
N-(3,4-dichlorophenyl)-2-(furan-2-amido)-4H,5H,6H,7H-[1,3]thiazolo[5,4-c]pyridine-5-carboxamide

>  <PriceCoeff>
1.00

>  <CAS>
1351659-10-3

>  <MW>
437.30

>  <Description>
solid

>  <FSP3>
0.17

>  <clogP>
3.14

>  <TPSA>
115.71

>  <Acceptor>
4

>  <Donor>
2

>  <RotBonds>
4

>  <HAC>
28

>  <Collection>
General

$$$$
F6195-2940
  Mrv2219 10102508112D          

 29 32  0  0  0  0            999 V2000
   -1.1510    4.6334    0.0000 C   0  0  0  0  0  0  0  0  0  0  0  0
   -2.4355    4.2163    0.0000 C   0  0  0  0  0  0  0  0  0  0  0  0
   -1.6473    5.3089    0.0000 N   0  0  0  0  0  0  0  0  0  0  0  0
   -4.5874    3.8034    0.0000 C   0  0  0  0  0  0  0  0  0  0  0  0
   -0.3211    4.6459    0.0000 N   0  0  0  0  0  0  0  0  0  0  0  0
   -1.6473    3.9743    0.0000 S   0  0  0  0  0  0  0  0  0  0  0  0
   -2.4355    5.0462    0.0000 C   0  0  0  0  0  0  0  0  0  0  0  0
   -3.8659    4.2163    0.0000 N   0  0  0  0  0  0  0  0  0  0  0  0
    0.0793    5.3590    0.0000 C   0  0  0  0  0  0  0  0  0  0  0  0
   -3.1529    3.8117    0.0000 C   0  0  0  0  0  0  0  0  0  0  0  0
    0.9050    5.3590    0.0000 C   0  0  0  0  0  0  0  0  0  0  0  0
   -4.5874    2.9860    0.0000 N   0  0  0  0  0  0  0  0  0  0  0  0
   -3.1529    5.4591    0.0000 C   0  0  0  0  0  0  0  0  0  0  0  0
   -6.0096    1.3387    0.0000 C   0  0  0  0  0  0  0  0  0  0  0  0
   -5.3130    1.7474    0.0000 C   0  0  0  0  0  0  0  0  0  0  0  0
    1.3262    4.6542    0.0000 N   0  0  0  0  0  0  0  0  0  0  0  0
   -3.8659    5.0462    0.0000 C   0  0  0  0  0  0  0  0  0  0  0  0
   -5.3047    2.5856    0.0000 C   0  0  0  0  0  0  0  0  0  0  0  0
   -5.3047    4.2163    0.0000 O   0  0  0  0  0  0  0  0  0  0  0  0
   -6.7227    1.7474    0.0000 C   0  0  0  0  0  0  0  0  0  0  0  0
   -0.3336    6.0721    0.0000 O   0  0  0  0  0  0  0  0  0  0  0  0
    2.1436    6.0971    0.0000 N   0  0  0  0  0  0  0  0  0  0  0  0
   -6.7227    2.5731    0.0000 C   0  0  0  0  0  0  0  0  0  0  0  0
   -6.0096    0.5088    0.0000 Cl  0  0  0  0  0  0  0  0  0  0  0  0
    1.3137    6.0846    0.0000 C   0  0  0  0  0  0  0  0  0  0  0  0
   -6.0096    2.9860    0.0000 C   0  0  0  0  0  0  0  0  0  0  0  0
   -7.4483    1.3262    0.0000 Cl  0  0  0  0  0  0  0  0  0  0  0  0
    2.1561    4.6584    0.0000 C   0  0  0  0  0  0  0  0  0  0  0  0
    2.5648    5.3715    0.0000 C   0  0  0  0  0  0  0  0  0  0  0  0
  2  6  1  0  0  0  0
  3  1  2  0  0  0  0
  4  8  1  0  0  0  0
  5  1  1  0  0  0  0
  6  1  1  0  0  0  0
  7  3  1  0  0  0  0
  8 10  1  0  0  0  0
  9  5  1  0  0  0  0
 10  2  1  0  0  0  0
 11  9  1  0  0  0  0
 12  4  1  0  0  0  0
 13  7  1  0  0  0  0
 14 15  1  0  0  0  0
 15 18  2  0  0  0  0
 16 11  2  0  0  0  0
 17 13  1  0  0  0  0
 18 12  1  0  0  0  0
 19  4  2  0  0  0  0
 20 23  1  0  0  0  0
 21  9  2  0  0  0  0
 22 25  2  0  0  0  0
 23 26  2  0  0  0  0
 24 14  1  0  0  0  0
 25 11  1  0  0  0  0
 26 18  1  0  0  0  0
 27 20  1  0  0  0  0
 28 16  1  0  0  0  0
 29 22  1  0  0  0  0
  2  7  2  0  0  0  0
  8 17  1  0  0  0  0
 28 29  2  0  0  0  0
 14 20  2  0  0  0  0
M  END
>  <IDNUMBER>
F6195-2940

>  <Chemical_Name>
N-{5-[(3,4-dichlorophenyl)carbamoyl]-4H,5H,6H,7H-[1,3]thiazolo[5,4-c]pyridin-2-yl}pyrazine-2-carboxamide

>  <PriceCoeff>
1.00

>  <CAS>
1351613-87-0

>  <MW>
449.31

>  <Description>
solid

>  <FSP3>
0.17

>  <clogP>
2.16

>  <TPSA>
128.35

>  <Acceptor>
5

>  <Donor>
2

>  <RotBonds>
4

>  <HAC>
29

>  <Collection>
General

$$$$
F6195-7343
  Mrv2219 10102508112D          

 28 31  0  0  0  0            999 V2000
   -1.4642    6.3548    0.0000 C   0  0  0  0  0  0  0  0  0  0  0  0
   -2.4557    5.4637    0.0000 C   0  0  0  0  0  0  0  0  0  0  0  0
   -1.1253    5.6018    0.0000 N   0  0  0  0  0  0  0  0  0  0  0  0
   -1.0542    7.0702    0.0000 N   0  0  0  0  0  0  0  0  0  0  0  0
   -3.8864    3.8154    0.0000 C   0  0  0  0  0  0  0  0  0  0  0  0
   -2.2842    6.2669    0.0000 S   0  0  0  0  0  0  0  0  0  0  0  0
   -1.7403    5.0495    0.0000 C   0  0  0  0  0  0  0  0  0  0  0  0
   -3.1711    4.2212    0.0000 N   0  0  0  0  0  0  0  0  0  0  0  0
   -0.2342    7.0785    0.0000 C   0  0  0  0  0  0  0  0  0  0  0  0
    0.1799    7.7939    0.0000 C   0  0  0  0  0  0  0  0  0  0  0  0
   -3.1711    5.0495    0.0000 C   0  0  0  0  0  0  0  0  0  0  0  0
   -3.8362    2.9954    0.0000 N   0  0  0  0  0  0  0  0  0  0  0  0
   -1.7320    4.2295    0.0000 C   0  0  0  0  0  0  0  0  0  0  0  0
   -5.9489    2.4641    0.0000 C   0  0  0  0  0  0  0  0  0  0  0  0
   -5.2670    2.9117    0.0000 C   0  0  0  0  0  0  0  0  0  0  0  0
   -0.1632    8.5386    0.0000 C   0  0  0  0  0  0  0  0  0  0  0  0
   -2.4474    3.8154    0.0000 C   0  0  0  0  0  0  0  0  0  0  0  0
   -4.5265    2.5435    0.0000 C   0  0  0  0  0  0  0  0  0  0  0  0
    0.9957    7.8859    0.0000 C   0  0  0  0  0  0  0  0  0  0  0  0
   -4.5767    4.2714    0.0000 O   0  0  0  0  0  0  0  0  0  0  0  0
    0.4435    9.0991    0.0000 O   0  0  0  0  0  0  0  0  0  0  0  0
   -5.8987    1.6274    0.0000 C   0  0  0  0  0  0  0  0  0  0  0  0
    0.1883    6.3673    0.0000 O   0  0  0  0  0  0  0  0  0  0  0  0
    1.1589    8.6892    0.0000 C   0  0  0  0  0  0  0  0  0  0  0  0
   -5.1666    1.2551    0.0000 C   0  0  0  0  0  0  0  0  0  0  0  0
   -6.6811    2.8197    0.0000 Cl  0  0  0  0  0  0  0  0  0  0  0  0
   -4.4763    1.7069    0.0000 C   0  0  0  0  0  0  0  0  0  0  0  0
   -6.5807    1.1755    0.0000 Cl  0  0  0  0  0  0  0  0  0  0  0  0
  2  6  1  0  0  0  0
  3  1  2  0  0  0  0
  4  1  1  0  0  0  0
  5  8  1  0  0  0  0
  6  1  1  0  0  0  0
  7  3  1  0  0  0  0
  8 11  1  0  0  0  0
  9  4  1  0  0  0  0
 10  9  1  0  0  0  0
 11  2  1  0  0  0  0
 12  5  1  0  0  0  0
 13  7  1  0  0  0  0
 14 15  1  0  0  0  0
 15 18  2  0  0  0  0
 16 10  2  0  0  0  0
 17 13  1  0  0  0  0
 18 12  1  0  0  0  0
 19 10  1  0  0  0  0
 20  5  2  0  0  0  0
 21 16  1  0  0  0  0
 22 25  1  0  0  0  0
 23  9  2  0  0  0  0
 24 19  2  0  0  0  0
 25 27  2  0  0  0  0
 26 14  1  0  0  0  0
 27 18  1  0  0  0  0
 28 22  1  0  0  0  0
  7  2  2  0  0  0  0
  8 17  1  0  0  0  0
 24 21  1  0  0  0  0
 22 14  2  0  0  0  0
M  END
>  <IDNUMBER>
F6195-7343

>  <Chemical_Name>
N-(3,4-dichlorophenyl)-2-(furan-3-amido)-4H,5H,6H,7H-[1,3]thiazolo[5,4-c]pyridine-5-carboxamide

>  <PriceCoeff>
1.00

>  <CAS>
1428374-94-0

>  <MW>
437.30

>  <Description>
solid

>  <FSP3>
0.17

>  <clogP>
3.14

>  <TPSA>
115.71

>  <Acceptor>
4

>  <Donor>
2

>  <RotBonds>
4

>  <HAC>
28

>  <Collection>
General

$$$$
F6200-3035
  Mrv2219 10102508112D          

 24 26  0  0  0  0            999 V2000
   -5.2813    2.5698    0.0000 N   0  0  0  0  0  0  0  0  0  0  0  0
   -3.1446    6.2768    0.0000 C   0  0  0  0  0  0  0  0  0  0  0  0
   -3.8193    6.7516    0.0000 C   0  0  0  0  0  0  0  0  0  0  0  0
   -3.5695    7.5513    0.0000 N   0  0  0  0  0  0  0  0  0  0  0  0
   -2.4824    6.7641    0.0000 C   0  0  0  0  0  0  0  0  0  0  0  0
   -2.7364    7.5513    0.0000 C   0  0  0  0  0  0  0  0  0  0  0  0
   -5.3604    1.7451    0.0000 C   0  0  0  0  0  0  0  0  0  0  0  0
   -6.0269    2.8989    0.0000 C   0  0  0  0  0  0  0  0  0  0  0  0
   -4.5691    2.9863    0.0000 C   0  0  0  0  0  0  0  0  0  0  0  0
   -4.5691    3.7986    0.0000 C   0  0  0  0  0  0  0  0  0  0  0  0
   -3.1488    5.4521    0.0000 C   0  0  0  0  0  0  0  0  0  0  0  0
   -3.8568    4.2109    0.0000 N   0  0  0  0  0  0  0  0  0  0  0  0
   -6.1644    1.5702    0.0000 C   0  0  0  0  0  0  0  0  0  0  0  0
   -6.5725    2.2825    0.0000 C   0  0  0  0  0  0  0  0  0  0  0  0
   -4.7440    1.1829    0.0000 O   0  0  0  0  0  0  0  0  0  0  0  0
   -6.2019    3.7069    0.0000 O   0  0  0  0  0  0  0  0  0  0  0  0
   -5.2938    4.2109    0.0000 O   0  0  0  0  0  0  0  0  0  0  0  0
   -3.8568    5.0273    0.0000 C   0  0  0  0  0  0  0  0  0  0  0  0
   -4.0609    8.2135    0.0000 C   0  0  0  0  0  0  0  0  0  0  0  0
   -1.6743    6.5892    0.0000 C   0  0  0  0  0  0  0  0  0  0  0  0
   -2.4324    5.0398    0.0000 O   0  0  0  0  0  0  0  0  0  0  0  0
   -2.1950    8.1636    0.0000 C   0  0  0  0  0  0  0  0  0  0  0  0
   -1.1329    7.2140    0.0000 C   0  0  0  0  0  0  0  0  0  0  0  0
   -1.3828    8.0011    0.0000 C   0  0  0  0  0  0  0  0  0  0  0  0
  2 11  1  0  0  0  0
  3  2  2  0  0  0  0
  4  3  1  0  0  0  0
  5  2  1  0  0  0  0
  6  5  1  0  0  0  0
  7  1  1  0  0  0  0
  8  1  1  0  0  0  0
  9  1  1  0  0  0  0
 10  9  1  0  0  0  0
 11 18  1  0  0  0  0
 12 10  1  0  0  0  0
 13  7  1  0  0  0  0
 14  8  1  0  0  0  0
 15  7  2  0  0  0  0
 16  8  2  0  0  0  0
 17 10  2  0  0  0  0
 18 12  1  0  0  0  0
 19  4  1  0  0  0  0
 20  5  2  0  0  0  0
 21 11  1  0  0  0  0
 22  6  2  0  0  0  0
 23 20  1  0  0  0  0
 24 23  2  0  0  0  0
 13 14  1  0  0  0  0
  4  6  1  0  0  0  0
 24 22  1  0  0  0  0
M  END
>  <IDNUMBER>
F6200-3035

>  <Chemical_Name>
2-(2,5-dioxopyrrolidin-1-yl)-N-[2-hydroxy-2-(1-methyl-1H-indol-3-yl)ethyl]acetamide

>  <PriceCoeff>
1.00

>  <CAS>
1448063-83-9

>  <MW>
329.35

>  <Description>
solid

>  <FSP3>
0.35

>  <clogP>
0.46

>  <TPSA>
91.64

>  <Acceptor>
4

>  <Donor>
2

>  <RotBonds>
5

>  <HAC>
24

>  <Collection>
General

>  <PPDS>
+

$$$$
F6210-1170
  Mrv2219 10102508112D          

 23 25  0  0  0  0            999 V2000
   -1.1457    2.7123    0.0000 S   0  0  0  0  0  0  0  0  0  0  0  0
   -0.4708    0.6374    0.0000 N   0  0  0  0  0  0  0  0  0  0  0  0
   -3.6705    2.6206    0.0000 N   0  0  0  0  0  0  0  0  0  0  0  0
   -3.8122    3.4330    0.0000 C   0  0  0  0  0  0  0  0  0  0  0  0
   -3.0831    3.8205    0.0000 C   0  0  0  0  0  0  0  0  0  0  0  0
   -4.2455    2.0248    0.0000 C   0  0  0  0  0  0  0  0  0  0  0  0
   -0.7957   -0.1250    0.0000 C   0  0  0  0  0  0  0  0  0  0  0  0
    0.3500    0.7374    0.0000 C   0  0  0  0  0  0  0  0  0  0  0  0
   -2.4831    3.2330    0.0000 C   0  0  0  0  0  0  0  0  0  0  0  0
   -0.6457    2.0581    0.0000 C   0  0  0  0  0  0  0  0  0  0  0  0
   -1.6624    3.3580    0.0000 N   0  0  0  0  0  0  0  0  0  0  0  0
   -0.9707    1.2999    0.0000 C   0  0  0  0  0  0  0  0  0  0  0  0
   -5.0371    1.7957    0.0000 C   0  0  0  0  0  0  0  0  0  0  0  0
   -4.4454    1.2207    0.0000 C   0  0  0  0  0  0  0  0  0  0  0  0
   -2.8498    2.4998    0.0000 C   0  0  0  0  0  0  0  0  0  0  0  0
   -0.4958    3.2122    0.0000 O   0  0  0  0  0  0  0  0  0  0  0  0
   -1.9206    2.3956    0.0000 O   0  0  0  0  0  0  0  0  0  0  0  0
   -4.5621    3.7997    0.0000 O   0  0  0  0  0  0  0  0  0  0  0  0
    0.6749    1.5082    0.0000 O   0  0  0  0  0  0  0  0  0  0  0  0
   -1.6124   -0.2292    0.0000 O   0  0  0  0  0  0  0  0  0  0  0  0
    0.8499    0.0833    0.0000 C   0  0  0  0  0  0  0  0  0  0  0  0
   -0.2875   -0.7749    0.0000 C   0  0  0  0  0  0  0  0  0  0  0  0
    0.5292   -0.6666    0.0000 C   0  0  0  0  0  0  0  0  0  0  0  0
  2 12  1  0  0  0  0
  3 15  1  0  0  0  0
  4  5  1  0  0  0  0
  5  9  1  0  0  0  0
  6  3  1  0  0  0  0
  7  2  1  0  0  0  0
  8  2  1  0  0  0  0
  9 11  1  0  0  0  0
 10  1  1  0  0  0  0
 11  1  1  0  0  0  0
 12 10  1  0  0  0  0
 13  6  1  0  0  0  0
 14  6  1  0  0  0  0
 15  9  1  0  0  0  0
 16  1  2  0  0  0  0
 17  1  2  0  0  0  0
 18  4  2  0  0  0  0
 19  8  2  0  0  0  0
 20  7  2  0  0  0  0
 21  8  1  0  0  0  0
 22  7  1  0  0  0  0
 23 21  1  0  0  0  0
  4  3  1  0  0  0  0
 13 14  1  0  0  0  0
 23 22  1  0  0  0  0
M  END
>  <IDNUMBER>
F6210-1170

>  <Chemical_Name>
N-(1-cyclopropyl-5-oxopyrrolidin-3-yl)-2-(2,6-dioxopiperidin-1-yl)ethane-1-sulfonamide

>  <PriceCoeff>
1.50

>  <CAS>
1396888-61-1

>  <MW>
343.40

>  <Description>
solid

>  <FSP3>
0.79

>  <clogP>
0.60

>  <TPSA>
112.24

>  <Acceptor>
5

>  <Donor>
1

>  <RotBonds>
6

>  <HAC>
23

>  <Collection>
Advanced

>  <PPDS>
+

$$$$
F6211-0243
  Mrv2219 10102508112D          

 20 22  0  0  0  0            999 V2000
   -2.6582    2.3670    0.0000 C   0  0  0  0  0  0  0  0  0  0  0  0
   -2.4044    1.5808    0.0000 N   0  0  0  0  0  0  0  0  0  0  0  0
   -3.4818    2.3670    0.0000 C   0  0  0  0  0  0  0  0  0  0  0  0
   -3.7397    1.5850    0.0000 C   0  0  0  0  0  0  0  0  0  0  0  0
   -3.0701    1.1065    0.0000 N   0  0  0  0  0  0  0  0  0  0  0  0
   -2.1797    3.0409    0.0000 C   0  0  0  0  0  0  0  0  0  0  0  0
   -1.3561    2.9535    0.0000 N   0  0  0  0  0  0  0  0  0  0  0  0
   -0.5367    2.8787    0.0000 C   0  0  0  0  0  0  0  0  0  0  0  0
   -0.1997    2.1215    0.0000 C   0  0  0  0  0  0  0  0  0  0  0  0
   -4.4886    1.2563    0.0000 O   0  0  0  0  0  0  0  0  0  0  0  0
   -0.0582    3.5400    0.0000 C   0  0  0  0  0  0  0  0  0  0  0  0
   -2.5167    3.7939    0.0000 O   0  0  0  0  0  0  0  0  0  0  0  0
    0.7654    3.4652    0.0000 C   0  0  0  0  0  0  0  0  0  0  0  0
    0.6158    2.0425    0.0000 C   0  0  0  0  0  0  0  0  0  0  0  0
   -3.1532    0.2829    0.0000 C   0  0  0  0  0  0  0  0  0  0  0  0
    1.1024    2.7039    0.0000 C   0  0  0  0  0  0  0  0  0  0  0  0
    0.9526    1.2854    0.0000 Cl  0  0  0  0  0  0  0  0  0  0  0  0
   -0.3869    4.2848    0.0000 O   0  0  0  0  0  0  0  0  0  0  0  0
   -3.9062   -0.0541    0.0000 C   0  0  0  0  0  0  0  0  0  0  0  0
   -4.5759    0.4326    0.0000 C   0  0  0  0  0  0  0  0  0  0  0  0
  2  1  2  0  0  0  0
  3  1  1  0  0  0  0
  4  3  2  0  0  0  0
  5  2  1  0  0  0  0
  6  1  1  0  0  0  0
  7  6  1  0  0  0  0
  8  7  1  0  0  0  0
  9  8  2  0  0  0  0
 10  4  1  0  0  0  0
 11  8  1  0  0  0  0
 12  6  2  0  0  0  0
 13 11  2  0  0  0  0
 14  9  1  0  0  0  0
 15  5  1  0  0  0  0
 16 13  1  0  0  0  0
 17 14  1  0  0  0  0
 18 11  1  0  0  0  0
 19 15  1  0  0  0  0
 20 10  1  0  0  0  0
  5  4  1  0  0  0  0
 20 19  1  0  0  0  0
 16 14  2  0  0  0  0
M  END
>  <IDNUMBER>
F6211-0243

>  <Chemical_Name>
N-(5-chloro-2-hydroxyphenyl)-5H,6H,7H-pyrazolo[3,2-b][1,3]oxazine-2-carboxamide

>  <PriceCoeff>
1.50

>  <CAS>
1421472-30-1

>  <MW>
293.71

>  <Description>
solid

>  <FSP3>
0.23

>  <clogP>
1.71

>  <TPSA>
76.38

>  <Acceptor>
4

>  <Donor>
2

>  <RotBonds>
2

>  <HAC>
20

>  <Collection>
Advanced

>  <PPDS>
+

$$$$
F6212-0243
  Mrv2219 10102508112D          

 20 22  0  0  0  0            999 V2000
   -3.2548    2.3725    0.0000 C   0  0  0  0  0  0  0  0  0  0  0  0
   -3.5046    1.5941    0.0000 C   0  0  0  0  0  0  0  0  0  0  0  0
   -3.7418    3.0426    0.0000 C   0  0  0  0  0  0  0  0  0  0  0  0
   -2.1727    1.5858    0.0000 N   0  0  0  0  0  0  0  0  0  0  0  0
   -2.8428    1.1071    0.0000 N   0  0  0  0  0  0  0  0  0  0  0  0
   -2.4307    2.3725    0.0000 C   0  0  0  0  0  0  0  0  0  0  0  0
   -3.4047    3.7960    0.0000 N   0  0  0  0  0  0  0  0  0  0  0  0
   -3.0675    4.5410    0.0000 C   0  0  0  0  0  0  0  0  0  0  0  0
   -4.2622    1.2570    0.0000 O   0  0  0  0  0  0  0  0  0  0  0  0
   -2.2559    4.6243    0.0000 C   0  0  0  0  0  0  0  0  0  0  0  0
   -3.5545    5.2111    0.0000 C   0  0  0  0  0  0  0  0  0  0  0  0
   -4.5576    2.9551    0.0000 O   0  0  0  0  0  0  0  0  0  0  0  0
   -3.2174    5.9603    0.0000 C   0  0  0  0  0  0  0  0  0  0  0  0
   -1.9105    5.3735    0.0000 C   0  0  0  0  0  0  0  0  0  0  0  0
   -2.9177    0.2872    0.0000 C   0  0  0  0  0  0  0  0  0  0  0  0
   -2.3932    6.0477    0.0000 C   0  0  0  0  0  0  0  0  0  0  0  0
   -1.0946    5.4609    0.0000 Cl  0  0  0  0  0  0  0  0  0  0  0  0
   -4.3703    5.1320    0.0000 O   0  0  0  0  0  0  0  0  0  0  0  0
   -3.6794   -0.0499    0.0000 C   0  0  0  0  0  0  0  0  0  0  0  0
   -4.3412    0.4328    0.0000 C   0  0  0  0  0  0  0  0  0  0  0  0
  2  1  2  0  0  0  0
  3  1  1  0  0  0  0
  4  6  2  0  0  0  0
  5  2  1  0  0  0  0
  6  1  1  0  0  0  0
  7  3  1  0  0  0  0
  8  7  1  0  0  0  0
  9  2  1  0  0  0  0
 10  8  2  0  0  0  0
 11  8  1  0  0  0  0
 12  3  2  0  0  0  0
 13 11  2  0  0  0  0
 14 10  1  0  0  0  0
 15  5  1  0  0  0  0
 16 13  1  0  0  0  0
 17 14  1  0  0  0  0
 18 11  1  0  0  0  0
 19 20  1  0  0  0  0
 20  9  1  0  0  0  0
  5  4  1  0  0  0  0
 15 19  1  0  0  0  0
 16 14  2  0  0  0  0
M  END
>  <IDNUMBER>
F6212-0243

>  <Chemical_Name>
N-(5-chloro-2-hydroxyphenyl)-5H,6H,7H-pyrazolo[3,2-b][1,3]oxazine-3-carboxamide

>  <PriceCoeff>
1.50

>  <CAS>
1421457-90-0

>  <MW>
293.71

>  <Description>
solid

>  <FSP3>
0.23

>  <clogP>
1.71

>  <TPSA>
76.38

>  <Acceptor>
4

>  <Donor>
2

>  <RotBonds>
2

>  <HAC>
20

>  <Collection>
Advanced

>  <PPDS>
+

$$$$
F6213-0291
  Mrv2219 10102508112D          

 22 24  0  0  0  0            999 V2000
   -1.3064    3.4050    0.0000 N   0  0  0  0  0  0  0  0  0  0  0  0
   -0.5806    3.7824    0.0000 C   0  0  0  0  0  0  0  0  0  0  0  0
   -2.3391    2.8575    0.0000 C   0  0  0  0  0  0  0  0  0  0  0  0
   -0.5930    4.5954    0.0000 N   0  0  0  0  0  0  0  0  0  0  0  0
   -3.7658    2.0363    0.0000 C   0  0  0  0  0  0  0  0  0  0  0  0
   -2.0903    3.6498    0.0000 C   0  0  0  0  0  0  0  0  0  0  0  0
   -1.5511    2.6129    0.0000 C   0  0  0  0  0  0  0  0  0  0  0  0
   -3.7658    2.8575    0.0000 O   0  0  0  0  0  0  0  0  0  0  0  0
   -3.0566    1.6299    0.0000 O   0  0  0  0  0  0  0  0  0  0  0  0
    1.5346    5.0433    0.0000 C   0  0  0  0  0  0  0  0  0  0  0  0
    0.8336    4.6203    0.0000 C   0  0  0  0  0  0  0  0  0  0  0  0
    0.1162    5.0184    0.0000 C   0  0  0  0  0  0  0  0  0  0  0  0
    0.0913    3.2972    0.0000 O   0  0  0  0  0  0  0  0  0  0  0  0
    1.5221    5.8727    0.0000 C   0  0  0  0  0  0  0  0  0  0  0  0
   -3.0566    3.2806    0.0000 C   0  0  0  0  0  0  0  0  0  0  0  0
   -2.3391    2.0363    0.0000 C   0  0  0  0  0  0  0  0  0  0  0  0
    0.8087    6.2709    0.0000 C   0  0  0  0  0  0  0  0  0  0  0  0
    2.2562    4.6451    0.0000 Cl  0  0  0  0  0  0  0  0  0  0  0  0
    0.0995    5.8520    0.0000 C   0  0  0  0  0  0  0  0  0  0  0  0
    2.2313    6.2958    0.0000 Cl  0  0  0  0  0  0  0  0  0  0  0  0
   -3.9815    1.2400    0.0000 C   0  0  0  0  0  0  0  0  0  0  0  0
   -4.5621    2.2603    0.0000 C   0  0  0  0  0  0  0  0  0  0  0  0
  2  1  1  0  0  0  0
  3  7  1  0  0  0  0
  4  2  1  0  0  0  0
  5  9  1  0  0  0  0
  6  1  1  0  0  0  0
  7  1  1  0  0  0  0
  8 15  1  0  0  0  0
  9 16  1  0  0  0  0
 10 11  1  0  0  0  0
 11 12  2  0  0  0  0
 12  4  1  0  0  0  0
 13  2  2  0  0  0  0
 14 17  1  0  0  0  0
 15  3  1  0  0  0  0
 16  3  1  0  0  0  0
 17 19  2  0  0  0  0
 18 10  1  0  0  0  0
 19 12  1  0  0  0  0
 20 14  1  0  0  0  0
 21  5  1  0  0  0  0
 22  5  1  0  0  0  0
  6  3  1  0  0  0  0
  8  5  1  0  0  0  0
 14 10  2  0  0  0  0
M  END
>  <IDNUMBER>
F6213-0291

>  <Chemical_Name>
N-(3,4-dichlorophenyl)-7,7-dimethyl-6,8-dioxa-2-azaspiro[3.5]nonane-2-carboxamide

>  <PriceCoeff>
1.00

>  <CAS>
1396860-33-5

>  <MW>
345.22

>  <Description>
solid

>  <FSP3>
0.53

>  <clogP>
3.50

>  <TPSA>
50.80

>  <Acceptor>
3

>  <Donor>
1

>  <RotBonds>
2

>  <HAC>
22

>  <Collection>
General

>  <PPDS>
+

$$$$
F6213-0361
  Mrv2219 10102508112D          

 24 26  0  0  0  0            999 V2000
   -0.5830    3.7979    0.0000 S   0  0  0  0  0  0  0  0  0  0  0  0
    1.5866    4.0520    0.0000 N   0  0  0  0  0  0  0  0  0  0  0  0
   -1.3118    3.4189    0.0000 N   0  0  0  0  0  0  0  0  0  0  0  0
   -2.3487    2.8692    0.0000 C   0  0  0  0  0  0  0  0  0  0  0  0
    0.1624    4.1519    0.0000 C   0  0  0  0  0  0  0  0  0  0  0  0
    1.6408    4.8765    0.0000 C   0  0  0  0  0  0  0  0  0  0  0  0
    2.2654    3.5938    0.0000 C   0  0  0  0  0  0  0  0  0  0  0  0
    0.8412    3.7022    0.0000 C   0  0  0  0  0  0  0  0  0  0  0  0
   -3.7812    2.0447    0.0000 C   0  0  0  0  0  0  0  0  0  0  0  0
   -2.0988    3.6647    0.0000 C   0  0  0  0  0  0  0  0  0  0  0  0
   -1.5574    2.6236    0.0000 C   0  0  0  0  0  0  0  0  0  0  0  0
   -3.7812    2.8692    0.0000 O   0  0  0  0  0  0  0  0  0  0  0  0
   -3.0691    1.6366    0.0000 O   0  0  0  0  0  0  0  0  0  0  0  0
   -0.9453    4.5267    0.0000 O   0  0  0  0  0  0  0  0  0  0  0  0
   -0.4206    2.9817    0.0000 O   0  0  0  0  0  0  0  0  0  0  0  0
   -2.3487    2.0447    0.0000 C   0  0  0  0  0  0  0  0  0  0  0  0
   -3.0691    3.2940    0.0000 C   0  0  0  0  0  0  0  0  0  0  0  0
    0.9537    5.3388    0.0000 O   0  0  0  0  0  0  0  0  0  0  0  0
    2.2113    2.7693    0.0000 O   0  0  0  0  0  0  0  0  0  0  0  0
    2.3820    5.2388    0.0000 C   0  0  0  0  0  0  0  0  0  0  0  0
    3.0025    3.9603    0.0000 C   0  0  0  0  0  0  0  0  0  0  0  0
   -4.5808    2.2695    0.0000 C   0  0  0  0  0  0  0  0  0  0  0  0
   -3.9978    1.2451    0.0000 C   0  0  0  0  0  0  0  0  0  0  0  0
    3.0608    4.7766    0.0000 C   0  0  0  0  0  0  0  0  0  0  0  0
  2  8  1  0  0  0  0
  3  1  1  0  0  0  0
  4 11  1  0  0  0  0
  5  1  1  0  0  0  0
  6  2  1  0  0  0  0
  7  2  1  0  0  0  0
  8  5  1  0  0  0  0
  9 12  1  0  0  0  0
 10  3  1  0  0  0  0
 11  3  1  0  0  0  0
 12 17  1  0  0  0  0
 13 16  1  0  0  0  0
 14  1  2  0  0  0  0
 15  1  2  0  0  0  0
 16  4  1  0  0  0  0
 17  4  1  0  0  0  0
 18  6  2  0  0  0  0
 19  7  2  0  0  0  0
 20  6  1  0  0  0  0
 21  7  1  0  0  0  0
 22  9  1  0  0  0  0
 23  9  1  0  0  0  0
 24 21  1  0  0  0  0
 10  4  1  0  0  0  0
  9 13  1  0  0  0  0
 20 24  1  0  0  0  0
M  END
>  <IDNUMBER>
F6213-0361

>  <Chemical_Name>
1-[2-({7,7-dimethyl-6,8-dioxa-2-azaspiro[3.5]nonan-2-yl}sulfonyl)ethyl]piperidine-2,6-dione

>  <PriceCoeff>
1.00

>  <CAS>
1396809-06-5

>  <MW>
360.43

>  <Description>
solid

>  <FSP3>
0.87

>  <clogP>
1.11

>  <TPSA>
101.60

>  <Acceptor>
6

>  <Donor>
0

>  <RotBonds>
4

>  <HAC>
24

>  <Collection>
General

>  <PPDS>
+

$$$$
F6233-0526
  Mrv2219 10102508112D          

 27 29  0  0  0  0            999 V2000
   -3.1258    7.4862    0.0000 N   0  0  0  0  0  0  0  0  0  0  0  0
   -2.4691    7.9891    0.0000 C   0  0  0  0  0  0  0  0  0  0  0  0
   -3.7992    7.9476    0.0000 N   0  0  0  0  0  0  0  0  0  0  0  0
   -2.7517    8.7581    0.0000 N   0  0  0  0  0  0  0  0  0  0  0  0
   -3.5747    8.7332    0.0000 N   0  0  0  0  0  0  0  0  0  0  0  0
   -3.8615    3.7909    0.0000 C   0  0  0  0  0  0  0  0  0  0  0  0
   -3.1258    6.6715    0.0000 C   0  0  0  0  0  0  0  0  0  0  0  0
   -1.6793    7.7730    0.0000 O   0  0  0  0  0  0  0  0  0  0  0  0
   -4.6347    4.0984    0.0000 N   0  0  0  0  0  0  0  0  0  0  0  0
   -3.1507    4.1941    0.0000 N   0  0  0  0  0  0  0  0  0  0  0  0
   -3.9488    3.1258    0.0000 O   0  0  0  0  0  0  0  0  0  0  0  0
   -4.7469    4.9298    0.0000 C   0  0  0  0  0  0  0  0  0  0  0  0
   -2.2903    9.4440    0.0000 C   0  0  0  0  0  0  0  0  0  0  0  0
   -4.0860    5.4411    0.0000 C   0  0  0  0  0  0  0  0  0  0  0  0
   -3.8490    6.2641    0.0000 C   0  0  0  0  0  0  0  0  0  0  0  0
   -2.4275    6.2517    0.0000 C   0  0  0  0  0  0  0  0  0  0  0  0
   -3.1507    5.0296    0.0000 C   0  0  0  0  0  0  0  0  0  0  0  0
   -4.2107    6.2641    0.0000 C   0  0  0  0  0  0  0  0  0  0  0  0
   -2.4399    5.4286    0.0000 C   0  0  0  0  0  0  0  0  0  0  0  0
   -3.8490    5.4411    0.0000 C   0  0  0  0  0  0  0  0  0  0  0  0
   -3.5540    6.7837    0.0000 Cl  0  0  0  0  0  0  0  0  0  0  0  0
   -1.0184   10.0800    0.0000 O   0  0  0  0  0  0  0  0  0  0  0  0
   -5.6447    6.0771    0.0000 C   0  0  0  0  0  0  0  0  0  0  0  0
   -5.5325    5.2499    0.0000 C   0  0  0  0  0  0  0  0  0  0  0  0
   -1.4715    9.3941    0.0000 C   0  0  0  0  0  0  0  0  0  0  0  0
   -4.9880    6.5800    0.0000 C   0  0  0  0  0  0  0  0  0  0  0  0
   -0.1995   10.0259    0.0000 C   0  0  0  0  0  0  0  0  0  0  0  0
  2  1  1  0  0  0  0
  3  1  1  0  0  0  0
  4  2  1  0  0  0  0
  5  3  2  0  0  0  0
  6 10  1  0  0  0  0
  7  1  1  0  0  0  0
  8  2  2  0  0  0  0
  9  6  1  0  0  0  0
 10 17  1  0  0  0  0
 11  6  2  0  0  0  0
 12  9  1  0  0  0  0
 13  4  1  0  0  0  0
 14 12  2  0  0  0  0
 15  7  2  0  0  0  0
 16  7  1  0  0  0  0
 17 19  1  0  0  0  0
 18 14  1  0  0  0  0
 19 16  2  0  0  0  0
 20 15  1  0  0  0  0
 21 18  1  0  0  0  0
 22 25  1  0  0  0  0
 23 24  2  0  0  0  0
 24 12  1  0  0  0  0
 25 13  1  0  0  0  0
 26 23  1  0  0  0  0
 27 22  1  0  0  0  0
  4  5  1  0  0  0  0
 20 17  2  0  0  0  0
 26 18  2  0  0  0  0
M  END
>  <IDNUMBER>
F6233-0526

>  <Chemical_Name>
1-(3-chlorophenyl)-3-{4-[4-(2-methoxyethyl)-5-oxo-4,5-dihydro-1H-1,2,3,4-tetrazol-1-yl]phenyl}urea

>  <PriceCoeff>
1.00

>  <CAS>
1396864-49-5

>  <MW>
388.81

>  <Description>
solid

>  <FSP3>
0.18

>  <clogP>
3.83

>  <TPSA>
98.63

>  <Acceptor>
3

>  <Donor>
2

>  <RotBonds>
6

>  <HAC>
27

>  <Collection>
General

>  <PPDS>
+

$$$$
F6233-0549
  Mrv2219 10102508112D          

 28 30  0  0  0  0            999 V2000
   -3.1352    7.5088    0.0000 N   0  0  0  0  0  0  0  0  0  0  0  0
   -2.4765    8.0132    0.0000 C   0  0  0  0  0  0  0  0  0  0  0  0
   -3.8106    7.9716    0.0000 N   0  0  0  0  0  0  0  0  0  0  0  0
   -2.7600    8.7846    0.0000 N   0  0  0  0  0  0  0  0  0  0  0  0
   -3.5855    8.7596    0.0000 N   0  0  0  0  0  0  0  0  0  0  0  0
   -3.8732    3.8023    0.0000 C   0  0  0  0  0  0  0  0  0  0  0  0
   -3.1352    6.6916    0.0000 C   0  0  0  0  0  0  0  0  0  0  0  0
   -1.6843    7.7965    0.0000 O   0  0  0  0  0  0  0  0  0  0  0  0
   -3.1602    4.2068    0.0000 N   0  0  0  0  0  0  0  0  0  0  0  0
   -3.8357    2.9810    0.0000 N   0  0  0  0  0  0  0  0  0  0  0  0
   -4.5403    4.2193    0.0000 O   0  0  0  0  0  0  0  0  0  0  0  0
   -2.2972    9.4725    0.0000 C   0  0  0  0  0  0  0  0  0  0  0  0
   -3.8607    6.2831    0.0000 C   0  0  0  0  0  0  0  0  0  0  0  0
   -2.4348    6.2706    0.0000 C   0  0  0  0  0  0  0  0  0  0  0  0
   -3.1602    5.0448    0.0000 C   0  0  0  0  0  0  0  0  0  0  0  0
   -3.8023    2.1596    0.0000 C   0  0  0  0  0  0  0  0  0  0  0  0
   -1.6010    1.0089    0.0000 C   0  0  0  0  0  0  0  0  0  0  0  0
   -3.0727    1.7844    0.0000 C   0  0  0  0  0  0  0  0  0  0  0  0
   -2.4473    5.4450    0.0000 C   0  0  0  0  0  0  0  0  0  0  0  0
   -3.8607    5.4576    0.0000 C   0  0  0  0  0  0  0  0  0  0  0  0
   -0.8838    0.6212    0.0000 Cl  0  0  0  0  0  0  0  0  0  0  0  0
   -2.3014    0.5628    0.0000 C   0  0  0  0  0  0  0  0  0  0  0  0
   -1.6385    1.8261    0.0000 C   0  0  0  0  0  0  0  0  0  0  0  0
   -3.0352    0.9464    0.0000 C   0  0  0  0  0  0  0  0  0  0  0  0
   -2.3723    2.2264    0.0000 C   0  0  0  0  0  0  0  0  0  0  0  0
   -1.0214   10.1104    0.0000 O   0  0  0  0  0  0  0  0  0  0  0  0
   -1.4759    9.4225    0.0000 C   0  0  0  0  0  0  0  0  0  0  0  0
   -0.2001   10.0562    0.0000 C   0  0  0  0  0  0  0  0  0  0  0  0
  2  1  1  0  0  0  0
  3  1  1  0  0  0  0
  4  2  1  0  0  0  0
  5  3  2  0  0  0  0
  6  9  1  0  0  0  0
  7  1  1  0  0  0  0
  8  2  2  0  0  0  0
  9 15  1  0  0  0  0
 10  6  1  0  0  0  0
 11  6  2  0  0  0  0
 12  4  1  0  0  0  0
 13  7  2  0  0  0  0
 14  7  1  0  0  0  0
 15 19  1  0  0  0  0
 16 10  1  0  0  0  0
 17 23  1  0  0  0  0
 18 16  1  0  0  0  0
 19 14  2  0  0  0  0
 20 13  1  0  0  0  0
 21 17  1  0  0  0  0
 22 24  1  0  0  0  0
 23 25  2  0  0  0  0
 24 18  2  0  0  0  0
 25 18  1  0  0  0  0
 26 27  1  0  0  0  0
 27 12  1  0  0  0  0
 28 26  1  0  0  0  0
  4  5  1  0  0  0  0
 20 15  2  0  0  0  0
 22 17  2  0  0  0  0
M  END
>  <IDNUMBER>
F6233-0549

>  <Chemical_Name>
1-[(4-chlorophenyl)methyl]-3-{4-[4-(2-methoxyethyl)-5-oxo-4,5-dihydro-1H-1,2,3,4-tetrazol-1-yl]phenyl}urea

>  <PriceCoeff>
1.00

>  <CAS>
1396881-31-4

>  <MW>
402.83

>  <Description>
solid

>  <FSP3>
0.22

>  <clogP>
3.39

>  <TPSA>
98.63

>  <Acceptor>
3

>  <Donor>
2

>  <RotBonds>
7

>  <HAC>
28

>  <Collection>
General

>  <PPDS>
+

$$$$
F6237-0243
  Mrv2219 10102508112D          

 22 24  0  0  0  0            999 V2000
   -2.3696    4.4508    0.0000 C   0  0  0  0  0  0  0  0  0  0  0  0
   -2.1021    5.2198    0.0000 N   0  0  0  0  0  0  0  0  0  0  0  0
   -1.2746    5.2156    0.0000 N   0  0  0  0  0  0  0  0  0  0  0  0
   -1.0364    4.4215    0.0000 N   0  0  0  0  0  0  0  0  0  0  0  0
   -1.7134    3.9576    0.0000 N   0  0  0  0  0  0  0  0  0  0  0  0
   -3.1678    4.2168    0.0000 C   0  0  0  0  0  0  0  0  0  0  0  0
   -3.7612    4.7893    0.0000 N   0  0  0  0  0  0  0  0  0  0  0  0
   -4.3630    5.3577    0.0000 C   0  0  0  0  0  0  0  0  0  0  0  0
   -4.1708    6.1601    0.0000 C   0  0  0  0  0  0  0  0  0  0  0  0
   -0.7104    5.8216    0.0000 C   0  0  0  0  0  0  0  0  0  0  0  0
   -5.1571    5.1236    0.0000 C   0  0  0  0  0  0  0  0  0  0  0  0
   -3.3558    3.4185    0.0000 O   0  0  0  0  0  0  0  0  0  0  0  0
   -5.7505    5.6962    0.0000 C   0  0  0  0  0  0  0  0  0  0  0  0
   -4.7642    6.7243    0.0000 C   0  0  0  0  0  0  0  0  0  0  0  0
   -5.5541    6.4986    0.0000 C   0  0  0  0  0  0  0  0  0  0  0  0
   -4.5720    7.5267    0.0000 Cl  0  0  0  0  0  0  0  0  0  0  0  0
   -5.3493    4.3254    0.0000 O   0  0  0  0  0  0  0  0  0  0  0  0
   -0.9486    6.6115    0.0000 C   0  0  0  0  0  0  0  0  0  0  0  0
    0.0920    5.6335    0.0000 C   0  0  0  0  0  0  0  0  0  0  0  0
    0.6562    6.2394    0.0000 C   0  0  0  0  0  0  0  0  0  0  0  0
   -0.3844    7.2133    0.0000 C   0  0  0  0  0  0  0  0  0  0  0  0
    0.4179    7.0335    0.0000 C   0  0  0  0  0  0  0  0  0  0  0  0
  2  1  2  0  0  0  0
  3  2  1  0  0  0  0
  4  5  2  0  0  0  0
  5  1  1  0  0  0  0
  6  1  1  0  0  0  0
  7  6  1  0  0  0  0
  8  7  1  0  0  0  0
  9  8  2  0  0  0  0
 10  3  1  0  0  0  0
 11  8  1  0  0  0  0
 12  6  2  0  0  0  0
 13 11  2  0  0  0  0
 14  9  1  0  0  0  0
 15 13  1  0  0  0  0
 16 14  1  0  0  0  0
 17 11  1  0  0  0  0
 18 10  2  0  0  0  0
 19 10  1  0  0  0  0
 20 19  2  0  0  0  0
 21 18  1  0  0  0  0
 22 20  1  0  0  0  0
  3  4  1  0  0  0  0
 14 15  2  0  0  0  0
 21 22  2  0  0  0  0
M  END
>  <IDNUMBER>
F6237-0243

>  <Chemical_Name>
N-(5-chloro-2-hydroxyphenyl)-2-phenyl-2H-1,2,3,4-tetrazole-5-carboxamide

>  <PriceCoeff>
1.00

>  <CAS>
1396582-38-9

>  <MW>
315.71

>  <Description>
solid

>  <FSP3>
0.00

>  <clogP>
2.64

>  <TPSA>
92.93

>  <Acceptor>
5

>  <Donor>
2

>  <RotBonds>
3

>  <HAC>
22

>  <Collection>
General

>  <PPDS>
+

$$$$
F6237-2966
  Mrv2219 10102508112D          

 26 28  0  0  0  0            999 V2000
   -2.3489    4.3849    0.0000 C   0  0  0  0  0  0  0  0  0  0  0  0
   -2.0234    5.1359    0.0000 N   0  0  0  0  0  0  0  0  0  0  0  0
   -1.1974    5.0608    0.0000 N   0  0  0  0  0  0  0  0  0  0  0  0
   -1.0138    4.2598    0.0000 N   0  0  0  0  0  0  0  0  0  0  0  0
   -1.7273    3.8425    0.0000 N   0  0  0  0  0  0  0  0  0  0  0  0
   -3.1624    4.2097    0.0000 C   0  0  0  0  0  0  0  0  0  0  0  0
    1.2308    7.3263    0.0000 C   0  0  0  0  0  0  0  0  0  0  0  0
   -3.7131    4.8230    0.0000 N   0  0  0  0  0  0  0  0  0  0  0  0
   -4.2764    5.4238    0.0000 C   0  0  0  0  0  0  0  0  0  0  0  0
   -0.5883    5.6323    0.0000 C   0  0  0  0  0  0  0  0  0  0  0  0
   -4.0261    6.2123    0.0000 C   0  0  0  0  0  0  0  0  0  0  0  0
    0.6258    6.7630    0.0000 C   0  0  0  0  0  0  0  0  0  0  0  0
   -5.0774    5.2569    0.0000 C   0  0  0  0  0  0  0  0  0  0  0  0
   -3.4044    3.4295    0.0000 O   0  0  0  0  0  0  0  0  0  0  0  0
    0.2003    5.3862    0.0000 C   0  0  0  0  0  0  0  0  0  0  0  0
   -0.7718    6.4376    0.0000 C   0  0  0  0  0  0  0  0  0  0  0  0
   -0.1627    7.0008    0.0000 C   0  0  0  0  0  0  0  0  0  0  0  0
    0.8053    5.9578    0.0000 C   0  0  0  0  0  0  0  0  0  0  0  0
    0.6676    7.9270    0.0000 F   0  0  0  0  0  0  0  0  0  0  0  0
    1.7940    6.7130    0.0000 F   0  0  0  0  0  0  0  0  0  0  0  0
    1.8316    7.8895    0.0000 F   0  0  0  0  0  0  0  0  0  0  0  0
   -5.6281    5.8618    0.0000 C   0  0  0  0  0  0  0  0  0  0  0  0
   -4.5768    6.8214    0.0000 C   0  0  0  0  0  0  0  0  0  0  0  0
   -5.3778    6.6462    0.0000 C   0  0  0  0  0  0  0  0  0  0  0  0
   -4.3264    7.6016    0.0000 Cl  0  0  0  0  0  0  0  0  0  0  0  0
   -5.3278    4.4725    0.0000 O   0  0  0  0  0  0  0  0  0  0  0  0
  2  1  2  0  0  0  0
  3  2  1  0  0  0  0
  4  5  2  0  0  0  0
  5  1  1  0  0  0  0
  6  1  1  0  0  0  0
  7 12  1  0  0  0  0
  8  6  1  0  0  0  0
  9  8  1  0  0  0  0
 10  3  1  0  0  0  0
 11  9  2  0  0  0  0
 12 17  2  0  0  0  0
 13  9  1  0  0  0  0
 14  6  2  0  0  0  0
 15 10  1  0  0  0  0
 16 10  2  0  0  0  0
 17 16  1  0  0  0  0
 18 15  2  0  0  0  0
 19  7  1  0  0  0  0
 20  7  1  0  0  0  0
 21  7  1  0  0  0  0
 22 13  2  0  0  0  0
 23 11  1  0  0  0  0
 24 22  1  0  0  0  0
 25 23  1  0  0  0  0
 26 13  1  0  0  0  0
  3  4  1  0  0  0  0
 12 18  1  0  0  0  0
 23 24  2  0  0  0  0
M  END
>  <IDNUMBER>
F6237-2966

>  <Chemical_Name>
N-(5-chloro-2-hydroxyphenyl)-2-[4-(trifluoromethyl)phenyl]-2H-1,2,3,4-tetrazole-5-carboxamide

>  <PriceCoeff>
1.00

>  <CAS>
1396714-93-4

>  <MW>
383.71

>  <Description>
solid

>  <FSP3>
0.07

>  <clogP>
3.55

>  <TPSA>
92.93

>  <Acceptor>
5

>  <Donor>
2

>  <RotBonds>
3

>  <HAC>
26

>  <Collection>
General

>  <PPDS>
+

$$$$
F6237-3744
  Mrv2219 10102508112D          

 27 29  0  0  0  0            999 V2000
   -2.3583    4.4167    0.0000 C   0  0  0  0  0  0  0  0  0  0  0  0
   -2.0833    5.1708    0.0000 N   0  0  0  0  0  0  0  0  0  0  0  0
   -1.2458    5.1417    0.0000 N   0  0  0  0  0  0  0  0  0  0  0  0
   -1.0250    4.3458    0.0000 N   0  0  0  0  0  0  0  0  0  0  0  0
   -1.7208    3.9000    0.0000 N   0  0  0  0  0  0  0  0  0  0  0  0
   -3.1583    4.2042    0.0000 C   0  0  0  0  0  0  0  0  0  0  0  0
   -3.7375    4.7833    0.0000 N   0  0  0  0  0  0  0  0  0  0  0  0
    1.8542    7.2917    0.0000 C   0  0  0  0  0  0  0  0  0  0  0  0
   -4.3292    5.3667    0.0000 C   0  0  0  0  0  0  0  0  0  0  0  0
   -0.6708    5.7292    0.0000 C   0  0  0  0  0  0  0  0  0  0  0  0
   -4.1125    6.1583    0.0000 C   0  0  0  0  0  0  0  0  0  0  0  0
   -5.1208    5.1500    0.0000 C   0  0  0  0  0  0  0  0  0  0  0  0
    1.0625    7.5000    0.0000 O   0  0  0  0  0  0  0  0  0  0  0  0
   -3.3583    3.4167    0.0000 O   0  0  0  0  0  0  0  0  0  0  0  0
    0.1292    5.5292    0.0000 C   0  0  0  0  0  0  0  0  0  0  0  0
   -0.8958    6.5250    0.0000 C   0  0  0  0  0  0  0  0  0  0  0  0
   -5.7083    5.7292    0.0000 C   0  0  0  0  0  0  0  0  0  0  0  0
    2.0542    8.0958    0.0000 F   0  0  0  0  0  0  0  0  0  0  0  0
    2.6542    7.0917    0.0000 F   0  0  0  0  0  0  0  0  0  0  0  0
    1.6417    6.4917    0.0000 F   0  0  0  0  0  0  0  0  0  0  0  0
   -4.7042    6.7417    0.0000 C   0  0  0  0  0  0  0  0  0  0  0  0
    0.4875    6.9083    0.0000 C   0  0  0  0  0  0  0  0  0  0  0  0
   -5.4958    6.5292    0.0000 C   0  0  0  0  0  0  0  0  0  0  0  0
    0.7042    6.1167    0.0000 C   0  0  0  0  0  0  0  0  0  0  0  0
   -0.3125    7.1167    0.0000 C   0  0  0  0  0  0  0  0  0  0  0  0
   -4.4875    7.5333    0.0000 Cl  0  0  0  0  0  0  0  0  0  0  0  0
   -5.3333    4.3542    0.0000 O   0  0  0  0  0  0  0  0  0  0  0  0
  2  1  2  0  0  0  0
  3  2  1  0  0  0  0
  4  5  2  0  0  0  0
  5  1  1  0  0  0  0
  6  1  1  0  0  0  0
  7  6  1  0  0  0  0
  8 13  1  0  0  0  0
  9  7  1  0  0  0  0
 10  3  1  0  0  0  0
 11  9  2  0  0  0  0
 12  9  1  0  0  0  0
 13 22  1  0  0  0  0
 14  6  2  0  0  0  0
 15 10  1  0  0  0  0
 16 10  2  0  0  0  0
 17 12  2  0  0  0  0
 18  8  1  0  0  0  0
 19  8  1  0  0  0  0
 20  8  1  0  0  0  0
 21 11  1  0  0  0  0
 22 25  2  0  0  0  0
 23 17  1  0  0  0  0
 24 15  2  0  0  0  0
 25 16  1  0  0  0  0
 26 21  1  0  0  0  0
 27 12  1  0  0  0  0
  3  4  1  0  0  0  0
 22 24  1  0  0  0  0
 21 23  2  0  0  0  0
M  END
>  <IDNUMBER>
F6237-3744

>  <Chemical_Name>
N-(5-chloro-2-hydroxyphenyl)-2-[4-(trifluoromethoxy)phenyl]-2H-1,2,3,4-tetrazole-5-carboxamide

>  <PriceCoeff>
1.00

>  <CAS>
1396799-19-1

>  <MW>
399.71

>  <Description>
solid

>  <FSP3>
0.07

>  <clogP>
3.71

>  <TPSA>
102.16

>  <Acceptor>
6

>  <Donor>
2

>  <RotBonds>
4

>  <HAC>
27

>  <Collection>
General

>  <PPDS>
+

$$$$
F6240-0033
  Mrv2219 10102508112D          

 29 32  0  0  0  0            999 V2000
    6.5145    0.9768    0.0000 C   0  0  0  0  0  0  0  0  0  0  0  0
    7.1920    1.4618    0.0000 C   0  0  0  0  0  0  0  0  0  0  0  0
    7.8559    0.9665    0.0000 N   0  0  0  0  0  0  0  0  0  0  0  0
    6.7690    0.1926    0.0000 N   0  0  0  0  0  0  0  0  0  0  0  0
    7.5876    0.1823    0.0000 N   0  0  0  0  0  0  0  0  0  0  0  0
    7.2883    2.2839    0.0000 C   0  0  0  0  0  0  0  0  0  0  0  0
    5.1180    0.6810    0.0000 N   0  0  0  0  0  0  0  0  0  0  0  0
    5.7302    1.2348    0.0000 C   0  0  0  0  0  0  0  0  0  0  0  0
    3.8832   -0.4162    0.0000 N   0  0  0  0  0  0  0  0  0  0  0  0
    3.7181    0.3921    0.0000 C   0  0  0  0  0  0  0  0  0  0  0  0
    4.6640   -0.6742    0.0000 C   0  0  0  0  0  0  0  0  0  0  0  0
    8.0484    2.6071    0.0000 N   0  0  0  0  0  0  0  0  0  0  0  0
    8.6091    1.2967    0.0000 C   0  0  0  0  0  0  0  0  0  0  0  0
    4.3269    0.9390    0.0000 C   0  0  0  0  0  0  0  0  0  0  0  0
    5.2831   -0.1273    0.0000 C   0  0  0  0  0  0  0  0  0  0  0  0
    8.7123    2.1118    0.0000 C   0  0  0  0  0  0  0  0  0  0  0  0
    3.2641   -0.9631    0.0000 C   0  0  0  0  0  0  0  0  0  0  0  0
    6.6280    2.7722    0.0000 O   0  0  0  0  0  0  0  0  0  0  0  0
    5.5652    2.0396    0.0000 O   0  0  0  0  0  0  0  0  0  0  0  0
    4.8291   -1.4859    0.0000 O   0  0  0  0  0  0  0  0  0  0  0  0
    2.9339    0.6501    0.0000 O   0  0  0  0  0  0  0  0  0  0  0  0
    2.4799   -0.7051    0.0000 C   0  0  0  0  0  0  0  0  0  0  0  0
    1.8642   -1.2520    0.0000 C   0  0  0  0  0  0  0  0  0  0  0  0
    9.4656    2.4386    0.0000 C   0  0  0  0  0  0  0  0  0  0  0  0
    2.0327   -2.0569    0.0000 C   0  0  0  0  0  0  0  0  0  0  0  0
    1.0766   -0.9906    0.0000 C   0  0  0  0  0  0  0  0  0  0  0  0
    0.4678   -1.5375    0.0000 C   0  0  0  0  0  0  0  0  0  0  0  0
    1.4068   -2.6106    0.0000 C   0  0  0  0  0  0  0  0  0  0  0  0
    0.6329   -2.3458    0.0000 C   0  0  0  0  0  0  0  0  0  0  0  0
  2  1  2  0  0  0  0
  3  2  1  0  0  0  0
  4  1  1  0  0  0  0
  5  4  2  0  0  0  0
  6  2  1  0  0  0  0
  7  8  1  0  0  0  0
  8  1  1  0  0  0  0
  9 11  1  0  0  0  0
 10 14  1  0  0  0  0
 11 15  1  0  0  0  0
 12  6  1  0  0  0  0
 13  3  1  0  0  0  0
 14  7  1  0  0  0  0
 15  7  1  0  0  0  0
 16 12  1  0  0  0  0
 17  9  1  0  0  0  0
 18  6  2  0  0  0  0
 19  8  2  0  0  0  0
 20 11  2  0  0  0  0
 21 10  2  0  0  0  0
 22 17  1  0  0  0  0
 23 22  1  0  0  0  0
 24 16  1  0  0  0  0
 25 23  1  0  0  0  0
 26 23  2  0  0  0  0
 27 26  1  0  0  0  0
 28 25  2  0  0  0  0
 29 27  2  0  0  0  0
  5  3  1  0  0  0  0
  9 10  1  0  0  0  0
 13 16  2  0  0  0  0
 29 28  1  0  0  0  0
M  END
>  <IDNUMBER>
F6240-0033

>  <Chemical_Name>
4-{6-methyl-4-oxo-4H,5H-[1,2,3]triazolo[1,5-a]pyrazine-3-carbonyl}-1-(2-phenylethyl)piperazine-2,6-dione

>  <PriceCoeff>
1.00

>  <CAS>
1795299-47-6

>  <MW>
394.38

>  <Description>
solid

>  <FSP3>
0.26

>  <clogP>
0.36

>  <TPSA>
117.50

>  <Acceptor>
6

>  <Donor>
1

>  <RotBonds>
5

>  <HAC>
29

>  <Collection>
General

>  <PPDS>
+

$$$$
F6241-0243
  Mrv2219 10102508112D          

 25 27  0  0  0  0            999 V2000
   -2.3524    2.0787    0.0000 N   0  0  0  0  0  0  0  0  0  0  0  0
   -1.6376    2.4830    0.0000 C   0  0  0  0  0  0  0  0  0  0  0  0
   -0.9270    2.0706    0.0000 C   0  0  0  0  0  0  0  0  0  0  0  0
   -0.2042    2.4830    0.0000 N   0  0  0  0  0  0  0  0  0  0  0  0
   -3.0589    2.4830    0.0000 C   0  0  0  0  0  0  0  0  0  0  0  0
    0.5187    2.8996    0.0000 C   0  0  0  0  0  0  0  0  0  0  0  0
   -2.3524    1.2497    0.0000 C   0  0  0  0  0  0  0  0  0  0  0  0
    1.2293    2.4830    0.0000 C   0  0  0  0  0  0  0  0  0  0  0  0
    0.5187    3.7327    0.0000 C   0  0  0  0  0  0  0  0  0  0  0  0
   -0.9270    1.2456    0.0000 O   0  0  0  0  0  0  0  0  0  0  0  0
   -2.3524    3.7246    0.0000 O   0  0  0  0  0  0  0  0  0  0  0  0
   -3.7817    2.0706    0.0000 O   0  0  0  0  0  0  0  0  0  0  0  0
   -1.6376    3.3080    0.0000 C   0  0  0  0  0  0  0  0  0  0  0  0
    1.2375    4.1330    0.0000 C   0  0  0  0  0  0  0  0  0  0  0  0
    1.9481    2.8996    0.0000 C   0  0  0  0  0  0  0  0  0  0  0  0
   -3.0589    3.3080    0.0000 C   0  0  0  0  0  0  0  0  0  0  0  0
   -3.0630    0.8413    0.0000 C   0  0  0  0  0  0  0  0  0  0  0  0
    1.9522    3.7246    0.0000 C   0  0  0  0  0  0  0  0  0  0  0  0
    2.6628    2.4749    0.0000 Cl  0  0  0  0  0  0  0  0  0  0  0  0
   -0.2042    4.1453    0.0000 O   0  0  0  0  0  0  0  0  0  0  0  0
   -3.0589    0.0204    0.0000 C   0  0  0  0  0  0  0  0  0  0  0  0
   -3.7817    1.2578    0.0000 C   0  0  0  0  0  0  0  0  0  0  0  0
   -4.4924    0.8454    0.0000 C   0  0  0  0  0  0  0  0  0  0  0  0
   -3.7736   -0.3921    0.0000 C   0  0  0  0  0  0  0  0  0  0  0  0
   -4.4924    0.0204    0.0000 C   0  0  0  0  0  0  0  0  0  0  0  0
  2  1  1  0  0  0  0
  3  2  1  0  0  0  0
  4  3  1  0  0  0  0
  5  1  1  0  0  0  0
  6  4  1  0  0  0  0
  7  1  1  0  0  0  0
  8  6  2  0  0  0  0
  9  6  1  0  0  0  0
 10  3  2  0  0  0  0
 11 16  1  0  0  0  0
 12  5  2  0  0  0  0
 13  2  1  0  0  0  0
 14  9  2  0  0  0  0
 15  8  1  0  0  0  0
 16  5  1  0  0  0  0
 17  7  1  0  0  0  0
 18 14  1  0  0  0  0
 19 15  1  0  0  0  0
 20  9  1  0  0  0  0
 21 17  1  0  0  0  0
 22 17  2  0  0  0  0
 23 22  1  0  0  0  0
 24 21  2  0  0  0  0
 25 23  2  0  0  0  0
 13 11  1  0  0  0  0
 25 24  1  0  0  0  0
 15 18  2  0  0  0  0
M  END
>  <IDNUMBER>
F6241-0243

>  <Chemical_Name>
4-benzyl-N-(5-chloro-2-hydroxyphenyl)-5-oxomorpholine-3-carboxamide

>  <PriceCoeff>
1.00

>  <CAS>
1351589-24-6

>  <MW>
360.79

>  <Description>
solid

>  <FSP3>
0.22

>  <clogP>
3.38

>  <TPSA>
78.87

>  <Acceptor>
4

>  <Donor>
2

>  <RotBonds>
4

>  <HAC>
25

>  <Collection>
General

>  <PPDS>
+

$$$$
F6244-1336
  Mrv2219 10102508112D          

 23 25  0  0  0  0            999 V2000
    1.1536   -0.3165    0.0000 C   0  0  0  0  0  0  0  0  0  0  0  0
   -3.1485    2.9568    0.0000 C   0  0  0  0  0  0  0  0  0  0  0  0
   -2.4363    3.3733    0.0000 C   0  0  0  0  0  0  0  0  0  0  0  0
   -1.0078    2.5570    0.0000 C   0  0  0  0  0  0  0  0  0  0  0  0
   -0.2957    2.1447    0.0000 C   0  0  0  0  0  0  0  0  0  0  0  0
   -4.5810    2.9568    0.0000 N   0  0  0  0  0  0  0  0  0  0  0  0
    1.8658    0.1000    0.0000 C   0  0  0  0  0  0  0  0  0  0  0  0
    1.3368   -1.1286    0.0000 O   0  0  0  0  0  0  0  0  0  0  0  0
   -0.2957    1.3202    0.0000 C   0  0  0  0  0  0  0  0  0  0  0  0
    2.4863   -0.4498    0.0000 O   0  0  0  0  0  0  0  0  0  0  0  0
    2.1656   -1.2036    0.0000 C   0  0  0  0  0  0  0  0  0  0  0  0
    0.4290    0.0875    0.0000 C   0  0  0  0  0  0  0  0  0  0  0  0
   -1.7200    2.1406    0.0000 O   0  0  0  0  0  0  0  0  0  0  0  0
    0.4290    0.9121    0.0000 C   0  0  0  0  0  0  0  0  0  0  0  0
    1.8616    0.9328    0.0000 C   0  0  0  0  0  0  0  0  0  0  0  0
   -1.0078    3.3816    0.0000 N   0  0  0  0  0  0  0  0  0  0  0  0
   -3.8606    2.5445    0.0000 C   0  0  0  0  0  0  0  0  0  0  0  0
    1.1411    1.3326    0.0000 C   0  0  0  0  0  0  0  0  0  0  0  0
   -1.7242    3.7939    0.0000 C   0  0  0  0  0  0  0  0  0  0  0  0
   -5.3307    2.6195    0.0000 C   0  0  0  0  0  0  0  0  0  0  0  0
   -4.6685    3.7814    0.0000 C   0  0  0  0  0  0  0  0  0  0  0  0
   -5.4723    3.9523    0.0000 C   0  0  0  0  0  0  0  0  0  0  0  0
   -5.8888    3.2317    0.0000 C   0  0  0  0  0  0  0  0  0  0  0  0
  2  3  3  0  0  0  0
  3 19  1  0  0  0  0
  4  5  1  0  0  0  0
  5  9  2  0  0  0  0
  6 17  1  0  0  0  0
  7  1  1  0  0  0  0
  8  1  1  0  0  0  0
  9 14  1  0  0  0  0
 10  7  1  0  0  0  0
 11  8  1  0  0  0  0
 12  1  2  0  0  0  0
 13  4  2  0  0  0  0
 14 12  1  0  0  0  0
 15  7  2  0  0  0  0
 16  4  1  0  0  0  0
 17  2  1  0  0  0  0
 18 14  2  0  0  0  0
 19 16  1  0  0  0  0
 20  6  1  0  0  0  0
 21  6  1  0  0  0  0
 22 21  1  0  0  0  0
 23 20  1  0  0  0  0
 10 11  1  0  0  0  0
 18 15  1  0  0  0  0
 22 23  1  0  0  0  0
M  END
>  <IDNUMBER>
F6244-1336

>  <Chemical_Name>
(2E)-3-(2H-1,3-benzodioxol-5-yl)-N-[4-(pyrrolidin-1-yl)but-2-yn-1-yl]prop-2-enamide

>  <PriceCoeff>
1.00

>  <CAS>
1396890-94-0

>  <MW>
312.36

>  <Description>
solid

>  <FSP3>
0.39

>  <clogP>
3.40

>  <TPSA>
50.80

>  <Acceptor>
3

>  <Donor>
2

>  <RotBonds>
5

>  <HAC>
23

>  <Collection>
General

>  <PPDS>
+

$$$$
F6244-3126
  Mrv2219 10102508112D          

 28 30  0  0  0  0            999 V2000
   -1.7788    0.5148    0.0000 N   0  0  0  0  0  0  0  0  0  0  0  0
   -1.0128    2.5698    0.0000 S   0  0  0  0  0  0  0  0  0  0  0  0
   -2.5112    0.1214    0.0000 C   0  0  0  0  0  0  0  0  0  0  0  0
   -1.0673    0.0837    0.0000 C   0  0  0  0  0  0  0  0  0  0  0  0
   -1.0296    1.7411    0.0000 C   0  0  0  0  0  0  0  0  0  0  0  0
   -1.7537    1.3518    0.0000 C   0  0  0  0  0  0  0  0  0  0  0  0
   -4.6039    2.9716    0.0000 N   0  0  0  0  0  0  0  0  0  0  0  0
   -3.1642    2.9716    0.0000 C   0  0  0  0  0  0  0  0  0  0  0  0
   -2.4484    3.3902    0.0000 C   0  0  0  0  0  0  0  0  0  0  0  0
   -0.1841    2.5572    0.0000 O   0  0  0  0  0  0  0  0  0  0  0  0
   -1.8165    2.8084    0.0000 O   0  0  0  0  0  0  0  0  0  0  0  0
   -6.0396    2.9675    0.0000 C   0  0  0  0  0  0  0  0  0  0  0  0
   -5.3238    2.5572    0.0000 C   0  0  0  0  0  0  0  0  0  0  0  0
   -1.0128    3.3986    0.0000 N   0  0  0  0  0  0  0  0  0  0  0  0
   -6.0396    3.8003    0.0000 C   0  0  0  0  0  0  0  0  0  0  0  0
   -0.3348    0.4855    0.0000 O   0  0  0  0  0  0  0  0  0  0  0  0
   -3.2228    0.5525    0.0000 O   0  0  0  0  0  0  0  0  0  0  0  0
   -5.3322    4.2189    0.0000 C   0  0  0  0  0  0  0  0  0  0  0  0
   -4.6039    3.8128    0.0000 C   0  0  0  0  0  0  0  0  0  0  0  0
   -3.8799    2.5572    0.0000 C   0  0  0  0  0  0  0  0  0  0  0  0
   -1.7328    3.8128    0.0000 C   0  0  0  0  0  0  0  0  0  0  0  0
   -1.0882   -0.7409    0.0000 C   0  0  0  0  0  0  0  0  0  0  0  0
   -2.5196   -0.7032    0.0000 C   0  0  0  0  0  0  0  0  0  0  0  0
   -1.8165   -1.1343    0.0000 C   0  0  0  0  0  0  0  0  0  0  0  0
   -6.7470    2.5572    0.0000 C   0  0  0  0  0  0  0  0  0  0  0  0
   -6.7595    4.1980    0.0000 C   0  0  0  0  0  0  0  0  0  0  0  0
   -7.4626    2.9675    0.0000 C   0  0  0  0  0  0  0  0  0  0  0  0
   -7.4710    3.7920    0.0000 C   0  0  0  0  0  0  0  0  0  0  0  0
  2  5  1  0  0  0  0
  3  1  1  0  0  0  0
  4  1  1  0  0  0  0
  5  6  1  0  0  0  0
  6  1  1  0  0  0  0
  7 20  1  0  0  0  0
  8  9  3  0  0  0  0
  9 21  1  0  0  0  0
 10  2  2  0  0  0  0
 11  2  2  0  0  0  0
 12 13  1  0  0  0  0
 13  7  1  0  0  0  0
 14  2  1  0  0  0  0
 15 18  1  0  0  0  0
 16  4  2  0  0  0  0
 17  3  2  0  0  0  0
 18 19  1  0  0  0  0
 19  7  1  0  0  0  0
 20  8  1  0  0  0  0
 21 14  1  0  0  0  0
 22  4  1  0  0  0  0
 23  3  1  0  0  0  0
 24 22  1  0  0  0  0
 25 12  2  0  0  0  0
 26 15  2  0  0  0  0
 27 25  1  0  0  0  0
 28 26  1  0  0  0  0
 24 23  1  0  0  0  0
 15 12  1  0  0  0  0
 28 27  2  0  0  0  0
M  END
>  <IDNUMBER>
F6244-3126

>  <Chemical_Name>
2-(2,6-dioxopiperidin-1-yl)-N-[4-(1,2,3,4-tetrahydroisoquinolin-2-yl)but-2-yn-1-yl]ethane-1-sulfonamide

>  <PriceCoeff>
1.50

>  <CAS>
1396803-16-9

>  <MW>
403.50

>  <Description>
solid

>  <FSP3>
0.50

>  <clogP>
2.38

>  <TPSA>
95.17

>  <Acceptor>
4

>  <Donor>
2

>  <RotBonds>
7

>  <HAC>
28

>  <Collection>
Advanced

>  <PPDS>
+

$$$$
F6245-0328
  Mrv2219 10102508112D          

 26 28  0  0  0  0            999 V2000
    0.2906    5.7789    0.0000 C   0  0  0  0  0  0  0  0  0  0  0  0
   -0.2654    5.1597    0.0000 O   0  0  0  0  0  0  0  0  0  0  0  0
   -0.1221    6.4991    0.0000 N   0  0  0  0  0  0  0  0  0  0  0  0
   -0.9435    6.3306    0.0000 N   0  0  0  0  0  0  0  0  0  0  0  0
   -1.0319    5.5009    0.0000 C   0  0  0  0  0  0  0  0  0  0  0  0
   -3.9129    3.8413    0.0000 C   0  0  0  0  0  0  0  0  0  0  0  0
    1.1162    5.6904    0.0000 C   0  0  0  0  0  0  0  0  0  0  0  0
   -3.1927    4.2499    0.0000 N   0  0  0  0  0  0  0  0  0  0  0  0
   -3.8497    3.0284    0.0000 N   0  0  0  0  0  0  0  0  0  0  0  0
   -5.9473    2.4640    0.0000 C   0  0  0  0  0  0  0  0  0  0  0  0
   -5.2650    2.9273    0.0000 C   0  0  0  0  0  0  0  0  0  0  0  0
   -1.7438    5.0839    0.0000 C   0  0  0  0  0  0  0  0  0  0  0  0
   -4.5321    2.5651    0.0000 C   0  0  0  0  0  0  0  0  0  0  0  0
   -4.7132    4.3763    0.0000 O   0  0  0  0  0  0  0  0  0  0  0  0
   -5.8841    1.6511    0.0000 C   0  0  0  0  0  0  0  0  0  0  0  0
   -2.4724    3.8497    0.0000 C   0  0  0  0  0  0  0  0  0  0  0  0
   -3.1843    5.0839    0.0000 C   0  0  0  0  0  0  0  0  0  0  0  0
    1.5711    6.3854    0.0000 F   0  0  0  0  0  0  0  0  0  0  0  0
    1.9502    5.6483    0.0000 F   0  0  0  0  0  0  0  0  0  0  0  0
    1.2889    4.8691    0.0000 F   0  0  0  0  0  0  0  0  0  0  0  0
   -1.7522    4.2499    0.0000 C   0  0  0  0  0  0  0  0  0  0  0  0
   -2.4724    5.5009    0.0000 C   0  0  0  0  0  0  0  0  0  0  0  0
   -5.1512    1.2846    0.0000 C   0  0  0  0  0  0  0  0  0  0  0  0
   -6.6634    2.8178    0.0000 Cl  0  0  0  0  0  0  0  0  0  0  0  0
   -4.4689    1.7522    0.0000 C   0  0  0  0  0  0  0  0  0  0  0  0
   -6.5497    1.1835    0.0000 Cl  0  0  0  0  0  0  0  0  0  0  0  0
  2  1  1  0  0  0  0
  3  1  2  0  0  0  0
  4  3  1  0  0  0  0
  5  2  1  0  0  0  0
  6  8  1  0  0  0  0
  7  1  1  0  0  0  0
  8 17  1  0  0  0  0
  9  6  1  0  0  0  0
 10 11  1  0  0  0  0
 11 13  2  0  0  0  0
 12  5  1  0  0  0  0
 13  9  1  0  0  0  0
 14  6  2  0  0  0  0
 15 23  1  0  0  0  0
 16 21  1  0  0  0  0
 17 22  1  0  0  0  0
 18  7  1  0  0  0  0
 19  7  1  0  0  0  0
 20  7  1  0  0  0  0
 21 12  1  0  0  0  0
 22 12  1  0  0  0  0
 23 25  2  0  0  0  0
 24 10  1  0  0  0  0
 25 13  1  0  0  0  0
 26 15  1  0  0  0  0
  5  4  2  0  0  0  0
 16  8  1  0  0  0  0
 10 15  2  0  0  0  0
M  END
>  <IDNUMBER>
F6245-0328

>  <Chemical_Name>
N-(3,4-dichlorophenyl)-4-[5-(trifluoromethyl)-1,3,4-oxadiazol-2-yl]piperidine-1-carboxamide

>  <PriceCoeff>
1.50

>  <CAS>
1396852-53-1

>  <MW>
409.19

>  <Description>
solid

>  <FSP3>
0.40

>  <clogP>
2.34

>  <TPSA>
71.26

>  <Acceptor>
4

>  <Donor>
1

>  <RotBonds>
3

>  <HAC>
26

>  <Collection>
Advanced

>  <PPDS>
+

$$$$
F6245-4960
  Mrv2219 10102508112D          

 29 32  0  0  0  0            999 V2000
   -1.7829    6.7557    0.0000 N   0  0  0  0  0  0  0  0  0  0  0  0
   -2.4426    6.2755    0.0000 C   0  0  0  0  0  0  0  0  0  0  0  0
   -3.1064    6.7557    0.0000 N   0  0  0  0  0  0  0  0  0  0  0  0
   -2.0250    7.5448    0.0000 C   0  0  0  0  0  0  0  0  0  0  0  0
   -4.6053    5.0437    0.0000 N   0  0  0  0  0  0  0  0  0  0  0  0
   -2.8517    7.5448    0.0000 N   0  0  0  0  0  0  0  0  0  0  0  0
   -2.4509    5.4488    0.0000 C   0  0  0  0  0  0  0  0  0  0  0  0
   -3.1648    4.2129    0.0000 N   0  0  0  0  0  0  0  0  0  0  0  0
   -3.8788    3.8079    0.0000 C   0  0  0  0  0  0  0  0  0  0  0  0
   -4.5928    4.2212    0.0000 C   0  0  0  0  0  0  0  0  0  0  0  0
   -3.9289    5.5281    0.0000 C   0  0  0  0  0  0  0  0  0  0  0  0
   -5.2692    5.5156    0.0000 C   0  0  0  0  0  0  0  0  0  0  0  0
   -3.1648    5.0396    0.0000 C   0  0  0  0  0  0  0  0  0  0  0  0
   -0.9895    6.4926    0.0000 C   0  0  0  0  0  0  0  0  0  0  0  0
   -1.5365    8.2087    0.0000 O   0  0  0  0  0  0  0  0  0  0  0  0
   -3.8788    2.9895    0.0000 O   0  0  0  0  0  0  0  0  0  0  0  0
   -5.0271    6.3047    0.0000 C   0  0  0  0  0  0  0  0  0  0  0  0
   -4.1962    6.3173    0.0000 C   0  0  0  0  0  0  0  0  0  0  0  0
   -6.0417    5.2526    0.0000 O   0  0  0  0  0  0  0  0  0  0  0  0
   -3.1523    5.2776    0.0000 O   0  0  0  0  0  0  0  0  0  0  0  0
   -3.3319    8.2087    0.0000 C   0  0  0  0  0  0  0  0  0  0  0  0
   -2.4509    3.8079    0.0000 C   0  0  0  0  0  0  0  0  0  0  0  0
   -1.7369    5.0354    0.0000 C   0  0  0  0  0  0  0  0  0  0  0  0
   -1.7369    4.2129    0.0000 C   0  0  0  0  0  0  0  0  0  0  0  0
   -0.3841    7.0438    0.0000 C   0  0  0  0  0  0  0  0  0  0  0  0
   -0.8267    5.6826    0.0000 C   0  0  0  0  0  0  0  0  0  0  0  0
    0.4050    6.7890    0.0000 C   0  0  0  0  0  0  0  0  0  0  0  0
   -0.0459    5.4195    0.0000 C   0  0  0  0  0  0  0  0  0  0  0  0
    0.5804    5.9749    0.0000 C   0  0  0  0  0  0  0  0  0  0  0  0
  2  1  1  0  0  0  0
  3  2  2  0  0  0  0
  4  1  1  0  0  0  0
  5 10  1  0  0  0  0
  6  4  1  0  0  0  0
  7  2  1  0  0  0  0
  8 13  1  0  0  0  0
  9  8  1  0  0  0  0
 10  9  1  0  0  0  0
 11  5  1  0  0  0  0
 12  5  1  0  0  0  0
 13  7  1  0  0  0  0
 14  1  1  0  0  0  0
 15  4  2  0  0  0  0
 16  9  2  0  0  0  0
 17 12  1  0  0  0  0
 18 11  1  0  0  0  0
 19 12  2  0  0  0  0
 20 11  2  0  0  0  0
 21  6  1  0  0  0  0
 22 24  1  0  0  0  0
 23  7  1  0  0  0  0
 24 23  1  0  0  0  0
 25 14  1  0  0  0  0
 26 14  2  0  0  0  0
 27 25  2  0  0  0  0
 28 26  1  0  0  0  0
 29 28  2  0  0  0  0
  3  6  1  0  0  0  0
 27 29  1  0  0  0  0
 22  8  1  0  0  0  0
 17 18  1  0  0  0  0
M  END
>  <IDNUMBER>
F6245-4960

>  <Chemical_Name>
1-{2-[3-(1-methyl-5-oxo-4-phenyl-4,5-dihydro-1H-1,2,4-triazol-3-yl)piperidin-1-yl]-2-oxoethyl}pyrrolidine-2,5-dione

>  <PriceCoeff>
1.50

>  <CAS>
1396853-18-1

>  <MW>
397.43

>  <Description>
oil

>  <FSP3>
0.45

>  <clogP>
0.64

>  <TPSA>
93.60

>  <Acceptor>
5

>  <Donor>
0

>  <RotBonds>
5

>  <HAC>
29

>  <Collection>
Advanced

>  <PPDS>
+

$$$$
F6245-7288
  Mrv2219 10102508112D          

 28 31  0  0  0  0            999 V2000
   -2.8977    7.5176    0.0000 N   0  0  0  0  0  0  0  0  0  0  0  0
   -2.0722    7.5384    0.0000 C   0  0  0  0  0  0  0  0  0  0  0  0
   -3.1229    6.7213    0.0000 C   0  0  0  0  0  0  0  0  0  0  0  0
   -1.7970    6.7713    0.0000 N   0  0  0  0  0  0  0  0  0  0  0  0
   -2.4350    6.2584    0.0000 N   0  0  0  0  0  0  0  0  0  0  0  0
   -4.5989    5.0367    0.0000 N   0  0  0  0  0  0  0  0  0  0  0  0
   -1.6219    8.2263    0.0000 C   0  0  0  0  0  0  0  0  0  0  0  0
   -3.9234    5.5205    0.0000 C   0  0  0  0  0  0  0  0  0  0  0  0
   -5.2619    5.5079    0.0000 C   0  0  0  0  0  0  0  0  0  0  0  0
   -1.5719    9.0561    0.0000 C   0  0  0  0  0  0  0  0  0  0  0  0
   -0.8839    8.5933    0.0000 C   0  0  0  0  0  0  0  0  0  0  0  0
   -4.5864    4.2154    0.0000 C   0  0  0  0  0  0  0  0  0  0  0  0
   -3.4649    8.1097    0.0000 C   0  0  0  0  0  0  0  0  0  0  0  0
   -3.8734    3.8025    0.0000 C   0  0  0  0  0  0  0  0  0  0  0  0
   -3.8984    6.4336    0.0000 O   0  0  0  0  0  0  0  0  0  0  0  0
   -4.1903    6.3085    0.0000 C   0  0  0  0  0  0  0  0  0  0  0  0
   -5.0201    6.2960    0.0000 C   0  0  0  0  0  0  0  0  0  0  0  0
   -3.1479    5.2703    0.0000 O   0  0  0  0  0  0  0  0  0  0  0  0
   -6.0333    5.2452    0.0000 O   0  0  0  0  0  0  0  0  0  0  0  0
   -2.4475    5.4454    0.0000 C   0  0  0  0  0  0  0  0  0  0  0  0
   -3.8734    2.9853    0.0000 O   0  0  0  0  0  0  0  0  0  0  0  0
   -3.1604    4.2070    0.0000 N   0  0  0  0  0  0  0  0  0  0  0  0
   -3.1604    5.0326    0.0000 C   0  0  0  0  0  0  0  0  0  0  0  0
   -4.2612    7.9096    0.0000 C   0  0  0  0  0  0  0  0  0  0  0  0
   -3.2272    8.9061    0.0000 C   0  0  0  0  0  0  0  0  0  0  0  0
   -3.7983    9.4981    0.0000 C   0  0  0  0  0  0  0  0  0  0  0  0
   -4.8324    8.5100    0.0000 C   0  0  0  0  0  0  0  0  0  0  0  0
   -4.6032    9.3063    0.0000 C   0  0  0  0  0  0  0  0  0  0  0  0
  2  1  1  0  0  0  0
  3  1  1  0  0  0  0
  4  2  2  0  0  0  0
  5  3  1  0  0  0  0
  6 12  1  0  0  0  0
  7  2  1  0  0  0  0
  8  6  1  0  0  0  0
  9  6  1  0  0  0  0
 10  7  1  0  0  0  0
 11  7  1  0  0  0  0
 12 14  1  0  0  0  0
 13  1  1  0  0  0  0
 14 22  1  0  0  0  0
 15  3  2  0  0  0  0
 16  8  1  0  0  0  0
 17  9  1  0  0  0  0
 18  8  2  0  0  0  0
 19  9  2  0  0  0  0
 20  5  1  0  0  0  0
 21 14  2  0  0  0  0
 22 23  1  0  0  0  0
 23 20  1  0  0  0  0
 24 13  1  0  0  0  0
 25 13  2  0  0  0  0
 26 25  1  0  0  0  0
 27 24  2  0  0  0  0
 28 26  2  0  0  0  0
  4  5  1  0  0  0  0
 11 10  1  0  0  0  0
 28 27  1  0  0  0  0
 17 16  1  0  0  0  0
M  END
>  <IDNUMBER>
F6245-7288

>  <Chemical_Name>
N-[2-(3-cyclopropyl-5-oxo-4-phenyl-4,5-dihydro-1H-1,2,4-triazol-1-yl)ethyl]-2-(2,5-dioxopyrrolidin-1-yl)acetamide

>  <PriceCoeff>
1.00

>  <CAS>
1396853-44-3

>  <MW>
383.40

>  <Description>
solid

>  <FSP3>
0.42

>  <clogP>
1.24

>  <TPSA>
102.39

>  <Acceptor>
5

>  <Donor>
1

>  <RotBonds>
7

>  <HAC>
28

>  <Collection>
General

>  <PPDS>
+

$$$$
F6246-3077
  Mrv2219 10102508112D          

 27 28  0  0  0  0            999 V2000
   -2.0842    7.5834    0.0000 C   0  0  0  0  0  0  0  0  0  0  0  0
   -2.9086    7.5500    0.0000 N   0  0  0  0  0  0  0  0  0  0  0  0
   -1.8037    6.8092    0.0000 N   0  0  0  0  0  0  0  0  0  0  0  0
   -3.1346    6.7505    0.0000 C   0  0  0  0  0  0  0  0  0  0  0  0
   -2.4441    6.2945    0.0000 N   0  0  0  0  0  0  0  0  0  0  0  0
   -6.0308    3.4611    0.0000 N   0  0  0  0  0  0  0  0  0  0  0  0
   -3.8879    3.8168    0.0000 S   0  0  0  0  0  0  0  0  0  0  0  0
   -1.6279    8.2740    0.0000 C   0  0  0  0  0  0  0  0  0  0  0  0
   -6.7339    3.8921    0.0000 C   0  0  0  0  0  0  0  0  0  0  0  0
   -6.0517    2.6324    0.0000 C   0  0  0  0  0  0  0  0  0  0  0  0
   -4.6120    3.4234    0.0000 C   0  0  0  0  0  0  0  0  0  0  0  0
   -5.3067    3.8503    0.0000 C   0  0  0  0  0  0  0  0  0  0  0  0
   -3.9130    6.4703    0.0000 O   0  0  0  0  0  0  0  0  0  0  0  0
   -3.4904    3.0970    0.0000 O   0  0  0  0  0  0  0  0  0  0  0  0
   -4.0888    4.6246    0.0000 O   0  0  0  0  0  0  0  0  0  0  0  0
   -3.1723    4.2228    0.0000 N   0  0  0  0  0  0  0  0  0  0  0  0
   -2.4567    5.4742    0.0000 C   0  0  0  0  0  0  0  0  0  0  0  0
   -5.3444    2.1972    0.0000 O   0  0  0  0  0  0  0  0  0  0  0  0
   -6.7171    4.7124    0.0000 O   0  0  0  0  0  0  0  0  0  0  0  0
   -1.0798    7.6504    0.0000 F   0  0  0  0  0  0  0  0  0  0  0  0
   -0.8035    8.2238    0.0000 F   0  0  0  0  0  0  0  0  0  0  0  0
   -1.9921    9.0147    0.0000 F   0  0  0  0  0  0  0  0  0  0  0  0
   -3.1723    5.0556    0.0000 C   0  0  0  0  0  0  0  0  0  0  0  0
   -3.4862    8.1484    0.0000 C   0  0  0  0  0  0  0  0  0  0  0  0
   -6.7715    2.2349    0.0000 C   0  0  0  0  0  0  0  0  0  0  0  0
   -7.4496    3.4947    0.0000 C   0  0  0  0  0  0  0  0  0  0  0  0
   -7.4747    2.6700    0.0000 C   0  0  0  0  0  0  0  0  0  0  0  0
  2  1  1  0  0  0  0
  3  1  2  0  0  0  0
  4  2  1  0  0  0  0
  5  3  1  0  0  0  0
  6 12  1  0  0  0  0
  7 16  1  0  0  0  0
  8  1  1  0  0  0  0
  9  6  1  0  0  0  0
 10  6  1  0  0  0  0
 11  7  1  0  0  0  0
 12 11  1  0  0  0  0
 13  4  2  0  0  0  0
 14  7  2  0  0  0  0
 15  7  2  0  0  0  0
 16 23  1  0  0  0  0
 17  5  1  0  0  0  0
 18 10  2  0  0  0  0
 19  9  2  0  0  0  0
 20  8  1  0  0  0  0
 21  8  1  0  0  0  0
 22  8  1  0  0  0  0
 23 17  1  0  0  0  0
 24  2  1  0  0  0  0
 25 10  1  0  0  0  0
 26  9  1  0  0  0  0
 27 25  1  0  0  0  0
  5  4  1  0  0  0  0
 26 27  1  0  0  0  0
M  END
>  <IDNUMBER>
F6246-3077

>  <Chemical_Name>
2-(2,6-dioxopiperidin-1-yl)-N-{2-[4-methyl-5-oxo-3-(trifluoromethyl)-4,5-dihydro-1H-1,2,4-triazol-1-yl]ethyl}ethane-1-sulfonamide

>  <PriceCoeff>
1.50

>  <CAS>
1421491-29-3

>  <MW>
413.37

>  <Description>
oil

>  <FSP3>
0.69

>  <clogP>
0.55

>  <TPSA>
127.84

>  <Acceptor>
6

>  <Donor>
1

>  <RotBonds>
7

>  <HAC>
27

>  <Collection>
Advanced

>  <PPDS>
+

$$$$
F6250-0278
  Mrv2219 10102508112D          

 30 32  0  0  0  0            999 V2000
   -3.8858    3.8147    0.0000 S   0  0  0  0  0  0  0  0  0  0  0  0
   -6.0274    3.4591    0.0000 N   0  0  0  0  0  0  0  0  0  0  0  0
   -4.5885    7.5289    0.0000 C   0  0  0  0  0  0  0  0  0  0  0  0
   -6.7301    3.8900    0.0000 C   0  0  0  0  0  0  0  0  0  0  0  0
   -6.0483    2.6309    0.0000 C   0  0  0  0  0  0  0  0  0  0  0  0
   -4.6095    3.4215    0.0000 C   0  0  0  0  0  0  0  0  0  0  0  0
   -5.3037    3.8481    0.0000 C   0  0  0  0  0  0  0  0  0  0  0  0
   -3.1705    4.2204    0.0000 N   0  0  0  0  0  0  0  0  0  0  0  0
   -5.3037    7.9473    0.0000 N   0  0  0  0  0  0  0  0  0  0  0  0
   -3.4884    3.0952    0.0000 O   0  0  0  0  0  0  0  0  0  0  0  0
   -4.0865    4.6220    0.0000 O   0  0  0  0  0  0  0  0  0  0  0  0
   -4.6010    6.7050    0.0000 O   0  0  0  0  0  0  0  0  0  0  0  0
   -3.8732    7.9347    0.0000 O   0  0  0  0  0  0  0  0  0  0  0  0
   -5.3414    2.1959    0.0000 O   0  0  0  0  0  0  0  0  0  0  0  0
   -6.7133    4.7099    0.0000 O   0  0  0  0  0  0  0  0  0  0  0  0
   -3.8900    5.4585    0.0000 C   0  0  0  0  0  0  0  0  0  0  0  0
   -3.1705    5.0486    0.0000 C   0  0  0  0  0  0  0  0  0  0  0  0
   -3.8858    6.2909    0.0000 C   0  0  0  0  0  0  0  0  0  0  0  0
   -5.3037    8.7755    0.0000 C   0  0  0  0  0  0  0  0  0  0  0  0
   -6.7677    2.2335    0.0000 C   0  0  0  0  0  0  0  0  0  0  0  0
   -7.4454    3.4926    0.0000 C   0  0  0  0  0  0  0  0  0  0  0  0
   -7.4704    2.6686    0.0000 C   0  0  0  0  0  0  0  0  0  0  0  0
   -2.4552    6.2867    0.0000 C   0  0  0  0  0  0  0  0  0  0  0  0
   -2.4552    5.4627    0.0000 C   0  0  0  0  0  0  0  0  0  0  0  0
   -3.1705    6.7007    0.0000 C   0  0  0  0  0  0  0  0  0  0  0  0
   -6.0189    9.1896    0.0000 C   0  0  0  0  0  0  0  0  0  0  0  0
   -4.5801    9.1854    0.0000 C   0  0  0  0  0  0  0  0  0  0  0  0
   -4.5801   10.0052    0.0000 C   0  0  0  0  0  0  0  0  0  0  0  0
   -6.0189   10.0136    0.0000 C   0  0  0  0  0  0  0  0  0  0  0  0
   -5.2912   10.4234    0.0000 C   0  0  0  0  0  0  0  0  0  0  0  0
  2  7  1  0  0  0  0
  3 12  1  0  0  0  0
  4  2  1  0  0  0  0
  5  2  1  0  0  0  0
  6  1  1  0  0  0  0
  7  6  1  0  0  0  0
  8  1  1  0  0  0  0
  9  3  1  0  0  0  0
 10  1  2  0  0  0  0
 11  1  2  0  0  0  0
 12 18  1  0  0  0  0
 13  3  2  0  0  0  0
 14  5  2  0  0  0  0
 15  4  2  0  0  0  0
 16 17  1  0  0  0  0
 17  8  1  0  0  0  0
 18 16  1  0  0  0  0
 19  9  1  0  0  0  0
 20  5  1  0  0  0  0
 21  4  1  0  0  0  0
 22 20  1  0  0  0  0
 23 24  1  0  0  0  0
 24 17  1  0  0  0  0
 25 23  1  0  0  0  0
 26 19  1  0  0  0  0
 27 19  2  0  0  0  0
 28 27  1  0  0  0  0
 29 26  2  0  0  0  0
 30 28  2  0  0  0  0
 18 25  1  0  0  0  0
 22 21  1  0  0  0  0
 30 29  1  0  0  0  0
M  END
>  <IDNUMBER>
F6250-0278

>  <Chemical_Name>
3-[2-(2,6-dioxopiperidin-1-yl)ethanesulfonamido]cyclohexyl N-phenylcarbamate

>  <PriceCoeff>
1.00

>  <CAS>
1396857-41-2

>  <MW>
437.51

>  <Description>
solid

>  <FSP3>
0.55

>  <clogP>
2.57

>  <TPSA>
130.26

>  <Acceptor>
6

>  <Donor>
2

>  <RotBonds>
8

>  <HAC>
30

>  <Collection>
General

>  <PPDS>
+

$$$$
F6250-0491
  Mrv2219 10102508112D          

 28 30  0  0  0  0            999 V2000
    4.7542   -6.9792    0.0000 N   0  0  0  0  0  0  0  0  0  0  0  0
    3.9750   -6.7292    0.0000 C   0  0  0  0  0  0  0  0  0  0  0  0
    4.7542   -7.8125    0.0000 C   0  0  0  0  0  0  0  0  0  0  0  0
    4.7542   -2.0042    0.0000 C   0  0  0  0  0  0  0  0  0  0  0  0
    5.4667   -5.7417    0.0000 C   0  0  0  0  0  0  0  0  0  0  0  0
    5.4667   -6.5667    0.0000 C   0  0  0  0  0  0  0  0  0  0  0  0
    5.4667   -1.5917    0.0000 N   0  0  0  0  0  0  0  0  0  0  0  0
    6.1792   -5.3292    0.0000 N   0  0  0  0  0  0  0  0  0  0  0  0
    4.7500   -2.8417    0.0000 O   0  0  0  0  0  0  0  0  0  0  0  0
    4.0417   -1.5917    0.0000 O   0  0  0  0  0  0  0  0  0  0  0  0
    3.4917   -7.4000    0.0000 C   0  0  0  0  0  0  0  0  0  0  0  0
    3.9750   -8.0667    0.0000 C   0  0  0  0  0  0  0  0  0  0  0  0
    3.7167   -5.9417    0.0000 O   0  0  0  0  0  0  0  0  0  0  0  0
    5.4292   -8.3042    0.0000 O   0  0  0  0  0  0  0  0  0  0  0  0
    4.7542   -5.3292    0.0000 O   0  0  0  0  0  0  0  0  0  0  0  0
    5.4667   -4.0917    0.0000 C   0  0  0  0  0  0  0  0  0  0  0  0
    6.1792   -4.5042    0.0000 C   0  0  0  0  0  0  0  0  0  0  0  0
    5.4667   -3.2667    0.0000 C   0  0  0  0  0  0  0  0  0  0  0  0
    5.4667   -0.7667    0.0000 C   0  0  0  0  0  0  0  0  0  0  0  0
    5.4667    0.8875    0.0000 C   0  0  0  0  0  0  0  0  0  0  0  0
    5.4667    1.7125    0.0000 F   0  0  0  0  0  0  0  0  0  0  0  0
    4.7542   -0.3542    0.0000 C   0  0  0  0  0  0  0  0  0  0  0  0
    6.1792   -0.3542    0.0000 C   0  0  0  0  0  0  0  0  0  0  0  0
    6.1792    0.4750    0.0000 C   0  0  0  0  0  0  0  0  0  0  0  0
    4.7542    0.4750    0.0000 C   0  0  0  0  0  0  0  0  0  0  0  0
    6.9000   -3.2667    0.0000 C   0  0  0  0  0  0  0  0  0  0  0  0
    6.9000   -4.0917    0.0000 C   0  0  0  0  0  0  0  0  0  0  0  0
    6.1792   -2.8542    0.0000 C   0  0  0  0  0  0  0  0  0  0  0  0
  2  1  1  0  0  0  0
  3  1  1  0  0  0  0
  4  9  1  0  0  0  0
  5  6  1  0  0  0  0
  6  1  1  0  0  0  0
  7  4  1  0  0  0  0
  8  5  1  0  0  0  0
  9 18  1  0  0  0  0
 10  4  2  0  0  0  0
 11  2  1  0  0  0  0
 12  3  1  0  0  0  0
 13  2  2  0  0  0  0
 14  3  2  0  0  0  0
 15  5  2  0  0  0  0
 16 17  1  0  0  0  0
 17  8  1  0  0  0  0
 18 16  1  0  0  0  0
 19  7  1  0  0  0  0
 20 24  2  0  0  0  0
 21 20  1  0  0  0  0
 22 19  1  0  0  0  0
 23 19  2  0  0  0  0
 24 23  1  0  0  0  0
 25 22  2  0  0  0  0
 26 27  1  0  0  0  0
 27 17  1  0  0  0  0
 28 26  1  0  0  0  0
 12 11  1  0  0  0  0
 18 28  1  0  0  0  0
 20 25  1  0  0  0  0
M  END
>  <IDNUMBER>
F6250-0491

>  <Chemical_Name>
3-[2-(2,5-dioxopyrrolidin-1-yl)acetamido]cyclohexyl N-(4-fluorophenyl)carbamate

>  <PriceCoeff>
1.00

>  <CAS>
1351631-66-7

>  <MW>
391.39

>  <Description>
solid

>  <FSP3>
0.47

>  <clogP>
2.18

>  <TPSA>
104.81

>  <Acceptor>
5

>  <Donor>
2

>  <RotBonds>
6

>  <HAC>
28

>  <Collection>
General

>  <PPDS>
+

$$$$
F6265-0370
  Mrv2219 10102508112D          

 20 22  0  0  0  0            999 V2000
   -4.6045    3.8176    0.0000 C   0  0  0  0  0  0  0  0  0  0  0  0
   -3.8804    4.2320    0.0000 N   0  0  0  0  0  0  0  0  0  0  0  0
   -4.6045    2.9930    0.0000 N   0  0  0  0  0  0  0  0  0  0  0  0
   -6.0320    1.3437    0.0000 C   0  0  0  0  0  0  0  0  0  0  0  0
   -5.3329    1.7539    0.0000 C   0  0  0  0  0  0  0  0  0  0  0  0
   -5.3245    4.2320    0.0000 O   0  0  0  0  0  0  0  0  0  0  0  0
   -5.3245    2.5911    0.0000 C   0  0  0  0  0  0  0  0  0  0  0  0
   -6.7478    1.7539    0.0000 C   0  0  0  0  0  0  0  0  0  0  0  0
   -3.1227    4.4413    0.0000 C   0  0  0  0  0  0  0  0  0  0  0  0
   -3.1395    4.9436    0.0000 C   0  0  0  0  0  0  0  0  0  0  0  0
   -3.3990    6.2287    0.0000 O   0  0  0  0  0  0  0  0  0  0  0  0
   -6.7519    2.5827    0.0000 C   0  0  0  0  0  0  0  0  0  0  0  0
   -6.0320    0.5107    0.0000 Cl  0  0  0  0  0  0  0  0  0  0  0  0
   -6.0320    2.9971    0.0000 C   0  0  0  0  0  0  0  0  0  0  0  0
   -7.4762    1.3311    0.0000 Cl  0  0  0  0  0  0  0  0  0  0  0  0
   -3.4115    5.4669    0.0000 C   0  0  0  0  0  0  0  0  0  0  0  0
   -3.7506    5.1906    0.0000 C   0  0  0  0  0  0  0  0  0  0  0  0
   -1.7664    4.5208    0.0000 C   0  0  0  0  0  0  0  0  0  0  0  0
   -2.5827    4.5543    0.0000 C   0  0  0  0  0  0  0  0  0  0  0  0
   -2.5325    4.0855    0.0000 C   0  0  0  0  0  0  0  0  0  0  0  0
  2  1  1  0  0  0  0
  3  1  1  0  0  0  0
  4  5  1  0  0  0  0
  5  7  2  0  0  0  0
  6  1  2  0  0  0  0
  7  3  1  0  0  0  0
  8 12  1  0  0  0  0
  9  2  1  0  0  0  0
 10  2  1  0  0  0  0
 11 16  1  0  0  0  0
 12 14  2  0  0  0  0
 13  4  1  0  0  0  0
 14  7  1  0  0  0  0
 15  8  1  0  0  0  0
 16 10  1  0  0  0  0
 17  9  1  0  0  0  0
 18 19  1  0  0  0  0
 19 10  1  0  0  0  0
 20  9  1  0  0  0  0
 20 18  1  0  0  0  0
 17 11  1  0  0  0  0
  4  8  2  0  0  0  0
M  END
>  <IDNUMBER>
F6265-0370

>  <Chemical_Name>
N-(3,4-dichlorophenyl)-3-oxa-9-azabicyclo[3.3.1]nonane-9-carboxamide

>  <PriceCoeff>
1.50

>  <CAS>
1421466-04-7

>  <MW>
315.20

>  <Description>
solid

>  <FSP3>
0.50

>  <clogP>
3.39

>  <TPSA>
41.57

>  <Acceptor>
2

>  <Donor>
1

>  <RotBonds>
2

>  <HAC>
20

>  <Collection>
Advanced

$$$$
F6266-0370
  Mrv2219 10102508112D          

 19 21  0  0  0  0            999 V2000
   -4.5663    3.7859    0.0000 C   0  0  0  0  0  0  0  0  0  0  0  0
   -3.8482    4.1969    0.0000 N   0  0  0  0  0  0  0  0  0  0  0  0
   -4.5663    2.9682    0.0000 N   0  0  0  0  0  0  0  0  0  0  0  0
   -5.9820    1.3325    0.0000 C   0  0  0  0  0  0  0  0  0  0  0  0
   -5.2886    1.7393    0.0000 C   0  0  0  0  0  0  0  0  0  0  0  0
   -5.2804    4.1969    0.0000 O   0  0  0  0  0  0  0  0  0  0  0  0
   -5.2804    2.5697    0.0000 C   0  0  0  0  0  0  0  0  0  0  0  0
   -3.0263    4.3630    0.0000 C   0  0  0  0  0  0  0  0  0  0  0  0
   -3.2629    4.8487    0.0000 C   0  0  0  0  0  0  0  0  0  0  0  0
   -6.6918    1.7393    0.0000 C   0  0  0  0  0  0  0  0  0  0  0  0
   -2.1296    5.7080    0.0000 O   0  0  0  0  0  0  0  0  0  0  0  0
   -2.5737    4.3754    0.0000 C   0  0  0  0  0  0  0  0  0  0  0  0
   -2.4783    3.7361    0.0000 C   0  0  0  0  0  0  0  0  0  0  0  0
   -6.6959    2.5613    0.0000 C   0  0  0  0  0  0  0  0  0  0  0  0
   -5.9820    0.5064    0.0000 Cl  0  0  0  0  0  0  0  0  0  0  0  0
   -5.9820    2.9723    0.0000 C   0  0  0  0  0  0  0  0  0  0  0  0
   -7.4142    1.3201    0.0000 Cl  0  0  0  0  0  0  0  0  0  0  0  0
   -2.7605    5.1600    0.0000 C   0  0  0  0  0  0  0  0  0  0  0  0
   -2.9972    5.6374    0.0000 C   0  0  0  0  0  0  0  0  0  0  0  0
  2  1  1  0  0  0  0
  3  1  1  0  0  0  0
  4  5  1  0  0  0  0
  5  7  2  0  0  0  0
  6  1  2  0  0  0  0
  7  3  1  0  0  0  0
  8  2  1  0  0  0  0
  9  2  1  0  0  0  0
 10 14  1  0  0  0  0
 11 19  1  0  0  0  0
 12  9  1  0  0  0  0
 13  8  1  0  0  0  0
 14 16  2  0  0  0  0
 15  4  1  0  0  0  0
 16  7  1  0  0  0  0
 17 10  1  0  0  0  0
 18  8  1  0  0  0  0
 19  9  1  0  0  0  0
 18 11  1  0  0  0  0
 13 12  1  0  0  0  0
  4 10  2  0  0  0  0
M  END
>  <IDNUMBER>
F6266-0370

>  <Chemical_Name>
N-(3,4-dichlorophenyl)-3-oxa-8-azabicyclo[3.2.1]octane-8-carboxamide

>  <PriceCoeff>
1.50

>  <CAS>
1421471-77-3

>  <MW>
301.17

>  <Description>
solid

>  <FSP3>
0.46

>  <clogP>
2.84

>  <TPSA>
41.57

>  <Acceptor>
2

>  <Donor>
1

>  <RotBonds>
2

>  <HAC>
19

>  <Collection>
Advanced

>  <PPDS>
+

$$$$
F6274-0155
  Mrv2219 10102508112D          

 26 29  0  0  0  0            999 V2000
    8.3946   -4.5288    0.0000 C   0  0  0  0  0  0  0  0  0  0  0  0
    9.1487   -4.8768    0.0000 N   0  0  0  0  0  0  0  0  0  0  0  0
    3.8078   -5.5066    0.0000 N   0  0  0  0  0  0  0  0  0  0  0  0
    7.6737   -4.9390    0.0000 N   0  0  0  0  0  0  0  0  0  0  0  0
    8.4816   -3.7084    0.0000 S   0  0  0  0  0  0  0  0  0  0  0  0
    9.7081   -4.2636    0.0000 C   0  0  0  0  0  0  0  0  0  0  0  0
    3.0496   -5.8298    0.0000 C   0  0  0  0  0  0  0  0  0  0  0  0
    3.7291   -4.6862    0.0000 C   0  0  0  0  0  0  0  0  0  0  0  0
    9.3020   -3.5426    0.0000 C   0  0  0  0  0  0  0  0  0  0  0  0
    6.6626   -5.5190    0.0000 C   0  0  0  0  0  0  0  0  0  0  0  0
    5.2373   -5.5108    0.0000 C   0  0  0  0  0  0  0  0  0  0  0  0
    4.5164   -5.9210    0.0000 C   0  0  0  0  0  0  0  0  0  0  0  0
    7.4623   -5.7345    0.0000 C   0  0  0  0  0  0  0  0  0  0  0  0
    6.8781   -4.7277    0.0000 C   0  0  0  0  0  0  0  0  0  0  0  0
    5.9459   -5.9292    0.0000 O   0  0  0  0  0  0  0  0  0  0  0  0
   10.5326   -4.2678    0.0000 C   0  0  0  0  0  0  0  0  0  0  0  0
    2.5109   -5.2083    0.0000 C   0  0  0  0  0  0  0  0  0  0  0  0
    2.9253   -4.5039    0.0000 C   0  0  0  0  0  0  0  0  0  0  0  0
    2.8756   -6.6419    0.0000 O   0  0  0  0  0  0  0  0  0  0  0  0
    4.3423   -4.1310    0.0000 O   0  0  0  0  0  0  0  0  0  0  0  0
    5.2373   -4.6862    0.0000 O   0  0  0  0  0  0  0  0  0  0  0  0
   10.9428   -4.9887    0.0000 O   0  0  0  0  0  0  0  0  0  0  0  0
    9.7247   -2.8341    0.0000 C   0  0  0  0  0  0  0  0  0  0  0  0
   10.5451   -2.8383    0.0000 C   0  0  0  0  0  0  0  0  0  0  0  0
   10.9553   -3.5592    0.0000 C   0  0  0  0  0  0  0  0  0  0  0  0
   11.7715   -5.0012    0.0000 C   0  0  0  0  0  0  0  0  0  0  0  0
  2  1  2  0  0  0  0
  3 12  1  0  0  0  0
  4  1  1  0  0  0  0
  5  1  1  0  0  0  0
  6  2  1  0  0  0  0
  7  3  1  0  0  0  0
  8  3  1  0  0  0  0
  9  5  1  0  0  0  0
 10 14  1  0  0  0  0
 11 15  1  0  0  0  0
 12 11  1  0  0  0  0
 13  4  1  0  0  0  0
 14  4  1  0  0  0  0
 15 10  1  0  0  0  0
 16  6  2  0  0  0  0
 17  7  1  0  0  0  0
 18  8  1  0  0  0  0
 19  7  2  0  0  0  0
 20  8  2  0  0  0  0
 21 11  2  0  0  0  0
 22 16  1  0  0  0  0
 23  9  2  0  0  0  0
 24 23  1  0  0  0  0
 25 16  1  0  0  0  0
 26 22  1  0  0  0  0
  9  6  1  0  0  0  0
 13 10  1  0  0  0  0
 24 25  2  0  0  0  0
 18 17  1  0  0  0  0
M  END
>  <IDNUMBER>
F6274-0155

>  <Chemical_Name>
1-(4-methoxy-1,3-benzothiazol-2-yl)azetidin-3-yl 2-(2,5-dioxopyrrolidin-1-yl)acetate

>  <PriceCoeff>
1.00

>  <CAS>
1396708-98-7

>  <MW>
375.40

>  <Description>
solid

>  <FSP3>
0.41

>  <clogP>
2.40

>  <TPSA>
117.28

>  <Acceptor>
6

>  <Donor>
1

>  <RotBonds>
6

>  <HAC>
26

>  <Collection>
General

>  <PPDS>
+

$$$$
F6274-0182
  Mrv2219 10102508112D          

 31 35  0  0  0  0            999 V2000
    4.4687   -7.9065    0.0000 C   0  0  0  0  0  0  0  0  0  0  0  0
    5.2170   -8.2474    0.0000 N   0  0  0  0  0  0  0  0  0  0  0  0
   -1.5422   -8.8959    0.0000 N   0  0  0  0  0  0  0  0  0  0  0  0
    3.7579   -8.3222    0.0000 N   0  0  0  0  0  0  0  0  0  0  0  0
    4.5560   -7.0876    0.0000 S   0  0  0  0  0  0  0  0  0  0  0  0
    5.7782   -7.6363    0.0000 C   0  0  0  0  0  0  0  0  0  0  0  0
   -0.8231   -9.3074    0.0000 C   0  0  0  0  0  0  0  0  0  0  0  0
   -1.5838   -8.0728    0.0000 C   0  0  0  0  0  0  0  0  0  0  0  0
   -2.3029   -9.2035    0.0000 C   0  0  0  0  0  0  0  0  0  0  0  0
    5.3666   -6.9213    0.0000 C   0  0  0  0  0  0  0  0  0  0  0  0
    1.3219   -8.8959    0.0000 C   0  0  0  0  0  0  0  0  0  0  0  0
    2.7478   -8.8959    0.0000 C   0  0  0  0  0  0  0  0  0  0  0  0
    2.0369   -9.3074    0.0000 O   0  0  0  0  0  0  0  0  0  0  0  0
   -0.1080   -8.8959    0.0000 C   0  0  0  0  0  0  0  0  0  0  0  0
    0.6028   -9.3074    0.0000 C   0  0  0  0  0  0  0  0  0  0  0  0
    2.9681   -8.1102    0.0000 C   0  0  0  0  0  0  0  0  0  0  0  0
    3.5459   -9.1079    0.0000 C   0  0  0  0  0  0  0  0  0  0  0  0
    6.6012   -7.6446    0.0000 C   0  0  0  0  0  0  0  0  0  0  0  0
   -2.4027   -7.8733    0.0000 C   0  0  0  0  0  0  0  0  0  0  0  0
   -2.8392   -8.5716    0.0000 C   0  0  0  0  0  0  0  0  0  0  0  0
    1.3136   -8.0686    0.0000 O   0  0  0  0  0  0  0  0  0  0  0  0
   -2.5191   -9.9933    0.0000 O   0  0  0  0  0  0  0  0  0  0  0  0
   -0.9561   -7.5448    0.0000 O   0  0  0  0  0  0  0  0  0  0  0  0
   -0.8231  -10.1305    0.0000 C   0  0  0  0  0  0  0  0  0  0  0  0
    7.0128   -8.3554    0.0000 O   0  0  0  0  0  0  0  0  0  0  0  0
    5.7906   -6.2105    0.0000 C   0  0  0  0  0  0  0  0  0  0  0  0
    0.6028  -10.1305    0.0000 C   0  0  0  0  0  0  0  0  0  0  0  0
   -0.1122  -10.5503    0.0000 C   0  0  0  0  0  0  0  0  0  0  0  0
    6.6137   -6.2147    0.0000 C   0  0  0  0  0  0  0  0  0  0  0  0
    7.0128   -6.9380    0.0000 C   0  0  0  0  0  0  0  0  0  0  0  0
    7.8359   -8.3596    0.0000 C   0  0  0  0  0  0  0  0  0  0  0  0
  2  1  2  0  0  0  0
  3  7  1  0  0  0  0
  4  1  1  0  0  0  0
  5  1  1  0  0  0  0
  6  2  1  0  0  0  0
  7 14  1  0  0  0  0
  8  3  1  0  0  0  0
  9  3  1  0  0  0  0
 10  5  1  0  0  0  0
 11 13  1  0  0  0  0
 12 17  1  0  0  0  0
 13 12  1  0  0  0  0
 14 15  2  0  0  0  0
 15 11  1  0  0  0  0
 16  4  1  0  0  0  0
 17  4  1  0  0  0  0
 18  6  2  0  0  0  0
 19  8  1  0  0  0  0
 20  9  1  0  0  0  0
 21 11  2  0  0  0  0
 22  9  2  0  0  0  0
 23  8  2  0  0  0  0
 24 28  1  0  0  0  0
 25 18  1  0  0  0  0
 26 10  2  0  0  0  0
 27 15  1  0  0  0  0
 28 27  2  0  0  0  0
 29 26  1  0  0  0  0
 30 18  1  0  0  0  0
 31 25  1  0  0  0  0
 10  6  1  0  0  0  0
 12 16  1  0  0  0  0
 29 30  2  0  0  0  0
  7 24  2  0  0  0  0
 20 19  1  0  0  0  0
M  END
>  <IDNUMBER>
F6274-0182

>  <Chemical_Name>
1-(4-methoxy-1,3-benzothiazol-2-yl)azetidin-3-yl 3-(2,5-dioxopyrrolidin-1-yl)benzoate

>  <PriceCoeff>
1.00

>  <CAS>
1421531-09-0

>  <MW>
437.47

>  <Description>
solid

>  <FSP3>
0.27

>  <clogP>
2.82

>  <TPSA>
117.28

>  <Acceptor>
6

>  <Donor>
1

>  <RotBonds>
6

>  <HAC>
31

>  <Collection>
General

>  <PPDS>
+

$$$$
F6274-0445
  Mrv2219 10102508112D          

 30 34  0  0  0  0            999 V2000
    4.4750   -7.9292    0.0000 C   0  0  0  0  0  0  0  0  0  0  0  0
   -1.5458   -8.9167    0.0000 N   0  0  0  0  0  0  0  0  0  0  0  0
    5.2292   -8.2667    0.0000 N   0  0  0  0  0  0  0  0  0  0  0  0
    3.7625   -8.3417    0.0000 N   0  0  0  0  0  0  0  0  0  0  0  0
    4.5625   -7.1042    0.0000 S   0  0  0  0  0  0  0  0  0  0  0  0
   -0.8250   -9.3292    0.0000 C   0  0  0  0  0  0  0  0  0  0  0  0
    5.3792   -6.9375    0.0000 C   0  0  0  0  0  0  0  0  0  0  0  0
   -1.5875   -8.0917    0.0000 C   0  0  0  0  0  0  0  0  0  0  0  0
   -2.3083   -9.2250    0.0000 C   0  0  0  0  0  0  0  0  0  0  0  0
    1.3250   -8.9167    0.0000 C   0  0  0  0  0  0  0  0  0  0  0  0
    5.7875   -7.6542    0.0000 C   0  0  0  0  0  0  0  0  0  0  0  0
    2.7542   -8.9167    0.0000 C   0  0  0  0  0  0  0  0  0  0  0  0
    2.0417   -9.3292    0.0000 O   0  0  0  0  0  0  0  0  0  0  0  0
   -0.1083   -8.9167    0.0000 C   0  0  0  0  0  0  0  0  0  0  0  0
    0.6042   -9.3292    0.0000 C   0  0  0  0  0  0  0  0  0  0  0  0
    2.9667   -8.1292    0.0000 C   0  0  0  0  0  0  0  0  0  0  0  0
    3.5542   -9.1292    0.0000 C   0  0  0  0  0  0  0  0  0  0  0  0
    5.8000   -6.2292    0.0000 C   0  0  0  0  0  0  0  0  0  0  0  0
   -2.4083   -7.8917    0.0000 C   0  0  0  0  0  0  0  0  0  0  0  0
   -2.8458   -8.5917    0.0000 C   0  0  0  0  0  0  0  0  0  0  0  0
    1.3167   -8.0875    0.0000 O   0  0  0  0  0  0  0  0  0  0  0  0
   -2.5250  -10.0167    0.0000 O   0  0  0  0  0  0  0  0  0  0  0  0
   -0.9583   -7.5625    0.0000 O   0  0  0  0  0  0  0  0  0  0  0  0
    6.6125   -7.6625    0.0000 C   0  0  0  0  0  0  0  0  0  0  0  0
    6.6250   -6.2375    0.0000 C   0  0  0  0  0  0  0  0  0  0  0  0
    7.0292   -6.9542    0.0000 C   0  0  0  0  0  0  0  0  0  0  0  0
    7.0417   -5.5250    0.0000 F   0  0  0  0  0  0  0  0  0  0  0  0
   -0.8250  -10.1542    0.0000 C   0  0  0  0  0  0  0  0  0  0  0  0
    0.6042  -10.1542    0.0000 C   0  0  0  0  0  0  0  0  0  0  0  0
   -0.1125  -10.5750    0.0000 C   0  0  0  0  0  0  0  0  0  0  0  0
  2  6  1  0  0  0  0
  3  1  2  0  0  0  0
  4  1  1  0  0  0  0
  5  1  1  0  0  0  0
  6 14  1  0  0  0  0
  7  5  1  0  0  0  0
  8  2  1  0  0  0  0
  9  2  1  0  0  0  0
 10 13  1  0  0  0  0
 11  3  1  0  0  0  0
 12 17  1  0  0  0  0
 13 12  1  0  0  0  0
 14 15  2  0  0  0  0
 15 10  1  0  0  0  0
 16  4  1  0  0  0  0
 17  4  1  0  0  0  0
 18  7  2  0  0  0  0
 19  8  1  0  0  0  0
 20  9  1  0  0  0  0
 21 10  2  0  0  0  0
 22  9  2  0  0  0  0
 23  8  2  0  0  0  0
 24 11  2  0  0  0  0
 25 18  1  0  0  0  0
 26 24  1  0  0  0  0
 27 25  1  0  0  0  0
 28 30  1  0  0  0  0
 29 15  1  0  0  0  0
 30 29  2  0  0  0  0
 12 16  1  0  0  0  0
  7 11  1  0  0  0  0
 25 26  2  0  0  0  0
  6 28  2  0  0  0  0
 20 19  1  0  0  0  0
M  END
>  <IDNUMBER>
F6274-0445

>  <Chemical_Name>
1-(6-fluoro-1,3-benzothiazol-2-yl)azetidin-3-yl 3-(2,5-dioxopyrrolidin-1-yl)benzoate

>  <PriceCoeff>
1.00

>  <CAS>
1396759-81-1

>  <MW>
425.43

>  <Description>
solid

>  <FSP3>
0.24

>  <clogP>
2.66

>  <TPSA>
108.05

>  <Acceptor>
5

>  <Donor>
1

>  <RotBonds>
5

>  <HAC>
30

>  <Collection>
General

>  <PPDS>
+

$$$$
F6274-0681
  Mrv2219 10102508112D          

 24 27  0  0  0  0            999 V2000
    8.3991   -4.5312    0.0000 C   0  0  0  0  0  0  0  0  0  0  0  0
    3.8099   -5.5096    0.0000 N   0  0  0  0  0  0  0  0  0  0  0  0
    9.1535   -4.8794    0.0000 N   0  0  0  0  0  0  0  0  0  0  0  0
    7.6777   -4.9499    0.0000 N   0  0  0  0  0  0  0  0  0  0  0  0
    8.4862   -3.7104    0.0000 S   0  0  0  0  0  0  0  0  0  0  0  0
    3.7311   -4.6887    0.0000 C   0  0  0  0  0  0  0  0  0  0  0  0
    3.0512   -5.8329    0.0000 C   0  0  0  0  0  0  0  0  0  0  0  0
    9.7133   -4.2700    0.0000 C   0  0  0  0  0  0  0  0  0  0  0  0
    9.3071   -3.5488    0.0000 C   0  0  0  0  0  0  0  0  0  0  0  0
    6.6704   -5.5220    0.0000 C   0  0  0  0  0  0  0  0  0  0  0  0
    5.2402   -5.5138    0.0000 C   0  0  0  0  0  0  0  0  0  0  0  0
    4.5188   -5.9241    0.0000 C   0  0  0  0  0  0  0  0  0  0  0  0
    7.4663   -5.7459    0.0000 C   0  0  0  0  0  0  0  0  0  0  0  0
    6.8818   -4.7302    0.0000 C   0  0  0  0  0  0  0  0  0  0  0  0
    5.9490   -5.9366    0.0000 O   0  0  0  0  0  0  0  0  0  0  0  0
    2.9269   -4.5063    0.0000 C   0  0  0  0  0  0  0  0  0  0  0  0
    2.5123   -5.2111    0.0000 C   0  0  0  0  0  0  0  0  0  0  0  0
    4.3447   -4.1333    0.0000 O   0  0  0  0  0  0  0  0  0  0  0  0
    2.8771   -6.6455    0.0000 O   0  0  0  0  0  0  0  0  0  0  0  0
    5.2402   -4.6887    0.0000 O   0  0  0  0  0  0  0  0  0  0  0  0
   10.5382   -4.2783    0.0000 C   0  0  0  0  0  0  0  0  0  0  0  0
    9.7299   -2.8356    0.0000 C   0  0  0  0  0  0  0  0  0  0  0  0
   10.9611   -3.5612    0.0000 C   0  0  0  0  0  0  0  0  0  0  0  0
   10.5507   -2.8481    0.0000 C   0  0  0  0  0  0  0  0  0  0  0  0
  2 12  1  0  0  0  0
  3  1  2  0  0  0  0
  4  1  1  0  0  0  0
  5  1  1  0  0  0  0
  6  2  1  0  0  0  0
  7  2  1  0  0  0  0
  8  3  1  0  0  0  0
  9  5  1  0  0  0  0
 10 14  1  0  0  0  0
 11 15  1  0  0  0  0
 12 11  1  0  0  0  0
 13  4  1  0  0  0  0
 14  4  1  0  0  0  0
 15 10  1  0  0  0  0
 16  6  1  0  0  0  0
 17  7  1  0  0  0  0
 18  6  2  0  0  0  0
 19  7  2  0  0  0  0
 20 11  2  0  0  0  0
 21  8  2  0  0  0  0
 22  9  2  0  0  0  0
 23 21  1  0  0  0  0
 24 22  1  0  0  0  0
  9  8  1  0  0  0  0
 13 10  1  0  0  0  0
 24 23  2  0  0  0  0
 16 17  1  0  0  0  0
M  END
>  <IDNUMBER>
F6274-0681

>  <Chemical_Name>
1-(1,3-benzothiazol-2-yl)azetidin-3-yl 2-(2,5-dioxopyrrolidin-1-yl)acetate

>  <PriceCoeff>
1.00

>  <CAS>
1396843-57-4

>  <MW>
345.37

>  <Description>
solid

>  <FSP3>
0.38

>  <clogP>
2.10

>  <TPSA>
108.05

>  <Acceptor>
5

>  <Donor>
1

>  <RotBonds>
5

>  <HAC>
24

>  <Collection>
General

>  <PPDS>
+

$$$$
F6276-0549
  Mrv2219 10102508112D          

 24 27  0  0  0  0            999 V2000
    3.8068   -5.5051    0.0000 N   0  0  0  0  0  0  0  0  0  0  0  0
    7.6675   -7.7338    0.0000 C   0  0  0  0  0  0  0  0  0  0  0  0
    7.0005   -8.2266    0.0000 N   0  0  0  0  0  0  0  0  0  0  0  0
    5.9442   -5.9194    0.0000 N   0  0  0  0  0  0  0  0  0  0  0  0
    5.2359   -5.5093    0.0000 C   0  0  0  0  0  0  0  0  0  0  0  0
    8.3385   -8.2266    0.0000 S   0  0  0  0  0  0  0  0  0  0  0  0
    4.5151   -5.9194    0.0000 C   0  0  0  0  0  0  0  0  0  0  0  0
    3.7281   -4.6850    0.0000 C   0  0  0  0  0  0  0  0  0  0  0  0
    3.0488   -5.8282    0.0000 C   0  0  0  0  0  0  0  0  0  0  0  0
    7.2573   -9.0137    0.0000 C   0  0  0  0  0  0  0  0  0  0  0  0
    6.9508   -6.5035    0.0000 C   0  0  0  0  0  0  0  0  0  0  0  0
    8.0899   -9.0220    0.0000 C   0  0  0  0  0  0  0  0  0  0  0  0
    7.6716   -6.9135    0.0000 O   0  0  0  0  0  0  0  0  0  0  0  0
    6.7478   -5.7081    0.0000 C   0  0  0  0  0  0  0  0  0  0  0  0
    6.1556   -6.7230    0.0000 C   0  0  0  0  0  0  0  0  0  0  0  0
    5.2359   -4.6850    0.0000 O   0  0  0  0  0  0  0  0  0  0  0  0
    2.5103   -5.2069    0.0000 C   0  0  0  0  0  0  0  0  0  0  0  0
    2.9245   -4.5027    0.0000 C   0  0  0  0  0  0  0  0  0  0  0  0
    2.8748   -6.6402    0.0000 O   0  0  0  0  0  0  0  0  0  0  0  0
    4.3412   -4.1299    0.0000 O   0  0  0  0  0  0  0  0  0  0  0  0
    6.8390   -9.7303    0.0000 C   0  0  0  0  0  0  0  0  0  0  0  0
    8.4918   -9.7345    0.0000 C   0  0  0  0  0  0  0  0  0  0  0  0
    7.2490  -10.4428    0.0000 C   0  0  0  0  0  0  0  0  0  0  0  0
    8.0817  -10.4553    0.0000 C   0  0  0  0  0  0  0  0  0  0  0  0
  2 13  1  0  0  0  0
  3  2  2  0  0  0  0
  4  5  1  0  0  0  0
  5  7  1  0  0  0  0
  6  2  1  0  0  0  0
  7  1  1  0  0  0  0
  8  1  1  0  0  0  0
  9  1  1  0  0  0  0
 10  3  1  0  0  0  0
 11 15  1  0  0  0  0
 12  6  1  0  0  0  0
 13 11  1  0  0  0  0
 14  4  1  0  0  0  0
 15  4  1  0  0  0  0
 16  5  2  0  0  0  0
 17  9  1  0  0  0  0
 18  8  1  0  0  0  0
 19  9  2  0  0  0  0
 20  8  2  0  0  0  0
 21 10  2  0  0  0  0
 22 12  2  0  0  0  0
 23 21  1  0  0  0  0
 24 22  1  0  0  0  0
 18 17  1  0  0  0  0
 14 11  1  0  0  0  0
 12 10  1  0  0  0  0
 24 23  2  0  0  0  0
M  END
>  <IDNUMBER>
F6276-0549

>  <Chemical_Name>
1-{2-[3-(1,3-benzothiazol-2-yloxy)azetidin-1-yl]-2-oxoethyl}pyrrolidine-2,5-dione

>  <PriceCoeff>
1.00

>  <CAS>
1798023-71-8

>  <MW>
345.37

>  <Description>
solid

>  <FSP3>
0.38

>  <clogP>
2.50

>  <TPSA>
108.05

>  <Acceptor>
5

>  <Donor>
0

>  <RotBonds>
5

>  <HAC>
24

>  <Collection>
General

>  <PPDS>
+

$$$$
F6276-0577
  Mrv2219 10102508112D          

 29 33  0  0  0  0            999 V2000
   -1.5458   -8.9167    0.0000 N   0  0  0  0  0  0  0  0  0  0  0  0
    2.0375   -9.3292    0.0000 N   0  0  0  0  0  0  0  0  0  0  0  0
    3.7542  -11.1292    0.0000 C   0  0  0  0  0  0  0  0  0  0  0  0
    3.0917  -11.6167    0.0000 N   0  0  0  0  0  0  0  0  0  0  0  0
    1.3250   -8.9167    0.0000 C   0  0  0  0  0  0  0  0  0  0  0  0
    4.4292  -11.6167    0.0000 S   0  0  0  0  0  0  0  0  0  0  0  0
   -0.8250   -9.3292    0.0000 C   0  0  0  0  0  0  0  0  0  0  0  0
   -1.5875   -8.0917    0.0000 C   0  0  0  0  0  0  0  0  0  0  0  0
   -2.3083   -9.2250    0.0000 C   0  0  0  0  0  0  0  0  0  0  0  0
    0.6042   -9.3292    0.0000 C   0  0  0  0  0  0  0  0  0  0  0  0
    3.3542  -12.4042    0.0000 C   0  0  0  0  0  0  0  0  0  0  0  0
    3.0417   -9.9000    0.0000 C   0  0  0  0  0  0  0  0  0  0  0  0
    4.1792  -12.4125    0.0000 C   0  0  0  0  0  0  0  0  0  0  0  0
   -0.1083   -8.9167    0.0000 C   0  0  0  0  0  0  0  0  0  0  0  0
    2.8292   -9.1125    0.0000 C   0  0  0  0  0  0  0  0  0  0  0  0
    2.2500  -10.1250    0.0000 C   0  0  0  0  0  0  0  0  0  0  0  0
    3.7542  -10.3167    0.0000 O   0  0  0  0  0  0  0  0  0  0  0  0
    1.3167   -8.0875    0.0000 O   0  0  0  0  0  0  0  0  0  0  0  0
   -2.4083   -7.8917    0.0000 C   0  0  0  0  0  0  0  0  0  0  0  0
   -2.8458   -8.5917    0.0000 C   0  0  0  0  0  0  0  0  0  0  0  0
   -0.9583   -7.5625    0.0000 O   0  0  0  0  0  0  0  0  0  0  0  0
   -2.5250  -10.0167    0.0000 O   0  0  0  0  0  0  0  0  0  0  0  0
   -0.8250  -10.1542    0.0000 C   0  0  0  0  0  0  0  0  0  0  0  0
    0.6042  -10.1542    0.0000 C   0  0  0  0  0  0  0  0  0  0  0  0
   -0.1125  -10.5750    0.0000 C   0  0  0  0  0  0  0  0  0  0  0  0
    2.9375  -13.1250    0.0000 C   0  0  0  0  0  0  0  0  0  0  0  0
    4.5875  -13.1292    0.0000 C   0  0  0  0  0  0  0  0  0  0  0  0
    3.3500  -13.8417    0.0000 C   0  0  0  0  0  0  0  0  0  0  0  0
    4.1750  -13.8417    0.0000 C   0  0  0  0  0  0  0  0  0  0  0  0
  2  5  1  0  0  0  0
  3 17  1  0  0  0  0
  4  3  2  0  0  0  0
  5 10  1  0  0  0  0
  6  3  1  0  0  0  0
  7  1  1  0  0  0  0
  8  1  1  0  0  0  0
  9  1  1  0  0  0  0
 10 14  2  0  0  0  0
 11  4  1  0  0  0  0
 12 16  1  0  0  0  0
 13  6  1  0  0  0  0
 14  7  1  0  0  0  0
 15  2  1  0  0  0  0
 16  2  1  0  0  0  0
 17 12  1  0  0  0  0
 18  5  2  0  0  0  0
 19  8  1  0  0  0  0
 20  9  1  0  0  0  0
 21  8  2  0  0  0  0
 22  9  2  0  0  0  0
 23  7  2  0  0  0  0
 24 25  2  0  0  0  0
 25 23  1  0  0  0  0
 26 11  2  0  0  0  0
 27 13  2  0  0  0  0
 28 26  1  0  0  0  0
 29 27  1  0  0  0  0
 20 19  1  0  0  0  0
 10 24  1  0  0  0  0
 15 12  1  0  0  0  0
 13 11  1  0  0  0  0
 29 28  2  0  0  0  0
M  END
>  <IDNUMBER>
F6276-0577

>  <Chemical_Name>
1-{3-[3-(1,3-benzothiazol-2-yloxy)azetidine-1-carbonyl]phenyl}pyrrolidine-2,5-dione

>  <PriceCoeff>
1.00

>  <CAS>
1421455-42-6

>  <MW>
407.44

>  <Description>
solid

>  <FSP3>
0.24

>  <clogP>
2.17

>  <TPSA>
108.05

>  <Acceptor>
5

>  <Donor>
0

>  <RotBonds>
5

>  <HAC>
29

>  <Collection>
General

>  <PPDS>
+

$$$$
F6277-0404
  Mrv2219 10102508112D          

 32 35  0  0  0  0            999 V2000
   12.7281   -5.2106    0.0000 C   0  0  0  0  0  0  0  0  0  0  0  0
    9.4283   -5.1480    0.0000 S   0  0  0  0  0  0  0  0  0  0  0  0
   13.2204   -4.5473    0.0000 N   0  0  0  0  0  0  0  0  0  0  0  0
    7.3465   -5.8238    0.0000 N   0  0  0  0  0  0  0  0  0  0  0  0
   14.0047   -4.8101    0.0000 C   0  0  0  0  0  0  0  0  0  0  0  0
   14.7222   -4.4096    0.0000 C   0  0  0  0  0  0  0  0  0  0  0  0
   13.2036   -5.8822    0.0000 S   0  0  0  0  0  0  0  0  0  0  0  0
   10.2542   -5.1689    0.0000 N   0  0  0  0  0  0  0  0  0  0  0  0
   14.7347   -3.5919    0.0000 C   0  0  0  0  0  0  0  0  0  0  0  0
   11.9062   -5.1981    0.0000 N   0  0  0  0  0  0  0  0  0  0  0  0
    8.6022   -5.1355    0.0000 C   0  0  0  0  0  0  0  0  0  0  0  0
   13.9922   -5.6361    0.0000 C   0  0  0  0  0  0  0  0  0  0  0  0
    6.9460   -5.1063    0.0000 C   0  0  0  0  0  0  0  0  0  0  0  0
    6.9127   -6.5247    0.0000 C   0  0  0  0  0  0  0  0  0  0  0  0
    8.1767   -5.8446    0.0000 C   0  0  0  0  0  0  0  0  0  0  0  0
   10.6798   -4.4596    0.0000 C   0  0  0  0  0  0  0  0  0  0  0  0
   10.6548   -5.8864    0.0000 C   0  0  0  0  0  0  0  0  0  0  0  0
    9.4491   -4.3220    0.0000 O   0  0  0  0  0  0  0  0  0  0  0  0
    9.4158   -5.9740    0.0000 O   0  0  0  0  0  0  0  0  0  0  0  0
   11.5016   -4.4805    0.0000 C   0  0  0  0  0  0  0  0  0  0  0  0
   11.4808   -5.9072    0.0000 C   0  0  0  0  0  0  0  0  0  0  0  0
    7.3715   -4.3846    0.0000 O   0  0  0  0  0  0  0  0  0  0  0  0
    7.3131   -7.2506    0.0000 O   0  0  0  0  0  0  0  0  0  0  0  0
   14.0714   -3.0412    0.0000 F   0  0  0  0  0  0  0  0  0  0  0  0
   14.7431   -2.8410    0.0000 F   0  0  0  0  0  0  0  0  0  0  0  0
   15.4064   -3.0537    0.0000 F   0  0  0  0  0  0  0  0  0  0  0  0
   15.4231   -4.8309    0.0000 C   0  0  0  0  0  0  0  0  0  0  0  0
    6.0866   -6.5122    0.0000 C   0  0  0  0  0  0  0  0  0  0  0  0
    6.1242   -5.0855    0.0000 C   0  0  0  0  0  0  0  0  0  0  0  0
   14.6972   -6.0616    0.0000 C   0  0  0  0  0  0  0  0  0  0  0  0
   15.4189   -5.6611    0.0000 C   0  0  0  0  0  0  0  0  0  0  0  0
    5.6945   -5.7863    0.0000 C   0  0  0  0  0  0  0  0  0  0  0  0
  2  8  1  0  0  0  0
  3  1  2  0  0  0  0
  4 15  1  0  0  0  0
  5  3  1  0  0  0  0
  6  5  1  0  0  0  0
  7  1  1  0  0  0  0
  8 17  1  0  0  0  0
  9  6  1  0  0  0  0
 10  1  1  0  0  0  0
 11  2  1  0  0  0  0
 12  7  1  0  0  0  0
 13  4  1  0  0  0  0
 14  4  1  0  0  0  0
 15 11  1  0  0  0  0
 16 20  1  0  0  0  0
 17 21  1  0  0  0  0
 18  2  2  0  0  0  0
 19  2  2  0  0  0  0
 20 10  1  0  0  0  0
 21 10  1  0  0  0  0
 22 13  2  0  0  0  0
 23 14  2  0  0  0  0
 24  9  1  0  0  0  0
 25  9  1  0  0  0  0
 26  9  1  0  0  0  0
 27  6  2  0  0  0  0
 28 14  1  0  0  0  0
 29 13  1  0  0  0  0
 30 12  1  0  0  0  0
 31 30  2  0  0  0  0
 32 28  1  0  0  0  0
 12  5  2  0  0  0  0
  8 16  1  0  0  0  0
 27 31  1  0  0  0  0
 29 32  1  0  0  0  0
M  END
>  <IDNUMBER>
F6277-0404

>  <Chemical_Name>
1-[2-({4-[4-(trifluoromethyl)-1,3-benzothiazol-2-yl]piperazin-1-yl}sulfonyl)ethyl]piperidine-2,6-dione

>  <PriceCoeff>
1.00

>  <CAS>
1396862-17-1

>  <MW>
490.52

>  <Description>
solid

>  <FSP3>
0.53

>  <clogP>
3.58

>  <TPSA>
127.51

>  <Acceptor>
5

>  <Donor>
1

>  <RotBonds>
5

>  <HAC>
32

>  <Collection>
General

>  <PPDS>
+

$$$$
F6287-0440
  Mrv2219 10102508112D          

 24 26  0  0  0  0            999 V2000
   -5.2833    2.5708    0.0000 N   0  0  0  0  0  0  0  0  0  0  0  0
   -3.5583    7.5542    0.0000 C   0  0  0  0  0  0  0  0  0  0  0  0
   -3.8125    6.7625    0.0000 N   0  0  0  0  0  0  0  0  0  0  0  0
   -3.1458    6.2750    0.0000 C   0  0  0  0  0  0  0  0  0  0  0  0
   -2.4750    6.7667    0.0000 N   0  0  0  0  0  0  0  0  0  0  0  0
   -2.7333    7.5500    0.0000 C   0  0  0  0  0  0  0  0  0  0  0  0
   -5.3708    1.7458    0.0000 C   0  0  0  0  0  0  0  0  0  0  0  0
   -6.0292    2.9000    0.0000 C   0  0  0  0  0  0  0  0  0  0  0  0
   -4.0375    8.2167    0.0000 C   0  0  0  0  0  0  0  0  0  0  0  0
   -4.5792    2.9875    0.0000 C   0  0  0  0  0  0  0  0  0  0  0  0
   -3.7833    9.0083    0.0000 S   0  0  0  0  0  0  0  0  0  0  0  0
   -4.5833    3.8000    0.0000 C   0  0  0  0  0  0  0  0  0  0  0  0
   -3.1458    5.4417    0.0000 C   0  0  0  0  0  0  0  0  0  0  0  0
   -4.8708    8.2167    0.0000 C   0  0  0  0  0  0  0  0  0  0  0  0
   -6.1667    1.5708    0.0000 C   0  0  0  0  0  0  0  0  0  0  0  0
   -6.5792    2.2833    0.0000 C   0  0  0  0  0  0  0  0  0  0  0  0
   -4.7500    1.1833    0.0000 O   0  0  0  0  0  0  0  0  0  0  0  0
   -6.2042    3.7083    0.0000 O   0  0  0  0  0  0  0  0  0  0  0  0
   -4.4583    9.4917    0.0000 C   0  0  0  0  0  0  0  0  0  0  0  0
   -5.1333    9.0042    0.0000 C   0  0  0  0  0  0  0  0  0  0  0  0
   -5.2958    4.2125    0.0000 O   0  0  0  0  0  0  0  0  0  0  0  0
   -3.8625    4.2125    0.0000 N   0  0  0  0  0  0  0  0  0  0  0  0
   -3.8625    5.0333    0.0000 C   0  0  0  0  0  0  0  0  0  0  0  0
   -1.6958    6.5167    0.0000 C   0  0  0  0  0  0  0  0  0  0  0  0
  2  3  1  0  0  0  0
  3  4  2  0  0  0  0
  4 13  1  0  0  0  0
  5  4  1  0  0  0  0
  6  5  1  0  0  0  0
  7  1  1  0  0  0  0
  8  1  1  0  0  0  0
  9  2  1  0  0  0  0
 10  1  1  0  0  0  0
 11  9  1  0  0  0  0
 12 10  1  0  0  0  0
 13 23  1  0  0  0  0
 14  9  2  0  0  0  0
 15  7  1  0  0  0  0
 16  8  1  0  0  0  0
 17  7  2  0  0  0  0
 18  8  2  0  0  0  0
 19 11  1  0  0  0  0
 20 14  1  0  0  0  0
 21 12  2  0  0  0  0
 22 12  1  0  0  0  0
 23 22  1  0  0  0  0
 24  5  1  0  0  0  0
 16 15  1  0  0  0  0
  2  6  2  0  0  0  0
 20 19  2  0  0  0  0
M  END
>  <IDNUMBER>
F6287-0440

>  <Chemical_Name>
2-(2,5-dioxopyrrolidin-1-yl)-N-{2-[1-methyl-4-(thiophen-2-yl)-1H-imidazol-2-yl]ethyl}acetamide

>  <PriceCoeff>
1.00

>  <CAS>
1396871-64-9

>  <MW>
346.40

>  <Description>
oil

>  <FSP3>
0.38

>  <clogP>
0.69

>  <TPSA>
112.54

>  <Acceptor>
4

>  <Donor>
2

>  <RotBonds>
6

>  <HAC>
24

>  <Collection>
General

>  <PPDS>
+

$$$$
F6349-0688
  Mrv2219 10102508112D          

 30 33  0  0  0  0            999 V2000
   -1.7333    6.2917    0.0000 C   0  0  0  0  0  0  0  0  0  0  0  0
   -4.5833    3.8000    0.0000 S   0  0  0  0  0  0  0  0  0  0  0  0
   -6.7125    3.3583    0.0000 N   0  0  0  0  0  0  0  0  0  0  0  0
   -1.0625    6.7792    0.0000 C   0  0  0  0  0  0  0  0  0  0  0  0
   -1.7208    5.4542    0.0000 C   0  0  0  0  0  0  0  0  0  0  0  0
   -1.3250    7.5542    0.0000 N   0  0  0  0  0  0  0  0  0  0  0  0
   -2.1500    7.5542    0.0000 N   0  0  0  0  0  0  0  0  0  0  0  0
   -3.8625    4.2125    0.0000 N   0  0  0  0  0  0  0  0  0  0  0  0
   -2.4000    6.7625    0.0000 C   0  0  0  0  0  0  0  0  0  0  0  0
   -2.4458    5.0417    0.0000 N   0  0  0  0  0  0  0  0  0  0  0  0
   -5.2833    3.3833    0.0000 C   0  0  0  0  0  0  0  0  0  0  0  0
   -6.6917    2.5333    0.0000 C   0  0  0  0  0  0  0  0  0  0  0  0
   -7.4292    3.7583    0.0000 C   0  0  0  0  0  0  0  0  0  0  0  0
   -6.0000    3.7833    0.0000 C   0  0  0  0  0  0  0  0  0  0  0  0
   -3.8625    5.0292    0.0000 C   0  0  0  0  0  0  0  0  0  0  0  0
   -3.1458    3.8000    0.0000 C   0  0  0  0  0  0  0  0  0  0  0  0
   -4.1583    3.1083    0.0000 O   0  0  0  0  0  0  0  0  0  0  0  0
   -5.0000    4.5042    0.0000 O   0  0  0  0  0  0  0  0  0  0  0  0
   -0.2583    6.6125    0.0000 C   0  0  0  0  0  0  0  0  0  0  0  0
   -0.7833    8.1792    0.0000 C   0  0  0  0  0  0  0  0  0  0  0  0
   -3.1583    5.4542    0.0000 C   0  0  0  0  0  0  0  0  0  0  0  0
   -2.4250    4.2125    0.0000 C   0  0  0  0  0  0  0  0  0  0  0  0
   -0.9958    5.0417    0.0000 O   0  0  0  0  0  0  0  0  0  0  0  0
   -7.4542    4.5750    0.0000 O   0  0  0  0  0  0  0  0  0  0  0  0
   -5.9708    2.1333    0.0000 O   0  0  0  0  0  0  0  0  0  0  0  0
    0.2917    7.2292    0.0000 C   0  0  0  0  0  0  0  0  0  0  0  0
    0.0250    8.0167    0.0000 C   0  0  0  0  0  0  0  0  0  0  0  0
   -7.4000    2.1000    0.0000 C   0  0  0  0  0  0  0  0  0  0  0  0
   -8.1292    3.3333    0.0000 C   0  0  0  0  0  0  0  0  0  0  0  0
   -8.1167    2.5000    0.0000 C   0  0  0  0  0  0  0  0  0  0  0  0
  2  8  1  0  0  0  0
  3 14  1  0  0  0  0
  4  1  2  0  0  0  0
  5  1  1  0  0  0  0
  6  4  1  0  0  0  0
  7  9  2  0  0  0  0
  8 16  1  0  0  0  0
  9  1  1  0  0  0  0
 10  5  1  0  0  0  0
 11  2  1  0  0  0  0
 12  3  1  0  0  0  0
 13  3  1  0  0  0  0
 14 11  1  0  0  0  0
 15 21  1  0  0  0  0
 16 22  1  0  0  0  0
 17  2  2  0  0  0  0
 18  2  2  0  0  0  0
 19  4  1  0  0  0  0
 20  6  1  0  0  0  0
 21 10  1  0  0  0  0
 22 10  1  0  0  0  0
 23  5  2  0  0  0  0
 24 13  2  0  0  0  0
 25 12  2  0  0  0  0
 26 19  2  0  0  0  0
 27 26  1  0  0  0  0
 28 12  1  0  0  0  0
 29 13  1  0  0  0  0
 30 29  1  0  0  0  0
  7  6  1  0  0  0  0
  8 15  1  0  0  0  0
 27 20  2  0  0  0  0
 30 28  1  0  0  0  0
M  END
>  <IDNUMBER>
F6349-0688

>  <Chemical_Name>
1-{2-[(4-{pyrazolo[1,5-a]pyridine-3-carbonyl}piperazin-1-yl)sulfonyl]ethyl}piperidine-2,6-dione

>  <PriceCoeff>
1.00

>  <CAS>
1396809-98-5

>  <MW>
433.48

>  <Description>
solid

>  <FSP3>
0.47

>  <clogP>
0.92

>  <TPSA>
120.75

>  <Acceptor>
6

>  <Donor>
0

>  <RotBonds>
6

>  <HAC>
30

>  <Collection>
General

>  <PPDS>
+

$$$$
F6349-1297
  Mrv2219 10102508112D          

 25 28  0  0  0  0            999 V2000
   -5.2769    2.5677    0.0000 N   0  0  0  0  0  0  0  0  0  0  0  0
   -4.6818    7.9570    0.0000 N   0  0  0  0  0  0  0  0  0  0  0  0
   -3.9951    7.5076    0.0000 C   0  0  0  0  0  0  0  0  0  0  0  0
   -3.6538    8.8060    0.0000 N   0  0  0  0  0  0  0  0  0  0  0  0
   -3.3542    8.0319    0.0000 C   0  0  0  0  0  0  0  0  0  0  0  0
   -4.4779    8.7560    0.0000 C   0  0  0  0  0  0  0  0  0  0  0  0
   -5.3643    1.7437    0.0000 C   0  0  0  0  0  0  0  0  0  0  0  0
   -6.0219    2.8965    0.0000 C   0  0  0  0  0  0  0  0  0  0  0  0
   -4.5778    3.7954    0.0000 C   0  0  0  0  0  0  0  0  0  0  0  0
   -4.5778    2.9839    0.0000 C   0  0  0  0  0  0  0  0  0  0  0  0
   -3.9535    6.6836    0.0000 C   0  0  0  0  0  0  0  0  0  0  0  0
   -3.8578    4.2074    0.0000 N   0  0  0  0  0  0  0  0  0  0  0  0
   -6.1592    1.5689    0.0000 C   0  0  0  0  0  0  0  0  0  0  0  0
   -6.5712    2.2805    0.0000 C   0  0  0  0  0  0  0  0  0  0  0  0
   -4.7442    1.1819    0.0000 O   0  0  0  0  0  0  0  0  0  0  0  0
   -6.1967    3.7038    0.0000 O   0  0  0  0  0  0  0  0  0  0  0  0
   -5.2893    4.2074    0.0000 O   0  0  0  0  0  0  0  0  0  0  0  0
   -3.2086    6.3173    0.0000 C   0  0  0  0  0  0  0  0  0  0  0  0
   -4.6402    6.2341    0.0000 C   0  0  0  0  0  0  0  0  0  0  0  0
   -3.8578    5.0356    0.0000 C   0  0  0  0  0  0  0  0  0  0  0  0
   -5.5141    7.9071    0.0000 C   0  0  0  0  0  0  0  0  0  0  0  0
   -3.1587    5.4933    0.0000 C   0  0  0  0  0  0  0  0  0  0  0  0
   -4.5944    5.4101    0.0000 C   0  0  0  0  0  0  0  0  0  0  0  0
   -5.1687    9.2014    0.0000 C   0  0  0  0  0  0  0  0  0  0  0  0
   -5.8055    8.6769    0.0000 C   0  0  0  0  0  0  0  0  0  0  0  0
  2  3  1  0  0  0  0
  3 11  1  0  0  0  0
  4  5  1  0  0  0  0
  5  3  2  0  0  0  0
  6  2  1  0  0  0  0
  7  1  1  0  0  0  0
  8  1  1  0  0  0  0
  9 10  1  0  0  0  0
 10  1  1  0  0  0  0
 11 19  2  0  0  0  0
 12  9  1  0  0  0  0
 13  7  1  0  0  0  0
 14  8  1  0  0  0  0
 15  7  2  0  0  0  0
 16  8  2  0  0  0  0
 17  9  2  0  0  0  0
 18 22  2  0  0  0  0
 19 23  1  0  0  0  0
 20 12  1  0  0  0  0
 21  2  1  0  0  0  0
 22 20  1  0  0  0  0
 23 20  2  0  0  0  0
 24  6  1  0  0  0  0
 25 21  1  0  0  0  0
 13 14  1  0  0  0  0
 11 18  1  0  0  0  0
  6  4  2  0  0  0  0
 25 24  1  0  0  0  0
M  END
>  <IDNUMBER>
F6349-1297

>  <Chemical_Name>
2-(2,5-dioxopyrrolidin-1-yl)-N-(4-{5H,6H,7H-pyrrolo[1,2-a]imidazol-3-yl}phenyl)acetamide

>  <PriceCoeff>
1.00

>  <CAS>
1421528-35-9

>  <MW>
338.36

>  <Description>
solid

>  <FSP3>
0.33

>  <clogP>
1.01

>  <TPSA>
84.30

>  <Acceptor>
4

>  <Donor>
2

>  <RotBonds>
4

>  <HAC>
25

>  <Collection>
General

>  <PPDS>
+

$$$$
F6356-0566
  Mrv2219 10102508112D          

 19 20  0  0  0  0            999 V2000
   -5.2833    2.5708    0.0000 N   0  0  0  0  0  0  0  0  0  0  0  0
   -5.3708    1.7458    0.0000 C   0  0  0  0  0  0  0  0  0  0  0  0
   -6.0292    2.9000    0.0000 C   0  0  0  0  0  0  0  0  0  0  0  0
   -4.5833    3.8000    0.0000 C   0  0  0  0  0  0  0  0  0  0  0  0
   -4.5792    2.9875    0.0000 C   0  0  0  0  0  0  0  0  0  0  0  0
   -3.1583    6.2792    0.0000 C   0  0  0  0  0  0  0  0  0  0  0  0
   -3.8625    4.2125    0.0000 N   0  0  0  0  0  0  0  0  0  0  0  0
   -3.5875    7.5500    0.0000 O   0  0  0  0  0  0  0  0  0  0  0  0
   -6.1667    1.5708    0.0000 C   0  0  0  0  0  0  0  0  0  0  0  0
   -6.5792    2.2833    0.0000 C   0  0  0  0  0  0  0  0  0  0  0  0
   -4.7500    1.1833    0.0000 O   0  0  0  0  0  0  0  0  0  0  0  0
   -6.2042    3.7083    0.0000 O   0  0  0  0  0  0  0  0  0  0  0  0
   -3.8375    6.7625    0.0000 C   0  0  0  0  0  0  0  0  0  0  0  0
   -2.4958    6.7750    0.0000 C   0  0  0  0  0  0  0  0  0  0  0  0
   -5.2958    4.2125    0.0000 O   0  0  0  0  0  0  0  0  0  0  0  0
   -2.7583    7.5542    0.0000 C   0  0  0  0  0  0  0  0  0  0  0  0
   -3.1583    5.4542    0.0000 C   0  0  0  0  0  0  0  0  0  0  0  0
   -3.8625    5.0333    0.0000 C   0  0  0  0  0  0  0  0  0  0  0  0
   -4.5833    5.4417    0.0000 C   0  0  0  0  0  0  0  0  0  0  0  0
  2  1  1  0  0  0  0
  3  1  1  0  0  0  0
  4  5  1  0  0  0  0
  5  1  1  0  0  0  0
  6 17  1  0  0  0  0
  7  4  1  0  0  0  0
  8 13  1  0  0  0  0
  9  2  1  0  0  0  0
 10  3  1  0  0  0  0
 11  2  2  0  0  0  0
 12  3  2  0  0  0  0
 13  6  2  0  0  0  0
 14  6  1  0  0  0  0
 15  4  2  0  0  0  0
 16 14  2  0  0  0  0
 17 18  1  0  0  0  0
 18  7  1  0  0  0  0
 19 18  1  0  0  0  0
 10  9  1  0  0  0  0
  8 16  1  0  0  0  0
M  END
>  <IDNUMBER>
F6356-0566

>  <Chemical_Name>
2-(2,5-dioxopyrrolidin-1-yl)-N-[1-(furan-3-yl)propan-2-yl]acetamide

>  <PriceCoeff>
1.00

>  <CAS>
1795410-48-8

>  <MW>
264.28

>  <Description>
solid

>  <FSP3>
0.46

>  <clogP>
0.34

>  <TPSA>
79.62

>  <Acceptor>
4

>  <Donor>
1

>  <RotBonds>
5

>  <HAC>
19

>  <Collection>
General

>  <PPDS>
+

$$$$
F6359-0288
  Mrv2219 10102508112D          

 24 26  0  0  0  0            999 V2000
   -4.5775    3.7952    0.0000 C   0  0  0  0  0  0  0  0  0  0  0  0
   -3.8576    4.2071    0.0000 N   0  0  0  0  0  0  0  0  0  0  0  0
   -4.5775    2.9754    0.0000 N   0  0  0  0  0  0  0  0  0  0  0  0
   -5.9966    1.3358    0.0000 C   0  0  0  0  0  0  0  0  0  0  0  0
   -5.3015    1.7436    0.0000 C   0  0  0  0  0  0  0  0  0  0  0  0
   -5.2933    2.5759    0.0000 C   0  0  0  0  0  0  0  0  0  0  0  0
   -5.2933    4.2071    0.0000 O   0  0  0  0  0  0  0  0  0  0  0  0
   -1.0070    5.0478    0.0000 C   0  0  0  0  0  0  0  0  0  0  0  0
   -0.2954    5.4597    0.0000 N   0  0  0  0  0  0  0  0  0  0  0  0
   -3.1418    3.8035    0.0000 C   0  0  0  0  0  0  0  0  0  0  0  0
   -3.8534    5.0228    0.0000 C   0  0  0  0  0  0  0  0  0  0  0  0
   -6.7081    1.7436    0.0000 C   0  0  0  0  0  0  0  0  0  0  0  0
   -1.7311    5.4555    0.0000 O   0  0  0  0  0  0  0  0  0  0  0  0
   -2.4219    4.2113    0.0000 C   0  0  0  0  0  0  0  0  0  0  0  0
   -3.1543    5.4473    0.0000 C   0  0  0  0  0  0  0  0  0  0  0  0
   -6.7122    2.5675    0.0000 C   0  0  0  0  0  0  0  0  0  0  0  0
   -2.4427    5.0269    0.0000 C   0  0  0  0  0  0  0  0  0  0  0  0
   -5.9966    0.5077    0.0000 Cl  0  0  0  0  0  0  0  0  0  0  0  0
   -5.9966    2.9795    0.0000 C   0  0  0  0  0  0  0  0  0  0  0  0
   -7.4322    1.3233    0.0000 Cl  0  0  0  0  0  0  0  0  0  0  0  0
    0.4287    5.0561    0.0000 C   0  0  0  0  0  0  0  0  0  0  0  0
   -1.0070    4.2113    0.0000 C   0  0  0  0  0  0  0  0  0  0  0  0
    0.4287    4.2238    0.0000 C   0  0  0  0  0  0  0  0  0  0  0  0
   -0.2829    3.8159    0.0000 C   0  0  0  0  0  0  0  0  0  0  0  0
  2  1  1  0  0  0  0
  3  1  1  0  0  0  0
  4  5  1  0  0  0  0
  5  6  2  0  0  0  0
  6  3  1  0  0  0  0
  7  1  2  0  0  0  0
  8 13  1  0  0  0  0
  9  8  2  0  0  0  0
 10  2  1  0  0  0  0
 11  2  1  0  0  0  0
 12 16  1  0  0  0  0
 13 17  1  0  0  0  0
 14 10  1  0  0  0  0
 15 11  1  0  0  0  0
 16 19  2  0  0  0  0
 17 15  1  0  0  0  0
 18  4  1  0  0  0  0
 19  6  1  0  0  0  0
 20 12  1  0  0  0  0
 21  9  1  0  0  0  0
 22  8  1  0  0  0  0
 23 24  1  0  0  0  0
 24 22  2  0  0  0  0
 14 17  1  0  0  0  0
  4 12  2  0  0  0  0
 21 23  2  0  0  0  0
M  END
>  <IDNUMBER>
F6359-0288

>  <Chemical_Name>
N-(3,4-dichlorophenyl)-4-(pyridin-2-yloxy)piperidine-1-carboxamide

>  <PriceCoeff>
1.00

>  <CAS>
1448134-29-9

>  <MW>
366.24

>  <Description>
solid

>  <FSP3>
0.29

>  <clogP>
3.71

>  <TPSA>
54.46

>  <Acceptor>
3

>  <Donor>
2

>  <RotBonds>
4

>  <HAC>
24

>  <Collection>
General

>  <PPDS>
+

$$$$
F6359-0356
  Mrv2219 10102508112D          

 26 28  0  0  0  0            999 V2000
   -4.5818    3.7988    0.0000 S   0  0  0  0  0  0  0  0  0  0  0  0
   -6.7104    3.3572    0.0000 N   0  0  0  0  0  0  0  0  0  0  0  0
   -3.8613    4.2112    0.0000 N   0  0  0  0  0  0  0  0  0  0  0  0
   -5.2816    3.3822    0.0000 C   0  0  0  0  0  0  0  0  0  0  0  0
   -6.6896    2.5325    0.0000 C   0  0  0  0  0  0  0  0  0  0  0  0
   -7.4268    3.7571    0.0000 C   0  0  0  0  0  0  0  0  0  0  0  0
   -5.9981    3.7821    0.0000 C   0  0  0  0  0  0  0  0  0  0  0  0
   -4.1529    3.1073    0.0000 O   0  0  0  0  0  0  0  0  0  0  0  0
   -4.9984    4.5028    0.0000 O   0  0  0  0  0  0  0  0  0  0  0  0
   -1.0080    5.0526    0.0000 C   0  0  0  0  0  0  0  0  0  0  0  0
   -0.2957    5.4650    0.0000 N   0  0  0  0  0  0  0  0  0  0  0  0
   -3.1448    3.8071    0.0000 C   0  0  0  0  0  0  0  0  0  0  0  0
   -3.8571    5.0276    0.0000 C   0  0  0  0  0  0  0  0  0  0  0  0
   -7.4518    4.5735    0.0000 O   0  0  0  0  0  0  0  0  0  0  0  0
   -5.9689    2.1326    0.0000 O   0  0  0  0  0  0  0  0  0  0  0  0
   -1.7327    5.4608    0.0000 O   0  0  0  0  0  0  0  0  0  0  0  0
   -3.1573    5.4525    0.0000 C   0  0  0  0  0  0  0  0  0  0  0  0
   -2.4242    4.2154    0.0000 C   0  0  0  0  0  0  0  0  0  0  0  0
   -2.4450    5.0317    0.0000 C   0  0  0  0  0  0  0  0  0  0  0  0
   -7.3976    2.0993    0.0000 C   0  0  0  0  0  0  0  0  0  0  0  0
   -8.1307    3.3322    0.0000 C   0  0  0  0  0  0  0  0  0  0  0  0
   -8.1141    2.4992    0.0000 C   0  0  0  0  0  0  0  0  0  0  0  0
    0.4291    5.0609    0.0000 C   0  0  0  0  0  0  0  0  0  0  0  0
   -1.0080    4.2154    0.0000 C   0  0  0  0  0  0  0  0  0  0  0  0
    0.4291    4.2279    0.0000 C   0  0  0  0  0  0  0  0  0  0  0  0
   -0.2832    3.8196    0.0000 C   0  0  0  0  0  0  0  0  0  0  0  0
  2  7  1  0  0  0  0
  3  1  1  0  0  0  0
  4  1  1  0  0  0  0
  5  2  1  0  0  0  0
  6  2  1  0  0  0  0
  7  4  1  0  0  0  0
  8  1  2  0  0  0  0
  9  1  2  0  0  0  0
 10 16  1  0  0  0  0
 11 10  2  0  0  0  0
 12  3  1  0  0  0  0
 13  3  1  0  0  0  0
 14  6  2  0  0  0  0
 15  5  2  0  0  0  0
 16 19  1  0  0  0  0
 17 13  1  0  0  0  0
 18 12  1  0  0  0  0
 19 17  1  0  0  0  0
 20  5  1  0  0  0  0
 21  6  1  0  0  0  0
 22 21  1  0  0  0  0
 23 11  1  0  0  0  0
 24 10  1  0  0  0  0
 25 26  1  0  0  0  0
 26 24  2  0  0  0  0
 18 19  1  0  0  0  0
 20 22  1  0  0  0  0
 23 25  2  0  0  0  0
M  END
>  <IDNUMBER>
F6359-0356

>  <Chemical_Name>
1-(2-{[4-(pyridin-2-yloxy)piperidin-1-yl]sulfonyl}ethyl)piperidine-2,6-dione

>  <PriceCoeff>
1.00

>  <CAS>
1448078-16-7

>  <MW>
381.45

>  <Description>
solid

>  <FSP3>
0.59

>  <clogP>
1.24

>  <TPSA>
105.26

>  <Acceptor>
6

>  <Donor>
1

>  <RotBonds>
6

>  <HAC>
26

>  <Collection>
General

>  <PPDS>
+

$$$$
F6359-0631
  Mrv2219 10102508112D          

 27 29  0  0  0  0            999 V2000
   -5.2942    2.5761    0.0000 N   0  0  0  0  0  0  0  0  0  0  0  0
    1.1441    3.8204    0.0000 C   0  0  0  0  0  0  0  0  0  0  0  0
   -4.5928    3.8079    0.0000 C   0  0  0  0  0  0  0  0  0  0  0  0
   -4.5887    2.9937    0.0000 C   0  0  0  0  0  0  0  0  0  0  0  0
   -5.3819    1.7494    0.0000 C   0  0  0  0  0  0  0  0  0  0  0  0
   -6.0417    2.9060    0.0000 C   0  0  0  0  0  0  0  0  0  0  0  0
   -3.8705    4.2212    0.0000 N   0  0  0  0  0  0  0  0  0  0  0  0
    0.4259    4.2254    0.0000 C   0  0  0  0  0  0  0  0  0  0  0  0
   -0.2964    5.4655    0.0000 N   0  0  0  0  0  0  0  0  0  0  0  0
   -1.0146    5.0521    0.0000 C   0  0  0  0  0  0  0  0  0  0  0  0
    0.4176    5.0521    0.0000 C   0  0  0  0  0  0  0  0  0  0  0  0
   -3.8788    5.0521    0.0000 C   0  0  0  0  0  0  0  0  0  0  0  0
   -3.1565    3.8079    0.0000 C   0  0  0  0  0  0  0  0  0  0  0  0
   -5.3068    4.2212    0.0000 O   0  0  0  0  0  0  0  0  0  0  0  0
   -6.5928    2.2880    0.0000 C   0  0  0  0  0  0  0  0  0  0  0  0
   -6.1795    1.5741    0.0000 C   0  0  0  0  0  0  0  0  0  0  0  0
   -6.2171    3.7160    0.0000 O   0  0  0  0  0  0  0  0  0  0  0  0
   -4.7598    1.1858    0.0000 O   0  0  0  0  0  0  0  0  0  0  0  0
   -0.2881    3.8162    0.0000 C   0  0  0  0  0  0  0  0  0  0  0  0
   -1.7369    5.4655    0.0000 O   0  0  0  0  0  0  0  0  0  0  0  0
    1.1441    3.0020    0.0000 F   0  0  0  0  0  0  0  0  0  0  0  0
    1.8580    4.2295    0.0000 F   0  0  0  0  0  0  0  0  0  0  0  0
    1.8664    3.4070    0.0000 F   0  0  0  0  0  0  0  0  0  0  0  0
   -3.1648    5.4613    0.0000 C   0  0  0  0  0  0  0  0  0  0  0  0
   -2.4383    4.2212    0.0000 C   0  0  0  0  0  0  0  0  0  0  0  0
   -2.4509    5.0437    0.0000 C   0  0  0  0  0  0  0  0  0  0  0  0
   -1.0104    4.2254    0.0000 C   0  0  0  0  0  0  0  0  0  0  0  0
  2  8  1  0  0  0  0
  3  4  1  0  0  0  0
  4  1  1  0  0  0  0
  5  1  1  0  0  0  0
  6  1  1  0  0  0  0
  7  3  1  0  0  0  0
  8 19  1  0  0  0  0
  9 10  2  0  0  0  0
 10 20  1  0  0  0  0
 11  9  1  0  0  0  0
 12  7  1  0  0  0  0
 13  7  1  0  0  0  0
 14  3  2  0  0  0  0
 15  6  1  0  0  0  0
 16  5  1  0  0  0  0
 17  6  2  0  0  0  0
 18  5  2  0  0  0  0
 19 27  2  0  0  0  0
 20 26  1  0  0  0  0
 21  2  1  0  0  0  0
 22  2  1  0  0  0  0
 23  2  1  0  0  0  0
 24 12  1  0  0  0  0
 25 13  1  0  0  0  0
 26 25  1  0  0  0  0
 27 10  1  0  0  0  0
 15 16  1  0  0  0  0
 24 26  1  0  0  0  0
 11  8  2  0  0  0  0
M  END
>  <IDNUMBER>
F6359-0631

>  <Chemical_Name>
1-[2-oxo-2-(4-{[5-(trifluoromethyl)pyridin-2-yl]oxy}piperidin-1-yl)ethyl]pyrrolidine-2,5-dione

>  <PriceCoeff>
1.50

>  <CAS>
1421445-24-0

>  <MW>
385.34

>  <Description>
solid

>  <FSP3>
0.53

>  <clogP>
1.22

>  <TPSA>
79.81

>  <Acceptor>
5

>  <Donor>
1

>  <RotBonds>
5

>  <HAC>
27

>  <Collection>
Advanced

>  <PPDS>
+

$$$$
F6359-1029
  Mrv2219 10102508112D          

 24 26  0  0  0  0            999 V2000
   -5.2942    2.5761    0.0000 N   0  0  0  0  0  0  0  0  0  0  0  0
   -4.5928    3.8079    0.0000 C   0  0  0  0  0  0  0  0  0  0  0  0
   -4.5887    2.9937    0.0000 C   0  0  0  0  0  0  0  0  0  0  0  0
   -5.3819    1.7494    0.0000 C   0  0  0  0  0  0  0  0  0  0  0  0
   -6.0417    2.9060    0.0000 C   0  0  0  0  0  0  0  0  0  0  0  0
   -3.8705    4.2212    0.0000 N   0  0  0  0  0  0  0  0  0  0  0  0
   -1.0104    5.0730    0.0000 C   0  0  0  0  0  0  0  0  0  0  0  0
   -1.7411    5.4780    0.0000 O   0  0  0  0  0  0  0  0  0  0  0  0
   -0.2964    5.4906    0.0000 N   0  0  0  0  0  0  0  0  0  0  0  0
   -3.1523    3.8162    0.0000 C   0  0  0  0  0  0  0  0  0  0  0  0
   -3.8663    5.0521    0.0000 C   0  0  0  0  0  0  0  0  0  0  0  0
   -0.9979    4.2421    0.0000 C   0  0  0  0  0  0  0  0  0  0  0  0
   -5.3068    4.2212    0.0000 O   0  0  0  0  0  0  0  0  0  0  0  0
   -6.5928    2.2880    0.0000 C   0  0  0  0  0  0  0  0  0  0  0  0
   -6.1795    1.5741    0.0000 C   0  0  0  0  0  0  0  0  0  0  0  0
   -6.2171    3.7160    0.0000 O   0  0  0  0  0  0  0  0  0  0  0  0
   -4.7598    1.1858    0.0000 O   0  0  0  0  0  0  0  0  0  0  0  0
   -2.4383    4.2295    0.0000 C   0  0  0  0  0  0  0  0  0  0  0  0
   -3.1648    5.4655    0.0000 C   0  0  0  0  0  0  0  0  0  0  0  0
   -2.4509    5.0563    0.0000 C   0  0  0  0  0  0  0  0  0  0  0  0
   -1.7118    3.8204    0.0000 Cl  0  0  0  0  0  0  0  0  0  0  0  0
    0.4259    5.0855    0.0000 C   0  0  0  0  0  0  0  0  0  0  0  0
   -0.2756    3.8412    0.0000 C   0  0  0  0  0  0  0  0  0  0  0  0
    0.4301    4.2588    0.0000 C   0  0  0  0  0  0  0  0  0  0  0  0
  2  3  1  0  0  0  0
  3  1  1  0  0  0  0
  4  1  1  0  0  0  0
  5  1  1  0  0  0  0
  6  2  1  0  0  0  0
  7  8  1  0  0  0  0
  8 20  1  0  0  0  0
  9  7  2  0  0  0  0
 10  6  1  0  0  0  0
 11  6  1  0  0  0  0
 12  7  1  0  0  0  0
 13  2  2  0  0  0  0
 14  5  1  0  0  0  0
 15  4  1  0  0  0  0
 16  5  2  0  0  0  0
 17  4  2  0  0  0  0
 18 10  1  0  0  0  0
 19 11  1  0  0  0  0
 20 19  1  0  0  0  0
 21 12  1  0  0  0  0
 22  9  1  0  0  0  0
 23 12  2  0  0  0  0
 24 23  1  0  0  0  0
 14 15  1  0  0  0  0
 18 20  1  0  0  0  0
 22 24  2  0  0  0  0
M  END
>  <IDNUMBER>
F6359-1029

>  <Chemical_Name>
1-(2-{4-[(3-chloropyridin-2-yl)oxy]piperidin-1-yl}-2-oxoethyl)pyrrolidine-2,5-dione

>  <PriceCoeff>
1.50

>  <CAS>
1448036-82-5

>  <MW>
351.78

>  <Description>
oil

>  <FSP3>
0.50

>  <clogP>
0.77

>  <TPSA>
79.81

>  <Acceptor>
5

>  <Donor>
1

>  <RotBonds>
5

>  <HAC>
24

>  <Collection>
Advanced

>  <PPDS>
+

$$$$
F6359-1880
  Mrv2219 10102508112D          

 26 28  0  0  0  0            999 V2000
   -4.6039    3.8171    0.0000 C   0  0  0  0  0  0  0  0  0  0  0  0
   -3.8799    4.2315    0.0000 N   0  0  0  0  0  0  0  0  0  0  0  0
   -1.0128    5.0853    0.0000 C   0  0  0  0  0  0  0  0  0  0  0  0
   -1.0045    4.2482    0.0000 C   0  0  0  0  0  0  0  0  0  0  0  0
   -4.6039    2.9926    0.0000 N   0  0  0  0  0  0  0  0  0  0  0  0
   -1.7160    3.8380    0.0000 C   0  0  0  0  0  0  0  0  0  0  0  0
   -2.4317    3.4070    0.0000 N   0  0  0  0  0  0  0  0  0  0  0  0
   -6.0312    1.3435    0.0000 C   0  0  0  0  0  0  0  0  0  0  0  0
   -5.3322    1.7537    0.0000 C   0  0  0  0  0  0  0  0  0  0  0  0
   -1.7411    5.4913    0.0000 O   0  0  0  0  0  0  0  0  0  0  0  0
   -0.2972    5.5038    0.0000 N   0  0  0  0  0  0  0  0  0  0  0  0
   -5.3238    2.5908    0.0000 C   0  0  0  0  0  0  0  0  0  0  0  0
   -5.3238    4.2315    0.0000 O   0  0  0  0  0  0  0  0  0  0  0  0
   -3.1600    3.8254    0.0000 C   0  0  0  0  0  0  0  0  0  0  0  0
   -3.8756    5.0686    0.0000 C   0  0  0  0  0  0  0  0  0  0  0  0
   -6.7470    1.7537    0.0000 C   0  0  0  0  0  0  0  0  0  0  0  0
   -2.4442    4.2357    0.0000 C   0  0  0  0  0  0  0  0  0  0  0  0
   -3.1725    5.4787    0.0000 C   0  0  0  0  0  0  0  0  0  0  0  0
   -2.4568    5.0686    0.0000 C   0  0  0  0  0  0  0  0  0  0  0  0
   -6.7511    2.5823    0.0000 C   0  0  0  0  0  0  0  0  0  0  0  0
   -6.0312    0.5106    0.0000 Cl  0  0  0  0  0  0  0  0  0  0  0  0
   -6.0312    2.9967    0.0000 C   0  0  0  0  0  0  0  0  0  0  0  0
   -7.4752    1.3310    0.0000 Cl  0  0  0  0  0  0  0  0  0  0  0  0
   -0.2846    3.8505    0.0000 C   0  0  0  0  0  0  0  0  0  0  0  0
    0.4269    5.0979    0.0000 C   0  0  0  0  0  0  0  0  0  0  0  0
    0.4312    4.2608    0.0000 C   0  0  0  0  0  0  0  0  0  0  0  0
  2  1  1  0  0  0  0
  3 10  1  0  0  0  0
  4  3  1  0  0  0  0
  5  1  1  0  0  0  0
  6  4  1  0  0  0  0
  7  6  3  0  0  0  0
  8  9  1  0  0  0  0
  9 12  2  0  0  0  0
 10 19  1  0  0  0  0
 11  3  2  0  0  0  0
 12  5  1  0  0  0  0
 13  1  2  0  0  0  0
 14  2  1  0  0  0  0
 15  2  1  0  0  0  0
 16 20  1  0  0  0  0
 17 14  1  0  0  0  0
 18 15  1  0  0  0  0
 19 18  1  0  0  0  0
 20 22  2  0  0  0  0
 21  8  1  0  0  0  0
 22 12  1  0  0  0  0
 23 16  1  0  0  0  0
 24  4  2  0  0  0  0
 25 11  1  0  0  0  0
 26 25  2  0  0  0  0
 17 19  1  0  0  0  0
  8 16  2  0  0  0  0
 26 24  1  0  0  0  0
M  END
>  <IDNUMBER>
F6359-1880

>  <Chemical_Name>
4-[(3-cyanopyridin-2-yl)oxy]-N-(3,4-dichlorophenyl)piperidine-1-carboxamide

>  <PriceCoeff>
1.50

>  <CAS>
1797536-10-7

>  <MW>
391.25

>  <Description>
solid

>  <FSP3>
0.28

>  <clogP>
3.28

>  <TPSA>
78.25

>  <Acceptor>
4

>  <Donor>
2

>  <RotBonds>
4

>  <HAC>
26

>  <Collection>
Advanced

>  <PPDS>
+

$$$$
F6359-3074
  Mrv2219 10102508112D          

 24 26  0  0  0  0            999 V2000
   -4.5828    3.7996    0.0000 C   0  0  0  0  0  0  0  0  0  0  0  0
   -3.8621    4.2120    0.0000 N   0  0  0  0  0  0  0  0  0  0  0  0
   -4.5828    2.9789    0.0000 N   0  0  0  0  0  0  0  0  0  0  0  0
   -6.0035    1.3373    0.0000 C   0  0  0  0  0  0  0  0  0  0  0  0
   -5.3077    1.7456    0.0000 C   0  0  0  0  0  0  0  0  0  0  0  0
   -5.2994    2.5789    0.0000 C   0  0  0  0  0  0  0  0  0  0  0  0
   -5.2994    4.2120    0.0000 O   0  0  0  0  0  0  0  0  0  0  0  0
   -1.0207    5.0536    0.0000 C   0  0  0  0  0  0  0  0  0  0  0  0
   -0.2958    5.4702    0.0000 N   0  0  0  0  0  0  0  0  0  0  0  0
   -3.1454    3.8079    0.0000 C   0  0  0  0  0  0  0  0  0  0  0  0
   -3.8621    5.0411    0.0000 C   0  0  0  0  0  0  0  0  0  0  0  0
   -6.7159    1.7456    0.0000 C   0  0  0  0  0  0  0  0  0  0  0  0
   -0.2833    3.8204    0.0000 N   0  0  0  0  0  0  0  0  0  0  0  0
   -1.7331    5.4661    0.0000 O   0  0  0  0  0  0  0  0  0  0  0  0
   -2.4247    4.2162    0.0000 C   0  0  0  0  0  0  0  0  0  0  0  0
   -3.1579    5.4536    0.0000 C   0  0  0  0  0  0  0  0  0  0  0  0
   -6.7200    2.5705    0.0000 C   0  0  0  0  0  0  0  0  0  0  0  0
   -2.4455    5.0286    0.0000 C   0  0  0  0  0  0  0  0  0  0  0  0
   -6.0035    0.5082    0.0000 Cl  0  0  0  0  0  0  0  0  0  0  0  0
   -6.0035    2.9830    0.0000 C   0  0  0  0  0  0  0  0  0  0  0  0
   -7.4408    1.3248    0.0000 Cl  0  0  0  0  0  0  0  0  0  0  0  0
   -1.0082    4.2162    0.0000 C   0  0  0  0  0  0  0  0  0  0  0  0
    0.4167    5.0661    0.0000 C   0  0  0  0  0  0  0  0  0  0  0  0
    0.4292    4.2412    0.0000 C   0  0  0  0  0  0  0  0  0  0  0  0
  2  1  1  0  0  0  0
  3  1  1  0  0  0  0
  4  5  1  0  0  0  0
  5  6  2  0  0  0  0
  6  3  1  0  0  0  0
  7  1  2  0  0  0  0
  8 14  1  0  0  0  0
  9  8  2  0  0  0  0
 10  2  1  0  0  0  0
 11  2  1  0  0  0  0
 12 17  1  0  0  0  0
 13 22  2  0  0  0  0
 14 18  1  0  0  0  0
 15 10  1  0  0  0  0
 16 11  1  0  0  0  0
 17 20  2  0  0  0  0
 18 16  1  0  0  0  0
 19  4  1  0  0  0  0
 20  6  1  0  0  0  0
 21 12  1  0  0  0  0
 22  8  1  0  0  0  0
 23  9  1  0  0  0  0
 24 13  1  0  0  0  0
 15 18  1  0  0  0  0
  4 12  2  0  0  0  0
 23 24  2  0  0  0  0
M  END
>  <IDNUMBER>
F6359-3074

>  <Chemical_Name>
N-(3,4-dichlorophenyl)-4-(pyrazin-2-yloxy)piperidine-1-carboxamide

>  <PriceCoeff>
1.00

>  <CAS>
1421446-03-8

>  <MW>
367.23

>  <Description>
solid

>  <FSP3>
0.31

>  <clogP>
2.88

>  <TPSA>
67.35

>  <Acceptor>
4

>  <Donor>
1

>  <RotBonds>
4

>  <HAC>
24

>  <Collection>
General

>  <PPDS>
+

$$$$
F6359-3472
  Mrv2219 10102508112D          

 24 26  0  0  0  0            999 V2000
   -4.5928    3.8079    0.0000 C   0  0  0  0  0  0  0  0  0  0  0  0
   -3.8705    4.2212    0.0000 N   0  0  0  0  0  0  0  0  0  0  0  0
   -4.5928    2.9854    0.0000 N   0  0  0  0  0  0  0  0  0  0  0  0
   -6.0166    1.3403    0.0000 C   0  0  0  0  0  0  0  0  0  0  0  0
   -5.3193    1.7494    0.0000 C   0  0  0  0  0  0  0  0  0  0  0  0
   -0.2964    5.4906    0.0000 N   0  0  0  0  0  0  0  0  0  0  0  0
   -5.3110    2.5845    0.0000 C   0  0  0  0  0  0  0  0  0  0  0  0
    0.4259    5.0897    0.0000 N   0  0  0  0  0  0  0  0  0  0  0  0
   -5.3110    4.2212    0.0000 O   0  0  0  0  0  0  0  0  0  0  0  0
   -1.0104    5.0772    0.0000 C   0  0  0  0  0  0  0  0  0  0  0  0
   -3.1523    3.8162    0.0000 C   0  0  0  0  0  0  0  0  0  0  0  0
   -3.8663    5.0563    0.0000 C   0  0  0  0  0  0  0  0  0  0  0  0
   -6.7306    1.7494    0.0000 C   0  0  0  0  0  0  0  0  0  0  0  0
   -1.7411    5.4780    0.0000 O   0  0  0  0  0  0  0  0  0  0  0  0
   -2.4383    4.2295    0.0000 C   0  0  0  0  0  0  0  0  0  0  0  0
   -3.1648    5.4655    0.0000 C   0  0  0  0  0  0  0  0  0  0  0  0
   -6.7347    2.5761    0.0000 C   0  0  0  0  0  0  0  0  0  0  0  0
   -2.4509    5.0647    0.0000 C   0  0  0  0  0  0  0  0  0  0  0  0
   -6.0166    0.5094    0.0000 Cl  0  0  0  0  0  0  0  0  0  0  0  0
   -6.0166    2.9895    0.0000 C   0  0  0  0  0  0  0  0  0  0  0  0
   -7.4571    1.3277    0.0000 Cl  0  0  0  0  0  0  0  0  0  0  0  0
    0.4301    4.2588    0.0000 C   0  0  0  0  0  0  0  0  0  0  0  0
   -0.9979    4.2421    0.0000 C   0  0  0  0  0  0  0  0  0  0  0  0
   -0.2839    3.8412    0.0000 C   0  0  0  0  0  0  0  0  0  0  0  0
  2  1  1  0  0  0  0
  3  1  1  0  0  0  0
  4  5  1  0  0  0  0
  5  7  2  0  0  0  0
  6 10  2  0  0  0  0
  7  3  1  0  0  0  0
  8  6  1  0  0  0  0
  9  1  2  0  0  0  0
 10 14  1  0  0  0  0
 11  2  1  0  0  0  0
 12  2  1  0  0  0  0
 13 17  1  0  0  0  0
 14 18  1  0  0  0  0
 15 11  1  0  0  0  0
 16 12  1  0  0  0  0
 17 20  2  0  0  0  0
 18 16  1  0  0  0  0
 19  4  1  0  0  0  0
 20  7  1  0  0  0  0
 21 13  1  0  0  0  0
 22 24  1  0  0  0  0
 23 10  1  0  0  0  0
 24 23  2  0  0  0  0
 15 18  1  0  0  0  0
  4 13  2  0  0  0  0
  8 22  2  0  0  0  0
M  END
>  <IDNUMBER>
F6359-3472

>  <Chemical_Name>
N-(3,4-dichlorophenyl)-4-(pyridazin-3-yloxy)piperidine-1-carboxamide

>  <PriceCoeff>
1.00

>  <CAS>
1797755-21-5

>  <MW>
367.23

>  <Description>
solid

>  <FSP3>
0.31

>  <clogP>
2.34

>  <TPSA>
67.35

>  <Acceptor>
4

>  <Donor>
1

>  <RotBonds>
4

>  <HAC>
24

>  <Collection>
General

>  <PPDS>
+

$$$$
F6359-5009
  Mrv2219 10102508112D          

 24 26  0  0  0  0            999 V2000
   -5.2942    2.5761    0.0000 N   0  0  0  0  0  0  0  0  0  0  0  0
   -4.5928    3.8079    0.0000 C   0  0  0  0  0  0  0  0  0  0  0  0
   -4.5887    2.9937    0.0000 C   0  0  0  0  0  0  0  0  0  0  0  0
   -5.3819    1.7494    0.0000 C   0  0  0  0  0  0  0  0  0  0  0  0
   -6.0417    2.9060    0.0000 C   0  0  0  0  0  0  0  0  0  0  0  0
   -3.8705    4.2212    0.0000 N   0  0  0  0  0  0  0  0  0  0  0  0
   -1.0104    5.0730    0.0000 C   0  0  0  0  0  0  0  0  0  0  0  0
   -1.7411    5.4780    0.0000 O   0  0  0  0  0  0  0  0  0  0  0  0
   -0.2964    5.4906    0.0000 N   0  0  0  0  0  0  0  0  0  0  0  0
   -3.1523    3.8162    0.0000 C   0  0  0  0  0  0  0  0  0  0  0  0
   -3.8663    5.0521    0.0000 C   0  0  0  0  0  0  0  0  0  0  0  0
   -0.9979    4.2421    0.0000 C   0  0  0  0  0  0  0  0  0  0  0  0
   -5.3068    4.2212    0.0000 O   0  0  0  0  0  0  0  0  0  0  0  0
   -6.5928    2.2880    0.0000 C   0  0  0  0  0  0  0  0  0  0  0  0
   -6.1795    1.5741    0.0000 C   0  0  0  0  0  0  0  0  0  0  0  0
   -6.2171    3.7160    0.0000 O   0  0  0  0  0  0  0  0  0  0  0  0
   -4.7598    1.1858    0.0000 O   0  0  0  0  0  0  0  0  0  0  0  0
   -2.4383    4.2295    0.0000 C   0  0  0  0  0  0  0  0  0  0  0  0
   -3.1648    5.4655    0.0000 C   0  0  0  0  0  0  0  0  0  0  0  0
   -2.4509    5.0563    0.0000 C   0  0  0  0  0  0  0  0  0  0  0  0
   -1.7118    3.8204    0.0000 Br  0  0  0  0  0  0  0  0  0  0  0  0
    0.4259    5.0855    0.0000 C   0  0  0  0  0  0  0  0  0  0  0  0
   -0.2756    3.8412    0.0000 C   0  0  0  0  0  0  0  0  0  0  0  0
    0.4301    4.2588    0.0000 C   0  0  0  0  0  0  0  0  0  0  0  0
  2  3  1  0  0  0  0
  3  1  1  0  0  0  0
  4  1  1  0  0  0  0
  5  1  1  0  0  0  0
  6  2  1  0  0  0  0
  7  8  1  0  0  0  0
  8 20  1  0  0  0  0
  9  7  2  0  0  0  0
 10  6  1  0  0  0  0
 11  6  1  0  0  0  0
 12  7  1  0  0  0  0
 13  2  2  0  0  0  0
 14  5  1  0  0  0  0
 15  4  1  0  0  0  0
 16  5  2  0  0  0  0
 17  4  2  0  0  0  0
 18 10  1  0  0  0  0
 19 11  1  0  0  0  0
 20 19  1  0  0  0  0
 21 12  1  0  0  0  0
 22  9  1  0  0  0  0
 23 12  2  0  0  0  0
 24 23  1  0  0  0  0
 14 15  1  0  0  0  0
 18 20  1  0  0  0  0
 22 24  2  0  0  0  0
M  END
>  <IDNUMBER>
F6359-5009

>  <Chemical_Name>
1-(2-{4-[(3-bromopyridin-2-yl)oxy]piperidin-1-yl}-2-oxoethyl)pyrrolidine-2,5-dione

>  <PriceCoeff>
1.50

>  <CAS>
1448069-73-5

>  <MW>
396.24

>  <Description>
oil

>  <FSP3>
0.50

>  <clogP>
0.92

>  <TPSA>
79.81

>  <Acceptor>
5

>  <Donor>
1

>  <RotBonds>
5

>  <HAC>
24

>  <Collection>
Advanced

>  <PPDS>
+

$$$$
F6359-5407
  Mrv2219 10102508112D          

 24 26  0  0  0  0            999 V2000
   -5.2948    2.5764    0.0000 N   0  0  0  0  0  0  0  0  0  0  0  0
   -4.5933    3.8083    0.0000 C   0  0  0  0  0  0  0  0  0  0  0  0
   -4.5892    2.9940    0.0000 C   0  0  0  0  0  0  0  0  0  0  0  0
   -5.3825    1.7496    0.0000 C   0  0  0  0  0  0  0  0  0  0  0  0
   -6.0424    2.9063    0.0000 C   0  0  0  0  0  0  0  0  0  0  0  0
   -3.8709    4.2217    0.0000 N   0  0  0  0  0  0  0  0  0  0  0  0
   -0.2881    5.4912    0.0000 N   0  0  0  0  0  0  0  0  0  0  0  0
   -1.0022    5.0569    0.0000 C   0  0  0  0  0  0  0  0  0  0  0  0
   -3.8709    5.0527    0.0000 C   0  0  0  0  0  0  0  0  0  0  0  0
   -3.1527    3.8166    0.0000 C   0  0  0  0  0  0  0  0  0  0  0  0
   -5.3074    4.2217    0.0000 O   0  0  0  0  0  0  0  0  0  0  0  0
   -6.5936    2.2883    0.0000 C   0  0  0  0  0  0  0  0  0  0  0  0
   -6.1802    1.5743    0.0000 C   0  0  0  0  0  0  0  0  0  0  0  0
   -6.2178    3.7164    0.0000 O   0  0  0  0  0  0  0  0  0  0  0  0
   -4.7603    1.1859    0.0000 O   0  0  0  0  0  0  0  0  0  0  0  0
   -1.7288    5.4786    0.0000 O   0  0  0  0  0  0  0  0  0  0  0  0
   -3.1652    5.4661    0.0000 C   0  0  0  0  0  0  0  0  0  0  0  0
   -2.4386    4.2259    0.0000 C   0  0  0  0  0  0  0  0  0  0  0  0
   -2.4512    5.0443    0.0000 C   0  0  0  0  0  0  0  0  0  0  0  0
    0.4301    5.0736    0.0000 C   0  0  0  0  0  0  0  0  0  0  0  0
   -0.9980    4.2385    0.0000 C   0  0  0  0  0  0  0  0  0  0  0  0
   -0.2756    3.8375    0.0000 C   0  0  0  0  0  0  0  0  0  0  0  0
    0.4384    4.2510    0.0000 C   0  0  0  0  0  0  0  0  0  0  0  0
    1.1525    5.4912    0.0000 C   0  0  0  0  0  0  0  0  0  0  0  0
  2  3  1  0  0  0  0
  3  1  1  0  0  0  0
  4  1  1  0  0  0  0
  5  1  1  0  0  0  0
  6  2  1  0  0  0  0
  7  8  2  0  0  0  0
  8 16  1  0  0  0  0
  9  6  1  0  0  0  0
 10  6  1  0  0  0  0
 11  2  2  0  0  0  0
 12  5  1  0  0  0  0
 13  4  1  0  0  0  0
 14  5  2  0  0  0  0
 15  4  2  0  0  0  0
 16 19  1  0  0  0  0
 17  9  1  0  0  0  0
 18 10  1  0  0  0  0
 19 18  1  0  0  0  0
 20  7  1  0  0  0  0
 21  8  1  0  0  0  0
 22 21  2  0  0  0  0
 23 22  1  0  0  0  0
 24 20  1  0  0  0  0
 12 13  1  0  0  0  0
 17 19  1  0  0  0  0
 20 23  2  0  0  0  0
M  END
>  <IDNUMBER>
F6359-5407

>  <Chemical_Name>
1-(2-{4-[(6-methylpyridin-2-yl)oxy]piperidin-1-yl}-2-oxoethyl)pyrrolidine-2,5-dione

>  <PriceCoeff>
1.50

>  <CAS>
1797952-45-4

>  <MW>
331.37

>  <Description>
solid

>  <FSP3>
0.53

>  <clogP>
0.74

>  <TPSA>
79.81

>  <Acceptor>
5

>  <Donor>
1

>  <RotBonds>
5

>  <HAC>
24

>  <Collection>
Advanced

>  <PPDS>
+

$$$$
F6369-0505
  Mrv2219 10102508112D          

 28 31  0  0  0  0            999 V2000
    5.5997    0.1650    0.0000 C   0  0  0  0  0  0  0  0  0  0  0  0
    6.4075    0.2991    0.0000 N   0  0  0  0  0  0  0  0  0  0  0  0
    1.7978    0.9350    0.0000 N   0  0  0  0  0  0  0  0  0  0  0  0
    6.7891   -0.4434    0.0000 C   0  0  0  0  0  0  0  0  0  0  0  0
    5.0153    0.7493    0.0000 N   0  0  0  0  0  0  0  0  0  0  0  0
    7.5832   -0.6600    0.0000 C   0  0  0  0  0  0  0  0  0  0  0  0
    5.4656   -0.6428    0.0000 S   0  0  0  0  0  0  0  0  0  0  0  0
    8.1710   -0.0757    0.0000 C   0  0  0  0  0  0  0  0  0  0  0  0
    1.4988    0.1547    0.0000 C   0  0  0  0  0  0  0  0  0  0  0  0
    1.1550    1.4506    0.0000 C   0  0  0  0  0  0  0  0  0  0  0  0
    6.2081   -1.0244    0.0000 C   0  0  0  0  0  0  0  0  0  0  0  0
    4.1903    1.5743    0.0000 C   0  0  0  0  0  0  0  0  0  0  0  0
    2.8085    1.9456    0.0000 C   0  0  0  0  0  0  0  0  0  0  0  0
    2.5919    1.1447    0.0000 C   0  0  0  0  0  0  0  0  0  0  0  0
    4.1903    0.7493    0.0000 C   0  0  0  0  0  0  0  0  0  0  0  0
    5.0153    1.5743    0.0000 C   0  0  0  0  0  0  0  0  0  0  0  0
    3.6094    2.1553    0.0000 O   0  0  0  0  0  0  0  0  0  0  0  0
    0.4572    0.9968    0.0000 C   0  0  0  0  0  0  0  0  0  0  0  0
    0.6738    0.2028    0.0000 C   0  0  0  0  0  0  0  0  0  0  0  0
    1.1997    2.2756    0.0000 O   0  0  0  0  0  0  0  0  0  0  0  0
    1.9422   -0.5397    0.0000 O   0  0  0  0  0  0  0  0  0  0  0  0
    2.2275    2.5231    0.0000 O   0  0  0  0  0  0  0  0  0  0  0  0
    8.7588    0.5018    0.0000 F   0  0  0  0  0  0  0  0  0  0  0  0
    8.7553   -0.6635    0.0000 F   0  0  0  0  0  0  0  0  0  0  0  0
    7.5900    0.5053    0.0000 F   0  0  0  0  0  0  0  0  0  0  0  0
    7.7997   -1.4575    0.0000 C   0  0  0  0  0  0  0  0  0  0  0  0
    6.4178   -1.8185    0.0000 C   0  0  0  0  0  0  0  0  0  0  0  0
    7.2119   -2.0350    0.0000 C   0  0  0  0  0  0  0  0  0  0  0  0
  2  1  2  0  0  0  0
  3 14  1  0  0  0  0
  4  2  1  0  0  0  0
  5  1  1  0  0  0  0
  6  4  2  0  0  0  0
  7  1  1  0  0  0  0
  8  6  1  0  0  0  0
  9  3  1  0  0  0  0
 10  3  1  0  0  0  0
 11  7  1  0  0  0  0
 12 16  1  0  0  0  0
 13 17  1  0  0  0  0
 14 13  1  0  0  0  0
 15  5  1  0  0  0  0
 16  5  1  0  0  0  0
 17 12  1  0  0  0  0
 18 10  1  0  0  0  0
 19  9  1  0  0  0  0
 20 10  2  0  0  0  0
 21  9  2  0  0  0  0
 22 13  2  0  0  0  0
 23  8  1  0  0  0  0
 24  8  1  0  0  0  0
 25  8  1  0  0  0  0
 26  6  1  0  0  0  0
 27 11  2  0  0  0  0
 28 27  1  0  0  0  0
 11  4  1  0  0  0  0
 15 12  1  0  0  0  0
 28 26  2  0  0  0  0
 19 18  1  0  0  0  0
M  END
>  <IDNUMBER>
F6369-0505

>  <Chemical_Name>
1-[4-(trifluoromethyl)-1,3-benzothiazol-2-yl]azetidin-3-yl 2-(2,5-dioxopyrrolidin-1-yl)acetate

>  <PriceCoeff>
1.50

>  <CAS>
1396717-88-6

>  <MW>
413.37

>  <Description>
solid

>  <FSP3>
0.41

>  <clogP>
3.03

>  <TPSA>
108.05

>  <Acceptor>
5

>  <Donor>
1

>  <RotBonds>
5

>  <HAC>
28

>  <Collection>
Advanced

>  <PPDS>
+

$$$$
F6372-1997
  Mrv2219 10102508112D          

 28 31  0  0  0  0            999 V2000
   -1.7815    3.6671    0.0000 N   0  0  0  0  0  0  0  0  0  0  0  0
   -1.8856    7.8462    0.0000 C   0  0  0  0  0  0  0  0  0  0  0  0
   -2.5556    7.3675    0.0000 N   0  0  0  0  0  0  0  0  0  0  0  0
   -1.2195    7.3675    0.0000 N   0  0  0  0  0  0  0  0  0  0  0  0
   -2.2976    6.5808    0.0000 C   0  0  0  0  0  0  0  0  0  0  0  0
   -1.3694    2.9512    0.0000 C   0  0  0  0  0  0  0  0  0  0  0  0
   -1.2320    4.2706    0.0000 C   0  0  0  0  0  0  0  0  0  0  0  0
   -1.8856    8.6703    0.0000 C   0  0  0  0  0  0  0  0  0  0  0  0
   -1.4735    6.5808    0.0000 O   0  0  0  0  0  0  0  0  0  0  0  0
   -2.9345    4.4954    0.0000 C   0  0  0  0  0  0  0  0  0  0  0  0
   -3.7545    4.5828    0.0000 N   0  0  0  0  0  0  0  0  0  0  0  0
   -2.5973    3.7462    0.0000 C   0  0  0  0  0  0  0  0  0  0  0  0
   -4.0916    5.3362    0.0000 C   0  0  0  0  0  0  0  0  0  0  0  0
   -3.6046    5.9981    0.0000 C   0  0  0  0  0  0  0  0  0  0  0  0
   -1.2195    9.1574    0.0000 O   0  0  0  0  0  0  0  0  0  0  0  0
   -2.7847    5.9107    0.0000 C   0  0  0  0  0  0  0  0  0  0  0  0
   -2.5556    9.1574    0.0000 C   0  0  0  0  0  0  0  0  0  0  0  0
   -0.5578    3.1176    0.0000 C   0  0  0  0  0  0  0  0  0  0  0  0
   -0.4745    3.9418    0.0000 C   0  0  0  0  0  0  0  0  0  0  0  0
   -1.7066    2.1936    0.0000 O   0  0  0  0  0  0  0  0  0  0  0  0
   -1.3985    5.0740    0.0000 O   0  0  0  0  0  0  0  0  0  0  0  0
   -2.4475    5.1614    0.0000 O   0  0  0  0  0  0  0  0  0  0  0  0
   -1.4735    9.9441    0.0000 C   0  0  0  0  0  0  0  0  0  0  0  0
   -2.2976    9.9441    0.0000 C   0  0  0  0  0  0  0  0  0  0  0  0
   -4.9075    5.4153    0.0000 C   0  0  0  0  0  0  0  0  0  0  0  0
   -3.9418    6.7556    0.0000 C   0  0  0  0  0  0  0  0  0  0  0  0
   -4.7619    6.8389    0.0000 C   0  0  0  0  0  0  0  0  0  0  0  0
   -5.2405    6.1729    0.0000 C   0  0  0  0  0  0  0  0  0  0  0  0
  2  3  1  0  0  0  0
  3  5  2  0  0  0  0
  4  9  1  0  0  0  0
  5 16  1  0  0  0  0
  6  1  1  0  0  0  0
  7  1  1  0  0  0  0
  8  2  1  0  0  0  0
  9  5  1  0  0  0  0
 10 12  1  0  0  0  0
 11 10  1  0  0  0  0
 12  1  1  0  0  0  0
 13 11  1  0  0  0  0
 14 13  1  0  0  0  0
 15  8  1  0  0  0  0
 16 14  1  0  0  0  0
 17  8  2  0  0  0  0
 18  6  1  0  0  0  0
 19  7  1  0  0  0  0
 20  6  2  0  0  0  0
 21  7  2  0  0  0  0
 22 10  2  0  0  0  0
 23 15  1  0  0  0  0
 24 17  1  0  0  0  0
 25 13  2  0  0  0  0
 26 14  2  0  0  0  0
 27 28  2  0  0  0  0
 28 25  1  0  0  0  0
 19 18  1  0  0  0  0
 26 27  1  0  0  0  0
  2  4  2  0  0  0  0
 24 23  2  0  0  0  0
M  END
>  <IDNUMBER>
F6372-1997

>  <Chemical_Name>
2-(2,5-dioxopyrrolidin-1-yl)-N-(2-{[3-(furan-2-yl)-1,2,4-oxadiazol-5-yl]methyl}phenyl)acetamide

>  <PriceCoeff>
1.00

>  <CAS>
1797267-82-3

>  <MW>
380.35

>  <Description>
solid

>  <FSP3>
0.21

>  <clogP>
0.64

>  <TPSA>
118.54

>  <Acceptor>
7

>  <Donor>
1

>  <RotBonds>
6

>  <HAC>
28

>  <Collection>
General

>  <PPDS>
+

$$$$
F6374-0166
  Mrv2219 10102508112D          

 24 26  0  0  0  0            999 V2000
   -4.6053    5.0437    0.0000 N   0  0  0  0  0  0  0  0  0  0  0  0
   -3.8788    3.8079    0.0000 C   0  0  0  0  0  0  0  0  0  0  0  0
   -4.5928    4.2212    0.0000 C   0  0  0  0  0  0  0  0  0  0  0  0
   -3.9289    5.5281    0.0000 C   0  0  0  0  0  0  0  0  0  0  0  0
   -5.2692    5.5156    0.0000 C   0  0  0  0  0  0  0  0  0  0  0  0
   -3.1648    4.2129    0.0000 N   0  0  0  0  0  0  0  0  0  0  0  0
    0.4050    5.4488    0.0000 C   0  0  0  0  0  0  0  0  0  0  0  0
    1.1273    5.0396    0.0000 N   0  0  0  0  0  0  0  0  0  0  0  0
   -3.8788    2.9895    0.0000 O   0  0  0  0  0  0  0  0  0  0  0  0
   -5.0271    6.3047    0.0000 C   0  0  0  0  0  0  0  0  0  0  0  0
   -4.1962    6.3173    0.0000 C   0  0  0  0  0  0  0  0  0  0  0  0
   -6.0417    5.2526    0.0000 O   0  0  0  0  0  0  0  0  0  0  0  0
   -3.1523    5.2776    0.0000 O   0  0  0  0  0  0  0  0  0  0  0  0
   -3.1648    5.0396    0.0000 C   0  0  0  0  0  0  0  0  0  0  0  0
   -2.4509    3.8079    0.0000 C   0  0  0  0  0  0  0  0  0  0  0  0
   -0.3089    5.0396    0.0000 S   0  0  0  0  0  0  0  0  0  0  0  0
   -1.0146    5.4488    0.0000 C   0  0  0  0  0  0  0  0  0  0  0  0
   -1.7286    4.2129    0.0000 C   0  0  0  0  0  0  0  0  0  0  0  0
   -2.4509    5.4530    0.0000 C   0  0  0  0  0  0  0  0  0  0  0  0
   -1.7369    5.0396    0.0000 C   0  0  0  0  0  0  0  0  0  0  0  0
    1.8413    5.4488    0.0000 C   0  0  0  0  0  0  0  0  0  0  0  0
    0.4050    6.2672    0.0000 C   0  0  0  0  0  0  0  0  0  0  0  0
    1.8330    6.2672    0.0000 C   0  0  0  0  0  0  0  0  0  0  0  0
    1.1273    6.6888    0.0000 C   0  0  0  0  0  0  0  0  0  0  0  0
  2  3  1  0  0  0  0
  3  1  1  0  0  0  0
  4  1  1  0  0  0  0
  5  1  1  0  0  0  0
  6  2  1  0  0  0  0
  7 16  1  0  0  0  0
  8  7  2  0  0  0  0
  9  2  2  0  0  0  0
 10  5  1  0  0  0  0
 11  4  1  0  0  0  0
 12  5  2  0  0  0  0
 13  4  2  0  0  0  0
 14  6  1  0  0  0  0
 15  6  1  0  0  0  0
 16 17  1  0  0  0  0
 17 20  1  0  0  0  0
 18 15  1  0  0  0  0
 19 14  1  0  0  0  0
 20 18  1  0  0  0  0
 21  8  1  0  0  0  0
 22  7  1  0  0  0  0
 23 24  1  0  0  0  0
 24 22  2  0  0  0  0
 10 11  1  0  0  0  0
 20 19  1  0  0  0  0
 21 23  2  0  0  0  0
M  END
>  <IDNUMBER>
F6374-0166

>  <Chemical_Name>
1-(2-oxo-2-{4-[(pyridin-2-ylsulfanyl)methyl]piperidin-1-yl}ethyl)pyrrolidine-2,5-dione

>  <PriceCoeff>
1.00

>  <CAS>
1421500-46-0

>  <MW>
347.43

>  <Description>
oil

>  <FSP3>
0.53

>  <clogP>
1.18

>  <TPSA>
95.88

>  <Acceptor>
4

>  <Donor>
1

>  <RotBonds>
6

>  <HAC>
24

>  <Collection>
General

>  <PPDS>
+

$$$$
F6374-0794
  Mrv2219 10102508112D          

 24 26  0  0  0  0            999 V2000
   -4.6029    5.0411    0.0000 N   0  0  0  0  0  0  0  0  0  0  0  0
   -0.2963    6.6770    0.0000 C   0  0  0  0  0  0  0  0  0  0  0  0
    0.4925    6.4141    0.0000 N   0  0  0  0  0  0  0  0  0  0  0  0
   -3.8768    3.8059    0.0000 C   0  0  0  0  0  0  0  0  0  0  0  0
   -4.5904    4.2190    0.0000 C   0  0  0  0  0  0  0  0  0  0  0  0
   -3.9269    5.5252    0.0000 C   0  0  0  0  0  0  0  0  0  0  0  0
   -5.2664    5.5127    0.0000 C   0  0  0  0  0  0  0  0  0  0  0  0
   -3.1632    4.2107    0.0000 N   0  0  0  0  0  0  0  0  0  0  0  0
   -0.2754    7.5033    0.0000 S   0  0  0  0  0  0  0  0  0  0  0  0
    0.9765    7.0859    0.0000 C   0  0  0  0  0  0  0  0  0  0  0  0
    0.5133    7.7495    0.0000 C   0  0  0  0  0  0  0  0  0  0  0  0
   -1.0099    6.2764    0.0000 S   0  0  0  0  0  0  0  0  0  0  0  0
   -3.8768    2.9879    0.0000 O   0  0  0  0  0  0  0  0  0  0  0  0
   -5.0245    6.3014    0.0000 C   0  0  0  0  0  0  0  0  0  0  0  0
   -4.1940    6.3139    0.0000 C   0  0  0  0  0  0  0  0  0  0  0  0
   -6.0385    5.2498    0.0000 O   0  0  0  0  0  0  0  0  0  0  0  0
   -3.1507    5.2748    0.0000 O   0  0  0  0  0  0  0  0  0  0  0  0
   -2.4538    3.8142    0.0000 C   0  0  0  0  0  0  0  0  0  0  0  0
   -3.1632    5.0370    0.0000 C   0  0  0  0  0  0  0  0  0  0  0  0
   -1.0141    5.4501    0.0000 C   0  0  0  0  0  0  0  0  0  0  0  0
   -1.7360    4.2232    0.0000 C   0  0  0  0  0  0  0  0  0  0  0  0
   -2.4496    5.4501    0.0000 C   0  0  0  0  0  0  0  0  0  0  0  0
   -1.7360    5.0411    0.0000 C   0  0  0  0  0  0  0  0  0  0  0  0
    1.8070    7.0651    0.0000 C   0  0  0  0  0  0  0  0  0  0  0  0
  2 12  1  0  0  0  0
  3  2  2  0  0  0  0
  4  5  1  0  0  0  0
  5  1  1  0  0  0  0
  6  1  1  0  0  0  0
  7  1  1  0  0  0  0
  8  4  1  0  0  0  0
  9  2  1  0  0  0  0
 10  3  1  0  0  0  0
 11  9  1  0  0  0  0
 12 20  1  0  0  0  0
 13  4  2  0  0  0  0
 14  7  1  0  0  0  0
 15  6  1  0  0  0  0
 16  7  2  0  0  0  0
 17  6  2  0  0  0  0
 18  8  1  0  0  0  0
 19  8  1  0  0  0  0
 20 23  1  0  0  0  0
 21 18  1  0  0  0  0
 22 19  1  0  0  0  0
 23 22  1  0  0  0  0
 24 10  1  0  0  0  0
 14 15  1  0  0  0  0
 21 23  1  0  0  0  0
 11 10  2  0  0  0  0
M  END
>  <IDNUMBER>
F6374-0794

>  <Chemical_Name>
1-[2-(4-{[(4-methyl-1,3-thiazol-2-yl)sulfanyl]methyl}piperidin-1-yl)-2-oxoethyl]pyrrolidine-2,5-dione

>  <PriceCoeff>
1.00

>  <CAS>
1421522-70-4

>  <MW>
367.49

>  <Description>
oil

>  <FSP3>
0.62

>  <clogP>
1.53

>  <TPSA>
124.12

>  <Acceptor>
4

>  <Donor>
0

>  <RotBonds>
6

>  <HAC>
24

>  <Collection>
General

>  <PPDS>
+

$$$$
F6374-0900
  Mrv2219 10102508112D          

 27 29  0  0  0  0            999 V2000
   -3.8879    3.8168    0.0000 S   0  0  0  0  0  0  0  0  0  0  0  0
   -6.0308    3.4611    0.0000 N   0  0  0  0  0  0  0  0  0  0  0  0
   -3.1723    4.2228    0.0000 N   0  0  0  0  0  0  0  0  0  0  0  0
   -0.2971    6.6962    0.0000 C   0  0  0  0  0  0  0  0  0  0  0  0
    0.4939    6.4326    0.0000 N   0  0  0  0  0  0  0  0  0  0  0  0
   -4.6120    3.4234    0.0000 C   0  0  0  0  0  0  0  0  0  0  0  0
   -6.0517    2.6324    0.0000 C   0  0  0  0  0  0  0  0  0  0  0  0
   -6.7339    3.8921    0.0000 C   0  0  0  0  0  0  0  0  0  0  0  0
   -0.2762    7.5249    0.0000 S   0  0  0  0  0  0  0  0  0  0  0  0
   -5.3067    3.8503    0.0000 C   0  0  0  0  0  0  0  0  0  0  0  0
    0.9793    7.1063    0.0000 C   0  0  0  0  0  0  0  0  0  0  0  0
    0.5147    7.7717    0.0000 C   0  0  0  0  0  0  0  0  0  0  0  0
   -3.4904    3.0970    0.0000 O   0  0  0  0  0  0  0  0  0  0  0  0
   -4.0888    4.6246    0.0000 O   0  0  0  0  0  0  0  0  0  0  0  0
   -1.0128    6.2945    0.0000 S   0  0  0  0  0  0  0  0  0  0  0  0
   -2.4609    3.8251    0.0000 C   0  0  0  0  0  0  0  0  0  0  0  0
   -3.1723    5.0515    0.0000 C   0  0  0  0  0  0  0  0  0  0  0  0
   -5.3444    2.1972    0.0000 O   0  0  0  0  0  0  0  0  0  0  0  0
   -6.7171    4.7124    0.0000 O   0  0  0  0  0  0  0  0  0  0  0  0
   -1.0170    5.4658    0.0000 C   0  0  0  0  0  0  0  0  0  0  0  0
   -1.7409    4.2354    0.0000 C   0  0  0  0  0  0  0  0  0  0  0  0
   -2.4567    5.4658    0.0000 C   0  0  0  0  0  0  0  0  0  0  0  0
   -1.7409    5.0556    0.0000 C   0  0  0  0  0  0  0  0  0  0  0  0
   -6.7715    2.2349    0.0000 C   0  0  0  0  0  0  0  0  0  0  0  0
   -7.4496    3.4947    0.0000 C   0  0  0  0  0  0  0  0  0  0  0  0
   -7.4747    2.6700    0.0000 C   0  0  0  0  0  0  0  0  0  0  0  0
    1.8122    7.0854    0.0000 C   0  0  0  0  0  0  0  0  0  0  0  0
  2 10  1  0  0  0  0
  3  1  1  0  0  0  0
  4 15  1  0  0  0  0
  5  4  2  0  0  0  0
  6  1  1  0  0  0  0
  7  2  1  0  0  0  0
  8  2  1  0  0  0  0
  9  4  1  0  0  0  0
 10  6  1  0  0  0  0
 11  5  1  0  0  0  0
 12  9  1  0  0  0  0
 13  1  2  0  0  0  0
 14  1  2  0  0  0  0
 15 20  1  0  0  0  0
 16  3  1  0  0  0  0
 17  3  1  0  0  0  0
 18  7  2  0  0  0  0
 19  8  2  0  0  0  0
 20 23  1  0  0  0  0
 21 16  1  0  0  0  0
 22 17  1  0  0  0  0
 23 22  1  0  0  0  0
 24  7  1  0  0  0  0
 25  8  1  0  0  0  0
 26 25  1  0  0  0  0
 27 11  1  0  0  0  0
 21 23  1  0  0  0  0
 24 26  1  0  0  0  0
 12 11  2  0  0  0  0
M  END
>  <IDNUMBER>
F6374-0900

>  <Chemical_Name>
1-{2-[(4-{[(4-methyl-1,3-thiazol-2-yl)sulfanyl]methyl}piperidin-1-yl)sulfonyl]ethyl}piperidine-2,6-dione

>  <PriceCoeff>
1.00

>  <CAS>
1428372-13-7

>  <MW>
431.59

>  <Description>
oil

>  <FSP3>
0.71

>  <clogP>
2.53

>  <TPSA>
149.57

>  <Acceptor>
5

>  <Donor>
0

>  <RotBonds>
7

>  <HAC>
27

>  <Collection>
General

>  <PPDS>
+

$$$$
F6374-1422
  Mrv2219 10102508112D          

 24 26  0  0  0  0            999 V2000
   -4.6053    5.0437    0.0000 N   0  0  0  0  0  0  0  0  0  0  0  0
   -0.2881    6.6930    0.0000 C   0  0  0  0  0  0  0  0  0  0  0  0
   -3.8788    3.8079    0.0000 C   0  0  0  0  0  0  0  0  0  0  0  0
   -4.5928    4.2212    0.0000 C   0  0  0  0  0  0  0  0  0  0  0  0
   -3.9289    5.5281    0.0000 C   0  0  0  0  0  0  0  0  0  0  0  0
   -5.2692    5.5156    0.0000 C   0  0  0  0  0  0  0  0  0  0  0  0
   -3.1648    4.2129    0.0000 N   0  0  0  0  0  0  0  0  0  0  0  0
   -0.2714    7.5281    0.0000 N   0  0  0  0  0  0  0  0  0  0  0  0
    0.5010    6.4300    0.0000 N   0  0  0  0  0  0  0  0  0  0  0  0
   -1.0104    6.2880    0.0000 S   0  0  0  0  0  0  0  0  0  0  0  0
    0.9812    7.0939    0.0000 C   0  0  0  0  0  0  0  0  0  0  0  0
    0.5136    7.7661    0.0000 C   0  0  0  0  0  0  0  0  0  0  0  0
   -3.8788    2.9895    0.0000 O   0  0  0  0  0  0  0  0  0  0  0  0
   -5.0271    6.3047    0.0000 C   0  0  0  0  0  0  0  0  0  0  0  0
   -4.1962    6.3173    0.0000 C   0  0  0  0  0  0  0  0  0  0  0  0
   -6.0417    5.2526    0.0000 O   0  0  0  0  0  0  0  0  0  0  0  0
   -3.1523    5.2776    0.0000 O   0  0  0  0  0  0  0  0  0  0  0  0
   -2.4509    3.8162    0.0000 C   0  0  0  0  0  0  0  0  0  0  0  0
   -3.1648    5.0396    0.0000 C   0  0  0  0  0  0  0  0  0  0  0  0
   -1.0104    5.4530    0.0000 C   0  0  0  0  0  0  0  0  0  0  0  0
   -1.7369    4.2254    0.0000 C   0  0  0  0  0  0  0  0  0  0  0  0
   -2.4551    5.4530    0.0000 C   0  0  0  0  0  0  0  0  0  0  0  0
   -1.7411    5.0396    0.0000 C   0  0  0  0  0  0  0  0  0  0  0  0
   -0.9352    8.0208    0.0000 C   0  0  0  0  0  0  0  0  0  0  0  0
  2 10  1  0  0  0  0
  3  4  1  0  0  0  0
  4  1  1  0  0  0  0
  5  1  1  0  0  0  0
  6  1  1  0  0  0  0
  7  3  1  0  0  0  0
  8  2  1  0  0  0  0
  9  2  2  0  0  0  0
 10 20  1  0  0  0  0
 11  9  1  0  0  0  0
 12  8  1  0  0  0  0
 13  3  2  0  0  0  0
 14  6  1  0  0  0  0
 15  5  1  0  0  0  0
 16  6  2  0  0  0  0
 17  5  2  0  0  0  0
 18  7  1  0  0  0  0
 19  7  1  0  0  0  0
 20 23  1  0  0  0  0
 21 18  1  0  0  0  0
 22 19  1  0  0  0  0
 23 22  1  0  0  0  0
 24  8  1  0  0  0  0
 14 15  1  0  0  0  0
 21 23  1  0  0  0  0
 12 11  2  0  0  0  0
M  END
>  <IDNUMBER>
F6374-1422

>  <Chemical_Name>
1-[2-(4-{[(1-methyl-1H-imidazol-2-yl)sulfanyl]methyl}piperidin-1-yl)-2-oxoethyl]pyrrolidine-2,5-dione

>  <PriceCoeff>
1.50

>  <CAS>
1428357-37-2

>  <MW>
350.44

>  <Description>
oil

>  <FSP3>
0.62

>  <clogP>
0.53

>  <TPSA>
100.81

>  <Acceptor>
4

>  <Donor>
1

>  <RotBonds>
6

>  <HAC>
24

>  <Collection>
Advanced

>  <PPDS>
+

$$$$
F6374-1528
  Mrv2219 10102508112D          

 27 29  0  0  0  0            999 V2000
   -3.8942    3.8229    0.0000 S   0  0  0  0  0  0  0  0  0  0  0  0
   -6.0404    3.4666    0.0000 N   0  0  0  0  0  0  0  0  0  0  0  0
   -0.2892    6.7195    0.0000 C   0  0  0  0  0  0  0  0  0  0  0  0
   -3.1774    4.2296    0.0000 N   0  0  0  0  0  0  0  0  0  0  0  0
   -4.6194    3.4289    0.0000 C   0  0  0  0  0  0  0  0  0  0  0  0
   -0.2724    7.5578    0.0000 N   0  0  0  0  0  0  0  0  0  0  0  0
    0.5030    6.4554    0.0000 N   0  0  0  0  0  0  0  0  0  0  0  0
   -6.0614    2.6366    0.0000 C   0  0  0  0  0  0  0  0  0  0  0  0
   -6.7447    3.8984    0.0000 C   0  0  0  0  0  0  0  0  0  0  0  0
   -5.3152    3.8564    0.0000 C   0  0  0  0  0  0  0  0  0  0  0  0
   -1.0144    6.3129    0.0000 S   0  0  0  0  0  0  0  0  0  0  0  0
    0.9851    7.1219    0.0000 C   0  0  0  0  0  0  0  0  0  0  0  0
   -3.4960    3.1019    0.0000 O   0  0  0  0  0  0  0  0  0  0  0  0
   -4.0954    4.6320    0.0000 O   0  0  0  0  0  0  0  0  0  0  0  0
    0.5156    7.7968    0.0000 C   0  0  0  0  0  0  0  0  0  0  0  0
   -2.4606    3.8313    0.0000 C   0  0  0  0  0  0  0  0  0  0  0  0
   -3.1774    5.0595    0.0000 C   0  0  0  0  0  0  0  0  0  0  0  0
   -5.3529    2.2007    0.0000 O   0  0  0  0  0  0  0  0  0  0  0  0
   -6.7279    4.7200    0.0000 O   0  0  0  0  0  0  0  0  0  0  0  0
   -1.0144    5.4745    0.0000 C   0  0  0  0  0  0  0  0  0  0  0  0
   -1.7438    4.2421    0.0000 C   0  0  0  0  0  0  0  0  0  0  0  0
   -2.4648    5.4745    0.0000 C   0  0  0  0  0  0  0  0  0  0  0  0
   -1.7480    5.0595    0.0000 C   0  0  0  0  0  0  0  0  0  0  0  0
   -6.7824    2.2384    0.0000 C   0  0  0  0  0  0  0  0  0  0  0  0
   -7.4615    3.5002    0.0000 C   0  0  0  0  0  0  0  0  0  0  0  0
   -0.9389    8.0525    0.0000 C   0  0  0  0  0  0  0  0  0  0  0  0
   -7.4866    2.6743    0.0000 C   0  0  0  0  0  0  0  0  0  0  0  0
  2 10  1  0  0  0  0
  3 11  1  0  0  0  0
  4  1  1  0  0  0  0
  5  1  1  0  0  0  0
  6  3  1  0  0  0  0
  7  3  2  0  0  0  0
  8  2  1  0  0  0  0
  9  2  1  0  0  0  0
 10  5  1  0  0  0  0
 11 20  1  0  0  0  0
 12  7  1  0  0  0  0
 13  1  2  0  0  0  0
 14  1  2  0  0  0  0
 15  6  1  0  0  0  0
 16  4  1  0  0  0  0
 17  4  1  0  0  0  0
 18  8  2  0  0  0  0
 19  9  2  0  0  0  0
 20 23  1  0  0  0  0
 21 16  1  0  0  0  0
 22 17  1  0  0  0  0
 23 22  1  0  0  0  0
 24  8  1  0  0  0  0
 25  9  1  0  0  0  0
 26  6  1  0  0  0  0
 27 25  1  0  0  0  0
 21 23  1  0  0  0  0
 24 27  1  0  0  0  0
 15 12  2  0  0  0  0
M  END
>  <IDNUMBER>
F6374-1528

>  <Chemical_Name>
1-{2-[(4-{[(1-methyl-1H-imidazol-2-yl)sulfanyl]methyl}piperidin-1-yl)sulfonyl]ethyl}piperidine-2,6-dione

>  <PriceCoeff>
1.00

>  <CAS>
1428375-84-1

>  <MW>
414.54

>  <Description>
oil

>  <FSP3>
0.71

>  <clogP>
1.53

>  <TPSA>
126.26

>  <Acceptor>
5

>  <Donor>
1

>  <RotBonds>
7

>  <HAC>
27

>  <Collection>
General

>  <PPDS>
+

$$$$
F6374-1736
  Mrv2219 10102508112D          

 26 28  0  0  0  0            999 V2000
   -4.9152    5.4420    0.0000 N   0  0  0  0  0  0  0  0  0  0  0  0
   -4.1868    4.2143    0.0000 C   0  0  0  0  0  0  0  0  0  0  0  0
   -4.9106    4.6083    0.0000 C   0  0  0  0  0  0  0  0  0  0  0  0
   -4.3014    5.9963    0.0000 C   0  0  0  0  0  0  0  0  0  0  0  0
   -5.6298    5.8542    0.0000 C   0  0  0  0  0  0  0  0  0  0  0  0
   -3.4722    4.6221    0.0000 N   0  0  0  0  0  0  0  0  0  0  0  0
   -4.1777    3.3760    0.0000 O   0  0  0  0  0  0  0  0  0  0  0  0
   -5.4511    6.6650    0.0000 C   0  0  0  0  0  0  0  0  0  0  0  0
   -4.6403    6.7475    0.0000 C   0  0  0  0  0  0  0  0  0  0  0  0
   -6.3856    5.5153    0.0000 O   0  0  0  0  0  0  0  0  0  0  0  0
   -3.4859    5.8314    0.0000 O   0  0  0  0  0  0  0  0  0  0  0  0
   -2.7576    4.2143    0.0000 C   0  0  0  0  0  0  0  0  0  0  0  0
   -3.4722    5.4466    0.0000 C   0  0  0  0  0  0  0  0  0  0  0  0
   -0.6138    5.4557    0.0000 S   0  0  0  0  0  0  0  0  0  0  0  0
    0.1008    5.8680    0.0000 C   0  0  0  0  0  0  0  0  0  0  0  0
   -1.3284    5.8680    0.0000 C   0  0  0  0  0  0  0  0  0  0  0  0
    1.5300    6.6925    0.0000 C   0  0  0  0  0  0  0  0  0  0  0  0
   -2.7576    5.8589    0.0000 C   0  0  0  0  0  0  0  0  0  0  0  0
   -2.0430    4.6221    0.0000 C   0  0  0  0  0  0  0  0  0  0  0  0
   -2.0430    5.4466    0.0000 C   0  0  0  0  0  0  0  0  0  0  0  0
    0.8154    5.4557    0.0000 C   0  0  0  0  0  0  0  0  0  0  0  0
    0.1008    6.6925    0.0000 C   0  0  0  0  0  0  0  0  0  0  0  0
    1.5300    5.8680    0.0000 C   0  0  0  0  0  0  0  0  0  0  0  0
    0.8154    7.1048    0.0000 C   0  0  0  0  0  0  0  0  0  0  0  0
    2.2584    7.1048    0.0000 O   0  0  0  0  0  0  0  0  0  0  0  0
    2.9730    6.6834    0.0000 C   0  0  0  0  0  0  0  0  0  0  0  0
  2  3  1  0  0  0  0
  3  1  1  0  0  0  0
  4  1  1  0  0  0  0
  5  1  1  0  0  0  0
  6  2  1  0  0  0  0
  7  2  2  0  0  0  0
  8  5  1  0  0  0  0
  9  4  1  0  0  0  0
 10  5  2  0  0  0  0
 11  4  2  0  0  0  0
 12  6  1  0  0  0  0
 13  6  1  0  0  0  0
 14 16  1  0  0  0  0
 15 14  1  0  0  0  0
 16 20  1  0  0  0  0
 17 24  2  0  0  0  0
 18 13  1  0  0  0  0
 19 12  1  0  0  0  0
 20 18  1  0  0  0  0
 21 15  1  0  0  0  0
 22 15  2  0  0  0  0
 23 21  2  0  0  0  0
 24 22  1  0  0  0  0
 25 17  1  0  0  0  0
 26 25  1  0  0  0  0
  8  9  1  0  0  0  0
 20 19  1  0  0  0  0
 23 17  1  0  0  0  0
M  END
>  <IDNUMBER>
F6374-1736

>  <Chemical_Name>
1-[2-(4-{[(4-methoxyphenyl)sulfanyl]methyl}piperidin-1-yl)-2-oxoethyl]pyrrolidine-2,5-dione

>  <PriceCoeff>
1.50

>  <CAS>
1421507-15-4

>  <MW>
376.47

>  <Description>
oil

>  <FSP3>
0.53

>  <clogP>
2.05

>  <TPSA>
92.22

>  <Acceptor>
4

>  <Donor>
0

>  <RotBonds>
7

>  <HAC>
26

>  <Collection>
Advanced

>  <PPDS>
+

$$$$
F6374-1842
  Mrv2219 10102508112D          

 29 31  0  0  0  0            999 V2000
   -3.8887    3.8176    0.0000 S   0  0  0  0  0  0  0  0  0  0  0  0
   -6.0320    3.4618    0.0000 N   0  0  0  0  0  0  0  0  0  0  0  0
   -3.1729    4.2237    0.0000 N   0  0  0  0  0  0  0  0  0  0  0  0
   -4.6130    3.4241    0.0000 C   0  0  0  0  0  0  0  0  0  0  0  0
   -6.0529    2.6329    0.0000 C   0  0  0  0  0  0  0  0  0  0  0  0
   -6.7352    3.8929    0.0000 C   0  0  0  0  0  0  0  0  0  0  0  0
   -5.3078    3.8511    0.0000 C   0  0  0  0  0  0  0  0  0  0  0  0
   -3.4911    3.0976    0.0000 O   0  0  0  0  0  0  0  0  0  0  0  0
   -4.0897    4.6255    0.0000 O   0  0  0  0  0  0  0  0  0  0  0  0
   -2.4571    3.8176    0.0000 C   0  0  0  0  0  0  0  0  0  0  0  0
   -3.1729    5.0525    0.0000 C   0  0  0  0  0  0  0  0  0  0  0  0
   -5.3454    2.1976    0.0000 O   0  0  0  0  0  0  0  0  0  0  0  0
   -6.7185    4.7134    0.0000 O   0  0  0  0  0  0  0  0  0  0  0  0
   -1.0046    6.2915    0.0000 S   0  0  0  0  0  0  0  0  0  0  0  0
   -0.2846    6.6976    0.0000 C   0  0  0  0  0  0  0  0  0  0  0  0
   -1.0172    5.4627    0.0000 C   0  0  0  0  0  0  0  0  0  0  0  0
    1.1470    7.5222    0.0000 C   0  0  0  0  0  0  0  0  0  0  0  0
   -2.4571    5.4627    0.0000 C   0  0  0  0  0  0  0  0  0  0  0  0
   -1.7413    4.2237    0.0000 C   0  0  0  0  0  0  0  0  0  0  0  0
   -1.7413    5.0525    0.0000 C   0  0  0  0  0  0  0  0  0  0  0  0
    0.4312    6.2789    0.0000 C   0  0  0  0  0  0  0  0  0  0  0  0
   -0.2846    7.5222    0.0000 C   0  0  0  0  0  0  0  0  0  0  0  0
    1.1344    6.6891    0.0000 C   0  0  0  0  0  0  0  0  0  0  0  0
    0.4312    7.9366    0.0000 C   0  0  0  0  0  0  0  0  0  0  0  0
   -6.7729    2.2353    0.0000 C   0  0  0  0  0  0  0  0  0  0  0  0
   -7.4510    3.4953    0.0000 C   0  0  0  0  0  0  0  0  0  0  0  0
    1.8753    7.9366    0.0000 O   0  0  0  0  0  0  0  0  0  0  0  0
   -7.4762    2.6706    0.0000 C   0  0  0  0  0  0  0  0  0  0  0  0
    1.8837    8.7571    0.0000 C   0  0  0  0  0  0  0  0  0  0  0  0
  2  7  1  0  0  0  0
  3  1  1  0  0  0  0
  4  1  1  0  0  0  0
  5  2  1  0  0  0  0
  6  2  1  0  0  0  0
  7  4  1  0  0  0  0
  8  1  2  0  0  0  0
  9  1  2  0  0  0  0
 10  3  1  0  0  0  0
 11  3  1  0  0  0  0
 12  5  2  0  0  0  0
 13  6  2  0  0  0  0
 14 16  1  0  0  0  0
 15 14  1  0  0  0  0
 16 20  1  0  0  0  0
 17 24  2  0  0  0  0
 18 11  1  0  0  0  0
 19 10  1  0  0  0  0
 20 18  1  0  0  0  0
 21 15  1  0  0  0  0
 22 15  2  0  0  0  0
 23 21  2  0  0  0  0
 24 22  1  0  0  0  0
 25  5  1  0  0  0  0
 26  6  1  0  0  0  0
 27 17  1  0  0  0  0
 28 26  1  0  0  0  0
 29 27  1  0  0  0  0
 20 19  1  0  0  0  0
 25 28  1  0  0  0  0
 23 17  1  0  0  0  0
M  END
>  <IDNUMBER>
F6374-1842

>  <Chemical_Name>
1-{2-[(4-{[(4-methoxyphenyl)sulfanyl]methyl}piperidin-1-yl)sulfonyl]ethyl}piperidine-2,6-dione

>  <PriceCoeff>
1.00

>  <CAS>
1421523-19-4

>  <MW>
440.58

>  <Description>
oil

>  <FSP3>
0.60

>  <clogP>
3.05

>  <TPSA>
117.67

>  <Acceptor>
5

>  <Donor>
0

>  <RotBonds>
8

>  <HAC>
29

>  <Collection>
General

>  <PPDS>
+

$$$$
F6374-5504
  Mrv2219 10102508112D          

 24 26  0  0  0  0            999 V2000
    3.4746   -8.0533    0.0000 N   0  0  0  0  0  0  0  0  0  0  0  0
    4.9036   -8.0491    0.0000 C   0  0  0  0  0  0  0  0  0  0  0  0
    4.1787   -7.6408    0.0000 C   0  0  0  0  0  0  0  0  0  0  0  0
    2.6914   -7.8033    0.0000 C   0  0  0  0  0  0  0  0  0  0  0  0
    3.4788   -8.8782    0.0000 C   0  0  0  0  0  0  0  0  0  0  0  0
    5.6286   -7.6241    0.0000 N   0  0  0  0  0  0  0  0  0  0  0  0
    9.9281   -6.7784    0.0000 C   0  0  0  0  0  0  0  0  0  0  0  0
   10.7155   -6.5243    0.0000 O   0  0  0  0  0  0  0  0  0  0  0  0
    4.9161   -8.8782    0.0000 O   0  0  0  0  0  0  0  0  0  0  0  0
    2.6914   -9.1365    0.0000 C   0  0  0  0  0  0  0  0  0  0  0  0
    2.2039   -8.4740    0.0000 C   0  0  0  0  0  0  0  0  0  0  0  0
    4.1495   -9.3739    0.0000 O   0  0  0  0  0  0  0  0  0  0  0  0
    2.4372   -7.0159    0.0000 O   0  0  0  0  0  0  0  0  0  0  0  0
    5.6286   -6.7909    0.0000 C   0  0  0  0  0  0  0  0  0  0  0  0
    6.3410   -8.0366    0.0000 C   0  0  0  0  0  0  0  0  0  0  0  0
    9.9406   -7.6033    0.0000 C   0  0  0  0  0  0  0  0  0  0  0  0
   11.1987   -7.1909    0.0000 C   0  0  0  0  0  0  0  0  0  0  0  0
   10.7238   -7.8616    0.0000 C   0  0  0  0  0  0  0  0  0  0  0  0
    8.4990   -6.7867    0.0000 S   0  0  0  0  0  0  0  0  0  0  0  0
    7.0534   -7.6241    0.0000 C   0  0  0  0  0  0  0  0  0  0  0  0
    6.3410   -6.3785    0.0000 C   0  0  0  0  0  0  0  0  0  0  0  0
    9.2114   -6.3660    0.0000 C   0  0  0  0  0  0  0  0  0  0  0  0
    7.0534   -6.7909    0.0000 C   0  0  0  0  0  0  0  0  0  0  0  0
    7.7783   -6.3743    0.0000 C   0  0  0  0  0  0  0  0  0  0  0  0
  2  3  1  0  0  0  0
  3  1  1  0  0  0  0
  4  1  1  0  0  0  0
  5  1  1  0  0  0  0
  6  2  1  0  0  0  0
  7 22  1  0  0  0  0
  8  7  1  0  0  0  0
  9  2  2  0  0  0  0
 10  5  1  0  0  0  0
 11  4  1  0  0  0  0
 12  5  2  0  0  0  0
 13  4  2  0  0  0  0
 14  6  1  0  0  0  0
 15  6  1  0  0  0  0
 16  7  2  0  0  0  0
 17  8  1  0  0  0  0
 18 16  1  0  0  0  0
 19 24  1  0  0  0  0
 20 15  1  0  0  0  0
 21 14  1  0  0  0  0
 22 19  1  0  0  0  0
 23 20  1  0  0  0  0
 24 23  1  0  0  0  0
 10 11  1  0  0  0  0
 21 23  1  0  0  0  0
 17 18  2  0  0  0  0
M  END
>  <IDNUMBER>
F6374-5504

>  <Chemical_Name>
1-{2-[4-({[(furan-2-yl)methyl]sulfanyl}methyl)piperidin-1-yl]-2-oxoethyl}pyrrolidine-2,5-dione

>  <PriceCoeff>
1.50

>  <CAS>
1396771-60-0

>  <MW>
350.43

>  <Description>
oil

>  <FSP3>
0.59

>  <clogP>
1.46

>  <TPSA>
96.13

>  <Acceptor>
4

>  <Donor>
0

>  <RotBonds>
7

>  <HAC>
24

>  <Collection>
Advanced

>  <PPDS>
+

$$$$
F6374-5610
  Mrv2219 10102508112D          

 27 29  0  0  0  0            999 V2000
   -3.8882    3.8171    0.0000 S   0  0  0  0  0  0  0  0  0  0  0  0
   -6.0312    3.4613    0.0000 N   0  0  0  0  0  0  0  0  0  0  0  0
   -3.1725    4.2231    0.0000 N   0  0  0  0  0  0  0  0  0  0  0  0
   -4.6124    3.4237    0.0000 C   0  0  0  0  0  0  0  0  0  0  0  0
   -6.0521    2.6326    0.0000 C   0  0  0  0  0  0  0  0  0  0  0  0
   -6.7344    3.8924    0.0000 C   0  0  0  0  0  0  0  0  0  0  0  0
   -5.3070    3.8505    0.0000 C   0  0  0  0  0  0  0  0  0  0  0  0
   -3.4907    3.0972    0.0000 O   0  0  0  0  0  0  0  0  0  0  0  0
   -4.0891    4.6249    0.0000 O   0  0  0  0  0  0  0  0  0  0  0  0
   -0.2763    7.5380    0.0000 C   0  0  0  0  0  0  0  0  0  0  0  0
   -0.8872    8.1031    0.0000 O   0  0  0  0  0  0  0  0  0  0  0  0
   -3.1725    5.0519    0.0000 C   0  0  0  0  0  0  0  0  0  0  0  0
   -2.4568    3.8254    0.0000 C   0  0  0  0  0  0  0  0  0  0  0  0
   -5.3447    2.1974    0.0000 O   0  0  0  0  0  0  0  0  0  0  0  0
   -6.7177    4.7128    0.0000 O   0  0  0  0  0  0  0  0  0  0  0  0
    0.4437    7.9439    0.0000 C   0  0  0  0  0  0  0  0  0  0  0  0
   -0.5357    8.8438    0.0000 C   0  0  0  0  0  0  0  0  0  0  0  0
    0.2805    8.7559    0.0000 C   0  0  0  0  0  0  0  0  0  0  0  0
   -1.0128    6.3033    0.0000 S   0  0  0  0  0  0  0  0  0  0  0  0
   -1.7411    4.2357    0.0000 C   0  0  0  0  0  0  0  0  0  0  0  0
   -2.4568    5.4662    0.0000 C   0  0  0  0  0  0  0  0  0  0  0  0
   -6.7720    2.2351    0.0000 C   0  0  0  0  0  0  0  0  0  0  0  0
   -7.4501    3.4949    0.0000 C   0  0  0  0  0  0  0  0  0  0  0  0
   -0.2888    6.7093    0.0000 C   0  0  0  0  0  0  0  0  0  0  0  0
   -1.7411    5.0560    0.0000 C   0  0  0  0  0  0  0  0  0  0  0  0
   -7.4752    2.6702    0.0000 C   0  0  0  0  0  0  0  0  0  0  0  0
   -1.0128    5.4662    0.0000 C   0  0  0  0  0  0  0  0  0  0  0  0
  2  7  1  0  0  0  0
  3  1  1  0  0  0  0
  4  1  1  0  0  0  0
  5  2  1  0  0  0  0
  6  2  1  0  0  0  0
  7  4  1  0  0  0  0
  8  1  2  0  0  0  0
  9  1  2  0  0  0  0
 10 24  1  0  0  0  0
 11 10  1  0  0  0  0
 12  3  1  0  0  0  0
 13  3  1  0  0  0  0
 14  5  2  0  0  0  0
 15  6  2  0  0  0  0
 16 10  2  0  0  0  0
 17 11  1  0  0  0  0
 18 16  1  0  0  0  0
 19 27  1  0  0  0  0
 20 13  1  0  0  0  0
 21 12  1  0  0  0  0
 22  5  1  0  0  0  0
 23  6  1  0  0  0  0
 24 19  1  0  0  0  0
 25 20  1  0  0  0  0
 26 23  1  0  0  0  0
 27 25  1  0  0  0  0
 21 25  1  0  0  0  0
 22 26  1  0  0  0  0
 17 18  2  0  0  0  0
M  END
>  <IDNUMBER>
F6374-5610

>  <Chemical_Name>
1-(2-{[4-({[(furan-2-yl)methyl]sulfanyl}methyl)piperidin-1-yl]sulfonyl}ethyl)piperidine-2,6-dione

>  <PriceCoeff>
1.00

>  <CAS>
1396772-53-4

>  <MW>
414.54

>  <Description>
oil

>  <FSP3>
0.67

>  <clogP>
2.46

>  <TPSA>
121.58

>  <Acceptor>
5

>  <Donor>
0

>  <RotBonds>
8

>  <HAC>
27

>  <Collection>
General

>  <PPDS>
+

$$$$
F6381-4336
  Mrv2219 10102508112D          

 27 29  0  0  0  0            999 V2000
   -4.5841    3.8007    0.0000 S   0  0  0  0  0  0  0  0  0  0  0  0
   -6.7137    3.3589    0.0000 N   0  0  0  0  0  0  0  0  0  0  0  0
   -3.8632    4.2133    0.0000 N   0  0  0  0  0  0  0  0  0  0  0  0
   -5.2843    3.3839    0.0000 C   0  0  0  0  0  0  0  0  0  0  0  0
   -6.6929    2.5338    0.0000 C   0  0  0  0  0  0  0  0  0  0  0  0
   -7.4306    3.7590    0.0000 C   0  0  0  0  0  0  0  0  0  0  0  0
   -6.0011    3.7840    0.0000 C   0  0  0  0  0  0  0  0  0  0  0  0
   -3.9340    5.0342    0.0000 C   0  0  0  0  0  0  0  0  0  0  0  0
   -4.1550    3.1089    0.0000 O   0  0  0  0  0  0  0  0  0  0  0  0
   -5.0009    4.5050    0.0000 O   0  0  0  0  0  0  0  0  0  0  0  0
   -3.3214    5.5927    0.0000 C   0  0  0  0  0  0  0  0  0  0  0  0
   -3.5589    6.3804    0.0000 C   0  0  0  0  0  0  0  0  0  0  0  0
   -7.4556    4.5758    0.0000 O   0  0  0  0  0  0  0  0  0  0  0  0
   -5.9719    2.1337    0.0000 O   0  0  0  0  0  0  0  0  0  0  0  0
   -4.3591    6.5762    0.0000 C   0  0  0  0  0  0  0  0  0  0  0  0
   -2.9880    6.9805    0.0000 C   0  0  0  0  0  0  0  0  0  0  0  0
   -4.0340    7.9682    0.0000 C   0  0  0  0  0  0  0  0  0  0  0  0
   -3.1839    3.7465    0.0000 C   0  0  0  0  0  0  0  0  0  0  0  0
   -3.2214    7.7764    0.0000 C   0  0  0  0  0  0  0  0  0  0  0  0
   -4.5966    7.3680    0.0000 C   0  0  0  0  0  0  0  0  0  0  0  0
   -4.2675    8.7599    0.0000 F   0  0  0  0  0  0  0  0  0  0  0  0
   -7.4013    2.1004    0.0000 C   0  0  0  0  0  0  0  0  0  0  0  0
   -8.1348    3.3339    0.0000 C   0  0  0  0  0  0  0  0  0  0  0  0
   -8.1182    2.5005    0.0000 C   0  0  0  0  0  0  0  0  0  0  0  0
   -2.4963    5.4677    0.0000 C   0  0  0  0  0  0  0  0  0  0  0  0
   -2.3962    3.9882    0.0000 C   0  0  0  0  0  0  0  0  0  0  0  0
   -2.0837    4.7551    0.0000 C   0  0  0  0  0  0  0  0  0  0  0  0
  2  7  1  0  0  0  0
  3  1  1  0  0  0  0
  4  1  1  0  0  0  0
  5  2  1  0  0  0  0
  6  2  1  0  0  0  0
  7  4  1  0  0  0  0
  8  3  1  0  0  0  0
  9  1  2  0  0  0  0
 10  1  2  0  0  0  0
 11  8  1  0  0  0  0
 12 11  1  0  0  0  0
 13  6  2  0  0  0  0
 14  5  2  0  0  0  0
 15 12  2  0  0  0  0
 16 12  1  0  0  0  0
 17 19  1  0  0  0  0
 18  3  1  0  0  0  0
 19 16  2  0  0  0  0
 20 15  1  0  0  0  0
 21 17  1  0  0  0  0
 22  5  1  0  0  0  0
 23  6  1  0  0  0  0
 24 23  1  0  0  0  0
 25 11  1  0  0  0  0
 26 18  1  0  0  0  0
 27 26  1  0  0  0  0
 27 25  1  0  0  0  0
 22 24  1  0  0  0  0
 20 17  2  0  0  0  0
M  END
>  <IDNUMBER>
F6381-4336

>  <Chemical_Name>
1-(2-{[3-(4-fluorophenyl)azepan-1-yl]sulfonyl}ethyl)piperidine-2,6-dione

>  <PriceCoeff>
1.00

>  <CAS>
1797182-17-2

>  <MW>
396.48

>  <Description>
solid

>  <FSP3>
0.58

>  <clogP>
3.36

>  <TPSA>
83.14

>  <Acceptor>
4

>  <Donor>
0

>  <RotBonds>
5

>  <HAC>
27

>  <Collection>
General

>  <PPDS>
+

$$$$
F6390-3132
  Mrv2219 10102508112D          

 24 26  0  0  0  0            999 V2000
   -3.7205    3.6882    0.0000 C   0  0  0  0  0  0  0  0  0  0  0  0
   -3.0047    4.0926    0.0000 N   0  0  0  0  0  0  0  0  0  0  0  0
   -3.6720    2.8713    0.0000 N   0  0  0  0  0  0  0  0  0  0  0  0
   -2.2889    5.3422    0.0000 C   0  0  0  0  0  0  0  0  0  0  0  0
   -5.7911    2.3294    0.0000 C   0  0  0  0  0  0  0  0  0  0  0  0
   -1.5003    5.0793    0.0000 S   0  0  0  0  0  0  0  0  0  0  0  0
   -5.0955    2.7863    0.0000 C   0  0  0  0  0  0  0  0  0  0  0  0
   -3.0047    4.9298    0.0000 C   0  0  0  0  0  0  0  0  0  0  0  0
   -4.3635    2.4143    0.0000 C   0  0  0  0  0  0  0  0  0  0  0  0
   -4.4120    4.1412    0.0000 O   0  0  0  0  0  0  0  0  0  0  0  0
   -5.7385    1.4923    0.0000 C   0  0  0  0  0  0  0  0  0  0  0  0
   -2.2768    3.6841    0.0000 C   0  0  0  0  0  0  0  0  0  0  0  0
   -1.0191    5.7426    0.0000 C   0  0  0  0  0  0  0  0  0  0  0  0
   -2.2889    6.1672    0.0000 C   0  0  0  0  0  0  0  0  0  0  0  0
   -1.5003    6.4179    0.0000 C   0  0  0  0  0  0  0  0  0  0  0  0
   -0.8493    2.8591    0.0000 O   0  0  0  0  0  0  0  0  0  0  0  0
   -5.0025    1.1242    0.0000 C   0  0  0  0  0  0  0  0  0  0  0  0
   -6.5191    2.6933    0.0000 Cl  0  0  0  0  0  0  0  0  0  0  0  0
   -4.3150    1.5772    0.0000 C   0  0  0  0  0  0  0  0  0  0  0  0
   -6.4220    1.0393    0.0000 Cl  0  0  0  0  0  0  0  0  0  0  0  0
   -1.5610    4.0926    0.0000 C   0  0  0  0  0  0  0  0  0  0  0  0
   -2.2809    2.8591    0.0000 C   0  0  0  0  0  0  0  0  0  0  0  0
   -0.8452    3.6841    0.0000 C   0  0  0  0  0  0  0  0  0  0  0  0
   -1.5731    2.4466    0.0000 C   0  0  0  0  0  0  0  0  0  0  0  0
  2  1  1  0  0  0  0
  3  1  1  0  0  0  0
  4  8  1  0  0  0  0
  5  7  1  0  0  0  0
  6  4  1  0  0  0  0
  7  9  2  0  0  0  0
  8  2  1  0  0  0  0
  9  3  1  0  0  0  0
 10  1  2  0  0  0  0
 11 17  1  0  0  0  0
 12  2  1  0  0  0  0
 13  6  1  0  0  0  0
 14  4  2  0  0  0  0
 15 14  1  0  0  0  0
 16 24  1  0  0  0  0
 17 19  2  0  0  0  0
 18  5  1  0  0  0  0
 19  9  1  0  0  0  0
 20 11  1  0  0  0  0
 21 12  1  0  0  0  0
 22 12  1  0  0  0  0
 23 21  1  0  0  0  0
 24 22  1  0  0  0  0
 16 23  1  0  0  0  0
  5 11  2  0  0  0  0
 13 15  2  0  0  0  0
M  END
>  <IDNUMBER>
F6390-3132

>  <Chemical_Name>
3-(3,4-dichlorophenyl)-1-(oxan-4-yl)-1-[(thiophen-2-yl)methyl]urea

>  <PriceCoeff>
1.00

>  <CAS>
1797077-57-6

>  <MW>
385.31

>  <Description>
solid

>  <FSP3>
0.35

>  <clogP>
3.66

>  <TPSA>
69.81

>  <Acceptor>
2

>  <Donor>
1

>  <RotBonds>
5

>  <HAC>
24

>  <Collection>
General

>  <PPDS>
+

$$$$
F6390-3492
  Mrv2219 10102508112D          

 25 27  0  0  0  0            999 V2000
   -3.7205    3.6882    0.0000 C   0  0  0  0  0  0  0  0  0  0  0  0
   -3.0047    4.0926    0.0000 N   0  0  0  0  0  0  0  0  0  0  0  0
   -3.6720    2.8713    0.0000 N   0  0  0  0  0  0  0  0  0  0  0  0
   -3.0088    4.9298    0.0000 C   0  0  0  0  0  0  0  0  0  0  0  0
   -2.2889    6.1672    0.0000 C   0  0  0  0  0  0  0  0  0  0  0  0
   -5.7911    2.3294    0.0000 C   0  0  0  0  0  0  0  0  0  0  0  0
   -1.6702    6.7132    0.0000 S   0  0  0  0  0  0  0  0  0  0  0  0
   -5.0955    2.7863    0.0000 C   0  0  0  0  0  0  0  0  0  0  0  0
   -4.3635    2.4143    0.0000 C   0  0  0  0  0  0  0  0  0  0  0  0
   -4.4120    4.1412    0.0000 O   0  0  0  0  0  0  0  0  0  0  0  0
   -2.2930    5.3422    0.0000 C   0  0  0  0  0  0  0  0  0  0  0  0
   -5.7385    1.4923    0.0000 C   0  0  0  0  0  0  0  0  0  0  0  0
   -2.2809    3.6841    0.0000 C   0  0  0  0  0  0  0  0  0  0  0  0
   -2.0018    7.4654    0.0000 C   0  0  0  0  0  0  0  0  0  0  0  0
   -3.0047    6.5797    0.0000 C   0  0  0  0  0  0  0  0  0  0  0  0
   -2.8227    7.3926    0.0000 C   0  0  0  0  0  0  0  0  0  0  0  0
   -0.8573    2.8591    0.0000 O   0  0  0  0  0  0  0  0  0  0  0  0
   -5.0025    1.1242    0.0000 C   0  0  0  0  0  0  0  0  0  0  0  0
   -6.5191    2.6933    0.0000 Cl  0  0  0  0  0  0  0  0  0  0  0  0
   -4.3150    1.5772    0.0000 C   0  0  0  0  0  0  0  0  0  0  0  0
   -6.4220    1.0393    0.0000 Cl  0  0  0  0  0  0  0  0  0  0  0  0
   -2.2809    2.8591    0.0000 C   0  0  0  0  0  0  0  0  0  0  0  0
   -1.5610    4.0886    0.0000 C   0  0  0  0  0  0  0  0  0  0  0  0
   -1.5731    2.4466    0.0000 C   0  0  0  0  0  0  0  0  0  0  0  0
   -0.8452    3.6841    0.0000 C   0  0  0  0  0  0  0  0  0  0  0  0
  2  1  1  0  0  0  0
  3  1  1  0  0  0  0
  4  2  1  0  0  0  0
  5 11  1  0  0  0  0
  6  8  1  0  0  0  0
  7  5  1  0  0  0  0
  8  9  2  0  0  0  0
  9  3  1  0  0  0  0
 10  1  2  0  0  0  0
 11  4  1  0  0  0  0
 12 18  1  0  0  0  0
 13  2  1  0  0  0  0
 14  7  1  0  0  0  0
 15  5  2  0  0  0  0
 16 15  1  0  0  0  0
 17 25  1  0  0  0  0
 18 20  2  0  0  0  0
 19  6  1  0  0  0  0
 20  9  1  0  0  0  0
 21 12  1  0  0  0  0
 22 13  1  0  0  0  0
 23 13  1  0  0  0  0
 24 22  1  0  0  0  0
 25 23  1  0  0  0  0
 24 17  1  0  0  0  0
  6 12  2  0  0  0  0
 14 16  2  0  0  0  0
M  END
>  <IDNUMBER>
F6390-3492

>  <Chemical_Name>
3-(3,4-dichlorophenyl)-1-(oxan-4-yl)-1-[2-(thiophen-2-yl)ethyl]urea

>  <PriceCoeff>
1.00

>  <CAS>
1797605-33-4

>  <MW>
399.33

>  <Description>
solid

>  <FSP3>
0.39

>  <clogP>
3.91

>  <TPSA>
69.81

>  <Acceptor>
2

>  <Donor>
1

>  <RotBonds>
6

>  <HAC>
25

>  <Collection>
General

$$$$
F6395-3665
  Mrv2219 10102508112D          

 23 25  0  0  0  0            999 V2000
   -5.2833    2.5708    0.0000 N   0  0  0  0  0  0  0  0  0  0  0  0
   -4.5833    3.8000    0.0000 C   0  0  0  0  0  0  0  0  0  0  0  0
   -3.8625    4.2125    0.0000 N   0  0  0  0  0  0  0  0  0  0  0  0
   -4.5792    2.9875    0.0000 C   0  0  0  0  0  0  0  0  0  0  0  0
   -5.3708    1.7458    0.0000 C   0  0  0  0  0  0  0  0  0  0  0  0
   -6.0292    2.9000    0.0000 C   0  0  0  0  0  0  0  0  0  0  0  0
   -3.8625    5.0417    0.0000 C   0  0  0  0  0  0  0  0  0  0  0  0
   -5.2958    4.2125    0.0000 O   0  0  0  0  0  0  0  0  0  0  0  0
   -6.5792    2.2833    0.0000 C   0  0  0  0  0  0  0  0  0  0  0  0
   -6.1667    1.5708    0.0000 C   0  0  0  0  0  0  0  0  0  0  0  0
   -6.2042    3.7083    0.0000 O   0  0  0  0  0  0  0  0  0  0  0  0
   -4.7500    1.1833    0.0000 O   0  0  0  0  0  0  0  0  0  0  0  0
   -2.4333    5.0292    0.0000 O   0  0  0  0  0  0  0  0  0  0  0  0
   -3.1458    5.4542    0.0000 C   0  0  0  0  0  0  0  0  0  0  0  0
   -3.1375    6.2792    0.0000 C   0  0  0  0  0  0  0  0  0  0  0  0
   -3.1500    3.8000    0.0000 C   0  0  0  0  0  0  0  0  0  0  0  0
   -2.4333    4.2125    0.0000 C   0  0  0  0  0  0  0  0  0  0  0  0
   -3.8583    6.7042    0.0000 C   0  0  0  0  0  0  0  0  0  0  0  0
   -3.8500    7.5292    0.0000 C   0  0  0  0  0  0  0  0  0  0  0  0
   -4.5708    6.2917    0.0000 C   0  0  0  0  0  0  0  0  0  0  0  0
   -4.5625    7.9417    0.0000 C   0  0  0  0  0  0  0  0  0  0  0  0
   -5.2833    6.7042    0.0000 C   0  0  0  0  0  0  0  0  0  0  0  0
   -5.2833    7.5417    0.0000 C   0  0  0  0  0  0  0  0  0  0  0  0
  2  4  1  0  0  0  0
  3  2  1  0  0  0  0
  4  1  1  0  0  0  0
  5  1  1  0  0  0  0
  6  1  1  0  0  0  0
  7  3  1  0  0  0  0
  8  2  2  0  0  0  0
  9  6  1  0  0  0  0
 10  5  1  0  0  0  0
 11  6  2  0  0  0  0
 12  5  2  0  0  0  0
 13 17  1  0  0  0  0
 14  7  1  0  0  0  0
 15 14  1  0  0  0  0
 16  3  1  0  0  0  0
 17 16  1  0  0  0  0
 18 15  1  0  0  0  0
 19 18  2  0  0  0  0
 20 18  1  0  0  0  0
 21 19  1  0  0  0  0
 22 20  2  0  0  0  0
 23 22  1  0  0  0  0
  9 10  1  0  0  0  0
 13 14  1  0  0  0  0
 21 23  2  0  0  0  0
M  END
>  <IDNUMBER>
F6395-3665

>  <Chemical_Name>
1-[2-(2-benzylmorpholin-4-yl)-2-oxoethyl]pyrrolidine-2,5-dione

>  <PriceCoeff>
1.50

>  <CAS>
1421524-66-4

>  <MW>
316.35

>  <Description>
oil

>  <FSP3>
0.47

>  <clogP>
1.39

>  <TPSA>
66.92

>  <Acceptor>
4

>  <Donor>
0

>  <RotBonds>
5

>  <HAC>
23

>  <Collection>
Advanced

>  <PPDS>
+

$$$$
F6395-4299
  Mrv2219 10102508112D          

 22 24  0  0  0  0            999 V2000
   -4.5810    3.7981    0.0000 C   0  0  0  0  0  0  0  0  0  0  0  0
   -3.8606    4.2104    0.0000 N   0  0  0  0  0  0  0  0  0  0  0  0
   -4.5810    2.9777    0.0000 N   0  0  0  0  0  0  0  0  0  0  0  0
   -6.0012    1.3368    0.0000 C   0  0  0  0  0  0  0  0  0  0  0  0
   -3.1567    5.4473    0.0000 C   0  0  0  0  0  0  0  0  0  0  0  0
   -5.3057    1.7449    0.0000 C   0  0  0  0  0  0  0  0  0  0  0  0
   -3.8689    5.0392    0.0000 C   0  0  0  0  0  0  0  0  0  0  0  0
   -5.2974    2.5779    0.0000 C   0  0  0  0  0  0  0  0  0  0  0  0
   -5.2974    4.2104    0.0000 O   0  0  0  0  0  0  0  0  0  0  0  0
   -6.7134    1.7449    0.0000 C   0  0  0  0  0  0  0  0  0  0  0  0
   -2.4446    5.0392    0.0000 O   0  0  0  0  0  0  0  0  0  0  0  0
   -3.1609    7.1007    0.0000 O   0  0  0  0  0  0  0  0  0  0  0  0
   -6.7175    2.5695    0.0000 C   0  0  0  0  0  0  0  0  0  0  0  0
   -6.0012    0.5080    0.0000 Cl  0  0  0  0  0  0  0  0  0  0  0  0
   -6.0012    2.9818    0.0000 C   0  0  0  0  0  0  0  0  0  0  0  0
   -2.4446    5.8721    0.0000 C   0  0  0  0  0  0  0  0  0  0  0  0
   -3.8689    5.8638    0.0000 C   0  0  0  0  0  0  0  0  0  0  0  0
   -3.1485    3.7939    0.0000 C   0  0  0  0  0  0  0  0  0  0  0  0
   -7.4380    1.3243    0.0000 Cl  0  0  0  0  0  0  0  0  0  0  0  0
   -2.4363    4.2146    0.0000 C   0  0  0  0  0  0  0  0  0  0  0  0
   -2.4488    6.7009    0.0000 C   0  0  0  0  0  0  0  0  0  0  0  0
   -3.8731    6.6967    0.0000 C   0  0  0  0  0  0  0  0  0  0  0  0
  2  1  1  0  0  0  0
  3  1  1  0  0  0  0
  4  6  1  0  0  0  0
  5  7  1  0  0  0  0
  6  8  2  0  0  0  0
  7  2  1  0  0  0  0
  8  3  1  0  0  0  0
  9  1  2  0  0  0  0
 10 13  1  0  0  0  0
 11 20  1  0  0  0  0
 12 22  1  0  0  0  0
 13 15  2  0  0  0  0
 14  4  1  0  0  0  0
 15  8  1  0  0  0  0
 16  5  1  0  0  0  0
 17  5  1  0  0  0  0
 18  2  1  0  0  0  0
 19 10  1  0  0  0  0
 20 18  1  0  0  0  0
 21 16  1  0  0  0  0
 22 17  1  0  0  0  0
 11  5  1  0  0  0  0
 10  4  2  0  0  0  0
 21 12  1  0  0  0  0
M  END
>  <IDNUMBER>
F6395-4299

>  <Chemical_Name>
N-(3,4-dichlorophenyl)-1,9-dioxa-4-azaspiro[5.5]undecane-4-carboxamide

>  <PriceCoeff>
1.50

>  <CAS>
1421480-64-9

>  <MW>
345.22

>  <Description>
solid

>  <FSP3>
0.53

>  <clogP>
2.11

>  <TPSA>
50.80

>  <Acceptor>
3

>  <Donor>
1

>  <RotBonds>
2

>  <HAC>
22

>  <Collection>
Advanced

$$$$
F6400-0640
  Mrv2219 10102508112D          

 23 25  0  0  0  0            999 V2000
   -4.7021    2.6376    0.0000 N   0  0  0  0  0  0  0  0  0  0  0  0
   -3.1485    4.1912    0.0000 N   0  0  0  0  0  0  0  0  0  0  0  0
   -3.8588    3.7882    0.0000 C   0  0  0  0  0  0  0  0  0  0  0  0
   -3.9460    2.9740    0.0000 C   0  0  0  0  0  0  0  0  0  0  0  0
   -5.4164    3.0613    0.0000 C   0  0  0  0  0  0  0  0  0  0  0  0
   -4.8806    1.8401    0.0000 C   0  0  0  0  0  0  0  0  0  0  0  0
   -3.2025    5.0136    0.0000 C   0  0  0  0  0  0  0  0  0  0  0  0
   -3.7134    6.0853    0.0000 N   0  0  0  0  0  0  0  0  0  0  0  0
   -3.9627    5.3127    0.0000 C   0  0  0  0  0  0  0  0  0  0  0  0
   -4.5234    4.0790    0.0000 O   0  0  0  0  0  0  0  0  0  0  0  0
   -5.7031    1.7570    0.0000 C   0  0  0  0  0  0  0  0  0  0  0  0
   -6.0354    2.5130    0.0000 C   0  0  0  0  0  0  0  0  0  0  0  0
   -1.7944    5.4538    0.0000 S   0  0  0  0  0  0  0  0  0  0  0  0
   -4.3365    1.2170    0.0000 O   0  0  0  0  0  0  0  0  0  0  0  0
   -5.5037    3.8962    0.0000 O   0  0  0  0  0  0  0  0  0  0  0  0
   -2.6044    5.5868    0.0000 C   0  0  0  0  0  0  0  0  0  0  0  0
   -2.4631    3.7384    0.0000 C   0  0  0  0  0  0  0  0  0  0  0  0
   -1.6781    3.9834    0.0000 C   0  0  0  0  0  0  0  0  0  0  0  0
   -1.3790    4.7395    0.0000 C   0  0  0  0  0  0  0  0  0  0  0  0
   -3.1360    6.6585    0.0000 C   0  0  0  0  0  0  0  0  0  0  0  0
   -4.4404    6.4507    0.0000 C   0  0  0  0  0  0  0  0  0  0  0  0
   -4.3158    7.2691    0.0000 C   0  0  0  0  0  0  0  0  0  0  0  0
   -3.4974    7.3853    0.0000 C   0  0  0  0  0  0  0  0  0  0  0  0
  2  3  1  0  0  0  0
  3  4  1  0  0  0  0
  4  1  1  0  0  0  0
  5  1  1  0  0  0  0
  6  1  1  0  0  0  0
  7  2  1  0  0  0  0
  8  9  1  0  0  0  0
  9  7  1  0  0  0  0
 10  3  2  0  0  0  0
 11  6  1  0  0  0  0
 12  5  1  0  0  0  0
 13 16  1  0  0  0  0
 14  6  2  0  0  0  0
 15  5  2  0  0  0  0
 16  7  1  0  0  0  0
 17  2  1  0  0  0  0
 18 17  1  0  0  0  0
 19 18  1  0  0  0  0
 20  8  1  0  0  0  0
 21  8  1  0  0  0  0
 22 21  1  0  0  0  0
 23 20  1  0  0  0  0
 12 11  1  0  0  0  0
 19 13  1  0  0  0  0
 23 22  1  0  0  0  0
M  END
>  <IDNUMBER>
F6400-0640

>  <Chemical_Name>
1-(2-oxo-2-{3-[(pyrrolidin-1-yl)methyl]-1,4-thiazepan-4-yl}ethyl)pyrrolidine-2,5-dione

>  <PriceCoeff>
1.50

>  <MW>
339.45

>  <Description>
oil

>  <FSP3>
0.81

>  <clogP>
0.94

>  <TPSA>
86.23

>  <Acceptor>
3

>  <Donor>
1

>  <RotBonds>
5

>  <HAC>
23

>  <Collection>
Advanced

>  <PPDS>
+

$$$$
F6400-1510
  Mrv2219 10102508112D          

 25 27  0  0  0  0            999 V2000
   -3.8772    3.8063    0.0000 C   0  0  0  0  0  0  0  0  0  0  0  0
   -3.1635    4.2112    0.0000 N   0  0  0  0  0  0  0  0  0  0  0  0
   -3.2178    5.0416    0.0000 C   0  0  0  0  0  0  0  0  0  0  0  0
   -3.8271    2.9882    0.0000 N   0  0  0  0  0  0  0  0  0  0  0  0
   -3.6894    6.3563    0.0000 N   0  0  0  0  0  0  0  0  0  0  0  0
   -5.9348    2.4583    0.0000 C   0  0  0  0  0  0  0  0  0  0  0  0
   -5.2545    2.9048    0.0000 C   0  0  0  0  0  0  0  0  0  0  0  0
   -3.8021    5.5425    0.0000 C   0  0  0  0  0  0  0  0  0  0  0  0
   -4.5659    4.2612    0.0000 O   0  0  0  0  0  0  0  0  0  0  0  0
   -4.5158    2.5375    0.0000 C   0  0  0  0  0  0  0  0  0  0  0  0
   -5.8847    1.6235    0.0000 C   0  0  0  0  0  0  0  0  0  0  0  0
   -1.7988    5.4799    0.0000 S   0  0  0  0  0  0  0  0  0  0  0  0
   -3.9315    7.9840    0.0000 O   0  0  0  0  0  0  0  0  0  0  0  0
   -5.1543    1.2521    0.0000 C   0  0  0  0  0  0  0  0  0  0  0  0
   -6.6652    2.8130    0.0000 Cl  0  0  0  0  0  0  0  0  0  0  0  0
   -2.6168    5.6135    0.0000 C   0  0  0  0  0  0  0  0  0  0  0  0
   -2.4666    3.7562    0.0000 C   0  0  0  0  0  0  0  0  0  0  0  0
   -4.4657    1.7028    0.0000 C   0  0  0  0  0  0  0  0  0  0  0  0
   -6.5651    1.1727    0.0000 Cl  0  0  0  0  0  0  0  0  0  0  0  0
   -1.6736    3.9941    0.0000 C   0  0  0  0  0  0  0  0  0  0  0  0
   -1.3731    4.7621    0.0000 C   0  0  0  0  0  0  0  0  0  0  0  0
   -4.4532    6.6527    0.0000 C   0  0  0  0  0  0  0  0  0  0  0  0
   -3.0425    6.8656    0.0000 C   0  0  0  0  0  0  0  0  0  0  0  0
   -3.1635    7.6877    0.0000 C   0  0  0  0  0  0  0  0  0  0  0  0
   -4.5784    7.4749    0.0000 C   0  0  0  0  0  0  0  0  0  0  0  0
  2  1  1  0  0  0  0
  3  2  1  0  0  0  0
  4  1  1  0  0  0  0
  5  8  1  0  0  0  0
  6  7  1  0  0  0  0
  7 10  2  0  0  0  0
  8  3  1  0  0  0  0
  9  1  2  0  0  0  0
 10  4  1  0  0  0  0
 11 14  1  0  0  0  0
 12 16  1  0  0  0  0
 13 24  1  0  0  0  0
 14 18  2  0  0  0  0
 15  6  1  0  0  0  0
 16  3  1  0  0  0  0
 17  2  1  0  0  0  0
 18 10  1  0  0  0  0
 19 11  1  0  0  0  0
 20 17  1  0  0  0  0
 21 20  1  0  0  0  0
 22  5  1  0  0  0  0
 23  5  1  0  0  0  0
 24 23  1  0  0  0  0
 25 22  1  0  0  0  0
 21 12  1  0  0  0  0
 11  6  2  0  0  0  0
 13 25  1  0  0  0  0
M  END
>  <IDNUMBER>
F6400-1510

>  <Chemical_Name>
N-(3,4-dichlorophenyl)-3-[(morpholin-4-yl)methyl]-1,4-thiazepane-4-carboxamide

>  <PriceCoeff>
1.00

>  <CAS>
1421459-30-4

>  <MW>
404.35

>  <Description>
solid

>  <FSP3>
0.59

>  <clogP>
3.50

>  <TPSA>
70.11

>  <Acceptor>
2

>  <Donor>
2

>  <RotBonds>
4

>  <HAC>
25

>  <Collection>
General

$$$$
F6401-0048
  Mrv2219 10102508112D          

 25 28  0  0  0  0            999 V2000
    4.1556   -1.0243    0.0000 N   0  0  0  0  0  0  0  0  0  0  0  0
    6.0461    0.3506    0.0000 N   0  0  0  0  0  0  0  0  0  0  0  0
    3.5404   -0.4778    0.0000 C   0  0  0  0  0  0  0  0  0  0  0  0
    3.9838   -1.8286    0.0000 C   0  0  0  0  0  0  0  0  0  0  0  0
    5.2624    0.0928    0.0000 C   0  0  0  0  0  0  0  0  0  0  0  0
    5.0940   -0.7150    0.0000 C   0  0  0  0  0  0  0  0  0  0  0  0
    6.3039    1.1343    0.0000 C   0  0  0  0  0  0  0  0  0  0  0  0
    2.5882   -1.5399    0.0000 C   0  0  0  0  0  0  0  0  0  0  0  0
    1.8045   -1.7977    0.0000 C   0  0  0  0  0  0  0  0  0  0  0  0
    3.2069   -2.0864    0.0000 C   0  0  0  0  0  0  0  0  0  0  0  0
    2.7567   -0.7321    0.0000 C   0  0  0  0  0  0  0  0  0  0  0  0
    6.7232   -0.1375    0.0000 C   0  0  0  0  0  0  0  0  0  0  0  0
    1.5502   -2.5917    0.0000 S   0  0  0  0  0  0  0  0  0  0  0  0
    3.6435    0.0068    0.0000 O   0  0  0  0  0  0  0  0  0  0  0  0
    4.6025   -2.3820    0.0000 O   0  0  0  0  0  0  0  0  0  0  0  0
    7.1357    1.1343    0.0000 C   0  0  0  0  0  0  0  0  0  0  0  0
    4.6540    0.6393    0.0000 O   0  0  0  0  0  0  0  0  0  0  0  0
    1.1378   -1.3199    0.0000 C   0  0  0  0  0  0  0  0  0  0  0  0
    0.7253   -2.5917    0.0000 C   0  0  0  0  0  0  0  0  0  0  0  0
    7.3866    0.3506    0.0000 C   0  0  0  0  0  0  0  0  0  0  0  0
    0.4675   -1.7977    0.0000 C   0  0  0  0  0  0  0  0  0  0  0  0
    5.8914    1.8526    0.0000 C   0  0  0  0  0  0  0  0  0  0  0  0
    7.5413    1.8458    0.0000 C   0  0  0  0  0  0  0  0  0  0  0  0
    6.3108    2.5641    0.0000 C   0  0  0  0  0  0  0  0  0  0  0  0
    7.1392    2.5641    0.0000 C   0  0  0  0  0  0  0  0  0  0  0  0
  2  5  1  0  0  0  0
  3  1  1  0  0  0  0
  4  1  1  0  0  0  0
  5  6  1  0  0  0  0
  6  1  1  0  0  0  0
  7  2  1  0  0  0  0
  8 10  1  0  0  0  0
  9  8  1  0  0  0  0
 10  4  1  0  0  0  0
 11  3  1  0  0  0  0
 12  2  1  0  0  0  0
 13  9  1  0  0  0  0
 14  3  2  0  0  0  0
 15  4  2  0  0  0  0
 16  7  2  0  0  0  0
 17  5  2  0  0  0  0
 18  9  2  0  0  0  0
 19 13  1  0  0  0  0
 20 12  1  0  0  0  0
 21 18  1  0  0  0  0
 22  7  1  0  0  0  0
 23 16  1  0  0  0  0
 24 22  2  0  0  0  0
 25 24  1  0  0  0  0
 11  8  1  0  0  0  0
 20 16  1  0  0  0  0
 21 19  2  0  0  0  0
 25 23  2  0  0  0  0
M  END
>  <IDNUMBER>
F6401-0048

>  <Chemical_Name>
1-[2-(2,3-dihydro-1H-indol-1-yl)-2-oxoethyl]-4-(thiophen-2-yl)piperidine-2,6-dione

>  <PriceCoeff>
1.00

>  <CAS>
1396860-46-0

>  <MW>
354.42

>  <Description>
solid

>  <FSP3>
0.32

>  <clogP>
2.83

>  <TPSA>
85.93

>  <Acceptor>
3

>  <Donor>
0

>  <RotBonds>
4

>  <HAC>
25

>  <Collection>
General

>  <PPDS>
+

$$$$
F6401-0050
  Mrv2219 10102508112D          

 25 27  0  0  0  0            999 V2000
    4.1548   -1.1547    0.0000 N   0  0  0  0  0  0  0  0  0  0  0  0
    3.9830   -1.9624    0.0000 C   0  0  0  0  0  0  0  0  0  0  0  0
    3.5397   -0.6015    0.0000 C   0  0  0  0  0  0  0  0  0  0  0  0
    2.5877   -1.6702    0.0000 C   0  0  0  0  0  0  0  0  0  0  0  0
    1.8042   -1.9280    0.0000 C   0  0  0  0  0  0  0  0  0  0  0  0
    5.2614   -0.0344    0.0000 C   0  0  0  0  0  0  0  0  0  0  0  0
    2.7562   -0.8591    0.0000 C   0  0  0  0  0  0  0  0  0  0  0  0
    3.2064   -2.2200    0.0000 C   0  0  0  0  0  0  0  0  0  0  0  0
    5.0930   -0.8454    0.0000 C   0  0  0  0  0  0  0  0  0  0  0  0
    6.0450    0.2234    0.0000 N   0  0  0  0  0  0  0  0  0  0  0  0
    1.5499   -2.7149    0.0000 S   0  0  0  0  0  0  0  0  0  0  0  0
    6.2168    1.0275    0.0000 C   0  0  0  0  0  0  0  0  0  0  0  0
    3.6428   -0.1169    0.0000 O   0  0  0  0  0  0  0  0  0  0  0  0
    4.6016   -2.5087    0.0000 O   0  0  0  0  0  0  0  0  0  0  0  0
    1.1375   -1.4468    0.0000 C   0  0  0  0  0  0  0  0  0  0  0  0
    0.7251   -2.7149    0.0000 C   0  0  0  0  0  0  0  0  0  0  0  0
    4.6532    0.5121    0.0000 O   0  0  0  0  0  0  0  0  0  0  0  0
    7.0038    1.2852    0.0000 C   0  0  0  0  0  0  0  0  0  0  0  0
    0.4674   -1.9280    0.0000 C   0  0  0  0  0  0  0  0  0  0  0  0
    7.6189    0.7388    0.0000 O   0  0  0  0  0  0  0  0  0  0  0  0
    5.6016    1.5774    0.0000 C   0  0  0  0  0  0  0  0  0  0  0  0
    7.1687    2.0895    0.0000 C   0  0  0  0  0  0  0  0  0  0  0  0
    8.4024    0.9966    0.0000 C   0  0  0  0  0  0  0  0  0  0  0  0
    5.7769    2.3884    0.0000 C   0  0  0  0  0  0  0  0  0  0  0  0
    6.5570    2.6427    0.0000 C   0  0  0  0  0  0  0  0  0  0  0  0
  2  1  1  0  0  0  0
  3  1  1  0  0  0  0
  4  7  1  0  0  0  0
  5  4  1  0  0  0  0
  6  9  1  0  0  0  0
  7  3  1  0  0  0  0
  8  2  1  0  0  0  0
  9  1  1  0  0  0  0
 10  6  1  0  0  0  0
 11  5  1  0  0  0  0
 12 10  1  0  0  0  0
 13  3  2  0  0  0  0
 14  2  2  0  0  0  0
 15  5  2  0  0  0  0
 16 11  1  0  0  0  0
 17  6  2  0  0  0  0
 18 12  2  0  0  0  0
 19 15  1  0  0  0  0
 20 18  1  0  0  0  0
 21 12  1  0  0  0  0
 22 18  1  0  0  0  0
 23 20  1  0  0  0  0
 24 21  2  0  0  0  0
 25 24  1  0  0  0  0
  4  8  1  0  0  0  0
 19 16  2  0  0  0  0
 22 25  2  0  0  0  0
M  END
>  <IDNUMBER>
F6401-0050

>  <Chemical_Name>
2-[2,6-dioxo-4-(thiophen-2-yl)piperidin-1-yl]-N-(2-methoxyphenyl)acetamide

>  <PriceCoeff>
1.00

>  <CAS>
1396858-50-6

>  <MW>
358.41

>  <Description>
solid

>  <FSP3>
0.28

>  <clogP>
1.86

>  <TPSA>
103.95

>  <Acceptor>
4

>  <Donor>
1

>  <RotBonds>
5

>  <HAC>
25

>  <Collection>
General

>  <PPDS>
+

$$$$
F6401-0051
  Mrv2219 10102508112D          

 26 29  0  0  0  0            999 V2000
    4.1554   -1.6807    0.0000 N   0  0  0  0  0  0  0  0  0  0  0  0
    3.9835   -2.4850    0.0000 C   0  0  0  0  0  0  0  0  0  0  0  0
    3.5402   -1.1274    0.0000 C   0  0  0  0  0  0  0  0  0  0  0  0
    2.5881   -2.1894    0.0000 C   0  0  0  0  0  0  0  0  0  0  0  0
    1.8044   -2.4540    0.0000 C   0  0  0  0  0  0  0  0  0  0  0  0
    5.2621   -0.5603    0.0000 C   0  0  0  0  0  0  0  0  0  0  0  0
    2.7565   -1.3851    0.0000 C   0  0  0  0  0  0  0  0  0  0  0  0
    3.2067   -2.7462    0.0000 C   0  0  0  0  0  0  0  0  0  0  0  0
    5.0937   -1.3714    0.0000 C   0  0  0  0  0  0  0  0  0  0  0  0
    5.7674    1.8560    0.0000 C   0  0  0  0  0  0  0  0  0  0  0  0
    1.5501   -3.2411    0.0000 S   0  0  0  0  0  0  0  0  0  0  0  0
    5.6024    1.0586    0.0000 C   0  0  0  0  0  0  0  0  0  0  0  0
    6.0458   -0.3025    0.0000 N   0  0  0  0  0  0  0  0  0  0  0  0
    6.5613    2.1206    0.0000 C   0  0  0  0  0  0  0  0  0  0  0  0
    5.2827    2.5227    0.0000 O   0  0  0  0  0  0  0  0  0  0  0  0
    3.6433   -0.6428    0.0000 O   0  0  0  0  0  0  0  0  0  0  0  0
    4.6022   -3.0349    0.0000 O   0  0  0  0  0  0  0  0  0  0  0  0
    6.5510    2.9387    0.0000 O   0  0  0  0  0  0  0  0  0  0  0  0
    6.2176    0.5018    0.0000 C   0  0  0  0  0  0  0  0  0  0  0  0
    5.7742    3.1964    0.0000 C   0  0  0  0  0  0  0  0  0  0  0  0
    1.1377   -1.9729    0.0000 C   0  0  0  0  0  0  0  0  0  0  0  0
    0.7252   -3.2411    0.0000 C   0  0  0  0  0  0  0  0  0  0  0  0
    4.6538   -0.0138    0.0000 O   0  0  0  0  0  0  0  0  0  0  0  0
    0.4675   -2.4540    0.0000 C   0  0  0  0  0  0  0  0  0  0  0  0
    7.1697    1.5741    0.0000 C   0  0  0  0  0  0  0  0  0  0  0  0
    7.0012    0.7596    0.0000 C   0  0  0  0  0  0  0  0  0  0  0  0
  2  1  1  0  0  0  0
  3  1  1  0  0  0  0
  4  7  1  0  0  0  0
  5  4  1  0  0  0  0
  6  9  1  0  0  0  0
  7  3  1  0  0  0  0
  8  2  1  0  0  0  0
  9  1  1  0  0  0  0
 10 12  1  0  0  0  0
 11  5  1  0  0  0  0
 12 19  2  0  0  0  0
 13  6  1  0  0  0  0
 14 25  1  0  0  0  0
 15 10  1  0  0  0  0
 16  3  2  0  0  0  0
 17  2  2  0  0  0  0
 18 14  1  0  0  0  0
 19 13  1  0  0  0  0
 20 15  1  0  0  0  0
 21  5  2  0  0  0  0
 22 11  1  0  0  0  0
 23  6  2  0  0  0  0
 24 21  1  0  0  0  0
 25 26  2  0  0  0  0
 26 19  1  0  0  0  0
  4  8  1  0  0  0  0
 24 22  2  0  0  0  0
 10 14  2  0  0  0  0
 18 20  1  0  0  0  0
M  END
>  <IDNUMBER>
F6401-0051

>  <Chemical_Name>
N-(2H-1,3-benzodioxol-5-yl)-2-[2,6-dioxo-4-(thiophen-2-yl)piperidin-1-yl]acetamide

>  <PriceCoeff>
1.00

>  <CAS>
1396635-24-7

>  <MW>
372.40

>  <Description>
solid

>  <FSP3>
0.28

>  <clogP>
2.43

>  <TPSA>
113.18

>  <Acceptor>
5

>  <Donor>
1

>  <RotBonds>
4

>  <HAC>
26

>  <Collection>
General

>  <PPDS>
+

$$$$
F6401-0058
  Mrv2219 10102508112D          

 24 26  0  0  0  0            999 V2000
    4.1610   -1.0050    0.0000 N   0  0  0  0  0  0  0  0  0  0  0  0
    3.9890   -1.8172    0.0000 C   0  0  0  0  0  0  0  0  0  0  0  0
    3.5450   -0.4578    0.0000 C   0  0  0  0  0  0  0  0  0  0  0  0
    2.5916   -1.5213    0.0000 C   0  0  0  0  0  0  0  0  0  0  0  0
    1.8069   -1.7794    0.0000 C   0  0  0  0  0  0  0  0  0  0  0  0
    3.2111   -2.0754    0.0000 C   0  0  0  0  0  0  0  0  0  0  0  0
    2.7603   -0.7159    0.0000 C   0  0  0  0  0  0  0  0  0  0  0  0
    5.1006   -0.7021    0.0000 C   0  0  0  0  0  0  0  0  0  0  0  0
    1.5522   -2.5744    0.0000 S   0  0  0  0  0  0  0  0  0  0  0  0
    5.2693    0.1101    0.0000 C   0  0  0  0  0  0  0  0  0  0  0  0
    3.6483    0.0275    0.0000 O   0  0  0  0  0  0  0  0  0  0  0  0
    4.6085   -2.3679    0.0000 O   0  0  0  0  0  0  0  0  0  0  0  0
    6.0540    0.3682    0.0000 N   0  0  0  0  0  0  0  0  0  0  0  0
    1.1392   -1.3044    0.0000 C   0  0  0  0  0  0  0  0  0  0  0  0
    0.7262   -2.5744    0.0000 C   0  0  0  0  0  0  0  0  0  0  0  0
    0.4681   -1.7794    0.0000 C   0  0  0  0  0  0  0  0  0  0  0  0
    4.6566    0.6608    0.0000 O   0  0  0  0  0  0  0  0  0  0  0  0
    6.2261    1.1771    0.0000 C   0  0  0  0  0  0  0  0  0  0  0  0
    7.0108    1.4317    0.0000 C   0  0  0  0  0  0  0  0  0  0  0  0
    7.1795    2.2406    0.0000 C   0  0  0  0  0  0  0  0  0  0  0  0
    7.6234    0.8845    0.0000 C   0  0  0  0  0  0  0  0  0  0  0  0
    8.4082    1.1358    0.0000 C   0  0  0  0  0  0  0  0  0  0  0  0
    7.9642    2.4952    0.0000 C   0  0  0  0  0  0  0  0  0  0  0  0
    8.5802    1.9480    0.0000 C   0  0  0  0  0  0  0  0  0  0  0  0
  2  1  1  0  0  0  0
  3  1  1  0  0  0  0
  4  7  1  0  0  0  0
  5  4  1  0  0  0  0
  6  2  1  0  0  0  0
  7  3  1  0  0  0  0
  8  1  1  0  0  0  0
  9  5  1  0  0  0  0
 10  8  1  0  0  0  0
 11  3  2  0  0  0  0
 12  2  2  0  0  0  0
 13 10  1  0  0  0  0
 14  5  2  0  0  0  0
 15  9  1  0  0  0  0
 16 14  1  0  0  0  0
 17 10  2  0  0  0  0
 18 13  1  0  0  0  0
 19 18  1  0  0  0  0
 20 19  1  0  0  0  0
 21 19  2  0  0  0  0
 22 21  1  0  0  0  0
 23 20  2  0  0  0  0
 24 22  2  0  0  0  0
  4  6  1  0  0  0  0
 16 15  2  0  0  0  0
 23 24  1  0  0  0  0
M  END
>  <IDNUMBER>
F6401-0058

>  <Chemical_Name>
N-benzyl-2-[2,6-dioxo-4-(thiophen-2-yl)piperidin-1-yl]acetamide

>  <PriceCoeff>
1.00

>  <CAS>
1396768-54-9

>  <MW>
342.41

>  <Description>
solid

>  <FSP3>
0.28

>  <clogP>
2.40

>  <TPSA>
94.72

>  <Acceptor>
3

>  <Donor>
1

>  <RotBonds>
5

>  <HAC>
24

>  <Collection>
General

>  <PPDS>
+

$$$$
F6401-0065
  Mrv2219 10102508112D          

 23 25  0  0  0  0            999 V2000
    4.1556   -1.3749    0.0000 N   0  0  0  0  0  0  0  0  0  0  0  0
    3.9838   -2.1792    0.0000 C   0  0  0  0  0  0  0  0  0  0  0  0
    3.5404   -0.8284    0.0000 C   0  0  0  0  0  0  0  0  0  0  0  0
    6.2180    0.8043    0.0000 C   0  0  0  0  0  0  0  0  0  0  0  0
    6.9742    1.1514    0.0000 N   0  0  0  0  0  0  0  0  0  0  0  0
    5.6646    1.4195    0.0000 C   0  0  0  0  0  0  0  0  0  0  0  0
    2.5882   -1.8905    0.0000 C   0  0  0  0  0  0  0  0  0  0  0  0
    6.0461   -0.0035    0.0000 N   0  0  0  0  0  0  0  0  0  0  0  0
    1.8045   -2.1483    0.0000 C   0  0  0  0  0  0  0  0  0  0  0  0
    5.2624   -0.2578    0.0000 C   0  0  0  0  0  0  0  0  0  0  0  0
    6.8814    1.9661    0.0000 O   0  0  0  0  0  0  0  0  0  0  0  0
    3.2069   -2.4439    0.0000 C   0  0  0  0  0  0  0  0  0  0  0  0
    2.7567   -1.0827    0.0000 C   0  0  0  0  0  0  0  0  0  0  0  0
    5.0940   -1.0656    0.0000 C   0  0  0  0  0  0  0  0  0  0  0  0
    6.0839    2.1414    0.0000 C   0  0  0  0  0  0  0  0  0  0  0  0
    1.5502   -2.9423    0.0000 S   0  0  0  0  0  0  0  0  0  0  0  0
    3.6435   -0.3438    0.0000 O   0  0  0  0  0  0  0  0  0  0  0  0
    4.6025   -2.7326    0.0000 O   0  0  0  0  0  0  0  0  0  0  0  0
    1.1378   -1.6705    0.0000 C   0  0  0  0  0  0  0  0  0  0  0  0
    0.7253   -2.9423    0.0000 C   0  0  0  0  0  0  0  0  0  0  0  0
    4.6540    0.2887    0.0000 O   0  0  0  0  0  0  0  0  0  0  0  0
    0.4675   -2.1483    0.0000 C   0  0  0  0  0  0  0  0  0  0  0  0
    5.7471    2.8941    0.0000 C   0  0  0  0  0  0  0  0  0  0  0  0
  2  1  1  0  0  0  0
  3  1  1  0  0  0  0
  4  8  1  0  0  0  0
  5  4  2  0  0  0  0
  6  4  1  0  0  0  0
  7 13  1  0  0  0  0
  8 10  1  0  0  0  0
  9  7  1  0  0  0  0
 10 14  1  0  0  0  0
 11  5  1  0  0  0  0
 12  2  1  0  0  0  0
 13  3  1  0  0  0  0
 14  1  1  0  0  0  0
 15  6  2  0  0  0  0
 16  9  1  0  0  0  0
 17  3  2  0  0  0  0
 18  2  2  0  0  0  0
 19  9  2  0  0  0  0
 20 16  1  0  0  0  0
 21 10  2  0  0  0  0
 22 19  1  0  0  0  0
 23 15  1  0  0  0  0
  7 12  1  0  0  0  0
 11 15  1  0  0  0  0
 22 20  2  0  0  0  0
M  END
>  <IDNUMBER>
F6401-0065

>  <Chemical_Name>
2-[2,6-dioxo-4-(thiophen-2-yl)piperidin-1-yl]-N-(5-methyl-1,2-oxazol-3-yl)acetamide

>  <PriceCoeff>
1.00

>  <CAS>
1396845-74-1

>  <MW>
333.36

>  <Description>
solid

>  <FSP3>
0.33

>  <clogP>
1.66

>  <TPSA>
120.75

>  <Acceptor>
5

>  <Donor>
1

>  <RotBonds>
4

>  <HAC>
23

>  <Collection>
General

>  <PPDS>
+

$$$$
F6401-0070
  Mrv2219 10102508112D          

 24 26  0  0  0  0            999 V2000
    3.0060   -0.9630    0.0000 N   0  0  0  0  0  0  0  0  0  0  0  0
    3.3430   -0.2064    0.0000 C   0  0  0  0  0  0  0  0  0  0  0  0
    2.1874   -1.0559    0.0000 C   0  0  0  0  0  0  0  0  0  0  0  0
    5.9019   -0.0757    0.0000 C   0  0  0  0  0  0  0  0  0  0  0  0
    2.0361    0.3680    0.0000 C   0  0  0  0  0  0  0  0  0  0  0  0
    1.5512    1.0318    0.0000 C   0  0  0  0  0  0  0  0  0  0  0  0
    2.8581    0.4540    0.0000 C   0  0  0  0  0  0  0  0  0  0  0  0
    1.7025   -0.3852    0.0000 C   0  0  0  0  0  0  0  0  0  0  0  0
    5.5649   -0.8358    0.0000 C   0  0  0  0  0  0  0  0  0  0  0  0
    3.5941   -1.7644    0.0000 C   0  0  0  0  0  0  0  0  0  0  0  0
    1.8056    1.8263    0.0000 S   0  0  0  0  0  0  0  0  0  0  0  0
    1.8504   -1.8091    0.0000 O   0  0  0  0  0  0  0  0  0  0  0  0
    3.8314   -0.1548    0.0000 O   0  0  0  0  0  0  0  0  0  0  0  0
    4.7463   -0.9218    0.0000 C   0  0  0  0  0  0  0  0  0  0  0  0
    0.7257    1.0318    0.0000 C   0  0  0  0  0  0  0  0  0  0  0  0
    1.1384    2.3078    0.0000 C   0  0  0  0  0  0  0  0  0  0  0  0
    4.4161   -1.6750    0.0000 C   0  0  0  0  0  0  0  0  0  0  0  0
    0.4678    1.8263    0.0000 C   0  0  0  0  0  0  0  0  0  0  0  0
    5.1487    0.2545    0.0000 F   0  0  0  0  0  0  0  0  0  0  0  0
    6.2355    0.6775    0.0000 F   0  0  0  0  0  0  0  0  0  0  0  0
    6.6586   -0.4127    0.0000 F   0  0  0  0  0  0  0  0  0  0  0  0
    6.0498   -1.4996    0.0000 C   0  0  0  0  0  0  0  0  0  0  0  0
    5.7196   -2.2596    0.0000 C   0  0  0  0  0  0  0  0  0  0  0  0
    4.9010   -2.3422    0.0000 C   0  0  0  0  0  0  0  0  0  0  0  0
  2  1  1  0  0  0  0
  3  1  1  0  0  0  0
  4  9  1  0  0  0  0
  5  8  1  0  0  0  0
  6  5  1  0  0  0  0
  7  2  1  0  0  0  0
  8  3  1  0  0  0  0
  9 14  2  0  0  0  0
 10  1  1  0  0  0  0
 11  6  1  0  0  0  0
 12  3  2  0  0  0  0
 13  2  2  0  0  0  0
 14 17  1  0  0  0  0
 15  6  2  0  0  0  0
 16 11  1  0  0  0  0
 17 10  1  0  0  0  0
 18 15  1  0  0  0  0
 19  4  1  0  0  0  0
 20  4  1  0  0  0  0
 21  4  1  0  0  0  0
 22 23  2  0  0  0  0
 23 24  1  0  0  0  0
 24 17  2  0  0  0  0
  7  5  1  0  0  0  0
 22  9  1  0  0  0  0
 16 18  2  0  0  0  0
M  END
>  <IDNUMBER>
F6401-0070

>  <Chemical_Name>
4-(thiophen-2-yl)-1-{[3-(trifluoromethyl)phenyl]methyl}piperidine-2,6-dione

>  <PriceCoeff>
1.50

>  <CAS>
1396868-99-7

>  <MW>
353.36

>  <Description>
solid

>  <FSP3>
0.29

>  <clogP>
3.62

>  <TPSA>
65.62

>  <Acceptor>
2

>  <Donor>
0

>  <RotBonds>
3

>  <HAC>
24

>  <Collection>
Advanced

>  <PPDS>
+

$$$$
F6401-0072
  Mrv2219 10102508112D          

 24 27  0  0  0  0            999 V2000
    4.1556   -0.6222    0.0000 N   0  0  0  0  0  0  0  0  0  0  0  0
    3.9838   -1.4265    0.0000 C   0  0  0  0  0  0  0  0  0  0  0  0
    3.5404   -0.0722    0.0000 C   0  0  0  0  0  0  0  0  0  0  0  0
    5.0940   -0.3128    0.0000 C   0  0  0  0  0  0  0  0  0  0  0  0
    2.5882   -1.1378    0.0000 C   0  0  0  0  0  0  0  0  0  0  0  0
    1.8045   -1.3955    0.0000 C   0  0  0  0  0  0  0  0  0  0  0  0
    5.2624    0.4950    0.0000 C   0  0  0  0  0  0  0  0  0  0  0  0
    3.2069   -1.6843    0.0000 C   0  0  0  0  0  0  0  0  0  0  0  0
    2.7567   -0.3300    0.0000 C   0  0  0  0  0  0  0  0  0  0  0  0
    1.5502   -2.1861    0.0000 S   0  0  0  0  0  0  0  0  0  0  0  0
    6.0530    0.7528    0.0000 C   0  0  0  0  0  0  0  0  0  0  0  0
    3.6435    0.4125    0.0000 O   0  0  0  0  0  0  0  0  0  0  0  0
    4.6025   -1.9730    0.0000 O   0  0  0  0  0  0  0  0  0  0  0  0
    1.1378   -0.9177    0.0000 C   0  0  0  0  0  0  0  0  0  0  0  0
    0.7253   -2.1861    0.0000 C   0  0  0  0  0  0  0  0  0  0  0  0
    0.4675   -1.3955    0.0000 C   0  0  0  0  0  0  0  0  0  0  0  0
    6.2180    1.5536    0.0000 C   0  0  0  0  0  0  0  0  0  0  0  0
    4.6506    1.0483    0.0000 C   0  0  0  0  0  0  0  0  0  0  0  0
    4.8259    1.8561    0.0000 C   0  0  0  0  0  0  0  0  0  0  0  0
    6.6648    0.2028    0.0000 C   0  0  0  0  0  0  0  0  0  0  0  0
    5.6027    2.1104    0.0000 C   0  0  0  0  0  0  0  0  0  0  0  0
    7.0051    1.8114    0.0000 C   0  0  0  0  0  0  0  0  0  0  0  0
    7.4450    0.4537    0.0000 C   0  0  0  0  0  0  0  0  0  0  0  0
    7.6203    1.2649    0.0000 C   0  0  0  0  0  0  0  0  0  0  0  0
  2  1  1  0  0  0  0
  3  1  1  0  0  0  0
  4  1  1  0  0  0  0
  5  9  1  0  0  0  0
  6  5  1  0  0  0  0
  7  4  1  0  0  0  0
  8  2  1  0  0  0  0
  9  3  1  0  0  0  0
 10  6  1  0  0  0  0
 11  7  1  0  0  0  0
 12  3  2  0  0  0  0
 13  2  2  0  0  0  0
 14  6  2  0  0  0  0
 15 10  1  0  0  0  0
 16 14  1  0  0  0  0
 17 11  2  0  0  0  0
 18  7  2  0  0  0  0
 19 18  1  0  0  0  0
 20 11  1  0  0  0  0
 21 19  2  0  0  0  0
 22 17  1  0  0  0  0
 23 20  2  0  0  0  0
 24 23  1  0  0  0  0
  5  8  1  0  0  0  0
 17 21  1  0  0  0  0
 22 24  2  0  0  0  0
 16 15  2  0  0  0  0
M  END
>  <IDNUMBER>
F6401-0072

>  <Chemical_Name>
1-[(naphthalen-1-yl)methyl]-4-(thiophen-2-yl)piperidine-2,6-dione

>  <PriceCoeff>
1.00

>  <CAS>
1396864-65-5

>  <MW>
335.42

>  <Description>
solid

>  <FSP3>
0.20

>  <clogP>
3.91

>  <TPSA>
65.62

>  <Acceptor>
2

>  <Donor>
0

>  <RotBonds>
3

>  <HAC>
24

>  <Collection>
General

>  <PPDS>
+

$$$$
F6401-0075
  Mrv2219 10102508112D          

 24 26  0  0  0  0            999 V2000
    4.1610   -1.0050    0.0000 N   0  0  0  0  0  0  0  0  0  0  0  0
    3.9890   -1.8172    0.0000 C   0  0  0  0  0  0  0  0  0  0  0  0
    3.5450   -0.4578    0.0000 C   0  0  0  0  0  0  0  0  0  0  0  0
    2.5916   -1.5213    0.0000 C   0  0  0  0  0  0  0  0  0  0  0  0
    1.8069   -1.7794    0.0000 C   0  0  0  0  0  0  0  0  0  0  0  0
    3.2111   -2.0754    0.0000 C   0  0  0  0  0  0  0  0  0  0  0  0
    2.7603   -0.7159    0.0000 C   0  0  0  0  0  0  0  0  0  0  0  0
    5.1006   -0.7021    0.0000 C   0  0  0  0  0  0  0  0  0  0  0  0
    1.5522   -2.5744    0.0000 S   0  0  0  0  0  0  0  0  0  0  0  0
    5.2693    0.1101    0.0000 C   0  0  0  0  0  0  0  0  0  0  0  0
    3.6483    0.0275    0.0000 O   0  0  0  0  0  0  0  0  0  0  0  0
    4.6085   -2.3679    0.0000 O   0  0  0  0  0  0  0  0  0  0  0  0
    1.1392   -1.3044    0.0000 C   0  0  0  0  0  0  0  0  0  0  0  0
    0.7262   -2.5744    0.0000 C   0  0  0  0  0  0  0  0  0  0  0  0
    0.4681   -1.7794    0.0000 C   0  0  0  0  0  0  0  0  0  0  0  0
    4.6566    0.6608    0.0000 O   0  0  0  0  0  0  0  0  0  0  0  0
    6.0540    0.3682    0.0000 O   0  0  0  0  0  0  0  0  0  0  0  0
    6.2261    1.1771    0.0000 C   0  0  0  0  0  0  0  0  0  0  0  0
    7.0108    1.4317    0.0000 C   0  0  0  0  0  0  0  0  0  0  0  0
    7.1795    2.2406    0.0000 C   0  0  0  0  0  0  0  0  0  0  0  0
    7.6234    0.8845    0.0000 C   0  0  0  0  0  0  0  0  0  0  0  0
    8.4082    1.1358    0.0000 C   0  0  0  0  0  0  0  0  0  0  0  0
    7.9642    2.4952    0.0000 C   0  0  0  0  0  0  0  0  0  0  0  0
    8.5802    1.9480    0.0000 C   0  0  0  0  0  0  0  0  0  0  0  0
  2  1  1  0  0  0  0
  3  1  1  0  0  0  0
  4  7  1  0  0  0  0
  5  4  1  0  0  0  0
  6  2  1  0  0  0  0
  7  3  1  0  0  0  0
  8  1  1  0  0  0  0
  9  5  1  0  0  0  0
 10  8  1  0  0  0  0
 11  3  2  0  0  0  0
 12  2  2  0  0  0  0
 13  5  2  0  0  0  0
 14  9  1  0  0  0  0
 15 13  1  0  0  0  0
 16 10  2  0  0  0  0
 17 10  1  0  0  0  0
 18 17  1  0  0  0  0
 19 18  1  0  0  0  0
 20 19  1  0  0  0  0
 21 19  2  0  0  0  0
 22 21  1  0  0  0  0
 23 20  2  0  0  0  0
 24 22  2  0  0  0  0
  4  6  1  0  0  0  0
 15 14  2  0  0  0  0
 23 24  1  0  0  0  0
M  END
>  <IDNUMBER>
F6401-0075

>  <Chemical_Name>
benzyl 2-[2,6-dioxo-4-(thiophen-2-yl)piperidin-1-yl]acetate

>  <PriceCoeff>
1.00

>  <CAS>
1421584-52-2

>  <MW>
343.40

>  <Description>
solid

>  <FSP3>
0.28

>  <clogP>
3.09

>  <TPSA>
91.92

>  <Acceptor>
4

>  <Donor>
0

>  <RotBonds>
6

>  <HAC>
24

>  <Collection>
General

>  <PPDS>
+

$$$$
F6401-0076
  Mrv2219 10102508112D          

 23 25  0  0  0  0            999 V2000
    3.0064   -0.1961    0.0000 N   0  0  0  0  0  0  0  0  0  0  0  0
    3.3435    0.5641    0.0000 C   0  0  0  0  0  0  0  0  0  0  0  0
    2.1877   -0.2821    0.0000 C   0  0  0  0  0  0  0  0  0  0  0  0
    3.5946   -0.9941    0.0000 C   0  0  0  0  0  0  0  0  0  0  0  0
    2.0364    1.1351    0.0000 C   0  0  0  0  0  0  0  0  0  0  0  0
    1.5514    1.8024    0.0000 C   0  0  0  0  0  0  0  0  0  0  0  0
    4.4098   -0.9081    0.0000 C   0  0  0  0  0  0  0  0  0  0  0  0
    2.8584    1.2245    0.0000 C   0  0  0  0  0  0  0  0  0  0  0  0
    1.7027    0.3887    0.0000 C   0  0  0  0  0  0  0  0  0  0  0  0
    1.8058    2.5970    0.0000 S   0  0  0  0  0  0  0  0  0  0  0  0
    1.8506   -1.0354    0.0000 O   0  0  0  0  0  0  0  0  0  0  0  0
    4.1621    0.6569    0.0000 O   0  0  0  0  0  0  0  0  0  0  0  0
    4.8949   -1.5720    0.0000 C   0  0  0  0  0  0  0  0  0  0  0  0
    0.7258    1.8024    0.0000 C   0  0  0  0  0  0  0  0  0  0  0  0
    1.1386    3.0786    0.0000 C   0  0  0  0  0  0  0  0  0  0  0  0
    4.6059   -0.4541    0.0000 O   0  0  0  0  0  0  0  0  0  0  0  0
    0.4679    2.5970    0.0000 C   0  0  0  0  0  0  0  0  0  0  0  0
    5.7204   -1.4792    0.0000 C   0  0  0  0  0  0  0  0  0  0  0  0
    4.5646   -2.3253    0.0000 C   0  0  0  0  0  0  0  0  0  0  0  0
    5.8752   -2.9031    0.0000 C   0  0  0  0  0  0  0  0  0  0  0  0
    6.2054   -2.1396    0.0000 C   0  0  0  0  0  0  0  0  0  0  0  0
    5.0565   -2.9926    0.0000 C   0  0  0  0  0  0  0  0  0  0  0  0
    6.3670   -3.5636    0.0000 Cl  0  0  0  0  0  0  0  0  0  0  0  0
  2  1  1  0  0  0  0
  3  1  1  0  0  0  0
  4  1  1  0  0  0  0
  5  9  1  0  0  0  0
  6  5  1  0  0  0  0
  7  4  1  0  0  0  0
  8  2  1  0  0  0  0
  9  3  1  0  0  0  0
 10  6  1  0  0  0  0
 11  3  2  0  0  0  0
 12  2  2  0  0  0  0
 13  7  1  0  0  0  0
 14  6  2  0  0  0  0
 15 10  1  0  0  0  0
 16  7  2  0  0  0  0
 17 14  1  0  0  0  0
 18 13  2  0  0  0  0
 19 13  1  0  0  0  0
 20 22  1  0  0  0  0
 21 18  1  0  0  0  0
 22 19  2  0  0  0  0
 23 20  1  0  0  0  0
  8  5  1  0  0  0  0
 20 21  2  0  0  0  0
 15 17  2  0  0  0  0
M  END
>  <IDNUMBER>
F6401-0076

>  <Chemical_Name>
1-[2-(4-chlorophenyl)-2-oxoethyl]-4-(thiophen-2-yl)piperidine-2,6-dione

>  <PriceCoeff>
1.50

>  <CAS>
1396865-54-5

>  <MW>
347.82

>  <Description>
solid

>  <FSP3>
0.24

>  <clogP>
3.45

>  <TPSA>
82.69

>  <Acceptor>
3

>  <Donor>
0

>  <RotBonds>
4

>  <HAC>
23

>  <Collection>
Advanced

>  <PPDS>
+

$$$$
F6401-0077
  Mrv2219 10102508112D          

 24 26  0  0  0  0            999 V2000
    4.1552   -0.7355    0.0000 N   0  0  0  0  0  0  0  0  0  0  0  0
    3.9834   -1.5398    0.0000 C   0  0  0  0  0  0  0  0  0  0  0  0
    3.5400   -0.1821    0.0000 C   0  0  0  0  0  0  0  0  0  0  0  0
    5.0935   -0.4262    0.0000 C   0  0  0  0  0  0  0  0  0  0  0  0
    2.5880   -1.2511    0.0000 C   0  0  0  0  0  0  0  0  0  0  0  0
    1.8044   -1.5088    0.0000 C   0  0  0  0  0  0  0  0  0  0  0  0
    5.2619    0.3815    0.0000 C   0  0  0  0  0  0  0  0  0  0  0  0
    3.2066   -1.7975    0.0000 C   0  0  0  0  0  0  0  0  0  0  0  0
    2.7564   -0.4434    0.0000 C   0  0  0  0  0  0  0  0  0  0  0  0
    1.5501   -2.2993    0.0000 S   0  0  0  0  0  0  0  0  0  0  0  0
    3.6432    0.2990    0.0000 O   0  0  0  0  0  0  0  0  0  0  0  0
    4.6021   -2.0862    0.0000 O   0  0  0  0  0  0  0  0  0  0  0  0
    6.0456    0.6393    0.0000 C   0  0  0  0  0  0  0  0  0  0  0  0
    1.1376   -1.0311    0.0000 C   0  0  0  0  0  0  0  0  0  0  0  0
    0.7252   -2.2993    0.0000 C   0  0  0  0  0  0  0  0  0  0  0  0
    4.6536    0.9348    0.0000 O   0  0  0  0  0  0  0  0  0  0  0  0
    0.4674   -1.5088    0.0000 C   0  0  0  0  0  0  0  0  0  0  0  0
    6.6642    0.0893    0.0000 C   0  0  0  0  0  0  0  0  0  0  0  0
    6.2208    1.4503    0.0000 C   0  0  0  0  0  0  0  0  0  0  0  0
    7.6128    1.1548    0.0000 C   0  0  0  0  0  0  0  0  0  0  0  0
    7.0010    1.7013    0.0000 C   0  0  0  0  0  0  0  0  0  0  0  0
    7.4478    0.3506    0.0000 C   0  0  0  0  0  0  0  0  0  0  0  0
    8.3964    1.4126    0.0000 O   0  0  0  0  0  0  0  0  0  0  0  0
    8.5614    2.2237    0.0000 C   0  0  0  0  0  0  0  0  0  0  0  0
  2  1  1  0  0  0  0
  3  1  1  0  0  0  0
  4  1  1  0  0  0  0
  5  9  1  0  0  0  0
  6  5  1  0  0  0  0
  7  4  1  0  0  0  0
  8  2  1  0  0  0  0
  9  3  1  0  0  0  0
 10  6  1  0  0  0  0
 11  3  2  0  0  0  0
 12  2  2  0  0  0  0
 13  7  1  0  0  0  0
 14  6  2  0  0  0  0
 15 10  1  0  0  0  0
 16  7  2  0  0  0  0
 17 14  1  0  0  0  0
 18 13  1  0  0  0  0
 19 13  2  0  0  0  0
 20 21  2  0  0  0  0
 21 19  1  0  0  0  0
 22 18  2  0  0  0  0
 23 20  1  0  0  0  0
 24 23  1  0  0  0  0
  5  8  1  0  0  0  0
 22 20  1  0  0  0  0
 17 15  2  0  0  0  0
M  END
>  <IDNUMBER>
F6401-0077

>  <Chemical_Name>
1-[2-(4-methoxyphenyl)-2-oxoethyl]-4-(thiophen-2-yl)piperidine-2,6-dione

>  <PriceCoeff>
1.50

>  <CAS>
1396861-71-4

>  <MW>
343.40

>  <Description>
solid

>  <FSP3>
0.28

>  <clogP>
2.88

>  <TPSA>
91.92

>  <Acceptor>
4

>  <Donor>
0

>  <RotBonds>
5

>  <HAC>
24

>  <Collection>
Advanced

>  <PPDS>
+

$$$$
F6401-0078
  Mrv2219 10102508112D          

 25 28  0  0  0  0            999 V2000
    3.5599    0.5360    0.0000 N   0  0  0  0  0  0  0  0  0  0  0  0
    2.7764    0.8006    0.0000 C   0  0  0  0  0  0  0  0  0  0  0  0
    3.7248   -0.2715    0.0000 C   0  0  0  0  0  0  0  0  0  0  0  0
    5.7521    1.4191    0.0000 N   0  0  0  0  0  0  0  0  0  0  0  0
    6.4153    0.9381    0.0000 C   0  0  0  0  0  0  0  0  0  0  0  0
    5.0820    0.9381    0.0000 C   0  0  0  0  0  0  0  0  0  0  0  0
    6.1644    0.1512    0.0000 S   0  0  0  0  0  0  0  0  0  0  0  0
    2.3332   -0.5601    0.0000 C   0  0  0  0  0  0  0  0  0  0  0  0
    1.7147   -1.1065    0.0000 C   0  0  0  0  0  0  0  0  0  0  0  0
    4.2986    1.1958    0.0000 C   0  0  0  0  0  0  0  0  0  0  0  0
    2.1648    0.2474    0.0000 C   0  0  0  0  0  0  0  0  0  0  0  0
    3.1063   -0.8178    0.0000 C   0  0  0  0  0  0  0  0  0  0  0  0
    5.3398    0.1512    0.0000 C   0  0  0  0  0  0  0  0  0  0  0  0
    0.9003   -0.9278    0.0000 S   0  0  0  0  0  0  0  0  0  0  0  0
    4.5082   -0.5292    0.0000 O   0  0  0  0  0  0  0  0  0  0  0  0
    2.6012    1.6046    0.0000 O   0  0  0  0  0  0  0  0  0  0  0  0
    7.1987    1.1958    0.0000 C   0  0  0  0  0  0  0  0  0  0  0  0
    1.7937   -1.9277    0.0000 C   0  0  0  0  0  0  0  0  0  0  0  0
    0.4880   -1.6390    0.0000 C   0  0  0  0  0  0  0  0  0  0  0  0
    1.0308   -2.2575    0.0000 C   0  0  0  0  0  0  0  0  0  0  0  0
    7.8172    0.6460    0.0000 C   0  0  0  0  0  0  0  0  0  0  0  0
    7.3705    2.0067    0.0000 C   0  0  0  0  0  0  0  0  0  0  0  0
    8.1574    2.2644    0.0000 C   0  0  0  0  0  0  0  0  0  0  0  0
    8.5972    0.9037    0.0000 C   0  0  0  0  0  0  0  0  0  0  0  0
    8.7656    1.7147    0.0000 C   0  0  0  0  0  0  0  0  0  0  0  0
  2  1  1  0  0  0  0
  3  1  1  0  0  0  0
  4  6  1  0  0  0  0
  5  4  2  0  0  0  0
  6 10  1  0  0  0  0
  7 13  1  0  0  0  0
  8 12  1  0  0  0  0
  9  8  1  0  0  0  0
 10  1  1  0  0  0  0
 11  2  1  0  0  0  0
 12  3  1  0  0  0  0
 13  6  2  0  0  0  0
 14  9  1  0  0  0  0
 15  3  2  0  0  0  0
 16  2  2  0  0  0  0
 17  5  1  0  0  0  0
 18  9  2  0  0  0  0
 19 14  1  0  0  0  0
 20 18  1  0  0  0  0
 21 17  2  0  0  0  0
 22 17  1  0  0  0  0
 23 22  2  0  0  0  0
 24 21  1  0  0  0  0
 25 23  1  0  0  0  0
 11  8  1  0  0  0  0
  7  5  1  0  0  0  0
 19 20  2  0  0  0  0
 24 25  2  0  0  0  0
M  END
>  <IDNUMBER>
F6401-0078

>  <Chemical_Name>
1-[(2-phenyl-1,3-thiazol-4-yl)methyl]-4-(thiophen-2-yl)piperidine-2,6-dione

>  <PriceCoeff>
1.00

>  <CAS>
1396747-45-7

>  <MW>
368.47

>  <Description>
solid

>  <FSP3>
0.21

>  <clogP>
3.18

>  <TPSA>
106.75

>  <Acceptor>
3

>  <Donor>
0

>  <RotBonds>
4

>  <HAC>
25

>  <Collection>
General

>  <PPDS>
+

$$$$
F6401-0082
  Mrv2219 10102508112D          

 22 24  0  0  0  0            999 V2000
    3.0044   -0.8147    0.0000 N   0  0  0  0  0  0  0  0  0  0  0  0
    3.3413   -0.0550    0.0000 C   0  0  0  0  0  0  0  0  0  0  0  0
    2.1862   -0.9007    0.0000 C   0  0  0  0  0  0  0  0  0  0  0  0
    3.5922   -1.6122    0.0000 C   0  0  0  0  0  0  0  0  0  0  0  0
    4.4137   -1.5194    0.0000 C   0  0  0  0  0  0  0  0  0  0  0  0
    2.0350    0.5225    0.0000 C   0  0  0  0  0  0  0  0  0  0  0  0
    1.5503    1.1859    0.0000 C   0  0  0  0  0  0  0  0  0  0  0  0
    2.8566    0.6050    0.0000 C   0  0  0  0  0  0  0  0  0  0  0  0
    1.7016   -0.2303    0.0000 C   0  0  0  0  0  0  0  0  0  0  0  0
    1.8047    1.9765    0.0000 S   0  0  0  0  0  0  0  0  0  0  0  0
    4.9019   -2.1897    0.0000 C   0  0  0  0  0  0  0  0  0  0  0  0
    1.8494   -1.6535    0.0000 O   0  0  0  0  0  0  0  0  0  0  0  0
    3.8294    0.0000    0.0000 O   0  0  0  0  0  0  0  0  0  0  0  0
    4.7438   -0.7734    0.0000 C   0  0  0  0  0  0  0  0  0  0  0  0
    0.7253    1.1859    0.0000 C   0  0  0  0  0  0  0  0  0  0  0  0
    1.1378    2.4578    0.0000 C   0  0  0  0  0  0  0  0  0  0  0  0
    0.4675    1.9765    0.0000 C   0  0  0  0  0  0  0  0  0  0  0  0
    5.7166   -2.0969    0.0000 C   0  0  0  0  0  0  0  0  0  0  0  0
    5.5619   -0.6806    0.0000 C   0  0  0  0  0  0  0  0  0  0  0  0
    4.5684   -2.9425    0.0000 F   0  0  0  0  0  0  0  0  0  0  0  0
    6.0534   -1.3406    0.0000 C   0  0  0  0  0  0  0  0  0  0  0  0
    5.8919    0.0790    0.0000 F   0  0  0  0  0  0  0  0  0  0  0  0
  2  1  1  0  0  0  0
  3  1  1  0  0  0  0
  4  1  1  0  0  0  0
  5  4  1  0  0  0  0
  6  9  1  0  0  0  0
  7  6  1  0  0  0  0
  8  2  1  0  0  0  0
  9  3  1  0  0  0  0
 10  7  1  0  0  0  0
 11  5  2  0  0  0  0
 12  3  2  0  0  0  0
 13  2  2  0  0  0  0
 14  5  1  0  0  0  0
 15  7  2  0  0  0  0
 16 10  1  0  0  0  0
 17 15  1  0  0  0  0
 18 11  1  0  0  0  0
 19 14  2  0  0  0  0
 20 11  1  0  0  0  0
 21 19  1  0  0  0  0
 22 19  1  0  0  0  0
  8  6  1  0  0  0  0
 21 18  2  0  0  0  0
 16 17  2  0  0  0  0
M  END
>  <IDNUMBER>
F6401-0082

>  <Chemical_Name>
1-[(2,5-difluorophenyl)methyl]-4-(thiophen-2-yl)piperidine-2,6-dione

>  <PriceCoeff>
1.50

>  <CAS>
1396849-53-8

>  <MW>
321.34

>  <Description>
solid

>  <FSP3>
0.25

>  <clogP>
3.02

>  <TPSA>
65.62

>  <Acceptor>
2

>  <Donor>
0

>  <RotBonds>
3

>  <HAC>
22

>  <Collection>
Advanced

>  <PPDS>
+

$$$$
F6403-1733
  Mrv2219 10102508112D          

 25 27  0  0  0  0            999 V2000
    7.7172   -1.9669    0.0000 N   0  0  0  0  0  0  0  0  0  0  0  0
    7.0031   -2.3845    0.0000 C   0  0  0  0  0  0  0  0  0  0  0  0
    2.5850   -4.6020    0.0000 N   0  0  0  0  0  0  0  0  0  0  0  0
    7.7631   -1.1400    0.0000 N   0  0  0  0  0  0  0  0  0  0  0  0
    6.9572   -3.2114    0.0000 N   0  0  0  0  0  0  0  0  0  0  0  0
    8.4897   -2.2592    0.0000 C   0  0  0  0  0  0  0  0  0  0  0  0
    6.2306   -2.0922    0.0000 S   0  0  0  0  0  0  0  0  0  0  0  0
    1.9627   -4.0633    0.0000 C   0  0  0  0  0  0  0  0  0  0  0  0
    2.2634   -5.3620    0.0000 C   0  0  0  0  0  0  0  0  0  0  0  0
    9.0076   -1.6203    0.0000 C   0  0  0  0  0  0  0  0  0  0  0  0
    8.5608   -0.9271    0.0000 C   0  0  0  0  0  0  0  0  0  0  0  0
    6.1595   -3.4201    0.0000 C   0  0  0  0  0  0  0  0  0  0  0  0
    3.4034   -4.5017    0.0000 C   0  0  0  0  0  0  0  0  0  0  0  0
    5.7127   -2.7311    0.0000 C   0  0  0  0  0  0  0  0  0  0  0  0
    3.8962   -5.1573    0.0000 C   0  0  0  0  0  0  0  0  0  0  0  0
    1.2528   -4.4933    0.0000 C   0  0  0  0  0  0  0  0  0  0  0  0
    1.4449   -5.2868    0.0000 C   0  0  0  0  0  0  0  0  0  0  0  0
    2.0378   -3.2280    0.0000 O   0  0  0  0  0  0  0  0  0  0  0  0
    2.6935   -6.0761    0.0000 O   0  0  0  0  0  0  0  0  0  0  0  0
    3.5788   -5.9215    0.0000 O   0  0  0  0  0  0  0  0  0  0  0  0
    4.7147   -5.0571    0.0000 N   0  0  0  0  0  0  0  0  0  0  0  0
    5.8463   -4.1969    0.0000 C   0  0  0  0  0  0  0  0  0  0  0  0
    5.0279   -4.3054    0.0000 C   0  0  0  0  0  0  0  0  0  0  0  0
    8.7027   -3.0610    0.0000 C   0  0  0  0  0  0  0  0  0  0  0  0
    8.8740   -0.1545    0.0000 C   0  0  0  0  0  0  0  0  0  0  0  0
  2  1  1  0  0  0  0
  3 13  1  0  0  0  0
  4  1  1  0  0  0  0
  5  2  2  0  0  0  0
  6  1  1  0  0  0  0
  7  2  1  0  0  0  0
  8  3  1  0  0  0  0
  9  3  1  0  0  0  0
 10  6  2  0  0  0  0
 11  4  2  0  0  0  0
 12  5  1  0  0  0  0
 13 15  1  0  0  0  0
 14  7  1  0  0  0  0
 15 21  1  0  0  0  0
 16  8  1  0  0  0  0
 17  9  1  0  0  0  0
 18  8  2  0  0  0  0
 19  9  2  0  0  0  0
 20 15  2  0  0  0  0
 21 23  1  0  0  0  0
 22 12  1  0  0  0  0
 23 22  1  0  0  0  0
 24  6  1  0  0  0  0
 25 11  1  0  0  0  0
 10 11  1  0  0  0  0
 14 12  2  0  0  0  0
 16 17  1  0  0  0  0
M  END
>  <IDNUMBER>
F6403-1733

>  <Chemical_Name>
N-{2-[2-(3,5-dimethyl-1H-pyrazol-1-yl)-1,3-thiazol-4-yl]ethyl}-2-(2,5-dioxopyrrolidin-1-yl)acetamide

>  <PriceCoeff>
1.00

>  <CAS>
1421450-85-2

>  <MW>
361.42

>  <Description>
solid

>  <FSP3>
0.44

>  <clogP>
0.64

>  <TPSA>
125.43

>  <Acceptor>
5

>  <Donor>
1

>  <RotBonds>
6

>  <HAC>
25

>  <Collection>
General

>  <PPDS>
+

$$$$
F6403-2768
  Mrv2219 10102508112D          

 27 30  0  0  0  0            999 V2000
    0.4429    4.9635    0.0000 N   0  0  0  0  0  0  0  0  0  0  0  0
   -0.3091    4.6293    0.0000 C   0  0  0  0  0  0  0  0  0  0  0  0
   -3.8813    3.4050    0.0000 C   0  0  0  0  0  0  0  0  0  0  0  0
    0.5808    3.6432    0.0000 N   0  0  0  0  0  0  0  0  0  0  0  0
    0.9944    4.3535    0.0000 C   0  0  0  0  0  0  0  0  0  0  0  0
   -3.1669    3.8103    0.0000 N   0  0  0  0  0  0  0  0  0  0  0  0
   -0.2214    3.8187    0.0000 C   0  0  0  0  0  0  0  0  0  0  0  0
   -3.8312    2.5778    0.0000 N   0  0  0  0  0  0  0  0  0  0  0  0
   -1.7380    4.6293    0.0000 N   0  0  0  0  0  0  0  0  0  0  0  0
   -1.0236    5.0429    0.0000 C   0  0  0  0  0  0  0  0  0  0  0  0
   -5.9411    2.0430    0.0000 C   0  0  0  0  0  0  0  0  0  0  0  0
   -5.2601    2.4943    0.0000 C   0  0  0  0  0  0  0  0  0  0  0  0
    0.6936    5.7489    0.0000 C   0  0  0  0  0  0  0  0  0  0  0  0
   -4.5206    2.1266    0.0000 C   0  0  0  0  0  0  0  0  0  0  0  0
   -4.5707    3.8563    0.0000 O   0  0  0  0  0  0  0  0  0  0  0  0
    1.8049    4.5248    0.0000 C   0  0  0  0  0  0  0  0  0  0  0  0
   -5.8910    1.2116    0.0000 C   0  0  0  0  0  0  0  0  0  0  0  0
   -2.4525    3.3925    0.0000 C   0  0  0  0  0  0  0  0  0  0  0  0
   -3.1669    4.6293    0.0000 C   0  0  0  0  0  0  0  0  0  0  0  0
    1.5041    5.9161    0.0000 C   0  0  0  0  0  0  0  0  0  0  0  0
    2.0556    5.3061    0.0000 C   0  0  0  0  0  0  0  0  0  0  0  0
   -5.1598    0.8398    0.0000 C   0  0  0  0  0  0  0  0  0  0  0  0
   -2.4525    5.0429    0.0000 C   0  0  0  0  0  0  0  0  0  0  0  0
   -1.7297    3.8061    0.0000 C   0  0  0  0  0  0  0  0  0  0  0  0
   -6.6723    2.4023    0.0000 Cl  0  0  0  0  0  0  0  0  0  0  0  0
   -4.4704    1.2910    0.0000 C   0  0  0  0  0  0  0  0  0  0  0  0
   -6.5720    0.7604    0.0000 Cl  0  0  0  0  0  0  0  0  0  0  0  0
  2  1  1  0  0  0  0
  3  6  1  0  0  0  0
  4  5  2  0  0  0  0
  5  1  1  0  0  0  0
  6 18  1  0  0  0  0
  7  2  2  0  0  0  0
  8  3  1  0  0  0  0
  9 10  1  0  0  0  0
 10  2  1  0  0  0  0
 11 12  1  0  0  0  0
 12 14  2  0  0  0  0
 13  1  1  0  0  0  0
 14  8  1  0  0  0  0
 15  3  2  0  0  0  0
 16  5  1  0  0  0  0
 17 22  1  0  0  0  0
 18 24  1  0  0  0  0
 19 23  1  0  0  0  0
 20 13  2  0  0  0  0
 21 20  1  0  0  0  0
 22 26  2  0  0  0  0
 23  9  1  0  0  0  0
 24  9  1  0  0  0  0
 25 11  1  0  0  0  0
 26 14  1  0  0  0  0
 27 17  1  0  0  0  0
  7  4  1  0  0  0  0
 16 21  2  0  0  0  0
 19  6  1  0  0  0  0
 11 17  2  0  0  0  0
M  END
>  <IDNUMBER>
F6403-2768

>  <Chemical_Name>
N-(3,4-dichlorophenyl)-4-({imidazo[1,2-a]pyridin-3-yl}methyl)piperazine-1-carboxamide

>  <PriceCoeff>
1.00

>  <CAS>
1421504-93-9

>  <MW>
404.29

>  <Description>
solid

>  <FSP3>
0.26

>  <clogP>
4.07

>  <TPSA>
52.88

>  <Acceptor>
2

>  <Donor>
2

>  <RotBonds>
4

>  <HAC>
27

>  <Collection>
General

$$$$
F6411-4564
  Mrv2219 10102508112D          

 30 33  0  0  0  0            999 V2000
    6.5101    1.5020    0.0000 C   0  0  0  0  0  0  0  0  0  0  0  0
    3.8807    0.1134    0.0000 N   0  0  0  0  0  0  0  0  0  0  0  0
    5.1146    1.2133    0.0000 N   0  0  0  0  0  0  0  0  0  0  0  0
    5.7265    1.7598    0.0000 C   0  0  0  0  0  0  0  0  0  0  0  0
    3.7157    0.9246    0.0000 C   0  0  0  0  0  0  0  0  0  0  0  0
    4.6609   -0.1478    0.0000 C   0  0  0  0  0  0  0  0  0  0  0  0
    6.7679    0.7080    0.0000 C   0  0  0  0  0  0  0  0  0  0  0  0
    7.1804    1.9798    0.0000 N   0  0  0  0  0  0  0  0  0  0  0  0
    7.8472    1.5020    0.0000 N   0  0  0  0  0  0  0  0  0  0  0  0
    7.5929    0.7080    0.0000 C   0  0  0  0  0  0  0  0  0  0  0  0
    4.3241    1.4711    0.0000 C   0  0  0  0  0  0  0  0  0  0  0  0
    5.2796    0.4022    0.0000 C   0  0  0  0  0  0  0  0  0  0  0  0
    3.2620   -0.4366    0.0000 C   0  0  0  0  0  0  0  0  0  0  0  0
    8.0775    0.0412    0.0000 C   0  0  0  0  0  0  0  0  0  0  0  0
    4.8259   -0.9521    0.0000 O   0  0  0  0  0  0  0  0  0  0  0  0
    2.9320    1.1824    0.0000 O   0  0  0  0  0  0  0  0  0  0  0  0
    5.5615    2.5676    0.0000 O   0  0  0  0  0  0  0  0  0  0  0  0
    8.8921    0.1306    0.0000 C   0  0  0  0  0  0  0  0  0  0  0  0
    2.4783   -0.1753    0.0000 C   0  0  0  0  0  0  0  0  0  0  0  0
    9.3768   -0.5397    0.0000 C   0  0  0  0  0  0  0  0  0  0  0  0
   10.2017   -0.4537    0.0000 F   0  0  0  0  0  0  0  0  0  0  0  0
    1.8630   -0.7218    0.0000 C   0  0  0  0  0  0  0  0  0  0  0  0
    7.7372   -0.7115    0.0000 C   0  0  0  0  0  0  0  0  0  0  0  0
    8.2219   -1.3749    0.0000 C   0  0  0  0  0  0  0  0  0  0  0  0
    9.0468   -1.2924    0.0000 C   0  0  0  0  0  0  0  0  0  0  0  0
    2.0314   -1.5296    0.0000 C   0  0  0  0  0  0  0  0  0  0  0  0
    1.0759   -0.4572    0.0000 C   0  0  0  0  0  0  0  0  0  0  0  0
    0.4675   -1.0037    0.0000 C   0  0  0  0  0  0  0  0  0  0  0  0
    1.4059   -2.0761    0.0000 C   0  0  0  0  0  0  0  0  0  0  0  0
    0.6325   -1.8149    0.0000 C   0  0  0  0  0  0  0  0  0  0  0  0
  2  6  1  0  0  0  0
  3  4  1  0  0  0  0
  4  1  1  0  0  0  0
  5 11  1  0  0  0  0
  6 12  1  0  0  0  0
  7  1  2  0  0  0  0
  8  1  1  0  0  0  0
  9  8  1  0  0  0  0
 10  7  1  0  0  0  0
 11  3  1  0  0  0  0
 12  3  1  0  0  0  0
 13  2  1  0  0  0  0
 14 10  1  0  0  0  0
 15  6  2  0  0  0  0
 16  5  2  0  0  0  0
 17  4  2  0  0  0  0
 18 14  1  0  0  0  0
 19 13  1  0  0  0  0
 20 18  2  0  0  0  0
 21 20  1  0  0  0  0
 22 19  1  0  0  0  0
 23 14  2  0  0  0  0
 24 23  1  0  0  0  0
 25 24  2  0  0  0  0
 26 22  1  0  0  0  0
 27 22  2  0  0  0  0
 28 27  1  0  0  0  0
 29 26  2  0  0  0  0
 30 28  2  0  0  0  0
  9 10  2  0  0  0  0
  2  5  1  0  0  0  0
 20 25  1  0  0  0  0
 30 29  1  0  0  0  0
M  END
>  <IDNUMBER>
F6411-4564

>  <Chemical_Name>
4-[3-(3-fluorophenyl)-1H-pyrazole-5-carbonyl]-1-(2-phenylethyl)piperazine-2,6-dione

>  <PriceCoeff>
1.00

>  <MW>
406.41

>  <Description>
solid

>  <FSP3>
0.18

>  <clogP>
4.04

>  <TPSA>
86.37

>  <Acceptor>
5

>  <Donor>
2

>  <RotBonds>
6

>  <HAC>
30

>  <Collection>
General

>  <PPDS>
+

$$$$
F6412-1460
  Mrv2219 10102508112D          

 24 25  0  0  0  0            999 V2000
   -4.6798    2.5860    0.0000 N   0  0  0  0  0  0  0  0  0  0  0  0
   -5.4264    2.9864    0.0000 C   0  0  0  0  0  0  0  0  0  0  0  0
   -4.8175    1.7643    0.0000 C   0  0  0  0  0  0  0  0  0  0  0  0
   -3.9291    2.9614    0.0000 C   0  0  0  0  0  0  0  0  0  0  0  0
   -3.8748    5.4473    0.0000 C   0  0  0  0  0  0  0  0  0  0  0  0
   -4.5839    5.8603    0.0000 C   0  0  0  0  0  0  0  0  0  0  0  0
   -3.8748    3.8039    0.0000 C   0  0  0  0  0  0  0  0  0  0  0  0
   -6.0229    2.3942    0.0000 C   0  0  0  0  0  0  0  0  0  0  0  0
   -5.6516    1.6350    0.0000 C   0  0  0  0  0  0  0  0  0  0  0  0
   -5.5515    3.8122    0.0000 O   0  0  0  0  0  0  0  0  0  0  0  0
   -4.2294    1.1720    0.0000 O   0  0  0  0  0  0  0  0  0  0  0  0
   -4.4713    4.0917    0.0000 O   0  0  0  0  0  0  0  0  0  0  0  0
   -6.0020    8.3378    0.0000 C   0  0  0  0  0  0  0  0  0  0  0  0
   -6.0062    7.5120    0.0000 C   0  0  0  0  0  0  0  0  0  0  0  0
   -3.1616    4.2086    0.0000 N   0  0  0  0  0  0  0  0  0  0  0  0
   -3.1616    5.0344    0.0000 C   0  0  0  0  0  0  0  0  0  0  0  0
   -5.2930    7.0990    0.0000 O   0  0  0  0  0  0  0  0  0  0  0  0
   -5.2888    8.7507    0.0000 O   0  0  0  0  0  0  0  0  0  0  0  0
   -5.2888    6.2690    0.0000 C   0  0  0  0  0  0  0  0  0  0  0  0
   -6.6986    7.0990    0.0000 C   0  0  0  0  0  0  0  0  0  0  0  0
   -6.7069    8.7507    0.0000 C   0  0  0  0  0  0  0  0  0  0  0  0
   -4.5672    8.3294    0.0000 C   0  0  0  0  0  0  0  0  0  0  0  0
   -7.4160    7.4995    0.0000 C   0  0  0  0  0  0  0  0  0  0  0  0
   -7.4160    8.3378    0.0000 C   0  0  0  0  0  0  0  0  0  0  0  0
  2  1  1  0  0  0  0
  3  1  1  0  0  0  0
  4  1  1  0  0  0  0
  5 16  1  0  0  0  0
  6  5  3  0  0  0  0
  7  4  1  0  0  0  0
  8  2  1  0  0  0  0
  9  3  1  0  0  0  0
 10  2  2  0  0  0  0
 11  3  2  0  0  0  0
 12  7  2  0  0  0  0
 13 14  2  0  0  0  0
 14 17  1  0  0  0  0
 15  7  1  0  0  0  0
 16 15  1  0  0  0  0
 17 19  1  0  0  0  0
 18 13  1  0  0  0  0
 19  6  1  0  0  0  0
 20 14  1  0  0  0  0
 21 13  1  0  0  0  0
 22 18  1  0  0  0  0
 23 20  2  0  0  0  0
 24 23  1  0  0  0  0
  8  9  1  0  0  0  0
 21 24  2  0  0  0  0
M  END
>  <IDNUMBER>
F6412-1460

>  <Chemical_Name>
2-(2,5-dioxopyrrolidin-1-yl)-N-[4-(2-methoxyphenoxy)but-2-yn-1-yl]acetamide

>  <PriceCoeff>
1.00

>  <CAS>
1421512-74-4

>  <MW>
330.34

>  <Description>
solid

>  <FSP3>
0.35

>  <clogP>
1.36

>  <TPSA>
84.94

>  <Acceptor>
5

>  <Donor>
1

>  <RotBonds>
7

>  <HAC>
24

>  <Collection>
General

>  <PPDS>
+

$$$$
F6412-1869
  Mrv2219 10102508112D          

 26 27  0  0  0  0            999 V2000
   -4.6847    2.5887    0.0000 N   0  0  0  0  0  0  0  0  0  0  0  0
   -6.6846    9.6074    0.0000 C   0  0  0  0  0  0  0  0  0  0  0  0
   -5.4320    2.9895    0.0000 C   0  0  0  0  0  0  0  0  0  0  0  0
   -4.8225    1.7662    0.0000 C   0  0  0  0  0  0  0  0  0  0  0  0
   -3.9331    2.9644    0.0000 C   0  0  0  0  0  0  0  0  0  0  0  0
   -6.6930    8.7849    0.0000 C   0  0  0  0  0  0  0  0  0  0  0  0
   -3.8663    5.4613    0.0000 C   0  0  0  0  0  0  0  0  0  0  0  0
   -4.5803    5.8789    0.0000 C   0  0  0  0  0  0  0  0  0  0  0  0
   -3.8788    3.8079    0.0000 C   0  0  0  0  0  0  0  0  0  0  0  0
   -6.0292    2.3967    0.0000 C   0  0  0  0  0  0  0  0  0  0  0  0
   -5.6575    1.6367    0.0000 C   0  0  0  0  0  0  0  0  0  0  0  0
   -5.5573    3.8162    0.0000 O   0  0  0  0  0  0  0  0  0  0  0  0
   -4.2338    1.1732    0.0000 O   0  0  0  0  0  0  0  0  0  0  0  0
   -5.9874    8.3673    0.0000 C   0  0  0  0  0  0  0  0  0  0  0  0
   -4.4760    4.0960    0.0000 O   0  0  0  0  0  0  0  0  0  0  0  0
   -7.3945   10.0290    0.0000 F   0  0  0  0  0  0  0  0  0  0  0  0
   -6.6805   10.4383    0.0000 F   0  0  0  0  0  0  0  0  0  0  0  0
   -5.9791   10.0124    0.0000 F   0  0  0  0  0  0  0  0  0  0  0  0
   -3.1648    4.2129    0.0000 N   0  0  0  0  0  0  0  0  0  0  0  0
   -5.9957    7.5448    0.0000 C   0  0  0  0  0  0  0  0  0  0  0  0
   -3.1648    5.0437    0.0000 C   0  0  0  0  0  0  0  0  0  0  0  0
   -5.2942    6.2922    0.0000 C   0  0  0  0  0  0  0  0  0  0  0  0
   -5.2817    7.1189    0.0000 O   0  0  0  0  0  0  0  0  0  0  0  0
   -7.4070    8.3715    0.0000 C   0  0  0  0  0  0  0  0  0  0  0  0
   -7.4070    7.5406    0.0000 C   0  0  0  0  0  0  0  0  0  0  0  0
   -6.7014    7.1314    0.0000 C   0  0  0  0  0  0  0  0  0  0  0  0
  2  6  1  0  0  0  0
  3  1  1  0  0  0  0
  4  1  1  0  0  0  0
  5  1  1  0  0  0  0
  6 14  1  0  0  0  0
  7 21  1  0  0  0  0
  8  7  3  0  0  0  0
  9  5  1  0  0  0  0
 10  3  1  0  0  0  0
 11  4  1  0  0  0  0
 12  3  2  0  0  0  0
 13  4  2  0  0  0  0
 14 20  2  0  0  0  0
 15  9  2  0  0  0  0
 16  2  1  0  0  0  0
 17  2  1  0  0  0  0
 18  2  1  0  0  0  0
 19  9  1  0  0  0  0
 20 23  1  0  0  0  0
 21 19  1  0  0  0  0
 22  8  1  0  0  0  0
 23 22  1  0  0  0  0
 24 25  1  0  0  0  0
 25 26  2  0  0  0  0
 26 20  1  0  0  0  0
 10 11  1  0  0  0  0
  6 24  2  0  0  0  0
M  END
>  <IDNUMBER>
F6412-1869

>  <Chemical_Name>
2-(2,5-dioxopyrrolidin-1-yl)-N-{4-[3-(trifluoromethyl)phenoxy]but-2-yn-1-yl}acetamide

>  <PriceCoeff>
1.00

>  <CAS>
1421496-94-7

>  <MW>
368.31

>  <Description>
solid

>  <FSP3>
0.35

>  <clogP>
2.75

>  <TPSA>
75.71

>  <Acceptor>
4

>  <Donor>
1

>  <RotBonds>
6

>  <HAC>
26

>  <Collection>
General

>  <PPDS>
+

$$$$
F6412-2278
  Mrv2219 10102508112D          

 25 27  0  0  0  0            999 V2000
   -4.6619    2.5760    0.0000 N   0  0  0  0  0  0  0  0  0  0  0  0
   -5.4055    2.9749    0.0000 C   0  0  0  0  0  0  0  0  0  0  0  0
   -4.7990    1.7576    0.0000 C   0  0  0  0  0  0  0  0  0  0  0  0
   -3.9139    2.9500    0.0000 C   0  0  0  0  0  0  0  0  0  0  0  0
   -6.6729    8.7337    0.0000 C   0  0  0  0  0  0  0  0  0  0  0  0
   -3.8516    5.4347    0.0000 C   0  0  0  0  0  0  0  0  0  0  0  0
   -4.5580    5.8418    0.0000 C   0  0  0  0  0  0  0  0  0  0  0  0
   -3.8599    3.7893    0.0000 C   0  0  0  0  0  0  0  0  0  0  0  0
   -5.9582    8.3182    0.0000 C   0  0  0  0  0  0  0  0  0  0  0  0
   -7.3834    8.3265    0.0000 C   0  0  0  0  0  0  0  0  0  0  0  0
   -6.8390    9.5398    0.0000 O   0  0  0  0  0  0  0  0  0  0  0  0
   -7.9858    8.8792    0.0000 O   0  0  0  0  0  0  0  0  0  0  0  0
   -7.6576    9.6270    0.0000 C   0  0  0  0  0  0  0  0  0  0  0  0
   -5.9998    2.3849    0.0000 C   0  0  0  0  0  0  0  0  0  0  0  0
   -5.6299    1.6287    0.0000 C   0  0  0  0  0  0  0  0  0  0  0  0
   -5.5302    3.7976    0.0000 O   0  0  0  0  0  0  0  0  0  0  0  0
   -4.2131    1.1675    0.0000 O   0  0  0  0  0  0  0  0  0  0  0  0
   -4.4542    4.0760    0.0000 O   0  0  0  0  0  0  0  0  0  0  0  0
   -7.3834    7.4956    0.0000 C   0  0  0  0  0  0  0  0  0  0  0  0
   -3.1494    4.1924    0.0000 N   0  0  0  0  0  0  0  0  0  0  0  0
   -5.9790    7.4956    0.0000 C   0  0  0  0  0  0  0  0  0  0  0  0
   -6.6729    7.0967    0.0000 C   0  0  0  0  0  0  0  0  0  0  0  0
   -3.1494    5.0150    0.0000 C   0  0  0  0  0  0  0  0  0  0  0  0
   -5.2726    6.2615    0.0000 C   0  0  0  0  0  0  0  0  0  0  0  0
   -5.2684    7.0842    0.0000 O   0  0  0  0  0  0  0  0  0  0  0  0
  2  1  1  0  0  0  0
  3  1  1  0  0  0  0
  4  1  1  0  0  0  0
  5  9  1  0  0  0  0
  6 23  1  0  0  0  0
  7  6  3  0  0  0  0
  8  4  1  0  0  0  0
  9 21  2  0  0  0  0
 10 19  1  0  0  0  0
 11  5  1  0  0  0  0
 12 10  1  0  0  0  0
 13 11  1  0  0  0  0
 14  2  1  0  0  0  0
 15  3  1  0  0  0  0
 16  2  2  0  0  0  0
 17  3  2  0  0  0  0
 18  8  2  0  0  0  0
 19 22  2  0  0  0  0
 20  8  1  0  0  0  0
 21 25  1  0  0  0  0
 22 21  1  0  0  0  0
 23 20  1  0  0  0  0
 24  7  1  0  0  0  0
 25 24  1  0  0  0  0
 14 15  1  0  0  0  0
  5 10  2  0  0  0  0
 13 12  1  0  0  0  0
M  END
>  <IDNUMBER>
F6412-2278

>  <Chemical_Name>
N-[4-(2H-1,3-benzodioxol-5-yloxy)but-2-yn-1-yl]-2-(2,5-dioxopyrrolidin-1-yl)acetamide

>  <PriceCoeff>
1.00

>  <CAS>
1448132-46-4

>  <MW>
344.32

>  <Description>
solid

>  <FSP3>
0.35

>  <clogP>
1.66

>  <TPSA>
94.17

>  <Acceptor>
6

>  <Donor>
1

>  <RotBonds>
6

>  <HAC>
25

>  <Collection>
General

>  <PPDS>
+

$$$$
F6412-6777
  Mrv2219 10102508112D          

 25 26  0  0  0  0            999 V2000
   -4.6620    2.5761    0.0000 N   0  0  0  0  0  0  0  0  0  0  0  0
   -5.4057    2.9750    0.0000 C   0  0  0  0  0  0  0  0  0  0  0  0
   -4.7991    1.7576    0.0000 C   0  0  0  0  0  0  0  0  0  0  0  0
   -5.9709    8.3310    0.0000 C   0  0  0  0  0  0  0  0  0  0  0  0
   -5.2562    8.7299    0.0000 C   0  0  0  0  0  0  0  0  0  0  0  0
   -3.9141    2.9501    0.0000 C   0  0  0  0  0  0  0  0  0  0  0  0
   -3.8600    5.4390    0.0000 C   0  0  0  0  0  0  0  0  0  0  0  0
   -4.5581    5.8504    0.0000 C   0  0  0  0  0  0  0  0  0  0  0  0
   -3.8600    3.7894    0.0000 C   0  0  0  0  0  0  0  0  0  0  0  0
   -5.9791    7.5041    0.0000 C   0  0  0  0  0  0  0  0  0  0  0  0
   -6.0000    2.3851    0.0000 C   0  0  0  0  0  0  0  0  0  0  0  0
   -5.6301    1.6288    0.0000 C   0  0  0  0  0  0  0  0  0  0  0  0
   -5.5304    3.7977    0.0000 O   0  0  0  0  0  0  0  0  0  0  0  0
   -4.2133    1.1675    0.0000 O   0  0  0  0  0  0  0  0  0  0  0  0
   -4.5581    8.3185    0.0000 O   0  0  0  0  0  0  0  0  0  0  0  0
   -4.4543    4.0761    0.0000 O   0  0  0  0  0  0  0  0  0  0  0  0
   -5.2562    9.5526    0.0000 N   0  0  0  0  0  0  0  0  0  0  0  0
   -3.1495    4.1925    0.0000 N   0  0  0  0  0  0  0  0  0  0  0  0
   -3.1495    5.0277    0.0000 C   0  0  0  0  0  0  0  0  0  0  0  0
   -5.2686    7.0927    0.0000 O   0  0  0  0  0  0  0  0  0  0  0  0
   -6.6731    8.7423    0.0000 C   0  0  0  0  0  0  0  0  0  0  0  0
   -5.2811    6.2742    0.0000 C   0  0  0  0  0  0  0  0  0  0  0  0
   -6.6731    7.0969    0.0000 C   0  0  0  0  0  0  0  0  0  0  0  0
   -7.3836    8.3435    0.0000 C   0  0  0  0  0  0  0  0  0  0  0  0
   -7.3836    7.5124    0.0000 C   0  0  0  0  0  0  0  0  0  0  0  0
  2  1  1  0  0  0  0
  3  1  1  0  0  0  0
  4 10  2  0  0  0  0
  5  4  1  0  0  0  0
  6  1  1  0  0  0  0
  7 19  1  0  0  0  0
  8  7  3  0  0  0  0
  9  6  1  0  0  0  0
 10 20  1  0  0  0  0
 11  2  1  0  0  0  0
 12  3  1  0  0  0  0
 13  2  2  0  0  0  0
 14  3  2  0  0  0  0
 15  5  2  0  0  0  0
 16  9  2  0  0  0  0
 17  5  1  0  0  0  0
 18  9  1  0  0  0  0
 19 18  1  0  0  0  0
 20 22  1  0  0  0  0
 21  4  1  0  0  0  0
 22  8  1  0  0  0  0
 23 10  1  0  0  0  0
 24 25  1  0  0  0  0
 25 23  2  0  0  0  0
 11 12  1  0  0  0  0
 21 24  2  0  0  0  0
M  END
>  <IDNUMBER>
F6412-6777

>  <Chemical_Name>
2-({4-[2-(2,5-dioxopyrrolidin-1-yl)acetamido]but-2-yn-1-yl}oxy)benzamide

>  <PriceCoeff>
1.00

>  <CAS>
1421506-50-4

>  <MW>
343.33

>  <Description>
solid

>  <FSP3>
0.29

>  <clogP>
0.33

>  <TPSA>
118.80

>  <Acceptor>
5

>  <Donor>
2

>  <RotBonds>
7

>  <HAC>
25

>  <Collection>
General

>  <PPDS>
+

$$$$
F6413-0068
  Mrv2219 10102508112D          

 24 26  0  0  0  0            999 V2000
   -5.2861    2.5722    0.0000 N   0  0  0  0  0  0  0  0  0  0  0  0
   -2.2595    6.4534    0.0000 C   0  0  0  0  0  0  0  0  0  0  0  0
   -1.9260    7.2080    0.0000 C   0  0  0  0  0  0  0  0  0  0  0  0
   -3.0641    6.2783    0.0000 S   0  0  0  0  0  0  0  0  0  0  0  0
   -5.3736    1.7467    0.0000 C   0  0  0  0  0  0  0  0  0  0  0  0
   -6.0324    2.9015    0.0000 C   0  0  0  0  0  0  0  0  0  0  0  0
   -1.0964    7.2956    0.0000 C   0  0  0  0  0  0  0  0  0  0  0  0
   -1.8343    5.7322    0.0000 C   0  0  0  0  0  0  0  0  0  0  0  0
   -3.1517    5.4529    0.0000 C   0  0  0  0  0  0  0  0  0  0  0  0
   -4.5857    2.9891    0.0000 C   0  0  0  0  0  0  0  0  0  0  0  0
   -0.6879    8.0209    0.0000 S   0  0  0  0  0  0  0  0  0  0  0  0
   -4.5857    3.8020    0.0000 C   0  0  0  0  0  0  0  0  0  0  0  0
   -2.3971    5.1194    0.0000 C   0  0  0  0  0  0  0  0  0  0  0  0
   -2.4138    7.8709    0.0000 O   0  0  0  0  0  0  0  0  0  0  0  0
   -3.8645    4.2147    0.0000 N   0  0  0  0  0  0  0  0  0  0  0  0
   -0.5503    6.6827    0.0000 C   0  0  0  0  0  0  0  0  0  0  0  0
   -6.1700    1.5716    0.0000 C   0  0  0  0  0  0  0  0  0  0  0  0
   -6.5827    2.2845    0.0000 C   0  0  0  0  0  0  0  0  0  0  0  0
   -4.7525    1.1839    0.0000 O   0  0  0  0  0  0  0  0  0  0  0  0
   -6.2075    3.7103    0.0000 O   0  0  0  0  0  0  0  0  0  0  0  0
    0.1168    7.8458    0.0000 C   0  0  0  0  0  0  0  0  0  0  0  0
    0.2043    7.0204    0.0000 C   0  0  0  0  0  0  0  0  0  0  0  0
   -5.2986    4.2147    0.0000 O   0  0  0  0  0  0  0  0  0  0  0  0
   -3.8645    5.0444    0.0000 C   0  0  0  0  0  0  0  0  0  0  0  0
  2  4  1  0  0  0  0
  3  2  1  0  0  0  0
  4  9  1  0  0  0  0
  5  1  1  0  0  0  0
  6  1  1  0  0  0  0
  7  3  1  0  0  0  0
  8 13  1  0  0  0  0
  9 24  1  0  0  0  0
 10  1  1  0  0  0  0
 11  7  1  0  0  0  0
 12 10  1  0  0  0  0
 13  9  2  0  0  0  0
 14  3  2  0  0  0  0
 15 12  1  0  0  0  0
 16  7  2  0  0  0  0
 17  5  1  0  0  0  0
 18  6  1  0  0  0  0
 19  5  2  0  0  0  0
 20  6  2  0  0  0  0
 21 11  1  0  0  0  0
 22 16  1  0  0  0  0
 23 12  2  0  0  0  0
 24 15  1  0  0  0  0
 18 17  1  0  0  0  0
  2  8  2  0  0  0  0
 21 22  2  0  0  0  0
M  END
>  <IDNUMBER>
F6413-0068

>  <Chemical_Name>
2-(2,5-dioxopyrrolidin-1-yl)-N-{[5-(thiophene-2-carbonyl)thiophen-2-yl]methyl}acetamide

>  <PriceCoeff>
1.00

>  <CAS>
1421517-30-7

>  <MW>
362.42

>  <Description>
solid

>  <FSP3>
0.25

>  <clogP>
1.14

>  <TPSA>
140.03

>  <Acceptor>
4

>  <Donor>
1

>  <RotBonds>
6

>  <HAC>
24

>  <Collection>
General

>  <PPDS>
+

$$$$
F6413-0563
  Mrv2219 10102508112D          

 24 26  0  0  0  0            999 V2000
   -5.2752    2.5668    0.0000 N   0  0  0  0  0  0  0  0  0  0  0  0
   -2.2548    6.4401    0.0000 C   0  0  0  0  0  0  0  0  0  0  0  0
   -1.9178    7.1931    0.0000 C   0  0  0  0  0  0  0  0  0  0  0  0
   -3.0578    6.2653    0.0000 S   0  0  0  0  0  0  0  0  0  0  0  0
   -5.3625    1.7431    0.0000 C   0  0  0  0  0  0  0  0  0  0  0  0
   -6.0199    2.8955    0.0000 C   0  0  0  0  0  0  0  0  0  0  0  0
   -1.0941    7.2805    0.0000 C   0  0  0  0  0  0  0  0  0  0  0  0
   -1.8305    5.7204    0.0000 C   0  0  0  0  0  0  0  0  0  0  0  0
   -3.1410    5.4458    0.0000 C   0  0  0  0  0  0  0  0  0  0  0  0
   -4.5762    2.9829    0.0000 C   0  0  0  0  0  0  0  0  0  0  0  0
   -4.5762    3.7942    0.0000 C   0  0  0  0  0  0  0  0  0  0  0  0
   -2.3838    5.1088    0.0000 C   0  0  0  0  0  0  0  0  0  0  0  0
   -0.6864    8.0044    0.0000 O   0  0  0  0  0  0  0  0  0  0  0  0
   -2.4046    7.8629    0.0000 O   0  0  0  0  0  0  0  0  0  0  0  0
   -3.8566    4.2060    0.0000 N   0  0  0  0  0  0  0  0  0  0  0  0
   -0.5450    6.6689    0.0000 C   0  0  0  0  0  0  0  0  0  0  0  0
   -6.1572    1.5684    0.0000 C   0  0  0  0  0  0  0  0  0  0  0  0
   -6.5691    2.2798    0.0000 C   0  0  0  0  0  0  0  0  0  0  0  0
   -4.7427    1.1815    0.0000 O   0  0  0  0  0  0  0  0  0  0  0  0
   -6.1947    3.7026    0.0000 O   0  0  0  0  0  0  0  0  0  0  0  0
    0.1248    7.8296    0.0000 C   0  0  0  0  0  0  0  0  0  0  0  0
    0.2039    7.0059    0.0000 C   0  0  0  0  0  0  0  0  0  0  0  0
   -5.2877    4.2060    0.0000 O   0  0  0  0  0  0  0  0  0  0  0  0
   -3.8566    5.0339    0.0000 C   0  0  0  0  0  0  0  0  0  0  0  0
  2  4  1  0  0  0  0
  3  2  1  0  0  0  0
  4  9  1  0  0  0  0
  5  1  1  0  0  0  0
  6  1  1  0  0  0  0
  7  3  1  0  0  0  0
  8 12  1  0  0  0  0
  9 24  1  0  0  0  0
 10  1  1  0  0  0  0
 11 10  1  0  0  0  0
 12  9  2  0  0  0  0
 13  7  1  0  0  0  0
 14  3  2  0  0  0  0
 15 11  1  0  0  0  0
 16  7  2  0  0  0  0
 17  5  1  0  0  0  0
 18  6  1  0  0  0  0
 19  5  2  0  0  0  0
 20  6  2  0  0  0  0
 21 13  1  0  0  0  0
 22 16  1  0  0  0  0
 23 11  2  0  0  0  0
 24 15  1  0  0  0  0
 18 17  1  0  0  0  0
  2  8  2  0  0  0  0
 21 22  2  0  0  0  0
M  END
>  <IDNUMBER>
F6413-0563

>  <Chemical_Name>
2-(2,5-dioxopyrrolidin-1-yl)-N-{[5-(furan-2-carbonyl)thiophen-2-yl]methyl}acetamide

>  <PriceCoeff>
1.00

>  <CAS>
1797546-82-7

>  <MW>
346.36

>  <Description>
solid

>  <FSP3>
0.25

>  <clogP>
0.63

>  <TPSA>
124.93

>  <Acceptor>
5

>  <Donor>
1

>  <RotBonds>
6

>  <HAC>
24

>  <Collection>
General

$$$$
F6414-0594
  Mrv2219 10102508112D          

 24 26  0  0  0  0            999 V2000
   -2.4401    7.5116    0.0000 C   0  0  0  0  0  0  0  0  0  0  0  0
   -4.5726    3.7911    0.0000 C   0  0  0  0  0  0  0  0  0  0  0  0
   -2.4318    6.6885    0.0000 C   0  0  0  0  0  0  0  0  0  0  0  0
   -3.1509    6.2645    0.0000 C   0  0  0  0  0  0  0  0  0  0  0  0
   -3.1551    7.9232    0.0000 C   0  0  0  0  0  0  0  0  0  0  0  0
   -5.2876    2.5648    0.0000 C   0  0  0  0  0  0  0  0  0  0  0  0
   -4.5601    2.9639    0.0000 C   0  0  0  0  0  0  0  0  0  0  0  0
   -3.8535    4.2027    0.0000 N   0  0  0  0  0  0  0  0  0  0  0  0
   -1.7334    7.9232    0.0000 O   0  0  0  0  0  0  0  0  0  0  0  0
   -3.1676    8.7462    0.0000 O   0  0  0  0  0  0  0  0  0  0  0  0
   -5.9902    2.9763    0.0000 C   0  0  0  0  0  0  0  0  0  0  0  0
   -3.8660    6.6844    0.0000 C   0  0  0  0  0  0  0  0  0  0  0  0
   -5.2752    4.2069    0.0000 O   0  0  0  0  0  0  0  0  0  0  0  0
   -3.8742    7.5116    0.0000 C   0  0  0  0  0  0  0  0  0  0  0  0
   -3.8535    5.0175    0.0000 C   0  0  0  0  0  0  0  0  0  0  0  0
   -3.1426    5.4415    0.0000 C   0  0  0  0  0  0  0  0  0  0  0  0
   -5.9902    3.7994    0.0000 Cl  0  0  0  0  0  0  0  0  0  0  0  0
   -2.4276    5.0299    0.0000 O   0  0  0  0  0  0  0  0  0  0  0  0
   -5.3084    1.7459    0.0000 C   0  0  0  0  0  0  0  0  0  0  0  0
   -1.7334    8.7545    0.0000 C   0  0  0  0  0  0  0  0  0  0  0  0
   -2.4526    9.1578    0.0000 C   0  0  0  0  0  0  0  0  0  0  0  0
   -6.7135    2.5815    0.0000 C   0  0  0  0  0  0  0  0  0  0  0  0
   -6.0026    1.3302    0.0000 C   0  0  0  0  0  0  0  0  0  0  0  0
   -6.7260    1.7542    0.0000 C   0  0  0  0  0  0  0  0  0  0  0  0
  2  8  1  0  0  0  0
  3  1  1  0  0  0  0
  4  3  2  0  0  0  0
  5  1  2  0  0  0  0
  6  7  1  0  0  0  0
  7  2  1  0  0  0  0
  8 15  1  0  0  0  0
  9  1  1  0  0  0  0
 10  5  1  0  0  0  0
 11  6  2  0  0  0  0
 12 14  2  0  0  0  0
 13  2  2  0  0  0  0
 14  5  1  0  0  0  0
 15 16  1  0  0  0  0
 16  4  1  0  0  0  0
 17 11  1  0  0  0  0
 18 16  1  0  0  0  0
 19  6  1  0  0  0  0
 20  9  1  0  0  0  0
 21 20  1  0  0  0  0
 22 11  1  0  0  0  0
 23 19  2  0  0  0  0
 24 23  1  0  0  0  0
 10 21  1  0  0  0  0
  4 12  1  0  0  0  0
 24 22  2  0  0  0  0
M  END
>  <IDNUMBER>
F6414-0594

>  <Chemical_Name>
2-(2-chlorophenyl)-N-[2-(2,3-dihydro-1,4-benzodioxin-6-yl)-2-hydroxyethyl]acetamide

>  <PriceCoeff>
1.00

>  <CAS>
2034585-24-3

>  <MW>
347.79

>  <Description>
oil

>  <FSP3>
0.28

>  <clogP>
2.52

>  <TPSA>
67.79

>  <Acceptor>
4

>  <Donor>
2

>  <RotBonds>
5

>  <HAC>
24

>  <Collection>
General

>  <PPDS>
+

$$$$
F6414-1061
  Mrv2219 10102508112D          

 23 25  0  0  0  0            999 V2000
   -5.2833    2.5708    0.0000 N   0  0  0  0  0  0  0  0  0  0  0  0
   -5.3708    1.7458    0.0000 C   0  0  0  0  0  0  0  0  0  0  0  0
   -6.0292    2.9000    0.0000 C   0  0  0  0  0  0  0  0  0  0  0  0
   -4.5833    2.9875    0.0000 C   0  0  0  0  0  0  0  0  0  0  0  0
   -4.5833    3.8000    0.0000 C   0  0  0  0  0  0  0  0  0  0  0  0
   -2.4333    6.7042    0.0000 C   0  0  0  0  0  0  0  0  0  0  0  0
   -3.1458    5.4500    0.0000 C   0  0  0  0  0  0  0  0  0  0  0  0
   -2.4333    5.8750    0.0000 C   0  0  0  0  0  0  0  0  0  0  0  0
   -3.8625    4.2125    0.0000 N   0  0  0  0  0  0  0  0  0  0  0  0
   -6.1667    1.5708    0.0000 C   0  0  0  0  0  0  0  0  0  0  0  0
   -6.5792    2.2833    0.0000 C   0  0  0  0  0  0  0  0  0  0  0  0
   -4.7500    1.1833    0.0000 O   0  0  0  0  0  0  0  0  0  0  0  0
   -6.2042    3.7083    0.0000 O   0  0  0  0  0  0  0  0  0  0  0  0
   -3.1458    7.1125    0.0000 C   0  0  0  0  0  0  0  0  0  0  0  0
   -5.2958    4.2125    0.0000 O   0  0  0  0  0  0  0  0  0  0  0  0
   -3.8625    6.7042    0.0000 C   0  0  0  0  0  0  0  0  0  0  0  0
   -3.8625    5.0417    0.0000 C   0  0  0  0  0  0  0  0  0  0  0  0
   -3.8625    5.8750    0.0000 C   0  0  0  0  0  0  0  0  0  0  0  0
   -2.4333    5.0417    0.0000 O   0  0  0  0  0  0  0  0  0  0  0  0
   -1.7208    7.1125    0.0000 C   0  0  0  0  0  0  0  0  0  0  0  0
   -3.1458    7.9375    0.0000 C   0  0  0  0  0  0  0  0  0  0  0  0
   -1.7250    7.9417    0.0000 C   0  0  0  0  0  0  0  0  0  0  0  0
   -2.4458    8.3542    0.0000 C   0  0  0  0  0  0  0  0  0  0  0  0
  2  1  1  0  0  0  0
  3  1  1  0  0  0  0
  4  1  1  0  0  0  0
  5  4  1  0  0  0  0
  6  8  1  0  0  0  0
  7 17  1  0  0  0  0
  8  7  1  0  0  0  0
  9  5  1  0  0  0  0
 10  2  1  0  0  0  0
 11  3  1  0  0  0  0
 12  2  2  0  0  0  0
 13  3  2  0  0  0  0
 14 16  1  0  0  0  0
 15  5  2  0  0  0  0
 16 18  1  0  0  0  0
 17  9  1  0  0  0  0
 18  7  1  0  0  0  0
 19  7  1  0  0  0  0
 20  6  1  0  0  0  0
 21 14  1  0  0  0  0
 22 20  2  0  0  0  0
 23 21  2  0  0  0  0
 10 11  1  0  0  0  0
 14  6  2  0  0  0  0
 22 23  1  0  0  0  0
M  END
>  <IDNUMBER>
F6414-1061

>  <Chemical_Name>
2-(2,5-dioxopyrrolidin-1-yl)-N-[(2-hydroxy-1,2,3,4-tetrahydronaphthalen-2-yl)methyl]acetamide

>  <PriceCoeff>
1.00

>  <CAS>
1421494-95-2

>  <MW>
316.35

>  <Description>
solid

>  <FSP3>
0.47

>  <clogP>
0.96

>  <TPSA>
86.71

>  <Acceptor>
4

>  <Donor>
2

>  <RotBonds>
4

>  <HAC>
23

>  <Collection>
General

>  <PPDS>
+

$$$$
F6414-2055
  Mrv2219 10102508112D          

 22 23  0  0  0  0            999 V2000
   -5.2710    2.5648    0.0000 N   0  0  0  0  0  0  0  0  0  0  0  0
   -5.3583    1.7417    0.0000 C   0  0  0  0  0  0  0  0  0  0  0  0
   -6.0151    2.8932    0.0000 C   0  0  0  0  0  0  0  0  0  0  0  0
   -4.5726    2.9805    0.0000 C   0  0  0  0  0  0  0  0  0  0  0  0
   -4.5726    3.7911    0.0000 C   0  0  0  0  0  0  0  0  0  0  0  0
   -3.8535    4.2027    0.0000 N   0  0  0  0  0  0  0  0  0  0  0  0
   -6.1523    1.5671    0.0000 C   0  0  0  0  0  0  0  0  0  0  0  0
   -6.5638    2.2780    0.0000 C   0  0  0  0  0  0  0  0  0  0  0  0
   -4.7389    1.1805    0.0000 O   0  0  0  0  0  0  0  0  0  0  0  0
   -6.1897    3.6996    0.0000 O   0  0  0  0  0  0  0  0  0  0  0  0
   -3.1509    6.2645    0.0000 C   0  0  0  0  0  0  0  0  0  0  0  0
   -5.2834    4.2027    0.0000 O   0  0  0  0  0  0  0  0  0  0  0  0
   -3.8535    5.0175    0.0000 C   0  0  0  0  0  0  0  0  0  0  0  0
   -2.4318    6.6761    0.0000 C   0  0  0  0  0  0  0  0  0  0  0  0
   -3.8618    6.6761    0.0000 C   0  0  0  0  0  0  0  0  0  0  0  0
   -3.1509    5.4373    0.0000 C   0  0  0  0  0  0  0  0  0  0  0  0
   -3.1426    7.9190    0.0000 C   0  0  0  0  0  0  0  0  0  0  0  0
   -3.1426    8.7462    0.0000 S   0  0  0  0  0  0  0  0  0  0  0  0
   -2.4276    7.5074    0.0000 C   0  0  0  0  0  0  0  0  0  0  0  0
   -3.8618    7.5074    0.0000 C   0  0  0  0  0  0  0  0  0  0  0  0
   -2.4276    5.0299    0.0000 O   0  0  0  0  0  0  0  0  0  0  0  0
   -2.4276    9.1536    0.0000 C   0  0  0  0  0  0  0  0  0  0  0  0
  2  1  1  0  0  0  0
  3  1  1  0  0  0  0
  4  1  1  0  0  0  0
  5  4  1  0  0  0  0
  6  5  1  0  0  0  0
  7  2  1  0  0  0  0
  8  3  1  0  0  0  0
  9  2  2  0  0  0  0
 10  3  2  0  0  0  0
 11 16  1  0  0  0  0
 12  5  2  0  0  0  0
 13  6  1  0  0  0  0
 14 11  2  0  0  0  0
 15 11  1  0  0  0  0
 16 13  1  0  0  0  0
 17 20  1  0  0  0  0
 18 17  1  0  0  0  0
 19 14  1  0  0  0  0
 20 15  2  0  0  0  0
 21 16  1  0  0  0  0
 22 18  1  0  0  0  0
  8  7  1  0  0  0  0
 17 19  2  0  0  0  0
M  END
>  <IDNUMBER>
F6414-2055

>  <Chemical_Name>
2-(2,5-dioxopyrrolidin-1-yl)-N-{2-hydroxy-2-[4-(methylsulfanyl)phenyl]ethyl}acetamide

>  <PriceCoeff>
1.00

>  <CAS>
1448031-30-8

>  <MW>
322.38

>  <Description>
solid

>  <FSP3>
0.40

>  <clogP>
0.56

>  <TPSA>
112.01

>  <Acceptor>
4

>  <Donor>
2

>  <RotBonds>
6

>  <HAC>
22

>  <Collection>
General

>  <PPDS>
+

$$$$
F6414-3116
  Mrv2219 10102508112D          

 25 26  0  0  0  0            999 V2000
   -4.5833    3.8000    0.0000 C   0  0  0  0  0  0  0  0  0  0  0  0
   -3.8625    4.2125    0.0000 N   0  0  0  0  0  0  0  0  0  0  0  0
   -2.4375    6.6917    0.0000 C   0  0  0  0  0  0  0  0  0  0  0  0
   -3.1583    6.2667    0.0000 C   0  0  0  0  0  0  0  0  0  0  0  0
   -2.4375    7.5167    0.0000 C   0  0  0  0  0  0  0  0  0  0  0  0
   -4.5833    2.9792    0.0000 C   0  0  0  0  0  0  0  0  0  0  0  0
   -5.3000    2.5583    0.0000 O   0  0  0  0  0  0  0  0  0  0  0  0
   -3.1500    7.9292    0.0000 C   0  0  0  0  0  0  0  0  0  0  0  0
   -5.2958    4.2042    0.0000 O   0  0  0  0  0  0  0  0  0  0  0  0
   -3.8625    5.0292    0.0000 C   0  0  0  0  0  0  0  0  0  0  0  0
   -3.8750    6.6875    0.0000 C   0  0  0  0  0  0  0  0  0  0  0  0
   -3.8708    7.5167    0.0000 C   0  0  0  0  0  0  0  0  0  0  0  0
   -3.1500    5.4500    0.0000 C   0  0  0  0  0  0  0  0  0  0  0  0
   -5.3083    1.7333    0.0000 C   0  0  0  0  0  0  0  0  0  0  0  0
   -1.7208    7.9250    0.0000 O   0  0  0  0  0  0  0  0  0  0  0  0
   -3.1583    8.7583    0.0000 O   0  0  0  0  0  0  0  0  0  0  0  0
   -2.4333    5.0417    0.0000 O   0  0  0  0  0  0  0  0  0  0  0  0
   -3.8750    2.5583    0.0000 C   0  0  0  0  0  0  0  0  0  0  0  0
   -4.5958    1.3208    0.0000 C   0  0  0  0  0  0  0  0  0  0  0  0
   -6.0125    1.3250    0.0000 C   0  0  0  0  0  0  0  0  0  0  0  0
   -1.7125    8.7542    0.0000 C   0  0  0  0  0  0  0  0  0  0  0  0
   -2.4250    9.1667    0.0000 C   0  0  0  0  0  0  0  0  0  0  0  0
   -6.0167    0.5083    0.0000 C   0  0  0  0  0  0  0  0  0  0  0  0
   -4.5958    0.4958    0.0000 C   0  0  0  0  0  0  0  0  0  0  0  0
   -5.2958    0.0875    0.0000 C   0  0  0  0  0  0  0  0  0  0  0  0
  2  1  1  0  0  0  0
  3  4  2  0  0  0  0
  4 13  1  0  0  0  0
  5  3  1  0  0  0  0
  6  1  1  0  0  0  0
  7  6  1  0  0  0  0
  8 12  1  0  0  0  0
  9  1  2  0  0  0  0
 10  2  1  0  0  0  0
 11  4  1  0  0  0  0
 12 11  2  0  0  0  0
 13 10  1  0  0  0  0
 14  7  1  0  0  0  0
 15  5  1  0  0  0  0
 16  8  1  0  0  0  0
 17 13  1  0  0  0  0
 18  6  1  0  0  0  0
 19 14  2  0  0  0  0
 20 14  1  0  0  0  0
 21 15  1  0  0  0  0
 22 16  1  0  0  0  0
 23 20  2  0  0  0  0
 24 19  1  0  0  0  0
 25 23  1  0  0  0  0
 24 25  2  0  0  0  0
  8  5  2  0  0  0  0
M  END
>  <IDNUMBER>
F6414-3116

>  <Chemical_Name>
N-[2-(3,4-dimethoxyphenyl)-2-hydroxyethyl]-2-phenoxypropanamide

>  <PriceCoeff>
1.00

>  <CAS>
1797300-08-3

>  <MW>
345.39

>  <Description>
solid

>  <FSP3>
0.32

>  <clogP>
2.03

>  <TPSA>
77.02

>  <Acceptor>
5

>  <Donor>
2

>  <RotBonds>
8

>  <HAC>
25

>  <Collection>
General

>  <PPDS>
+

$$$$
F6414-3147
  Mrv2219 10102508112D          

 26 27  0  0  0  0            999 V2000
   -2.4375    6.6917    0.0000 C   0  0  0  0  0  0  0  0  0  0  0  0
   -3.1583    6.2667    0.0000 C   0  0  0  0  0  0  0  0  0  0  0  0
   -2.4375    7.5167    0.0000 C   0  0  0  0  0  0  0  0  0  0  0  0
   -4.5833    3.8000    0.0000 C   0  0  0  0  0  0  0  0  0  0  0  0
   -3.8625    4.2125    0.0000 N   0  0  0  0  0  0  0  0  0  0  0  0
   -3.1500    7.9292    0.0000 C   0  0  0  0  0  0  0  0  0  0  0  0
   -3.8750    6.6875    0.0000 C   0  0  0  0  0  0  0  0  0  0  0  0
   -5.2958    4.2042    0.0000 O   0  0  0  0  0  0  0  0  0  0  0  0
   -3.8625    5.0292    0.0000 C   0  0  0  0  0  0  0  0  0  0  0  0
   -3.8708    7.5167    0.0000 C   0  0  0  0  0  0  0  0  0  0  0  0
   -3.1500    5.4500    0.0000 C   0  0  0  0  0  0  0  0  0  0  0  0
   -4.5833    2.9833    0.0000 C   0  0  0  0  0  0  0  0  0  0  0  0
   -5.2958    2.5708    0.0000 C   0  0  0  0  0  0  0  0  0  0  0  0
   -6.7125    1.7458    0.0000 C   0  0  0  0  0  0  0  0  0  0  0  0
   -1.7208    7.9250    0.0000 O   0  0  0  0  0  0  0  0  0  0  0  0
   -3.1583    8.7583    0.0000 O   0  0  0  0  0  0  0  0  0  0  0  0
   -6.0042    2.9833    0.0000 C   0  0  0  0  0  0  0  0  0  0  0  0
   -5.2833    1.7458    0.0000 C   0  0  0  0  0  0  0  0  0  0  0  0
   -6.7167    2.5708    0.0000 C   0  0  0  0  0  0  0  0  0  0  0  0
   -6.0000    1.3333    0.0000 C   0  0  0  0  0  0  0  0  0  0  0  0
   -2.4333    5.0417    0.0000 O   0  0  0  0  0  0  0  0  0  0  0  0
   -7.4292    1.3208    0.0000 O   0  0  0  0  0  0  0  0  0  0  0  0
   -7.4292    0.4958    0.0000 C   0  0  0  0  0  0  0  0  0  0  0  0
   -1.7125    8.7542    0.0000 C   0  0  0  0  0  0  0  0  0  0  0  0
   -2.4250    9.1667    0.0000 C   0  0  0  0  0  0  0  0  0  0  0  0
   -8.1333    0.0750    0.0000 C   0  0  0  0  0  0  0  0  0  0  0  0
  2  1  2  0  0  0  0
  3  1  1  0  0  0  0
  4  5  1  0  0  0  0
  5  9  1  0  0  0  0
  6  3  2  0  0  0  0
  7  2  1  0  0  0  0
  8  4  2  0  0  0  0
  9 11  1  0  0  0  0
 10  6  1  0  0  0  0
 11  2  1  0  0  0  0
 12  4  1  0  0  0  0
 13 12  1  0  0  0  0
 14 20  2  0  0  0  0
 15  3  1  0  0  0  0
 16  6  1  0  0  0  0
 17 13  1  0  0  0  0
 18 13  2  0  0  0  0
 19 17  2  0  0  0  0
 20 18  1  0  0  0  0
 21 11  1  0  0  0  0
 22 14  1  0  0  0  0
 23 22  1  0  0  0  0
 24 15  1  0  0  0  0
 25 16  1  0  0  0  0
 26 23  1  0  0  0  0
  7 10  2  0  0  0  0
 19 14  1  0  0  0  0
M  END
>  <IDNUMBER>
F6414-3147

>  <Chemical_Name>
N-[2-(3,4-dimethoxyphenyl)-2-hydroxyethyl]-2-(4-ethoxyphenyl)acetamide

>  <PriceCoeff>
1.00

>  <CAS>
1796970-76-7

>  <MW>
359.42

>  <Description>
solid

>  <FSP3>
0.35

>  <clogP>
1.99

>  <TPSA>
77.02

>  <Acceptor>
5

>  <Donor>
2

>  <RotBonds>
9

>  <HAC>
26

>  <Collection>
General

$$$$
F6414-3168
  Mrv2219 10102508112D          

 25 26  0  0  0  0            999 V2000
   -2.4302    6.6716    0.0000 C   0  0  0  0  0  0  0  0  0  0  0  0
   -3.1488    6.2479    0.0000 C   0  0  0  0  0  0  0  0  0  0  0  0
   -2.4302    7.4941    0.0000 C   0  0  0  0  0  0  0  0  0  0  0  0
   -4.5695    3.7886    0.0000 C   0  0  0  0  0  0  0  0  0  0  0  0
   -3.8509    4.1999    0.0000 N   0  0  0  0  0  0  0  0  0  0  0  0
   -3.1405    7.9054    0.0000 C   0  0  0  0  0  0  0  0  0  0  0  0
   -3.8634    6.6674    0.0000 C   0  0  0  0  0  0  0  0  0  0  0  0
   -5.2674    4.1916    0.0000 O   0  0  0  0  0  0  0  0  0  0  0  0
   -3.8509    5.0141    0.0000 C   0  0  0  0  0  0  0  0  0  0  0  0
   -3.8592    7.4941    0.0000 C   0  0  0  0  0  0  0  0  0  0  0  0
   -3.1405    5.4336    0.0000 C   0  0  0  0  0  0  0  0  0  0  0  0
   -5.2674    2.5423    0.0000 O   0  0  0  0  0  0  0  0  0  0  0  0
   -4.5695    2.9536    0.0000 C   0  0  0  0  0  0  0  0  0  0  0  0
   -5.2550    1.7281    0.0000 C   0  0  0  0  0  0  0  0  0  0  0  0
   -5.2550    0.0748    0.0000 C   0  0  0  0  0  0  0  0  0  0  0  0
   -1.7156    7.9012    0.0000 O   0  0  0  0  0  0  0  0  0  0  0  0
   -5.2509   -0.7602    0.0000 Cl  0  0  0  0  0  0  0  0  0  0  0  0
   -5.9695    1.3044    0.0000 C   0  0  0  0  0  0  0  0  0  0  0  0
   -4.5488    1.3168    0.0000 C   0  0  0  0  0  0  0  0  0  0  0  0
   -3.1488    8.7320    0.0000 O   0  0  0  0  0  0  0  0  0  0  0  0
   -4.5446    0.4860    0.0000 C   0  0  0  0  0  0  0  0  0  0  0  0
   -5.9571    0.4818    0.0000 C   0  0  0  0  0  0  0  0  0  0  0  0
   -2.4260    5.0266    0.0000 O   0  0  0  0  0  0  0  0  0  0  0  0
   -1.7074    8.7279    0.0000 C   0  0  0  0  0  0  0  0  0  0  0  0
   -2.4177    9.1392    0.0000 C   0  0  0  0  0  0  0  0  0  0  0  0
  2  1  2  0  0  0  0
  3  1  1  0  0  0  0
  4  5  1  0  0  0  0
  5  9  1  0  0  0  0
  6  3  2  0  0  0  0
  7  2  1  0  0  0  0
  8  4  2  0  0  0  0
  9 11  1  0  0  0  0
 10  6  1  0  0  0  0
 11  2  1  0  0  0  0
 12 13  1  0  0  0  0
 13  4  1  0  0  0  0
 14 12  1  0  0  0  0
 15 21  1  0  0  0  0
 16  3  1  0  0  0  0
 17 15  1  0  0  0  0
 18 14  2  0  0  0  0
 19 14  1  0  0  0  0
 20  6  1  0  0  0  0
 21 19  2  0  0  0  0
 22 18  1  0  0  0  0
 23 11  1  0  0  0  0
 24 16  1  0  0  0  0
 25 20  1  0  0  0  0
  7 10  2  0  0  0  0
 22 15  2  0  0  0  0
M  END
>  <IDNUMBER>
F6414-3168

>  <Chemical_Name>
2-(4-chlorophenoxy)-N-[2-(3,4-dimethoxyphenyl)-2-hydroxyethyl]acetamide

>  <PriceCoeff>
1.00

>  <CAS>
1797142-23-4

>  <MW>
365.81

>  <Description>
solid

>  <FSP3>
0.28

>  <clogP>
2.58

>  <TPSA>
77.02

>  <Acceptor>
5

>  <Donor>
2

>  <RotBonds>
8

>  <HAC>
25

>  <Collection>
General

$$$$
F6415-0068
  Mrv2219 10102508112D          

 21 22  0  0  0  0            999 V2000
   -5.2948    2.5764    0.0000 N   0  0  0  0  0  0  0  0  0  0  0  0
   -4.5892    2.9940    0.0000 C   0  0  0  0  0  0  0  0  0  0  0  0
   -6.0424    2.9063    0.0000 C   0  0  0  0  0  0  0  0  0  0  0  0
   -5.3825    1.7496    0.0000 C   0  0  0  0  0  0  0  0  0  0  0  0
   -4.5933    3.8083    0.0000 C   0  0  0  0  0  0  0  0  0  0  0  0
   -3.8709    4.2217    0.0000 N   0  0  0  0  0  0  0  0  0  0  0  0
   -2.4386    4.2259    0.0000 C   0  0  0  0  0  0  0  0  0  0  0  0
   -3.1527    3.8166    0.0000 C   0  0  0  0  0  0  0  0  0  0  0  0
   -1.1274    4.5098    0.0000 O   0  0  0  0  0  0  0  0  0  0  0  0
   -1.6787    3.9002    0.0000 C   0  0  0  0  0  0  0  0  0  0  0  0
   -5.3074    4.2217    0.0000 O   0  0  0  0  0  0  0  0  0  0  0  0
   -6.5936    2.2883    0.0000 C   0  0  0  0  0  0  0  0  0  0  0  0
   -6.1802    1.5743    0.0000 C   0  0  0  0  0  0  0  0  0  0  0  0
   -2.3552    5.0443    0.0000 C   0  0  0  0  0  0  0  0  0  0  0  0
   -6.2178    3.7164    0.0000 O   0  0  0  0  0  0  0  0  0  0  0  0
   -4.7603    1.1859    0.0000 O   0  0  0  0  0  0  0  0  0  0  0  0
   -1.5492    5.2239    0.0000 C   0  0  0  0  0  0  0  0  0  0  0  0
   -3.8667    5.0443    0.0000 C   0  0  0  0  0  0  0  0  0  0  0  0
   -4.5933    6.2804    0.0000 O   0  0  0  0  0  0  0  0  0  0  0  0
   -4.5933    5.4536    0.0000 C   0  0  0  0  0  0  0  0  0  0  0  0
   -5.3199    6.6938    0.0000 C   0  0  0  0  0  0  0  0  0  0  0  0
  2  1  1  0  0  0  0
  3  1  1  0  0  0  0
  4  1  1  0  0  0  0
  5  2  1  0  0  0  0
  6  5  1  0  0  0  0
  7  8  1  0  0  0  0
  8  6  1  0  0  0  0
  9 10  1  0  0  0  0
 10  7  2  0  0  0  0
 11  5  2  0  0  0  0
 12  3  1  0  0  0  0
 13  4  1  0  0  0  0
 14  7  1  0  0  0  0
 15  3  2  0  0  0  0
 16  4  2  0  0  0  0
 17 14  2  0  0  0  0
 18  6  1  0  0  0  0
 19 20  1  0  0  0  0
 20 18  1  0  0  0  0
 21 19  1  0  0  0  0
 13 12  1  0  0  0  0
  9 17  1  0  0  0  0
M  END
>  <IDNUMBER>
F6415-0068

>  <Chemical_Name>
2-(2,5-dioxopyrrolidin-1-yl)-N-[(furan-3-yl)methyl]-N-(2-methoxyethyl)acetamide

>  <PriceCoeff>
1.00

>  <CAS>
1421529-62-5

>  <MW>
294.30

>  <Description>
oil

>  <FSP3>
0.50

>  <clogP>
0.57

>  <TPSA>
80.06

>  <Acceptor>
5

>  <Donor>
0

>  <RotBonds>
8

>  <HAC>
21

>  <Collection>
General

>  <PPDS>
+

$$$$
F6415-0386
  Mrv2219 10102508112D          

 22 23  0  0  0  0            999 V2000
   -4.5893    3.8050    0.0000 C   0  0  0  0  0  0  0  0  0  0  0  0
   -3.8675    4.2180    0.0000 N   0  0  0  0  0  0  0  0  0  0  0  0
   -4.5893    2.9831    0.0000 N   0  0  0  0  0  0  0  0  0  0  0  0
   -2.4365    4.2222    0.0000 C   0  0  0  0  0  0  0  0  0  0  0  0
   -6.0120    1.3392    0.0000 C   0  0  0  0  0  0  0  0  0  0  0  0
   -5.3152    1.7481    0.0000 C   0  0  0  0  0  0  0  0  0  0  0  0
   -3.1499    3.8133    0.0000 C   0  0  0  0  0  0  0  0  0  0  0  0
   -5.3069    2.5826    0.0000 C   0  0  0  0  0  0  0  0  0  0  0  0
   -5.3069    4.2180    0.0000 O   0  0  0  0  0  0  0  0  0  0  0  0
   -1.1265    4.5059    0.0000 O   0  0  0  0  0  0  0  0  0  0  0  0
   -1.6772    3.8968    0.0000 C   0  0  0  0  0  0  0  0  0  0  0  0
   -6.7255    1.7481    0.0000 C   0  0  0  0  0  0  0  0  0  0  0  0
   -2.3531    5.0399    0.0000 C   0  0  0  0  0  0  0  0  0  0  0  0
   -1.5478    5.2193    0.0000 C   0  0  0  0  0  0  0  0  0  0  0  0
   -6.7296    2.5742    0.0000 C   0  0  0  0  0  0  0  0  0  0  0  0
   -6.0120    0.5090    0.0000 Cl  0  0  0  0  0  0  0  0  0  0  0  0
   -6.0120    2.9872    0.0000 C   0  0  0  0  0  0  0  0  0  0  0  0
   -7.4514    1.3267    0.0000 Cl  0  0  0  0  0  0  0  0  0  0  0  0
   -3.8633    5.0399    0.0000 C   0  0  0  0  0  0  0  0  0  0  0  0
   -4.5893    6.2749    0.0000 O   0  0  0  0  0  0  0  0  0  0  0  0
   -4.5893    5.4488    0.0000 C   0  0  0  0  0  0  0  0  0  0  0  0
   -5.3152    6.6879    0.0000 C   0  0  0  0  0  0  0  0  0  0  0  0
  2  1  1  0  0  0  0
  3  1  1  0  0  0  0
  4  7  1  0  0  0  0
  5  6  1  0  0  0  0
  6  8  2  0  0  0  0
  7  2  1  0  0  0  0
  8  3  1  0  0  0  0
  9  1  2  0  0  0  0
 10 11  1  0  0  0  0
 11  4  2  0  0  0  0
 12 15  1  0  0  0  0
 13  4  1  0  0  0  0
 14 13  2  0  0  0  0
 15 17  2  0  0  0  0
 16  5  1  0  0  0  0
 17  8  1  0  0  0  0
 18 12  1  0  0  0  0
 19  2  1  0  0  0  0
 20 21  1  0  0  0  0
 21 19  1  0  0  0  0
 22 20  1  0  0  0  0
  5 12  2  0  0  0  0
 10 14  1  0  0  0  0
M  END
>  <IDNUMBER>
F6415-0386

>  <Chemical_Name>
1-(3,4-dichlorophenyl)-3-[(furan-3-yl)methyl]-3-(2-methoxyethyl)urea

>  <PriceCoeff>
1.00

>  <CAS>
1421483-17-1

>  <MW>
343.21

>  <Description>
oil

>  <FSP3>
0.27

>  <clogP>
3.67

>  <TPSA>
54.71

>  <Acceptor>
3

>  <Donor>
1

>  <RotBonds>
7

>  <HAC>
22

>  <Collection>
General

$$$$
F6415-1241
  Mrv2219 10102508112D          

 24 26  0  0  0  0            999 V2000
   -5.2750    2.5668    0.0000 N   0  0  0  0  0  0  0  0  0  0  0  0
   -4.5762    2.9829    0.0000 C   0  0  0  0  0  0  0  0  0  0  0  0
   -6.0198    2.8955    0.0000 C   0  0  0  0  0  0  0  0  0  0  0  0
   -5.3624    1.7431    0.0000 C   0  0  0  0  0  0  0  0  0  0  0  0
   -4.5762    3.7940    0.0000 C   0  0  0  0  0  0  0  0  0  0  0  0
   -3.8564    4.2059    0.0000 N   0  0  0  0  0  0  0  0  0  0  0  0
   -2.4295    4.1976    0.0000 C   0  0  0  0  0  0  0  0  0  0  0  0
   -4.5762    6.2652    0.0000 C   0  0  0  0  0  0  0  0  0  0  0  0
   -5.2376    6.7436    0.0000 S   0  0  0  0  0  0  0  0  0  0  0  0
   -3.1409    3.7940    0.0000 C   0  0  0  0  0  0  0  0  0  0  0  0
   -1.1232    4.4847    0.0000 O   0  0  0  0  0  0  0  0  0  0  0  0
   -1.6724    3.8689    0.0000 C   0  0  0  0  0  0  0  0  0  0  0  0
   -5.2875    4.2059    0.0000 O   0  0  0  0  0  0  0  0  0  0  0  0
   -6.5689    2.2797    0.0000 C   0  0  0  0  0  0  0  0  0  0  0  0
   -6.1570    1.5684    0.0000 C   0  0  0  0  0  0  0  0  0  0  0  0
   -2.3421    5.0171    0.0000 C   0  0  0  0  0  0  0  0  0  0  0  0
   -6.1945    3.7025    0.0000 O   0  0  0  0  0  0  0  0  0  0  0  0
   -4.7426    1.1814    0.0000 O   0  0  0  0  0  0  0  0  0  0  0  0
   -3.8564    5.0213    0.0000 C   0  0  0  0  0  0  0  0  0  0  0  0
   -4.9880    7.5299    0.0000 C   0  0  0  0  0  0  0  0  0  0  0  0
   -4.5762    5.4332    0.0000 C   0  0  0  0  0  0  0  0  0  0  0  0
   -3.9064    6.7436    0.0000 C   0  0  0  0  0  0  0  0  0  0  0  0
   -1.5351    5.1961    0.0000 C   0  0  0  0  0  0  0  0  0  0  0  0
   -4.1560    7.5299    0.0000 C   0  0  0  0  0  0  0  0  0  0  0  0
  2  1  1  0  0  0  0
  3  1  1  0  0  0  0
  4  1  1  0  0  0  0
  5  2  1  0  0  0  0
  6  5  1  0  0  0  0
  7 10  1  0  0  0  0
  8 21  1  0  0  0  0
  9  8  1  0  0  0  0
 10  6  1  0  0  0  0
 11 12  1  0  0  0  0
 12  7  2  0  0  0  0
 13  5  2  0  0  0  0
 14  3  1  0  0  0  0
 15  4  1  0  0  0  0
 16  7  1  0  0  0  0
 17  3  2  0  0  0  0
 18  4  2  0  0  0  0
 19  6  1  0  0  0  0
 20  9  1  0  0  0  0
 21 19  1  0  0  0  0
 22  8  2  0  0  0  0
 23 16  2  0  0  0  0
 24 22  1  0  0  0  0
 14 15  1  0  0  0  0
 23 11  1  0  0  0  0
 20 24  2  0  0  0  0
M  END
>  <IDNUMBER>
F6415-1241

>  <Chemical_Name>
2-(2,5-dioxopyrrolidin-1-yl)-N-[(furan-3-yl)methyl]-N-[2-(thiophen-2-yl)ethyl]acetamide

>  <PriceCoeff>
1.00

>  <CAS>
1428380-55-5

>  <MW>
346.40

>  <Description>
oil

>  <FSP3>
0.35

>  <clogP>
1.81

>  <TPSA>
99.07

>  <Acceptor>
4

>  <Donor>
0

>  <RotBonds>
8

>  <HAC>
24

>  <Collection>
General

>  <PPDS>
+

$$$$
F6416-5530
  Mrv2219 10102508112D          

 24 26  0  0  0  0            999 V2000
   -5.2942    2.5761    0.0000 N   0  0  0  0  0  0  0  0  0  0  0  0
   -2.4383    6.7056    0.0000 C   0  0  0  0  0  0  0  0  0  0  0  0
   -1.6868    6.3674    0.0000 O   0  0  0  0  0  0  0  0  0  0  0  0
   -5.3819    1.7494    0.0000 C   0  0  0  0  0  0  0  0  0  0  0  0
   -6.0417    2.9060    0.0000 C   0  0  0  0  0  0  0  0  0  0  0  0
   -2.3507    7.5323    0.0000 C   0  0  0  0  0  0  0  0  0  0  0  0
   -1.1231    6.9769    0.0000 C   0  0  0  0  0  0  0  0  0  0  0  0
   -1.5282    7.6951    0.0000 C   0  0  0  0  0  0  0  0  0  0  0  0
   -4.5887    2.9937    0.0000 C   0  0  0  0  0  0  0  0  0  0  0  0
   -4.5928    3.8079    0.0000 C   0  0  0  0  0  0  0  0  0  0  0  0
   -6.1795    1.5741    0.0000 C   0  0  0  0  0  0  0  0  0  0  0  0
   -6.5928    2.2880    0.0000 C   0  0  0  0  0  0  0  0  0  0  0  0
   -4.7598    1.1858    0.0000 O   0  0  0  0  0  0  0  0  0  0  0  0
   -6.2171    3.7160    0.0000 O   0  0  0  0  0  0  0  0  0  0  0  0
   -3.1523    6.2922    0.0000 C   0  0  0  0  0  0  0  0  0  0  0  0
   -5.3068    4.2212    0.0000 O   0  0  0  0  0  0  0  0  0  0  0  0
   -3.8705    4.2212    0.0000 N   0  0  0  0  0  0  0  0  0  0  0  0
   -3.1648    5.4530    0.0000 C   0  0  0  0  0  0  0  0  0  0  0  0
   -3.8705    5.0396    0.0000 C   0  0  0  0  0  0  0  0  0  0  0  0
   -3.8788    6.6930    0.0000 O   0  0  0  0  0  0  0  0  0  0  0  0
   -0.2964    6.9686    0.0000 C   0  0  0  0  0  0  0  0  0  0  0  0
   -1.0981    8.4091    0.0000 C   0  0  0  0  0  0  0  0  0  0  0  0
    0.1295    7.6742    0.0000 C   0  0  0  0  0  0  0  0  0  0  0  0
   -0.2839    8.4007    0.0000 C   0  0  0  0  0  0  0  0  0  0  0  0
  2 15  1  0  0  0  0
  3  2  1  0  0  0  0
  4  1  1  0  0  0  0
  5  1  1  0  0  0  0
  6  2  2  0  0  0  0
  7  3  1  0  0  0  0
  8  6  1  0  0  0  0
  9  1  1  0  0  0  0
 10  9  1  0  0  0  0
 11  4  1  0  0  0  0
 12  5  1  0  0  0  0
 13  4  2  0  0  0  0
 14  5  2  0  0  0  0
 15 18  1  0  0  0  0
 16 10  2  0  0  0  0
 17 10  1  0  0  0  0
 18 19  1  0  0  0  0
 19 17  1  0  0  0  0
 20 15  1  0  0  0  0
 21  7  2  0  0  0  0
 22  8  2  0  0  0  0
 23 21  1  0  0  0  0
 24 22  1  0  0  0  0
 12 11  1  0  0  0  0
  8  7  1  0  0  0  0
 24 23  2  0  0  0  0
M  END
>  <IDNUMBER>
F6416-5530

>  <Chemical_Name>
N-[3-(1-benzofuran-2-yl)-3-hydroxypropyl]-2-(2,5-dioxopyrrolidin-1-yl)acetamide

>  <PriceCoeff>
1.00

>  <CAS>
1448030-80-5

>  <MW>
330.34

>  <Description>
solid

>  <FSP3>
0.35

>  <clogP>
0.85

>  <TPSA>
99.85

>  <Acceptor>
5

>  <Donor>
2

>  <RotBonds>
6

>  <HAC>
24

>  <Collection>
General

>  <PPDS>
+

$$$$
F6416-8505
  Mrv2219 10102508112D          

 22 23  0  0  0  0            999 V2000
   -5.2948    2.5764    0.0000 N   0  0  0  0  0  0  0  0  0  0  0  0
   -2.4637    6.7189    0.0000 C   0  0  0  0  0  0  0  0  0  0  0  0
   -2.3802    7.5457    0.0000 C   0  0  0  0  0  0  0  0  0  0  0  0
   -5.3825    1.7496    0.0000 C   0  0  0  0  0  0  0  0  0  0  0  0
   -6.0424    2.9063    0.0000 C   0  0  0  0  0  0  0  0  0  0  0  0
   -1.5743    7.7211    0.0000 O   0  0  0  0  0  0  0  0  0  0  0  0
   -1.6995    6.3931    0.0000 C   0  0  0  0  0  0  0  0  0  0  0  0
   -1.1483    7.0070    0.0000 C   0  0  0  0  0  0  0  0  0  0  0  0
   -4.5892    2.9940    0.0000 C   0  0  0  0  0  0  0  0  0  0  0  0
   -4.5933    3.8083    0.0000 C   0  0  0  0  0  0  0  0  0  0  0  0
   -3.1695    6.2929    0.0000 C   0  0  0  0  0  0  0  0  0  0  0  0
   -6.1802    1.5743    0.0000 C   0  0  0  0  0  0  0  0  0  0  0  0
   -6.5936    2.2883    0.0000 C   0  0  0  0  0  0  0  0  0  0  0  0
   -4.7603    1.1859    0.0000 O   0  0  0  0  0  0  0  0  0  0  0  0
   -6.2178    3.7164    0.0000 O   0  0  0  0  0  0  0  0  0  0  0  0
   -5.3074    4.2217    0.0000 O   0  0  0  0  0  0  0  0  0  0  0  0
   -3.8709    4.2217    0.0000 N   0  0  0  0  0  0  0  0  0  0  0  0
   -3.1652    5.4744    0.0000 C   0  0  0  0  0  0  0  0  0  0  0  0
   -3.8709    5.0527    0.0000 C   0  0  0  0  0  0  0  0  0  0  0  0
   -3.0023    8.0884    0.0000 C   0  0  0  0  0  0  0  0  0  0  0  0
   -3.9002    6.7064    0.0000 O   0  0  0  0  0  0  0  0  0  0  0  0
   -0.3257    6.9318    0.0000 C   0  0  0  0  0  0  0  0  0  0  0  0
  2 11  1  0  0  0  0
  3  2  2  0  0  0  0
  4  1  1  0  0  0  0
  5  1  1  0  0  0  0
  6  3  1  0  0  0  0
  7  2  1  0  0  0  0
  8  7  2  0  0  0  0
  9  1  1  0  0  0  0
 10  9  1  0  0  0  0
 11 18  1  0  0  0  0
 12  4  1  0  0  0  0
 13  5  1  0  0  0  0
 14  4  2  0  0  0  0
 15  5  2  0  0  0  0
 16 10  2  0  0  0  0
 17 10  1  0  0  0  0
 18 19  1  0  0  0  0
 19 17  1  0  0  0  0
 20  3  1  0  0  0  0
 21 11  1  0  0  0  0
 22  8  1  0  0  0  0
 13 12  1  0  0  0  0
  8  6  1  0  0  0  0
M  END
>  <IDNUMBER>
F6416-8505

>  <Chemical_Name>
N-[3-(2,5-dimethylfuran-3-yl)-3-hydroxypropyl]-2-(2,5-dioxopyrrolidin-1-yl)acetamide

>  <PriceCoeff>
1.00

>  <MW>
308.33

>  <Description>
oil

>  <FSP3>
0.53

>  <clogP>
0.41

>  <TPSA>
99.85

>  <Acceptor>
5

>  <Donor>
2

>  <RotBonds>
6

>  <HAC>
22

>  <Collection>
General

$$$$
F6419-0068
  Mrv2219 10102508112D          

 24 26  0  0  0  0            999 V2000
   -5.2833    2.5708    0.0000 N   0  0  0  0  0  0  0  0  0  0  0  0
   -3.8625    4.2125    0.0000 N   0  0  0  0  0  0  0  0  0  0  0  0
   -4.5833    3.8000    0.0000 C   0  0  0  0  0  0  0  0  0  0  0  0
   -4.5792    2.9875    0.0000 C   0  0  0  0  0  0  0  0  0  0  0  0
   -5.3708    1.7458    0.0000 C   0  0  0  0  0  0  0  0  0  0  0  0
   -6.0292    2.9000    0.0000 C   0  0  0  0  0  0  0  0  0  0  0  0
   -3.1500    6.2750    0.0000 C   0  0  0  0  0  0  0  0  0  0  0  0
   -3.8625    5.0417    0.0000 C   0  0  0  0  0  0  0  0  0  0  0  0
   -3.1500    5.4500    0.0000 C   0  0  0  0  0  0  0  0  0  0  0  0
   -2.4458    6.6917    0.0000 C   0  0  0  0  0  0  0  0  0  0  0  0
   -3.8750    6.6917    0.0000 C   0  0  0  0  0  0  0  0  0  0  0  0
   -2.4333    5.0333    0.0000 O   0  0  0  0  0  0  0  0  0  0  0  0
   -5.2958    4.2125    0.0000 O   0  0  0  0  0  0  0  0  0  0  0  0
   -2.4375    7.5167    0.0000 C   0  0  0  0  0  0  0  0  0  0  0  0
   -3.8750    7.5167    0.0000 C   0  0  0  0  0  0  0  0  0  0  0  0
   -6.5792    2.2833    0.0000 C   0  0  0  0  0  0  0  0  0  0  0  0
   -6.1667    1.5708    0.0000 C   0  0  0  0  0  0  0  0  0  0  0  0
   -6.2042    3.7083    0.0000 O   0  0  0  0  0  0  0  0  0  0  0  0
   -4.7500    1.1833    0.0000 O   0  0  0  0  0  0  0  0  0  0  0  0
   -3.1625    7.9292    0.0000 C   0  0  0  0  0  0  0  0  0  0  0  0
   -3.1458    3.8000    0.0000 C   0  0  0  0  0  0  0  0  0  0  0  0
   -1.7250    7.9375    0.0000 Cl  0  0  0  0  0  0  0  0  0  0  0  0
   -4.5958    7.9375    0.0000 Cl  0  0  0  0  0  0  0  0  0  0  0  0
   -2.4333    4.2167    0.0000 C   0  0  0  0  0  0  0  0  0  0  0  0
  2  3  1  0  0  0  0
  3  4  1  0  0  0  0
  4  1  1  0  0  0  0
  5  1  1  0  0  0  0
  6  1  1  0  0  0  0
  7  9  1  0  0  0  0
  8  2  1  0  0  0  0
  9  8  1  0  0  0  0
 10  7  2  0  0  0  0
 11  7  1  0  0  0  0
 12 24  1  0  0  0  0
 13  3  2  0  0  0  0
 14 10  1  0  0  0  0
 15 11  2  0  0  0  0
 16  6  1  0  0  0  0
 17  5  1  0  0  0  0
 18  6  2  0  0  0  0
 19  5  2  0  0  0  0
 20 15  1  0  0  0  0
 21  2  1  0  0  0  0
 22 14  1  0  0  0  0
 23 15  1  0  0  0  0
 24 21  1  0  0  0  0
 16 17  1  0  0  0  0
 12  9  1  0  0  0  0
 14 20  2  0  0  0  0
M  END
>  <IDNUMBER>
F6419-0068

>  <Chemical_Name>
1-{2-[2-(3,5-dichlorophenyl)morpholin-4-yl]-2-oxoethyl}pyrrolidine-2,5-dione

>  <PriceCoeff>
1.50

>  <CAS>
1421517-75-0

>  <MW>
371.22

>  <Description>
oil

>  <FSP3>
0.44

>  <clogP>
2.29

>  <TPSA>
66.92

>  <Acceptor>
4

>  <Donor>
0

>  <RotBonds>
4

>  <HAC>
24

>  <Collection>
Advanced

>  <PPDS>
+

$$$$
F6435-1028
  Mrv2219 10102508112D          

 25 27  0  0  0  0            999 V2000
   -2.6188    5.9498    0.0000 S   0  0  0  0  0  0  0  0  0  0  0  0
   -2.9603    5.1961    0.0000 C   0  0  0  0  0  0  0  0  0  0  0  0
   -4.5799    3.7972    0.0000 C   0  0  0  0  0  0  0  0  0  0  0  0
   -3.8596    4.2094    0.0000 N   0  0  0  0  0  0  0  0  0  0  0  0
   -3.7805    5.0379    0.0000 C   0  0  0  0  0  0  0  0  0  0  0  0
   -4.5799    2.9770    0.0000 N   0  0  0  0  0  0  0  0  0  0  0  0
   -2.5564    4.4800    0.0000 C   0  0  0  0  0  0  0  0  0  0  0  0
   -5.9997    1.3365    0.0000 C   0  0  0  0  0  0  0  0  0  0  0  0
   -5.3043    1.7445    0.0000 C   0  0  0  0  0  0  0  0  0  0  0  0
   -1.8694    5.6125    0.0000 O   0  0  0  0  0  0  0  0  0  0  0  0
   -2.0942    6.5868    0.0000 O   0  0  0  0  0  0  0  0  0  0  0  0
   -3.1060    6.6243    0.0000 C   0  0  0  0  0  0  0  0  0  0  0  0
   -3.1102    3.8721    0.0000 C   0  0  0  0  0  0  0  0  0  0  0  0
   -5.2961    2.5773    0.0000 C   0  0  0  0  0  0  0  0  0  0  0  0
   -5.2961    4.2094    0.0000 O   0  0  0  0  0  0  0  0  0  0  0  0
   -6.7117    1.7445    0.0000 C   0  0  0  0  0  0  0  0  0  0  0  0
   -6.7158    2.5689    0.0000 C   0  0  0  0  0  0  0  0  0  0  0  0
   -5.9997    0.5079    0.0000 Cl  0  0  0  0  0  0  0  0  0  0  0  0
   -5.9997    2.9811    0.0000 C   0  0  0  0  0  0  0  0  0  0  0  0
   -7.4362    1.3240    0.0000 Cl  0  0  0  0  0  0  0  0  0  0  0  0
   -2.7604    7.3737    0.0000 C   0  0  0  0  0  0  0  0  0  0  0  0
   -3.9179    6.5368    0.0000 C   0  0  0  0  0  0  0  0  0  0  0  0
   -4.4050    7.2113    0.0000 C   0  0  0  0  0  0  0  0  0  0  0  0
   -3.2351    8.0482    0.0000 C   0  0  0  0  0  0  0  0  0  0  0  0
   -4.0595    7.9608    0.0000 C   0  0  0  0  0  0  0  0  0  0  0  0
  2  1  1  0  0  0  0
  3  4  1  0  0  0  0
  4  5  1  0  0  0  0
  5  2  1  0  0  0  0
  6  3  1  0  0  0  0
  7  2  1  0  0  0  0
  8  9  1  0  0  0  0
  9 14  2  0  0  0  0
 10  1  2  0  0  0  0
 11  1  2  0  0  0  0
 12  1  1  0  0  0  0
 13  7  1  0  0  0  0
 14  6  1  0  0  0  0
 15  3  2  0  0  0  0
 16 17  1  0  0  0  0
 17 19  2  0  0  0  0
 18  8  1  0  0  0  0
 19 14  1  0  0  0  0
 20 16  1  0  0  0  0
 21 12  1  0  0  0  0
 22 12  2  0  0  0  0
 23 22  1  0  0  0  0
 24 21  2  0  0  0  0
 25 23  2  0  0  0  0
 13  4  1  0  0  0  0
 25 24  1  0  0  0  0
 16  8  2  0  0  0  0
M  END
>  <IDNUMBER>
F6435-1028

>  <Chemical_Name>
3-(benzenesulfonyl)-N-(3,4-dichlorophenyl)pyrrolidine-1-carboxamide

>  <PriceCoeff>
1.00

>  <CAS>
1448034-44-3

>  <MW>
399.29

>  <Description>
solid

>  <FSP3>
0.24

>  <clogP>
3.32

>  <TPSA>
74.86

>  <Acceptor>
3

>  <Donor>
1

>  <RotBonds>
4

>  <HAC>
25

>  <Collection>
General

>  <PPDS>
+

$$$$
F6439-0450
  Mrv2219 10102508112D          

 28 31  0  0  0  0            999 V2000
   -2.4877    6.7870    0.0000 N   0  0  0  0  0  0  0  0  0  0  0  0
   -5.2927    2.5754    0.0000 N   0  0  0  0  0  0  0  0  0  0  0  0
   -3.5813    7.5676    0.0000 C   0  0  0  0  0  0  0  0  0  0  0  0
   -3.1639    6.2903    0.0000 N   0  0  0  0  0  0  0  0  0  0  0  0
   -2.7424    7.5801    0.0000 C   0  0  0  0  0  0  0  0  0  0  0  0
   -3.8318    6.7787    0.0000 C   0  0  0  0  0  0  0  0  0  0  0  0
   -5.3803    1.7489    0.0000 C   0  0  0  0  0  0  0  0  0  0  0  0
   -6.0399    2.9051    0.0000 C   0  0  0  0  0  0  0  0  0  0  0  0
   -4.5914    2.9928    0.0000 C   0  0  0  0  0  0  0  0  0  0  0  0
   -4.5914    3.8067    0.0000 C   0  0  0  0  0  0  0  0  0  0  0  0
   -2.2665    8.2438    0.0000 C   0  0  0  0  0  0  0  0  0  0  0  0
   -6.5867    2.2874    0.0000 C   0  0  0  0  0  0  0  0  0  0  0  0
   -6.1776    1.5736    0.0000 C   0  0  0  0  0  0  0  0  0  0  0  0
   -6.2152    3.7149    0.0000 O   0  0  0  0  0  0  0  0  0  0  0  0
   -4.7584    1.1854    0.0000 O   0  0  0  0  0  0  0  0  0  0  0  0
   -3.1639    5.4597    0.0000 C   0  0  0  0  0  0  0  0  0  0  0  0
   -1.3023    9.5837    0.0000 N   0  0  0  0  0  0  0  0  0  0  0  0
   -5.3094    4.2117    0.0000 O   0  0  0  0  0  0  0  0  0  0  0  0
   -3.8694    4.2117    0.0000 N   0  0  0  0  0  0  0  0  0  0  0  0
   -4.1323    8.1812    0.0000 C   0  0  0  0  0  0  0  0  0  0  0  0
   -3.8694    5.0506    0.0000 C   0  0  0  0  0  0  0  0  0  0  0  0
   -4.6332    6.6034    0.0000 C   0  0  0  0  0  0  0  0  0  0  0  0
   -2.1371    9.6713    0.0000 C   0  0  0  0  0  0  0  0  0  0  0  0
   -0.9600    8.8323    0.0000 C   0  0  0  0  0  0  0  0  0  0  0  0
   -2.6129    8.9909    0.0000 C   0  0  0  0  0  0  0  0  0  0  0  0
   -1.4401    8.1687    0.0000 C   0  0  0  0  0  0  0  0  0  0  0  0
   -4.9421    8.0142    0.0000 C   0  0  0  0  0  0  0  0  0  0  0  0
   -5.1925    7.2170    0.0000 C   0  0  0  0  0  0  0  0  0  0  0  0
  2  9  1  0  0  0  0
  3  5  1  0  0  0  0
  4  1  1  0  0  0  0
  5  1  2  0  0  0  0
  6  4  1  0  0  0  0
  7  2  1  0  0  0  0
  8  2  1  0  0  0  0
  9 10  1  0  0  0  0
 10 19  1  0  0  0  0
 11  5  1  0  0  0  0
 12  8  1  0  0  0  0
 13  7  1  0  0  0  0
 14  8  2  0  0  0  0
 15  7  2  0  0  0  0
 16  4  1  0  0  0  0
 17 24  2  0  0  0  0
 18 10  2  0  0  0  0
 19 21  1  0  0  0  0
 20  3  1  0  0  0  0
 21 16  1  0  0  0  0
 22  6  1  0  0  0  0
 23 25  2  0  0  0  0
 24 26  1  0  0  0  0
 25 11  1  0  0  0  0
 26 11  2  0  0  0  0
 27 20  1  0  0  0  0
 28 22  1  0  0  0  0
  3  6  2  0  0  0  0
 17 23  1  0  0  0  0
 28 27  1  0  0  0  0
 12 13  1  0  0  0  0
M  END
>  <IDNUMBER>
F6439-0450

>  <Chemical_Name>
2-(2,5-dioxopyrrolidin-1-yl)-N-{2-[3-(pyridin-4-yl)-4,5,6,7-tetrahydro-1H-indazol-1-yl]ethyl}acetamide

>  <PriceCoeff>
1.00

>  <CAS>
1797293-51-6

>  <MW>
381.43

>  <Description>
solid

>  <FSP3>
0.45

>  <clogP>
1.14

>  <TPSA>
97.19

>  <Acceptor>
5

>  <Donor>
2

>  <RotBonds>
6

>  <HAC>
28

>  <Collection>
General

>  <PPDS>
+

$$$$
F6439-0833
  Mrv2219 10102508112D          

 28 31  0  0  0  0            999 V2000
   -2.4739    6.7636    0.0000 N   0  0  0  0  0  0  0  0  0  0  0  0
   -2.7237    7.5507    0.0000 C   0  0  0  0  0  0  0  0  0  0  0  0
   -3.5609    7.5507    0.0000 C   0  0  0  0  0  0  0  0  0  0  0  0
   -5.2809    2.5696    0.0000 N   0  0  0  0  0  0  0  0  0  0  0  0
   -3.1486    6.2763    0.0000 N   0  0  0  0  0  0  0  0  0  0  0  0
   -3.8108    6.7636    0.0000 C   0  0  0  0  0  0  0  0  0  0  0  0
   -5.3683    1.7450    0.0000 C   0  0  0  0  0  0  0  0  0  0  0  0
   -6.0264    2.8987    0.0000 C   0  0  0  0  0  0  0  0  0  0  0  0
   -4.5812    2.9861    0.0000 C   0  0  0  0  0  0  0  0  0  0  0  0
   -2.2490    8.2254    0.0000 C   0  0  0  0  0  0  0  0  0  0  0  0
   -4.5812    3.7983    0.0000 C   0  0  0  0  0  0  0  0  0  0  0  0
   -1.4243    8.1380    0.0000 N   0  0  0  0  0  0  0  0  0  0  0  0
   -6.5720    2.2823    0.0000 C   0  0  0  0  0  0  0  0  0  0  0  0
   -6.1639    1.5701    0.0000 C   0  0  0  0  0  0  0  0  0  0  0  0
   -6.2014    3.7066    0.0000 O   0  0  0  0  0  0  0  0  0  0  0  0
   -4.7478    1.1828    0.0000 O   0  0  0  0  0  0  0  0  0  0  0  0
   -3.1486    5.4475    0.0000 C   0  0  0  0  0  0  0  0  0  0  0  0
   -5.2976    4.2023    0.0000 O   0  0  0  0  0  0  0  0  0  0  0  0
   -3.8607    4.2023    0.0000 N   0  0  0  0  0  0  0  0  0  0  0  0
   -4.0981    8.1712    0.0000 C   0  0  0  0  0  0  0  0  0  0  0  0
   -3.8607    5.0394    0.0000 C   0  0  0  0  0  0  0  0  0  0  0  0
   -4.6229    6.5762    0.0000 C   0  0  0  0  0  0  0  0  0  0  0  0
   -0.9496    8.8002    0.0000 C   0  0  0  0  0  0  0  0  0  0  0  0
   -2.5821    8.9709    0.0000 C   0  0  0  0  0  0  0  0  0  0  0  0
   -4.9102    8.0005    0.0000 C   0  0  0  0  0  0  0  0  0  0  0  0
   -5.1726    7.2134    0.0000 C   0  0  0  0  0  0  0  0  0  0  0  0
   -1.2744    9.5498    0.0000 C   0  0  0  0  0  0  0  0  0  0  0  0
   -2.1073    9.6456    0.0000 C   0  0  0  0  0  0  0  0  0  0  0  0
  2  1  2  0  0  0  0
  3  2  1  0  0  0  0
  4  9  1  0  0  0  0
  5  1  1  0  0  0  0
  6  5  1  0  0  0  0
  7  4  1  0  0  0  0
  8  4  1  0  0  0  0
  9 11  1  0  0  0  0
 10  2  1  0  0  0  0
 11 19  1  0  0  0  0
 12 10  1  0  0  0  0
 13  8  1  0  0  0  0
 14  7  1  0  0  0  0
 15  8  2  0  0  0  0
 16  7  2  0  0  0  0
 17  5  1  0  0  0  0
 18 11  2  0  0  0  0
 19 21  1  0  0  0  0
 20  3  1  0  0  0  0
 21 17  1  0  0  0  0
 22  6  1  0  0  0  0
 23 12  2  0  0  0  0
 24 10  2  0  0  0  0
 25 20  1  0  0  0  0
 26 22  1  0  0  0  0
 27 28  2  0  0  0  0
 28 24  1  0  0  0  0
  6  3  2  0  0  0  0
 25 26  1  0  0  0  0
 27 23  1  0  0  0  0
 13 14  1  0  0  0  0
M  END
>  <IDNUMBER>
F6439-0833

>  <Chemical_Name>
2-(2,5-dioxopyrrolidin-1-yl)-N-{2-[3-(pyridin-2-yl)-4,5,6,7-tetrahydro-1H-indazol-1-yl]ethyl}acetamide

>  <PriceCoeff>
1.00

>  <CAS>
1797670-95-1

>  <MW>
381.43

>  <Description>
solid

>  <FSP3>
0.45

>  <clogP>
1.35

>  <TPSA>
97.19

>  <Acceptor>
5

>  <Donor>
2

>  <RotBonds>
6

>  <HAC>
28

>  <Collection>
General

>  <PPDS>
+

$$$$
F6439-1216
  Mrv2219 10102508112D          

 26 28  0  0  0  0            999 V2000
   -2.7237    7.5507    0.0000 C   0  0  0  0  0  0  0  0  0  0  0  0
   -2.4739    6.7636    0.0000 N   0  0  0  0  0  0  0  0  0  0  0  0
   -3.5609    7.5507    0.0000 C   0  0  0  0  0  0  0  0  0  0  0  0
   -5.2809    2.5696    0.0000 N   0  0  0  0  0  0  0  0  0  0  0  0
   -3.1486    6.2763    0.0000 N   0  0  0  0  0  0  0  0  0  0  0  0
   -3.8066    6.7719    0.0000 C   0  0  0  0  0  0  0  0  0  0  0  0
   -2.2490    8.2254    0.0000 C   0  0  0  0  0  0  0  0  0  0  0  0
   -6.0264    2.8987    0.0000 C   0  0  0  0  0  0  0  0  0  0  0  0
   -5.3683    1.7450    0.0000 C   0  0  0  0  0  0  0  0  0  0  0  0
   -4.5812    2.9861    0.0000 C   0  0  0  0  0  0  0  0  0  0  0  0
   -4.5812    3.7983    0.0000 C   0  0  0  0  0  0  0  0  0  0  0  0
   -6.1639    1.5701    0.0000 C   0  0  0  0  0  0  0  0  0  0  0  0
   -6.5720    2.2823    0.0000 C   0  0  0  0  0  0  0  0  0  0  0  0
   -4.7478    1.1828    0.0000 O   0  0  0  0  0  0  0  0  0  0  0  0
   -6.2014    3.7066    0.0000 O   0  0  0  0  0  0  0  0  0  0  0  0
   -3.1486    5.4475    0.0000 C   0  0  0  0  0  0  0  0  0  0  0  0
   -5.2976    4.2023    0.0000 O   0  0  0  0  0  0  0  0  0  0  0  0
   -1.3952    8.2629    0.0000 F   0  0  0  0  0  0  0  0  0  0  0  0
   -2.4739    9.0500    0.0000 F   0  0  0  0  0  0  0  0  0  0  0  0
   -1.8075    8.8251    0.0000 F   0  0  0  0  0  0  0  0  0  0  0  0
   -3.8607    4.2023    0.0000 N   0  0  0  0  0  0  0  0  0  0  0  0
   -4.0981    8.1712    0.0000 C   0  0  0  0  0  0  0  0  0  0  0  0
   -3.8607    5.0394    0.0000 C   0  0  0  0  0  0  0  0  0  0  0  0
   -4.6229    6.5887    0.0000 C   0  0  0  0  0  0  0  0  0  0  0  0
   -4.9102    8.0005    0.0000 C   0  0  0  0  0  0  0  0  0  0  0  0
   -5.1726    7.2134    0.0000 C   0  0  0  0  0  0  0  0  0  0  0  0
  2  1  2  0  0  0  0
  3  1  1  0  0  0  0
  4 10  1  0  0  0  0
  5  2  1  0  0  0  0
  6  3  2  0  0  0  0
  7  1  1  0  0  0  0
  8  4  1  0  0  0  0
  9  4  1  0  0  0  0
 10 11  1  0  0  0  0
 11 21  1  0  0  0  0
 12  9  1  0  0  0  0
 13  8  1  0  0  0  0
 14  9  2  0  0  0  0
 15  8  2  0  0  0  0
 16  5  1  0  0  0  0
 17 11  2  0  0  0  0
 18  7  1  0  0  0  0
 19  7  1  0  0  0  0
 20  7  1  0  0  0  0
 21 23  1  0  0  0  0
 22  3  1  0  0  0  0
 23 16  1  0  0  0  0
 24  6  1  0  0  0  0
 25 22  1  0  0  0  0
 26 25  1  0  0  0  0
  6  5  1  0  0  0  0
 24 26  1  0  0  0  0
 13 12  1  0  0  0  0
M  END
>  <IDNUMBER>
F6439-1216

>  <Chemical_Name>
2-(2,5-dioxopyrrolidin-1-yl)-N-{2-[3-(trifluoromethyl)-4,5,6,7-tetrahydro-1H-indazol-1-yl]ethyl}acetamide

>  <PriceCoeff>
1.00

>  <CAS>
1797624-10-2

>  <MW>
372.34

>  <Description>
solid

>  <FSP3>
0.62

>  <clogP>
1.49

>  <TPSA>
84.30

>  <Acceptor>
4

>  <Donor>
1

>  <RotBonds>
5

>  <HAC>
26

>  <Collection>
General

>  <PPDS>
+

$$$$
F6439-1982
  Mrv2219 10102508112D          

 26 29  0  0  0  0            999 V2000
   -5.2818    2.5701    0.0000 N   0  0  0  0  0  0  0  0  0  0  0  0
   -2.4743    6.7648    0.0000 N   0  0  0  0  0  0  0  0  0  0  0  0
   -3.1491    6.2732    0.0000 N   0  0  0  0  0  0  0  0  0  0  0  0
   -2.7325    7.5520    0.0000 C   0  0  0  0  0  0  0  0  0  0  0  0
   -3.8239    6.7648    0.0000 C   0  0  0  0  0  0  0  0  0  0  0  0
   -3.5698    7.5478    0.0000 C   0  0  0  0  0  0  0  0  0  0  0  0
   -6.0275    2.8992    0.0000 C   0  0  0  0  0  0  0  0  0  0  0  0
   -5.3693    1.7453    0.0000 C   0  0  0  0  0  0  0  0  0  0  0  0
   -4.6070    6.4981    0.0000 C   0  0  0  0  0  0  0  0  0  0  0  0
   -2.2577    8.2143    0.0000 C   0  0  0  0  0  0  0  0  0  0  0  0
   -5.1568    5.8775    0.0000 C   0  0  0  0  0  0  0  0  0  0  0  0
   -5.4109    6.6731    0.0000 C   0  0  0  0  0  0  0  0  0  0  0  0
   -4.5820    2.9866    0.0000 C   0  0  0  0  0  0  0  0  0  0  0  0
   -2.5201    9.0016    0.0000 S   0  0  0  0  0  0  0  0  0  0  0  0
   -4.5820    3.7989    0.0000 C   0  0  0  0  0  0  0  0  0  0  0  0
   -1.4329    8.2268    0.0000 C   0  0  0  0  0  0  0  0  0  0  0  0
   -6.1649    1.5703    0.0000 C   0  0  0  0  0  0  0  0  0  0  0  0
   -6.5731    2.2826    0.0000 C   0  0  0  0  0  0  0  0  0  0  0  0
   -4.7486    1.1830    0.0000 O   0  0  0  0  0  0  0  0  0  0  0  0
   -6.2024    3.7072    0.0000 O   0  0  0  0  0  0  0  0  0  0  0  0
   -1.8495    9.4890    0.0000 C   0  0  0  0  0  0  0  0  0  0  0  0
   -3.1491    5.4484    0.0000 C   0  0  0  0  0  0  0  0  0  0  0  0
   -1.1747    9.0141    0.0000 C   0  0  0  0  0  0  0  0  0  0  0  0
   -5.2985    4.2030    0.0000 O   0  0  0  0  0  0  0  0  0  0  0  0
   -3.8614    4.2030    0.0000 N   0  0  0  0  0  0  0  0  0  0  0  0
   -3.8614    5.0278    0.0000 C   0  0  0  0  0  0  0  0  0  0  0  0
  2  3  1  0  0  0  0
  3 22  1  0  0  0  0
  4  2  2  0  0  0  0
  5  3  1  0  0  0  0
  6  5  2  0  0  0  0
  7  1  1  0  0  0  0
  8  1  1  0  0  0  0
  9  5  1  0  0  0  0
 10  4  1  0  0  0  0
 11  9  1  0  0  0  0
 12  9  1  0  0  0  0
 13  1  1  0  0  0  0
 14 10  1  0  0  0  0
 15 13  1  0  0  0  0
 16 10  2  0  0  0  0
 17  8  1  0  0  0  0
 18  7  1  0  0  0  0
 19  8  2  0  0  0  0
 20  7  2  0  0  0  0
 21 14  1  0  0  0  0
 22 26  1  0  0  0  0
 23 16  1  0  0  0  0
 24 15  2  0  0  0  0
 25 15  1  0  0  0  0
 26 25  1  0  0  0  0
 18 17  1  0  0  0  0
  6  4  1  0  0  0  0
 11 12  1  0  0  0  0
 23 21  2  0  0  0  0
M  END
>  <IDNUMBER>
F6439-1982

>  <Chemical_Name>
N-{2-[5-cyclopropyl-3-(thiophen-2-yl)-1H-pyrazol-1-yl]ethyl}-2-(2,5-dioxopyrrolidin-1-yl)acetamide

>  <PriceCoeff>
1.00

>  <CAS>
1797327-16-2

>  <MW>
372.44

>  <Description>
solid

>  <FSP3>
0.44

>  <clogP>
2.26

>  <TPSA>
112.54

>  <Acceptor>
4

>  <Donor>
1

>  <RotBonds>
7

>  <HAC>
26

>  <Collection>
General

>  <PPDS>
+

$$$$
F6439-2365
  Mrv2219 10102508112D          

 27 30  0  0  0  0            999 V2000
   -5.2724    2.5655    0.0000 N   0  0  0  0  0  0  0  0  0  0  0  0
   -3.1435    6.2662    0.0000 N   0  0  0  0  0  0  0  0  0  0  0  0
   -2.4782    6.7527    0.0000 N   0  0  0  0  0  0  0  0  0  0  0  0
   -3.8171    6.7527    0.0000 C   0  0  0  0  0  0  0  0  0  0  0  0
   -3.5634    7.5344    0.0000 C   0  0  0  0  0  0  0  0  0  0  0  0
   -2.7318    7.5386    0.0000 C   0  0  0  0  0  0  0  0  0  0  0  0
   -6.0167    2.8940    0.0000 C   0  0  0  0  0  0  0  0  0  0  0  0
   -5.3597    1.7422    0.0000 C   0  0  0  0  0  0  0  0  0  0  0  0
   -4.5988    6.4865    0.0000 C   0  0  0  0  0  0  0  0  0  0  0  0
   -5.1476    5.8670    0.0000 C   0  0  0  0  0  0  0  0  0  0  0  0
   -5.4013    6.6612    0.0000 C   0  0  0  0  0  0  0  0  0  0  0  0
   -4.5738    2.9813    0.0000 C   0  0  0  0  0  0  0  0  0  0  0  0
   -4.5738    3.7921    0.0000 C   0  0  0  0  0  0  0  0  0  0  0  0
   -6.5614    2.2786    0.0000 C   0  0  0  0  0  0  0  0  0  0  0  0
   -6.1539    1.5675    0.0000 C   0  0  0  0  0  0  0  0  0  0  0  0
   -2.2536    8.1997    0.0000 C   0  0  0  0  0  0  0  0  0  0  0  0
   -4.7402    1.1809    0.0000 O   0  0  0  0  0  0  0  0  0  0  0  0
   -6.1914    3.7006    0.0000 O   0  0  0  0  0  0  0  0  0  0  0  0
   -3.1435    5.4387    0.0000 C   0  0  0  0  0  0  0  0  0  0  0  0
   -1.2931    9.5469    0.0000 N   0  0  0  0  0  0  0  0  0  0  0  0
   -5.2890    4.1955    0.0000 O   0  0  0  0  0  0  0  0  0  0  0  0
   -3.8545    4.1955    0.0000 N   0  0  0  0  0  0  0  0  0  0  0  0
   -3.8545    5.0188    0.0000 C   0  0  0  0  0  0  0  0  0  0  0  0
   -0.9563    8.7984    0.0000 C   0  0  0  0  0  0  0  0  0  0  0  0
   -2.1164    9.6300    0.0000 C   0  0  0  0  0  0  0  0  0  0  0  0
   -1.4303    8.1248    0.0000 C   0  0  0  0  0  0  0  0  0  0  0  0
   -2.6029    8.9564    0.0000 C   0  0  0  0  0  0  0  0  0  0  0  0
  2 19  1  0  0  0  0
  3  2  1  0  0  0  0
  4  2  1  0  0  0  0
  5  4  2  0  0  0  0
  6  3  2  0  0  0  0
  7  1  1  0  0  0  0
  8  1  1  0  0  0  0
  9  4  1  0  0  0  0
 10  9  1  0  0  0  0
 11  9  1  0  0  0  0
 12  1  1  0  0  0  0
 13 12  1  0  0  0  0
 14  7  1  0  0  0  0
 15  8  1  0  0  0  0
 16  6  1  0  0  0  0
 17  8  2  0  0  0  0
 18  7  2  0  0  0  0
 19 23  1  0  0  0  0
 20 25  1  0  0  0  0
 21 13  2  0  0  0  0
 22 13  1  0  0  0  0
 23 22  1  0  0  0  0
 24 26  1  0  0  0  0
 25 27  2  0  0  0  0
 26 16  2  0  0  0  0
 27 16  1  0  0  0  0
 14 15  1  0  0  0  0
  5  6  1  0  0  0  0
 11 10  1  0  0  0  0
 20 24  2  0  0  0  0
M  END
>  <IDNUMBER>
F6439-2365

>  <Chemical_Name>
N-{2-[5-cyclopropyl-3-(pyridin-4-yl)-1H-pyrazol-1-yl]ethyl}-2-(2,5-dioxopyrrolidin-1-yl)acetamide

>  <PriceCoeff>
1.00

>  <CAS>
1797673-05-2

>  <MW>
367.40

>  <Description>
solid

>  <FSP3>
0.42

>  <clogP>
0.75

>  <TPSA>
97.19

>  <Acceptor>
5

>  <Donor>
2

>  <RotBonds>
7

>  <HAC>
27

>  <Collection>
General

>  <PPDS>
+

$$$$
F6439-2748
  Mrv2219 10102508112D          

 27 30  0  0  0  0            999 V2000
   -5.2724    2.5655    0.0000 N   0  0  0  0  0  0  0  0  0  0  0  0
   -2.4782    6.7527    0.0000 N   0  0  0  0  0  0  0  0  0  0  0  0
   -3.1435    6.2662    0.0000 N   0  0  0  0  0  0  0  0  0  0  0  0
   -3.8171    6.7527    0.0000 C   0  0  0  0  0  0  0  0  0  0  0  0
   -3.5634    7.5344    0.0000 C   0  0  0  0  0  0  0  0  0  0  0  0
   -2.7318    7.5386    0.0000 C   0  0  0  0  0  0  0  0  0  0  0  0
   -6.0167    2.8940    0.0000 C   0  0  0  0  0  0  0  0  0  0  0  0
   -5.3597    1.7422    0.0000 C   0  0  0  0  0  0  0  0  0  0  0  0
   -4.5988    6.4865    0.0000 C   0  0  0  0  0  0  0  0  0  0  0  0
   -5.1476    5.8670    0.0000 C   0  0  0  0  0  0  0  0  0  0  0  0
   -5.4013    6.6612    0.0000 C   0  0  0  0  0  0  0  0  0  0  0  0
   -4.5738    2.9813    0.0000 C   0  0  0  0  0  0  0  0  0  0  0  0
   -4.5738    3.7921    0.0000 C   0  0  0  0  0  0  0  0  0  0  0  0
   -2.2536    8.1997    0.0000 C   0  0  0  0  0  0  0  0  0  0  0  0
   -1.4303    8.1248    0.0000 N   0  0  0  0  0  0  0  0  0  0  0  0
   -6.5614    2.2786    0.0000 C   0  0  0  0  0  0  0  0  0  0  0  0
   -6.1539    1.5675    0.0000 C   0  0  0  0  0  0  0  0  0  0  0  0
   -6.1914    3.7006    0.0000 O   0  0  0  0  0  0  0  0  0  0  0  0
   -4.7402    1.1809    0.0000 O   0  0  0  0  0  0  0  0  0  0  0  0
   -3.1435    5.4387    0.0000 C   0  0  0  0  0  0  0  0  0  0  0  0
   -5.2890    4.1955    0.0000 O   0  0  0  0  0  0  0  0  0  0  0  0
   -3.8545    4.1955    0.0000 N   0  0  0  0  0  0  0  0  0  0  0  0
   -3.8545    5.0188    0.0000 C   0  0  0  0  0  0  0  0  0  0  0  0
   -0.9563    8.7984    0.0000 C   0  0  0  0  0  0  0  0  0  0  0  0
   -2.6029    8.9564    0.0000 C   0  0  0  0  0  0  0  0  0  0  0  0
   -1.2931    9.5469    0.0000 C   0  0  0  0  0  0  0  0  0  0  0  0
   -2.1164    9.6300    0.0000 C   0  0  0  0  0  0  0  0  0  0  0  0
  2  3  1  0  0  0  0
  3 20  1  0  0  0  0
  4  3  1  0  0  0  0
  5  4  2  0  0  0  0
  6  2  2  0  0  0  0
  7  1  1  0  0  0  0
  8  1  1  0  0  0  0
  9  4  1  0  0  0  0
 10  9  1  0  0  0  0
 11  9  1  0  0  0  0
 12  1  1  0  0  0  0
 13 12  1  0  0  0  0
 14  6  1  0  0  0  0
 15 14  1  0  0  0  0
 16  7  1  0  0  0  0
 17  8  1  0  0  0  0
 18  7  2  0  0  0  0
 19  8  2  0  0  0  0
 20 23  1  0  0  0  0
 21 13  2  0  0  0  0
 22 13  1  0  0  0  0
 23 22  1  0  0  0  0
 24 15  2  0  0  0  0
 25 14  2  0  0  0  0
 26 27  2  0  0  0  0
 27 25  1  0  0  0  0
 16 17  1  0  0  0  0
  5  6  1  0  0  0  0
 11 10  1  0  0  0  0
 26 24  1  0  0  0  0
M  END
>  <IDNUMBER>
F6439-2748

>  <Chemical_Name>
N-{2-[5-cyclopropyl-3-(pyridin-2-yl)-1H-pyrazol-1-yl]ethyl}-2-(2,5-dioxopyrrolidin-1-yl)acetamide

>  <PriceCoeff>
1.00

>  <CAS>
1797674-18-0

>  <MW>
367.40

>  <Description>
solid

>  <FSP3>
0.42

>  <clogP>
0.96

>  <TPSA>
97.19

>  <Acceptor>
5

>  <Donor>
2

>  <RotBonds>
7

>  <HAC>
27

>  <Collection>
General

>  <PPDS>
+

$$$$
F6439-3514
  Mrv2219 10102508112D          

 25 27  0  0  0  0            999 V2000
   -2.7545    7.5666    0.0000 C   0  0  0  0  0  0  0  0  0  0  0  0
   -2.4916    6.7779    0.0000 N   0  0  0  0  0  0  0  0  0  0  0  0
   -5.2920    2.5750    0.0000 N   0  0  0  0  0  0  0  0  0  0  0  0
   -3.5809    7.5541    0.0000 C   0  0  0  0  0  0  0  0  0  0  0  0
   -3.1636    6.2853    0.0000 N   0  0  0  0  0  0  0  0  0  0  0  0
   -3.8396    6.7779    0.0000 C   0  0  0  0  0  0  0  0  0  0  0  0
   -2.2745    8.2303    0.0000 C   0  0  0  0  0  0  0  0  0  0  0  0
   -6.0391    2.9048    0.0000 C   0  0  0  0  0  0  0  0  0  0  0  0
   -5.3797    1.7487    0.0000 C   0  0  0  0  0  0  0  0  0  0  0  0
   -4.6201    6.5107    0.0000 C   0  0  0  0  0  0  0  0  0  0  0  0
   -5.4298    6.6777    0.0000 C   0  0  0  0  0  0  0  0  0  0  0  0
   -5.1668    5.8846    0.0000 C   0  0  0  0  0  0  0  0  0  0  0  0
   -4.5908    2.9925    0.0000 C   0  0  0  0  0  0  0  0  0  0  0  0
   -4.5908    3.8063    0.0000 C   0  0  0  0  0  0  0  0  0  0  0  0
   -6.1768    1.5734    0.0000 C   0  0  0  0  0  0  0  0  0  0  0  0
   -6.5858    2.2870    0.0000 C   0  0  0  0  0  0  0  0  0  0  0  0
   -4.7578    1.1852    0.0000 O   0  0  0  0  0  0  0  0  0  0  0  0
   -6.2144    3.7144    0.0000 O   0  0  0  0  0  0  0  0  0  0  0  0
   -3.1552    5.4590    0.0000 C   0  0  0  0  0  0  0  0  0  0  0  0
   -5.3087    4.2112    0.0000 O   0  0  0  0  0  0  0  0  0  0  0  0
   -1.4106    8.2928    0.0000 F   0  0  0  0  0  0  0  0  0  0  0  0
   -2.5041    9.0691    0.0000 F   0  0  0  0  0  0  0  0  0  0  0  0
   -1.8280    8.8563    0.0000 F   0  0  0  0  0  0  0  0  0  0  0  0
   -3.8689    4.2112    0.0000 N   0  0  0  0  0  0  0  0  0  0  0  0
   -3.8689    5.0375    0.0000 C   0  0  0  0  0  0  0  0  0  0  0  0
  2  1  2  0  0  0  0
  3 13  1  0  0  0  0
  4  1  1  0  0  0  0
  5  2  1  0  0  0  0
  6  4  2  0  0  0  0
  7  1  1  0  0  0  0
  8  3  1  0  0  0  0
  9  3  1  0  0  0  0
 10  6  1  0  0  0  0
 11 10  1  0  0  0  0
 12 10  1  0  0  0  0
 13 14  1  0  0  0  0
 14 24  1  0  0  0  0
 15  9  1  0  0  0  0
 16  8  1  0  0  0  0
 17  9  2  0  0  0  0
 18  8  2  0  0  0  0
 19  5  1  0  0  0  0
 20 14  2  0  0  0  0
 21  7  1  0  0  0  0
 22  7  1  0  0  0  0
 23  7  1  0  0  0  0
 24 25  1  0  0  0  0
 25 19  1  0  0  0  0
  6  5  1  0  0  0  0
 12 11  1  0  0  0  0
 16 15  1  0  0  0  0
M  END
>  <IDNUMBER>
F6439-3514

>  <Chemical_Name>
N-{2-[5-cyclopropyl-3-(trifluoromethyl)-1H-pyrazol-1-yl]ethyl}-2-(2,5-dioxopyrrolidin-1-yl)acetamide

>  <PriceCoeff>
1.00

>  <CAS>
1797717-19-1

>  <MW>
358.32

>  <Description>
solid

>  <FSP3>
0.60

>  <clogP>
1.09

>  <TPSA>
84.30

>  <Acceptor>
4

>  <Donor>
1

>  <RotBonds>
6

>  <HAC>
25

>  <Collection>
General

>  <PPDS>
+

$$$$
F6439-5046
  Mrv2219 10102508112D          

 23 25  0  0  0  0            999 V2000
   -5.3078    2.5827    0.0000 N   0  0  0  0  0  0  0  0  0  0  0  0
   -2.4865    6.8064    0.0000 N   0  0  0  0  0  0  0  0  0  0  0  0
   -2.7376    7.6017    0.0000 C   0  0  0  0  0  0  0  0  0  0  0  0
   -5.3957    1.7539    0.0000 C   0  0  0  0  0  0  0  0  0  0  0  0
   -6.0571    2.9134    0.0000 C   0  0  0  0  0  0  0  0  0  0  0  0
   -3.1646    6.3083    0.0000 N   0  0  0  0  0  0  0  0  0  0  0  0
   -3.5790    7.5892    0.0000 C   0  0  0  0  0  0  0  0  0  0  0  0
   -2.2688    8.2673    0.0000 C   0  0  0  0  0  0  0  0  0  0  0  0
   -3.8385    6.8064    0.0000 C   0  0  0  0  0  0  0  0  0  0  0  0
   -4.6045    3.0013    0.0000 C   0  0  0  0  0  0  0  0  0  0  0  0
   -2.5199    9.0585    0.0000 S   0  0  0  0  0  0  0  0  0  0  0  0
   -4.6045    3.8176    0.0000 C   0  0  0  0  0  0  0  0  0  0  0  0
   -1.4316    8.2673    0.0000 C   0  0  0  0  0  0  0  0  0  0  0  0
   -6.6054    2.2939    0.0000 C   0  0  0  0  0  0  0  0  0  0  0  0
   -6.1953    1.5781    0.0000 C   0  0  0  0  0  0  0  0  0  0  0  0
   -6.2329    3.7255    0.0000 O   0  0  0  0  0  0  0  0  0  0  0  0
   -4.7720    1.1888    0.0000 O   0  0  0  0  0  0  0  0  0  0  0  0
   -1.8418    9.5440    0.0000 C   0  0  0  0  0  0  0  0  0  0  0  0
   -1.1762    9.0585    0.0000 C   0  0  0  0  0  0  0  0  0  0  0  0
   -5.3245    4.2237    0.0000 O   0  0  0  0  0  0  0  0  0  0  0  0
   -3.8804    4.2237    0.0000 N   0  0  0  0  0  0  0  0  0  0  0  0
   -3.1646    5.4752    0.0000 C   0  0  0  0  0  0  0  0  0  0  0  0
   -3.8804    5.0650    0.0000 C   0  0  0  0  0  0  0  0  0  0  0  0
  2  6  1  0  0  0  0
  3  2  2  0  0  0  0
  4  1  1  0  0  0  0
  5  1  1  0  0  0  0
  6 22  1  0  0  0  0
  7  9  2  0  0  0  0
  8  3  1  0  0  0  0
  9  6  1  0  0  0  0
 10  1  1  0  0  0  0
 11  8  1  0  0  0  0
 12 10  1  0  0  0  0
 13  8  2  0  0  0  0
 14  5  1  0  0  0  0
 15  4  1  0  0  0  0
 16  5  2  0  0  0  0
 17  4  2  0  0  0  0
 18 11  1  0  0  0  0
 19 13  1  0  0  0  0
 20 12  2  0  0  0  0
 21 12  1  0  0  0  0
 22 23  1  0  0  0  0
 23 21  1  0  0  0  0
 14 15  1  0  0  0  0
  7  3  1  0  0  0  0
 19 18  2  0  0  0  0
M  END
>  <IDNUMBER>
F6439-5046

>  <Chemical_Name>
2-(2,5-dioxopyrrolidin-1-yl)-N-{2-[3-(thiophen-2-yl)-1H-pyrazol-1-yl]ethyl}acetamide

>  <PriceCoeff>
1.00

>  <CAS>
1796991-26-8

>  <MW>
332.38

>  <Description>
oil

>  <FSP3>
0.33

>  <clogP>
1.32

>  <TPSA>
112.54

>  <Acceptor>
4

>  <Donor>
1

>  <RotBonds>
6

>  <HAC>
23

>  <Collection>
General

>  <PPDS>
+

$$$$
F6439-8110
  Mrv2219 10102508112D          

 26 29  0  0  0  0            999 V2000
   -2.4881    6.7684    0.0000 C   0  0  0  0  0  0  0  0  0  0  0  0
   -2.7507    7.5561    0.0000 N   0  0  0  0  0  0  0  0  0  0  0  0
   -1.6587    6.7767    0.0000 C   0  0  0  0  0  0  0  0  0  0  0  0
   -5.2846    2.5715    0.0000 N   0  0  0  0  0  0  0  0  0  0  0  0
   -2.0838    8.0521    0.0000 N   0  0  0  0  0  0  0  0  0  0  0  0
   -1.4212    7.5561    0.0000 C   0  0  0  0  0  0  0  0  0  0  0  0
   -3.1591    6.2808    0.0000 N   0  0  0  0  0  0  0  0  0  0  0  0
   -3.5759    7.5519    0.0000 C   0  0  0  0  0  0  0  0  0  0  0  0
   -5.3722    1.7462    0.0000 C   0  0  0  0  0  0  0  0  0  0  0  0
   -6.0307    2.9007    0.0000 C   0  0  0  0  0  0  0  0  0  0  0  0
   -0.6335    7.8270    0.0000 C   0  0  0  0  0  0  0  0  0  0  0  0
   -3.8343    6.7684    0.0000 C   0  0  0  0  0  0  0  0  0  0  0  0
   -4.5845    2.9883    0.0000 C   0  0  0  0  0  0  0  0  0  0  0  0
   -4.5845    3.8010    0.0000 C   0  0  0  0  0  0  0  0  0  0  0  0
   -0.3709    8.6189    0.0000 O   0  0  0  0  0  0  0  0  0  0  0  0
    0.0417    7.3436    0.0000 C   0  0  0  0  0  0  0  0  0  0  0  0
   -6.5767    2.2839    0.0000 C   0  0  0  0  0  0  0  0  0  0  0  0
   -6.1683    1.5712    0.0000 C   0  0  0  0  0  0  0  0  0  0  0  0
   -6.2058    3.7092    0.0000 O   0  0  0  0  0  0  0  0  0  0  0  0
   -4.7512    1.1836    0.0000 O   0  0  0  0  0  0  0  0  0  0  0  0
    0.4501    8.6272    0.0000 C   0  0  0  0  0  0  0  0  0  0  0  0
    0.7044    7.8437    0.0000 C   0  0  0  0  0  0  0  0  0  0  0  0
   -5.3014    4.2053    0.0000 O   0  0  0  0  0  0  0  0  0  0  0  0
   -3.8635    4.2053    0.0000 N   0  0  0  0  0  0  0  0  0  0  0  0
   -3.1591    5.4514    0.0000 C   0  0  0  0  0  0  0  0  0  0  0  0
   -3.8635    5.0305    0.0000 C   0  0  0  0  0  0  0  0  0  0  0  0
  2  1  1  0  0  0  0
  3  1  2  0  0  0  0
  4 13  1  0  0  0  0
  5  2  1  0  0  0  0
  6  3  1  0  0  0  0
  7  1  1  0  0  0  0
  8  2  1  0  0  0  0
  9  4  1  0  0  0  0
 10  4  1  0  0  0  0
 11  6  1  0  0  0  0
 12  7  1  0  0  0  0
 13 14  1  0  0  0  0
 14 24  1  0  0  0  0
 15 11  1  0  0  0  0
 16 11  2  0  0  0  0
 17 10  1  0  0  0  0
 18  9  1  0  0  0  0
 19 10  2  0  0  0  0
 20  9  2  0  0  0  0
 21 15  1  0  0  0  0
 22 16  1  0  0  0  0
 23 14  2  0  0  0  0
 24 26  1  0  0  0  0
 25  7  1  0  0  0  0
 26 25  1  0  0  0  0
 12  8  2  0  0  0  0
  6  5  2  0  0  0  0
 22 21  2  0  0  0  0
 17 18  1  0  0  0  0
M  END
>  <IDNUMBER>
F6439-8110

>  <Chemical_Name>
2-(2,5-dioxopyrrolidin-1-yl)-N-{2-[6-(furan-2-yl)-1H-pyrazolo[1,5-a]imidazol-1-yl]ethyl}acetamide

>  <PriceCoeff>
1.00

>  <CAS>
1798513-05-9

>  <MW>
355.35

>  <Description>
solid

>  <FSP3>
0.29

>  <clogP>
1.16

>  <TPSA>
101.85

>  <Acceptor>
5

>  <Donor>
1

>  <RotBonds>
6

>  <HAC>
26

>  <Collection>
General

>  <PPDS>
+

$$$$
F6440-2328
  Mrv2219 10102508112D          

 21 23  0  0  0  0            999 V2000
   -3.0709    6.2666    0.0000 N   0  0  0  0  0  0  0  0  0  0  0  0
   -2.2678    6.4414    0.0000 N   0  0  0  0  0  0  0  0  0  0  0  0
   -2.4051    5.1098    0.0000 C   0  0  0  0  0  0  0  0  0  0  0  0
   -3.1541    5.4427    0.0000 C   0  0  0  0  0  0  0  0  0  0  0  0
   -1.8475    5.7216    0.0000 C   0  0  0  0  0  0  0  0  0  0  0  0
   -4.5772    3.7949    0.0000 C   0  0  0  0  0  0  0  0  0  0  0  0
   -3.8574    4.1986    0.0000 N   0  0  0  0  0  0  0  0  0  0  0  0
   -4.5772    2.9793    0.0000 C   0  0  0  0  0  0  0  0  0  0  0  0
   -3.8574    5.0350    0.0000 C   0  0  0  0  0  0  0  0  0  0  0  0
   -5.2929    4.1986    0.0000 O   0  0  0  0  0  0  0  0  0  0  0  0
   -5.2929    2.5798    0.0000 C   0  0  0  0  0  0  0  0  0  0  0  0
   -2.1472    4.3234    0.0000 C   0  0  0  0  0  0  0  0  0  0  0  0
   -1.9349    7.1946    0.0000 C   0  0  0  0  0  0  0  0  0  0  0  0
   -1.0361    5.5676    0.0000 C   0  0  0  0  0  0  0  0  0  0  0  0
   -3.8699    2.5674    0.0000 C   0  0  0  0  0  0  0  0  0  0  0  0
   -5.9921    2.9960    0.0000 C   0  0  0  0  0  0  0  0  0  0  0  0
   -5.3012    1.7352    0.0000 C   0  0  0  0  0  0  0  0  0  0  0  0
   -1.3358    4.1612    0.0000 C   0  0  0  0  0  0  0  0  0  0  0  0
   -0.7822    4.7729    0.0000 C   0  0  0  0  0  0  0  0  0  0  0  0
   -3.8781    1.7352    0.0000 C   0  0  0  0  0  0  0  0  0  0  0  0
   -4.5897    1.3233    0.0000 C   0  0  0  0  0  0  0  0  0  0  0  0
  2  1  1  0  0  0  0
  3  4  1  0  0  0  0
  4  1  2  0  0  0  0
  5  2  1  0  0  0  0
  6  7  1  0  0  0  0
  7  9  1  0  0  0  0
  8  6  1  0  0  0  0
  9  4  1  0  0  0  0
 10  6  2  0  0  0  0
 11  8  2  0  0  0  0
 12  3  1  0  0  0  0
 13  2  1  0  0  0  0
 14  5  1  0  0  0  0
 15  8  1  0  0  0  0
 16 11  1  0  0  0  0
 17 11  1  0  0  0  0
 18 12  1  0  0  0  0
 19 14  1  0  0  0  0
 20 15  2  0  0  0  0
 21 20  1  0  0  0  0
  5  3  2  0  0  0  0
 18 19  1  0  0  0  0
 17 21  2  0  0  0  0
M  END
>  <IDNUMBER>
F6440-2328

>  <Chemical_Name>
2-methyl-N-[(1-methyl-4,5,6,7-tetrahydro-1H-indazol-3-yl)methyl]benzamide

>  <PriceCoeff>
1.50

>  <CAS>
1448076-76-3

>  <MW>
283.37

>  <Description>
solid

>  <FSP3>
0.41

>  <clogP>
2.22

>  <TPSA>
46.92

>  <Acceptor>
2

>  <Donor>
1

>  <RotBonds>
3

>  <HAC>
21

>  <Collection>
Advanced

>  <PPDS>
+

$$$$
F6440-2354
  Mrv2219 10102508112D          

 22 24  0  0  0  0            999 V2000
   -3.0676    6.2598    0.0000 N   0  0  0  0  0  0  0  0  0  0  0  0
   -2.2653    6.4344    0.0000 N   0  0  0  0  0  0  0  0  0  0  0  0
   -2.4025    5.1043    0.0000 C   0  0  0  0  0  0  0  0  0  0  0  0
   -3.1507    5.4368    0.0000 C   0  0  0  0  0  0  0  0  0  0  0  0
   -1.8455    5.7153    0.0000 C   0  0  0  0  0  0  0  0  0  0  0  0
   -4.5722    2.9761    0.0000 C   0  0  0  0  0  0  0  0  0  0  0  0
   -4.5722    3.7908    0.0000 C   0  0  0  0  0  0  0  0  0  0  0  0
   -3.8531    4.1940    0.0000 N   0  0  0  0  0  0  0  0  0  0  0  0
   -3.8531    5.0295    0.0000 C   0  0  0  0  0  0  0  0  0  0  0  0
   -5.2872    2.5770    0.0000 C   0  0  0  0  0  0  0  0  0  0  0  0
   -5.2830    4.2065    0.0000 O   0  0  0  0  0  0  0  0  0  0  0  0
   -2.1448    4.3187    0.0000 C   0  0  0  0  0  0  0  0  0  0  0  0
   -1.9328    7.1868    0.0000 C   0  0  0  0  0  0  0  0  0  0  0  0
   -1.0350    5.5615    0.0000 C   0  0  0  0  0  0  0  0  0  0  0  0
   -3.8739    2.5770    0.0000 C   0  0  0  0  0  0  0  0  0  0  0  0
   -5.9855    2.9803    0.0000 O   0  0  0  0  0  0  0  0  0  0  0  0
   -5.2872    1.7416    0.0000 C   0  0  0  0  0  0  0  0  0  0  0  0
   -6.7004    2.5770    0.0000 C   0  0  0  0  0  0  0  0  0  0  0  0
   -1.3343    4.1566    0.0000 C   0  0  0  0  0  0  0  0  0  0  0  0
   -0.7814    4.7676    0.0000 C   0  0  0  0  0  0  0  0  0  0  0  0
   -3.8407    1.7458    0.0000 C   0  0  0  0  0  0  0  0  0  0  0  0
   -4.5722    1.3301    0.0000 C   0  0  0  0  0  0  0  0  0  0  0  0
  2  1  1  0  0  0  0
  3  4  1  0  0  0  0
  4  1  2  0  0  0  0
  5  2  1  0  0  0  0
  6  7  1  0  0  0  0
  7  8  1  0  0  0  0
  8  9  1  0  0  0  0
  9  4  1  0  0  0  0
 10  6  2  0  0  0  0
 11  7  2  0  0  0  0
 12  3  1  0  0  0  0
 13  2  1  0  0  0  0
 14  5  1  0  0  0  0
 15  6  1  0  0  0  0
 16 10  1  0  0  0  0
 17 10  1  0  0  0  0
 18 16  1  0  0  0  0
 19 12  1  0  0  0  0
 20 14  1  0  0  0  0
 21 15  2  0  0  0  0
 22 21  1  0  0  0  0
  5  3  2  0  0  0  0
 19 20  1  0  0  0  0
 17 22  2  0  0  0  0
M  END
>  <IDNUMBER>
F6440-2354

>  <Chemical_Name>
2-methoxy-N-[(1-methyl-4,5,6,7-tetrahydro-1H-indazol-3-yl)methyl]benzamide

>  <PriceCoeff>
1.50

>  <CAS>
1448063-19-1

>  <MW>
299.37

>  <Description>
solid

>  <FSP3>
0.41

>  <clogP>
2.19

>  <TPSA>
56.15

>  <Acceptor>
3

>  <Donor>
1

>  <RotBonds>
4

>  <HAC>
22

>  <Collection>
Advanced

>  <PPDS>
+

$$$$
F6440-2355
  Mrv2219 10102508112D          

 22 24  0  0  0  0            999 V2000
   -3.0698    6.2644    0.0000 N   0  0  0  0  0  0  0  0  0  0  0  0
   -2.2670    6.4391    0.0000 N   0  0  0  0  0  0  0  0  0  0  0  0
   -2.4042    5.1081    0.0000 C   0  0  0  0  0  0  0  0  0  0  0  0
   -3.1530    5.4408    0.0000 C   0  0  0  0  0  0  0  0  0  0  0  0
   -1.8469    5.7195    0.0000 C   0  0  0  0  0  0  0  0  0  0  0  0
   -4.5756    3.7936    0.0000 C   0  0  0  0  0  0  0  0  0  0  0  0
   -3.8560    4.1971    0.0000 N   0  0  0  0  0  0  0  0  0  0  0  0
   -4.5880    2.9783    0.0000 C   0  0  0  0  0  0  0  0  0  0  0  0
   -3.8560    5.0332    0.0000 C   0  0  0  0  0  0  0  0  0  0  0  0
   -5.3118    4.1971    0.0000 O   0  0  0  0  0  0  0  0  0  0  0  0
   -5.2744    2.5582    0.0000 C   0  0  0  0  0  0  0  0  0  0  0  0
   -2.1464    4.3219    0.0000 C   0  0  0  0  0  0  0  0  0  0  0  0
   -1.9342    7.1920    0.0000 C   0  0  0  0  0  0  0  0  0  0  0  0
   -5.2619    1.7346    0.0000 C   0  0  0  0  0  0  0  0  0  0  0  0
   -1.0357    5.5656    0.0000 C   0  0  0  0  0  0  0  0  0  0  0  0
   -5.9732    1.3103    0.0000 O   0  0  0  0  0  0  0  0  0  0  0  0
   -3.8643    2.5789    0.0000 C   0  0  0  0  0  0  0  0  0  0  0  0
   -3.8435    1.7678    0.0000 C   0  0  0  0  0  0  0  0  0  0  0  0
   -4.5506    1.3310    0.0000 C   0  0  0  0  0  0  0  0  0  0  0  0
   -5.9482    0.4742    0.0000 C   0  0  0  0  0  0  0  0  0  0  0  0
   -1.3352    4.1597    0.0000 C   0  0  0  0  0  0  0  0  0  0  0  0
   -0.7820    4.7711    0.0000 C   0  0  0  0  0  0  0  0  0  0  0  0
  2  1  1  0  0  0  0
  3  4  1  0  0  0  0
  4  1  2  0  0  0  0
  5  2  1  0  0  0  0
  6  7  1  0  0  0  0
  7  9  1  0  0  0  0
  8  6  1  0  0  0  0
  9  4  1  0  0  0  0
 10  6  2  0  0  0  0
 11  8  2  0  0  0  0
 12  3  1  0  0  0  0
 13  2  1  0  0  0  0
 14 11  1  0  0  0  0
 15  5  1  0  0  0  0
 16 14  1  0  0  0  0
 17  8  1  0  0  0  0
 18 17  2  0  0  0  0
 19 18  1  0  0  0  0
 20 16  1  0  0  0  0
 21 12  1  0  0  0  0
 22 15  1  0  0  0  0
  5  3  2  0  0  0  0
 21 22  1  0  0  0  0
 14 19  2  0  0  0  0
M  END
>  <IDNUMBER>
F6440-2355

>  <Chemical_Name>
3-methoxy-N-[(1-methyl-4,5,6,7-tetrahydro-1H-indazol-3-yl)methyl]benzamide

>  <PriceCoeff>
1.50

>  <CAS>
1448125-33-4

>  <MW>
299.37

>  <Description>
solid

>  <FSP3>
0.41

>  <clogP>
2.26

>  <TPSA>
56.15

>  <Acceptor>
3

>  <Donor>
1

>  <RotBonds>
4

>  <HAC>
22

>  <Collection>
Advanced

>  <PPDS>
+

$$$$
F6440-2409
  Mrv2219 10102508112D          

 24 26  0  0  0  0            999 V2000
   -3.0676    6.2598    0.0000 N   0  0  0  0  0  0  0  0  0  0  0  0
   -2.2653    6.4344    0.0000 N   0  0  0  0  0  0  0  0  0  0  0  0
   -2.4025    5.1043    0.0000 C   0  0  0  0  0  0  0  0  0  0  0  0
   -3.1507    5.4368    0.0000 C   0  0  0  0  0  0  0  0  0  0  0  0
   -1.8455    5.7153    0.0000 C   0  0  0  0  0  0  0  0  0  0  0  0
   -4.5722    3.7908    0.0000 C   0  0  0  0  0  0  0  0  0  0  0  0
   -3.8531    5.0295    0.0000 C   0  0  0  0  0  0  0  0  0  0  0  0
   -3.8531    4.1940    0.0000 N   0  0  0  0  0  0  0  0  0  0  0  0
   -5.2705    4.1898    0.0000 O   0  0  0  0  0  0  0  0  0  0  0  0
   -4.5722    2.9761    0.0000 C   0  0  0  0  0  0  0  0  0  0  0  0
   -2.1448    4.3187    0.0000 C   0  0  0  0  0  0  0  0  0  0  0  0
   -1.9328    7.1868    0.0000 C   0  0  0  0  0  0  0  0  0  0  0  0
   -5.2954    1.7458    0.0000 C   0  0  0  0  0  0  0  0  0  0  0  0
   -5.3079    0.0873    0.0000 C   0  0  0  0  0  0  0  0  0  0  0  0
   -1.0350    5.5615    0.0000 C   0  0  0  0  0  0  0  0  0  0  0  0
   -5.2830    2.5770    0.0000 C   0  0  0  0  0  0  0  0  0  0  0  0
   -4.5722    1.3218    0.0000 C   0  0  0  0  0  0  0  0  0  0  0  0
   -6.0021    1.3467    0.0000 C   0  0  0  0  0  0  0  0  0  0  0  0
   -6.0104    0.5237    0.0000 C   0  0  0  0  0  0  0  0  0  0  0  0
   -4.5847    0.4988    0.0000 C   0  0  0  0  0  0  0  0  0  0  0  0
   -5.3204   -0.7274    0.0000 O   0  0  0  0  0  0  0  0  0  0  0  0
   -6.0146   -1.1265    0.0000 C   0  0  0  0  0  0  0  0  0  0  0  0
   -1.3343    4.1566    0.0000 C   0  0  0  0  0  0  0  0  0  0  0  0
   -0.7814    4.7676    0.0000 C   0  0  0  0  0  0  0  0  0  0  0  0
  2  1  1  0  0  0  0
  3  4  1  0  0  0  0
  4  1  2  0  0  0  0
  5  2  1  0  0  0  0
  6  8  1  0  0  0  0
  7  4  1  0  0  0  0
  8  7  1  0  0  0  0
  9  6  2  0  0  0  0
 10  6  1  0  0  0  0
 11  3  1  0  0  0  0
 12  2  1  0  0  0  0
 13 16  1  0  0  0  0
 14 19  2  0  0  0  0
 15  5  1  0  0  0  0
 16 10  1  0  0  0  0
 17 13  1  0  0  0  0
 18 13  2  0  0  0  0
 19 18  1  0  0  0  0
 20 17  2  0  0  0  0
 21 14  1  0  0  0  0
 22 21  1  0  0  0  0
 23 11  1  0  0  0  0
 24 15  1  0  0  0  0
  5  3  2  0  0  0  0
 23 24  1  0  0  0  0
 20 14  1  0  0  0  0
M  END
>  <IDNUMBER>
F6440-2409

>  <Chemical_Name>
3-(4-methoxyphenyl)-N-[(1-methyl-4,5,6,7-tetrahydro-1H-indazol-3-yl)methyl]propanamide

>  <PriceCoeff>
1.50

>  <CAS>
1448122-77-7

>  <MW>
327.42

>  <Description>
solid

>  <FSP3>
0.47

>  <clogP>
2.19

>  <TPSA>
56.15

>  <Acceptor>
3

>  <Donor>
1

>  <RotBonds>
6

>  <HAC>
24

>  <Collection>
Advanced

>  <PPDS>
+

$$$$
F6440-2434
  Mrv2219 10102508112D          

 24 26  0  0  0  0            999 V2000
   -3.0676    6.2598    0.0000 N   0  0  0  0  0  0  0  0  0  0  0  0
   -2.2653    6.4344    0.0000 N   0  0  0  0  0  0  0  0  0  0  0  0
   -2.4025    5.1043    0.0000 C   0  0  0  0  0  0  0  0  0  0  0  0
   -3.1507    5.4368    0.0000 C   0  0  0  0  0  0  0  0  0  0  0  0
   -1.8455    5.7153    0.0000 C   0  0  0  0  0  0  0  0  0  0  0  0
   -6.0104    1.3301    0.0000 C   0  0  0  0  0  0  0  0  0  0  0  0
   -4.5722    3.7908    0.0000 C   0  0  0  0  0  0  0  0  0  0  0  0
   -5.2996    1.7416    0.0000 C   0  0  0  0  0  0  0  0  0  0  0  0
   -3.8531    4.1940    0.0000 N   0  0  0  0  0  0  0  0  0  0  0  0
   -4.5722    2.9761    0.0000 C   0  0  0  0  0  0  0  0  0  0  0  0
   -5.2954    2.5646    0.0000 C   0  0  0  0  0  0  0  0  0  0  0  0
   -3.8531    5.0295    0.0000 C   0  0  0  0  0  0  0  0  0  0  0  0
   -5.2872    4.1940    0.0000 O   0  0  0  0  0  0  0  0  0  0  0  0
   -6.0104    0.5195    0.0000 F   0  0  0  0  0  0  0  0  0  0  0  0
   -6.7129    0.9310    0.0000 F   0  0  0  0  0  0  0  0  0  0  0  0
   -6.7129    1.7416    0.0000 F   0  0  0  0  0  0  0  0  0  0  0  0
   -2.1448    4.3187    0.0000 C   0  0  0  0  0  0  0  0  0  0  0  0
   -1.9328    7.1868    0.0000 C   0  0  0  0  0  0  0  0  0  0  0  0
   -1.0350    5.5615    0.0000 C   0  0  0  0  0  0  0  0  0  0  0  0
   -4.5847    1.3176    0.0000 C   0  0  0  0  0  0  0  0  0  0  0  0
   -3.8531    2.5521    0.0000 C   0  0  0  0  0  0  0  0  0  0  0  0
   -3.8656    1.7208    0.0000 C   0  0  0  0  0  0  0  0  0  0  0  0
   -1.3343    4.1566    0.0000 C   0  0  0  0  0  0  0  0  0  0  0  0
   -0.7814    4.7676    0.0000 C   0  0  0  0  0  0  0  0  0  0  0  0
  2  1  1  0  0  0  0
  3  4  1  0  0  0  0
  4  1  2  0  0  0  0
  5  2  1  0  0  0  0
  6  8  1  0  0  0  0
  7  9  1  0  0  0  0
  8 11  1  0  0  0  0
  9 12  1  0  0  0  0
 10  7  1  0  0  0  0
 11 10  2  0  0  0  0
 12  4  1  0  0  0  0
 13  7  2  0  0  0  0
 14  6  1  0  0  0  0
 15  6  1  0  0  0  0
 16  6  1  0  0  0  0
 17  3  1  0  0  0  0
 18  2  1  0  0  0  0
 19  5  1  0  0  0  0
 20 22  1  0  0  0  0
 21 10  1  0  0  0  0
 22 21  2  0  0  0  0
 23 17  1  0  0  0  0
 24 19  1  0  0  0  0
  5  3  2  0  0  0  0
 23 24  1  0  0  0  0
  8 20  2  0  0  0  0
M  END
>  <IDNUMBER>
F6440-2434

>  <Chemical_Name>
N-[(1-methyl-4,5,6,7-tetrahydro-1H-indazol-3-yl)methyl]-3-(trifluoromethyl)benzamide

>  <PriceCoeff>
1.50

>  <CAS>
1448063-28-2

>  <MW>
337.34

>  <Description>
solid

>  <FSP3>
0.41

>  <clogP>
3.29

>  <TPSA>
46.92

>  <Acceptor>
2

>  <Donor>
1

>  <RotBonds>
3

>  <HAC>
24

>  <Collection>
Advanced

>  <PPDS>
+

$$$$
F6440-2510
  Mrv2219 10102508112D          

 25 27  0  0  0  0            999 V2000
   -3.0709    6.2666    0.0000 N   0  0  0  0  0  0  0  0  0  0  0  0
   -2.2678    6.4414    0.0000 N   0  0  0  0  0  0  0  0  0  0  0  0
   -2.4051    5.1098    0.0000 C   0  0  0  0  0  0  0  0  0  0  0  0
   -3.1541    5.4427    0.0000 C   0  0  0  0  0  0  0  0  0  0  0  0
   -1.8475    5.7216    0.0000 C   0  0  0  0  0  0  0  0  0  0  0  0
   -3.8699    0.0999    0.0000 C   0  0  0  0  0  0  0  0  0  0  0  0
   -4.5772    3.7949    0.0000 C   0  0  0  0  0  0  0  0  0  0  0  0
   -3.8574    4.1986    0.0000 N   0  0  0  0  0  0  0  0  0  0  0  0
   -3.8574    5.0350    0.0000 C   0  0  0  0  0  0  0  0  0  0  0  0
   -4.5772    2.9793    0.0000 C   0  0  0  0  0  0  0  0  0  0  0  0
   -4.5772    0.5076    0.0000 O   0  0  0  0  0  0  0  0  0  0  0  0
   -5.2887    4.1986    0.0000 O   0  0  0  0  0  0  0  0  0  0  0  0
   -5.2804    2.5674    0.0000 C   0  0  0  0  0  0  0  0  0  0  0  0
   -3.8657    2.5549    0.0000 C   0  0  0  0  0  0  0  0  0  0  0  0
   -3.1458   -0.3288    0.0000 F   0  0  0  0  0  0  0  0  0  0  0  0
   -4.2818   -0.6241    0.0000 F   0  0  0  0  0  0  0  0  0  0  0  0
   -3.4537    0.8072    0.0000 F   0  0  0  0  0  0  0  0  0  0  0  0
   -4.5772    1.3316    0.0000 C   0  0  0  0  0  0  0  0  0  0  0  0
   -2.1472    4.3234    0.0000 C   0  0  0  0  0  0  0  0  0  0  0  0
   -1.9349    7.1946    0.0000 C   0  0  0  0  0  0  0  0  0  0  0  0
   -1.0361    5.5676    0.0000 C   0  0  0  0  0  0  0  0  0  0  0  0
   -5.2887    1.7352    0.0000 C   0  0  0  0  0  0  0  0  0  0  0  0
   -3.8699    1.7435    0.0000 C   0  0  0  0  0  0  0  0  0  0  0  0
   -1.3358    4.1612    0.0000 C   0  0  0  0  0  0  0  0  0  0  0  0
   -0.7822    4.7729    0.0000 C   0  0  0  0  0  0  0  0  0  0  0  0
  2  1  1  0  0  0  0
  3  4  1  0  0  0  0
  4  1  2  0  0  0  0
  5  2  1  0  0  0  0
  6 11  1  0  0  0  0
  7  8  1  0  0  0  0
  8  9  1  0  0  0  0
  9  4  1  0  0  0  0
 10  7  1  0  0  0  0
 11 18  1  0  0  0  0
 12  7  2  0  0  0  0
 13 10  1  0  0  0  0
 14 10  2  0  0  0  0
 15  6  1  0  0  0  0
 16  6  1  0  0  0  0
 17  6  1  0  0  0  0
 18 23  2  0  0  0  0
 19  3  1  0  0  0  0
 20  2  1  0  0  0  0
 21  5  1  0  0  0  0
 22 13  2  0  0  0  0
 23 14  1  0  0  0  0
 24 19  1  0  0  0  0
 25 21  1  0  0  0  0
  5  3  2  0  0  0  0
 24 25  1  0  0  0  0
 22 18  1  0  0  0  0
M  END
>  <IDNUMBER>
F6440-2510

>  <Chemical_Name>
N-[(1-methyl-4,5,6,7-tetrahydro-1H-indazol-3-yl)methyl]-4-(trifluoromethoxy)benzamide

>  <PriceCoeff>
1.50

>  <CAS>
1448076-96-7

>  <MW>
353.34

>  <Description>
solid

>  <FSP3>
0.41

>  <clogP>
3.37

>  <TPSA>
56.15

>  <Acceptor>
3

>  <Donor>
1

>  <RotBonds>
4

>  <HAC>
25

>  <Collection>
Advanced

>  <PPDS>
+

$$$$
F6440-2748
  Mrv2219 10102508112D          

 26 29  0  0  0  0            999 V2000
   -2.2862    6.4625    0.0000 N   0  0  0  0  0  0  0  0  0  0  0  0
   -3.0873    6.2873    0.0000 N   0  0  0  0  0  0  0  0  0  0  0  0
   -5.2901    2.5741    0.0000 N   0  0  0  0  0  0  0  0  0  0  0  0
   -1.8607    5.7491    0.0000 C   0  0  0  0  0  0  0  0  0  0  0  0
   -2.4114    5.1316    0.0000 C   0  0  0  0  0  0  0  0  0  0  0  0
   -3.1666    5.4570    0.0000 C   0  0  0  0  0  0  0  0  0  0  0  0
   -5.3777    1.7481    0.0000 C   0  0  0  0  0  0  0  0  0  0  0  0
   -6.0370    2.9037    0.0000 C   0  0  0  0  0  0  0  0  0  0  0  0
   -4.5892    2.9914    0.0000 C   0  0  0  0  0  0  0  0  0  0  0  0
   -4.5892    3.8049    0.0000 C   0  0  0  0  0  0  0  0  0  0  0  0
   -3.8675    5.0482    0.0000 C   0  0  0  0  0  0  0  0  0  0  0  0
   -1.9608    7.2260    0.0000 C   0  0  0  0  0  0  0  0  0  0  0  0
   -3.8675    4.2096    0.0000 N   0  0  0  0  0  0  0  0  0  0  0  0
   -6.1746    1.5728    0.0000 C   0  0  0  0  0  0  0  0  0  0  0  0
   -6.5835    2.2862    0.0000 C   0  0  0  0  0  0  0  0  0  0  0  0
   -4.7561    1.1848    0.0000 O   0  0  0  0  0  0  0  0  0  0  0  0
   -6.2122    3.7131    0.0000 O   0  0  0  0  0  0  0  0  0  0  0  0
   -5.3068    4.2096    0.0000 O   0  0  0  0  0  0  0  0  0  0  0  0
   -2.1528    4.3473    0.0000 C   0  0  0  0  0  0  0  0  0  0  0  0
   -1.0514    5.5989    0.0000 C   0  0  0  0  0  0  0  0  0  0  0  0
   -1.1515    7.4263    0.0000 C   0  0  0  0  0  0  0  0  0  0  0  0
   -2.3864    7.9352    0.0000 C   0  0  0  0  0  0  0  0  0  0  0  0
   -1.3350    4.1971    0.0000 C   0  0  0  0  0  0  0  0  0  0  0  0
   -0.7885    4.8104    0.0000 C   0  0  0  0  0  0  0  0  0  0  0  0
   -1.8482    8.5610    0.0000 C   0  0  0  0  0  0  0  0  0  0  0  0
   -1.0764    8.2398    0.0000 C   0  0  0  0  0  0  0  0  0  0  0  0
  2  1  1  0  0  0  0
  3  9  1  0  0  0  0
  4  1  1  0  0  0  0
  5  4  2  0  0  0  0
  6  2  2  0  0  0  0
  7  3  1  0  0  0  0
  8  3  1  0  0  0  0
  9 10  1  0  0  0  0
 10 13  1  0  0  0  0
 11  6  1  0  0  0  0
 12  1  1  0  0  0  0
 13 11  1  0  0  0  0
 14  7  1  0  0  0  0
 15  8  1  0  0  0  0
 16  7  2  0  0  0  0
 17  8  2  0  0  0  0
 18 10  2  0  0  0  0
 19  5  1  0  0  0  0
 20  4  1  0  0  0  0
 21 12  1  0  0  0  0
 22 12  1  0  0  0  0
 23 24  1  0  0  0  0
 24 20  1  0  0  0  0
 25 22  1  0  0  0  0
 26 21  1  0  0  0  0
  6  5  1  0  0  0  0
 26 25  1  0  0  0  0
 23 19  1  0  0  0  0
 14 15  1  0  0  0  0
M  END
>  <IDNUMBER>
F6440-2748

>  <Chemical_Name>
N-[(1-cyclopentyl-4,5,6,7-tetrahydro-1H-indazol-3-yl)methyl]-2-(2,5-dioxopyrrolidin-1-yl)acetamide

>  <PriceCoeff>
1.00

>  <CAS>
1448063-02-2

>  <MW>
358.43

>  <Description>
solid

>  <FSP3>
0.68

>  <clogP>
1.34

>  <TPSA>
84.30

>  <Acceptor>
4

>  <Donor>
1

>  <RotBonds>
5

>  <HAC>
26

>  <Collection>
General

>  <PPDS>
+

$$$$
F6440-4280
  Mrv2219 10102508112D          

 25 28  0  0  0  0            999 V2000
   -2.2748    6.4656    0.0000 N   0  0  0  0  0  0  0  0  0  0  0  0
   -5.2927    2.5754    0.0000 N   0  0  0  0  0  0  0  0  0  0  0  0
   -1.8491    5.7519    0.0000 C   0  0  0  0  0  0  0  0  0  0  0  0
   -3.0805    6.2861    0.0000 N   0  0  0  0  0  0  0  0  0  0  0  0
   -2.4043    5.1341    0.0000 C   0  0  0  0  0  0  0  0  0  0  0  0
   -5.3803    1.7489    0.0000 C   0  0  0  0  0  0  0  0  0  0  0  0
   -6.0399    2.9051    0.0000 C   0  0  0  0  0  0  0  0  0  0  0  0
   -3.1639    5.4639    0.0000 C   0  0  0  0  0  0  0  0  0  0  0  0
   -1.0351    5.6642    0.0000 C   0  0  0  0  0  0  0  0  0  0  0  0
   -0.2755    6.0106    0.0000 C   0  0  0  0  0  0  0  0  0  0  0  0
   -0.3589    5.1884    0.0000 C   0  0  0  0  0  0  0  0  0  0  0  0
   -4.5914    2.9928    0.0000 C   0  0  0  0  0  0  0  0  0  0  0  0
   -4.5914    3.8067    0.0000 C   0  0  0  0  0  0  0  0  0  0  0  0
   -1.9367    7.2295    0.0000 C   0  0  0  0  0  0  0  0  0  0  0  0
   -3.8694    4.2117    0.0000 N   0  0  0  0  0  0  0  0  0  0  0  0
   -6.5867    2.2874    0.0000 C   0  0  0  0  0  0  0  0  0  0  0  0
   -6.1776    1.5736    0.0000 C   0  0  0  0  0  0  0  0  0  0  0  0
   -6.2152    3.7149    0.0000 O   0  0  0  0  0  0  0  0  0  0  0  0
   -4.7584    1.1854    0.0000 O   0  0  0  0  0  0  0  0  0  0  0  0
   -5.3094    4.2117    0.0000 O   0  0  0  0  0  0  0  0  0  0  0  0
   -3.8694    5.0506    0.0000 C   0  0  0  0  0  0  0  0  0  0  0  0
   -2.3625    7.9391    0.0000 C   0  0  0  0  0  0  0  0  0  0  0  0
   -1.1353    7.4131    0.0000 C   0  0  0  0  0  0  0  0  0  0  0  0
   -1.0602    8.2313    0.0000 C   0  0  0  0  0  0  0  0  0  0  0  0
   -1.8115    8.5569    0.0000 C   0  0  0  0  0  0  0  0  0  0  0  0
  2 12  1  0  0  0  0
  3  1  1  0  0  0  0
  4  1  1  0  0  0  0
  5  3  2  0  0  0  0
  6  2  1  0  0  0  0
  7  2  1  0  0  0  0
  8  4  2  0  0  0  0
  9  3  1  0  0  0  0
 10  9  1  0  0  0  0
 11  9  1  0  0  0  0
 12 13  1  0  0  0  0
 13 15  1  0  0  0  0
 14  1  1  0  0  0  0
 15 21  1  0  0  0  0
 16  7  1  0  0  0  0
 17  6  1  0  0  0  0
 18  7  2  0  0  0  0
 19  6  2  0  0  0  0
 20 13  2  0  0  0  0
 21  8  1  0  0  0  0
 22 14  1  0  0  0  0
 23 14  1  0  0  0  0
 24 23  1  0  0  0  0
 25 22  1  0  0  0  0
  5  8  1  0  0  0  0
 25 24  1  0  0  0  0
 10 11  1  0  0  0  0
 17 16  1  0  0  0  0
M  END
>  <IDNUMBER>
F6440-4280

>  <Chemical_Name>
N-[(1-cyclopentyl-5-cyclopropyl-1H-pyrazol-3-yl)methyl]-2-(2,5-dioxopyrrolidin-1-yl)acetamide

>  <PriceCoeff>
1.00

>  <MW>
344.41

>  <Description>
solid

>  <FSP3>
0.67

>  <clogP>
0.94

>  <TPSA>
84.30

>  <Acceptor>
4

>  <Donor>
1

>  <RotBonds>
6

>  <HAC>
25

>  <Collection>
General

$$$$
F6441-3577
  Mrv2219 10102508112D          

 24 25  0  0  0  0            999 V2000
   -1.0266    5.4726    0.0000 S   0  0  0  0  0  0  0  0  0  0  0  0
   -3.8928    3.8216    0.0000 C   0  0  0  0  0  0  0  0  0  0  0  0
   -3.1762    4.2280    0.0000 N   0  0  0  0  0  0  0  0  0  0  0  0
   -4.6052    4.2280    0.0000 N   0  0  0  0  0  0  0  0  0  0  0  0
   -1.7431    5.0452    0.0000 C   0  0  0  0  0  0  0  0  0  0  0  0
   -6.7380    3.8341    0.0000 C   0  0  0  0  0  0  0  0  0  0  0  0
   -6.0340    4.2364    0.0000 C   0  0  0  0  0  0  0  0  0  0  0  0
   -0.2975    5.8915    0.0000 C   0  0  0  0  0  0  0  0  0  0  0  0
   -1.4457    6.1932    0.0000 O   0  0  0  0  0  0  0  0  0  0  0  0
   -0.5992    4.7476    0.0000 O   0  0  0  0  0  0  0  0  0  0  0  0
   -5.3133    3.8299    0.0000 C   0  0  0  0  0  0  0  0  0  0  0  0
   -2.4513    5.4683    0.0000 C   0  0  0  0  0  0  0  0  0  0  0  0
   -1.7431    4.2280    0.0000 C   0  0  0  0  0  0  0  0  0  0  0  0
   -2.4597    3.8216    0.0000 C   0  0  0  0  0  0  0  0  0  0  0  0
   -3.1762    5.0535    0.0000 C   0  0  0  0  0  0  0  0  0  0  0  0
   -3.8928    3.0002    0.0000 O   0  0  0  0  0  0  0  0  0  0  0  0
   -6.7422    3.0044    0.0000 C   0  0  0  0  0  0  0  0  0  0  0  0
   -6.0383    2.5854    0.0000 C   0  0  0  0  0  0  0  0  0  0  0  0
   -7.4462    4.2406    0.0000 Cl  0  0  0  0  0  0  0  0  0  0  0  0
   -5.3133    3.0002    0.0000 C   0  0  0  0  0  0  0  0  0  0  0  0
   -7.4629    2.5980    0.0000 Cl  0  0  0  0  0  0  0  0  0  0  0  0
   -0.3100    6.7296    0.0000 C   0  0  0  0  0  0  0  0  0  0  0  0
   -1.0182    7.1319    0.0000 C   0  0  0  0  0  0  0  0  0  0  0  0
    0.4023    7.1445    0.0000 C   0  0  0  0  0  0  0  0  0  0  0  0
  2  3  1  0  0  0  0
  3 14  1  0  0  0  0
  4  2  1  0  0  0  0
  5  1  1  0  0  0  0
  6  7  1  0  0  0  0
  7 11  2  0  0  0  0
  8  1  1  0  0  0  0
  9  1  2  0  0  0  0
 10  1  2  0  0  0  0
 11  4  1  0  0  0  0
 12  5  1  0  0  0  0
 13  5  1  0  0  0  0
 14 13  1  0  0  0  0
 15 12  1  0  0  0  0
 16  2  2  0  0  0  0
 17 18  1  0  0  0  0
 18 20  2  0  0  0  0
 19  6  1  0  0  0  0
 20 11  1  0  0  0  0
 21 17  1  0  0  0  0
 22  8  1  0  0  0  0
 23 22  1  0  0  0  0
 24 22  1  0  0  0  0
  3 15  1  0  0  0  0
  6 17  2  0  0  0  0
M  END
>  <IDNUMBER>
F6441-3577

>  <Chemical_Name>
N-(3,4-dichlorophenyl)-4-(2-methylpropanesulfonyl)piperidine-1-carboxamide

>  <PriceCoeff>
1.50

>  <CAS>
1797980-96-1

>  <MW>
393.33

>  <Description>
solid

>  <FSP3>
0.56

>  <clogP>
2.20

>  <TPSA>
74.86

>  <Acceptor>
3

>  <Donor>
1

>  <RotBonds>
5

>  <HAC>
24

>  <Collection>
Advanced

$$$$
F6441-6721
  Mrv2219 10102508112D          

 28 30  0  0  0  0            999 V2000
   -1.0208    5.4417    0.0000 S   0  0  0  0  0  0  0  0  0  0  0  0
   -3.8708    3.8000    0.0000 C   0  0  0  0  0  0  0  0  0  0  0  0
   -3.1583    4.2042    0.0000 N   0  0  0  0  0  0  0  0  0  0  0  0
   -4.5792    4.2042    0.0000 N   0  0  0  0  0  0  0  0  0  0  0  0
   -1.7333    5.0167    0.0000 C   0  0  0  0  0  0  0  0  0  0  0  0
   -0.3083    5.8583    0.0000 C   0  0  0  0  0  0  0  0  0  0  0  0
   -6.7000    3.8125    0.0000 C   0  0  0  0  0  0  0  0  0  0  0  0
   -6.0000    4.2125    0.0000 C   0  0  0  0  0  0  0  0  0  0  0  0
   -1.4458    6.1583    0.0000 O   0  0  0  0  0  0  0  0  0  0  0  0
   -0.6000    4.7292    0.0000 O   0  0  0  0  0  0  0  0  0  0  0  0
   -5.2833    3.8083    0.0000 C   0  0  0  0  0  0  0  0  0  0  0  0
   -2.4375    5.4375    0.0000 C   0  0  0  0  0  0  0  0  0  0  0  0
   -1.7333    4.2042    0.0000 C   0  0  0  0  0  0  0  0  0  0  0  0
   -2.4458    3.8000    0.0000 C   0  0  0  0  0  0  0  0  0  0  0  0
   -3.1583    5.0250    0.0000 C   0  0  0  0  0  0  0  0  0  0  0  0
   -3.8708    2.9833    0.0000 O   0  0  0  0  0  0  0  0  0  0  0  0
   -6.7042    2.9875    0.0000 C   0  0  0  0  0  0  0  0  0  0  0  0
   -0.3125    6.6875    0.0000 C   0  0  0  0  0  0  0  0  0  0  0  0
    0.4125    5.4500    0.0000 C   0  0  0  0  0  0  0  0  0  0  0  0
   -6.0042    2.5708    0.0000 C   0  0  0  0  0  0  0  0  0  0  0  0
   -7.4042    4.2167    0.0000 Cl  0  0  0  0  0  0  0  0  0  0  0  0
   -5.2833    2.9833    0.0000 C   0  0  0  0  0  0  0  0  0  0  0  0
   -7.4208    2.5833    0.0000 Cl  0  0  0  0  0  0  0  0  0  0  0  0
    1.1250    6.7000    0.0000 C   0  0  0  0  0  0  0  0  0  0  0  0
    0.3917    7.1125    0.0000 C   0  0  0  0  0  0  0  0  0  0  0  0
    1.1292    5.8667    0.0000 C   0  0  0  0  0  0  0  0  0  0  0  0
    1.8292    7.1167    0.0000 O   0  0  0  0  0  0  0  0  0  0  0  0
    2.5292    6.7125    0.0000 C   0  0  0  0  0  0  0  0  0  0  0  0
  2  3  1  0  0  0  0
  3 14  1  0  0  0  0
  4  2  1  0  0  0  0
  5  1  1  0  0  0  0
  6  1  1  0  0  0  0
  7  8  1  0  0  0  0
  8 11  2  0  0  0  0
  9  1  2  0  0  0  0
 10  1  2  0  0  0  0
 11  4  1  0  0  0  0
 12  5  1  0  0  0  0
 13  5  1  0  0  0  0
 14 13  1  0  0  0  0
 15 12  1  0  0  0  0
 16  2  2  0  0  0  0
 17 20  1  0  0  0  0
 18  6  1  0  0  0  0
 19  6  2  0  0  0  0
 20 22  2  0  0  0  0
 21  7  1  0  0  0  0
 22 11  1  0  0  0  0
 23 17  1  0  0  0  0
 24 26  2  0  0  0  0
 25 18  2  0  0  0  0
 26 19  1  0  0  0  0
 27 24  1  0  0  0  0
 28 27  1  0  0  0  0
 24 25  1  0  0  0  0
  3 15  1  0  0  0  0
  7 17  2  0  0  0  0
M  END
>  <IDNUMBER>
F6441-6721

>  <Chemical_Name>
N-(3,4-dichlorophenyl)-4-(4-methoxybenzenesulfonyl)piperidine-1-carboxamide

>  <PriceCoeff>
1.00

>  <CAS>
1795298-60-0

>  <MW>
443.34

>  <Description>
solid

>  <FSP3>
0.32

>  <clogP>
3.09

>  <TPSA>
84.09

>  <Acceptor>
4

>  <Donor>
1

>  <RotBonds>
5

>  <HAC>
28

>  <Collection>
General

>  <PPDS>
+

$$$$
F6442-0044
  Mrv2219 10102508112D          

 24 26  0  0  0  0            999 V2000
   -1.4488    5.2150    0.0000 S   0  0  0  0  0  0  0  0  0  0  0  0
   -4.5928    2.5761    0.0000 N   0  0  0  0  0  0  0  0  0  0  0  0
   -2.1628    4.8016    0.0000 C   0  0  0  0  0  0  0  0  0  0  0  0
   -3.1648    4.2129    0.0000 N   0  0  0  0  0  0  0  0  0  0  0  0
   -3.8788    3.8079    0.0000 C   0  0  0  0  0  0  0  0  0  0  0  0
   -3.8788    2.9895    0.0000 C   0  0  0  0  0  0  0  0  0  0  0  0
   -4.6805    1.7494    0.0000 C   0  0  0  0  0  0  0  0  0  0  0  0
   -5.3318    2.9060    0.0000 C   0  0  0  0  0  0  0  0  0  0  0  0
   -2.3757    4.0083    0.0000 C   0  0  0  0  0  0  0  0  0  0  0  0
   -2.9519    5.0104    0.0000 C   0  0  0  0  0  0  0  0  0  0  0  0
   -0.7348    5.6283    0.0000 C   0  0  0  0  0  0  0  0  0  0  0  0
   -1.8622    5.9290    0.0000 O   0  0  0  0  0  0  0  0  0  0  0  0
   -1.0354    4.4926    0.0000 O   0  0  0  0  0  0  0  0  0  0  0  0
   -4.5928    4.2129    0.0000 O   0  0  0  0  0  0  0  0  0  0  0  0
   -5.4696    1.5866    0.0000 C   0  0  0  0  0  0  0  0  0  0  0  0
   -5.8830    2.3006    0.0000 C   0  0  0  0  0  0  0  0  0  0  0  0
   -4.0542    1.1858    0.0000 O   0  0  0  0  0  0  0  0  0  0  0  0
   -5.4989    3.7160    0.0000 O   0  0  0  0  0  0  0  0  0  0  0  0
   -0.0208    5.2150    0.0000 C   0  0  0  0  0  0  0  0  0  0  0  0
   -0.7390    6.4551    0.0000 C   0  0  0  0  0  0  0  0  0  0  0  0
    0.7015    6.4634    0.0000 C   0  0  0  0  0  0  0  0  0  0  0  0
   -0.0251    6.8684    0.0000 C   0  0  0  0  0  0  0  0  0  0  0  0
    0.7015    5.6283    0.0000 C   0  0  0  0  0  0  0  0  0  0  0  0
    1.4071    6.8767    0.0000 F   0  0  0  0  0  0  0  0  0  0  0  0
  2  6  1  0  0  0  0
  3  1  1  0  0  0  0
  4 10  1  0  0  0  0
  5  4  1  0  0  0  0
  6  5  1  0  0  0  0
  7  2  1  0  0  0  0
  8  2  1  0  0  0  0
  9  3  1  0  0  0  0
 10  3  1  0  0  0  0
 11  1  1  0  0  0  0
 12  1  2  0  0  0  0
 13  1  2  0  0  0  0
 14  5  2  0  0  0  0
 15  7  1  0  0  0  0
 16  8  1  0  0  0  0
 17  7  2  0  0  0  0
 18  8  2  0  0  0  0
 19 11  2  0  0  0  0
 20 11  1  0  0  0  0
 21 22  1  0  0  0  0
 22 20  2  0  0  0  0
 23 19  1  0  0  0  0
 24 21  1  0  0  0  0
  4  9  1  0  0  0  0
 21 23  2  0  0  0  0
 15 16  1  0  0  0  0
M  END
>  <IDNUMBER>
F6442-0044

>  <Chemical_Name>
1-{2-[3-(4-fluorobenzenesulfonyl)azetidin-1-yl]-2-oxoethyl}pyrrolidine-2,5-dione

>  <PriceCoeff>
1.50

>  <CAS>
1797630-45-5

>  <MW>
354.35

>  <Description>
solid

>  <FSP3>
0.40

>  <clogP>
1.08

>  <TPSA>
100.21

>  <Acceptor>
5

>  <Donor>
0

>  <RotBonds>
5

>  <HAC>
24

>  <Collection>
Advanced

>  <PPDS>
+

$$$$
F6442-0568
  Mrv2219 10102508112D          

 25 27  0  0  0  0            999 V2000
   -1.4488    5.2150    0.0000 S   0  0  0  0  0  0  0  0  0  0  0  0
   -4.5928    2.5761    0.0000 N   0  0  0  0  0  0  0  0  0  0  0  0
   -2.1628    4.8016    0.0000 C   0  0  0  0  0  0  0  0  0  0  0  0
   -3.1648    4.2129    0.0000 N   0  0  0  0  0  0  0  0  0  0  0  0
   -3.8788    3.8079    0.0000 C   0  0  0  0  0  0  0  0  0  0  0  0
   -3.8788    2.9895    0.0000 C   0  0  0  0  0  0  0  0  0  0  0  0
   -4.6805    1.7494    0.0000 C   0  0  0  0  0  0  0  0  0  0  0  0
   -5.3318    2.9060    0.0000 C   0  0  0  0  0  0  0  0  0  0  0  0
   -2.3757    4.0083    0.0000 C   0  0  0  0  0  0  0  0  0  0  0  0
   -2.9519    5.0146    0.0000 C   0  0  0  0  0  0  0  0  0  0  0  0
   -0.7348    5.6283    0.0000 C   0  0  0  0  0  0  0  0  0  0  0  0
   -1.8622    5.9290    0.0000 O   0  0  0  0  0  0  0  0  0  0  0  0
   -1.0354    4.5010    0.0000 O   0  0  0  0  0  0  0  0  0  0  0  0
   -4.5928    4.2129    0.0000 O   0  0  0  0  0  0  0  0  0  0  0  0
   -5.4696    1.5866    0.0000 C   0  0  0  0  0  0  0  0  0  0  0  0
   -5.8830    2.3006    0.0000 C   0  0  0  0  0  0  0  0  0  0  0  0
   -4.0542    1.1858    0.0000 O   0  0  0  0  0  0  0  0  0  0  0  0
   -5.4989    3.7160    0.0000 O   0  0  0  0  0  0  0  0  0  0  0  0
   -0.0125    5.2150    0.0000 C   0  0  0  0  0  0  0  0  0  0  0  0
   -0.7390    6.4551    0.0000 C   0  0  0  0  0  0  0  0  0  0  0  0
    0.7015    6.4634    0.0000 C   0  0  0  0  0  0  0  0  0  0  0  0
   -0.0208    6.8767    0.0000 C   0  0  0  0  0  0  0  0  0  0  0  0
    0.7015    5.6283    0.0000 C   0  0  0  0  0  0  0  0  0  0  0  0
    1.4071    6.8767    0.0000 O   0  0  0  0  0  0  0  0  0  0  0  0
    2.1211    6.4676    0.0000 C   0  0  0  0  0  0  0  0  0  0  0  0
  2  6  1  0  0  0  0
  3  1  1  0  0  0  0
  4 10  1  0  0  0  0
  5  4  1  0  0  0  0
  6  5  1  0  0  0  0
  7  2  1  0  0  0  0
  8  2  1  0  0  0  0
  9  3  1  0  0  0  0
 10  3  1  0  0  0  0
 11  1  1  0  0  0  0
 12  1  2  0  0  0  0
 13  1  2  0  0  0  0
 14  5  2  0  0  0  0
 15  7  1  0  0  0  0
 16  8  1  0  0  0  0
 17  7  2  0  0  0  0
 18  8  2  0  0  0  0
 19 11  2  0  0  0  0
 20 11  1  0  0  0  0
 21 22  1  0  0  0  0
 22 20  2  0  0  0  0
 23 19  1  0  0  0  0
 24 21  1  0  0  0  0
 25 24  1  0  0  0  0
  9  4  1  0  0  0  0
 21 23  2  0  0  0  0
 15 16  1  0  0  0  0
M  END
>  <IDNUMBER>
F6442-0568

>  <Chemical_Name>
1-{2-[3-(4-methoxybenzenesulfonyl)azetidin-1-yl]-2-oxoethyl}pyrrolidine-2,5-dione

>  <PriceCoeff>
1.50

>  <CAS>
1798034-34-0

>  <MW>
366.39

>  <Description>
solid

>  <FSP3>
0.44

>  <clogP>
1.16

>  <TPSA>
109.44

>  <Acceptor>
6

>  <Donor>
0

>  <RotBonds>
6

>  <HAC>
25

>  <Collection>
Advanced

>  <PPDS>
+

$$$$
F6442-0883
  Mrv2219 10102508112D          

 26 28  0  0  0  0            999 V2000
   -1.4488    5.2150    0.0000 S   0  0  0  0  0  0  0  0  0  0  0  0
   -2.1628    4.8016    0.0000 C   0  0  0  0  0  0  0  0  0  0  0  0
   -3.1648    4.2129    0.0000 N   0  0  0  0  0  0  0  0  0  0  0  0
   -3.8788    3.8079    0.0000 C   0  0  0  0  0  0  0  0  0  0  0  0
   -2.3757    4.0083    0.0000 C   0  0  0  0  0  0  0  0  0  0  0  0
   -2.9519    5.0146    0.0000 C   0  0  0  0  0  0  0  0  0  0  0  0
   -4.5887    4.2129    0.0000 N   0  0  0  0  0  0  0  0  0  0  0  0
   -0.7348    5.6283    0.0000 C   0  0  0  0  0  0  0  0  0  0  0  0
   -6.7139    3.8204    0.0000 C   0  0  0  0  0  0  0  0  0  0  0  0
   -6.0124    4.2212    0.0000 C   0  0  0  0  0  0  0  0  0  0  0  0
   -1.0354    4.5010    0.0000 O   0  0  0  0  0  0  0  0  0  0  0  0
   -1.8622    5.9290    0.0000 O   0  0  0  0  0  0  0  0  0  0  0  0
   -5.2942    3.8162    0.0000 C   0  0  0  0  0  0  0  0  0  0  0  0
   -3.8788    2.9895    0.0000 O   0  0  0  0  0  0  0  0  0  0  0  0
   -6.7181    2.9937    0.0000 C   0  0  0  0  0  0  0  0  0  0  0  0
   -0.7390    6.4551    0.0000 C   0  0  0  0  0  0  0  0  0  0  0  0
   -0.0125    5.2150    0.0000 C   0  0  0  0  0  0  0  0  0  0  0  0
   -6.0166    2.5761    0.0000 C   0  0  0  0  0  0  0  0  0  0  0  0
   -7.4195    4.2254    0.0000 Cl  0  0  0  0  0  0  0  0  0  0  0  0
   -5.2942    2.9895    0.0000 C   0  0  0  0  0  0  0  0  0  0  0  0
   -7.4362    2.5887    0.0000 Cl  0  0  0  0  0  0  0  0  0  0  0  0
    0.7015    6.4634    0.0000 C   0  0  0  0  0  0  0  0  0  0  0  0
    0.7015    5.6283    0.0000 C   0  0  0  0  0  0  0  0  0  0  0  0
   -0.0208    6.8767    0.0000 C   0  0  0  0  0  0  0  0  0  0  0  0
    1.4071    6.8767    0.0000 O   0  0  0  0  0  0  0  0  0  0  0  0
    2.1211    6.4676    0.0000 C   0  0  0  0  0  0  0  0  0  0  0  0
  2  1  1  0  0  0  0
  3  6  1  0  0  0  0
  4  3  1  0  0  0  0
  5  2  1  0  0  0  0
  6  2  1  0  0  0  0
  7  4  1  0  0  0  0
  8  1  1  0  0  0  0
  9 10  1  0  0  0  0
 10 13  2  0  0  0  0
 11  1  2  0  0  0  0
 12  1  2  0  0  0  0
 13  7  1  0  0  0  0
 14  4  2  0  0  0  0
 15 18  1  0  0  0  0
 16  8  1  0  0  0  0
 17  8  2  0  0  0  0
 18 20  2  0  0  0  0
 19  9  1  0  0  0  0
 20 13  1  0  0  0  0
 21 15  1  0  0  0  0
 22 23  2  0  0  0  0
 23 17  1  0  0  0  0
 24 16  2  0  0  0  0
 25 22  1  0  0  0  0
 26 25  1  0  0  0  0
  5  3  1  0  0  0  0
 24 22  1  0  0  0  0
  9 15  2  0  0  0  0
M  END
>  <IDNUMBER>
F6442-0883

>  <Chemical_Name>
N-(3,4-dichlorophenyl)-3-(4-methoxybenzenesulfonyl)azetidine-1-carboxamide

>  <PriceCoeff>
1.00

>  <CAS>
1797631-42-5

>  <MW>
415.29

>  <Description>
solid

>  <FSP3>
0.24

>  <clogP>
4.24

>  <TPSA>
84.09

>  <Acceptor>
4

>  <Donor>
1

>  <RotBonds>
5

>  <HAC>
26

>  <Collection>
General

$$$$
F6442-1092
  Mrv2219 10102508112D          

 23 25  0  0  0  0            999 V2000
   -1.4481    5.2083    0.0000 S   0  0  0  0  0  0  0  0  0  0  0  0
   -4.5906    2.5749    0.0000 N   0  0  0  0  0  0  0  0  0  0  0  0
   -2.1618    4.7994    0.0000 C   0  0  0  0  0  0  0  0  0  0  0  0
   -3.1633    4.2109    0.0000 N   0  0  0  0  0  0  0  0  0  0  0  0
   -3.8770    3.8061    0.0000 C   0  0  0  0  0  0  0  0  0  0  0  0
   -3.8770    2.9881    0.0000 C   0  0  0  0  0  0  0  0  0  0  0  0
   -4.6783    1.7486    0.0000 C   0  0  0  0  0  0  0  0  0  0  0  0
   -5.3293    2.9046    0.0000 C   0  0  0  0  0  0  0  0  0  0  0  0
   -2.3746    4.0064    0.0000 C   0  0  0  0  0  0  0  0  0  0  0  0
   -2.9505    5.0080    0.0000 C   0  0  0  0  0  0  0  0  0  0  0  0
   -1.0350    4.4905    0.0000 O   0  0  0  0  0  0  0  0  0  0  0  0
   -1.8613    5.9262    0.0000 O   0  0  0  0  0  0  0  0  0  0  0  0
   -0.7345    5.6257    0.0000 C   0  0  0  0  0  0  0  0  0  0  0  0
   -4.5906    4.2109    0.0000 O   0  0  0  0  0  0  0  0  0  0  0  0
   -5.4670    1.5858    0.0000 C   0  0  0  0  0  0  0  0  0  0  0  0
   -5.8802    2.2995    0.0000 C   0  0  0  0  0  0  0  0  0  0  0  0
   -4.0523    1.1852    0.0000 O   0  0  0  0  0  0  0  0  0  0  0  0
   -5.4963    3.7142    0.0000 O   0  0  0  0  0  0  0  0  0  0  0  0
   -0.7470    6.4520    0.0000 C   0  0  0  0  0  0  0  0  0  0  0  0
   -0.0125    5.2208    0.0000 C   0  0  0  0  0  0  0  0  0  0  0  0
    0.7053    5.6382    0.0000 C   0  0  0  0  0  0  0  0  0  0  0  0
   -0.0376    6.8777    0.0000 C   0  0  0  0  0  0  0  0  0  0  0  0
    0.6886    6.4728    0.0000 C   0  0  0  0  0  0  0  0  0  0  0  0
  2  6  1  0  0  0  0
  3  1  1  0  0  0  0
  4 10  1  0  0  0  0
  5  4  1  0  0  0  0
  6  5  1  0  0  0  0
  7  2  1  0  0  0  0
  8  2  1  0  0  0  0
  9  3  1  0  0  0  0
 10  3  1  0  0  0  0
 11  1  2  0  0  0  0
 12  1  2  0  0  0  0
 13  1  1  0  0  0  0
 14  5  2  0  0  0  0
 15  7  1  0  0  0  0
 16  8  1  0  0  0  0
 17  7  2  0  0  0  0
 18  8  2  0  0  0  0
 19 13  1  0  0  0  0
 20 13  1  0  0  0  0
 21 20  1  0  0  0  0
 22 19  1  0  0  0  0
 23 21  1  0  0  0  0
  9  4  1  0  0  0  0
 23 22  1  0  0  0  0
 15 16  1  0  0  0  0
M  END
>  <IDNUMBER>
F6442-1092

>  <Chemical_Name>
1-{2-[3-(cyclohexanesulfonyl)azetidin-1-yl]-2-oxoethyl}pyrrolidine-2,5-dione

>  <PriceCoeff>
1.50

>  <CAS>
1797342-73-4

>  <MW>
342.41

>  <Description>
solid

>  <FSP3>
0.80

>  <clogP>
1.29

>  <TPSA>
100.21

>  <Acceptor>
5

>  <Donor>
0

>  <RotBonds>
5

>  <HAC>
23

>  <Collection>
Advanced

>  <PPDS>
+

$$$$
F6442-2664
  Mrv2219 10102508112D          

 24 26  0  0  0  0            999 V2000
   -1.4488    5.2150    0.0000 S   0  0  0  0  0  0  0  0  0  0  0  0
   -4.5928    2.5761    0.0000 N   0  0  0  0  0  0  0  0  0  0  0  0
   -2.1628    4.8016    0.0000 C   0  0  0  0  0  0  0  0  0  0  0  0
   -3.1648    4.2129    0.0000 N   0  0  0  0  0  0  0  0  0  0  0  0
   -3.8788    3.8079    0.0000 C   0  0  0  0  0  0  0  0  0  0  0  0
   -3.8788    2.9895    0.0000 C   0  0  0  0  0  0  0  0  0  0  0  0
   -4.6805    1.7494    0.0000 C   0  0  0  0  0  0  0  0  0  0  0  0
   -5.3318    2.9060    0.0000 C   0  0  0  0  0  0  0  0  0  0  0  0
   -2.3757    4.0083    0.0000 C   0  0  0  0  0  0  0  0  0  0  0  0
   -2.9519    5.0104    0.0000 C   0  0  0  0  0  0  0  0  0  0  0  0
   -0.7348    5.6283    0.0000 C   0  0  0  0  0  0  0  0  0  0  0  0
   -1.8622    5.9290    0.0000 O   0  0  0  0  0  0  0  0  0  0  0  0
   -1.0354    4.4926    0.0000 O   0  0  0  0  0  0  0  0  0  0  0  0
   -4.5928    4.2129    0.0000 O   0  0  0  0  0  0  0  0  0  0  0  0
   -5.4696    1.5866    0.0000 C   0  0  0  0  0  0  0  0  0  0  0  0
   -5.8830    2.3006    0.0000 C   0  0  0  0  0  0  0  0  0  0  0  0
   -4.0542    1.1858    0.0000 O   0  0  0  0  0  0  0  0  0  0  0  0
   -5.4989    3.7160    0.0000 O   0  0  0  0  0  0  0  0  0  0  0  0
   -0.0125    5.2150    0.0000 C   0  0  0  0  0  0  0  0  0  0  0  0
   -0.7390    6.4551    0.0000 C   0  0  0  0  0  0  0  0  0  0  0  0
    0.7015    6.4634    0.0000 C   0  0  0  0  0  0  0  0  0  0  0  0
   -0.0208    6.8684    0.0000 C   0  0  0  0  0  0  0  0  0  0  0  0
    0.7015    5.6283    0.0000 C   0  0  0  0  0  0  0  0  0  0  0  0
    1.4071    6.8684    0.0000 Cl  0  0  0  0  0  0  0  0  0  0  0  0
  2  6  1  0  0  0  0
  3  1  1  0  0  0  0
  4 10  1  0  0  0  0
  5  4  1  0  0  0  0
  6  5  1  0  0  0  0
  7  2  1  0  0  0  0
  8  2  1  0  0  0  0
  9  3  1  0  0  0  0
 10  3  1  0  0  0  0
 11  1  1  0  0  0  0
 12  1  2  0  0  0  0
 13  1  2  0  0  0  0
 14  5  2  0  0  0  0
 15  7  1  0  0  0  0
 16  8  1  0  0  0  0
 17  7  2  0  0  0  0
 18  8  2  0  0  0  0
 19 11  2  0  0  0  0
 20 11  1  0  0  0  0
 21 22  1  0  0  0  0
 22 20  2  0  0  0  0
 23 19  1  0  0  0  0
 24 21  1  0  0  0  0
  4  9  1  0  0  0  0
 21 23  2  0  0  0  0
 15 16  1  0  0  0  0
M  END
>  <IDNUMBER>
F6442-2664

>  <Chemical_Name>
1-{2-[3-(4-chlorobenzenesulfonyl)azetidin-1-yl]-2-oxoethyl}pyrrolidine-2,5-dione

>  <PriceCoeff>
1.50

>  <CAS>
1797848-68-0

>  <MW>
370.81

>  <Description>
solid

>  <FSP3>
0.40

>  <clogP>
1.65

>  <TPSA>
100.21

>  <Acceptor>
5

>  <Donor>
0

>  <RotBonds>
5

>  <HAC>
24

>  <Collection>
Advanced

>  <PPDS>
+

$$$$
F6442-5567
  Mrv2219 10102508112D          

 27 29  0  0  0  0            999 V2000
   -3.1455    7.5291    0.0000 N   0  0  0  0  0  0  0  0  0  0  0  0
   -3.8650    1.3510    0.0000 C   0  0  0  0  0  0  0  0  0  0  0  0
   -3.8858    3.8148    0.0000 C   0  0  0  0  0  0  0  0  0  0  0  0
   -3.8650    0.5145    0.0000 C   0  0  0  0  0  0  0  0  0  0  0  0
   -3.1580    6.7009    0.0000 C   0  0  0  0  0  0  0  0  0  0  0  0
   -4.5886    1.7693    0.0000 C   0  0  0  0  0  0  0  0  0  0  0  0
   -3.1706    4.2205    0.0000 N   0  0  0  0  0  0  0  0  0  0  0  0
   -3.8607    7.9475    0.0000 C   0  0  0  0  0  0  0  0  0  0  0  0
   -2.4302    7.9349    0.0000 C   0  0  0  0  0  0  0  0  0  0  0  0
   -4.6011    2.5808    0.0000 O   0  0  0  0  0  0  0  0  0  0  0  0
   -4.6011    4.2205    0.0000 O   0  0  0  0  0  0  0  0  0  0  0  0
   -2.4177    8.7589    0.0000 C   0  0  0  0  0  0  0  0  0  0  0  0
   -3.8482    8.7757    0.0000 C   0  0  0  0  0  0  0  0  0  0  0  0
   -2.4428    6.2785    0.0000 C   0  0  0  0  0  0  0  0  0  0  0  0
   -3.8733    6.2994    0.0000 C   0  0  0  0  0  0  0  0  0  0  0  0
   -5.2913    1.3385    0.0000 C   0  0  0  0  0  0  0  0  0  0  0  0
   -4.6011    0.1087    0.0000 C   0  0  0  0  0  0  0  0  0  0  0  0
   -3.8858    2.9991    0.0000 C   0  0  0  0  0  0  0  0  0  0  0  0
   -3.1706    5.0487    0.0000 C   0  0  0  0  0  0  0  0  0  0  0  0
   -3.1497    1.7651    0.0000 Cl  0  0  0  0  0  0  0  0  0  0  0  0
   -3.1329    9.1772    0.0000 C   0  0  0  0  0  0  0  0  0  0  0  0
   -5.2913    0.5145    0.0000 C   0  0  0  0  0  0  0  0  0  0  0  0
   -2.4553    5.4628    0.0000 C   0  0  0  0  0  0  0  0  0  0  0  0
   -3.8775    5.4754    0.0000 C   0  0  0  0  0  0  0  0  0  0  0  0
   -4.5760   -0.7320    0.0000 Cl  0  0  0  0  0  0  0  0  0  0  0  0
   -3.1329   10.0054    0.0000 O   0  0  0  0  0  0  0  0  0  0  0  0
   -2.4051   10.4195    0.0000 C   0  0  0  0  0  0  0  0  0  0  0  0
  2  6  1  0  0  0  0
  3  7  1  0  0  0  0
  4  2  2  0  0  0  0
  5  1  1  0  0  0  0
  6 10  1  0  0  0  0
  7 19  1  0  0  0  0
  8  1  1  0  0  0  0
  9  1  1  0  0  0  0
 10 18  1  0  0  0  0
 11  3  2  0  0  0  0
 12  9  1  0  0  0  0
 13  8  1  0  0  0  0
 14  5  1  0  0  0  0
 15  5  2  0  0  0  0
 16  6  2  0  0  0  0
 17 22  2  0  0  0  0
 18  3  1  0  0  0  0
 19 24  2  0  0  0  0
 20  2  1  0  0  0  0
 21 12  1  0  0  0  0
 22 16  1  0  0  0  0
 23 14  2  0  0  0  0
 24 15  1  0  0  0  0
 25 17  1  0  0  0  0
 26 21  1  0  0  0  0
 27 26  1  0  0  0  0
 13 21  1  0  0  0  0
 19 23  1  0  0  0  0
 17  4  1  0  0  0  0
M  END
>  <IDNUMBER>
F6442-5567

>  <Chemical_Name>
2-(2,4-dichlorophenoxy)-N-[4-(4-methoxypiperidin-1-yl)phenyl]acetamide

>  <PriceCoeff>
1.00

>  <CAS>
1798037-48-5

>  <MW>
409.31

>  <Description>
solid

>  <FSP3>
0.35

>  <clogP>
3.53

>  <TPSA>
50.80

>  <Acceptor>
4

>  <Donor>
2

>  <RotBonds>
6

>  <HAC>
27

>  <Collection>
General

>  <PPDS>
+

$$$$
F6442-6647
  Mrv2219 10102508112D          

 25 27  0  0  0  0            999 V2000
   -3.8788    3.8079    0.0000 C   0  0  0  0  0  0  0  0  0  0  0  0
   -3.1648    4.2129    0.0000 N   0  0  0  0  0  0  0  0  0  0  0  0
   -1.0229    5.4613    0.0000 N   0  0  0  0  0  0  0  0  0  0  0  0
   -4.5928    4.2129    0.0000 N   0  0  0  0  0  0  0  0  0  0  0  0
   -6.7139    3.8204    0.0000 C   0  0  0  0  0  0  0  0  0  0  0  0
   -6.0124    4.2212    0.0000 C   0  0  0  0  0  0  0  0  0  0  0  0
   -1.7369    5.0396    0.0000 C   0  0  0  0  0  0  0  0  0  0  0  0
   -5.2942    3.8162    0.0000 C   0  0  0  0  0  0  0  0  0  0  0  0
   -1.7369    4.2129    0.0000 C   0  0  0  0  0  0  0  0  0  0  0  0
   -2.4509    5.4530    0.0000 C   0  0  0  0  0  0  0  0  0  0  0  0
   -2.4509    3.8079    0.0000 C   0  0  0  0  0  0  0  0  0  0  0  0
   -3.1648    5.0396    0.0000 C   0  0  0  0  0  0  0  0  0  0  0  0
   -3.8788    2.9895    0.0000 O   0  0  0  0  0  0  0  0  0  0  0  0
   -6.7181    2.9937    0.0000 C   0  0  0  0  0  0  0  0  0  0  0  0
   -0.3089    5.0521    0.0000 C   0  0  0  0  0  0  0  0  0  0  0  0
   -1.0271    6.2880    0.0000 C   0  0  0  0  0  0  0  0  0  0  0  0
   -0.3215    6.7014    0.0000 C   0  0  0  0  0  0  0  0  0  0  0  0
    0.4050    5.4655    0.0000 C   0  0  0  0  0  0  0  0  0  0  0  0
   -6.0166    2.5761    0.0000 C   0  0  0  0  0  0  0  0  0  0  0  0
   -7.4195    4.2254    0.0000 Cl  0  0  0  0  0  0  0  0  0  0  0  0
    0.4008    6.2922    0.0000 C   0  0  0  0  0  0  0  0  0  0  0  0
   -5.2942    2.9895    0.0000 C   0  0  0  0  0  0  0  0  0  0  0  0
   -7.4321    2.5887    0.0000 Cl  0  0  0  0  0  0  0  0  0  0  0  0
    1.1148    6.7139    0.0000 O   0  0  0  0  0  0  0  0  0  0  0  0
    1.8330    6.3047    0.0000 C   0  0  0  0  0  0  0  0  0  0  0  0
  2  1  1  0  0  0  0
  3  7  1  0  0  0  0
  4  1  1  0  0  0  0
  5  6  1  0  0  0  0
  6  8  2  0  0  0  0
  7 10  1  0  0  0  0
  8  4  1  0  0  0  0
  9 11  1  0  0  0  0
 10 12  1  0  0  0  0
 11  2  1  0  0  0  0
 12  2  1  0  0  0  0
 13  1  2  0  0  0  0
 14 19  1  0  0  0  0
 15  3  1  0  0  0  0
 16  3  1  0  0  0  0
 17 16  1  0  0  0  0
 18 15  1  0  0  0  0
 19 22  2  0  0  0  0
 20  5  1  0  0  0  0
 21 17  1  0  0  0  0
 22  8  1  0  0  0  0
 23 14  1  0  0  0  0
 24 21  1  0  0  0  0
 25 24  1  0  0  0  0
  9  7  1  0  0  0  0
 14  5  2  0  0  0  0
 18 21  1  0  0  0  0
M  END
>  <IDNUMBER>
F6442-6647

>  <Chemical_Name>
N-(3,4-dichlorophenyl)-4-methoxy-[1,4'-bipiperidine]-1'-carboxamide

>  <PriceCoeff>
1.50

>  <CAS>
1795358-66-5

>  <MW>
386.32

>  <Description>
solid

>  <FSP3>
0.61

>  <clogP>
1.99

>  <TPSA>
44.81

>  <Acceptor>
2

>  <Donor>
2

>  <RotBonds>
4

>  <HAC>
25

>  <Collection>
Advanced

$$$$
F6443-0044
  Mrv2219 10102508112D          

 25 27  0  0  0  0            999 V2000
   -4.6012    2.5809    0.0000 N   0  0  0  0  0  0  0  0  0  0  0  0
   -4.6891    1.7526    0.0000 C   0  0  0  0  0  0  0  0  0  0  0  0
   -5.3416    2.9114    0.0000 C   0  0  0  0  0  0  0  0  0  0  0  0
   -3.1330    7.5336    0.0000 N   0  0  0  0  0  0  0  0  0  0  0  0
   -3.8860    3.8149    0.0000 C   0  0  0  0  0  0  0  0  0  0  0  0
   -3.8860    2.9950    0.0000 C   0  0  0  0  0  0  0  0  0  0  0  0
   -3.1456    6.7053    0.0000 C   0  0  0  0  0  0  0  0  0  0  0  0
   -3.1707    4.2207    0.0000 N   0  0  0  0  0  0  0  0  0  0  0  0
   -2.4094    7.9351    0.0000 C   0  0  0  0  0  0  0  0  0  0  0  0
   -5.8938    2.3048    0.0000 C   0  0  0  0  0  0  0  0  0  0  0  0
   -5.4797    1.5895    0.0000 C   0  0  0  0  0  0  0  0  0  0  0  0
   -5.5090    3.7228    0.0000 O   0  0  0  0  0  0  0  0  0  0  0  0
   -4.0616    1.1879    0.0000 O   0  0  0  0  0  0  0  0  0  0  0  0
   -4.6012    4.2207    0.0000 O   0  0  0  0  0  0  0  0  0  0  0  0
   -2.4345    6.2870    0.0000 C   0  0  0  0  0  0  0  0  0  0  0  0
   -3.8609    6.3038    0.0000 C   0  0  0  0  0  0  0  0  0  0  0  0
   -3.1707    5.0530    0.0000 C   0  0  0  0  0  0  0  0  0  0  0  0
   -3.8400    7.9560    0.0000 C   0  0  0  0  0  0  0  0  0  0  0  0
   -3.8776    5.4755    0.0000 C   0  0  0  0  0  0  0  0  0  0  0  0
   -2.4428    5.4630    0.0000 C   0  0  0  0  0  0  0  0  0  0  0  0
   -2.3968    8.7634    0.0000 C   0  0  0  0  0  0  0  0  0  0  0  0
   -1.6816    9.1607    0.0000 O   0  0  0  0  0  0  0  0  0  0  0  0
   -3.8274    8.7843    0.0000 C   0  0  0  0  0  0  0  0  0  0  0  0
   -3.1079    9.1858    0.0000 C   0  0  0  0  0  0  0  0  0  0  0  0
   -0.9746    8.7383    0.0000 C   0  0  0  0  0  0  0  0  0  0  0  0
  2  1  1  0  0  0  0
  3  1  1  0  0  0  0
  4  7  1  0  0  0  0
  5  6  1  0  0  0  0
  6  1  1  0  0  0  0
  7 15  1  0  0  0  0
  8  5  1  0  0  0  0
  9  4  1  0  0  0  0
 10  3  1  0  0  0  0
 11  2  1  0  0  0  0
 12  3  2  0  0  0  0
 13  2  2  0  0  0  0
 14  5  2  0  0  0  0
 15 20  2  0  0  0  0
 16 19  1  0  0  0  0
 17  8  1  0  0  0  0
 18  4  1  0  0  0  0
 19 17  2  0  0  0  0
 20 17  1  0  0  0  0
 21  9  1  0  0  0  0
 22 21  1  0  0  0  0
 23 18  1  0  0  0  0
 24 23  1  0  0  0  0
 25 22  1  0  0  0  0
 11 10  1  0  0  0  0
 16  7  2  0  0  0  0
 24 21  1  0  0  0  0
M  END
>  <IDNUMBER>
F6443-0044

>  <Chemical_Name>
2-(2,5-dioxopyrrolidin-1-yl)-N-[4-(3-methoxypiperidin-1-yl)phenyl]acetamide

>  <PriceCoeff>
1.00

>  <CAS>
1797021-90-9

>  <MW>
345.39

>  <Description>
solid

>  <FSP3>
0.50

>  <clogP>
0.87

>  <TPSA>
78.95

>  <Acceptor>
5

>  <Donor>
2

>  <RotBonds>
5

>  <HAC>
25

>  <Collection>
General

>  <PPDS>
+

$$$$
F6443-5308
  Mrv2219 10102508112D          

 26 29  0  0  0  0            999 V2000
   -1.7296    4.2153    0.0000 C   0  0  0  0  0  0  0  0  0  0  0  0
   -0.4136    4.4159    0.0000 C   0  0  0  0  0  0  0  0  0  0  0  0
   -3.8810    3.8101    0.0000 C   0  0  0  0  0  0  0  0  0  0  0  0
   -1.1488    4.7918    0.0000 O   0  0  0  0  0  0  0  0  0  0  0  0
   -3.1667    4.2153    0.0000 N   0  0  0  0  0  0  0  0  0  0  0  0
   -1.3619    3.4925    0.0000 C   0  0  0  0  0  0  0  0  0  0  0  0
   -0.5472    3.6178    0.0000 C   0  0  0  0  0  0  0  0  0  0  0  0
   -2.4523    3.8101    0.0000 C   0  0  0  0  0  0  0  0  0  0  0  0
   -4.5954    4.2153    0.0000 N   0  0  0  0  0  0  0  0  0  0  0  0
   -6.7177    3.8226    0.0000 C   0  0  0  0  0  0  0  0  0  0  0  0
   -6.0159    4.2236    0.0000 C   0  0  0  0  0  0  0  0  0  0  0  0
   -5.2973    3.8184    0.0000 C   0  0  0  0  0  0  0  0  0  0  0  0
   -3.8810    2.9912    0.0000 O   0  0  0  0  0  0  0  0  0  0  0  0
    0.3301    4.7918    0.0000 O   0  0  0  0  0  0  0  0  0  0  0  0
   -6.7219    2.9954    0.0000 C   0  0  0  0  0  0  0  0  0  0  0  0
   -6.0201    2.5776    0.0000 C   0  0  0  0  0  0  0  0  0  0  0  0
   -7.4238    4.2279    0.0000 Cl  0  0  0  0  0  0  0  0  0  0  0  0
   -1.7379    5.0425    0.0000 C   0  0  0  0  0  0  0  0  0  0  0  0
   -5.2973    2.9912    0.0000 C   0  0  0  0  0  0  0  0  0  0  0  0
   -7.4363    2.5901    0.0000 Cl  0  0  0  0  0  0  0  0  0  0  0  0
   -3.1667    5.0425    0.0000 C   0  0  0  0  0  0  0  0  0  0  0  0
   -1.6627    2.7280    0.0000 C   0  0  0  0  0  0  0  0  0  0  0  0
   -0.0251    2.9787    0.0000 C   0  0  0  0  0  0  0  0  0  0  0  0
   -2.4440    5.4561    0.0000 C   0  0  0  0  0  0  0  0  0  0  0  0
   -1.1363    2.0763    0.0000 C   0  0  0  0  0  0  0  0  0  0  0  0
   -0.3259    2.2016    0.0000 C   0  0  0  0  0  0  0  0  0  0  0  0
  2  4  1  0  0  0  0
  3  5  1  0  0  0  0
  4  1  1  0  0  0  0
  5  8  1  0  0  0  0
  6  1  1  0  0  0  0
  7  6  1  0  0  0  0
  8  1  1  0  0  0  0
  9  3  1  0  0  0  0
 10 11  1  0  0  0  0
 11 12  2  0  0  0  0
 12  9  1  0  0  0  0
 13  3  2  0  0  0  0
 14  2  2  0  0  0  0
 15 16  1  0  0  0  0
 16 19  2  0  0  0  0
 17 10  1  0  0  0  0
 18  1  1  0  0  0  0
 19 12  1  0  0  0  0
 20 15  1  0  0  0  0
 21 24  1  0  0  0  0
 22  6  2  0  0  0  0
 23  7  2  0  0  0  0
 24 18  1  0  0  0  0
 25 22  1  0  0  0  0
 26 25  2  0  0  0  0
  2  7  1  0  0  0  0
  5 21  1  0  0  0  0
 23 26  1  0  0  0  0
 15 10  2  0  0  0  0
M  END
>  <IDNUMBER>
F6443-5308

>  <Chemical_Name>
N-(3,4-dichlorophenyl)-3-oxo-3H-spiro[2-benzofuran-1,3'-piperidine]-1'-carboxamide

>  <PriceCoeff>
1.00

>  <CAS>
1797319-37-9

>  <MW>
391.25

>  <Description>
solid

>  <FSP3>
0.26

>  <clogP>
3.46

>  <TPSA>
58.64

>  <Acceptor>
3

>  <Donor>
1

>  <RotBonds>
2

>  <HAC>
26

>  <Collection>
General

$$$$
F6444-1407
  Mrv2219 10102508112D          

 26 28  0  0  0  0            999 V2000
   -3.8810    3.8101    0.0000 C   0  0  0  0  0  0  0  0  0  0  0  0
   -3.1667    4.2153    0.0000 N   0  0  0  0  0  0  0  0  0  0  0  0
   -0.9984    5.4644    0.0000 N   0  0  0  0  0  0  0  0  0  0  0  0
   -4.5913    4.2153    0.0000 N   0  0  0  0  0  0  0  0  0  0  0  0
   -1.7254    5.0425    0.0000 C   0  0  0  0  0  0  0  0  0  0  0  0
   -6.7177    3.8226    0.0000 C   0  0  0  0  0  0  0  0  0  0  0  0
   -6.0159    4.2236    0.0000 C   0  0  0  0  0  0  0  0  0  0  0  0
   -5.2973    3.8184    0.0000 C   0  0  0  0  0  0  0  0  0  0  0  0
   -1.7254    4.2279    0.0000 C   0  0  0  0  0  0  0  0  0  0  0  0
   -2.4397    5.4686    0.0000 C   0  0  0  0  0  0  0  0  0  0  0  0
   -3.1583    5.0550    0.0000 C   0  0  0  0  0  0  0  0  0  0  0  0
   -2.4523    3.8184    0.0000 C   0  0  0  0  0  0  0  0  0  0  0  0
   -3.8810    2.9912    0.0000 O   0  0  0  0  0  0  0  0  0  0  0  0
   -6.7219    2.9954    0.0000 C   0  0  0  0  0  0  0  0  0  0  0  0
   -0.2339    5.1636    0.0000 C   0  0  0  0  0  0  0  0  0  0  0  0
   -6.0201    2.5776    0.0000 C   0  0  0  0  0  0  0  0  0  0  0  0
   -7.4238    4.2279    0.0000 Cl  0  0  0  0  0  0  0  0  0  0  0  0
   -5.2973    2.9912    0.0000 C   0  0  0  0  0  0  0  0  0  0  0  0
   -7.4404    2.5901    0.0000 Cl  0  0  0  0  0  0  0  0  0  0  0  0
   -0.9483    6.2833    0.0000 C   0  0  0  0  0  0  0  0  0  0  0  0
    0.7645    4.1401    0.0000 S   0  0  0  0  0  0  0  0  0  0  0  0
   -0.1462    6.4838    0.0000 C   0  0  0  0  0  0  0  0  0  0  0  0
   -0.0334    4.3573    0.0000 C   0  0  0  0  0  0  0  0  0  0  0  0
    0.2925    5.7945    0.0000 C   0  0  0  0  0  0  0  0  0  0  0  0
    0.9693    3.3547    0.0000 C   0  0  0  0  0  0  0  0  0  0  0  0
    1.7588    3.1291    0.0000 C   0  0  0  0  0  0  0  0  0  0  0  0
  2  1  1  0  0  0  0
  3  5  1  0  0  0  0
  4  1  1  0  0  0  0
  5  9  1  0  0  0  0
  6  7  1  0  0  0  0
  7  8  2  0  0  0  0
  8  4  1  0  0  0  0
  9 12  1  0  0  0  0
 10 11  1  0  0  0  0
 11  2  1  0  0  0  0
 12  2  1  0  0  0  0
 13  1  2  0  0  0  0
 14 16  1  0  0  0  0
 15  3  1  0  0  0  0
 16 18  2  0  0  0  0
 17  6  1  0  0  0  0
 18  8  1  0  0  0  0
 19 14  1  0  0  0  0
 20  3  1  0  0  0  0
 21 23  1  0  0  0  0
 22 20  1  0  0  0  0
 23 15  1  0  0  0  0
 24 15  1  0  0  0  0
 25 21  1  0  0  0  0
 26 25  1  0  0  0  0
 10  5  1  0  0  0  0
  6 14  2  0  0  0  0
 22 24  1  0  0  0  0
M  END
>  <IDNUMBER>
F6444-1407

>  <Chemical_Name>
N-(3,4-dichlorophenyl)-4-{2-[(ethylsulfanyl)methyl]pyrrolidin-1-yl}piperidine-1-carboxamide

>  <PriceCoeff>
1.00

>  <CAS>
1788557-11-8

>  <MW>
416.41

>  <Description>
solid

>  <FSP3>
0.63

>  <clogP>
4.20

>  <TPSA>
60.88

>  <Acceptor>
1

>  <Donor>
2

>  <RotBonds>
6

>  <HAC>
26

>  <Collection>
General

>  <PPDS>
+

$$$$
F6448-2277
  Mrv2219 10102508112D          

 27 30  0  0  0  0            999 V2000
   -6.8935    7.8580    0.0000 N   0  0  0  0  0  0  0  0  0  0  0  0
   -3.8663    5.4195    0.0000 N   0  0  0  0  0  0  0  0  0  0  0  0
   -3.2024    5.9039    0.0000 N   0  0  0  0  0  0  0  0  0  0  0  0
   -4.2797    6.6930    0.0000 C   0  0  0  0  0  0  0  0  0  0  0  0
   -7.4446    8.4717    0.0000 C   0  0  0  0  0  0  0  0  0  0  0  0
   -7.3068    7.1440    0.0000 C   0  0  0  0  0  0  0  0  0  0  0  0
   -4.5427    5.9039    0.0000 C   0  0  0  0  0  0  0  0  0  0  0  0
   -2.4383    4.5970    0.0000 O   0  0  0  0  0  0  0  0  0  0  0  0
   -3.4529    6.6930    0.0000 C   0  0  0  0  0  0  0  0  0  0  0  0
   -5.5949    7.2776    0.0000 C   0  0  0  0  0  0  0  0  0  0  0  0
   -6.0667    7.9456    0.0000 C   0  0  0  0  0  0  0  0  0  0  0  0
   -2.4383    2.9519    0.0000 O   0  0  0  0  0  0  0  0  0  0  0  0
   -4.7682    7.3610    0.0000 N   0  0  0  0  0  0  0  0  0  0  0  0
   -1.7244    4.1794    0.0000 C   0  0  0  0  0  0  0  0  0  0  0  0
   -3.1523    4.1794    0.0000 C   0  0  0  0  0  0  0  0  0  0  0  0
   -3.8663    4.5970    0.0000 C   0  0  0  0  0  0  0  0  0  0  0  0
   -1.7244    3.3653    0.0000 C   0  0  0  0  0  0  0  0  0  0  0  0
   -8.1962    8.1335    0.0000 C   0  0  0  0  0  0  0  0  0  0  0  0
   -8.1126    7.3151    0.0000 C   0  0  0  0  0  0  0  0  0  0  0  0
   -7.2692    9.2775    0.0000 O   0  0  0  0  0  0  0  0  0  0  0  0
   -6.9686    6.3882    0.0000 O   0  0  0  0  0  0  0  0  0  0  0  0
   -5.9248    6.5177    0.0000 O   0  0  0  0  0  0  0  0  0  0  0  0
   -3.1523    3.3653    0.0000 C   0  0  0  0  0  0  0  0  0  0  0  0
   -1.0021    4.5970    0.0000 C   0  0  0  0  0  0  0  0  0  0  0  0
   -1.0021    2.9519    0.0000 C   0  0  0  0  0  0  0  0  0  0  0  0
   -0.2881    4.1794    0.0000 C   0  0  0  0  0  0  0  0  0  0  0  0
   -0.2881    3.3653    0.0000 C   0  0  0  0  0  0  0  0  0  0  0  0
  2  7  1  0  0  0  0
  3  9  2  0  0  0  0
  4 13  1  0  0  0  0
  5  1  1  0  0  0  0
  6  1  1  0  0  0  0
  7  4  2  0  0  0  0
  8 15  1  0  0  0  0
  9  4  1  0  0  0  0
 10 11  1  0  0  0  0
 11  1  1  0  0  0  0
 12 23  1  0  0  0  0
 13 10  1  0  0  0  0
 14  8  1  0  0  0  0
 15 16  1  0  0  0  0
 16  2  1  0  0  0  0
 17 12  1  0  0  0  0
 18  5  1  0  0  0  0
 19  6  1  0  0  0  0
 20  5  2  0  0  0  0
 21  6  2  0  0  0  0
 22 10  2  0  0  0  0
 23 15  1  0  0  0  0
 24 14  1  0  0  0  0
 25 17  1  0  0  0  0
 26 24  2  0  0  0  0
 27 25  2  0  0  0  0
 18 19  1  0  0  0  0
  3  2  1  0  0  0  0
 14 17  2  0  0  0  0
 26 27  1  0  0  0  0
M  END
>  <IDNUMBER>
F6448-2277

>  <Chemical_Name>
N-{1-[(2,3-dihydro-1,4-benzodioxin-2-yl)methyl]-1H-pyrazol-4-yl}-2-(2,5-dioxopyrrolidin-1-yl)acetamide

>  <PriceCoeff>
1.00

>  <CAS>
1798043-82-9

>  <MW>
370.36

>  <Description>
solid

>  <FSP3>
0.33

>  <clogP>
0.90

>  <TPSA>
102.76

>  <Acceptor>
6

>  <Donor>
1

>  <RotBonds>
5

>  <HAC>
27

>  <Collection>
General

>  <PPDS>
+

$$$$
F6448-2483
  Mrv2219 10102508112D          

 30 33  0  0  0  0            999 V2000
   -4.5783    2.9759    0.0000 S   0  0  0  0  0  0  0  0  0  0  0  0
   -6.7218    2.6221    0.0000 N   0  0  0  0  0  0  0  0  0  0  0  0
   -3.8666    4.2121    0.0000 C   0  0  0  0  0  0  0  0  0  0  0  0
   -4.2953    5.4732    0.0000 N   0  0  0  0  0  0  0  0  0  0  0  0
   -3.4712    5.4773    0.0000 N   0  0  0  0  0  0  0  0  0  0  0  0
   -4.5408    4.6948    0.0000 C   0  0  0  0  0  0  0  0  0  0  0  0
   -7.4210    3.0674    0.0000 C   0  0  0  0  0  0  0  0  0  0  0  0
   -6.7468    1.7980    0.0000 C   0  0  0  0  0  0  0  0  0  0  0  0
   -3.8666    3.3880    0.0000 N   0  0  0  0  0  0  0  0  0  0  0  0
   -3.6418    6.9965    0.0000 O   0  0  0  0  0  0  0  0  0  0  0  0
   -5.3025    2.5805    0.0000 C   0  0  0  0  0  0  0  0  0  0  0  0
   -3.2048    4.6948    0.0000 C   0  0  0  0  0  0  0  0  0  0  0  0
   -5.9892    3.0175    0.0000 C   0  0  0  0  0  0  0  0  0  0  0  0
   -4.6282    8.3201    0.0000 O   0  0  0  0  0  0  0  0  0  0  0  0
   -3.3172    7.7540    0.0000 C   0  0  0  0  0  0  0  0  0  0  0  0
   -4.4534    6.8966    0.0000 C   0  0  0  0  0  0  0  0  0  0  0  0
   -4.7905    6.1474    0.0000 C   0  0  0  0  0  0  0  0  0  0  0  0
   -4.1829    2.2558    0.0000 O   0  0  0  0  0  0  0  0  0  0  0  0
   -4.7740    3.7875    0.0000 O   0  0  0  0  0  0  0  0  0  0  0  0
   -3.8041    8.4158    0.0000 C   0  0  0  0  0  0  0  0  0  0  0  0
   -6.0267    1.3610    0.0000 O   0  0  0  0  0  0  0  0  0  0  0  0
   -7.3961    3.8915    0.0000 O   0  0  0  0  0  0  0  0  0  0  0  0
   -4.9529    7.5667    0.0000 C   0  0  0  0  0  0  0  0  0  0  0  0
   -7.4710    1.4068    0.0000 C   0  0  0  0  0  0  0  0  0  0  0  0
   -8.1453    2.6679    0.0000 C   0  0  0  0  0  0  0  0  0  0  0  0
   -8.1660    1.8438    0.0000 C   0  0  0  0  0  0  0  0  0  0  0  0
   -2.4973    7.8456    0.0000 C   0  0  0  0  0  0  0  0  0  0  0  0
   -3.4795    9.1774    0.0000 C   0  0  0  0  0  0  0  0  0  0  0  0
   -2.1601    8.6030    0.0000 C   0  0  0  0  0  0  0  0  0  0  0  0
   -2.6596    9.2690    0.0000 C   0  0  0  0  0  0  0  0  0  0  0  0
  2 13  1  0  0  0  0
  3  9  1  0  0  0  0
  4  6  1  0  0  0  0
  5 12  2  0  0  0  0
  6  3  2  0  0  0  0
  7  2  1  0  0  0  0
  8  2  1  0  0  0  0
  9  1  1  0  0  0  0
 10 16  1  0  0  0  0
 11  1  1  0  0  0  0
 12  3  1  0  0  0  0
 13 11  1  0  0  0  0
 14 23  1  0  0  0  0
 15 10  1  0  0  0  0
 16 17  1  0  0  0  0
 17  4  1  0  0  0  0
 18  1  2  0  0  0  0
 19  1  2  0  0  0  0
 20 14  1  0  0  0  0
 21  8  2  0  0  0  0
 22  7  2  0  0  0  0
 23 16  1  0  0  0  0
 24  8  1  0  0  0  0
 25  7  1  0  0  0  0
 26 24  1  0  0  0  0
 27 15  1  0  0  0  0
 28 20  1  0  0  0  0
 29 27  2  0  0  0  0
 30 28  2  0  0  0  0
  5  4  1  0  0  0  0
 26 25  1  0  0  0  0
 15 20  2  0  0  0  0
 29 30  1  0  0  0  0
M  END
>  <IDNUMBER>
F6448-2483

>  <Chemical_Name>
N-{1-[(2,3-dihydro-1,4-benzodioxin-2-yl)methyl]-1H-pyrazol-4-yl}-2-(2,6-dioxopiperidin-1-yl)ethane-1-sulfonamide

>  <PriceCoeff>
1.00

>  <CAS>
1798543-37-9

>  <MW>
434.47

>  <Description>
solid

>  <FSP3>
0.42

>  <clogP>
1.36

>  <TPSA>
128.21

>  <Acceptor>
7

>  <Donor>
1

>  <RotBonds>
7

>  <HAC>
30

>  <Collection>
General

>  <PPDS>
+

$$$$
F6451-0068
  Mrv2219 10102508112D          

 23 24  0  0  0  0            999 V2000
   -5.2748    2.5667    0.0000 N   0  0  0  0  0  0  0  0  0  0  0  0
   -5.3622    1.7430    0.0000 C   0  0  0  0  0  0  0  0  0  0  0  0
   -6.0195    2.8953    0.0000 C   0  0  0  0  0  0  0  0  0  0  0  0
   -3.1407    6.2691    0.0000 C   0  0  0  0  0  0  0  0  0  0  0  0
   -4.5759    2.9827    0.0000 C   0  0  0  0  0  0  0  0  0  0  0  0
   -4.5759    3.7939    0.0000 C   0  0  0  0  0  0  0  0  0  0  0  0
   -3.8563    4.2057    0.0000 N   0  0  0  0  0  0  0  0  0  0  0  0
   -6.1568    1.5683    0.0000 C   0  0  0  0  0  0  0  0  0  0  0  0
   -6.5686    2.2796    0.0000 C   0  0  0  0  0  0  0  0  0  0  0  0
   -4.7424    1.1814    0.0000 O   0  0  0  0  0  0  0  0  0  0  0  0
   -6.1942    3.7023    0.0000 O   0  0  0  0  0  0  0  0  0  0  0  0
   -3.8646    6.6767    0.0000 C   0  0  0  0  0  0  0  0  0  0  0  0
   -3.1407    5.4412    0.0000 C   0  0  0  0  0  0  0  0  0  0  0  0
   -5.2873    4.2057    0.0000 O   0  0  0  0  0  0  0  0  0  0  0  0
   -3.8563    5.0211    0.0000 C   0  0  0  0  0  0  0  0  0  0  0  0
   -4.5884    6.2566    0.0000 O   0  0  0  0  0  0  0  0  0  0  0  0
   -2.4294    5.0211    0.0000 O   0  0  0  0  0  0  0  0  0  0  0  0
   -2.4336    6.6934    0.0000 C   0  0  0  0  0  0  0  0  0  0  0  0
   -3.8646    7.5171    0.0000 C   0  0  0  0  0  0  0  0  0  0  0  0
   -5.2998    6.6685    0.0000 C   0  0  0  0  0  0  0  0  0  0  0  0
   -1.7180    5.4537    0.0000 C   0  0  0  0  0  0  0  0  0  0  0  0
   -2.4336    7.5129    0.0000 C   0  0  0  0  0  0  0  0  0  0  0  0
   -3.1449    7.9247    0.0000 C   0  0  0  0  0  0  0  0  0  0  0  0
  2  1  1  0  0  0  0
  3  1  1  0  0  0  0
  4 13  1  0  0  0  0
  5  1  1  0  0  0  0
  6  5  1  0  0  0  0
  7  6  1  0  0  0  0
  8  2  1  0  0  0  0
  9  3  1  0  0  0  0
 10  2  2  0  0  0  0
 11  3  2  0  0  0  0
 12  4  1  0  0  0  0
 13 15  1  0  0  0  0
 14  6  2  0  0  0  0
 15  7  1  0  0  0  0
 16 12  1  0  0  0  0
 17 13  1  0  0  0  0
 18  4  2  0  0  0  0
 19 12  2  0  0  0  0
 20 16  1  0  0  0  0
 21 17  1  0  0  0  0
 22 18  1  0  0  0  0
 23 22  2  0  0  0  0
  9  8  1  0  0  0  0
 19 23  1  0  0  0  0
M  END
>  <IDNUMBER>
F6451-0068

>  <Chemical_Name>
2-(2,5-dioxopyrrolidin-1-yl)-N-[2-methoxy-2-(2-methoxyphenyl)ethyl]acetamide

>  <PriceCoeff>
1.00

>  <CAS>
1788677-81-5

>  <MW>
320.34

>  <Description>
solid

>  <FSP3>
0.44

>  <clogP>
0.77

>  <TPSA>
84.94

>  <Acceptor>
5

>  <Donor>
1

>  <RotBonds>
7

>  <HAC>
23

>  <Collection>
General

>  <PPDS>
+

$$$$
F6451-0590
  Mrv2219 10102508112D          

 21 22  0  0  0  0            999 V2000
   -5.2748    2.5667    0.0000 N   0  0  0  0  0  0  0  0  0  0  0  0
   -2.4294    5.0336    0.0000 C   0  0  0  0  0  0  0  0  0  0  0  0
   -5.3622    1.7430    0.0000 C   0  0  0  0  0  0  0  0  0  0  0  0
   -6.0195    2.8953    0.0000 C   0  0  0  0  0  0  0  0  0  0  0  0
   -1.6723    5.3706    0.0000 S   0  0  0  0  0  0  0  0  0  0  0  0
   -2.3462    4.2099    0.0000 C   0  0  0  0  0  0  0  0  0  0  0  0
   -4.5759    2.9827    0.0000 C   0  0  0  0  0  0  0  0  0  0  0  0
   -1.1190    4.7466    0.0000 C   0  0  0  0  0  0  0  0  0  0  0  0
   -4.5759    3.7939    0.0000 C   0  0  0  0  0  0  0  0  0  0  0  0
   -1.5558    4.0352    0.0000 C   0  0  0  0  0  0  0  0  0  0  0  0
   -3.1532    5.4412    0.0000 C   0  0  0  0  0  0  0  0  0  0  0  0
   -3.8563    4.2057    0.0000 N   0  0  0  0  0  0  0  0  0  0  0  0
   -6.1568    1.5683    0.0000 C   0  0  0  0  0  0  0  0  0  0  0  0
   -6.5686    2.2796    0.0000 C   0  0  0  0  0  0  0  0  0  0  0  0
   -4.7424    1.1814    0.0000 O   0  0  0  0  0  0  0  0  0  0  0  0
   -6.1942    3.7023    0.0000 O   0  0  0  0  0  0  0  0  0  0  0  0
   -3.8563    5.0211    0.0000 C   0  0  0  0  0  0  0  0  0  0  0  0
   -5.2873    4.2057    0.0000 O   0  0  0  0  0  0  0  0  0  0  0  0
   -3.1532    6.2691    0.0000 O   0  0  0  0  0  0  0  0  0  0  0  0
   -0.2953    4.8339    0.0000 C   0  0  0  0  0  0  0  0  0  0  0  0
   -3.8646    6.6767    0.0000 C   0  0  0  0  0  0  0  0  0  0  0  0
  2 11  1  0  0  0  0
  3  1  1  0  0  0  0
  4  1  1  0  0  0  0
  5  2  1  0  0  0  0
  6  2  2  0  0  0  0
  7  1  1  0  0  0  0
  8  5  1  0  0  0  0
  9  7  1  0  0  0  0
 10  6  1  0  0  0  0
 11 17  1  0  0  0  0
 12  9  1  0  0  0  0
 13  3  1  0  0  0  0
 14  4  1  0  0  0  0
 15  3  2  0  0  0  0
 16  4  2  0  0  0  0
 17 12  1  0  0  0  0
 18  9  2  0  0  0  0
 19 11  1  0  0  0  0
 20  8  1  0  0  0  0
 21 19  1  0  0  0  0
 14 13  1  0  0  0  0
 10  8  2  0  0  0  0
M  END
>  <IDNUMBER>
F6451-0590

>  <Chemical_Name>
2-(2,5-dioxopyrrolidin-1-yl)-N-[2-methoxy-2-(5-methylthiophen-2-yl)ethyl]acetamide

>  <PriceCoeff>
1.00

>  <CAS>
1797023-48-3

>  <MW>
310.37

>  <Description>
oil

>  <FSP3>
0.50

>  <clogP>
1.00

>  <TPSA>
103.95

>  <Acceptor>
4

>  <Donor>
1

>  <RotBonds>
6

>  <HAC>
21

>  <Collection>
General

>  <PPDS>
+

$$$$
F6451-1112
  Mrv2219 10102508112D          

 22 23  0  0  0  0            999 V2000
   -5.2769    2.5677    0.0000 N   0  0  0  0  0  0  0  0  0  0  0  0
   -5.3643    1.7437    0.0000 C   0  0  0  0  0  0  0  0  0  0  0  0
   -6.0219    2.8965    0.0000 C   0  0  0  0  0  0  0  0  0  0  0  0
   -4.5777    2.9839    0.0000 C   0  0  0  0  0  0  0  0  0  0  0  0
   -4.5777    3.7954    0.0000 C   0  0  0  0  0  0  0  0  0  0  0  0
   -3.1545    6.2841    0.0000 C   0  0  0  0  0  0  0  0  0  0  0  0
   -3.8578    4.2074    0.0000 N   0  0  0  0  0  0  0  0  0  0  0  0
   -6.1592    1.5689    0.0000 C   0  0  0  0  0  0  0  0  0  0  0  0
   -6.5712    2.2805    0.0000 C   0  0  0  0  0  0  0  0  0  0  0  0
   -4.7442    1.1819    0.0000 O   0  0  0  0  0  0  0  0  0  0  0  0
   -6.1967    3.7038    0.0000 O   0  0  0  0  0  0  0  0  0  0  0  0
   -2.4553    6.6961    0.0000 C   0  0  0  0  0  0  0  0  0  0  0  0
   -5.2894    4.2074    0.0000 O   0  0  0  0  0  0  0  0  0  0  0  0
   -3.8578    5.0231    0.0000 C   0  0  0  0  0  0  0  0  0  0  0  0
   -3.1545    5.4559    0.0000 C   0  0  0  0  0  0  0  0  0  0  0  0
   -2.4678    7.5325    0.0000 C   0  0  0  0  0  0  0  0  0  0  0  0
   -1.7562    7.9570    0.0000 F   0  0  0  0  0  0  0  0  0  0  0  0
   -2.4345    5.0481    0.0000 O   0  0  0  0  0  0  0  0  0  0  0  0
   -3.8786    6.6794    0.0000 C   0  0  0  0  0  0  0  0  0  0  0  0
   -3.8911    7.4951    0.0000 C   0  0  0  0  0  0  0  0  0  0  0  0
   -3.1794    7.9320    0.0000 C   0  0  0  0  0  0  0  0  0  0  0  0
   -1.7187    5.4601    0.0000 C   0  0  0  0  0  0  0  0  0  0  0  0
  2  1  1  0  0  0  0
  3  1  1  0  0  0  0
  4  1  1  0  0  0  0
  5  4  1  0  0  0  0
  6 15  1  0  0  0  0
  7  5  1  0  0  0  0
  8  2  1  0  0  0  0
  9  3  1  0  0  0  0
 10  2  2  0  0  0  0
 11  3  2  0  0  0  0
 12  6  2  0  0  0  0
 13  5  2  0  0  0  0
 14  7  1  0  0  0  0
 15 14  1  0  0  0  0
 16 12  1  0  0  0  0
 17 16  1  0  0  0  0
 18 15  1  0  0  0  0
 19  6  1  0  0  0  0
 20 19  2  0  0  0  0
 21 20  1  0  0  0  0
 22 18  1  0  0  0  0
  9  8  1  0  0  0  0
 16 21  2  0  0  0  0
M  END
>  <IDNUMBER>
F6451-1112

>  <Chemical_Name>
2-(2,5-dioxopyrrolidin-1-yl)-N-[2-(3-fluorophenyl)-2-methoxyethyl]acetamide

>  <PriceCoeff>
1.00

>  <CAS>
1797092-44-4

>  <MW>
308.30

>  <Description>
oil

>  <FSP3>
0.40

>  <clogP>
0.99

>  <TPSA>
75.71

>  <Acceptor>
4

>  <Donor>
1

>  <RotBonds>
6

>  <HAC>
22

>  <Collection>
General

>  <PPDS>
+

$$$$
F6451-1634
  Mrv2219 10102508112D          

 22 23  0  0  0  0            999 V2000
   -5.2827    2.5705    0.0000 N   0  0  0  0  0  0  0  0  0  0  0  0
   -5.3702    1.7456    0.0000 C   0  0  0  0  0  0  0  0  0  0  0  0
   -6.0285    2.8997    0.0000 C   0  0  0  0  0  0  0  0  0  0  0  0
   -4.5828    2.9872    0.0000 C   0  0  0  0  0  0  0  0  0  0  0  0
   -4.5828    3.7996    0.0000 C   0  0  0  0  0  0  0  0  0  0  0  0
   -3.1329    6.2660    0.0000 C   0  0  0  0  0  0  0  0  0  0  0  0
   -3.8621    4.2120    0.0000 N   0  0  0  0  0  0  0  0  0  0  0  0
   -6.1660    1.5706    0.0000 C   0  0  0  0  0  0  0  0  0  0  0  0
   -6.5784    2.2830    0.0000 C   0  0  0  0  0  0  0  0  0  0  0  0
   -4.7495    1.1832    0.0000 O   0  0  0  0  0  0  0  0  0  0  0  0
   -6.2035    3.7079    0.0000 O   0  0  0  0  0  0  0  0  0  0  0  0
   -5.2952    4.2120    0.0000 O   0  0  0  0  0  0  0  0  0  0  0  0
   -3.8454    6.6784    0.0000 C   0  0  0  0  0  0  0  0  0  0  0  0
   -3.8621    5.0286    0.0000 C   0  0  0  0  0  0  0  0  0  0  0  0
   -3.1371    5.4286    0.0000 C   0  0  0  0  0  0  0  0  0  0  0  0
   -2.4330    5.0036    0.0000 O   0  0  0  0  0  0  0  0  0  0  0  0
   -2.4205    6.6659    0.0000 C   0  0  0  0  0  0  0  0  0  0  0  0
   -4.5703    6.2743    0.0000 C   0  0  0  0  0  0  0  0  0  0  0  0
   -3.8329    7.5241    0.0000 C   0  0  0  0  0  0  0  0  0  0  0  0
   -1.7206    5.4161    0.0000 C   0  0  0  0  0  0  0  0  0  0  0  0
   -2.4080    7.4908    0.0000 C   0  0  0  0  0  0  0  0  0  0  0  0
   -3.0996    7.9241    0.0000 C   0  0  0  0  0  0  0  0  0  0  0  0
  2  1  1  0  0  0  0
  3  1  1  0  0  0  0
  4  1  1  0  0  0  0
  5  4  1  0  0  0  0
  6 15  1  0  0  0  0
  7  5  1  0  0  0  0
  8  2  1  0  0  0  0
  9  3  1  0  0  0  0
 10  2  2  0  0  0  0
 11  3  2  0  0  0  0
 12  5  2  0  0  0  0
 13  6  1  0  0  0  0
 14  7  1  0  0  0  0
 15 14  1  0  0  0  0
 16 15  1  0  0  0  0
 17  6  2  0  0  0  0
 18 13  1  0  0  0  0
 19 13  2  0  0  0  0
 20 16  1  0  0  0  0
 21 17  1  0  0  0  0
 22 21  2  0  0  0  0
  9  8  1  0  0  0  0
 22 19  1  0  0  0  0
M  END
>  <IDNUMBER>
F6451-1634

>  <Chemical_Name>
2-(2,5-dioxopyrrolidin-1-yl)-N-[2-methoxy-2-(2-methylphenyl)ethyl]acetamide

>  <PriceCoeff>
1.00

>  <CAS>
1797877-57-6

>  <MW>
304.34

>  <Description>
solid

>  <FSP3>
0.44

>  <clogP>
1.30

>  <TPSA>
75.71

>  <Acceptor>
4

>  <Donor>
1

>  <RotBonds>
6

>  <HAC>
22

>  <Collection>
General

>  <PPDS>
+

$$$$
F6451-2156
  Mrv2219 10102508112D          

 23 24  0  0  0  0            999 V2000
   -5.2948    2.5764    0.0000 N   0  0  0  0  0  0  0  0  0  0  0  0
   -5.3825    1.7496    0.0000 C   0  0  0  0  0  0  0  0  0  0  0  0
   -6.0424    2.9063    0.0000 C   0  0  0  0  0  0  0  0  0  0  0  0
   -4.5933    2.9940    0.0000 C   0  0  0  0  0  0  0  0  0  0  0  0
   -4.5933    3.8083    0.0000 C   0  0  0  0  0  0  0  0  0  0  0  0
   -3.1151    6.2804    0.0000 C   0  0  0  0  0  0  0  0  0  0  0  0
   -3.8709    4.2217    0.0000 N   0  0  0  0  0  0  0  0  0  0  0  0
   -6.1802    1.5743    0.0000 C   0  0  0  0  0  0  0  0  0  0  0  0
   -6.5936    2.2883    0.0000 C   0  0  0  0  0  0  0  0  0  0  0  0
   -4.7603    1.1859    0.0000 O   0  0  0  0  0  0  0  0  0  0  0  0
   -6.2178    3.7164    0.0000 O   0  0  0  0  0  0  0  0  0  0  0  0
   -2.3885    6.6646    0.0000 C   0  0  0  0  0  0  0  0  0  0  0  0
   -5.3074    4.2217    0.0000 O   0  0  0  0  0  0  0  0  0  0  0  0
   -3.8709    5.0402    0.0000 C   0  0  0  0  0  0  0  0  0  0  0  0
   -3.1402    5.4411    0.0000 C   0  0  0  0  0  0  0  0  0  0  0  0
   -2.3760    7.4956    0.0000 C   0  0  0  0  0  0  0  0  0  0  0  0
   -2.4386    5.0110    0.0000 O   0  0  0  0  0  0  0  0  0  0  0  0
   -1.6286    7.8922    0.0000 O   0  0  0  0  0  0  0  0  0  0  0  0
   -3.8166    6.7064    0.0000 C   0  0  0  0  0  0  0  0  0  0  0  0
   -3.7915    7.5207    0.0000 C   0  0  0  0  0  0  0  0  0  0  0  0
   -3.0649    7.9215    0.0000 C   0  0  0  0  0  0  0  0  0  0  0  0
   -1.7120    5.4285    0.0000 C   0  0  0  0  0  0  0  0  0  0  0  0
   -1.6160    8.7316    0.0000 C   0  0  0  0  0  0  0  0  0  0  0  0
  2  1  1  0  0  0  0
  3  1  1  0  0  0  0
  4  1  1  0  0  0  0
  5  4  1  0  0  0  0
  6 15  1  0  0  0  0
  7  5  1  0  0  0  0
  8  2  1  0  0  0  0
  9  3  1  0  0  0  0
 10  2  2  0  0  0  0
 11  3  2  0  0  0  0
 12  6  2  0  0  0  0
 13  5  2  0  0  0  0
 14  7  1  0  0  0  0
 15 14  1  0  0  0  0
 16 12  1  0  0  0  0
 17 15  1  0  0  0  0
 18 16  1  0  0  0  0
 19  6  1  0  0  0  0
 20 19  2  0  0  0  0
 21 20  1  0  0  0  0
 22 17  1  0  0  0  0
 23 18  1  0  0  0  0
  8  9  1  0  0  0  0
 21 16  2  0  0  0  0
M  END
>  <IDNUMBER>
F6451-2156

>  <Chemical_Name>
2-(2,5-dioxopyrrolidin-1-yl)-N-[2-methoxy-2-(3-methoxyphenyl)ethyl]acetamide

>  <PriceCoeff>
1.00

>  <CAS>
1797159-98-8

>  <MW>
320.34

>  <Description>
solid

>  <FSP3>
0.44

>  <clogP>
0.77

>  <TPSA>
84.94

>  <Acceptor>
5

>  <Donor>
1

>  <RotBonds>
7

>  <HAC>
23

>  <Collection>
General

>  <PPDS>
+

$$$$
F6451-2678
  Mrv2219 10102508112D          

 22 23  0  0  0  0            999 V2000
   -5.2807    2.5695    0.0000 N   0  0  0  0  0  0  0  0  0  0  0  0
   -5.3682    1.7449    0.0000 C   0  0  0  0  0  0  0  0  0  0  0  0
   -6.0262    2.8986    0.0000 C   0  0  0  0  0  0  0  0  0  0  0  0
   -3.1567    6.2761    0.0000 C   0  0  0  0  0  0  0  0  0  0  0  0
   -4.5810    2.9860    0.0000 C   0  0  0  0  0  0  0  0  0  0  0  0
   -4.5810    3.7981    0.0000 C   0  0  0  0  0  0  0  0  0  0  0  0
   -3.8606    4.2104    0.0000 N   0  0  0  0  0  0  0  0  0  0  0  0
   -6.1637    1.5700    0.0000 C   0  0  0  0  0  0  0  0  0  0  0  0
   -6.5760    2.2822    0.0000 C   0  0  0  0  0  0  0  0  0  0  0  0
   -3.8814    6.6759    0.0000 C   0  0  0  0  0  0  0  0  0  0  0  0
   -4.7477    1.1827    0.0000 O   0  0  0  0  0  0  0  0  0  0  0  0
   -6.2011    3.7065    0.0000 O   0  0  0  0  0  0  0  0  0  0  0  0
   -3.1443    5.4515    0.0000 C   0  0  0  0  0  0  0  0  0  0  0  0
   -5.2932    4.2104    0.0000 O   0  0  0  0  0  0  0  0  0  0  0  0
   -3.8606    5.0267    0.0000 C   0  0  0  0  0  0  0  0  0  0  0  0
   -4.5935    6.2594    0.0000 Cl  0  0  0  0  0  0  0  0  0  0  0  0
   -2.4238    5.0392    0.0000 O   0  0  0  0  0  0  0  0  0  0  0  0
   -2.4571    6.6967    0.0000 C   0  0  0  0  0  0  0  0  0  0  0  0
   -3.8814    7.5130    0.0000 C   0  0  0  0  0  0  0  0  0  0  0  0
   -1.7117    5.4598    0.0000 C   0  0  0  0  0  0  0  0  0  0  0  0
   -2.4488    7.5213    0.0000 C   0  0  0  0  0  0  0  0  0  0  0  0
   -3.1609    7.9378    0.0000 C   0  0  0  0  0  0  0  0  0  0  0  0
  2  1  1  0  0  0  0
  3  1  1  0  0  0  0
  4 13  1  0  0  0  0
  5  1  1  0  0  0  0
  6  5  1  0  0  0  0
  7  6  1  0  0  0  0
  8  2  1  0  0  0  0
  9  3  1  0  0  0  0
 10  4  1  0  0  0  0
 11  2  2  0  0  0  0
 12  3  2  0  0  0  0
 13 15  1  0  0  0  0
 14  6  2  0  0  0  0
 15  7  1  0  0  0  0
 16 10  1  0  0  0  0
 17 13  1  0  0  0  0
 18  4  2  0  0  0  0
 19 10  2  0  0  0  0
 20 17  1  0  0  0  0
 21 18  1  0  0  0  0
 22 21  2  0  0  0  0
  9  8  1  0  0  0  0
 22 19  1  0  0  0  0
M  END
>  <IDNUMBER>
F6451-2678

>  <Chemical_Name>
N-[2-(2-chlorophenyl)-2-methoxyethyl]-2-(2,5-dioxopyrrolidin-1-yl)acetamide

>  <PriceCoeff>
1.00

>  <CAS>
1790199-25-5

>  <MW>
324.76

>  <Description>
oil

>  <FSP3>
0.40

>  <clogP>
1.56

>  <TPSA>
75.71

>  <Acceptor>
4

>  <Donor>
1

>  <RotBonds>
6

>  <HAC>
22

>  <Collection>
General

>  <PPDS>
+

$$$$
F6451-2738
  Mrv2219 10102508112D          

 24 25  0  0  0  0            999 V2000
   -3.1538    6.2703    0.0000 C   0  0  0  0  0  0  0  0  0  0  0  0
   -4.5768    3.7946    0.0000 C   0  0  0  0  0  0  0  0  0  0  0  0
   -3.8570    4.2065    0.0000 N   0  0  0  0  0  0  0  0  0  0  0  0
   -3.8778    6.6698    0.0000 C   0  0  0  0  0  0  0  0  0  0  0  0
   -5.2758    2.5547    0.0000 O   0  0  0  0  0  0  0  0  0  0  0  0
   -5.2800    1.7308    0.0000 C   0  0  0  0  0  0  0  0  0  0  0  0
   -3.1414    5.4465    0.0000 C   0  0  0  0  0  0  0  0  0  0  0  0
   -5.2883    4.1983    0.0000 O   0  0  0  0  0  0  0  0  0  0  0  0
   -3.8570    5.0221    0.0000 C   0  0  0  0  0  0  0  0  0  0  0  0
   -5.9957    1.3189    0.0000 C   0  0  0  0  0  0  0  0  0  0  0  0
   -4.5768    2.9666    0.0000 C   0  0  0  0  0  0  0  0  0  0  0  0
   -4.5893    6.2536    0.0000 Cl  0  0  0  0  0  0  0  0  0  0  0  0
   -6.6947    1.7226    0.0000 O   0  0  0  0  0  0  0  0  0  0  0  0
   -2.4216    5.0346    0.0000 O   0  0  0  0  0  0  0  0  0  0  0  0
   -2.4548    6.6905    0.0000 C   0  0  0  0  0  0  0  0  0  0  0  0
   -3.8778    7.5061    0.0000 C   0  0  0  0  0  0  0  0  0  0  0  0
   -4.5560    1.3064    0.0000 C   0  0  0  0  0  0  0  0  0  0  0  0
   -5.9873    0.4951    0.0000 C   0  0  0  0  0  0  0  0  0  0  0  0
   -7.4062    1.3106    0.0000 C   0  0  0  0  0  0  0  0  0  0  0  0
   -1.7101    5.4548    0.0000 C   0  0  0  0  0  0  0  0  0  0  0  0
   -2.4465    7.5144    0.0000 C   0  0  0  0  0  0  0  0  0  0  0  0
   -3.1580    7.9305    0.0000 C   0  0  0  0  0  0  0  0  0  0  0  0
   -4.5519    0.4951    0.0000 C   0  0  0  0  0  0  0  0  0  0  0  0
   -5.2758    0.0832    0.0000 C   0  0  0  0  0  0  0  0  0  0  0  0
  2  3  1  0  0  0  0
  3  9  1  0  0  0  0
  4  1  1  0  0  0  0
  5 11  1  0  0  0  0
  6  5  1  0  0  0  0
  7  1  1  0  0  0  0
  8  2  2  0  0  0  0
  9  7  1  0  0  0  0
 10  6  2  0  0  0  0
 11  2  1  0  0  0  0
 12  4  1  0  0  0  0
 13 10  1  0  0  0  0
 14  7  1  0  0  0  0
 15  1  2  0  0  0  0
 16  4  2  0  0  0  0
 17  6  1  0  0  0  0
 18 10  1  0  0  0  0
 19 13  1  0  0  0  0
 20 14  1  0  0  0  0
 21 15  1  0  0  0  0
 22 21  2  0  0  0  0
 23 17  2  0  0  0  0
 24 23  1  0  0  0  0
 22 16  1  0  0  0  0
 24 18  2  0  0  0  0
M  END
>  <IDNUMBER>
F6451-2738

>  <Chemical_Name>
N-[2-(2-chlorophenyl)-2-methoxyethyl]-2-(2-methoxyphenoxy)acetamide

>  <PriceCoeff>
1.00

>  <CAS>
1788558-92-8

>  <MW>
349.81

>  <Description>
oil

>  <FSP3>
0.28

>  <clogP>
3.37

>  <TPSA>
56.79

>  <Acceptor>
4

>  <Donor>
1

>  <RotBonds>
8

>  <HAC>
24

>  <Collection>
General

>  <PPDS>
+

$$$$
F6452-0068
  Mrv2219 10102508112D          

 23 24  0  0  0  0            999 V2000
   -5.2942    2.5761    0.0000 N   0  0  0  0  0  0  0  0  0  0  0  0
   -5.3819    1.7494    0.0000 C   0  0  0  0  0  0  0  0  0  0  0  0
   -6.0417    2.9060    0.0000 C   0  0  0  0  0  0  0  0  0  0  0  0
   -2.4300    5.8704    0.0000 C   0  0  0  0  0  0  0  0  0  0  0  0
   -4.5887    2.9937    0.0000 C   0  0  0  0  0  0  0  0  0  0  0  0
   -3.1523    5.4613    0.0000 C   0  0  0  0  0  0  0  0  0  0  0  0
   -4.5928    3.8079    0.0000 C   0  0  0  0  0  0  0  0  0  0  0  0
   -3.8705    4.2212    0.0000 N   0  0  0  0  0  0  0  0  0  0  0  0
   -1.7160    5.4613    0.0000 C   0  0  0  0  0  0  0  0  0  0  0  0
   -6.1795    1.5741    0.0000 C   0  0  0  0  0  0  0  0  0  0  0  0
   -6.5928    2.2880    0.0000 C   0  0  0  0  0  0  0  0  0  0  0  0
   -4.7598    1.1858    0.0000 O   0  0  0  0  0  0  0  0  0  0  0  0
   -6.2171    3.7160    0.0000 O   0  0  0  0  0  0  0  0  0  0  0  0
   -3.8705    5.0396    0.0000 C   0  0  0  0  0  0  0  0  0  0  0  0
   -5.3068    4.2212    0.0000 O   0  0  0  0  0  0  0  0  0  0  0  0
   -1.7118    4.6263    0.0000 F   0  0  0  0  0  0  0  0  0  0  0  0
   -3.5657    6.1795    0.0000 O   0  0  0  0  0  0  0  0  0  0  0  0
   -2.4258    6.6930    0.0000 C   0  0  0  0  0  0  0  0  0  0  0  0
   -2.7390    4.7390    0.0000 C   0  0  0  0  0  0  0  0  0  0  0  0
   -1.0021    5.8704    0.0000 C   0  0  0  0  0  0  0  0  0  0  0  0
   -4.3924    6.1795    0.0000 C   0  0  0  0  0  0  0  0  0  0  0  0
   -1.7118    7.1189    0.0000 C   0  0  0  0  0  0  0  0  0  0  0  0
   -0.9979    6.7056    0.0000 C   0  0  0  0  0  0  0  0  0  0  0  0
  2  1  1  0  0  0  0
  3  1  1  0  0  0  0
  4  6  1  0  0  0  0
  5  1  1  0  0  0  0
  6 14  1  0  0  0  0
  7  5  1  0  0  0  0
  8  7  1  0  0  0  0
  9  4  2  0  0  0  0
 10  2  1  0  0  0  0
 11  3  1  0  0  0  0
 12  2  2  0  0  0  0
 13  3  2  0  0  0  0
 14  8  1  0  0  0  0
 15  7  2  0  0  0  0
 16  9  1  0  0  0  0
 17  6  1  0  0  0  0
 18  4  1  0  0  0  0
 19  6  1  0  0  0  0
 20  9  1  0  0  0  0
 21 17  1  0  0  0  0
 22 18  2  0  0  0  0
 23 22  1  0  0  0  0
 11 10  1  0  0  0  0
 23 20  2  0  0  0  0
M  END
>  <IDNUMBER>
F6452-0068

>  <Chemical_Name>
2-(2,5-dioxopyrrolidin-1-yl)-N-[2-(2-fluorophenyl)-2-methoxypropyl]acetamide

>  <PriceCoeff>
1.00

>  <CAS>
1797716-01-8

>  <MW>
322.33

>  <Description>
oil

>  <FSP3>
0.44

>  <clogP>
1.39

>  <TPSA>
75.71

>  <Acceptor>
4

>  <Donor>
1

>  <RotBonds>
6

>  <HAC>
23

>  <Collection>
General

>  <PPDS>
+

$$$$
F6452-1112
  Mrv2219 10102508112D          

 23 24  0  0  0  0            999 V2000
   -5.2833    2.5708    0.0000 N   0  0  0  0  0  0  0  0  0  0  0  0
   -5.3708    1.7458    0.0000 C   0  0  0  0  0  0  0  0  0  0  0  0
   -6.0292    2.9000    0.0000 C   0  0  0  0  0  0  0  0  0  0  0  0
   -4.5792    2.9875    0.0000 C   0  0  0  0  0  0  0  0  0  0  0  0
   -4.5833    3.8000    0.0000 C   0  0  0  0  0  0  0  0  0  0  0  0
   -3.1458    5.4500    0.0000 C   0  0  0  0  0  0  0  0  0  0  0  0
   -2.4208    5.8667    0.0000 C   0  0  0  0  0  0  0  0  0  0  0  0
   -3.8625    4.2125    0.0000 N   0  0  0  0  0  0  0  0  0  0  0  0
   -6.1667    1.5708    0.0000 C   0  0  0  0  0  0  0  0  0  0  0  0
   -6.5792    2.2833    0.0000 C   0  0  0  0  0  0  0  0  0  0  0  0
   -4.7500    1.1833    0.0000 O   0  0  0  0  0  0  0  0  0  0  0  0
   -6.2042    3.7083    0.0000 O   0  0  0  0  0  0  0  0  0  0  0  0
   -3.8625    5.0333    0.0000 C   0  0  0  0  0  0  0  0  0  0  0  0
   -2.4208    6.6917    0.0000 C   0  0  0  0  0  0  0  0  0  0  0  0
   -5.2958    4.2125    0.0000 O   0  0  0  0  0  0  0  0  0  0  0  0
   -1.7083    7.1042    0.0000 C   0  0  0  0  0  0  0  0  0  0  0  0
   -3.5583    6.1667    0.0000 O   0  0  0  0  0  0  0  0  0  0  0  0
   -1.7083    7.9292    0.0000 Cl  0  0  0  0  0  0  0  0  0  0  0  0
   -1.7083    5.4542    0.0000 C   0  0  0  0  0  0  0  0  0  0  0  0
   -0.9875    5.8667    0.0000 C   0  0  0  0  0  0  0  0  0  0  0  0
   -2.7250    4.7333    0.0000 C   0  0  0  0  0  0  0  0  0  0  0  0
   -0.9958    6.6917    0.0000 C   0  0  0  0  0  0  0  0  0  0  0  0
   -4.3833    6.1667    0.0000 C   0  0  0  0  0  0  0  0  0  0  0  0
  2  1  1  0  0  0  0
  3  1  1  0  0  0  0
  4  1  1  0  0  0  0
  5  4  1  0  0  0  0
  6 13  1  0  0  0  0
  7  6  1  0  0  0  0
  8  5  1  0  0  0  0
  9  2  1  0  0  0  0
 10  3  1  0  0  0  0
 11  2  2  0  0  0  0
 12  3  2  0  0  0  0
 13  8  1  0  0  0  0
 14  7  1  0  0  0  0
 15  5  2  0  0  0  0
 16 14  2  0  0  0  0
 17  6  1  0  0  0  0
 18 16  1  0  0  0  0
 19  7  2  0  0  0  0
 20 19  1  0  0  0  0
 21  6  1  0  0  0  0
 22 20  2  0  0  0  0
 23 17  1  0  0  0  0
 10  9  1  0  0  0  0
 22 16  1  0  0  0  0
M  END
>  <IDNUMBER>
F6452-1112

>  <Chemical_Name>
N-[2-(3-chlorophenyl)-2-methoxypropyl]-2-(2,5-dioxopyrrolidin-1-yl)acetamide

>  <PriceCoeff>
1.00

>  <CAS>
1795196-55-2

>  <MW>
338.79

>  <Description>
oil

>  <FSP3>
0.44

>  <clogP>
1.96

>  <TPSA>
75.71

>  <Acceptor>
4

>  <Donor>
1

>  <RotBonds>
6

>  <HAC>
23

>  <Collection>
General

>  <PPDS>
+

$$$$
F6464-0017
  Mrv2219 10102508112D          

 24 25  0  0  0  0            999 V2000
   -3.1648    4.2129    0.0000 N   0  0  0  0  0  0  0  0  0  0  0  0
   -3.8788    3.8162    0.0000 C   0  0  0  0  0  0  0  0  0  0  0  0
   -3.8788    2.9895    0.0000 C   0  0  0  0  0  0  0  0  0  0  0  0
   -2.4801    3.7578    0.0000 C   0  0  0  0  0  0  0  0  0  0  0  0
   -3.1648    2.5761    0.0000 N   0  0  0  0  0  0  0  0  0  0  0  0
   -3.1565    1.7494    0.0000 C   0  0  0  0  0  0  0  0  0  0  0  0
   -1.6993    4.0041    0.0000 C   0  0  0  0  0  0  0  0  0  0  0  0
   -4.5928    4.2129    0.0000 O   0  0  0  0  0  0  0  0  0  0  0  0
   -3.8788    1.3361    0.0000 O   0  0  0  0  0  0  0  0  0  0  0  0
   -1.1356    3.4028    0.0000 C   0  0  0  0  0  0  0  0  0  0  0  0
   -4.5928    2.5761    0.0000 C   0  0  0  0  0  0  0  0  0  0  0  0
   -3.2275    5.0396    0.0000 C   0  0  0  0  0  0  0  0  0  0  0  0
   -5.2985    1.3361    0.0000 S   0  0  0  0  0  0  0  0  0  0  0  0
   -2.4509    1.3403    0.0000 C   0  0  0  0  0  0  0  0  0  0  0  0
   -4.5928    1.7494    0.0000 C   0  0  0  0  0  0  0  0  0  0  0  0
   -1.3987    4.7641    0.0000 C   0  0  0  0  0  0  0  0  0  0  0  0
   -1.3778    2.6137    0.0000 C   0  0  0  0  0  0  0  0  0  0  0  0
   -0.3340    3.5907    0.0000 C   0  0  0  0  0  0  0  0  0  0  0  0
   -5.3068    0.5094    0.0000 C   0  0  0  0  0  0  0  0  0  0  0  0
   -2.6262    5.6033    0.0000 C   0  0  0  0  0  0  0  0  0  0  0  0
   -1.7995    5.4780    0.0000 C   0  0  0  0  0  0  0  0  0  0  0  0
   -0.8142    2.0041    0.0000 C   0  0  0  0  0  0  0  0  0  0  0  0
    0.2297    2.9895    0.0000 C   0  0  0  0  0  0  0  0  0  0  0  0
   -0.0083    2.1920    0.0000 C   0  0  0  0  0  0  0  0  0  0  0  0
  2  1  1  0  0  0  0
  3  2  1  0  0  0  0
  4  1  1  0  0  0  0
  5  3  1  0  0  0  0
  6  5  1  0  0  0  0
  7  4  1  0  0  0  0
  8  2  2  0  0  0  0
  9  6  2  0  0  0  0
 10  7  1  0  0  0  0
 11  3  1  0  0  0  0
 12  1  1  0  0  0  0
 13 15  1  0  0  0  0
 14  6  1  0  0  0  0
 15 11  1  0  0  0  0
 16  7  1  0  0  0  0
 17 10  2  0  0  0  0
 18 10  1  0  0  0  0
 19 13  1  0  0  0  0
 20 12  1  0  0  0  0
 21 20  1  0  0  0  0
 22 17  1  0  0  0  0
 23 18  2  0  0  0  0
 24 23  1  0  0  0  0
 21 16  1  0  0  0  0
 22 24  2  0  0  0  0
M  END
>  <IDNUMBER>
F6464-0017

>  <Chemical_Name>
N-[4-(methylsulfanyl)-1-oxo-1-(3-phenylazepan-1-yl)butan-2-yl]acetamide

>  <PriceCoeff>
1.50

>  <CAS>
2034209-99-7

>  <MW>
348.50

>  <Description>
solid

>  <FSP3>
0.58

>  <clogP>
2.27

>  <TPSA>
74.71

>  <Acceptor>
2

>  <Donor>
1

>  <RotBonds>
7

>  <HAC>
24

>  <Collection>
Advanced

>  <PPDS>
+

$$$$
F6469-0994
  Mrv2219 10102508112D          

 23 25  0  0  0  0            999 V2000
    3.4164   -4.1063    0.0000 N   0  0  0  0  0  0  0  0  0  0  0  0
    6.8285   -2.4630    0.0000 C   0  0  0  0  0  0  0  0  0  0  0  0
    6.7407   -3.2658    0.0000 N   0  0  0  0  0  0  0  0  0  0  0  0
    2.7264   -3.6547    0.0000 C   0  0  0  0  0  0  0  0  0  0  0  0
    3.1989   -4.9050    0.0000 C   0  0  0  0  0  0  0  0  0  0  0  0
    6.2515   -1.8734    0.0000 C   0  0  0  0  0  0  0  0  0  0  0  0
    7.6314   -2.2957    0.0000 C   0  0  0  0  0  0  0  0  0  0  0  0
    7.4934   -3.6045    0.0000 C   0  0  0  0  0  0  0  0  0  0  0  0
    8.0412   -3.0149    0.0000 S   0  0  0  0  0  0  0  0  0  0  0  0
    5.4486   -2.0866    0.0000 C   0  0  0  0  0  0  0  0  0  0  0  0
    4.4325   -3.1028    0.0000 C   0  0  0  0  0  0  0  0  0  0  0  0
    5.2354   -2.8895    0.0000 N   0  0  0  0  0  0  0  0  0  0  0  0
    4.2192   -3.8931    0.0000 C   0  0  0  0  0  0  0  0  0  0  0  0
    2.0782   -4.1774    0.0000 C   0  0  0  0  0  0  0  0  0  0  0  0
    2.3752   -4.9468    0.0000 C   0  0  0  0  0  0  0  0  0  0  0  0
    2.6846   -2.8268    0.0000 O   0  0  0  0  0  0  0  0  0  0  0  0
    3.7132   -5.5573    0.0000 O   0  0  0  0  0  0  0  0  0  0  0  0
    3.8429   -2.5132    0.0000 O   0  0  0  0  0  0  0  0  0  0  0  0
    6.4647   -1.0788    0.0000 C   0  0  0  0  0  0  0  0  0  0  0  0
    4.8674   -1.4970    0.0000 C   0  0  0  0  0  0  0  0  0  0  0  0
    7.6690   -4.4157    0.0000 C   0  0  0  0  0  0  0  0  0  0  0  0
    5.8877   -0.4935    0.0000 C   0  0  0  0  0  0  0  0  0  0  0  0
    5.0806   -0.7150    0.0000 C   0  0  0  0  0  0  0  0  0  0  0  0
  2  6  1  0  0  0  0
  3  2  1  0  0  0  0
  4  1  1  0  0  0  0
  5  1  1  0  0  0  0
  6 10  1  0  0  0  0
  7  2  2  0  0  0  0
  8  3  2  0  0  0  0
  9  7  1  0  0  0  0
 10 12  1  0  0  0  0
 11 13  1  0  0  0  0
 12 11  1  0  0  0  0
 13  1  1  0  0  0  0
 14  4  1  0  0  0  0
 15  5  1  0  0  0  0
 16  4  2  0  0  0  0
 17  5  2  0  0  0  0
 18 11  2  0  0  0  0
 19  6  2  0  0  0  0
 20 10  2  0  0  0  0
 21  8  1  0  0  0  0
 22 23  2  0  0  0  0
 23 20  1  0  0  0  0
 14 15  1  0  0  0  0
 19 22  1  0  0  0  0
  8  9  1  0  0  0  0
M  END
>  <IDNUMBER>
F6469-0994

>  <Chemical_Name>
2-(2,5-dioxopyrrolidin-1-yl)-N-[2-(2-methyl-1,3-thiazol-4-yl)phenyl]acetamide

>  <PriceCoeff>
1.00

>  <CAS>
1797160-81-6

>  <MW>
329.37

>  <Description>
solid

>  <FSP3>
0.25

>  <clogP>
0.70

>  <TPSA>
107.61

>  <Acceptor>
4

>  <Donor>
1

>  <RotBonds>
4

>  <HAC>
23

>  <Collection>
General

>  <PPDS>
+

$$$$
F6469-1367
  Mrv2219 10102508112D          

 29 32  0  0  0  0            999 V2000
    2.5949   -3.1481    0.0000 N   0  0  0  0  0  0  0  0  0  0  0  0
    6.9864   -2.7239    0.0000 C   0  0  0  0  0  0  0  0  0  0  0  0
    6.1797   -2.5492    0.0000 N   0  0  0  0  0  0  0  0  0  0  0  0
    6.0923   -1.7341    0.0000 C   0  0  0  0  0  0  0  0  0  0  0  0
    7.2900   -3.4849    0.0000 C   0  0  0  0  0  0  0  0  0  0  0  0
    7.3981   -2.0086    0.0000 S   0  0  0  0  0  0  0  0  0  0  0  0
    1.8007   -2.9235    0.0000 C   0  0  0  0  0  0  0  0  0  0  0  0
    2.6324   -3.9715    0.0000 C   0  0  0  0  0  0  0  0  0  0  0  0
    5.3645   -1.3598    0.0000 C   0  0  0  0  0  0  0  0  0  0  0  0
    6.8409   -1.3890    0.0000 C   0  0  0  0  0  0  0  0  0  0  0  0
    4.6701   -1.8132    0.0000 C   0  0  0  0  0  0  0  0  0  0  0  0
    4.0214   -3.0815    0.0000 C   0  0  0  0  0  0  0  0  0  0  0  0
    4.7075   -2.6366    0.0000 N   0  0  0  0  0  0  0  0  0  0  0  0
    3.2853   -2.6989    0.0000 C   0  0  0  0  0  0  0  0  0  0  0  0
    6.7785   -4.1253    0.0000 C   0  0  0  0  0  0  0  0  0  0  0  0
    1.3474   -3.6097    0.0000 C   0  0  0  0  0  0  0  0  0  0  0  0
    1.8589   -4.2584    0.0000 C   0  0  0  0  0  0  0  0  0  0  0  0
    1.5220   -2.1458    0.0000 O   0  0  0  0  0  0  0  0  0  0  0  0
    3.3185   -4.4372    0.0000 O   0  0  0  0  0  0  0  0  0  0  0  0
    4.0588   -3.9049    0.0000 O   0  0  0  0  0  0  0  0  0  0  0  0
    5.9551   -4.0005    0.0000 F   0  0  0  0  0  0  0  0  0  0  0  0
    8.1009   -3.6097    0.0000 C   0  0  0  0  0  0  0  0  0  0  0  0
    5.3188   -0.5365    0.0000 C   0  0  0  0  0  0  0  0  0  0  0  0
    3.9340   -1.4389    0.0000 C   0  0  0  0  0  0  0  0  0  0  0  0
    7.0779   -4.8947    0.0000 C   0  0  0  0  0  0  0  0  0  0  0  0
    8.4086   -4.3748    0.0000 C   0  0  0  0  0  0  0  0  0  0  0  0
    4.5828   -0.1580    0.0000 C   0  0  0  0  0  0  0  0  0  0  0  0
    3.8841   -0.6113    0.0000 C   0  0  0  0  0  0  0  0  0  0  0  0
    7.8888   -5.0194    0.0000 C   0  0  0  0  0  0  0  0  0  0  0  0
  2  3  2  0  0  0  0
  3  4  1  0  0  0  0
  4  9  1  0  0  0  0
  5  2  1  0  0  0  0
  6 10  1  0  0  0  0
  7  1  1  0  0  0  0
  8  1  1  0  0  0  0
  9 11  1  0  0  0  0
 10  4  2  0  0  0  0
 11 13  1  0  0  0  0
 12 14  1  0  0  0  0
 13 12  1  0  0  0  0
 14  1  1  0  0  0  0
 15  5  2  0  0  0  0
 16  7  1  0  0  0  0
 17  8  1  0  0  0  0
 18  7  2  0  0  0  0
 19  8  2  0  0  0  0
 20 12  2  0  0  0  0
 21 15  1  0  0  0  0
 22  5  1  0  0  0  0
 23  9  2  0  0  0  0
 24 11  2  0  0  0  0
 25 15  1  0  0  0  0
 26 22  2  0  0  0  0
 27 28  2  0  0  0  0
 28 24  1  0  0  0  0
 29 26  1  0  0  0  0
 16 17  1  0  0  0  0
 23 27  1  0  0  0  0
  2  6  1  0  0  0  0
 25 29  2  0  0  0  0
M  END
>  <IDNUMBER>
F6469-1367

>  <Chemical_Name>
2-(2,5-dioxopyrrolidin-1-yl)-N-{2-[2-(2-fluorophenyl)-1,3-thiazol-4-yl]phenyl}acetamide

>  <PriceCoeff>
1.00

>  <CAS>
1797729-31-7

>  <MW>
409.43

>  <Description>
solid

>  <FSP3>
0.14

>  <clogP>
2.45

>  <TPSA>
107.61

>  <Acceptor>
4

>  <Donor>
1

>  <RotBonds>
5

>  <HAC>
29

>  <Collection>
General

>  <PPDS>
+

$$$$
F6469-1740
  Mrv2219 10102508112D          

 26 29  0  0  0  0            999 V2000
    2.4986   -2.8120    0.0000 N   0  0  0  0  0  0  0  0  0  0  0  0
    6.2673   -2.3983    0.0000 C   0  0  0  0  0  0  0  0  0  0  0  0
    6.1546   -3.2006    0.0000 N   0  0  0  0  0  0  0  0  0  0  0  0
    7.4624   -2.9958    0.0000 N   0  0  0  0  0  0  0  0  0  0  0  0
    6.8816   -3.5766    0.0000 C   0  0  0  0  0  0  0  0  0  0  0  0
    7.0864   -2.2688    0.0000 C   0  0  0  0  0  0  0  0  0  0  0  0
    1.7967   -2.3858    0.0000 C   0  0  0  0  0  0  0  0  0  0  0  0
    2.3106   -3.6142    0.0000 C   0  0  0  0  0  0  0  0  0  0  0  0
    5.6532   -1.8426    0.0000 C   0  0  0  0  0  0  0  0  0  0  0  0
    4.8677   -2.0933    0.0000 C   0  0  0  0  0  0  0  0  0  0  0  0
    3.8900   -3.1379    0.0000 C   0  0  0  0  0  0  0  0  0  0  0  0
    4.6797   -2.8998    0.0000 N   0  0  0  0  0  0  0  0  0  0  0  0
    3.2884   -2.5738    0.0000 C   0  0  0  0  0  0  0  0  0  0  0  0
    8.2521   -3.2089    0.0000 C   0  0  0  0  0  0  0  0  0  0  0  0
    7.0947   -4.3663    0.0000 C   0  0  0  0  0  0  0  0  0  0  0  0
    1.1699   -2.9374    0.0000 C   0  0  0  0  0  0  0  0  0  0  0  0
    1.4833   -3.6852    0.0000 C   0  0  0  0  0  0  0  0  0  0  0  0
    1.7298   -1.5585    0.0000 O   0  0  0  0  0  0  0  0  0  0  0  0
    2.8496   -4.2493    0.0000 O   0  0  0  0  0  0  0  0  0  0  0  0
    3.7103   -3.9401    0.0000 O   0  0  0  0  0  0  0  0  0  0  0  0
    8.4652   -4.0111    0.0000 C   0  0  0  0  0  0  0  0  0  0  0  0
    7.8969   -4.5794    0.0000 C   0  0  0  0  0  0  0  0  0  0  0  0
    5.8329   -1.0320    0.0000 C   0  0  0  0  0  0  0  0  0  0  0  0
    4.2618   -1.5335    0.0000 C   0  0  0  0  0  0  0  0  0  0  0  0
    5.2187   -0.4806    0.0000 C   0  0  0  0  0  0  0  0  0  0  0  0
    4.4415   -0.7395    0.0000 C   0  0  0  0  0  0  0  0  0  0  0  0
  2  9  1  0  0  0  0
  3  2  1  0  0  0  0
  4  6  1  0  0  0  0
  5  3  2  0  0  0  0
  6  2  2  0  0  0  0
  7  1  1  0  0  0  0
  8  1  1  0  0  0  0
  9 10  1  0  0  0  0
 10 12  1  0  0  0  0
 11 13  1  0  0  0  0
 12 11  1  0  0  0  0
 13  1  1  0  0  0  0
 14  4  1  0  0  0  0
 15  5  1  0  0  0  0
 16  7  1  0  0  0  0
 17  8  1  0  0  0  0
 18  7  2  0  0  0  0
 19  8  2  0  0  0  0
 20 11  2  0  0  0  0
 21 14  2  0  0  0  0
 22 15  2  0  0  0  0
 23  9  2  0  0  0  0
 24 10  2  0  0  0  0
 25 26  2  0  0  0  0
 26 24  1  0  0  0  0
 16 17  1  0  0  0  0
 23 25  1  0  0  0  0
  5  4  1  0  0  0  0
 22 21  1  0  0  0  0
M  END
>  <IDNUMBER>
F6469-1740

>  <Chemical_Name>
2-(2,5-dioxopyrrolidin-1-yl)-N-(2-{imidazo[1,2-a]pyridin-2-yl}phenyl)acetamide

>  <PriceCoeff>
1.00

>  <CAS>
1797642-67-1

>  <MW>
348.36

>  <Description>
solid

>  <FSP3>
0.16

>  <clogP>
1.11

>  <TPSA>
83.78

>  <Acceptor>
4

>  <Donor>
1

>  <RotBonds>
4

>  <HAC>
26

>  <Collection>
General

>  <PPDS>
+

$$$$
F6471-5845
  Mrv2219 10102508112D          

 22 24  0  0  0  0            999 V2000
   -3.7458    3.6958    0.0000 C   0  0  0  0  0  0  0  0  0  0  0  0
   -0.1583    4.7542    0.0000 N   0  0  0  0  0  0  0  0  0  0  0  0
   -0.8458    5.2208    0.0000 N   0  0  0  0  0  0  0  0  0  0  0  0
   -3.0333    4.1042    0.0000 N   0  0  0  0  0  0  0  0  0  0  0  0
    0.4917    5.2667    0.0000 N   0  0  0  0  0  0  0  0  0  0  0  0
   -4.4583    4.1042    0.0000 N   0  0  0  0  0  0  0  0  0  0  0  0
   -0.6083    6.0167    0.0000 C   0  0  0  0  0  0  0  0  0  0  0  0
    0.2250    6.0458    0.0000 C   0  0  0  0  0  0  0  0  0  0  0  0
   -6.5917    3.7083    0.0000 C   0  0  0  0  0  0  0  0  0  0  0  0
   -5.8917    4.1083    0.0000 C   0  0  0  0  0  0  0  0  0  0  0  0
   -1.6208    4.9167    0.0000 C   0  0  0  0  0  0  0  0  0  0  0  0
   -5.1708    3.7042    0.0000 C   0  0  0  0  0  0  0  0  0  0  0  0
   -1.6208    4.0917    0.0000 C   0  0  0  0  0  0  0  0  0  0  0  0
   -2.3208    5.3292    0.0000 C   0  0  0  0  0  0  0  0  0  0  0  0
   -2.3208    3.6958    0.0000 C   0  0  0  0  0  0  0  0  0  0  0  0
   -3.0333    4.9208    0.0000 C   0  0  0  0  0  0  0  0  0  0  0  0
   -3.7458    2.8833    0.0000 O   0  0  0  0  0  0  0  0  0  0  0  0
   -6.5917    2.8833    0.0000 C   0  0  0  0  0  0  0  0  0  0  0  0
   -5.8958    2.4625    0.0000 C   0  0  0  0  0  0  0  0  0  0  0  0
   -7.3042    4.1167    0.0000 Cl  0  0  0  0  0  0  0  0  0  0  0  0
   -5.1708    2.8750    0.0000 C   0  0  0  0  0  0  0  0  0  0  0  0
   -7.3167    2.4708    0.0000 Cl  0  0  0  0  0  0  0  0  0  0  0  0
  2  3  1  0  0  0  0
  3 11  1  0  0  0  0
  4  1  1  0  0  0  0
  5  2  2  0  0  0  0
  6  1  1  0  0  0  0
  7  3  1  0  0  0  0
  8  7  2  0  0  0  0
  9 10  1  0  0  0  0
 10 12  2  0  0  0  0
 11 14  1  0  0  0  0
 12  6  1  0  0  0  0
 13 15  1  0  0  0  0
 14 16  1  0  0  0  0
 15  4  1  0  0  0  0
 16  4  1  0  0  0  0
 17  1  2  0  0  0  0
 18 19  1  0  0  0  0
 19 21  2  0  0  0  0
 20  9  1  0  0  0  0
 21 12  1  0  0  0  0
 22 18  1  0  0  0  0
 13 11  1  0  0  0  0
  9 18  2  0  0  0  0
  8  5  1  0  0  0  0
M  END
>  <IDNUMBER>
F6471-5845

>  <Chemical_Name>
N-(3,4-dichlorophenyl)-4-(1H-1,2,3-triazol-1-yl)piperidine-1-carboxamide

>  <PriceCoeff>
1.50

>  <CAS>
1795084-58-0

>  <MW>
340.21

>  <Description>
solid

>  <FSP3>
0.36

>  <clogP>
1.71

>  <TPSA>
63.05

>  <Acceptor>
3

>  <Donor>
1

>  <RotBonds>
3

>  <HAC>
22

>  <Collection>
Advanced

$$$$
F6473-3523
  Mrv2219 10102508112D          

 19 21  0  0  0  0            999 V2000
   -1.3112    5.1154    0.0000 N   0  0  0  0  0  0  0  0  0  0  0  0
   -3.0399    4.1132    0.0000 N   0  0  0  0  0  0  0  0  0  0  0  0
   -2.0377    4.6978    0.0000 C   0  0  0  0  0  0  0  0  0  0  0  0
   -3.7582    2.8771    0.0000 C   0  0  0  0  0  0  0  0  0  0  0  0
   -3.7540    3.7039    0.0000 C   0  0  0  0  0  0  0  0  0  0  0  0
   -3.1068    2.3885    0.0000 S   0  0  0  0  0  0  0  0  0  0  0  0
   -1.2277    5.9296    0.0000 C   0  0  0  0  0  0  0  0  0  0  0  0
   -0.5595    4.7771    0.0000 C   0  0  0  0  0  0  0  0  0  0  0  0
   -2.2507    3.9043    0.0000 C   0  0  0  0  0  0  0  0  0  0  0  0
   -2.8270    4.9107    0.0000 C   0  0  0  0  0  0  0  0  0  0  0  0
   -4.4430    2.4010    0.0000 C   0  0  0  0  0  0  0  0  0  0  0  0
   -3.3699    1.5993    0.0000 C   0  0  0  0  0  0  0  0  0  0  0  0
   -4.1967    1.6369    0.0000 C   0  0  0  0  0  0  0  0  0  0  0  0
   -4.4765    4.1048    0.0000 O   0  0  0  0  0  0  0  0  0  0  0  0
   -0.0083    5.3910    0.0000 C   0  0  0  0  0  0  0  0  0  0  0  0
   -0.4217    6.1050    0.0000 C   0  0  0  0  0  0  0  0  0  0  0  0
   -0.3883    3.9712    0.0000 O   0  0  0  0  0  0  0  0  0  0  0  0
   -1.8457    6.4850    0.0000 O   0  0  0  0  0  0  0  0  0  0  0  0
   -4.7145    0.9646    0.0000 C   0  0  0  0  0  0  0  0  0  0  0  0
  2 10  1  0  0  0  0
  3  1  1  0  0  0  0
  4  5  1  0  0  0  0
  5  2  1  0  0  0  0
  6  4  1  0  0  0  0
  7  1  1  0  0  0  0
  8  1  1  0  0  0  0
  9  3  1  0  0  0  0
 10  3  1  0  0  0  0
 11  4  2  0  0  0  0
 12  6  1  0  0  0  0
 13 11  1  0  0  0  0
 14  5  2  0  0  0  0
 15  8  1  0  0  0  0
 16  7  1  0  0  0  0
 17  8  2  0  0  0  0
 18  7  2  0  0  0  0
 19 13  1  0  0  0  0
 16 15  1  0  0  0  0
  9  2  1  0  0  0  0
 12 13  2  0  0  0  0
M  END
>  <IDNUMBER>
F6473-3523

>  <Chemical_Name>
1-[1-(4-methylthiophene-2-carbonyl)azetidin-3-yl]pyrrolidine-2,5-dione

>  <PriceCoeff>
1.50

>  <CAS>
1795445-94-1

>  <MW>
278.33

>  <Description>
solid

>  <FSP3>
0.46

>  <clogP>
0.53

>  <TPSA>
85.93

>  <Acceptor>
3

>  <Donor>
0

>  <RotBonds>
3

>  <HAC>
19

>  <Collection>
Advanced

>  <PPDS>
+

$$$$
F6473-3530
  Mrv2219 10102508112D          

 21 23  0  0  0  0            999 V2000
   -1.3114    5.1165    0.0000 N   0  0  0  0  0  0  0  0  0  0  0  0
   -3.0406    4.1141    0.0000 N   0  0  0  0  0  0  0  0  0  0  0  0
   -2.0382    4.6988    0.0000 C   0  0  0  0  0  0  0  0  0  0  0  0
   -3.7548    3.7047    0.0000 C   0  0  0  0  0  0  0  0  0  0  0  0
   -1.2279    5.9309    0.0000 C   0  0  0  0  0  0  0  0  0  0  0  0
   -0.5596    4.7782    0.0000 C   0  0  0  0  0  0  0  0  0  0  0  0
   -2.2512    3.9052    0.0000 C   0  0  0  0  0  0  0  0  0  0  0  0
   -2.8276    4.9118    0.0000 C   0  0  0  0  0  0  0  0  0  0  0  0
   -3.7673    2.8819    0.0000 C   0  0  0  0  0  0  0  0  0  0  0  0
   -4.4774    4.1057    0.0000 O   0  0  0  0  0  0  0  0  0  0  0  0
   -0.0083    5.3921    0.0000 C   0  0  0  0  0  0  0  0  0  0  0  0
   -0.4218    6.1064    0.0000 C   0  0  0  0  0  0  0  0  0  0  0  0
   -0.3884    3.9720    0.0000 O   0  0  0  0  0  0  0  0  0  0  0  0
   -1.8461    6.4864    0.0000 O   0  0  0  0  0  0  0  0  0  0  0  0
   -4.4941    2.4767    0.0000 C   0  0  0  0  0  0  0  0  0  0  0  0
   -4.4941    1.6372    0.0000 C   0  0  0  0  0  0  0  0  0  0  0  0
   -5.1958    1.2279    0.0000 C   0  0  0  0  0  0  0  0  0  0  0  0
   -5.9100    2.4684    0.0000 C   0  0  0  0  0  0  0  0  0  0  0  0
   -5.1874    2.8819    0.0000 C   0  0  0  0  0  0  0  0  0  0  0  0
   -5.9100    1.6498    0.0000 C   0  0  0  0  0  0  0  0  0  0  0  0
   -5.2083    0.4010    0.0000 C   0  0  0  0  0  0  0  0  0  0  0  0
  2  8  1  0  0  0  0
  3  1  1  0  0  0  0
  4  2  1  0  0  0  0
  5  1  1  0  0  0  0
  6  1  1  0  0  0  0
  7  3  1  0  0  0  0
  8  3  1  0  0  0  0
  9  4  1  0  0  0  0
 10  4  2  0  0  0  0
 11  6  1  0  0  0  0
 12  5  1  0  0  0  0
 13  6  2  0  0  0  0
 14  5  2  0  0  0  0
 15  9  1  0  0  0  0
 16 15  2  0  0  0  0
 17 16  1  0  0  0  0
 18 19  2  0  0  0  0
 19 15  1  0  0  0  0
 20 18  1  0  0  0  0
 21 17  1  0  0  0  0
 12 11  1  0  0  0  0
  7  2  1  0  0  0  0
 17 20  2  0  0  0  0
M  END
>  <IDNUMBER>
F6473-3530

>  <Chemical_Name>
1-{1-[2-(3-methylphenyl)acetyl]azetidin-3-yl}pyrrolidine-2,5-dione

>  <PriceCoeff>
1.50

>  <MW>
286.33

>  <Description>
solid

>  <FSP3>
0.44

>  <clogP>
1.23

>  <TPSA>
57.69

>  <Acceptor>
3

>  <Donor>
0

>  <RotBonds>
4

>  <HAC>
21

>  <Collection>
Advanced

$$$$
F6473-3532
  Mrv2219 10102508112D          

 21 23  0  0  0  0            999 V2000
   -1.3142    5.1272    0.0000 N   0  0  0  0  0  0  0  0  0  0  0  0
   -3.0470    4.1227    0.0000 N   0  0  0  0  0  0  0  0  0  0  0  0
   -2.0425    4.7086    0.0000 C   0  0  0  0  0  0  0  0  0  0  0  0
   -0.5609    4.7882    0.0000 C   0  0  0  0  0  0  0  0  0  0  0  0
   -1.2305    5.9433    0.0000 C   0  0  0  0  0  0  0  0  0  0  0  0
   -3.7626    3.7125    0.0000 C   0  0  0  0  0  0  0  0  0  0  0  0
   -2.2559    3.9133    0.0000 C   0  0  0  0  0  0  0  0  0  0  0  0
   -2.8335    4.9221    0.0000 C   0  0  0  0  0  0  0  0  0  0  0  0
   -0.0083    5.4034    0.0000 C   0  0  0  0  0  0  0  0  0  0  0  0
   -0.4227    6.1191    0.0000 C   0  0  0  0  0  0  0  0  0  0  0  0
   -0.3893    3.9803    0.0000 O   0  0  0  0  0  0  0  0  0  0  0  0
   -1.8500    6.5000    0.0000 O   0  0  0  0  0  0  0  0  0  0  0  0
   -3.7626    2.8837    0.0000 C   0  0  0  0  0  0  0  0  0  0  0  0
   -4.4784    4.1227    0.0000 O   0  0  0  0  0  0  0  0  0  0  0  0
   -4.4658    2.4568    0.0000 O   0  0  0  0  0  0  0  0  0  0  0  0
   -4.4281    1.6407    0.0000 C   0  0  0  0  0  0  0  0  0  0  0  0
   -5.1439    1.2012    0.0000 C   0  0  0  0  0  0  0  0  0  0  0  0
   -3.7250    1.2305    0.0000 C   0  0  0  0  0  0  0  0  0  0  0  0
   -3.6874    0.4102    0.0000 C   0  0  0  0  0  0  0  0  0  0  0  0
   -5.1356    0.3767    0.0000 C   0  0  0  0  0  0  0  0  0  0  0  0
   -4.4240   -0.0293    0.0000 C   0  0  0  0  0  0  0  0  0  0  0  0
  2  8  1  0  0  0  0
  3  1  1  0  0  0  0
  4  1  1  0  0  0  0
  5  1  1  0  0  0  0
  6  2  1  0  0  0  0
  7  3  1  0  0  0  0
  8  3  1  0  0  0  0
  9  4  1  0  0  0  0
 10  5  1  0  0  0  0
 11  4  2  0  0  0  0
 12  5  2  0  0  0  0
 13  6  1  0  0  0  0
 14  6  2  0  0  0  0
 15 13  1  0  0  0  0
 16 15  1  0  0  0  0
 17 16  2  0  0  0  0
 18 16  1  0  0  0  0
 19 18  2  0  0  0  0
 20 17  1  0  0  0  0
 21 19  1  0  0  0  0
 10  9  1  0  0  0  0
  7  2  1  0  0  0  0
 21 20  2  0  0  0  0
M  END
>  <IDNUMBER>
F6473-3532

>  <Chemical_Name>
1-[1-(2-phenoxyacetyl)azetidin-3-yl]pyrrolidine-2,5-dione

>  <PriceCoeff>
1.50

>  <CAS>
1798540-18-7

>  <MW>
288.30

>  <Description>
solid

>  <FSP3>
0.40

>  <clogP>
0.86

>  <TPSA>
66.92

>  <Acceptor>
4

>  <Donor>
0

>  <RotBonds>
5

>  <HAC>
21

>  <Collection>
Advanced

>  <PPDS>
+

$$$$
F6473-3536
  Mrv2219 10102508112D          

 21 23  0  0  0  0            999 V2000
   -1.3136    5.1247    0.0000 N   0  0  0  0  0  0  0  0  0  0  0  0
   -3.0455    4.1207    0.0000 N   0  0  0  0  0  0  0  0  0  0  0  0
   -2.0415    4.7064    0.0000 C   0  0  0  0  0  0  0  0  0  0  0  0
   -3.7609    3.7107    0.0000 C   0  0  0  0  0  0  0  0  0  0  0  0
   -1.2299    5.9405    0.0000 C   0  0  0  0  0  0  0  0  0  0  0  0
   -0.5605    4.7859    0.0000 C   0  0  0  0  0  0  0  0  0  0  0  0
   -2.2548    3.9115    0.0000 C   0  0  0  0  0  0  0  0  0  0  0  0
   -2.8322    4.9197    0.0000 C   0  0  0  0  0  0  0  0  0  0  0  0
   -3.7609    2.8949    0.0000 C   0  0  0  0  0  0  0  0  0  0  0  0
   -4.4888    4.1248    0.0000 O   0  0  0  0  0  0  0  0  0  0  0  0
   -0.0083    5.4009    0.0000 C   0  0  0  0  0  0  0  0  0  0  0  0
   -0.4225    6.1162    0.0000 C   0  0  0  0  0  0  0  0  0  0  0  0
   -0.3891    3.9785    0.0000 O   0  0  0  0  0  0  0  0  0  0  0  0
   -1.8491    6.4968    0.0000 O   0  0  0  0  0  0  0  0  0  0  0  0
   -4.4762    2.4724    0.0000 C   0  0  0  0  0  0  0  0  0  0  0  0
   -5.8693    1.6315    0.0000 C   0  0  0  0  0  0  0  0  0  0  0  0
   -6.5931    1.2006    0.0000 F   0  0  0  0  0  0  0  0  0  0  0  0
   -4.4511    1.6650    0.0000 C   0  0  0  0  0  0  0  0  0  0  0  0
   -5.1791    2.8949    0.0000 C   0  0  0  0  0  0  0  0  0  0  0  0
   -5.8861    2.4556    0.0000 C   0  0  0  0  0  0  0  0  0  0  0  0
   -5.1791    1.2383    0.0000 C   0  0  0  0  0  0  0  0  0  0  0  0
  2  8  1  0  0  0  0
  3  1  1  0  0  0  0
  4  2  1  0  0  0  0
  5  1  1  0  0  0  0
  6  1  1  0  0  0  0
  7  3  1  0  0  0  0
  8  3  1  0  0  0  0
  9  4  1  0  0  0  0
 10  4  2  0  0  0  0
 11  6  1  0  0  0  0
 12  5  1  0  0  0  0
 13  6  2  0  0  0  0
 14  5  2  0  0  0  0
 15  9  1  0  0  0  0
 16 20  1  0  0  0  0
 17 16  1  0  0  0  0
 18 15  2  0  0  0  0
 19 15  1  0  0  0  0
 20 19  2  0  0  0  0
 21 18  1  0  0  0  0
 12 11  1  0  0  0  0
  7  2  1  0  0  0  0
 21 16  2  0  0  0  0
M  END
>  <IDNUMBER>
F6473-3536

>  <Chemical_Name>
1-{1-[2-(4-fluorophenyl)acetyl]azetidin-3-yl}pyrrolidine-2,5-dione

>  <PriceCoeff>
1.50

>  <CAS>
1795362-66-1

>  <MW>
290.29

>  <Description>
solid

>  <FSP3>
0.40

>  <clogP>
0.87

>  <TPSA>
57.69

>  <Acceptor>
3

>  <Donor>
0

>  <RotBonds>
4

>  <HAC>
21

>  <Collection>
Advanced

>  <PPDS>
+

$$$$
F6473-3542
  Mrv2219 10102508112D          

 22 25  0  0  0  0            999 V2000
   -1.3129    5.1220    0.0000 N   0  0  0  0  0  0  0  0  0  0  0  0
   -3.0439    4.1185    0.0000 N   0  0  0  0  0  0  0  0  0  0  0  0
   -3.7631    2.8933    0.0000 C   0  0  0  0  0  0  0  0  0  0  0  0
   -3.7588    3.7087    0.0000 C   0  0  0  0  0  0  0  0  0  0  0  0
   -2.0404    4.7038    0.0000 C   0  0  0  0  0  0  0  0  0  0  0  0
   -3.0940    2.4084    0.0000 O   0  0  0  0  0  0  0  0  0  0  0  0
   -4.4236    2.4041    0.0000 C   0  0  0  0  0  0  0  0  0  0  0  0
   -0.5602    4.7833    0.0000 C   0  0  0  0  0  0  0  0  0  0  0  0
   -1.2293    5.9373    0.0000 C   0  0  0  0  0  0  0  0  0  0  0  0
   -2.8306    4.9171    0.0000 C   0  0  0  0  0  0  0  0  0  0  0  0
   -2.2536    3.9094    0.0000 C   0  0  0  0  0  0  0  0  0  0  0  0
   -3.3449    1.6264    0.0000 C   0  0  0  0  0  0  0  0  0  0  0  0
   -4.1687    1.6139    0.0000 C   0  0  0  0  0  0  0  0  0  0  0  0
   -4.4738    4.1101    0.0000 O   0  0  0  0  0  0  0  0  0  0  0  0
   -0.0083    5.3979    0.0000 C   0  0  0  0  0  0  0  0  0  0  0  0
   -0.4223    6.1129    0.0000 C   0  0  0  0  0  0  0  0  0  0  0  0
   -0.3888    3.9763    0.0000 O   0  0  0  0  0  0  0  0  0  0  0  0
   -1.8481    6.4933    0.0000 O   0  0  0  0  0  0  0  0  0  0  0  0
   -2.9101    0.9115    0.0000 C   0  0  0  0  0  0  0  0  0  0  0  0
   -4.5742    0.8906    0.0000 C   0  0  0  0  0  0  0  0  0  0  0  0
   -3.3073    0.2007    0.0000 C   0  0  0  0  0  0  0  0  0  0  0  0
   -4.1561    0.1839    0.0000 C   0  0  0  0  0  0  0  0  0  0  0  0
  2 11  1  0  0  0  0
  3  4  1  0  0  0  0
  4  2  1  0  0  0  0
  5  1  1  0  0  0  0
  6  3  1  0  0  0  0
  7  3  2  0  0  0  0
  8  1  1  0  0  0  0
  9  1  1  0  0  0  0
 10  5  1  0  0  0  0
 11  5  1  0  0  0  0
 12  6  1  0  0  0  0
 13  7  1  0  0  0  0
 14  4  2  0  0  0  0
 15  8  1  0  0  0  0
 16  9  1  0  0  0  0
 17  8  2  0  0  0  0
 18  9  2  0  0  0  0
 19 12  2  0  0  0  0
 20 13  2  0  0  0  0
 21 19  1  0  0  0  0
 22 20  1  0  0  0  0
 16 15  1  0  0  0  0
  2 10  1  0  0  0  0
 13 12  1  0  0  0  0
 22 21  2  0  0  0  0
M  END
>  <IDNUMBER>
F6473-3542

>  <Chemical_Name>
1-[1-(1-benzofuran-2-carbonyl)azetidin-3-yl]pyrrolidine-2,5-dione

>  <PriceCoeff>
1.50

>  <CAS>
1795191-23-9

>  <MW>
298.29

>  <Description>
solid

>  <FSP3>
0.31

>  <clogP>
0.81

>  <TPSA>
70.83

>  <Acceptor>
4

>  <Donor>
0

>  <RotBonds>
3

>  <HAC>
22

>  <Collection>
Advanced

>  <PPDS>
+

$$$$
F6473-3555
  Mrv2219 10102508112D          

 22 24  0  0  0  0            999 V2000
   -1.3123    5.1196    0.0000 N   0  0  0  0  0  0  0  0  0  0  0  0
   -3.0424    4.1166    0.0000 N   0  0  0  0  0  0  0  0  0  0  0  0
   -2.0394    4.7016    0.0000 C   0  0  0  0  0  0  0  0  0  0  0  0
   -0.5599    4.7810    0.0000 C   0  0  0  0  0  0  0  0  0  0  0  0
   -1.2287    5.9345    0.0000 C   0  0  0  0  0  0  0  0  0  0  0  0
   -3.7571    3.7069    0.0000 C   0  0  0  0  0  0  0  0  0  0  0  0
   -2.2526    3.9075    0.0000 C   0  0  0  0  0  0  0  0  0  0  0  0
   -2.8293    4.9148    0.0000 C   0  0  0  0  0  0  0  0  0  0  0  0
   -4.4718    2.4700    0.0000 O   0  0  0  0  0  0  0  0  0  0  0  0
   -3.7613    2.8837    0.0000 C   0  0  0  0  0  0  0  0  0  0  0  0
   -0.0083    5.3954    0.0000 C   0  0  0  0  0  0  0  0  0  0  0  0
   -0.4221    6.1101    0.0000 C   0  0  0  0  0  0  0  0  0  0  0  0
   -0.3887    3.9744    0.0000 O   0  0  0  0  0  0  0  0  0  0  0  0
   -1.8472    6.4903    0.0000 O   0  0  0  0  0  0  0  0  0  0  0  0
   -4.4718    4.1082    0.0000 O   0  0  0  0  0  0  0  0  0  0  0  0
   -4.4969    1.6507    0.0000 C   0  0  0  0  0  0  0  0  0  0  0  0
   -5.1864    1.2287    0.0000 C   0  0  0  0  0  0  0  0  0  0  0  0
   -3.7738    1.2287    0.0000 C   0  0  0  0  0  0  0  0  0  0  0  0
   -5.9136    1.6633    0.0000 C   0  0  0  0  0  0  0  0  0  0  0  0
   -5.2199    0.4221    0.0000 C   0  0  0  0  0  0  0  0  0  0  0  0
   -4.5345   -0.0168    0.0000 C   0  0  0  0  0  0  0  0  0  0  0  0
   -3.7989    0.3845    0.0000 C   0  0  0  0  0  0  0  0  0  0  0  0
  2  8  1  0  0  0  0
  3  1  1  0  0  0  0
  4  1  1  0  0  0  0
  5  1  1  0  0  0  0
  6  2  1  0  0  0  0
  7  3  1  0  0  0  0
  8  3  1  0  0  0  0
  9 10  1  0  0  0  0
 10  6  1  0  0  0  0
 11  4  1  0  0  0  0
 12  5  1  0  0  0  0
 13  4  2  0  0  0  0
 14  5  2  0  0  0  0
 15  6  2  0  0  0  0
 16  9  1  0  0  0  0
 17 16  2  0  0  0  0
 18 16  1  0  0  0  0
 19 17  1  0  0  0  0
 20 17  1  0  0  0  0
 21 22  1  0  0  0  0
 22 18  2  0  0  0  0
 12 11  1  0  0  0  0
  7  2  1  0  0  0  0
 21 20  2  0  0  0  0
M  END
>  <IDNUMBER>
F6473-3555

>  <Chemical_Name>
1-{1-[2-(2-methylphenoxy)acetyl]azetidin-3-yl}pyrrolidine-2,5-dione

>  <PriceCoeff>
1.50

>  <CAS>
1798490-67-1

>  <MW>
302.33

>  <Description>
solid

>  <FSP3>
0.44

>  <clogP>
1.35

>  <TPSA>
66.92

>  <Acceptor>
4

>  <Donor>
0

>  <RotBonds>
5

>  <HAC>
22

>  <Collection>
Advanced

>  <PPDS>
+

$$$$
F6473-3558
  Mrv2219 10102508112D          

 22 24  0  0  0  0            999 V2000
   -1.3136    5.1247    0.0000 N   0  0  0  0  0  0  0  0  0  0  0  0
   -3.0455    4.1207    0.0000 N   0  0  0  0  0  0  0  0  0  0  0  0
   -2.0415    4.7064    0.0000 C   0  0  0  0  0  0  0  0  0  0  0  0
   -0.5605    4.7859    0.0000 C   0  0  0  0  0  0  0  0  0  0  0  0
   -1.2299    5.9405    0.0000 C   0  0  0  0  0  0  0  0  0  0  0  0
   -3.7609    3.7107    0.0000 C   0  0  0  0  0  0  0  0  0  0  0  0
   -2.2548    3.9115    0.0000 C   0  0  0  0  0  0  0  0  0  0  0  0
   -2.8322    4.9197    0.0000 C   0  0  0  0  0  0  0  0  0  0  0  0
   -4.4888    2.4933    0.0000 O   0  0  0  0  0  0  0  0  0  0  0  0
   -3.7651    2.8866    0.0000 C   0  0  0  0  0  0  0  0  0  0  0  0
   -0.0083    5.4009    0.0000 C   0  0  0  0  0  0  0  0  0  0  0  0
   -0.4225    6.1162    0.0000 C   0  0  0  0  0  0  0  0  0  0  0  0
   -0.3891    3.9785    0.0000 O   0  0  0  0  0  0  0  0  0  0  0  0
   -1.8491    6.4968    0.0000 O   0  0  0  0  0  0  0  0  0  0  0  0
   -4.4762    4.1123    0.0000 O   0  0  0  0  0  0  0  0  0  0  0  0
   -4.4847    1.6524    0.0000 C   0  0  0  0  0  0  0  0  0  0  0  0
   -5.1916    1.2383    0.0000 C   0  0  0  0  0  0  0  0  0  0  0  0
   -5.9070    1.6441    0.0000 F   0  0  0  0  0  0  0  0  0  0  0  0
   -3.7609    1.2257    0.0000 C   0  0  0  0  0  0  0  0  0  0  0  0
   -5.1916    0.4099    0.0000 C   0  0  0  0  0  0  0  0  0  0  0  0
   -4.4888    0.0000    0.0000 C   0  0  0  0  0  0  0  0  0  0  0  0
   -3.7734    0.3848    0.0000 C   0  0  0  0  0  0  0  0  0  0  0  0
  2  8  1  0  0  0  0
  3  1  1  0  0  0  0
  4  1  1  0  0  0  0
  5  1  1  0  0  0  0
  6  2  1  0  0  0  0
  7  3  1  0  0  0  0
  8  3  1  0  0  0  0
  9 10  1  0  0  0  0
 10  6  1  0  0  0  0
 11  4  1  0  0  0  0
 12  5  1  0  0  0  0
 13  4  2  0  0  0  0
 14  5  2  0  0  0  0
 15  6  2  0  0  0  0
 16  9  1  0  0  0  0
 17 16  2  0  0  0  0
 18 17  1  0  0  0  0
 19 16  1  0  0  0  0
 20 17  1  0  0  0  0
 21 22  1  0  0  0  0
 22 19  2  0  0  0  0
 12 11  1  0  0  0  0
  7  2  1  0  0  0  0
 20 21  2  0  0  0  0
M  END
>  <IDNUMBER>
F6473-3558

>  <Chemical_Name>
1-{1-[2-(2-fluorophenoxy)acetyl]azetidin-3-yl}pyrrolidine-2,5-dione

>  <PriceCoeff>
1.50

>  <CAS>
1795422-53-5

>  <MW>
306.29

>  <Description>
solid

>  <FSP3>
0.40

>  <clogP>
0.94

>  <TPSA>
66.92

>  <Acceptor>
4

>  <Donor>
0

>  <RotBonds>
5

>  <HAC>
22

>  <Collection>
Advanced

>  <PPDS>
+

$$$$
F6473-3564
  Mrv2219 10102508112D          

 21 23  0  0  0  0            999 V2000
   -3.0406    4.1141    0.0000 N   0  0  0  0  0  0  0  0  0  0  0  0
   -1.3114    5.1165    0.0000 N   0  0  0  0  0  0  0  0  0  0  0  0
   -3.7548    3.7047    0.0000 C   0  0  0  0  0  0  0  0  0  0  0  0
   -3.7548    2.8652    0.0000 C   0  0  0  0  0  0  0  0  0  0  0  0
   -2.0382    4.6988    0.0000 C   0  0  0  0  0  0  0  0  0  0  0  0
   -0.5596    4.7782    0.0000 C   0  0  0  0  0  0  0  0  0  0  0  0
   -1.2279    5.9309    0.0000 C   0  0  0  0  0  0  0  0  0  0  0  0
   -4.4774    2.4517    0.0000 C   0  0  0  0  0  0  0  0  0  0  0  0
   -2.2512    3.9052    0.0000 C   0  0  0  0  0  0  0  0  0  0  0  0
   -2.8276    4.9118    0.0000 C   0  0  0  0  0  0  0  0  0  0  0  0
   -3.0406    2.4392    0.0000 C   0  0  0  0  0  0  0  0  0  0  0  0
   -4.4649    1.6289    0.0000 C   0  0  0  0  0  0  0  0  0  0  0  0
   -4.4565    4.1015    0.0000 O   0  0  0  0  0  0  0  0  0  0  0  0
   -0.4218    6.1064    0.0000 C   0  0  0  0  0  0  0  0  0  0  0  0
   -0.0083    5.3921    0.0000 C   0  0  0  0  0  0  0  0  0  0  0  0
   -1.8461    6.4864    0.0000 O   0  0  0  0  0  0  0  0  0  0  0  0
   -0.3884    3.9720    0.0000 O   0  0  0  0  0  0  0  0  0  0  0  0
   -3.7799    1.2029    0.0000 C   0  0  0  0  0  0  0  0  0  0  0  0
   -5.1707    2.8652    0.0000 Cl  0  0  0  0  0  0  0  0  0  0  0  0
   -3.0406    1.6247    0.0000 C   0  0  0  0  0  0  0  0  0  0  0  0
   -3.7799    0.3759    0.0000 F   0  0  0  0  0  0  0  0  0  0  0  0
  2  5  1  0  0  0  0
  3  1  1  0  0  0  0
  4  3  1  0  0  0  0
  5 10  1  0  0  0  0
  6  2  1  0  0  0  0
  7  2  1  0  0  0  0
  8  4  2  0  0  0  0
  9  1  1  0  0  0  0
 10  1  1  0  0  0  0
 11  4  1  0  0  0  0
 12  8  1  0  0  0  0
 13  3  2  0  0  0  0
 14  7  1  0  0  0  0
 15  6  1  0  0  0  0
 16  7  2  0  0  0  0
 17  6  2  0  0  0  0
 18 20  1  0  0  0  0
 19  8  1  0  0  0  0
 20 11  2  0  0  0  0
 21 18  1  0  0  0  0
  5  9  1  0  0  0  0
 14 15  1  0  0  0  0
 12 18  2  0  0  0  0
M  END
>  <IDNUMBER>
F6473-3564

>  <Chemical_Name>
1-[1-(2-chloro-4-fluorobenzoyl)azetidin-3-yl]pyrrolidine-2,5-dione

>  <PriceCoeff>
1.50

>  <CAS>
1795303-73-9

>  <MW>
310.71

>  <Description>
solid

>  <FSP3>
0.36

>  <clogP>
1.21

>  <TPSA>
57.69

>  <Acceptor>
3

>  <Donor>
0

>  <RotBonds>
3

>  <HAC>
21

>  <Collection>
Advanced

>  <PPDS>
+

$$$$
F6473-3572
  Mrv2219 10102508112D          

 23 25  0  0  0  0            999 V2000
   -1.3123    5.1196    0.0000 N   0  0  0  0  0  0  0  0  0  0  0  0
   -3.0424    4.1166    0.0000 N   0  0  0  0  0  0  0  0  0  0  0  0
   -2.0394    4.7016    0.0000 C   0  0  0  0  0  0  0  0  0  0  0  0
   -3.7571    3.7069    0.0000 C   0  0  0  0  0  0  0  0  0  0  0  0
   -1.2287    5.9345    0.0000 C   0  0  0  0  0  0  0  0  0  0  0  0
   -0.5599    4.7810    0.0000 C   0  0  0  0  0  0  0  0  0  0  0  0
   -2.2526    3.9075    0.0000 C   0  0  0  0  0  0  0  0  0  0  0  0
   -2.8293    4.9148    0.0000 C   0  0  0  0  0  0  0  0  0  0  0  0
   -3.7613    2.8837    0.0000 C   0  0  0  0  0  0  0  0  0  0  0  0
   -4.4718    4.1082    0.0000 O   0  0  0  0  0  0  0  0  0  0  0  0
   -0.0083    5.3954    0.0000 C   0  0  0  0  0  0  0  0  0  0  0  0
   -0.4221    6.1101    0.0000 C   0  0  0  0  0  0  0  0  0  0  0  0
   -0.3887    3.9744    0.0000 O   0  0  0  0  0  0  0  0  0  0  0  0
   -1.8472    6.4903    0.0000 O   0  0  0  0  0  0  0  0  0  0  0  0
   -4.4843    2.4783    0.0000 C   0  0  0  0  0  0  0  0  0  0  0  0
   -5.9010    1.6549    0.0000 C   0  0  0  0  0  0  0  0  0  0  0  0
   -5.1864    2.9004    0.0000 C   0  0  0  0  0  0  0  0  0  0  0  0
   -4.4718    1.6507    0.0000 C   0  0  0  0  0  0  0  0  0  0  0  0
   -5.9010    2.4908    0.0000 C   0  0  0  0  0  0  0  0  0  0  0  0
   -5.1989    1.2413    0.0000 C   0  0  0  0  0  0  0  0  0  0  0  0
   -6.6157    1.2370    0.0000 O   0  0  0  0  0  0  0  0  0  0  0  0
   -6.6242    0.4096    0.0000 C   0  0  0  0  0  0  0  0  0  0  0  0
   -7.3262   -0.0042    0.0000 C   0  0  0  0  0  0  0  0  0  0  0  0
  2  8  1  0  0  0  0
  3  1  1  0  0  0  0
  4  2  1  0  0  0  0
  5  1  1  0  0  0  0
  6  1  1  0  0  0  0
  7  3  1  0  0  0  0
  8  3  1  0  0  0  0
  9  4  1  0  0  0  0
 10  4  2  0  0  0  0
 11  6  1  0  0  0  0
 12  5  1  0  0  0  0
 13  6  2  0  0  0  0
 14  5  2  0  0  0  0
 15  9  1  0  0  0  0
 16 20  2  0  0  0  0
 17 15  1  0  0  0  0
 18 15  2  0  0  0  0
 19 17  2  0  0  0  0
 20 18  1  0  0  0  0
 21 16  1  0  0  0  0
 22 21  1  0  0  0  0
 23 22  1  0  0  0  0
 12 11  1  0  0  0  0
  7  2  1  0  0  0  0
 16 19  1  0  0  0  0
M  END
>  <IDNUMBER>
F6473-3572

>  <Chemical_Name>
1-{1-[2-(4-ethoxyphenyl)acetyl]azetidin-3-yl}pyrrolidine-2,5-dione

>  <PriceCoeff>
1.50

>  <CAS>
1798638-93-3

>  <MW>
316.35

>  <Description>
solid

>  <FSP3>
0.47

>  <clogP>
1.18

>  <TPSA>
66.92

>  <Acceptor>
4

>  <Donor>
0

>  <RotBonds>
6

>  <HAC>
23

>  <Collection>
Advanced

>  <PPDS>
+

$$$$
F6473-3573
  Mrv2219 10102508112D          

 23 27  0  0  0  0            999 V2000
   -1.3151    5.1308    0.0000 N   0  0  0  0  0  0  0  0  0  0  0  0
   -3.0491    4.1256    0.0000 N   0  0  0  0  0  0  0  0  0  0  0  0
   -3.7653    2.8983    0.0000 C   0  0  0  0  0  0  0  0  0  0  0  0
   -3.7653    3.7151    0.0000 C   0  0  0  0  0  0  0  0  0  0  0  0
   -2.0439    4.7119    0.0000 C   0  0  0  0  0  0  0  0  0  0  0  0
   -0.5612    4.7915    0.0000 C   0  0  0  0  0  0  0  0  0  0  0  0
   -1.2314    5.9475    0.0000 C   0  0  0  0  0  0  0  0  0  0  0  0
   -2.8355    4.9255    0.0000 C   0  0  0  0  0  0  0  0  0  0  0  0
   -2.2575    3.9161    0.0000 C   0  0  0  0  0  0  0  0  0  0  0  0
   -4.3182    2.2324    0.0000 C   0  0  0  0  0  0  0  0  0  0  0  0
   -4.4815    2.6387    0.0000 C   0  0  0  0  0  0  0  0  0  0  0  0
   -3.0114    2.5633    0.0000 C   0  0  0  0  0  0  0  0  0  0  0  0
   -4.3182    1.3696    0.0000 C   0  0  0  0  0  0  0  0  0  0  0  0
   -4.4690    1.8429    0.0000 C   0  0  0  0  0  0  0  0  0  0  0  0
   -3.0240    1.7466    0.0000 C   0  0  0  0  0  0  0  0  0  0  0  0
   -4.4690    4.1256    0.0000 O   0  0  0  0  0  0  0  0  0  0  0  0
   -0.0083    5.4072    0.0000 C   0  0  0  0  0  0  0  0  0  0  0  0
   -0.4230    6.1234    0.0000 C   0  0  0  0  0  0  0  0  0  0  0  0
   -0.3895    3.9831    0.0000 O   0  0  0  0  0  0  0  0  0  0  0  0
   -1.8513    6.5045    0.0000 O   0  0  0  0  0  0  0  0  0  0  0  0
   -5.1391    1.1518    0.0000 C   0  0  0  0  0  0  0  0  0  0  0  0
   -3.5768    1.0638    0.0000 C   0  0  0  0  0  0  0  0  0  0  0  0
   -3.7821    1.5706    0.0000 C   0  0  0  0  0  0  0  0  0  0  0  0
  2  9  1  0  0  0  0
  3  4  1  0  0  0  0
  4  2  1  0  0  0  0
  5  1  1  0  0  0  0
  6  1  1  0  0  0  0
  7  1  1  0  0  0  0
  8  5  1  0  0  0  0
  9  5  1  0  0  0  0
 10  3  1  0  0  0  0
 11  3  1  0  0  0  0
 12  3  1  0  0  0  0
 13 10  1  0  0  0  0
 14 11  1  0  0  0  0
 15 12  1  0  0  0  0
 16  4  2  0  0  0  0
 17  6  1  0  0  0  0
 18  7  1  0  0  0  0
 19  6  2  0  0  0  0
 20  7  2  0  0  0  0
 21 14  1  0  0  0  0
 22 15  1  0  0  0  0
 23 15  1  0  0  0  0
 18 17  1  0  0  0  0
  2  8  1  0  0  0  0
 14 23  1  0  0  0  0
 13 22  1  0  0  0  0
 21 13  1  0  0  0  0
M  END
>  <IDNUMBER>
F6473-3573

>  <Chemical_Name>
1-[1-(adamantane-1-carbonyl)azetidin-3-yl]pyrrolidine-2,5-dione

>  <PriceCoeff>
1.50

>  <CAS>
1795300-49-0

>  <MW>
316.39

>  <Description>
solid

>  <FSP3>
0.83

>  <clogP>
1.33

>  <TPSA>
57.69

>  <Acceptor>
3

>  <Donor>
0

>  <RotBonds>
3

>  <HAC>
23

>  <Collection>
Advanced

>  <PPDS>
+

$$$$
F6473-3588
  Mrv2219 10102508112D          

 23 25  0  0  0  0            999 V2000
   -3.0406    4.1141    0.0000 N   0  0  0  0  0  0  0  0  0  0  0  0
   -1.3114    5.1165    0.0000 N   0  0  0  0  0  0  0  0  0  0  0  0
   -3.7548    3.7047    0.0000 C   0  0  0  0  0  0  0  0  0  0  0  0
   -2.0382    4.6988    0.0000 C   0  0  0  0  0  0  0  0  0  0  0  0
   -5.1707    2.8777    0.0000 C   0  0  0  0  0  0  0  0  0  0  0  0
   -3.7548    2.9028    0.0000 C   0  0  0  0  0  0  0  0  0  0  0  0
   -1.2279    5.9309    0.0000 C   0  0  0  0  0  0  0  0  0  0  0  0
   -0.5596    4.7782    0.0000 C   0  0  0  0  0  0  0  0  0  0  0  0
   -4.4690    2.4684    0.0000 C   0  0  0  0  0  0  0  0  0  0  0  0
   -2.8276    4.9118    0.0000 C   0  0  0  0  0  0  0  0  0  0  0  0
   -2.2512    3.9052    0.0000 C   0  0  0  0  0  0  0  0  0  0  0  0
   -4.4774    4.1141    0.0000 O   0  0  0  0  0  0  0  0  0  0  0  0
   -0.0083    5.3921    0.0000 C   0  0  0  0  0  0  0  0  0  0  0  0
   -0.4218    6.1064    0.0000 C   0  0  0  0  0  0  0  0  0  0  0  0
   -0.3884    3.9720    0.0000 O   0  0  0  0  0  0  0  0  0  0  0  0
   -1.8461    6.4864    0.0000 O   0  0  0  0  0  0  0  0  0  0  0  0
   -5.1874    3.7047    0.0000 F   0  0  0  0  0  0  0  0  0  0  0  0
   -5.3837    2.0883    0.0000 F   0  0  0  0  0  0  0  0  0  0  0  0
   -5.8849    2.4684    0.0000 F   0  0  0  0  0  0  0  0  0  0  0  0
   -3.0406    2.5018    0.0000 C   0  0  0  0  0  0  0  0  0  0  0  0
   -4.4565    1.6498    0.0000 C   0  0  0  0  0  0  0  0  0  0  0  0
   -3.0281    1.6623    0.0000 C   0  0  0  0  0  0  0  0  0  0  0  0
   -3.7423    1.2363    0.0000 C   0  0  0  0  0  0  0  0  0  0  0  0
  2  4  1  0  0  0  0
  3  1  1  0  0  0  0
  4 11  1  0  0  0  0
  5  9  1  0  0  0  0
  6  3  1  0  0  0  0
  7  2  1  0  0  0  0
  8  2  1  0  0  0  0
  9  6  1  0  0  0  0
 10  1  1  0  0  0  0
 11  1  1  0  0  0  0
 12  3  2  0  0  0  0
 13  8  1  0  0  0  0
 14  7  1  0  0  0  0
 15  8  2  0  0  0  0
 16  7  2  0  0  0  0
 17  5  1  0  0  0  0
 18  5  1  0  0  0  0
 19  5  1  0  0  0  0
 20  6  2  0  0  0  0
 21  9  2  0  0  0  0
 22 20  1  0  0  0  0
 23 22  2  0  0  0  0
 10  4  1  0  0  0  0
 14 13  1  0  0  0  0
 21 23  1  0  0  0  0
M  END
>  <IDNUMBER>
F6473-3588

>  <Chemical_Name>
1-{1-[2-(trifluoromethyl)benzoyl]azetidin-3-yl}pyrrolidine-2,5-dione

>  <PriceCoeff>
1.50

>  <CAS>
1795191-31-9

>  <MW>
326.27

>  <Description>
solid

>  <FSP3>
0.40

>  <clogP>
1.27

>  <TPSA>
57.69

>  <Acceptor>
3

>  <Donor>
0

>  <RotBonds>
3

>  <HAC>
23

>  <Collection>
Advanced

>  <PPDS>
+

$$$$
F6473-3602
  Mrv2219 10102508112D          

 24 26  0  0  0  0            999 V2000
   -1.3114    5.1165    0.0000 N   0  0  0  0  0  0  0  0  0  0  0  0
   -3.0406    4.1141    0.0000 N   0  0  0  0  0  0  0  0  0  0  0  0
   -2.0382    4.6988    0.0000 C   0  0  0  0  0  0  0  0  0  0  0  0
   -3.7548    3.7047    0.0000 C   0  0  0  0  0  0  0  0  0  0  0  0
   -1.2279    5.9309    0.0000 C   0  0  0  0  0  0  0  0  0  0  0  0
   -0.5596    4.7782    0.0000 C   0  0  0  0  0  0  0  0  0  0  0  0
   -3.7548    2.8819    0.0000 C   0  0  0  0  0  0  0  0  0  0  0  0
   -2.8276    4.9118    0.0000 C   0  0  0  0  0  0  0  0  0  0  0  0
   -2.2512    3.9052    0.0000 C   0  0  0  0  0  0  0  0  0  0  0  0
   -3.7590    2.0675    0.0000 O   0  0  0  0  0  0  0  0  0  0  0  0
   -4.4690    4.1141    0.0000 O   0  0  0  0  0  0  0  0  0  0  0  0
   -0.4218    6.1064    0.0000 C   0  0  0  0  0  0  0  0  0  0  0  0
   -0.0083    5.3921    0.0000 C   0  0  0  0  0  0  0  0  0  0  0  0
   -1.8461    6.4864    0.0000 O   0  0  0  0  0  0  0  0  0  0  0  0
   -0.3884    3.9720    0.0000 O   0  0  0  0  0  0  0  0  0  0  0  0
   -3.0406    1.6623    0.0000 C   0  0  0  0  0  0  0  0  0  0  0  0
   -1.5996    0.8520    0.0000 C   0  0  0  0  0  0  0  0  0  0  0  0
   -0.8729    0.4386    0.0000 Cl  0  0  0  0  0  0  0  0  0  0  0  0
   -3.0323    0.8353    0.0000 C   0  0  0  0  0  0  0  0  0  0  0  0
   -2.3264    2.0758    0.0000 C   0  0  0  0  0  0  0  0  0  0  0  0
   -2.3055    0.4260    0.0000 C   0  0  0  0  0  0  0  0  0  0  0  0
   -1.6038    1.6790    0.0000 C   0  0  0  0  0  0  0  0  0  0  0  0
   -4.5818    2.8902    0.0000 C   0  0  0  0  0  0  0  0  0  0  0  0
   -2.9404    2.8819    0.0000 C   0  0  0  0  0  0  0  0  0  0  0  0
  2  9  1  0  0  0  0
  3  1  1  0  0  0  0
  4  2  1  0  0  0  0
  5  1  1  0  0  0  0
  6  1  1  0  0  0  0
  7  4  1  0  0  0  0
  8  3  1  0  0  0  0
  9  3  1  0  0  0  0
 10  7  1  0  0  0  0
 11  4  2  0  0  0  0
 12  5  1  0  0  0  0
 13  6  1  0  0  0  0
 14  5  2  0  0  0  0
 15  6  2  0  0  0  0
 16 10  1  0  0  0  0
 17 22  2  0  0  0  0
 18 17  1  0  0  0  0
 19 16  1  0  0  0  0
 20 16  2  0  0  0  0
 21 19  2  0  0  0  0
 22 20  1  0  0  0  0
 23  7  1  0  0  0  0
 24  7  1  0  0  0  0
 12 13  1  0  0  0  0
  2  8  1  0  0  0  0
 21 17  1  0  0  0  0
M  END
>  <IDNUMBER>
F6473-3602

>  <Chemical_Name>
1-{1-[2-(4-chlorophenoxy)-2-methylpropanoyl]azetidin-3-yl}pyrrolidine-2,5-dione

>  <PriceCoeff>
1.50

>  <CAS>
1795085-49-2

>  <MW>
350.80

>  <Description>
solid

>  <FSP3>
0.47

>  <clogP>
2.33

>  <TPSA>
66.92

>  <Acceptor>
4

>  <Donor>
0

>  <RotBonds>
5

>  <HAC>
24

>  <Collection>
Advanced

>  <PPDS>
+

$$$$
F6473-3604
  Mrv2219 10102508112D          

 27 31  0  0  0  0            999 V2000
   -3.0399    4.1132    0.0000 N   0  0  0  0  0  0  0  0  0  0  0  0
   -1.3112    5.1154    0.0000 N   0  0  0  0  0  0  0  0  0  0  0  0
   -3.7540    3.7039    0.0000 C   0  0  0  0  0  0  0  0  0  0  0  0
   -3.7582    2.8771    0.0000 C   0  0  0  0  0  0  0  0  0  0  0  0
   -2.0377    4.6978    0.0000 C   0  0  0  0  0  0  0  0  0  0  0  0
   -3.7665    1.2109    0.0000 O   0  0  0  0  0  0  0  0  0  0  0  0
   -1.2277    5.9296    0.0000 C   0  0  0  0  0  0  0  0  0  0  0  0
   -0.5595    4.7771    0.0000 C   0  0  0  0  0  0  0  0  0  0  0  0
   -4.4765    2.4637    0.0000 C   0  0  0  0  0  0  0  0  0  0  0  0
   -3.0525    2.4637    0.0000 C   0  0  0  0  0  0  0  0  0  0  0  0
   -2.2507    3.9043    0.0000 C   0  0  0  0  0  0  0  0  0  0  0  0
   -2.8270    4.9107    0.0000 C   0  0  0  0  0  0  0  0  0  0  0  0
   -4.4765    1.6494    0.0000 C   0  0  0  0  0  0  0  0  0  0  0  0
   -3.0525    1.6369    0.0000 C   0  0  0  0  0  0  0  0  0  0  0  0
   -4.4765    4.1132    0.0000 O   0  0  0  0  0  0  0  0  0  0  0  0
   -0.4217    6.1050    0.0000 C   0  0  0  0  0  0  0  0  0  0  0  0
   -0.0083    5.3910    0.0000 C   0  0  0  0  0  0  0  0  0  0  0  0
   -1.8457    6.4850    0.0000 O   0  0  0  0  0  0  0  0  0  0  0  0
   -0.3883    3.9712    0.0000 O   0  0  0  0  0  0  0  0  0  0  0  0
   -2.3384    2.8646    0.0000 C   0  0  0  0  0  0  0  0  0  0  0  0
   -5.1696    2.8980    0.0000 C   0  0  0  0  0  0  0  0  0  0  0  0
   -5.1738    1.2277    0.0000 C   0  0  0  0  0  0  0  0  0  0  0  0
   -2.3384    1.2109    0.0000 C   0  0  0  0  0  0  0  0  0  0  0  0
   -5.8962    2.4762    0.0000 C   0  0  0  0  0  0  0  0  0  0  0  0
   -1.6243    2.4512    0.0000 C   0  0  0  0  0  0  0  0  0  0  0  0
   -1.6243    1.6369    0.0000 C   0  0  0  0  0  0  0  0  0  0  0  0
   -5.8962    1.6619    0.0000 C   0  0  0  0  0  0  0  0  0  0  0  0
  2  5  1  0  0  0  0
  3  1  1  0  0  0  0
  4  3  1  0  0  0  0
  5 12  1  0  0  0  0
  6 14  1  0  0  0  0
  7  2  1  0  0  0  0
  8  2  1  0  0  0  0
  9  4  1  0  0  0  0
 10  4  1  0  0  0  0
 11  1  1  0  0  0  0
 12  1  1  0  0  0  0
 13  9  2  0  0  0  0
 14 10  2  0  0  0  0
 15  3  2  0  0  0  0
 16  7  1  0  0  0  0
 17  8  1  0  0  0  0
 18  7  2  0  0  0  0
 19  8  2  0  0  0  0
 20 10  1  0  0  0  0
 21  9  1  0  0  0  0
 22 13  1  0  0  0  0
 23 14  1  0  0  0  0
 24 21  2  0  0  0  0
 25 20  2  0  0  0  0
 26 25  1  0  0  0  0
 27 24  1  0  0  0  0
  5 11  1  0  0  0  0
  6 13  1  0  0  0  0
 16 17  1  0  0  0  0
 23 26  2  0  0  0  0
 27 22  2  0  0  0  0
M  END
>  <IDNUMBER>
F6473-3604

>  <Chemical_Name>
1-[1-(9H-xanthene-9-carbonyl)azetidin-3-yl]pyrrolidine-2,5-dione

>  <PriceCoeff>
1.00

>  <CAS>
1795362-75-2

>  <MW>
362.38

>  <Description>
solid

>  <FSP3>
0.29

>  <clogP>
2.39

>  <TPSA>
66.92

>  <Acceptor>
4

>  <Donor>
0

>  <RotBonds>
3

>  <HAC>
27

>  <Collection>
General

>  <PPDS>
+

$$$$
F6473-3623
  Mrv2219 10102508112D          

 24 27  0  0  0  0            999 V2000
   -1.3148    5.1296    0.0000 N   0  0  0  0  0  0  0  0  0  0  0  0
   -3.0484    4.1247    0.0000 N   0  0  0  0  0  0  0  0  0  0  0  0
   -2.0434    4.7109    0.0000 C   0  0  0  0  0  0  0  0  0  0  0  0
   -3.7644    3.7142    0.0000 C   0  0  0  0  0  0  0  0  0  0  0  0
   -1.2311    5.9462    0.0000 C   0  0  0  0  0  0  0  0  0  0  0  0
   -0.5610    4.7905    0.0000 C   0  0  0  0  0  0  0  0  0  0  0  0
   -2.2569    3.9153    0.0000 C   0  0  0  0  0  0  0  0  0  0  0  0
   -2.8349    4.9244    0.0000 C   0  0  0  0  0  0  0  0  0  0  0  0
   -3.8148    0.4103    0.0000 C   0  0  0  0  0  0  0  0  0  0  0  0
   -4.2167   -0.8585    0.0000 S   0  0  0  0  0  0  0  0  0  0  0  0
   -3.7687    2.8726    0.0000 C   0  0  0  0  0  0  0  0  0  0  0  0
   -3.7896    1.2269    0.0000 C   0  0  0  0  0  0  0  0  0  0  0  0
   -4.4805   -0.0670    0.0000 C   0  0  0  0  0  0  0  0  0  0  0  0
   -4.4764    4.1121    0.0000 O   0  0  0  0  0  0  0  0  0  0  0  0
   -0.0083    5.4061    0.0000 C   0  0  0  0  0  0  0  0  0  0  0  0
   -0.4229    6.1221    0.0000 C   0  0  0  0  0  0  0  0  0  0  0  0
   -3.1280   -0.0796    0.0000 C   0  0  0  0  0  0  0  0  0  0  0  0
   -1.8509    6.5030    0.0000 O   0  0  0  0  0  0  0  0  0  0  0  0
   -0.3894    3.9823    0.0000 O   0  0  0  0  0  0  0  0  0  0  0  0
   -3.3750   -0.8668    0.0000 C   0  0  0  0  0  0  0  0  0  0  0  0
   -4.4973    2.4706    0.0000 C   0  0  0  0  0  0  0  0  0  0  0  0
   -3.0610    2.4580    0.0000 C   0  0  0  0  0  0  0  0  0  0  0  0
   -4.4973    1.6289    0.0000 C   0  0  0  0  0  0  0  0  0  0  0  0
   -3.0735    1.6331    0.0000 C   0  0  0  0  0  0  0  0  0  0  0  0
  2  8  1  0  0  0  0
  3  1  1  0  0  0  0
  4  2  1  0  0  0  0
  5  1  1  0  0  0  0
  6  1  1  0  0  0  0
  7  3  1  0  0  0  0
  8  3  1  0  0  0  0
  9 12  1  0  0  0  0
 10 13  1  0  0  0  0
 11  4  1  0  0  0  0
 12 24  1  0  0  0  0
 13  9  2  0  0  0  0
 14  4  2  0  0  0  0
 15  6  1  0  0  0  0
 16  5  1  0  0  0  0
 17  9  1  0  0  0  0
 18  5  2  0  0  0  0
 19  6  2  0  0  0  0
 20 17  2  0  0  0  0
 21 11  2  0  0  0  0
 22 11  1  0  0  0  0
 23 21  1  0  0  0  0
 24 22  2  0  0  0  0
 16 15  1  0  0  0  0
  7  2  1  0  0  0  0
 12 23  2  0  0  0  0
 10 20  1  0  0  0  0
M  END
>  <IDNUMBER>
F6473-3623

>  <Chemical_Name>
1-{1-[4-(thiophen-3-yl)benzoyl]azetidin-3-yl}pyrrolidine-2,5-dione

>  <PriceCoeff>
1.00

>  <CAS>
1798490-73-9

>  <MW>
340.40

>  <Description>
solid

>  <FSP3>
0.28

>  <clogP>
1.82

>  <TPSA>
85.93

>  <Acceptor>
3

>  <Donor>
0

>  <RotBonds>
4

>  <HAC>
24

>  <Collection>
General

>  <PPDS>
+

$$$$
F6473-3650
  Mrv2219 10102508112D          

 22 24  0  0  0  0            999 V2000
   -1.3110    5.1148    0.0000 N   0  0  0  0  0  0  0  0  0  0  0  0
   -3.0396    4.1127    0.0000 N   0  0  0  0  0  0  0  0  0  0  0  0
   -2.0375    4.6972    0.0000 C   0  0  0  0  0  0  0  0  0  0  0  0
   -0.5595    4.7766    0.0000 C   0  0  0  0  0  0  0  0  0  0  0  0
   -1.2275    5.9290    0.0000 C   0  0  0  0  0  0  0  0  0  0  0  0
   -3.7536    3.7035    0.0000 C   0  0  0  0  0  0  0  0  0  0  0  0
   -2.2505    3.9039    0.0000 C   0  0  0  0  0  0  0  0  0  0  0  0
   -2.8266    4.9102    0.0000 C   0  0  0  0  0  0  0  0  0  0  0  0
   -0.0083    5.3903    0.0000 C   0  0  0  0  0  0  0  0  0  0  0  0
   -0.4217    6.1043    0.0000 C   0  0  0  0  0  0  0  0  0  0  0  0
   -0.3883    3.9707    0.0000 O   0  0  0  0  0  0  0  0  0  0  0  0
   -1.8455    6.4842    0.0000 O   0  0  0  0  0  0  0  0  0  0  0  0
   -3.7536    2.8767    0.0000 C   0  0  0  0  0  0  0  0  0  0  0  0
   -4.4760    4.1127    0.0000 O   0  0  0  0  0  0  0  0  0  0  0  0
   -3.0521    1.6409    0.0000 C   0  0  0  0  0  0  0  0  0  0  0  0
   -2.3381    1.2359    0.0000 C   0  0  0  0  0  0  0  0  0  0  0  0
   -3.0396    2.4634    0.0000 C   0  0  0  0  0  0  0  0  0  0  0  0
   -1.6116    1.6492    0.0000 Br  0  0  0  0  0  0  0  0  0  0  0  0
   -3.7661    1.2275    0.0000 C   0  0  0  0  0  0  0  0  0  0  0  0
   -2.3381    0.4091    0.0000 C   0  0  0  0  0  0  0  0  0  0  0  0
   -3.0521   -0.0125    0.0000 C   0  0  0  0  0  0  0  0  0  0  0  0
   -3.7661    0.4008    0.0000 C   0  0  0  0  0  0  0  0  0  0  0  0
  2  8  1  0  0  0  0
  3  1  1  0  0  0  0
  4  1  1  0  0  0  0
  5  1  1  0  0  0  0
  6  2  1  0  0  0  0
  7  3  1  0  0  0  0
  8  3  1  0  0  0  0
  9  4  1  0  0  0  0
 10  5  1  0  0  0  0
 11  4  2  0  0  0  0
 12  5  2  0  0  0  0
 13  6  1  0  0  0  0
 14  6  2  0  0  0  0
 15 17  1  0  0  0  0
 16 15  2  0  0  0  0
 17 13  1  0  0  0  0
 18 16  1  0  0  0  0
 19 15  1  0  0  0  0
 20 16  1  0  0  0  0
 21 22  1  0  0  0  0
 22 19  2  0  0  0  0
 10  9  1  0  0  0  0
  7  2  1  0  0  0  0
 20 21  2  0  0  0  0
M  END
>  <IDNUMBER>
F6473-3650

>  <Chemical_Name>
1-{1-[3-(2-bromophenyl)propanoyl]azetidin-3-yl}pyrrolidine-2,5-dione

>  <PriceCoeff>
1.50

>  <CAS>
1798675-89-4

>  <MW>
365.22

>  <Description>
solid

>  <FSP3>
0.44

>  <clogP>
1.63

>  <TPSA>
57.69

>  <Acceptor>
3

>  <Donor>
0

>  <RotBonds>
5

>  <HAC>
22

>  <Collection>
Advanced

>  <PPDS>
+

$$$$
F6473-3772
  Mrv2219 10102508112D          

 22 25  0  0  0  0            999 V2000
   -3.9281    3.0630    0.0000 C   0  0  0  0  0  0  0  0  0  0  0  0
   -3.1810    4.3040    0.0000 N   0  0  0  0  0  0  0  0  0  0  0  0
   -1.3720    5.3527    0.0000 N   0  0  0  0  0  0  0  0  0  0  0  0
   -3.9281    3.8757    0.0000 C   0  0  0  0  0  0  0  0  0  0  0  0
   -2.1323    4.9157    0.0000 C   0  0  0  0  0  0  0  0  0  0  0  0
   -3.3645    2.4993    0.0000 C   0  0  0  0  0  0  0  0  0  0  0  0
   -4.9375    2.0798    0.0000 C   0  0  0  0  0  0  0  0  0  0  0  0
   -0.5855    4.9987    0.0000 C   0  0  0  0  0  0  0  0  0  0  0  0
   -1.2846    6.2047    0.0000 C   0  0  0  0  0  0  0  0  0  0  0  0
   -3.5655    1.7041    0.0000 N   0  0  0  0  0  0  0  0  0  0  0  0
   -2.3551    4.0854    0.0000 C   0  0  0  0  0  0  0  0  0  0  0  0
   -2.9581    5.1385    0.0000 C   0  0  0  0  0  0  0  0  0  0  0  0
   -4.3607    1.4900    0.0000 C   0  0  0  0  0  0  0  0  0  0  0  0
   -4.6360    4.2778    0.0000 O   0  0  0  0  0  0  0  0  0  0  0  0
   -0.0087    5.6410    0.0000 C   0  0  0  0  0  0  0  0  0  0  0  0
   -0.4413    6.3882    0.0000 C   0  0  0  0  0  0  0  0  0  0  0  0
   -0.4064    4.1554    0.0000 O   0  0  0  0  0  0  0  0  0  0  0  0
   -1.9313    6.7858    0.0000 O   0  0  0  0  0  0  0  0  0  0  0  0
   -5.7197    1.8701    0.0000 C   0  0  0  0  0  0  0  0  0  0  0  0
   -4.5836    0.7166    0.0000 C   0  0  0  0  0  0  0  0  0  0  0  0
   -5.9294    1.0880    0.0000 C   0  0  0  0  0  0  0  0  0  0  0  0
   -5.3570    0.5112    0.0000 C   0  0  0  0  0  0  0  0  0  0  0  0
  2  4  1  0  0  0  0
  3  5  1  0  0  0  0
  4  1  1  0  0  0  0
  5 12  1  0  0  0  0
  6  1  2  0  0  0  0
  7  1  1  0  0  0  0
  8  3  1  0  0  0  0
  9  3  1  0  0  0  0
 10  6  1  0  0  0  0
 11  2  1  0  0  0  0
 12  2  1  0  0  0  0
 13  7  1  0  0  0  0
 14  4  2  0  0  0  0
 15  8  1  0  0  0  0
 16  9  1  0  0  0  0
 17  8  2  0  0  0  0
 18  9  2  0  0  0  0
 19  7  2  0  0  0  0
 20 13  2  0  0  0  0
 21 19  1  0  0  0  0
 22 21  2  0  0  0  0
 13 10  1  0  0  0  0
  5 11  1  0  0  0  0
 20 22  1  0  0  0  0
 16 15  1  0  0  0  0
M  END
>  <IDNUMBER>
F6473-3772

>  <Chemical_Name>
1-[1-(1H-indole-3-carbonyl)azetidin-3-yl]pyrrolidine-2,5-dione

>  <PriceCoeff>
1.50

>  <CAS>
1795085-51-6

>  <MW>
297.31

>  <Description>
solid

>  <FSP3>
0.31

>  <clogP>
0.65

>  <TPSA>
73.48

>  <Acceptor>
3

>  <Donor>
1

>  <RotBonds>
3

>  <HAC>
22

>  <Collection>
Advanced

>  <PPDS>
+

$$$$
F6473-3845
  Mrv2219 10102508112D          

 22 24  0  0  0  0            999 V2000
   -1.3114    5.1165    0.0000 N   0  0  0  0  0  0  0  0  0  0  0  0
   -3.0406    4.1141    0.0000 N   0  0  0  0  0  0  0  0  0  0  0  0
   -3.7548    3.7047    0.0000 C   0  0  0  0  0  0  0  0  0  0  0  0
   -2.0382    4.6988    0.0000 C   0  0  0  0  0  0  0  0  0  0  0  0
   -1.2279    5.9309    0.0000 C   0  0  0  0  0  0  0  0  0  0  0  0
   -0.5596    4.7782    0.0000 C   0  0  0  0  0  0  0  0  0  0  0  0
   -2.2512    3.9052    0.0000 C   0  0  0  0  0  0  0  0  0  0  0  0
   -2.8276    4.9118    0.0000 C   0  0  0  0  0  0  0  0  0  0  0  0
   -4.4690    4.1141    0.0000 N   0  0  0  0  0  0  0  0  0  0  0  0
   -6.6076    3.7172    0.0000 C   0  0  0  0  0  0  0  0  0  0  0  0
   -5.9059    4.1182    0.0000 C   0  0  0  0  0  0  0  0  0  0  0  0
   -5.1832    3.7131    0.0000 C   0  0  0  0  0  0  0  0  0  0  0  0
   -3.7548    2.8902    0.0000 O   0  0  0  0  0  0  0  0  0  0  0  0
   -6.6076    2.8902    0.0000 C   0  0  0  0  0  0  0  0  0  0  0  0
   -0.0083    5.3921    0.0000 C   0  0  0  0  0  0  0  0  0  0  0  0
   -0.4218    6.1064    0.0000 C   0  0  0  0  0  0  0  0  0  0  0  0
   -0.3884    3.9720    0.0000 O   0  0  0  0  0  0  0  0  0  0  0  0
   -1.8461    6.4864    0.0000 O   0  0  0  0  0  0  0  0  0  0  0  0
   -5.9100    2.4684    0.0000 C   0  0  0  0  0  0  0  0  0  0  0  0
   -7.3218    4.1266    0.0000 Cl  0  0  0  0  0  0  0  0  0  0  0  0
   -5.1832    2.8819    0.0000 C   0  0  0  0  0  0  0  0  0  0  0  0
   -7.3343    2.4767    0.0000 Cl  0  0  0  0  0  0  0  0  0  0  0  0
  2  8  1  0  0  0  0
  3  2  1  0  0  0  0
  4  1  1  0  0  0  0
  5  1  1  0  0  0  0
  6  1  1  0  0  0  0
  7  4  1  0  0  0  0
  8  4  1  0  0  0  0
  9  3  1  0  0  0  0
 10 11  1  0  0  0  0
 11 12  2  0  0  0  0
 12  9  1  0  0  0  0
 13  3  2  0  0  0  0
 14 19  1  0  0  0  0
 15  6  1  0  0  0  0
 16  5  1  0  0  0  0
 17  6  2  0  0  0  0
 18  5  2  0  0  0  0
 19 21  2  0  0  0  0
 20 10  1  0  0  0  0
 21 12  1  0  0  0  0
 22 14  1  0  0  0  0
 16 15  1  0  0  0  0
  7  2  1  0  0  0  0
 10 14  2  0  0  0  0
M  END
>  <IDNUMBER>
F6473-3845

>  <Chemical_Name>
N-(3,4-dichlorophenyl)-3-(2,5-dioxopyrrolidin-1-yl)azetidine-1-carboxamide

>  <PriceCoeff>
1.50

>  <CAS>
1795303-77-3

>  <MW>
342.18

>  <Description>
solid

>  <FSP3>
0.36

>  <clogP>
2.00

>  <TPSA>
69.72

>  <Acceptor>
3

>  <Donor>
1

>  <RotBonds>
3

>  <HAC>
22

>  <Collection>
Advanced

>  <PPDS>
+

$$$$
F6473-3854
  Mrv2219 10102508112D          

 24 26  0  0  0  0            999 V2000
   -1.3112    5.1154    0.0000 N   0  0  0  0  0  0  0  0  0  0  0  0
   -3.0399    4.1132    0.0000 N   0  0  0  0  0  0  0  0  0  0  0  0
   -3.7540    3.7039    0.0000 C   0  0  0  0  0  0  0  0  0  0  0  0
   -2.0377    4.6978    0.0000 C   0  0  0  0  0  0  0  0  0  0  0  0
   -1.2277    5.9296    0.0000 C   0  0  0  0  0  0  0  0  0  0  0  0
   -0.5595    4.7771    0.0000 C   0  0  0  0  0  0  0  0  0  0  0  0
   -2.2507    3.9043    0.0000 C   0  0  0  0  0  0  0  0  0  0  0  0
   -2.8270    4.9107    0.0000 C   0  0  0  0  0  0  0  0  0  0  0  0
   -4.4681    4.1132    0.0000 N   0  0  0  0  0  0  0  0  0  0  0  0
   -3.7540    2.8771    0.0000 O   0  0  0  0  0  0  0  0  0  0  0  0
   -7.3327    2.4637    0.0000 C   0  0  0  0  0  0  0  0  0  0  0  0
   -6.6102    2.8771    0.0000 C   0  0  0  0  0  0  0  0  0  0  0  0
   -0.0083    5.3910    0.0000 C   0  0  0  0  0  0  0  0  0  0  0  0
   -0.4217    6.1050    0.0000 C   0  0  0  0  0  0  0  0  0  0  0  0
   -0.3883    3.9712    0.0000 O   0  0  0  0  0  0  0  0  0  0  0  0
   -1.8457    6.4850    0.0000 O   0  0  0  0  0  0  0  0  0  0  0  0
   -5.1863    3.7039    0.0000 C   0  0  0  0  0  0  0  0  0  0  0  0
   -6.6102    3.7039    0.0000 C   0  0  0  0  0  0  0  0  0  0  0  0
   -5.9087    2.4637    0.0000 C   0  0  0  0  0  0  0  0  0  0  0  0
   -5.1863    2.8813    0.0000 C   0  0  0  0  0  0  0  0  0  0  0  0
   -5.9046    4.1048    0.0000 C   0  0  0  0  0  0  0  0  0  0  0  0
   -7.7461    3.1819    0.0000 C   0  0  0  0  0  0  0  0  0  0  0  0
   -6.9193    1.7496    0.0000 C   0  0  0  0  0  0  0  0  0  0  0  0
   -8.0468    2.0503    0.0000 C   0  0  0  0  0  0  0  0  0  0  0  0
  2  8  1  0  0  0  0
  3  2  1  0  0  0  0
  4  1  1  0  0  0  0
  5  1  1  0  0  0  0
  6  1  1  0  0  0  0
  7  4  1  0  0  0  0
  8  4  1  0  0  0  0
  9  3  1  0  0  0  0
 10  3  2  0  0  0  0
 11 12  1  0  0  0  0
 12 18  2  0  0  0  0
 13  6  1  0  0  0  0
 14  5  1  0  0  0  0
 15  6  2  0  0  0  0
 16  5  2  0  0  0  0
 17  9  1  0  0  0  0
 18 21  1  0  0  0  0
 19 20  2  0  0  0  0
 20 17  1  0  0  0  0
 21 17  2  0  0  0  0
 22 11  1  0  0  0  0
 23 11  1  0  0  0  0
 24 11  1  0  0  0  0
 14 13  1  0  0  0  0
  7  2  1  0  0  0  0
 12 19  1  0  0  0  0
M  END
>  <IDNUMBER>
F6473-3854

>  <Chemical_Name>
N-(4-tert-butylphenyl)-3-(2,5-dioxopyrrolidin-1-yl)azetidine-1-carboxamide

>  <PriceCoeff>
1.50

>  <CAS>
1795085-60-7

>  <MW>
329.39

>  <Description>
solid

>  <FSP3>
0.50

>  <clogP>
2.12

>  <TPSA>
69.72

>  <Acceptor>
3

>  <Donor>
1

>  <RotBonds>
3

>  <HAC>
24

>  <Collection>
Advanced

>  <PPDS>
+

$$$$
F6473-3858
  Mrv2219 10102508112D          

 25 27  0  0  0  0            999 V2000
   -1.3148    5.1297    0.0000 N   0  0  0  0  0  0  0  0  0  0  0  0
   -3.0484    4.1247    0.0000 N   0  0  0  0  0  0  0  0  0  0  0  0
   -3.7645    3.7143    0.0000 C   0  0  0  0  0  0  0  0  0  0  0  0
   -2.0435    4.7109    0.0000 C   0  0  0  0  0  0  0  0  0  0  0  0
   -1.2311    5.9463    0.0000 C   0  0  0  0  0  0  0  0  0  0  0  0
   -0.5611    4.7905    0.0000 C   0  0  0  0  0  0  0  0  0  0  0  0
   -2.2570    3.9153    0.0000 C   0  0  0  0  0  0  0  0  0  0  0  0
   -2.8349    4.9245    0.0000 C   0  0  0  0  0  0  0  0  0  0  0  0
   -4.4806    4.1247    0.0000 N   0  0  0  0  0  0  0  0  0  0  0  0
   -3.7645    2.8894    0.0000 O   0  0  0  0  0  0  0  0  0  0  0  0
   -0.0083    5.4061    0.0000 C   0  0  0  0  0  0  0  0  0  0  0  0
   -0.4229    6.1221    0.0000 C   0  0  0  0  0  0  0  0  0  0  0  0
   -0.3894    3.9823    0.0000 O   0  0  0  0  0  0  0  0  0  0  0  0
   -1.8509    6.5031    0.0000 O   0  0  0  0  0  0  0  0  0  0  0  0
   -5.1883    3.7143    0.0000 C   0  0  0  0  0  0  0  0  0  0  0  0
   -6.6121    2.8977    0.0000 C   0  0  0  0  0  0  0  0  0  0  0  0
   -5.1966    2.8977    0.0000 C   0  0  0  0  0  0  0  0  0  0  0  0
   -5.9043    4.1247    0.0000 C   0  0  0  0  0  0  0  0  0  0  0  0
   -5.9127    2.4831    0.0000 C   0  0  0  0  0  0  0  0  0  0  0  0
   -6.6121    3.7227    0.0000 C   0  0  0  0  0  0  0  0  0  0  0  0
   -7.3281    2.4831    0.0000 O   0  0  0  0  0  0  0  0  0  0  0  0
   -7.3281    1.6666    0.0000 C   0  0  0  0  0  0  0  0  0  0  0  0
   -8.0483    1.2520    0.0000 C   0  0  0  0  0  0  0  0  0  0  0  0
   -8.0567    0.4271    0.0000 C   0  0  0  0  0  0  0  0  0  0  0  0
   -8.7728    0.0209    0.0000 C   0  0  0  0  0  0  0  0  0  0  0  0
  2  8  1  0  0  0  0
  3  2  1  0  0  0  0
  4  1  1  0  0  0  0
  5  1  1  0  0  0  0
  6  1  1  0  0  0  0
  7  4  1  0  0  0  0
  8  4  1  0  0  0  0
  9  3  1  0  0  0  0
 10  3  2  0  0  0  0
 11  6  1  0  0  0  0
 12  5  1  0  0  0  0
 13  6  2  0  0  0  0
 14  5  2  0  0  0  0
 15  9  1  0  0  0  0
 16 20  1  0  0  0  0
 17 15  2  0  0  0  0
 18 15  1  0  0  0  0
 19 17  1  0  0  0  0
 20 18  2  0  0  0  0
 21 16  1  0  0  0  0
 22 21  1  0  0  0  0
 23 22  1  0  0  0  0
 24 23  1  0  0  0  0
 25 24  1  0  0  0  0
 12 11  1  0  0  0  0
  7  2  1  0  0  0  0
 16 19  2  0  0  0  0
M  END
>  <IDNUMBER>
F6473-3858

>  <Chemical_Name>
N-(4-butoxyphenyl)-3-(2,5-dioxopyrrolidin-1-yl)azetidine-1-carboxamide

>  <PriceCoeff>
1.00

>  <CAS>
1795446-16-0

>  <MW>
345.39

>  <Description>
solid

>  <FSP3>
0.50

>  <clogP>
1.98

>  <TPSA>
78.95

>  <Acceptor>
4

>  <Donor>
1

>  <RotBonds>
7

>  <HAC>
25

>  <Collection>
General

>  <PPDS>
+

$$$$
F6473-3860
  Mrv2219 10102508112D          

 22 24  0  0  0  0            999 V2000
   -1.3114    5.1165    0.0000 N   0  0  0  0  0  0  0  0  0  0  0  0
   -3.0406    4.1141    0.0000 N   0  0  0  0  0  0  0  0  0  0  0  0
   -2.0382    4.6988    0.0000 C   0  0  0  0  0  0  0  0  0  0  0  0
   -3.7548    3.7047    0.0000 C   0  0  0  0  0  0  0  0  0  0  0  0
   -1.2279    5.9309    0.0000 C   0  0  0  0  0  0  0  0  0  0  0  0
   -0.5596    4.7782    0.0000 C   0  0  0  0  0  0  0  0  0  0  0  0
   -2.2512    3.9052    0.0000 C   0  0  0  0  0  0  0  0  0  0  0  0
   -2.8276    4.9118    0.0000 C   0  0  0  0  0  0  0  0  0  0  0  0
   -4.4690    4.1141    0.0000 N   0  0  0  0  0  0  0  0  0  0  0  0
   -3.7548    2.8777    0.0000 O   0  0  0  0  0  0  0  0  0  0  0  0
   -0.0083    5.3921    0.0000 C   0  0  0  0  0  0  0  0  0  0  0  0
   -0.4218    6.1064    0.0000 C   0  0  0  0  0  0  0  0  0  0  0  0
   -0.3884    3.9720    0.0000 O   0  0  0  0  0  0  0  0  0  0  0  0
   -1.8461    6.4864    0.0000 O   0  0  0  0  0  0  0  0  0  0  0  0
   -5.1832    3.7047    0.0000 C   0  0  0  0  0  0  0  0  0  0  0  0
   -5.2083    1.2237    0.0000 C   0  0  0  0  0  0  0  0  0  0  0  0
   -5.1874    2.8819    0.0000 C   0  0  0  0  0  0  0  0  0  0  0  0
   -5.2208    0.4010    0.0000 Cl  0  0  0  0  0  0  0  0  0  0  0  0
   -5.9225    1.6498    0.0000 C   0  0  0  0  0  0  0  0  0  0  0  0
   -4.4858    1.6289    0.0000 C   0  0  0  0  0  0  0  0  0  0  0  0
   -5.9184    2.4684    0.0000 C   0  0  0  0  0  0  0  0  0  0  0  0
   -4.4774    2.4642    0.0000 C   0  0  0  0  0  0  0  0  0  0  0  0
  2  8  1  0  0  0  0
  3  1  1  0  0  0  0
  4  2  1  0  0  0  0
  5  1  1  0  0  0  0
  6  1  1  0  0  0  0
  7  3  1  0  0  0  0
  8  3  1  0  0  0  0
  9  4  1  0  0  0  0
 10  4  2  0  0  0  0
 11  6  1  0  0  0  0
 12  5  1  0  0  0  0
 13  6  2  0  0  0  0
 14  5  2  0  0  0  0
 15  9  1  0  0  0  0
 16 20  1  0  0  0  0
 17 15  1  0  0  0  0
 18 16  1  0  0  0  0
 19 21  1  0  0  0  0
 20 22  2  0  0  0  0
 21 17  2  0  0  0  0
 22 17  1  0  0  0  0
 12 11  1  0  0  0  0
  7  2  1  0  0  0  0
 16 19  2  0  0  0  0
M  END
>  <IDNUMBER>
F6473-3860

>  <Chemical_Name>
N-[(4-chlorophenyl)methyl]-3-(2,5-dioxopyrrolidin-1-yl)azetidine-1-carboxamide

>  <PriceCoeff>
1.50

>  <CAS>
1795191-42-2

>  <MW>
321.76

>  <Description>
solid

>  <FSP3>
0.40

>  <clogP>
1.57

>  <TPSA>
69.72

>  <Acceptor>
3

>  <Donor>
1

>  <RotBonds>
4

>  <HAC>
22

>  <Collection>
Advanced

>  <PPDS>
+

$$$$
F6473-3880
  Mrv2219 10102508112D          

 25 27  0  0  0  0            999 V2000
   -1.3112    5.1154    0.0000 N   0  0  0  0  0  0  0  0  0  0  0  0
   -3.0399    4.1132    0.0000 N   0  0  0  0  0  0  0  0  0  0  0  0
   -2.0377    4.6978    0.0000 C   0  0  0  0  0  0  0  0  0  0  0  0
   -3.7540    3.7039    0.0000 C   0  0  0  0  0  0  0  0  0  0  0  0
   -1.2277    5.9296    0.0000 C   0  0  0  0  0  0  0  0  0  0  0  0
   -0.5595    4.7771    0.0000 C   0  0  0  0  0  0  0  0  0  0  0  0
   -2.2507    3.9043    0.0000 C   0  0  0  0  0  0  0  0  0  0  0  0
   -2.8270    4.9107    0.0000 C   0  0  0  0  0  0  0  0  0  0  0  0
   -4.4681    4.1132    0.0000 N   0  0  0  0  0  0  0  0  0  0  0  0
   -5.8962    1.6494    0.0000 C   0  0  0  0  0  0  0  0  0  0  0  0
   -3.7540    2.8813    0.0000 O   0  0  0  0  0  0  0  0  0  0  0  0
   -5.1863    1.2360    0.0000 C   0  0  0  0  0  0  0  0  0  0  0  0
   -0.0083    5.3910    0.0000 C   0  0  0  0  0  0  0  0  0  0  0  0
   -0.4217    6.1050    0.0000 C   0  0  0  0  0  0  0  0  0  0  0  0
   -0.3883    3.9712    0.0000 O   0  0  0  0  0  0  0  0  0  0  0  0
   -1.8457    6.4850    0.0000 O   0  0  0  0  0  0  0  0  0  0  0  0
   -5.9046    2.4762    0.0000 C   0  0  0  0  0  0  0  0  0  0  0  0
   -4.4681    1.6494    0.0000 C   0  0  0  0  0  0  0  0  0  0  0  0
   -5.1821    2.8896    0.0000 C   0  0  0  0  0  0  0  0  0  0  0  0
   -5.1821    3.7123    0.0000 C   0  0  0  0  0  0  0  0  0  0  0  0
   -4.4681    2.4762    0.0000 C   0  0  0  0  0  0  0  0  0  0  0  0
   -6.6102    1.2277    0.0000 O   0  0  0  0  0  0  0  0  0  0  0  0
   -5.1821    0.4009    0.0000 O   0  0  0  0  0  0  0  0  0  0  0  0
   -6.6061    0.3967    0.0000 C   0  0  0  0  0  0  0  0  0  0  0  0
   -5.8962   -0.0042    0.0000 C   0  0  0  0  0  0  0  0  0  0  0  0
  2  8  1  0  0  0  0
  3  1  1  0  0  0  0
  4  2  1  0  0  0  0
  5  1  1  0  0  0  0
  6  1  1  0  0  0  0
  7  3  1  0  0  0  0
  8  3  1  0  0  0  0
  9  4  1  0  0  0  0
 10 17  1  0  0  0  0
 11  4  2  0  0  0  0
 12 18  1  0  0  0  0
 13  6  1  0  0  0  0
 14  5  1  0  0  0  0
 15  6  2  0  0  0  0
 16  5  2  0  0  0  0
 17 19  2  0  0  0  0
 18 21  2  0  0  0  0
 19 20  1  0  0  0  0
 20  9  1  0  0  0  0
 21 19  1  0  0  0  0
 22 10  1  0  0  0  0
 23 12  1  0  0  0  0
 24 22  1  0  0  0  0
 25 23  1  0  0  0  0
 14 13  1  0  0  0  0
  7  2  1  0  0  0  0
 10 12  2  0  0  0  0
M  END
>  <IDNUMBER>
F6473-3880

>  <Chemical_Name>
N-[(3,4-dimethoxyphenyl)methyl]-3-(2,5-dioxopyrrolidin-1-yl)azetidine-1-carboxamide

>  <PriceCoeff>
1.50

>  <CAS>
1795422-60-4

>  <MW>
347.37

>  <Description>
solid

>  <FSP3>
0.47

>  <clogP>
0.52

>  <TPSA>
88.18

>  <Acceptor>
5

>  <Donor>
1

>  <RotBonds>
6

>  <HAC>
25

>  <Collection>
Advanced

>  <PPDS>
+

$$$$
F6473-3893
  Mrv2219 10102508112D          

 20 22  0  0  0  0            999 V2000
   -3.7540    3.7039    0.0000 S   0  0  0  0  0  0  0  0  0  0  0  0
   -3.0399    4.1132    0.0000 N   0  0  0  0  0  0  0  0  0  0  0  0
   -1.3112    5.1154    0.0000 N   0  0  0  0  0  0  0  0  0  0  0  0
   -2.0377    4.6978    0.0000 C   0  0  0  0  0  0  0  0  0  0  0  0
   -2.2507    3.9043    0.0000 C   0  0  0  0  0  0  0  0  0  0  0  0
   -2.8270    4.9107    0.0000 C   0  0  0  0  0  0  0  0  0  0  0  0
   -1.2277    5.9296    0.0000 C   0  0  0  0  0  0  0  0  0  0  0  0
   -0.5595    4.7771    0.0000 C   0  0  0  0  0  0  0  0  0  0  0  0
   -3.3406    3.0024    0.0000 O   0  0  0  0  0  0  0  0  0  0  0  0
   -4.1799    4.4138    0.0000 O   0  0  0  0  0  0  0  0  0  0  0  0
   -4.4681    3.2905    0.0000 C   0  0  0  0  0  0  0  0  0  0  0  0
   -0.4217    6.1050    0.0000 C   0  0  0  0  0  0  0  0  0  0  0  0
   -0.0083    5.3910    0.0000 C   0  0  0  0  0  0  0  0  0  0  0  0
   -1.8457    6.4850    0.0000 O   0  0  0  0  0  0  0  0  0  0  0  0
   -0.3883    3.9712    0.0000 O   0  0  0  0  0  0  0  0  0  0  0  0
   -5.1863    3.7039    0.0000 C   0  0  0  0  0  0  0  0  0  0  0  0
   -4.4639    2.4679    0.0000 C   0  0  0  0  0  0  0  0  0  0  0  0
   -5.1821    2.0503    0.0000 C   0  0  0  0  0  0  0  0  0  0  0  0
   -5.8962    3.2905    0.0000 C   0  0  0  0  0  0  0  0  0  0  0  0
   -5.8962    2.4637    0.0000 C   0  0  0  0  0  0  0  0  0  0  0  0
  2  1  1  0  0  0  0
  3  4  1  0  0  0  0
  4  6  1  0  0  0  0
  5  2  1  0  0  0  0
  6  2  1  0  0  0  0
  7  3  1  0  0  0  0
  8  3  1  0  0  0  0
  9  1  2  0  0  0  0
 10  1  2  0  0  0  0
 11  1  1  0  0  0  0
 12  7  1  0  0  0  0
 13  8  1  0  0  0  0
 14  7  2  0  0  0  0
 15  8  2  0  0  0  0
 16 11  1  0  0  0  0
 17 11  1  0  0  0  0
 18 17  1  0  0  0  0
 19 16  1  0  0  0  0
 20 18  1  0  0  0  0
  4  5  1  0  0  0  0
 19 20  1  0  0  0  0
 12 13  1  0  0  0  0
M  END
>  <IDNUMBER>
F6473-3893

>  <Chemical_Name>
1-[1-(cyclohexanesulfonyl)azetidin-3-yl]pyrrolidine-2,5-dione

>  <PriceCoeff>
1.00

>  <CAS>
1787879-64-4

>  <MW>
300.37

>  <Description>
solid

>  <FSP3>
0.85

>  <clogP>
1.12

>  <TPSA>
83.14

>  <Acceptor>
4

>  <Donor>
0

>  <RotBonds>
3

>  <HAC>
20

>  <Collection>
General

$$$$
F6473-3901
  Mrv2219 10102508112D          

 22 24  0  0  0  0            999 V2000
   -3.7548    3.7047    0.0000 S   0  0  0  0  0  0  0  0  0  0  0  0
   -3.0406    4.1141    0.0000 N   0  0  0  0  0  0  0  0  0  0  0  0
   -1.3114    5.1165    0.0000 N   0  0  0  0  0  0  0  0  0  0  0  0
   -2.0382    4.6988    0.0000 C   0  0  0  0  0  0  0  0  0  0  0  0
   -2.2512    3.9052    0.0000 C   0  0  0  0  0  0  0  0  0  0  0  0
   -2.8276    4.9118    0.0000 C   0  0  0  0  0  0  0  0  0  0  0  0
   -4.4690    3.2996    0.0000 C   0  0  0  0  0  0  0  0  0  0  0  0
   -0.5596    4.7782    0.0000 C   0  0  0  0  0  0  0  0  0  0  0  0
   -1.2279    5.9309    0.0000 C   0  0  0  0  0  0  0  0  0  0  0  0
   -3.3538    2.9905    0.0000 O   0  0  0  0  0  0  0  0  0  0  0  0
   -4.1642    4.4148    0.0000 O   0  0  0  0  0  0  0  0  0  0  0  0
   -5.1832    3.7172    0.0000 C   0  0  0  0  0  0  0  0  0  0  0  0
   -5.9100    3.3037    0.0000 C   0  0  0  0  0  0  0  0  0  0  0  0
   -0.4218    6.1064    0.0000 C   0  0  0  0  0  0  0  0  0  0  0  0
   -0.0083    5.3921    0.0000 C   0  0  0  0  0  0  0  0  0  0  0  0
   -1.8461    6.4864    0.0000 O   0  0  0  0  0  0  0  0  0  0  0  0
   -0.3884    3.9720    0.0000 O   0  0  0  0  0  0  0  0  0  0  0  0
   -4.4816    2.4767    0.0000 C   0  0  0  0  0  0  0  0  0  0  0  0
   -5.9100    2.4767    0.0000 C   0  0  0  0  0  0  0  0  0  0  0  0
   -5.2083    2.0633    0.0000 C   0  0  0  0  0  0  0  0  0  0  0  0
   -6.6201    3.7297    0.0000 C   0  0  0  0  0  0  0  0  0  0  0  0
   -6.6201    2.0758    0.0000 C   0  0  0  0  0  0  0  0  0  0  0  0
  2  1  1  0  0  0  0
  3  4  1  0  0  0  0
  4  6  1  0  0  0  0
  5  2  1  0  0  0  0
  6  2  1  0  0  0  0
  7  1  1  0  0  0  0
  8  3  1  0  0  0  0
  9  3  1  0  0  0  0
 10  1  2  0  0  0  0
 11  1  2  0  0  0  0
 12  7  2  0  0  0  0
 13 12  1  0  0  0  0
 14  9  1  0  0  0  0
 15  8  1  0  0  0  0
 16  9  2  0  0  0  0
 17  8  2  0  0  0  0
 18  7  1  0  0  0  0
 19 20  1  0  0  0  0
 20 18  2  0  0  0  0
 21 13  1  0  0  0  0
 22 19  1  0  0  0  0
  4  5  1  0  0  0  0
 19 13  2  0  0  0  0
 14 15  1  0  0  0  0
M  END
>  <IDNUMBER>
F6473-3901

>  <Chemical_Name>
1-[1-(3,4-dimethylbenzenesulfonyl)azetidin-3-yl]pyrrolidine-2,5-dione

>  <PriceCoeff>
1.50

>  <CAS>
1795446-38-6

>  <MW>
322.38

>  <Description>
solid

>  <FSP3>
0.47

>  <clogP>
1.71

>  <TPSA>
83.14

>  <Acceptor>
4

>  <Donor>
0

>  <RotBonds>
3

>  <HAC>
22

>  <Collection>
Advanced

>  <PPDS>
+

$$$$
F6473-3906
  Mrv2219 10102508112D          

 22 24  0  0  0  0            999 V2000
   -3.7540    3.7039    0.0000 S   0  0  0  0  0  0  0  0  0  0  0  0
   -3.0399    4.1132    0.0000 N   0  0  0  0  0  0  0  0  0  0  0  0
   -1.3112    5.1154    0.0000 N   0  0  0  0  0  0  0  0  0  0  0  0
   -2.0377    4.6978    0.0000 C   0  0  0  0  0  0  0  0  0  0  0  0
   -2.2507    3.9043    0.0000 C   0  0  0  0  0  0  0  0  0  0  0  0
   -2.8270    4.9107    0.0000 C   0  0  0  0  0  0  0  0  0  0  0  0
   -4.4806    3.2989    0.0000 C   0  0  0  0  0  0  0  0  0  0  0  0
   -0.5595    4.7771    0.0000 C   0  0  0  0  0  0  0  0  0  0  0  0
   -1.2277    5.9296    0.0000 C   0  0  0  0  0  0  0  0  0  0  0  0
   -3.3531    2.9898    0.0000 O   0  0  0  0  0  0  0  0  0  0  0  0
   -4.1549    4.4138    0.0000 O   0  0  0  0  0  0  0  0  0  0  0  0
   -5.1821    3.7206    0.0000 C   0  0  0  0  0  0  0  0  0  0  0  0
   -0.0083    5.3910    0.0000 C   0  0  0  0  0  0  0  0  0  0  0  0
   -0.4217    6.1050    0.0000 C   0  0  0  0  0  0  0  0  0  0  0  0
   -0.3883    3.9712    0.0000 O   0  0  0  0  0  0  0  0  0  0  0  0
   -1.8457    6.4850    0.0000 O   0  0  0  0  0  0  0  0  0  0  0  0
   -5.9046    3.3197    0.0000 C   0  0  0  0  0  0  0  0  0  0  0  0
   -4.4931    2.4637    0.0000 C   0  0  0  0  0  0  0  0  0  0  0  0
   -6.6019    3.7415    0.0000 O   0  0  0  0  0  0  0  0  0  0  0  0
   -5.2156    2.0628    0.0000 C   0  0  0  0  0  0  0  0  0  0  0  0
   -5.9171    2.4887    0.0000 C   0  0  0  0  0  0  0  0  0  0  0  0
   -7.3327    3.3406    0.0000 C   0  0  0  0  0  0  0  0  0  0  0  0
  2  1  1  0  0  0  0
  3  4  1  0  0  0  0
  4  6  1  0  0  0  0
  5  2  1  0  0  0  0
  6  2  1  0  0  0  0
  7  1  1  0  0  0  0
  8  3  1  0  0  0  0
  9  3  1  0  0  0  0
 10  1  2  0  0  0  0
 11  1  2  0  0  0  0
 12  7  2  0  0  0  0
 13  8  1  0  0  0  0
 14  9  1  0  0  0  0
 15  8  2  0  0  0  0
 16  9  2  0  0  0  0
 17 12  1  0  0  0  0
 18  7  1  0  0  0  0
 19 17  1  0  0  0  0
 20 18  2  0  0  0  0
 21 20  1  0  0  0  0
 22 19  1  0  0  0  0
  4  5  1  0  0  0  0
 21 17  2  0  0  0  0
 14 13  1  0  0  0  0
M  END
>  <IDNUMBER>
F6473-3906

>  <Chemical_Name>
1-[1-(3-methoxybenzenesulfonyl)azetidin-3-yl]pyrrolidine-2,5-dione

>  <PriceCoeff>
1.00

>  <CAS>
1798639-05-0

>  <MW>
324.35

>  <Description>
solid

>  <FSP3>
0.43

>  <clogP>
0.94

>  <TPSA>
92.37

>  <Acceptor>
5

>  <Donor>
0

>  <RotBonds>
4

>  <HAC>
22

>  <Collection>
General

>  <PPDS>
+

$$$$
F6473-3909
  Mrv2219 10102508112D          

 22 24  0  0  0  0            999 V2000
   -3.7540    3.7039    0.0000 S   0  0  0  0  0  0  0  0  0  0  0  0
   -3.0399    4.1132    0.0000 N   0  0  0  0  0  0  0  0  0  0  0  0
   -1.3112    5.1154    0.0000 N   0  0  0  0  0  0  0  0  0  0  0  0
   -2.0377    4.6978    0.0000 C   0  0  0  0  0  0  0  0  0  0  0  0
   -4.4681    3.2989    0.0000 C   0  0  0  0  0  0  0  0  0  0  0  0
   -2.8270    4.9107    0.0000 C   0  0  0  0  0  0  0  0  0  0  0  0
   -2.2507    3.9043    0.0000 C   0  0  0  0  0  0  0  0  0  0  0  0
   -0.5595    4.7771    0.0000 C   0  0  0  0  0  0  0  0  0  0  0  0
   -1.2277    5.9296    0.0000 C   0  0  0  0  0  0  0  0  0  0  0  0
   -5.1821    3.7164    0.0000 C   0  0  0  0  0  0  0  0  0  0  0  0
   -3.3531    2.9898    0.0000 O   0  0  0  0  0  0  0  0  0  0  0  0
   -4.1674    4.4179    0.0000 O   0  0  0  0  0  0  0  0  0  0  0  0
   -4.4765    2.4679    0.0000 C   0  0  0  0  0  0  0  0  0  0  0  0
   -0.4217    6.1050    0.0000 C   0  0  0  0  0  0  0  0  0  0  0  0
   -0.0083    5.3910    0.0000 C   0  0  0  0  0  0  0  0  0  0  0  0
   -5.8962    3.2989    0.0000 C   0  0  0  0  0  0  0  0  0  0  0  0
   -0.3883    3.9712    0.0000 O   0  0  0  0  0  0  0  0  0  0  0  0
   -1.8457    6.4850    0.0000 O   0  0  0  0  0  0  0  0  0  0  0  0
   -5.8962    2.4679    0.0000 C   0  0  0  0  0  0  0  0  0  0  0  0
   -5.1738    2.0628    0.0000 C   0  0  0  0  0  0  0  0  0  0  0  0
   -6.6061    2.0628    0.0000 F   0  0  0  0  0  0  0  0  0  0  0  0
   -5.1821    4.5349    0.0000 C   0  0  0  0  0  0  0  0  0  0  0  0
  2  1  1  0  0  0  0
  3  4  1  0  0  0  0
  4  7  1  0  0  0  0
  5  1  1  0  0  0  0
  6  2  1  0  0  0  0
  7  2  1  0  0  0  0
  8  3  1  0  0  0  0
  9  3  1  0  0  0  0
 10  5  2  0  0  0  0
 11  1  2  0  0  0  0
 12  1  2  0  0  0  0
 13  5  1  0  0  0  0
 14  9  1  0  0  0  0
 15  8  1  0  0  0  0
 16 10  1  0  0  0  0
 17  8  2  0  0  0  0
 18  9  2  0  0  0  0
 19 20  1  0  0  0  0
 20 13  2  0  0  0  0
 21 19  1  0  0  0  0
 22 10  1  0  0  0  0
  6  4  1  0  0  0  0
 16 19  2  0  0  0  0
 14 15  1  0  0  0  0
M  END
>  <IDNUMBER>
F6473-3909

>  <Chemical_Name>
1-[1-(4-fluoro-2-methylbenzenesulfonyl)azetidin-3-yl]pyrrolidine-2,5-dione

>  <PriceCoeff>
1.50

>  <CAS>
1795300-54-7

>  <MW>
326.34

>  <Description>
solid

>  <FSP3>
0.43

>  <clogP>
1.41

>  <TPSA>
83.14

>  <Acceptor>
4

>  <Donor>
0

>  <RotBonds>
3

>  <HAC>
22

>  <Collection>
Advanced

>  <PPDS>
+

$$$$
F6473-3910
  Mrv2219 10102508112D          

 22 24  0  0  0  0            999 V2000
   -3.7540    3.7039    0.0000 S   0  0  0  0  0  0  0  0  0  0  0  0
   -3.0399    4.1132    0.0000 N   0  0  0  0  0  0  0  0  0  0  0  0
   -1.3112    5.1154    0.0000 N   0  0  0  0  0  0  0  0  0  0  0  0
   -2.0377    4.6978    0.0000 C   0  0  0  0  0  0  0  0  0  0  0  0
   -2.2507    3.9043    0.0000 C   0  0  0  0  0  0  0  0  0  0  0  0
   -2.8270    4.9107    0.0000 C   0  0  0  0  0  0  0  0  0  0  0  0
   -4.4681    3.2989    0.0000 C   0  0  0  0  0  0  0  0  0  0  0  0
   -0.5595    4.7771    0.0000 C   0  0  0  0  0  0  0  0  0  0  0  0
   -1.2277    5.9296    0.0000 C   0  0  0  0  0  0  0  0  0  0  0  0
   -3.3531    2.9898    0.0000 O   0  0  0  0  0  0  0  0  0  0  0  0
   -4.1674    4.4179    0.0000 O   0  0  0  0  0  0  0  0  0  0  0  0
   -5.1821    3.7164    0.0000 C   0  0  0  0  0  0  0  0  0  0  0  0
   -5.9046    3.2989    0.0000 C   0  0  0  0  0  0  0  0  0  0  0  0
   -5.9046    2.4679    0.0000 C   0  0  0  0  0  0  0  0  0  0  0  0
   -0.0083    5.3910    0.0000 C   0  0  0  0  0  0  0  0  0  0  0  0
   -0.4217    6.1050    0.0000 C   0  0  0  0  0  0  0  0  0  0  0  0
   -0.3883    3.9712    0.0000 O   0  0  0  0  0  0  0  0  0  0  0  0
   -1.8457    6.4850    0.0000 O   0  0  0  0  0  0  0  0  0  0  0  0
   -4.4765    2.4679    0.0000 C   0  0  0  0  0  0  0  0  0  0  0  0
   -5.1821    2.0628    0.0000 C   0  0  0  0  0  0  0  0  0  0  0  0
   -6.6102    2.0545    0.0000 F   0  0  0  0  0  0  0  0  0  0  0  0
   -6.6061    3.7123    0.0000 C   0  0  0  0  0  0  0  0  0  0  0  0
  2  1  1  0  0  0  0
  3  4  1  0  0  0  0
  4  6  1  0  0  0  0
  5  2  1  0  0  0  0
  6  2  1  0  0  0  0
  7  1  1  0  0  0  0
  8  3  1  0  0  0  0
  9  3  1  0  0  0  0
 10  1  2  0  0  0  0
 11  1  2  0  0  0  0
 12  7  2  0  0  0  0
 13 12  1  0  0  0  0
 14 20  1  0  0  0  0
 15  8  1  0  0  0  0
 16  9  1  0  0  0  0
 17  8  2  0  0  0  0
 18  9  2  0  0  0  0
 19  7  1  0  0  0  0
 20 19  2  0  0  0  0
 21 14  1  0  0  0  0
 22 13  1  0  0  0  0
  4  5  1  0  0  0  0
 13 14  2  0  0  0  0
 16 15  1  0  0  0  0
M  END
>  <IDNUMBER>
F6473-3910

>  <Chemical_Name>
1-[1-(4-fluoro-3-methylbenzenesulfonyl)azetidin-3-yl]pyrrolidine-2,5-dione

>  <PriceCoeff>
1.50

>  <CAS>
1795085-64-1

>  <MW>
326.34

>  <Description>
solid

>  <FSP3>
0.43

>  <clogP>
1.41

>  <TPSA>
83.14

>  <Acceptor>
4

>  <Donor>
0

>  <RotBonds>
3

>  <HAC>
22

>  <Collection>
Advanced

>  <PPDS>
+

$$$$
F6473-3916
  Mrv2219 10102508112D          

 22 24  0  0  0  0            999 V2000
   -3.7645    3.7143    0.0000 S   0  0  0  0  0  0  0  0  0  0  0  0
   -3.0484    4.1247    0.0000 N   0  0  0  0  0  0  0  0  0  0  0  0
   -4.4806    3.3081    0.0000 C   0  0  0  0  0  0  0  0  0  0  0  0
   -1.3148    5.1297    0.0000 N   0  0  0  0  0  0  0  0  0  0  0  0
   -2.0435    4.7109    0.0000 C   0  0  0  0  0  0  0  0  0  0  0  0
   -2.8349    4.9245    0.0000 C   0  0  0  0  0  0  0  0  0  0  0  0
   -2.2570    3.9153    0.0000 C   0  0  0  0  0  0  0  0  0  0  0  0
   -0.5611    4.7905    0.0000 C   0  0  0  0  0  0  0  0  0  0  0  0
   -1.2311    5.9463    0.0000 C   0  0  0  0  0  0  0  0  0  0  0  0
   -5.1966    3.7143    0.0000 C   0  0  0  0  0  0  0  0  0  0  0  0
   -3.3499    2.9982    0.0000 O   0  0  0  0  0  0  0  0  0  0  0  0
   -4.1791    4.4303    0.0000 O   0  0  0  0  0  0  0  0  0  0  0  0
   -4.4806    2.4831    0.0000 C   0  0  0  0  0  0  0  0  0  0  0  0
   -0.4229    6.1221    0.0000 C   0  0  0  0  0  0  0  0  0  0  0  0
   -0.0083    5.4061    0.0000 C   0  0  0  0  0  0  0  0  0  0  0  0
   -1.8509    6.5031    0.0000 O   0  0  0  0  0  0  0  0  0  0  0  0
   -0.3894    3.9823    0.0000 O   0  0  0  0  0  0  0  0  0  0  0  0
   -5.1883    2.0686    0.0000 C   0  0  0  0  0  0  0  0  0  0  0  0
   -5.9127    3.2997    0.0000 C   0  0  0  0  0  0  0  0  0  0  0  0
   -3.7645    2.0477    0.0000 F   0  0  0  0  0  0  0  0  0  0  0  0
   -5.9043    2.4748    0.0000 C   0  0  0  0  0  0  0  0  0  0  0  0
   -6.6246    3.7017    0.0000 F   0  0  0  0  0  0  0  0  0  0  0  0
  2  1  1  0  0  0  0
  3  1  1  0  0  0  0
  4  5  1  0  0  0  0
  5  7  1  0  0  0  0
  6  2  1  0  0  0  0
  7  2  1  0  0  0  0
  8  4  1  0  0  0  0
  9  4  1  0  0  0  0
 10  3  2  0  0  0  0
 11  1  2  0  0  0  0
 12  1  2  0  0  0  0
 13  3  1  0  0  0  0
 14  9  1  0  0  0  0
 15  8  1  0  0  0  0
 16  9  2  0  0  0  0
 17  8  2  0  0  0  0
 18 13  2  0  0  0  0
 19 10  1  0  0  0  0
 20 13  1  0  0  0  0
 21 18  1  0  0  0  0
 22 19  1  0  0  0  0
  6  5  1  0  0  0  0
 19 21  2  0  0  0  0
 14 15  1  0  0  0  0
M  END
>  <IDNUMBER>
F6473-3916

>  <Chemical_Name>
1-[1-(2,5-difluorobenzenesulfonyl)azetidin-3-yl]pyrrolidine-2,5-dione

>  <PriceCoeff>
1.00

>  <CAS>
1795303-82-0

>  <MW>
330.31

>  <Description>
solid

>  <FSP3>
0.38

>  <clogP>
1.05

>  <TPSA>
83.14

>  <Acceptor>
4

>  <Donor>
0

>  <RotBonds>
3

>  <HAC>
22

>  <Collection>
General

>  <PPDS>
+

$$$$
F6473-3923
  Mrv2219 10102508112D          

 23 25  0  0  0  0            999 V2000
   -3.7540    3.7039    0.0000 S   0  0  0  0  0  0  0  0  0  0  0  0
   -3.0399    4.1132    0.0000 N   0  0  0  0  0  0  0  0  0  0  0  0
   -1.3112    5.1154    0.0000 N   0  0  0  0  0  0  0  0  0  0  0  0
   -4.4681    3.2989    0.0000 C   0  0  0  0  0  0  0  0  0  0  0  0
   -2.0377    4.6978    0.0000 C   0  0  0  0  0  0  0  0  0  0  0  0
   -2.8270    4.9107    0.0000 C   0  0  0  0  0  0  0  0  0  0  0  0
   -2.2507    3.9043    0.0000 C   0  0  0  0  0  0  0  0  0  0  0  0
   -0.5595    4.7771    0.0000 C   0  0  0  0  0  0  0  0  0  0  0  0
   -1.2277    5.9296    0.0000 C   0  0  0  0  0  0  0  0  0  0  0  0
   -3.3448    2.9898    0.0000 O   0  0  0  0  0  0  0  0  0  0  0  0
   -4.1674    4.4138    0.0000 O   0  0  0  0  0  0  0  0  0  0  0  0
   -5.1821    3.7164    0.0000 C   0  0  0  0  0  0  0  0  0  0  0  0
   -0.0083    5.3910    0.0000 C   0  0  0  0  0  0  0  0  0  0  0  0
   -0.4217    6.1050    0.0000 C   0  0  0  0  0  0  0  0  0  0  0  0
   -0.3883    3.9712    0.0000 O   0  0  0  0  0  0  0  0  0  0  0  0
   -1.8457    6.4850    0.0000 O   0  0  0  0  0  0  0  0  0  0  0  0
   -4.4765    2.4637    0.0000 C   0  0  0  0  0  0  0  0  0  0  0  0
   -5.1738    4.5349    0.0000 O   0  0  0  0  0  0  0  0  0  0  0  0
   -5.8962    3.3072    0.0000 C   0  0  0  0  0  0  0  0  0  0  0  0
   -5.8879    4.9525    0.0000 C   0  0  0  0  0  0  0  0  0  0  0  0
   -5.1946    2.0545    0.0000 C   0  0  0  0  0  0  0  0  0  0  0  0
   -6.6019    4.5432    0.0000 C   0  0  0  0  0  0  0  0  0  0  0  0
   -5.9046    2.4762    0.0000 C   0  0  0  0  0  0  0  0  0  0  0  0
  2  1  1  0  0  0  0
  3  5  1  0  0  0  0
  4  1  1  0  0  0  0
  5  7  1  0  0  0  0
  6  2  1  0  0  0  0
  7  2  1  0  0  0  0
  8  3  1  0  0  0  0
  9  3  1  0  0  0  0
 10  1  2  0  0  0  0
 11  1  2  0  0  0  0
 12  4  2  0  0  0  0
 13  8  1  0  0  0  0
 14  9  1  0  0  0  0
 15  8  2  0  0  0  0
 16  9  2  0  0  0  0
 17  4  1  0  0  0  0
 18 12  1  0  0  0  0
 19 12  1  0  0  0  0
 20 18  1  0  0  0  0
 21 17  2  0  0  0  0
 22 20  1  0  0  0  0
 23 21  1  0  0  0  0
  6  5  1  0  0  0  0
 19 23  2  0  0  0  0
 14 13  1  0  0  0  0
M  END
>  <IDNUMBER>
F6473-3923

>  <Chemical_Name>
1-[1-(2-ethoxybenzenesulfonyl)azetidin-3-yl]pyrrolidine-2,5-dione

>  <PriceCoeff>
1.00

>  <CAS>
1795085-73-2

>  <MW>
338.38

>  <Description>
solid

>  <FSP3>
0.47

>  <clogP>
0.98

>  <TPSA>
92.37

>  <Acceptor>
5

>  <Donor>
0

>  <RotBonds>
5

>  <HAC>
23

>  <Collection>
General

>  <PPDS>
+

$$$$
F6473-3924
  Mrv2219 10102508112D          

 23 25  0  0  0  0            999 V2000
   -3.7575    3.7074    0.0000 S   0  0  0  0  0  0  0  0  0  0  0  0
   -3.0428    4.1171    0.0000 N   0  0  0  0  0  0  0  0  0  0  0  0
   -1.3124    5.1202    0.0000 N   0  0  0  0  0  0  0  0  0  0  0  0
   -2.0397    4.7022    0.0000 C   0  0  0  0  0  0  0  0  0  0  0  0
   -2.2528    3.9080    0.0000 C   0  0  0  0  0  0  0  0  0  0  0  0
   -2.8296    4.9153    0.0000 C   0  0  0  0  0  0  0  0  0  0  0  0
   -4.4848    3.3061    0.0000 C   0  0  0  0  0  0  0  0  0  0  0  0
   -0.5600    4.7816    0.0000 C   0  0  0  0  0  0  0  0  0  0  0  0
   -1.2288    5.9352    0.0000 C   0  0  0  0  0  0  0  0  0  0  0  0
   -3.3563    2.9801    0.0000 O   0  0  0  0  0  0  0  0  0  0  0  0
   -4.1713    4.4180    0.0000 O   0  0  0  0  0  0  0  0  0  0  0  0
   -4.5016    2.4702    0.0000 C   0  0  0  0  0  0  0  0  0  0  0  0
   -5.2205    2.0773    0.0000 C   0  0  0  0  0  0  0  0  0  0  0  0
   -5.9268    2.5036    0.0000 C   0  0  0  0  0  0  0  0  0  0  0  0
   -0.0083    5.3960    0.0000 C   0  0  0  0  0  0  0  0  0  0  0  0
   -0.4221    6.1108    0.0000 C   0  0  0  0  0  0  0  0  0  0  0  0
   -0.3887    3.9749    0.0000 O   0  0  0  0  0  0  0  0  0  0  0  0
   -1.8475    6.4911    0.0000 O   0  0  0  0  0  0  0  0  0  0  0  0
   -5.1870    3.7241    0.0000 C   0  0  0  0  0  0  0  0  0  0  0  0
   -5.9102    3.3312    0.0000 C   0  0  0  0  0  0  0  0  0  0  0  0
   -6.6374    2.1024    0.0000 O   0  0  0  0  0  0  0  0  0  0  0  0
   -5.2372    1.2622    0.0000 C   0  0  0  0  0  0  0  0  0  0  0  0
   -7.3522    2.5287    0.0000 C   0  0  0  0  0  0  0  0  0  0  0  0
  2  1  1  0  0  0  0
  3  4  1  0  0  0  0
  4  6  1  0  0  0  0
  5  2  1  0  0  0  0
  6  2  1  0  0  0  0
  7  1  1  0  0  0  0
  8  3  1  0  0  0  0
  9  3  1  0  0  0  0
 10  1  2  0  0  0  0
 11  1  2  0  0  0  0
 12  7  1  0  0  0  0
 13 12  2  0  0  0  0
 14 20  2  0  0  0  0
 15  8  1  0  0  0  0
 16  9  1  0  0  0  0
 17  8  2  0  0  0  0
 18  9  2  0  0  0  0
 19  7  2  0  0  0  0
 20 19  1  0  0  0  0
 21 14  1  0  0  0  0
 22 13  1  0  0  0  0
 23 21  1  0  0  0  0
  4  5  1  0  0  0  0
 13 14  1  0  0  0  0
 16 15  1  0  0  0  0
M  END
>  <IDNUMBER>
F6473-3924

>  <Chemical_Name>
1-[1-(4-methoxy-3-methylbenzenesulfonyl)azetidin-3-yl]pyrrolidine-2,5-dione

>  <PriceCoeff>
1.00

>  <CAS>
1795191-47-7

>  <MW>
338.38

>  <Description>
solid

>  <FSP3>
0.47

>  <clogP>
1.43

>  <TPSA>
92.37

>  <Acceptor>
5

>  <Donor>
0

>  <RotBonds>
4

>  <HAC>
23

>  <Collection>
General

>  <PPDS>
+

$$$$
F6473-3933
  Mrv2219 10102508112D          

 24 27  0  0  0  0            999 V2000
   -3.7548    3.7047    0.0000 S   0  0  0  0  0  0  0  0  0  0  0  0
   -3.0406    4.1141    0.0000 N   0  0  0  0  0  0  0  0  0  0  0  0
   -1.3114    5.1165    0.0000 N   0  0  0  0  0  0  0  0  0  0  0  0
   -2.0382    4.6988    0.0000 C   0  0  0  0  0  0  0  0  0  0  0  0
   -4.4649    3.2912    0.0000 C   0  0  0  0  0  0  0  0  0  0  0  0
   -2.8276    4.9118    0.0000 C   0  0  0  0  0  0  0  0  0  0  0  0
   -2.2512    3.9052    0.0000 C   0  0  0  0  0  0  0  0  0  0  0  0
   -0.5596    4.7782    0.0000 C   0  0  0  0  0  0  0  0  0  0  0  0
   -1.2279    5.9309    0.0000 C   0  0  0  0  0  0  0  0  0  0  0  0
   -5.1958    3.6922    0.0000 C   0  0  0  0  0  0  0  0  0  0  0  0
   -3.3413    3.0030    0.0000 O   0  0  0  0  0  0  0  0  0  0  0  0
   -4.1725    4.4148    0.0000 O   0  0  0  0  0  0  0  0  0  0  0  0
   -0.0083    5.3921    0.0000 C   0  0  0  0  0  0  0  0  0  0  0  0
   -0.4218    6.1064    0.0000 C   0  0  0  0  0  0  0  0  0  0  0  0
   -0.3884    3.9720    0.0000 O   0  0  0  0  0  0  0  0  0  0  0  0
   -1.8461    6.4864    0.0000 O   0  0  0  0  0  0  0  0  0  0  0  0
   -5.9059    3.2746    0.0000 C   0  0  0  0  0  0  0  0  0  0  0  0
   -4.4565    2.4642    0.0000 C   0  0  0  0  0  0  0  0  0  0  0  0
   -5.2000    4.5025    0.0000 C   0  0  0  0  0  0  0  0  0  0  0  0
   -5.1666    2.0382    0.0000 C   0  0  0  0  0  0  0  0  0  0  0  0
   -5.8891    2.4392    0.0000 C   0  0  0  0  0  0  0  0  0  0  0  0
   -6.6076    3.6755    0.0000 C   0  0  0  0  0  0  0  0  0  0  0  0
   -5.9225    4.9035    0.0000 C   0  0  0  0  0  0  0  0  0  0  0  0
   -6.6201    4.4900    0.0000 C   0  0  0  0  0  0  0  0  0  0  0  0
  2  1  1  0  0  0  0
  3  4  1  0  0  0  0
  4  7  1  0  0  0  0
  5  1  1  0  0  0  0
  6  2  1  0  0  0  0
  7  2  1  0  0  0  0
  8  3  1  0  0  0  0
  9  3  1  0  0  0  0
 10  5  2  0  0  0  0
 11  1  2  0  0  0  0
 12  1  2  0  0  0  0
 13  8  1  0  0  0  0
 14  9  1  0  0  0  0
 15  8  2  0  0  0  0
 16  9  2  0  0  0  0
 17 10  1  0  0  0  0
 18  5  1  0  0  0  0
 19 10  1  0  0  0  0
 20 18  2  0  0  0  0
 21 20  1  0  0  0  0
 22 17  1  0  0  0  0
 23 19  2  0  0  0  0
 24 23  1  0  0  0  0
  6  4  1  0  0  0  0
 17 21  2  0  0  0  0
 24 22  2  0  0  0  0
 14 13  1  0  0  0  0
M  END
>  <IDNUMBER>
F6473-3933

>  <Chemical_Name>
1-[1-(naphthalene-1-sulfonyl)azetidin-3-yl]pyrrolidine-2,5-dione

>  <PriceCoeff>
1.00

>  <CAS>
1795422-65-9

>  <MW>
344.38

>  <Description>
solid

>  <FSP3>
0.29

>  <clogP>
1.94

>  <TPSA>
83.14

>  <Acceptor>
4

>  <Donor>
0

>  <RotBonds>
3

>  <HAC>
24

>  <Collection>
General

>  <PPDS>
+

$$$$
F6473-3934
  Mrv2219 10102508112D          

 22 24  0  0  0  0            999 V2000
   -3.7540    3.7039    0.0000 S   0  0  0  0  0  0  0  0  0  0  0  0
   -3.0399    4.1132    0.0000 N   0  0  0  0  0  0  0  0  0  0  0  0
   -1.3112    5.1154    0.0000 N   0  0  0  0  0  0  0  0  0  0  0  0
   -2.0377    4.6978    0.0000 C   0  0  0  0  0  0  0  0  0  0  0  0
   -4.4681    3.2905    0.0000 C   0  0  0  0  0  0  0  0  0  0  0  0
   -2.8270    4.9107    0.0000 C   0  0  0  0  0  0  0  0  0  0  0  0
   -2.2507    3.9043    0.0000 C   0  0  0  0  0  0  0  0  0  0  0  0
   -0.5595    4.7771    0.0000 C   0  0  0  0  0  0  0  0  0  0  0  0
   -1.2277    5.9296    0.0000 C   0  0  0  0  0  0  0  0  0  0  0  0
   -4.4681    2.4637    0.0000 C   0  0  0  0  0  0  0  0  0  0  0  0
   -3.3406    3.0024    0.0000 O   0  0  0  0  0  0  0  0  0  0  0  0
   -4.1716    4.4138    0.0000 O   0  0  0  0  0  0  0  0  0  0  0  0
   -5.1863    2.0503    0.0000 C   0  0  0  0  0  0  0  0  0  0  0  0
   -5.8962    2.4637    0.0000 C   0  0  0  0  0  0  0  0  0  0  0  0
   -0.0083    5.3910    0.0000 C   0  0  0  0  0  0  0  0  0  0  0  0
   -0.4217    6.1050    0.0000 C   0  0  0  0  0  0  0  0  0  0  0  0
   -0.3883    3.9712    0.0000 O   0  0  0  0  0  0  0  0  0  0  0  0
   -1.8457    6.4850    0.0000 O   0  0  0  0  0  0  0  0  0  0  0  0
   -5.1863    3.7039    0.0000 C   0  0  0  0  0  0  0  0  0  0  0  0
   -5.8962    3.2822    0.0000 C   0  0  0  0  0  0  0  0  0  0  0  0
   -5.1863    1.2235    0.0000 Cl  0  0  0  0  0  0  0  0  0  0  0  0
   -6.6061    2.0545    0.0000 F   0  0  0  0  0  0  0  0  0  0  0  0
  2  1  1  0  0  0  0
  3  4  1  0  0  0  0
  4  7  1  0  0  0  0
  5  1  1  0  0  0  0
  6  2  1  0  0  0  0
  7  2  1  0  0  0  0
  8  3  1  0  0  0  0
  9  3  1  0  0  0  0
 10  5  1  0  0  0  0
 11  1  2  0  0  0  0
 12  1  2  0  0  0  0
 13 10  2  0  0  0  0
 14 20  2  0  0  0  0
 15  8  1  0  0  0  0
 16  9  1  0  0  0  0
 17  8  2  0  0  0  0
 18  9  2  0  0  0  0
 19  5  2  0  0  0  0
 20 19  1  0  0  0  0
 21 13  1  0  0  0  0
 22 14  1  0  0  0  0
  6  4  1  0  0  0  0
 14 13  1  0  0  0  0
 16 15  1  0  0  0  0
M  END
>  <IDNUMBER>
F6473-3934

>  <Chemical_Name>
1-[1-(3-chloro-4-fluorobenzenesulfonyl)azetidin-3-yl]pyrrolidine-2,5-dione

>  <PriceCoeff>
1.00

>  <CAS>
1795300-61-6

>  <MW>
346.76

>  <Description>
solid

>  <FSP3>
0.38

>  <clogP>
1.62

>  <TPSA>
83.14

>  <Acceptor>
4

>  <Donor>
0

>  <RotBonds>
3

>  <HAC>
22

>  <Collection>
General

>  <PPDS>
+

$$$$
F6473-3944
  Mrv2219 10102508112D          

 23 25  0  0  0  0            999 V2000
   -3.7540    3.7039    0.0000 S   0  0  0  0  0  0  0  0  0  0  0  0
   -3.0399    4.1132    0.0000 N   0  0  0  0  0  0  0  0  0  0  0  0
   -1.3112    5.1154    0.0000 N   0  0  0  0  0  0  0  0  0  0  0  0
   -2.0377    4.6978    0.0000 C   0  0  0  0  0  0  0  0  0  0  0  0
   -4.4765    3.3030    0.0000 C   0  0  0  0  0  0  0  0  0  0  0  0
   -2.8270    4.9107    0.0000 C   0  0  0  0  0  0  0  0  0  0  0  0
   -2.2507    3.9043    0.0000 C   0  0  0  0  0  0  0  0  0  0  0  0
   -0.5595    4.7771    0.0000 C   0  0  0  0  0  0  0  0  0  0  0  0
   -1.2277    5.9296    0.0000 C   0  0  0  0  0  0  0  0  0  0  0  0
   -4.4806    2.4637    0.0000 C   0  0  0  0  0  0  0  0  0  0  0  0
   -3.3406    2.9898    0.0000 O   0  0  0  0  0  0  0  0  0  0  0  0
   -4.1633    4.4138    0.0000 O   0  0  0  0  0  0  0  0  0  0  0  0
   -5.1946    2.0628    0.0000 C   0  0  0  0  0  0  0  0  0  0  0  0
   -5.9087    2.4804    0.0000 C   0  0  0  0  0  0  0  0  0  0  0  0
   -0.0083    5.3910    0.0000 C   0  0  0  0  0  0  0  0  0  0  0  0
   -0.4217    6.1050    0.0000 C   0  0  0  0  0  0  0  0  0  0  0  0
   -0.3883    3.9712    0.0000 O   0  0  0  0  0  0  0  0  0  0  0  0
   -1.8457    6.4850    0.0000 O   0  0  0  0  0  0  0  0  0  0  0  0
   -5.1821    3.7206    0.0000 C   0  0  0  0  0  0  0  0  0  0  0  0
   -5.8962    3.3072    0.0000 C   0  0  0  0  0  0  0  0  0  0  0  0
   -5.2072    1.2360    0.0000 Cl  0  0  0  0  0  0  0  0  0  0  0  0
   -6.6187    2.0837    0.0000 O   0  0  0  0  0  0  0  0  0  0  0  0
   -7.3327    2.5013    0.0000 C   0  0  0  0  0  0  0  0  0  0  0  0
  2  1  1  0  0  0  0
  3  4  1  0  0  0  0
  4  7  1  0  0  0  0
  5  1  1  0  0  0  0
  6  2  1  0  0  0  0
  7  2  1  0  0  0  0
  8  3  1  0  0  0  0
  9  3  1  0  0  0  0
 10  5  1  0  0  0  0
 11  1  2  0  0  0  0
 12  1  2  0  0  0  0
 13 10  2  0  0  0  0
 14 20  2  0  0  0  0
 15  8  1  0  0  0  0
 16  9  1  0  0  0  0
 17  8  2  0  0  0  0
 18  9  2  0  0  0  0
 19  5  2  0  0  0  0
 20 19  1  0  0  0  0
 21 13  1  0  0  0  0
 22 14  1  0  0  0  0
 23 22  1  0  0  0  0
  6  4  1  0  0  0  0
 14 13  1  0  0  0  0
 16 15  1  0  0  0  0
M  END
>  <IDNUMBER>
F6473-3944

>  <Chemical_Name>
1-[1-(3-chloro-4-methoxybenzenesulfonyl)azetidin-3-yl]pyrrolidine-2,5-dione

>  <PriceCoeff>
1.00

>  <CAS>
1795471-65-6

>  <MW>
358.80

>  <Description>
solid

>  <FSP3>
0.43

>  <clogP>
1.47

>  <TPSA>
92.37

>  <Acceptor>
5

>  <Donor>
0

>  <RotBonds>
4

>  <HAC>
23

>  <Collection>
General

>  <PPDS>
+

$$$$
F6473-3950
  Mrv2219 10102508112D          

 23 25  0  0  0  0            999 V2000
   -3.7650    3.7147    0.0000 S   0  0  0  0  0  0  0  0  0  0  0  0
   -3.0488    4.1252    0.0000 N   0  0  0  0  0  0  0  0  0  0  0  0
   -4.4811    3.3001    0.0000 C   0  0  0  0  0  0  0  0  0  0  0  0
   -1.3150    5.1303    0.0000 N   0  0  0  0  0  0  0  0  0  0  0  0
   -2.0437    4.7115    0.0000 C   0  0  0  0  0  0  0  0  0  0  0  0
   -2.8352    4.9251    0.0000 C   0  0  0  0  0  0  0  0  0  0  0  0
   -2.2573    3.9157    0.0000 C   0  0  0  0  0  0  0  0  0  0  0  0
   -0.5612    4.7911    0.0000 C   0  0  0  0  0  0  0  0  0  0  0  0
   -1.2313    5.9470    0.0000 C   0  0  0  0  0  0  0  0  0  0  0  0
   -4.4811    2.4751    0.0000 C   0  0  0  0  0  0  0  0  0  0  0  0
   -5.1973    3.7064    0.0000 C   0  0  0  0  0  0  0  0  0  0  0  0
   -5.1847    2.0605    0.0000 C   0  0  0  0  0  0  0  0  0  0  0  0
   -3.3504    3.0028    0.0000 O   0  0  0  0  0  0  0  0  0  0  0  0
   -4.1796    4.4267    0.0000 O   0  0  0  0  0  0  0  0  0  0  0  0
   -5.9008    2.4709    0.0000 C   0  0  0  0  0  0  0  0  0  0  0  0
   -5.9051    3.2918    0.0000 C   0  0  0  0  0  0  0  0  0  0  0  0
   -0.0083    5.4067    0.0000 C   0  0  0  0  0  0  0  0  0  0  0  0
   -0.4230    6.1229    0.0000 C   0  0  0  0  0  0  0  0  0  0  0  0
   -0.3895    3.9828    0.0000 O   0  0  0  0  0  0  0  0  0  0  0  0
   -1.8511    6.5039    0.0000 O   0  0  0  0  0  0  0  0  0  0  0  0
   -3.7524    2.0688    0.0000 Cl  0  0  0  0  0  0  0  0  0  0  0  0
   -6.6129    2.0354    0.0000 Cl  0  0  0  0  0  0  0  0  0  0  0  0
   -6.6254    3.7021    0.0000 C   0  0  0  0  0  0  0  0  0  0  0  0
  2  1  1  0  0  0  0
  3  1  1  0  0  0  0
  4  5  1  0  0  0  0
  5  7  1  0  0  0  0
  6  2  1  0  0  0  0
  7  2  1  0  0  0  0
  8  4  1  0  0  0  0
  9  4  1  0  0  0  0
 10  3  1  0  0  0  0
 11  3  2  0  0  0  0
 12 10  2  0  0  0  0
 13  1  2  0  0  0  0
 14  1  2  0  0  0  0
 15 16  2  0  0  0  0
 16 11  1  0  0  0  0
 17  8  1  0  0  0  0
 18  9  1  0  0  0  0
 19  8  2  0  0  0  0
 20  9  2  0  0  0  0
 21 10  1  0  0  0  0
 22 15  1  0  0  0  0
 23 16  1  0  0  0  0
  6  5  1  0  0  0  0
 12 15  1  0  0  0  0
 18 17  1  0  0  0  0
M  END
>  <IDNUMBER>
F6473-3950

>  <Chemical_Name>
1-[1-(2,4-dichloro-5-methylbenzenesulfonyl)azetidin-3-yl]pyrrolidine-2,5-dione

>  <PriceCoeff>
1.00

>  <CAS>
1795303-87-5

>  <MW>
377.24

>  <Description>
solid

>  <FSP3>
0.43

>  <clogP>
2.39

>  <TPSA>
83.14

>  <Acceptor>
4

>  <Donor>
0

>  <RotBonds>
3

>  <HAC>
23

>  <Collection>
General

>  <PPDS>
+

$$$$
F6473-3975
  Mrv2219 10102508112D          

 28 31  0  0  0  0            999 V2000
   -3.7670    3.7167    0.0000 S   0  0  0  0  0  0  0  0  0  0  0  0
   -3.0505    4.1274    0.0000 N   0  0  0  0  0  0  0  0  0  0  0  0
   -1.3157    5.1331    0.0000 N   0  0  0  0  0  0  0  0  0  0  0  0
   -2.0448    4.7140    0.0000 C   0  0  0  0  0  0  0  0  0  0  0  0
   -2.2585    3.9179    0.0000 C   0  0  0  0  0  0  0  0  0  0  0  0
   -2.8368    4.9277    0.0000 C   0  0  0  0  0  0  0  0  0  0  0  0
   -1.2319    5.9502    0.0000 C   0  0  0  0  0  0  0  0  0  0  0  0
   -0.5615    4.7937    0.0000 C   0  0  0  0  0  0  0  0  0  0  0  0
   -4.4920    3.3270    0.0000 C   0  0  0  0  0  0  0  0  0  0  0  0
   -4.1693    4.4291    0.0000 O   0  0  0  0  0  0  0  0  0  0  0  0
   -3.3438    3.0002    0.0000 O   0  0  0  0  0  0  0  0  0  0  0  0
   -6.6667    2.1328    0.0000 C   0  0  0  0  0  0  0  0  0  0  0  0
   -8.0956    2.1580    0.0000 C   0  0  0  0  0  0  0  0  0  0  0  0
   -7.3707    2.5519    0.0000 C   0  0  0  0  0  0  0  0  0  0  0  0
   -5.9418    2.5225    0.0000 C   0  0  0  0  0  0  0  0  0  0  0  0
   -8.1124    1.3157    0.0000 C   0  0  0  0  0  0  0  0  0  0  0  0
   -0.0083    5.4097    0.0000 C   0  0  0  0  0  0  0  0  0  0  0  0
   -0.4232    6.1262    0.0000 C   0  0  0  0  0  0  0  0  0  0  0  0
   -0.3897    3.9849    0.0000 O   0  0  0  0  0  0  0  0  0  0  0  0
   -1.8521    6.5074    0.0000 O   0  0  0  0  0  0  0  0  0  0  0  0
   -6.6877    1.2822    0.0000 C   0  0  0  0  0  0  0  0  0  0  0  0
   -4.5087    2.4848    0.0000 C   0  0  0  0  0  0  0  0  0  0  0  0
   -5.2127    3.7544    0.0000 C   0  0  0  0  0  0  0  0  0  0  0  0
   -7.4084    0.8883    0.0000 C   0  0  0  0  0  0  0  0  0  0  0  0
   -5.2378    2.0993    0.0000 C   0  0  0  0  0  0  0  0  0  0  0  0
   -5.9292    3.3481    0.0000 C   0  0  0  0  0  0  0  0  0  0  0  0
   -8.7870    2.5854    0.0000 Cl  0  0  0  0  0  0  0  0  0  0  0  0
   -8.8330    0.9260    0.0000 Cl  0  0  0  0  0  0  0  0  0  0  0  0
  2  1  1  0  0  0  0
  3  4  1  0  0  0  0
  4  6  1  0  0  0  0
  5  2  1  0  0  0  0
  6  2  1  0  0  0  0
  7  3  1  0  0  0  0
  8  3  1  0  0  0  0
  9  1  1  0  0  0  0
 10  1  2  0  0  0  0
 11  1  2  0  0  0  0
 12 15  1  0  0  0  0
 13 14  1  0  0  0  0
 14 12  2  0  0  0  0
 15 26  1  0  0  0  0
 16 24  1  0  0  0  0
 17  8  1  0  0  0  0
 18  7  1  0  0  0  0
 19  8  2  0  0  0  0
 20  7  2  0  0  0  0
 21 12  1  0  0  0  0
 22  9  2  0  0  0  0
 23  9  1  0  0  0  0
 24 21  2  0  0  0  0
 25 22  1  0  0  0  0
 26 23  2  0  0  0  0
 27 13  1  0  0  0  0
 28 16  1  0  0  0  0
  4  5  1  0  0  0  0
 15 25  2  0  0  0  0
 18 17  1  0  0  0  0
 13 16  2  0  0  0  0
M  END
>  <IDNUMBER>
F6473-3975

>  <Chemical_Name>
1-[1-({3',4'-dichloro-[1,1'-biphenyl]-4-yl}sulfonyl)azetidin-3-yl]pyrrolidine-2,5-dione

>  <PriceCoeff>
1.00

>  <CAS>
1798511-65-5

>  <MW>
439.31

>  <Description>
solid

>  <FSP3>
0.26

>  <clogP>
3.96

>  <TPSA>
83.14

>  <Acceptor>
4

>  <Donor>
0

>  <RotBonds>
4

>  <HAC>
28

>  <Collection>
General

>  <PPDS>
+

$$$$
F6473-3989
  Mrv2219 10102508112D          

 24 27  0  0  0  0            999 V2000
   -3.7548    3.7047    0.0000 S   0  0  0  0  0  0  0  0  0  0  0  0
   -3.0406    4.1141    0.0000 N   0  0  0  0  0  0  0  0  0  0  0  0
   -4.4774    3.3037    0.0000 C   0  0  0  0  0  0  0  0  0  0  0  0
   -1.3114    5.1165    0.0000 N   0  0  0  0  0  0  0  0  0  0  0  0
   -2.0382    4.6988    0.0000 C   0  0  0  0  0  0  0  0  0  0  0  0
   -2.8276    4.9118    0.0000 C   0  0  0  0  0  0  0  0  0  0  0  0
   -2.2512    3.9052    0.0000 C   0  0  0  0  0  0  0  0  0  0  0  0
   -0.5596    4.7782    0.0000 C   0  0  0  0  0  0  0  0  0  0  0  0
   -1.2279    5.9309    0.0000 C   0  0  0  0  0  0  0  0  0  0  0  0
   -5.1874    3.7172    0.0000 C   0  0  0  0  0  0  0  0  0  0  0  0
   -3.3413    2.9905    0.0000 O   0  0  0  0  0  0  0  0  0  0  0  0
   -4.1683    4.4148    0.0000 O   0  0  0  0  0  0  0  0  0  0  0  0
   -5.1832    4.5359    0.0000 N   0  0  0  0  0  0  0  0  0  0  0  0
   -0.4218    6.1064    0.0000 C   0  0  0  0  0  0  0  0  0  0  0  0
   -0.0083    5.3921    0.0000 C   0  0  0  0  0  0  0  0  0  0  0  0
   -1.8461    6.4864    0.0000 O   0  0  0  0  0  0  0  0  0  0  0  0
   -0.3884    3.9720    0.0000 O   0  0  0  0  0  0  0  0  0  0  0  0
   -5.9100    3.3037    0.0000 C   0  0  0  0  0  0  0  0  0  0  0  0
   -4.4774    2.4767    0.0000 C   0  0  0  0  0  0  0  0  0  0  0  0
   -5.1958    2.0633    0.0000 C   0  0  0  0  0  0  0  0  0  0  0  0
   -5.8975    4.9536    0.0000 C   0  0  0  0  0  0  0  0  0  0  0  0
   -5.9100    2.4810    0.0000 C   0  0  0  0  0  0  0  0  0  0  0  0
   -6.6076    3.7172    0.0000 C   0  0  0  0  0  0  0  0  0  0  0  0
   -6.6117    4.5359    0.0000 C   0  0  0  0  0  0  0  0  0  0  0  0
  2  1  1  0  0  0  0
  3  1  1  0  0  0  0
  4  5  1  0  0  0  0
  5  7  1  0  0  0  0
  6  2  1  0  0  0  0
  7  2  1  0  0  0  0
  8  4  1  0  0  0  0
  9  4  1  0  0  0  0
 10  3  2  0  0  0  0
 11  1  2  0  0  0  0
 12  1  2  0  0  0  0
 13 10  1  0  0  0  0
 14  9  1  0  0  0  0
 15  8  1  0  0  0  0
 16  9  2  0  0  0  0
 17  8  2  0  0  0  0
 18 10  1  0  0  0  0
 19  3  1  0  0  0  0
 20 19  2  0  0  0  0
 21 13  2  0  0  0  0
 22 20  1  0  0  0  0
 23 18  1  0  0  0  0
 24 23  2  0  0  0  0
  6  5  1  0  0  0  0
 22 18  2  0  0  0  0
 24 21  1  0  0  0  0
 14 15  1  0  0  0  0
M  END
>  <IDNUMBER>
F6473-3989

>  <Chemical_Name>
1-[1-(quinoline-8-sulfonyl)azetidin-3-yl]pyrrolidine-2,5-dione

>  <PriceCoeff>
1.00

>  <CAS>
1795191-56-8

>  <MW>
345.37

>  <Description>
solid

>  <FSP3>
0.31

>  <clogP>
0.77

>  <TPSA>
96.03

>  <Acceptor>
5

>  <Donor>
1

>  <RotBonds>
3

>  <HAC>
24

>  <Collection>
General

>  <PPDS>
+

$$$$
F6473-6040
  Mrv2219 10102508112D          

 23 25  0  0  0  0            999 V2000
   -4.4811    2.4834    0.0000 N   0  0  0  0  0  0  0  0  0  0  0  0
   -3.0488    4.1251    0.0000 N   0  0  0  0  0  0  0  0  0  0  0  0
   -3.7649    3.7147    0.0000 C   0  0  0  0  0  0  0  0  0  0  0  0
   -1.3192    5.9469    0.0000 C   0  0  0  0  0  0  0  0  0  0  0  0
   -0.6031    6.3573    0.0000 C   0  0  0  0  0  0  0  0  0  0  0  0
   -3.7691    2.8897    0.0000 C   0  0  0  0  0  0  0  0  0  0  0  0
   -4.5690    1.6542    0.0000 C   0  0  0  0  0  0  0  0  0  0  0  0
   -5.2223    2.8101    0.0000 C   0  0  0  0  0  0  0  0  0  0  0  0
   -0.5988    7.1781    0.0000 C   0  0  0  0  0  0  0  0  0  0  0  0
   -2.0353    6.3573    0.0000 C   0  0  0  0  0  0  0  0  0  0  0  0
   -1.3150    7.5928    0.0000 O   0  0  0  0  0  0  0  0  0  0  0  0
   -2.0311    7.1781    0.0000 C   0  0  0  0  0  0  0  0  0  0  0  0
   -2.0311    4.7114    0.0000 C   0  0  0  0  0  0  0  0  0  0  0  0
   -2.8352    4.9250    0.0000 C   0  0  0  0  0  0  0  0  0  0  0  0
   -2.2447    3.9157    0.0000 C   0  0  0  0  0  0  0  0  0  0  0  0
   -1.3150    5.1177    0.0000 O   0  0  0  0  0  0  0  0  0  0  0  0
   -4.4895    4.1251    0.0000 O   0  0  0  0  0  0  0  0  0  0  0  0
   -5.3690    1.4825    0.0000 C   0  0  0  0  0  0  0  0  0  0  0  0
   -5.7751    2.1987    0.0000 C   0  0  0  0  0  0  0  0  0  0  0  0
   -3.9450    1.0888    0.0000 O   0  0  0  0  0  0  0  0  0  0  0  0
   -5.3982    3.6267    0.0000 O   0  0  0  0  0  0  0  0  0  0  0  0
    0.1173    7.5928    0.0000 O   0  0  0  0  0  0  0  0  0  0  0  0
   -2.7473    7.6053    0.0000 C   0  0  0  0  0  0  0  0  0  0  0  0
  2  3  1  0  0  0  0
  3  6  1  0  0  0  0
  4 16  1  0  0  0  0
  5  4  2  0  0  0  0
  6  1  1  0  0  0  0
  7  1  1  0  0  0  0
  8  1  1  0  0  0  0
  9  5  1  0  0  0  0
 10  4  1  0  0  0  0
 11 12  1  0  0  0  0
 12 10  2  0  0  0  0
 13 15  1  0  0  0  0
 14  2  1  0  0  0  0
 15  2  1  0  0  0  0
 16 13  1  0  0  0  0
 17  3  2  0  0  0  0
 18  7  1  0  0  0  0
 19  8  1  0  0  0  0
 20  7  2  0  0  0  0
 21  8  2  0  0  0  0
 22  9  2  0  0  0  0
 23 12  1  0  0  0  0
 18 19  1  0  0  0  0
 14 13  1  0  0  0  0
 11  9  1  0  0  0  0
M  END
>  <IDNUMBER>
F6473-6040

>  <Chemical_Name>
1-(2-{3-[(6-methyl-2-oxo-2H-pyran-4-yl)oxy]azetidin-1-yl}-2-oxoethyl)pyrrolidine-2,5-dione

>  <PriceCoeff>
1.00

>  <CAS>
1788680-14-7

>  <MW>
320.30

>  <Description>
solid

>  <FSP3>
0.47

>  <clogP>
0.59

>  <TPSA>
93.22

>  <Acceptor>
6

>  <Donor>
0

>  <RotBonds>
5

>  <HAC>
23

>  <Collection>
General

>  <PPDS>
+

$$$$
F6473-8345
  Mrv2219 10102508112D          

 26 28  0  0  0  0            999 V2000
   -3.7626    3.7125    0.0000 C   0  0  0  0  0  0  0  0  0  0  0  0
   -0.9124    6.1945    0.0000 C   0  0  0  0  0  0  0  0  0  0  0  0
   -0.1967    6.6046    0.0000 C   0  0  0  0  0  0  0  0  0  0  0  0
   -3.0470    4.1227    0.0000 N   0  0  0  0  0  0  0  0  0  0  0  0
   -0.1967    7.4250    0.0000 C   0  0  0  0  0  0  0  0  0  0  0  0
   -1.6323    6.5921    0.0000 C   0  0  0  0  0  0  0  0  0  0  0  0
   -0.9124    7.8394    0.0000 O   0  0  0  0  0  0  0  0  0  0  0  0
   -4.4784    4.1227    0.0000 N   0  0  0  0  0  0  0  0  0  0  0  0
   -1.6323    7.4250    0.0000 C   0  0  0  0  0  0  0  0  0  0  0  0
   -6.6214    3.7250    0.0000 C   0  0  0  0  0  0  0  0  0  0  0  0
   -5.9182    4.1268    0.0000 C   0  0  0  0  0  0  0  0  0  0  0  0
   -5.1941    3.7209    0.0000 C   0  0  0  0  0  0  0  0  0  0  0  0
   -3.7626    2.8963    0.0000 O   0  0  0  0  0  0  0  0  0  0  0  0
   -0.8998    5.3657    0.0000 O   0  0  0  0  0  0  0  0  0  0  0  0
   -3.0470    4.9514    0.0000 C   0  0  0  0  0  0  0  0  0  0  0  0
   -2.3312    3.7125    0.0000 C   0  0  0  0  0  0  0  0  0  0  0  0
   -6.6214    2.8963    0.0000 C   0  0  0  0  0  0  0  0  0  0  0  0
    0.5191    7.8477    0.0000 O   0  0  0  0  0  0  0  0  0  0  0  0
   -1.6155    4.1227    0.0000 C   0  0  0  0  0  0  0  0  0  0  0  0
   -2.3354    5.3615    0.0000 C   0  0  0  0  0  0  0  0  0  0  0  0
   -5.9223    2.4736    0.0000 C   0  0  0  0  0  0  0  0  0  0  0  0
   -1.6198    4.9514    0.0000 C   0  0  0  0  0  0  0  0  0  0  0  0
   -7.3371    4.1352    0.0000 Cl  0  0  0  0  0  0  0  0  0  0  0  0
   -5.1941    2.8879    0.0000 C   0  0  0  0  0  0  0  0  0  0  0  0
   -7.3496    2.4819    0.0000 Cl  0  0  0  0  0  0  0  0  0  0  0  0
   -2.3563    7.8394    0.0000 C   0  0  0  0  0  0  0  0  0  0  0  0
  2 14  1  0  0  0  0
  3  2  2  0  0  0  0
  4  1  1  0  0  0  0
  5  3  1  0  0  0  0
  6  2  1  0  0  0  0
  7  9  1  0  0  0  0
  8  1  1  0  0  0  0
  9  6  2  0  0  0  0
 10 11  1  0  0  0  0
 11 12  2  0  0  0  0
 12  8  1  0  0  0  0
 13  1  2  0  0  0  0
 14 22  1  0  0  0  0
 15  4  1  0  0  0  0
 16  4  1  0  0  0  0
 17 21  1  0  0  0  0
 18  5  2  0  0  0  0
 19 16  1  0  0  0  0
 20 15  1  0  0  0  0
 21 24  2  0  0  0  0
 22 19  1  0  0  0  0
 23 10  1  0  0  0  0
 24 12  1  0  0  0  0
 25 17  1  0  0  0  0
 26  9  1  0  0  0  0
 20 22  1  0  0  0  0
 10 17  2  0  0  0  0
  7  5  1  0  0  0  0
M  END
>  <IDNUMBER>
F6473-8345

>  <Chemical_Name>
N-(3,4-dichlorophenyl)-4-[(6-methyl-2-oxo-2H-pyran-4-yl)oxy]piperidine-1-carboxamide

>  <PriceCoeff>
1.50

>  <CAS>
1798513-22-0

>  <MW>
397.25

>  <Description>
solid

>  <FSP3>
0.33

>  <clogP>
3.24

>  <TPSA>
67.87

>  <Acceptor>
4

>  <Donor>
1

>  <RotBonds>
4

>  <HAC>
26

>  <Collection>
Advanced

$$$$
F6477-5317
  Mrv2219 10102508112D          

 24 25  0  0  0  0            999 V2000
    1.6221    0.5326    0.0000 N   0  0  0  0  0  0  0  0  0  0  0  0
    4.0964    0.0309    0.0000 C   0  0  0  0  0  0  0  0  0  0  0  0
    3.2716    0.0309    0.0000 N   0  0  0  0  0  0  0  0  0  0  0  0
    3.0207    0.8248    0.0000 C   0  0  0  0  0  0  0  0  0  0  0  0
    0.8076    0.7079    0.0000 C   0  0  0  0  0  0  0  0  0  0  0  0
    1.7011   -0.2887    0.0000 C   0  0  0  0  0  0  0  0  0  0  0  0
    4.3541    0.8248    0.0000 S   0  0  0  0  0  0  0  0  0  0  0  0
    2.2372    1.0825    0.0000 C   0  0  0  0  0  0  0  0  0  0  0  0
    3.6840    1.3059    0.0000 C   0  0  0  0  0  0  0  0  0  0  0  0
    4.5810   -0.6324    0.0000 N   0  0  0  0  0  0  0  0  0  0  0  0
    6.7116   -1.1272    0.0000 C   0  0  0  0  0  0  0  0  0  0  0  0
    5.8903   -1.2165    0.0000 C   0  0  0  0  0  0  0  0  0  0  0  0
    5.4057   -0.5499    0.0000 C   0  0  0  0  0  0  0  0  0  0  0  0
    7.0450   -0.3711    0.0000 C   0  0  0  0  0  0  0  0  0  0  0  0
    0.9416   -0.6220    0.0000 C   0  0  0  0  0  0  0  0  0  0  0  0
    0.3952   -0.0035    0.0000 C   0  0  0  0  0  0  0  0  0  0  0  0
    2.4159   -0.7045    0.0000 O   0  0  0  0  0  0  0  0  0  0  0  0
    0.4742    1.4605    0.0000 O   0  0  0  0  0  0  0  0  0  0  0  0
    6.5604    0.2955    0.0000 C   0  0  0  0  0  0  0  0  0  0  0  0
    7.1996   -1.7939    0.0000 F   0  0  0  0  0  0  0  0  0  0  0  0
    5.7356    0.2027    0.0000 C   0  0  0  0  0  0  0  0  0  0  0  0
    7.8663   -0.2784    0.0000 O   0  0  0  0  0  0  0  0  0  0  0  0
    8.3543   -0.9416    0.0000 C   0  0  0  0  0  0  0  0  0  0  0  0
    9.4987   -0.1684    0.0000 Cl  0  0  0  0  0  0  0  0  0  0  0  0
  3  4  1  0  0  0  0
  4  8  1  0  0  0  0
  5  1  1  0  0  0  0
  6  1  1  0  0  0  0
  7  9  1  0  0  0  0
  8  1  1  0  0  0  0
  9  4  2  0  0  0  0
 10  2  1  0  0  0  0
 11 12  1  0  0  0  0
 12 13  2  0  0  0  0
 13 10  1  0  0  0  0
 14 19  1  0  0  0  0
 15  6  1  0  0  0  0
 16  5  1  0  0  0  0
 17  6  2  0  0  0  0
 18  5  2  0  0  0  0
 19 21  2  0  0  0  0
 20 11  1  0  0  0  0
 21 13  1  0  0  0  0
 22 14  1  0  0  0  0
 23 22  1  0  0  0  0
 15 16  1  0  0  0  0
  7  2  1  0  0  0  0
 14 11  2  0  0  0  0
  2  3  2  0  0  0  0
M  END
>  <IDNUMBER>
F6477-5317

>  <Chemical_Name>
1-({2-[(3-fluoro-4-methoxyphenyl)amino]-1,3-thiazol-4-yl}methyl)pyrrolidine-2,5-dione hydrochloride

>  <PriceCoeff>
1.50

>  <CAS>
2034619-97-9

>  <MW>
335.35

>  <Description>
solid

>  <FSP3>
0.27

>  <clogP>
1.81

>  <TPSA>
99.77

>  <Acceptor>
5

>  <Donor>
1

>  <RotBonds>
5

>  <HAC>
23

>  <Collection>
Advanced

>  <PPDS>
+

$$$$
F6477-5318
  Mrv2219 10102508112D          

 23 24  0  0  0  0            999 V2000
    1.6224    0.6255    0.0000 N   0  0  0  0  0  0  0  0  0  0  0  0
    4.0972    0.1203    0.0000 C   0  0  0  0  0  0  0  0  0  0  0  0
    3.2723    0.1203    0.0000 N   0  0  0  0  0  0  0  0  0  0  0  0
    3.0213    0.9143    0.0000 C   0  0  0  0  0  0  0  0  0  0  0  0
    0.8078    0.8008    0.0000 C   0  0  0  0  0  0  0  0  0  0  0  0
    1.7014   -0.1994    0.0000 C   0  0  0  0  0  0  0  0  0  0  0  0
    4.3550    0.9143    0.0000 S   0  0  0  0  0  0  0  0  0  0  0  0
    4.5819   -0.5465    0.0000 N   0  0  0  0  0  0  0  0  0  0  0  0
    2.2376    1.1721    0.0000 C   0  0  0  0  0  0  0  0  0  0  0  0
    3.6847    1.3921    0.0000 C   0  0  0  0  0  0  0  0  0  0  0  0
    5.4068   -0.4572    0.0000 C   0  0  0  0  0  0  0  0  0  0  0  0
    5.8914   -1.1274    0.0000 C   0  0  0  0  0  0  0  0  0  0  0  0
    6.7129   -1.0346    0.0000 C   0  0  0  0  0  0  0  0  0  0  0  0
    0.9418   -0.5294    0.0000 C   0  0  0  0  0  0  0  0  0  0  0  0
    0.3953    0.0893    0.0000 C   0  0  0  0  0  0  0  0  0  0  0  0
    2.4164   -0.6119    0.0000 O   0  0  0  0  0  0  0  0  0  0  0  0
    0.4743    1.5536    0.0000 O   0  0  0  0  0  0  0  0  0  0  0  0
    5.7368    0.2956    0.0000 C   0  0  0  0  0  0  0  0  0  0  0  0
    7.0464   -0.2819    0.0000 C   0  0  0  0  0  0  0  0  0  0  0  0
    5.5615   -1.8802    0.0000 F   0  0  0  0  0  0  0  0  0  0  0  0
    6.5617    0.3781    0.0000 C   0  0  0  0  0  0  0  0  0  0  0  0
    7.8678   -0.1891    0.0000 F   0  0  0  0  0  0  0  0  0  0  0  0
    9.0674   -0.1650    0.0000 Cl  0  0  0  0  0  0  0  0  0  0  0  0
  3  4  1  0  0  0  0
  4  9  1  0  0  0  0
  5  1  1  0  0  0  0
  6  1  1  0  0  0  0
  7 10  1  0  0  0  0
  8  2  1  0  0  0  0
  9  1  1  0  0  0  0
 10  4  2  0  0  0  0
 11  8  1  0  0  0  0
 12 11  2  0  0  0  0
 13 12  1  0  0  0  0
 14  6  1  0  0  0  0
 15  5  1  0  0  0  0
 16  6  2  0  0  0  0
 17  5  2  0  0  0  0
 18 11  1  0  0  0  0
 19 21  1  0  0  0  0
 20 12  1  0  0  0  0
 21 18  2  0  0  0  0
 22 19  1  0  0  0  0
 14 15  1  0  0  0  0
  7  2  1  0  0  0  0
 13 19  2  0  0  0  0
  2  3  2  0  0  0  0
M  END
>  <IDNUMBER>
F6477-5318

>  <Chemical_Name>
1-({2-[(2,4-difluorophenyl)amino]-1,3-thiazol-4-yl}methyl)pyrrolidine-2,5-dione hydrochloride

>  <PriceCoeff>
1.50

>  <CAS>
2034325-60-3

>  <MW>
323.32

>  <Description>
solid

>  <FSP3>
0.21

>  <clogP>
2.20

>  <TPSA>
90.54

>  <Acceptor>
4

>  <Donor>
1

>  <RotBonds>
4

>  <HAC>
22

>  <Collection>
Advanced

>  <PPDS>
+

$$$$
F6477-5319
  Mrv2219 10102508112D          

 25 26  0  0  0  0            999 V2000
    1.6220   -1.4570    0.0000 N   0  0  0  0  0  0  0  0  0  0  0  0
    4.3538   -1.1684    0.0000 C   0  0  0  0  0  0  0  0  0  0  0  0
    3.6837   -0.6838    0.0000 N   0  0  0  0  0  0  0  0  0  0  0  0
    3.0205   -1.1684    0.0000 C   0  0  0  0  0  0  0  0  0  0  0  0
    0.8076   -1.2818    0.0000 C   0  0  0  0  0  0  0  0  0  0  0  0
    1.7010   -2.2783    0.0000 C   0  0  0  0  0  0  0  0  0  0  0  0
    4.0961   -1.9587    0.0000 S   0  0  0  0  0  0  0  0  0  0  0  0
    5.1373   -0.9072    0.0000 N   0  0  0  0  0  0  0  0  0  0  0  0
    2.2370   -0.9072    0.0000 C   0  0  0  0  0  0  0  0  0  0  0  0
    3.2714   -1.9587    0.0000 C   0  0  0  0  0  0  0  0  0  0  0  0
    5.3022   -0.0962    0.0000 C   0  0  0  0  0  0  0  0  0  0  0  0
    6.0925    0.1615    0.0000 C   0  0  0  0  0  0  0  0  0  0  0  0
    6.2575    0.9656    0.0000 C   0  0  0  0  0  0  0  0  0  0  0  0
    0.9416   -2.6116    0.0000 C   0  0  0  0  0  0  0  0  0  0  0  0
    0.3952   -1.9931    0.0000 C   0  0  0  0  0  0  0  0  0  0  0  0
    2.4157   -2.6941    0.0000 O   0  0  0  0  0  0  0  0  0  0  0  0
    0.4742   -0.5292    0.0000 O   0  0  0  0  0  0  0  0  0  0  0  0
    4.6905    0.4501    0.0000 C   0  0  0  0  0  0  0  0  0  0  0  0
    5.6424    1.5119    0.0000 C   0  0  0  0  0  0  0  0  0  0  0  0
    4.8589    1.2577    0.0000 C   0  0  0  0  0  0  0  0  0  0  0  0
    6.7042   -0.3849    0.0000 O   0  0  0  0  0  0  0  0  0  0  0  0
    5.8142    2.3195    0.0000 O   0  0  0  0  0  0  0  0  0  0  0  0
    6.5393   -1.1958    0.0000 C   0  0  0  0  0  0  0  0  0  0  0  0
    6.5977    2.5738    0.0000 C   0  0  0  0  0  0  0  0  0  0  0  0
    7.9551   -0.1066    0.0000 Cl  0  0  0  0  0  0  0  0  0  0  0  0
  3  4  1  0  0  0  0
  4  9  1  0  0  0  0
  5  1  1  0  0  0  0
  6  1  1  0  0  0  0
  7 10  1  0  0  0  0
  8  2  1  0  0  0  0
  9  1  1  0  0  0  0
 10  4  2  0  0  0  0
 11  8  1  0  0  0  0
 12 11  2  0  0  0  0
 13 12  1  0  0  0  0
 14  6  1  0  0  0  0
 15  5  1  0  0  0  0
 16  6  2  0  0  0  0
 17  5  2  0  0  0  0
 18 11  1  0  0  0  0
 19 20  1  0  0  0  0
 20 18  2  0  0  0  0
 21 12  1  0  0  0  0
 22 19  1  0  0  0  0
 23 21  1  0  0  0  0
 24 22  1  0  0  0  0
 14 15  1  0  0  0  0
  2  7  1  0  0  0  0
 19 13  2  0  0  0  0
  2  3  2  0  0  0  0
M  END
>  <IDNUMBER>
F6477-5319

>  <Chemical_Name>
1-({2-[(2,4-dimethoxyphenyl)amino]-1,3-thiazol-4-yl}methyl)pyrrolidine-2,5-dione hydrochloride

>  <PriceCoeff>
1.50

>  <CAS>
2034556-57-3

>  <MW>
347.39

>  <Description>
oil

>  <FSP3>
0.31

>  <clogP>
1.76

>  <TPSA>
109.00

>  <Acceptor>
6

>  <Donor>
1

>  <RotBonds>
6

>  <HAC>
24

>  <Collection>
Advanced

>  <PPDS>
+

$$$$
F6477-5320
  Mrv2219 10102508112D          

 22 23  0  0  0  0            999 V2000
    1.6224    0.6255    0.0000 N   0  0  0  0  0  0  0  0  0  0  0  0
    4.0972    0.1203    0.0000 C   0  0  0  0  0  0  0  0  0  0  0  0
    3.2723    0.1203    0.0000 N   0  0  0  0  0  0  0  0  0  0  0  0
    3.0213    0.9143    0.0000 C   0  0  0  0  0  0  0  0  0  0  0  0
    0.8078    0.8008    0.0000 C   0  0  0  0  0  0  0  0  0  0  0  0
    1.7014   -0.1994    0.0000 C   0  0  0  0  0  0  0  0  0  0  0  0
    4.3550    0.9143    0.0000 S   0  0  0  0  0  0  0  0  0  0  0  0
    4.5819   -0.5465    0.0000 N   0  0  0  0  0  0  0  0  0  0  0  0
    2.2376    1.1721    0.0000 C   0  0  0  0  0  0  0  0  0  0  0  0
    3.6847    1.3921    0.0000 C   0  0  0  0  0  0  0  0  0  0  0  0
    5.4068   -0.4572    0.0000 C   0  0  0  0  0  0  0  0  0  0  0  0
    0.9418   -0.5294    0.0000 C   0  0  0  0  0  0  0  0  0  0  0  0
    0.3953    0.0893    0.0000 C   0  0  0  0  0  0  0  0  0  0  0  0
    2.4164   -0.6119    0.0000 O   0  0  0  0  0  0  0  0  0  0  0  0
    0.4743    1.5536    0.0000 O   0  0  0  0  0  0  0  0  0  0  0  0
    5.8914   -1.1274    0.0000 C   0  0  0  0  0  0  0  0  0  0  0  0
    5.5615   -1.8802    0.0000 F   0  0  0  0  0  0  0  0  0  0  0  0
    5.7368    0.2956    0.0000 C   0  0  0  0  0  0  0  0  0  0  0  0
    6.7129   -1.0346    0.0000 C   0  0  0  0  0  0  0  0  0  0  0  0
    6.5617    0.3781    0.0000 C   0  0  0  0  0  0  0  0  0  0  0  0
    7.0464   -0.2819    0.0000 C   0  0  0  0  0  0  0  0  0  0  0  0
    8.2013   -0.1650    0.0000 Cl  0  0  0  0  0  0  0  0  0  0  0  0
  3  4  1  0  0  0  0
  4  9  1  0  0  0  0
  5  1  1  0  0  0  0
  6  1  1  0  0  0  0
  7 10  1  0  0  0  0
  8  2  1  0  0  0  0
  9  1  1  0  0  0  0
 10  4  2  0  0  0  0
 11  8  1  0  0  0  0
 12  6  1  0  0  0  0
 13  5  1  0  0  0  0
 14  6  2  0  0  0  0
 15  5  2  0  0  0  0
 16 11  2  0  0  0  0
 17 16  1  0  0  0  0
 18 11  1  0  0  0  0
 19 16  1  0  0  0  0
 20 18  2  0  0  0  0
 21 20  1  0  0  0  0
 12 13  1  0  0  0  0
  7  2  1  0  0  0  0
 19 21  2  0  0  0  0
  2  3  2  0  0  0  0
M  END
>  <IDNUMBER>
F6477-5320

>  <Chemical_Name>
1-({2-[(2-fluorophenyl)amino]-1,3-thiazol-4-yl}methyl)pyrrolidine-2,5-dione hydrochloride

>  <PriceCoeff>
1.50

>  <CAS>
2034250-70-7

>  <MW>
305.33

>  <Description>
solid

>  <FSP3>
0.21

>  <clogP>
2.04

>  <TPSA>
90.54

>  <Acceptor>
4

>  <Donor>
1

>  <RotBonds>
4

>  <HAC>
21

>  <Collection>
Advanced

>  <PPDS>
+

$$$$
F6477-5321
  Mrv2219 10102508112D          

 23 24  0  0  0  0            999 V2000
    1.6224    0.6255    0.0000 N   0  0  0  0  0  0  0  0  0  0  0  0
    4.0972    0.1203    0.0000 C   0  0  0  0  0  0  0  0  0  0  0  0
    3.2723    0.1203    0.0000 N   0  0  0  0  0  0  0  0  0  0  0  0
    3.0213    0.9143    0.0000 C   0  0  0  0  0  0  0  0  0  0  0  0
    0.8078    0.8008    0.0000 C   0  0  0  0  0  0  0  0  0  0  0  0
    1.7014   -0.1994    0.0000 C   0  0  0  0  0  0  0  0  0  0  0  0
    4.3550    0.9143    0.0000 S   0  0  0  0  0  0  0  0  0  0  0  0
    4.5819   -0.5465    0.0000 N   0  0  0  0  0  0  0  0  0  0  0  0
    5.4068   -0.4572    0.0000 C   0  0  0  0  0  0  0  0  0  0  0  0
    2.2376    1.1721    0.0000 C   0  0  0  0  0  0  0  0  0  0  0  0
    3.6847    1.3921    0.0000 C   0  0  0  0  0  0  0  0  0  0  0  0
    5.7368    0.2956    0.0000 C   0  0  0  0  0  0  0  0  0  0  0  0
    5.8914   -1.1274    0.0000 C   0  0  0  0  0  0  0  0  0  0  0  0
    0.9418   -0.5294    0.0000 C   0  0  0  0  0  0  0  0  0  0  0  0
    0.3953    0.0893    0.0000 C   0  0  0  0  0  0  0  0  0  0  0  0
    2.4164   -0.6119    0.0000 O   0  0  0  0  0  0  0  0  0  0  0  0
    0.4743    1.5536    0.0000 O   0  0  0  0  0  0  0  0  0  0  0  0
    6.7129   -1.0346    0.0000 C   0  0  0  0  0  0  0  0  0  0  0  0
    6.5617    0.3781    0.0000 C   0  0  0  0  0  0  0  0  0  0  0  0
    5.5615   -1.8802    0.0000 F   0  0  0  0  0  0  0  0  0  0  0  0
    7.0464   -0.2819    0.0000 C   0  0  0  0  0  0  0  0  0  0  0  0
    6.8917    1.1343    0.0000 F   0  0  0  0  0  0  0  0  0  0  0  0
    8.2013   -0.1650    0.0000 Cl  0  0  0  0  0  0  0  0  0  0  0  0
  3  4  1  0  0  0  0
  4 10  1  0  0  0  0
  5  1  1  0  0  0  0
  6  1  1  0  0  0  0
  7 11  1  0  0  0  0
  8  2  1  0  0  0  0
  9  8  1  0  0  0  0
 10  1  1  0  0  0  0
 11  4  2  0  0  0  0
 12  9  1  0  0  0  0
 13  9  2  0  0  0  0
 14  6  1  0  0  0  0
 15  5  1  0  0  0  0
 16  6  2  0  0  0  0
 17  5  2  0  0  0  0
 18 13  1  0  0  0  0
 19 12  2  0  0  0  0
 20 13  1  0  0  0  0
 21 18  2  0  0  0  0
 22 19  1  0  0  0  0
 14 15  1  0  0  0  0
  7  2  1  0  0  0  0
 21 19  1  0  0  0  0
  2  3  2  0  0  0  0
M  END
>  <IDNUMBER>
F6477-5321

>  <Chemical_Name>
1-({2-[(2,5-difluorophenyl)amino]-1,3-thiazol-4-yl}methyl)pyrrolidine-2,5-dione hydrochloride

>  <PriceCoeff>
1.50

>  <CAS>
2034393-86-5

>  <MW>
323.32

>  <Description>
solid

>  <FSP3>
0.21

>  <clogP>
2.20

>  <TPSA>
90.54

>  <Acceptor>
4

>  <Donor>
1

>  <RotBonds>
4

>  <HAC>
22

>  <Collection>
Advanced

>  <PPDS>
+

$$$$
F6477-5322
  Mrv2219 10102508112D          

 23 24  0  0  0  0            999 V2000
    1.6221    0.5326    0.0000 N   0  0  0  0  0  0  0  0  0  0  0  0
    4.0965    0.0309    0.0000 C   0  0  0  0  0  0  0  0  0  0  0  0
    3.2717    0.0309    0.0000 N   0  0  0  0  0  0  0  0  0  0  0  0
    3.0208    0.8248    0.0000 C   0  0  0  0  0  0  0  0  0  0  0  0
    0.8077    0.7079    0.0000 C   0  0  0  0  0  0  0  0  0  0  0  0
    1.7011   -0.2886    0.0000 C   0  0  0  0  0  0  0  0  0  0  0  0
    4.3542    0.8248    0.0000 S   0  0  0  0  0  0  0  0  0  0  0  0
    2.2372    1.0825    0.0000 C   0  0  0  0  0  0  0  0  0  0  0  0
    3.6840    1.3059    0.0000 C   0  0  0  0  0  0  0  0  0  0  0  0
    4.5810   -0.6324    0.0000 N   0  0  0  0  0  0  0  0  0  0  0  0
    6.7117   -1.1272    0.0000 C   0  0  0  0  0  0  0  0  0  0  0  0
    5.8903   -1.2165    0.0000 C   0  0  0  0  0  0  0  0  0  0  0  0
    5.4058   -0.5498    0.0000 C   0  0  0  0  0  0  0  0  0  0  0  0
    7.0450   -0.3711    0.0000 C   0  0  0  0  0  0  0  0  0  0  0  0
    0.9417   -0.6221    0.0000 C   0  0  0  0  0  0  0  0  0  0  0  0
    0.3952   -0.0035    0.0000 C   0  0  0  0  0  0  0  0  0  0  0  0
    2.4159   -0.7046    0.0000 O   0  0  0  0  0  0  0  0  0  0  0  0
    0.4742    1.4605    0.0000 O   0  0  0  0  0  0  0  0  0  0  0  0
    6.5605    0.2955    0.0000 C   0  0  0  0  0  0  0  0  0  0  0  0
    7.1996   -1.7939    0.0000 F   0  0  0  0  0  0  0  0  0  0  0  0
    5.7357    0.2027    0.0000 C   0  0  0  0  0  0  0  0  0  0  0  0
    7.8664   -0.2783    0.0000 F   0  0  0  0  0  0  0  0  0  0  0  0
    9.0658   -0.1684    0.0000 Cl  0  0  0  0  0  0  0  0  0  0  0  0
  3  4  1  0  0  0  0
  4  8  1  0  0  0  0
  5  1  1  0  0  0  0
  6  1  1  0  0  0  0
  7  9  1  0  0  0  0
  8  1  1  0  0  0  0
  9  4  2  0  0  0  0
 10  2  1  0  0  0  0
 11 12  1  0  0  0  0
 12 13  2  0  0  0  0
 13 10  1  0  0  0  0
 14 19  1  0  0  0  0
 15  6  1  0  0  0  0
 16  5  1  0  0  0  0
 17  6  2  0  0  0  0
 18  5  2  0  0  0  0
 19 21  2  0  0  0  0
 20 11  1  0  0  0  0
 21 13  1  0  0  0  0
 22 14  1  0  0  0  0
 15 16  1  0  0  0  0
  7  2  1  0  0  0  0
 14 11  2  0  0  0  0
  2  3  2  0  0  0  0
M  END
>  <IDNUMBER>
F6477-5322

>  <Chemical_Name>
1-({2-[(3,4-difluorophenyl)amino]-1,3-thiazol-4-yl}methyl)pyrrolidine-2,5-dione hydrochloride

>  <PriceCoeff>
1.50

>  <CAS>
2034393-91-2

>  <MW>
323.32

>  <Description>
solid

>  <FSP3>
0.21

>  <clogP>
2.13

>  <TPSA>
90.54

>  <Acceptor>
4

>  <Donor>
1

>  <RotBonds>
4

>  <HAC>
22

>  <Collection>
Advanced

>  <PPDS>
+

$$$$
F6477-5323
  Mrv2219 10102508112D          

 24 25  0  0  0  0            999 V2000
    1.6222   -1.5501    0.0000 N   0  0  0  0  0  0  0  0  0  0  0  0
    4.3546   -1.2614    0.0000 C   0  0  0  0  0  0  0  0  0  0  0  0
    3.6844   -0.7836    0.0000 N   0  0  0  0  0  0  0  0  0  0  0  0
    3.0210   -1.2614    0.0000 C   0  0  0  0  0  0  0  0  0  0  0  0
    0.8077   -1.3748    0.0000 C   0  0  0  0  0  0  0  0  0  0  0  0
    1.7013   -2.3749    0.0000 C   0  0  0  0  0  0  0  0  0  0  0  0
    4.0968   -2.0553    0.0000 S   0  0  0  0  0  0  0  0  0  0  0  0
    2.2374   -1.0036    0.0000 C   0  0  0  0  0  0  0  0  0  0  0  0
    3.2720   -2.0553    0.0000 C   0  0  0  0  0  0  0  0  0  0  0  0
    5.1382   -1.0036    0.0000 N   0  0  0  0  0  0  0  0  0  0  0  0
    5.6434    1.4194    0.0000 C   0  0  0  0  0  0  0  0  0  0  0  0
    0.9417   -2.7049    0.0000 C   0  0  0  0  0  0  0  0  0  0  0  0
    0.3953   -2.0862    0.0000 C   0  0  0  0  0  0  0  0  0  0  0  0
    2.4162   -2.7874    0.0000 O   0  0  0  0  0  0  0  0  0  0  0  0
    0.4743   -0.6221    0.0000 O   0  0  0  0  0  0  0  0  0  0  0  0
    5.8153    2.2237    0.0000 N   0  0  0  0  0  0  0  0  0  0  0  0
    4.8598    1.1651    0.0000 C   0  0  0  0  0  0  0  0  0  0  0  0
    6.2586    0.8661    0.0000 C   0  0  0  0  0  0  0  0  0  0  0  0
    5.3032   -0.1959    0.0000 C   0  0  0  0  0  0  0  0  0  0  0  0
    4.6914    0.3574    0.0000 C   0  0  0  0  0  0  0  0  0  0  0  0
    6.0936    0.0687    0.0000 C   0  0  0  0  0  0  0  0  0  0  0  0
    6.5989    2.4814    0.0000 C   0  0  0  0  0  0  0  0  0  0  0  0
    5.2001    2.7736    0.0000 C   0  0  0  0  0  0  0  0  0  0  0  0
    7.7434   -0.0550    0.0000 Cl  0  0  0  0  0  0  0  0  0  0  0  0
  3  4  1  0  0  0  0
  4  8  1  0  0  0  0
  5  1  1  0  0  0  0
  6  1  1  0  0  0  0
  7  9  1  0  0  0  0
  8  1  1  0  0  0  0
  9  4  2  0  0  0  0
 10  2  1  0  0  0  0
 11 18  2  0  0  0  0
 12  6  1  0  0  0  0
 13  5  1  0  0  0  0
 14  6  2  0  0  0  0
 15  5  2  0  0  0  0
 16 11  1  0  0  0  0
 17 20  2  0  0  0  0
 18 21  1  0  0  0  0
 19 10  1  0  0  0  0
 20 19  1  0  0  0  0
 21 19  2  0  0  0  0
 22 16  1  0  0  0  0
 23 16  1  0  0  0  0
 12 13  1  0  0  0  0
  2  7  1  0  0  0  0
 11 17  1  0  0  0  0
  2  3  2  0  0  0  0
M  END
>  <IDNUMBER>
F6477-5323

>  <Chemical_Name>
1-[(2-{[4-(dimethylamino)phenyl]amino}-1,3-thiazol-4-yl)methyl]pyrrolidine-2,5-dione hydrochloride

>  <PriceCoeff>
1.00

>  <CAS>
2034274-28-5

>  <MW>
330.40

>  <Description>
solid

>  <FSP3>
0.31

>  <clogP>
2.01

>  <TPSA>
93.78

>  <Acceptor>
5

>  <Donor>
2

>  <RotBonds>
5

>  <HAC>
23

>  <Collection>
General

>  <PPDS>
+

$$$$
F6477-5324
  Mrv2219 10102508112D          

 24 25  0  0  0  0            999 V2000
    1.6221   -1.4571    0.0000 N   0  0  0  0  0  0  0  0  0  0  0  0
    4.3542   -1.1685    0.0000 C   0  0  0  0  0  0  0  0  0  0  0  0
    3.6841   -0.6839    0.0000 N   0  0  0  0  0  0  0  0  0  0  0  0
    3.0208   -1.1685    0.0000 C   0  0  0  0  0  0  0  0  0  0  0  0
    0.8076   -1.2819    0.0000 C   0  0  0  0  0  0  0  0  0  0  0  0
    1.7011   -2.2785    0.0000 C   0  0  0  0  0  0  0  0  0  0  0  0
    4.0964   -1.9589    0.0000 S   0  0  0  0  0  0  0  0  0  0  0  0
    5.1377   -0.9073    0.0000 N   0  0  0  0  0  0  0  0  0  0  0  0
    2.2372   -0.9073    0.0000 C   0  0  0  0  0  0  0  0  0  0  0  0
    3.2717   -1.9589    0.0000 C   0  0  0  0  0  0  0  0  0  0  0  0
    5.3027   -0.0963    0.0000 C   0  0  0  0  0  0  0  0  0  0  0  0
    6.0931    0.1615    0.0000 C   0  0  0  0  0  0  0  0  0  0  0  0
    0.3952   -1.9932    0.0000 C   0  0  0  0  0  0  0  0  0  0  0  0
    0.9417   -2.6118    0.0000 C   0  0  0  0  0  0  0  0  0  0  0  0
    0.4742   -0.5293    0.0000 O   0  0  0  0  0  0  0  0  0  0  0  0
    2.4159   -2.6943    0.0000 O   0  0  0  0  0  0  0  0  0  0  0  0
    6.2580    0.9657    0.0000 C   0  0  0  0  0  0  0  0  0  0  0  0
    4.6909    0.4502    0.0000 C   0  0  0  0  0  0  0  0  0  0  0  0
    5.6429    1.5121    0.0000 C   0  0  0  0  0  0  0  0  0  0  0  0
    4.8594    1.2578    0.0000 C   0  0  0  0  0  0  0  0  0  0  0  0
    5.8147    2.3197    0.0000 O   0  0  0  0  0  0  0  0  0  0  0  0
    6.7048   -0.3849    0.0000 C   0  0  0  0  0  0  0  0  0  0  0  0
    6.5983    2.5740    0.0000 C   0  0  0  0  0  0  0  0  0  0  0  0
    7.8492   -0.1066    0.0000 Cl  0  0  0  0  0  0  0  0  0  0  0  0
  3  4  1  0  0  0  0
  4  9  1  0  0  0  0
  5  1  1  0  0  0  0
  6  1  1  0  0  0  0
  7 10  1  0  0  0  0
  8  2  1  0  0  0  0
  9  1  1  0  0  0  0
 10  4  2  0  0  0  0
 11  8  1  0  0  0  0
 12 11  2  0  0  0  0
 13  5  1  0  0  0  0
 14  6  1  0  0  0  0
 15  5  2  0  0  0  0
 16  6  2  0  0  0  0
 17 12  1  0  0  0  0
 18 11  1  0  0  0  0
 19 20  1  0  0  0  0
 20 18  2  0  0  0  0
 21 19  1  0  0  0  0
 22 12  1  0  0  0  0
 23 21  1  0  0  0  0
 14 13  1  0  0  0  0
  2  7  1  0  0  0  0
 19 17  2  0  0  0  0
  2  3  2  0  0  0  0
M  END
>  <IDNUMBER>
F6477-5324

>  <Chemical_Name>
1-({2-[(4-methoxy-2-methylphenyl)amino]-1,3-thiazol-4-yl}methyl)pyrrolidine-2,5-dione hydrochloride

>  <PriceCoeff>
1.50

>  <CAS>
2034497-08-8

>  <MW>
331.39

>  <Description>
oil

>  <FSP3>
0.31

>  <clogP>
2.28

>  <TPSA>
99.77

>  <Acceptor>
5

>  <Donor>
1

>  <RotBonds>
5

>  <HAC>
23

>  <Collection>
Advanced

>  <PPDS>
+

$$$$
F6477-5325
  Mrv2219 10102508112D          

 24 25  0  0  0  0            999 V2000
    1.6246    0.4715    0.0000 N   0  0  0  0  0  0  0  0  0  0  0  0
    4.1027   -0.0344    0.0000 C   0  0  0  0  0  0  0  0  0  0  0  0
    3.2767   -0.0344    0.0000 N   0  0  0  0  0  0  0  0  0  0  0  0
    3.0254    0.7606    0.0000 C   0  0  0  0  0  0  0  0  0  0  0  0
    0.8088    0.6471    0.0000 C   0  0  0  0  0  0  0  0  0  0  0  0
    1.7038   -0.3546    0.0000 C   0  0  0  0  0  0  0  0  0  0  0  0
    4.3609    0.7606    0.0000 S   0  0  0  0  0  0  0  0  0  0  0  0
    2.2406    1.0187    0.0000 C   0  0  0  0  0  0  0  0  0  0  0  0
    3.6897    1.2391    0.0000 C   0  0  0  0  0  0  0  0  0  0  0  0
    4.5881   -0.7021    0.0000 N   0  0  0  0  0  0  0  0  0  0  0  0
    5.7445    0.1411    0.0000 C   0  0  0  0  0  0  0  0  0  0  0  0
    6.5602    0.2340    0.0000 C   0  0  0  0  0  0  0  0  0  0  0  0
    5.4141   -0.6127    0.0000 C   0  0  0  0  0  0  0  0  0  0  0  0
    7.0559   -0.4372    0.0000 C   0  0  0  0  0  0  0  0  0  0  0  0
    0.9431   -0.6849    0.0000 C   0  0  0  0  0  0  0  0  0  0  0  0
    0.3959   -0.0654    0.0000 C   0  0  0  0  0  0  0  0  0  0  0  0
    2.4196   -0.7675    0.0000 O   0  0  0  0  0  0  0  0  0  0  0  0
    0.4750    1.4008    0.0000 O   0  0  0  0  0  0  0  0  0  0  0  0
    6.7220   -1.1909    0.0000 C   0  0  0  0  0  0  0  0  0  0  0  0
    5.8960   -1.2804    0.0000 C   0  0  0  0  0  0  0  0  0  0  0  0
    7.8716   -0.3442    0.0000 F   0  0  0  0  0  0  0  0  0  0  0  0
    6.8975    0.9878    0.0000 O   0  0  0  0  0  0  0  0  0  0  0  0
    7.7167    1.0807    0.0000 C   0  0  0  0  0  0  0  0  0  0  0  0
    9.0728    0.1790    0.0000 Cl  0  0  0  0  0  0  0  0  0  0  0  0
  3  4  1  0  0  0  0
  4  8  1  0  0  0  0
  5  1  1  0  0  0  0
  6  1  1  0  0  0  0
  7  9  1  0  0  0  0
  8  1  1  0  0  0  0
  9  4  2  0  0  0  0
 10  2  1  0  0  0  0
 11 13  2  0  0  0  0
 12 11  1  0  0  0  0
 13 10  1  0  0  0  0
 14 19  1  0  0  0  0
 15  6  1  0  0  0  0
 16  5  1  0  0  0  0
 17  6  2  0  0  0  0
 18  5  2  0  0  0  0
 19 20  2  0  0  0  0
 20 13  1  0  0  0  0
 21 14  1  0  0  0  0
 22 12  1  0  0  0  0
 23 22  1  0  0  0  0
 15 16  1  0  0  0  0
  7  2  1  0  0  0  0
 12 14  2  0  0  0  0
  2  3  2  0  0  0  0
M  END
>  <IDNUMBER>
F6477-5325

>  <Chemical_Name>
1-({2-[(4-fluoro-3-methoxyphenyl)amino]-1,3-thiazol-4-yl}methyl)pyrrolidine-2,5-dione hydrochloride

>  <PriceCoeff>
1.50

>  <CAS>
2034473-53-3

>  <MW>
335.35

>  <Description>
solid

>  <FSP3>
0.27

>  <clogP>
1.81

>  <TPSA>
99.77

>  <Acceptor>
5

>  <Donor>
1

>  <RotBonds>
5

>  <HAC>
23

>  <Collection>
Advanced

>  <PPDS>
+

$$$$
F6477-5326
  Mrv2219 10102508112D          

 22 23  0  0  0  0            999 V2000
    1.6224   -0.9315    0.0000 N   0  0  0  0  0  0  0  0  0  0  0  0
    4.3550   -0.6428    0.0000 C   0  0  0  0  0  0  0  0  0  0  0  0
    3.6847   -0.1650    0.0000 N   0  0  0  0  0  0  0  0  0  0  0  0
    3.0213   -0.6428    0.0000 C   0  0  0  0  0  0  0  0  0  0  0  0
    0.8078   -0.7562    0.0000 C   0  0  0  0  0  0  0  0  0  0  0  0
    1.7014   -1.7530    0.0000 C   0  0  0  0  0  0  0  0  0  0  0  0
    4.0972   -1.4333    0.0000 S   0  0  0  0  0  0  0  0  0  0  0  0
    5.1387   -0.3850    0.0000 N   0  0  0  0  0  0  0  0  0  0  0  0
    2.2376   -0.3850    0.0000 C   0  0  0  0  0  0  0  0  0  0  0  0
    3.2723   -1.4333    0.0000 C   0  0  0  0  0  0  0  0  0  0  0  0
    5.3037    0.4228    0.0000 C   0  0  0  0  0  0  0  0  0  0  0  0
    0.9418   -2.0864    0.0000 C   0  0  0  0  0  0  0  0  0  0  0  0
    0.3953   -1.4677    0.0000 C   0  0  0  0  0  0  0  0  0  0  0  0
    2.4164   -2.1689    0.0000 O   0  0  0  0  0  0  0  0  0  0  0  0
    0.4743   -0.0035    0.0000 O   0  0  0  0  0  0  0  0  0  0  0  0
    4.8603    1.7805    0.0000 N   0  0  0  0  0  0  0  0  0  0  0  0
    6.0874    0.6806    0.0000 C   0  0  0  0  0  0  0  0  0  0  0  0
    4.6918    0.9761    0.0000 C   0  0  0  0  0  0  0  0  0  0  0  0
    5.6440    2.0383    0.0000 C   0  0  0  0  0  0  0  0  0  0  0  0
    6.2524    1.4917    0.0000 C   0  0  0  0  0  0  0  0  0  0  0  0
    6.7061    0.1341    0.0000 C   0  0  0  0  0  0  0  0  0  0  0  0
    7.8507   -0.1066    0.0000 Cl  0  0  0  0  0  0  0  0  0  0  0  0
  3  4  1  0  0  0  0
  4  9  1  0  0  0  0
  5  1  1  0  0  0  0
  6  1  1  0  0  0  0
  7 10  1  0  0  0  0
  8  2  1  0  0  0  0
  9  1  1  0  0  0  0
 10  4  2  0  0  0  0
 11  8  1  0  0  0  0
 12  6  1  0  0  0  0
 13  5  1  0  0  0  0
 14  6  2  0  0  0  0
 15  5  2  0  0  0  0
 16 18  1  0  0  0  0
 17 11  1  0  0  0  0
 18 11  2  0  0  0  0
 19 16  2  0  0  0  0
 20 17  2  0  0  0  0
 21 17  1  0  0  0  0
 12 13  1  0  0  0  0
  2  7  1  0  0  0  0
 19 20  1  0  0  0  0
  2  3  2  0  0  0  0
M  END
>  <IDNUMBER>
F6477-5326

>  <Chemical_Name>
1-({2-[(4-methylpyridin-3-yl)amino]-1,3-thiazol-4-yl}methyl)pyrrolidine-2,5-dione hydrochloride

>  <PriceCoeff>
1.50

>  <CAS>
2034316-34-0

>  <MW>
302.35

>  <Description>
solid

>  <FSP3>
0.29

>  <clogP>
1.13

>  <TPSA>
103.43

>  <Acceptor>
5

>  <Donor>
2

>  <RotBonds>
4

>  <HAC>
21

>  <Collection>
Advanced

>  <PPDS>
+

$$$$
F6477-5327
  Mrv2219 10102508112D          

 23 24  0  0  0  0            999 V2000
    1.6215    0.6871    0.0000 N   0  0  0  0  0  0  0  0  0  0  0  0
    4.0949    0.1855    0.0000 C   0  0  0  0  0  0  0  0  0  0  0  0
    3.2705    0.1855    0.0000 N   0  0  0  0  0  0  0  0  0  0  0  0
    3.0196    0.9756    0.0000 C   0  0  0  0  0  0  0  0  0  0  0  0
    0.8074    0.8623    0.0000 C   0  0  0  0  0  0  0  0  0  0  0  0
    1.7005   -0.1374    0.0000 C   0  0  0  0  0  0  0  0  0  0  0  0
    5.4966   -0.5290    0.0000 C   0  0  0  0  0  0  0  0  0  0  0  0
    4.6790   -0.6115    0.0000 N   0  0  0  0  0  0  0  0  0  0  0  0
    4.3526    0.9756    0.0000 S   0  0  0  0  0  0  0  0  0  0  0  0
    2.2364    1.2333    0.0000 C   0  0  0  0  0  0  0  0  0  0  0  0
    3.6827    1.4531    0.0000 C   0  0  0  0  0  0  0  0  0  0  0  0
    5.8366    0.2267    0.0000 C   0  0  0  0  0  0  0  0  0  0  0  0
    5.9810   -1.1887    0.0000 C   0  0  0  0  0  0  0  0  0  0  0  0
    0.9413   -0.4672    0.0000 C   0  0  0  0  0  0  0  0  0  0  0  0
    0.3951    0.1511    0.0000 C   0  0  0  0  0  0  0  0  0  0  0  0
    2.4151   -0.5496    0.0000 O   0  0  0  0  0  0  0  0  0  0  0  0
    0.4740    1.6146    0.0000 O   0  0  0  0  0  0  0  0  0  0  0  0
    5.5446    0.6286    0.0000 F   0  0  0  0  0  0  0  0  0  0  0  0
    5.6477   -1.9410    0.0000 F   0  0  0  0  0  0  0  0  0  0  0  0
    7.1421   -0.3607    0.0000 C   0  0  0  0  0  0  0  0  0  0  0  0
    6.6577    0.3160    0.0000 C   0  0  0  0  0  0  0  0  0  0  0  0
    6.8020   -1.1062    0.0000 C   0  0  0  0  0  0  0  0  0  0  0  0
    8.2963   -0.1649    0.0000 Cl  0  0  0  0  0  0  0  0  0  0  0  0
  3  4  1  0  0  0  0
  4 10  1  0  0  0  0
  5  1  1  0  0  0  0
  6  1  1  0  0  0  0
  7  8  1  0  0  0  0
  8  2  1  0  0  0  0
  9 11  1  0  0  0  0
 10  1  1  0  0  0  0
 11  4  2  0  0  0  0
 12  7  2  0  0  0  0
 13  7  1  0  0  0  0
 14  6  1  0  0  0  0
 15  5  1  0  0  0  0
 16  6  2  0  0  0  0
 17  5  2  0  0  0  0
 18 12  1  0  0  0  0
 19 13  1  0  0  0  0
 20 22  1  0  0  0  0
 21 12  1  0  0  0  0
 22 13  2  0  0  0  0
 14 15  1  0  0  0  0
  9  2  1  0  0  0  0
 21 20  2  0  0  0  0
  2  3  2  0  0  0  0
M  END
>  <IDNUMBER>
F6477-5327

>  <Chemical_Name>
1-({2-[(2,6-difluorophenyl)amino]-1,3-thiazol-4-yl}methyl)pyrrolidine-2,5-dione hydrochloride

>  <PriceCoeff>
1.50

>  <CAS>
2034365-59-6

>  <MW>
323.32

>  <Description>
solid

>  <FSP3>
0.21

>  <clogP>
2.20

>  <TPSA>
90.54

>  <Acceptor>
4

>  <Donor>
1

>  <RotBonds>
4

>  <HAC>
22

>  <Collection>
Advanced

>  <PPDS>
+

$$$$
F6477-5328
  Mrv2219 10102508112D          

 22 23  0  0  0  0            999 V2000
    1.6224   -0.9315    0.0000 N   0  0  0  0  0  0  0  0  0  0  0  0
    4.3550   -0.6428    0.0000 C   0  0  0  0  0  0  0  0  0  0  0  0
    5.1387   -0.3850    0.0000 N   0  0  0  0  0  0  0  0  0  0  0  0
    3.6847   -0.1650    0.0000 N   0  0  0  0  0  0  0  0  0  0  0  0
    3.0213   -0.6428    0.0000 C   0  0  0  0  0  0  0  0  0  0  0  0
    1.7014   -1.7530    0.0000 C   0  0  0  0  0  0  0  0  0  0  0  0
    0.8078   -0.7562    0.0000 C   0  0  0  0  0  0  0  0  0  0  0  0
    5.3037    0.4228    0.0000 C   0  0  0  0  0  0  0  0  0  0  0  0
    4.0972   -1.4333    0.0000 S   0  0  0  0  0  0  0  0  0  0  0  0
    2.2376   -0.3850    0.0000 C   0  0  0  0  0  0  0  0  0  0  0  0
    3.2723   -1.4333    0.0000 C   0  0  0  0  0  0  0  0  0  0  0  0
    4.6918    0.9761    0.0000 N   0  0  0  0  0  0  0  0  0  0  0  0
    0.3953   -1.4677    0.0000 C   0  0  0  0  0  0  0  0  0  0  0  0
    0.9418   -2.0864    0.0000 C   0  0  0  0  0  0  0  0  0  0  0  0
    0.4743   -0.0035    0.0000 O   0  0  0  0  0  0  0  0  0  0  0  0
    2.4164   -2.1689    0.0000 O   0  0  0  0  0  0  0  0  0  0  0  0
    6.0874    0.6806    0.0000 C   0  0  0  0  0  0  0  0  0  0  0  0
    4.8603    1.7805    0.0000 C   0  0  0  0  0  0  0  0  0  0  0  0
    6.7061    0.1341    0.0000 C   0  0  0  0  0  0  0  0  0  0  0  0
    6.2524    1.4917    0.0000 C   0  0  0  0  0  0  0  0  0  0  0  0
    5.6440    2.0383    0.0000 C   0  0  0  0  0  0  0  0  0  0  0  0
    7.8507   -0.1100    0.0000 Cl  0  0  0  0  0  0  0  0  0  0  0  0
  3  2  1  0  0  0  0
  4  5  1  0  0  0  0
  5 10  1  0  0  0  0
  6  1  1  0  0  0  0
  7  1  1  0  0  0  0
  8  3  1  0  0  0  0
  9 11  1  0  0  0  0
 10  1  1  0  0  0  0
 11  5  2  0  0  0  0
 12  8  1  0  0  0  0
 13  7  1  0  0  0  0
 14  6  1  0  0  0  0
 15  7  2  0  0  0  0
 16  6  2  0  0  0  0
 17  8  2  0  0  0  0
 18 12  2  0  0  0  0
 19 17  1  0  0  0  0
 20 17  1  0  0  0  0
 21 20  2  0  0  0  0
 14 13  1  0  0  0  0
  2  9  1  0  0  0  0
 21 18  1  0  0  0  0
  2  4  2  0  0  0  0
M  END
>  <IDNUMBER>
F6477-5328

>  <Chemical_Name>
1-({2-[(3-methylpyridin-2-yl)amino]-1,3-thiazol-4-yl}methyl)pyrrolidine-2,5-dione hydrochloride

>  <PriceCoeff>
1.50

>  <CAS>
2034619-98-0

>  <MW>
302.35

>  <Description>
solid

>  <FSP3>
0.29

>  <clogP>
1.13

>  <TPSA>
103.43

>  <Acceptor>
4

>  <Donor>
2

>  <RotBonds>
4

>  <HAC>
21

>  <Collection>
Advanced

>  <PPDS>
+

$$$$
F6477-5329
  Mrv2219 10102508112D          

 24 26  0  0  0  0            999 V2000
    1.6224   -1.4574    0.0000 N   0  0  0  0  0  0  0  0  0  0  0  0
    4.3550   -1.1652    0.0000 C   0  0  0  0  0  0  0  0  0  0  0  0
    3.6847   -0.6840    0.0000 N   0  0  0  0  0  0  0  0  0  0  0  0
    3.0213   -1.1652    0.0000 C   0  0  0  0  0  0  0  0  0  0  0  0
    0.8078   -1.2821    0.0000 C   0  0  0  0  0  0  0  0  0  0  0  0
    1.7014   -2.2789    0.0000 C   0  0  0  0  0  0  0  0  0  0  0  0
    4.0972   -1.9592    0.0000 S   0  0  0  0  0  0  0  0  0  0  0  0
    2.2376   -0.9074    0.0000 C   0  0  0  0  0  0  0  0  0  0  0  0
    3.2723   -1.9592    0.0000 C   0  0  0  0  0  0  0  0  0  0  0  0
    4.8568    1.2546    0.0000 C   0  0  0  0  0  0  0  0  0  0  0  0
    5.1387   -0.9074    0.0000 N   0  0  0  0  0  0  0  0  0  0  0  0
    4.6918    0.4502    0.0000 C   0  0  0  0  0  0  0  0  0  0  0  0
    5.6440    1.5158    0.0000 C   0  0  0  0  0  0  0  0  0  0  0  0
    4.3653    1.9214    0.0000 O   0  0  0  0  0  0  0  0  0  0  0  0
    5.6336    2.3373    0.0000 O   0  0  0  0  0  0  0  0  0  0  0  0
    5.3037   -0.0963    0.0000 C   0  0  0  0  0  0  0  0  0  0  0  0
    4.8568    2.5951    0.0000 C   0  0  0  0  0  0  0  0  0  0  0  0
    0.9418   -2.6123    0.0000 C   0  0  0  0  0  0  0  0  0  0  0  0
    0.3953   -1.9936    0.0000 C   0  0  0  0  0  0  0  0  0  0  0  0
    2.4164   -2.6948    0.0000 O   0  0  0  0  0  0  0  0  0  0  0  0
    0.4743   -0.5259    0.0000 O   0  0  0  0  0  0  0  0  0  0  0  0
    6.2524    0.9693    0.0000 C   0  0  0  0  0  0  0  0  0  0  0  0
    6.0874    0.1615    0.0000 C   0  0  0  0  0  0  0  0  0  0  0  0
    7.4073   -0.0963    0.0000 Cl  0  0  0  0  0  0  0  0  0  0  0  0
  3  4  1  0  0  0  0
  4  8  1  0  0  0  0
  5  1  1  0  0  0  0
  6  1  1  0  0  0  0
  7  9  1  0  0  0  0
  8  1  1  0  0  0  0
  9  4  2  0  0  0  0
 10 12  1  0  0  0  0
 11  2  1  0  0  0  0
 12 16  2  0  0  0  0
 13 22  1  0  0  0  0
 14 10  1  0  0  0  0
 15 13  1  0  0  0  0
 16 11  1  0  0  0  0
 17 14  1  0  0  0  0
 18  6  1  0  0  0  0
 19  5  1  0  0  0  0
 20  6  2  0  0  0  0
 21  5  2  0  0  0  0
 22 23  2  0  0  0  0
 23 16  1  0  0  0  0
 18 19  1  0  0  0  0
  2  7  1  0  0  0  0
 13 10  2  0  0  0  0
 17 15  1  0  0  0  0
  2  3  2  0  0  0  0
M  END
>  <IDNUMBER>
F6477-5329

>  <Chemical_Name>
1-({2-[(2H-1,3-benzodioxol-5-yl)amino]-1,3-thiazol-4-yl}methyl)pyrrolidine-2,5-dione hydrochloride

>  <PriceCoeff>
1.00

>  <CAS>
2034433-58-2

>  <MW>
331.35

>  <Description>
solid

>  <FSP3>
0.27

>  <clogP>
1.72

>  <TPSA>
109.00

>  <Acceptor>
6

>  <Donor>
1

>  <RotBonds>
4

>  <HAC>
23

>  <Collection>
General

>  <PPDS>
+

$$$$
F6477-5330
  Mrv2219 10102508112D          

 21 22  0  0  0  0            999 V2000
    1.6224   -0.9315    0.0000 N   0  0  0  0  0  0  0  0  0  0  0  0
    4.3550   -0.6428    0.0000 C   0  0  0  0  0  0  0  0  0  0  0  0
    3.6847   -0.1650    0.0000 N   0  0  0  0  0  0  0  0  0  0  0  0
    3.0213   -0.6428    0.0000 C   0  0  0  0  0  0  0  0  0  0  0  0
    0.8078   -0.7562    0.0000 C   0  0  0  0  0  0  0  0  0  0  0  0
    1.7014   -1.7530    0.0000 C   0  0  0  0  0  0  0  0  0  0  0  0
    4.0972   -1.4333    0.0000 S   0  0  0  0  0  0  0  0  0  0  0  0
    2.2376   -0.3850    0.0000 C   0  0  0  0  0  0  0  0  0  0  0  0
    3.2723   -1.4333    0.0000 C   0  0  0  0  0  0  0  0  0  0  0  0
    5.1387   -0.3850    0.0000 N   0  0  0  0  0  0  0  0  0  0  0  0
    0.3953   -1.4677    0.0000 C   0  0  0  0  0  0  0  0  0  0  0  0
    0.9418   -2.0864    0.0000 C   0  0  0  0  0  0  0  0  0  0  0  0
    0.4743   -0.0035    0.0000 O   0  0  0  0  0  0  0  0  0  0  0  0
    2.4164   -2.1689    0.0000 O   0  0  0  0  0  0  0  0  0  0  0  0
    6.2592    1.4917    0.0000 N   0  0  0  0  0  0  0  0  0  0  0  0
    5.3037    0.4228    0.0000 C   0  0  0  0  0  0  0  0  0  0  0  0
    6.0942    0.6874    0.0000 C   0  0  0  0  0  0  0  0  0  0  0  0
    5.6440    2.0383    0.0000 C   0  0  0  0  0  0  0  0  0  0  0  0
    4.6918    0.9761    0.0000 C   0  0  0  0  0  0  0  0  0  0  0  0
    4.8603    1.7839    0.0000 C   0  0  0  0  0  0  0  0  0  0  0  0
    7.4863   -0.1066    0.0000 Cl  0  0  0  0  0  0  0  0  0  0  0  0
  3  4  1  0  0  0  0
  4  8  1  0  0  0  0
  5  1  1  0  0  0  0
  6  1  1  0  0  0  0
  7  9  1  0  0  0  0
  8  1  1  0  0  0  0
  9  4  2  0  0  0  0
 10  2  1  0  0  0  0
 11  5  1  0  0  0  0
 12  6  1  0  0  0  0
 13  5  2  0  0  0  0
 14  6  2  0  0  0  0
 15 17  1  0  0  0  0
 16 10  1  0  0  0  0
 17 16  2  0  0  0  0
 18 20  1  0  0  0  0
 19 16  1  0  0  0  0
 20 19  2  0  0  0  0
 12 11  1  0  0  0  0
  2  7  1  0  0  0  0
 18 15  2  0  0  0  0
  2  3  2  0  0  0  0
M  END
>  <IDNUMBER>
F6477-5330

>  <Chemical_Name>
1-({2-[(pyridin-3-yl)amino]-1,3-thiazol-4-yl}methyl)pyrrolidine-2,5-dione hydrochloride

>  <PriceCoeff>
1.00

>  <CAS>
2034302-09-3

>  <MW>
288.32

>  <Description>
oil

>  <FSP3>
0.23

>  <clogP>
0.64

>  <TPSA>
103.43

>  <Acceptor>
5

>  <Donor>
2

>  <RotBonds>
4

>  <HAC>
20

>  <Collection>
General

>  <PPDS>
+

$$$$
F6477-5331
  Mrv2219 10102508112D          

 22 23  0  0  0  0            999 V2000
    1.6224   -1.3337    0.0000 N   0  0  0  0  0  0  0  0  0  0  0  0
    4.3550   -1.0449    0.0000 C   0  0  0  0  0  0  0  0  0  0  0  0
    3.6847   -0.5671    0.0000 N   0  0  0  0  0  0  0  0  0  0  0  0
    3.0213   -1.0449    0.0000 C   0  0  0  0  0  0  0  0  0  0  0  0
    0.8078   -1.1584    0.0000 C   0  0  0  0  0  0  0  0  0  0  0  0
    1.7014   -2.1586    0.0000 C   0  0  0  0  0  0  0  0  0  0  0  0
    4.0972   -1.8389    0.0000 S   0  0  0  0  0  0  0  0  0  0  0  0
    2.2376   -0.7872    0.0000 C   0  0  0  0  0  0  0  0  0  0  0  0
    3.2723   -1.8389    0.0000 C   0  0  0  0  0  0  0  0  0  0  0  0
    5.1387   -0.7872    0.0000 N   0  0  0  0  0  0  0  0  0  0  0  0
    0.3953   -1.8699    0.0000 C   0  0  0  0  0  0  0  0  0  0  0  0
    0.9418   -2.4886    0.0000 C   0  0  0  0  0  0  0  0  0  0  0  0
    0.4743   -0.4056    0.0000 O   0  0  0  0  0  0  0  0  0  0  0  0
    2.4164   -2.5711    0.0000 O   0  0  0  0  0  0  0  0  0  0  0  0
    5.3037    0.0206    0.0000 C   0  0  0  0  0  0  0  0  0  0  0  0
    5.6440    1.6361    0.0000 C   0  0  0  0  0  0  0  0  0  0  0  0
    6.0942    0.2784    0.0000 C   0  0  0  0  0  0  0  0  0  0  0  0
    4.6918    0.5740    0.0000 C   0  0  0  0  0  0  0  0  0  0  0  0
    4.8603    1.3783    0.0000 C   0  0  0  0  0  0  0  0  0  0  0  0
    6.2592    1.0827    0.0000 C   0  0  0  0  0  0  0  0  0  0  0  0
    5.8158    2.4404    0.0000 C   0  0  0  0  0  0  0  0  0  0  0  0
    7.4141   -0.1134    0.0000 Cl  0  0  0  0  0  0  0  0  0  0  0  0
  3  4  1  0  0  0  0
  4  8  1  0  0  0  0
  5  1  1  0  0  0  0
  6  1  1  0  0  0  0
  7  9  1  0  0  0  0
  8  1  1  0  0  0  0
  9  4  2  0  0  0  0
 10  2  1  0  0  0  0
 11  5  1  0  0  0  0
 12  6  1  0  0  0  0
 13  5  2  0  0  0  0
 14  6  2  0  0  0  0
 15 10  1  0  0  0  0
 16 19  1  0  0  0  0
 17 15  2  0  0  0  0
 18 15  1  0  0  0  0
 19 18  2  0  0  0  0
 20 17  1  0  0  0  0
 21 16  1  0  0  0  0
 12 11  1  0  0  0  0
  2  7  1  0  0  0  0
 16 20  2  0  0  0  0
  2  3  2  0  0  0  0
M  END
>  <IDNUMBER>
F6477-5331

>  <Chemical_Name>
1-({2-[(4-methylphenyl)amino]-1,3-thiazol-4-yl}methyl)pyrrolidine-2,5-dione hydrochloride

>  <PriceCoeff>
1.50

>  <CAS>
2034325-67-0

>  <MW>
301.36

>  <Description>
solid

>  <FSP3>
0.27

>  <clogP>
2.34

>  <TPSA>
90.54

>  <Acceptor>
4

>  <Donor>
1

>  <RotBonds>
4

>  <HAC>
21

>  <Collection>
Advanced

>  <PPDS>
+

$$$$
F6477-5333
  Mrv2219 10102508112D          

 21 22  0  0  0  0            999 V2000
    1.6224   -0.9315    0.0000 N   0  0  0  0  0  0  0  0  0  0  0  0
    4.3550   -0.6428    0.0000 C   0  0  0  0  0  0  0  0  0  0  0  0
    3.6847   -0.1650    0.0000 N   0  0  0  0  0  0  0  0  0  0  0  0
    3.0213   -0.6428    0.0000 C   0  0  0  0  0  0  0  0  0  0  0  0
    0.8078   -0.7562    0.0000 C   0  0  0  0  0  0  0  0  0  0  0  0
    1.7014   -1.7530    0.0000 C   0  0  0  0  0  0  0  0  0  0  0  0
    5.1387   -0.3850    0.0000 N   0  0  0  0  0  0  0  0  0  0  0  0
    4.0972   -1.4333    0.0000 S   0  0  0  0  0  0  0  0  0  0  0  0
    2.2376   -0.3850    0.0000 C   0  0  0  0  0  0  0  0  0  0  0  0
    3.2723   -1.4333    0.0000 C   0  0  0  0  0  0  0  0  0  0  0  0
    5.3037    0.4228    0.0000 C   0  0  0  0  0  0  0  0  0  0  0  0
    6.0942    0.6874    0.0000 N   0  0  0  0  0  0  0  0  0  0  0  0
    0.3953   -1.4677    0.0000 C   0  0  0  0  0  0  0  0  0  0  0  0
    0.9418   -2.0864    0.0000 C   0  0  0  0  0  0  0  0  0  0  0  0
    0.4743   -0.0035    0.0000 O   0  0  0  0  0  0  0  0  0  0  0  0
    2.4164   -2.1689    0.0000 O   0  0  0  0  0  0  0  0  0  0  0  0
    6.2592    1.4917    0.0000 C   0  0  0  0  0  0  0  0  0  0  0  0
    4.6918    0.9761    0.0000 C   0  0  0  0  0  0  0  0  0  0  0  0
    5.6440    2.0383    0.0000 C   0  0  0  0  0  0  0  0  0  0  0  0
    4.8603    1.7839    0.0000 C   0  0  0  0  0  0  0  0  0  0  0  0
    7.4107   -0.1066    0.0000 Cl  0  0  0  0  0  0  0  0  0  0  0  0
  3  4  1  0  0  0  0
  4  9  1  0  0  0  0
  5  1  1  0  0  0  0
  6  1  1  0  0  0  0
  7  2  1  0  0  0  0
  8 10  1  0  0  0  0
  9  1  1  0  0  0  0
 10  4  2  0  0  0  0
 11  7  1  0  0  0  0
 12 11  1  0  0  0  0
 13  5  1  0  0  0  0
 14  6  1  0  0  0  0
 15  5  2  0  0  0  0
 16  6  2  0  0  0  0
 17 12  2  0  0  0  0
 18 11  2  0  0  0  0
 19 20  2  0  0  0  0
 20 18  1  0  0  0  0
 14 13  1  0  0  0  0
  2  8  1  0  0  0  0
 19 17  1  0  0  0  0
  2  3  2  0  0  0  0
M  END
>  <IDNUMBER>
F6477-5333

>  <Chemical_Name>
1-({2-[(pyridin-2-yl)amino]-1,3-thiazol-4-yl}methyl)pyrrolidine-2,5-dione hydrochloride

>  <PriceCoeff>
1.00

>  <CAS>
2034530-36-2

>  <MW>
288.32

>  <Description>
solid

>  <FSP3>
0.23

>  <clogP>
0.64

>  <TPSA>
103.43

>  <Acceptor>
4

>  <Donor>
2

>  <RotBonds>
4

>  <HAC>
20

>  <Collection>
General

>  <PPDS>
+

$$$$
F6477-5337
  Mrv2219 10102508112D          

 22 23  0  0  0  0            999 V2000
    1.6224   -0.1066    0.0000 N   0  0  0  0  0  0  0  0  0  0  0  0
    3.6847    0.6599    0.0000 N   0  0  0  0  0  0  0  0  0  0  0  0
    4.3550    0.1821    0.0000 C   0  0  0  0  0  0  0  0  0  0  0  0
    3.0213    0.1821    0.0000 C   0  0  0  0  0  0  0  0  0  0  0  0
    0.8078    0.0687    0.0000 C   0  0  0  0  0  0  0  0  0  0  0  0
    1.7014   -0.9315    0.0000 C   0  0  0  0  0  0  0  0  0  0  0  0
    4.0972   -0.6119    0.0000 S   0  0  0  0  0  0  0  0  0  0  0  0
    2.2376    0.4399    0.0000 C   0  0  0  0  0  0  0  0  0  0  0  0
    3.2723   -0.6119    0.0000 C   0  0  0  0  0  0  0  0  0  0  0  0
    5.1387    0.4399    0.0000 N   0  0  0  0  0  0  0  0  0  0  0  0
    0.3953   -0.6428    0.0000 C   0  0  0  0  0  0  0  0  0  0  0  0
    0.9418   -1.2615    0.0000 C   0  0  0  0  0  0  0  0  0  0  0  0
    0.4743    0.8215    0.0000 O   0  0  0  0  0  0  0  0  0  0  0  0
    2.4164   -1.3440    0.0000 O   0  0  0  0  0  0  0  0  0  0  0  0
    5.7539   -0.1066    0.0000 C   0  0  0  0  0  0  0  0  0  0  0  0
    6.5376    0.1512    0.0000 C   0  0  0  0  0  0  0  0  0  0  0  0
    7.1563   -0.4022    0.0000 C   0  0  0  0  0  0  0  0  0  0  0  0
    6.7061    0.9555    0.0000 C   0  0  0  0  0  0  0  0  0  0  0  0
    7.4898    1.2133    0.0000 C   0  0  0  0  0  0  0  0  0  0  0  0
    7.9332   -0.1444    0.0000 C   0  0  0  0  0  0  0  0  0  0  0  0
    8.1050    0.6668    0.0000 C   0  0  0  0  0  0  0  0  0  0  0  0
    9.2599   -0.1066    0.0000 Cl  0  0  0  0  0  0  0  0  0  0  0  0
  3  2  2  0  0  0  0
  4  8  1  0  0  0  0
  5  1  1  0  0  0  0
  6  1  1  0  0  0  0
  7  9  1  0  0  0  0
  8  1  1  0  0  0  0
  9  4  2  0  0  0  0
 10  3  1  0  0  0  0
 11  5  1  0  0  0  0
 12  6  1  0  0  0  0
 13  5  2  0  0  0  0
 14  6  2  0  0  0  0
 15 10  1  0  0  0  0
 16 15  1  0  0  0  0
 17 16  2  0  0  0  0
 18 16  1  0  0  0  0
 19 18  2  0  0  0  0
 20 17  1  0  0  0  0
 21 19  1  0  0  0  0
 12 11  1  0  0  0  0
  3  7  1  0  0  0  0
 21 20  2  0  0  0  0
  2  4  1  0  0  0  0
M  END
>  <IDNUMBER>
F6477-5337

>  <Chemical_Name>
1-{[2-(benzylamino)-1,3-thiazol-4-yl]methyl}pyrrolidine-2,5-dione hydrochloride

>  <PriceCoeff>
1.50

>  <CAS>
2034250-82-1

>  <MW>
301.36

>  <Description>
solid

>  <FSP3>
0.27

>  <clogP>
1.31

>  <TPSA>
90.54

>  <Acceptor>
3

>  <Donor>
1

>  <RotBonds>
5

>  <HAC>
21

>  <Collection>
Advanced

>  <PPDS>
+

$$$$
F6481-0809
  Mrv2219 10102508112D          

 24 26  0  0  0  0            999 V2000
   -5.3573    5.4282    0.0000 N   0  0  0  0  0  0  0  0  0  0  0  0
   -4.5700    5.6865    0.0000 C   0  0  0  0  0  0  0  0  0  0  0  0
   -3.9576    5.1283    0.0000 C   0  0  0  0  0  0  0  0  0  0  0  0
   -6.0156    5.9156    0.0000 C   0  0  0  0  0  0  0  0  0  0  0  0
   -5.6073    4.6409    0.0000 C   0  0  0  0  0  0  0  0  0  0  0  0
   -3.1702    5.3865    0.0000 N   0  0  0  0  0  0  0  0  0  0  0  0
   -0.5082    5.4407    0.0000 C   0  0  0  0  0  0  0  0  0  0  0  0
   -1.3248    5.5532    0.0000 C   0  0  0  0  0  0  0  0  0  0  0  0
   -1.5830    6.3364    0.0000 S   0  0  0  0  0  0  0  0  0  0  0  0
   -1.7830    4.8658    0.0000 C   0  0  0  0  0  0  0  0  0  0  0  0
   -2.6078    4.7908    0.0000 C   0  0  0  0  0  0  0  0  0  0  0  0
   -4.1326    4.3242    0.0000 O   0  0  0  0  0  0  0  0  0  0  0  0
   -0.0083    6.0906    0.0000 C   0  0  0  0  0  0  0  0  0  0  0  0
   -6.4280    4.6409    0.0000 C   0  0  0  0  0  0  0  0  0  0  0  0
   -6.6863    5.4282    0.0000 C   0  0  0  0  0  0  0  0  0  0  0  0
   -5.1241    3.9826    0.0000 O   0  0  0  0  0  0  0  0  0  0  0  0
   -6.0156    6.7405    0.0000 O   0  0  0  0  0  0  0  0  0  0  0  0
   -0.3207    6.8530    0.0000 Cl  0  0  0  0  0  0  0  0  0  0  0  0
   -2.3579    6.6280    0.0000 C   0  0  0  0  0  0  0  0  0  0  0  0
   -3.0620    6.2031    0.0000 C   0  0  0  0  0  0  0  0  0  0  0  0
   -0.1958    4.6784    0.0000 C   0  0  0  0  0  0  0  0  0  0  0  0
    0.8124    5.9822    0.0000 C   0  0  0  0  0  0  0  0  0  0  0  0
    0.6166    4.5659    0.0000 C   0  0  0  0  0  0  0  0  0  0  0  0
    1.1248    5.2158    0.0000 C   0  0  0  0  0  0  0  0  0  0  0  0
  2  1  1  0  0  0  0
  3  2  1  0  0  0  0
  4  1  1  0  0  0  0
  5  1  1  0  0  0  0
  6  3  1  0  0  0  0
  7  8  1  0  0  0  0
  8 10  1  0  0  0  0
  9 19  1  0  0  0  0
 10 11  1  0  0  0  0
 11  6  1  0  0  0  0
 12  3  2  0  0  0  0
 13  7  1  0  0  0  0
 14  5  1  0  0  0  0
 15  4  1  0  0  0  0
 16  5  2  0  0  0  0
 17  4  2  0  0  0  0
 18 13  1  0  0  0  0
 19 20  1  0  0  0  0
 20  6  1  0  0  0  0
 21  7  2  0  0  0  0
 22 13  2  0  0  0  0
 23 21  1  0  0  0  0
 24 23  2  0  0  0  0
 15 14  1  0  0  0  0
  9  8  1  0  0  0  0
 22 24  1  0  0  0  0
M  END
>  <IDNUMBER>
F6481-0809

>  <Chemical_Name>
1-{2-[7-(2-chlorophenyl)-1,4-thiazepan-4-yl]-2-oxoethyl}pyrrolidine-2,5-dione

>  <PriceCoeff>
1.50

>  <CAS>
1797185-75-1

>  <MW>
366.86

>  <Description>
oil

>  <FSP3>
0.47

>  <clogP>
2.23

>  <TPSA>
82.99

>  <Acceptor>
3

>  <Donor>
0

>  <RotBonds>
4

>  <HAC>
24

>  <Collection>
Advanced

>  <PPDS>
+

$$$$
F6482-2348
  Mrv2219 10102508112D          

 20 22  0  0  0  0            999 V2000
   -4.4723    2.4716    0.0000 C   0  0  0  0  0  0  0  0  0  0  0  0
   -3.8012    1.9881    0.0000 N   0  0  0  0  0  0  0  0  0  0  0  0
   -4.0680    1.2046    0.0000 N   0  0  0  0  0  0  0  0  0  0  0  0
   -4.4723    3.2927    0.0000 C   0  0  0  0  0  0  0  0  0  0  0  0
   -5.1433    1.9839    0.0000 C   0  0  0  0  0  0  0  0  0  0  0  0
   -4.8849    1.2004    0.0000 C   0  0  0  0  0  0  0  0  0  0  0  0
   -3.7595    3.7054    0.0000 N   0  0  0  0  0  0  0  0  0  0  0  0
   -4.4640    5.7518    0.0000 C   0  0  0  0  0  0  0  0  0  0  0  0
   -4.4765    4.9349    0.0000 C   0  0  0  0  0  0  0  0  0  0  0  0
   -5.1933    3.7095    0.0000 O   0  0  0  0  0  0  0  0  0  0  0  0
   -3.7595    4.5223    0.0000 C   0  0  0  0  0  0  0  0  0  0  0  0
   -3.7387    6.1686    0.0000 C   0  0  0  0  0  0  0  0  0  0  0  0
   -5.1683    6.1811    0.0000 O   0  0  0  0  0  0  0  0  0  0  0  0
   -3.7304    6.9897    0.0000 O   0  0  0  0  0  0  0  0  0  0  0  0
   -3.0343    5.7518    0.0000 C   0  0  0  0  0  0  0  0  0  0  0  0
   -3.0260    2.2465    0.0000 C   0  0  0  0  0  0  0  0  0  0  0  0
   -3.0385    4.9308    0.0000 C   0  0  0  0  0  0  0  0  0  0  0  0
   -5.3684    0.5294    0.0000 C   0  0  0  0  0  0  0  0  0  0  0  0
   -5.1599    7.0064    0.0000 C   0  0  0  0  0  0  0  0  0  0  0  0
   -4.4432    7.4107    0.0000 C   0  0  0  0  0  0  0  0  0  0  0  0
  2  1  1  0  0  0  0
  3  2  1  0  0  0  0
  4  1  1  0  0  0  0
  5  1  2  0  0  0  0
  6  5  1  0  0  0  0
  7  4  1  0  0  0  0
  8  9  1  0  0  0  0
  9 11  1  0  0  0  0
 10  4  2  0  0  0  0
 11  7  1  0  0  0  0
 12 15  1  0  0  0  0
 13  8  1  0  0  0  0
 14 12  1  0  0  0  0
 15 17  1  0  0  0  0
 16  2  1  0  0  0  0
 17 11  1  0  0  0  0
 18  6  1  0  0  0  0
 19 13  1  0  0  0  0
 20 14  1  0  0  0  0
  3  6  2  0  0  0  0
 12  8  1  0  0  0  0
 20 19  1  0  0  0  0
M  END
>  <IDNUMBER>
F6482-2348

>  <Chemical_Name>
1,3-dimethyl-N-(octahydro-1,4-benzodioxin-6-yl)-1H-pyrazole-5-carboxamide

>  <PriceCoeff>
1.50

>  <CAS>
1902907-39-4

>  <MW>
279.33

>  <Description>
oil

>  <FSP3>
0.71

>  <clogP>
-0.61

>  <TPSA>
65.38

>  <Acceptor>
4

>  <Donor>
1

>  <RotBonds>
2

>  <HAC>
20

>  <Collection>
Advanced

>  <PPDS>
+

$$$$
F6511-9308
  Mrv2219 10102508112D          

 19 20  0  0  0  0            999 V2000
    5.5042   -8.3000    0.0000 N   0  0  0  0  0  0  0  0  0  0  0  0
    5.8417   -9.0417    0.0000 N   0  0  0  0  0  0  0  0  0  0  0  0
    5.9417   -7.5917    0.0000 C   0  0  0  0  0  0  0  0  0  0  0  0
    5.2292   -9.6042    0.0000 N   0  0  0  0  0  0  0  0  0  0  0  0
    4.6875   -8.3792    0.0000 C   0  0  0  0  0  0  0  0  0  0  0  0
    8.0292   -6.9375    0.0000 C   0  0  0  0  0  0  0  0  0  0  0  0
    4.5125   -9.1917    0.0000 C   0  0  0  0  0  0  0  0  0  0  0  0
    6.7625   -7.6125    0.0000 C   0  0  0  0  0  0  0  0  0  0  0  0
    7.2000   -6.9042    0.0000 C   0  0  0  0  0  0  0  0  0  0  0  0
    5.5542   -6.8625    0.0000 C   0  0  0  0  0  0  0  0  0  0  0  0
    6.8042   -6.1917    0.0000 C   0  0  0  0  0  0  0  0  0  0  0  0
    5.9875   -6.1667    0.0000 C   0  0  0  0  0  0  0  0  0  0  0  0
    8.0500   -6.1000    0.0000 F   0  0  0  0  0  0  0  0  0  0  0  0
    8.0000   -7.7750    0.0000 F   0  0  0  0  0  0  0  0  0  0  0  0
    8.8417   -6.9625    0.0000 F   0  0  0  0  0  0  0  0  0  0  0  0
    3.7542   -9.5167    0.0000 C   0  0  0  0  0  0  0  0  0  0  0  0
    4.7167   -6.8375    0.0000 Cl  0  0  0  0  0  0  0  0  0  0  0  0
    2.3292   -9.3667    0.0000 O   0  0  0  0  0  0  0  0  0  0  0  0
    3.0917   -9.0292    0.0000 C   0  0  0  0  0  0  0  0  0  0  0  0
  2  1  1  0  0  0  0
  3  1  1  0  0  0  0
  4  2  2  0  0  0  0
  5  1  1  0  0  0  0
  6  9  1  0  0  0  0
  7  5  2  0  0  0  0
  8  3  2  0  0  0  0
  9  8  1  0  0  0  0
 10  3  1  0  0  0  0
 11 12  1  0  0  0  0
 12 10  2  0  0  0  0
 13  6  1  0  0  0  0
 14  6  1  0  0  0  0
 15  6  1  0  0  0  0
 16  7  1  0  0  0  0
 17 10  1  0  0  0  0
 18 19  1  0  0  0  0
 19 16  1  0  0  0  0
  7  4  1  0  0  0  0
 11  9  2  0  0  0  0
M  END
>  <IDNUMBER>
F6511-9308

>  <Chemical_Name>
2-{1-[2-chloro-5-(trifluoromethyl)phenyl]-1H-1,2,3-triazol-4-yl}ethan-1-ol

>  <PriceCoeff>
1.00

>  <CAS>
2176069-19-3

>  <MW>
291.65

>  <Description>
oil

>  <FSP3>
0.27

>  <clogP>
2.60

>  <TPSA>
50.94

>  <Acceptor>
3

>  <Donor>
1

>  <RotBonds>
3

>  <HAC>
19

>  <Collection>
General

>  <PPDS>
+

$$$$
F6511-9314
  Mrv2219 10102508112D          

 15 16  0  0  0  0            999 V2000
    6.1785   -9.0282    0.0000 N   0  0  0  0  0  0  0  0  0  0  0  0
    5.8410   -8.2782    0.0000 N   0  0  0  0  0  0  0  0  0  0  0  0
    5.5786   -9.5781    0.0000 N   0  0  0  0  0  0  0  0  0  0  0  0
    5.0161   -8.3657    0.0000 C   0  0  0  0  0  0  0  0  0  0  0  0
    4.8661   -9.1656    0.0000 C   0  0  0  0  0  0  0  0  0  0  0  0
    6.2785   -7.5658    0.0000 C   0  0  0  0  0  0  0  0  0  0  0  0
    7.1034   -7.5783    0.0000 C   0  0  0  0  0  0  0  0  0  0  0  0
    4.1120   -9.4906    0.0000 C   0  0  0  0  0  0  0  0  0  0  0  0
    7.5408   -6.8784    0.0000 C   0  0  0  0  0  0  0  0  0  0  0  0
    8.3782   -6.9034    0.0000 Br  0  0  0  0  0  0  0  0  0  0  0  0
    5.8910   -6.8284    0.0000 C   0  0  0  0  0  0  0  0  0  0  0  0
    2.6789   -9.3406    0.0000 O   0  0  0  0  0  0  0  0  0  0  0  0
    6.3243   -6.1285    0.0000 C   0  0  0  0  0  0  0  0  0  0  0  0
    3.4413   -9.0032    0.0000 C   0  0  0  0  0  0  0  0  0  0  0  0
    7.1492   -6.1535    0.0000 C   0  0  0  0  0  0  0  0  0  0  0  0
  2  1  1  0  0  0  0
  3  1  2  0  0  0  0
  4  2  1  0  0  0  0
  5  3  1  0  0  0  0
  6  2  1  0  0  0  0
  7  6  2  0  0  0  0
  8  5  1  0  0  0  0
  9  7  1  0  0  0  0
 10  9  1  0  0  0  0
 11  6  1  0  0  0  0
 12 14  1  0  0  0  0
 13 11  2  0  0  0  0
 14  8  1  0  0  0  0
 15 13  1  0  0  0  0
  5  4  2  0  0  0  0
 15  9  2  0  0  0  0
M  END
>  <IDNUMBER>
F6511-9314

>  <Chemical_Name>
2-[1-(3-bromophenyl)-1H-1,2,3-triazol-4-yl]ethan-1-ol

>  <PriceCoeff>
1.00

>  <CAS>
1249588-05-3

>  <MW>
268.11

>  <Description>
solid

>  <FSP3>
0.20

>  <clogP>
1.68

>  <TPSA>
50.94

>  <Acceptor>
3

>  <Donor>
1

>  <RotBonds>
3

>  <HAC>
15

>  <Collection>
General

>  <PPDS>
+

$$$$
F6511-9321
  Mrv2219 10102508112D          

 15 16  0  0  0  0            999 V2000
    6.5756   -9.3740    0.0000 N   0  0  0  0  0  0  0  0  0  0  0  0
    6.2382   -8.6202    0.0000 N   0  0  0  0  0  0  0  0  0  0  0  0
    5.9634   -9.9237    0.0000 N   0  0  0  0  0  0  0  0  0  0  0  0
    5.4137   -8.7077    0.0000 C   0  0  0  0  0  0  0  0  0  0  0  0
    5.2513   -9.5114    0.0000 C   0  0  0  0  0  0  0  0  0  0  0  0
    6.6630   -7.8998    0.0000 C   0  0  0  0  0  0  0  0  0  0  0  0
    7.4876   -7.9248    0.0000 C   0  0  0  0  0  0  0  0  0  0  0  0
    6.2757   -7.1877    0.0000 C   0  0  0  0  0  0  0  0  0  0  0  0
    4.4892   -9.8488    0.0000 C   0  0  0  0  0  0  0  0  0  0  0  0
    7.5250   -6.4881    0.0000 C   0  0  0  0  0  0  0  0  0  0  0  0
    6.6880   -6.4756    0.0000 C   0  0  0  0  0  0  0  0  0  0  0  0
    7.9248   -7.2127    0.0000 C   0  0  0  0  0  0  0  0  0  0  0  0
    7.9498   -5.7884    0.0000 Br  0  0  0  0  0  0  0  0  0  0  0  0
    3.0733   -9.6988    0.0000 O   0  0  0  0  0  0  0  0  0  0  0  0
    3.8353   -9.3615    0.0000 C   0  0  0  0  0  0  0  0  0  0  0  0
  2  1  1  0  0  0  0
  3  1  2  0  0  0  0
  4  2  1  0  0  0  0
  5  3  1  0  0  0  0
  6  2  1  0  0  0  0
  7  6  2  0  0  0  0
  8  6  1  0  0  0  0
  9  5  1  0  0  0  0
 10 11  1  0  0  0  0
 11  8  2  0  0  0  0
 12  7  1  0  0  0  0
 13 10  1  0  0  0  0
 14 15  1  0  0  0  0
 15  9  1  0  0  0  0
  5  4  2  0  0  0  0
 10 12  2  0  0  0  0
M  END
>  <IDNUMBER>
F6511-9321

>  <Chemical_Name>
2-[1-(4-bromophenyl)-1H-1,2,3-triazol-4-yl]ethan-1-ol

>  <PriceCoeff>
1.00

>  <CAS>
1247700-74-8

>  <MW>
268.11

>  <Description>
solid

>  <FSP3>
0.20

>  <clogP>
1.68

>  <TPSA>
50.94

>  <Acceptor>
3

>  <Donor>
1

>  <RotBonds>
3

>  <HAC>
15

>  <Collection>
General

>  <PPDS>
+

$$$$
F6523-4063
  Mrv2219 10102508112D          

 28 31  0  0  0  0            999 V2000
    4.0114   -1.0141    0.0000 C   0  0  0  0  0  0  0  0  0  0  0  0
    5.4380   -1.0141    0.0000 C   0  0  0  0  0  0  0  0  0  0  0  0
    5.4448   -1.8356    0.0000 C   0  0  0  0  0  0  0  0  0  0  0  0
    4.7230   -0.6016    0.0000 C   0  0  0  0  0  0  0  0  0  0  0  0
    4.0149   -1.8459    0.0000 C   0  0  0  0  0  0  0  0  0  0  0  0
    4.7264   -2.2481    0.0000 N   0  0  0  0  0  0  0  0  0  0  0  0
    3.2931   -0.6084    0.0000 C   0  0  0  0  0  0  0  0  0  0  0  0
    0.4263    1.8562    0.0000 N   0  0  0  0  0  0  0  0  0  0  0  0
    1.8562    1.8630    0.0000 C   0  0  0  0  0  0  0  0  0  0  0  0
    6.1598   -2.2481    0.0000 N   0  0  0  0  0  0  0  0  0  0  0  0
    0.4263    2.6880    0.0000 N   0  0  0  0  0  0  0  0  0  0  0  0
    1.1378    1.4506    0.0000 C   0  0  0  0  0  0  0  0  0  0  0  0
    1.8562    2.6812    0.0000 C   0  0  0  0  0  0  0  0  0  0  0  0
    1.1378    3.1005    0.0000 C   0  0  0  0  0  0  0  0  0  0  0  0
    3.2896    0.2234    0.0000 N   0  0  0  0  0  0  0  0  0  0  0  0
    6.1564   -0.5981    0.0000 C   0  0  0  0  0  0  0  0  0  0  0  0
    2.5677    1.4506    0.0000 C   0  0  0  0  0  0  0  0  0  0  0  0
    4.7230    0.2234    0.0000 O   0  0  0  0  0  0  0  0  0  0  0  0
    2.5815   -1.0209    0.0000 O   0  0  0  0  0  0  0  0  0  0  0  0
    2.5712    0.6290    0.0000 C   0  0  0  0  0  0  0  0  0  0  0  0
    1.1378    3.9186    0.0000 O   0  0  0  0  0  0  0  0  0  0  0  0
    1.1447    0.6256    0.0000 C   0  0  0  0  0  0  0  0  0  0  0  0
    6.8714   -1.8287    0.0000 C   0  0  0  0  0  0  0  0  0  0  0  0
    6.8679   -1.0037    0.0000 C   0  0  0  0  0  0  0  0  0  0  0  0
    4.7333   -3.0730    0.0000 C   0  0  0  0  0  0  0  0  0  0  0  0
    1.8597    0.2131    0.0000 C   0  0  0  0  0  0  0  0  0  0  0  0
    7.5898   -2.2412    0.0000 C   0  0  0  0  0  0  0  0  0  0  0  0
    4.0218   -3.4890    0.0000 C   0  0  0  0  0  0  0  0  0  0  0  0
  2  4  1  0  0  0  0
  3  6  1  0  0  0  0
  4  1  1  0  0  0  0
  5  1  2  0  0  0  0
  6  5  1  0  0  0  0
  7  1  1  0  0  0  0
  8 12  2  0  0  0  0
  9 17  1  0  0  0  0
 10  3  1  0  0  0  0
 11  8  1  0  0  0  0
 12 22  1  0  0  0  0
 13  9  2  0  0  0  0
 14 13  1  0  0  0  0
 15  7  1  0  0  0  0
 16  2  1  0  0  0  0
 17 20  1  0  0  0  0
 18  4  2  0  0  0  0
 19  7  2  0  0  0  0
 20 15  1  0  0  0  0
 21 14  2  0  0  0  0
 22 26  1  0  0  0  0
 23 10  2  0  0  0  0
 24 16  2  0  0  0  0
 25  6  1  0  0  0  0
 26 20  1  0  0  0  0
 27 23  1  0  0  0  0
 28 25  1  0  0  0  0
  3  2  2  0  0  0  0
 24 23  1  0  0  0  0
 12  9  1  0  0  0  0
 11 14  1  0  0  0  0
M  END
>  <IDNUMBER>
F6523-4063

>  <Chemical_Name>
1-ethyl-7-methyl-4-oxo-N-(3-oxo-2,3,5,6,7,8-hexahydrocinnolin-6-yl)-1,4-dihydro-1,8-naphthyridine-3-carboxamide

>  <PriceCoeff>
1.00

>  <CAS>
2034276-52-1

>  <MW>
379.41

>  <Description>
solid

>  <FSP3>
0.35

>  <clogP>
-0.90

>  <TPSA>
103.76

>  <Acceptor>
5

>  <Donor>
5

>  <RotBonds>
3

>  <HAC>
28

>  <Collection>
General

>  <PPDS>
+

$$$$
F6525-0002
  Mrv2219 10102508112D          

 24 26  0  0  0  0            999 V2000
   -2.5823    5.9961    0.0000 C   0  0  0  0  0  0  0  0  0  0  0  0
   -2.4527    6.8234    0.0000 N   0  0  0  0  0  0  0  0  0  0  0  0
   -1.6504    6.9362    0.0000 N   0  0  0  0  0  0  0  0  0  0  0  0
   -1.8635    5.6326    0.0000 C   0  0  0  0  0  0  0  0  0  0  0  0
   -1.2786    6.2092    0.0000 C   0  0  0  0  0  0  0  0  0  0  0  0
   -3.3219    5.6116    0.0000 C   0  0  0  0  0  0  0  0  0  0  0  0
   -4.7592    5.6743    0.0000 C   0  0  0  0  0  0  0  0  0  0  0  0
   -4.0196    6.0588    0.0000 N   0  0  0  0  0  0  0  0  0  0  0  0
   -4.7968    4.8554    0.0000 C   0  0  0  0  0  0  0  0  0  0  0  0
   -4.8637    3.1965    0.0000 C   0  0  0  0  0  0  0  0  0  0  0  0
   -4.9055    2.3650    0.0000 N   0  0  0  0  0  0  0  0  0  0  0  0
   -5.4486    6.1256    0.0000 O   0  0  0  0  0  0  0  0  0  0  0  0
   -4.1033    4.3999    0.0000 C   0  0  0  0  0  0  0  0  0  0  0  0
   -5.5323    4.4668    0.0000 C   0  0  0  0  0  0  0  0  0  0  0  0
   -5.5615    3.6436    0.0000 C   0  0  0  0  0  0  0  0  0  0  0  0
   -4.1367    3.5726    0.0000 C   0  0  0  0  0  0  0  0  0  0  0  0
   -1.4875    4.9055    0.0000 C   0  0  0  0  0  0  0  0  0  0  0  0
   -3.0168    7.4251    0.0000 C   0  0  0  0  0  0  0  0  0  0  0  0
   -0.5516    5.8415    0.0000 C   0  0  0  0  0  0  0  0  0  0  0  0
   -0.6602    5.0309    0.0000 C   0  0  0  0  0  0  0  0  0  0  0  0
   -4.2077    1.9262    0.0000 C   0  0  0  0  0  0  0  0  0  0  0  0
   -5.6367    1.9806    0.0000 C   0  0  0  0  0  0  0  0  0  0  0  0
   -4.2453    1.0989    0.0000 C   0  0  0  0  0  0  0  0  0  0  0  0
   -6.3303    2.4276    0.0000 C   0  0  0  0  0  0  0  0  0  0  0  0
  2  1  1  0  0  0  0
  3  2  1  0  0  0  0
  4  1  2  0  0  0  0
  5  4  1  0  0  0  0
  6  1  1  0  0  0  0
  7  8  1  0  0  0  0
  8  6  1  0  0  0  0
  9  7  1  0  0  0  0
 10 15  2  0  0  0  0
 11 10  1  0  0  0  0
 12  7  2  0  0  0  0
 13  9  1  0  0  0  0
 14  9  2  0  0  0  0
 15 14  1  0  0  0  0
 16 13  2  0  0  0  0
 17  4  1  0  0  0  0
 18  2  1  0  0  0  0
 19  5  1  0  0  0  0
 20 17  1  0  0  0  0
 21 11  1  0  0  0  0
 22 11  1  0  0  0  0
 23 21  1  0  0  0  0
 24 22  1  0  0  0  0
  5  3  2  0  0  0  0
 20 19  1  0  0  0  0
 10 16  1  0  0  0  0
M  END
>  <IDNUMBER>
F6525-0002

>  <Chemical_Name>
4-(diethylamino)-N-({2-methyl-2H,4H,5H,6H-cyclopenta[c]pyrazol-3-yl}methyl)benzamide

>  <PriceCoeff>
1.50

>  <CAS>
2034370-32-4

>  <MW>
326.44

>  <Description>
solid

>  <FSP3>
0.47

>  <clogP>
2.92

>  <TPSA>
50.16

>  <Acceptor>
3

>  <Donor>
2

>  <RotBonds>
6

>  <HAC>
24

>  <Collection>
Advanced

>  <PPDS>
+

$$$$
F6525-0009
  Mrv2219 10102508112D          

 23 25  0  0  0  0            999 V2000
   -2.5741    5.9744    0.0000 C   0  0  0  0  0  0  0  0  0  0  0  0
   -2.4490    6.7921    0.0000 N   0  0  0  0  0  0  0  0  0  0  0  0
   -1.6396    6.9006    0.0000 N   0  0  0  0  0  0  0  0  0  0  0  0
   -1.8524    5.6031    0.0000 C   0  0  0  0  0  0  0  0  0  0  0  0
   -1.2724    6.1872    0.0000 C   0  0  0  0  0  0  0  0  0  0  0  0
   -6.1997    4.8980    0.0000 C   0  0  0  0  0  0  0  0  0  0  0  0
   -6.1622    5.7241    0.0000 C   0  0  0  0  0  0  0  0  0  0  0  0
   -5.4278    6.1037    0.0000 C   0  0  0  0  0  0  0  0  0  0  0  0
   -4.7394    5.6490    0.0000 C   0  0  0  0  0  0  0  0  0  0  0  0
   -3.3126    5.5947    0.0000 C   0  0  0  0  0  0  0  0  0  0  0  0
   -4.0052    6.0370    0.0000 N   0  0  0  0  0  0  0  0  0  0  0  0
   -4.7770    4.8313    0.0000 O   0  0  0  0  0  0  0  0  0  0  0  0
   -6.2498    4.0720    0.0000 F   0  0  0  0  0  0  0  0  0  0  0  0
   -5.3903    4.8605    0.0000 F   0  0  0  0  0  0  0  0  0  0  0  0
   -7.0341    4.9481    0.0000 F   0  0  0  0  0  0  0  0  0  0  0  0
   -1.4852    4.8855    0.0000 C   0  0  0  0  0  0  0  0  0  0  0  0
   -3.0039    7.3971    0.0000 C   0  0  0  0  0  0  0  0  0  0  0  0
   -0.5507    5.8117    0.0000 C   0  0  0  0  0  0  0  0  0  0  0  0
   -6.8547    6.1872    0.0000 C   0  0  0  0  0  0  0  0  0  0  0  0
   -5.3820    6.9382    0.0000 C   0  0  0  0  0  0  0  0  0  0  0  0
   -0.6592    5.0107    0.0000 C   0  0  0  0  0  0  0  0  0  0  0  0
   -6.0704    7.3763    0.0000 C   0  0  0  0  0  0  0  0  0  0  0  0
   -6.8213    7.0091    0.0000 C   0  0  0  0  0  0  0  0  0  0  0  0
  2  1  1  0  0  0  0
  3  2  1  0  0  0  0
  4  1  2  0  0  0  0
  5  4  1  0  0  0  0
  6  7  1  0  0  0  0
  7  8  1  0  0  0  0
  8  9  1  0  0  0  0
  9 11  1  0  0  0  0
 10  1  1  0  0  0  0
 11 10  1  0  0  0  0
 12  9  2  0  0  0  0
 13  6  1  0  0  0  0
 14  6  1  0  0  0  0
 15  6  1  0  0  0  0
 16  4  1  0  0  0  0
 17  2  1  0  0  0  0
 18  5  1  0  0  0  0
 19  7  2  0  0  0  0
 20  8  2  0  0  0  0
 21 16  1  0  0  0  0
 22 20  1  0  0  0  0
 23 22  2  0  0  0  0
  5  3  2  0  0  0  0
 21 18  1  0  0  0  0
 23 19  1  0  0  0  0
M  END
>  <IDNUMBER>
F6525-0009

>  <Chemical_Name>
N-({2-methyl-2H,4H,5H,6H-cyclopenta[c]pyrazol-3-yl}methyl)-2-(trifluoromethyl)benzamide

>  <PriceCoeff>
1.50

>  <CAS>
2034289-34-2

>  <MW>
323.31

>  <Description>
solid

>  <FSP3>
0.38

>  <clogP>
1.52

>  <TPSA>
46.92

>  <Acceptor>
2

>  <Donor>
1

>  <RotBonds>
3

>  <HAC>
23

>  <Collection>
Advanced

>  <PPDS>
+

$$$$
F6525-0151
  Mrv2219 10102508112D          

 22 24  0  0  0  0            999 V2000
   -2.5746    5.9797    0.0000 C   0  0  0  0  0  0  0  0  0  0  0  0
   -2.4494    6.8019    0.0000 N   0  0  0  0  0  0  0  0  0  0  0  0
   -1.6400    6.9146    0.0000 N   0  0  0  0  0  0  0  0  0  0  0  0
   -1.8528    5.6126    0.0000 C   0  0  0  0  0  0  0  0  0  0  0  0
   -1.2727    6.1968    0.0000 C   0  0  0  0  0  0  0  0  0  0  0  0
   -3.3133    5.6000    0.0000 C   0  0  0  0  0  0  0  0  0  0  0  0
   -4.7404    5.6626    0.0000 C   0  0  0  0  0  0  0  0  0  0  0  0
   -4.0143    6.0423    0.0000 N   0  0  0  0  0  0  0  0  0  0  0  0
   -4.7864    4.8365    0.0000 O   0  0  0  0  0  0  0  0  0  0  0  0
   -6.1634    5.7378    0.0000 C   0  0  0  0  0  0  0  0  0  0  0  0
   -5.4332    6.1133    0.0000 C   0  0  0  0  0  0  0  0  0  0  0  0
   -1.4855    4.8948    0.0000 C   0  0  0  0  0  0  0  0  0  0  0  0
   -6.2093    4.9116    0.0000 C   0  0  0  0  0  0  0  0  0  0  0  0
   -3.0128    7.4028    0.0000 C   0  0  0  0  0  0  0  0  0  0  0  0
   -6.9396    4.5318    0.0000 C   0  0  0  0  0  0  0  0  0  0  0  0
   -0.5509    5.8254    0.0000 C   0  0  0  0  0  0  0  0  0  0  0  0
   -6.9605    3.7098    0.0000 O   0  0  0  0  0  0  0  0  0  0  0  0
   -0.6593    5.0200    0.0000 C   0  0  0  0  0  0  0  0  0  0  0  0
   -7.6031    5.8129    0.0000 C   0  0  0  0  0  0  0  0  0  0  0  0
   -6.8686    6.1885    0.0000 C   0  0  0  0  0  0  0  0  0  0  0  0
   -7.6532    4.9867    0.0000 C   0  0  0  0  0  0  0  0  0  0  0  0
   -6.2511    3.2799    0.0000 C   0  0  0  0  0  0  0  0  0  0  0  0
  2  1  1  0  0  0  0
  3  2  1  0  0  0  0
  4  1  2  0  0  0  0
  5  4  1  0  0  0  0
  6  1  1  0  0  0  0
  7  8  1  0  0  0  0
  8  6  1  0  0  0  0
  9  7  2  0  0  0  0
 10 11  1  0  0  0  0
 11  7  1  0  0  0  0
 12  4  1  0  0  0  0
 13 10  1  0  0  0  0
 14  2  1  0  0  0  0
 15 13  2  0  0  0  0
 16  5  1  0  0  0  0
 17 15  1  0  0  0  0
 18 12  1  0  0  0  0
 19 20  1  0  0  0  0
 20 10  2  0  0  0  0
 21 19  2  0  0  0  0
 22 17  1  0  0  0  0
  5  3  2  0  0  0  0
 18 16  1  0  0  0  0
 15 21  1  0  0  0  0
M  END
>  <IDNUMBER>
F6525-0151

>  <Chemical_Name>
2-(3-methoxyphenyl)-N-({2-methyl-2H,4H,5H,6H-cyclopenta[c]pyrazol-3-yl}methyl)acetamide

>  <PriceCoeff>
1.50

>  <CAS>
2034453-36-4

>  <MW>
299.37

>  <Description>
solid

>  <FSP3>
0.41

>  <clogP>
1.31

>  <TPSA>
56.15

>  <Acceptor>
3

>  <Donor>
1

>  <RotBonds>
5

>  <HAC>
22

>  <Collection>
Advanced

>  <PPDS>
+

$$$$
F6525-0198
  Mrv2219 10102508112D          

 24 26  0  0  0  0            999 V2000
   -3.5833    7.2042    0.0000 C   0  0  0  0  0  0  0  0  0  0  0  0
   -4.0708    7.8750    0.0000 N   0  0  0  0  0  0  0  0  0  0  0  0
   -3.5833    8.5417    0.0000 N   0  0  0  0  0  0  0  0  0  0  0  0
   -2.7958    7.4625    0.0000 C   0  0  0  0  0  0  0  0  0  0  0  0
   -2.7958    8.2875    0.0000 C   0  0  0  0  0  0  0  0  0  0  0  0
   -2.9875    4.4083    0.0000 C   0  0  0  0  0  0  0  0  0  0  0  0
   -4.3083    2.6750    0.0000 C   0  0  0  0  0  0  0  0  0  0  0  0
   -3.5375    5.0250    0.0000 C   0  0  0  0  0  0  0  0  0  0  0  0
   -3.2458    3.6333    0.0000 C   0  0  0  0  0  0  0  0  0  0  0  0
   -3.8375    6.4167    0.0000 C   0  0  0  0  0  0  0  0  0  0  0  0
   -4.0500    3.4583    0.0000 O   0  0  0  0  0  0  0  0  0  0  0  0
   -3.2833    5.8042    0.0000 N   0  0  0  0  0  0  0  0  0  0  0  0
   -4.3458    4.8542    0.0000 O   0  0  0  0  0  0  0  0  0  0  0  0
   -4.5583    1.8958    0.0000 F   0  0  0  0  0  0  0  0  0  0  0  0
   -5.0917    2.9333    0.0000 F   0  0  0  0  0  0  0  0  0  0  0  0
   -3.5208    2.4208    0.0000 F   0  0  0  0  0  0  0  0  0  0  0  0
   -2.0125    7.2042    0.0000 C   0  0  0  0  0  0  0  0  0  0  0  0
   -4.8958    7.8750    0.0000 C   0  0  0  0  0  0  0  0  0  0  0  0
   -2.0125    8.5417    0.0000 C   0  0  0  0  0  0  0  0  0  0  0  0
   -2.1833    4.5792    0.0000 C   0  0  0  0  0  0  0  0  0  0  0  0
   -2.6958    3.0208    0.0000 C   0  0  0  0  0  0  0  0  0  0  0  0
   -1.5250    7.8750    0.0000 C   0  0  0  0  0  0  0  0  0  0  0  0
   -1.6333    3.9792    0.0000 C   0  0  0  0  0  0  0  0  0  0  0  0
   -1.8833    3.1958    0.0000 C   0  0  0  0  0  0  0  0  0  0  0  0
  2  1  1  0  0  0  0
  3  2  1  0  0  0  0
  4  1  2  0  0  0  0
  5  4  1  0  0  0  0
  6  8  1  0  0  0  0
  7 11  1  0  0  0  0
  8 12  1  0  0  0  0
  9  6  1  0  0  0  0
 10  1  1  0  0  0  0
 11  9  1  0  0  0  0
 12 10  1  0  0  0  0
 13  8  2  0  0  0  0
 14  7  1  0  0  0  0
 15  7  1  0  0  0  0
 16  7  1  0  0  0  0
 17  4  1  0  0  0  0
 18  2  1  0  0  0  0
 19  5  1  0  0  0  0
 20  6  2  0  0  0  0
 21  9  2  0  0  0  0
 22 17  1  0  0  0  0
 23 20  1  0  0  0  0
 24 23  2  0  0  0  0
  5  3  2  0  0  0  0
 22 19  1  0  0  0  0
 21 24  1  0  0  0  0
M  END
>  <IDNUMBER>
F6525-0198

>  <Chemical_Name>
N-({2-methyl-2H,4H,5H,6H-cyclopenta[c]pyrazol-3-yl}methyl)-2-(trifluoromethoxy)benzamide

>  <PriceCoeff>
1.50

>  <CAS>
2034602-69-0

>  <MW>
339.31

>  <Description>
solid

>  <FSP3>
0.38

>  <clogP>
2.74

>  <TPSA>
56.15

>  <Acceptor>
3

>  <Donor>
1

>  <RotBonds>
4

>  <HAC>
24

>  <Collection>
Advanced

>  <PPDS>
+

$$$$
F6525-0205
  Mrv2219 10102508112D          

 27 30  0  0  0  0            999 V2000
   -4.7828    4.8286    0.0000 C   0  0  0  0  0  0  0  0  0  0  0  0
   -2.5727    5.9712    0.0000 C   0  0  0  0  0  0  0  0  0  0  0  0
   -4.0864    4.3783    0.0000 N   0  0  0  0  0  0  0  0  0  0  0  0
   -5.4166    4.2949    0.0000 C   0  0  0  0  0  0  0  0  0  0  0  0
   -4.2990    3.5860    0.0000 N   0  0  0  0  0  0  0  0  0  0  0  0
   -2.4476    6.7968    0.0000 N   0  0  0  0  0  0  0  0  0  0  0  0
   -1.6387    6.9052    0.0000 N   0  0  0  0  0  0  0  0  0  0  0  0
   -1.8514    5.6084    0.0000 C   0  0  0  0  0  0  0  0  0  0  0  0
   -5.1163    3.5359    0.0000 C   0  0  0  0  0  0  0  0  0  0  0  0
   -1.2718    6.1838    0.0000 C   0  0  0  0  0  0  0  0  0  0  0  0
   -4.7368    5.6542    0.0000 C   0  0  0  0  0  0  0  0  0  0  0  0
   -3.3108    5.5917    0.0000 C   0  0  0  0  0  0  0  0  0  0  0  0
   -4.0030    6.0337    0.0000 N   0  0  0  0  0  0  0  0  0  0  0  0
   -5.5959    2.8646    0.0000 C   0  0  0  0  0  0  0  0  0  0  0  0
   -5.4291    6.1004    0.0000 O   0  0  0  0  0  0  0  0  0  0  0  0
   -6.4090    2.9480    0.0000 C   0  0  0  0  0  0  0  0  0  0  0  0
   -1.4844    4.8829    0.0000 C   0  0  0  0  0  0  0  0  0  0  0  0
   -3.3108    4.6952    0.0000 C   0  0  0  0  0  0  0  0  0  0  0  0
   -3.0106    7.3972    0.0000 C   0  0  0  0  0  0  0  0  0  0  0  0
   -6.8927    2.2725    0.0000 C   0  0  0  0  0  0  0  0  0  0  0  0
   -0.5504    5.8169    0.0000 C   0  0  0  0  0  0  0  0  0  0  0  0
   -7.7183    2.3518    0.0000 O   0  0  0  0  0  0  0  0  0  0  0  0
   -5.2414    2.1099    0.0000 C   0  0  0  0  0  0  0  0  0  0  0  0
   -0.6588    5.0080    0.0000 C   0  0  0  0  0  0  0  0  0  0  0  0
   -5.7251    1.4386    0.0000 C   0  0  0  0  0  0  0  0  0  0  0  0
   -6.5382    1.5136    0.0000 C   0  0  0  0  0  0  0  0  0  0  0  0
   -8.1978    1.6846    0.0000 C   0  0  0  0  0  0  0  0  0  0  0  0
  2 12  1  0  0  0  0
  3  1  1  0  0  0  0
  4  1  2  0  0  0  0
  5  3  1  0  0  0  0
  6  2  1  0  0  0  0
  7  6  1  0  0  0  0
  8  2  2  0  0  0  0
  9  4  1  0  0  0  0
 10  8  1  0  0  0  0
 11  1  1  0  0  0  0
 12 13  1  0  0  0  0
 13 11  1  0  0  0  0
 14  9  1  0  0  0  0
 15 11  2  0  0  0  0
 16 14  2  0  0  0  0
 17  8  1  0  0  0  0
 18  3  1  0  0  0  0
 19  6  1  0  0  0  0
 20 16  1  0  0  0  0
 21 10  1  0  0  0  0
 22 20  1  0  0  0  0
 23 14  1  0  0  0  0
 24 17  1  0  0  0  0
 25 23  2  0  0  0  0
 26 25  1  0  0  0  0
 27 22  1  0  0  0  0
  5  9  2  0  0  0  0
 10  7  2  0  0  0  0
 26 20  2  0  0  0  0
 24 21  1  0  0  0  0
M  END
>  <IDNUMBER>
F6525-0205

>  <Chemical_Name>
3-(3-methoxyphenyl)-1-methyl-N-({2-methyl-2H,4H,5H,6H-cyclopenta[c]pyrazol-3-yl}methyl)-1H-pyrazole-5-carboxamide

>  <PriceCoeff>
1.00

>  <CAS>
2034552-15-1

>  <MW>
365.43

>  <Description>
solid

>  <FSP3>
0.35

>  <clogP>
2.06

>  <TPSA>
73.97

>  <Acceptor>
4

>  <Donor>
1

>  <RotBonds>
5

>  <HAC>
27

>  <Collection>
General

>  <PPDS>
+

$$$$
F6525-0231
  Mrv2219 10102508112D          

 21 23  0  0  0  0            999 V2000
   -2.5743    5.9708    0.0000 C   0  0  0  0  0  0  0  0  0  0  0  0
   -2.4408    6.7885    0.0000 N   0  0  0  0  0  0  0  0  0  0  0  0
   -1.6398    6.9012    0.0000 N   0  0  0  0  0  0  0  0  0  0  0  0
   -1.8484    5.5994    0.0000 C   0  0  0  0  0  0  0  0  0  0  0  0
   -1.2725    6.1836    0.0000 C   0  0  0  0  0  0  0  0  0  0  0  0
   -4.7316    5.6495    0.0000 C   0  0  0  0  0  0  0  0  0  0  0  0
   -5.4283    6.1002    0.0000 C   0  0  0  0  0  0  0  0  0  0  0  0
   -3.3046    5.5869    0.0000 C   0  0  0  0  0  0  0  0  0  0  0  0
   -4.0013    6.0334    0.0000 N   0  0  0  0  0  0  0  0  0  0  0  0
   -5.3782    6.9262    0.0000 C   0  0  0  0  0  0  0  0  0  0  0  0
   -6.1502    5.7246    0.0000 C   0  0  0  0  0  0  0  0  0  0  0  0
   -4.7774    4.8234    0.0000 O   0  0  0  0  0  0  0  0  0  0  0  0
   -6.8511    6.1753    0.0000 C   0  0  0  0  0  0  0  0  0  0  0  0
   -6.0626    7.3769    0.0000 C   0  0  0  0  0  0  0  0  0  0  0  0
   -6.8136    7.0014    0.0000 C   0  0  0  0  0  0  0  0  0  0  0  0
   -1.4770    4.8818    0.0000 C   0  0  0  0  0  0  0  0  0  0  0  0
   -3.0042    7.3894    0.0000 C   0  0  0  0  0  0  0  0  0  0  0  0
   -0.5508    5.8122    0.0000 C   0  0  0  0  0  0  0  0  0  0  0  0
   -0.6593    5.0112    0.0000 C   0  0  0  0  0  0  0  0  0  0  0  0
   -6.0125    8.1988    0.0000 C   0  0  0  0  0  0  0  0  0  0  0  0
   -7.6022    5.8122    0.0000 C   0  0  0  0  0  0  0  0  0  0  0  0
  2  1  1  0  0  0  0
  3  2  1  0  0  0  0
  4  1  2  0  0  0  0
  5  4  1  0  0  0  0
  6  9  1  0  0  0  0
  7  6  1  0  0  0  0
  8  1  1  0  0  0  0
  9  8  1  0  0  0  0
 10  7  2  0  0  0  0
 11  7  1  0  0  0  0
 12  6  2  0  0  0  0
 13 11  2  0  0  0  0
 14 10  1  0  0  0  0
 15 13  1  0  0  0  0
 16  4  1  0  0  0  0
 17  2  1  0  0  0  0
 18  5  1  0  0  0  0
 19 16  1  0  0  0  0
 20 14  1  0  0  0  0
 21 13  1  0  0  0  0
  5  3  2  0  0  0  0
 19 18  1  0  0  0  0
 15 14  2  0  0  0  0
M  END
>  <IDNUMBER>
F6525-0231

>  <Chemical_Name>
3,5-dimethyl-N-({2-methyl-2H,4H,5H,6H-cyclopenta[c]pyrazol-3-yl}methyl)benzamide

>  <PriceCoeff>
1.50

>  <CAS>
2034602-79-2

>  <MW>
283.37

>  <Description>
solid

>  <FSP3>
0.41

>  <clogP>
2.50

>  <TPSA>
46.92

>  <Acceptor>
2

>  <Donor>
1

>  <RotBonds>
3

>  <HAC>
21

>  <Collection>
Advanced

>  <PPDS>
+

$$$$
F6541-1260
  Mrv2219 10102508112D          

 14 13  0  0  0  0            999 V2000
    1.5293    0.0378    0.0000 N   0  0  0  0  0  0  0  0  0  0  0  0
    4.1377   -1.1272    0.0000 N   0  0  0  0  0  0  0  0  0  0  0  0
    2.0139   -0.6324    0.0000 C   0  0  0  0  0  0  0  0  0  0  0  0
    2.8386   -0.5465    0.0000 C   0  0  0  0  0  0  0  0  0  0  0  0
    3.3232   -1.2165    0.0000 C   0  0  0  0  0  0  0  0  0  0  0  0
    1.7871    0.8247    0.0000 C   0  0  0  0  0  0  0  0  0  0  0  0
    0.7046    0.0378    0.0000 C   0  0  0  0  0  0  0  0  0  0  0  0
    4.4744   -0.3746    0.0000 C   0  0  0  0  0  0  0  0  0  0  0  0
    3.1686    0.2062    0.0000 C   0  0  0  0  0  0  0  0  0  0  0  0
    3.9933    0.2955    0.0000 C   0  0  0  0  0  0  0  0  0  0  0  0
    1.1169    1.3059    0.0000 C   0  0  0  0  0  0  0  0  0  0  0  0
    0.4468    0.8247    0.0000 C   0  0  0  0  0  0  0  0  0  0  0  0
    5.6291    0.4881    0.0000 Cl  0  0  0  0  0  0  0  0  0  0  0  0
    5.7322   -0.4056    0.0000 Cl  0  0  0  0  0  0  0  0  0  0  0  0
  4  3  1  0  0  0  0
  5  4  2  0  0  0  0
  6  1  1  0  0  0  0
  7  1  1  0  0  0  0
  8 10  1  0  0  0  0
  9  4  1  0  0  0  0
 10  9  2  0  0  0  0
 11  6  1  0  0  0  0
 12  7  1  0  0  0  0
 11 12  1  0  0  0  0
  2  8  2  0  0  0  0
  2  5  1  0  0  0  0
  3  1  1  0  0  0  0
M  END
>  <IDNUMBER>
F6541-1260

>  <Chemical_Name>
3-[(pyrrolidin-1-yl)methyl]pyridine dihydrochloride

>  <PriceCoeff>
1.50

>  <CAS>
2034456-53-4

>  <MW>
162.24

>  <Description>
solid

>  <FSP3>
0.50

>  <clogP>
1.11

>  <TPSA>
16.13

>  <Acceptor>
1

>  <Donor>
2

>  <RotBonds>
2

>  <HAC>
12

>  <Collection>
Advanced

>  <PPDS>
+

$$$$
F6541-2777
  Mrv2219 10102508112D          

 16 18  0  0  0  0            999 V2000
    2.5094   -0.5810    0.0000 C   0  0  0  0  0  0  0  0  0  0  0  0
    2.9219   -1.8563    0.0000 N   0  0  0  0  0  0  0  0  0  0  0  0
    3.1797   -1.0725    0.0000 C   0  0  0  0  0  0  0  0  0  0  0  0
    3.2278    0.6600    0.0000 C   0  0  0  0  0  0  0  0  0  0  0  0
    1.8459   -1.0657    0.0000 C   0  0  0  0  0  0  0  0  0  0  0  0
    2.5094    0.2440    0.0000 C   0  0  0  0  0  0  0  0  0  0  0  0
    2.5162    1.8975    0.0000 C   0  0  0  0  0  0  0  0  0  0  0  0
    3.2278    1.4850    0.0000 N   0  0  0  0  0  0  0  0  0  0  0  0
    2.0866   -1.8494    0.0000 C   0  0  0  0  0  0  0  0  0  0  0  0
    2.1037    2.6159    0.0000 C   0  0  0  0  0  0  0  0  0  0  0  0
    1.6912    1.8975    0.0000 C   0  0  0  0  0  0  0  0  0  0  0  0
    3.9394    0.2475    0.0000 O   0  0  0  0  0  0  0  0  0  0  0  0
    1.0347   -0.8800    0.0000 C   0  0  0  0  0  0  0  0  0  0  0  0
    1.5297   -2.4578    0.0000 C   0  0  0  0  0  0  0  0  0  0  0  0
    0.4778   -1.4885    0.0000 C   0  0  0  0  0  0  0  0  0  0  0  0
    0.7322   -2.2825    0.0000 C   0  0  0  0  0  0  0  0  0  0  0  0
  2  3  1  0  0  0  0
  3  1  2  0  0  0  0
  4  6  1  0  0  0  0
  5  1  1  0  0  0  0
  6  1  1  0  0  0  0
  7  8  1  0  0  0  0
  8  4  1  0  0  0  0
  9  5  2  0  0  0  0
 10  7  1  0  0  0  0
 11  7  1  0  0  0  0
 12  4  2  0  0  0  0
 13  5  1  0  0  0  0
 14  9  1  0  0  0  0
 15 13  2  0  0  0  0
 16 15  1  0  0  0  0
  2  9  1  0  0  0  0
 16 14  2  0  0  0  0
 10 11  1  0  0  0  0
M  END
>  <IDNUMBER>
F6541-2777

>  <Chemical_Name>
N-cyclopropyl-2-(1H-indol-3-yl)acetamide

>  <PriceCoeff>
1.50

>  <CAS>
1090398-82-5

>  <MW>
214.27

>  <Description>
solid

>  <FSP3>
0.31

>  <clogP>
1.59

>  <TPSA>
44.89

>  <Acceptor>
1

>  <Donor>
2

>  <RotBonds>
3

>  <HAC>
16

>  <Collection>
Advanced

>  <PPDS>
+

$$$$
F6545-0067
  Mrv2219 10102508112D          

 15 16  0  0  0  0            999 V2000
    1.5538   -0.6546    0.0000 N   0  0  0  0  0  0  0  0  0  0  0  0
    2.0396   -1.3230    0.0000 C   0  0  0  0  0  0  0  0  0  0  0  0
    1.8087    0.1412    0.0000 C   0  0  0  0  0  0  0  0  0  0  0  0
    1.1404    0.6201    0.0000 C   0  0  0  0  0  0  0  0  0  0  0  0
    0.7270   -0.6546    0.0000 C   0  0  0  0  0  0  0  0  0  0  0  0
    1.1404    1.4470    0.0000 C   0  0  0  0  0  0  0  0  0  0  0  0
    1.7054   -2.0776    0.0000 O   0  0  0  0  0  0  0  0  0  0  0  0
    0.4686    0.1412    0.0000 C   0  0  0  0  0  0  0  0  0  0  0  0
    2.8630   -1.2335    0.0000 C   0  0  0  0  0  0  0  0  0  0  0  0
    1.8536    1.8604    0.0000 O   0  0  0  0  0  0  0  0  0  0  0  0
    0.4272    1.8569    0.0000 C   0  0  0  0  0  0  0  0  0  0  0  0
    3.4211   -1.8536    0.0000 C   0  0  0  0  0  0  0  0  0  0  0  0
    3.2764   -0.5202    0.0000 C   0  0  0  0  0  0  0  0  0  0  0  0
    4.0930   -0.6960    0.0000 C   0  0  0  0  0  0  0  0  0  0  0  0
    4.1688   -1.5125    0.0000 C   0  0  0  0  0  0  0  0  0  0  0  0
  2  1  1  0  0  0  0
  3  1  1  0  0  0  0
  4  3  1  0  0  0  0
  5  1  1  0  0  0  0
  6  4  1  0  0  0  0
  7  2  2  0  0  0  0
  8  5  1  0  0  0  0
  9  2  1  0  0  0  0
 10  6  2  0  0  0  0
 11  6  1  0  0  0  0
 12  9  1  0  0  0  0
 13  9  1  0  0  0  0
 14 13  1  0  0  0  0
 15 12  1  0  0  0  0
  4  8  1  0  0  0  0
 15 14  1  0  0  0  0
M  END
>  <IDNUMBER>
F6545-0067

>  <Chemical_Name>
1-(1-cyclopentanecarbonylpyrrolidin-3-yl)ethan-1-one

>  <PriceCoeff>
1.50

>  <CAS>
2034355-25-2

>  <MW>
209.28

>  <Description>
liquid

>  <FSP3>
0.83

>  <clogP>
0.61

>  <TPSA>
37.38

>  <Acceptor>
2

>  <Donor>
0

>  <RotBonds>
3

>  <HAC>
15

>  <Collection>
Advanced

>  <PPDS>
+

$$$$
F6546-1184
  Mrv2219 10102508112D          

 14 16  0  0  0  0            999 V2000
   -3.2024    4.2630    0.0000 N   0  0  0  0  0  0  0  0  0  0  0  0
   -3.9289    3.8663    0.0000 C   0  0  0  0  0  0  0  0  0  0  0  0
   -2.5887    4.7265    0.0000 C   0  0  0  0  0  0  0  0  0  0  0  0
   -1.8914    4.8225    0.0000 C   0  0  0  0  0  0  0  0  0  0  0  0
   -3.2066    1.7745    0.0000 N   0  0  0  0  0  0  0  0  0  0  0  0
   -3.9289    3.0271    0.0000 C   0  0  0  0  0  0  0  0  0  0  0  0
   -1.2526    4.3256    0.0000 C   0  0  0  0  0  0  0  0  0  0  0  0
   -1.9498    4.3632    0.0000 C   0  0  0  0  0  0  0  0  0  0  0  0
   -1.8747    5.5782    0.0000 C   0  0  0  0  0  0  0  0  0  0  0  0
   -2.5135    5.5740    0.0000 C   0  0  0  0  0  0  0  0  0  0  0  0
   -3.2066    2.6137    0.0000 C   0  0  0  0  0  0  0  0  0  0  0  0
   -3.9289    1.3528    0.0000 C   0  0  0  0  0  0  0  0  0  0  0  0
   -4.6429    2.6137    0.0000 C   0  0  0  0  0  0  0  0  0  0  0  0
   -4.6429    1.7745    0.0000 C   0  0  0  0  0  0  0  0  0  0  0  0
  2  1  1  0  0  0  0
  3  1  1  0  0  0  0
  4  1  1  0  0  0  0
  5 11  1  0  0  0  0
  6  2  1  0  0  0  0
  7  4  1  0  0  0  0
  8  3  1  0  0  0  0
  9  4  1  0  0  0  0
 10  3  1  0  0  0  0
 11  6  2  0  0  0  0
 12 14  1  0  0  0  0
 13  6  1  0  0  0  0
 14 13  2  0  0  0  0
 10  9  1  0  0  0  0
  7  8  1  0  0  0  0
 12  5  2  0  0  0  0
M  END
>  <IDNUMBER>
F6546-1184

>  <Chemical_Name>
7-[(pyridin-3-yl)methyl]-7-azabicyclo[2.2.1]heptane

>  <PriceCoeff>
1.50

>  <CAS>
445387-35-9

>  <MW>
188.26

>  <Description>
oil

>  <FSP3>
0.58

>  <clogP>
1.42

>  <TPSA>
16.13

>  <Acceptor>
1

>  <Donor>
2

>  <RotBonds>
2

>  <HAC>
14

>  <Collection>
Advanced

>  <PPDS>
+

$$$$
F6561-4597
  Mrv2219 10102508112D          

 15 16  0  0  0  0            999 V2000
   -3.1810    4.2344    0.0000 N   0  0  0  0  0  0  0  0  0  0  0  0
   -2.3501    4.3687    0.0000 C   0  0  0  0  0  0  0  0  0  0  0  0
   -2.7278    4.8009    0.0000 C   0  0  0  0  0  0  0  0  0  0  0  0
   -3.8987    3.8274    0.0000 C   0  0  0  0  0  0  0  0  0  0  0  0
   -1.9010    5.8837    0.0000 C   0  0  0  0  0  0  0  0  0  0  0  0
   -2.7404    5.7452    0.0000 C   0  0  0  0  0  0  0  0  0  0  0  0
   -2.3375    5.3633    0.0000 C   0  0  0  0  0  0  0  0  0  0  0  0
   -2.0101    4.4610    0.0000 C   0  0  0  0  0  0  0  0  0  0  0  0
   -1.6324    3.8357    0.0000 C   0  0  0  0  0  0  0  0  0  0  0  0
   -4.6162    4.2344    0.0000 O   0  0  0  0  0  0  0  0  0  0  0  0
   -1.1792    6.2992    0.0000 C   0  0  0  0  0  0  0  0  0  0  0  0
   -4.6162    1.7500    0.0000 C   0  0  0  0  0  0  0  0  0  0  0  0
   -5.3256    1.3429    0.0000 C   0  0  0  0  0  0  0  0  0  0  0  0
   -3.8987    3.0047    0.0000 C   0  0  0  0  0  0  0  0  0  0  0  0
   -4.6162    2.5978    0.0000 C   0  0  0  0  0  0  0  0  0  0  0  0
  2  1  1  0  0  0  0
  3  1  1  0  0  0  0
  4  1  1  0  0  0  0
  5  6  1  0  0  0  0
  6  3  1  0  0  0  0
  7  2  1  0  0  0  0
  8  3  1  0  0  0  0
  9  2  1  0  0  0  0
 10  4  2  0  0  0  0
 11  5  2  0  0  0  0
 12 15  1  0  0  0  0
 13 12  2  0  0  0  0
 14  4  1  0  0  0  0
 15 14  1  0  0  0  0
  9  8  1  0  0  0  0
  5  7  1  0  0  0  0
M  END
>  <IDNUMBER>
F6561-4597

>  <Chemical_Name>
1-{3-methylidene-8-azabicyclo[3.2.1]octan-8-yl}pent-4-en-1-one

>  <PriceCoeff>
1.00

>  <CAS>
2320574-48-7

>  <MW>
205.30

>  <Description>
liquid

>  <FSP3>
0.62

>  <clogP>
1.43

>  <TPSA>
20.31

>  <Acceptor>
1

>  <Donor>
0

>  <RotBonds>
4

>  <HAC>
15

>  <Collection>
General

>  <PPDS>
+

$$$$
F6572-1379
  Mrv2219 10102508112D          

 15 16  0  0  0  0            999 V2000
   -9.4979    6.2584    0.0000 N   0  0  0  0  0  0  0  0  0  0  0  0
   -8.7859    6.6873    0.0000 N   0  0  0  0  0  0  0  0  0  0  0  0
   -8.1696    6.1501    0.0000 N   0  0  0  0  0  0  0  0  0  0  0  0
   -9.2856    5.4506    0.0000 C   0  0  0  0  0  0  0  0  0  0  0  0
   -8.4611    5.3965    0.0000 C   0  0  0  0  0  0  0  0  0  0  0  0
  -10.2724    6.5374    0.0000 C   0  0  0  0  0  0  0  0  0  0  0  0
  -10.9220    6.0127    0.0000 C   0  0  0  0  0  0  0  0  0  0  0  0
   -8.0240    4.6886    0.0000 C   0  0  0  0  0  0  0  0  0  0  0  0
  -10.8095    5.1883    0.0000 Cl  0  0  0  0  0  0  0  0  0  0  0  0
  -10.4224    7.3618    0.0000 C   0  0  0  0  0  0  0  0  0  0  0  0
   -7.9615    3.2728    0.0000 O   0  0  0  0  0  0  0  0  0  0  0  0
   -8.3986    3.9682    0.0000 C   0  0  0  0  0  0  0  0  0  0  0  0
  -11.6840    6.3083    0.0000 C   0  0  0  0  0  0  0  0  0  0  0  0
  -11.1968    7.6450    0.0000 C   0  0  0  0  0  0  0  0  0  0  0  0
  -11.8296    7.1203    0.0000 C   0  0  0  0  0  0  0  0  0  0  0  0
  2  1  1  0  0  0  0
  3  2  2  0  0  0  0
  4  1  1  0  0  0  0
  5  4  2  0  0  0  0
  6  1  1  0  0  0  0
  7  6  1  0  0  0  0
  8  5  1  0  0  0  0
  9  7  1  0  0  0  0
 10  6  2  0  0  0  0
 11 12  1  0  0  0  0
 12  8  1  0  0  0  0
 13  7  2  0  0  0  0
 14 10  1  0  0  0  0
 15 14  2  0  0  0  0
  5  3  1  0  0  0  0
 15 13  1  0  0  0  0
M  END
>  <IDNUMBER>
F6572-1379

>  <Chemical_Name>
2-[1-(2-chlorophenyl)-1H-1,2,3-triazol-4-yl]ethan-1-ol

>  <PriceCoeff>
1.50

>  <CAS>
1006917-18-5

>  <MW>
223.66

>  <Description>
oil

>  <FSP3>
0.20

>  <clogP>
1.53

>  <TPSA>
50.94

>  <Acceptor>
3

>  <Donor>
1

>  <RotBonds>
3

>  <HAC>
15

>  <Collection>
Advanced

>  <PPDS>
+

$$$$
F6617-2074
  Mrv2219 10102508112D          

 15 17  0  0  0  0            999 V2000
   -8.7900    6.6904    0.0000 N   0  0  0  0  0  0  0  0  0  0  0  0
   -9.4982    6.2655    0.0000 N   0  0  0  0  0  0  0  0  0  0  0  0
   -8.4651    5.3907    0.0000 C   0  0  0  0  0  0  0  0  0  0  0  0
   -8.1526    6.1530    0.0000 N   0  0  0  0  0  0  0  0  0  0  0  0
   -9.2899    5.4532    0.0000 C   0  0  0  0  0  0  0  0  0  0  0  0
   -8.0027    4.7158    0.0000 C   0  0  0  0  0  0  0  0  0  0  0  0
   -7.9360    3.9076    0.0000 C   0  0  0  0  0  0  0  0  0  0  0  0
   -7.2486    4.3534    0.0000 C   0  0  0  0  0  0  0  0  0  0  0  0
  -10.2772    6.5405    0.0000 C   0  0  0  0  0  0  0  0  0  0  0  0
  -10.4272    7.3653    0.0000 C   0  0  0  0  0  0  0  0  0  0  0  0
  -10.9271    6.0156    0.0000 C   0  0  0  0  0  0  0  0  0  0  0  0
  -11.2021    7.6485    0.0000 C   0  0  0  0  0  0  0  0  0  0  0  0
  -11.6770    6.3155    0.0000 C   0  0  0  0  0  0  0  0  0  0  0  0
  -11.8145    7.1278    0.0000 C   0  0  0  0  0  0  0  0  0  0  0  0
  -12.5893    7.4278    0.0000 C   0  0  0  0  0  0  0  0  0  0  0  0
  2  1  1  0  0  0  0
  3  4  1  0  0  0  0
  4  1  2  0  0  0  0
  5  2  1  0  0  0  0
  6  3  1  0  0  0  0
  7  6  1  0  0  0  0
  8  6  1  0  0  0  0
  9  2  1  0  0  0  0
 10  9  2  0  0  0  0
 11  9  1  0  0  0  0
 12 10  1  0  0  0  0
 13 11  2  0  0  0  0
 14 13  1  0  0  0  0
 15 14  1  0  0  0  0
  3  5  2  0  0  0  0
  7  8  1  0  0  0  0
 14 12  2  0  0  0  0
M  END
>  <IDNUMBER>
F6617-2074

>  <Chemical_Name>
4-cyclopropyl-1-(4-methylphenyl)-1H-1,2,3-triazole

>  <PriceCoeff>
1.00

>  <CAS>
2195881-69-5

>  <MW>
199.25

>  <Description>
solid

>  <FSP3>
0.33

>  <clogP>
2.90

>  <TPSA>
30.71

>  <Acceptor>
2

>  <Donor>
0

>  <RotBonds>
2

>  <HAC>
15

>  <Collection>
General

$$$$
F6617-2177
  Mrv2219 10102508112D          

 14 15  0  0  0  0            999 V2000
   11.7189   -7.0113    0.0000 N   0  0  0  0  0  0  0  0  0  0  0  0
   11.0077   -7.4397    0.0000 N   0  0  0  0  0  0  0  0  0  0  0  0
   12.3302   -7.5645    0.0000 N   0  0  0  0  0  0  0  0  0  0  0  0
   12.0016   -8.3005    0.0000 C   0  0  0  0  0  0  0  0  0  0  0  0
   11.1949   -8.2381    0.0000 C   0  0  0  0  0  0  0  0  0  0  0  0
   10.2425   -7.1486    0.0000 C   0  0  0  0  0  0  0  0  0  0  0  0
   12.4133   -9.0324    0.0000 C   0  0  0  0  0  0  0  0  0  0  0  0
   10.0970   -6.3294    0.0000 C   0  0  0  0  0  0  0  0  0  0  0  0
    9.5980   -7.6643    0.0000 C   0  0  0  0  0  0  0  0  0  0  0  0
   12.0016   -9.7477    0.0000 C   0  0  0  0  0  0  0  0  0  0  0  0
   13.2409   -9.0324    0.0000 C   0  0  0  0  0  0  0  0  0  0  0  0
    9.3235   -6.0424    0.0000 C   0  0  0  0  0  0  0  0  0  0  0  0
    8.8370   -7.3731    0.0000 C   0  0  0  0  0  0  0  0  0  0  0  0
    8.6955   -6.5664    0.0000 C   0  0  0  0  0  0  0  0  0  0  0  0
  2  1  1  0  0  0  0
  3  1  2  0  0  0  0
  4  3  1  0  0  0  0
  5  2  1  0  0  0  0
  6  2  1  0  0  0  0
  7  4  1  0  0  0  0
  8  6  2  0  0  0  0
  9  6  1  0  0  0  0
 10  7  1  0  0  0  0
 11  7  1  0  0  0  0
 12  8  1  0  0  0  0
 13  9  2  0  0  0  0
 14 13  1  0  0  0  0
  4  5  2  0  0  0  0
 12 14  2  0  0  0  0
M  END
>  <IDNUMBER>
F6617-2177

>  <Chemical_Name>
1-phenyl-4-(propan-2-yl)-1H-1,2,3-triazole

>  <PriceCoeff>
1.00

>  <CAS>
859791-75-6

>  <MW>
187.24

>  <Description>
oil

>  <FSP3>
0.27

>  <clogP>
2.89

>  <TPSA>
30.71

>  <Acceptor>
2

>  <Donor>
0

>  <RotBonds>
2

>  <HAC>
14

>  <Collection>
General

>  <PPDS>
+

$$$$
F6617-2213
  Mrv2219 10102508112D          

 13 14  0  0  0  0            999 V2000
   -1.4492   -4.9015    0.0000 N   0  0  0  0  0  0  0  0  0  0  0  0
   -2.2738   -4.9015    0.0000 C   0  0  0  0  0  0  0  0  0  0  0  0
   -1.8615   -3.6272    0.0000 N   0  0  0  0  0  0  0  0  0  0  0  0
   -2.5319   -4.1145    0.0000 O   0  0  0  0  0  0  0  0  0  0  0  0
   -1.1951   -4.1145    0.0000 C   0  0  0  0  0  0  0  0  0  0  0  0
   -2.7610   -5.5637    0.0000 C   0  0  0  0  0  0  0  0  0  0  0  0
   -2.9109   -6.9879    0.0000 N   0  0  0  0  0  0  0  0  0  0  0  0
   -2.4237   -6.3215    0.0000 C   0  0  0  0  0  0  0  0  0  0  0  0
   -3.5813   -5.4762    0.0000 C   0  0  0  0  0  0  0  0  0  0  0  0
   -3.7313   -6.9087    0.0000 C   0  0  0  0  0  0  0  0  0  0  0  0
   -4.0686   -6.1508    0.0000 C   0  0  0  0  0  0  0  0  0  0  0  0
   -0.4123   -3.8646    0.0000 C   0  0  0  0  0  0  0  0  0  0  0  0
   -4.2185   -7.5709    0.0000 C   0  0  0  0  0  0  0  0  0  0  0  0
  2  1  2  0  0  0  0
  3  5  2  0  0  0  0
  4  2  1  0  0  0  0
  5  1  1  0  0  0  0
  6  2  1  0  0  0  0
  7  8  1  0  0  0  0
  8  6  2  0  0  0  0
  9  6  1  0  0  0  0
 10 11  1  0  0  0  0
 11  9  2  0  0  0  0
 12  5  1  0  0  0  0
 13 10  1  0  0  0  0
  4  3  1  0  0  0  0
  7 10  2  0  0  0  0
M  END
>  <IDNUMBER>
F6617-2213

>  <Chemical_Name>
2-methyl-5-(3-methyl-1,2,4-oxadiazol-5-yl)pyridine

>  <PriceCoeff>
1.00

>  <CAS>
1860966-01-3

>  <MW>
175.19

>  <Description>
solid

>  <FSP3>
0.22

>  <clogP>
0.96

>  <TPSA>
51.81

>  <Acceptor>
4

>  <Donor>
1

>  <RotBonds>
1

>  <HAC>
13

>  <Collection>
General

>  <PPDS>
+

$$$$
F6617-2225
  Mrv2219 10102508112D          

 13 14  0  0  0  0            999 V2000
   -1.4504   -4.9138    0.0000 N   0  0  0  0  0  0  0  0  0  0  0  0
   -2.2839   -4.9138    0.0000 C   0  0  0  0  0  0  0  0  0  0  0  0
   -1.8713   -3.6384    0.0000 N   0  0  0  0  0  0  0  0  0  0  0  0
   -2.7715   -5.5806    0.0000 C   0  0  0  0  0  0  0  0  0  0  0  0
   -2.5339   -4.1261    0.0000 O   0  0  0  0  0  0  0  0  0  0  0  0
   -1.1961   -4.1261    0.0000 C   0  0  0  0  0  0  0  0  0  0  0  0
   -4.0718   -6.1641    0.0000 N   0  0  0  0  0  0  0  0  0  0  0  0
   -2.4339   -6.3308    0.0000 C   0  0  0  0  0  0  0  0  0  0  0  0
   -3.5884   -5.4931    0.0000 C   0  0  0  0  0  0  0  0  0  0  0  0
   -2.9215   -7.0060    0.0000 C   0  0  0  0  0  0  0  0  0  0  0  0
   -2.5840   -7.7562    0.0000 F   0  0  0  0  0  0  0  0  0  0  0  0
   -3.7385   -6.9185    0.0000 C   0  0  0  0  0  0  0  0  0  0  0  0
   -0.4126   -3.8677    0.0000 C   0  0  0  0  0  0  0  0  0  0  0  0
  2  1  2  0  0  0  0
  3  6  2  0  0  0  0
  4  2  1  0  0  0  0
  5  2  1  0  0  0  0
  6  1  1  0  0  0  0
  7  9  2  0  0  0  0
  8  4  2  0  0  0  0
  9  4  1  0  0  0  0
 10  8  1  0  0  0  0
 11 10  1  0  0  0  0
 12  7  1  0  0  0  0
 13  6  1  0  0  0  0
  5  3  1  0  0  0  0
 10 12  2  0  0  0  0
M  END
>  <IDNUMBER>
F6617-2225

>  <Chemical_Name>
3-fluoro-5-(3-methyl-1,2,4-oxadiazol-5-yl)pyridine

>  <PriceCoeff>
1.50

>  <CAS>
1864357-27-6

>  <MW>
179.15

>  <Description>
solid

>  <FSP3>
0.12

>  <clogP>
0.64

>  <TPSA>
51.81

>  <Acceptor>
4

>  <Donor>
1

>  <RotBonds>
1

>  <HAC>
13

>  <Collection>
Advanced

>  <PPDS>
+

$$$$
F6617-2251
  Mrv2219 10102508112D          

 14 16  0  0  0  0            999 V2000
   -1.4496   -4.8987    0.0000 N   0  0  0  0  0  0  0  0  0  0  0  0
   -2.2743   -4.8987    0.0000 C   0  0  0  0  0  0  0  0  0  0  0  0
   -1.1954   -4.1156    0.0000 C   0  0  0  0  0  0  0  0  0  0  0  0
   -1.8620   -3.6282    0.0000 N   0  0  0  0  0  0  0  0  0  0  0  0
   -2.5325   -4.1156    0.0000 O   0  0  0  0  0  0  0  0  0  0  0  0
   -0.4081   -3.8614    0.0000 C   0  0  0  0  0  0  0  0  0  0  0  0
    0.1499   -3.2491    0.0000 C   0  0  0  0  0  0  0  0  0  0  0  0
    0.3998   -4.0281    0.0000 C   0  0  0  0  0  0  0  0  0  0  0  0
   -2.7618   -5.5651    0.0000 C   0  0  0  0  0  0  0  0  0  0  0  0
   -2.4243   -6.3149    0.0000 N   0  0  0  0  0  0  0  0  0  0  0  0
   -2.9117   -6.9856    0.0000 C   0  0  0  0  0  0  0  0  0  0  0  0
   -3.5824   -5.4776    0.0000 C   0  0  0  0  0  0  0  0  0  0  0  0
   -3.7323   -6.9023    0.0000 C   0  0  0  0  0  0  0  0  0  0  0  0
   -4.0614   -6.1483    0.0000 C   0  0  0  0  0  0  0  0  0  0  0  0
  2  1  2  0  0  0  0
  3  1  1  0  0  0  0
  4  3  2  0  0  0  0
  5  2  1  0  0  0  0
  6  3  1  0  0  0  0
  7  6  1  0  0  0  0
  8  6  1  0  0  0  0
  9  2  1  0  0  0  0
 10  9  1  0  0  0  0
 11 10  2  0  0  0  0
 12  9  2  0  0  0  0
 13 14  2  0  0  0  0
 14 12  1  0  0  0  0
  5  4  1  0  0  0  0
  7  8  1  0  0  0  0
 11 13  1  0  0  0  0
M  END
>  <IDNUMBER>
F6617-2251

>  <Chemical_Name>
2-(3-cyclopropyl-1,2,4-oxadiazol-5-yl)pyridine

>  <PriceCoeff>
1.50

>  <CAS>
2309708-27-6

>  <MW>
187.20

>  <Description>
solid

>  <FSP3>
0.30

>  <clogP>
1.11

>  <TPSA>
51.81

>  <Acceptor>
4

>  <Donor>
1

>  <RotBonds>
2

>  <HAC>
14

>  <Collection>
Advanced

>  <PPDS>
+

$$$$
F6617-2252
  Mrv2219 10102508112D          

 14 16  0  0  0  0            999 V2000
   -1.4501   -4.9064    0.0000 N   0  0  0  0  0  0  0  0  0  0  0  0
   -1.1911   -4.1165    0.0000 C   0  0  0  0  0  0  0  0  0  0  0  0
   -2.2776   -4.9064    0.0000 C   0  0  0  0  0  0  0  0  0  0  0  0
   -1.8639   -3.6275    0.0000 N   0  0  0  0  0  0  0  0  0  0  0  0
   -2.5326   -4.1165    0.0000 O   0  0  0  0  0  0  0  0  0  0  0  0
   -0.4095   -3.8658    0.0000 C   0  0  0  0  0  0  0  0  0  0  0  0
    0.1504   -3.2514    0.0000 C   0  0  0  0  0  0  0  0  0  0  0  0
    0.4012   -4.0287    0.0000 C   0  0  0  0  0  0  0  0  0  0  0  0
   -2.7666   -5.5709    0.0000 C   0  0  0  0  0  0  0  0  0  0  0  0
   -3.7320   -6.9124    0.0000 N   0  0  0  0  0  0  0  0  0  0  0  0
   -4.0705   -6.1601    0.0000 C   0  0  0  0  0  0  0  0  0  0  0  0
   -2.9170   -7.0001    0.0000 C   0  0  0  0  0  0  0  0  0  0  0  0
   -3.5815   -5.4831    0.0000 C   0  0  0  0  0  0  0  0  0  0  0  0
   -2.4281   -6.3231    0.0000 C   0  0  0  0  0  0  0  0  0  0  0  0
  2  1  1  0  0  0  0
  3  1  2  0  0  0  0
  4  2  2  0  0  0  0
  5  3  1  0  0  0  0
  6  2  1  0  0  0  0
  7  6  1  0  0  0  0
  8  6  1  0  0  0  0
  9  3  1  0  0  0  0
 10 12  2  0  0  0  0
 11 13  2  0  0  0  0
 12 14  1  0  0  0  0
 13  9  1  0  0  0  0
 14  9  2  0  0  0  0
  4  5  1  0  0  0  0
  7  8  1  0  0  0  0
 11 10  1  0  0  0  0
M  END
>  <IDNUMBER>
F6617-2252

>  <Chemical_Name>
4-(3-cyclopropyl-1,2,4-oxadiazol-5-yl)pyridine

>  <PriceCoeff>
1.50

>  <CAS>
22926-76-7

>  <MW>
187.20

>  <Description>
solid

>  <FSP3>
0.30

>  <clogP>
0.90

>  <TPSA>
51.81

>  <Acceptor>
4

>  <Donor>
1

>  <RotBonds>
2

>  <HAC>
14

>  <Collection>
Advanced

>  <PPDS>
+

$$$$
F6617-2260
  Mrv2219 10102508112D          

 14 16  0  0  0  0            999 V2000
   -1.4496   -4.8987    0.0000 N   0  0  0  0  0  0  0  0  0  0  0  0
   -1.1954   -4.1156    0.0000 C   0  0  0  0  0  0  0  0  0  0  0  0
   -2.2743   -4.8987    0.0000 C   0  0  0  0  0  0  0  0  0  0  0  0
   -1.8620   -3.6282    0.0000 N   0  0  0  0  0  0  0  0  0  0  0  0
   -2.5325   -4.1156    0.0000 O   0  0  0  0  0  0  0  0  0  0  0  0
   -0.4081   -3.8614    0.0000 C   0  0  0  0  0  0  0  0  0  0  0  0
   -2.7618   -5.5651    0.0000 C   0  0  0  0  0  0  0  0  0  0  0  0
    0.1499   -3.2491    0.0000 C   0  0  0  0  0  0  0  0  0  0  0  0
    0.3998   -4.0281    0.0000 C   0  0  0  0  0  0  0  0  0  0  0  0
   -2.9117   -6.9856    0.0000 N   0  0  0  0  0  0  0  0  0  0  0  0
   -2.4243   -6.3149    0.0000 C   0  0  0  0  0  0  0  0  0  0  0  0
   -3.5824   -5.4776    0.0000 C   0  0  0  0  0  0  0  0  0  0  0  0
   -3.7323   -6.9023    0.0000 C   0  0  0  0  0  0  0  0  0  0  0  0
   -4.0614   -6.1483    0.0000 C   0  0  0  0  0  0  0  0  0  0  0  0
  2  1  1  0  0  0  0
  3  1  2  0  0  0  0
  4  2  2  0  0  0  0
  5  3  1  0  0  0  0
  6  2  1  0  0  0  0
  7  3  1  0  0  0  0
  8  6  1  0  0  0  0
  9  6  1  0  0  0  0
 10 11  1  0  0  0  0
 11  7  2  0  0  0  0
 12  7  1  0  0  0  0
 13 14  1  0  0  0  0
 14 12  2  0  0  0  0
  4  5  1  0  0  0  0
  8  9  1  0  0  0  0
 10 13  2  0  0  0  0
M  END
>  <IDNUMBER>
F6617-2260

>  <Chemical_Name>
3-(3-cyclopropyl-1,2,4-oxadiazol-5-yl)pyridine

>  <PriceCoeff>
1.50

>  <CAS>
2380169-40-2

>  <MW>
187.20

>  <Description>
oil

>  <FSP3>
0.30

>  <clogP>
0.90

>  <TPSA>
51.81

>  <Acceptor>
4

>  <Donor>
1

>  <RotBonds>
2

>  <HAC>
14

>  <Collection>
Advanced

>  <PPDS>
+

$$$$
F6617-2271
  Mrv2219 10102508112D          

 14 15  0  0  0  0            999 V2000
   -1.4500   -4.9000    0.0000 N   0  0  0  0  0  0  0  0  0  0  0  0
   -2.2750   -4.9000    0.0000 C   0  0  0  0  0  0  0  0  0  0  0  0
   -1.1958   -4.1167    0.0000 C   0  0  0  0  0  0  0  0  0  0  0  0
   -1.8625   -3.6292    0.0000 N   0  0  0  0  0  0  0  0  0  0  0  0
   -2.5333   -4.1167    0.0000 O   0  0  0  0  0  0  0  0  0  0  0  0
   -2.7625   -5.5667    0.0000 C   0  0  0  0  0  0  0  0  0  0  0  0
   -2.4250   -6.3167    0.0000 N   0  0  0  0  0  0  0  0  0  0  0  0
   -0.4083   -3.8625    0.0000 C   0  0  0  0  0  0  0  0  0  0  0  0
   -2.9125   -6.9875    0.0000 C   0  0  0  0  0  0  0  0  0  0  0  0
   -3.5833   -5.4792    0.0000 C   0  0  0  0  0  0  0  0  0  0  0  0
    0.2000   -4.4125    0.0000 C   0  0  0  0  0  0  0  0  0  0  0  0
   -0.2333   -3.0542    0.0000 C   0  0  0  0  0  0  0  0  0  0  0  0
   -3.7333   -6.9042    0.0000 C   0  0  0  0  0  0  0  0  0  0  0  0
   -4.0625   -6.1500    0.0000 C   0  0  0  0  0  0  0  0  0  0  0  0
  2  1  2  0  0  0  0
  3  1  1  0  0  0  0
  4  3  2  0  0  0  0
  5  2  1  0  0  0  0
  6  2  1  0  0  0  0
  7  6  1  0  0  0  0
  8  3  1  0  0  0  0
  9  7  2  0  0  0  0
 10  6  2  0  0  0  0
 11  8  1  0  0  0  0
 12  8  1  0  0  0  0
 13 14  2  0  0  0  0
 14 10  1  0  0  0  0
  5  4  1  0  0  0  0
  9 13  1  0  0  0  0
M  END
>  <IDNUMBER>
F6617-2271

>  <Chemical_Name>
2-[3-(propan-2-yl)-1,2,4-oxadiazol-5-yl]pyridine

>  <PriceCoeff>
1.50

>  <CAS>
2379949-36-5

>  <MW>
189.21

>  <Description>
liquid

>  <FSP3>
0.30

>  <clogP>
1.60

>  <TPSA>
51.81

>  <Acceptor>
4

>  <Donor>
1

>  <RotBonds>
2

>  <HAC>
14

>  <Collection>
Advanced

>  <PPDS>
+

$$$$
F6617-2272
  Mrv2219 10102508112D          

 14 15  0  0  0  0            999 V2000
   -1.4485   -4.8992    0.0000 N   0  0  0  0  0  0  0  0  0  0  0  0
   -1.1946   -4.1125    0.0000 C   0  0  0  0  0  0  0  0  0  0  0  0
   -2.2727   -4.8992    0.0000 C   0  0  0  0  0  0  0  0  0  0  0  0
   -1.8606   -3.6255    0.0000 N   0  0  0  0  0  0  0  0  0  0  0  0
   -2.5307   -4.1125    0.0000 O   0  0  0  0  0  0  0  0  0  0  0  0
   -2.7597   -5.5610    0.0000 C   0  0  0  0  0  0  0  0  0  0  0  0
   -3.7295   -6.8972    0.0000 N   0  0  0  0  0  0  0  0  0  0  0  0
   -0.4078   -3.8586    0.0000 C   0  0  0  0  0  0  0  0  0  0  0  0
   -4.0584   -6.1479    0.0000 C   0  0  0  0  0  0  0  0  0  0  0  0
   -2.9096   -6.9846    0.0000 C   0  0  0  0  0  0  0  0  0  0  0  0
   -3.5796   -5.4736    0.0000 C   0  0  0  0  0  0  0  0  0  0  0  0
   -2.4225   -6.3103    0.0000 C   0  0  0  0  0  0  0  0  0  0  0  0
    0.1998   -4.4122    0.0000 C   0  0  0  0  0  0  0  0  0  0  0  0
   -0.2330   -3.0511    0.0000 C   0  0  0  0  0  0  0  0  0  0  0  0
  2  1  1  0  0  0  0
  3  1  2  0  0  0  0
  4  2  2  0  0  0  0
  5  3  1  0  0  0  0
  6  3  1  0  0  0  0
  7 10  2  0  0  0  0
  8  2  1  0  0  0  0
  9 11  2  0  0  0  0
 10 12  1  0  0  0  0
 11  6  1  0  0  0  0
 12  6  2  0  0  0  0
 13  8  1  0  0  0  0
 14  8  1  0  0  0  0
  4  5  1  0  0  0  0
  9  7  1  0  0  0  0
M  END
>  <IDNUMBER>
F6617-2272

>  <Chemical_Name>
4-[3-(propan-2-yl)-1,2,4-oxadiazol-5-yl]pyridine

>  <PriceCoeff>
1.00

>  <CAS>
2310099-38-6

>  <MW>
189.21

>  <Description>
solid

>  <FSP3>
0.30

>  <clogP>
1.39

>  <TPSA>
51.81

>  <Acceptor>
4

>  <Donor>
1

>  <RotBonds>
2

>  <HAC>
14

>  <Collection>
General

>  <PPDS>
+

$$$$
F6617-2428
  Mrv2219 10102508112D          

 14 16  0  0  0  0            999 V2000
   -4.8684   -3.9123    0.0000 N   0  0  0  0  0  0  0  0  0  0  0  0
   -4.2045   -4.3883    0.0000 N   0  0  0  0  0  0  0  0  0  0  0  0
   -3.7911   -3.1232    0.0000 C   0  0  0  0  0  0  0  0  0  0  0  0
   -4.6095   -3.1232    0.0000 N   0  0  0  0  0  0  0  0  0  0  0  0
   -3.5323   -3.9123    0.0000 C   0  0  0  0  0  0  0  0  0  0  0  0
   -3.3068   -2.4593    0.0000 C   0  0  0  0  0  0  0  0  0  0  0  0
   -3.2192   -1.6326    0.0000 C   0  0  0  0  0  0  0  0  0  0  0  0
   -2.5511   -2.1211    0.0000 C   0  0  0  0  0  0  0  0  0  0  0  0
   -4.2045   -5.2233    0.0000 C   0  0  0  0  0  0  0  0  0  0  0  0
   -3.4905   -5.6367    0.0000 C   0  0  0  0  0  0  0  0  0  0  0  0
   -4.9185   -5.6367    0.0000 C   0  0  0  0  0  0  0  0  0  0  0  0
   -4.9185   -6.4551    0.0000 C   0  0  0  0  0  0  0  0  0  0  0  0
   -3.4905   -6.4551    0.0000 C   0  0  0  0  0  0  0  0  0  0  0  0
   -4.2045   -6.8684    0.0000 C   0  0  0  0  0  0  0  0  0  0  0  0
  2  1  1  0  0  0  0
  3  4  1  0  0  0  0
  4  1  2  0  0  0  0
  5  2  1  0  0  0  0
  6  3  1  0  0  0  0
  7  6  1  0  0  0  0
  8  6  1  0  0  0  0
  9  2  1  0  0  0  0
 10  9  2  0  0  0  0
 11  9  1  0  0  0  0
 12 11  2  0  0  0  0
 13 10  1  0  0  0  0
 14 12  1  0  0  0  0
  5  3  2  0  0  0  0
  7  8  1  0  0  0  0
 13 14  2  0  0  0  0
M  END
>  <IDNUMBER>
F6617-2428

>  <Chemical_Name>
4-cyclopropyl-1-phenyl-1H-1,2,3-triazole

>  <PriceCoeff>
1.00

>  <CAS>
1878984-83-8

>  <MW>
185.23

>  <Description>
solid

>  <FSP3>
0.27

>  <clogP>
2.40

>  <TPSA>
25.11

>  <Acceptor>
2

>  <Donor>
0

>  <RotBonds>
2

>  <HAC>
14

>  <Collection>
General

$$$$
F6617-2447
  Mrv2219 10102508112D          

 13 14  0  0  0  0            999 V2000
   -1.3122   -2.8836    0.0000 C   0  0  0  0  0  0  0  0  0  0  0  0
   -1.5630   -3.6652    0.0000 C   0  0  0  0  0  0  0  0  0  0  0  0
   -1.9767   -2.3989    0.0000 C   0  0  0  0  0  0  0  0  0  0  0  0
   -2.3821   -3.6652    0.0000 N   0  0  0  0  0  0  0  0  0  0  0  0
   -0.5224   -2.6245    0.0000 C   0  0  0  0  0  0  0  0  0  0  0  0
   -2.6412   -2.8836    0.0000 C   0  0  0  0  0  0  0  0  0  0  0  0
   -0.3468   -1.8221    0.0000 O   0  0  0  0  0  0  0  0  0  0  0  0
    0.0878   -3.1762    0.0000 N   0  0  0  0  0  0  0  0  0  0  0  0
   -2.0561   -1.5714    0.0000 C   0  0  0  0  0  0  0  0  0  0  0  0
   -3.3934   -2.5493    0.0000 C   0  0  0  0  0  0  0  0  0  0  0  0
    0.8776   -2.9254    0.0000 C   0  0  0  0  0  0  0  0  0  0  0  0
   -2.8167   -1.2329    0.0000 C   0  0  0  0  0  0  0  0  0  0  0  0
   -3.4812   -1.7218    0.0000 C   0  0  0  0  0  0  0  0  0  0  0  0
  2  1  2  0  0  0  0
  3  1  1  0  0  0  0
  4  2  1  0  0  0  0
  5  1  1  0  0  0  0
  6  3  2  0  0  0  0
  7  5  2  0  0  0  0
  8  5  1  0  0  0  0
  9  3  1  0  0  0  0
 10  6  1  0  0  0  0
 11  8  1  0  0  0  0
 12  9  2  0  0  0  0
 13 12  1  0  0  0  0
  4  6  1  0  0  0  0
 13 10  2  0  0  0  0
M  END
>  <IDNUMBER>
F6617-2447

>  <Chemical_Name>
N-methyl-1H-indole-3-carboxamide

>  <PriceCoeff>
1.00

>  <CAS>
85729-23-3

>  <MW>
174.20

>  <Description>
solid

>  <FSP3>
0.10

>  <clogP>
1.11

>  <TPSA>
44.89

>  <Acceptor>
1

>  <Donor>
2

>  <RotBonds>
1

>  <HAC>
13

>  <Collection>
General

>  <PPDS>
+

$$$$
F6617-2496
  Mrv2219 10102508112D          

 12 13  0  0  0  0            999 V2000
   -1.4492   -4.9031    0.0000 N   0  0  0  0  0  0  0  0  0  0  0  0
   -1.1903   -4.1221    0.0000 C   0  0  0  0  0  0  0  0  0  0  0  0
   -1.8627   -3.6334    0.0000 N   0  0  0  0  0  0  0  0  0  0  0  0
   -2.2761   -4.9031    0.0000 C   0  0  0  0  0  0  0  0  0  0  0  0
   -2.5309   -4.1221    0.0000 O   0  0  0  0  0  0  0  0  0  0  0  0
   -0.4093   -3.8632    0.0000 C   0  0  0  0  0  0  0  0  0  0  0  0
    1.1652   -3.3495    0.0000 N   0  0  0  0  0  0  0  0  0  0  0  0
   -2.7647   -5.5672    0.0000 C   0  0  0  0  0  0  0  0  0  0  0  0
    0.5513   -2.7982    0.0000 C   0  0  0  0  0  0  0  0  0  0  0  0
    0.9898   -4.1514    0.0000 C   0  0  0  0  0  0  0  0  0  0  0  0
   -0.2339   -3.0571    0.0000 C   0  0  0  0  0  0  0  0  0  0  0  0
    0.2005   -4.4145    0.0000 C   0  0  0  0  0  0  0  0  0  0  0  0
  2  1  1  0  0  0  0
  3  2  2  0  0  0  0
  4  1  2  0  0  0  0
  5  4  1  0  0  0  0
  6  2  1  0  0  0  0
  7 10  1  0  0  0  0
  8  4  1  0  0  0  0
  9 11  1  0  0  0  0
 10 12  2  0  0  0  0
 11  6  2  0  0  0  0
 12  6  1  0  0  0  0
  3  5  1  0  0  0  0
  9  7  2  0  0  0  0
M  END
>  <IDNUMBER>
F6617-2496

>  <Chemical_Name>
4-(5-methyl-1,2,4-oxadiazol-3-yl)pyridine

>  <PriceCoeff>
1.50

>  <CAS>
10350-70-6

>  <MW>
161.16

>  <Description>
solid

>  <FSP3>
0.12

>  <clogP>
0.46

>  <TPSA>
51.81

>  <Acceptor>
4

>  <Donor>
1

>  <RotBonds>
1

>  <HAC>
12

>  <Collection>
Advanced

>  <PPDS>
+

$$$$
F6617-3584
  Mrv2219 10102508112D          

 16 17  0  0  0  0            999 V2000
    3.1637   -1.4586    0.0000 N   0  0  0  0  0  0  0  0  0  0  0  0
    3.4227   -0.6687    0.0000 C   0  0  0  0  0  0  0  0  0  0  0  0
    2.7499   -0.1881    0.0000 N   0  0  0  0  0  0  0  0  0  0  0  0
    2.3362   -1.4586    0.0000 C   0  0  0  0  0  0  0  0  0  0  0  0
    2.0854   -0.6687    0.0000 O   0  0  0  0  0  0  0  0  0  0  0  0
    4.2043   -0.4137    0.0000 C   0  0  0  0  0  0  0  0  0  0  0  0
    0.6938   -1.2830    0.0000 C   0  0  0  0  0  0  0  0  0  0  0  0
    5.6085   -0.7188    0.0000 N   0  0  0  0  0  0  0  0  0  0  0  0
   -0.1337   -1.1911    0.0000 O   0  0  0  0  0  0  0  0  0  0  0  0
    1.8472   -2.1230    0.0000 C   0  0  0  0  0  0  0  0  0  0  0  0
    1.0281   -2.0353    0.0000 C   0  0  0  0  0  0  0  0  0  0  0  0
    4.8186   -0.9696    0.0000 C   0  0  0  0  0  0  0  0  0  0  0  0
    1.1785   -0.6060    0.0000 O   0  0  0  0  0  0  0  0  0  0  0  0
    4.3756    0.3970    0.0000 C   0  0  0  0  0  0  0  0  0  0  0  0
    5.7798    0.0878    0.0000 C   0  0  0  0  0  0  0  0  0  0  0  0
    5.1571    0.6477    0.0000 C   0  0  0  0  0  0  0  0  0  0  0  0
  2  1  1  0  0  0  0
  3  2  2  0  0  0  0
  4  1  2  0  0  0  0
  5  4  1  0  0  0  0
  6  2  1  0  0  0  0
  7 11  1  0  0  0  0
  8 12  1  0  0  0  0
  9  7  2  0  0  0  0
 10  4  1  0  0  0  0
 11 10  1  0  0  0  0
 12  6  2  0  0  0  0
 13  7  1  0  0  0  0
 14  6  1  0  0  0  0
 15 16  1  0  0  0  0
 16 14  2  0  0  0  0
  5  3  1  0  0  0  0
 15  8  2  0  0  0  0
M  END
>  <IDNUMBER>
F6617-3584

>  <Chemical_Name>
3-[3-(pyridin-3-yl)-1,2,4-oxadiazol-5-yl]propanoic acid

>  <PriceCoeff>
1.00

>  <CAS>
876716-11-9

>  <MW>
219.20

>  <Description>
solid

>  <FSP3>
0.20

>  <clogP>
-0.28

>  <TPSA>
89.11

>  <Acceptor>
6

>  <Donor>
1

>  <RotBonds>
4

>  <HAC>
16

>  <Collection>
General

>  <PPDS>
+

$$$$
F6617-3965
  Mrv2219 10102508112D          

 17 17  0  0  0  0            999 V2000
    5.8417   -6.0625    0.0000 C   0  0  0  0  0  0  0  0  0  0  0  0
    5.1292   -6.4750    0.0000 C   0  0  0  0  0  0  0  0  0  0  0  0
    4.4167   -6.0667    0.0000 C   0  0  0  0  0  0  0  0  0  0  0  0
    7.9917   -6.4667    0.0000 C   0  0  0  0  0  0  0  0  0  0  0  0
    6.5625   -6.4667    0.0000 N   0  0  0  0  0  0  0  0  0  0  0  0
    5.8417   -5.2375    0.0000 O   0  0  0  0  0  0  0  0  0  0  0  0
    7.9917   -7.2917    0.0000 O   0  0  0  0  0  0  0  0  0  0  0  0
    7.2750   -6.0542    0.0000 C   0  0  0  0  0  0  0  0  0  0  0  0
    3.7042   -6.4792    0.0000 C   0  0  0  0  0  0  0  0  0  0  0  0
    2.2750   -7.3125    0.0000 C   0  0  0  0  0  0  0  0  0  0  0  0
    8.7042   -6.0500    0.0000 O   0  0  0  0  0  0  0  0  0  0  0  0
    2.9875   -6.0667    0.0000 C   0  0  0  0  0  0  0  0  0  0  0  0
    3.7042   -7.3125    0.0000 C   0  0  0  0  0  0  0  0  0  0  0  0
    2.2750   -6.4792    0.0000 C   0  0  0  0  0  0  0  0  0  0  0  0
    2.9875   -7.7250    0.0000 C   0  0  0  0  0  0  0  0  0  0  0  0
    1.5625   -7.7167    0.0000 O   0  0  0  0  0  0  0  0  0  0  0  0
    1.5625   -8.5417    0.0000 C   0  0  0  0  0  0  0  0  0  0  0  0
  2  1  1  0  0  0  0
  3  2  2  0  0  0  0
  4  8  1  0  0  0  0
  5  1  1  0  0  0  0
  6  1  2  0  0  0  0
  7  4  2  0  0  0  0
  8  5  1  0  0  0  0
  9  3  1  0  0  0  0
 10 15  1  0  0  0  0
 11  4  1  0  0  0  0
 12  9  2  0  0  0  0
 13  9  1  0  0  0  0
 14 12  1  0  0  0  0
 15 13  2  0  0  0  0
 16 10  1  0  0  0  0
 17 16  1  0  0  0  0
 14 10  2  0  0  0  0
M  END
>  <IDNUMBER>
F6617-3965

>  <Chemical_Name>
2-[(2E)-3-(4-methoxyphenyl)prop-2-enamido]acetic acid

>  <PriceCoeff>
1.00

>  <CAS>
100192-91-4

>  <MW>
235.24

>  <Description>
solid

>  <FSP3>
0.17

>  <clogP>
1.44

>  <TPSA>
75.63

>  <Acceptor>
4

>  <Donor>
1

>  <RotBonds>
5

>  <HAC>
17

>  <Collection>
General

>  <PPDS>
+

$$$$
F6617-3967
  Mrv2219 10102508112D          

 19 21  0  0  0  0            999 V2000
    4.6511   -2.6531    0.0000 N   0  0  0  0  0  0  0  0  0  0  0  0
    4.9040   -1.8654    0.0000 C   0  0  0  0  0  0  0  0  0  0  0  0
    4.2449   -1.3804    0.0000 N   0  0  0  0  0  0  0  0  0  0  0  0
    3.8221   -2.6531    0.0000 C   0  0  0  0  0  0  0  0  0  0  0  0
    3.5734   -1.8654    0.0000 O   0  0  0  0  0  0  0  0  0  0  0  0
    5.6875   -1.6084    0.0000 C   0  0  0  0  0  0  0  0  0  0  0  0
    6.6409   -0.5514    0.0000 C   0  0  0  0  0  0  0  0  0  0  0  0
    5.8616   -0.8084    0.0000 C   0  0  0  0  0  0  0  0  0  0  0  0
    7.2545   -1.1068    0.0000 C   0  0  0  0  0  0  0  0  0  0  0  0
    6.9809    0.2072    0.0000 O   0  0  0  0  0  0  0  0  0  0  0  0
    2.0313   -3.8967    0.0000 C   0  0  0  0  0  0  0  0  0  0  0  0
    7.9716   -0.6964    0.0000 O   0  0  0  0  0  0  0  0  0  0  0  0
    7.8017    0.1202    0.0000 C   0  0  0  0  0  0  0  0  0  0  0  0
    6.3051   -2.1639    0.0000 C   0  0  0  0  0  0  0  0  0  0  0  0
    2.3671   -4.6429    0.0000 O   0  0  0  0  0  0  0  0  0  0  0  0
    7.0886   -1.9152    0.0000 C   0  0  0  0  0  0  0  0  0  0  0  0
    3.3371   -3.3205    0.0000 C   0  0  0  0  0  0  0  0  0  0  0  0
    2.5163   -3.2334    0.0000 C   0  0  0  0  0  0  0  0  0  0  0  0
    1.2229   -3.8096    0.0000 O   0  0  0  0  0  0  0  0  0  0  0  0
  2  1  1  0  0  0  0
  3  2  2  0  0  0  0
  4  1  2  0  0  0  0
  5  4  1  0  0  0  0
  6  2  1  0  0  0  0
  7  8  2  0  0  0  0
  8  6  1  0  0  0  0
  9 16  2  0  0  0  0
 10  7  1  0  0  0  0
 11 18  1  0  0  0  0
 12  9  1  0  0  0  0
 13 10  1  0  0  0  0
 14  6  2  0  0  0  0
 15 11  2  0  0  0  0
 16 14  1  0  0  0  0
 17  4  1  0  0  0  0
 18 17  1  0  0  0  0
 19 11  1  0  0  0  0
  5  3  1  0  0  0  0
  9  7  1  0  0  0  0
 13 12  1  0  0  0  0
M  END
>  <IDNUMBER>
F6617-3967

>  <Chemical_Name>
3-[3-(2H-1,3-benzodioxol-5-yl)-1,2,4-oxadiazol-5-yl]propanoic acid

>  <PriceCoeff>
1.00

>  <CAS>
500025-22-9

>  <MW>
262.22

>  <Description>
solid

>  <FSP3>
0.25

>  <clogP>
1.18

>  <TPSA>
94.68

>  <Acceptor>
7

>  <Donor>
0

>  <RotBonds>
4

>  <HAC>
19

>  <Collection>
General

>  <PPDS>
+

$$$$
F6617-4185
  Mrv2219 10102508112D          

 16 17  0  0  0  0            999 V2000
    6.7813   -1.4849    0.0000 C   0  0  0  0  0  0  0  0  0  0  0  0
    6.5242   -2.2770    0.0000 N   0  0  0  0  0  0  0  0  0  0  0  0
    6.1136   -0.9996    0.0000 N   0  0  0  0  0  0  0  0  0  0  0  0
    7.5652   -1.2360    0.0000 C   0  0  0  0  0  0  0  0  0  0  0  0
    5.6988   -2.2770    0.0000 C   0  0  0  0  0  0  0  0  0  0  0  0
    5.4499   -1.4849    0.0000 O   0  0  0  0  0  0  0  0  0  0  0  0
    8.2745   -1.6466    0.0000 S   0  0  0  0  0  0  0  0  0  0  0  0
    3.9070   -3.5213    0.0000 C   0  0  0  0  0  0  0  0  0  0  0  0
    7.7312   -0.4272    0.0000 C   0  0  0  0  0  0  0  0  0  0  0  0
    8.8883   -1.0991    0.0000 C   0  0  0  0  0  0  0  0  0  0  0  0
    8.5524   -0.3484    0.0000 C   0  0  0  0  0  0  0  0  0  0  0  0
    3.0858   -3.5213    0.0000 O   0  0  0  0  0  0  0  0  0  0  0  0
    4.1601   -4.2969    0.0000 N   0  0  0  0  0  0  0  0  0  0  0  0
    5.2135   -2.9407    0.0000 C   0  0  0  0  0  0  0  0  0  0  0  0
    4.3923   -2.8536    0.0000 C   0  0  0  0  0  0  0  0  0  0  0  0
    3.4882   -4.7905    0.0000 N   0  0  0  0  0  0  0  0  0  0  0  0
  2  1  1  0  0  0  0
  3  1  2  0  0  0  0
  4  1  1  0  0  0  0
  5  2  2  0  0  0  0
  6  3  1  0  0  0  0
  7  4  1  0  0  0  0
  8 15  1  0  0  0  0
  9  4  2  0  0  0  0
 10  7  1  0  0  0  0
 11  9  1  0  0  0  0
 12  8  2  0  0  0  0
 13  8  1  0  0  0  0
 14  5  1  0  0  0  0
 15 14  1  0  0  0  0
 16 13  1  0  0  0  0
  6  5  1  0  0  0  0
 10 11  2  0  0  0  0
M  END
>  <IDNUMBER>
F6617-4185

>  <Chemical_Name>
3-[3-(thiophen-2-yl)-1,2,4-oxadiazol-5-yl]propanehydrazide

>  <PriceCoeff>
1.00

>  <CAS>
1351849-88-1

>  <MW>
238.27

>  <Description>
solid

>  <FSP3>
0.22

>  <clogP>
-0.18

>  <TPSA>
122.28

>  <Acceptor>
4

>  <Donor>
2

>  <RotBonds>
4

>  <HAC>
16

>  <Collection>
General

>  <PPDS>
+

$$$$
F6617-4628
  Mrv2219 10102508112D          

 26 28  0  0  0  0            999 V2000
    5.4969   -0.9279    0.0000 N   0  0  0  0  0  0  0  0  0  0  0  0
    4.6729   -0.8156    0.0000 C   0  0  0  0  0  0  0  0  0  0  0  0
    4.5232   -0.0042    0.0000 C   0  0  0  0  0  0  0  0  0  0  0  0
    1.6520   -0.1915    0.0000 C   0  0  0  0  0  0  0  0  0  0  0  0
    5.2472    0.3953    0.0000 C   0  0  0  0  0  0  0  0  0  0  0  0
    5.8464   -0.1790    0.0000 C   0  0  0  0  0  0  0  0  0  0  0  0
    0.9279    0.1998    0.0000 C   0  0  0  0  0  0  0  0  0  0  0  0
    0.2247   -0.2164    0.0000 C   0  0  0  0  0  0  0  0  0  0  0  0
    1.6644   -1.0236    0.0000 O   0  0  0  0  0  0  0  0  0  0  0  0
    2.3511    0.2330    0.0000 N   0  0  0  0  0  0  0  0  0  0  0  0
   -0.4952    0.1706    0.0000 C   0  0  0  0  0  0  0  0  0  0  0  0
    0.2414   -1.0528    0.0000 C   0  0  0  0  0  0  0  0  0  0  0  0
   -1.1942   -1.0778    0.0000 C   0  0  0  0  0  0  0  0  0  0  0  0
   -0.4702   -1.4773    0.0000 C   0  0  0  0  0  0  0  0  0  0  0  0
   -1.2067   -0.2539    0.0000 C   0  0  0  0  0  0  0  0  0  0  0  0
   -1.9057   -1.5022    0.0000 C   0  0  0  0  0  0  0  0  0  0  0  0
    3.1001   -0.1166    0.0000 C   0  0  0  0  0  0  0  0  0  0  0  0
    3.7741    0.3496    0.0000 C   0  0  0  0  0  0  0  0  0  0  0  0
    5.4428    1.1942    0.0000 C   0  0  0  0  0  0  0  0  0  0  0  0
    0.9113    1.0319    0.0000 C   0  0  0  0  0  0  0  0  0  0  0  0
    6.6412    0.0582    0.0000 C   0  0  0  0  0  0  0  0  0  0  0  0
   -2.6214   -1.1027    0.0000 C   0  0  0  0  0  0  0  0  0  0  0  0
   -2.6339   -0.2789    0.0000 C   0  0  0  0  0  0  0  0  0  0  0  0
   -3.3289   -1.5272    0.0000 C   0  0  0  0  0  0  0  0  0  0  0  0
    6.2334    1.4231    0.0000 C   0  0  0  0  0  0  0  0  0  0  0  0
    6.8325    0.8571    0.0000 C   0  0  0  0  0  0  0  0  0  0  0  0
  2  1  1  0  0  0  0
  3  2  2  0  0  0  0
  4 10  1  0  0  0  0
  5  6  1  0  0  0  0
  6  1  1  0  0  0  0
  7  4  1  0  0  0  0
  8  7  1  0  0  0  0
  9  4  2  0  0  0  0
 10 17  1  0  0  0  0
 11  8  1  0  0  0  0
 12  8  2  0  0  0  0
 13 14  2  0  0  0  0
 14 12  1  0  0  0  0
 15 11  2  0  0  0  0
 16 13  1  0  0  0  0
 17 18  1  0  0  0  0
 18  3  1  0  0  0  0
 19  5  2  0  0  0  0
 20  7  1  0  0  0  0
 21  6  2  0  0  0  0
 22 16  1  0  0  0  0
 23 22  1  0  0  0  0
 24 22  1  0  0  0  0
 25 26  2  0  0  0  0
 26 21  1  0  0  0  0
  3  5  1  0  0  0  0
 19 25  1  0  0  0  0
 15 13  1  0  0  0  0
M  END
>  <IDNUMBER>
F6617-4628

>  <Chemical_Name>
N-[2-(1H-indol-3-yl)ethyl]-2-[4-(2-methylpropyl)phenyl]propanamide

>  <PriceCoeff>
1.00

>  <CAS>
313499-54-6

>  <MW>
348.48

>  <Description>
solid

>  <FSP3>
0.35

>  <clogP>
5.04

>  <TPSA>
44.89

>  <Acceptor>
1

>  <Donor>
2

>  <RotBonds>
7

>  <HAC>
26

>  <Collection>
General

>  <PPDS>
+

$$$$
F6617-5673
  Mrv2219 10102508112D          

 13 14  0  0  0  0            999 V2000
    6.6763   -4.9895    0.0000 N   0  0  0  0  0  0  0  0  0  0  0  0
    6.0124   -5.4780    0.0000 C   0  0  0  0  0  0  0  0  0  0  0  0
    5.5908   -4.2004    0.0000 N   0  0  0  0  0  0  0  0  0  0  0  0
    5.3360   -4.9895    0.0000 O   0  0  0  0  0  0  0  0  0  0  0  0
    6.4175   -4.2004    0.0000 C   0  0  0  0  0  0  0  0  0  0  0  0
    6.0166   -6.3047    0.0000 C   0  0  0  0  0  0  0  0  0  0  0  0
    5.3027   -7.5448    0.0000 N   0  0  0  0  0  0  0  0  0  0  0  0
    6.0166   -7.9582    0.0000 C   0  0  0  0  0  0  0  0  0  0  0  0
    5.3027   -6.7181    0.0000 C   0  0  0  0  0  0  0  0  0  0  0  0
    6.7306   -6.7181    0.0000 C   0  0  0  0  0  0  0  0  0  0  0  0
    6.7306   -7.5448    0.0000 C   0  0  0  0  0  0  0  0  0  0  0  0
    6.0124   -8.7849    0.0000 Cl  0  0  0  0  0  0  0  0  0  0  0  0
    6.9018   -3.5365    0.0000 C   0  0  0  0  0  0  0  0  0  0  0  0
  2  1  2  0  0  0  0
  3  5  2  0  0  0  0
  4  2  1  0  0  0  0
  5  1  1  0  0  0  0
  6  2  1  0  0  0  0
  7  9  2  0  0  0  0
  8 11  2  0  0  0  0
  9  6  1  0  0  0  0
 10  6  2  0  0  0  0
 11 10  1  0  0  0  0
 12  8  1  0  0  0  0
 13  5  1  0  0  0  0
  3  4  1  0  0  0  0
  7  8  1  0  0  0  0
M  END
>  <IDNUMBER>
F6617-5673

>  <Chemical_Name>
2-chloro-5-(3-methyl-1,2,4-oxadiazol-5-yl)pyridine

>  <PriceCoeff>
1.50

>  <CAS>
959240-62-1

>  <MW>
195.61

>  <Description>
solid

>  <FSP3>
0.12

>  <clogP>
1.21

>  <TPSA>
51.81

>  <Acceptor>
4

>  <Donor>
1

>  <RotBonds>
1

>  <HAC>
13

>  <Collection>
Advanced

>  <PPDS>
+

$$$$
F6617-5677
  Mrv2219 10102508112D          

 13 14  0  0  0  0            999 V2000
    6.9684   -4.5434    0.0000 N   0  0  0  0  0  0  0  0  0  0  0  0
    6.3093   -5.0284    0.0000 C   0  0  0  0  0  0  0  0  0  0  0  0
    5.8865   -3.7723    0.0000 N   0  0  0  0  0  0  0  0  0  0  0  0
    5.6378   -4.5516    0.0000 O   0  0  0  0  0  0  0  0  0  0  0  0
    6.7073   -3.7682    0.0000 C   0  0  0  0  0  0  0  0  0  0  0  0
    5.6005   -6.2596    0.0000 N   0  0  0  0  0  0  0  0  0  0  0  0
    6.3093   -5.8492    0.0000 C   0  0  0  0  0  0  0  0  0  0  0  0
    5.6005   -7.0886    0.0000 C   0  0  0  0  0  0  0  0  0  0  0  0
    4.8916   -7.4908    0.0000 Cl  0  0  0  0  0  0  0  0  0  0  0  0
    7.0264   -6.2596    0.0000 C   0  0  0  0  0  0  0  0  0  0  0  0
    7.1923   -3.1008    0.0000 C   0  0  0  0  0  0  0  0  0  0  0  0
    7.0264   -7.0886    0.0000 C   0  0  0  0  0  0  0  0  0  0  0  0
    6.3093   -7.4990    0.0000 C   0  0  0  0  0  0  0  0  0  0  0  0
  2  1  2  0  0  0  0
  3  5  2  0  0  0  0
  4  2  1  0  0  0  0
  5  1  1  0  0  0  0
  6  7  1  0  0  0  0
  7  2  1  0  0  0  0
  8  6  2  0  0  0  0
  9  8  1  0  0  0  0
 10  7  2  0  0  0  0
 11  5  1  0  0  0  0
 12 10  1  0  0  0  0
 13 12  2  0  0  0  0
  3  4  1  0  0  0  0
  8 13  1  0  0  0  0
M  END
>  <IDNUMBER>
F6617-5677

>  <Chemical_Name>
2-chloro-6-(3-methyl-1,2,4-oxadiazol-5-yl)pyridine

>  <PriceCoeff>
1.00

>  <CAS>
1866112-74-4

>  <MW>
195.61

>  <Description>
solid

>  <FSP3>
0.12

>  <clogP>
1.42

>  <TPSA>
51.81

>  <Acceptor>
4

>  <Donor>
1

>  <RotBonds>
1

>  <HAC>
13

>  <Collection>
General

>  <PPDS>
+

$$$$
F6617-8455
  Mrv2219 10102508112D          

 28 29  0  0  0  0            999 V2000
    4.7000   -8.6292    0.0000 C   0  0  0  0  0  0  0  0  0  0  0  0
    4.7000   -9.4625    0.0000 C   0  0  0  0  0  0  0  0  0  0  0  0
    6.1167   -6.9750    0.0000 N   0  0  0  0  0  0  0  0  0  0  0  0
    7.0042   -5.9750    0.0000 N   0  0  0  0  0  0  0  0  0  0  0  0
    5.4125   -8.2167    0.0000 C   0  0  0  0  0  0  0  0  0  0  0  0
    6.2042   -6.1500    0.0000 C   0  0  0  0  0  0  0  0  0  0  0  0
    3.9792   -9.8750    0.0000 C   0  0  0  0  0  0  0  0  0  0  0  0
    3.9792   -8.2167    0.0000 C   0  0  0  0  0  0  0  0  0  0  0  0
    5.4042   -7.3917    0.0000 C   0  0  0  0  0  0  0  0  0  0  0  0
    6.1292   -8.6250    0.0000 O   0  0  0  0  0  0  0  0  0  0  0  0
    7.4250   -6.6875    0.0000 C   0  0  0  0  0  0  0  0  0  0  0  0
    6.8750   -7.3042    0.0000 C   0  0  0  0  0  0  0  0  0  0  0  0
    3.2667   -9.4625    0.0000 C   0  0  0  0  0  0  0  0  0  0  0  0
    5.4167   -9.8750    0.0000 Cl  0  0  0  0  0  0  0  0  0  0  0  0
    3.2667   -8.6292    0.0000 C   0  0  0  0  0  0  0  0  0  0  0  0
    6.8417   -8.2125    0.0000 C   0  0  0  0  0  0  0  0  0  0  0  0
    8.9875   -9.4375    0.0000 C   0  0  0  0  0  0  0  0  0  0  0  0
    7.5542   -8.6167    0.0000 C   0  0  0  0  0  0  0  0  0  0  0  0
    2.5542   -9.8750    0.0000 Cl  0  0  0  0  0  0  0  0  0  0  0  0
    9.7042   -9.8500    0.0000 Cl  0  0  0  0  0  0  0  0  0  0  0  0
    8.9792   -8.6042    0.0000 C   0  0  0  0  0  0  0  0  0  0  0  0
    8.2667   -9.8542    0.0000 C   0  0  0  0  0  0  0  0  0  0  0  0
    8.2625   -8.2042    0.0000 C   0  0  0  0  0  0  0  0  0  0  0  0
    7.5542   -9.4417    0.0000 C   0  0  0  0  0  0  0  0  0  0  0  0
   11.8333   -8.1167    0.0000 N   0  3  0  0  0  0  0  0  0  0  0  0
   11.4125   -7.4042    0.0000 O   0  5  0  0  0  0  0  0  0  0  0  0
   12.6583   -8.1167    0.0000 O   0  0  0  0  0  0  0  0  0  0  0  0
   11.4208   -8.8292    0.0000 O   0  0  0  0  0  0  0  0  0  0  0  0
  6  3  1  0  0  0  0
  7  2  2  0  0  0  0
  8  1  2  0  0  0  0
  9  5  1  0  0  0  0
 10  5  1  0  0  0  0
 11 12  2  0  0  0  0
 12  3  1  0  0  0  0
 13 15  2  0  0  0  0
 14  2  1  0  0  0  0
 15  8  1  0  0  0  0
 16 10  1  0  0  0  0
 17 22  2  0  0  0  0
 18 16  1  0  0  0  0
 19 13  1  0  0  0  0
 20 17  1  0  0  0  0
 21 23  2  0  0  0  0
 22 24  1  0  0  0  0
 23 18  1  0  0  0  0
 24 18  2  0  0  0  0
  7 13  1  0  0  0  0
  4 11  1  0  0  0  0
 17 21  1  0  0  0  0
  2  1  1  0  0  0  0
  3  9  1  0  0  0  0
  4  6  2  0  0  0  0
  5  1  1  0  0  0  0
 26 25  1  0  0  0  0
 27 25  2  0  0  0  0
 28 25  1  0  0  0  0
M  CHG  2  25   1  26  -1
M  END
>  <IDNUMBER>
F6617-8455

>  <Chemical_Name>
1-{2-[(4-chlorophenyl)methoxy]-2-(2,4-dichlorophenyl)ethyl}-1H-imidazole; nitric acid

>  <PriceCoeff>
1.00

>  <CAS>
24169-02-6

>  <MW>
381.68

>  <Description>
solid

>  <FSP3>
0.17

>  <clogP>
5.10

>  <TPSA>
27.05

>  <Acceptor>
2

>  <Donor>
1

>  <RotBonds>
6

>  <HAC>
24

>  <Collection>
General

>  <PPDS>
+

$$$$
F6619-8931
  Mrv2219 10102508112D          

 14 15  0  0  0  0            999 V2000
   -5.9205    4.1378    0.0000 O   0  0  0  0  0  0  0  0  0  0  0  0
   -3.0563    4.1252    0.0000 O   0  0  0  0  0  0  0  0  0  0  0  0
   -4.4926    4.1335    0.0000 C   0  0  0  0  0  0  0  0  0  0  0  0
   -3.7703    3.7202    0.0000 C   0  0  0  0  0  0  0  0  0  0  0  0
   -3.0563    4.9645    0.0000 C   0  0  0  0  0  0  0  0  0  0  0  0
   -5.2066    3.7285    0.0000 C   0  0  0  0  0  0  0  0  0  0  0  0
   -5.9248    4.9603    0.0000 C   0  0  0  0  0  0  0  0  0  0  0  0
   -4.4926    4.9603    0.0000 C   0  0  0  0  0  0  0  0  0  0  0  0
   -2.3381    5.3653    0.0000 C   0  0  0  0  0  0  0  0  0  0  0  0
   -3.7703    5.3528    0.0000 C   0  0  0  0  0  0  0  0  0  0  0  0
   -5.2066    5.3653    0.0000 C   0  0  0  0  0  0  0  0  0  0  0  0
   -3.7786    6.1878    0.0000 C   0  0  0  0  0  0  0  0  0  0  0  0
   -2.3507    6.1920    0.0000 C   0  0  0  0  0  0  0  0  0  0  0  0
   -3.0646    6.6054    0.0000 C   0  0  0  0  0  0  0  0  0  0  0  0
  2  4  1  0  0  0  0
  3  6  1  0  0  0  0
  4  3  1  0  0  0  0
  5  2  1  0  0  0  0
  6  1  1  0  0  0  0
  7  1  1  0  0  0  0
  8 11  1  0  0  0  0
  9  5  2  0  0  0  0
 10  5  1  0  0  0  0
 11  7  1  0  0  0  0
 12 10  2  0  0  0  0
 13  9  1  0  0  0  0
 14 12  1  0  0  0  0
  3  8  1  0  0  0  0
 14 13  2  0  0  0  0
M  END
>  <IDNUMBER>
F6619-8931

>  <Chemical_Name>
3-(phenoxymethyl)oxane

>  <PriceCoeff>
1.50

>  <CAS>
2273711-86-5

>  <MW>
192.26

>  <Description>
oil

>  <FSP3>
0.50

>  <clogP>
2.28

>  <TPSA>
18.46

>  <Acceptor>
2

>  <Donor>
0

>  <RotBonds>
3

>  <HAC>
14

>  <Collection>
Advanced

>  <PPDS>
+

$$$$
F6619-8932
  Mrv2219 10102508112D          

 14 15  0  0  0  0            999 V2000
   -5.8951    4.9911    0.0000 O   0  0  0  0  0  0  0  0  0  0  0  0
   -3.0496    4.1162    0.0000 O   0  0  0  0  0  0  0  0  0  0  0  0
   -3.7621    3.7121    0.0000 C   0  0  0  0  0  0  0  0  0  0  0  0
   -3.0496    4.9536    0.0000 C   0  0  0  0  0  0  0  0  0  0  0  0
   -4.4828    4.1245    0.0000 C   0  0  0  0  0  0  0  0  0  0  0  0
   -5.1619    5.3786    0.0000 C   0  0  0  0  0  0  0  0  0  0  0  0
   -5.9201    4.1537    0.0000 C   0  0  0  0  0  0  0  0  0  0  0  0
   -2.3330    5.3536    0.0000 C   0  0  0  0  0  0  0  0  0  0  0  0
   -3.7621    5.3411    0.0000 C   0  0  0  0  0  0  0  0  0  0  0  0
   -4.4578    4.9369    0.0000 C   0  0  0  0  0  0  0  0  0  0  0  0
   -5.2202    3.7371    0.0000 C   0  0  0  0  0  0  0  0  0  0  0  0
   -3.7704    6.1743    0.0000 C   0  0  0  0  0  0  0  0  0  0  0  0
   -2.3455    6.1785    0.0000 C   0  0  0  0  0  0  0  0  0  0  0  0
   -3.0579    6.5909    0.0000 C   0  0  0  0  0  0  0  0  0  0  0  0
  2  3  1  0  0  0  0
  3  5  1  0  0  0  0
  4  2  1  0  0  0  0
  5 11  1  0  0  0  0
  6  1  1  0  0  0  0
  7  1  1  0  0  0  0
  8  4  2  0  0  0  0
  9  4  1  0  0  0  0
 10  6  1  0  0  0  0
 11  7  1  0  0  0  0
 12  9  2  0  0  0  0
 13  8  1  0  0  0  0
 14 12  1  0  0  0  0
 10  5  1  0  0  0  0
 14 13  2  0  0  0  0
M  END
>  <IDNUMBER>
F6619-8932

>  <Chemical_Name>
4-(phenoxymethyl)oxane

>  <PriceCoeff>
1.50

>  <CAS>
62635-44-3

>  <MW>
192.26

>  <Description>
solid

>  <FSP3>
0.50

>  <clogP>
2.31

>  <TPSA>
18.46

>  <Acceptor>
2

>  <Donor>
0

>  <RotBonds>
3

>  <HAC>
14

>  <Collection>
Advanced

>  <PPDS>
+

$$$$
F6619-8934
  Mrv2219 10102508112D          

 13 14  0  0  0  0            999 V2000
   -5.3886    5.1300    0.0000 O   0  0  0  0  0  0  0  0  0  0  0  0
   -3.0530    4.1207    0.0000 O   0  0  0  0  0  0  0  0  0  0  0  0
   -4.4919    4.1332    0.0000 C   0  0  0  0  0  0  0  0  0  0  0  0
   -3.7662    3.7244    0.0000 C   0  0  0  0  0  0  0  0  0  0  0  0
   -3.0530    4.9590    0.0000 C   0  0  0  0  0  0  0  0  0  0  0  0
   -4.5878    4.9548    0.0000 C   0  0  0  0  0  0  0  0  0  0  0  0
   -5.8015    4.4085    0.0000 C   0  0  0  0  0  0  0  0  0  0  0  0
   -5.2426    3.8120    0.0000 C   0  0  0  0  0  0  0  0  0  0  0  0
   -2.3356    5.3594    0.0000 C   0  0  0  0  0  0  0  0  0  0  0  0
   -3.7662    5.3469    0.0000 C   0  0  0  0  0  0  0  0  0  0  0  0
   -3.7745    6.1810    0.0000 C   0  0  0  0  0  0  0  0  0  0  0  0
   -2.3481    6.1852    0.0000 C   0  0  0  0  0  0  0  0  0  0  0  0
   -3.0613    6.5981    0.0000 C   0  0  0  0  0  0  0  0  0  0  0  0
  2  4  1  0  0  0  0
  3  6  1  0  0  0  0
  4  3  1  0  0  0  0
  5  2  1  0  0  0  0
  6  1  1  0  0  0  0
  7  1  1  0  0  0  0
  8  7  1  0  0  0  0
  9  5  2  0  0  0  0
 10  5  1  0  0  0  0
 11 10  2  0  0  0  0
 12  9  1  0  0  0  0
 13 11  1  0  0  0  0
  3  8  1  0  0  0  0
 13 12  2  0  0  0  0
M  END
>  <IDNUMBER>
F6619-8934

>  <Chemical_Name>
3-(phenoxymethyl)oxolane

>  <PriceCoeff>
1.50

>  <CAS>
1341645-29-1

>  <MW>
178.23

>  <Description>
liquid

>  <FSP3>
0.45

>  <clogP>
1.83

>  <TPSA>
18.46

>  <Acceptor>
2

>  <Donor>
0

>  <RotBonds>
3

>  <HAC>
13

>  <Collection>
Advanced

>  <PPDS>
+

$$$$
F6660-0797
  Mrv2219 10102508112D          

 21 23  0  0  0  0            999 V2000
    3.8500   -3.6917    0.0000 C   0  0  0  0  0  0  0  0  0  0  0  0
    2.4292   -3.6917    0.0000 C   0  0  0  0  0  0  0  0  0  0  0  0
    3.1375   -4.1042    0.0000 N   0  0  0  0  0  0  0  0  0  0  0  0
    2.4292   -2.8667    0.0000 C   0  0  0  0  0  0  0  0  0  0  0  0
    3.8500   -2.8667    0.0000 N   0  0  0  0  0  0  0  0  0  0  0  0
    3.1375   -2.4542    0.0000 C   0  0  0  0  0  0  0  0  0  0  0  0
    1.7125   -4.1042    0.0000 C   0  0  0  0  0  0  0  0  0  0  0  0
    4.5667   -4.1042    0.0000 S   0  0  0  0  0  0  0  0  0  0  0  0
    3.1375   -1.6292    0.0000 C   0  0  0  0  0  0  0  0  0  0  0  0
    1.7167   -4.9292    0.0000 C   0  0  0  0  0  0  0  0  0  0  0  0
    1.0000   -3.6917    0.0000 C   0  0  0  0  0  0  0  0  0  0  0  0
    3.8542   -1.2167    0.0000 C   0  0  0  0  0  0  0  0  0  0  0  0
    2.4292   -1.2167    0.0000 C   0  0  0  0  0  0  0  0  0  0  0  0
    3.1417    0.0208    0.0000 C   0  0  0  0  0  0  0  0  0  0  0  0
    2.4250   -0.3917    0.0000 C   0  0  0  0  0  0  0  0  0  0  0  0
    3.8542   -0.3917    0.0000 C   0  0  0  0  0  0  0  0  0  0  0  0
    0.2875   -4.1042    0.0000 C   0  0  0  0  0  0  0  0  0  0  0  0
    1.0042   -5.3417    0.0000 C   0  0  0  0  0  0  0  0  0  0  0  0
    0.2875   -4.9292    0.0000 C   0  0  0  0  0  0  0  0  0  0  0  0
    3.1375    0.8458    0.0000 Br  0  0  0  0  0  0  0  0  0  0  0  0
   -0.4333   -5.3417    0.0000 C   0  0  0  0  0  0  0  0  0  0  0  0
  2  3  1  0  0  0  0
  3  1  1  0  0  0  0
  4  6  1  0  0  0  0
  5  1  1  0  0  0  0
  6  5  1  0  0  0  0
  7  2  1  0  0  0  0
  8  1  2  0  0  0  0
  9  6  1  0  0  0  0
 10  7  1  0  0  0  0
 11  7  2  0  0  0  0
 12  9  2  0  0  0  0
 13  9  1  0  0  0  0
 14 15  1  0  0  0  0
 15 13  2  0  0  0  0
 16 12  1  0  0  0  0
 17 11  1  0  0  0  0
 18 10  2  0  0  0  0
 19 17  2  0  0  0  0
 20 14  1  0  0  0  0
 21 19  1  0  0  0  0
  2  4  2  0  0  0  0
 16 14  2  0  0  0  0
 18 19  1  0  0  0  0
M  END
>  <IDNUMBER>
F6660-0797

>  <Chemical_Name>
4-(4-bromophenyl)-6-(4-methylphenyl)-1,2,3,4-tetrahydropyrimidine-2-thione

>  <PriceCoeff>
1.00

>  <CAS>
2309825-87-2

>  <MW>
359.28

>  <Description>
solid

>  <FSP3>
0.12

>  <clogP>
4.35

>  <TPSA>
56.15

>  <Acceptor>
1

>  <Donor>
2

>  <RotBonds>
2

>  <HAC>
21

>  <Collection>
General

>  <PPDS>
+

$$$$
F6660-2069
  Mrv2219 10102508112D          

 16 17  0  0  0  0            999 V2000
   10.7374   -7.8109    0.0000 N   0  0  0  0  0  0  0  0  0  0  0  0
   11.5147   -7.5615    0.0000 C   0  0  0  0  0  0  0  0  0  0  0  0
   11.5147   -6.7260    0.0000 N   0  0  0  0  0  0  0  0  0  0  0  0
   10.2552   -7.1375    0.0000 C   0  0  0  0  0  0  0  0  0  0  0  0
   10.7374   -6.4765    0.0000 O   0  0  0  0  0  0  0  0  0  0  0  0
    8.6049   -5.7033    0.0000 N   0  0  0  0  0  0  0  0  0  0  0  0
    9.0206   -6.4225    0.0000 C   0  0  0  0  0  0  0  0  0  0  0  0
   12.2339   -7.9730    0.0000 C   0  0  0  0  0  0  0  0  0  0  0  0
    9.4321   -7.1375    0.0000 C   0  0  0  0  0  0  0  0  0  0  0  0
   12.2339   -8.7961    0.0000 C   0  0  0  0  0  0  0  0  0  0  0  0
   12.9447   -7.5573    0.0000 C   0  0  0  0  0  0  0  0  0  0  0  0
   13.6597   -8.7961    0.0000 C   0  0  0  0  0  0  0  0  0  0  0  0
   13.6597   -7.9688    0.0000 C   0  0  0  0  0  0  0  0  0  0  0  0
   12.9447   -9.2076    0.0000 C   0  0  0  0  0  0  0  0  0  0  0  0
   14.3706   -9.2076    0.0000 O   0  0  0  0  0  0  0  0  0  0  0  0
   14.3706  -10.0307    0.0000 C   0  0  0  0  0  0  0  0  0  0  0  0
  2  1  1  0  0  0  0
  3  2  2  0  0  0  0
  4  1  2  0  0  0  0
  5  4  1  0  0  0  0
  6  7  3  0  0  0  0
  7  9  1  0  0  0  0
  8  2  1  0  0  0  0
  9  4  1  0  0  0  0
 10  8  2  0  0  0  0
 11  8  1  0  0  0  0
 12 13  1  0  0  0  0
 13 11  2  0  0  0  0
 14 10  1  0  0  0  0
 15 12  1  0  0  0  0
 16 15  1  0  0  0  0
  5  3  1  0  0  0  0
 12 14  2  0  0  0  0
M  END
>  <IDNUMBER>
F6660-2069

>  <Chemical_Name>
2-[3-(4-methoxyphenyl)-1,2,4-oxadiazol-5-yl]acetonitrile

>  <PriceCoeff>
1.00

>  <CAS>
892303-79-6

>  <MW>
215.21

>  <Description>
solid

>  <FSP3>
0.18

>  <clogP>
1.98

>  <TPSA>
71.94

>  <Acceptor>
5

>  <Donor>
0

>  <RotBonds>
3

>  <HAC>
16

>  <Collection>
General

>  <PPDS>
+

$$$$
F6660-2140
  Mrv2219 10102508112D          

 14 16  0  0  0  0            999 V2000
    7.2125  -11.5417    0.0000 N   0  0  0  0  0  0  0  0  0  0  0  0
    7.7792  -10.9417    0.0000 C   0  0  0  0  0  0  0  0  0  0  0  0
    6.4667  -11.1792    0.0000 C   0  0  0  0  0  0  0  0  0  0  0  0
    7.4000  -10.2250    0.0000 N   0  0  0  0  0  0  0  0  0  0  0  0
    6.5875  -10.3625    0.0000 O   0  0  0  0  0  0  0  0  0  0  0  0
    8.6000  -11.0625    0.0000 C   0  0  0  0  0  0  0  0  0  0  0  0
    5.7500  -11.5917    0.0000 C   0  0  0  0  0  0  0  0  0  0  0  0
    9.3625  -10.7500    0.0000 C   0  0  0  0  0  0  0  0  0  0  0  0
    9.2500  -11.5667    0.0000 C   0  0  0  0  0  0  0  0  0  0  0  0
    5.0292  -12.8292    0.0000 N   0  0  0  0  0  0  0  0  0  0  0  0
    5.7500  -12.4167    0.0000 C   0  0  0  0  0  0  0  0  0  0  0  0
    5.0292  -11.1792    0.0000 C   0  0  0  0  0  0  0  0  0  0  0  0
    4.3167  -12.4167    0.0000 C   0  0  0  0  0  0  0  0  0  0  0  0
    4.3167  -11.5917    0.0000 C   0  0  0  0  0  0  0  0  0  0  0  0
  2  1  1  0  0  0  0
  3  1  2  0  0  0  0
  4  2  2  0  0  0  0
  5  3  1  0  0  0  0
  6  2  1  0  0  0  0
  7  3  1  0  0  0  0
  8  6  1  0  0  0  0
  9  6  1  0  0  0  0
 10 11  1  0  0  0  0
 11  7  1  0  0  0  0
 12  7  1  0  0  0  0
 13 14  1  0  0  0  0
 14 12  1  0  0  0  0
  5  4  1  0  0  0  0
  8  9  1  0  0  0  0
 10 13  1  0  0  0  0
M  END
>  <IDNUMBER>
F6660-2140

>  <Chemical_Name>
3-(3-cyclopropyl-1,2,4-oxadiazol-5-yl)piperidine

>  <PriceCoeff>
1.00

>  <CAS>
1042499-41-1

>  <MW>
193.25

>  <Description>
oil

>  <FSP3>
0.80

>  <clogP>
1.39

>  <TPSA>
50.95

>  <Acceptor>
3

>  <Donor>
1

>  <RotBonds>
2

>  <HAC>
14

>  <Collection>
General

>  <PPDS>
+

$$$$
F6660-2186
  Mrv2219 10102508112D          

 28 30  0  0  0  0            999 V2000
    9.3042   -2.8167    0.0000 C   0  0  0  0  0  0  0  0  0  0  0  0
    7.8792   -2.8167    0.0000 C   0  0  0  0  0  0  0  0  0  0  0  0
    8.5917   -2.4042    0.0000 C   0  0  0  0  0  0  0  0  0  0  0  0
    7.8792   -3.6417    0.0000 C   0  0  0  0  0  0  0  0  0  0  0  0
    9.3042   -3.6417    0.0000 C   0  0  0  0  0  0  0  0  0  0  0  0
    8.5917   -4.0542    0.0000 N   0  0  0  0  0  0  0  0  0  0  0  0
    7.1667   -4.0542    0.0000 C   0  0  0  0  0  0  0  0  0  0  0  0
    6.4500   -3.6417    0.0000 C   0  0  0  0  0  0  0  0  0  0  0  0
    7.1667   -2.4042    0.0000 C   0  0  0  0  0  0  0  0  0  0  0  0
    5.6792   -3.9500    0.0000 N   0  0  0  0  0  0  0  0  0  0  0  0
   10.0292   -2.4042    0.0000 C   0  0  0  0  0  0  0  0  0  0  0  0
    4.1417   -4.5542    0.0000 N   0  0  0  0  0  0  0  0  0  0  0  0
    6.4500   -2.8250    0.0000 C   0  0  0  0  0  0  0  0  0  0  0  0
    3.3750   -4.8667    0.0000 C   0  0  0  0  0  0  0  0  0  0  0  0
    1.1875   -4.9667    0.0000 N   0  0  0  0  0  0  0  0  0  0  0  0
    1.9542   -4.6625    0.0000 C   0  0  0  0  0  0  0  0  0  0  0  0
    2.7250   -4.3542    0.0000 C   0  0  0  0  0  0  0  0  0  0  0  0
    8.5917   -1.5792    0.0000 O   0  0  0  0  0  0  0  0  0  0  0  0
    5.5542   -4.7667    0.0000 C   0  0  0  0  0  0  0  0  0  0  0  0
    5.0292   -3.4375    0.0000 C   0  0  0  0  0  0  0  0  0  0  0  0
    4.2625   -3.7417    0.0000 C   0  0  0  0  0  0  0  0  0  0  0  0
    4.7917   -5.0667    0.0000 C   0  0  0  0  0  0  0  0  0  0  0  0
   10.0292   -1.5792    0.0000 O   0  0  0  0  0  0  0  0  0  0  0  0
    3.2542   -5.6792    0.0000 O   0  0  0  0  0  0  0  0  0  0  0  0
    5.7292   -2.4042    0.0000 F   0  0  0  0  0  0  0  0  0  0  0  0
   10.7417   -2.8250    0.0000 O   0  0  0  0  0  0  0  0  0  0  0  0
    8.5917   -4.8792    0.0000 C   0  0  0  0  0  0  0  0  0  0  0  0
    7.8792   -5.2917    0.0000 C   0  0  0  0  0  0  0  0  0  0  0  0
  2  3  1  0  0  0  0
  3  1  1  0  0  0  0
  4  6  1  0  0  0  0
  5  1  2  0  0  0  0
  6  5  1  0  0  0  0
  7  4  2  0  0  0  0
  8  7  1  0  0  0  0
  9  2  2  0  0  0  0
 10  8  1  0  0  0  0
 11  1  1  0  0  0  0
 12 21  1  0  0  0  0
 13  9  1  0  0  0  0
 14 12  1  0  0  0  0
 15 16  3  0  0  0  0
 16 17  1  0  0  0  0
 17 14  1  0  0  0  0
 18  3  2  0  0  0  0
 19 10  1  0  0  0  0
 20 10  1  0  0  0  0
 21 20  1  0  0  0  0
 22 19  1  0  0  0  0
 23 11  2  0  0  0  0
 24 14  2  0  0  0  0
 25 13  1  0  0  0  0
 26 11  1  0  0  0  0
 27  6  1  0  0  0  0
 28 27  1  0  0  0  0
  4  2  1  0  0  0  0
  8 13  2  0  0  0  0
 12 22  1  0  0  0  0
M  END
>  <IDNUMBER>
F6660-2186

>  <Chemical_Name>
7-[4-(2-cyanoacetyl)piperazin-1-yl]-1-ethyl-6-fluoro-4-oxo-1,4-dihydroquinoline-3-carboxylic acid

>  <PriceCoeff>
1.00

>  <CAS>
2379995-76-1

>  <MW>
386.38

>  <Description>
solid

>  <FSP3>
0.37

>  <clogP>
1.03

>  <TPSA>
104.95

>  <Acceptor>
7

>  <Donor>
2

>  <RotBonds>
5

>  <HAC>
28

>  <Collection>
General

$$$$
F6660-2871
  Mrv2219 10102508112D          

 29 32  0  0  0  0            999 V2000
   -0.0743    3.1001    0.0000 C   0  0  0  0  0  0  0  0  0  0  0  0
   -0.7909    1.8633    0.0000 N   0  0  0  0  0  0  0  0  0  0  0  0
   -1.4916    3.1055    0.0000 C   0  0  0  0  0  0  0  0  0  0  0  0
   -1.5076    2.2773    0.0000 C   0  0  0  0  0  0  0  0  0  0  0  0
   -0.7803    3.5142    0.0000 C   0  0  0  0  0  0  0  0  0  0  0  0
   -0.0743    2.2720    0.0000 C   0  0  0  0  0  0  0  0  0  0  0  0
   -2.2083    1.8739    0.0000 C   0  0  0  0  0  0  0  0  0  0  0  0
   -2.9249    2.2773    0.0000 C   0  0  0  0  0  0  0  0  0  0  0  0
   -0.7963    1.0352    0.0000 C   0  0  0  0  0  0  0  0  0  0  0  0
   -2.2083    3.5301    0.0000 C   0  0  0  0  0  0  0  0  0  0  0  0
   -3.6416    1.8633    0.0000 N   0  0  0  0  0  0  0  0  0  0  0  0
    0.6529    3.5036    0.0000 C   0  0  0  0  0  0  0  0  0  0  0  0
   -5.0643    1.0457    0.0000 N   0  0  0  0  0  0  0  0  0  0  0  0
   -2.9249    3.1055    0.0000 C   0  0  0  0  0  0  0  0  0  0  0  0
   -5.7915    0.6317    0.0000 C   0  0  0  0  0  0  0  0  0  0  0  0
   -1.2050    0.3291    0.0000 C   0  0  0  0  0  0  0  0  0  0  0  0
   -0.3822    0.3291    0.0000 C   0  0  0  0  0  0  0  0  0  0  0  0
   -7.9203    1.0457    0.0000 N   0  0  0  0  0  0  0  0  0  0  0  0
   -7.2248    0.6370    0.0000 C   0  0  0  0  0  0  0  0  0  0  0  0
   -6.4976    1.0457    0.0000 C   0  0  0  0  0  0  0  0  0  0  0  0
   -0.7750    4.3423    0.0000 O   0  0  0  0  0  0  0  0  0  0  0  0
   -4.3582    2.2773    0.0000 C   0  0  0  0  0  0  0  0  0  0  0  0
   -3.6310    1.0457    0.0000 C   0  0  0  0  0  0  0  0  0  0  0  0
   -4.3582    0.6317    0.0000 C   0  0  0  0  0  0  0  0  0  0  0  0
   -5.0643    1.8739    0.0000 C   0  0  0  0  0  0  0  0  0  0  0  0
    0.6583    4.3423    0.0000 O   0  0  0  0  0  0  0  0  0  0  0  0
   -5.7915   -0.1965    0.0000 O   0  0  0  0  0  0  0  0  0  0  0  0
   -3.6416    3.5142    0.0000 F   0  0  0  0  0  0  0  0  0  0  0  0
    1.3590    3.0895    0.0000 O   0  0  0  0  0  0  0  0  0  0  0  0
  2  6  1  0  0  0  0
  3  5  1  0  0  0  0
  4  2  1  0  0  0  0
  5  1  1  0  0  0  0
  6  1  2  0  0  0  0
  7  4  1  0  0  0  0
  8  7  2  0  0  0  0
  9  2  1  0  0  0  0
 10  3  1  0  0  0  0
 11  8  1  0  0  0  0
 12  1  1  0  0  0  0
 13 24  1  0  0  0  0
 14 10  2  0  0  0  0
 15 13  1  0  0  0  0
 16  9  1  0  0  0  0
 17  9  1  0  0  0  0
 18 19  3  0  0  0  0
 19 20  1  0  0  0  0
 20 15  1  0  0  0  0
 21  5  2  0  0  0  0
 22 11  1  0  0  0  0
 23 11  1  0  0  0  0
 24 23  1  0  0  0  0
 25 22  1  0  0  0  0
 26 12  2  0  0  0  0
 27 15  2  0  0  0  0
 28 14  1  0  0  0  0
 29 12  1  0  0  0  0
  3  4  2  0  0  0  0
 17 16  1  0  0  0  0
 14  8  1  0  0  0  0
 25 13  1  0  0  0  0
M  END
>  <IDNUMBER>
F6660-2871

>  <Chemical_Name>
7-[4-(2-cyanoacetyl)piperazin-1-yl]-1-cyclopropyl-6-fluoro-4-oxo-1,4-dihydroquinoline-3-carboxylic acid

>  <PriceCoeff>
1.00

>  <CAS>
2379996-46-8

>  <MW>
398.39

>  <Description>
solid

>  <FSP3>
0.40

>  <clogP>
1.08

>  <TPSA>
104.95

>  <Acceptor>
7

>  <Donor>
2

>  <RotBonds>
5

>  <HAC>
29

>  <Collection>
General

$$$$
F6660-3294
  Mrv2219 10102508112D          

 17 18  0  0  0  0            999 V2000
    4.0332   -0.9740    0.0000 N   0  0  0  0  0  0  0  0  0  0  0  0
    3.2757   -0.6410    0.0000 C   0  0  0  0  0  0  0  0  0  0  0  0
    3.3631    0.1831    0.0000 N   0  0  0  0  0  0  0  0  0  0  0  0
    4.5826   -0.3621    0.0000 C   0  0  0  0  0  0  0  0  0  0  0  0
    4.1706    0.3579    0.0000 O   0  0  0  0  0  0  0  0  0  0  0  0
    2.5723   -1.0531    0.0000 C   0  0  0  0  0  0  0  0  0  0  0  0
    6.5597   -1.2778    0.0000 C   0  0  0  0  0  0  0  0  0  0  0  0
    1.8522   -0.6410    0.0000 C   0  0  0  0  0  0  0  0  0  0  0  0
    7.0467   -0.6036    0.0000 O   0  0  0  0  0  0  0  0  0  0  0  0
    5.3984   -0.4412    0.0000 C   0  0  0  0  0  0  0  0  0  0  0  0
    1.1405   -1.0614    0.0000 C   0  0  0  0  0  0  0  0  0  0  0  0
    5.7439   -1.1904    0.0000 C   0  0  0  0  0  0  0  0  0  0  0  0
    6.9051   -2.0270    0.0000 O   0  0  0  0  0  0  0  0  0  0  0  0
    0.4287   -0.6410    0.0000 F   0  0  0  0  0  0  0  0  0  0  0  0
    2.5723   -1.8855    0.0000 C   0  0  0  0  0  0  0  0  0  0  0  0
    1.8522   -2.2975    0.0000 C   0  0  0  0  0  0  0  0  0  0  0  0
    1.1405   -1.8855    0.0000 C   0  0  0  0  0  0  0  0  0  0  0  0
  2  1  1  0  0  0  0
  3  2  2  0  0  0  0
  4  1  2  0  0  0  0
  5  4  1  0  0  0  0
  6  2  1  0  0  0  0
  7 12  1  0  0  0  0
  8  6  2  0  0  0  0
  9  7  2  0  0  0  0
 10  4  1  0  0  0  0
 11  8  1  0  0  0  0
 12 10  1  0  0  0  0
 13  7  1  0  0  0  0
 14 11  1  0  0  0  0
 15  6  1  0  0  0  0
 16 15  2  0  0  0  0
 17 16  1  0  0  0  0
  5  3  1  0  0  0  0
 11 17  2  0  0  0  0
M  END
>  <IDNUMBER>
F6660-3294

>  <Chemical_Name>
3-[3-(3-fluorophenyl)-1,2,4-oxadiazol-5-yl]propanoic acid

>  <PriceCoeff>
1.00

>  <MW>
236.20

>  <Description>
solid

>  <FSP3>
0.18

>  <clogP>
1.89

>  <TPSA>
76.22

>  <Acceptor>
5

>  <Donor>
0

>  <RotBonds>
4

>  <HAC>
17

>  <Collection>
General

>  <PPDS>
+

$$$$
F6660-3400
  Mrv2219 10102508112D          

 16 16  0  0  0  0            999 V2000
    3.2192   -2.3423    0.0000 C   0  0  0  0  0  0  0  0  0  0  0  0
    2.5052   -2.7599    0.0000 N   0  0  0  0  0  0  0  0  0  0  0  0
    3.2192   -1.5156    0.0000 S   0  0  0  0  0  0  0  0  0  0  0  0
    3.9373   -2.7557    0.0000 N   0  0  0  0  0  0  0  0  0  0  0  0
    1.7829   -2.3466    0.0000 C   0  0  0  0  0  0  0  0  0  0  0  0
    0.3549   -1.5198    0.0000 C   0  0  0  0  0  0  0  0  0  0  0  0
    1.7912   -1.5198    0.0000 C   0  0  0  0  0  0  0  0  0  0  0  0
    1.0772   -2.7599    0.0000 C   0  0  0  0  0  0  0  0  0  0  0  0
    0.3633   -2.3549    0.0000 C   0  0  0  0  0  0  0  0  0  0  0  0
    1.0689   -1.1065    0.0000 C   0  0  0  0  0  0  0  0  0  0  0  0
   -0.3590   -1.1148    0.0000 O   0  0  0  0  0  0  0  0  0  0  0  0
    4.6513   -2.3423    0.0000 C   0  0  0  0  0  0  0  0  0  0  0  0
   -1.0730   -1.5282    0.0000 C   0  0  0  0  0  0  0  0  0  0  0  0
    5.3653   -2.7557    0.0000 C   0  0  0  0  0  0  0  0  0  0  0  0
   -1.7870   -1.1190    0.0000 C   0  0  0  0  0  0  0  0  0  0  0  0
    6.0793   -2.3340    0.0000 C   0  0  0  0  0  0  0  0  0  0  0  0
  2  1  1  0  0  0  0
  3  1  2  0  0  0  0
  4  1  1  0  0  0  0
  5  2  1  0  0  0  0
  6  9  1  0  0  0  0
  7  5  2  0  0  0  0
  8  5  1  0  0  0  0
  9  8  2  0  0  0  0
 10  7  1  0  0  0  0
 11  6  1  0  0  0  0
 12  4  1  0  0  0  0
 13 11  1  0  0  0  0
 14 12  1  0  0  0  0
 15 13  1  0  0  0  0
 16 14  1  0  0  0  0
 10  6  2  0  0  0  0
M  END
>  <IDNUMBER>
F6660-3400

>  <Chemical_Name>
1-(4-ethoxyphenyl)-3-propylthiourea

>  <PriceCoeff>
1.00

>  <MW>
238.36

>  <Description>
solid

>  <FSP3>
0.42

>  <clogP>
2.78

>  <TPSA>
33.29

>  <Acceptor>
2

>  <Donor>
2

>  <RotBonds>
5

>  <HAC>
16

>  <Collection>
General

>  <PPDS>
+

$$$$
F6660-3480
  Mrv2219 10102508112D          

 17 19  0  0  0  0            999 V2000
    5.8625   -7.5417    0.0000 N   0  0  0  0  0  0  0  0  0  0  0  0
    5.1917   -7.0542    0.0000 C   0  0  0  0  0  0  0  0  0  0  0  0
    6.5292   -7.0625    0.0000 C   0  0  0  0  0  0  0  0  0  0  0  0
    6.2792   -6.2792    0.0000 N   0  0  0  0  0  0  0  0  0  0  0  0
    5.4542   -6.2750    0.0000 O   0  0  0  0  0  0  0  0  0  0  0  0
    4.4125   -7.3125    0.0000 C   0  0  0  0  0  0  0  0  0  0  0  0
    4.1542   -8.1000    0.0000 N   0  0  0  0  0  0  0  0  0  0  0  0
    7.3125   -7.3167    0.0000 C   0  0  0  0  0  0  0  0  0  0  0  0
    3.7417   -6.8292    0.0000 C   0  0  0  0  0  0  0  0  0  0  0  0
    3.3292   -8.1000    0.0000 C   0  0  0  0  0  0  0  0  0  0  0  0
    3.0792   -7.3125    0.0000 C   0  0  0  0  0  0  0  0  0  0  0  0
    7.4792   -8.1250    0.0000 C   0  0  0  0  0  0  0  0  0  0  0  0
    7.9250   -6.7667    0.0000 C   0  0  0  0  0  0  0  0  0  0  0  0
    8.7042   -7.0167    0.0000 C   0  0  0  0  0  0  0  0  0  0  0  0
    8.2667   -8.3792    0.0000 C   0  0  0  0  0  0  0  0  0  0  0  0
    8.8792   -7.8292    0.0000 C   0  0  0  0  0  0  0  0  0  0  0  0
    9.6667   -8.0792    0.0000 C   0  0  0  0  0  0  0  0  0  0  0  0
  2  1  2  0  0  0  0
  3  1  1  0  0  0  0
  4  3  2  0  0  0  0
  5  2  1  0  0  0  0
  6  2  1  0  0  0  0
  7  6  1  0  0  0  0
  8  3  1  0  0  0  0
  9  6  2  0  0  0  0
 10  7  1  0  0  0  0
 11  9  1  0  0  0  0
 12  8  2  0  0  0  0
 13  8  1  0  0  0  0
 14 13  2  0  0  0  0
 15 12  1  0  0  0  0
 16 14  1  0  0  0  0
 17 16  1  0  0  0  0
  4  5  1  0  0  0  0
 11 10  2  0  0  0  0
 15 16  2  0  0  0  0
M  END
>  <IDNUMBER>
F6660-3480

>  <Chemical_Name>
3-(4-methylphenyl)-5-(1H-pyrrol-2-yl)-1,2,4-oxadiazole

>  <PriceCoeff>
1.00

>  <MW>
225.25

>  <Description>
solid

>  <FSP3>
0.08

>  <clogP>
3.04

>  <TPSA>
54.71

>  <Acceptor>
3

>  <Donor>
1

>  <RotBonds>
2

>  <HAC>
17

>  <Collection>
General

>  <PPDS>
+

$$$$
F6660-4137
  Mrv2219 10102508112D          

 16 18  0  0  0  0            999 V2000
    5.5792    1.6500    0.0000 N   0  0  0  0  0  0  0  0  0  0  0  0
    4.9167    2.1458    0.0000 C   0  0  0  0  0  0  0  0  0  0  0  0
    6.2542    2.1333    0.0000 C   0  0  0  0  0  0  0  0  0  0  0  0
    6.0000    2.9208    0.0000 N   0  0  0  0  0  0  0  0  0  0  0  0
    5.1750    2.9208    0.0000 O   0  0  0  0  0  0  0  0  0  0  0  0
    4.1292    1.8833    0.0000 C   0  0  0  0  0  0  0  0  0  0  0  0
    3.8750    1.0958    0.0000 N   0  0  0  0  0  0  0  0  0  0  0  0
    7.0292    1.8833    0.0000 C   0  0  0  0  0  0  0  0  0  0  0  0
    3.4625    2.3708    0.0000 C   0  0  0  0  0  0  0  0  0  0  0  0
    3.0500    1.0958    0.0000 C   0  0  0  0  0  0  0  0  0  0  0  0
    2.8000    1.8833    0.0000 C   0  0  0  0  0  0  0  0  0  0  0  0
    7.2042    1.0708    0.0000 C   0  0  0  0  0  0  0  0  0  0  0  0
    7.6417    2.4333    0.0000 C   0  0  0  0  0  0  0  0  0  0  0  0
    8.4250    2.1833    0.0000 C   0  0  0  0  0  0  0  0  0  0  0  0
    7.9875    0.8208    0.0000 C   0  0  0  0  0  0  0  0  0  0  0  0
    8.6000    1.3708    0.0000 C   0  0  0  0  0  0  0  0  0  0  0  0
  2  1  2  0  0  0  0
  3  1  1  0  0  0  0
  4  3  2  0  0  0  0
  5  2  1  0  0  0  0
  6  2  1  0  0  0  0
  7  6  1  0  0  0  0
  8  3  1  0  0  0  0
  9  6  2  0  0  0  0
 10  7  1  0  0  0  0
 11  9  1  0  0  0  0
 12  8  2  0  0  0  0
 13  8  1  0  0  0  0
 14 13  2  0  0  0  0
 15 12  1  0  0  0  0
 16 14  1  0  0  0  0
  4  5  1  0  0  0  0
 11 10  2  0  0  0  0
 15 16  2  0  0  0  0
M  END
>  <IDNUMBER>
F6660-4137

>  <Chemical_Name>
3-phenyl-5-(1H-pyrrol-2-yl)-1,2,4-oxadiazole

>  <PriceCoeff>
1.00

>  <CAS>
186809-64-3

>  <MW>
211.22

>  <Description>
solid

>  <FSP3>
0.00

>  <clogP>
2.70

>  <TPSA>
54.71

>  <Acceptor>
3

>  <Donor>
1

>  <RotBonds>
2

>  <HAC>
16

>  <Collection>
General

>  <PPDS>
+

$$$$
F6660-4201
  Mrv2219 10102508112D          

 16 18  0  0  0  0            999 V2000
    6.1250   -2.3500    0.0000 N   0  0  0  0  0  0  0  0  0  0  0  0
    5.4542   -1.8625    0.0000 C   0  0  0  0  0  0  0  0  0  0  0  0
    6.7917   -1.8667    0.0000 C   0  0  0  0  0  0  0  0  0  0  0  0
    6.5417   -1.0792    0.0000 N   0  0  0  0  0  0  0  0  0  0  0  0
    5.7167   -1.0792    0.0000 O   0  0  0  0  0  0  0  0  0  0  0  0
    4.6750   -2.1167    0.0000 C   0  0  0  0  0  0  0  0  0  0  0  0
    4.4167   -2.9042    0.0000 N   0  0  0  0  0  0  0  0  0  0  0  0
    7.5750   -2.1167    0.0000 C   0  0  0  0  0  0  0  0  0  0  0  0
    4.0042   -1.6292    0.0000 C   0  0  0  0  0  0  0  0  0  0  0  0
    3.5917   -2.9042    0.0000 C   0  0  0  0  0  0  0  0  0  0  0  0
    9.1417   -2.6292    0.0000 N   0  0  0  0  0  0  0  0  0  0  0  0
    3.3417   -2.1167    0.0000 C   0  0  0  0  0  0  0  0  0  0  0  0
    8.5292   -3.1792    0.0000 C   0  0  0  0  0  0  0  0  0  0  0  0
    8.9667   -1.8167    0.0000 C   0  0  0  0  0  0  0  0  0  0  0  0
    7.7417   -2.9292    0.0000 C   0  0  0  0  0  0  0  0  0  0  0  0
    8.1875   -1.5667    0.0000 C   0  0  0  0  0  0  0  0  0  0  0  0
  2  1  2  0  0  0  0
  3  1  1  0  0  0  0
  4  3  2  0  0  0  0
  5  2  1  0  0  0  0
  6  2  1  0  0  0  0
  7  6  1  0  0  0  0
  8  3  1  0  0  0  0
  9  6  2  0  0  0  0
 10  7  1  0  0  0  0
 11 14  1  0  0  0  0
 12  9  1  0  0  0  0
 13 15  1  0  0  0  0
 14 16  2  0  0  0  0
 15  8  2  0  0  0  0
 16  8  1  0  0  0  0
  4  5  1  0  0  0  0
 13 11  2  0  0  0  0
 12 10  2  0  0  0  0
M  END
>  <IDNUMBER>
F6660-4201

>  <Chemical_Name>
4-[5-(1H-pyrrol-2-yl)-1,2,4-oxadiazol-3-yl]pyridine

>  <PriceCoeff>
1.00

>  <CAS>
1060943-83-0

>  <MW>
212.21

>  <Description>
solid

>  <FSP3>
0.00

>  <clogP>
1.30

>  <TPSA>
67.60

>  <Acceptor>
4

>  <Donor>
2

>  <RotBonds>
2

>  <HAC>
16

>  <Collection>
General

>  <PPDS>
+

$$$$
F6660-4205
  Mrv2219 10102508112D          

 11 12  0  0  0  0            999 V2000
    5.4542   -3.5007    0.0000 C   0  0  0  0  0  0  0  0  0  0  0  0
    6.1261   -3.9859    0.0000 N   0  0  0  0  0  0  0  0  0  0  0  0
    6.5368   -2.7250    0.0000 N   0  0  0  0  0  0  0  0  0  0  0  0
    5.7155   -2.7168    0.0000 O   0  0  0  0  0  0  0  0  0  0  0  0
    4.6703   -3.7578    0.0000 C   0  0  0  0  0  0  0  0  0  0  0  0
    6.7981   -3.5089    0.0000 C   0  0  0  0  0  0  0  0  0  0  0  0
    4.4173   -4.5459    0.0000 N   0  0  0  0  0  0  0  0  0  0  0  0
    4.0066   -3.2725    0.0000 C   0  0  0  0  0  0  0  0  0  0  0  0
    3.5960   -4.5459    0.0000 C   0  0  0  0  0  0  0  0  0  0  0  0
    3.3389   -3.7578    0.0000 C   0  0  0  0  0  0  0  0  0  0  0  0
    7.5778   -3.7620    0.0000 C   0  0  0  0  0  0  0  0  0  0  0  0
  2  1  2  0  0  0  0
  3  4  1  0  0  0  0
  4  1  1  0  0  0  0
  5  1  1  0  0  0  0
  6  2  1  0  0  0  0
  7  5  1  0  0  0  0
  8  5  2  0  0  0  0
  9  7  1  0  0  0  0
 10  8  1  0  0  0  0
 11  6  1  0  0  0  0
  6  3  2  0  0  0  0
 10  9  2  0  0  0  0
M  END
>  <IDNUMBER>
F6660-4205

>  <Chemical_Name>
3-methyl-5-(1H-pyrrol-2-yl)-1,2,4-oxadiazole

>  <PriceCoeff>
1.00

>  <CAS>
1239752-45-4

>  <MW>
149.15

>  <Description>
solid

>  <FSP3>
0.14

>  <clogP>
0.87

>  <TPSA>
54.71

>  <Acceptor>
3

>  <Donor>
1

>  <RotBonds>
1

>  <HAC>
11

>  <Collection>
General

>  <PPDS>
+

$$$$
F6660-6033
  Mrv2219 10102508112D          

 34 38  0  0  0  0            999 V2000
   11.1792   -5.6417    0.0000 C   0  0  0  0  0  0  0  0  0  0  0  0
    5.4542   -8.1167    0.0000 S   0  0  0  0  0  0  0  0  0  0  0  0
   10.4542   -6.8917    0.0000 N   0  0  0  0  0  0  0  0  0  0  0  0
    9.7375   -5.6417    0.0000 C   0  0  0  0  0  0  0  0  0  0  0  0
    9.7375   -6.4750    0.0000 C   0  0  0  0  0  0  0  0  0  0  0  0
   10.4542   -5.2250    0.0000 C   0  0  0  0  0  0  0  0  0  0  0  0
   11.1750   -6.4792    0.0000 C   0  0  0  0  0  0  0  0  0  0  0  0
    6.1625   -7.7042    0.0000 N   0  0  0  0  0  0  0  0  0  0  0  0
    9.0250   -6.8875    0.0000 C   0  0  0  0  0  0  0  0  0  0  0  0
    8.3042   -6.4750    0.0000 C   0  0  0  0  0  0  0  0  0  0  0  0
   10.4500   -7.7167    0.0000 C   0  0  0  0  0  0  0  0  0  0  0  0
    9.0250   -5.2292    0.0000 C   0  0  0  0  0  0  0  0  0  0  0  0
    7.5917   -6.8875    0.0000 N   0  0  0  0  0  0  0  0  0  0  0  0
   11.8917   -5.2292    0.0000 C   0  0  0  0  0  0  0  0  0  0  0  0
    8.3042   -5.6417    0.0000 C   0  0  0  0  0  0  0  0  0  0  0  0
   10.8667   -8.4292    0.0000 C   0  0  0  0  0  0  0  0  0  0  0  0
   10.0417   -8.4292    0.0000 C   0  0  0  0  0  0  0  0  0  0  0  0
    4.7417   -8.5417    0.0000 C   0  0  0  0  0  0  0  0  0  0  0  0
    6.1667   -6.8792    0.0000 C   0  0  0  0  0  0  0  0  0  0  0  0
    6.8792   -8.1167    0.0000 C   0  0  0  0  0  0  0  0  0  0  0  0
    5.8750   -8.8292    0.0000 O   0  0  0  0  0  0  0  0  0  0  0  0
    5.0292   -7.4125    0.0000 O   0  0  0  0  0  0  0  0  0  0  0  0
   10.4542   -4.4000    0.0000 O   0  0  0  0  0  0  0  0  0  0  0  0
    6.8792   -6.4667    0.0000 C   0  0  0  0  0  0  0  0  0  0  0  0
    7.6000   -7.7042    0.0000 C   0  0  0  0  0  0  0  0  0  0  0  0
   11.8917   -4.4042    0.0000 O   0  0  0  0  0  0  0  0  0  0  0  0
    7.5917   -5.2292    0.0000 F   0  0  0  0  0  0  0  0  0  0  0  0
   12.6042   -5.6500    0.0000 O   0  0  0  0  0  0  0  0  0  0  0  0
    4.0125   -8.1292    0.0000 C   0  0  0  0  0  0  0  0  0  0  0  0
    4.0042   -7.3125    0.0000 C   0  0  0  0  0  0  0  0  0  0  0  0
    3.3042   -8.5500    0.0000 C   0  0  0  0  0  0  0  0  0  0  0  0
    2.5875   -8.1417    0.0000 C   0  0  0  0  0  0  0  0  0  0  0  0
    3.2875   -6.9042    0.0000 C   0  0  0  0  0  0  0  0  0  0  0  0
    2.5792   -7.3167    0.0000 C   0  0  0  0  0  0  0  0  0  0  0  0
  2  8  1  0  0  0  0
  3  7  1  0  0  0  0
  4  6  1  0  0  0  0
  5  3  1  0  0  0  0
  6  1  1  0  0  0  0
  7  1  2  0  0  0  0
  8 20  1  0  0  0  0
  9  5  2  0  0  0  0
 10  9  1  0  0  0  0
 11  3  1  0  0  0  0
 12  4  2  0  0  0  0
 13 10  1  0  0  0  0
 14  1  1  0  0  0  0
 15 12  1  0  0  0  0
 16 11  1  0  0  0  0
 17 11  1  0  0  0  0
 18  2  1  0  0  0  0
 19 24  1  0  0  0  0
 20 25  1  0  0  0  0
 21  2  2  0  0  0  0
 22  2  2  0  0  0  0
 23  6  2  0  0  0  0
 24 13  1  0  0  0  0
 25 13  1  0  0  0  0
 26 14  2  0  0  0  0
 27 15  1  0  0  0  0
 28 14  1  0  0  0  0
 29 18  1  0  0  0  0
 30 29  1  0  0  0  0
 31 29  2  0  0  0  0
 32 31  1  0  0  0  0
 33 30  2  0  0  0  0
 34 32  2  0  0  0  0
  5  4  1  0  0  0  0
 17 16  1  0  0  0  0
 10 15  2  0  0  0  0
  8 19  1  0  0  0  0
 33 34  1  0  0  0  0
M  END
>  <IDNUMBER>
F6660-6033

>  <Chemical_Name>
1-cyclopropyl-6-fluoro-4-oxo-7-(4-phenylmethanesulfonylpiperazin-1-yl)-1,4-dihydroquinoline-3-carboxylic acid

>  <PriceCoeff>
1.00

>  <CAS>
341004-32-8

>  <MW>
485.53

>  <Description>
solid

>  <FSP3>
0.33

>  <clogP>
3.30

>  <TPSA>
106.61

>  <Acceptor>
7

>  <Donor>
2

>  <RotBonds>
6

>  <HAC>
34

>  <Collection>
General

$$$$
F6660-6241
  Mrv2219 10102508112D          

 20 21  0  0  0  0            999 V2000
    6.9792   -5.0667    0.0000 C   0  0  0  0  0  0  0  0  0  0  0  0
    5.5500   -5.0667    0.0000 C   0  0  0  0  0  0  0  0  0  0  0  0
    5.5500   -5.8917    0.0000 C   0  0  0  0  0  0  0  0  0  0  0  0
    6.2625   -4.6542    0.0000 C   0  0  0  0  0  0  0  0  0  0  0  0
    6.2625   -6.3042    0.0000 N   0  0  0  0  0  0  0  0  0  0  0  0
    6.9792   -5.8917    0.0000 C   0  0  0  0  0  0  0  0  0  0  0  0
    4.8375   -6.3042    0.0000 N   0  0  0  0  0  0  0  0  0  0  0  0
    7.7000   -4.6542    0.0000 C   0  0  0  0  0  0  0  0  0  0  0  0
    4.8375   -4.6542    0.0000 C   0  0  0  0  0  0  0  0  0  0  0  0
    9.8292   -5.0792    0.0000 C   0  0  0  0  0  0  0  0  0  0  0  0
   10.5500   -5.5042    0.0000 C   0  0  0  0  0  0  0  0  0  0  0  0
    6.2625   -3.8292    0.0000 O   0  0  0  0  0  0  0  0  0  0  0  0
    7.7042   -3.8292    0.0000 O   0  0  0  0  0  0  0  0  0  0  0  0
    4.1167   -5.8917    0.0000 C   0  0  0  0  0  0  0  0  0  0  0  0
    8.4125   -5.0750    0.0000 N   0  0  0  0  0  0  0  0  0  0  0  0
    4.1167   -5.0667    0.0000 C   0  0  0  0  0  0  0  0  0  0  0  0
    6.2625   -7.1292    0.0000 C   0  0  0  0  0  0  0  0  0  0  0  0
    9.1292   -4.6625    0.0000 C   0  0  0  0  0  0  0  0  0  0  0  0
    3.4000   -6.3167    0.0000 C   0  0  0  0  0  0  0  0  0  0  0  0
    6.9750   -7.5417    0.0000 C   0  0  0  0  0  0  0  0  0  0  0  0
  2  4  1  0  0  0  0
  3  5  1  0  0  0  0
  4  1  1  0  0  0  0
  5  6  1  0  0  0  0
  6  1  2  0  0  0  0
  7  3  1  0  0  0  0
  8  1  1  0  0  0  0
  9  2  1  0  0  0  0
 10 18  1  0  0  0  0
 11 10  3  0  0  0  0
 12  4  2  0  0  0  0
 13  8  2  0  0  0  0
 14  7  2  0  0  0  0
 15  8  1  0  0  0  0
 16  9  2  0  0  0  0
 17  5  1  0  0  0  0
 18 15  1  0  0  0  0
 19 14  1  0  0  0  0
 20 17  1  0  0  0  0
  2  3  2  0  0  0  0
 16 14  1  0  0  0  0
M  END
>  <IDNUMBER>
F6660-6241

>  <Chemical_Name>
1-ethyl-7-methyl-4-oxo-N-(prop-2-yn-1-yl)-1,4-dihydro-1,8-naphthyridine-3-carboxamide

>  <PriceCoeff>
1.00

>  <CAS>
2379994-46-2

>  <MW>
269.30

>  <Description>
solid

>  <FSP3>
0.27

>  <clogP>
0.53

>  <TPSA>
62.30

>  <Acceptor>
3

>  <Donor>
3

>  <RotBonds>
4

>  <HAC>
20

>  <Collection>
General

>  <PPDS>
+

$$$$
F6660-6276
  Mrv2219 10102508112D          

 17 19  0  0  0  0            999 V2000
   14.4108   -3.1288    0.0000 N   0  0  0  0  0  0  0  0  0  0  0  0
   15.0733   -2.6289    0.0000 C   0  0  0  0  0  0  0  0  0  0  0  0
   13.7401   -2.6497    0.0000 C   0  0  0  0  0  0  0  0  0  0  0  0
   14.8025   -1.8498    0.0000 N   0  0  0  0  0  0  0  0  0  0  0  0
   13.9776   -1.8623    0.0000 O   0  0  0  0  0  0  0  0  0  0  0  0
   15.8774   -2.7914    0.0000 C   0  0  0  0  0  0  0  0  0  0  0  0
   12.9360   -2.8289    0.0000 C   0  0  0  0  0  0  0  0  0  0  0  0
   11.3237   -3.1913    0.0000 N   0  0  0  0  0  0  0  0  0  0  0  0
   11.5737   -2.4039    0.0000 C   0  0  0  0  0  0  0  0  0  0  0  0
   11.8903   -3.7996    0.0000 C   0  0  0  0  0  0  0  0  0  0  0  0
   12.3778   -2.2164    0.0000 C   0  0  0  0  0  0  0  0  0  0  0  0
   12.6902   -3.6163    0.0000 C   0  0  0  0  0  0  0  0  0  0  0  0
   16.1398   -3.5788    0.0000 C   0  0  0  0  0  0  0  0  0  0  0  0
   16.4148   -2.1748    0.0000 C   0  0  0  0  0  0  0  0  0  0  0  0
   17.2355   -2.3372    0.0000 C   0  0  0  0  0  0  0  0  0  0  0  0
   16.9523   -3.7413    0.0000 C   0  0  0  0  0  0  0  0  0  0  0  0
   17.4980   -3.1163    0.0000 C   0  0  0  0  0  0  0  0  0  0  0  0
  2  1  1  0  0  0  0
  3  1  2  0  0  0  0
  4  2  2  0  0  0  0
  5  3  1  0  0  0  0
  6  2  1  0  0  0  0
  7  3  1  0  0  0  0
  8 10  1  0  0  0  0
  9 11  1  0  0  0  0
 10 12  2  0  0  0  0
 11  7  2  0  0  0  0
 12  7  1  0  0  0  0
 13  6  1  0  0  0  0
 14  6  2  0  0  0  0
 15 14  1  0  0  0  0
 16 13  2  0  0  0  0
 17 15  2  0  0  0  0
  4  5  1  0  0  0  0
  9  8  2  0  0  0  0
 16 17  1  0  0  0  0
M  END
>  <IDNUMBER>
F6660-6276

>  <Chemical_Name>
4-(3-phenyl-1,2,4-oxadiazol-5-yl)pyridine

>  <PriceCoeff>
1.00

>  <CAS>
4969-62-4

>  <MW>
223.23

>  <Description>
solid

>  <FSP3>
0.00

>  <clogP>
2.29

>  <TPSA>
51.81

>  <Acceptor>
4

>  <Donor>
1

>  <RotBonds>
2

>  <HAC>
17

>  <Collection>
General

>  <PPDS>
+

$$$$
F6663-4248
  Mrv2219 10102508112D          

 20 22  0  0  0  0            999 V2000
   -2.2958    4.4667    0.0000 C   0  0  0  0  0  0  0  0  0  0  0  0
   -2.2958    3.6583    0.0000 N   0  0  0  0  0  0  0  0  0  0  0  0
   -2.2958    2.0083    0.0000 N   0  0  0  0  0  0  0  0  0  0  0  0
   -3.0083    4.8875    0.0000 C   0  0  0  0  0  0  0  0  0  0  0  0
   -3.0083    5.7125    0.0000 C   0  0  0  0  0  0  0  0  0  0  0  0
   -3.7208    6.1250    0.0000 C   0  0  0  0  0  0  0  0  0  0  0  0
   -3.0083    3.2458    0.0000 C   0  0  0  0  0  0  0  0  0  0  0  0
   -1.5833    3.2458    0.0000 C   0  0  0  0  0  0  0  0  0  0  0  0
   -1.5833    2.4208    0.0000 C   0  0  0  0  0  0  0  0  0  0  0  0
   -3.0083    2.4208    0.0000 C   0  0  0  0  0  0  0  0  0  0  0  0
   -1.5833    4.8875    0.0000 O   0  0  0  0  0  0  0  0  0  0  0  0
   -4.4375    5.7125    0.0000 C   0  0  0  0  0  0  0  0  0  0  0  0
   -3.7208    4.4667    0.0000 C   0  0  0  0  0  0  0  0  0  0  0  0
   -2.2958    1.1833    0.0000 C   0  0  0  0  0  0  0  0  0  0  0  0
   -4.4375    4.8875    0.0000 C   0  0  0  0  0  0  0  0  0  0  0  0
   -3.7208    6.9500    0.0000 F   0  0  0  0  0  0  0  0  0  0  0  0
   -2.2958    0.0125    0.0000 C   0  0  0  0  0  0  0  0  0  0  0  0
   -2.8750    0.5958    0.0000 C   0  0  0  0  0  0  0  0  0  0  0  0
   -1.7083    0.5958    0.0000 C   0  0  0  0  0  0  0  0  0  0  0  0
   -5.1583    6.1250    0.0000 C   0  0  0  0  0  0  0  0  0  0  0  0
  2  1  1  0  0  0  0
  3  9  1  0  0  0  0
  4  1  1  0  0  0  0
  5  4  2  0  0  0  0
  6  5  1  0  0  0  0
  7  2  1  0  0  0  0
  8  2  1  0  0  0  0
  9  8  1  0  0  0  0
 10  7  1  0  0  0  0
 11  1  2  0  0  0  0
 12 15  1  0  0  0  0
 13  4  1  0  0  0  0
 14  3  1  0  0  0  0
 15 13  2  0  0  0  0
 16  6  1  0  0  0  0
 17 19  1  0  0  0  0
 18 14  1  0  0  0  0
 19 14  1  0  0  0  0
 20 12  1  0  0  0  0
 10  3  1  0  0  0  0
  6 12  2  0  0  0  0
 18 17  1  0  0  0  0
M  END
>  <IDNUMBER>
F6663-4248

>  <Chemical_Name>
1-cyclobutyl-4-(3-fluoro-4-methylbenzoyl)piperazine

>  <PriceCoeff>
1.00

>  <CAS>
2327307-01-5

>  <MW>
276.34

>  <Description>
oil

>  <FSP3>
0.56

>  <clogP>
2.75

>  <TPSA>
23.55

>  <Acceptor>
1

>  <Donor>
1

>  <RotBonds>
3

>  <HAC>
20

>  <Collection>
General

>  <PPDS>
+

$$$$
F6663-4473
  Mrv2219 10102508112D          

 21 23  0  0  0  0            999 V2000
   -2.4708    3.5708    0.0000 N   0  0  0  0  0  0  0  0  0  0  0  0
   -3.1833    3.9833    0.0000 C   0  0  0  0  0  0  0  0  0  0  0  0
   -1.0375    2.7458    0.0000 C   0  0  0  0  0  0  0  0  0  0  0  0
   -3.8958    3.5708    0.0000 C   0  0  0  0  0  0  0  0  0  0  0  0
   -6.0292    2.3333    0.0000 C   0  0  0  0  0  0  0  0  0  0  0  0
   -1.0375    3.5708    0.0000 C   0  0  0  0  0  0  0  0  0  0  0  0
   -1.7500    2.3333    0.0000 C   0  0  0  0  0  0  0  0  0  0  0  0
   -3.8958    2.7458    0.0000 C   0  0  0  0  0  0  0  0  0  0  0  0
   -6.0292    1.5083    0.0000 C   0  0  0  0  0  0  0  0  0  0  0  0
   -6.8167    2.5875    0.0000 O   0  0  0  0  0  0  0  0  0  0  0  0
   -1.7500    3.9833    0.0000 C   0  0  0  0  0  0  0  0  0  0  0  0
   -2.4708    2.7458    0.0000 C   0  0  0  0  0  0  0  0  0  0  0  0
   -6.8167    1.2583    0.0000 O   0  0  0  0  0  0  0  0  0  0  0  0
   -7.3042    1.9208    0.0000 C   0  0  0  0  0  0  0  0  0  0  0  0
   -5.3333    2.7458    0.0000 C   0  0  0  0  0  0  0  0  0  0  0  0
   -3.1833    4.8042    0.0000 O   0  0  0  0  0  0  0  0  0  0  0  0
   -4.6083    2.3333    0.0000 C   0  0  0  0  0  0  0  0  0  0  0  0
   -5.3333    1.0958    0.0000 C   0  0  0  0  0  0  0  0  0  0  0  0
   -0.7583    1.9708    0.0000 F   0  0  0  0  0  0  0  0  0  0  0  0
   -0.2250    2.8958    0.0000 F   0  0  0  0  0  0  0  0  0  0  0  0
   -4.6083    1.5083    0.0000 C   0  0  0  0  0  0  0  0  0  0  0  0
  2  1  1  0  0  0  0
  3  7  1  0  0  0  0
  4  2  1  0  0  0  0
  5 15  1  0  0  0  0
  6 11  1  0  0  0  0
  7 12  1  0  0  0  0
  8  4  2  0  0  0  0
  9 18  1  0  0  0  0
 10  5  1  0  0  0  0
 11  1  1  0  0  0  0
 12  1  1  0  0  0  0
 13  9  1  0  0  0  0
 14 10  1  0  0  0  0
 15 17  2  0  0  0  0
 16  2  2  0  0  0  0
 17  8  1  0  0  0  0
 18 21  2  0  0  0  0
 19  3  1  0  0  0  0
 20  3  1  0  0  0  0
 21 17  1  0  0  0  0
  6  3  1  0  0  0  0
  5  9  2  0  0  0  0
 13 14  1  0  0  0  0
M  END
>  <IDNUMBER>
F6663-4473

>  <Chemical_Name>
(2E)-3-(2H-1,3-benzodioxol-5-yl)-1-(4,4-difluoropiperidin-1-yl)prop-2-en-1-one

>  <PriceCoeff>
1.00

>  <CAS>
2348614-10-6

>  <MW>
295.28

>  <Description>
solid

>  <FSP3>
0.40

>  <clogP>
2.24

>  <TPSA>
38.77

>  <Acceptor>
3

>  <Donor>
0

>  <RotBonds>
3

>  <HAC>
21

>  <Collection>
General

$$$$
F6739-8494
  Mrv2219 10102508112D          

 21 22  0  0  0  0            999 V2000
   -2.8583   -1.6500    0.0000 N   0  0  0  0  0  0  0  0  0  0  0  0
   -2.8583    0.8250    0.0000 C   0  0  0  0  0  0  0  0  0  0  0  0
   -2.8583   -2.4750    0.0000 C   0  0  0  0  0  0  0  0  0  0  0  0
   -3.5750   -1.2292    0.0000 C   0  0  0  0  0  0  0  0  0  0  0  0
   -3.5750    1.2375    0.0000 C   0  0  0  0  0  0  0  0  0  0  0  0
   -2.8583    0.0000    0.0000 C   0  0  0  0  0  0  0  0  0  0  0  0
   -3.5750   -0.4042    0.0000 C   0  0  0  0  0  0  0  0  0  0  0  0
   -2.1458   -2.8792    0.0000 C   0  0  0  0  0  0  0  0  0  0  0  0
   -4.2875    0.8250    0.0000 C   0  0  0  0  0  0  0  0  0  0  0  0
   -4.2875    0.0000    0.0000 C   0  0  0  0  0  0  0  0  0  0  0  0
   -2.1458    1.2375    0.0000 O   0  0  0  0  0  0  0  0  0  0  0  0
   -3.5750    2.0625    0.0000 O   0  0  0  0  0  0  0  0  0  0  0  0
   -2.1458   -1.2292    0.0000 C   0  0  0  0  0  0  0  0  0  0  0  0
   -3.5750   -2.8792    0.0000 C   0  0  0  0  0  0  0  0  0  0  0  0
   -1.4333   -2.4750    0.0000 C   0  0  0  0  0  0  0  0  0  0  0  0
   -2.1458   -3.7042    0.0000 C   0  0  0  0  0  0  0  0  0  0  0  0
   -1.4333    0.8250    0.0000 C   0  0  0  0  0  0  0  0  0  0  0  0
   -4.2875    2.4750    0.0000 C   0  0  0  0  0  0  0  0  0  0  0  0
   -1.4333   -4.1250    0.0000 C   0  0  0  0  0  0  0  0  0  0  0  0
   -0.7208   -2.8792    0.0000 C   0  0  0  0  0  0  0  0  0  0  0  0
   -0.7208   -3.7042    0.0000 C   0  0  0  0  0  0  0  0  0  0  0  0
  2  6  1  0  0  0  0
  3  1  1  0  0  0  0
  4  1  1  0  0  0  0
  5  9  1  0  0  0  0
  6  7  2  0  0  0  0
  7  4  1  0  0  0  0
  8  3  1  0  0  0  0
  9 10  2  0  0  0  0
 10  7  1  0  0  0  0
 11  2  1  0  0  0  0
 12  5  1  0  0  0  0
 13  1  1  0  0  0  0
 14  3  1  0  0  0  0
 15  8  1  0  0  0  0
 16  8  2  0  0  0  0
 17 11  1  0  0  0  0
 18 12  1  0  0  0  0
 19 16  1  0  0  0  0
 20 15  2  0  0  0  0
 21 19  2  0  0  0  0
  2  5  2  0  0  0  0
 20 21  1  0  0  0  0
M  END
>  <IDNUMBER>
F6739-8494

>  <Chemical_Name>
[(3,4-dimethoxyphenyl)methyl](methyl)(1-phenylethyl)amine

>  <PriceCoeff>
1.50

>  <CAS>
2948549-15-1

>  <MW>
285.39

>  <Description>
oil

>  <FSP3>
0.33

>  <clogP>
3.74

>  <TPSA>
21.70

>  <Acceptor>
2

>  <Donor>
1

>  <RotBonds>
6

>  <HAC>
21

>  <Collection>
Advanced

>  <PPDS>
+

$$$$
F6782-0558
  Mrv2219 10102508112D          

 13 13  0  0  0  0            999 V2000
    5.3666   -2.7602    0.0000 C   0  0  0  0  0  0  0  0  0  0  0  0
    4.6558   -3.1718    0.0000 C   0  0  0  0  0  0  0  0  0  0  0  0
    3.9450   -2.7602    0.0000 C   0  0  0  0  0  0  0  0  0  0  0  0
    5.3666   -1.9372    0.0000 O   0  0  0  0  0  0  0  0  0  0  0  0
    3.2341   -3.1801    0.0000 C   0  0  0  0  0  0  0  0  0  0  0  0
    2.5191   -2.7685    0.0000 C   0  0  0  0  0  0  0  0  0  0  0  0
    6.0858   -3.1676    0.0000 O   0  0  0  0  0  0  0  0  0  0  0  0
    1.8083   -3.1801    0.0000 C   0  0  0  0  0  0  0  0  0  0  0  0
    1.0974   -2.7727    0.0000 O   0  0  0  0  0  0  0  0  0  0  0  0
    2.5191   -4.4189    0.0000 C   0  0  0  0  0  0  0  0  0  0  0  0
    3.2341   -4.0073    0.0000 C   0  0  0  0  0  0  0  0  0  0  0  0
    1.8083   -4.0073    0.0000 C   0  0  0  0  0  0  0  0  0  0  0  0
    1.0974   -1.9496    0.0000 C   0  0  0  0  0  0  0  0  0  0  0  0
  2  1  1  0  0  0  0
  3  2  2  0  0  0  0
  4  1  2  0  0  0  0
  5  3  1  0  0  0  0
  6  5  2  0  0  0  0
  7  1  1  0  0  0  0
  8  6  1  0  0  0  0
  9  8  1  0  0  0  0
 10 11  2  0  0  0  0
 11  5  1  0  0  0  0
 12 10  1  0  0  0  0
 13  9  1  0  0  0  0
  8 12  2  0  0  0  0
M  END
>  <IDNUMBER>
F6782-0558

>  <Chemical_Name>
(2E)-3-(3-methoxyphenyl)prop-2-enoic acid

>  <PriceCoeff>
1.00

>  <CAS>
17570-26-2

>  <MW>
178.18

>  <Description>
solid

>  <FSP3>
0.10

>  <clogP>
2.16

>  <TPSA>
46.53

>  <Acceptor>
3

>  <Donor>
0

>  <RotBonds>
3

>  <HAC>
13

>  <Collection>
General

>  <PPDS>
+

$$$$
F6782-0676
  Mrv2219 10102508112D          

 19 21  0  0  0  0            999 V2000
    5.8577   -5.4514    0.0000 C   0  0  0  0  0  0  0  0  0  0  0  0
    5.8577   -4.6264    0.0000 N   0  0  0  0  0  0  0  0  0  0  0  0
    6.6412   -5.7084    0.0000 C   0  0  0  0  0  0  0  0  0  0  0  0
    6.6412   -4.3695    0.0000 N   0  0  0  0  0  0  0  0  0  0  0  0
    7.1262   -5.0410    0.0000 N   0  0  0  0  0  0  0  0  0  0  0  0
    6.8568   -6.5044    0.0000 C   0  0  0  0  0  0  0  0  0  0  0  0
    5.1405   -4.2078    0.0000 C   0  0  0  0  0  0  0  0  0  0  0  0
    5.1861   -5.9447    0.0000 N   0  0  0  0  0  0  0  0  0  0  0  0
    6.2805   -7.0931    0.0000 C   0  0  0  0  0  0  0  0  0  0  0  0
    6.4961   -7.8766    0.0000 C   0  0  0  0  0  0  0  0  0  0  0  0
    5.9116   -8.4487    0.0000 Cl  0  0  0  0  0  0  0  0  0  0  0  0
    7.6527   -6.7076    0.0000 C   0  0  0  0  0  0  0  0  0  0  0  0
    7.8766   -7.5035    0.0000 C   0  0  0  0  0  0  0  0  0  0  0  0
    4.4275   -4.6264    0.0000 C   0  0  0  0  0  0  0  0  0  0  0  0
    5.1405   -3.3828    0.0000 C   0  0  0  0  0  0  0  0  0  0  0  0
    7.2921   -8.0880    0.0000 C   0  0  0  0  0  0  0  0  0  0  0  0
    4.4275   -2.9724    0.0000 C   0  0  0  0  0  0  0  0  0  0  0  0
    3.7103   -4.2160    0.0000 C   0  0  0  0  0  0  0  0  0  0  0  0
    3.7103   -3.3828    0.0000 C   0  0  0  0  0  0  0  0  0  0  0  0
  2  1  1  0  0  0  0
  3  1  2  0  0  0  0
  4  2  1  0  0  0  0
  5  3  1  0  0  0  0
  6  3  1  0  0  0  0
  7  2  1  0  0  0  0
  8  1  1  0  0  0  0
  9  6  2  0  0  0  0
 10  9  1  0  0  0  0
 11 10  1  0  0  0  0
 12  6  1  0  0  0  0
 13 12  2  0  0  0  0
 14  7  2  0  0  0  0
 15  7  1  0  0  0  0
 16 13  1  0  0  0  0
 17 15  2  0  0  0  0
 18 14  1  0  0  0  0
 19 17  1  0  0  0  0
  5  4  2  0  0  0  0
 10 16  2  0  0  0  0
 19 18  2  0  0  0  0
M  END
>  <IDNUMBER>
F6782-0676

>  <Chemical_Name>
4-(3-chlorophenyl)-1-phenyl-1H-1,2,3-triazol-5-amine

>  <PriceCoeff>
1.00

>  <CAS>
126158-50-7

>  <MW>
270.72

>  <Description>
solid

>  <FSP3>
0.00

>  <clogP>
3.73

>  <TPSA>
56.73

>  <Acceptor>
2

>  <Donor>
1

>  <RotBonds>
2

>  <HAC>
19

>  <Collection>
General

>  <PPDS>
+

$$$$
F6782-3511
  Mrv2219 10102508112D          

 17 17  0  0  0  0            999 V2000
    6.6792   -4.4542    0.0000 C   0  0  0  0  0  0  0  0  0  0  0  0
    8.8042   -4.0417    0.0000 C   0  0  0  0  0  0  0  0  0  0  0  0
    3.8250   -2.7875    0.0000 C   0  0  0  0  0  0  0  0  0  0  0  0
    4.5417   -3.2125    0.0000 C   0  0  0  0  0  0  0  0  0  0  0  0
    5.9625   -4.0375    0.0000 C   0  0  0  0  0  0  0  0  0  0  0  0
    8.8125   -3.2167    0.0000 O   0  0  0  0  0  0  0  0  0  0  0  0
    6.6750   -5.2792    0.0000 O   0  0  0  0  0  0  0  0  0  0  0  0
    4.5417   -4.0375    0.0000 C   0  0  0  0  0  0  0  0  0  0  0  0
    5.2500   -2.8000    0.0000 C   0  0  0  0  0  0  0  0  0  0  0  0
    5.9625   -3.2125    0.0000 C   0  0  0  0  0  0  0  0  0  0  0  0
    5.2500   -4.4417    0.0000 C   0  0  0  0  0  0  0  0  0  0  0  0
    7.3875   -4.0417    0.0000 C   0  0  0  0  0  0  0  0  0  0  0  0
    8.1000   -4.4542    0.0000 C   0  0  0  0  0  0  0  0  0  0  0  0
    9.5167   -4.4625    0.0000 O   0  0  0  0  0  0  0  0  0  0  0  0
    4.2417   -2.0667    0.0000 C   0  0  0  0  0  0  0  0  0  0  0  0
    3.4000   -3.5042    0.0000 C   0  0  0  0  0  0  0  0  0  0  0  0
    3.1042   -2.3667    0.0000 C   0  0  0  0  0  0  0  0  0  0  0  0
  2 13  1  0  0  0  0
  3  4  1  0  0  0  0
  4  8  2  0  0  0  0
  5  1  1  0  0  0  0
  6  2  2  0  0  0  0
  7  1  2  0  0  0  0
  8 11  1  0  0  0  0
  9 10  2  0  0  0  0
 10  5  1  0  0  0  0
 11  5  2  0  0  0  0
 12  1  1  0  0  0  0
 13 12  1  0  0  0  0
 14  2  1  0  0  0  0
 15  3  1  0  0  0  0
 16  3  1  0  0  0  0
 17  3  1  0  0  0  0
  9  4  1  0  0  0  0
M  END
>  <IDNUMBER>
F6782-3511

>  <Chemical_Name>
4-(4-tert-butylphenyl)-4-oxobutanoic acid

>  <PriceCoeff>
1.00

>  <CAS>
35288-08-5

>  <MW>
234.30

>  <Description>
solid

>  <FSP3>
0.43

>  <clogP>
3.08

>  <TPSA>
54.37

>  <Acceptor>
3

>  <Donor>
0

>  <RotBonds>
4

>  <HAC>
17

>  <Collection>
General

>  <PPDS>
+

$$$$
F6782-6659
  Mrv2219 10102508112D          

 19 21  0  0  0  0            999 V2000
   11.5292   -3.9792    0.0000 C   0  0  0  0  0  0  0  0  0  0  0  0
   10.8167   -5.2167    0.0000 N   0  0  0  0  0  0  0  0  0  0  0  0
   10.1042   -3.9792    0.0000 C   0  0  0  0  0  0  0  0  0  0  0  0
   10.8167   -3.5667    0.0000 C   0  0  0  0  0  0  0  0  0  0  0  0
   11.5292   -4.8042    0.0000 C   0  0  0  0  0  0  0  0  0  0  0  0
   10.1042   -4.8042    0.0000 C   0  0  0  0  0  0  0  0  0  0  0  0
   12.2542   -3.5542    0.0000 C   0  0  0  0  0  0  0  0  0  0  0  0
   10.8167   -6.0417    0.0000 C   0  0  0  0  0  0  0  0  0  0  0  0
    9.3917   -5.2167    0.0000 C   0  0  0  0  0  0  0  0  0  0  0  0
    9.3917   -3.5667    0.0000 C   0  0  0  0  0  0  0  0  0  0  0  0
   10.1042   -6.4542    0.0000 C   0  0  0  0  0  0  0  0  0  0  0  0
    9.2792   -6.4542    0.0000 C   0  0  0  0  0  0  0  0  0  0  0  0
    9.6917   -7.1667    0.0000 C   0  0  0  0  0  0  0  0  0  0  0  0
   10.8167   -2.7417    0.0000 O   0  0  0  0  0  0  0  0  0  0  0  0
   12.2500   -2.7292    0.0000 O   0  0  0  0  0  0  0  0  0  0  0  0
    8.6750   -3.9792    0.0000 C   0  0  0  0  0  0  0  0  0  0  0  0
   12.9750   -3.9667    0.0000 O   0  0  0  0  0  0  0  0  0  0  0  0
    8.6750   -4.8042    0.0000 C   0  0  0  0  0  0  0  0  0  0  0  0
    7.9542   -3.5542    0.0000 F   0  0  0  0  0  0  0  0  0  0  0  0
  2  5  1  0  0  0  0
  3  4  1  0  0  0  0
  4  1  1  0  0  0  0
  5  1  2  0  0  0  0
  6  2  1  0  0  0  0
  7  1  1  0  0  0  0
  8  2  1  0  0  0  0
  9  6  1  0  0  0  0
 10  3  1  0  0  0  0
 11  8  1  0  0  0  0
 12 11  1  0  0  0  0
 13 11  1  0  0  0  0
 14  4  2  0  0  0  0
 15  7  2  0  0  0  0
 16 10  2  0  0  0  0
 17  7  1  0  0  0  0
 18  9  2  0  0  0  0
 19 16  1  0  0  0  0
  3  6  2  0  0  0  0
 13 12  1  0  0  0  0
 16 18  1  0  0  0  0
M  END
>  <IDNUMBER>
F6782-6659

>  <Chemical_Name>
1-(cyclopropylmethyl)-6-fluoro-4-oxo-1,4-dihydroquinoline-3-carboxylic acid

>  <PriceCoeff>
1.00

>  <CAS>
1267826-31-2

>  <MW>
261.25

>  <Description>
solid

>  <FSP3>
0.29

>  <clogP>
2.30

>  <TPSA>
57.61

>  <Acceptor>
4

>  <Donor>
1

>  <RotBonds>
3

>  <HAC>
19

>  <Collection>
General

$$$$
F6782-8294
  Mrv2219 10102508112D          

 23 26  0  0  0  0            999 V2000
    6.0819   -6.5856    0.0000 C   0  0  0  0  0  0  0  0  0  0  0  0
    6.0985   -7.4223    0.0000 N   0  0  0  0  0  0  0  0  0  0  0  0
    5.3492   -6.1860    0.0000 C   0  0  0  0  0  0  0  0  0  0  0  0
    6.8853   -7.6596    0.0000 N   0  0  0  0  0  0  0  0  0  0  0  0
    6.8478   -6.3233    0.0000 C   0  0  0  0  0  0  0  0  0  0  0  0
    4.6499   -6.6231    0.0000 N   0  0  0  0  0  0  0  0  0  0  0  0
    7.3599   -6.9727    0.0000 C   0  0  0  0  0  0  0  0  0  0  0  0
    5.3867   -7.8469    0.0000 C   0  0  0  0  0  0  0  0  0  0  0  0
    4.6707   -7.4598    0.0000 C   0  0  0  0  0  0  0  0  0  0  0  0
    3.9214   -6.2359    0.0000 C   0  0  0  0  0  0  0  0  0  0  0  0
    5.3367   -5.3617    0.0000 O   0  0  0  0  0  0  0  0  0  0  0  0
    3.8964   -5.4117    0.0000 C   0  0  0  0  0  0  0  0  0  0  0  0
    3.1721   -5.0245    0.0000 C   0  0  0  0  0  0  0  0  0  0  0  0
    7.1725   -5.5615    0.0000 C   0  0  0  0  0  0  0  0  0  0  0  0
    3.1388   -4.2003    0.0000 C   0  0  0  0  0  0  0  0  0  0  0  0
    8.1716   -6.8728    0.0000 C   0  0  0  0  0  0  0  0  0  0  0  0
    2.4228   -3.8132    0.0000 O   0  0  0  0  0  0  0  0  0  0  0  0
    4.5750   -4.1503    0.0000 C   0  0  0  0  0  0  0  0  0  0  0  0
    4.5999   -4.9746    0.0000 C   0  0  0  0  0  0  0  0  0  0  0  0
    3.8464   -3.7632    0.0000 C   0  0  0  0  0  0  0  0  0  0  0  0
    1.7151   -4.2503    0.0000 C   0  0  0  0  0  0  0  0  0  0  0  0
    7.9843   -5.4491    0.0000 C   0  0  0  0  0  0  0  0  0  0  0  0
    8.4963   -6.1110    0.0000 C   0  0  0  0  0  0  0  0  0  0  0  0
  2  1  1  0  0  0  0
  3  1  1  0  0  0  0
  4  2  1  0  0  0  0
  5  1  2  0  0  0  0
  6  3  1  0  0  0  0
  7  5  1  0  0  0  0
  8  2  1  0  0  0  0
  9  6  1  0  0  0  0
 10  6  1  0  0  0  0
 11  3  2  0  0  0  0
 12 10  1  0  0  0  0
 13 12  1  0  0  0  0
 14  5  1  0  0  0  0
 15 13  2  0  0  0  0
 16  7  1  0  0  0  0
 17 15  1  0  0  0  0
 18 19  1  0  0  0  0
 19 12  2  0  0  0  0
 20 18  2  0  0  0  0
 21 17  1  0  0  0  0
 22 14  1  0  0  0  0
 23 22  1  0  0  0  0
  4  7  2  0  0  0  0
  8  9  2  0  0  0  0
 23 16  1  0  0  0  0
 15 20  1  0  0  0  0
M  END
>  <IDNUMBER>
F6782-8294

>  <Chemical_Name>
2-[(3-methoxyphenyl)methyl]-1H,2H,7H,8H,9H,10H-pyrazino[1,2-b]indazol-1-one

>  <PriceCoeff>
1.00

>  <CAS>
1775377-50-8

>  <MW>
309.37

>  <Description>
solid

>  <FSP3>
0.33

>  <clogP>
2.39

>  <TPSA>
47.36

>  <Acceptor>
3

>  <Donor>
0

>  <RotBonds>
3

>  <HAC>
23

>  <Collection>
General

>  <PPDS>
+

$$$$
F6782-8295
  Mrv2219 10102508112D          

 23 26  0  0  0  0            999 V2000
    6.0819   -6.5856    0.0000 C   0  0  0  0  0  0  0  0  0  0  0  0
    6.0985   -7.4223    0.0000 N   0  0  0  0  0  0  0  0  0  0  0  0
    5.3492   -6.1860    0.0000 C   0  0  0  0  0  0  0  0  0  0  0  0
    6.8853   -7.6596    0.0000 N   0  0  0  0  0  0  0  0  0  0  0  0
    6.8478   -6.3233    0.0000 C   0  0  0  0  0  0  0  0  0  0  0  0
    4.6499   -6.6231    0.0000 N   0  0  0  0  0  0  0  0  0  0  0  0
    7.3599   -6.9727    0.0000 C   0  0  0  0  0  0  0  0  0  0  0  0
    5.3867   -7.8469    0.0000 C   0  0  0  0  0  0  0  0  0  0  0  0
    4.6707   -7.4598    0.0000 C   0  0  0  0  0  0  0  0  0  0  0  0
    3.9214   -6.2359    0.0000 C   0  0  0  0  0  0  0  0  0  0  0  0
    5.3367   -5.3617    0.0000 O   0  0  0  0  0  0  0  0  0  0  0  0
    3.8964   -5.4117    0.0000 C   0  0  0  0  0  0  0  0  0  0  0  0
    7.1725   -5.5615    0.0000 C   0  0  0  0  0  0  0  0  0  0  0  0
    3.8464   -3.7632    0.0000 C   0  0  0  0  0  0  0  0  0  0  0  0
    4.5999   -4.9746    0.0000 C   0  0  0  0  0  0  0  0  0  0  0  0
    3.1721   -5.0245    0.0000 C   0  0  0  0  0  0  0  0  0  0  0  0
    3.1388   -4.2003    0.0000 C   0  0  0  0  0  0  0  0  0  0  0  0
    4.5750   -4.1503    0.0000 C   0  0  0  0  0  0  0  0  0  0  0  0
    8.1716   -6.8728    0.0000 C   0  0  0  0  0  0  0  0  0  0  0  0
    3.8256   -2.9473    0.0000 O   0  0  0  0  0  0  0  0  0  0  0  0
    3.0971   -2.5518    0.0000 C   0  0  0  0  0  0  0  0  0  0  0  0
    7.9843   -5.4491    0.0000 C   0  0  0  0  0  0  0  0  0  0  0  0
    8.4963   -6.1110    0.0000 C   0  0  0  0  0  0  0  0  0  0  0  0
  2  1  1  0  0  0  0
  3  1  1  0  0  0  0
  4  2  1  0  0  0  0
  5  1  2  0  0  0  0
  6  3  1  0  0  0  0
  7  5  1  0  0  0  0
  8  2  1  0  0  0  0
  9  6  1  0  0  0  0
 10  6  1  0  0  0  0
 11  3  2  0  0  0  0
 12 10  1  0  0  0  0
 13  5  1  0  0  0  0
 14 17  1  0  0  0  0
 15 12  2  0  0  0  0
 16 12  1  0  0  0  0
 17 16  2  0  0  0  0
 18 15  1  0  0  0  0
 19  7  1  0  0  0  0
 20 14  1  0  0  0  0
 21 20  1  0  0  0  0
 22 13  1  0  0  0  0
 23 22  1  0  0  0  0
  4  7  2  0  0  0  0
  8  9  2  0  0  0  0
 23 19  1  0  0  0  0
 18 14  2  0  0  0  0
M  END
>  <IDNUMBER>
F6782-8295

>  <Chemical_Name>
2-[(4-methoxyphenyl)methyl]-1H,2H,7H,8H,9H,10H-pyrazino[1,2-b]indazol-1-one

>  <PriceCoeff>
1.00

>  <CAS>
2770629-62-2

>  <MW>
309.37

>  <Description>
oil

>  <FSP3>
0.33

>  <clogP>
2.39

>  <TPSA>
47.36

>  <Acceptor>
3

>  <Donor>
0

>  <RotBonds>
3

>  <HAC>
23

>  <Collection>
General

>  <PPDS>
+

$$$$
F6790-0118
  Mrv2219 10102508112D          

 14 15  0  0  0  0            999 V2000
   -3.7661    3.7285    0.0000 C   0  0  0  0  0  0  0  0  0  0  0  0
   -4.4801    4.1252    0.0000 N   0  0  0  0  0  0  0  0  0  0  0  0
   -3.7661    2.9018    0.0000 N   0  0  0  0  0  0  0  0  0  0  0  0
   -3.0521    4.1252    0.0000 N   0  0  0  0  0  0  0  0  0  0  0  0
   -5.1940    3.7202    0.0000 C   0  0  0  0  0  0  0  0  0  0  0  0
   -4.4801    2.4884    0.0000 C   0  0  0  0  0  0  0  0  0  0  0  0
   -3.0521    4.9519    0.0000 C   0  0  0  0  0  0  0  0  0  0  0  0
   -5.1940    2.9018    0.0000 C   0  0  0  0  0  0  0  0  0  0  0  0
   -5.9205    4.1127    0.0000 C   0  0  0  0  0  0  0  0  0  0  0  0
   -2.3381    5.3653    0.0000 C   0  0  0  0  0  0  0  0  0  0  0  0
   -3.7661    5.3653    0.0000 C   0  0  0  0  0  0  0  0  0  0  0  0
   -3.7661    6.1920    0.0000 C   0  0  0  0  0  0  0  0  0  0  0  0
   -2.3381    6.1920    0.0000 C   0  0  0  0  0  0  0  0  0  0  0  0
   -3.0521    6.6054    0.0000 C   0  0  0  0  0  0  0  0  0  0  0  0
  2  1  2  0  0  0  0
  3  1  1  0  0  0  0
  4  1  1  0  0  0  0
  5  2  1  0  0  0  0
  6  3  2  0  0  0  0
  7  4  1  0  0  0  0
  8  6  1  0  0  0  0
  9  5  1  0  0  0  0
 10  7  2  0  0  0  0
 11  7  1  0  0  0  0
 12 11  2  0  0  0  0
 13 10  1  0  0  0  0
 14 12  1  0  0  0  0
  5  8  2  0  0  0  0
 13 14  2  0  0  0  0
M  END
>  <IDNUMBER>
F6790-0118

>  <Chemical_Name>
4-methyl-N-phenylpyrimidin-2-amine

>  <PriceCoeff>
1.50

>  <CAS>
53112-26-8

>  <MW>
185.23

>  <Description>
solid

>  <FSP3>
0.09

>  <clogP>
2.30

>  <TPSA>
37.81

>  <Acceptor>
3

>  <Donor>
1

>  <RotBonds>
2

>  <HAC>
14

>  <Collection>
Advanced

>  <PPDS>
+

$$$$
F6822-6691
  Mrv2219 10102508112D          

 18 19  0  0  0  0            999 V2000
    2.7467    5.5809    0.0000 C   0  0  0  0  0  0  0  0  0  0  0  0
    2.7467    4.7569    0.0000 C   0  0  0  0  0  0  0  0  0  0  0  0
    1.3151    5.5809    0.0000 C   0  0  0  0  0  0  0  0  0  0  0  0
    2.0268    5.9929    0.0000 C   0  0  0  0  0  0  0  0  0  0  0  0
    3.4583    4.3366    0.0000 N   0  0  0  0  0  0  0  0  0  0  0  0
    2.0268    4.3366    0.0000 O   0  0  0  0  0  0  0  0  0  0  0  0
    3.4583    6.8169    0.0000 N   0  0  0  0  0  0  0  0  0  0  0  0
    0.6035    5.1605    0.0000 F   0  0  0  0  0  0  0  0  0  0  0  0
    0.9031    6.2967    0.0000 F   0  0  0  0  0  0  0  0  0  0  0  0
    1.7272    4.8692    0.0000 F   0  0  0  0  0  0  0  0  0  0  0  0
    3.4583    5.9929    0.0000 C   0  0  0  0  0  0  0  0  0  0  0  0
    3.4583    3.5291    0.0000 C   0  0  0  0  0  0  0  0  0  0  0  0
    2.0268    6.8169    0.0000 C   0  0  0  0  0  0  0  0  0  0  0  0
    2.7467    7.2289    0.0000 C   0  0  0  0  0  0  0  0  0  0  0  0
    2.7884    3.0422    0.0000 C   0  0  0  0  0  0  0  0  0  0  0  0
    4.1243    3.0422    0.0000 C   0  0  0  0  0  0  0  0  0  0  0  0
    3.8704    2.2556    0.0000 C   0  0  0  0  0  0  0  0  0  0  0  0
    3.0464    2.2556    0.0000 C   0  0  0  0  0  0  0  0  0  0  0  0
  2  1  1  0  0  0  0
  3  4  1  0  0  0  0
  4  1  2  0  0  0  0
  5  2  1  0  0  0  0
  6  2  2  0  0  0  0
  7 11  2  0  0  0  0
  8  3  1  0  0  0  0
  9  3  1  0  0  0  0
 10  3  1  0  0  0  0
 11  1  1  0  0  0  0
 12  5  1  0  0  0  0
 13  4  1  0  0  0  0
 14  7  1  0  0  0  0
 15 12  1  0  0  0  0
 16 12  1  0  0  0  0
 17 16  1  0  0  0  0
 18 15  1  0  0  0  0
 14 13  2  0  0  0  0
 18 17  1  0  0  0  0
M  END
>  <IDNUMBER>
F6822-6691

>  <Chemical_Name>
N-cyclopentyl-4-(trifluoromethyl)pyridine-3-carboxamide

>  <PriceCoeff>
1.50

>  <CAS>
2947434-46-8

>  <MW>
258.24

>  <Description>
solid

>  <FSP3>
0.50

>  <clogP>
2.06

>  <TPSA>
41.99

>  <Acceptor>
2

>  <Donor>
2

>  <RotBonds>
2

>  <HAC>
18

>  <Collection>
Advanced

>  <PPDS>
+

$$$$
F6822-6716
  Mrv2219 10102508112D          

 19 20  0  0  0  0            999 V2000
    2.8542    3.3000    0.0000 C   0  0  0  0  0  0  0  0  0  0  0  0
    3.5667    3.7125    0.0000 C   0  0  0  0  0  0  0  0  0  0  0  0
    2.1417    4.5292    0.0000 C   0  0  0  0  0  0  0  0  0  0  0  0
    4.2792    3.3000    0.0000 N   0  0  0  0  0  0  0  0  0  0  0  0
    2.1417    3.7125    0.0000 C   0  0  0  0  0  0  0  0  0  0  0  0
    5.7125    2.4750    0.0000 N   0  0  0  0  0  0  0  0  0  0  0  0
    3.5667    4.5292    0.0000 O   0  0  0  0  0  0  0  0  0  0  0  0
    4.2792    2.4750    0.0000 C   0  0  0  0  0  0  0  0  0  0  0  0
    5.0000    3.7125    0.0000 C   0  0  0  0  0  0  0  0  0  0  0  0
    2.1417    2.0625    0.0000 N   0  0  0  0  0  0  0  0  0  0  0  0
    2.1417    5.3542    0.0000 F   0  0  0  0  0  0  0  0  0  0  0  0
    2.9667    4.5292    0.0000 F   0  0  0  0  0  0  0  0  0  0  0  0
    1.3167    4.5292    0.0000 F   0  0  0  0  0  0  0  0  0  0  0  0
    2.8542    2.4750    0.0000 C   0  0  0  0  0  0  0  0  0  0  0  0
    5.7125    3.3000    0.0000 C   0  0  0  0  0  0  0  0  0  0  0  0
    5.0000    2.0625    0.0000 C   0  0  0  0  0  0  0  0  0  0  0  0
    1.4250    3.3000    0.0000 C   0  0  0  0  0  0  0  0  0  0  0  0
    6.4292    2.0625    0.0000 C   0  0  0  0  0  0  0  0  0  0  0  0
    1.4250    2.4750    0.0000 C   0  0  0  0  0  0  0  0  0  0  0  0
  2  1  1  0  0  0  0
  3  5  1  0  0  0  0
  4  2  1  0  0  0  0
  5  1  2  0  0  0  0
  6 15  1  0  0  0  0
  7  2  2  0  0  0  0
  8  4  1  0  0  0  0
  9  4  1  0  0  0  0
 10 14  2  0  0  0  0
 11  3  1  0  0  0  0
 12  3  1  0  0  0  0
 13  3  1  0  0  0  0
 14  1  1  0  0  0  0
 15  9  1  0  0  0  0
 16  8  1  0  0  0  0
 17  5  1  0  0  0  0
 18  6  1  0  0  0  0
 19 10  1  0  0  0  0
 19 17  2  0  0  0  0
  6 16  1  0  0  0  0
M  END
>  <IDNUMBER>
F6822-6716

>  <Chemical_Name>
1-methyl-4-[4-(trifluoromethyl)pyridine-3-carbonyl]piperazine

>  <PriceCoeff>
1.50

>  <CAS>
158063-45-7

>  <MW>
273.26

>  <Description>
oil

>  <FSP3>
0.50

>  <clogP>
0.78

>  <TPSA>
36.44

>  <Acceptor>
2

>  <Donor>
2

>  <RotBonds>
2

>  <HAC>
19

>  <Collection>
Advanced

>  <PPDS>
+

$$$$
F6834-6919
  Mrv2219 10102508112D          

 25 27  0  0  0  0            999 V2000
   -0.7364   -1.4770    0.0000 C   0  0  0  0  0  0  0  0  0  0  0  0
   -1.4062   -0.9902    0.0000 N   0  0  0  0  0  0  0  0  0  0  0  0
   -2.0677   -1.4770    0.0000 N   0  0  0  0  0  0  0  0  0  0  0  0
    0.0499   -1.2232    0.0000 C   0  0  0  0  0  0  0  0  0  0  0  0
   -0.9943   -2.2633    0.0000 C   0  0  0  0  0  0  0  0  0  0  0  0
   -1.8181   -2.2633    0.0000 C   0  0  0  0  0  0  0  0  0  0  0  0
    0.2164   -0.4161    0.0000 N   0  0  0  0  0  0  0  0  0  0  0  0
    2.5712    0.3453    0.0000 N   0  0  0  0  0  0  0  0  0  0  0  0
    0.6615   -1.7766    0.0000 O   0  0  0  0  0  0  0  0  0  0  0  0
    3.3492    0.5991    0.0000 C   0  0  0  0  0  0  0  0  0  0  0  0
    1.0027   -0.1540    0.0000 C   0  0  0  0  0  0  0  0  0  0  0  0
    3.5239    1.4062    0.0000 C   0  0  0  0  0  0  0  0  0  0  0  0
    1.1733    0.6448    0.0000 C   0  0  0  0  0  0  0  0  0  0  0  0
    1.6143   -0.7156    0.0000 C   0  0  0  0  0  0  0  0  0  0  0  0
    1.9596    0.8987    0.0000 C   0  0  0  0  0  0  0  0  0  0  0  0
    2.4006   -0.4618    0.0000 C   0  0  0  0  0  0  0  0  0  0  0  0
    4.3103    1.6600    0.0000 C   0  0  0  0  0  0  0  0  0  0  0  0
   -1.4062   -0.1665    0.0000 C   0  0  0  0  0  0  0  0  0  0  0  0
    4.4808    2.4671    0.0000 C   0  0  0  0  0  0  0  0  0  0  0  0
    5.2589    2.7209    0.0000 O   0  0  0  0  0  0  0  0  0  0  0  0
   -2.2966   -2.9248    0.0000 C   0  0  0  0  0  0  0  0  0  0  0  0
    3.0829    2.7667    0.0000 C   0  0  0  0  0  0  0  0  0  0  0  0
    2.9124    1.9554    0.0000 C   0  0  0  0  0  0  0  0  0  0  0  0
    3.8692    3.0163    0.0000 C   0  0  0  0  0  0  0  0  0  0  0  0
    5.4336    3.5280    0.0000 C   0  0  0  0  0  0  0  0  0  0  0  0
  2  1  1  0  0  0  0
  3  2  1  0  0  0  0
  4  1  1  0  0  0  0
  5  1  2  0  0  0  0
  6  5  1  0  0  0  0
  7  4  1  0  0  0  0
  8 16  1  0  0  0  0
  9  4  2  0  0  0  0
 10  8  1  0  0  0  0
 11  7  1  0  0  0  0
 12 10  1  0  0  0  0
 13 11  1  0  0  0  0
 14 11  1  0  0  0  0
 15 13  1  0  0  0  0
 16 14  1  0  0  0  0
 17 12  2  0  0  0  0
 18  2  1  0  0  0  0
 19 17  1  0  0  0  0
 20 19  1  0  0  0  0
 21  6  1  0  0  0  0
 22 23  2  0  0  0  0
 23 12  1  0  0  0  0
 24 22  1  0  0  0  0
 25 20  1  0  0  0  0
  6  3  2  0  0  0  0
  8 15  1  0  0  0  0
 24 19  2  0  0  0  0
M  END
>  <IDNUMBER>
F6834-6919

>  <Chemical_Name>
N-{1-[(3-methoxyphenyl)methyl]piperidin-4-yl}-1,3-dimethyl-1H-pyrazole-5-carboxamide

>  <PriceCoeff>
1.50

>  <MW>
342.44

>  <Description>
solid

>  <FSP3>
0.47

>  <clogP>
2.13

>  <TPSA>
59.39

>  <Acceptor>
3

>  <Donor>
2

>  <RotBonds>
5

>  <HAC>
25

>  <Collection>
Advanced

>  <PPDS>
+

$$$$
F6834-6939
  Mrv2219 10102508112D          

 25 27  0  0  0  0            999 V2000
   -0.7518   -1.5161    0.0000 C   0  0  0  0  0  0  0  0  0  0  0  0
   -1.4242   -1.0275    0.0000 N   0  0  0  0  0  0  0  0  0  0  0  0
   -2.0925   -1.5161    0.0000 N   0  0  0  0  0  0  0  0  0  0  0  0
    0.0293   -1.2572    0.0000 C   0  0  0  0  0  0  0  0  0  0  0  0
   -1.0107   -2.2972    0.0000 C   0  0  0  0  0  0  0  0  0  0  0  0
   -1.8377   -2.2972    0.0000 C   0  0  0  0  0  0  0  0  0  0  0  0
    0.2047   -0.4511    0.0000 N   0  0  0  0  0  0  0  0  0  0  0  0
    2.5603    0.3216    0.0000 N   0  0  0  0  0  0  0  0  0  0  0  0
    0.6432   -1.8085    0.0000 O   0  0  0  0  0  0  0  0  0  0  0  0
    0.9941   -0.1922    0.0000 C   0  0  0  0  0  0  0  0  0  0  0  0
    3.3497    0.5722    0.0000 C   0  0  0  0  0  0  0  0  0  0  0  0
    1.1653    0.6140    0.0000 C   0  0  0  0  0  0  0  0  0  0  0  0
    1.6081   -0.7435    0.0000 C   0  0  0  0  0  0  0  0  0  0  0  0
    1.9464    0.8729    0.0000 C   0  0  0  0  0  0  0  0  0  0  0  0
    2.3849   -0.4929    0.0000 C   0  0  0  0  0  0  0  0  0  0  0  0
   -1.4242   -0.2005    0.0000 C   0  0  0  0  0  0  0  0  0  0  0  0
    3.5252    1.3783    0.0000 C   0  0  0  0  0  0  0  0  0  0  0  0
    3.8635    3.0030    0.0000 C   0  0  0  0  0  0  0  0  0  0  0  0
    4.3103    1.6372    0.0000 C   0  0  0  0  0  0  0  0  0  0  0  0
    2.9112    1.9380    0.0000 C   0  0  0  0  0  0  0  0  0  0  0  0
    4.4774    2.4434    0.0000 C   0  0  0  0  0  0  0  0  0  0  0  0
    3.0824    2.7441    0.0000 C   0  0  0  0  0  0  0  0  0  0  0  0
    4.0389    3.8049    0.0000 O   0  0  0  0  0  0  0  0  0  0  0  0
   -2.3264   -2.9696    0.0000 C   0  0  0  0  0  0  0  0  0  0  0  0
    3.4249    4.3521    0.0000 C   0  0  0  0  0  0  0  0  0  0  0  0
  2  1  1  0  0  0  0
  3  2  1  0  0  0  0
  4  1  1  0  0  0  0
  5  1  2  0  0  0  0
  6  5  1  0  0  0  0
  7  4  1  0  0  0  0
  8 15  1  0  0  0  0
  9  4  2  0  0  0  0
 10  7  1  0  0  0  0
 11  8  1  0  0  0  0
 12 10  1  0  0  0  0
 13 10  1  0  0  0  0
 14 12  1  0  0  0  0
 15 13  1  0  0  0  0
 16  2  1  0  0  0  0
 17 11  1  0  0  0  0
 18 22  2  0  0  0  0
 19 17  1  0  0  0  0
 20 17  2  0  0  0  0
 21 19  2  0  0  0  0
 22 20  1  0  0  0  0
 23 18  1  0  0  0  0
 24  6  1  0  0  0  0
 25 23  1  0  0  0  0
  6  3  2  0  0  0  0
  8 14  1  0  0  0  0
 18 21  1  0  0  0  0
M  END
>  <IDNUMBER>
F6834-6939

>  <Chemical_Name>
N-{1-[(4-methoxyphenyl)methyl]piperidin-4-yl}-1,3-dimethyl-1H-pyrazole-5-carboxamide

>  <PriceCoeff>
1.50

>  <MW>
342.44

>  <Description>
solid

>  <FSP3>
0.47

>  <clogP>
2.13

>  <TPSA>
59.39

>  <Acceptor>
3

>  <Donor>
2

>  <RotBonds>
5

>  <HAC>
25

>  <Collection>
Advanced

>  <PPDS>
+

$$$$
F6845-0033
  Mrv2219 10102508112D          

 18 19  0  0  0  0            999 V2000
   10.8683   -2.8392    0.0000 C   0  0  0  0  0  0  0  0  0  0  0  0
   11.5823   -2.4217    0.0000 N   0  0  0  0  0  0  0  0  0  0  0  0
   10.8683   -3.6701    0.0000 O   0  0  0  0  0  0  0  0  0  0  0  0
   11.5907   -4.0751    0.0000 C   0  0  1  0  0  0  0  0  0  0  0  0
   11.5907   -5.7285    0.0000 N   0  0  0  0  0  0  0  0  0  0  0  0
   12.2962   -2.8351    0.0000 C   0  0  0  0  0  0  0  0  0  0  0  0
   10.1502   -2.4300    0.0000 O   0  0  0  0  0  0  0  0  0  0  0  0
   12.3046   -4.4885    0.0000 C   0  0  0  0  0  0  0  0  0  0  0  0
   10.8767   -4.4885    0.0000 C   0  0  0  0  0  0  0  0  0  0  0  0
   12.3046   -3.6576    0.0000 C   0  0  0  0  0  0  0  0  0  0  0  0
   10.8767   -5.3152    0.0000 C   0  0  2  0  0  0  0  0  0  0  0  0
   12.3046   -5.3152    0.0000 C   0  0  1  0  0  0  0  0  0  0  0  0
   11.5781   -1.5950    0.0000 C   0  0  0  0  0  0  0  0  0  0  0  0
   11.2650   -4.7515    0.0000 C   0  0  0  0  0  0  0  0  0  0  0  0
   11.9121   -4.7515    0.0000 C   0  0  0  0  0  0  0  0  0  0  0  0
   12.2921   -1.1774    0.0000 C   0  0  0  0  0  0  0  0  0  0  0  0
   10.8600   -1.1858    0.0000 C   0  0  0  0  0  0  0  0  0  0  0  0
   13.6950   -3.5073    0.0000 Cl  0  0  0  0  0  0  0  0  0  0  0  0
  3  1  1  0  0  0  0
  4  3  1  1  0  0  0
  5 12  1  0  0  0  0
  6  2  1  0  0  0  0
  7  1  2  0  0  0  0
  8  4  1  0  0  0  0
  9  4  1  0  0  0  0
 10  4  1  0  0  0  0
 11  9  1  0  0  0  0
 12  8  1  0  0  0  0
 13  2  1  0  0  0  0
 11 14  1  1  0  0  0
 12 15  1  1  0  0  0
 16 13  1  0  0  0  0
 17 13  1  0  0  0  0
  6 10  1  0  0  0  0
  5 11  1  0  0  0  0
 15 14  1  0  0  0  0
  2  1  1  0  0  0  0
M  END
>  <IDNUMBER>
F6845-0033

>  <Chemical_Name>
(1R,3R,5S)-5'-(propan-2-yl)-8-azaspiro[bicyclo[3.2.1]octane-3,2'-[1,5]oxazinan]-6'-one hydrochloride

>  <PriceCoeff>
1.00

>  <CAS>
3050973-43-5

>  <MW>
238.33

>  <Description>
solid

>  <FSP3>
0.92

>  <clogP>
1.24

>  <TPSA>
41.57

>  <Acceptor>
2

>  <Donor>
1

>  <RotBonds>
1

>  <HAC>
17

>  <Collection>
General

>  <PPDS>
+

$$$$
F8880-1844
  Mrv2219 10102508112D          

  9  8  0  0  0  0            999 V2000
    2.6625    0.7208    0.0000 C   0  0  0  0  0  0  0  0  0  0  0  0
    3.3792    1.1333    0.0000 O   0  0  0  0  0  0  0  0  0  0  0  0
    1.9500    1.1333    0.0000 C   0  0  0  0  0  0  0  0  0  0  0  0
    2.6625   -0.1042    0.0000 O   0  0  0  0  0  0  0  0  0  0  0  0
    1.2375    0.7208    0.0000 C   0  0  0  0  0  0  0  0  0  0  0  0
    0.5167    1.1333    0.0000 C   0  0  0  0  0  0  0  0  0  0  0  0
    1.2375   -0.1042    0.0000 C   0  0  0  0  0  0  0  0  0  0  0  0
   -0.1958    0.7208    0.0000 C   0  0  0  0  0  0  0  0  0  0  0  0
    0.5167   -0.5167    0.0000 C   0  0  0  0  0  0  0  0  0  0  0  0
  2  1  2  0  0  0  0
  3  1  1  0  0  0  0
  4  1  1  0  0  0  0
  5  3  1  0  0  0  0
  6  5  1  0  0  0  0
  7  5  1  0  0  0  0
  8  6  1  0  0  0  0
  9  7  1  0  0  0  0
M  END
>  <IDNUMBER>
F8880-1844

>  <Chemical_Name>
3-ethylpentanoic acid

>  <PriceCoeff>
1.00

>  <CAS>
58888-87-2

>  <MW>
130.19

>  <Description>
liquid

>  <FSP3>
0.86

>  <clogP>
2.10

>  <TPSA>
37.30

>  <Acceptor>
2

>  <Donor>
0

>  <RotBonds>
4

>  <HAC>
9

>  <Collection>
General

$$$$
F8880-7458
  Mrv2219 10102508112D          

 19 19  0  0  0  0            999 V2000
    6.3643   -7.6072    0.0000 N   0  0  0  0  0  0  0  0  0  0  0  0
    6.3643   -6.7966    0.0000 C   0  0  0  0  0  0  0  0  0  0  0  0
    7.0751   -4.7389    0.0000 N   0  0  0  0  0  0  0  0  0  0  0  0
    6.3643   -5.9735    0.0000 C   0  0  0  0  0  0  0  0  0  0  0  0
    5.6493   -5.5537    0.0000 O   0  0  0  0  0  0  0  0  0  0  0  0
    7.0751   -5.5537    0.0000 C   0  0  0  0  0  0  0  0  0  0  0  0
    6.3643   -4.3274    0.0000 C   0  0  0  0  0  0  0  0  0  0  0  0
    5.6493   -4.7389    0.0000 C   0  0  0  0  0  0  0  0  0  0  0  0
   10.1029   -5.1084    0.0000 S   0  0  0  0  0  0  0  0  0  0  0  0
    9.7010   -5.8166    0.0000 C   0  0  0  0  0  0  0  0  0  0  0  0
    9.3936   -4.6881    0.0000 O   0  0  0  0  0  0  0  0  0  0  0  0
   10.5077   -4.3890    0.0000 O   0  0  0  0  0  0  0  0  0  0  0  0
   10.8224   -5.5133    0.0000 O   0  0  0  0  0  0  0  0  0  0  0  0
   10.1154   -6.5325    0.0000 C   0  0  0  0  0  0  0  0  0  0  0  0
    8.8724   -5.8208    0.0000 C   0  0  0  0  0  0  0  0  0  0  0  0
    9.6993   -7.2490    0.0000 C   0  0  0  0  0  0  0  0  0  0  0  0
    8.4655   -6.5366    0.0000 C   0  0  0  0  0  0  0  0  0  0  0  0
    8.8779   -7.2489    0.0000 C   0  0  0  0  0  0  0  0  0  0  0  0
    8.4653   -7.9634    0.0000 C   0  0  0  0  0  0  0  0  0  0  0  0
  5  4  1  0  0  0  0
  6  4  1  0  0  0  0
  7  3  1  0  0  0  0
  8  5  1  0  0  0  0
  7  8  1  0  0  0  0
  2  1  3  0  0  0  0
  3  6  1  0  0  0  0
  4  2  1  0  0  0  0
 10  9  1  0  0  0  0
 11  9  2  0  0  0  0
 12  9  2  0  0  0  0
 13  9  1  0  0  0  0
 14 10  1  0  0  0  0
 15 10  2  0  0  0  0
 16 14  2  0  0  0  0
 17 15  1  0  0  0  0
 18 17  2  0  0  0  0
 19 18  1  0  0  0  0
 16 18  1  0  0  0  0
M  END
>  <IDNUMBER>
F8880-7458

>  <Chemical_Name>
4-methylbenzene-1-sulfonic acid; morpholine-2-carbonitrile

>  <PriceCoeff>
1.00

>  <CAS>
1820717-22-3

>  <MW>
112.13

>  <Description>
solid

>  <FSP3>
0.80

>  <clogP>
-0.66

>  <TPSA>
45.05

>  <Acceptor>
2

>  <Donor>
1

>  <RotBonds>
0

>  <HAC>
8

>  <Collection>
General

$$$$
F8880-8338
  Mrv2219 10102508112D          

 12 13  0  0  0  0            999 V2000
    1.4280   -1.6534    0.0000 N   0  0  0  0  0  0  0  0  0  0  0  0
    1.4280   -2.5094    0.0000 C   0  0  0  0  0  0  0  0  0  0  0  0
    1.8413   -3.2234    0.0000 C   0  0  0  0  0  0  0  0  0  0  0  0
    1.0146   -3.2234    0.0000 C   0  0  0  0  0  0  0  0  0  0  0  0
    0.7140   -1.2401    0.0000 C   0  0  0  0  0  0  0  0  0  0  0  0
    0.7140   -0.4134    0.0000 C   0  0  0  0  0  0  0  0  0  0  0  0
    1.4280    0.8601    0.0000 N   0  0  0  0  0  0  0  0  0  0  0  0
    1.4280    0.0000    0.0000 C   0  0  0  0  0  0  0  0  0  0  0  0
    0.0000    0.0000    0.0000 C   0  0  0  0  0  0  0  0  0  0  0  0
    0.7140    1.2734    0.0000 C   0  0  0  0  0  0  0  0  0  0  0  0
    0.0000   -1.6534    0.0000 C   0  0  0  0  0  0  0  0  0  0  0  0
    0.0000    0.8601    0.0000 C   0  0  0  0  0  0  0  0  0  0  0  0
  2  1  1  0  0  0  0
  3  2  1  0  0  0  0
  4  2  1  0  0  0  0
  5  1  1  0  0  0  0
  6  5  1  0  0  0  0
  7  8  1  0  0  0  0
  8  6  2  0  0  0  0
  9  6  1  0  0  0  0
 10 12  1  0  0  0  0
 11  5  1  0  0  0  0
 12  9  2  0  0  0  0
  4  3  1  0  0  0  0
 10  7  2  0  0  0  0
M  END
>  <IDNUMBER>
F8880-8338

>  <Chemical_Name>
N-[1-(pyridin-3-yl)ethyl]cyclopropanamine

>  <PriceCoeff>
1.50

>  <CAS>
183609-12-3

>  <MW>
162.24

>  <Description>
liquid

>  <FSP3>
0.50

>  <clogP>
1.20

>  <TPSA>
24.92

>  <Acceptor>
1

>  <Donor>
2

>  <RotBonds>
3

>  <HAC>
12

>  <Collection>
Advanced

>  <PPDS>
+

$$$$
F8881-4530
  Mrv2219 10102508112D          

 13 14  0  0  0  0            999 V2000
    6.8917   -6.1917    0.0000 C   0  0  0  0  0  0  0  0  0  0  0  0
    6.3417   -6.8167    0.0000 N   0  0  0  0  0  0  0  0  0  0  0  0
    6.6792   -5.4042    0.0000 C   0  0  0  0  0  0  0  0  0  0  0  0
    7.5667   -7.3417    0.0000 N   0  0  0  0  0  0  0  0  0  0  0  0
    7.6500   -6.5167    0.0000 O   0  0  0  0  0  0  0  0  0  0  0  0
    6.7667   -7.5167    0.0000 C   0  0  0  0  0  0  0  0  0  0  0  0
    5.8875   -5.1917    0.0000 C   0  0  0  0  0  0  0  0  0  0  0  0
    5.6750   -4.3917    0.0000 N   0  0  0  0  0  0  0  0  0  0  0  0
    5.3042   -5.7750    0.0000 Cl  0  0  0  0  0  0  0  0  0  0  0  0
    7.2667   -4.8167    0.0000 C   0  0  0  0  0  0  0  0  0  0  0  0
    6.4417   -8.2792    0.0000 C   0  0  0  0  0  0  0  0  0  0  0  0
    6.2500   -3.8167    0.0000 C   0  0  0  0  0  0  0  0  0  0  0  0
    7.0542   -4.0292    0.0000 C   0  0  0  0  0  0  0  0  0  0  0  0
  2  1  2  0  0  0  0
  3  1  1  0  0  0  0
  4  5  1  0  0  0  0
  5  1  1  0  0  0  0
  6  2  1  0  0  0  0
  7  3  2  0  0  0  0
  8  7  1  0  0  0  0
  9  7  1  0  0  0  0
 10  3  1  0  0  0  0
 11  6  1  0  0  0  0
 12 13  1  0  0  0  0
 13 10  2  0  0  0  0
  4  6  2  0  0  0  0
 12  8  2  0  0  0  0
M  END
>  <IDNUMBER>
F8881-4530

>  <Chemical_Name>
2-chloro-3-(3-methyl-1,2,4-oxadiazol-5-yl)pyridine

>  <PriceCoeff>
1.00

>  <CAS>
890095-56-4

>  <MW>
195.61

>  <Description>
solid

>  <FSP3>
0.13

>  <clogP>
1.98

>  <TPSA>
51.81

>  <Acceptor>
4

>  <Donor>
1

>  <RotBonds>
1

>  <HAC>
13

>  <Collection>
General

>  <PPDS>
+

$$$$
F8882-3710
  Mrv2219 10102508112D          

  9  7  0  0  0  0            999 V2000
   -0.8501    0.3833    0.0000 C   0  0  0  0  0  0  0  0  0  0  0  0
   -1.6252    0.1125    0.0000 N   0  0  0  0  0  0  0  0  0  0  0  0
   -0.2250   -0.1583    0.0000 C   0  0  0  0  0  0  0  0  0  0  0  0
    0.5543    0.1125    0.0000 C   0  0  0  0  0  0  0  0  0  0  0  0
   -0.6959    1.1959    0.0000 C   0  0  0  0  0  0  0  0  0  0  0  0
   -0.3750   -0.9668    0.0000 C   0  0  0  0  0  0  0  0  0  0  0  0
    1.1793   -0.4292    0.0000 C   0  0  0  0  0  0  0  0  0  0  0  0
    1.9544   -0.1583    0.0000 C   0  0  0  0  0  0  0  0  0  0  0  0
    3.3420    0.2083    0.0000 Cl  0  0  0  0  0  0  0  0  0  0  0  0
  3  1  1  0  0  0  0
  4  3  1  0  0  0  0
  5  1  1  0  0  0  0
  6  3  1  0  0  0  0
  7  4  1  0  0  0  0
  8  7  1  0  0  0  0
  2  1  1  0  0  0  0
M  END
>  <IDNUMBER>
F8882-3710

>  <Chemical_Name>
3-methylhexan-2-amine hydrochloride

>  <PriceCoeff>
1.00

>  <CAS>
855475-52-4

>  <MW>
115.22

>  <Description>
solid

>  <FSP3>
1.00

>  <clogP>
1.92

>  <TPSA>
26.02

>  <Acceptor>
0

>  <Donor>
1

>  <RotBonds>
3

>  <HAC>
8

>  <Collection>
General

$$$$
F8883-3578
  Mrv2219 10102508112D          

  9  8  0  0  0  0            999 V2000
    2.6313    0.7191    0.0000 C   0  0  0  0  0  0  0  0  0  0  0  0
    1.9205    1.1307    0.0000 O   0  0  0  0  0  0  0  0  0  0  0  0
    1.2221    0.7191    0.0000 C   0  0  0  0  0  0  0  0  0  0  0  0
    0.5030    1.9413    0.0000 O   0  0  0  0  0  0  0  0  0  0  0  0
    0.5030    1.1307    0.0000 C   0  0  0  0  0  0  0  0  0  0  0  0
    2.2198    0.0000    0.0000 C   0  0  0  0  0  0  0  0  0  0  0  0
    3.0429    1.4300    0.0000 C   0  0  0  0  0  0  0  0  0  0  0  0
    3.3464    0.3076    0.0000 C   0  0  0  0  0  0  0  0  0  0  0  0
   -0.1953    0.7191    0.0000 C   0  0  0  0  0  0  0  0  0  0  0  0
  2  1  1  0  0  0  0
  3  2  1  0  0  0  0
  4  5  1  0  0  0  0
  5  3  1  0  0  0  0
  6  1  1  0  0  0  0
  7  1  1  0  0  0  0
  8  1  1  0  0  0  0
  9  5  1  0  0  0  0
M  END
>  <IDNUMBER>
F8883-3578

>  <Chemical_Name>
1-(tert-butoxy)propan-2-ol

>  <PriceCoeff>
1.00

>  <CAS>
57018-52-7

>  <MW>
132.20

>  <Description>
liquid

>  <FSP3>
1.00

>  <clogP>
0.91

>  <TPSA>
29.46

>  <Acceptor>
2

>  <Donor>
1

>  <RotBonds>
3

>  <HAC>
9

>  <Collection>
General

$$$$
F8884-5845
  Mrv2219 10102508112D          

 11 12  0  0  0  0            999 V2000
    1.1375    0.8583    0.0000 N   0  0  0  0  0  0  0  0  0  0  0  0
    0.6500    1.5250    0.0000 C   0  0  0  0  0  0  0  0  0  0  0  0
    1.9167    1.1125    0.0000 C   0  0  0  0  0  0  0  0  0  0  0  0
    1.9167    1.9375    0.0000 C   0  0  0  0  0  0  0  0  0  0  0  0
    1.1375    2.1958    0.0000 C   0  0  0  0  0  0  0  0  0  0  0  0
    2.6375    2.3500    0.0000 C   0  0  0  0  0  0  0  0  0  0  0  0
   -0.1750    1.5250    0.0000 O   0  0  0  0  0  0  0  0  0  0  0  0
    2.6375    0.7000    0.0000 C   0  0  0  0  0  0  0  0  0  0  0  0
    3.3500    1.9375    0.0000 C   0  0  0  0  0  0  0  0  0  0  0  0
    3.3500    1.1125    0.0000 C   0  0  0  0  0  0  0  0  0  0  0  0
    4.0667    2.3500    0.0000 C   0  0  0  0  0  0  0  0  0  0  0  0
  2  1  1  0  0  0  0
  3  1  1  0  0  0  0
  4  3  2  0  0  0  0
  5  2  1  0  0  0  0
  6  4  1  0  0  0  0
  7  2  2  0  0  0  0
  8  3  1  0  0  0  0
  9 10  1  0  0  0  0
 10  8  2  0  0  0  0
 11  9  1  0  0  0  0
  4  5  1  0  0  0  0
  9  6  2  0  0  0  0
M  END
>  <IDNUMBER>
F8884-5845

>  <Chemical_Name>
5-methyl-2,3-dihydro-1H-indol-2-one

>  <PriceCoeff>
1.00

>  <CAS>
3484-35-3

>  <MW>
147.18

>  <Description>
solid

>  <FSP3>
0.22

>  <clogP>
1.59

>  <TPSA>
29.10

>  <Acceptor>
1

>  <Donor>
1

>  <RotBonds>
0

>  <HAC>
11

>  <Collection>
General

>  <PPDS>
+

$$$$
F8884-9331
  Mrv2219 10102508112D          

  9 10  0  0  0  0            999 V2000
    0.8625   -0.9750    0.0000 C   0  0  0  0  0  0  0  0  0  0  0  0
    1.6875   -0.9750    0.0000 C   0  0  0  0  0  0  0  0  0  0  0  0
    0.8625   -0.1500    0.0000 C   0  0  0  0  0  0  0  0  0  0  0  0
    1.6875   -0.1500    0.0000 C   0  0  0  0  0  0  0  0  0  0  0  0
    0.2792   -1.5542    0.0000 O   0  0  0  0  0  0  0  0  0  0  0  0
    2.4042    0.2625    0.0000 C   0  0  0  0  0  0  0  0  0  0  0  0
    2.4042   -1.3875    0.0000 C   0  0  0  0  0  0  0  0  0  0  0  0
    3.1167   -0.1500    0.0000 C   0  0  0  0  0  0  0  0  0  0  0  0
    3.1167   -0.9750    0.0000 C   0  0  0  0  0  0  0  0  0  0  0  0
  2  1  1  0  0  0  0
  3  1  1  0  0  0  0
  4  3  1  0  0  0  0
  5  1  2  0  0  0  0
  6  4  1  0  0  0  0
  7  2  1  0  0  0  0
  8  6  1  0  0  0  0
  9  7  1  0  0  0  0
  4  2  1  0  0  0  0
  9  8  1  0  0  0  0
M  END
>  <IDNUMBER>
F8884-9331

>  <Chemical_Name>
bicyclo[4.2.0]octan-7-one

>  <PriceCoeff>
1.00

>  <CAS>
54211-18-6

>  <MW>
124.18

>  <Description>
liquid

>  <FSP3>
0.88

>  <clogP>
1.85

>  <TPSA>
17.07

>  <Acceptor>
1

>  <Donor>
0

>  <RotBonds>
0

>  <HAC>
9

>  <Collection>
General

>  <PPDS>
+

$$$$
F8885-7819
  Mrv2219 10102508112D          

 12 13  0  0  0  0            999 V2000
    0.6500   -0.6917    0.0000 C   0  0  0  0  0  0  0  0  0  0  0  0
    1.1375   -0.0292    0.0000 N   0  0  0  0  0  0  0  0  0  0  0  0
    1.1375   -1.3625    0.0000 S   0  0  0  0  0  0  0  0  0  0  0  0
   -0.1750   -0.6917    0.0000 S   0  0  0  0  0  0  0  0  0  0  0  0
    1.9167   -0.2792    0.0000 C   0  0  0  0  0  0  0  0  0  0  0  0
    1.9167   -1.1042    0.0000 C   0  0  0  0  0  0  0  0  0  0  0  0
   -0.5875   -1.4042    0.0000 C   0  0  0  0  0  0  0  0  0  0  0  0
   -1.4125   -1.4042    0.0000 Cl  0  0  0  0  0  0  0  0  0  0  0  0
    2.6375    0.1333    0.0000 C   0  0  0  0  0  0  0  0  0  0  0  0
    2.6375   -1.5167    0.0000 C   0  0  0  0  0  0  0  0  0  0  0  0
    3.3500   -1.1042    0.0000 C   0  0  0  0  0  0  0  0  0  0  0  0
    3.3500   -0.2792    0.0000 C   0  0  0  0  0  0  0  0  0  0  0  0
  2  1  2  0  0  0  0
  3  1  1  0  0  0  0
  4  1  1  0  0  0  0
  5  2  1  0  0  0  0
  6  3  1  0  0  0  0
  7  4  1  0  0  0  0
  8  7  1  0  0  0  0
  9  5  1  0  0  0  0
 10  6  1  0  0  0  0
 11 10  2  0  0  0  0
 12  9  2  0  0  0  0
  6  5  2  0  0  0  0
 11 12  1  0  0  0  0
M  END
>  <IDNUMBER>
F8885-7819

>  <Chemical_Name>
2-[(chloromethyl)sulfanyl]-1,3-benzothiazole

>  <PriceCoeff>
1.00

>  <CAS>
28908-00-1

>  <MW>
215.73

>  <Description>
oil

>  <FSP3>
0.13

>  <clogP>
3.74

>  <TPSA>
12.89

>  <Acceptor>
1

>  <Donor>
0

>  <RotBonds>
2

>  <HAC>
12

>  <Collection>
General

$$$$
F8887-5762
  Mrv2219 10102508112D          

 11 12  0  0  0  0            999 V2000
    5.2042   -0.9875    0.0000 N   0  0  0  0  0  0  0  0  0  0  0  0
    5.6917   -0.3167    0.0000 C   0  0  0  0  0  0  0  0  0  0  0  0
    4.4167   -0.7292    0.0000 C   0  0  0  0  0  0  0  0  0  0  0  0
    4.4167    0.0958    0.0000 C   0  0  0  0  0  0  0  0  0  0  0  0
    5.2042    0.3500    0.0000 C   0  0  0  0  0  0  0  0  0  0  0  0
    3.7042    0.5000    0.0000 C   0  0  0  0  0  0  0  0  0  0  0  0
    6.5125   -0.3167    0.0000 O   0  0  0  0  0  0  0  0  0  0  0  0
    3.7042   -1.1500    0.0000 C   0  0  0  0  0  0  0  0  0  0  0  0
    2.9917    0.0875    0.0000 C   0  0  0  0  0  0  0  0  0  0  0  0
    2.9917   -0.7375    0.0000 C   0  0  0  0  0  0  0  0  0  0  0  0
    2.2792    0.5000    0.0000 Br  0  0  0  0  0  0  0  0  0  0  0  0
  2  1  1  0  0  0  0
  3  1  1  0  0  0  0
  4  3  1  0  0  0  0
  5  2  1  0  0  0  0
  6  4  2  0  0  0  0
  7  2  2  0  0  0  0
  8  3  2  0  0  0  0
  9 10  2  0  0  0  0
 10  8  1  0  0  0  0
 11  9  1  0  0  0  0
  4  5  1  0  0  0  0
  9  6  1  0  0  0  0
M  END
>  <IDNUMBER>
F8887-5762

>  <Chemical_Name>
5-bromo-2,3-dihydro-1H-indol-2-one

>  <PriceCoeff>
1.00

>  <CAS>
20870-78-4

>  <MW>
212.05

>  <Description>
solid

>  <FSP3>
0.13

>  <clogP>
1.94

>  <TPSA>
29.10

>  <Acceptor>
1

>  <Donor>
1

>  <RotBonds>
0

>  <HAC>
11

>  <Collection>
General

>  <PPDS>
+

$$$$
F8888-0334
  Mrv2219 10102508112D          

 13 14  0  0  0  0            999 V2000
    0.0417   -1.7167    0.0000 N   0  0  0  0  0  0  0  0  0  0  0  0
    0.3000   -2.5042    0.0000 C   0  0  0  0  0  0  0  0  0  0  0  0
    1.3792   -1.7167    0.0000 N   0  0  0  0  0  0  0  0  0  0  0  0
    1.1250   -2.5042    0.0000 O   0  0  0  0  0  0  0  0  0  0  0  0
    0.7125   -1.2375    0.0000 C   0  0  0  0  0  0  0  0  0  0  0  0
   -0.1833   -3.1667    0.0000 C   0  0  0  0  0  0  0  0  0  0  0  0
   -1.4958   -3.7542    0.0000 C   0  0  0  0  0  0  0  0  0  0  0  0
   -1.1583   -4.5042    0.0000 N   0  0  0  0  0  0  0  0  0  0  0  0
   -1.0083   -3.0875    0.0000 C   0  0  0  0  0  0  0  0  0  0  0  0
   -2.3125   -3.6667    0.0000 Cl  0  0  0  0  0  0  0  0  0  0  0  0
   -0.3333   -4.5917    0.0000 C   0  0  0  0  0  0  0  0  0  0  0  0
    0.1500   -3.9250    0.0000 C   0  0  0  0  0  0  0  0  0  0  0  0
    0.7125   -0.4125    0.0000 C   0  0  0  0  0  0  0  0  0  0  0  0
  2  1  2  0  0  0  0
  3  5  2  0  0  0  0
  4  2  1  0  0  0  0
  5  1  1  0  0  0  0
  6  2  1  0  0  0  0
  7  9  1  0  0  0  0
  8 11  1  0  0  0  0
  9  6  2  0  0  0  0
 10  7  1  0  0  0  0
 11 12  2  0  0  0  0
 12  6  1  0  0  0  0
 13  5  1  0  0  0  0
  3  4  1  0  0  0  0
  7  8  2  0  0  0  0
M  END
>  <IDNUMBER>
F8888-0334

>  <Chemical_Name>
2-chloro-4-(3-methyl-1,2,4-oxadiazol-5-yl)pyridine

>  <PriceCoeff>
1.00

>  <CAS>
959240-51-8

>  <MW>
195.61

>  <Description>
solid

>  <FSP3>
0.13

>  <clogP>
1.98

>  <TPSA>
51.81

>  <Acceptor>
4

>  <Donor>
1

>  <RotBonds>
1

>  <HAC>
13

>  <Collection>
General

>  <PPDS>
+

$$$$
F8888-8743
  Mrv2219 10102508112D          

 18 19  0  0  0  0            999 V2000
   -1.1797    2.0863    0.0000 O   0  0  0  0  0  0  0  0  0  0  0  0
    1.6310   -0.0579    0.0000 N   0  0  0  0  0  0  0  0  0  0  0  0
   -0.2111    1.3287    0.0000 C   0  0  0  0  0  0  0  0  0  0  0  0
   -0.9480    0.6830    0.0000 C   0  0  0  0  0  0  0  0  0  0  0  0
   -1.1797   -0.5589    0.0000 C   0  0  0  0  0  0  0  0  0  0  0  0
    1.3827    1.3494    0.0000 C   0  0  0  0  0  0  0  0  0  0  0  0
    0.7369    0.6830    0.0000 C   0  0  0  0  0  0  0  0  0  0  0  0
    4.6460    1.8217    0.0000 S   0  0  0  0  0  0  0  0  0  0  0  0
    4.2458    1.1165    0.0000 C   0  0  0  0  0  0  0  0  0  0  0  0
    3.9397    2.2402    0.0000 O   0  0  0  0  0  0  0  0  0  0  0  0
    5.0491    2.5381    0.0000 O   0  0  0  0  0  0  0  0  0  0  0  0
    5.3625    1.4186    0.0000 O   0  0  0  0  0  0  0  0  0  0  0  0
    4.6585    0.4036    0.0000 C   0  0  0  0  0  0  0  0  0  0  0  0
    3.4208    1.1124    0.0000 C   0  0  0  0  0  0  0  0  0  0  0  0
    4.2442   -0.3098    0.0000 C   0  0  0  0  0  0  0  0  0  0  0  0
    3.0155    0.3995    0.0000 C   0  0  0  0  0  0  0  0  0  0  0  0
    3.4262   -0.3097    0.0000 C   0  0  0  0  0  0  0  0  0  0  0  0
    3.0153   -1.0212    0.0000 C   0  0  0  0  0  0  0  0  0  0  0  0
  5  4  1  0  0  0  0
  6  3  1  0  0  0  0
  7  4  1  0  0  0  0
  5  3  1  0  0  0  0
  2  6  1  0  0  0  0
  2  7  1  0  0  0  0
  3  1  1  0  0  0  0
  4  1  1  0  0  0  0
  9  8  1  0  0  0  0
 10  8  2  0  0  0  0
 11  8  2  0  0  0  0
 12  8  1  0  0  0  0
 13  9  1  0  0  0  0
 14  9  2  0  0  0  0
 15 13  2  0  0  0  0
 16 14  1  0  0  0  0
 17 16  2  0  0  0  0
 18 17  1  0  0  0  0
 15 17  1  0  0  0  0
M  END
>  <IDNUMBER>
F8888-8743

>  <Chemical_Name>
4-methylbenzene-1-sulfonic acid; 6-oxa-3-azabicyclo[3.1.1]heptane

>  <PriceCoeff>
1.50

>  <CAS>
1339953-58-0

>  <MW>
99.13

>  <Description>
solid

>  <FSP3>
1.00

>  <clogP>
-0.40

>  <TPSA>
21.26

>  <Acceptor>
1

>  <Donor>
1

>  <RotBonds>
0

>  <HAC>
7

>  <Collection>
Advanced

$$$$
F8889-0707
  Mrv2219 10102508112D          

 10 10  0  0  0  0            999 V2000
    0.7140    1.2734    0.0000 C   0  0  0  0  0  0  0  0  0  0  0  0
    0.0000    0.8601    0.0000 C   0  0  0  0  0  0  0  0  0  0  0  0
    0.7140    2.1252    0.0000 C   0  0  0  0  0  0  0  0  0  0  0  0
   -0.7516    1.2734    0.0000 O   0  0  0  0  0  0  0  0  0  0  0  0
    1.4280    0.8601    0.0000 C   0  0  0  0  0  0  0  0  0  0  0  0
    0.0000    0.0000    0.0000 C   0  0  0  0  0  0  0  0  0  0  0  0
    1.4280    2.5386    0.0000 C   0  0  0  0  0  0  0  0  0  0  0  0
    0.0000    2.5386    0.0000 C   0  0  0  0  0  0  0  0  0  0  0  0
    1.4280    0.0000    0.0000 C   0  0  0  0  0  0  0  0  0  0  0  0
    0.7140   -0.4134    0.0000 C   0  0  0  0  0  0  0  0  0  0  0  0
  2  1  1  0  0  0  0
  3  1  1  0  0  0  0
  4  2  1  0  0  0  0
  5  1  1  0  0  0  0
  6  2  1  0  0  0  0
  7  3  1  0  0  0  0
  8  3  1  0  0  0  0
  9  5  1  0  0  0  0
 10  9  1  0  0  0  0
 10  6  1  0  0  0  0
M  END
>  <IDNUMBER>
F8889-0707

>  <Chemical_Name>
2-(propan-2-yl)cyclohexan-1-ol

>  <PriceCoeff>
1.00

>  <CAS>
96-07-1

>  <MW>
142.24

>  <Description>
oil

>  <FSP3>
1.00

>  <clogP>
2.38

>  <TPSA>
20.23

>  <Acceptor>
1

>  <Donor>
1

>  <RotBonds>
1

>  <HAC>
10

>  <Collection>
General

$$$$
F8889-1386
  Mrv2219 10102508112D          

 13 12  0  0  0  0            999 V2000
    7.8204   -2.6597    0.0000 C   0  0  0  0  0  0  0  0  0  0  0  0
    6.3924   -3.4947    0.0000 C   0  0  0  0  0  0  0  0  0  0  0  0
    5.6534   -3.8998    0.0000 C   0  0  0  0  0  0  0  0  0  0  0  0
    7.1064   -2.2463    0.0000 C   0  0  0  0  0  0  0  0  0  0  0  0
    7.8204   -3.4947    0.0000 C   0  0  0  0  0  0  0  0  0  0  0  0
    6.3924   -2.6597    0.0000 C   0  0  0  0  0  0  0  0  0  0  0  0
    7.1064   -3.8998    0.0000 C   0  0  0  0  0  0  0  0  0  0  0  0
    4.9477   -3.4947    0.0000 O   0  5  0  0  0  0  0  0  0  0  0  0
    5.6534   -4.7473    0.0000 O   0  0  0  0  0  0  0  0  0  0  0  0
    8.5552   -2.2421    0.0000 O   0  0  0  0  0  0  0  0  0  0  0  0
    7.1022   -1.4071    0.0000 O   0  0  0  0  0  0  0  0  0  0  0  0
    8.5552   -3.8998    0.0000 O   0  0  0  0  0  0  0  0  0  0  0  0
   10.0750   -3.2735    0.0000 Na  0  3  0  0  0  0  0  0  0  0  0  0
  3  2  1  0  0  0  0
  4  1  2  0  0  0  0
  5  1  1  0  0  0  0
  6  4  1  0  0  0  0
  7  5  2  0  0  0  0
  8  3  1  0  0  0  0
  9  3  2  0  0  0  0
 10  1  1  0  0  0  0
 11  4  1  0  0  0  0
 12  5  1  0  0  0  0
  6  2  2  0  0  0  0
  2  7  1  0  0  0  0
M  CHG  2   8  -1  13   1
M  END
>  <IDNUMBER>
F8889-1386

>  <Chemical_Name>
sodium 3,4,5-trihydroxybenzoate

>  <PriceCoeff>
1.00

>  <CAS>
2053-21-6

>  <MW>
169.11

>  <Description>
solid

>  <FSP3>
0.00

>  <clogP>
0.72

>  <TPSA>
100.82

>  <Acceptor>
5

>  <Donor>
3

>  <RotBonds>
1

>  <HAC>
12

>  <Collection>
General

>  <PPDS>
+

$$$$
F8889-4371
  Mrv2219 10102508112D          

 14 15  0  0  0  0            999 V2000
    2.1417   -3.7125    0.0000 O   0  0  0  0  0  0  0  0  0  0  0  0
    2.1417   -2.8875    0.0000 C   0  0  0  0  0  0  0  0  0  0  0  0
    2.1417   -1.2375    0.0000 C   0  0  0  0  0  0  0  0  0  0  0  0
    2.8542   -2.4750    0.0000 C   0  0  0  0  0  0  0  0  0  0  0  0
    1.4250   -2.4750    0.0000 C   0  0  0  0  0  0  0  0  0  0  0  0
    2.8542   -1.6500    0.0000 C   0  0  0  0  0  0  0  0  0  0  0  0
    1.4250   -1.6500    0.0000 C   0  0  0  0  0  0  0  0  0  0  0  0
    2.1417   -0.4125    0.0000 O   0  0  0  0  0  0  0  0  0  0  0  0
    1.4250   -4.1250    0.0000 C   0  0  0  0  0  0  0  0  0  0  0  0
    1.4250   -4.9500    0.0000 C   0  0  0  0  0  0  0  0  0  0  0  0
    0.7125   -3.7125    0.0000 C   0  0  0  0  0  0  0  0  0  0  0  0
    0.0000   -4.1250    0.0000 C   0  0  0  0  0  0  0  0  0  0  0  0
    0.7125   -5.3625    0.0000 C   0  0  0  0  0  0  0  0  0  0  0  0
    0.0000   -4.9500    0.0000 C   0  0  0  0  0  0  0  0  0  0  0  0
  2  1  1  0  0  0  0
  3  7  2  0  0  0  0
  4  2  1  0  0  0  0
  5  2  2  0  0  0  0
  6  4  2  0  0  0  0
  7  5  1  0  0  0  0
  8  3  1  0  0  0  0
  9  1  1  0  0  0  0
 10  9  1  0  0  0  0
 11  9  1  0  0  0  0
 12 11  1  0  0  0  0
 13 10  1  0  0  0  0
 14 12  1  0  0  0  0
  6  3  1  0  0  0  0
 14 13  1  0  0  0  0
M  END
>  <IDNUMBER>
F8889-4371

>  <Chemical_Name>
4-(cyclohexyloxy)phenol

>  <PriceCoeff>
1.00

>  <CAS>
42873-96-1

>  <MW>
192.26

>  <Description>
solid

>  <FSP3>
0.50

>  <clogP>
3.31

>  <TPSA>
29.46

>  <Acceptor>
2

>  <Donor>
1

>  <RotBonds>
2

>  <HAC>
14

>  <Collection>
General

>  <PPDS>
+

$$$$
F8889-6491
  Mrv2219 10102508112D          

 14 14  0  0  0  0            999 V2000
   -1.6081   -3.2288    0.0000 C   0  0  0  0  0  0  0  0  0  0  0  0
   -1.6206    0.0583    0.0000 C   0  0  0  0  0  0  0  0  0  0  0  0
   -1.6206   -2.4039    0.0000 C   0  0  0  0  0  0  0  0  0  0  0  0
   -1.6206   -0.7499    0.0000 C   0  0  0  0  0  0  0  0  0  0  0  0
   -0.8999   -3.6413    0.0000 O   0  0  0  0  0  0  0  0  0  0  0  0
   -2.3330    0.4707    0.0000 O   0  0  0  0  0  0  0  0  0  0  0  0
   -2.3330   -1.1666    0.0000 C   0  0  0  0  0  0  0  0  0  0  0  0
   -0.8999   -1.9915    0.0000 C   0  0  0  0  0  0  0  0  0  0  0  0
   -0.8999   -1.1624    0.0000 C   0  0  0  0  0  0  0  0  0  0  0  0
   -2.3330   -1.9915    0.0000 C   0  0  0  0  0  0  0  0  0  0  0  0
   -2.3330   -3.6413    0.0000 O   0  0  0  0  0  0  0  0  0  0  0  0
   -0.9082    0.4707    0.0000 O   0  0  0  0  0  0  0  0  0  0  0  0
   -0.1958    0.0583    0.0000 C   0  0  0  0  0  0  0  0  0  0  0  0
    0.4999    0.4749    0.0000 C   0  0  0  0  0  0  0  0  0  0  0  0
  2  4  1  0  0  0  0
  3  1  1  0  0  0  0
  4  7  1  0  0  0  0
  5  1  2  0  0  0  0
  6  2  2  0  0  0  0
  7 10  2  0  0  0  0
  8  3  2  0  0  0  0
  9  8  1  0  0  0  0
 10  3  1  0  0  0  0
 11  1  1  0  0  0  0
 12  2  1  0  0  0  0
 13 12  1  0  0  0  0
 14 13  1  0  0  0  0
  4  9  2  0  0  0  0
M  END
>  <IDNUMBER>
F8889-6491

>  <Chemical_Name>
4-(ethoxycarbonyl)benzoic acid

>  <PriceCoeff>
1.00

>  <CAS>
713-57-5

>  <MW>
194.19

>  <Description>
solid

>  <FSP3>
0.20

>  <clogP>
1.99

>  <TPSA>
63.60

>  <Acceptor>
4

>  <Donor>
0

>  <RotBonds>
4

>  <HAC>
14

>  <Collection>
General

$$$$
F8889-8011
  Mrv2219 10102508112D          

 12 12  0  0  0  0            999 V2000
    0.7132    2.0980    0.0000 C   0  0  0  0  0  0  0  0  0  0  0  0
    0.7132    1.2721    0.0000 C   0  0  0  0  0  0  0  0  0  0  0  0
    0.0000    0.8592    0.0000 C   0  0  0  0  0  0  0  0  0  0  0  0
    1.4265    2.5109    0.0000 O   0  0  0  0  0  0  0  0  0  0  0  0
    0.0000    0.0000    0.0000 C   0  0  0  0  0  0  0  0  0  0  0  0
   -0.7508   -0.4129    0.0000 O   0  0  0  0  0  0  0  0  0  0  0  0
    0.0000    2.5109    0.0000 O   0  0  0  0  0  0  0  0  0  0  0  0
    1.4265    0.8592    0.0000 C   0  0  0  0  0  0  0  0  0  0  0  0
    1.4265    0.0000    0.0000 C   0  0  0  0  0  0  0  0  0  0  0  0
    0.7132   -0.4129    0.0000 C   0  0  0  0  0  0  0  0  0  0  0  0
    0.0000    3.3368    0.0000 C   0  0  0  0  0  0  0  0  0  0  0  0
   -0.7508    3.7497    0.0000 C   0  0  0  0  0  0  0  0  0  0  0  0
  2  1  1  0  0  0  0
  3  2  1  0  0  0  0
  4  1  2  0  0  0  0
  5  3  1  0  0  0  0
  6  5  2  0  0  0  0
  7  1  1  0  0  0  0
  8  2  1  0  0  0  0
  9  8  1  0  0  0  0
 10  9  1  0  0  0  0
 11  7  1  0  0  0  0
 12 11  1  0  0  0  0
 10  5  1  0  0  0  0
M  END
>  <IDNUMBER>
F8889-8011

>  <Chemical_Name>
ethyl 3-oxocyclohexane-1-carboxylate

>  <PriceCoeff>
1.00

>  <CAS>
33668-25-6

>  <MW>
170.21

>  <Description>
liquid

>  <FSP3>
0.78

>  <clogP>
1.21

>  <TPSA>
43.37

>  <Acceptor>
3

>  <Donor>
0

>  <RotBonds>
3

>  <HAC>
12

>  <Collection>
General

>  <PPDS>
+

$$$$
F8890-6347
  Mrv2219 10102508112D          

 17 18  0  0  0  0            999 V2000
    3.9875   -2.0875    0.0000 C   0  0  0  0  0  0  0  0  0  0  0  0
    3.2667   -1.6792    0.0000 C   0  0  0  0  0  0  0  0  0  0  0  0
    2.5625   -2.0917    0.0000 C   0  0  0  0  0  0  0  0  0  0  0  0
    4.7000   -1.6750    0.0000 C   0  0  0  0  0  0  0  0  0  0  0  0
    6.8417   -2.0792    0.0000 C   0  0  0  0  0  0  0  0  0  0  0  0
    2.5542   -2.9167    0.0000 C   0  0  0  0  0  0  0  0  0  0  0  0
    3.9875   -2.9167    0.0000 C   0  0  0  0  0  0  0  0  0  0  0  0
    7.5542   -1.6625    0.0000 O   0  0  0  0  0  0  0  0  0  0  0  0
    4.6917   -0.8500    0.0000 O   0  0  0  0  0  0  0  0  0  0  0  0
    3.2750   -3.3292    0.0000 C   0  0  0  0  0  0  0  0  0  0  0  0
    5.4125   -2.0792    0.0000 C   0  0  0  0  0  0  0  0  0  0  0  0
    6.1250   -1.6667    0.0000 C   0  0  0  0  0  0  0  0  0  0  0  0
    6.8500   -2.9000    0.0000 O   0  0  0  0  0  0  0  0  0  0  0  0
    1.8542   -1.6792    0.0000 C   0  0  0  0  0  0  0  0  0  0  0  0
    1.8417   -3.3292    0.0000 C   0  0  0  0  0  0  0  0  0  0  0  0
    1.1292   -2.0792    0.0000 C   0  0  0  0  0  0  0  0  0  0  0  0
    1.1292   -2.9125    0.0000 C   0  0  0  0  0  0  0  0  0  0  0  0
  2  1  2  0  0  0  0
  3  2  1  0  0  0  0
  4  1  1  0  0  0  0
  5 12  1  0  0  0  0
  6 10  1  0  0  0  0
  7  1  1  0  0  0  0
  8  5  2  0  0  0  0
  9  4  2  0  0  0  0
 10  7  2  0  0  0  0
 11  4  1  0  0  0  0
 12 11  1  0  0  0  0
 13  5  1  0  0  0  0
 14  3  1  0  0  0  0
 15  6  1  0  0  0  0
 16 14  1  0  0  0  0
 17 15  1  0  0  0  0
  6  3  2  0  0  0  0
 17 16  1  0  0  0  0
M  END
>  <IDNUMBER>
F8890-6347

>  <Chemical_Name>
4-oxo-4-(5,6,7,8-tetrahydronaphthalen-2-yl)butanoic acid

>  <PriceCoeff>
1.00

>  <CAS>
785-17-1

>  <MW>
232.28

>  <Description>
solid

>  <FSP3>
0.43

>  <clogP>
2.81

>  <TPSA>
54.37

>  <Acceptor>
3

>  <Donor>
0

>  <RotBonds>
4

>  <HAC>
17

>  <Collection>
General

>  <PPDS>
+

$$$$
F9994-0444
  Mrv2219 10102508112D          

 18 19  0  0  0  0            999 V2000
   -0.1958    1.0333    0.0000 C   0  0  0  0  0  0  0  0  0  0  0  0
    0.5167   -3.5000    0.0000 C   0  0  0  0  0  0  0  0  0  0  0  0
   -0.1958   -1.4417    0.0000 C   0  0  0  0  0  0  0  0  0  0  0  0
    0.5167   -1.0292    0.0000 C   0  0  0  0  0  0  0  0  0  0  0  0
   -0.1958   -3.9167    0.0000 C   0  0  0  0  0  0  0  0  0  0  0  0
    0.5167    1.4458    0.0000 C   0  0  0  0  0  0  0  0  0  0  0  0
   -0.1958    0.2083    0.0000 C   0  0  0  0  0  0  0  0  0  0  0  0
    0.5167   -2.6792    0.0000 C   0  0  0  0  0  0  0  0  0  0  0  0
   -0.1958   -2.2667    0.0000 C   0  0  0  0  0  0  0  0  0  0  0  0
    0.5167   -0.2042    0.0000 C   0  0  0  0  0  0  0  0  0  0  0  0
   -0.9125   -3.5042    0.0000 C   0  0  0  0  0  0  0  0  0  0  0  0
    1.2292    1.0333    0.0000 C   0  0  0  0  0  0  0  0  0  0  0  0
   -0.9083    1.4458    0.0000 O   0  0  0  0  0  0  0  0  0  0  0  0
    1.2292   -3.9125    0.0000 O   0  0  0  0  0  0  0  0  0  0  0  0
   -0.9125   -2.6792    0.0000 C   0  0  0  0  0  0  0  0  0  0  0  0
    1.2292    0.2083    0.0000 C   0  0  0  0  0  0  0  0  0  0  0  0
   -0.1958   -4.7417    0.0000 O   0  0  0  0  0  0  0  0  0  0  0  0
    0.5125    2.2708    0.0000 O   0  0  0  0  0  0  0  0  0  0  0  0
  2  8  2  0  0  0  0
  3  4  2  0  0  0  0
  4 10  1  0  0  0  0
  5 11  2  0  0  0  0
  6  1  1  0  0  0  0
  7  1  2  0  0  0  0
  8  9  1  0  0  0  0
  9  3  1  0  0  0  0
 10  7  1  0  0  0  0
 11 15  1  0  0  0  0
 12  6  2  0  0  0  0
 13  1  1  0  0  0  0
 14  2  1  0  0  0  0
 15  9  2  0  0  0  0
 16 10  2  0  0  0  0
 17  5  1  0  0  0  0
 18  6  1  0  0  0  0
 16 12  1  0  0  0  0
  2  5  1  0  0  0  0
M  END
>  <IDNUMBER>
F9994-0444

>  <Chemical_Name>
4-[(1E)-2-(3,4-dihydroxyphenyl)ethenyl]benzene-1,2-diol

>  <PriceCoeff>
1.00

>  <MW>
244.25

>  <Description>
solid

>  <FSP3>
0.00

>  <clogP>
3.10

>  <TPSA>
80.92

>  <Acceptor>
4

>  <Donor>
4

>  <RotBonds>
2

>  <HAC>
18

>  <Collection>
General

$$$$
F9994-0533
  Mrv2219 10102508112D          

 12 12  0  0  0  0            999 V2000
   -1.4183    1.8884    0.0000 C   0  0  0  0  0  0  0  0  0  0  0  0
   -2.1296    1.4724    0.0000 C   0  0  0  0  0  0  0  0  0  0  0  0
   -0.6988    1.4724    0.0000 C   0  0  0  0  0  0  0  0  0  0  0  0
   -2.8408    1.8884    0.0000 C   0  0  0  0  0  0  0  0  0  0  0  0
   -0.6988    0.6489    0.0000 O   0  0  0  0  0  0  0  0  0  0  0  0
   -2.1296    0.6489    0.0000 O   0  0  0  0  0  0  0  0  0  0  0  0
   -1.4183    2.7160    0.0000 C   0  0  0  0  0  0  0  0  0  0  0  0
   -3.5563    1.4724    0.0000 O   0  0  0  0  0  0  0  0  0  0  0  0
   -2.1296    3.1278    0.0000 C   0  0  0  0  0  0  0  0  0  0  0  0
   -2.8408    2.7078    0.0000 C   0  0  0  0  0  0  0  0  0  0  0  0
    0.0125    1.8925    0.0000 C   0  0  0  0  0  0  0  0  0  0  0  0
   -4.2717    1.8884    0.0000 C   0  0  0  0  0  0  0  0  0  0  0  0
  2  1  2  0  0  0  0
  3  1  1  0  0  0  0
  4  2  1  0  0  0  0
  5  3  2  0  0  0  0
  6  2  1  0  0  0  0
  7  1  1  0  0  0  0
  8  4  1  0  0  0  0
  9  7  2  0  0  0  0
 10  9  1  0  0  0  0
 11  3  1  0  0  0  0
 12  8  1  0  0  0  0
 10  4  2  0  0  0  0
M  END
>  <IDNUMBER>
F9994-0533

>  <Chemical_Name>
1-(2-hydroxy-3-methoxyphenyl)ethan-1-one

>  <PriceCoeff>
1.50

>  <CAS>
703-98-0

>  <MW>
166.18

>  <Description>
solid

>  <FSP3>
0.22

>  <clogP>
1.72

>  <TPSA>
46.53

>  <Acceptor>
3

>  <Donor>
1

>  <RotBonds>
2

>  <HAC>
12

>  <Collection>
Advanced

>  <PPDS>
+

$$$$
F9994-0695
  Mrv2219 10102508112D          

 18 19  0  0  0  0            999 V2000
    5.1500   -2.3250    0.0000 C   0  0  0  0  0  0  0  0  0  0  0  0
    4.6542   -1.6542    0.0000 N   0  0  0  0  0  0  0  0  0  0  0  0
    4.6667   -2.9917    0.0000 C   0  0  0  0  0  0  0  0  0  0  0  0
    3.8750   -2.7417    0.0000 C   0  0  0  0  0  0  0  0  0  0  0  0
    3.8667   -1.9167    0.0000 C   0  0  0  0  0  0  0  0  0  0  0  0
    5.9667   -2.4000    0.0000 C   0  0  0  0  0  0  0  0  0  0  0  0
    6.4500   -1.7292    0.0000 C   0  0  0  0  0  0  0  0  0  0  0  0
    6.3167   -3.1542    0.0000 N   0  0  0  0  0  0  0  0  0  0  0  0
    7.2667   -1.8042    0.0000 C   0  0  0  0  0  0  0  0  0  0  0  0
    7.6125   -2.5542    0.0000 O   0  0  0  0  0  0  0  0  0  0  0  0
    5.0042   -3.7500    0.0000 C   0  0  0  0  0  0  0  0  0  0  0  0
    5.8292   -3.8292    0.0000 C   0  0  0  0  0  0  0  0  0  0  0  0
    3.1542   -3.1542    0.0000 C   0  0  0  0  0  0  0  0  0  0  0  0
    3.1542   -1.5042    0.0000 C   0  0  0  0  0  0  0  0  0  0  0  0
    7.7500   -1.1375    0.0000 C   0  0  0  0  0  0  0  0  0  0  0  0
    2.4417   -2.7417    0.0000 C   0  0  0  0  0  0  0  0  0  0  0  0
    2.4417   -1.9167    0.0000 C   0  0  0  0  0  0  0  0  0  0  0  0
    9.1375   -2.3875    0.0000 Cl  0  0  0  0  0  0  0  0  0  0  0  0
  3  1  2  0  0  0  0
  4  3  1  0  0  0  0
  5  2  1  0  0  0  0
  6  1  1  0  0  0  0
  7  6  1  0  0  0  0
  8  6  1  0  0  0  0
  9  7  1  0  0  0  0
 10  9  2  0  0  0  0
 11  3  1  0  0  0  0
 12  8  1  0  0  0  0
 13  4  2  0  0  0  0
 14  5  2  0  0  0  0
 15  9  1  0  0  0  0
 16 13  1  0  0  0  0
 17 14  1  0  0  0  0
  5  4  1  0  0  0  0
 11 12  1  0  0  0  0
 17 16  2  0  0  0  0
  2  1  1  0  0  0  0
M  END
>  <IDNUMBER>
F9994-0695

>  <Chemical_Name>
1-{1H,2H,3H,4H,9H-pyrido[3,4-b]indol-1-yl}propan-2-one hydrochloride

>  <PriceCoeff>
1.00

>  <CAS>
157103-26-9

>  <MW>
228.29

>  <Description>
solid

>  <FSP3>
0.36

>  <clogP>
1.50

>  <TPSA>
44.89

>  <Acceptor>
1

>  <Donor>
2

>  <RotBonds>
2

>  <HAC>
17

>  <Collection>
General

>  <PPDS>
+

$$$$
F9994-0706
  Mrv2219 10102508112D          

  9  9  0  0  0  0            999 V2000
   -4.1417    0.8875    0.0000 C   0  0  0  0  0  0  0  0  0  0  0  0
   -4.1417    2.5375    0.0000 C   0  0  0  0  0  0  0  0  0  0  0  0
   -4.1458    3.3625    0.0000 O   0  0  0  0  0  0  0  0  0  0  0  0
   -3.4250    1.2958    0.0000 C   0  0  0  0  0  0  0  0  0  0  0  0
   -4.8458    1.2958    0.0000 C   0  0  0  0  0  0  0  0  0  0  0  0
   -3.4250    2.1208    0.0000 C   0  0  0  0  0  0  0  0  0  0  0  0
   -4.8458    2.1208    0.0000 C   0  0  0  0  0  0  0  0  0  0  0  0
   -4.8583    0.4833    0.0000 C   0  0  0  0  0  0  0  0  0  0  0  0
   -3.4250    0.4750    0.0000 C   0  0  0  0  0  0  0  0  0  0  0  0
  2  7  1  0  0  0  0
  3  2  2  0  0  0  0
  4  1  1  0  0  0  0
  5  1  1  0  0  0  0
  6  4  1  0  0  0  0
  7  5  1  0  0  0  0
  8  1  1  0  0  0  0
  9  1  1  0  0  0  0
  6  2  1  0  0  0  0
M  END
>  <IDNUMBER>
F9994-0706

>  <Chemical_Name>
4,4-dimethylcyclohexan-1-one

>  <PriceCoeff>
1.00

>  <CAS>
4255-62-3

>  <MW>
126.20

>  <Description>
solid

>  <FSP3>
0.88

>  <clogP>
2.16

>  <TPSA>
17.07

>  <Acceptor>
1

>  <Donor>
0

>  <RotBonds>
0

>  <HAC>
9

>  <Collection>
General

>  <PPDS>
+

$$$$
F9994-5178
  Mrv2219 10102508112D          

 11 11  0  0  0  0            999 V2000
   -1.2875    2.3583    0.0000 C   0  0  0  0  0  0  0  0  0  0  0  0
   -0.5708    1.9458    0.0000 C   0  0  0  0  0  0  0  0  0  0  0  0
   -2.0000    1.9458    0.0000 C   0  0  0  0  0  0  0  0  0  0  0  0
    0.1417    2.3625    0.0000 C   0  0  0  0  0  0  0  0  0  0  0  0
    0.8542    1.9583    0.0000 O   0  0  0  0  0  0  0  0  0  0  0  0
   -1.2958    3.1833    0.0000 O   0  0  0  0  0  0  0  0  0  0  0  0
   -2.7125    2.3583    0.0000 O   0  0  0  0  0  0  0  0  0  0  0  0
   -0.5708    1.1208    0.0000 C   0  0  0  0  0  0  0  0  0  0  0  0
   -1.2875    0.7083    0.0000 C   0  0  0  0  0  0  0  0  0  0  0  0
   -2.0000    1.1208    0.0000 C   0  0  0  0  0  0  0  0  0  0  0  0
   -2.0083    3.5958    0.0000 C   0  0  0  0  0  0  0  0  0  0  0  0
  2  1  2  0  0  0  0
  3  1  1  0  0  0  0
  4  2  1  0  0  0  0
  5  4  2  0  0  0  0
  6  1  1  0  0  0  0
  7  3  1  0  0  0  0
  8  2  1  0  0  0  0
  9 10  1  0  0  0  0
 10  3  2  0  0  0  0
 11  6  1  0  0  0  0
  9  8  2  0  0  0  0
M  END
>  <IDNUMBER>
F9994-5178

>  <Chemical_Name>
3-hydroxy-2-methoxybenzaldehyde

>  <PriceCoeff>
1.00

>  <CAS>
66495-88-3

>  <MW>
152.15

>  <Description>
solid

>  <FSP3>
0.13

>  <clogP>
1.22

>  <TPSA>
46.53

>  <Acceptor>
3

>  <Donor>
1

>  <RotBonds>
2

>  <HAC>
11

>  <Collection>
General

>  <PPDS>
+

$$$$
F9994-5179
  Mrv2219 10102508112D          

 14 14  0  0  0  0            999 V2000
   -1.2484   -1.0021    0.0000 C   0  0  0  0  0  0  0  0  0  0  0  0
   -0.5344   -1.4154    0.0000 C   0  0  0  0  0  0  0  0  0  0  0  0
   -1.9624   -1.4154    0.0000 C   0  0  0  0  0  0  0  0  0  0  0  0
    0.1796   -0.9938    0.0000 C   0  0  0  0  0  0  0  0  0  0  0  0
    0.9019   -1.4071    0.0000 O   0  0  0  0  0  0  0  0  0  0  0  0
   -3.3945   -1.4196    0.0000 C   0  0  0  0  0  0  0  0  0  0  0  0
   -1.2526   -0.1754    0.0000 O   0  0  0  0  0  0  0  0  0  0  0  0
   -2.6763   -1.0063    0.0000 O   0  0  0  0  0  0  0  0  0  0  0  0
   -4.1085   -1.0063    0.0000 O   0  0  0  0  0  0  0  0  0  0  0  0
   -0.5344   -2.2463    0.0000 C   0  0  0  0  0  0  0  0  0  0  0  0
   -1.2484   -2.6597    0.0000 C   0  0  0  0  0  0  0  0  0  0  0  0
   -1.9624   -2.2463    0.0000 C   0  0  0  0  0  0  0  0  0  0  0  0
   -1.9708    0.2338    0.0000 C   0  0  0  0  0  0  0  0  0  0  0  0
   -4.8225   -1.4196    0.0000 C   0  0  0  0  0  0  0  0  0  0  0  0
  2  1  2  0  0  0  0
  3  1  1  0  0  0  0
  4  2  1  0  0  0  0
  5  4  2  0  0  0  0
  6  8  1  0  0  0  0
  7  1  1  0  0  0  0
  8  3  1  0  0  0  0
  9  6  1  0  0  0  0
 10  2  1  0  0  0  0
 11 12  1  0  0  0  0
 12  3  2  0  0  0  0
 13  7  1  0  0  0  0
 14  9  1  0  0  0  0
 11 10  2  0  0  0  0
M  END
>  <IDNUMBER>
F9994-5179

>  <Chemical_Name>
2-methoxy-3-(methoxymethoxy)benzaldehyde

>  <PriceCoeff>
1.00

>  <CAS>
223578-03-8

>  <MW>
196.20

>  <Description>
liquid

>  <FSP3>
0.30

>  <clogP>
1.43

>  <TPSA>
44.76

>  <Acceptor>
4

>  <Donor>
0

>  <RotBonds>
5

>  <HAC>
14

>  <Collection>
General

$$$$
F9994-5206
  Mrv2219 10102508112D          

 14 14  0  0  0  0            999 V2000
   -1.8752   -7.5629    0.0000 C   0  0  0  0  0  0  0  0  0  0  0  0
   -2.5861   -7.1478    0.0000 C   0  0  0  0  0  0  0  0  0  0  0  0
   -0.4533   -5.9119    0.0000 C   0  0  0  0  0  0  0  0  0  0  0  0
   -3.3019   -7.5629    0.0000 C   0  0  0  0  0  0  0  0  0  0  0  0
   -0.4581   -5.0865    0.0000 O   0  0  0  0  0  0  0  0  0  0  0  0
   -1.8704   -8.3788    0.0000 O   0  0  0  0  0  0  0  0  0  0  0  0
   -1.1595   -7.1430    0.0000 C   0  0  0  0  0  0  0  0  0  0  0  0
   -1.1690   -6.3175    0.0000 C   0  0  0  0  0  0  0  0  0  0  0  0
    0.2577   -6.3175    0.0000 O   0  0  0  0  0  0  0  0  0  0  0  0
   -4.0176   -7.1478    0.0000 C   0  0  0  0  0  0  0  0  0  0  0  0
   -2.5909   -6.3175    0.0000 C   0  0  0  0  0  0  0  0  0  0  0  0
   -3.3019   -5.9167    0.0000 C   0  0  0  0  0  0  0  0  0  0  0  0
   -4.0176   -6.3270    0.0000 C   0  0  0  0  0  0  0  0  0  0  0  0
   -4.7238   -7.5629    0.0000 C   0  0  0  0  0  0  0  0  0  0  0  0
  2  1  1  0  0  0  0
  3  8  1  0  0  0  0
  4  2  2  0  0  0  0
  5  3  2  0  0  0  0
  6  1  2  0  0  0  0
  7  1  1  0  0  0  0
  8  7  1  0  0  0  0
  9  3  1  0  0  0  0
 10  4  1  0  0  0  0
 11  2  1  0  0  0  0
 12 11  2  0  0  0  0
 13 12  1  0  0  0  0
 14 10  1  0  0  0  0
 10 13  2  0  0  0  0
M  END
>  <IDNUMBER>
F9994-5206

>  <Chemical_Name>
4-(3-methylphenyl)-4-oxobutanoic acid

>  <PriceCoeff>
1.00

>  <CAS>
59618-44-9

>  <MW>
192.21

>  <Description>
solid

>  <FSP3>
0.27

>  <clogP>
1.87

>  <TPSA>
54.37

>  <Acceptor>
3

>  <Donor>
0

>  <RotBonds>
4

>  <HAC>
14

>  <Collection>
General

>  <PPDS>
+

$$$$
F9994-5243
  Mrv2219 10102508112D          

 14 14  0  0  0  0            999 V2000
   -1.2583   -0.2875    0.0000 C   0  0  0  0  0  0  0  0  0  0  0  0
   -1.2583    0.5375    0.0000 C   0  0  0  0  0  0  0  0  0  0  0  0
   -1.9708    1.7750    0.0000 N   0  0  0  0  0  0  0  0  0  0  0  0
   -0.5375   -0.7000    0.0000 N   0  0  0  0  0  0  0  0  0  0  0  0
   -1.2583    2.1958    0.0000 C   0  0  0  0  0  0  0  0  0  0  0  0
    0.1750   -1.9375    0.0000 C   0  0  0  0  0  0  0  0  0  0  0  0
   -1.9708    0.9500    0.0000 C   0  0  0  0  0  0  0  0  0  0  0  0
   -1.9708   -0.7000    0.0000 O   0  0  0  0  0  0  0  0  0  0  0  0
   -0.5375    0.9500    0.0000 C   0  0  0  0  0  0  0  0  0  0  0  0
    0.1750   -2.7625    0.0000 O   0  0  0  0  0  0  0  0  0  0  0  0
   -0.5375   -1.5250    0.0000 C   0  0  0  0  0  0  0  0  0  0  0  0
   -0.5375    1.7833    0.0000 C   0  0  0  0  0  0  0  0  0  0  0  0
   -1.2583    3.0208    0.0000 Cl  0  0  0  0  0  0  0  0  0  0  0  0
    0.8917   -1.5250    0.0000 O   0  0  0  0  0  0  0  0  0  0  0  0
  2  1  1  0  0  0  0
  3  7  2  0  0  0  0
  4  1  1  0  0  0  0
  5 12  2  0  0  0  0
  6 11  1  0  0  0  0
  7  2  1  0  0  0  0
  8  1  2  0  0  0  0
  9  2  2  0  0  0  0
 10  6  2  0  0  0  0
 11  4  1  0  0  0  0
 12  9  1  0  0  0  0
 13  5  1  0  0  0  0
 14  6  1  0  0  0  0
  3  5  1  0  0  0  0
M  END
>  <IDNUMBER>
F9994-5243

>  <Chemical_Name>
2-[(6-chloropyridin-3-yl)formamido]acetic acid

>  <PriceCoeff>
1.00

>  <CAS>
1099143-66-4

>  <MW>
214.61

>  <Description>
solid

>  <FSP3>
0.13

>  <clogP>
0.13

>  <TPSA>
79.29

>  <Acceptor>
4

>  <Donor>
2

>  <RotBonds>
3

>  <HAC>
14

>  <Collection>
General

>  <PPDS>
+

$$$$
F9994-5366
  Mrv2219 10102508112D          

  9  8  0  0  0  0            999 V2000
   -0.4443   -4.5391    0.0000 C   0  0  0  0  0  0  0  0  0  0  0  0
   -0.8596   -5.2575    0.0000 C   0  0  0  0  0  0  0  0  0  0  0  0
   -0.0332   -3.8165    0.0000 N   0  0  0  0  0  0  0  0  0  0  0  0
   -1.4452   -6.2667    0.0000 C   0  0  0  0  0  0  0  0  0  0  0  0
    0.2658   -4.9502    0.0000 C   0  0  0  0  0  0  0  0  0  0  0  0
   -1.1669   -4.1155    0.0000 C   0  0  0  0  0  0  0  0  0  0  0  0
   -0.6478   -6.0549    0.0000 C   0  0  0  0  0  0  0  0  0  0  0  0
   -1.6570   -5.4693    0.0000 C   0  0  0  0  0  0  0  0  0  0  0  0
    1.6487   -4.8880    0.0000 Cl  0  0  0  0  0  0  0  0  0  0  0  0
  3  1  1  0  0  0  0
  4  8  1  0  0  0  0
  5  1  1  0  0  0  0
  6  1  1  0  0  0  0
  7  2  1  0  0  0  0
  8  2  1  0  0  0  0
  7  4  1  0  0  0  0
  2  1  1  0  0  0  0
M  END
>  <IDNUMBER>
F9994-5366

>  <Chemical_Name>
2-cyclobutylpropan-2-amine hydrochloride

>  <PriceCoeff>
1.00

>  <CAS>
1864058-17-2

>  <MW>
113.20

>  <Description>
solid

>  <FSP3>
1.00

>  <clogP>
1.30

>  <TPSA>
26.02

>  <Acceptor>
0

>  <Donor>
1

>  <RotBonds>
1

>  <HAC>
8

>  <Collection>
General

$$$$
F9994-5470
  Mrv2219 10102508112D          

 12 11  0  0  0  0            999 V2000
    4.4150   -2.6117    0.0000 C   0  0  0  0  0  0  0  0  0  0  0  0
    5.1281   -3.0221    0.0000 C   0  0  0  0  0  0  0  0  0  0  0  0
    4.4150   -1.7826    0.0000 C   0  0  0  0  0  0  0  0  0  0  0  0
    5.1281   -3.8471    0.0000 C   0  0  0  0  0  0  0  0  0  0  0  0
    2.9848   -1.7826    0.0000 N   0  0  0  0  0  0  0  0  0  0  0  0
    5.8370   -4.2575    0.0000 O   0  0  0  0  0  0  0  0  0  0  0  0
    3.6979   -1.3722    0.0000 C   0  0  0  0  0  0  0  0  0  0  0  0
    3.6979   -3.8471    0.0000 C   0  0  0  0  0  0  0  0  0  0  0  0
    3.6979   -3.0221    0.0000 C   0  0  0  0  0  0  0  0  0  0  0  0
    4.4150   -4.2575    0.0000 C   0  0  0  0  0  0  0  0  0  0  0  0
    3.6979   -0.5472    0.0000 C   0  0  0  0  0  0  0  0  0  0  0  0
    7.3336   -2.4584    0.0000 Br  0  0  0  0  0  0  0  0  0  0  0  0
  3  1  1  0  0  0  0
  4  2  1  0  0  0  0
  5  7  1  0  0  0  0
  6  4  1  0  0  0  0
  7  3  1  0  0  0  0
  8  9  2  0  0  0  0
  9  1  1  0  0  0  0
 10  8  1  0  0  0  0
 11  7  1  0  0  0  0
  4 10  2  0  0  0  0
  2  1  2  0  0  0  0
M  END
>  <IDNUMBER>
F9994-5470

>  <Chemical_Name>
3-(2-aminopropyl)phenol hydrobromide

>  <PriceCoeff>
1.00

>  <CAS>
1391054-33-3

>  <MW>
151.20

>  <Description>
solid

>  <FSP3>
0.33

>  <clogP>
1.07

>  <TPSA>
46.25

>  <Acceptor>
1

>  <Donor>
2

>  <RotBonds>
2

>  <HAC>
11

>  <Collection>
General

>  <PPDS>
+

$$$$
F9994-6549
  Mrv2219 10102508112D          

 16 16  0  0  0  0            999 V2000
    0.0401   -1.7559    0.0000 C   0  0  0  0  0  0  0  0  0  0  0  0
    2.1791   -1.3383    0.0000 C   0  0  0  0  0  0  0  0  0  0  0  0
   -0.6806   -1.3441    0.0000 C   0  0  0  0  0  0  0  0  0  0  0  0
   -2.1047   -0.5147    0.0000 C   0  0  0  0  0  0  0  0  0  0  0  0
    2.1791   -0.5034    0.0000 O   0  0  0  0  0  0  0  0  0  0  0  0
    0.0401   -2.5795    0.0000 O   0  0  0  0  0  0  0  0  0  0  0  0
   -0.6806   -0.5147    0.0000 C   0  0  0  0  0  0  0  0  0  0  0  0
   -1.3898   -1.7559    0.0000 C   0  0  0  0  0  0  0  0  0  0  0  0
    0.7550   -1.3383    0.0000 C   0  0  0  0  0  0  0  0  0  0  0  0
   -2.1047   -1.3441    0.0000 C   0  0  0  0  0  0  0  0  0  0  0  0
   -1.3898   -0.1029    0.0000 C   0  0  0  0  0  0  0  0  0  0  0  0
    1.4642   -1.7501    0.0000 C   0  0  0  0  0  0  0  0  0  0  0  0
   -2.8139   -0.1087    0.0000 C   0  0  0  0  0  0  0  0  0  0  0  0
    2.8883   -1.7387    0.0000 O   0  0  0  0  0  0  0  0  0  0  0  0
   -2.8139    0.7149    0.0000 C   0  0  0  0  0  0  0  0  0  0  0  0
   -3.5288   -0.5205    0.0000 C   0  0  0  0  0  0  0  0  0  0  0  0
  2 12  1  0  0  0  0
  3  1  1  0  0  0  0
  4 10  2  0  0  0  0
  5  2  2  0  0  0  0
  6  1  2  0  0  0  0
  7  3  1  0  0  0  0
  8  3  2  0  0  0  0
  9  1  1  0  0  0  0
 10  8  1  0  0  0  0
 11  7  2  0  0  0  0
 12  9  1  0  0  0  0
 13  4  1  0  0  0  0
 14  2  1  0  0  0  0
 15 13  1  0  0  0  0
 16 13  1  0  0  0  0
 11  4  1  0  0  0  0
M  END
>  <IDNUMBER>
F9994-6549

>  <Chemical_Name>
4-oxo-4-[4-(propan-2-yl)phenyl]butanoic acid

>  <PriceCoeff>
1.00

>  <CAS>
6947-81-5

>  <MW>
220.27

>  <Description>
solid

>  <FSP3>
0.38

>  <clogP>
2.60

>  <TPSA>
54.37

>  <Acceptor>
3

>  <Donor>
0

>  <RotBonds>
5

>  <HAC>
16

>  <Collection>
General

>  <PPDS>
+

$$$$
F9994-6554
  Mrv2219 10102508112D          

 11 11  0  0  0  0            999 V2000
   -2.9331   -1.3023    0.0000 C   0  0  0  0  0  0  0  0  0  0  0  0
   -3.7195   -1.5602    0.0000 C   0  0  0  0  0  0  0  0  0  0  0  0
   -4.3893   -1.0776    0.0000 C   0  0  0  0  0  0  0  0  0  0  0  0
   -5.0508   -1.5602    0.0000 C   0  0  0  0  0  0  0  0  0  0  0  0
   -2.7667   -0.5034    0.0000 O   0  0  0  0  0  0  0  0  0  0  0  0
   -3.9774   -2.3465    0.0000 C   0  0  0  0  0  0  0  0  0  0  0  0
   -5.8371   -1.3023    0.0000 O   0  0  0  0  0  0  0  0  0  0  0  0
   -4.8011   -2.3465    0.0000 C   0  0  0  0  0  0  0  0  0  0  0  0
   -2.3298   -1.8597    0.0000 O   0  0  0  0  0  0  0  0  0  0  0  0
   -2.4963   -2.6627    0.0000 C   0  0  0  0  0  0  0  0  0  0  0  0
   -1.8847   -3.2119    0.0000 C   0  0  0  0  0  0  0  0  0  0  0  0
  2  1  1  0  0  0  0
  3  2  1  0  0  0  0
  4  3  1  0  0  0  0
  5  1  2  0  0  0  0
  6  2  1  0  0  0  0
  7  4  2  0  0  0  0
  8  6  1  0  0  0  0
  9  1  1  0  0  0  0
 10  9  1  0  0  0  0
 11 10  1  0  0  0  0
  4  8  1  0  0  0  0
M  END
>  <IDNUMBER>
F9994-6554

>  <Chemical_Name>
ethyl 3-oxocyclopentane-1-carboxylate

>  <PriceCoeff>
1.00

>  <CAS>
5400-79-3

>  <MW>
156.18

>  <Description>
liquid

>  <FSP3>
0.75

>  <clogP>
0.77

>  <TPSA>
43.37

>  <Acceptor>
3

>  <Donor>
0

>  <RotBonds>
3

>  <HAC>
11

>  <Collection>
General

$$$$
F9995-0012
  Mrv2219 10102508112D          

  8  8  0  0  0  0            999 V2000
    1.0530    1.1445    0.0000 C   0  0  0  0  0  0  0  0  0  0  0  0
    0.3788    0.6575    0.0000 C   0  0  0  0  0  0  0  0  0  0  0  0
    0.3788   -0.1665    0.0000 O   0  0  0  0  0  0  0  0  0  0  0  0
    0.7991    1.9311    0.0000 C   0  0  0  0  0  0  0  0  0  0  0  0
   -0.2747    1.1445    0.0000 C   0  0  0  0  0  0  0  0  0  0  0  0
   -0.0208    1.9311    0.0000 C   0  0  0  0  0  0  0  0  0  0  0  0
    1.6899    1.6690    0.0000 C   0  0  0  0  0  0  0  0  0  0  0  0
    1.8229    0.8573    0.0000 C   0  0  0  0  0  0  0  0  0  0  0  0
  2  1  1  0  0  0  0
  3  2  2  0  0  0  0
  4  1  1  0  0  0  0
  5  2  1  0  0  0  0
  6  4  1  0  0  0  0
  7  1  1  0  0  0  0
  8  1  1  0  0  0  0
  5  6  1  0  0  0  0
M  END
>  <IDNUMBER>
F9995-0012

>  <Chemical_Name>
2,2-dimethylcyclopentan-1-one

>  <PriceCoeff>
1.00

>  <CAS>
4541-32-6

>  <MW>
112.17

>  <Description>
liquid

>  <FSP3>
0.86

>  <clogP>
2.14

>  <TPSA>
17.07

>  <Acceptor>
1

>  <Donor>
0

>  <RotBonds>
0

>  <HAC>
8

>  <Collection>
General

$$$$
F9995-0036
  Mrv2219 10102508112D          

 19 21  0  0  0  0            999 V2000
   -1.0947    0.6701    0.0000 C   0  0  0  0  0  0  0  0  0  0  0  0
   -1.5817    0.0083    0.0000 N   0  0  0  0  0  0  0  0  0  0  0  0
   -1.5817    1.3361    0.0000 S   0  0  0  0  0  0  0  0  0  0  0  0
   -2.3601    1.0822    0.0000 C   0  0  0  0  0  0  0  0  0  0  0  0
   -2.3601    0.2580    0.0000 C   0  0  0  0  0  0  0  0  0  0  0  0
   -3.0718    1.4943    0.0000 C   0  0  0  0  0  0  0  0  0  0  0  0
   -0.2705    0.6244    0.0000 C   0  0  0  0  0  0  0  0  0  0  0  0
   -3.0718   -0.1540    0.0000 C   0  0  0  0  0  0  0  0  0  0  0  0
    0.1166   -0.1041    0.0000 C   0  0  0  0  0  0  0  0  0  0  0  0
    0.1748    1.3194    0.0000 C   0  0  0  0  0  0  0  0  0  0  0  0
   -3.7919    1.0822    0.0000 C   0  0  0  0  0  0  0  0  0  0  0  0
    1.3903    0.5619    0.0000 C   0  0  0  0  0  0  0  0  0  0  0  0
   -3.7919    0.2580    0.0000 C   0  0  0  0  0  0  0  0  0  0  0  0
    2.2144    0.5452    0.0000 N   0  0  0  0  0  0  0  0  0  0  0  0
    1.0032    1.2862    0.0000 C   0  0  0  0  0  0  0  0  0  0  0  0
    0.9407   -0.1416    0.0000 C   0  0  0  0  0  0  0  0  0  0  0  0
   -4.5161    1.4943    0.0000 O   0  0  0  0  0  0  0  0  0  0  0  0
   -5.2196    1.0822    0.0000 C   0  0  0  0  0  0  0  0  0  0  0  0
   -5.9397    1.4860    0.0000 C   0  0  0  0  0  0  0  0  0  0  0  0
  2  1  2  0  0  0  0
  3  1  1  0  0  0  0
  4  3  1  0  0  0  0
  5  2  1  0  0  0  0
  6  4  2  0  0  0  0
  7  1  1  0  0  0  0
  8  5  2  0  0  0  0
  9  7  2  0  0  0  0
 10  7  1  0  0  0  0
 11  6  1  0  0  0  0
 12 15  1  0  0  0  0
 13  8  1  0  0  0  0
 14 12  1  0  0  0  0
 15 10  2  0  0  0  0
 16  9  1  0  0  0  0
 17 11  1  0  0  0  0
 18 17  1  0  0  0  0
 19 18  1  0  0  0  0
  4  5  1  0  0  0  0
 16 12  2  0  0  0  0
 11 13  2  0  0  0  0
M  END
>  <IDNUMBER>
F9995-0036

>  <Chemical_Name>
4-(6-ethoxy-1,3-benzothiazol-2-yl)aniline

>  <PriceCoeff>
1.00

>  <CAS>
328109-15-5

>  <MW>
270.36

>  <Description>
solid

>  <FSP3>
0.13

>  <clogP>
3.51

>  <TPSA>
48.14

>  <Acceptor>
3

>  <Donor>
1

>  <RotBonds>
3

>  <HAC>
19

>  <Collection>
General

>  <PPDS>
+

$$$$
F9995-0068
  Mrv2219 10102508112D          

 10 11  0  0  0  0            999 V2000
    2.9979   -4.8976    0.0000 C   0  0  0  0  0  0  0  0  0  0  0  0
    2.9979   -4.0751    0.0000 C   0  0  0  0  0  0  0  0  0  0  0  0
    2.2922   -3.6618    0.0000 O   0  0  0  0  0  0  0  0  0  0  0  0
    2.2839   -5.3110    0.0000 O   0  0  0  0  0  0  0  0  0  0  0  0
    1.5699   -4.8893    0.0000 C   0  0  0  0  0  0  0  0  0  0  0  0
    1.5783   -4.0626    0.0000 C   0  0  0  0  0  0  0  0  0  0  0  0
    3.7119   -5.3110    0.0000 C   0  0  0  0  0  0  0  0  0  0  0  0
    3.7119   -3.6492    0.0000 C   0  0  0  0  0  0  0  0  0  0  0  0
    4.4259   -4.0626    0.0000 C   0  0  0  0  0  0  0  0  0  0  0  0
    4.4259   -4.8976    0.0000 C   0  0  0  0  0  0  0  0  0  0  0  0
  2  1  2  0  0  0  0
  3  2  1  0  0  0  0
  4  1  1  0  0  0  0
  5  4  1  0  0  0  0
  6  5  1  0  0  0  0
  7  1  1  0  0  0  0
  8  2  1  0  0  0  0
  9 10  1  0  0  0  0
 10  7  2  0  0  0  0
  8  9  2  0  0  0  0
  6  3  1  0  0  0  0
M  END
>  <IDNUMBER>
F9995-0068

>  <Chemical_Name>
2,3-dihydro-1,4-benzodioxine

>  <PriceCoeff>
1.50

>  <CAS>
493-09-4

>  <MW>
136.15

>  <Description>
liquid

>  <FSP3>
0.25

>  <clogP>
1.46

>  <TPSA>
18.46

>  <Acceptor>
2

>  <Donor>
0

>  <RotBonds>
0

>  <HAC>
10

>  <Collection>
Advanced

>  <PPDS>
+

$$$$
F9995-0076
  Mrv2219 10102508112D          

 38 41  0  0  0  0            999 V2000
    0.7375   -0.6417    0.0000 N   0  3  0  0  0  0  0  0  0  0  0  0
    5.0167   -0.6125    0.0000 N   0  0  0  0  0  0  0  0  0  0  0  0
    4.3042   -0.2042    0.0000 C   0  0  0  0  0  0  0  0  0  0  0  0
    5.7292   -0.1917    0.0000 C   0  0  0  0  0  0  0  0  0  0  0  0
    0.0167   -0.2292    0.0000 C   0  0  0  0  0  0  0  0  0  0  0  0
    4.2917    0.6208    0.0000 C   0  0  0  0  0  0  0  0  0  0  0  0
    1.4500   -0.2292    0.0000 C   0  0  0  0  0  0  0  0  0  0  0  0
    5.0042    1.0375    0.0000 C   0  0  0  0  0  0  0  0  0  0  0  0
    5.7250    0.6333    0.0000 C   0  0  0  0  0  0  0  0  0  0  0  0
    2.8792   -0.2167    0.0000 C   0  0  0  0  0  0  0  0  0  0  0  0
    3.5917   -0.6250    0.0000 C   0  0  0  0  0  0  0  0  0  0  0  0
    2.1667   -0.6375    0.0000 C   0  0  0  0  0  0  0  0  0  0  0  0
    0.0167    0.5958    0.0000 C   0  0  0  0  0  0  0  0  0  0  0  0
    1.4417    0.6000    0.0000 C   0  0  0  0  0  0  0  0  0  0  0  0
    0.7292    1.0083    0.0000 C   0  0  0  0  0  0  0  0  0  0  0  0
    0.7375   -1.4667    0.0000 C   0  0  0  0  0  0  0  0  0  0  0  0
    5.0292   -1.4375    0.0000 C   0  0  0  0  0  0  0  0  0  0  0  0
    6.4417   -0.5917    0.0000 C   0  0  0  0  0  0  0  0  0  0  0  0
   -0.6958   -0.6500    0.0000 C   0  0  0  0  0  0  0  0  0  0  0  0
    6.4292    1.0458    0.0000 C   0  0  0  0  0  0  0  0  0  0  0  0
   -0.6958    1.0083    0.0000 C   0  0  0  0  0  0  0  0  0  0  0  0
    0.0250   -1.8792    0.0000 C   0  0  0  0  0  0  0  0  0  0  0  0
    4.3167   -1.8542    0.0000 C   0  0  0  0  0  0  0  0  0  0  0  0
    7.1500   -0.1792    0.0000 C   0  0  0  0  0  0  0  0  0  0  0  0
   -1.4083   -0.2375    0.0000 C   0  0  0  0  0  0  0  0  0  0  0  0
    7.1417    0.6458    0.0000 C   0  0  0  0  0  0  0  0  0  0  0  0
   -1.4083    0.5875    0.0000 C   0  0  0  0  0  0  0  0  0  0  0  0
    9.9257    0.6567    0.0000 S   0  0  0  0  0  0  0  0  0  0  0  0
    9.5913   -0.0956    0.0000 C   0  0  0  0  0  0  0  0  0  0  0  0
   10.6781    0.3223    0.0000 O   0  5  0  0  0  0  0  0  0  0  0  0
   10.2577    1.4124    0.0000 O   0  0  0  0  0  0  0  0  0  0  0  0
    9.1710    0.9945    0.0000 O   0  0  0  0  0  0  0  0  0  0  0  0
   10.0807   -0.7701    0.0000 C   0  0  0  0  0  0  0  0  0  0  0  0
    8.7724   -0.1802    0.0000 C   0  0  0  0  0  0  0  0  0  0  0  0
    9.7463   -1.5224    0.0000 C   0  0  0  0  0  0  0  0  0  0  0  0
    8.4428   -0.9392    0.0000 C   0  0  0  0  0  0  0  0  0  0  0  0
    8.9274   -1.6069    0.0000 C   0  0  0  0  0  0  0  0  0  0  0  0
    8.5896   -2.3617    0.0000 C   0  0  0  0  0  0  0  0  0  0  0  0
 13  5  1  0  0  0  0
 14  7  1  0  0  0  0
 15 14  2  0  0  0  0
 16  1  1  0  0  0  0
 17  2  1  0  0  0  0
 18  4  1  0  0  0  0
 19  5  2  0  0  0  0
 20  9  1  0  0  0  0
 21 13  2  0  0  0  0
 22 16  1  0  0  0  0
 23 17  1  0  0  0  0
 24 18  2  0  0  0  0
 25 19  1  0  0  0  0
 26 20  2  0  0  0  0
 27 25  2  0  0  0  0
 13 15  1  0  0  0  0
 27 21  1  0  0  0  0
  4  9  2  0  0  0  0
 26 24  1  0  0  0  0
  2  3  1  0  0  0  0
  3 11  2  0  0  0  0
  4  2  1  0  0  0  0
  5  1  1  0  0  0  0
  6  3  1  0  0  0  0
  7  1  2  0  0  0  0
  8  6  2  0  0  0  0
  9  8  1  0  0  0  0
 10 12  2  0  0  0  0
 11 10  1  0  0  0  0
 12  7  1  0  0  0  0
 29 28  1  0  0  0  0
 30 28  1  0  0  0  0
 31 28  2  0  0  0  0
 32 28  2  0  0  0  0
 33 29  1  0  0  0  0
 34 29  2  0  0  0  0
 35 33  2  0  0  0  0
 36 34  1  0  0  0  0
 37 36  2  0  0  0  0
 38 37  1  0  0  0  0
 37 35  1  0  0  0  0
M  CHG  2   1   1  30  -1
M  END
>  <IDNUMBER>
F9995-0076

>  <Chemical_Name>
1-ethyl-2-[(1E)-3-[(2E)-1-ethyl-1,2-dihydroquinolin-2-ylidene]prop-1-en-1-yl]quinolin-1-ium 4-methylbenzene-1-sulfonate

>  <PriceCoeff>
1.00

>  <CAS>
14124-47-1

>  <MW>
353.48

>  <Description>
solid

>  <FSP3>
0.16

>  <clogP>
1.88

>  <TPSA>
7.12

>  <Acceptor>
1

>  <Donor>
1

>  <RotBonds>
4

>  <HAC>
27

>  <Collection>
General

$$$$
F9995-0149
  Mrv2219 10102508112D          

 19 19  0  0  0  0            999 V2000
    6.8917   -6.0292    0.0000 C   0  0  0  0  0  0  0  0  0  0  0  0
    8.3250   -6.0167    0.0000 C   0  0  0  0  0  0  0  0  0  0  0  0
    7.6125   -6.4375    0.0000 N   0  0  0  0  0  0  0  0  0  0  0  0
    8.3167   -5.1917    0.0000 C   0  0  0  0  0  0  0  0  0  0  0  0
    9.0417   -6.4292    0.0000 C   0  0  0  0  0  0  0  0  0  0  0  0
    6.8917   -5.2042    0.0000 O   0  0  0  0  0  0  0  0  0  0  0  0
    7.6042   -4.7792    0.0000 O   0  0  0  0  0  0  0  0  0  0  0  0
    6.1792   -6.4417    0.0000 O   0  0  0  0  0  0  0  0  0  0  0  0
    9.0292   -4.7792    0.0000 O   0  0  0  0  0  0  0  0  0  0  0  0
    5.4667   -6.0292    0.0000 C   0  0  0  0  0  0  0  0  0  0  0  0
    4.7542   -6.4500    0.0000 C   0  0  0  0  0  0  0  0  0  0  0  0
    9.7542   -6.0167    0.0000 C   0  0  0  0  0  0  0  0  0  0  0  0
    9.0417   -7.2542    0.0000 C   0  0  0  0  0  0  0  0  0  0  0  0
    8.8250   -5.6375    0.0000 C   0  0  0  0  0  0  0  0  0  0  0  0
    4.0375   -6.0375    0.0000 C   0  0  0  0  0  0  0  0  0  0  0  0
    4.7542   -7.2792    0.0000 C   0  0  0  0  0  0  0  0  0  0  0  0
    3.3250   -6.4500    0.0000 C   0  0  0  0  0  0  0  0  0  0  0  0
    4.0375   -7.6917    0.0000 C   0  0  0  0  0  0  0  0  0  0  0  0
    3.3250   -7.2792    0.0000 C   0  0  0  0  0  0  0  0  0  0  0  0
  2  3  1  0  0  0  0
  3  1  1  0  0  0  0
  4  2  1  0  0  0  0
  5  2  1  0  0  0  0
  6  1  2  0  0  0  0
  7  4  2  0  0  0  0
  8  1  1  0  0  0  0
  9  4  1  0  0  0  0
 10  8  1  0  0  0  0
 11 10  1  0  0  0  0
 12  5  1  0  0  0  0
 13  5  1  0  0  0  0
 14  5  1  0  0  0  0
 15 11  2  0  0  0  0
 16 11  1  0  0  0  0
 17 15  1  0  0  0  0
 18 16  2  0  0  0  0
 19 18  1  0  0  0  0
 17 19  2  0  0  0  0
M  END
>  <IDNUMBER>
F9995-0149

>  <Chemical_Name>
2-{[(benzyloxy)carbonyl]amino}-3,3-dimethylbutanoic acid

>  <PriceCoeff>
1.00

>  <CAS>
68222-59-3

>  <MW>
265.31

>  <Description>
oil

>  <FSP3>
0.43

>  <clogP>
2.85

>  <TPSA>
75.63

>  <Acceptor>
4

>  <Donor>
1

>  <RotBonds>
6

>  <HAC>
19

>  <Collection>
General

$$$$
F9995-0228
  Mrv2219 10102508112D          

 18 19  0  0  0  0            999 V2000
    5.3042   -4.0708    0.0000 N   0  3  0  0  0  0  0  0  0  0  0  0
    4.5917   -3.6625    0.0000 C   0  0  0  0  0  0  0  0  0  0  0  0
    3.8750   -4.0708    0.0000 C   0  0  0  0  0  0  0  0  0  0  0  0
    4.5917   -2.8292    0.0000 C   0  0  0  0  0  0  0  0  0  0  0  0
    5.3125   -4.9000    0.0000 O   0  5  0  0  0  0  0  0  0  0  0  0
    5.3042   -2.4167    0.0000 N   0  0  0  0  0  0  0  0  0  0  0  0
    6.0250   -3.6542    0.0000 O   0  0  0  0  0  0  0  0  0  0  0  0
    3.8750   -2.4167    0.0000 C   0  0  0  0  0  0  0  0  0  0  0  0
    3.1625   -3.6625    0.0000 C   0  0  0  0  0  0  0  0  0  0  0  0
    6.0167   -2.8250    0.0000 C   0  0  0  0  0  0  0  0  0  0  0  0
    3.1625   -2.8375    0.0000 C   0  0  0  0  0  0  0  0  0  0  0  0
    2.4417   -4.0708    0.0000 Cl  0  0  0  0  0  0  0  0  0  0  0  0
    6.7292   -2.4125    0.0000 C   0  0  0  0  0  0  0  0  0  0  0  0
    7.4417   -2.8250    0.0000 C   0  0  0  0  0  0  0  0  0  0  0  0
    6.7250   -1.5917    0.0000 C   0  0  0  0  0  0  0  0  0  0  0  0
    7.4375   -1.1750    0.0000 C   0  0  0  0  0  0  0  0  0  0  0  0
    8.1542   -2.4042    0.0000 C   0  0  0  0  0  0  0  0  0  0  0  0
    8.1542   -1.5792    0.0000 C   0  0  0  0  0  0  0  0  0  0  0  0
  2  1  1  0  0  0  0
  3  2  2  0  0  0  0
  4  2  1  0  0  0  0
  5  1  1  0  0  0  0
  6  4  1  0  0  0  0
  7  1  2  0  0  0  0
  8  4  2  0  0  0  0
  9  3  1  0  0  0  0
 10  6  1  0  0  0  0
 11  8  1  0  0  0  0
 12  9  1  0  0  0  0
 13 10  1  0  0  0  0
 14 13  2  0  0  0  0
 15 13  1  0  0  0  0
 16 15  2  0  0  0  0
 17 14  1  0  0  0  0
 18 16  1  0  0  0  0
  9 11  2  0  0  0  0
 17 18  2  0  0  0  0
M  CHG  2   1   1   5  -1
M  END
>  <IDNUMBER>
F9995-0228

>  <Chemical_Name>
N-benzyl-4-chloro-2-nitroaniline

>  <PriceCoeff>
1.00

>  <CAS>
10066-18-9

>  <MW>
262.70

>  <Description>
solid

>  <FSP3>
0.08

>  <clogP>
4.36

>  <TPSA>
55.17

>  <Acceptor>
3

>  <Donor>
1

>  <RotBonds>
4

>  <HAC>
18

>  <Collection>
General

>  <PPDS>
+

$$$$
F9995-0269
  Mrv2219 10102508112D          

 19 21  0  0  0  0            999 V2000
    5.9375   -2.0375    0.0000 C   0  0  0  0  0  0  0  0  0  0  0  0
    5.4500   -2.7042    0.0000 N   0  0  0  0  0  0  0  0  0  0  0  0
    5.4500   -1.3667    0.0000 S   0  0  0  0  0  0  0  0  0  0  0  0
    4.6667   -1.6250    0.0000 C   0  0  0  0  0  0  0  0  0  0  0  0
    4.6667   -2.4500    0.0000 C   0  0  0  0  0  0  0  0  0  0  0  0
    3.9500   -1.2125    0.0000 C   0  0  0  0  0  0  0  0  0  0  0  0
    6.7625   -2.0375    0.0000 C   0  0  0  0  0  0  0  0  0  0  0  0
    3.9500   -2.8667    0.0000 C   0  0  0  0  0  0  0  0  0  0  0  0
    7.1667   -2.7542    0.0000 C   0  0  0  0  0  0  0  0  0  0  0  0
    7.1667   -1.3250    0.0000 C   0  0  0  0  0  0  0  0  0  0  0  0
    3.2375   -1.6250    0.0000 C   0  0  0  0  0  0  0  0  0  0  0  0
    8.4042   -2.0375    0.0000 C   0  0  0  0  0  0  0  0  0  0  0  0
    3.2375   -2.4542    0.0000 C   0  0  0  0  0  0  0  0  0  0  0  0
    7.9917   -1.3167    0.0000 C   0  0  0  0  0  0  0  0  0  0  0  0
    7.9917   -2.7542    0.0000 C   0  0  0  0  0  0  0  0  0  0  0  0
    9.2292   -2.0375    0.0000 Cl  0  0  0  0  0  0  0  0  0  0  0  0
    2.5250   -1.2167    0.0000 O   0  0  0  0  0  0  0  0  0  0  0  0
    1.8042   -1.6292    0.0000 C   0  0  0  0  0  0  0  0  0  0  0  0
    1.0917   -1.2167    0.0000 C   0  0  0  0  0  0  0  0  0  0  0  0
  2  1  2  0  0  0  0
  3  1  1  0  0  0  0
  4  3  1  0  0  0  0
  5  2  1  0  0  0  0
  6  4  2  0  0  0  0
  7  1  1  0  0  0  0
  8  5  2  0  0  0  0
  9  7  2  0  0  0  0
 10  7  1  0  0  0  0
 11  6  1  0  0  0  0
 12 14  1  0  0  0  0
 13  8  1  0  0  0  0
 14 10  2  0  0  0  0
 15  9  1  0  0  0  0
 16 12  1  0  0  0  0
 17 11  1  0  0  0  0
 18 17  1  0  0  0  0
 19 18  1  0  0  0  0
  4  5  1  0  0  0  0
 15 12  2  0  0  0  0
 11 13  2  0  0  0  0
M  END
>  <IDNUMBER>
F9995-0269

>  <Chemical_Name>
2-(4-chlorophenyl)-6-ethoxy-1,3-benzothiazole

>  <PriceCoeff>
1.00

>  <CAS>
1199589-62-2

>  <MW>
289.79

>  <Description>
solid

>  <FSP3>
0.13

>  <clogP>
4.94

>  <TPSA>
22.12

>  <Acceptor>
2

>  <Donor>
0

>  <RotBonds>
3

>  <HAC>
19

>  <Collection>
General

>  <PPDS>
+

$$$$
F9995-0424
  Mrv2219 10102508112D          

 17 17  0  0  0  0            999 V2000
   -0.7583    1.2083    0.0000 C   0  0  0  0  0  0  0  0  0  0  0  0
   -0.0458   -0.0292    0.0000 C   0  0  0  0  0  0  0  0  0  0  0  0
   -1.4708   -0.0292    0.0000 C   0  0  0  0  0  0  0  0  0  0  0  0
   -0.7625    2.0333    0.0000 C   0  0  0  0  0  0  0  0  0  0  0  0
   -1.4708    0.7875    0.0000 C   0  0  0  0  0  0  0  0  0  0  0  0
   -0.0458    0.7958    0.0000 C   0  0  0  0  0  0  0  0  0  0  0  0
   -0.7583   -0.4500    0.0000 C   0  0  0  0  0  0  0  0  0  0  0  0
    0.6750   -0.4500    0.0000 C   0  0  0  0  0  0  0  0  0  0  0  0
   -2.1875   -0.4500    0.0000 C   0  0  0  0  0  0  0  0  0  0  0  0
   -1.3458    2.4375    0.0000 O   0  0  0  0  0  0  0  0  0  0  0  0
   -0.1000    2.4375    0.0000 O   0  0  0  0  0  0  0  0  0  0  0  0
    0.6750   -1.2750    0.0000 C   0  0  0  0  0  0  0  0  0  0  0  0
    1.3875   -0.0292    0.0000 C   0  0  0  0  0  0  0  0  0  0  0  0
    0.0917   -1.0292    0.0000 C   0  0  0  0  0  0  0  0  0  0  0  0
   -2.1875   -1.2750    0.0000 C   0  0  0  0  0  0  0  0  0  0  0  0
   -2.4000    0.3458    0.0000 C   0  0  0  0  0  0  0  0  0  0  0  0
   -2.9000   -0.0292    0.0000 C   0  0  0  0  0  0  0  0  0  0  0  0
  2  6  1  0  0  0  0
  3  5  2  0  0  0  0
  4  1  1  0  0  0  0
  5  1  1  0  0  0  0
  6  1  2  0  0  0  0
  7  2  2  0  0  0  0
  8  2  1  0  0  0  0
  9  3  1  0  0  0  0
 10  4  2  0  0  0  0
 11  4  1  0  0  0  0
 12  8  1  0  0  0  0
 13  8  1  0  0  0  0
 14  8  1  0  0  0  0
 15  9  1  0  0  0  0
 16  9  1  0  0  0  0
 17  9  1  0  0  0  0
  7  3  1  0  0  0  0
M  END
>  <IDNUMBER>
F9995-0424

>  <Chemical_Name>
3,5-di-tert-butylbenzoic acid

>  <PriceCoeff>
1.00

>  <CAS>
16225-26-6

>  <MW>
234.34

>  <Description>
solid

>  <FSP3>
0.53

>  <clogP>
3.98

>  <TPSA>
37.30

>  <Acceptor>
2

>  <Donor>
0

>  <RotBonds>
3

>  <HAC>
17

>  <Collection>
General

>  <PPDS>
+

$$$$
F9995-0472
  Mrv2219 10102508112D          

 54 60  0  0  0  0            999 V2000
    2.1125   -3.3875    0.0000 N   0  3  0  0  0  0  0  0  0  0  0  0
    8.5875   -3.0542    0.0000 C   0  0  0  0  0  0  0  0  0  0  0  0
    2.8625   -3.0542    0.0000 C   0  0  0  0  0  0  0  0  0  0  0  0
    1.5625   -2.7625    0.0000 C   0  0  0  0  0  0  0  0  0  0  0  0
    9.3417   -3.3917    0.0000 N   0  0  0  0  0  0  0  0  0  0  0  0
    8.6917   -2.2167    0.0000 C   0  0  0  0  0  0  0  0  0  0  0  0
    2.7875   -2.2167    0.0000 C   0  0  0  0  0  0  0  0  0  0  0  0
    1.9792   -2.0417    0.0000 C   0  0  0  0  0  0  0  0  0  0  0  0
    9.4917   -2.0542    0.0000 C   0  0  0  0  0  0  0  0  0  0  0  0
    9.9042   -2.7792    0.0000 C   0  0  0  0  0  0  0  0  0  0  0  0
    7.8792   -3.4750    0.0000 C   0  0  0  0  0  0  0  0  0  0  0  0
    3.5792   -3.4750    0.0000 C   0  0  0  0  0  0  0  0  0  0  0  0
    5.7292   -3.0625    0.0000 C   0  0  0  0  0  0  0  0  0  0  0  0
    7.1667   -3.0625    0.0000 C   0  0  0  0  0  0  0  0  0  0  0  0
    4.3000   -3.0625    0.0000 C   0  0  0  0  0  0  0  0  0  0  0  0
    5.0167   -3.4750    0.0000 C   0  0  0  0  0  0  0  0  0  0  0  0
    6.4500   -3.4750    0.0000 C   0  0  0  0  0  0  0  0  0  0  0  0
    9.9125   -1.3500    0.0000 C   0  0  0  0  0  0  0  0  0  0  0  0
    1.5667   -1.3292    0.0000 C   0  0  0  0  0  0  0  0  0  0  0  0
    0.7292   -2.7542    0.0000 C   0  0  0  0  0  0  0  0  0  0  0  0
   10.7292   -2.7792    0.0000 C   0  0  0  0  0  0  0  0  0  0  0  0
   10.7417   -1.3542    0.0000 C   0  0  0  0  0  0  0  0  0  0  0  0
    0.7417   -1.3167    0.0000 C   0  0  0  0  0  0  0  0  0  0  0  0
   11.1417   -2.0667    0.0000 C   0  0  0  0  0  0  0  0  0  0  0  0
    0.3167   -2.0292    0.0000 C   0  0  0  0  0  0  0  0  0  0  0  0
    1.9292   -4.1917    0.0000 C   0  0  0  0  0  0  0  0  0  0  0  0
    5.7292   -2.2375    0.0000 Cl  0  0  0  0  0  0  0  0  0  0  0  0
    9.5167   -4.1917    0.0000 C   0  0  0  0  0  0  0  0  0  0  0  0
    7.8917   -2.0000    0.0000 C   0  0  0  0  0  0  0  0  0  0  0  0
    8.9042   -1.4167    0.0000 C   0  0  0  0  0  0  0  0  0  0  0  0
    3.6125   -2.2167    0.0000 C   0  0  0  0  0  0  0  0  0  0  0  0
    2.7792   -1.3917    0.0000 C   0  0  0  0  0  0  0  0  0  0  0  0
    6.4417   -4.3000    0.0000 C   0  0  0  0  0  0  0  0  0  0  0  0
    5.0125   -4.3000    0.0000 C   0  0  0  0  0  0  0  0  0  0  0  0
    1.9875   -0.6167    0.0000 C   0  0  0  0  0  0  0  0  0  0  0  0
    9.5042   -0.6292    0.0000 C   0  0  0  0  0  0  0  0  0  0  0  0
    5.7292   -4.7042    0.0000 C   0  0  0  0  0  0  0  0  0  0  0  0
   11.1542   -0.6417    0.0000 C   0  0  0  0  0  0  0  0  0  0  0  0
    0.3375   -0.6042    0.0000 C   0  0  0  0  0  0  0  0  0  0  0  0
    1.5792    0.1000    0.0000 C   0  0  0  0  0  0  0  0  0  0  0  0
    9.9167    0.0833    0.0000 C   0  0  0  0  0  0  0  0  0  0  0  0
   10.7500    0.0750    0.0000 C   0  0  0  0  0  0  0  0  0  0  0  0
    0.7542    0.1083    0.0000 C   0  0  0  0  0  0  0  0  0  0  0  0
   13.9298   -1.2266    0.0000 S   0  0  0  0  0  0  0  0  0  0  0  0
   13.5954   -1.9789    0.0000 C   0  0  0  0  0  0  0  0  0  0  0  0
   14.6822   -1.5610    0.0000 O   0  5  0  0  0  0  0  0  0  0  0  0
   14.2618   -0.4709    0.0000 O   0  0  0  0  0  0  0  0  0  0  0  0
   13.1751   -0.8888    0.0000 O   0  0  0  0  0  0  0  0  0  0  0  0
   14.0848   -2.6534    0.0000 C   0  0  0  0  0  0  0  0  0  0  0  0
   12.7765   -2.0635    0.0000 C   0  0  0  0  0  0  0  0  0  0  0  0
   13.7504   -3.4057    0.0000 C   0  0  0  0  0  0  0  0  0  0  0  0
   12.4469   -2.8225    0.0000 C   0  0  0  0  0  0  0  0  0  0  0  0
   12.9315   -3.4902    0.0000 C   0  0  0  0  0  0  0  0  0  0  0  0
   12.5937   -4.2450    0.0000 C   0  0  0  0  0  0  0  0  0  0  0  0
 13 16  2  0  0  0  0
 14 17  2  0  0  0  0
 15 12  2  0  0  0  0
 16 15  1  0  0  0  0
 17 13  1  0  0  0  0
 18  9  1  0  0  0  0
 19  8  1  0  0  0  0
 20  4  1  0  0  0  0
 21 10  1  0  0  0  0
 22 18  1  0  0  0  0
 23 25  1  0  0  0  0
 24 21  2  0  0  0  0
 25 20  2  0  0  0  0
 26  1  1  0  0  0  0
 27 13  1  0  0  0  0
 28  5  1  0  0  0  0
 29  6  1  0  0  0  0
 30  6  1  0  0  0  0
 31  7  1  0  0  0  0
 32  7  1  0  0  0  0
 33 37  1  0  0  0  0
 34 16  1  0  0  0  0
 35 19  2  0  0  0  0
 36 18  2  0  0  0  0
 37 34  1  0  0  0  0
 38 22  2  0  0  0  0
 39 23  2  0  0  0  0
 40 35  1  0  0  0  0
 41 36  1  0  0  0  0
 42 41  2  0  0  0  0
 43 39  1  0  0  0  0
  7  8  1  0  0  0  0
 23 19  1  0  0  0  0
 43 40  2  0  0  0  0
 17 33  1  0  0  0  0
  9 10  2  0  0  0  0
 22 24  1  0  0  0  0
 38 42  1  0  0  0  0
  2 11  2  0  0  0  0
  3  1  2  0  0  0  0
  4  1  1  0  0  0  0
  5  2  1  0  0  0  0
  6  2  1  0  0  0  0
  7  3  1  0  0  0  0
  8  4  2  0  0  0  0
  9  6  1  0  0  0  0
 10  5  1  0  0  0  0
 11 14  1  0  0  0  0
 12  3  1  0  0  0  0
 45 44  1  0  0  0  0
 46 44  1  0  0  0  0
 47 44  2  0  0  0  0
 48 44  2  0  0  0  0
 49 45  1  0  0  0  0
 50 45  2  0  0  0  0
 51 49  2  0  0  0  0
 52 50  1  0  0  0  0
 53 52  2  0  0  0  0
 54 53  1  0  0  0  0
 53 51  1  0  0  0  0
M  CHG  2   1   1  46  -1
M  END
>  <IDNUMBER>
F9995-0472

>  <Chemical_Name>
2-[(1E)-2-[(3E)-2-chloro-3-{2-[(2E)-1,1,3-trimethyl-1H,2H,3H-benzo[e]indol-2-ylidene]ethylidene}cyclohex-1-en-1-yl]ethenyl]-1,1,3-trimethyl-1H-benzo[e]indol-3-ium 4-methylbenzene-1-sulfonate

>  <PriceCoeff>
1.00

>  <CAS>
134127-48-3

>  <MW>
584.22

>  <Description>
solid

>  <FSP3>
0.28

>  <clogP>
6.77

>  <TPSA>
6.25

>  <Acceptor>
1

>  <Donor>
1

>  <RotBonds>
3

>  <HAC>
43

>  <Collection>
General

$$$$
F9995-0534
  Mrv2219 10102508112D          

 16 17  0  0  0  0            999 V2000
    0.9645    0.6764    0.0000 C   0  0  0  0  0  0  0  0  0  0  0  0
    1.6659    1.0981    0.0000 C   0  0  0  0  0  0  0  0  0  0  0  0
    0.2297    1.0898    0.0000 C   0  0  0  0  0  0  0  0  0  0  0  0
    0.9645   -0.1545    0.0000 C   0  0  0  0  0  0  0  0  0  0  0  0
    2.3841    0.6889    0.0000 C   0  0  0  0  0  0  0  0  0  0  0  0
    1.6659    1.9123    0.0000 C   0  0  0  0  0  0  0  0  0  0  0  0
    4.5261    1.9248    0.0000 O   0  0  0  0  0  0  0  0  0  0  0  0
    3.8079    2.3381    0.0000 C   0  0  0  0  0  0  0  0  0  0  0  0
    3.0856    1.9123    0.0000 C   0  0  0  0  0  0  0  0  0  0  0  0
   -0.4843   -0.1545    0.0000 C   0  0  0  0  0  0  0  0  0  0  0  0
    2.3716    2.3381    0.0000 C   0  0  0  0  0  0  0  0  0  0  0  0
    3.0981    1.0981    0.0000 C   0  0  0  0  0  0  0  0  0  0  0  0
    0.2297   -0.5637    0.0000 C   0  0  0  0  0  0  0  0  0  0  0  0
   -0.4843    0.6764    0.0000 C   0  0  0  0  0  0  0  0  0  0  0  0
   -1.1900   -0.5637    0.0000 O   0  0  0  0  0  0  0  0  0  0  0  0
   -1.8914   -0.1545    0.0000 C   0  0  0  0  0  0  0  0  0  0  0  0
  2  1  1  0  0  0  0
  3  1  2  0  0  0  0
  4  1  1  0  0  0  0
  5  2  2  0  0  0  0
  6  2  1  0  0  0  0
  7  8  2  0  0  0  0
  8  9  1  0  0  0  0
  9 11  1  0  0  0  0
 10 13  1  0  0  0  0
 11  6  2  0  0  0  0
 12  5  1  0  0  0  0
 13  4  2  0  0  0  0
 14  3  1  0  0  0  0
 15 10  1  0  0  0  0
 16 15  1  0  0  0  0
 10 14  2  0  0  0  0
  9 12  2  0  0  0  0
M  END
>  <IDNUMBER>
F9995-0534

>  <Chemical_Name>
4'-methoxy-[1,1'-biphenyl]-4-carbaldehyde

>  <PriceCoeff>
1.00

>  <CAS>
52988-34-8

>  <MW>
212.25

>  <Description>
solid

>  <FSP3>
0.07

>  <clogP>
3.18

>  <TPSA>
26.30

>  <Acceptor>
2

>  <Donor>
0

>  <RotBonds>
3

>  <HAC>
16

>  <Collection>
General

>  <PPDS>
+

$$$$
F9995-0540
  Mrv2219 10102508112D          

 16 17  0  0  0  0            999 V2000
    0.3424    0.6221    0.0000 C   0  0  0  0  0  0  0  0  0  0  0  0
    1.0439    1.0354    0.0000 C   0  0  0  0  0  0  0  0  0  0  0  0
   -0.3716    1.0354    0.0000 C   0  0  0  0  0  0  0  0  0  0  0  0
    1.7829    0.6221    0.0000 C   0  0  0  0  0  0  0  0  0  0  0  0
    1.0439    1.8538    0.0000 C   0  0  0  0  0  0  0  0  0  0  0  0
    3.9123    1.8747    0.0000 O   0  0  0  0  0  0  0  0  0  0  0  0
    3.1941    2.2630    0.0000 C   0  0  0  0  0  0  0  0  0  0  0  0
    2.4843    1.8622    0.0000 C   0  0  0  0  0  0  0  0  0  0  0  0
   -1.0855    0.6096    0.0000 C   0  0  0  0  0  0  0  0  0  0  0  0
    1.7578    2.2630    0.0000 C   0  0  0  0  0  0  0  0  0  0  0  0
    2.4927    1.0354    0.0000 C   0  0  0  0  0  0  0  0  0  0  0  0
   -1.8120    1.0229    0.0000 O   0  0  0  0  0  0  0  0  0  0  0  0
    0.3424   -0.2171    0.0000 C   0  0  0  0  0  0  0  0  0  0  0  0
   -0.3716   -0.6305    0.0000 C   0  0  0  0  0  0  0  0  0  0  0  0
   -1.0855   -0.2171    0.0000 C   0  0  0  0  0  0  0  0  0  0  0  0
   -1.8120    1.8413    0.0000 C   0  0  0  0  0  0  0  0  0  0  0  0
  2  1  1  0  0  0  0
  3  1  2  0  0  0  0
  4  2  2  0  0  0  0
  5  2  1  0  0  0  0
  6  7  2  0  0  0  0
  7  8  1  0  0  0  0
  8 10  1  0  0  0  0
  9  3  1  0  0  0  0
 10  5  2  0  0  0  0
 11  4  1  0  0  0  0
 12  9  1  0  0  0  0
 13  1  1  0  0  0  0
 14 13  2  0  0  0  0
 15 14  1  0  0  0  0
 16 12  1  0  0  0  0
 15  9  2  0  0  0  0
  8 11  2  0  0  0  0
M  END
>  <IDNUMBER>
F9995-0540

>  <Chemical_Name>
3'-methoxy-[1,1'-biphenyl]-4-carbaldehyde

>  <PriceCoeff>
1.00

>  <CAS>
209863-09-2

>  <MW>
212.25

>  <Description>
liquid

>  <FSP3>
0.07

>  <clogP>
3.18

>  <TPSA>
26.30

>  <Acceptor>
2

>  <Donor>
0

>  <RotBonds>
3

>  <HAC>
16

>  <Collection>
General

>  <PPDS>
+

$$$$
F9995-0544
  Mrv2219 10102508112D          

 19 20  0  0  0  0            999 V2000
    2.3016    0.7005    0.0000 C   0  0  0  0  0  0  0  0  0  0  0  0
    3.0313    1.1008    0.0000 C   0  0  0  0  0  0  0  0  0  0  0  0
    2.2808   -0.1168    0.0000 C   0  0  0  0  0  0  0  0  0  0  0  0
    1.6012    1.1341    0.0000 C   0  0  0  0  0  0  0  0  0  0  0  0
    0.1543    1.1716    0.0000 O   0  0  0  0  0  0  0  0  0  0  0  0
   -0.5504    0.7713    0.0000 C   0  0  0  0  0  0  0  0  0  0  0  0
    0.8673    0.7380    0.0000 C   0  0  0  0  0  0  0  0  0  0  0  0
    3.0521    1.9346    0.0000 O   0  0  0  0  0  0  0  0  0  0  0  0
   -1.2634    1.2217    0.0000 C   0  0  0  0  0  0  0  0  0  0  0  0
    1.5511   -0.5171    0.0000 C   0  0  0  0  0  0  0  0  0  0  0  0
    3.7401    0.6712    0.0000 O   0  0  0  0  0  0  0  0  0  0  0  0
    2.9897   -0.5629    0.0000 N   0  0  0  0  0  0  0  0  0  0  0  0
    0.8506   -0.0793    0.0000 C   0  0  0  0  0  0  0  0  0  0  0  0
   -1.2342    2.0389    0.0000 O   0  0  0  0  0  0  0  0  0  0  0  0
   -0.5838   -0.0292    0.0000 C   0  0  0  0  0  0  0  0  0  0  0  0
   -1.9847    0.8213    0.0000 C   0  0  0  0  0  0  0  0  0  0  0  0
   -0.5129    2.4350    0.0000 C   0  0  0  0  0  0  0  0  0  0  0  0
   -1.3009   -0.4295    0.0000 C   0  0  0  0  0  0  0  0  0  0  0  0
   -2.0222    0.0000    0.0000 C   0  0  0  0  0  0  0  0  0  0  0  0
  2  1  1  0  0  0  0
  3  1  1  0  0  0  0
  4  1  2  0  0  0  0
  5  7  1  0  0  0  0
  6  5  1  0  0  0  0
  7  4  1  0  0  0  0
  8  2  2  0  0  0  0
  9  6  2  0  0  0  0
 10  3  2  0  0  0  0
 11  2  1  0  0  0  0
 12  3  1  0  0  0  0
 13  7  2  0  0  0  0
 14  9  1  0  0  0  0
 15  6  1  0  0  0  0
 16  9  1  0  0  0  0
 17 14  1  0  0  0  0
 18 15  2  0  0  0  0
 19 18  1  0  0  0  0
 13 10  1  0  0  0  0
 19 16  2  0  0  0  0
M  END
>  <IDNUMBER>
F9995-0544

>  <Chemical_Name>
2-amino-5-(2-methoxyphenoxy)benzoic acid

>  <PriceCoeff>
1.00

>  <CAS>
885267-99-2

>  <MW>
259.26

>  <Description>
solid

>  <FSP3>
0.07

>  <clogP>
2.79

>  <TPSA>
81.78

>  <Acceptor>
5

>  <Donor>
1

>  <RotBonds>
4

>  <HAC>
19

>  <Collection>
General

>  <PPDS>
+

$$$$
F9995-0546
  Mrv2219 10102508112D          

 18 19  0  0  0  0            999 V2000
    2.2913    0.8950    0.0000 C   0  0  0  0  0  0  0  0  0  0  0  0
    3.0081    1.2803    0.0000 C   0  0  0  0  0  0  0  0  0  0  0  0
    2.2623    0.0704    0.0000 C   0  0  0  0  0  0  0  0  0  0  0  0
    1.5828    1.3259    0.0000 C   0  0  0  0  0  0  0  0  0  0  0  0
    0.1740    1.3632    0.0000 O   0  0  0  0  0  0  0  0  0  0  0  0
   -0.5552    0.9778    0.0000 C   0  0  0  0  0  0  0  0  0  0  0  0
    0.8701    0.9323    0.0000 C   0  0  0  0  0  0  0  0  0  0  0  0
    3.0372    2.1090    0.0000 O   0  0  0  0  0  0  0  0  0  0  0  0
   -1.2637    1.4004    0.0000 C   0  0  0  0  0  0  0  0  0  0  0  0
    1.5455   -0.3149    0.0000 C   0  0  0  0  0  0  0  0  0  0  0  0
    3.7084    0.8659    0.0000 O   0  0  0  0  0  0  0  0  0  0  0  0
    2.9626   -0.3605    0.0000 N   0  0  0  0  0  0  0  0  0  0  0  0
    0.8246    0.1077    0.0000 C   0  0  0  0  0  0  0  0  0  0  0  0
   -0.5718    0.1450    0.0000 C   0  0  0  0  0  0  0  0  0  0  0  0
   -1.2264    2.2208    0.0000 C   0  0  0  0  0  0  0  0  0  0  0  0
   -1.9722    1.0151    0.0000 C   0  0  0  0  0  0  0  0  0  0  0  0
   -1.3010   -0.2404    0.0000 C   0  0  0  0  0  0  0  0  0  0  0  0
   -2.0095    0.1865    0.0000 C   0  0  0  0  0  0  0  0  0  0  0  0
  2  1  1  0  0  0  0
  3  1  1  0  0  0  0
  4  1  2  0  0  0  0
  5  7  1  0  0  0  0
  6  5  1  0  0  0  0
  7  4  1  0  0  0  0
  8  2  2  0  0  0  0
  9  6  2  0  0  0  0
 10  3  2  0  0  0  0
 11  2  1  0  0  0  0
 12  3  1  0  0  0  0
 13  7  2  0  0  0  0
 14  6  1  0  0  0  0
 15  9  1  0  0  0  0
 16  9  1  0  0  0  0
 17 14  2  0  0  0  0
 18 17  1  0  0  0  0
 13 10  1  0  0  0  0
 18 16  2  0  0  0  0
M  END
>  <IDNUMBER>
F9995-0546

>  <Chemical_Name>
2-amino-5-(2-methylphenoxy)benzoic acid

>  <PriceCoeff>
1.00

>  <CAS>
885268-00-8

>  <MW>
243.26

>  <Description>
solid

>  <FSP3>
0.07

>  <clogP>
3.81

>  <TPSA>
72.55

>  <Acceptor>
4

>  <Donor>
1

>  <RotBonds>
3

>  <HAC>
18

>  <Collection>
General

>  <PPDS>
+

$$$$
F9995-0575
  Mrv2219 10102508112D          

 17 18  0  0  0  0            999 V2000
    3.1765    1.8235    0.0000 C   0  0  0  0  0  0  0  0  0  0  0  0
    0.3497    0.1749    0.0000 C   0  0  0  0  0  0  0  0  0  0  0  0
    2.4646    1.4113    0.0000 C   0  0  0  0  0  0  0  0  0  0  0  0
    1.0366    0.5828    0.0000 C   0  0  0  0  0  0  0  0  0  0  0  0
   -0.3705    0.5828    0.0000 C   0  0  0  0  0  0  0  0  0  0  0  0
    3.8967    1.4238    0.0000 O   0  0  0  0  0  0  0  0  0  0  0  0
    1.7485    1.8235    0.0000 C   0  0  0  0  0  0  0  0  0  0  0  0
    2.4646    0.5828    0.0000 C   0  0  0  0  0  0  0  0  0  0  0  0
    1.0366    1.4113    0.0000 C   0  0  0  0  0  0  0  0  0  0  0  0
    1.7652    0.1749    0.0000 C   0  0  0  0  0  0  0  0  0  0  0  0
    3.1640    2.6560    0.0000 O   0  0  0  0  0  0  0  0  0  0  0  0
   -1.0824    0.1624    0.0000 C   0  0  0  0  0  0  0  0  0  0  0  0
   -1.7943    0.5746    0.0000 O   0  0  0  0  0  0  0  0  0  0  0  0
    0.3497   -0.6537    0.0000 C   0  0  0  0  0  0  0  0  0  0  0  0
   -0.3705   -1.0533    0.0000 C   0  0  0  0  0  0  0  0  0  0  0  0
   -1.0824   -0.6537    0.0000 C   0  0  0  0  0  0  0  0  0  0  0  0
   -1.7943    1.4071    0.0000 C   0  0  0  0  0  0  0  0  0  0  0  0
  2  4  1  0  0  0  0
  3  1  1  0  0  0  0
  4 10  2  0  0  0  0
  5  2  2  0  0  0  0
  6  1  2  0  0  0  0
  7  3  1  0  0  0  0
  8  3  2  0  0  0  0
  9  7  2  0  0  0  0
 10  8  1  0  0  0  0
 11  1  1  0  0  0  0
 12  5  1  0  0  0  0
 13 12  1  0  0  0  0
 14  2  1  0  0  0  0
 15 14  2  0  0  0  0
 16 15  1  0  0  0  0
 17 13  1  0  0  0  0
  4  9  1  0  0  0  0
 16 12  2  0  0  0  0
M  END
>  <IDNUMBER>
F9995-0575

>  <Chemical_Name>
3'-methoxy-[1,1'-biphenyl]-4-carboxylic acid

>  <PriceCoeff>
1.00

>  <CAS>
5783-36-8

>  <MW>
228.25

>  <Description>
solid

>  <FSP3>
0.07

>  <clogP>
3.06

>  <TPSA>
46.53

>  <Acceptor>
3

>  <Donor>
0

>  <RotBonds>
3

>  <HAC>
17

>  <Collection>
General

>  <PPDS>
+

$$$$
F9995-0829
  Mrv2219 10102508112D          

 54 59  0  0  0  0            999 V2000
    0.7296   -3.3184    0.0000 N   0  3  0  0  0  0  0  0  0  0  0  0
    7.1910   -2.8014    0.0000 C   0  0  0  0  0  0  0  0  0  0  0  0
    1.4800   -2.9556    0.0000 C   0  0  0  0  0  0  0  0  0  0  0  0
    7.9539   -3.1140    0.0000 N   0  0  0  0  0  0  0  0  0  0  0  0
    3.6310   -3.3059    0.0000 C   0  0  0  0  0  0  0  0  0  0  0  0
    5.0566   -3.2683    0.0000 C   0  0  0  0  0  0  0  0  0  0  0  0
    7.2577   -1.9759    0.0000 S   0  0  0  0  0  0  0  0  0  0  0  0
    1.3673   -2.1302    0.0000 S   0  0  0  0  0  0  0  0  0  0  0  0
    0.1543   -2.7138    0.0000 C   0  0  0  0  0  0  0  0  0  0  0  0
    4.3313   -2.8681    0.0000 C   0  0  0  0  0  0  0  0  0  0  0  0
    0.5503   -1.9801    0.0000 C   0  0  0  0  0  0  0  0  0  0  0  0
    8.0581   -1.7801    0.0000 C   0  0  0  0  0  0  0  0  0  0  0  0
    8.4916   -2.4804    0.0000 C   0  0  0  0  0  0  0  0  0  0  0  0
    6.4824   -3.2307    0.0000 C   0  0  0  0  0  0  0  0  0  0  0  0
    5.7570   -2.8389    0.0000 C   0  0  0  0  0  0  0  0  0  0  0  0
    2.9056   -2.9139    0.0000 C   0  0  0  0  0  0  0  0  0  0  0  0
    2.2052   -3.3434    0.0000 C   0  0  0  0  0  0  0  0  0  0  0  0
    0.1167   -1.2798    0.0000 C   0  0  0  0  0  0  0  0  0  0  0  0
    8.4458   -1.0547    0.0000 C   0  0  0  0  0  0  0  0  0  0  0  0
   -0.6712   -2.7305    0.0000 C   0  0  0  0  0  0  0  0  0  0  0  0
    9.3087   -2.4637    0.0000 C   0  0  0  0  0  0  0  0  0  0  0  0
    4.3063   -2.0510    0.0000 C   0  0  0  0  0  0  0  0  0  0  0  0
    3.6518   -4.1312    0.0000 C   0  0  0  0  0  0  0  0  0  0  0  0
    5.0816   -4.0936    0.0000 C   0  0  0  0  0  0  0  0  0  0  0  0
    4.3772   -4.5189    0.0000 C   0  0  0  0  0  0  0  0  0  0  0  0
    0.5795   -4.1270    0.0000 C   0  0  0  0  0  0  0  0  0  0  0  0
    5.0066   -1.6175    0.0000 C   0  0  0  0  0  0  0  0  0  0  0  0
    3.5810   -1.6633    0.0000 C   0  0  0  0  0  0  0  0  0  0  0  0
   -0.7004   -1.3006    0.0000 C   0  0  0  0  0  0  0  0  0  0  0  0
    9.2712   -1.0297    0.0000 C   0  0  0  0  0  0  0  0  0  0  0  0
    8.1457   -3.9144    0.0000 C   0  0  0  0  0  0  0  0  0  0  0  0
   -1.1005   -2.0260    0.0000 C   0  0  0  0  0  0  0  0  0  0  0  0
    9.7089   -1.7384    0.0000 C   0  0  0  0  0  0  0  0  0  0  0  0
    4.2563   -0.4002    0.0000 C   0  0  0  0  0  0  0  0  0  0  0  0
    3.5517   -0.8379    0.0000 C   0  0  0  0  0  0  0  0  0  0  0  0
    4.9816   -0.7921    0.0000 C   0  0  0  0  0  0  0  0  0  0  0  0
   -1.1338   -0.5920    0.0000 Cl  0  0  0  0  0  0  0  0  0  0  0  0
    9.6589   -0.3043    0.0000 Cl  0  0  0  0  0  0  0  0  0  0  0  0
    4.2313    0.4210    0.0000 O   0  0  0  0  0  0  0  0  0  0  0  0
    4.3939   -5.3443    0.0000 C   0  0  0  0  0  0  0  0  0  0  0  0
    4.9316    0.8587    0.0000 C   0  0  0  0  0  0  0  0  0  0  0  0
   -0.1959   -4.4064    0.0000 C   0  0  0  0  0  0  0  0  0  0  0  0
    7.5454   -4.4814    0.0000 C   0  0  0  0  0  0  0  0  0  0  0  0
   12.7235   -1.1688    0.0000 S   0  0  0  0  0  0  0  0  0  0  0  0
   12.3889   -1.9215    0.0000 C   0  0  0  0  0  0  0  0  0  0  0  0
   13.4763   -1.5035    0.0000 O   0  5  0  0  0  0  0  0  0  0  0  0
   13.0556   -0.4128    0.0000 O   0  0  0  0  0  0  0  0  0  0  0  0
   11.9684   -0.8309    0.0000 O   0  0  0  0  0  0  0  0  0  0  0  0
   12.8786   -2.5964    0.0000 C   0  0  0  0  0  0  0  0  0  0  0  0
   11.5697   -2.0062    0.0000 C   0  0  0  0  0  0  0  0  0  0  0  0
   12.5440   -3.3491    0.0000 C   0  0  0  0  0  0  0  0  0  0  0  0
   11.2399   -2.7655    0.0000 C   0  0  0  0  0  0  0  0  0  0  0  0
   11.7247   -3.4336    0.0000 C   0  0  0  0  0  0  0  0  0  0  0  0
   11.3867   -4.1888    0.0000 C   0  0  0  0  0  0  0  0  0  0  0  0
 13  4  1  0  0  0  0
 14 15  1  0  0  0  0
 15  6  2  0  0  0  0
 16 17  2  0  0  0  0
 17  3  1  0  0  0  0
 18 11  2  0  0  0  0
 19 12  1  0  0  0  0
 20  9  2  0  0  0  0
 21 13  1  0  0  0  0
 22 10  1  0  0  0  0
 23  5  1  0  0  0  0
 24 25  1  0  0  0  0
 25 23  1  0  0  0  0
 26  1  1  0  0  0  0
 27 22  2  0  0  0  0
 28 22  1  0  0  0  0
 29 32  2  0  0  0  0
 30 19  2  0  0  0  0
 31  4  1  0  0  0  0
 32 20  1  0  0  0  0
 33 21  2  0  0  0  0
 34 35  1  0  0  0  0
 35 28  2  0  0  0  0
 36 27  1  0  0  0  0
 37 29  1  0  0  0  0
 38 30  1  0  0  0  0
 39 34  1  0  0  0  0
 40 25  1  0  0  0  0
 41 39  1  0  0  0  0
 42 26  1  0  0  0  0
 43 31  1  0  0  0  0
  8 11  1  0  0  0  0
 18 29  1  0  0  0  0
 24  6  1  0  0  0  0
 34 36  2  0  0  0  0
 12 13  2  0  0  0  0
 33 30  1  0  0  0  0
  2 14  2  0  0  0  0
  3  1  2  0  0  0  0
  4  2  1  0  0  0  0
  5 16  1  0  0  0  0
  6 10  1  0  0  0  0
  7  2  1  0  0  0  0
  8  3  1  0  0  0  0
  9  1  1  0  0  0  0
 10  5  2  0  0  0  0
 11  9  1  0  0  0  0
 12  7  1  0  0  0  0
 45 44  1  0  0  0  0
 46 44  1  0  0  0  0
 47 44  2  0  0  0  0
 48 44  2  0  0  0  0
 49 45  1  0  0  0  0
 50 45  2  0  0  0  0
 51 49  2  0  0  0  0
 52 50  1  0  0  0  0
 53 52  2  0  0  0  0
 54 53  1  0  0  0  0
 53 51  1  0  0  0  0
M  CHG  2   1   1  46  -1
M  END
>  <IDNUMBER>
F9995-0829

>  <Chemical_Name>
6-chloro-2-[(1E)-2-[(3E)-3-{2-[(2Z)-6-chloro-3-ethyl-2,3-dihydro-1,3-benzothiazol-2-ylidene]ethylidene}-2-(4-methoxyphenyl)-5-methylcyclohex-1-en-1-yl]ethenyl]-3-ethyl-1,3-benzothiazol-3-ium 4-methylbenzene-1-sulfonate

>  <PriceCoeff>
1.00

>  <MW>
646.71

>  <Description>
solid

>  <FSP3>
0.25

>  <clogP>
9.21

>  <TPSA>
69.89

>  <Acceptor>
2

>  <Donor>
1

>  <RotBonds>
7

>  <HAC>
43

>  <Collection>
General

$$$$
F9995-0834
  Mrv2219 10102508112D          

 47 51  0  0  0  0            999 V2000
    0.5036   -2.6512    0.0000 N   0  3  0  0  0  0  0  0  0  0  0  0
    6.9711   -2.3347    0.0000 C   0  0  0  0  0  0  0  0  0  0  0  0
    1.2528   -2.3140    0.0000 C   0  0  0  0  0  0  0  0  0  0  0  0
    7.6911   -2.7468    0.0000 N   0  0  0  0  0  0  0  0  0  0  0  0
   -0.0457   -2.0393    0.0000 C   0  0  0  0  0  0  0  0  0  0  0  0
    7.1459   -1.5274    0.0000 S   0  0  0  0  0  0  0  0  0  0  0  0
    1.1737   -1.4983    0.0000 S   0  0  0  0  0  0  0  0  0  0  0  0
    8.2945   -2.1974    0.0000 C   0  0  0  0  0  0  0  0  0  0  0  0
    0.3663   -1.3277    0.0000 C   0  0  0  0  0  0  0  0  0  0  0  0
    7.9657   -1.4400    0.0000 C   0  0  0  0  0  0  0  0  0  0  0  0
    6.2594   -2.7468    0.0000 C   0  0  0  0  0  0  0  0  0  0  0  0
    1.9644   -2.7343    0.0000 C   0  0  0  0  0  0  0  0  0  0  0  0
   -0.8615   -2.0393    0.0000 C   0  0  0  0  0  0  0  0  0  0  0  0
    9.1186   -2.2765    0.0000 C   0  0  0  0  0  0  0  0  0  0  0  0
    5.5477   -2.3264    0.0000 C   0  0  0  0  0  0  0  0  0  0  0  0
    2.6761   -2.3264    0.0000 C   0  0  0  0  0  0  0  0  0  0  0  0
    4.1078   -2.3264    0.0000 C   0  0  0  0  0  0  0  0  0  0  0  0
    4.8236   -2.7385    0.0000 C   0  0  0  0  0  0  0  0  0  0  0  0
    3.3877   -2.7343    0.0000 C   0  0  0  0  0  0  0  0  0  0  0  0
    4.1120   -3.9746    0.0000 O   0  0  0  0  0  0  0  0  0  0  0  0
   -0.0375   -0.6159    0.0000 C   0  0  0  0  0  0  0  0  0  0  0  0
    8.4444   -0.7782    0.0000 C   0  0  0  0  0  0  0  0  0  0  0  0
    0.3288   -3.4585    0.0000 C   0  0  0  0  0  0  0  0  0  0  0  0
    9.6013   -1.6148    0.0000 C   0  0  0  0  0  0  0  0  0  0  0  0
   -1.2818   -1.3277    0.0000 C   0  0  0  0  0  0  0  0  0  0  0  0
    7.7827   -3.5708    0.0000 C   0  0  0  0  0  0  0  0  0  0  0  0
    9.2684   -0.8657    0.0000 C   0  0  0  0  0  0  0  0  0  0  0  0
   -0.8698   -0.6118    0.0000 C   0  0  0  0  0  0  0  0  0  0  0  0
    3.3960   -3.5583    0.0000 C   0  0  0  0  0  0  0  0  0  0  0  0
    4.8236   -3.5625    0.0000 C   0  0  0  0  0  0  0  0  0  0  0  0
   -2.1100   -1.3277    0.0000 O   0  0  0  0  0  0  0  0  0  0  0  0
   10.4296   -1.6980    0.0000 O   0  0  0  0  0  0  0  0  0  0  0  0
   -2.5304   -0.6159    0.0000 C   0  0  0  0  0  0  0  0  0  0  0  0
   10.9165   -1.0238    0.0000 C   0  0  0  0  0  0  0  0  0  0  0  0
    0.9406   -4.0121    0.0000 C   0  0  0  0  0  0  0  0  0  0  0  0
    7.1084   -4.0620    0.0000 C   0  0  0  0  0  0  0  0  0  0  0  0
   13.6889   -1.3750    0.0000 S   0  0  0  0  0  0  0  0  0  0  0  0
   13.3548   -2.1264    0.0000 C   0  0  0  0  0  0  0  0  0  0  0  0
   14.4404   -1.7090    0.0000 O   0  5  0  0  0  0  0  0  0  0  0  0
   14.0205   -0.6201    0.0000 O   0  0  0  0  0  0  0  0  0  0  0  0
   12.9351   -1.0376    0.0000 O   0  0  0  0  0  0  0  0  0  0  0  0
   13.8437   -2.8002    0.0000 C   0  0  0  0  0  0  0  0  0  0  0  0
   12.5369   -2.2109    0.0000 C   0  0  0  0  0  0  0  0  0  0  0  0
   13.5097   -3.5515    0.0000 C   0  0  0  0  0  0  0  0  0  0  0  0
   12.2077   -2.9691    0.0000 C   0  0  0  0  0  0  0  0  0  0  0  0
   12.6918   -3.6359    0.0000 C   0  0  0  0  0  0  0  0  0  0  0  0
   12.3544   -4.3899    0.0000 C   0  0  0  0  0  0  0  0  0  0  0  0
 13  5  1  0  0  0  0
 14  8  1  0  0  0  0
 15 18  2  0  0  0  0
 16 12  2  0  0  0  0
 17 19  2  0  0  0  0
 18 17  1  0  0  0  0
 19 16  1  0  0  0  0
 20 29  1  0  0  0  0
 21  9  1  0  0  0  0
 22 10  1  0  0  0  0
 23  1  1  0  0  0  0
 24 14  2  0  0  0  0
 25 13  2  0  0  0  0
 26  4  1  0  0  0  0
 27 22  2  0  0  0  0
 28 25  1  0  0  0  0
 29 19  1  0  0  0  0
 30 20  1  0  0  0  0
 31 25  1  0  0  0  0
 32 24  1  0  0  0  0
 33 31  1  0  0  0  0
 34 32  1  0  0  0  0
 35 23  1  0  0  0  0
 36 26  1  0  0  0  0
  7  9  1  0  0  0  0
 28 21  2  0  0  0  0
 18 30  1  0  0  0  0
 10  8  2  0  0  0  0
 24 27  1  0  0  0  0
  2 11  2  0  0  0  0
  3  1  2  0  0  0  0
  4  2  1  0  0  0  0
  5  1  1  0  0  0  0
  6  2  1  0  0  0  0
  7  3  1  0  0  0  0
  8  4  1  0  0  0  0
  9  5  2  0  0  0  0
 10  6  1  0  0  0  0
 11 15  1  0  0  0  0
 12  3  1  0  0  0  0
 38 37  1  0  0  0  0
 39 37  1  0  0  0  0
 40 37  2  0  0  0  0
 41 37  2  0  0  0  0
 42 38  1  0  0  0  0
 43 38  2  0  0  0  0
 44 42  2  0  0  0  0
 45 43  1  0  0  0  0
 46 45  2  0  0  0  0
 47 46  1  0  0  0  0
 46 44  1  0  0  0  0
M  CHG  2   1   1  39  -1
M  END
>  <IDNUMBER>
F9995-0834

>  <Chemical_Name>
3-ethyl-2-[(1E)-2-[(5Z)-5-{2-[(2Z)-3-ethyl-5-methoxy-2,3-dihydro-1,3-benzothiazol-2-ylidene]ethylidene}-5,6-dihydro-2H-pyran-3-yl]ethenyl]-5-methoxy-1,3-benzothiazol-3-ium 4-methylbenzene-1-sulfonate

>  <PriceCoeff>
1.00

>  <CAS>
328063-95-2

>  <MW>
519.70

>  <Description>
solid

>  <FSP3>
0.28

>  <clogP>
3.93

>  <TPSA>
88.35

>  <Acceptor>
4

>  <Donor>
1

>  <RotBonds>
7

>  <HAC>
36

>  <Collection>
General

$$$$
F9995-0937
  Mrv2219 10102508112D          

 15 15  0  0  0  0            999 V2000
    7.9832   -6.2922    0.0000 C   0  0  0  0  0  0  0  0  0  0  0  0
    8.5677   -5.7035    0.0000 O   0  0  0  0  0  0  0  0  0  0  0  0
    7.1899   -6.0876    0.0000 C   0  0  0  0  0  0  0  0  0  0  0  0
    5.8120   -6.4634    0.0000 C   0  0  0  0  0  0  0  0  0  0  0  0
    4.1503   -6.4551    0.0000 C   0  0  0  0  0  0  0  0  0  0  0  0
    8.2045   -7.0813    0.0000 O   0  0  0  0  0  0  0  0  0  0  0  0
    6.6054   -6.6680    0.0000 C   0  0  0  0  0  0  0  0  0  0  0  0
    5.3987   -5.7494    0.0000 C   0  0  0  0  0  0  0  0  0  0  0  0
    5.3987   -7.1773    0.0000 C   0  0  0  0  0  0  0  0  0  0  0  0
    4.5636   -7.1773    0.0000 C   0  0  0  0  0  0  0  0  0  0  0  0
    4.5720   -5.7411    0.0000 C   0  0  0  0  0  0  0  0  0  0  0  0
    3.3236   -6.4508    0.0000 O   0  0  0  0  0  0  0  0  0  0  0  0
    2.6096   -6.0375    0.0000 C   0  0  0  0  0  0  0  0  0  0  0  0
    1.8956   -6.4508    0.0000 C   0  0  0  0  0  0  0  0  0  0  0  0
    1.1816   -6.0375    0.0000 C   0  0  0  0  0  0  0  0  0  0  0  0
  2  1  2  0  0  0  0
  3  1  1  0  0  0  0
  4  7  1  0  0  0  0
  5 10  2  0  0  0  0
  6  1  1  0  0  0  0
  7  3  1  0  0  0  0
  8  4  1  0  0  0  0
  9  4  2  0  0  0  0
 10  9  1  0  0  0  0
 11  8  2  0  0  0  0
 12  5  1  0  0  0  0
 13 12  1  0  0  0  0
 14 13  1  0  0  0  0
 15 14  1  0  0  0  0
  5 11  1  0  0  0  0
M  END
>  <IDNUMBER>
F9995-0937

>  <Chemical_Name>
3-(4-propoxyphenyl)propanoic acid

>  <PriceCoeff>
1.00

>  <CAS>
3243-40-1

>  <MW>
208.26

>  <Description>
solid

>  <FSP3>
0.42

>  <clogP>
2.78

>  <TPSA>
46.53

>  <Acceptor>
3

>  <Donor>
0

>  <RotBonds>
6

>  <HAC>
15

>  <Collection>
General

>  <PPDS>
+

$$$$
F9995-1053
  Mrv2219 10102508112D          

  8  8  0  0  0  0            999 V2000
    0.5684   -0.5821    0.0000 C   0  0  0  0  0  0  0  0  0  0  0  0
   -0.1466   -0.9946    0.0000 C   0  0  0  0  0  0  0  0  0  0  0  0
   -0.1466   -1.8196    0.0000 O   0  0  0  0  0  0  0  0  0  0  0  0
    0.5684    0.2429    0.0000 C   0  0  0  0  0  0  0  0  0  0  0  0
   -0.8616    0.2429    0.0000 C   0  0  0  0  0  0  0  0  0  0  0  0
    1.2788   -0.1696    0.0000 C   0  0  0  0  0  0  0  0  0  0  0  0
    0.7746   -1.3659    0.0000 C   0  0  0  0  0  0  0  0  0  0  0  0
   -0.8616   -0.5821    0.0000 C   0  0  0  0  0  0  0  0  0  0  0  0
  2  1  1  0  0  0  0
  3  2  1  0  0  0  0
  4  1  1  0  0  0  0
  5  4  1  0  0  0  0
  6  1  1  0  0  0  0
  7  1  1  0  0  0  0
  8  2  1  0  0  0  0
  5  8  1  0  0  0  0
M  END
>  <IDNUMBER>
F9995-1053

>  <Chemical_Name>
2,2-dimethylcyclopentan-1-ol

>  <PriceCoeff>
1.00

>  <CAS>
37617-33-7

>  <MW>
114.19

>  <Description>
solid

>  <FSP3>
1.00

>  <clogP>
1.58

>  <TPSA>
20.23

>  <Acceptor>
1

>  <Donor>
1

>  <RotBonds>
0

>  <HAC>
8

>  <Collection>
General

>  <PPDS>
+

$$$$
F9995-1215
  Mrv2219 10102508112D          

 11 11  0  0  0  0            999 V2000
    2.0042   -1.6875    0.0000 C   0  0  0  0  0  0  0  0  0  0  0  0
    1.2917   -1.2750    0.0000 C   0  0  0  0  0  0  0  0  0  0  0  0
    4.1542   -0.4417    0.0000 C   0  0  0  0  0  0  0  0  0  0  0  0
    2.7250   -1.2750    0.0000 C   0  0  0  0  0  0  0  0  0  0  0  0
    4.1542   -1.2750    0.0000 C   0  0  0  0  0  0  0  0  0  0  0  0
    3.4375   -0.0292    0.0000 C   0  0  0  0  0  0  0  0  0  0  0  0
    4.8667   -0.0292    0.0000 C   0  0  0  0  0  0  0  0  0  0  0  0
    2.7250   -0.4500    0.0000 C   0  0  0  0  0  0  0  0  0  0  0  0
    3.4375   -1.6875    0.0000 C   0  0  0  0  0  0  0  0  0  0  0  0
    5.5792   -0.4375    0.0000 C   0  0  0  0  0  0  0  0  0  0  0  0
    4.8625    0.7958    0.0000 C   0  0  0  0  0  0  0  0  0  0  0  0
  2  1  3  0  0  0  0
  3  5  1  0  0  0  0
  4  1  1  0  0  0  0
  5  9  2  0  0  0  0
  6  8  1  0  0  0  0
  7  3  1  0  0  0  0
  8  4  2  0  0  0  0
  9  4  1  0  0  0  0
 10  7  1  0  0  0  0
 11  7  1  0  0  0  0
  6  3  2  0  0  0  0
M  END
>  <IDNUMBER>
F9995-1215

>  <Chemical_Name>
1-ethynyl-4-(propan-2-yl)benzene

>  <PriceCoeff>
1.00

>  <CAS>
23152-99-0

>  <MW>
144.22

>  <Description>
liquid

>  <FSP3>
0.27

>  <clogP>
3.37

>  <TPSA>
0.00

>  <Acceptor>
0

>  <Donor>
0

>  <RotBonds>
1

>  <HAC>
11

>  <Collection>
General

>  <PPDS>
+

$$$$
F9995-1658
  Mrv2219 10102508112D          

  9  9  0  0  0  0            999 V2000
    4.7015   -4.5685    0.0000 C   0  0  0  0  0  0  0  0  0  0  0  0
    4.7015   -6.2229    0.0000 C   0  0  0  0  0  0  0  0  0  0  0  0
    5.4165   -4.9800    0.0000 C   0  0  0  0  0  0  0  0  0  0  0  0
    3.9907   -4.9883    0.0000 C   0  0  0  0  0  0  0  0  0  0  0  0
    3.9907   -5.8114    0.0000 C   0  0  0  0  0  0  0  0  0  0  0  0
    5.4165   -5.8114    0.0000 C   0  0  0  0  0  0  0  0  0  0  0  0
    4.6932   -3.7454    0.0000 O   0  0  0  0  0  0  0  0  0  0  0  0
    4.7015   -7.0460    0.0000 O   0  0  0  0  0  0  0  0  0  0  0  0
    3.9907   -7.4575    0.0000 C   0  0  0  0  0  0  0  0  0  0  0  0
  2  5  1  0  0  0  0
  3  1  2  0  0  0  0
  4  1  1  0  0  0  0
  5  4  2  0  0  0  0
  6  3  1  0  0  0  0
  7  1  1  0  0  0  0
  8  2  1  0  0  0  0
  9  8  1  0  0  0  0
  6  2  2  0  0  0  0
M  END
>  <IDNUMBER>
F9995-1658

>  <Chemical_Name>
4-methoxyphenol

>  <PriceCoeff>
1.00

>  <CAS>
150-76-5

>  <MW>
124.14

>  <Description>
solid

>  <FSP3>
0.14

>  <clogP>
1.40

>  <TPSA>
29.46

>  <Acceptor>
2

>  <Donor>
1

>  <RotBonds>
1

>  <HAC>
9

>  <Collection>
General

>  <PPDS>
+

$$$$
F9995-2402
  Mrv2219 10102508112D          

 40 39  0  0  0  0            999 V2000
    1.1470   -2.3525    0.0000 C   0  0  0  0  0  0  0  0  0  0  0  0
    1.9632   -4.8390    0.0000 C   0  0  0  0  0  0  0  0  0  0  0  0
    1.1470   -3.1814    0.0000 O   0  0  0  0  0  0  0  0  0  0  0  0
    0.4312   -1.9381    0.0000 O   0  0  0  0  0  0  0  0  0  0  0  0
    2.5493   -4.2488    0.0000 O   0  0  0  0  0  0  0  0  0  0  0  0
    1.1344   -4.8390    0.0000 O   0  0  0  0  0  0  0  0  0  0  0  0
    0.4270   -3.5958    0.0000 C   0  0  0  0  0  0  0  0  0  0  0  0
    0.4227   -4.4246    0.0000 C   0  0  0  0  0  0  0  0  0  0  0  0
   -0.2846   -2.3483    0.0000 O   0  0  0  0  0  0  0  0  0  0  0  0
    1.7330   -1.7707    0.0000 C   0  0  0  0  0  0  0  0  0  0  0  0
    2.3734   -5.5548    0.0000 C   0  0  0  0  0  0  0  0  0  0  0  0
   -0.2888   -3.1771    0.0000 C   0  0  0  0  0  0  0  0  0  0  0  0
    3.1939   -5.5548    0.0000 C   0  0  0  0  0  0  0  0  0  0  0  0
    2.5284   -1.9841    0.0000 C   0  0  0  0  0  0  0  0  0  0  0  0
   10.6031   -9.8496    0.0000 C   0  0  0  0  0  0  0  0  0  0  0  0
   10.8166    0.2512    0.0000 C   0  0  0  0  0  0  0  0  0  0  0  0
   10.0212    0.4646    0.0000 C   0  0  0  0  0  0  0  0  0  0  0  0
    9.7826   -9.8496    0.0000 C   0  0  0  0  0  0  0  0  0  0  0  0
    6.6725   -0.8665    0.0000 C   0  0  0  0  0  0  0  0  0  0  0  0
    7.2585   -0.2805    0.0000 C   0  0  0  0  0  0  0  0  0  0  0  0
    8.0538   -0.4940    0.0000 C   0  0  0  0  0  0  0  0  0  0  0  0
    8.6398    0.0962    0.0000 C   0  0  0  0  0  0  0  0  0  0  0  0
    9.4352   -0.1172    0.0000 C   0  0  0  0  0  0  0  0  0  0  0  0
    3.1144   -1.3981    0.0000 C   0  0  0  0  0  0  0  0  0  0  0  0
    3.9097   -1.6116    0.0000 C   0  0  0  0  0  0  0  0  0  0  0  0
    3.6083   -6.2706    0.0000 C   0  0  0  0  0  0  0  0  0  0  0  0
    4.4329   -6.2706    0.0000 C   0  0  0  0  0  0  0  0  0  0  0  0
    4.8390   -6.9864    0.0000 C   0  0  0  0  0  0  0  0  0  0  0  0
    5.6678   -6.9864    0.0000 C   0  0  0  0  0  0  0  0  0  0  0  0
    6.0780   -7.7022    0.0000 C   0  0  0  0  0  0  0  0  0  0  0  0
    6.8985   -7.7022    0.0000 C   0  0  0  0  0  0  0  0  0  0  0  0
    7.3129   -8.4180    0.0000 C   0  0  0  0  0  0  0  0  0  0  0  0
    8.1375   -8.4180    0.0000 C   0  0  0  0  0  0  0  0  0  0  0  0
    8.5436   -9.1338    0.0000 C   0  0  0  0  0  0  0  0  0  0  0  0
    9.3724   -9.1338    0.0000 C   0  0  0  0  0  0  0  0  0  0  0  0
    4.4957   -1.0214    0.0000 C   0  0  0  0  0  0  0  0  0  0  0  0
    5.2911   -1.2349    0.0000 C   0  0  0  0  0  0  0  0  0  0  0  0
    5.8771   -0.6530    0.0000 C   0  0  0  0  0  0  0  0  0  0  0  0
   11.0175  -10.5654    0.0000 C   0  0  0  0  0  0  0  0  0  0  0  0
   11.4026    0.8372    0.0000 C   0  0  0  0  0  0  0  0  0  0  0  0
  2  6  1  0  0  0  0
  3  1  1  0  0  0  0
  4  1  2  0  0  0  0
  5  2  2  0  0  0  0
  6  8  1  0  0  0  0
  7  3  1  0  0  0  0
  8  7  1  0  0  0  0
  9 12  1  0  0  0  0
 10  1  1  0  0  0  0
 11  2  1  0  0  0  0
 12  7  1  0  0  0  0
 13 11  1  0  0  0  0
 14 10  1  0  0  0  0
 15 18  1  0  0  0  0
 16 17  1  0  0  0  0
 17 23  1  0  0  0  0
 18 35  1  0  0  0  0
 19 38  1  0  0  0  0
 20 19  1  0  0  0  0
 21 20  1  0  0  0  0
 22 21  1  0  0  0  0
 23 22  1  0  0  0  0
 24 14  1  0  0  0  0
 25 24  1  0  0  0  0
 26 13  1  0  0  0  0
 27 26  1  0  0  0  0
 28 27  1  0  0  0  0
 29 28  1  0  0  0  0
 30 29  1  0  0  0  0
 31 30  1  0  0  0  0
 32 31  1  0  0  0  0
 33 32  1  0  0  0  0
 34 33  1  0  0  0  0
 35 34  1  0  0  0  0
 36 25  1  0  0  0  0
 37 36  1  0  0  0  0
 38 37  1  0  0  0  0
 39 15  1  0  0  0  0
 40 16  1  0  0  0  0
M  END
>  <IDNUMBER>
F9995-2402

>  <Chemical_Name>
1-(hexadecanoyloxy)-3-hydroxypropan-2-yl hexadecanoate

>  <PriceCoeff>
1.00

>  <CAS>
40290-32-2

>  <MW>
568.92

>  <Description>
solid

>  <FSP3>
0.94

>  <clogP>
12.00

>  <TPSA>
72.83

>  <Acceptor>
5

>  <Donor>
1

>  <RotBonds>
34

>  <HAC>
40

>  <Collection>
General

>  <PPDS>
+

$$$$
F9995-2547
  Mrv2219 10102508112D          

 31 33  0  0  0  0            999 V2000
    8.9766   -8.4245    0.0000 C   0  0  0  0  0  0  0  0  0  0  0  0
    9.7731   -8.6352    0.0000 C   0  0  0  0  0  0  0  0  0  0  0  0
    6.9494   -6.4100    0.0000 C   0  0  0  0  0  0  0  0  0  0  0  0
    1.5930   -5.7230    0.0000 C   0  0  0  0  0  0  0  0  0  0  0  0
    0.7839   -5.5124    0.0000 C   0  0  0  0  0  0  0  0  0  0  0  0
    7.7502   -6.6249    0.0000 N   0  0  0  0  0  0  0  0  0  0  0  0
    2.1788   -5.1331    0.0000 C   0  0  0  0  0  0  0  0  0  0  0  0
    8.3907   -9.0145    0.0000 C   0  0  0  0  0  0  0  0  0  0  0  0
    6.7387   -5.6135    0.0000 N   0  0  0  0  0  0  0  0  0  0  0  0
    8.7574   -7.6321    0.0000 C   0  0  0  0  0  0  0  0  0  0  0  0
    1.8122   -6.5196    0.0000 N   0  0  0  0  0  0  0  0  0  0  0  0
    2.9754   -5.3480    0.0000 C   0  0  0  0  0  0  0  0  0  0  0  0
    7.9609   -7.4257    0.0000 C   0  0  0  0  0  0  0  0  0  0  0  0
    6.3678   -7.0000    0.0000 O   0  0  0  0  0  0  0  0  0  0  0  0
    0.1980   -6.1066    0.0000 O   0  0  0  0  0  0  0  0  0  0  0  0
    3.5569   -4.7622    0.0000 O   0  0  0  0  0  0  0  0  0  0  0  0
   10.4684   -8.1295    0.0000 F   0  0  0  0  0  0  0  0  0  0  0  0
   10.4980   -8.8248    0.0000 F   0  0  0  0  0  0  0  0  0  0  0  0
   10.1271   -9.4191    0.0000 F   0  0  0  0  0  0  0  0  0  0  0  0
    7.5942   -8.8038    0.0000 C   0  0  0  0  0  0  0  0  0  0  0  0
    5.9380   -5.4028    0.0000 C   0  0  0  0  0  0  0  0  0  0  0  0
    4.3534   -4.9771    0.0000 C   0  0  0  0  0  0  0  0  0  0  0  0
    0.5647   -4.7075    0.0000 O   0  0  0  0  0  0  0  0  0  0  0  0
    2.6045   -6.7261    0.0000 C   0  0  0  0  0  0  0  0  0  0  0  0
    7.3793   -8.0073    0.0000 C   0  0  0  0  0  0  0  0  0  0  0  0
    8.6057   -9.8110    0.0000 Cl  0  0  0  0  0  0  0  0  0  0  0  0
    3.1903   -6.1445    0.0000 C   0  0  0  0  0  0  0  0  0  0  0  0
    5.3564   -5.9885    0.0000 C   0  0  0  0  0  0  0  0  0  0  0  0
    5.7230   -4.6021    0.0000 C   0  0  0  0  0  0  0  0  0  0  0  0
    4.5641   -5.7736    0.0000 C   0  0  0  0  0  0  0  0  0  0  0  0
    4.9265   -4.3914    0.0000 C   0  0  0  0  0  0  0  0  0  0  0  0
  2  1  1  0  0  0  0
  3  6  1  0  0  0  0
  4  7  1  0  0  0  0
  5  4  1  0  0  0  0
  6 13  1  0  0  0  0
  7 12  2  0  0  0  0
  8  1  1  0  0  0  0
  9  3  1  0  0  0  0
 10  1  2  0  0  0  0
 11 24  1  0  0  0  0
 12 16  1  0  0  0  0
 13 10  1  0  0  0  0
 14  3  2  0  0  0  0
 15  5  2  0  0  0  0
 16 22  1  0  0  0  0
 17  2  1  0  0  0  0
 18  2  1  0  0  0  0
 19  2  1  0  0  0  0
 20  8  2  0  0  0  0
 21  9  1  0  0  0  0
 22 31  1  0  0  0  0
 23  5  1  0  0  0  0
 24 27  2  0  0  0  0
 25 13  2  0  0  0  0
 26  8  1  0  0  0  0
 27 12  1  0  0  0  0
 28 21  2  0  0  0  0
 29 21  1  0  0  0  0
 30 28  1  0  0  0  0
 31 29  2  0  0  0  0
 20 25  1  0  0  0  0
 30 22  2  0  0  0  0
 11  4  2  0  0  0  0
M  END
>  <IDNUMBER>
F9995-2547

>  <Chemical_Name>
4-[4-({[4-chloro-3-(trifluoromethyl)phenyl]carbamoyl}amino)phenoxy]pyridine-2-carboxylic acid

>  <PriceCoeff>
1.00

>  <CAS>
1012058-78-4

>  <MW>
451.79

>  <Description>
solid

>  <FSP3>
0.05

>  <clogP>
6.00

>  <TPSA>
100.55

>  <Acceptor>
5

>  <Donor>
3

>  <RotBonds>
5

>  <HAC>
31

>  <Collection>
General

>  <PPDS>
+

$$$$
F9995-2665
  Mrv2219 10102508112D          

 20 21  0  0  0  0            999 V2000
   -0.2289   -2.4802    0.0000 C   0  0  0  0  0  0  0  0  0  0  0  0
   -0.9571    2.0433    0.0000 C   0  0  0  0  0  0  0  0  0  0  0  0
   -0.2330   -0.0042    0.0000 C   0  0  0  0  0  0  0  0  0  0  0  0
   -0.9488   -0.4161    0.0000 C   0  0  0  0  0  0  0  0  0  0  0  0
   -0.2414    2.4636    0.0000 C   0  0  0  0  0  0  0  0  0  0  0  0
   -0.9446   -2.8921    0.0000 C   0  0  0  0  0  0  0  0  0  0  0  0
   -0.2289   -1.6521    0.0000 C   0  0  0  0  0  0  0  0  0  0  0  0
   -0.9488    1.2235    0.0000 C   0  0  0  0  0  0  0  0  0  0  0  0
   -0.2372    0.8198    0.0000 C   0  0  0  0  0  0  0  0  0  0  0  0
   -0.9446   -1.2401    0.0000 C   0  0  0  0  0  0  0  0  0  0  0  0
    0.4744    2.0517    0.0000 C   0  0  0  0  0  0  0  0  0  0  0  0
   -1.6562   -2.4802    0.0000 C   0  0  0  0  0  0  0  0  0  0  0  0
   -1.6562   -1.6521    0.0000 C   0  0  0  0  0  0  0  0  0  0  0  0
    0.4786    1.2318    0.0000 C   0  0  0  0  0  0  0  0  0  0  0  0
   -1.6729    2.4511    0.0000 O   0  0  0  0  0  0  0  0  0  0  0  0
    0.4869   -2.8921    0.0000 O   0  0  0  0  0  0  0  0  0  0  0  0
   -0.9446   -3.7161    0.0000 O   0  0  0  0  0  0  0  0  0  0  0  0
   -0.2455    3.2876    0.0000 O   0  0  0  0  0  0  0  0  0  0  0  0
   -2.3803    2.0350    0.0000 C   0  0  0  0  0  0  0  0  0  0  0  0
    1.1985   -2.4761    0.0000 C   0  0  0  0  0  0  0  0  0  0  0  0
  2  8  2  0  0  0  0
  3  4  2  0  0  0  0
  4 10  1  0  0  0  0
  5  2  1  0  0  0  0
  6  1  2  0  0  0  0
  7  1  1  0  0  0  0
  8  9  1  0  0  0  0
  9  3  1  0  0  0  0
 10  7  2  0  0  0  0
 11 14  1  0  0  0  0
 12  6  1  0  0  0  0
 13 10  1  0  0  0  0
 14  9  2  0  0  0  0
 15  2  1  0  0  0  0
 16  1  1  0  0  0  0
 17  6  1  0  0  0  0
 18  5  1  0  0  0  0
 19 15  1  0  0  0  0
 20 16  1  0  0  0  0
 12 13  2  0  0  0  0
  5 11  2  0  0  0  0
M  END
>  <IDNUMBER>
F9995-2665

>  <Chemical_Name>
4-[(1E)-2-(4-hydroxy-3-methoxyphenyl)ethenyl]-2-methoxyphenol

>  <PriceCoeff>
1.00

>  <CAS>
7329-69-3

>  <MW>
272.30

>  <Description>
solid

>  <FSP3>
0.13

>  <clogP>
3.39

>  <TPSA>
58.92

>  <Acceptor>
4

>  <Donor>
2

>  <RotBonds>
4

>  <HAC>
20

>  <Collection>
General

>  <PPDS>
+

$$$$
F9995-2667
  Mrv2219 10102508112D          

 18 20  0  0  0  0            999 V2000
    1.9990   -0.4706    0.0000 N   0  0  0  0  0  0  0  0  0  0  0  0
    1.2119   -0.7288    0.0000 C   0  0  0  0  0  0  0  0  0  0  0  0
    2.4905   -1.1369    0.0000 C   0  0  0  0  0  0  0  0  0  0  0  0
   -0.2082   -0.7413    0.0000 C   0  0  0  0  0  0  0  0  0  0  0  0
   -0.9245   -0.3331    0.0000 C   0  0  0  0  0  0  0  0  0  0  0  0
    1.2161   -1.5575    0.0000 C   0  0  0  0  0  0  0  0  0  0  0  0
    0.4956   -0.3248    0.0000 C   0  0  0  0  0  0  0  0  0  0  0  0
    2.0073   -1.8116    0.0000 C   0  0  0  0  0  0  0  0  0  0  0  0
    3.3151   -1.1327    0.0000 O   0  0  0  0  0  0  0  0  0  0  0  0
   -0.2082   -1.5659    0.0000 C   0  0  0  0  0  0  0  0  0  0  0  0
   -0.9287    0.4915    0.0000 O   0  0  0  0  0  0  0  0  0  0  0  0
    0.5040   -1.9740    0.0000 C   0  0  0  0  0  0  0  0  0  0  0  0
   -1.6367   -0.7496    0.0000 C   0  0  0  0  0  0  0  0  0  0  0  0
   -1.6367   -1.5784    0.0000 C   0  0  0  0  0  0  0  0  0  0  0  0
   -2.3530   -0.3373    0.0000 C   0  0  0  0  0  0  0  0  0  0  0  0
   -2.3530   -1.9907    0.0000 C   0  0  0  0  0  0  0  0  0  0  0  0
   -3.0652   -0.7496    0.0000 C   0  0  0  0  0  0  0  0  0  0  0  0
   -3.0652   -1.5784    0.0000 C   0  0  0  0  0  0  0  0  0  0  0  0
  2  1  1  0  0  0  0
  3  1  1  0  0  0  0
  4  7  1  0  0  0  0
  5  4  1  0  0  0  0
  6  2  1  0  0  0  0
  7  2  2  0  0  0  0
  8  3  1  0  0  0  0
  9  3  2  0  0  0  0
 10 12  1  0  0  0  0
 11  5  2  0  0  0  0
 12  6  2  0  0  0  0
 13  5  1  0  0  0  0
 14 13  1  0  0  0  0
 15 13  2  0  0  0  0
 16 14  2  0  0  0  0
 17 15  1  0  0  0  0
 18 17  2  0  0  0  0
  8  6  1  0  0  0  0
 10  4  2  0  0  0  0
 16 18  1  0  0  0  0
M  END
>  <IDNUMBER>
F9995-2667

>  <Chemical_Name>
6-benzoyl-2,3-dihydro-1H-indol-2-one

>  <PriceCoeff>
1.00

>  <CAS>
91713-63-2

>  <MW>
237.26

>  <Description>
solid

>  <FSP3>
0.07

>  <clogP>
2.53

>  <TPSA>
46.17

>  <Acceptor>
2

>  <Donor>
1

>  <RotBonds>
2

>  <HAC>
18

>  <Collection>
General

>  <PPDS>
+

$$$$
F9995-4161
  Mrv2219 10102508112D          

 17 18  0  0  0  0            999 V2000
    4.8042    0.1958    0.0000 C   0  0  0  0  0  0  0  0  0  0  0  0
    4.0917   -0.2208    0.0000 C   0  0  0  0  0  0  0  0  0  0  0  0
    3.3792    0.1833    0.0000 C   0  0  0  0  0  0  0  0  0  0  0  0
    4.8042    1.0208    0.0000 O   0  0  0  0  0  0  0  0  0  0  0  0
    2.6750   -0.2375    0.0000 C   0  0  0  0  0  0  0  0  0  0  0  0
    1.9542    0.1708    0.0000 O   0  0  0  0  0  0  0  0  0  0  0  0
    1.2417   -0.2417    0.0000 C   0  0  0  0  0  0  0  0  0  0  0  0
    5.5292   -0.2167    0.0000 O   0  0  0  0  0  0  0  0  0  0  0  0
   -0.1833   -1.0750    0.0000 C   0  0  0  0  0  0  0  0  0  0  0  0
    0.5292    0.1708    0.0000 C   0  0  0  0  0  0  0  0  0  0  0  0
    1.2417   -1.0750    0.0000 C   0  0  0  0  0  0  0  0  0  0  0  0
   -0.1833   -0.2500    0.0000 C   0  0  0  0  0  0  0  0  0  0  0  0
    0.5292   -1.4875    0.0000 C   0  0  0  0  0  0  0  0  0  0  0  0
    4.1042   -1.0542    0.0000 C   0  0  0  0  0  0  0  0  0  0  0  0
    3.3875   -1.4667    0.0000 C   0  0  0  0  0  0  0  0  0  0  0  0
    2.6750   -1.0625    0.0000 C   0  0  0  0  0  0  0  0  0  0  0  0
   -0.9000   -1.4875    0.0000 C   0  0  0  0  0  0  0  0  0  0  0  0
  2  1  1  0  0  0  0
  3  2  2  0  0  0  0
  4  1  2  0  0  0  0
  5  3  1  0  0  0  0
  6  5  1  0  0  0  0
  7  6  1  0  0  0  0
  8  1  1  0  0  0  0
  9 13  1  0  0  0  0
 10  7  2  0  0  0  0
 11  7  1  0  0  0  0
 12 10  1  0  0  0  0
 13 11  2  0  0  0  0
 14  2  1  0  0  0  0
 15 14  2  0  0  0  0
 16 15  1  0  0  0  0
 17  9  1  0  0  0  0
  5 16  2  0  0  0  0
 12  9  2  0  0  0  0
M  END
>  <IDNUMBER>
F9995-4161

>  <Chemical_Name>
3-(4-methylphenoxy)benzoic acid

>  <PriceCoeff>
1.00

>  <CAS>
62507-86-2

>  <MW>
228.25

>  <Description>
solid

>  <FSP3>
0.07

>  <clogP>
3.64

>  <TPSA>
46.53

>  <Acceptor>
3

>  <Donor>
0

>  <RotBonds>
3

>  <HAC>
17

>  <Collection>
General

$$$$
F9996-0151
  Mrv2219 10102508112D          

 12 11  0  0  0  0            999 V2000
   -1.4242   -0.1575    0.0000 C   0  0  0  0  0  0  0  0  0  0  0  0
   -3.5588   -0.5712    0.0000 C   0  0  0  0  0  0  0  0  0  0  0  0
   -2.1382   -0.5712    0.0000 N   0  0  0  0  0  0  0  0  0  0  0  0
   -0.7140   -0.5712    0.0000 O   0  0  0  0  0  0  0  0  0  0  0  0
   -1.4242    0.6701    0.0000 O   0  0  0  0  0  0  0  0  0  0  0  0
   -3.5588   -1.3876    0.0000 O   0  0  0  0  0  0  0  0  0  0  0  0
    0.0000   -0.1575    0.0000 C   0  0  0  0  0  0  0  0  0  0  0  0
   -2.8521   -0.1575    0.0000 C   0  0  0  0  0  0  0  0  0  0  0  0
   -4.2726   -0.1575    0.0000 N   0  0  0  0  0  0  0  0  0  0  0  0
    0.3076    0.6151    0.0000 C   0  0  0  0  0  0  0  0  0  0  0  0
   -0.3258    0.6005    0.0000 C   0  0  0  0  0  0  0  0  0  0  0  0
    0.7067   -0.5712    0.0000 C   0  0  0  0  0  0  0  0  0  0  0  0
  2  8  1  0  0  0  0
  3  1  1  0  0  0  0
  4  1  1  0  0  0  0
  5  1  2  0  0  0  0
  6  2  2  0  0  0  0
  7  4  1  0  0  0  0
  8  3  1  0  0  0  0
  9  2  1  0  0  0  0
 10  7  1  0  0  0  0
 11  7  1  0  0  0  0
 12  7  1  0  0  0  0
M  END
>  <IDNUMBER>
F9996-0151

>  <Chemical_Name>
tert-butyl N-(carbamoylmethyl)carbamate

>  <PriceCoeff>
1.50

>  <CAS>
35150-09-5

>  <MW>
174.20

>  <Description>
solid

>  <FSP3>
0.71

>  <clogP>
-0.05

>  <TPSA>
81.42

>  <Acceptor>
3

>  <Donor>
2

>  <RotBonds>
3

>  <HAC>
12

>  <Collection>
Advanced

>  <PPDS>
+

$$$$
