p ,p '-Dichlorobenzhydryl n-butyl ether
Actelion Java MolfileCreator 2.0

  0  0  0  0  0  0              0 V3000
M  V30 BEGIN CTAB
M  V30 COUNTS 1 0 0 0 0
M  V30 BEGIN ATOM
M  V30 1 P 0.0 0.0 0.0 0
M  V30 END ATOM
M  V30 BEGIN BOND
M  V30 END BOND
M  V30 END CTAB
M  END
>  <Molecule Name>
p ,p '-Dichlorobenzhydryl n-butyl ether

>  <Molecule Name 2>
p ,p '-Dichlorobenzhydryl n-butyl ether

>  <Activity>
0

$$$$
N-( n-Butoxyethoxyethoxypropyl)phtalimide
Actelion Java MolfileCreator 2.0

  0  0  0  0  0  0              0 V3000
M  V30 BEGIN CTAB
M  V30 COUNTS 1 0 0 0 0
M  V30 BEGIN ATOM
M  V30 1 N 0.0 0.0 0.0 0
M  V30 END ATOM
M  V30 BEGIN BOND
M  V30 END BOND
M  V30 END CTAB
M  END
>  <Molecule Name>
N-( n-Butoxyethoxyethoxypropyl)phtalimide

>  <Molecule Name 2>
N-( n-Butoxyethoxyethoxypropyl)phtalimide

>  <Activity>
0

$$$$
N , N-Di-n-butyltoluenesulfonamide
Actelion Java MolfileCreator 2.0

  0  0  0  0  0  0              0 V3000
M  V30 BEGIN CTAB
M  V30 COUNTS 1 0 0 0 0
M  V30 BEGIN ATOM
M  V30 1 N 0.0 0.0 0.0 0
M  V30 END ATOM
M  V30 BEGIN BOND
M  V30 END BOND
M  V30 END CTAB
M  END
>  <Molecule Name>
N , N-Di-n-butyltoluenesulfonamide

>  <Molecule Name 2>
N , N-Di-n-butyltoluenesulfonamide

>  <Activity>
0

$$$$
Span 80 (Sorbitan monooleate)
Actelion Java MolfileCreator 2.0

  0  0  0  0  0  0              0 V3000
M  V30 BEGIN CTAB
M  V30 COUNTS 4 3 0 0 0
M  V30 BEGIN ATOM
M  V30 1 S 0.0 0.0 0.0 0
M  V30 2 P -1.3004 -0.7475 0.0 0
M  V30 3 A -2.6009 0.0 0.0 0
M  V30 4 N -3.9014 -0.7475 0.0 0
M  V30 END ATOM
M  V30 BEGIN BOND
M  V30 1 1 1 2
M  V30 2 2 2 3 CFG=2
M  V30 3 1 3 4
M  V30 END BOND
M  V30 END CTAB
M  END
>  <Molecule Name>
Span 80 (Sorbitan monooleate)

>  <Molecule Name 2>
Span 80 (Sorbitan monooleate)

>  <Activity>
0

$$$$
Nitromethane
Actelion Java MolfileCreator 2.0

  0  0  0  0  0  0              0 V3000
M  V30 BEGIN CTAB
M  V30 COUNTS 4 3 0 0 0
M  V30 BEGIN ATOM
M  V30 1 O 0.0 0.0 0.0 0
M  V30 2 N -1.2991 0.744 0.0 0 CHG=1
M  V30 3 O -1.2991 2.2439 0.0 0 CHG=-1
M  V30 4 C -2.5982 -0.0118 0.0 0
M  V30 END ATOM
M  V30 BEGIN BOND
M  V30 1 2 1 2
M  V30 2 1 2 3
M  V30 3 1 2 4
M  V30 END BOND
M  V30 END CTAB
M  END
>  <Molecule Name>
Nitromethane

>  <Molecule Name 2>
Nitromethane

>  <Activity>
0

$$$$
Trimethylene glycol
Actelion Java MolfileCreator 2.0

  0  0  0  0  0  0              0 V3000
M  V30 BEGIN CTAB
M  V30 COUNTS 5 4 0 0 0
M  V30 BEGIN ATOM
M  V30 1 O 0.0 0.0 0.0 0
M  V30 2 C 1.3004 0.7475 0.0 0
M  V30 3 C 2.6009 0.0 0.0 0
M  V30 4 C 3.9014 0.7475 0.0 0
M  V30 5 O 5.2018 0.0 0.0 0
M  V30 END ATOM
M  V30 BEGIN BOND
M  V30 1 1 1 2
M  V30 2 1 2 3
M  V30 3 1 3 4
M  V30 4 1 4 5
M  V30 END BOND
M  V30 END CTAB
M  END
>  <Molecule Name>
Trimethylene glycol

>  <Molecule Name 2>
Trimethylene glycol

>  <Activity>
0

$$$$
Propylene glycol
Actelion Java MolfileCreator 2.0

  0  0  0  0  0  0              0 V3000
M  V30 BEGIN CTAB
M  V30 COUNTS 5 4 0 0 0
M  V30 BEGIN ATOM
M  V30 1 O 0.0 0.0 0.0 0
M  V30 2 C 0.0 1.5006 0.0 0 CFG=2
M  V30 3 C -1.2997 2.245 0.0 0
M  V30 4 C 1.2997 2.245 0.0 0
M  V30 5 O -2.5994 1.4888 0.0 0
M  V30 END ATOM
M  V30 BEGIN BOND
M  V30 1 1 2 1 CFG=3
M  V30 2 1 2 3
M  V30 3 1 2 4
M  V30 4 1 3 5
M  V30 END BOND
M  V30 BEGIN COLLECTION
M  V30 MDLV30/STERAC1 ATOMS=(1 2)
M  V30 END COLLECTION
M  V30 END CTAB
M  END
>  <Molecule Name>
Propylene glycol

>  <Molecule Name 2>
Propylene glycol

>  <Activity>
0

$$$$
n-Butyl alcohol
Actelion Java MolfileCreator 2.0

  0  0  0  0  0  0              0 V3000
M  V30 BEGIN CTAB
M  V30 COUNTS 5 4 0 0 0
M  V30 BEGIN ATOM
M  V30 1 O 0.0 0.0 0.0 0
M  V30 2 C 1.3004 0.7475 0.0 0
M  V30 3 C 2.6009 0.0 0.0 0
M  V30 4 C 3.9014 0.7475 0.0 0
M  V30 5 C 5.2018 0.0 0.0 0
M  V30 END ATOM
M  V30 BEGIN BOND
M  V30 1 1 1 2
M  V30 2 1 2 3
M  V30 3 1 3 4
M  V30 4 1 4 5
M  V30 END BOND
M  V30 END CTAB
M  END
>  <Molecule Name>
n-Butyl alcohol

>  <Molecule Name 2>
n-Butyl alcohol

>  <Activity>
0

$$$$
iso-Butyl alcohol
Actelion Java MolfileCreator 2.0

  0  0  0  0  0  0              0 V3000
M  V30 BEGIN CTAB
M  V30 COUNTS 5 4 0 0 0
M  V30 BEGIN ATOM
M  V30 1 O 0.0 0.0 0.0 0
M  V30 2 C 1.2997 0.7444 0.0 0
M  V30 3 C 2.5994 -0.0118 0.0 0
M  V30 4 C 3.8992 0.7325 0.0 0
M  V30 5 C 2.5994 -1.5124 0.0 0
M  V30 END ATOM
M  V30 BEGIN BOND
M  V30 1 1 1 2
M  V30 2 1 2 3
M  V30 3 1 3 4
M  V30 4 1 3 5
M  V30 END BOND
M  V30 END CTAB
M  END
>  <Molecule Name>
iso-Butyl alcohol

>  <Molecule Name 2>
iso-Butyl alcohol

>  <Activity>
0

$$$$
tert-butyl alcohol
Actelion Java MolfileCreator 2.0

  0  0  0  0  0  0              0 V3000
M  V30 BEGIN CTAB
M  V30 COUNTS 5 4 0 0 0
M  V30 BEGIN ATOM
M  V30 1 O 0.0 0.0 0.0 0
M  V30 2 C 1.2991 0.744 0.0 0
M  V30 3 C 2.5982 -0.0118 0.0 0
M  V30 4 C 1.2991 2.2439 0.0 0
M  V30 5 C 1.2991 -0.7558 0.0 0
M  V30 END ATOM
M  V30 BEGIN BOND
M  V30 1 1 1 2
M  V30 2 1 2 3
M  V30 3 1 2 4
M  V30 4 1 2 5
M  V30 END BOND
M  V30 END CTAB
M  END
>  <Molecule Name>
tert-butyl alcohol

>  <Molecule Name 2>
tert-butyl alcohol

>  <Activity>
0

$$$$
Nitroethane
Actelion Java MolfileCreator 2.0

  0  0  0  0  0  0              0 V3000
M  V30 BEGIN CTAB
M  V30 COUNTS 5 4 0 0 0
M  V30 BEGIN ATOM
M  V30 1 O 0.0 0.0 0.0 0
M  V30 2 N -1.2984 -0.7554 0.0 0 CHG=1
M  V30 3 O -1.2984 -2.2546 0.0 0 CHG=-1
M  V30 4 C -2.5969 -0.0118 0.0 0
M  V30 5 C -3.8954 -0.7672 0.0 0
M  V30 END ATOM
M  V30 BEGIN BOND
M  V30 1 2 1 2
M  V30 2 1 2 3
M  V30 3 1 2 4
M  V30 4 1 4 5
M  V30 END BOND
M  V30 END CTAB
M  END
>  <Molecule Name>
Nitroethane

>  <Molecule Name 2>
Nitroethane

>  <Activity>
0

$$$$
N,N-Dimethyl formamide
Actelion Java MolfileCreator 2.0

  0  0  0  0  0  0              0 V3000
M  V30 BEGIN CTAB
M  V30 COUNTS 5 4 0 0 0
M  V30 BEGIN ATOM
M  V30 1 O 0.0 0.0 0.0 0
M  V30 2 C -1.2984 -0.7554 0.0 0
M  V30 3 N -2.5969 -0.0118 0.0 0
M  V30 4 C -2.5969 1.4873 0.0 0
M  V30 5 C -3.8954 -0.7672 0.0 0
M  V30 END ATOM
M  V30 BEGIN BOND
M  V30 1 2 1 2
M  V30 2 1 2 3
M  V30 3 1 3 4
M  V30 4 1 3 5
M  V30 END BOND
M  V30 END CTAB
M  END
>  <Molecule Name>
N,N-Dimethyl formamide

>  <Molecule Name 2>
N,N-Dimethyl formamide

>  <Activity>
0

$$$$
Cyclopropyl nitrile
Actelion Java MolfileCreator 2.0

  0  0  0  0  0  0              0 V3000
M  V30 BEGIN CTAB
M  V30 COUNTS 5 5 0 0 0
M  V30 BEGIN ATOM
M  V30 1 N 0.0 0.0 0.0 0
M  V30 2 C 0.7552 -1.298 0.0 0
M  V30 3 C 1.5104 -2.5961 0.0 0
M  V30 4 C 1.5104 -4.0948 0.0 0
M  V30 5 C 2.8085 -3.3396 0.0 0
M  V30 END ATOM
M  V30 BEGIN BOND
M  V30 1 3 1 2
M  V30 2 1 2 3
M  V30 3 1 3 4
M  V30 4 1 3 5
M  V30 5 1 4 5
M  V30 END BOND
M  V30 END CTAB
M  END
>  <Molecule Name>
Cyclopropyl nitrile

>  <Molecule Name 2>
Cyclopropyl nitrile

>  <Activity>
0

$$$$
Benzene
Actelion Java MolfileCreator 2.0

  0  0  0  0  0  0              0 V3000
M  V30 BEGIN CTAB
M  V30 COUNTS 6 6 0 0 0
M  V30 BEGIN ATOM
M  V30 1 C 0.0 0.0 0.0 0
M  V30 2 C 0.0 -1.4998 0.0 0
M  V30 3 C 1.2991 0.744 0.0 0
M  V30 4 C 1.2991 -2.2557 0.0 0
M  V30 5 C 2.5982 0.0 0.0 0
M  V30 6 C 2.5982 -1.4998 0.0 0
M  V30 END ATOM
M  V30 BEGIN BOND
M  V30 1 2 1 2
M  V30 2 1 1 3
M  V30 3 1 2 4
M  V30 4 2 3 5
M  V30 5 2 4 6
M  V30 6 1 5 6
M  V30 END BOND
M  V30 END CTAB
M  END
>  <Molecule Name>
Benzene

>  <Molecule Name 2>
Benzene

>  <Activity>
0

$$$$
Cyclohexene
Actelion Java MolfileCreator 2.0

  0  0  0  0  0  0              0 V3000
M  V30 BEGIN CTAB
M  V30 COUNTS 6 6 0 0 0
M  V30 BEGIN ATOM
M  V30 1 C 0.0 0.0 0.0 0
M  V30 2 C 0.0 1.4998 0.0 0
M  V30 3 C 1.2991 -0.7558 0.0 0
M  V30 4 C 1.2991 2.2439 0.0 0
M  V30 5 C 2.5982 0.0 0.0 0
M  V30 6 C 2.5982 1.4998 0.0 0
M  V30 END ATOM
M  V30 BEGIN BOND
M  V30 1 2 1 2
M  V30 2 1 1 3
M  V30 3 1 2 4
M  V30 4 1 3 5
M  V30 5 1 4 6
M  V30 6 1 5 6
M  V30 END BOND
M  V30 END CTAB
M  END
>  <Molecule Name>
Cyclohexene

>  <Molecule Name 2>
Cyclohexene

>  <Activity>
0

$$$$
cyclohexane
Actelion Java MolfileCreator 2.0

  0  0  0  0  0  0              0 V3000
M  V30 BEGIN CTAB
M  V30 COUNTS 6 6 0 0 0
M  V30 BEGIN ATOM
M  V30 1 C 0.0 0.0 0.0 0
M  V30 2 C 0.0 -1.4998 0.0 0
M  V30 3 C 1.2991 0.744 0.0 0
M  V30 4 C 1.2991 -2.2557 0.0 0
M  V30 5 C 2.5982 0.0 0.0 0
M  V30 6 C 2.5982 -1.4998 0.0 0
M  V30 END ATOM
M  V30 BEGIN BOND
M  V30 1 1 1 2
M  V30 2 1 1 3
M  V30 3 1 2 4
M  V30 4 1 3 5
M  V30 5 1 4 6
M  V30 6 1 5 6
M  V30 END BOND
M  V30 END CTAB
M  END
>  <Molecule Name>
cyclohexane

>  <Molecule Name 2>
cyclohexane

>  <Activity>
0

$$$$
gamma-Butyrolactone
Actelion Java MolfileCreator 2.0

  0  0  0  0  0  0              0 V3000
M  V30 BEGIN CTAB
M  V30 COUNTS 6 6 0 0 0
M  V30 BEGIN ATOM
M  V30 1 O 0.0 0.0 0.0 0
M  V30 2 C 1.3019 0.7506 0.0 0
M  V30 3 O 1.4544 2.2402 0.0 0
M  V30 4 C 2.6742 0.1407 0.0 0
M  V30 5 C 2.9205 2.5569 0.0 0
M  V30 6 C 3.6712 1.255 0.0 0
M  V30 END ATOM
M  V30 BEGIN BOND
M  V30 1 2 1 2
M  V30 2 1 2 3
M  V30 3 1 2 4
M  V30 4 1 3 5
M  V30 5 1 4 6
M  V30 6 1 5 6
M  V30 END BOND
M  V30 END CTAB
M  END
>  <Molecule Name>
gamma-Butyrolactone

>  <Molecule Name 2>
gamma-Butyrolactone

>  <Activity>
0

$$$$
1,4-Dioxane
Actelion Java MolfileCreator 2.0

  0  0  0  0  0  0              0 V3000
M  V30 BEGIN CTAB
M  V30 COUNTS 6 6 0 0 0
M  V30 BEGIN ATOM
M  V30 1 O 0.0 0.0 0.0 0
M  V30 2 C 0.0 -1.4998 0.0 0
M  V30 3 C 1.2991 0.744 0.0 0
M  V30 4 C 1.2991 -2.2557 0.0 0
M  V30 5 C 2.5982 0.0 0.0 0
M  V30 6 O 2.5982 -1.4998 0.0 0
M  V30 END ATOM
M  V30 BEGIN BOND
M  V30 1 1 1 2
M  V30 2 1 1 3
M  V30 3 1 2 4
M  V30 4 1 3 5
M  V30 5 1 4 6
M  V30 6 1 5 6
M  V30 END BOND
M  V30 END CTAB
M  END
>  <Molecule Name>
1,4-Dioxane

>  <Molecule Name 2>
1,4-Dioxane

>  <Activity>
0

$$$$
beta-Methylepichlorohydrin
Actelion Java MolfileCreator 2.0

  0  0  0  0  0  0              0 V3000
M  V30 BEGIN CTAB
M  V30 COUNTS 6 6 0 0 0
M  V30 BEGIN ATOM
M  V30 1 Cl 0.0 0.0 0.0 0
M  V30 2 C -1.2986 0.7437 0.0 0
M  V30 3 C -2.5972 -0.0118 0.0 0
M  V30 4 O -4.0966 -0.0118 0.0 0
M  V30 5 C -3.341 -1.3104 0.0 0
M  V30 6 C -1.5347 -1.0743 0.0 0
M  V30 END ATOM
M  V30 BEGIN BOND
M  V30 1 1 1 2
M  V30 2 1 2 3
M  V30 3 1 3 4
M  V30 4 1 3 5
M  V30 5 1 3 6
M  V30 6 1 4 5
M  V30 END BOND
M  V30 END CTAB
M  END
>  <Molecule Name>
beta-Methylepichlorohydrin

>  <Molecule Name 2>
beta-Methylepichlorohydrin

>  <Activity>
0

$$$$
1,2-Butanediol
Actelion Java MolfileCreator 2.0

  0  0  0  0  0  0              0 V3000
M  V30 BEGIN CTAB
M  V30 COUNTS 6 5 0 0 0
M  V30 BEGIN ATOM
M  V30 1 O 0.0 0.0 0.0 0
M  V30 2 C 0.0 1.4998 0.0 0 CFG=2
M  V30 3 C -1.2991 2.2439 0.0 0
M  V30 4 C 1.2991 2.2439 0.0 0
M  V30 5 O -2.5982 1.488 0.0 0
M  V30 6 C 2.5982 1.488 0.0 0
M  V30 END ATOM
M  V30 BEGIN BOND
M  V30 1 1 2 1 CFG=3
M  V30 2 1 2 3
M  V30 3 1 2 4
M  V30 4 1 3 5
M  V30 5 1 4 6
M  V30 END BOND
M  V30 BEGIN COLLECTION
M  V30 MDLV30/STERAC1 ATOMS=(1 2)
M  V30 END COLLECTION
M  V30 END CTAB
M  END
>  <Molecule Name>
1,2-Butanediol

>  <Molecule Name 2>
1,2-Butanediol

>  <Activity>
0

$$$$
Acetylmethylcarbinol
Actelion Java MolfileCreator 2.0

  0  0  0  0  0  0              0 V3000
M  V30 BEGIN CTAB
M  V30 COUNTS 6 5 0 0 0
M  V30 BEGIN ATOM
M  V30 1 O 0.0 0.0 0.0 0
M  V30 2 C 0.0 1.5004 0.0 0
M  V30 3 C -1.2996 2.2448 0.0 0 CFG=1
M  V30 4 C 1.2996 2.2448 0.0 0
M  V30 5 O -1.2996 3.7453 0.0 0
M  V30 6 C -2.5992 1.4886 0.0 0
M  V30 END ATOM
M  V30 BEGIN BOND
M  V30 1 2 1 2
M  V30 2 1 2 3
M  V30 3 1 2 4
M  V30 4 1 3 5 CFG=3
M  V30 5 1 3 6
M  V30 END BOND
M  V30 BEGIN COLLECTION
M  V30 MDLV30/STERAC1 ATOMS=(1 3)
M  V30 END COLLECTION
M  V30 END CTAB
M  END
>  <Molecule Name>
Acetylmethylcarbinol

>  <Molecule Name 2>
Acetylmethylcarbinol

>  <Activity>
0

$$$$
2-Butene-1,4-diol
Actelion Java MolfileCreator 2.0

  0  0  0  0  0  0              0 V3000
M  V30 BEGIN CTAB
M  V30 COUNTS 6 5 0 0 0
M  V30 BEGIN ATOM
M  V30 1 O 0.0 0.0 0.0 0
M  V30 2 C 1.3004 0.7475 0.0 0
M  V30 3 C 2.6009 0.0 0.0 0
M  V30 4 C 3.9014 0.7475 0.0 0
M  V30 5 C 5.2018 0.0 0.0 0
M  V30 6 O 6.5023 0.7475 0.0 0
M  V30 END ATOM
M  V30 BEGIN BOND
M  V30 1 1 1 2
M  V30 2 1 2 3
M  V30 3 2 3 4 CFG=2
M  V30 4 1 4 5
M  V30 5 1 5 6
M  V30 END BOND
M  V30 END CTAB
M  END
>  <Molecule Name>
2-Butene-1,4-diol

>  <Molecule Name 2>
2-Butene-1,4-diol

>  <Activity>
0

$$$$
1-Butene-3,4-diol
Actelion Java MolfileCreator 2.0

  0  0  0  0  0  0              0 V3000
M  V30 BEGIN CTAB
M  V30 COUNTS 6 5 0 0 0
M  V30 BEGIN ATOM
M  V30 1 O 0.0 0.0 0.0 0
M  V30 2 C 0.0 1.4998 0.0 0 CFG=2
M  V30 3 C 1.2991 2.2439 0.0 0
M  V30 4 C -1.2991 2.2439 0.0 0
M  V30 5 C 2.5982 1.488 0.0 0
M  V30 6 O -2.5982 1.488 0.0 0
M  V30 END ATOM
M  V30 BEGIN BOND
M  V30 1 1 2 1 CFG=1
M  V30 2 1 2 3
M  V30 3 1 2 4
M  V30 4 2 3 5
M  V30 5 1 4 6
M  V30 END BOND
M  V30 BEGIN COLLECTION
M  V30 MDLV30/STERAC1 ATOMS=(1 2)
M  V30 END COLLECTION
M  V30 END CTAB
M  END
>  <Molecule Name>
1-Butene-3,4-diol

>  <Molecule Name 2>
1-Butene-3,4-diol

>  <Activity>
0

$$$$
1,3-Butyleneglycol
Actelion Java MolfileCreator 2.0

  0  0  0  0  0  0              0 V3000
M  V30 BEGIN CTAB
M  V30 COUNTS 6 5 0 0 0
M  V30 BEGIN ATOM
M  V30 1 O 0.0 0.0 0.0 0
M  V30 2 C 0.0 -1.4986 0.0 0 CFG=2
M  V30 3 C -1.298 -2.2539 0.0 0
M  V30 4 C 1.298 -2.2539 0.0 0
M  V30 5 C -2.5961 -1.5104 0.0 0
M  V30 6 O -3.8942 -2.2657 0.0 0
M  V30 END ATOM
M  V30 BEGIN BOND
M  V30 1 1 2 1 CFG=1
M  V30 2 1 2 3
M  V30 3 1 2 4
M  V30 4 1 3 5
M  V30 5 1 5 6
M  V30 END BOND
M  V30 BEGIN COLLECTION
M  V30 MDLV30/STERAC1 ATOMS=(1 2)
M  V30 END COLLECTION
M  V30 END CTAB
M  END
>  <Molecule Name>
1,3-Butyleneglycol

>  <Molecule Name 2>
1,3-Butyleneglycol

>  <Activity>
0

$$$$
n-Amyl alcohol
Actelion Java MolfileCreator 2.0

  0  0  0  0  0  0              0 V3000
M  V30 BEGIN CTAB
M  V30 COUNTS 6 5 0 0 0
M  V30 BEGIN ATOM
M  V30 1 O 0.0 0.0 0.0 0
M  V30 2 C 1.3004 0.7475 0.0 0
M  V30 3 C 2.6009 0.0 0.0 0
M  V30 4 C 3.9014 0.7475 0.0 0
M  V30 5 C 5.2018 0.0 0.0 0
M  V30 6 C 6.5023 0.7475 0.0 0
M  V30 END ATOM
M  V30 BEGIN BOND
M  V30 1 1 1 2
M  V30 2 1 2 3
M  V30 3 1 3 4
M  V30 4 1 4 5
M  V30 5 1 5 6
M  V30 END BOND
M  V30 END CTAB
M  END
>  <Molecule Name>
n-Amyl alcohol

>  <Molecule Name 2>
n-Amyl alcohol

>  <Activity>
0

$$$$
Glycerine
Actelion Java MolfileCreator 2.0

  0  0  0  0  0  0              0 V3000
M  V30 BEGIN CTAB
M  V30 COUNTS 6 5 0 0 0
M  V30 BEGIN ATOM
M  V30 1 O 0.0 0.0 0.0 0
M  V30 2 C 0.0 1.4998 0.0 0
M  V30 3 C 1.2991 2.2439 0.0 0
M  V30 4 C -1.2991 2.2439 0.0 0
M  V30 5 O 2.5982 1.488 0.0 0
M  V30 6 O -2.5982 1.488 0.0 0
M  V30 END ATOM
M  V30 BEGIN BOND
M  V30 1 1 1 2
M  V30 2 1 2 3
M  V30 3 1 2 4
M  V30 4 1 3 5
M  V30 5 1 4 6
M  V30 END BOND
M  V30 END CTAB
M  END
>  <Molecule Name>
Glycerine

>  <Molecule Name 2>
Glycerine

>  <Activity>
0

$$$$
Dimethyl sulfite
Actelion Java MolfileCreator 2.0

  0  0  0  0  0  0              0 V3000
M  V30 BEGIN CTAB
M  V30 COUNTS 6 5 0 0 0
M  V30 BEGIN ATOM
M  V30 1 S 0.0 0.0 0.0 0
M  V30 2 O 0.0 -1.4998 0.0 0
M  V30 3 O 1.2991 0.744 0.0 0
M  V30 4 O -1.2991 0.744 0.0 0
M  V30 5 C 2.5982 -0.0118 0.0 0
M  V30 6 C -2.5982 -0.0118 0.0 0
M  V30 END ATOM
M  V30 BEGIN BOND
M  V30 1 2 1 2
M  V30 2 1 1 3
M  V30 3 1 1 4
M  V30 4 1 3 5
M  V30 5 1 4 6
M  V30 END BOND
M  V30 END CTAB
M  END
>  <Molecule Name>
Dimethyl sulfite

>  <Molecule Name 2>
Dimethyl sulfite

>  <Activity>
0

$$$$
2-Nitropropane
Actelion Java MolfileCreator 2.0

  0  0  0  0  0  0              0 V3000
M  V30 BEGIN CTAB
M  V30 COUNTS 6 5 0 0 0
M  V30 BEGIN ATOM
M  V30 1 O 0.0 0.0 0.0 0
M  V30 2 N -1.2986 -0.7555 0.0 0 CHG=1
M  V30 3 O -1.2986 -2.2548 0.0 0 CHG=-1
M  V30 4 C -2.5972 -0.0118 0.0 0
M  V30 5 C -2.5972 1.4875 0.0 0
M  V30 6 C -3.8958 -0.7673 0.0 0
M  V30 END ATOM
M  V30 BEGIN BOND
M  V30 1 2 1 2
M  V30 2 1 2 3
M  V30 3 1 2 4
M  V30 4 1 4 5
M  V30 5 1 4 6
M  V30 END BOND
M  V30 END CTAB
M  END
>  <Molecule Name>
2-Nitropropane

>  <Molecule Name 2>
2-Nitropropane

>  <Activity>
0

$$$$
N-Methyl propionamide
Actelion Java MolfileCreator 2.0

  0  0  0  0  0  0              0 V3000
M  V30 BEGIN CTAB
M  V30 COUNTS 6 5 0 0 0
M  V30 BEGIN ATOM
M  V30 1 O 0.0 0.0 0.0 0
M  V30 2 C 0.0 1.4998 0.0 0
M  V30 3 N -1.2991 2.2439 0.0 0
M  V30 4 C 1.2991 2.2439 0.0 0
M  V30 5 C -2.5982 1.488 0.0 0
M  V30 6 C 2.5982 1.488 0.0 0
M  V30 END ATOM
M  V30 BEGIN BOND
M  V30 1 2 1 2
M  V30 2 1 2 3
M  V30 3 1 2 4
M  V30 4 1 3 5
M  V30 5 1 4 6
M  V30 END BOND
M  V30 END CTAB
M  END
>  <Molecule Name>
N-Methyl propionamide

>  <Molecule Name 2>
N-Methyl propionamide

>  <Activity>
0

$$$$
N-Ethylacetamide
Actelion Java MolfileCreator 2.0

  0  0  0  0  0  0              0 V3000
M  V30 BEGIN CTAB
M  V30 COUNTS 6 5 0 0 0
M  V30 BEGIN ATOM
M  V30 1 O 0.0 0.0 0.0 0
M  V30 2 C 1.2991 0.744 0.0 0
M  V30 3 N 2.5982 -0.0118 0.0 0
M  V30 4 C 1.2991 2.2439 0.0 0
M  V30 5 C 3.8973 0.7322 0.0 0
M  V30 6 C 5.1964 -0.0236 0.0 0
M  V30 END ATOM
M  V30 BEGIN BOND
M  V30 1 2 1 2
M  V30 2 1 2 3
M  V30 3 1 2 4
M  V30 4 1 3 5
M  V30 5 1 5 6
M  V30 END BOND
M  V30 END CTAB
M  END
>  <Molecule Name>
N-Ethylacetamide

>  <Molecule Name 2>
N-Ethylacetamide

>  <Activity>
0

$$$$
Butyraldehyde oxime
Actelion Java MolfileCreator 2.0

  0  0  0  0  0  0              0 V3000
M  V30 BEGIN CTAB
M  V30 COUNTS 6 5 0 0 0
M  V30 BEGIN ATOM
M  V30 1 O 0.0 0.0 0.0 0
M  V30 2 N 1.3004 0.7475 0.0 0
M  V30 3 C 2.6009 0.0 0.0 0
M  V30 4 C 3.9014 0.7475 0.0 0
M  V30 5 C 5.2018 0.0 0.0 0
M  V30 6 C 6.5023 0.7475 0.0 0
M  V30 END ATOM
M  V30 BEGIN BOND
M  V30 1 1 1 2
M  V30 2 2 2 3 CFG=2
M  V30 3 1 3 4
M  V30 4 1 4 5
M  V30 5 1 5 6
M  V30 END BOND
M  V30 END CTAB
M  END
>  <Molecule Name>
Butyraldehyde oxime

>  <Molecule Name 2>
Butyraldehyde oxime

>  <Activity>
0

$$$$
Acetone cyanohydrin
Actelion Java MolfileCreator 2.0

  0  0  0  0  0  0              0 V3000
M  V30 BEGIN CTAB
M  V30 COUNTS 6 5 0 0 0
M  V30 BEGIN ATOM
M  V30 1 O 0.0 0.0 0.0 0
M  V30 2 C 0.0 1.5 0.0 0
M  V30 3 C 0.0 3.0 0.0 0
M  V30 4 C 1.5 1.5 0.0 0
M  V30 5 C -1.5 1.5 0.0 0
M  V30 6 N 0.0 4.5 0.0 0
M  V30 END ATOM
M  V30 BEGIN BOND
M  V30 1 1 1 2
M  V30 2 1 2 3
M  V30 3 1 2 4
M  V30 4 1 2 5
M  V30 5 3 3 6
M  V30 END BOND
M  V30 END CTAB
M  END
>  <Molecule Name>
Acetone cyanohydrin

>  <Molecule Name 2>
Acetone cyanohydrin

>  <Activity>
0

$$$$
Crotonic acid, methyl ester
Actelion Java MolfileCreator 2.0

  0  0  0  0  0  0              0 V3000
M  V30 BEGIN CTAB
M  V30 COUNTS 7 6 0 0 0
M  V30 BEGIN ATOM
M  V30 1 O 0.0 0.0 0.0 0
M  V30 2 C 0.0 1.5003 0.0 0
M  V30 3 O -1.2995 2.2446 0.0 0
M  V30 4 C 1.2995 2.2446 0.0 0
M  V30 5 C -2.599 1.4885 0.0 0
M  V30 6 C 2.599 1.4885 0.0 0
M  V30 7 C 3.8985 2.2328 0.0 0
M  V30 END ATOM
M  V30 BEGIN BOND
M  V30 1 2 1 2
M  V30 2 1 2 3
M  V30 3 1 2 4
M  V30 4 1 3 5
M  V30 5 2 4 6
M  V30 6 1 6 7
M  V30 END BOND
M  V30 END CTAB
M  END
>  <Molecule Name>
Crotonic acid, methyl ester

>  <Molecule Name 2>
Crotonic acid, methyl ester

>  <Activity>
0

$$$$
n-Butyric acid, methyl ester
Actelion Java MolfileCreator 2.0

  0  0  0  0  0  0              0 V3000
M  V30 BEGIN CTAB
M  V30 COUNTS 7 6 0 0 0
M  V30 BEGIN ATOM
M  V30 1 O 0.0 0.0 0.0 0
M  V30 2 C 0.0 1.5003 0.0 0
M  V30 3 O -1.2995 2.2446 0.0 0
M  V30 4 C 1.2995 2.2446 0.0 0
M  V30 5 C -2.599 1.4885 0.0 0
M  V30 6 C 2.599 1.4885 0.0 0
M  V30 7 C 3.8985 2.2328 0.0 0
M  V30 END ATOM
M  V30 BEGIN BOND
M  V30 1 2 1 2
M  V30 2 1 2 3
M  V30 3 1 2 4
M  V30 4 1 3 5
M  V30 5 1 4 6
M  V30 6 1 6 7
M  V30 END BOND
M  V30 END CTAB
M  END
>  <Molecule Name>
n-Butyric acid, methyl ester

>  <Molecule Name 2>
n-Butyric acid, methyl ester

>  <Activity>
0

$$$$
1-Hydroxy-2-methyl-3-butanone
Actelion Java MolfileCreator 2.0

  0  0  0  0  0  0              0 V3000
M  V30 BEGIN CTAB
M  V30 COUNTS 7 6 0 0 0
M  V30 BEGIN ATOM
M  V30 1 O 0.0 0.0 0.0 0
M  V30 2 C 1.2991 0.744 0.0 0
M  V30 3 C 2.5982 -0.0118 0.0 0 CFG=2
M  V30 4 C 1.2991 2.2439 0.0 0
M  V30 5 C 3.8973 0.7322 0.0 0
M  V30 6 C 2.5982 -1.5117 0.0 0
M  V30 7 O 5.1964 -0.0236 0.0 0
M  V30 END ATOM
M  V30 BEGIN BOND
M  V30 1 2 1 2
M  V30 2 1 2 3
M  V30 3 1 2 4
M  V30 4 1 3 5
M  V30 5 1 3 6 CFG=3
M  V30 6 1 5 7
M  V30 END BOND
M  V30 BEGIN COLLECTION
M  V30 MDLV30/STERAC1 ATOMS=(1 3)
M  V30 END COLLECTION
M  V30 END CTAB
M  END
>  <Molecule Name>
1-Hydroxy-2-methyl-3-butanone

>  <Molecule Name 2>
1-Hydroxy-2-methyl-3-butanone

>  <Activity>
0

$$$$
1,4-pentanediol
Actelion Java MolfileCreator 2.0

  0  0  0  0  0  0              0 V3000
M  V30 BEGIN CTAB
M  V30 COUNTS 7 6 0 0 0
M  V30 BEGIN ATOM
M  V30 1 O 0.0 0.0 0.0 0
M  V30 2 C 0.0 1.5003 0.0 0 CFG=2
M  V30 3 C -1.2995 2.2446 0.0 0
M  V30 4 C 1.2995 2.2446 0.0 0
M  V30 5 C -2.599 1.4885 0.0 0
M  V30 6 C -3.8985 2.2328 0.0 0
M  V30 7 O -5.198 1.4767 0.0 0
M  V30 END ATOM
M  V30 BEGIN BOND
M  V30 1 1 2 1 CFG=3
M  V30 2 1 2 3
M  V30 3 1 2 4
M  V30 4 1 3 5
M  V30 5 1 5 6
M  V30 6 1 6 7
M  V30 END BOND
M  V30 BEGIN COLLECTION
M  V30 MDLV30/STERAC1 ATOMS=(1 2)
M  V30 END COLLECTION
M  V30 END CTAB
M  END
>  <Molecule Name>
1,4-pentanediol

>  <Molecule Name 2>
1,4-pentanediol

>  <Activity>
0

$$$$
beta-iso-Propoxyethanol
Actelion Java MolfileCreator 2.0

  0  0  0  0  0  0              0 V3000
M  V30 BEGIN CTAB
M  V30 COUNTS 7 6 0 0 0
M  V30 BEGIN ATOM
M  V30 1 O 0.0 0.0 0.0 0
M  V30 2 C 1.2986 -0.7555 0.0 0
M  V30 3 C -1.2986 -0.7555 0.0 0
M  V30 4 C 2.5973 -0.0118 0.0 0
M  V30 5 C 1.2986 -2.2549 0.0 0
M  V30 6 C -2.5973 -0.0118 0.0 0
M  V30 7 O -3.896 -0.7673 0.0 0
M  V30 END ATOM
M  V30 BEGIN BOND
M  V30 1 1 1 2
M  V30 2 1 1 3
M  V30 3 1 2 4
M  V30 4 1 2 5
M  V30 5 1 3 6
M  V30 6 1 6 7
M  V30 END BOND
M  V30 END CTAB
M  END
>  <Molecule Name>
beta-iso-Propoxyethanol

>  <Molecule Name 2>
beta-iso-Propoxyethanol

>  <Activity>
0

$$$$
Acetylacetone
Actelion Java MolfileCreator 2.0

  0  0  0  0  0  0              0 V3000
M  V30 BEGIN CTAB
M  V30 COUNTS 7 6 0 0 0
M  V30 BEGIN ATOM
M  V30 1 O 0.0 0.0 0.0 0
M  V30 2 C 0.0 -1.4989 0.0 0
M  V30 3 C -1.2982 -2.2542 0.0 0
M  V30 4 C 1.2982 -2.2542 0.0 0
M  V30 5 C -2.5965 -1.5107 0.0 0
M  V30 6 O -3.8948 -2.266 0.0 0
M  V30 7 C -2.5965 -0.0118 0.0 0
M  V30 END ATOM
M  V30 BEGIN BOND
M  V30 1 2 1 2
M  V30 2 1 2 3
M  V30 3 1 2 4
M  V30 4 1 3 5
M  V30 5 2 5 6
M  V30 6 1 5 7
M  V30 END BOND
M  V30 END CTAB
M  END
>  <Molecule Name>
Acetylacetone

>  <Molecule Name 2>
Acetylacetone

>  <Activity>
0

$$$$
2,4-Pentanediol
Actelion Java MolfileCreator 2.0

  0  0  0  0  0  0              0 V3000
M  V30 BEGIN CTAB
M  V30 COUNTS 7 6 0 0 0
M  V30 BEGIN ATOM
M  V30 1 O 0.0 0.0 0.0 0
M  V30 2 C 0.0 -1.4989 0.0 0
M  V30 3 C -1.2982 -2.2542 0.0 0
M  V30 4 C 1.2982 -2.2542 0.0 0
M  V30 5 C -2.5965 -1.5107 0.0 0
M  V30 6 O -3.8948 -2.266 0.0 0
M  V30 7 C -2.5965 -0.0118 0.0 0
M  V30 END ATOM
M  V30 BEGIN BOND
M  V30 1 1 1 2
M  V30 2 1 2 3
M  V30 3 1 2 4
M  V30 4 1 3 5
M  V30 5 1 5 6
M  V30 6 1 5 7
M  V30 END BOND
M  V30 END CTAB
M  END
>  <Molecule Name>
2,4-Pentanediol

>  <Molecule Name 2>
2,4-Pentanediol

>  <Activity>
0

$$$$
Pinacolone
Actelion Java MolfileCreator 2.0

  0  0  0  0  0  0              0 V3000
M  V30 BEGIN CTAB
M  V30 COUNTS 7 6 0 0 0
M  V30 BEGIN ATOM
M  V30 1 O 0.0 0.0 0.0 0
M  V30 2 C 1.2991 0.744 0.0 0
M  V30 3 C 1.2991 2.244 0.0 0
M  V30 4 C 2.5983 -0.0118 0.0 0
M  V30 5 C -0.2007 2.244 0.0 0
M  V30 6 C 1.2991 3.7439 0.0 0
M  V30 7 C 2.7991 2.244 0.0 0
M  V30 END ATOM
M  V30 BEGIN BOND
M  V30 1 2 1 2
M  V30 2 1 2 3
M  V30 3 1 2 4
M  V30 4 1 3 5
M  V30 5 1 3 6
M  V30 6 1 3 7
M  V30 END BOND
M  V30 END CTAB
M  END
>  <Molecule Name>
Pinacolone

>  <Molecule Name 2>
Pinacolone

>  <Activity>
0

$$$$
Methyl iso-butyl ketone
Actelion Java MolfileCreator 2.0

  0  0  0  0  0  0              0 V3000
M  V30 BEGIN CTAB
M  V30 COUNTS 7 6 0 0 0
M  V30 BEGIN ATOM
M  V30 1 O 0.0 0.0 0.0 0
M  V30 2 C 0.0 -1.4989 0.0 0
M  V30 3 C 1.2982 -2.2542 0.0 0
M  V30 4 C -1.2982 -2.2542 0.0 0
M  V30 5 C 2.5965 -1.5107 0.0 0
M  V30 6 C 3.8948 -2.266 0.0 0
M  V30 7 C 2.5965 -0.0118 0.0 0
M  V30 END ATOM
M  V30 BEGIN BOND
M  V30 1 2 1 2
M  V30 2 1 2 3
M  V30 3 1 2 4
M  V30 4 1 3 5
M  V30 5 1 5 6
M  V30 6 1 5 7
M  V30 END BOND
M  V30 END CTAB
M  END
>  <Molecule Name>
Methyl iso-butyl ketone

>  <Molecule Name 2>
Methyl iso-butyl ketone

>  <Activity>
0

$$$$
Diallyl ether
Actelion Java MolfileCreator 2.0

  0  0  0  0  0  0              0 V3000
M  V30 BEGIN CTAB
M  V30 COUNTS 7 6 0 0 0
M  V30 BEGIN ATOM
M  V30 1 O 0.0 0.0 0.0 0
M  V30 2 C 1.3004 -0.7475 0.0 0
M  V30 3 C -1.3004 -0.7475 0.0 0
M  V30 4 C 2.6009 0.0 0.0 0
M  V30 5 C -2.6009 0.0 0.0 0
M  V30 6 C 3.9014 -0.7475 0.0 0
M  V30 7 C -3.9014 -0.7475 0.0 0
M  V30 END ATOM
M  V30 BEGIN BOND
M  V30 1 1 1 2
M  V30 2 1 1 3
M  V30 3 1 2 4
M  V30 4 1 3 5
M  V30 5 2 4 6
M  V30 6 2 5 7
M  V30 END BOND
M  V30 END CTAB
M  END
>  <Molecule Name>
Diallyl ether

>  <Molecule Name 2>
Diallyl ether

>  <Activity>
0

$$$$
Methyl tert-amyl ether
Actelion Java MolfileCreator 2.0

  0  0  0  0  0  0              0 V3000
M  V30 BEGIN CTAB
M  V30 COUNTS 7 6 0 0 0
M  V30 BEGIN ATOM
M  V30 1 O 0.0 0.0 0.0 0
M  V30 2 C 1.3004 -0.7475 0.0 0
M  V30 3 C -1.3004 -0.7475 0.0 0
M  V30 4 C 2.6009 0.0 0.0 0
M  V30 5 C 0.5529 -2.0479 0.0 0
M  V30 6 C 2.0479 -2.0479 0.0 0
M  V30 7 C 3.9014 -0.7475 0.0 0
M  V30 END ATOM
M  V30 BEGIN BOND
M  V30 1 1 1 2
M  V30 2 1 1 3
M  V30 3 1 2 4
M  V30 4 1 2 5
M  V30 5 1 2 6
M  V30 6 1 4 7
M  V30 END BOND
M  V30 END CTAB
M  END
>  <Molecule Name>
Methyl tert-amyl ether

>  <Molecule Name 2>
Methyl tert-amyl ether

>  <Activity>
0

$$$$
Glycerol monomethyl ether
Actelion Java MolfileCreator 2.0

  0  0  0  0  0  0              0 V3000
M  V30 BEGIN CTAB
M  V30 COUNTS 7 6 0 0 0
M  V30 BEGIN ATOM
M  V30 1 O 0.0 0.0 0.0 0
M  V30 2 C -1.2995 0.7442 0.0 0
M  V30 3 C 1.2995 0.7442 0.0 0
M  V30 4 C -2.599 -0.0118 0.0 0 CFG=1
M  V30 5 O -2.599 -1.5121 0.0 0
M  V30 6 C -3.8985 0.7324 0.0 0
M  V30 7 O -5.198 -0.0236 0.0 0
M  V30 END ATOM
M  V30 BEGIN BOND
M  V30 1 1 1 2
M  V30 2 1 1 3
M  V30 3 1 2 4
M  V30 4 1 4 5 CFG=1
M  V30 5 1 4 6
M  V30 6 1 6 7
M  V30 END BOND
M  V30 BEGIN COLLECTION
M  V30 MDLV30/STERAC1 ATOMS=(1 4)
M  V30 END COLLECTION
M  V30 END CTAB
M  END
>  <Molecule Name>
Glycerol monomethyl ether

>  <Molecule Name 2>
Glycerol monomethyl ether

>  <Activity>
0

$$$$
Lactic acid, methyl ester
Actelion Java MolfileCreator 2.0

  0  0  0  0  0  0              0 V3000
M  V30 BEGIN CTAB
M  V30 COUNTS 7 6 0 0 0
M  V30 BEGIN ATOM
M  V30 1 O 0.0 0.0 0.0 0
M  V30 2 C 0.0 1.4998 0.0 0
M  V30 3 O -1.2991 2.2439 0.0 0
M  V30 4 C 1.2991 2.2439 0.0 0 CFG=1
M  V30 5 C -2.5982 1.488 0.0 0
M  V30 6 O 2.5982 1.488 0.0 0
M  V30 7 C 1.2991 3.7438 0.0 0
M  V30 END ATOM
M  V30 BEGIN BOND
M  V30 1 2 1 2
M  V30 2 1 2 3
M  V30 3 1 2 4
M  V30 4 1 3 5
M  V30 5 1 4 6 CFG=3
M  V30 6 1 4 7
M  V30 END BOND
M  V30 BEGIN COLLECTION
M  V30 MDLV30/STERAC1 ATOMS=(1 4)
M  V30 END COLLECTION
M  V30 END CTAB
M  END
>  <Molecule Name>
Lactic acid, methyl ester

>  <Molecule Name 2>
Lactic acid, methyl ester

>  <Activity>
0

$$$$
Diethylene glycol
Actelion Java MolfileCreator 2.0

  0  0  0  0  0  0              0 V3000
M  V30 BEGIN CTAB
M  V30 COUNTS 7 6 0 0 0
M  V30 BEGIN ATOM
M  V30 1 O 0.0 0.0 0.0 0
M  V30 2 C -1.3004 -0.7475 0.0 0
M  V30 3 C 1.3004 -0.7475 0.0 0
M  V30 4 C -2.6009 0.0 0.0 0
M  V30 5 C 2.6009 0.0 0.0 0
M  V30 6 O -3.9014 -0.7475 0.0 0
M  V30 7 O 3.9014 -0.7475 0.0 0
M  V30 END ATOM
M  V30 BEGIN BOND
M  V30 1 1 1 2
M  V30 2 1 1 3
M  V30 3 1 2 4
M  V30 4 1 3 5
M  V30 5 1 4 6
M  V30 6 1 5 7
M  V30 END BOND
M  V30 END CTAB
M  END
>  <Molecule Name>
Diethylene glycol

>  <Molecule Name 2>
Diethylene glycol

>  <Activity>
0

$$$$
2-Methyl glycerine
Actelion Java MolfileCreator 2.0

  0  0  0  0  0  0              0 V3000
M  V30 BEGIN CTAB
M  V30 COUNTS 7 6 0 0 0
M  V30 BEGIN ATOM
M  V30 1 O 0.0 0.0 0.0 0
M  V30 2 C -1.2986 -0.7555 0.0 0
M  V30 3 C 1.2986 -0.7555 0.0 0
M  V30 4 C -1.2986 -2.2549 0.0 0
M  V30 5 C -2.5973 -0.0118 0.0 0
M  V30 6 O 0.0 -2.9987 0.0 0
M  V30 7 O -3.896 -0.7673 0.0 0
M  V30 END ATOM
M  V30 BEGIN BOND
M  V30 1 1 1 2
M  V30 2 1 1 3
M  V30 3 1 2 4
M  V30 4 1 2 5
M  V30 5 1 4 6
M  V30 6 1 5 7
M  V30 END BOND
M  V30 END CTAB
M  END
>  <Molecule Name>
2-Methyl glycerine

>  <Molecule Name 2>
2-Methyl glycerine

>  <Activity>
0

$$$$
Glutaronitrile
Actelion Java MolfileCreator 2.0

  0  0  0  0  0  0              0 V3000
M  V30 BEGIN CTAB
M  V30 COUNTS 7 6 0 0 0
M  V30 BEGIN ATOM
M  V30 1 N 0.0 0.0 0.0 0
M  V30 2 C -1.2982 -0.7553 0.0 0
M  V30 3 C -2.5965 -1.5107 0.0 0
M  V30 4 C -3.8948 -0.7671 0.0 0
M  V30 5 C -5.193 -1.5225 0.0 0
M  V30 6 C -5.193 -3.0214 0.0 0
M  V30 7 N -5.193 -4.5203 0.0 0
M  V30 END ATOM
M  V30 BEGIN BOND
M  V30 1 3 1 2
M  V30 2 1 2 3
M  V30 3 1 3 4
M  V30 4 1 4 5
M  V30 5 1 5 6
M  V30 6 3 6 7
M  V30 END BOND
M  V30 END CTAB
M  END
>  <Molecule Name>
Glutaronitrile

>  <Molecule Name 2>
Glutaronitrile

>  <Activity>
0

$$$$
N-(2-hydroxyethyl)acetamide
Actelion Java MolfileCreator 2.0

  0  0  0  0  0  0              0 V3000
M  V30 BEGIN CTAB
M  V30 COUNTS 7 6 0 0 0
M  V30 BEGIN ATOM
M  V30 1 O 0.0 0.0 0.0 0
M  V30 2 C 1.2995 0.7442 0.0 0
M  V30 3 N 2.599 -0.0118 0.0 0
M  V30 4 C 1.2995 2.2446 0.0 0
M  V30 5 C 3.8985 0.7324 0.0 0
M  V30 6 C 5.198 -0.0236 0.0 0
M  V30 7 O 6.4976 0.7206 0.0 0
M  V30 END ATOM
M  V30 BEGIN BOND
M  V30 1 2 1 2
M  V30 2 1 2 3
M  V30 3 1 2 4
M  V30 4 1 3 5
M  V30 5 1 5 6
M  V30 6 1 6 7
M  V30 END BOND
M  V30 END CTAB
M  END
>  <Molecule Name>
N-(2-hydroxyethyl)acetamide

>  <Molecule Name 2>
N-(2-hydroxyethyl)acetamide

>  <Activity>
0

$$$$
Cyanoacetic acid, methyl ester
Actelion Java MolfileCreator 2.0

  0  0  0  0  0  0              0 V3000
M  V30 BEGIN CTAB
M  V30 COUNTS 7 6 0 0 0
M  V30 BEGIN ATOM
M  V30 1 O 0.0 0.0 0.0 0
M  V30 2 C 0.0 1.5004 0.0 0
M  V30 3 O -1.2995 2.2447 0.0 0
M  V30 4 C 1.2995 2.2447 0.0 0
M  V30 5 C -2.5991 1.4885 0.0 0
M  V30 6 C 1.2995 3.7451 0.0 0
M  V30 7 N 1.2995 5.2455 0.0 0
M  V30 END ATOM
M  V30 BEGIN BOND
M  V30 1 2 1 2
M  V30 2 1 2 3
M  V30 3 1 2 4
M  V30 4 1 3 5
M  V30 5 1 4 6
M  V30 6 3 6 7
M  V30 END BOND
M  V30 END CTAB
M  END
>  <Molecule Name>
Cyanoacetic acid, methyl ester

>  <Molecule Name 2>
Cyanoacetic acid, methyl ester

>  <Activity>
0

$$$$
1-Nitrobutane
Actelion Java MolfileCreator 2.0

  0  0  0  0  0  0              0 V3000
M  V30 BEGIN CTAB
M  V30 COUNTS 7 6 0 0 0
M  V30 BEGIN ATOM
M  V30 1 O 0.0 0.0 0.0 0
M  V30 2 N -1.2986 -0.7555 0.0 0 CHG=1
M  V30 3 O -1.2986 -2.2549 0.0 0 CHG=-1
M  V30 4 C -2.5973 -0.0118 0.0 0
M  V30 5 C -3.896 -0.7673 0.0 0
M  V30 6 C -5.1946 -0.0236 0.0 0
M  V30 7 C -6.4933 -0.7792 0.0 0
M  V30 END ATOM
M  V30 BEGIN BOND
M  V30 1 2 1 2
M  V30 2 1 2 3
M  V30 3 1 2 4
M  V30 4 1 4 5
M  V30 5 1 5 6
M  V30 6 1 6 7
M  V30 END BOND
M  V30 END CTAB
M  END
>  <Molecule Name>
1-Nitrobutane

>  <Molecule Name 2>
1-Nitrobutane

>  <Activity>
0

$$$$
N,N-Diethylformamide
Actelion Java MolfileCreator 2.0

  0  0  0  0  0  0              0 V3000
M  V30 BEGIN CTAB
M  V30 COUNTS 7 6 0 0 0
M  V30 BEGIN ATOM
M  V30 1 O 0.0 0.0 0.0 0
M  V30 2 C -1.2995 0.7442 0.0 0
M  V30 3 N -1.2995 2.2446 0.0 0
M  V30 4 C 0.0 2.9889 0.0 0
M  V30 5 C -2.599 2.9889 0.0 0
M  V30 6 C 1.2995 2.2328 0.0 0
M  V30 7 C -3.8985 2.2328 0.0 0
M  V30 END ATOM
M  V30 BEGIN BOND
M  V30 1 2 1 2
M  V30 2 1 2 3
M  V30 3 1 3 4
M  V30 4 1 3 5
M  V30 5 1 4 6
M  V30 6 1 5 7
M  V30 END BOND
M  V30 END CTAB
M  END
>  <Molecule Name>
N,N-Diethylformamide

>  <Molecule Name 2>
N,N-Diethylformamide

>  <Activity>
0

$$$$
N-iso-Propylacetamide
Actelion Java MolfileCreator 2.0

  0  0  0  0  0  0              0 V3000
M  V30 BEGIN CTAB
M  V30 COUNTS 7 6 0 0 0
M  V30 BEGIN ATOM
M  V30 1 O 0.0 0.0 0.0 0
M  V30 2 C 1.2991 0.744 0.0 0
M  V30 3 N 2.5982 -0.0118 0.0 0
M  V30 4 C 1.2991 2.2439 0.0 0
M  V30 5 C 3.8973 0.7322 0.0 0
M  V30 6 C 5.1964 -0.0236 0.0 0
M  V30 7 C 3.8973 2.2321 0.0 0
M  V30 END ATOM
M  V30 BEGIN BOND
M  V30 1 2 1 2
M  V30 2 1 2 3
M  V30 3 1 2 4
M  V30 4 1 3 5
M  V30 5 1 5 6
M  V30 6 1 5 7
M  V30 END BOND
M  V30 END CTAB
M  END
>  <Molecule Name>
N-iso-Propylacetamide

>  <Molecule Name 2>
N-iso-Propylacetamide

>  <Activity>
0

$$$$
N-Beta-Chloroethylacetamide
Actelion Java MolfileCreator 2.0

  0  0  0  0  0  0              0 V3000
M  V30 BEGIN CTAB
M  V30 COUNTS 7 6 0 0 0
M  V30 BEGIN ATOM
M  V30 1 Cl 0.0 0.0 0.0 0
M  V30 2 C -1.2986 -0.7555 0.0 0
M  V30 3 C -2.5973 -0.0118 0.0 0
M  V30 4 N -3.896 -0.7673 0.0 0
M  V30 5 C -5.1946 -0.0236 0.0 0
M  V30 6 O -6.4933 -0.7792 0.0 0
M  V30 7 C -5.1946 1.4757 0.0 0
M  V30 END ATOM
M  V30 BEGIN BOND
M  V30 1 1 1 2
M  V30 2 1 2 3
M  V30 3 1 3 4
M  V30 4 1 4 5
M  V30 5 2 5 6
M  V30 6 1 5 7
M  V30 END BOND
M  V30 END CTAB
M  END
>  <Molecule Name>
N-Beta-Chloroethylacetamide

>  <Molecule Name 2>
N-Beta-Chloroethylacetamide

>  <Activity>
0

$$$$
Valerolactone
Actelion Java MolfileCreator 2.0

  0  0  0  0  0  0              0 V3000
M  V30 BEGIN CTAB
M  V30 COUNTS 7 7 0 0 0
M  V30 BEGIN ATOM
M  V30 1 O 0.0 0.0 0.0 0
M  V30 2 C 1.2987 0.7556 0.0 0
M  V30 3 O 1.2987 2.255 0.0 0
M  V30 4 C 2.5974 0.0 0.0 0
M  V30 5 C 2.5974 2.9989 0.0 0
M  V30 6 C 3.8962 0.7438 0.0 0
M  V30 7 C 3.8962 2.2432 0.0 0
M  V30 END ATOM
M  V30 BEGIN BOND
M  V30 1 2 1 2
M  V30 2 1 2 3
M  V30 3 1 2 4
M  V30 4 1 3 5
M  V30 5 1 4 6
M  V30 6 1 5 7
M  V30 7 1 6 7
M  V30 END BOND
M  V30 END CTAB
M  END
>  <Molecule Name>
Valerolactone

>  <Molecule Name 2>
Valerolactone

>  <Activity>
0

$$$$
Furfuryl alcohol
Actelion Java MolfileCreator 2.0

  0  0  0  0  0  0              0 V3000
M  V30 BEGIN CTAB
M  V30 COUNTS 7 7 0 0 0
M  V30 BEGIN ATOM
M  V30 1 O 0.0 0.0 0.0 0
M  V30 2 C -1.3719 -0.6097 0.0 0
M  V30 3 C 0.9967 -1.1139 0.0 0
M  V30 4 C -1.2195 -2.0989 0.0 0
M  V30 5 C -2.6735 0.1407 0.0 0
M  V30 6 C 0.2462 -2.4155 0.0 0
M  V30 7 O -3.9751 -0.6097 0.0 0
M  V30 END ATOM
M  V30 BEGIN BOND
M  V30 1 1 1 2
M  V30 2 1 1 3
M  V30 3 2 2 4
M  V30 4 1 2 5
M  V30 5 2 3 6
M  V30 6 1 5 7
M  V30 7 1 4 6
M  V30 END BOND
M  V30 END CTAB
M  END
>  <Molecule Name>
Furfuryl alcohol

>  <Molecule Name 2>
Furfuryl alcohol

>  <Activity>
0

$$$$
Tetrahydrofurfuryl alcohol
Actelion Java MolfileCreator 2.0

  0  0  0  0  0  0              0 V3000
M  V30 BEGIN CTAB
M  V30 COUNTS 7 7 0 0 0
M  V30 BEGIN ATOM
M  V30 1 O 0.0 0.0 0.0 0
M  V30 2 C -1.3719 -0.6097 0.0 0 CFG=2
M  V30 3 C 0.9967 -1.1139 0.0 0
M  V30 4 C -1.2195 -2.0989 0.0 0
M  V30 5 C -2.6735 0.1407 0.0 0
M  V30 6 C 0.2462 -2.4155 0.0 0
M  V30 7 O -3.9751 -0.6097 0.0 0
M  V30 END ATOM
M  V30 BEGIN BOND
M  V30 1 1 1 2
M  V30 2 1 1 3
M  V30 3 1 2 4
M  V30 4 1 2 5 CFG=3
M  V30 5 1 3 6
M  V30 6 1 5 7
M  V30 7 1 4 6
M  V30 END BOND
M  V30 BEGIN COLLECTION
M  V30 MDLV30/STERAC1 ATOMS=(1 2)
M  V30 END COLLECTION
M  V30 END CTAB
M  END
>  <Molecule Name>
Tetrahydrofurfuryl alcohol

>  <Molecule Name 2>
Tetrahydrofurfuryl alcohol

>  <Activity>
0

$$$$
cyclohexanone
Actelion Java MolfileCreator 2.0

  0  0  0  0  0  0              0 V3000
M  V30 BEGIN CTAB
M  V30 COUNTS 7 7 0 0 0
M  V30 BEGIN ATOM
M  V30 1 O 0.0 0.0 0.0 0
M  V30 2 C 1.2994 0.7442 0.0 0
M  V30 3 C 2.5989 -0.0118 0.0 0
M  V30 4 C 1.2994 2.2445 0.0 0
M  V30 5 C 3.8984 0.7324 0.0 0
M  V30 6 C 2.5989 2.9888 0.0 0
M  V30 7 C 3.8984 2.2327 0.0 0
M  V30 END ATOM
M  V30 BEGIN BOND
M  V30 1 2 1 2
M  V30 2 1 2 3
M  V30 3 1 2 4
M  V30 4 1 3 5
M  V30 5 1 4 6
M  V30 6 1 5 7
M  V30 7 1 6 7
M  V30 END BOND
M  V30 END CTAB
M  END
>  <Molecule Name>
cyclohexanone

>  <Molecule Name 2>
cyclohexanone

>  <Activity>
0

$$$$
Cyclohexanol
Actelion Java MolfileCreator 2.0

  0  0  0  0  0  0              0 V3000
M  V30 BEGIN CTAB
M  V30 COUNTS 7 7 0 0 0
M  V30 BEGIN ATOM
M  V30 1 O 0.0 0.0 0.0 0
M  V30 2 C 1.2994 0.7442 0.0 0
M  V30 3 C 2.5989 -0.0118 0.0 0
M  V30 4 C 1.2994 2.2445 0.0 0
M  V30 5 C 3.8984 0.7324 0.0 0
M  V30 6 C 2.5989 2.9888 0.0 0
M  V30 7 C 3.8984 2.2327 0.0 0
M  V30 END ATOM
M  V30 BEGIN BOND
M  V30 1 1 1 2
M  V30 2 1 2 3
M  V30 3 1 2 4
M  V30 4 1 3 5
M  V30 5 1 4 6
M  V30 6 1 5 7
M  V30 7 1 6 7
M  V30 END BOND
M  V30 END CTAB
M  END
>  <Molecule Name>
Cyclohexanol

>  <Molecule Name 2>
Cyclohexanol

>  <Activity>
0

$$$$
beta-Hydroxybutyrolactone
Actelion Java MolfileCreator 2.0

  0  0  0  0  0  0              0 V3000
M  V30 BEGIN CTAB
M  V30 COUNTS 7 7 0 0 0
M  V30 BEGIN ATOM
M  V30 1 O 0.0 0.0 0.0 0
M  V30 2 C 1.4899 -0.1525 0.0 0
M  V30 3 O 2.2408 -1.4547 0.0 0
M  V30 4 C 2.4872 0.962 0.0 0
M  V30 5 C 3.7073 -1.138 0.0 0
M  V30 6 C 3.8598 0.3519 0.0 0 CFG=1
M  V30 7 O 5.1621 1.1028 0.0 0
M  V30 END ATOM
M  V30 BEGIN BOND
M  V30 1 2 1 2
M  V30 2 1 2 3
M  V30 3 1 2 4
M  V30 4 1 3 5
M  V30 5 1 4 6
M  V30 6 1 6 7 CFG=3
M  V30 7 1 5 6
M  V30 END BOND
M  V30 BEGIN COLLECTION
M  V30 MDLV30/STERAC1 ATOMS=(1 6)
M  V30 END COLLECTION
M  V30 END CTAB
M  END
>  <Molecule Name>
beta-Hydroxybutyrolactone

>  <Molecule Name 2>
beta-Hydroxybutyrolactone

>  <Activity>
0

$$$$
Glycerol formal
Actelion Java MolfileCreator 2.0

  0  0  0  0  0  0              0 V3000
M  V30 BEGIN CTAB
M  V30 COUNTS 7 7 0 0 0
M  V30 BEGIN ATOM
M  V30 1 O 0.0 0.0 0.0 0
M  V30 2 C 0.0 1.4986 0.0 0
M  V30 3 C -1.298 -0.7434 0.0 0
M  V30 4 O -1.298 2.2538 0.0 0
M  V30 5 C -2.596 0.0 0.0 0
M  V30 6 C -2.596 1.5104 0.0 0
M  V30 7 O -3.894 -0.7552 0.0 0
M  V30 END ATOM
M  V30 BEGIN BOND
M  V30 1 1 1 2
M  V30 2 1 1 3
M  V30 3 1 2 4
M  V30 4 1 3 5
M  V30 5 1 4 6
M  V30 6 1 5 7
M  V30 7 1 5 6
M  V30 END BOND
M  V30 END CTAB
M  END
>  <Molecule Name>
Glycerol formal

>  <Molecule Name 2>
Glycerol formal

>  <Activity>
0

$$$$
o-Dibromobenzene
Actelion Java MolfileCreator 2.0

  0  0  0  0  0  0              0 V3000
M  V30 BEGIN CTAB
M  V30 COUNTS 8 8 0 0 0
M  V30 BEGIN ATOM
M  V30 1 Br 0.0 0.0 0.0 0
M  V30 2 C 0.0 -1.5002 0.0 0
M  V30 3 C 1.2994 -2.2563 0.0 0
M  V30 4 C -1.2994 -2.2444 0.0 0
M  V30 5 Br 2.5988 -1.512 0.0 0
M  V30 6 C 1.2994 -3.7565 0.0 0
M  V30 7 C -1.2994 -3.7447 0.0 0
M  V30 8 C 0.0 -4.5008 0.0 0
M  V30 END ATOM
M  V30 BEGIN BOND
M  V30 1 1 1 2
M  V30 2 2 2 3
M  V30 3 1 2 4
M  V30 4 1 3 5
M  V30 5 1 3 6
M  V30 6 2 4 7
M  V30 7 2 6 8
M  V30 8 1 7 8
M  V30 END BOND
M  V30 END CTAB
M  END
>  <Molecule Name>
o-Dibromobenzene

>  <Molecule Name 2>
o-Dibromobenzene

>  <Activity>
0

$$$$
1-Methyl-2,3-cyclopentanediol
Actelion Java MolfileCreator 2.0

  0  0  0  0  0  0              0 V3000
M  V30 BEGIN CTAB
M  V30 COUNTS 8 8 0 0 0
M  V30 BEGIN ATOM
M  V30 1 O 0.0 0.0 0.0 0
M  V30 2 C 0.3167 -1.4664 0.0 0
M  V30 3 C -0.6804 -2.5809 0.0 0
M  V30 4 C 1.6893 -2.0765 0.0 0
M  V30 5 O -2.1703 -2.4284 0.0 0
M  V30 6 C 0.0703 -3.8832 0.0 0
M  V30 7 C 1.5368 -3.5664 0.0 0
M  V30 8 C 2.9916 -1.3256 0.0 0
M  V30 END ATOM
M  V30 BEGIN BOND
M  V30 1 1 1 2
M  V30 2 1 2 3
M  V30 3 1 2 4
M  V30 4 1 3 5
M  V30 5 1 3 6
M  V30 6 1 4 7
M  V30 7 1 4 8
M  V30 8 1 6 7
M  V30 END BOND
M  V30 END CTAB
M  END
>  <Molecule Name>
1-Methyl-2,3-cyclopentanediol

>  <Molecule Name 2>
1-Methyl-2,3-cyclopentanediol

>  <Activity>
0

$$$$
1,3 Cyclohexanedione
Actelion Java MolfileCreator 2.0

  0  0  0  0  0  0              0 V3000
M  V30 BEGIN CTAB
M  V30 COUNTS 8 8 0 0 0
M  V30 BEGIN ATOM
M  V30 1 O 0.0 0.0 0.0 0
M  V30 2 C -1.2984 0.7554 0.0 0
M  V30 3 C -2.5969 0.0118 0.0 0
M  V30 4 C -1.2984 2.2546 0.0 0
M  V30 5 C -3.8954 0.7672 0.0 0
M  V30 6 C -2.5969 3.01 0.0 0
M  V30 7 O -5.1938 0.0118 0.0 0
M  V30 8 C -3.8954 2.2664 0.0 0
M  V30 END ATOM
M  V30 BEGIN BOND
M  V30 1 2 1 2
M  V30 2 1 2 3
M  V30 3 1 2 4
M  V30 4 1 3 5
M  V30 5 1 4 6
M  V30 6 2 5 7
M  V30 7 1 5 8
M  V30 8 1 6 8
M  V30 END BOND
M  V30 END CTAB
M  END
>  <Molecule Name>
1,3 Cyclohexanedione

>  <Molecule Name 2>
1,3 Cyclohexanedione

>  <Activity>
0

$$$$
Dimethyldioxane
Actelion Java MolfileCreator 2.0

  0  0  0  0  0  0              0 V3000
M  V30 BEGIN CTAB
M  V30 COUNTS 8 8 0 0 0
M  V30 BEGIN ATOM
M  V30 1 O 0.0 0.0 0.0 0
M  V30 2 C 0.0 1.5002 0.0 0
M  V30 3 C 1.2994 -0.756 0.0 0
M  V30 4 C 1.2994 2.2444 0.0 0
M  V30 5 C -0.7442 2.7997 0.0 0
M  V30 6 C -1.5002 1.5002 0.0 0
M  V30 7 C 2.5988 0.0 0.0 0
M  V30 8 O 2.5988 1.5002 0.0 0
M  V30 END ATOM
M  V30 BEGIN BOND
M  V30 1 1 1 2
M  V30 2 1 1 3
M  V30 3 1 2 4
M  V30 4 1 2 5
M  V30 5 1 2 6
M  V30 6 1 3 7
M  V30 7 1 4 8
M  V30 8 1 7 8
M  V30 END BOND
M  V30 END CTAB
M  END
>  <Molecule Name>
Dimethyldioxane

>  <Molecule Name 2>
Dimethyldioxane

>  <Activity>
0

$$$$
Cyclohexylcarbinol
Actelion Java MolfileCreator 2.0

  0  0  0  0  0  0              0 V3000
M  V30 BEGIN CTAB
M  V30 COUNTS 8 8 0 0 0
M  V30 BEGIN ATOM
M  V30 1 O 0.0 0.0 0.0 0
M  V30 2 C 1.2991 0.744 0.0 0
M  V30 3 C 2.5982 -0.0118 0.0 0
M  V30 4 C 2.5982 -1.5116 0.0 0
M  V30 5 C 3.8973 0.7322 0.0 0
M  V30 6 C 3.8973 -2.2675 0.0 0
M  V30 7 C 5.1964 -0.0236 0.0 0
M  V30 8 C 5.1964 -1.5235 0.0 0
M  V30 END ATOM
M  V30 BEGIN BOND
M  V30 1 1 1 2
M  V30 2 1 2 3
M  V30 3 1 3 4
M  V30 4 1 3 5
M  V30 5 1 4 6
M  V30 6 1 5 7
M  V30 7 1 6 8
M  V30 8 1 7 8
M  V30 END BOND
M  V30 END CTAB
M  END
>  <Molecule Name>
Cyclohexylcarbinol

>  <Molecule Name 2>
Cyclohexylcarbinol

>  <Activity>
0

$$$$
m-Methylcyclohexanone
Actelion Java MolfileCreator 2.0

  0  0  0  0  0  0              0 V3000
M  V30 BEGIN CTAB
M  V30 COUNTS 8 8 0 0 0
M  V30 BEGIN ATOM
M  V30 1 O 0.0 0.0 0.0 0
M  V30 2 C 1.3003 -0.7565 0.0 0
M  V30 3 C 2.6007 -0.0118 0.0 0
M  V30 4 C 1.3003 -2.2579 0.0 0
M  V30 5 C 3.9011 -0.7684 0.0 0 CFG=2
M  V30 6 C 2.6007 -3.0026 0.0 0
M  V30 7 C 3.9011 -2.2697 0.0 0
M  V30 8 C 5.2015 -0.0236 0.0 0
M  V30 END ATOM
M  V30 BEGIN BOND
M  V30 1 2 1 2
M  V30 2 1 2 3
M  V30 3 1 2 4
M  V30 4 1 3 5
M  V30 5 1 4 6
M  V30 6 1 5 7
M  V30 7 1 5 8 CFG=1
M  V30 8 1 6 7
M  V30 END BOND
M  V30 BEGIN COLLECTION
M  V30 MDLV30/STERAC1 ATOMS=(1 5)
M  V30 END COLLECTION
M  V30 END CTAB
M  END
>  <Molecule Name>
m-Methylcyclohexanone

>  <Molecule Name 2>
m-Methylcyclohexanone

>  <Activity>
0

$$$$
m-Methylcyclohexanol
Actelion Java MolfileCreator 2.0

  0  0  0  0  0  0              0 V3000
M  V30 BEGIN CTAB
M  V30 COUNTS 8 8 0 0 0
M  V30 BEGIN ATOM
M  V30 1 O 0.0 0.0 0.0 0
M  V30 2 C 1.3003 -0.7565 0.0 0
M  V30 3 C 2.6007 -0.0118 0.0 0
M  V30 4 C 1.3003 -2.2579 0.0 0
M  V30 5 C 3.9011 -0.7684 0.0 0
M  V30 6 C 2.6007 -3.0026 0.0 0
M  V30 7 C 3.9011 -2.2697 0.0 0
M  V30 8 C 5.2015 -0.0236 0.0 0
M  V30 END ATOM
M  V30 BEGIN BOND
M  V30 1 1 1 2
M  V30 2 1 2 3
M  V30 3 1 2 4
M  V30 4 1 3 5
M  V30 5 1 4 6
M  V30 6 1 5 7
M  V30 7 1 5 8
M  V30 8 1 6 7
M  V30 END BOND
M  V30 END CTAB
M  END
>  <Molecule Name>
m-Methylcyclohexanol

>  <Molecule Name 2>
m-Methylcyclohexanol

>  <Activity>
0

$$$$
p-Methylcyclohexanol
Actelion Java MolfileCreator 2.0

  0  0  0  0  0  0              0 V3000
M  V30 BEGIN CTAB
M  V30 COUNTS 8 8 0 0 0
M  V30 BEGIN ATOM
M  V30 1 O 0.0 0.0 0.0 0
M  V30 2 C 1.3016 0.7455 0.0 0
M  V30 3 C 1.3016 2.2483 0.0 0
M  V30 4 C 2.6033 0.0 0.0 0
M  V30 5 C 2.6033 2.9938 0.0 0
M  V30 6 C 3.905 0.7455 0.0 0
M  V30 7 C 3.905 2.2365 0.0 0
M  V30 8 C 5.2066 2.982 0.0 0
M  V30 END ATOM
M  V30 BEGIN BOND
M  V30 1 1 1 2
M  V30 2 1 2 3
M  V30 3 1 2 4
M  V30 4 1 3 5
M  V30 5 1 4 6
M  V30 6 1 5 7
M  V30 7 1 7 8
M  V30 8 1 6 7
M  V30 END BOND
M  V30 END CTAB
M  END
>  <Molecule Name>
p-Methylcyclohexanol

>  <Molecule Name 2>
p-Methylcyclohexanol

>  <Activity>
0

$$$$
o-Methylcyclohexanol
Actelion Java MolfileCreator 2.0

  0  0  0  0  0  0              0 V3000
M  V30 BEGIN CTAB
M  V30 COUNTS 8 8 0 0 0
M  V30 BEGIN ATOM
M  V30 1 O 0.0 0.0 0.0 0
M  V30 2 C 0.0 -1.5002 0.0 0
M  V30 3 C 1.2994 -2.2563 0.0 0
M  V30 4 C -1.2994 -2.2444 0.0 0
M  V30 5 C 1.2994 -3.7565 0.0 0
M  V30 6 C 2.5988 -1.512 0.0 0
M  V30 7 C -1.2994 -3.7447 0.0 0
M  V30 8 C 0.0 -4.5008 0.0 0
M  V30 END ATOM
M  V30 BEGIN BOND
M  V30 1 1 1 2
M  V30 2 1 2 3
M  V30 3 1 2 4
M  V30 4 1 3 5
M  V30 5 1 3 6
M  V30 6 1 4 7
M  V30 7 1 5 8
M  V30 8 1 7 8
M  V30 END BOND
M  V30 END CTAB
M  END
>  <Molecule Name>
o-Methylcyclohexanol

>  <Molecule Name 2>
o-Methylcyclohexanol

>  <Activity>
0

$$$$
Anisole
Actelion Java MolfileCreator 2.0

  0  0  0  0  0  0              0 V3000
M  V30 BEGIN CTAB
M  V30 COUNTS 8 8 0 0 0
M  V30 BEGIN ATOM
M  V30 1 O 0.0 0.0 0.0 0
M  V30 2 C 1.2984 -0.7554 0.0 0
M  V30 3 C -1.2984 -0.7554 0.0 0
M  V30 4 C 1.2984 -2.2546 0.0 0
M  V30 5 C 2.5969 -0.0118 0.0 0
M  V30 6 C 2.5969 -3.01 0.0 0
M  V30 7 C 3.8954 -0.7672 0.0 0
M  V30 8 C 3.8954 -2.2664 0.0 0
M  V30 END ATOM
M  V30 BEGIN BOND
M  V30 1 1 1 2
M  V30 2 1 1 3
M  V30 3 2 2 4
M  V30 4 1 2 5
M  V30 5 1 4 6
M  V30 6 2 5 7
M  V30 7 2 6 8
M  V30 8 1 7 8
M  V30 END BOND
M  V30 END CTAB
M  END
>  <Molecule Name>
Anisole

>  <Molecule Name 2>
Anisole

>  <Activity>
0

$$$$
2-Acetothienone
Actelion Java MolfileCreator 2.0

  0  0  0  0  0  0              0 V3000
M  V30 BEGIN CTAB
M  V30 COUNTS 8 8 0 0 0
M  V30 BEGIN ATOM
M  V30 1 S 0.0 0.0 0.0 0
M  V30 2 C -1.37 -0.6141 0.0 0
M  V30 3 C 1.0039 -1.1102 0.0 0
M  V30 4 C -2.6693 0.1299 0.0 0
M  V30 5 C -1.2165 -2.1023 0.0 0
M  V30 6 C 0.2598 -2.4094 0.0 0
M  V30 7 O -2.6693 1.6299 0.0 0
M  V30 8 C -3.9685 -0.6259 0.0 0
M  V30 END ATOM
M  V30 BEGIN BOND
M  V30 1 1 1 2
M  V30 2 1 1 3
M  V30 3 1 2 4
M  V30 4 2 2 5
M  V30 5 2 3 6
M  V30 6 2 4 7
M  V30 7 1 4 8
M  V30 8 1 5 6
M  V30 END BOND
M  V30 END CTAB
M  END
>  <Molecule Name>
2-Acetothienone

>  <Molecule Name 2>
2-Acetothienone

>  <Activity>
0

$$$$
4-Formylmorpholine
Actelion Java MolfileCreator 2.0

  0  0  0  0  0  0              0 V3000
M  V30 BEGIN CTAB
M  V30 COUNTS 8 8 0 0 0
M  V30 BEGIN ATOM
M  V30 1 O 0.0 0.0 0.0 0
M  V30 2 C -1.2997 0.7444 0.0 0
M  V30 3 N -2.5994 0.0 0.0 0
M  V30 4 C -3.8992 0.7562 0.0 0
M  V30 5 C -2.5994 -1.5006 0.0 0
M  V30 6 C -5.1989 0.0118 0.0 0
M  V30 7 C -3.8992 -2.245 0.0 0
M  V30 8 O -5.1989 -1.4888 0.0 0
M  V30 END ATOM
M  V30 BEGIN BOND
M  V30 1 2 1 2
M  V30 2 1 2 3
M  V30 3 1 3 4
M  V30 4 1 3 5
M  V30 5 1 4 6
M  V30 6 1 5 7
M  V30 7 1 6 8
M  V30 8 1 7 8
M  V30 END BOND
M  V30 END CTAB
M  END
>  <Molecule Name>
4-Formylmorpholine

>  <Molecule Name 2>
4-Formylmorpholine

>  <Activity>
0

$$$$
1-Methyl-2-pyridone
Actelion Java MolfileCreator 2.0

  0  0  0  0  0  0              0 V3000
M  V30 BEGIN CTAB
M  V30 COUNTS 8 8 0 0 0
M  V30 BEGIN ATOM
M  V30 1 O 0.0 0.0 0.0 0
M  V30 2 C 0.0 -1.5002 0.0 0
M  V30 3 N 1.2994 -2.2563 0.0 0
M  V30 4 C -1.2994 -2.2444 0.0 0
M  V30 5 C 1.2994 -3.7565 0.0 0
M  V30 6 C 2.5988 -1.512 0.0 0
M  V30 7 C -1.2994 -3.7447 0.0 0
M  V30 8 C 0.0 -4.5008 0.0 0
M  V30 END ATOM
M  V30 BEGIN BOND
M  V30 1 2 1 2
M  V30 2 1 2 3
M  V30 3 1 2 4
M  V30 4 1 3 5
M  V30 5 1 3 6
M  V30 6 2 4 7
M  V30 7 2 5 8
M  V30 8 1 7 8
M  V30 END BOND
M  V30 END CTAB
M  END
>  <Molecule Name>
1-Methyl-2-pyridone

>  <Molecule Name 2>
1-Methyl-2-pyridone

>  <Activity>
0

$$$$
3-Hydroxy-4-hexanone
Actelion Java MolfileCreator 2.0

  0  0  0  0  0  0              0 V3000
M  V30 BEGIN CTAB
M  V30 COUNTS 8 7 0 0 0
M  V30 BEGIN ATOM
M  V30 1 O 0.0 0.0 0.0 0
M  V30 2 C 0.0 1.5003 0.0 0
M  V30 3 C 1.2994 2.2445 0.0 0 CFG=1
M  V30 4 C -1.2994 2.2445 0.0 0
M  V30 5 O 1.2994 3.7448 0.0 0
M  V30 6 C 2.5989 1.4884 0.0 0
M  V30 7 C -2.5989 1.4884 0.0 0
M  V30 8 C 3.8984 2.2327 0.0 0
M  V30 END ATOM
M  V30 BEGIN BOND
M  V30 1 2 1 2
M  V30 2 1 2 3
M  V30 3 1 2 4
M  V30 4 1 3 5 CFG=1
M  V30 5 1 3 6
M  V30 6 1 4 7
M  V30 7 1 6 8
M  V30 END BOND
M  V30 BEGIN COLLECTION
M  V30 MDLV30/STERAC1 ATOMS=(1 3)
M  V30 END COLLECTION
M  V30 END CTAB
M  END
>  <Molecule Name>
3-Hydroxy-4-hexanone

>  <Molecule Name 2>
3-Hydroxy-4-hexanone

>  <Activity>
0

$$$$
Crotonic acid, ethyl ester
Actelion Java MolfileCreator 2.0

  0  0  0  0  0  0              0 V3000
M  V30 BEGIN CTAB
M  V30 COUNTS 8 7 0 0 0
M  V30 BEGIN ATOM
M  V30 1 O 0.0 0.0 0.0 0
M  V30 2 C 0.0 -1.499 0.0 0
M  V30 3 O -1.2983 -2.2544 0.0 0
M  V30 4 C 1.2983 -2.2544 0.0 0
M  V30 5 C -2.5967 -1.5108 0.0 0
M  V30 6 C 2.5967 -1.5108 0.0 0
M  V30 7 C -3.895 -2.2662 0.0 0
M  V30 8 C 3.895 -2.2662 0.0 0
M  V30 END ATOM
M  V30 BEGIN BOND
M  V30 1 2 1 2
M  V30 2 1 2 3
M  V30 3 1 2 4
M  V30 4 1 3 5
M  V30 5 2 4 6
M  V30 6 1 5 7
M  V30 7 1 6 8
M  V30 END BOND
M  V30 END CTAB
M  END
>  <Molecule Name>
Crotonic acid, ethyl ester

>  <Molecule Name 2>
Crotonic acid, ethyl ester

>  <Activity>
0

$$$$
alpha,alpha-Dimethylacetic acid, ethyl ester
Actelion Java MolfileCreator 2.0

  0  0  0  0  0  0              0 V3000
M  V30 BEGIN CTAB
M  V30 COUNTS 8 7 0 0 0
M  V30 BEGIN ATOM
M  V30 1 O 0.0 0.0 0.0 0
M  V30 2 C 0.0 -1.4994 0.0 0
M  V30 3 O -1.2987 -2.255 0.0 0
M  V30 4 C 1.2987 -2.255 0.0 0
M  V30 5 C -2.5974 -1.5112 0.0 0
M  V30 6 C 2.5974 -1.5112 0.0 0
M  V30 7 C 1.2987 -3.7545 0.0 0
M  V30 8 C -3.8962 -2.2669 0.0 0
M  V30 END ATOM
M  V30 BEGIN BOND
M  V30 1 2 1 2
M  V30 2 1 2 3
M  V30 3 1 2 4
M  V30 4 1 3 5
M  V30 5 1 4 6
M  V30 6 1 4 7
M  V30 7 1 5 8
M  V30 END BOND
M  V30 END CTAB
M  END
>  <Molecule Name>
alpha,alpha-Dimethylacetic acid, ethyl ester

>  <Molecule Name 2>
alpha,alpha-Dimethylacetic acid, ethyl ester

>  <Activity>
0

$$$$
iso-Caproic acid
Actelion Java MolfileCreator 2.0

  0  0  0  0  0  0              0 V3000
M  V30 BEGIN CTAB
M  V30 COUNTS 8 7 0 0 0
M  V30 BEGIN ATOM
M  V30 1 O 0.0 0.0 0.0 0
M  V30 2 C -1.2987 -0.7556 0.0 0
M  V30 3 O -1.2987 -2.255 0.0 0
M  V30 4 C -2.5974 -0.0118 0.0 0
M  V30 5 C -3.8962 -0.7674 0.0 0
M  V30 6 C -5.1949 -0.0236 0.0 0
M  V30 7 C -5.1949 1.4758 0.0 0
M  V30 8 C -6.4937 -0.7792 0.0 0
M  V30 END ATOM
M  V30 BEGIN BOND
M  V30 1 2 1 2
M  V30 2 1 2 3
M  V30 3 1 2 4
M  V30 4 1 4 5
M  V30 5 1 5 6
M  V30 6 1 6 7
M  V30 7 1 6 8
M  V30 END BOND
M  V30 END CTAB
M  END
>  <Molecule Name>
iso-Caproic acid

>  <Molecule Name 2>
iso-Caproic acid

>  <Activity>
0

$$$$
Diacetone alcohol
Actelion Java MolfileCreator 2.0

  0  0  0  0  0  0              0 V3000
M  V30 BEGIN CTAB
M  V30 COUNTS 8 7 0 0 0
M  V30 BEGIN ATOM
M  V30 1 O 0.0 0.0 0.0 0
M  V30 2 C 0.0 1.5015 0.0 0
M  V30 3 C -1.3005 2.2464 0.0 0
M  V30 4 C 1.3005 2.2464 0.0 0
M  V30 5 C -2.6011 1.4897 0.0 0
M  V30 6 O -3.9016 0.7448 0.0 0
M  V30 7 C -1.8562 0.1891 0.0 0
M  V30 8 C -3.3459 2.7902 0.0 0
M  V30 END ATOM
M  V30 BEGIN BOND
M  V30 1 2 1 2
M  V30 2 1 2 3
M  V30 3 1 2 4
M  V30 4 1 3 5
M  V30 5 1 5 6
M  V30 6 1 5 7
M  V30 7 1 5 8
M  V30 END BOND
M  V30 END CTAB
M  END
>  <Molecule Name>
Diacetone alcohol

>  <Molecule Name 2>
Diacetone alcohol

>  <Activity>
0

$$$$
Pinacol
Actelion Java MolfileCreator 2.0

  0  0  0  0  0  0              0 V3000
M  V30 BEGIN CTAB
M  V30 COUNTS 8 7 0 0 0
M  V30 BEGIN ATOM
M  V30 1 O 0.0 0.0 0.0 0
M  V30 2 C 0.7475 -1.3004 0.0 0
M  V30 3 C -0.5529 -2.0479 0.0 0
M  V30 4 C 2.0479 -0.5529 0.0 0
M  V30 5 C 1.495 -2.6009 0.0 0
M  V30 6 O -1.3004 -0.7475 0.0 0
M  V30 7 C 0.1945 -3.3484 0.0 0
M  V30 8 C -1.8534 -2.7954 0.0 0
M  V30 END ATOM
M  V30 BEGIN BOND
M  V30 1 1 1 2
M  V30 2 1 2 3
M  V30 3 1 2 4
M  V30 4 1 2 5
M  V30 5 1 3 6
M  V30 6 1 3 7
M  V30 7 1 3 8
M  V30 END BOND
M  V30 END CTAB
M  END
>  <Molecule Name>
Pinacol

>  <Molecule Name 2>
Pinacol

>  <Activity>
0

$$$$
2-Methyl-1,3-pentanediol
Actelion Java MolfileCreator 2.0

  0  0  0  0  0  0              0 V3000
M  V30 BEGIN CTAB
M  V30 COUNTS 8 7 0 0 0
M  V30 BEGIN ATOM
M  V30 1 O 0.0 0.0 0.0 0
M  V30 2 C 0.0 1.5003 0.0 0
M  V30 3 C 1.2994 2.2445 0.0 0
M  V30 4 C -1.2994 2.2445 0.0 0
M  V30 5 C 2.5989 1.4884 0.0 0
M  V30 6 C 1.2994 3.7448 0.0 0
M  V30 7 C -2.5989 1.4884 0.0 0
M  V30 8 O 3.8984 2.2327 0.0 0
M  V30 END ATOM
M  V30 BEGIN BOND
M  V30 1 1 1 2
M  V30 2 1 2 3
M  V30 3 1 2 4
M  V30 4 1 3 5
M  V30 5 1 3 6
M  V30 6 1 4 7
M  V30 7 1 5 8
M  V30 END BOND
M  V30 END CTAB
M  END
>  <Molecule Name>
2-Methyl-1,3-pentanediol

>  <Molecule Name 2>
2-Methyl-1,3-pentanediol

>  <Activity>
0

$$$$
1,5-Hexanediol
Actelion Java MolfileCreator 2.0

  0  0  0  0  0  0              0 V3000
M  V30 BEGIN CTAB
M  V30 COUNTS 8 7 0 0 0
M  V30 BEGIN ATOM
M  V30 1 O 0.0 0.0 0.0 0
M  V30 2 C 0.0 -1.499 0.0 0 CFG=2
M  V30 3 C -1.2983 -2.2544 0.0 0
M  V30 4 C 1.2983 -2.2544 0.0 0
M  V30 5 C -2.5967 -1.5108 0.0 0
M  V30 6 C -3.895 -2.2662 0.0 0
M  V30 7 C -5.1934 -1.5226 0.0 0
M  V30 8 O -6.4918 -2.278 0.0 0
M  V30 END ATOM
M  V30 BEGIN BOND
M  V30 1 1 2 1 CFG=1
M  V30 2 1 2 3
M  V30 3 1 2 4
M  V30 4 1 3 5
M  V30 5 1 5 6
M  V30 6 1 6 7
M  V30 7 1 7 8
M  V30 END BOND
M  V30 BEGIN COLLECTION
M  V30 MDLV30/STERAC1 ATOMS=(1 2)
M  V30 END COLLECTION
M  V30 END CTAB
M  END
>  <Molecule Name>
1,5-Hexanediol

>  <Molecule Name 2>
1,5-Hexanediol

>  <Activity>
0

$$$$
delta-Bromovaleric acid
Actelion Java MolfileCreator 2.0

  0  0  0  0  0  0              0 V3000
M  V30 BEGIN CTAB
M  V30 COUNTS 8 7 0 0 0
M  V30 BEGIN ATOM
M  V30 1 Br 0.0 0.0 0.0 0
M  V30 2 C -1.299 0.744 0.0 0
M  V30 3 C -2.5981 -0.0118 0.0 0
M  V30 4 C -3.8972 0.7322 0.0 0
M  V30 5 C -5.1963 -0.0236 0.0 0
M  V30 6 C -6.4954 0.7204 0.0 0
M  V30 7 O -6.4954 2.2202 0.0 0
M  V30 8 O -7.7945 -0.0354 0.0 0
M  V30 END ATOM
M  V30 BEGIN BOND
M  V30 1 1 1 2
M  V30 2 1 2 3
M  V30 3 1 3 4
M  V30 4 1 4 5
M  V30 5 1 5 6
M  V30 6 2 6 7
M  V30 7 1 6 8
M  V30 END BOND
M  V30 END CTAB
M  END
>  <Molecule Name>
delta-Bromovaleric acid

>  <Molecule Name 2>
delta-Bromovaleric acid

>  <Activity>
0

$$$$
n-Heptaldehyde
Actelion Java MolfileCreator 2.0

  0  0  0  0  0  0              0 V3000
M  V30 BEGIN CTAB
M  V30 COUNTS 8 7 0 0 0
M  V30 BEGIN ATOM
M  V30 1 O 0.0 0.0 0.0 0
M  V30 2 C 1.3004 0.7475 0.0 0
M  V30 3 C 2.6009 0.0 0.0 0
M  V30 4 C 3.9014 0.7475 0.0 0
M  V30 5 C 5.2018 0.0 0.0 0
M  V30 6 C 6.5023 0.7475 0.0 0
M  V30 7 C 7.8028 0.0 0.0 0
M  V30 8 C 9.1032 0.7475 0.0 0
M  V30 END ATOM
M  V30 BEGIN BOND
M  V30 1 2 1 2
M  V30 2 1 2 3
M  V30 3 1 3 4
M  V30 4 1 4 5
M  V30 5 1 5 6
M  V30 6 1 6 7
M  V30 7 1 7 8
M  V30 END BOND
M  V30 END CTAB
M  END
>  <Molecule Name>
n-Heptaldehyde

>  <Molecule Name 2>
n-Heptaldehyde

>  <Activity>
0

$$$$
Methyl n-amyl ketone
Actelion Java MolfileCreator 2.0

  0  0  0  0  0  0              0 V3000
M  V30 BEGIN CTAB
M  V30 COUNTS 8 7 0 0 0
M  V30 BEGIN ATOM
M  V30 1 O 0.0 0.0 0.0 0
M  V30 2 C 0.0 -1.499 0.0 0
M  V30 3 C 1.2983 -2.2544 0.0 0
M  V30 4 C -1.2983 -2.2544 0.0 0
M  V30 5 C 2.5967 -1.5108 0.0 0
M  V30 6 C 3.895 -2.2662 0.0 0
M  V30 7 C 5.1934 -1.5226 0.0 0
M  V30 8 C 6.4918 -2.278 0.0 0
M  V30 END ATOM
M  V30 BEGIN BOND
M  V30 1 2 1 2
M  V30 2 1 2 3
M  V30 3 1 2 4
M  V30 4 1 3 5
M  V30 5 1 5 6
M  V30 6 1 6 7
M  V30 7 1 7 8
M  V30 END BOND
M  V30 END CTAB
M  END
>  <Molecule Name>
Methyl n-amyl ketone

>  <Molecule Name 2>
Methyl n-amyl ketone

>  <Activity>
0

$$$$
Heptanol-2
Actelion Java MolfileCreator 2.0

  0  0  0  0  0  0              0 V3000
M  V30 BEGIN CTAB
M  V30 COUNTS 8 7 0 0 0
M  V30 BEGIN ATOM
M  V30 1 O 0.0 0.0 0.0 0
M  V30 2 C -1.299 0.744 0.0 0
M  V30 3 C -2.5981 -0.0118 0.0 0
M  V30 4 C -1.299 2.2438 0.0 0
M  V30 5 C -3.8972 0.7322 0.0 0
M  V30 6 C -5.1963 -0.0236 0.0 0
M  V30 7 C -6.4954 0.7204 0.0 0
M  V30 8 C -7.7945 -0.0354 0.0 0
M  V30 END ATOM
M  V30 BEGIN BOND
M  V30 1 1 1 2
M  V30 2 1 2 3
M  V30 3 1 2 4
M  V30 4 1 3 5
M  V30 5 1 5 6
M  V30 6 1 6 7
M  V30 7 1 7 8
M  V30 END BOND
M  V30 END CTAB
M  END
>  <Molecule Name>
Heptanol-2

>  <Molecule Name 2>
Heptanol-2

>  <Activity>
0

$$$$
2-Hydroxyvaleric acid
Actelion Java MolfileCreator 2.0

  0  0  0  0  0  0              0 V3000
M  V30 BEGIN CTAB
M  V30 COUNTS 8 7 0 0 0
M  V30 BEGIN ATOM
M  V30 1 O 0.0 0.0 0.0 0
M  V30 2 C -1.2987 -0.7556 0.0 0
M  V30 3 O -1.2987 -2.255 0.0 0
M  V30 4 C -2.5974 -0.0118 0.0 0 CFG=1
M  V30 5 O -2.5974 1.4876 0.0 0
M  V30 6 C -3.8962 -0.7674 0.0 0
M  V30 7 C -5.1949 -0.0236 0.0 0
M  V30 8 C -6.4937 -0.7792 0.0 0
M  V30 END ATOM
M  V30 BEGIN BOND
M  V30 1 2 1 2
M  V30 2 1 2 3
M  V30 3 1 2 4
M  V30 4 1 4 5 CFG=3
M  V30 5 1 4 6
M  V30 6 1 6 7
M  V30 7 1 7 8
M  V30 END BOND
M  V30 BEGIN COLLECTION
M  V30 MDLV30/STERAC1 ATOMS=(1 4)
M  V30 END COLLECTION
M  V30 END CTAB
M  END
>  <Molecule Name>
2-Hydroxyvaleric acid

>  <Molecule Name 2>
2-Hydroxyvaleric acid

>  <Activity>
0

$$$$
Acetoacetic acid, methyl ester
Actelion Java MolfileCreator 2.0

  0  0  0  0  0  0              0 V3000
M  V30 BEGIN CTAB
M  V30 COUNTS 8 7 0 0 0
M  V30 BEGIN ATOM
M  V30 1 O 0.0 0.0 0.0 0
M  V30 2 C 0.0 1.5003 0.0 0
M  V30 3 O -1.2994 2.2445 0.0 0
M  V30 4 C 1.2994 2.2445 0.0 0
M  V30 5 C -2.5989 1.4884 0.0 0
M  V30 6 C 2.5989 1.4884 0.0 0
M  V30 7 O 3.8984 2.2327 0.0 0
M  V30 8 C 2.5989 -0.0118 0.0 0
M  V30 END ATOM
M  V30 BEGIN BOND
M  V30 1 2 1 2
M  V30 2 1 2 3
M  V30 3 1 2 4
M  V30 4 1 3 5
M  V30 5 1 4 6
M  V30 6 2 6 7
M  V30 7 1 6 8
M  V30 END BOND
M  V30 END CTAB
M  END
>  <Molecule Name>
Acetoacetic acid, methyl ester

>  <Molecule Name 2>
Acetoacetic acid, methyl ester

>  <Activity>
0

$$$$
Acetoxyacetone
Actelion Java MolfileCreator 2.0

  0  0  0  0  0  0              0 V3000
M  V30 BEGIN CTAB
M  V30 COUNTS 8 7 0 0 0
M  V30 BEGIN ATOM
M  V30 1 O 0.0 0.0 0.0 0
M  V30 2 C 0.0 1.5003 0.0 0
M  V30 3 O -1.2994 2.2445 0.0 0
M  V30 4 C 1.2994 2.2445 0.0 0
M  V30 5 C -2.5989 1.4884 0.0 0
M  V30 6 C -3.8984 2.2327 0.0 0
M  V30 7 O -5.1979 1.4766 0.0 0
M  V30 8 C -3.8984 3.733 0.0 0
M  V30 END ATOM
M  V30 BEGIN BOND
M  V30 1 2 1 2
M  V30 2 1 2 3
M  V30 3 1 2 4
M  V30 4 1 3 5
M  V30 5 1 5 6
M  V30 6 2 6 7
M  V30 7 1 6 8
M  V30 END BOND
M  V30 END CTAB
M  END
>  <Molecule Name>
Acetoxyacetone

>  <Molecule Name 2>
Acetoxyacetone

>  <Activity>
0

$$$$
Levulinic acid
Actelion Java MolfileCreator 2.0

  0  0  0  0  0  0              0 V3000
M  V30 BEGIN CTAB
M  V30 COUNTS 8 7 0 0 0
M  V30 BEGIN ATOM
M  V30 1 O 0.0 0.0 0.0 0
M  V30 2 C 0.0 -1.4994 0.0 0
M  V30 3 O -1.2987 -2.255 0.0 0
M  V30 4 C 1.2987 -2.255 0.0 0
M  V30 5 C 2.5974 -1.5112 0.0 0
M  V30 6 C 3.8962 -2.2669 0.0 0
M  V30 7 O 5.1949 -1.523 0.0 0
M  V30 8 C 3.8962 -3.7663 0.0 0
M  V30 END ATOM
M  V30 BEGIN BOND
M  V30 1 2 1 2
M  V30 2 1 2 3
M  V30 3 1 2 4
M  V30 4 1 4 5
M  V30 5 1 5 6
M  V30 6 2 6 7
M  V30 7 1 6 8
M  V30 END BOND
M  V30 END CTAB
M  END
>  <Molecule Name>
Levulinic acid

>  <Molecule Name 2>
Levulinic acid

>  <Activity>
0

$$$$
Pyruvic acid, ethyl ester
Actelion Java MolfileCreator 2.0

  0  0  0  0  0  0              0 V3000
M  V30 BEGIN CTAB
M  V30 COUNTS 8 7 0 0 0
M  V30 BEGIN ATOM
M  V30 1 O 0.0 0.0 0.0 0
M  V30 2 C 0.0 -1.4994 0.0 0
M  V30 3 O -1.2987 -2.255 0.0 0
M  V30 4 C 1.2987 -2.255 0.0 0
M  V30 5 C -2.5974 -1.5112 0.0 0
M  V30 6 O 2.5974 -1.5112 0.0 0
M  V30 7 C 1.2987 -3.7545 0.0 0
M  V30 8 C -3.8962 -2.2669 0.0 0
M  V30 END ATOM
M  V30 BEGIN BOND
M  V30 1 2 1 2
M  V30 2 1 2 3
M  V30 3 1 2 4
M  V30 4 1 3 5
M  V30 5 2 4 6
M  V30 6 1 4 7
M  V30 7 1 5 8
M  V30 END BOND
M  V30 END CTAB
M  END
>  <Molecule Name>
Pyruvic acid, ethyl ester

>  <Molecule Name 2>
Pyruvic acid, ethyl ester

>  <Activity>
0

$$$$
Adiponitrile
Actelion Java MolfileCreator 2.0

  0  0  0  0  0  0              0 V3000
M  V30 BEGIN CTAB
M  V30 COUNTS 8 7 0 0 0
M  V30 BEGIN ATOM
M  V30 1 N 0.0 0.0 0.0 0
M  V30 2 C 0.0 -1.4995 0.0 0
M  V30 3 C 0.0 -2.999 0.0 0
M  V30 4 C -1.2987 -3.7546 0.0 0
M  V30 5 C -2.5975 -3.0108 0.0 0
M  V30 6 C -3.8963 -3.7664 0.0 0
M  V30 7 C -3.8963 -5.2659 0.0 0
M  V30 8 N -3.8963 -6.7655 0.0 0
M  V30 END ATOM
M  V30 BEGIN BOND
M  V30 1 3 1 2
M  V30 2 1 2 3
M  V30 3 1 3 4
M  V30 4 1 4 5
M  V30 5 1 5 6
M  V30 6 1 6 7
M  V30 7 3 7 8
M  V30 END BOND
M  V30 END CTAB
M  END
>  <Molecule Name>
Adiponitrile

>  <Molecule Name 2>
Adiponitrile

>  <Activity>
0

$$$$
N,N-Dimethyl methoxyacetamide
Actelion Java MolfileCreator 2.0

  0  0  0  0  0  0              0 V3000
M  V30 BEGIN CTAB
M  V30 COUNTS 8 7 0 0 0
M  V30 BEGIN ATOM
M  V30 1 O 0.0 0.0 0.0 0
M  V30 2 C 0.0 1.5003 0.0 0
M  V30 3 N -1.2994 2.2445 0.0 0
M  V30 4 C 1.2994 2.2445 0.0 0
M  V30 5 C -1.2994 3.7448 0.0 0
M  V30 6 C -2.5989 1.4884 0.0 0
M  V30 7 O 2.5989 1.4884 0.0 0
M  V30 8 C 3.8984 2.2327 0.0 0
M  V30 END ATOM
M  V30 BEGIN BOND
M  V30 1 2 1 2
M  V30 2 1 2 3
M  V30 3 1 2 4
M  V30 4 1 3 5
M  V30 5 1 3 6
M  V30 6 1 4 7
M  V30 7 1 7 8
M  V30 END BOND
M  V30 END CTAB
M  END
>  <Molecule Name>
N,N-Dimethyl methoxyacetamide

>  <Molecule Name 2>
N,N-Dimethyl methoxyacetamide

>  <Activity>
0

$$$$
N-iso-Propylpropionamide
Actelion Java MolfileCreator 2.0

  0  0  0  0  0  0              0 V3000
M  V30 BEGIN CTAB
M  V30 COUNTS 8 7 0 0 0
M  V30 BEGIN ATOM
M  V30 1 O 0.0 0.0 0.0 0
M  V30 2 C 0.0 1.5003 0.0 0
M  V30 3 N 1.2994 2.2445 0.0 0
M  V30 4 C -1.2994 2.2445 0.0 0
M  V30 5 C 2.5989 1.4884 0.0 0
M  V30 6 C -2.5989 1.4884 0.0 0
M  V30 7 C 3.8984 2.2327 0.0 0
M  V30 8 C 2.5989 -0.0118 0.0 0
M  V30 END ATOM
M  V30 BEGIN BOND
M  V30 1 2 1 2
M  V30 2 1 2 3
M  V30 3 1 2 4
M  V30 4 1 3 5
M  V30 5 1 4 6
M  V30 6 1 5 7
M  V30 7 1 5 8
M  V30 END BOND
M  V30 END CTAB
M  END
>  <Molecule Name>
N-iso-Propylpropionamide

>  <Molecule Name 2>
N-iso-Propylpropionamide

>  <Activity>
0

$$$$
N,N-Diethylacetamide
Actelion Java MolfileCreator 2.0

  0  0  0  0  0  0              0 V3000
M  V30 BEGIN CTAB
M  V30 COUNTS 8 7 0 0 0
M  V30 BEGIN ATOM
M  V30 1 O 0.0 0.0 0.0 0
M  V30 2 C -1.299 0.744 0.0 0
M  V30 3 N -1.299 2.2438 0.0 0
M  V30 4 C -2.5981 -0.0118 0.0 0
M  V30 5 C 0.0 2.9879 0.0 0
M  V30 6 C -2.5981 2.9879 0.0 0
M  V30 7 C 1.299 2.232 0.0 0
M  V30 8 C -3.8972 2.232 0.0 0
M  V30 END ATOM
M  V30 BEGIN BOND
M  V30 1 2 1 2
M  V30 2 1 2 3
M  V30 3 1 2 4
M  V30 4 1 3 5
M  V30 5 1 3 6
M  V30 6 1 5 7
M  V30 7 1 6 8
M  V30 END BOND
M  V30 END CTAB
M  END
>  <Molecule Name>
N,N-Diethylacetamide

>  <Molecule Name 2>
N,N-Diethylacetamide

>  <Activity>
0

$$$$
1,1,2,3-Tetrachloro-3,3-difluoropropane
Actelion Java MolfileCreator 2.0

  0  0  0  0  0  0              0 V3000
M  V30 BEGIN CTAB
M  V30 COUNTS 9 8 0 0 0
M  V30 BEGIN ATOM
M  V30 1 Cl 0.0 0.0 0.0 0
M  V30 2 C -1.4995 0.0 0.0 0
M  V30 3 F -2.9991 0.0 0.0 0
M  V30 4 F -1.4995 1.4995 0.0 0
M  V30 5 C -1.4995 -1.4995 0.0 0 CFG=1
M  V30 6 Cl -2.7984 -2.2552 0.0 0
M  V30 7 C -0.2007 -2.2552 0.0 0
M  V30 8 Cl 1.0981 -1.5113 0.0 0
M  V30 9 Cl -0.2007 -3.7548 0.0 0
M  V30 END ATOM
M  V30 BEGIN BOND
M  V30 1 1 1 2
M  V30 2 1 2 3
M  V30 3 1 2 4
M  V30 4 1 2 5
M  V30 5 1 5 6 CFG=3
M  V30 6 1 5 7
M  V30 7 1 7 8
M  V30 8 1 7 9
M  V30 END BOND
M  V30 BEGIN COLLECTION
M  V30 MDLV30/STERAC1 ATOMS=(1 5)
M  V30 END COLLECTION
M  V30 END CTAB
M  END
>  <Molecule Name>
1,1,2,3-Tetrachloro-3,3-difluoropropane

>  <Molecule Name 2>
1,1,2,3-Tetrachloro-3,3-difluoropropane

>  <Activity>
0

$$$$
Malonic acid, dimethyl ester
Actelion Java MolfileCreator 2.0

  0  0  0  0  0  0              0 V3000
M  V30 BEGIN CTAB
M  V30 COUNTS 9 8 0 0 0
M  V30 BEGIN ATOM
M  V30 1 O 0.0 0.0 0.0 0
M  V30 2 C 0.0 1.4998 0.0 0
M  V30 3 O 1.2991 2.2439 0.0 0
M  V30 4 C -1.2991 2.2439 0.0 0
M  V30 5 C 2.5982 1.488 0.0 0
M  V30 6 C -2.5982 1.488 0.0 0
M  V30 7 O -2.5982 -0.0118 0.0 0
M  V30 8 O -3.8973 2.2321 0.0 0
M  V30 9 C -5.1964 1.4762 0.0 0
M  V30 END ATOM
M  V30 BEGIN BOND
M  V30 1 2 1 2
M  V30 2 1 2 3
M  V30 3 1 2 4
M  V30 4 1 3 5
M  V30 5 1 4 6
M  V30 6 2 6 7
M  V30 7 1 6 8
M  V30 8 1 8 9
M  V30 END BOND
M  V30 END CTAB
M  END
>  <Molecule Name>
Malonic acid, dimethyl ester

>  <Molecule Name 2>
Malonic acid, dimethyl ester

>  <Activity>
0

$$$$
Glycolic acid, beta-methoxyethyl ester
Actelion Java MolfileCreator 2.0

  0  0  0  0  0  0              0 V3000
M  V30 BEGIN CTAB
M  V30 COUNTS 9 8 0 0 0
M  V30 BEGIN ATOM
M  V30 1 O 0.0 0.0 0.0 0
M  V30 2 C 0.0 -1.4994 0.0 0
M  V30 3 O -1.2987 -2.2551 0.0 0
M  V30 4 C 1.2987 -2.2551 0.0 0
M  V30 5 C -2.5975 -1.5112 0.0 0
M  V30 6 O 2.5975 -1.5112 0.0 0
M  V30 7 C -3.8963 -2.2669 0.0 0
M  V30 8 O -5.195 -1.5231 0.0 0
M  V30 9 C -6.4938 -2.2787 0.0 0
M  V30 END ATOM
M  V30 BEGIN BOND
M  V30 1 2 1 2
M  V30 2 1 2 3
M  V30 3 1 2 4
M  V30 4 1 3 5
M  V30 5 1 4 6
M  V30 6 1 5 7
M  V30 7 1 7 8
M  V30 8 1 8 9
M  V30 END BOND
M  V30 END CTAB
M  END
>  <Molecule Name>
Glycolic acid, beta-methoxyethyl ester

>  <Molecule Name 2>
Glycolic acid, beta-methoxyethyl ester

>  <Activity>
0

$$$$
Valeric acid, ethyl ester
Actelion Java MolfileCreator 2.0

  0  0  0  0  0  0              0 V3000
M  V30 BEGIN CTAB
M  V30 COUNTS 9 8 0 0 0
M  V30 BEGIN ATOM
M  V30 1 O 0.0 0.0 0.0 0
M  V30 2 C 0.0 -1.4994 0.0 0
M  V30 3 O -1.2987 -2.2551 0.0 0
M  V30 4 C 1.2987 -2.2551 0.0 0
M  V30 5 C -2.5975 -1.5112 0.0 0
M  V30 6 C 2.5975 -1.5112 0.0 0
M  V30 7 C -3.8963 -2.2669 0.0 0
M  V30 8 C 3.8963 -2.2669 0.0 0
M  V30 9 C 5.195 -1.5231 0.0 0
M  V30 END ATOM
M  V30 BEGIN BOND
M  V30 1 2 1 2
M  V30 2 1 2 3
M  V30 3 1 2 4
M  V30 4 1 3 5
M  V30 5 1 4 6
M  V30 6 1 5 7
M  V30 7 1 6 8
M  V30 8 1 8 9
M  V30 END BOND
M  V30 END CTAB
M  END
>  <Molecule Name>
Valeric acid, ethyl ester

>  <Molecule Name 2>
Valeric acid, ethyl ester

>  <Activity>
0

$$$$
Acetic acid, amyl ester
Actelion Java MolfileCreator 2.0

  0  0  0  0  0  0              0 V3000
M  V30 BEGIN CTAB
M  V30 COUNTS 9 8 0 0 0
M  V30 BEGIN ATOM
M  V30 1 O 0.0 0.0 0.0 0
M  V30 2 C 0.0 1.4972 0.0 0
M  V30 3 O -1.2968 2.2518 0.0 0
M  V30 4 C 1.2968 2.2518 0.0 0
M  V30 5 C -2.5937 1.4972 0.0 0
M  V30 6 C -3.8905 2.2518 0.0 0
M  V30 7 C -5.1874 1.4972 0.0 0
M  V30 8 C -6.4842 2.2518 0.0 0
M  V30 9 C -7.7811 1.4972 0.0 0
M  V30 END ATOM
M  V30 BEGIN BOND
M  V30 1 2 1 2
M  V30 2 1 2 3
M  V30 3 1 2 4
M  V30 4 1 3 5
M  V30 5 1 5 6
M  V30 6 1 6 7
M  V30 7 1 7 8
M  V30 8 1 8 9
M  V30 END BOND
M  V30 END CTAB
M  END
>  <Molecule Name>
Acetic acid, amyl ester

>  <Molecule Name 2>
Acetic acid, amyl ester

>  <Activity>
0

$$$$
Acetic acid, iso-amyl ester
Actelion Java MolfileCreator 2.0

  0  0  0  0  0  0              0 V3000
M  V30 BEGIN CTAB
M  V30 COUNTS 9 8 0 0 0
M  V30 BEGIN ATOM
M  V30 1 O 0.0 0.0 0.0 0
M  V30 2 C 0.0 -1.4991 0.0 0
M  V30 3 O -1.2984 -2.2546 0.0 0
M  V30 4 C 1.2984 -2.2546 0.0 0
M  V30 5 C -2.5969 -1.5109 0.0 0
M  V30 6 C -3.8954 -2.2664 0.0 0
M  V30 7 C -5.1938 -1.5227 0.0 0
M  V30 8 C -5.1938 -0.0236 0.0 0
M  V30 9 C -6.4923 -2.2782 0.0 0
M  V30 END ATOM
M  V30 BEGIN BOND
M  V30 1 2 1 2
M  V30 2 1 2 3
M  V30 3 1 2 4
M  V30 4 1 3 5
M  V30 5 1 5 6
M  V30 6 1 6 7
M  V30 7 1 7 8
M  V30 8 1 7 9
M  V30 END BOND
M  V30 END CTAB
M  END
>  <Molecule Name>
Acetic acid, iso-amyl ester

>  <Molecule Name 2>
Acetic acid, iso-amyl ester

>  <Activity>
0

$$$$
2-Ethylhexanol
Actelion Java MolfileCreator 2.0

  0  0  0  0  0  0              0 V3000
M  V30 BEGIN CTAB
M  V30 COUNTS 9 8 0 0 0
M  V30 BEGIN ATOM
M  V30 1 O 0.0 0.0 0.0 0
M  V30 2 C -1.2994 0.7442 0.0 0
M  V30 3 C -1.2994 2.2444 0.0 0 CFG=2
M  V30 4 C -2.5988 2.9886 0.0 0
M  V30 5 C 0.0 2.9886 0.0 0
M  V30 6 C -3.8982 2.2326 0.0 0
M  V30 7 C 1.2994 2.2326 0.0 0
M  V30 8 C -5.1976 2.9768 0.0 0
M  V30 9 C -6.497 2.2208 0.0 0
M  V30 END ATOM
M  V30 BEGIN BOND
M  V30 1 1 1 2
M  V30 2 1 3 2 CFG=3
M  V30 3 1 3 4
M  V30 4 1 3 5
M  V30 5 1 4 6
M  V30 6 1 5 7
M  V30 7 1 6 8
M  V30 8 1 8 9
M  V30 END BOND
M  V30 BEGIN COLLECTION
M  V30 MDLV30/STERAC1 ATOMS=(1 3)
M  V30 END COLLECTION
M  V30 END CTAB
M  END
>  <Molecule Name>
2-Ethylhexanol

>  <Molecule Name 2>
2-Ethylhexanol

>  <Activity>
0

$$$$
Methyl heptenone
Actelion Java MolfileCreator 2.0

  0  0  0  0  0  0              0 V3000
M  V30 BEGIN CTAB
M  V30 COUNTS 9 8 0 0 0
M  V30 BEGIN ATOM
M  V30 1 O 0.0 0.0 0.0 0
M  V30 2 C 0.0 -1.4994 0.0 0
M  V30 3 C -1.2987 -2.2551 0.0 0
M  V30 4 C 1.2987 -2.2551 0.0 0
M  V30 5 C -2.5975 -1.5112 0.0 0
M  V30 6 C 2.5975 -1.5112 0.0 0
M  V30 7 C -3.8963 -2.2669 0.0 0
M  V30 8 C -5.195 -1.5231 0.0 0
M  V30 9 C -6.4938 -2.2787 0.0 0
M  V30 END ATOM
M  V30 BEGIN BOND
M  V30 1 2 1 2
M  V30 2 1 2 3
M  V30 3 1 2 4
M  V30 4 2 3 5 CFG=2
M  V30 5 1 4 6
M  V30 6 1 5 7
M  V30 7 1 7 8
M  V30 8 1 8 9
M  V30 END BOND
M  V30 END CTAB
M  END
>  <Molecule Name>
Methyl heptenone

>  <Molecule Name 2>
Methyl heptenone

>  <Activity>
0

$$$$
Methyl hexyl ketone
Actelion Java MolfileCreator 2.0

  0  0  0  0  0  0              0 V3000
M  V30 BEGIN CTAB
M  V30 COUNTS 9 8 0 0 0
M  V30 BEGIN ATOM
M  V30 1 O 0.0 0.0 0.0 0
M  V30 2 C 0.0 -1.4994 0.0 0
M  V30 3 C 1.2987 -2.2551 0.0 0
M  V30 4 C -1.2987 -2.2551 0.0 0
M  V30 5 C 2.5975 -1.5112 0.0 0
M  V30 6 C 3.8963 -2.2669 0.0 0
M  V30 7 C 5.195 -1.5231 0.0 0
M  V30 8 C 6.4938 -2.2787 0.0 0
M  V30 9 C 7.7926 -1.5349 0.0 0
M  V30 END ATOM
M  V30 BEGIN BOND
M  V30 1 2 1 2
M  V30 2 1 2 3
M  V30 3 1 2 4
M  V30 4 1 3 5
M  V30 5 1 5 6
M  V30 6 1 6 7
M  V30 7 1 7 8
M  V30 8 1 8 9
M  V30 END BOND
M  V30 END CTAB
M  END
>  <Molecule Name>
Methyl hexyl ketone

>  <Molecule Name 2>
Methyl hexyl ketone

>  <Activity>
0

$$$$
Butyric acid, beta-hydroxyethyl ester
Actelion Java MolfileCreator 2.0

  0  0  0  0  0  0              0 V3000
M  V30 BEGIN CTAB
M  V30 COUNTS 9 8 0 0 0
M  V30 BEGIN ATOM
M  V30 1 O 0.0 0.0 0.0 0
M  V30 2 C 0.0 1.5002 0.0 0
M  V30 3 O -1.2994 2.2444 0.0 0
M  V30 4 C 1.2994 2.2444 0.0 0
M  V30 5 C -2.5988 1.4884 0.0 0
M  V30 6 C 2.5988 1.4884 0.0 0
M  V30 7 C -3.8982 2.2326 0.0 0
M  V30 8 C 3.8982 2.2326 0.0 0
M  V30 9 O -5.1976 1.4766 0.0 0
M  V30 END ATOM
M  V30 BEGIN BOND
M  V30 1 2 1 2
M  V30 2 1 2 3
M  V30 3 1 2 4
M  V30 4 1 3 5
M  V30 5 1 4 6
M  V30 6 1 5 7
M  V30 7 1 6 8
M  V30 8 1 7 9
M  V30 END BOND
M  V30 END CTAB
M  END
>  <Molecule Name>
Butyric acid, beta-hydroxyethyl ester

>  <Molecule Name 2>
Butyric acid, beta-hydroxyethyl ester

>  <Activity>
0

$$$$
Acetic acid, beta-ethoxyethyl ester
Actelion Java MolfileCreator 2.0

  0  0  0  0  0  0              0 V3000
M  V30 BEGIN CTAB
M  V30 COUNTS 9 8 0 0 0
M  V30 BEGIN ATOM
M  V30 1 O 0.0 0.0 0.0 0
M  V30 2 C 0.0 1.4972 0.0 0
M  V30 3 O -1.2968 2.2518 0.0 0
M  V30 4 C 1.2968 2.2518 0.0 0
M  V30 5 C -2.5937 1.4972 0.0 0
M  V30 6 C -3.8905 2.2518 0.0 0
M  V30 7 O -5.1874 1.4972 0.0 0
M  V30 8 C -6.4842 2.2518 0.0 0
M  V30 9 C -7.7811 1.4972 0.0 0
M  V30 END ATOM
M  V30 BEGIN BOND
M  V30 1 2 1 2
M  V30 2 1 2 3
M  V30 3 1 2 4
M  V30 4 1 3 5
M  V30 5 1 5 6
M  V30 6 1 6 7
M  V30 7 1 7 8
M  V30 8 1 8 9
M  V30 END BOND
M  V30 END CTAB
M  END
>  <Molecule Name>
Acetic acid, beta-ethoxyethyl ester

>  <Molecule Name 2>
Acetic acid, beta-ethoxyethyl ester

>  <Activity>
0

$$$$
Glycolic acid, sec-butyl ester
Actelion Java MolfileCreator 2.0

  0  0  0  0  0  0              0 V3000
M  V30 BEGIN CTAB
M  V30 COUNTS 9 8 0 0 0
M  V30 BEGIN ATOM
M  V30 1 O 0.0 0.0 0.0 0
M  V30 2 C 0.0 1.4998 0.0 0
M  V30 3 O -1.2991 2.2439 0.0 0
M  V30 4 C 1.2991 2.2439 0.0 0
M  V30 5 C -2.5982 1.488 0.0 0 CFG=2
M  V30 6 O 2.5982 1.488 0.0 0
M  V30 7 C -3.8973 2.2321 0.0 0
M  V30 8 C -2.5982 -0.0118 0.0 0
M  V30 9 C -5.1964 1.4762 0.0 0
M  V30 END ATOM
M  V30 BEGIN BOND
M  V30 1 2 1 2
M  V30 2 1 2 3
M  V30 3 1 2 4
M  V30 4 1 3 5
M  V30 5 1 4 6
M  V30 6 1 5 7
M  V30 7 1 5 8 CFG=1
M  V30 8 1 7 9
M  V30 END BOND
M  V30 BEGIN COLLECTION
M  V30 MDLV30/STERAC1 ATOMS=(1 5)
M  V30 END COLLECTION
M  V30 END CTAB
M  END
>  <Molecule Name>
Glycolic acid, sec-butyl ester

>  <Molecule Name 2>
Glycolic acid, sec-butyl ester

>  <Activity>
0

$$$$
Glycolic acid, butyl ester
Actelion Java MolfileCreator 2.0

  0  0  0  0  0  0              0 V3000
M  V30 BEGIN CTAB
M  V30 COUNTS 9 8 0 0 0
M  V30 BEGIN ATOM
M  V30 1 O 0.0 0.0 0.0 0
M  V30 2 C 0.0 -1.4994 0.0 0
M  V30 3 O -1.2987 -2.2551 0.0 0
M  V30 4 C 1.2987 -2.2551 0.0 0
M  V30 5 C -2.5975 -1.5112 0.0 0
M  V30 6 O 2.5975 -1.5112 0.0 0
M  V30 7 C -3.8963 -2.2669 0.0 0
M  V30 8 C -5.195 -1.5231 0.0 0
M  V30 9 C -6.4938 -2.2787 0.0 0
M  V30 END ATOM
M  V30 BEGIN BOND
M  V30 1 2 1 2
M  V30 2 1 2 3
M  V30 3 1 2 4
M  V30 4 1 3 5
M  V30 5 1 4 6
M  V30 6 1 5 7
M  V30 7 1 7 8
M  V30 8 1 8 9
M  V30 END BOND
M  V30 END CTAB
M  END
>  <Molecule Name>
Glycolic acid, butyl ester

>  <Molecule Name 2>
Glycolic acid, butyl ester

>  <Activity>
0

$$$$
Glycolic acid, iso-butyl ester
Actelion Java MolfileCreator 2.0

  0  0  0  0  0  0              0 V3000
M  V30 BEGIN CTAB
M  V30 COUNTS 9 8 0 0 0
M  V30 BEGIN ATOM
M  V30 1 O 0.0 0.0 0.0 0
M  V30 2 C 0.0 1.4998 0.0 0
M  V30 3 O -1.2991 2.2439 0.0 0
M  V30 4 C 1.2991 2.2439 0.0 0
M  V30 5 C -2.5982 1.488 0.0 0
M  V30 6 O 2.5982 1.488 0.0 0
M  V30 7 C -3.8973 2.2321 0.0 0
M  V30 8 C -3.8973 3.7319 0.0 0
M  V30 9 C -5.1964 1.4762 0.0 0
M  V30 END ATOM
M  V30 BEGIN BOND
M  V30 1 2 1 2
M  V30 2 1 2 3
M  V30 3 1 2 4
M  V30 4 1 3 5
M  V30 5 1 4 6
M  V30 6 1 5 7
M  V30 7 1 7 8
M  V30 8 1 7 9
M  V30 END BOND
M  V30 END CTAB
M  END
>  <Molecule Name>
Glycolic acid, iso-butyl ester

>  <Molecule Name 2>
Glycolic acid, iso-butyl ester

>  <Activity>
0

$$$$
Lactic acid, iso-propyl ester
Actelion Java MolfileCreator 2.0

  0  0  0  0  0  0              0 V3000
M  V30 BEGIN CTAB
M  V30 COUNTS 9 8 0 0 0
M  V30 BEGIN ATOM
M  V30 1 O 0.0 0.0 0.0 0
M  V30 2 C 0.0 -1.4995 0.0 0
M  V30 3 O -1.2988 -2.2552 0.0 0
M  V30 4 C 1.2988 -2.2552 0.0 0 CFG=1
M  V30 5 C -2.5976 -1.5113 0.0 0
M  V30 6 O 2.5976 -1.5113 0.0 0
M  V30 7 C 1.2988 -3.7547 0.0 0
M  V30 8 C -2.5976 -0.0118 0.0 0
M  V30 9 C -3.8964 -2.267 0.0 0
M  V30 END ATOM
M  V30 BEGIN BOND
M  V30 1 2 1 2
M  V30 2 1 2 3
M  V30 3 1 2 4
M  V30 4 1 3 5
M  V30 5 1 4 6 CFG=1
M  V30 6 1 4 7
M  V30 7 1 5 8
M  V30 8 1 5 9
M  V30 END BOND
M  V30 BEGIN COLLECTION
M  V30 MDLV30/STERAC1 ATOMS=(1 4)
M  V30 END COLLECTION
M  V30 END CTAB
M  END
>  <Molecule Name>
Lactic acid, iso-propyl ester

>  <Molecule Name 2>
Lactic acid, iso-propyl ester

>  <Activity>
0

$$$$
Acetoacetic acid, ethyl ester
Actelion Java MolfileCreator 2.0

  0  0  0  0  0  0              0 V3000
M  V30 BEGIN CTAB
M  V30 COUNTS 9 8 0 0 0
M  V30 BEGIN ATOM
M  V30 1 O 0.0 0.0 0.0 0
M  V30 2 C 0.0 -1.4991 0.0 0
M  V30 3 O -1.2984 -2.2546 0.0 0
M  V30 4 C 1.2984 -2.2546 0.0 0
M  V30 5 C -2.5969 -1.5109 0.0 0
M  V30 6 C 2.5969 -1.5109 0.0 0
M  V30 7 C -3.8954 -2.2664 0.0 0
M  V30 8 O 3.8954 -2.2664 0.0 0
M  V30 9 C 2.5969 -0.0118 0.0 0
M  V30 END ATOM
M  V30 BEGIN BOND
M  V30 1 2 1 2
M  V30 2 1 2 3
M  V30 3 1 2 4
M  V30 4 1 3 5
M  V30 5 1 4 6
M  V30 6 1 5 7
M  V30 7 2 6 8
M  V30 8 1 6 9
M  V30 END BOND
M  V30 END CTAB
M  END
>  <Molecule Name>
Acetoacetic acid, ethyl ester

>  <Molecule Name 2>
Acetoacetic acid, ethyl ester

>  <Activity>
0

$$$$
beta-Methoxypropionic acid, ethyl ester
Actelion Java MolfileCreator 2.0

  0  0  0  0  0  0              0 V3000
M  V30 BEGIN CTAB
M  V30 COUNTS 9 8 0 0 0
M  V30 BEGIN ATOM
M  V30 1 O 0.0 0.0 0.0 0
M  V30 2 C 0.0 -1.4994 0.0 0
M  V30 3 O -1.2987 -2.2551 0.0 0
M  V30 4 C 1.2987 -2.2551 0.0 0
M  V30 5 C -2.5975 -1.5112 0.0 0
M  V30 6 C 2.5975 -1.5112 0.0 0
M  V30 7 C -3.8963 -2.2669 0.0 0
M  V30 8 O 3.8963 -2.2669 0.0 0
M  V30 9 C 5.195 -1.5231 0.0 0
M  V30 END ATOM
M  V30 BEGIN BOND
M  V30 1 2 1 2
M  V30 2 1 2 3
M  V30 3 1 2 4
M  V30 4 1 3 5
M  V30 5 1 4 6
M  V30 6 1 5 7
M  V30 7 1 6 8
M  V30 8 1 8 9
M  V30 END BOND
M  V30 END CTAB
M  END
>  <Molecule Name>
beta-Methoxypropionic acid, ethyl ester

>  <Molecule Name 2>
beta-Methoxypropionic acid, ethyl ester

>  <Activity>
0

$$$$
Levulinic acid, methyl ester
Actelion Java MolfileCreator 2.0

  0  0  0  0  0  0              0 V3000
M  V30 BEGIN CTAB
M  V30 COUNTS 9 8 0 0 0
M  V30 BEGIN ATOM
M  V30 1 O 0.0 0.0 0.0 0
M  V30 2 C 0.0 1.4998 0.0 0
M  V30 3 O -1.2991 2.2439 0.0 0
M  V30 4 C 1.2991 2.2439 0.0 0
M  V30 5 C -2.5982 1.488 0.0 0
M  V30 6 C 2.5982 1.488 0.0 0
M  V30 7 C 3.8973 2.2321 0.0 0
M  V30 8 O 5.1964 1.4762 0.0 0
M  V30 9 C 3.8973 3.7319 0.0 0
M  V30 END ATOM
M  V30 BEGIN BOND
M  V30 1 2 1 2
M  V30 2 1 2 3
M  V30 3 1 2 4
M  V30 4 1 3 5
M  V30 5 1 4 6
M  V30 6 1 6 7
M  V30 7 2 7 8
M  V30 8 1 7 9
M  V30 END BOND
M  V30 END CTAB
M  END
>  <Molecule Name>
Levulinic acid, methyl ester

>  <Molecule Name 2>
Levulinic acid, methyl ester

>  <Activity>
0

$$$$
beta-Diethylaminopropionitrile
Actelion Java MolfileCreator 2.0

  0  0  0  0  0  0              0 V3000
M  V30 BEGIN CTAB
M  V30 COUNTS 9 8 0 0 0
M  V30 BEGIN ATOM
M  V30 1 N 0.0 0.0 0.0 0
M  V30 2 C -1.2987 -0.7556 0.0 0
M  V30 3 C -2.5975 -1.5112 0.0 0
M  V30 4 C -3.8963 -0.7674 0.0 0
M  V30 5 N -3.8963 0.732 0.0 0
M  V30 6 C -2.5975 1.4758 0.0 0
M  V30 7 C -5.195 1.4758 0.0 0
M  V30 8 C -1.2987 0.7202 0.0 0
M  V30 9 C -6.4938 0.7202 0.0 0
M  V30 END ATOM
M  V30 BEGIN BOND
M  V30 1 3 1 2
M  V30 2 1 2 3
M  V30 3 1 3 4
M  V30 4 1 4 5
M  V30 5 1 5 6
M  V30 6 1 5 7
M  V30 7 1 6 8
M  V30 8 1 7 9
M  V30 END BOND
M  V30 END CTAB
M  END
>  <Molecule Name>
beta-Diethylaminopropionitrile

>  <Molecule Name 2>
beta-Diethylaminopropionitrile

>  <Activity>
0

$$$$
2,3-Dimethyl-2-hexenenitrile
Actelion Java MolfileCreator 2.0

  0  0  0  0  0  0              0 V3000
M  V30 BEGIN CTAB
M  V30 COUNTS 9 8 0 0 0
M  V30 BEGIN ATOM
M  V30 1 N 0.0 0.0 0.0 0
M  V30 2 C -1.2981 -0.7552 0.0 0
M  V30 3 C -2.5962 -1.5105 0.0 0
M  V30 4 C -2.5962 -3.0093 0.0 0
M  V30 5 C -3.8944 -0.767 0.0 0
M  V30 6 C -1.2981 -3.7645 0.0 0
M  V30 7 C -3.8944 -3.7645 0.0 0
M  V30 8 C 0.0 -3.0211 0.0 0
M  V30 9 C 1.2981 -3.7763 0.0 0
M  V30 END ATOM
M  V30 BEGIN BOND
M  V30 1 3 1 2
M  V30 2 1 2 3
M  V30 3 2 3 4 CFG=2
M  V30 4 1 3 5
M  V30 5 1 4 6
M  V30 6 1 4 7
M  V30 7 1 6 8
M  V30 8 1 8 9
M  V30 END BOND
M  V30 END CTAB
M  END
>  <Molecule Name>
2,3-Dimethyl-2-hexenenitrile

>  <Molecule Name 2>
2,3-Dimethyl-2-hexenenitrile

>  <Activity>
0

$$$$
Methylcyanoacetic acid, ethyl ester
Actelion Java MolfileCreator 2.0

  0  0  0  0  0  0              0 V3000
M  V30 BEGIN CTAB
M  V30 COUNTS 9 8 0 0 0
M  V30 BEGIN ATOM
M  V30 1 O 0.0 0.0 0.0 0
M  V30 2 C -1.2987 0.7438 0.0 0
M  V30 3 O -2.5975 -0.0118 0.0 0
M  V30 4 C -1.2987 2.2433 0.0 0 CFG=1
M  V30 5 C -3.8963 0.732 0.0 0
M  V30 6 C 0.0 2.9989 0.0 0
M  V30 7 C -2.5975 2.9871 0.0 0
M  V30 8 C -5.195 -0.0236 0.0 0
M  V30 9 N 1.2987 3.7546 0.0 0
M  V30 END ATOM
M  V30 BEGIN BOND
M  V30 1 2 1 2
M  V30 2 1 2 3
M  V30 3 1 2 4
M  V30 4 1 3 5
M  V30 5 1 4 6
M  V30 6 1 4 7 CFG=3
M  V30 7 1 5 8
M  V30 8 3 6 9
M  V30 END BOND
M  V30 BEGIN COLLECTION
M  V30 MDLV30/STERAC1 ATOMS=(1 4)
M  V30 END COLLECTION
M  V30 END CTAB
M  END
>  <Molecule Name>
Methylcyanoacetic acid, ethyl ester

>  <Molecule Name 2>
Methylcyanoacetic acid, ethyl ester

>  <Activity>
0

$$$$
3-Butoxypropionitrile
Actelion Java MolfileCreator 2.0

  0  0  0  0  0  0              0 V3000
M  V30 BEGIN CTAB
M  V30 COUNTS 9 8 0 0 0
M  V30 BEGIN ATOM
M  V30 1 O 0.0 0.0 0.0 0
M  V30 2 C -1.2991 0.744 0.0 0
M  V30 3 C 1.2991 0.744 0.0 0
M  V30 4 C -2.5982 -0.0118 0.0 0
M  V30 5 C 2.5982 -0.0118 0.0 0
M  V30 6 C -2.5982 -1.5116 0.0 0
M  V30 7 C 3.8973 0.7322 0.0 0
M  V30 8 N -2.5982 -3.0115 0.0 0
M  V30 9 C 5.1964 -0.0236 0.0 0
M  V30 END ATOM
M  V30 BEGIN BOND
M  V30 1 1 1 2
M  V30 2 1 1 3
M  V30 3 1 2 4
M  V30 4 1 3 5
M  V30 5 1 4 6
M  V30 6 1 5 7
M  V30 7 3 6 8
M  V30 8 1 7 9
M  V30 END BOND
M  V30 END CTAB
M  END
>  <Molecule Name>
3-Butoxypropionitrile

>  <Molecule Name 2>
3-Butoxypropionitrile

>  <Activity>
0

$$$$
alpha-Acetoxypropionamide
Actelion Java MolfileCreator 2.0

  0  0  0  0  0  0              0 V3000
M  V30 BEGIN CTAB
M  V30 COUNTS 9 8 0 0 0
M  V30 BEGIN ATOM
M  V30 1 O 0.0 0.0 0.0 0
M  V30 2 C 0.0 -1.4995 0.0 0
M  V30 3 N -1.2988 -2.2552 0.0 0
M  V30 4 C 1.2988 -2.2552 0.0 0 CFG=1
M  V30 5 O 2.5976 -1.5113 0.0 0
M  V30 6 C 1.2988 -3.7547 0.0 0
M  V30 7 C 3.8964 -2.267 0.0 0
M  V30 8 O 3.8964 -3.7665 0.0 0
M  V30 9 C 5.1952 -1.5231 0.0 0
M  V30 END ATOM
M  V30 BEGIN BOND
M  V30 1 2 1 2
M  V30 2 1 2 3
M  V30 3 1 2 4
M  V30 4 1 4 5
M  V30 5 1 4 6 CFG=1
M  V30 6 1 5 7
M  V30 7 2 7 8
M  V30 8 1 7 9
M  V30 END BOND
M  V30 BEGIN COLLECTION
M  V30 MDLV30/STERAC1 ATOMS=(1 4)
M  V30 END COLLECTION
M  V30 END CTAB
M  END
>  <Molecule Name>
alpha-Acetoxypropionamide

>  <Molecule Name 2>
alpha-Acetoxypropionamide

>  <Activity>
0

$$$$
N-Hydroxyethyl lactamide
Actelion Java MolfileCreator 2.0

  0  0  0  0  0  0              0 V3000
M  V30 BEGIN CTAB
M  V30 COUNTS 9 8 0 0 0
M  V30 BEGIN ATOM
M  V30 1 O 0.0 0.0 0.0 0
M  V30 2 C 0.0 1.4998 0.0 0
M  V30 3 N -1.2991 2.2439 0.0 0
M  V30 4 C 1.2991 2.2439 0.0 0 CFG=1
M  V30 5 C -2.5982 1.488 0.0 0
M  V30 6 O 2.5982 1.488 0.0 0
M  V30 7 C 1.2991 3.7437 0.0 0
M  V30 8 C -3.8973 2.2321 0.0 0
M  V30 9 O -5.1964 1.4762 0.0 0
M  V30 END ATOM
M  V30 BEGIN BOND
M  V30 1 2 1 2
M  V30 2 1 2 3
M  V30 3 1 2 4
M  V30 4 1 3 5
M  V30 5 1 4 6 CFG=3
M  V30 6 1 4 7
M  V30 7 1 5 8
M  V30 8 1 8 9
M  V30 END BOND
M  V30 BEGIN COLLECTION
M  V30 MDLV30/STERAC1 ATOMS=(1 4)
M  V30 END COLLECTION
M  V30 END CTAB
M  END
>  <Molecule Name>
N-Hydroxyethyl lactamide

>  <Molecule Name 2>
N-Hydroxyethyl lactamide

>  <Activity>
0

$$$$
Indan
Actelion Java MolfileCreator 2.0

  0  0  0  0  0  0              0 V3000
M  V30 BEGIN CTAB
M  V30 COUNTS 9 10 0 0 0
M  V30 BEGIN ATOM
M  V30 1 C 0.0 0.0 0.0 0
M  V30 2 C 0.8848 -1.2152 0.0 0
M  V30 3 C 0.6135 1.3685 0.0 0
M  V30 4 C -1.4275 -0.4601 0.0 0
M  V30 5 C 2.3714 -1.0618 0.0 0
M  V30 6 C 0.0 -2.4304 0.0 0
M  V30 7 C 2.1 1.5219 0.0 0
M  V30 8 C -1.4275 -1.9584 0.0 0
M  V30 9 C 2.9849 0.3067 0.0 0
M  V30 END ATOM
M  V30 BEGIN BOND
M  V30 1 2 1 2
M  V30 2 1 1 3
M  V30 3 1 1 4
M  V30 4 1 2 5
M  V30 5 1 2 6
M  V30 6 2 3 7
M  V30 7 1 4 8
M  V30 8 2 5 9
M  V30 9 1 6 8
M  V30 10 1 7 9
M  V30 END BOND
M  V30 END CTAB
M  END
>  <Molecule Name>
Indan

>  <Molecule Name 2>
Indan

>  <Activity>
0

$$$$
Benzoxazole
Actelion Java MolfileCreator 2.0

  0  0  0  0  0  0              0 V3000
M  V30 BEGIN CTAB
M  V30 COUNTS 9 10 0 0 0
M  V30 BEGIN ATOM
M  V30 1 O 0.0 0.0 0.0 0
M  V30 2 C 1.4288 0.4605 0.0 0
M  V30 3 C 0.0 -1.4996 0.0 0
M  V30 4 C 2.3144 -0.7557 0.0 0
M  V30 5 C 2.0428 1.8303 0.0 0
M  V30 6 N 1.4288 -1.9602 0.0 0
M  V30 7 C 3.8023 -0.6022 0.0 0
M  V30 8 C 3.5307 1.9838 0.0 0
M  V30 9 C 4.4163 0.7675 0.0 0
M  V30 END ATOM
M  V30 BEGIN BOND
M  V30 1 1 1 2
M  V30 2 1 1 3
M  V30 3 2 2 4
M  V30 4 1 2 5
M  V30 5 2 3 6
M  V30 6 1 4 7
M  V30 7 2 5 8
M  V30 8 2 7 9
M  V30 9 1 4 6
M  V30 10 1 8 9
M  V30 END BOND
M  V30 END CTAB
M  END
>  <Molecule Name>
Benzoxazole

>  <Molecule Name 2>
Benzoxazole

>  <Activity>
0

$$$$
3,4-Dichloro toluene
Actelion Java MolfileCreator 2.0

  0  0  0  0  0  0              0 V3000
M  V30 BEGIN CTAB
M  V30 COUNTS 9 9 0 0 0
M  V30 BEGIN ATOM
M  V30 1 Cl 0.0 0.0 0.0 0
M  V30 2 C -1.2976 -0.755 0.0 0
M  V30 3 C -1.2976 -2.2532 0.0 0
M  V30 4 C -2.5953 0.0 0.0 0
M  V30 5 Cl 0.0 -3.0082 0.0 0
M  V30 6 C -2.5953 -2.9964 0.0 0
M  V30 7 C -3.893 -0.7432 0.0 0
M  V30 8 C -3.893 -2.2532 0.0 0
M  V30 9 C -5.1907 0.0117 0.0 0
M  V30 END ATOM
M  V30 BEGIN BOND
M  V30 1 1 1 2
M  V30 2 2 2 3
M  V30 3 1 2 4
M  V30 4 1 3 5
M  V30 5 1 3 6
M  V30 6 2 4 7
M  V30 7 2 6 8
M  V30 8 1 7 9
M  V30 9 1 7 8
M  V30 END BOND
M  V30 END CTAB
M  END
>  <Molecule Name>
3,4-Dichloro toluene

>  <Molecule Name 2>
3,4-Dichloro toluene

>  <Activity>
0

$$$$
4-Bromo-o-xylene
Actelion Java MolfileCreator 2.0

  0  0  0  0  0  0              0 V3000
M  V30 BEGIN CTAB
M  V30 COUNTS 9 9 0 0 0
M  V30 BEGIN ATOM
M  V30 1 Br 0.0 0.0 0.0 0
M  V30 2 C -1.2993 -0.7441 0.0 0
M  V30 3 C -2.5987 0.0118 0.0 0
M  V30 4 C -1.2993 -2.2443 0.0 0
M  V30 5 C -3.8981 -0.7323 0.0 0
M  V30 6 C -2.5987 -2.9885 0.0 0
M  V30 7 C -3.8981 -2.2325 0.0 0
M  V30 8 C -5.1975 0.0236 0.0 0
M  V30 9 C -5.1975 -2.9767 0.0 0
M  V30 END ATOM
M  V30 BEGIN BOND
M  V30 1 1 1 2
M  V30 2 2 2 3
M  V30 3 1 2 4
M  V30 4 1 3 5
M  V30 5 2 4 6
M  V30 6 2 5 7
M  V30 7 1 5 8
M  V30 8 1 7 9
M  V30 9 1 6 7
M  V30 END BOND
M  V30 END CTAB
M  END
>  <Molecule Name>
4-Bromo-o-xylene

>  <Molecule Name 2>
4-Bromo-o-xylene

>  <Activity>
0

$$$$
2,4-Dimethyl-2,3-epoxy-4-pentanol
Actelion Java MolfileCreator 2.0

  0  0  0  0  0  0              0 V3000
M  V30 BEGIN CTAB
M  V30 COUNTS 9 9 0 0 0
M  V30 BEGIN ATOM
M  V30 1 O 0.0 0.0 0.0 0
M  V30 2 C -0.7443 1.2996 0.0 0
M  V30 3 C -1.5005 0.0 0.0 0 CFG=2
M  V30 4 C 0.0118 2.5993 0.0 0
M  V30 5 C -1.4886 2.5993 0.0 0
M  V30 6 C -2.8001 -0.7561 0.0 0
M  V30 7 O -4.0998 -1.5005 0.0 0
M  V30 8 C -2.0558 -2.0558 0.0 0
M  V30 9 C -3.5445 0.5434 0.0 0
M  V30 END ATOM
M  V30 BEGIN BOND
M  V30 1 1 1 2
M  V30 2 1 1 3
M  V30 3 1 2 4
M  V30 4 1 2 5
M  V30 5 1 3 6 CFG=1
M  V30 6 1 6 7
M  V30 7 1 6 8
M  V30 8 1 6 9
M  V30 9 1 2 3
M  V30 END BOND
M  V30 BEGIN COLLECTION
M  V30 MDLV30/STERAC1 ATOMS=(1 3)
M  V30 END COLLECTION
M  V30 END CTAB
M  END
>  <Molecule Name>
2,4-Dimethyl-2,3-epoxy-4-pentanol

>  <Molecule Name 2>
2,4-Dimethyl-2,3-epoxy-4-pentanol

>  <Activity>
0

$$$$
Salicylaldehyde
Actelion Java MolfileCreator 2.0

  0  0  0  0  0  0              0 V3000
M  V30 BEGIN CTAB
M  V30 COUNTS 9 9 0 0 0
M  V30 BEGIN ATOM
M  V30 1 O 0.0 0.0 0.0 0
M  V30 2 C 1.2993 0.7441 0.0 0
M  V30 3 C 2.5987 -0.0118 0.0 0
M  V30 4 C 2.5987 -1.512 0.0 0
M  V30 5 C 3.8981 0.7323 0.0 0
M  V30 6 O 1.2993 -2.2562 0.0 0
M  V30 7 C 3.8981 -2.268 0.0 0
M  V30 8 C 5.1975 -0.0236 0.0 0
M  V30 9 C 5.1975 -1.5238 0.0 0
M  V30 END ATOM
M  V30 BEGIN BOND
M  V30 1 2 1 2
M  V30 2 1 2 3
M  V30 3 2 3 4
M  V30 4 1 3 5
M  V30 5 1 4 6
M  V30 6 1 4 7
M  V30 7 2 5 8
M  V30 8 2 7 9
M  V30 9 1 8 9
M  V30 END BOND
M  V30 END CTAB
M  END
>  <Molecule Name>
Salicylaldehyde

>  <Molecule Name 2>
Salicylaldehyde

>  <Activity>
0

$$$$
2-Propyl-m-dioxane
Actelion Java MolfileCreator 2.0

  0  0  0  0  0  0              0 V3000
M  V30 BEGIN CTAB
M  V30 COUNTS 9 9 0 0 0
M  V30 BEGIN ATOM
M  V30 1 O 0.0 0.0 0.0 0
M  V30 2 C 1.2999 -0.7563 0.0 0
M  V30 3 C -1.2999 -0.7445 0.0 0
M  V30 4 O 1.2999 -2.2571 0.0 0
M  V30 5 C 2.5999 -0.0118 0.0 0
M  V30 6 C -1.2999 -2.2453 0.0 0
M  V30 7 C 0.0 -3.0017 0.0 0
M  V30 8 C 3.8998 -0.7563 0.0 0
M  V30 9 C 5.1998 -0.0118 0.0 0
M  V30 END ATOM
M  V30 BEGIN BOND
M  V30 1 1 1 2
M  V30 2 1 1 3
M  V30 3 1 2 4
M  V30 4 1 2 5
M  V30 5 1 3 6
M  V30 6 1 4 7
M  V30 7 1 5 8
M  V30 8 1 8 9
M  V30 9 1 6 7
M  V30 END BOND
M  V30 END CTAB
M  END
>  <Molecule Name>
2-Propyl-m-dioxane

>  <Molecule Name 2>
2-Propyl-m-dioxane

>  <Activity>
0

$$$$
m-Methoxycyclohexanol
Actelion Java MolfileCreator 2.0

  0  0  0  0  0  0              0 V3000
M  V30 BEGIN CTAB
M  V30 COUNTS 9 9 0 0 0
M  V30 BEGIN ATOM
M  V30 1 O 0.0 0.0 0.0 0
M  V30 2 C -1.2993 -0.7441 0.0 0
M  V30 3 C 1.2993 -0.7441 0.0 0
M  V30 4 C -2.5987 0.0118 0.0 0
M  V30 5 C -1.2993 -2.2443 0.0 0
M  V30 6 C -3.8981 -0.7323 0.0 0
M  V30 7 C -2.5987 -2.9885 0.0 0
M  V30 8 O -5.1975 0.0236 0.0 0
M  V30 9 C -3.8981 -2.2325 0.0 0
M  V30 END ATOM
M  V30 BEGIN BOND
M  V30 1 1 1 2
M  V30 2 1 1 3
M  V30 3 1 2 4
M  V30 4 1 2 5
M  V30 5 1 4 6
M  V30 6 1 5 7
M  V30 7 1 6 8
M  V30 8 1 6 9
M  V30 9 1 7 9
M  V30 END BOND
M  V30 END CTAB
M  END
>  <Molecule Name>
m-Methoxycyclohexanol

>  <Molecule Name 2>
m-Methoxycyclohexanol

>  <Activity>
0

$$$$
Phenylacetaldehyde
Actelion Java MolfileCreator 2.0

  0  0  0  0  0  0              0 V3000
M  V30 BEGIN CTAB
M  V30 COUNTS 9 9 0 0 0
M  V30 BEGIN ATOM
M  V30 1 O 0.0 0.0 0.0 0
M  V30 2 C 1.2982 0.7553 0.0 0
M  V30 3 C 2.5965 0.0 0.0 0
M  V30 4 C 3.8947 0.7553 0.0 0
M  V30 5 C 5.193 0.0118 0.0 0
M  V30 6 C 3.8947 2.2542 0.0 0
M  V30 7 C 6.4912 0.7671 0.0 0
M  V30 8 C 5.193 3.0095 0.0 0
M  V30 9 C 6.4912 2.266 0.0 0
M  V30 END ATOM
M  V30 BEGIN BOND
M  V30 1 2 1 2
M  V30 2 1 2 3
M  V30 3 1 3 4
M  V30 4 2 4 5
M  V30 5 1 4 6
M  V30 6 1 5 7
M  V30 7 2 6 8
M  V30 8 2 7 9
M  V30 9 1 8 9
M  V30 END BOND
M  V30 END CTAB
M  END
>  <Molecule Name>
Phenylacetaldehyde

>  <Molecule Name 2>
Phenylacetaldehyde

>  <Activity>
0

$$$$
m-Tolualdehyde
Actelion Java MolfileCreator 2.0

  0  0  0  0  0  0              0 V3000
M  V30 BEGIN CTAB
M  V30 COUNTS 9 9 0 0 0
M  V30 BEGIN ATOM
M  V30 1 O 0.0 0.0 0.0 0
M  V30 2 C 1.2993 0.7441 0.0 0
M  V30 3 C 2.5987 -0.0118 0.0 0
M  V30 4 C 3.8981 0.7323 0.0 0
M  V30 5 C 2.5987 -1.512 0.0 0
M  V30 6 C 5.1975 -0.0236 0.0 0
M  V30 7 C 3.8981 -2.268 0.0 0
M  V30 8 C 5.1975 -1.5238 0.0 0
M  V30 9 C 6.4969 0.7205 0.0 0
M  V30 END ATOM
M  V30 BEGIN BOND
M  V30 1 2 1 2
M  V30 2 1 2 3
M  V30 3 2 3 4
M  V30 4 1 3 5
M  V30 5 1 4 6
M  V30 6 2 5 7
M  V30 7 2 6 8
M  V30 8 1 6 9
M  V30 9 1 7 8
M  V30 END BOND
M  V30 END CTAB
M  END
>  <Molecule Name>
m-Tolualdehyde

>  <Molecule Name 2>
m-Tolualdehyde

>  <Activity>
0

$$$$
1-Ethynylcyclohexanol
Actelion Java MolfileCreator 2.0

  0  0  0  0  0  0              0 V3000
M  V30 BEGIN CTAB
M  V30 COUNTS 9 9 0 0 0
M  V30 BEGIN ATOM
M  V30 1 O 0.0 0.0 0.0 0
M  V30 2 C 1.2994 0.7442 0.0 0
M  V30 3 C 1.2994 -0.756 0.0 0
M  V30 4 C 2.5988 1.4884 0.0 0
M  V30 5 C 0.0 1.4884 0.0 0
M  V30 6 C 1.2994 -2.2562 0.0 0
M  V30 7 C 2.5988 2.9886 0.0 0
M  V30 8 C 0.0 2.9886 0.0 0
M  V30 9 C 1.2994 3.7446 0.0 0
M  V30 END ATOM
M  V30 BEGIN BOND
M  V30 1 1 1 2
M  V30 2 1 2 3
M  V30 3 1 2 4
M  V30 4 1 2 5
M  V30 5 3 3 6
M  V30 6 1 4 7
M  V30 7 1 5 8
M  V30 8 1 7 9
M  V30 9 1 8 9
M  V30 END BOND
M  V30 END CTAB
M  END
>  <Molecule Name>
1-Ethynylcyclohexanol

>  <Molecule Name 2>
1-Ethynylcyclohexanol

>  <Activity>
0

$$$$
p-Cresyl methyl ether
Actelion Java MolfileCreator 2.0

  0  0  0  0  0  0              0 V3000
M  V30 BEGIN CTAB
M  V30 COUNTS 9 9 0 0 0
M  V30 BEGIN ATOM
M  V30 1 O 0.0 0.0 0.0 0
M  V30 2 C -1.2999 -0.7445 0.0 0
M  V30 3 C 1.2999 -0.7445 0.0 0
M  V30 4 C -2.5999 0.0118 0.0 0
M  V30 5 C -1.2999 -2.2453 0.0 0
M  V30 6 C -3.8998 -0.7327 0.0 0
M  V30 7 C -2.5999 -2.9899 0.0 0
M  V30 8 C -3.8998 -2.2335 0.0 0
M  V30 9 C -5.1998 -2.978 0.0 0
M  V30 END ATOM
M  V30 BEGIN BOND
M  V30 1 1 1 2
M  V30 2 1 1 3
M  V30 3 2 2 4
M  V30 4 1 2 5
M  V30 5 1 4 6
M  V30 6 2 5 7
M  V30 7 2 6 8
M  V30 8 1 8 9
M  V30 9 1 7 8
M  V30 END BOND
M  V30 END CTAB
M  END
>  <Molecule Name>
p-Cresyl methyl ether

>  <Molecule Name 2>
p-Cresyl methyl ether

>  <Activity>
0

$$$$
o-Bromoanisole
Actelion Java MolfileCreator 2.0

  0  0  0  0  0  0              0 V3000
M  V30 BEGIN CTAB
M  V30 COUNTS 9 9 0 0 0
M  V30 BEGIN ATOM
M  V30 1 Br 0.0 0.0 0.0 0
M  V30 2 C 0.0 -1.5005 0.0 0
M  V30 3 C -1.2996 -2.2567 0.0 0
M  V30 4 C 1.2996 -2.2449 0.0 0
M  V30 5 O -2.5993 -1.5123 0.0 0
M  V30 6 C -1.2996 -3.7572 0.0 0
M  V30 7 C 1.2996 -3.7454 0.0 0
M  V30 8 C -3.899 -2.2567 0.0 0
M  V30 9 C 0.0 -4.5016 0.0 0
M  V30 END ATOM
M  V30 BEGIN BOND
M  V30 1 1 1 2
M  V30 2 2 2 3
M  V30 3 1 2 4
M  V30 4 1 3 5
M  V30 5 1 3 6
M  V30 6 2 4 7
M  V30 7 1 5 8
M  V30 8 2 6 9
M  V30 9 1 7 9
M  V30 END BOND
M  V30 END CTAB
M  END
>  <Molecule Name>
o-Bromoanisole

>  <Molecule Name 2>
o-Bromoanisole

>  <Activity>
0

$$$$
Benzyl cyanide
Actelion Java MolfileCreator 2.0

  0  0  0  0  0  0              0 V3000
M  V30 BEGIN CTAB
M  V30 COUNTS 9 9 0 0 0
M  V30 BEGIN ATOM
M  V30 1 N 0.0 0.0 0.0 0
M  V30 2 C 0.0 -1.5002 0.0 0
M  V30 3 C 0.0 -3.0004 0.0 0
M  V30 4 C -1.2994 -3.7446 0.0 0
M  V30 5 C -2.5988 -2.9886 0.0 0
M  V30 6 C -1.2994 -5.2449 0.0 0
M  V30 7 C -3.8982 -3.7328 0.0 0
M  V30 8 C -2.5988 -5.9891 0.0 0
M  V30 9 C -3.8982 -5.2331 0.0 0
M  V30 END ATOM
M  V30 BEGIN BOND
M  V30 1 3 1 2
M  V30 2 1 2 3
M  V30 3 1 3 4
M  V30 4 2 4 5
M  V30 5 1 4 6
M  V30 6 1 5 7
M  V30 7 2 6 8
M  V30 8 2 7 9
M  V30 9 1 8 9
M  V30 END BOND
M  V30 END CTAB
M  END
>  <Molecule Name>
Benzyl cyanide

>  <Molecule Name 2>
Benzyl cyanide

>  <Activity>
0

$$$$
4-Acetylmorpholine
Actelion Java MolfileCreator 2.0

  0  0  0  0  0  0              0 V3000
M  V30 BEGIN CTAB
M  V30 COUNTS 9 9 0 0 0
M  V30 BEGIN ATOM
M  V30 1 O 0.0 0.0 0.0 0
M  V30 2 C 0.0 -1.5005 0.0 0
M  V30 3 N -1.2996 -2.2449 0.0 0
M  V30 4 C 1.2996 -2.2449 0.0 0
M  V30 5 C -2.5993 -1.4887 0.0 0
M  V30 6 C -1.2996 -3.7454 0.0 0
M  V30 7 C -3.899 -2.2331 0.0 0
M  V30 8 C -2.5993 -4.4898 0.0 0
M  V30 9 O -3.899 -3.7336 0.0 0
M  V30 END ATOM
M  V30 BEGIN BOND
M  V30 1 2 1 2
M  V30 2 1 2 3
M  V30 3 1 2 4
M  V30 4 1 3 5
M  V30 5 1 3 6
M  V30 6 1 5 7
M  V30 7 1 6 8
M  V30 8 1 7 9
M  V30 9 1 8 9
M  V30 END BOND
M  V30 END CTAB
M  END
>  <Molecule Name>
4-Acetylmorpholine

>  <Molecule Name 2>
4-Acetylmorpholine

>  <Activity>
0

$$$$
N-methylcaprolactam
Actelion Java MolfileCreator 2.0

  0  0  0  0  0  0              0 V3000
M  V30 BEGIN CTAB
M  V30 COUNTS 9 9 0 0 0
M  V30 BEGIN ATOM
M  V30 1 O 0.0 0.0 0.0 0
M  V30 2 C -0.2234 -1.4815 0.0 0
M  V30 3 N 1.0111 -2.328 0.0 0
M  V30 4 C -1.6578 -1.9283 0.0 0
M  V30 5 C 1.1287 -3.8213 0.0 0
M  V30 6 C 2.3045 -1.5755 0.0 0
M  V30 7 C -2.2105 -3.3275 0.0 0
M  V30 8 C 0.0352 -4.8443 0.0 0
M  V30 9 C -1.4579 -4.6209 0.0 0
M  V30 END ATOM
M  V30 BEGIN BOND
M  V30 1 2 1 2
M  V30 2 1 2 3
M  V30 3 1 2 4
M  V30 4 1 3 5
M  V30 5 1 3 6
M  V30 6 1 4 7
M  V30 7 1 5 8
M  V30 8 1 7 9
M  V30 9 1 8 9
M  V30 END BOND
M  V30 END CTAB
M  END
>  <Molecule Name>
N-methylcaprolactam

>  <Molecule Name 2>
N-methylcaprolactam

>  <Activity>
0

$$$$
Glycerol acetone
Actelion Java MolfileCreator 2.0

  0  0  0  0  0  0              0 V3000
M  V30 BEGIN CTAB
M  V30 COUNTS 10 8 0 0 0
M  V30 BEGIN ATOM
M  V30 1 O 0.0 0.0 0.0 0
M  V30 2 C 0.7451 -1.301 0.0 0
M  V30 3 C 2.2472 -1.301 0.0 0
M  V30 4 C 0.0 -2.602 0.0 0
M  V30 5 O -4.6363 -1.3246 0.0 0
M  V30 6 C -3.1342 -1.3246 0.0 0
M  V30 7 C -2.3891 -2.6257 0.0 0
M  V30 8 C -2.3891 -0.0236 0.0 0
M  V30 9 O -3.1342 -3.9267 0.0 0
M  V30 10 O -3.1342 1.2773 0.0 0
M  V30 END ATOM
M  V30 BEGIN BOND
M  V30 1 2 1 2
M  V30 2 1 2 3
M  V30 3 1 2 4
M  V30 4 1 5 6
M  V30 5 1 6 7
M  V30 6 1 6 8
M  V30 7 1 7 9
M  V30 8 1 8 10
M  V30 END BOND
M  V30 END CTAB
M  END
>  <Molecule Name>
Glycerol acetone

>  <Molecule Name 2>
Glycerol acetone

>  <Activity>
0

$$$$
Limonene
Actelion Java MolfileCreator 2.0

  0  0  0  0  0  0              0 V3000
M  V30 BEGIN CTAB
M  V30 COUNTS 10 10 0 0 0
M  V30 BEGIN ATOM
M  V30 1 C 0.0 0.0 0.0 0
M  V30 2 C 0.0 1.4995 0.0 0
M  V30 3 C -1.2988 -0.7557 0.0 0
M  V30 4 C 1.2988 -0.7557 0.0 0
M  V30 5 C -1.2988 2.2434 0.0 0
M  V30 6 C -2.5977 -0.0118 0.0 0
M  V30 7 C -2.5977 1.4877 0.0 0 CFG=2
M  V30 8 C -3.8965 2.2316 0.0 0
M  V30 9 C -3.8965 3.7312 0.0 0
M  V30 10 C -5.1954 1.4759 0.0 0
M  V30 END ATOM
M  V30 BEGIN BOND
M  V30 1 2 1 2
M  V30 2 1 1 3
M  V30 3 1 1 4
M  V30 4 1 2 5
M  V30 5 1 3 6
M  V30 6 1 5 7
M  V30 7 1 7 8 CFG=3
M  V30 8 2 8 9
M  V30 9 1 8 10
M  V30 10 1 6 7
M  V30 END BOND
M  V30 BEGIN COLLECTION
M  V30 MDLV30/STERAC1 ATOMS=(1 7)
M  V30 END COLLECTION
M  V30 END CTAB
M  END
>  <Molecule Name>
Limonene

>  <Molecule Name 2>
Limonene

>  <Activity>
0

$$$$
p-Cymene
Actelion Java MolfileCreator 2.0

  0  0  0  0  0  0              0 V3000
M  V30 BEGIN CTAB
M  V30 COUNTS 10 10 0 0 0
M  V30 BEGIN ATOM
M  V30 1 C 0.0 0.0 0.0 0
M  V30 2 C 0.0 -1.4995 0.0 0
M  V30 3 C 1.2988 0.7438 0.0 0
M  V30 4 C -1.2988 0.7438 0.0 0
M  V30 5 C 1.2988 -2.2552 0.0 0
M  V30 6 C 2.5977 -0.0118 0.0 0
M  V30 7 C -1.2988 2.2434 0.0 0
M  V30 8 C -2.5977 -0.0118 0.0 0
M  V30 9 C 2.5977 -1.5114 0.0 0
M  V30 10 C 3.8965 -2.2671 0.0 0
M  V30 END ATOM
M  V30 BEGIN BOND
M  V30 1 2 1 2
M  V30 2 1 1 3
M  V30 3 1 1 4
M  V30 4 1 2 5
M  V30 5 2 3 6
M  V30 6 1 4 7
M  V30 7 1 4 8
M  V30 8 2 5 9
M  V30 9 1 9 10
M  V30 10 1 6 9
M  V30 END BOND
M  V30 END CTAB
M  END
>  <Molecule Name>
p-Cymene

>  <Molecule Name 2>
p-Cymene

>  <Activity>
0

$$$$
2,3-Dimethoxy-1,4-dioxane
Actelion Java MolfileCreator 2.0

  0  0  0  0  0  0              0 V3000
M  V30 BEGIN CTAB
M  V30 COUNTS 10 10 0 0 0
M  V30 BEGIN ATOM
M  V30 1 O 0.0 0.0 0.0 0
M  V30 2 C 1.2996 -0.7561 0.0 0
M  V30 3 C -1.2996 -0.7443 0.0 0
M  V30 4 O 2.5992 -0.0118 0.0 0
M  V30 5 C 1.2996 -2.2566 0.0 0
M  V30 6 C -1.2996 -2.2447 0.0 0
M  V30 7 C 3.8988 -0.7561 0.0 0
M  V30 8 O 0.0 -3.0009 0.0 0
M  V30 9 O 2.5992 -3.0127 0.0 0
M  V30 10 C 3.8988 -2.2684 0.0 0
M  V30 END ATOM
M  V30 BEGIN BOND
M  V30 1 1 1 2
M  V30 2 1 1 3
M  V30 3 1 2 4
M  V30 4 1 2 5
M  V30 5 1 3 6
M  V30 6 1 4 7
M  V30 7 1 5 8
M  V30 8 1 5 9
M  V30 9 1 9 10
M  V30 10 1 6 8
M  V30 END BOND
M  V30 END CTAB
M  END
>  <Molecule Name>
2,3-Dimethoxy-1,4-dioxane

>  <Molecule Name 2>
2,3-Dimethoxy-1,4-dioxane

>  <Activity>
0

$$$$
Methyl 1-hydroxycyclohexyl ketone
Actelion Java MolfileCreator 2.0

  0  0  0  0  0  0              0 V3000
M  V30 BEGIN CTAB
M  V30 COUNTS 10 10 0 0 0
M  V30 BEGIN ATOM
M  V30 1 O 0.0 0.0 0.0 0
M  V30 2 C -1.3003 0.7447 0.0 0
M  V30 3 C -1.3003 2.2461 0.0 0
M  V30 4 C -2.6007 0.0 0.0 0
M  V30 5 O -2.6007 1.4895 0.0 0
M  V30 6 C 0.0 2.9909 0.0 0
M  V30 7 C -2.6007 2.9909 0.0 0
M  V30 8 C 0.0 4.4922 0.0 0
M  V30 9 C -2.6007 4.4922 0.0 0
M  V30 10 C -1.3003 5.237 0.0 0
M  V30 END ATOM
M  V30 BEGIN BOND
M  V30 1 2 1 2
M  V30 2 1 2 3
M  V30 3 1 2 4
M  V30 4 1 3 5
M  V30 5 1 3 6
M  V30 6 1 3 7
M  V30 7 1 6 8
M  V30 8 1 7 9
M  V30 9 1 8 10
M  V30 10 1 9 10
M  V30 END BOND
M  V30 END CTAB
M  END
>  <Molecule Name>
Methyl 1-hydroxycyclohexyl ketone

>  <Molecule Name 2>
Methyl 1-hydroxycyclohexyl ketone

>  <Activity>
0

$$$$
Formic acid, benzyl ester
Actelion Java MolfileCreator 2.0

  0  0  0  0  0  0              0 V3000
M  V30 BEGIN CTAB
M  V30 COUNTS 10 10 0 0 0
M  V30 BEGIN ATOM
M  V30 1 O 0.0 0.0 0.0 0
M  V30 2 C -1.3001 0.7446 0.0 0
M  V30 3 O -2.6002 0.0 0.0 0
M  V30 4 C -3.9003 0.7446 0.0 0
M  V30 5 C -5.2005 0.0 0.0 0
M  V30 6 C -6.5006 0.7564 0.0 0
M  V30 7 C -5.2005 -1.501 0.0 0
M  V30 8 C -7.8007 0.0118 0.0 0
M  V30 9 C -6.5006 -2.2456 0.0 0
M  V30 10 C -7.8007 -1.4892 0.0 0
M  V30 END ATOM
M  V30 BEGIN BOND
M  V30 1 2 1 2
M  V30 2 1 2 3
M  V30 3 1 3 4
M  V30 4 1 4 5
M  V30 5 2 5 6
M  V30 6 1 5 7
M  V30 7 1 6 8
M  V30 8 2 7 9
M  V30 9 2 8 10
M  V30 10 1 9 10
M  V30 END BOND
M  V30 END CTAB
M  END
>  <Molecule Name>
Formic acid, benzyl ester

>  <Molecule Name 2>
Formic acid, benzyl ester

>  <Activity>
0

$$$$
Cyclohexanecarboxylic acid, methyl ester
Actelion Java MolfileCreator 2.0

  0  0  0  0  0  0              0 V3000
M  V30 BEGIN CTAB
M  V30 COUNTS 10 10 0 0 0
M  V30 BEGIN ATOM
M  V30 1 O 0.0 0.0 0.0 0
M  V30 2 C 0.0 1.5001 0.0 0
M  V30 3 O -1.2993 2.2443 0.0 0
M  V30 4 C 1.2993 2.2443 0.0 0
M  V30 5 C -2.5987 1.4883 0.0 0
M  V30 6 C 2.5987 1.5001 0.0 0
M  V30 7 C 1.2993 3.7445 0.0 0
M  V30 8 C 3.8981 2.2561 0.0 0
M  V30 9 C 2.5987 4.5005 0.0 0
M  V30 10 C 3.8981 3.7563 0.0 0
M  V30 END ATOM
M  V30 BEGIN BOND
M  V30 1 2 1 2
M  V30 2 1 2 3
M  V30 3 1 2 4
M  V30 4 1 3 5
M  V30 5 1 4 6
M  V30 6 1 4 7
M  V30 7 1 6 8
M  V30 8 1 7 9
M  V30 9 1 8 10
M  V30 10 1 9 10
M  V30 END BOND
M  V30 END CTAB
M  END
>  <Molecule Name>
Cyclohexanecarboxylic acid, methyl ester

>  <Molecule Name 2>
Cyclohexanecarboxylic acid, methyl ester

>  <Activity>
0

$$$$
Acetic acid, Phenyl ester
Actelion Java MolfileCreator 2.0

  0  0  0  0  0  0              0 V3000
M  V30 BEGIN CTAB
M  V30 COUNTS 10 10 0 0 0
M  V30 BEGIN ATOM
M  V30 1 O 0.0 0.0 0.0 0
M  V30 2 C 0.0 1.5007 0.0 0
M  V30 3 O -1.2998 2.2452 0.0 0
M  V30 4 C 1.2998 2.2452 0.0 0
M  V30 5 C -2.5997 1.5007 0.0 0
M  V30 6 C -3.8996 2.257 0.0 0
M  V30 7 C -2.5997 0.0 0.0 0
M  V30 8 C -5.1995 1.5125 0.0 0
M  V30 9 C -3.8996 -0.7444 0.0 0
M  V30 10 C -5.1995 0.0118 0.0 0
M  V30 END ATOM
M  V30 BEGIN BOND
M  V30 1 2 1 2
M  V30 2 1 2 3
M  V30 3 1 2 4
M  V30 4 1 3 5
M  V30 5 2 5 6
M  V30 6 1 5 7
M  V30 7 1 6 8
M  V30 8 2 7 9
M  V30 9 2 8 10
M  V30 10 1 9 10
M  V30 END BOND
M  V30 END CTAB
M  END
>  <Molecule Name>
Acetic acid, Phenyl ester

>  <Molecule Name 2>
Acetic acid, Phenyl ester

>  <Activity>
0

$$$$
Acetic acid, cyclohexyl ester
Actelion Java MolfileCreator 2.0

  0  0  0  0  0  0              0 V3000
M  V30 BEGIN CTAB
M  V30 COUNTS 10 10 0 0 0
M  V30 BEGIN ATOM
M  V30 1 O 0.0 0.0 0.0 0
M  V30 2 C 0.0 1.5007 0.0 0
M  V30 3 O -1.2998 2.2452 0.0 0
M  V30 4 C 1.2998 2.2452 0.0 0
M  V30 5 C -2.5997 1.5007 0.0 0
M  V30 6 C -3.8996 2.257 0.0 0
M  V30 7 C -2.5997 0.0 0.0 0
M  V30 8 C -5.1995 1.5125 0.0 0
M  V30 9 C -3.8996 -0.7444 0.0 0
M  V30 10 C -5.1995 0.0118 0.0 0
M  V30 END ATOM
M  V30 BEGIN BOND
M  V30 1 2 1 2
M  V30 2 1 2 3
M  V30 3 1 2 4
M  V30 4 1 3 5
M  V30 5 1 5 6
M  V30 6 1 5 7
M  V30 7 1 6 8
M  V30 8 1 7 9
M  V30 9 1 8 10
M  V30 10 1 9 10
M  V30 END BOND
M  V30 END CTAB
M  END
>  <Molecule Name>
Acetic acid, cyclohexyl ester

>  <Molecule Name 2>
Acetic acid, cyclohexyl ester

>  <Activity>
0

$$$$
o-hydroxyacetophenone
Actelion Java MolfileCreator 2.0

  0  0  0  0  0  0              0 V3000
M  V30 BEGIN CTAB
M  V30 COUNTS 10 10 0 0 0
M  V30 BEGIN ATOM
M  V30 1 O 0.0 0.0 0.0 0
M  V30 2 C 1.2996 0.7443 0.0 0
M  V30 3 C 2.5992 0.0 0.0 0
M  V30 4 C 1.2996 2.2448 0.0 0
M  V30 5 C 3.8989 0.7561 0.0 0
M  V30 6 C 2.5992 -1.5004 0.0 0
M  V30 7 O 3.8989 2.2566 0.0 0
M  V30 8 C 5.1985 0.0118 0.0 0
M  V30 9 C 3.8989 -2.2448 0.0 0
M  V30 10 C 5.1985 -1.4886 0.0 0
M  V30 END ATOM
M  V30 BEGIN BOND
M  V30 1 2 1 2
M  V30 2 1 2 3
M  V30 3 1 2 4
M  V30 4 2 3 5
M  V30 5 1 3 6
M  V30 6 1 5 7
M  V30 7 1 5 8
M  V30 8 2 6 9
M  V30 9 2 8 10
M  V30 10 1 9 10
M  V30 END BOND
M  V30 END CTAB
M  END
>  <Molecule Name>
o-hydroxyacetophenone

>  <Molecule Name 2>
o-hydroxyacetophenone

>  <Activity>
0

$$$$
Veratrole
Actelion Java MolfileCreator 2.0

  0  0  0  0  0  0              0 V3000
M  V30 BEGIN CTAB
M  V30 COUNTS 10 10 0 0 0
M  V30 BEGIN ATOM
M  V30 1 O 0.0 0.0 0.0 0
M  V30 2 C 1.2993 0.7441 0.0 0
M  V30 3 C 0.0 -1.5001 0.0 0
M  V30 4 C 1.2993 2.2443 0.0 0
M  V30 5 C 2.5987 -0.0118 0.0 0
M  V30 6 O 0.0 2.9885 0.0 0
M  V30 7 C 2.5987 2.9885 0.0 0
M  V30 8 C 3.8981 0.7323 0.0 0
M  V30 9 C -1.2993 2.2325 0.0 0
M  V30 10 C 3.8981 2.2325 0.0 0
M  V30 END ATOM
M  V30 BEGIN BOND
M  V30 1 1 1 2
M  V30 2 1 1 3
M  V30 3 2 2 4
M  V30 4 1 2 5
M  V30 5 1 4 6
M  V30 6 1 4 7
M  V30 7 2 5 8
M  V30 8 1 6 9
M  V30 9 2 7 10
M  V30 10 1 8 10
M  V30 END BOND
M  V30 END CTAB
M  END
>  <Molecule Name>
Veratrole

>  <Molecule Name 2>
Veratrole

>  <Activity>
0

$$$$
2-Methyl-2-n-propyl-m-dioxane
Actelion Java MolfileCreator 2.0

  0  0  0  0  0  0              0 V3000
M  V30 BEGIN CTAB
M  V30 COUNTS 10 10 0 0 0
M  V30 BEGIN ATOM
M  V30 1 O 0.0 0.0 0.0 0
M  V30 2 C 1.2996 -0.7561 0.0 0
M  V30 3 C -1.2996 -0.7443 0.0 0
M  V30 4 O 1.2996 -2.2566 0.0 0
M  V30 5 C 2.5992 -0.0118 0.0 0
M  V30 6 C 2.5992 -1.5122 0.0 0
M  V30 7 C -1.2996 -2.2447 0.0 0
M  V30 8 C 0.0 -3.0009 0.0 0
M  V30 9 C 3.8988 -0.7561 0.0 0
M  V30 10 C 5.1984 -0.0118 0.0 0
M  V30 END ATOM
M  V30 BEGIN BOND
M  V30 1 1 1 2
M  V30 2 1 1 3
M  V30 3 1 2 4
M  V30 4 1 2 5
M  V30 5 1 2 6
M  V30 6 1 3 7
M  V30 7 1 4 8
M  V30 8 1 5 9
M  V30 9 1 9 10
M  V30 10 1 7 8
M  V30 END BOND
M  V30 END CTAB
M  END
>  <Molecule Name>
2-Methyl-2-n-propyl-m-dioxane

>  <Molecule Name 2>
2-Methyl-2-n-propyl-m-dioxane

>  <Activity>
0

$$$$
2,6-Dimethyl-1,2,3,6-tetrahydrobenzaldehyde
Actelion Java MolfileCreator 2.0

  0  0  0  0  0  0              0 V3000
M  V30 BEGIN CTAB
M  V30 COUNTS 10 10 0 0 0
M  V30 BEGIN ATOM
M  V30 1 O 0.0 0.0 0.0 0
M  V30 2 C 1.2993 0.7441 0.0 0
M  V30 3 C 2.5987 0.0 0.0 0
M  V30 4 C 2.5987 -1.5001 0.0 0
M  V30 5 C 3.8981 0.7559 0.0 0
M  V30 6 C 3.8981 -2.2443 0.0 0
M  V30 7 C 1.2993 -2.2561 0.0 0
M  V30 8 C 5.1974 0.0118 0.0 0
M  V30 9 C 3.8981 2.2561 0.0 0
M  V30 10 C 5.1974 -1.4883 0.0 0
M  V30 END ATOM
M  V30 BEGIN BOND
M  V30 1 2 1 2
M  V30 2 1 2 3
M  V30 3 1 3 4
M  V30 4 1 3 5
M  V30 5 1 4 6
M  V30 6 1 4 7
M  V30 7 1 5 8
M  V30 8 1 5 9
M  V30 9 2 6 10
M  V30 10 1 8 10
M  V30 END BOND
M  V30 END CTAB
M  END
>  <Molecule Name>
2,6-Dimethyl-1,2,3,6-tetrahydrobenzaldehyde

>  <Molecule Name 2>
2,6-Dimethyl-1,2,3,6-tetrahydrobenzaldehyde

>  <Activity>
0

$$$$
Hydratropic aldehyde
Actelion Java MolfileCreator 2.0

  0  0  0  0  0  0              0 V3000
M  V30 BEGIN CTAB
M  V30 COUNTS 10 10 0 0 0
M  V30 BEGIN ATOM
M  V30 1 O 0.0 0.0 0.0 0
M  V30 2 C -1.3009 -0.745 0.0 0
M  V30 3 C -2.6018 0.0 0.0 0
M  V30 4 C -2.6018 1.5019 0.0 0
M  V30 5 C -3.9027 -0.745 0.0 0
M  V30 6 C -1.3009 2.247 0.0 0
M  V30 7 C -3.9027 2.247 0.0 0
M  V30 8 C -1.3009 3.7489 0.0 0
M  V30 9 C -3.9027 3.7489 0.0 0
M  V30 10 C -2.6018 4.494 0.0 0
M  V30 END ATOM
M  V30 BEGIN BOND
M  V30 1 2 1 2
M  V30 2 1 2 3
M  V30 3 1 3 4
M  V30 4 1 3 5
M  V30 5 2 4 6
M  V30 6 1 4 7
M  V30 7 1 6 8
M  V30 8 2 7 9
M  V30 9 2 8 10
M  V30 10 1 9 10
M  V30 END BOND
M  V30 END CTAB
M  END
>  <Molecule Name>
Hydratropic aldehyde

>  <Molecule Name 2>
Hydratropic aldehyde

>  <Activity>
0

$$$$
3,3,5-Trimethylcyclohexanol
Actelion Java MolfileCreator 2.0

  0  0  0  0  0  0              0 V3000
M  V30 BEGIN CTAB
M  V30 COUNTS 10 10 0 0 0
M  V30 BEGIN ATOM
M  V30 1 O 0.0 0.0 0.0 0
M  V30 2 C 1.2991 0.744 0.0 0
M  V30 3 C 1.2991 2.2439 0.0 0
M  V30 4 C 2.5982 -0.0118 0.0 0
M  V30 5 C 2.5982 2.9879 0.0 0
M  V30 6 C 3.8973 0.7322 0.0 0
M  V30 7 C 3.8973 2.232 0.0 0
M  V30 8 C 3.354 4.287 0.0 0
M  V30 9 C 1.8541 4.287 0.0 0
M  V30 10 C 5.1964 -0.0236 0.0 0
M  V30 END ATOM
M  V30 BEGIN BOND
M  V30 1 1 1 2
M  V30 2 1 2 3
M  V30 3 1 2 4
M  V30 4 1 3 5
M  V30 5 1 4 6
M  V30 6 1 5 7
M  V30 7 1 5 8
M  V30 8 1 5 9
M  V30 9 1 6 10
M  V30 10 1 6 7
M  V30 END BOND
M  V30 END CTAB
M  END
>  <Molecule Name>
3,3,5-Trimethylcyclohexanol

>  <Molecule Name 2>
3,3,5-Trimethylcyclohexanol

>  <Activity>
0

$$$$
Phenyl acetone
Actelion Java MolfileCreator 2.0

  0  0  0  0  0  0              0 V3000
M  V30 BEGIN CTAB
M  V30 COUNTS 10 10 0 0 0
M  V30 BEGIN ATOM
M  V30 1 O 0.0 0.0 0.0 0
M  V30 2 C 1.2993 0.7441 0.0 0
M  V30 3 C 2.5987 -0.0118 0.0 0
M  V30 4 C 1.2993 2.2443 0.0 0
M  V30 5 C 3.8981 0.7323 0.0 0
M  V30 6 C 5.1974 -0.0118 0.0 0
M  V30 7 C 3.8981 2.2325 0.0 0
M  V30 8 C 6.4968 0.7441 0.0 0
M  V30 9 C 5.1974 2.9885 0.0 0
M  V30 10 C 6.4968 2.2443 0.0 0
M  V30 END ATOM
M  V30 BEGIN BOND
M  V30 1 2 1 2
M  V30 2 1 2 3
M  V30 3 1 2 4
M  V30 4 1 3 5
M  V30 5 2 5 6
M  V30 6 1 5 7
M  V30 7 1 6 8
M  V30 8 2 7 9
M  V30 9 2 8 10
M  V30 10 1 9 10
M  V30 END BOND
M  V30 END CTAB
M  END
>  <Molecule Name>
Phenyl acetone

>  <Molecule Name 2>
Phenyl acetone

>  <Activity>
0

$$$$
Benzyl ethyl ether
Actelion Java MolfileCreator 2.0

  0  0  0  0  0  0              0 V3000
M  V30 BEGIN CTAB
M  V30 COUNTS 10 10 0 0 0
M  V30 BEGIN ATOM
M  V30 1 O 0.0 0.0 0.0 0
M  V30 2 C -1.3001 0.7446 0.0 0
M  V30 3 C 1.3001 0.7446 0.0 0
M  V30 4 C -2.6002 0.0 0.0 0
M  V30 5 C 2.6002 0.0 0.0 0
M  V30 6 C -3.9003 0.7564 0.0 0
M  V30 7 C -2.6002 -1.501 0.0 0
M  V30 8 C -5.2005 0.0118 0.0 0
M  V30 9 C -3.9003 -2.2456 0.0 0
M  V30 10 C -5.2005 -1.4892 0.0 0
M  V30 END ATOM
M  V30 BEGIN BOND
M  V30 1 1 1 2
M  V30 2 1 1 3
M  V30 3 1 2 4
M  V30 4 1 3 5
M  V30 5 2 4 6
M  V30 6 1 4 7
M  V30 7 1 6 8
M  V30 8 2 7 9
M  V30 9 2 8 10
M  V30 10 1 9 10
M  V30 END BOND
M  V30 END CTAB
M  END
>  <Molecule Name>
Benzyl ethyl ether

>  <Molecule Name 2>
Benzyl ethyl ether

>  <Activity>
0

$$$$
Allyl phenyl ether
Actelion Java MolfileCreator 2.0

  0  0  0  0  0  0              0 V3000
M  V30 BEGIN CTAB
M  V30 COUNTS 10 10 0 0 0
M  V30 BEGIN ATOM
M  V30 1 O 0.0 0.0 0.0 0
M  V30 2 C 1.2985 -0.7555 0.0 0
M  V30 3 C -1.2985 -0.7555 0.0 0
M  V30 4 C 1.2985 -2.2548 0.0 0
M  V30 5 C 2.5971 -0.0118 0.0 0
M  V30 6 C -2.5971 -0.0118 0.0 0
M  V30 7 C 2.5971 -3.0103 0.0 0
M  V30 8 C 3.8957 -0.7673 0.0 0
M  V30 9 C -3.8957 -0.7673 0.0 0
M  V30 10 C 3.8957 -2.2666 0.0 0
M  V30 END ATOM
M  V30 BEGIN BOND
M  V30 1 1 1 2
M  V30 2 1 1 3
M  V30 3 2 2 4
M  V30 4 1 2 5
M  V30 5 1 3 6
M  V30 6 1 4 7
M  V30 7 2 5 8
M  V30 8 2 6 9
M  V30 9 2 7 10
M  V30 10 1 8 10
M  V30 END BOND
M  V30 END CTAB
M  END
>  <Molecule Name>
Allyl phenyl ether

>  <Molecule Name 2>
Allyl phenyl ether

>  <Activity>
0

$$$$
3,5-Dimethylanisole
Actelion Java MolfileCreator 2.0

  0  0  0  0  0  0              0 V3000
M  V30 BEGIN CTAB
M  V30 COUNTS 10 10 0 0 0
M  V30 BEGIN ATOM
M  V30 1 O 0.0 0.0 0.0 0
M  V30 2 C 1.2988 -0.7557 0.0 0
M  V30 3 C -1.2988 -0.7557 0.0 0
M  V30 4 C 2.5977 -0.0118 0.0 0
M  V30 5 C 1.2988 -2.2552 0.0 0
M  V30 6 C 3.8965 -0.7675 0.0 0
M  V30 7 C 2.5977 -3.0109 0.0 0
M  V30 8 C 3.8965 -2.2671 0.0 0
M  V30 9 C 5.1954 -0.0236 0.0 0
M  V30 10 C 2.5977 -4.5105 0.0 0
M  V30 END ATOM
M  V30 BEGIN BOND
M  V30 1 1 1 2
M  V30 2 1 1 3
M  V30 3 2 2 4
M  V30 4 1 2 5
M  V30 5 1 4 6
M  V30 6 2 5 7
M  V30 7 2 6 8
M  V30 8 1 6 9
M  V30 9 1 7 10
M  V30 10 1 7 8
M  V30 END BOND
M  V30 END CTAB
M  END
>  <Molecule Name>
3,5-Dimethylanisole

>  <Molecule Name 2>
3,5-Dimethylanisole

>  <Activity>
0

$$$$
p-Chloroacetophenone
Actelion Java MolfileCreator 2.0

  0  0  0  0  0  0              0 V3000
M  V30 BEGIN CTAB
M  V30 COUNTS 10 10 0 0 0
M  V30 BEGIN ATOM
M  V30 1 Cl 0.0 0.0 0.0 0
M  V30 2 C -1.2988 0.7557 0.0 0
M  V30 3 C -1.2988 2.2552 0.0 0
M  V30 4 C -2.5977 0.0118 0.0 0
M  V30 5 C -2.5977 3.0109 0.0 0
M  V30 6 C -3.8965 0.7557 0.0 0
M  V30 7 C -3.8965 2.2552 0.0 0
M  V30 8 C -5.1954 2.9991 0.0 0
M  V30 9 O -6.4943 2.2434 0.0 0
M  V30 10 C -5.1954 4.4987 0.0 0
M  V30 END ATOM
M  V30 BEGIN BOND
M  V30 1 1 1 2
M  V30 2 2 2 3
M  V30 3 1 2 4
M  V30 4 1 3 5
M  V30 5 2 4 6
M  V30 6 2 5 7
M  V30 7 1 7 8
M  V30 8 2 8 9
M  V30 9 1 8 10
M  V30 10 1 6 7
M  V30 END BOND
M  V30 END CTAB
M  END
>  <Molecule Name>
p-Chloroacetophenone

>  <Molecule Name 2>
p-Chloroacetophenone

>  <Activity>
0

$$$$
o-Bromophenetole
Actelion Java MolfileCreator 2.0

  0  0  0  0  0  0              0 V3000
M  V30 BEGIN CTAB
M  V30 COUNTS 10 10 0 0 0
M  V30 BEGIN ATOM
M  V30 1 Br 0.0 0.0 0.0 0
M  V30 2 C 1.2985 -0.7437 0.0 0
M  V30 3 C 1.2985 -2.243 0.0 0
M  V30 4 C 2.5971 0.0 0.0 0
M  V30 5 O 0.0 -2.9985 0.0 0
M  V30 6 C 2.5971 -2.9985 0.0 0
M  V30 7 C 3.8957 -0.7437 0.0 0
M  V30 8 C -1.2985 -2.2548 0.0 0
M  V30 9 C 3.8957 -2.2548 0.0 0
M  V30 10 C -2.5971 -3.0103 0.0 0
M  V30 END ATOM
M  V30 BEGIN BOND
M  V30 1 1 1 2
M  V30 2 2 2 3
M  V30 3 1 2 4
M  V30 4 1 3 5
M  V30 5 1 3 6
M  V30 6 2 4 7
M  V30 7 1 5 8
M  V30 8 2 6 9
M  V30 9 1 8 10
M  V30 10 1 7 9
M  V30 END BOND
M  V30 END CTAB
M  END
>  <Molecule Name>
o-Bromophenetole

>  <Molecule Name 2>
o-Bromophenetole

>  <Activity>
0

$$$$
p-Bromophenylmethyl carbinol
Actelion Java MolfileCreator 2.0

  0  0  0  0  0  0              0 V3000
M  V30 BEGIN CTAB
M  V30 COUNTS 10 10 0 0 0
M  V30 BEGIN ATOM
M  V30 1 Br 0.0 0.0 0.0 0
M  V30 2 C -1.2985 -0.7555 0.0 0
M  V30 3 C -2.5971 -0.0118 0.0 0
M  V30 4 C -1.2985 -2.2548 0.0 0
M  V30 5 C -3.8957 -0.7673 0.0 0
M  V30 6 C -2.5971 -3.0103 0.0 0
M  V30 7 C -3.8957 -2.2666 0.0 0
M  V30 8 C -5.1943 -3.0221 0.0 0
M  V30 9 C -6.4929 -2.2784 0.0 0
M  V30 10 O -7.7915 -3.0339 0.0 0
M  V30 END ATOM
M  V30 BEGIN BOND
M  V30 1 1 1 2
M  V30 2 2 2 3
M  V30 3 1 2 4
M  V30 4 1 3 5
M  V30 5 2 4 6
M  V30 6 2 5 7
M  V30 7 1 7 8
M  V30 8 1 8 9
M  V30 9 1 9 10
M  V30 10 1 6 7
M  V30 END BOND
M  V30 END CTAB
M  END
>  <Molecule Name>
p-Bromophenylmethyl carbinol

>  <Molecule Name 2>
p-Bromophenylmethyl carbinol

>  <Activity>
0

$$$$
beta-Bromophenetole
Actelion Java MolfileCreator 2.0

  0  0  0  0  0  0              0 V3000
M  V30 BEGIN CTAB
M  V30 COUNTS 10 10 0 0 0
M  V30 BEGIN ATOM
M  V30 1 Br 0.0 0.0 0.0 0
M  V30 2 C -1.3001 0.7446 0.0 0
M  V30 3 C -2.6002 0.0 0.0 0
M  V30 4 O -3.9003 0.7446 0.0 0
M  V30 5 C -5.2005 0.0 0.0 0
M  V30 6 C -6.5006 0.7564 0.0 0
M  V30 7 C -5.2005 -1.501 0.0 0
M  V30 8 C -7.8007 0.0118 0.0 0
M  V30 9 C -6.5006 -2.2456 0.0 0
M  V30 10 C -7.8007 -1.4892 0.0 0
M  V30 END ATOM
M  V30 BEGIN BOND
M  V30 1 1 1 2
M  V30 2 1 2 3
M  V30 3 1 3 4
M  V30 4 1 4 5
M  V30 5 2 5 6
M  V30 6 1 5 7
M  V30 7 1 6 8
M  V30 8 2 7 9
M  V30 9 2 8 10
M  V30 10 1 9 10
M  V30 END BOND
M  V30 END CTAB
M  END
>  <Molecule Name>
beta-Bromophenetole

>  <Molecule Name 2>
beta-Bromophenetole

>  <Activity>
0

$$$$
4-Chlorophenyl ethyl ether
Actelion Java MolfileCreator 2.0

  0  0  0  0  0  0              0 V3000
M  V30 BEGIN CTAB
M  V30 COUNTS 10 10 0 0 0
M  V30 BEGIN ATOM
M  V30 1 Cl 0.0 0.0 0.0 0
M  V30 2 C 1.3016 0.7454 0.0 0
M  V30 3 C 1.3016 2.2483 0.0 0
M  V30 4 C 2.6033 0.0 0.0 0
M  V30 5 C 2.6033 2.9938 0.0 0
M  V30 6 C 3.9049 0.7454 0.0 0
M  V30 7 C 3.9049 2.2364 0.0 0
M  V30 8 O 5.2066 2.9819 0.0 0
M  V30 9 C 6.5083 2.2364 0.0 0
M  V30 10 C 7.8099 2.9819 0.0 0
M  V30 END ATOM
M  V30 BEGIN BOND
M  V30 1 1 1 2
M  V30 2 2 2 3
M  V30 3 1 2 4
M  V30 4 1 3 5
M  V30 5 2 4 6
M  V30 6 2 5 7
M  V30 7 1 7 8
M  V30 8 1 8 9
M  V30 9 1 9 10
M  V30 10 1 6 7
M  V30 END BOND
M  V30 END CTAB
M  END
>  <Molecule Name>
4-Chlorophenyl ethyl ether

>  <Molecule Name 2>
4-Chlorophenyl ethyl ether

>  <Activity>
0

$$$$
Acetic acid, furfuryl ester
Actelion Java MolfileCreator 2.0

  0  0  0  0  0  0              0 V3000
M  V30 BEGIN CTAB
M  V30 COUNTS 10 10 0 0 0
M  V30 BEGIN ATOM
M  V30 1 O 0.0 0.0 0.0 0
M  V30 2 C 0.0 -1.4999 0.0 0
M  V30 3 O -1.2991 -2.2558 0.0 0
M  V30 4 C 1.2991 -2.2558 0.0 0
M  V30 5 C -2.5983 -1.5117 0.0 0
M  V30 6 C -3.8975 -2.2676 0.0 0
M  V30 7 O -4.051 -3.7557 0.0 0
M  V30 8 C -5.2675 -1.6534 0.0 0
M  V30 9 C -5.5155 -4.0628 0.0 0
M  V30 10 C -6.2714 -2.7636 0.0 0
M  V30 END ATOM
M  V30 BEGIN BOND
M  V30 1 2 1 2
M  V30 2 1 2 3
M  V30 3 1 2 4
M  V30 4 1 3 5
M  V30 5 1 5 6
M  V30 6 1 6 7
M  V30 7 2 6 8
M  V30 8 1 7 9
M  V30 9 1 8 10
M  V30 10 2 9 10
M  V30 END BOND
M  V30 END CTAB
M  END
>  <Molecule Name>
Acetic acid, furfuryl ester

>  <Molecule Name 2>
Acetic acid, furfuryl ester

>  <Activity>
0

$$$$
p-Chlorobenzylcyanide
Actelion Java MolfileCreator 2.0

  0  0  0  0  0  0              0 V3000
M  V30 BEGIN CTAB
M  V30 COUNTS 10 10 0 0 0
M  V30 BEGIN ATOM
M  V30 1 Cl 0.0 0.0 0.0 0
M  V30 2 C -1.2996 -0.7443 0.0 0
M  V30 3 C -2.5992 0.0118 0.0 0
M  V30 4 C -1.2996 -2.2448 0.0 0
M  V30 5 C -3.8989 -0.7325 0.0 0
M  V30 6 C -2.5992 -2.9891 0.0 0
M  V30 7 C -3.8989 -2.233 0.0 0
M  V30 8 C -5.1985 -2.9773 0.0 0
M  V30 9 C -5.1985 -4.4778 0.0 0
M  V30 10 N -5.1985 -5.9783 0.0 0
M  V30 END ATOM
M  V30 BEGIN BOND
M  V30 1 1 1 2
M  V30 2 2 2 3
M  V30 3 1 2 4
M  V30 4 1 3 5
M  V30 5 2 4 6
M  V30 6 2 5 7
M  V30 7 1 7 8
M  V30 8 1 8 9
M  V30 9 3 9 10
M  V30 10 1 6 7
M  V30 END BOND
M  V30 END CTAB
M  END
>  <Molecule Name>
p-Chlorobenzylcyanide

>  <Molecule Name 2>
p-Chlorobenzylcyanide

>  <Activity>
0

$$$$
Myrcene
Actelion Java MolfileCreator 2.0

  0  0  0  0  0  0              0 V3000
M  V30 BEGIN CTAB
M  V30 COUNTS 10 9 0 0 0
M  V30 BEGIN ATOM
M  V30 1 C 0.0 0.0 0.0 0
M  V30 2 C -1.2974 -0.7548 0.0 0
M  V30 3 C 0.0 1.4979 0.0 0
M  V30 4 C 1.2974 -0.7548 0.0 0
M  V30 5 C -1.2974 -2.2527 0.0 0
M  V30 6 C 2.5948 0.0 0.0 0
M  V30 7 C 3.8922 -0.7548 0.0 0
M  V30 8 C 5.1896 0.0 0.0 0
M  V30 9 C 6.487 -0.7548 0.0 0
M  V30 10 C 5.1896 1.4979 0.0 0
M  V30 END ATOM
M  V30 BEGIN BOND
M  V30 1 1 1 2
M  V30 2 2 1 3
M  V30 3 1 1 4
M  V30 4 2 2 5
M  V30 5 1 4 6
M  V30 6 1 6 7
M  V30 7 2 7 8
M  V30 8 1 8 9
M  V30 9 1 8 10
M  V30 END BOND
M  V30 END CTAB
M  END
>  <Molecule Name>
Myrcene

>  <Molecule Name 2>
Myrcene

>  <Activity>
0

$$$$
3,7-Dimethyl-1,3,6-octatriene
Actelion Java MolfileCreator 2.0

  0  0  0  0  0  0              0 V3000
M  V30 BEGIN CTAB
M  V30 COUNTS 10 9 0 0 0
M  V30 BEGIN ATOM
M  V30 1 C 0.0 0.0 0.0 0
M  V30 2 C 1.2988 -0.7556 0.0 0
M  V30 3 C -1.2988 -0.7556 0.0 0
M  V30 4 C 0.0 1.4995 0.0 0
M  V30 5 C 2.5976 -0.0118 0.0 0
M  V30 6 C -2.5976 -0.0118 0.0 0
M  V30 7 C -3.8964 -0.7674 0.0 0
M  V30 8 C -5.1952 -0.0236 0.0 0
M  V30 9 C -6.4941 -0.7792 0.0 0
M  V30 10 C -5.1952 1.4759 0.0 0
M  V30 END ATOM
M  V30 BEGIN BOND
M  V30 1 1 1 2
M  V30 2 2 1 3 CFG=2
M  V30 3 1 1 4
M  V30 4 2 2 5
M  V30 5 1 3 6
M  V30 6 1 6 7
M  V30 7 2 7 8
M  V30 8 1 8 9
M  V30 9 1 8 10
M  V30 END BOND
M  V30 END CTAB
M  END
>  <Molecule Name>
3,7-Dimethyl-1,3,6-octatriene

>  <Molecule Name 2>
3,7-Dimethyl-1,3,6-octatriene

>  <Activity>
0

$$$$
Acetylglycolic acid, ethyl ester
Actelion Java MolfileCreator 2.0

  0  0  0  0  0  0              0 V3000
M  V30 BEGIN CTAB
M  V30 COUNTS 10 9 0 0 0
M  V30 BEGIN ATOM
M  V30 1 O 0.0 0.0 0.0 0
M  V30 2 C 0.0 -1.4992 0.0 0
M  V30 3 O -1.2985 -2.2547 0.0 0
M  V30 4 C 1.2985 -2.2547 0.0 0 CFG=1
M  V30 5 C -2.5971 -1.511 0.0 0
M  V30 6 O 1.2985 -3.7539 0.0 0
M  V30 7 C 2.5971 -1.511 0.0 0
M  V30 8 C -3.8956 -2.2665 0.0 0
M  V30 9 O 2.5971 -0.0118 0.0 0
M  V30 10 C 3.8956 -2.2665 0.0 0
M  V30 END ATOM
M  V30 BEGIN BOND
M  V30 1 2 1 2
M  V30 2 1 2 3
M  V30 3 1 2 4
M  V30 4 1 3 5
M  V30 5 1 4 6 CFG=3
M  V30 6 1 4 7
M  V30 7 1 5 8
M  V30 8 2 7 9
M  V30 9 1 7 10
M  V30 END BOND
M  V30 BEGIN COLLECTION
M  V30 MDLV30/STERAC1 ATOMS=(1 4)
M  V30 END COLLECTION
M  V30 END CTAB
M  END
>  <Molecule Name>
Acetylglycolic acid, ethyl ester

>  <Molecule Name 2>
Acetylglycolic acid, ethyl ester

>  <Activity>
0

$$$$
Lactic acid, methoxyethyl ester
Actelion Java MolfileCreator 2.0

  0  0  0  0  0  0              0 V3000
M  V30 BEGIN CTAB
M  V30 COUNTS 10 9 0 0 0
M  V30 BEGIN ATOM
M  V30 1 O 0.0 0.0 0.0 0
M  V30 2 C 0.0 -1.4995 0.0 0
M  V30 3 O -1.2988 -2.2552 0.0 0
M  V30 4 C 1.2988 -2.2552 0.0 0 CFG=1
M  V30 5 C -2.5976 -1.5113 0.0 0
M  V30 6 O 2.5976 -1.5113 0.0 0
M  V30 7 C 1.2988 -3.7547 0.0 0
M  V30 8 C -3.8964 -2.267 0.0 0
M  V30 9 O -5.1952 -1.5231 0.0 0
M  V30 10 C -6.4941 -2.2788 0.0 0
M  V30 END ATOM
M  V30 BEGIN BOND
M  V30 1 2 1 2
M  V30 2 1 2 3
M  V30 3 1 2 4
M  V30 4 1 3 5
M  V30 5 1 4 6 CFG=1
M  V30 6 1 4 7
M  V30 7 1 5 8
M  V30 8 1 8 9
M  V30 9 1 9 10
M  V30 END BOND
M  V30 BEGIN COLLECTION
M  V30 MDLV30/STERAC1 ATOMS=(1 4)
M  V30 END COLLECTION
M  V30 END CTAB
M  END
>  <Molecule Name>
Lactic acid, methoxyethyl ester

>  <Molecule Name 2>
Lactic acid, methoxyethyl ester

>  <Activity>
0

$$$$
Succinic acid, dimethyl ester
Actelion Java MolfileCreator 2.0

  0  0  0  0  0  0              0 V3000
M  V30 BEGIN CTAB
M  V30 COUNTS 10 9 0 0 0
M  V30 BEGIN ATOM
M  V30 1 O 0.0 0.0 0.0 0
M  V30 2 C 0.0 -1.4995 0.0 0
M  V30 3 O 1.2988 -2.2552 0.0 0
M  V30 4 C -1.2988 -2.2552 0.0 0
M  V30 5 C 2.5976 -1.5113 0.0 0
M  V30 6 C -2.5976 -1.5113 0.0 0
M  V30 7 C -3.8964 -2.267 0.0 0
M  V30 8 O -3.8964 -3.7665 0.0 0
M  V30 9 O -5.1952 -1.5231 0.0 0
M  V30 10 C -6.4941 -2.2788 0.0 0
M  V30 END ATOM
M  V30 BEGIN BOND
M  V30 1 2 1 2
M  V30 2 1 2 3
M  V30 3 1 2 4
M  V30 4 1 3 5
M  V30 5 1 4 6
M  V30 6 1 6 7
M  V30 7 2 7 8
M  V30 8 1 7 9
M  V30 9 1 9 10
M  V30 END BOND
M  V30 END CTAB
M  END
>  <Molecule Name>
Succinic acid, dimethyl ester

>  <Molecule Name 2>
Succinic acid, dimethyl ester

>  <Activity>
0

$$$$
Triethylene glycol
Actelion Java MolfileCreator 2.0

  0  0  0  0  0  0              0 V3000
M  V30 BEGIN CTAB
M  V30 COUNTS 10 9 0 0 0
M  V30 BEGIN ATOM
M  V30 1 O 0.0 0.0 0.0 0
M  V30 2 C 1.3004 -0.7475 0.0 0
M  V30 3 C -1.3004 -0.7475 0.0 0
M  V30 4 C 2.6009 0.0 0.0 0
M  V30 5 C -2.6009 0.0 0.0 0
M  V30 6 O 3.9014 -0.7475 0.0 0
M  V30 7 O -3.9014 -0.7475 0.0 0
M  V30 8 C 5.2018 0.0 0.0 0
M  V30 9 C 6.5023 -0.7475 0.0 0
M  V30 10 O 7.8028 0.0 0.0 0
M  V30 END ATOM
M  V30 BEGIN BOND
M  V30 1 1 1 2
M  V30 2 1 1 3
M  V30 3 1 2 4
M  V30 4 1 3 5
M  V30 5 1 4 6
M  V30 6 1 5 7
M  V30 7 1 6 8
M  V30 8 1 8 9
M  V30 9 1 9 10
M  V30 END BOND
M  V30 END CTAB
M  END
>  <Molecule Name>
Triethylene glycol

>  <Molecule Name 2>
Triethylene glycol

>  <Activity>
0

$$$$
Butyroin
Actelion Java MolfileCreator 2.0

  0  0  0  0  0  0              0 V3000
M  V30 BEGIN CTAB
M  V30 COUNTS 10 9 0 0 0
M  V30 BEGIN ATOM
M  V30 1 O 0.0 0.0 0.0 0
M  V30 2 C 0.0 1.5002 0.0 0
M  V30 3 C -1.2993 2.2443 0.0 0 CFG=1
M  V30 4 C 1.2993 2.2443 0.0 0
M  V30 5 O -1.2993 3.7446 0.0 0
M  V30 6 C -2.5987 1.4883 0.0 0
M  V30 7 C 2.5987 1.4883 0.0 0
M  V30 8 C -3.8981 2.2325 0.0 0
M  V30 9 C 3.8981 2.2325 0.0 0
M  V30 10 C -5.1975 1.4765 0.0 0
M  V30 END ATOM
M  V30 BEGIN BOND
M  V30 1 2 1 2
M  V30 2 1 2 3
M  V30 3 1 2 4
M  V30 4 1 3 5 CFG=3
M  V30 5 1 3 6
M  V30 6 1 4 7
M  V30 7 1 6 8
M  V30 8 1 7 9
M  V30 9 1 8 10
M  V30 END BOND
M  V30 BEGIN COLLECTION
M  V30 MDLV30/STERAC1 ATOMS=(1 3)
M  V30 END COLLECTION
M  V30 END CTAB
M  END
>  <Molecule Name>
Butyroin

>  <Molecule Name 2>
Butyroin

>  <Activity>
0

$$$$
Valeric acid, n-propyl ester
Actelion Java MolfileCreator 2.0

  0  0  0  0  0  0              0 V3000
M  V30 BEGIN CTAB
M  V30 COUNTS 10 9 0 0 0
M  V30 BEGIN ATOM
M  V30 1 O 0.0 0.0 0.0 0
M  V30 2 C 0.0 1.4998 0.0 0
M  V30 3 O -1.299 2.2438 0.0 0
M  V30 4 C 1.299 2.2438 0.0 0
M  V30 5 C -2.5981 1.488 0.0 0
M  V30 6 C 2.5981 1.488 0.0 0
M  V30 7 C -3.8972 2.232 0.0 0
M  V30 8 C 3.8972 2.232 0.0 0
M  V30 9 C -5.1963 1.4762 0.0 0
M  V30 10 C 5.1963 1.4762 0.0 0
M  V30 END ATOM
M  V30 BEGIN BOND
M  V30 1 2 1 2
M  V30 2 1 2 3
M  V30 3 1 2 4
M  V30 4 1 3 5
M  V30 5 1 4 6
M  V30 6 1 5 7
M  V30 7 1 6 8
M  V30 8 1 7 9
M  V30 9 1 8 10
M  V30 END BOND
M  V30 END CTAB
M  END
>  <Molecule Name>
Valeric acid, n-propyl ester

>  <Molecule Name 2>
Valeric acid, n-propyl ester

>  <Activity>
0

$$$$
Crotonic acid, iso-butyl ester
Actelion Java MolfileCreator 2.0

  0  0  0  0  0  0              0 V3000
M  V30 BEGIN CTAB
M  V30 COUNTS 10 9 0 0 0
M  V30 BEGIN ATOM
M  V30 1 O 0.0 0.0 0.0 0
M  V30 2 C 0.0 1.5002 0.0 0
M  V30 3 O -1.2993 2.2443 0.0 0
M  V30 4 C 1.2993 2.2443 0.0 0
M  V30 5 C -2.5987 1.4883 0.0 0
M  V30 6 C 2.5987 1.4883 0.0 0
M  V30 7 C -3.8981 2.2325 0.0 0
M  V30 8 C 3.8981 2.2325 0.0 0
M  V30 9 C -3.8981 3.7327 0.0 0
M  V30 10 C -5.1975 1.4765 0.0 0
M  V30 END ATOM
M  V30 BEGIN BOND
M  V30 1 2 1 2
M  V30 2 1 2 3
M  V30 3 1 2 4
M  V30 4 1 3 5
M  V30 5 2 4 6
M  V30 6 1 5 7
M  V30 7 1 6 8
M  V30 8 1 7 9
M  V30 9 1 7 10
M  V30 END BOND
M  V30 END CTAB
M  END
>  <Molecule Name>
Crotonic acid, iso-butyl ester

>  <Molecule Name 2>
Crotonic acid, iso-butyl ester

>  <Activity>
0

$$$$
n-Butyric acid, n-butyl ester
Actelion Java MolfileCreator 2.0

  0  0  0  0  0  0              0 V3000
M  V30 BEGIN CTAB
M  V30 COUNTS 10 9 0 0 0
M  V30 BEGIN ATOM
M  V30 1 O 0.0 0.0 0.0 0
M  V30 2 C 0.0 -1.4992 0.0 0
M  V30 3 O -1.2985 -2.2547 0.0 0
M  V30 4 C 1.2985 -2.2547 0.0 0
M  V30 5 C -2.597 -1.511 0.0 0
M  V30 6 C 2.597 -1.511 0.0 0
M  V30 7 C -3.8955 -2.2665 0.0 0
M  V30 8 C 3.8955 -2.2665 0.0 0
M  V30 9 C -5.194 -1.5228 0.0 0
M  V30 10 C -6.4926 -2.2783 0.0 0
M  V30 END ATOM
M  V30 BEGIN BOND
M  V30 1 2 1 2
M  V30 2 1 2 3
M  V30 3 1 2 4
M  V30 4 1 3 5
M  V30 5 1 4 6
M  V30 6 1 5 7
M  V30 7 1 6 8
M  V30 8 1 7 9
M  V30 9 1 9 10
M  V30 END BOND
M  V30 END CTAB
M  END
>  <Molecule Name>
n-Butyric acid, n-butyl ester

>  <Molecule Name 2>
n-Butyric acid, n-butyl ester

>  <Activity>
0

$$$$
n-Butyric acid, tert-butyl ester
Actelion Java MolfileCreator 2.0

  0  0  0  0  0  0              0 V3000
M  V30 BEGIN CTAB
M  V30 COUNTS 10 9 0 0 0
M  V30 BEGIN ATOM
M  V30 1 O 0.0 0.0 0.0 0
M  V30 2 C 0.0 1.5011 0.0 0
M  V30 3 O -1.3002 2.2458 0.0 0
M  V30 4 C 1.3002 2.2458 0.0 0
M  V30 5 C -2.6004 1.4893 0.0 0
M  V30 6 C 2.6004 1.4893 0.0 0
M  V30 7 C -1.8557 0.1891 0.0 0
M  V30 8 C -3.9006 0.7446 0.0 0
M  V30 9 C -3.3451 2.7895 0.0 0
M  V30 10 C 3.9006 2.234 0.0 0
M  V30 END ATOM
M  V30 BEGIN BOND
M  V30 1 2 1 2
M  V30 2 1 2 3
M  V30 3 1 2 4
M  V30 4 1 3 5
M  V30 5 1 4 6
M  V30 6 1 5 7
M  V30 7 1 5 8
M  V30 8 1 5 9
M  V30 9 1 6 10
M  V30 END BOND
M  V30 END CTAB
M  END
>  <Molecule Name>
n-Butyric acid, tert-butyl ester

>  <Molecule Name 2>
n-Butyric acid, tert-butyl ester

>  <Activity>
0

$$$$
Valeric acid, iso-propyl ester
Actelion Java MolfileCreator 2.0

  0  0  0  0  0  0              0 V3000
M  V30 BEGIN CTAB
M  V30 COUNTS 10 9 0 0 0
M  V30 BEGIN ATOM
M  V30 1 O 0.0 0.0 0.0 0
M  V30 2 C 0.0 -1.4995 0.0 0
M  V30 3 O -1.2988 -2.2552 0.0 0
M  V30 4 C 1.2988 -2.2552 0.0 0
M  V30 5 C -2.5976 -1.5113 0.0 0
M  V30 6 C 2.5976 -1.5113 0.0 0
M  V30 7 C -2.5976 -0.0118 0.0 0
M  V30 8 C -3.8964 -2.267 0.0 0
M  V30 9 C 3.8964 -2.267 0.0 0
M  V30 10 C 5.1952 -1.5231 0.0 0
M  V30 END ATOM
M  V30 BEGIN BOND
M  V30 1 2 1 2
M  V30 2 1 2 3
M  V30 3 1 2 4
M  V30 4 1 3 5
M  V30 5 1 4 6
M  V30 6 1 5 7
M  V30 7 1 5 8
M  V30 8 1 6 9
M  V30 9 1 9 10
M  V30 END BOND
M  V30 END CTAB
M  END
>  <Molecule Name>
Valeric acid, iso-propyl ester

>  <Molecule Name 2>
Valeric acid, iso-propyl ester

>  <Activity>
0

$$$$
Pivalic acid, allyl ester
Actelion Java MolfileCreator 2.0

  0  0  0  0  0  0              0 V3000
M  V30 BEGIN CTAB
M  V30 COUNTS 10 9 0 0 0
M  V30 BEGIN ATOM
M  V30 1 O 0.0 0.0 0.0 0
M  V30 2 C 0.0 1.5005 0.0 0
M  V30 3 O -1.2996 2.2448 0.0 0
M  V30 4 C 1.2996 2.2448 0.0 0
M  V30 5 C -2.5993 1.4886 0.0 0
M  V30 6 C 0.5553 3.5445 0.0 0
M  V30 7 C 2.5993 2.9892 0.0 0
M  V30 8 C 2.0558 0.9452 0.0 0
M  V30 9 C -3.8989 2.233 0.0 0
M  V30 10 C -5.1986 1.4768 0.0 0
M  V30 END ATOM
M  V30 BEGIN BOND
M  V30 1 2 1 2
M  V30 2 1 2 3
M  V30 3 1 2 4
M  V30 4 1 3 5
M  V30 5 1 4 6
M  V30 6 1 4 7
M  V30 7 1 4 8
M  V30 8 1 5 9
M  V30 9 2 9 10
M  V30 END BOND
M  V30 END CTAB
M  END
>  <Molecule Name>
Pivalic acid, allyl ester

>  <Molecule Name 2>
Pivalic acid, allyl ester

>  <Activity>
0

$$$$
3-Methyl-4-hydroxy-2-heptanone
Actelion Java MolfileCreator 2.0

  0  0  0  0  0  0              0 V3000
M  V30 BEGIN CTAB
M  V30 COUNTS 10 9 0 0 0
M  V30 BEGIN ATOM
M  V30 1 O 0.0 0.0 0.0 0
M  V30 2 C 0.0 -1.4992 0.0 0
M  V30 3 C -1.2985 -2.2547 0.0 0
M  V30 4 C 1.2985 -2.2547 0.0 0
M  V30 5 C -2.5971 -1.511 0.0 0
M  V30 6 C -1.2985 -3.7539 0.0 0
M  V30 7 O -2.5971 -0.0118 0.0 0
M  V30 8 C -3.8956 -2.2665 0.0 0
M  V30 9 C -5.1942 -1.5228 0.0 0
M  V30 10 C -6.4927 -2.2783 0.0 0
M  V30 END ATOM
M  V30 BEGIN BOND
M  V30 1 2 1 2
M  V30 2 1 2 3
M  V30 3 1 2 4
M  V30 4 1 3 5
M  V30 5 1 3 6
M  V30 6 1 5 7
M  V30 7 1 5 8
M  V30 8 1 8 9
M  V30 9 1 9 10
M  V30 END BOND
M  V30 END CTAB
M  END
>  <Molecule Name>
3-Methyl-4-hydroxy-2-heptanone

>  <Molecule Name 2>
3-Methyl-4-hydroxy-2-heptanone

>  <Activity>
0

$$$$
3-Allyl-2,4-pentanedione
Actelion Java MolfileCreator 2.0

  0  0  0  0  0  0              0 V3000
M  V30 BEGIN CTAB
M  V30 COUNTS 10 9 0 0 0
M  V30 BEGIN ATOM
M  V30 1 O 0.0 0.0 0.0 0
M  V30 2 C -1.2993 0.7441 0.0 0
M  V30 3 C -1.2993 2.2443 0.0 0
M  V30 4 C -2.5987 -0.0118 0.0 0
M  V30 5 C -2.5987 2.9885 0.0 0
M  V30 6 C 0.0 2.9885 0.0 0
M  V30 7 O -3.8981 2.2325 0.0 0
M  V30 8 C -2.5987 4.4887 0.0 0
M  V30 9 C 1.2993 2.2325 0.0 0
M  V30 10 C 2.5987 2.9767 0.0 0
M  V30 END ATOM
M  V30 BEGIN BOND
M  V30 1 2 1 2
M  V30 2 1 2 3
M  V30 3 1 2 4
M  V30 4 1 3 5
M  V30 5 1 3 6
M  V30 6 2 5 7
M  V30 7 1 5 8
M  V30 8 1 6 9
M  V30 9 2 9 10
M  V30 END BOND
M  V30 END CTAB
M  END
>  <Molecule Name>
3-Allyl-2,4-pentanedione

>  <Molecule Name 2>
3-Allyl-2,4-pentanedione

>  <Activity>
0

$$$$
2,3-diethoxy-1,3-butadiene
Actelion Java MolfileCreator 2.0

  0  0  0  0  0  0              0 V3000
M  V30 BEGIN CTAB
M  V30 COUNTS 10 9 0 0 0
M  V30 BEGIN ATOM
M  V30 1 O 0.0 0.0 0.0 0
M  V30 2 C -1.2988 -0.7556 0.0 0
M  V30 3 C 1.2988 -0.7556 0.0 0
M  V30 4 C -2.5976 -0.0118 0.0 0
M  V30 5 C -1.2988 -2.2552 0.0 0
M  V30 6 C 2.5976 -0.0118 0.0 0
M  V30 7 O -3.8964 -0.7674 0.0 0
M  V30 8 C -2.5976 1.4877 0.0 0
M  V30 9 C -5.1952 -0.0236 0.0 0
M  V30 10 C -6.4941 -0.7792 0.0 0
M  V30 END ATOM
M  V30 BEGIN BOND
M  V30 1 1 1 2
M  V30 2 1 1 3
M  V30 3 1 2 4
M  V30 4 2 2 5
M  V30 5 1 3 6
M  V30 6 1 4 7
M  V30 7 2 4 8
M  V30 8 1 7 9
M  V30 9 1 9 10
M  V30 END BOND
M  V30 END CTAB
M  END
>  <Molecule Name>
2,3-diethoxy-1,3-butadiene

>  <Molecule Name 2>
2,3-diethoxy-1,3-butadiene

>  <Activity>
0

$$$$
2-Ethyl-3-hydroxyhexanal
Actelion Java MolfileCreator 2.0

  0  0  0  0  0  0              0 V3000
M  V30 BEGIN CTAB
M  V30 COUNTS 10 9 0 0 0
M  V30 BEGIN ATOM
M  V30 1 O 0.0 0.0 0.0 0
M  V30 2 C -1.2993 0.7441 0.0 0
M  V30 3 C -1.2993 2.2443 0.0 0
M  V30 4 C -2.5987 2.9885 0.0 0
M  V30 5 C 0.0 2.9885 0.0 0
M  V30 6 O -2.5987 4.4887 0.0 0
M  V30 7 C -3.8981 2.2325 0.0 0
M  V30 8 C 1.2993 2.2325 0.0 0
M  V30 9 C -5.1975 2.9767 0.0 0
M  V30 10 C -6.4969 2.2207 0.0 0
M  V30 END ATOM
M  V30 BEGIN BOND
M  V30 1 2 1 2
M  V30 2 1 2 3
M  V30 3 1 3 4
M  V30 4 1 3 5
M  V30 5 1 4 6
M  V30 6 1 4 7
M  V30 7 1 5 8
M  V30 8 1 7 9
M  V30 9 1 9 10
M  V30 END BOND
M  V30 END CTAB
M  END
>  <Molecule Name>
2-Ethyl-3-hydroxyhexanal

>  <Molecule Name 2>
2-Ethyl-3-hydroxyhexanal

>  <Activity>
0

$$$$
beta-bromopropionic acid, n-butyl ester
Actelion Java MolfileCreator 2.0

  0  0  0  0  0  0              0 V3000
M  V30 BEGIN CTAB
M  V30 COUNTS 10 9 0 0 0
M  V30 BEGIN ATOM
M  V30 1 Br 0.0 0.0 0.0 0
M  V30 2 C -1.299 0.744 0.0 0
M  V30 3 C -2.5981 -0.0118 0.0 0
M  V30 4 C -3.8972 0.7322 0.0 0
M  V30 5 O -3.8972 2.232 0.0 0
M  V30 6 O -5.1963 -0.0236 0.0 0
M  V30 7 C -6.4954 0.7204 0.0 0
M  V30 8 C -7.7945 -0.0354 0.0 0
M  V30 9 C -9.0936 0.7085 0.0 0
M  V30 10 C -10.3927 -0.0472 0.0 0
M  V30 END ATOM
M  V30 BEGIN BOND
M  V30 1 1 1 2
M  V30 2 1 2 3
M  V30 3 1 3 4
M  V30 4 2 4 5
M  V30 5 1 4 6
M  V30 6 1 6 7
M  V30 7 1 7 8
M  V30 8 1 8 9
M  V30 9 1 9 10
M  V30 END BOND
M  V30 END CTAB
M  END
>  <Molecule Name>
beta-bromopropionic acid, n-butyl ester

>  <Molecule Name 2>
beta-bromopropionic acid, n-butyl ester

>  <Activity>
0

$$$$
Chloroacetic acid, iso-amyl ester
Actelion Java MolfileCreator 2.0

  0  0  0  0  0  0              0 V3000
M  V30 BEGIN CTAB
M  V30 COUNTS 10 9 0 0 0
M  V30 BEGIN ATOM
M  V30 1 Cl 0.0 0.0 0.0 0
M  V30 2 C -1.2988 -0.7556 0.0 0
M  V30 3 C -2.5976 -0.0118 0.0 0
M  V30 4 O -2.5976 1.4877 0.0 0
M  V30 5 O -3.8964 -0.7674 0.0 0
M  V30 6 C -5.1952 -0.0236 0.0 0
M  V30 7 C -6.4941 -0.7792 0.0 0
M  V30 8 C -7.7929 -0.0354 0.0 0
M  V30 9 C -7.7929 1.4641 0.0 0
M  V30 10 C -9.0917 -0.7911 0.0 0
M  V30 END ATOM
M  V30 BEGIN BOND
M  V30 1 1 1 2
M  V30 2 1 2 3
M  V30 3 2 3 4
M  V30 4 1 3 5
M  V30 5 1 5 6
M  V30 6 1 6 7
M  V30 7 1 7 8
M  V30 8 1 8 9
M  V30 9 1 8 10
M  V30 END BOND
M  V30 END CTAB
M  END
>  <Molecule Name>
Chloroacetic acid, iso-amyl ester

>  <Molecule Name 2>
Chloroacetic acid, iso-amyl ester

>  <Activity>
0

$$$$
Di-n-butylcarbinol
Actelion Java MolfileCreator 2.0

  0  0  0  0  0  0              0 V3000
M  V30 BEGIN CTAB
M  V30 COUNTS 10 9 0 0 0
M  V30 BEGIN ATOM
M  V30 1 O 0.0 0.0 0.0 0
M  V30 2 C 0.0 1.4998 0.0 0
M  V30 3 C 1.299 2.2438 0.0 0
M  V30 4 C -1.299 2.2438 0.0 0
M  V30 5 C 2.5981 1.488 0.0 0
M  V30 6 C -2.5981 1.488 0.0 0
M  V30 7 C 3.8972 2.232 0.0 0
M  V30 8 C -3.8972 2.232 0.0 0
M  V30 9 C 5.1963 1.4762 0.0 0
M  V30 10 C -5.1963 1.4762 0.0 0
M  V30 END ATOM
M  V30 BEGIN BOND
M  V30 1 1 1 2
M  V30 2 1 2 3
M  V30 3 1 2 4
M  V30 4 1 3 5
M  V30 5 1 4 6
M  V30 6 1 5 7
M  V30 7 1 6 8
M  V30 8 1 7 9
M  V30 9 1 8 10
M  V30 END BOND
M  V30 END CTAB
M  END
>  <Molecule Name>
Di-n-butylcarbinol

>  <Molecule Name 2>
Di-n-butylcarbinol

>  <Activity>
0

$$$$
Phorone
Actelion Java MolfileCreator 2.0

  0  0  0  0  0  0              0 V3000
M  V30 BEGIN CTAB
M  V30 COUNTS 10 9 0 0 0
M  V30 BEGIN ATOM
M  V30 1 O 0.0 0.0 0.0 0
M  V30 2 C 0.0 -1.4992 0.0 0
M  V30 3 C 1.2985 -2.2547 0.0 0
M  V30 4 C -1.2985 -2.2547 0.0 0
M  V30 5 C 2.5971 -1.511 0.0 0
M  V30 6 C -2.5971 -1.511 0.0 0
M  V30 7 C 3.8956 -2.2665 0.0 0
M  V30 8 C 2.5971 -0.0118 0.0 0
M  V30 9 C -3.8956 -2.2665 0.0 0
M  V30 10 C -2.5971 -0.0118 0.0 0
M  V30 END ATOM
M  V30 BEGIN BOND
M  V30 1 2 1 2
M  V30 2 1 2 3
M  V30 3 1 2 4
M  V30 4 2 3 5
M  V30 5 2 4 6
M  V30 6 1 5 7
M  V30 7 1 5 8
M  V30 8 1 6 9
M  V30 9 1 6 10
M  V30 END BOND
M  V30 END CTAB
M  END
>  <Molecule Name>
Phorone

>  <Molecule Name 2>
Phorone

>  <Activity>
0

$$$$
Di-iso-butyl ketone
Actelion Java MolfileCreator 2.0

  0  0  0  0  0  0              0 V3000
M  V30 BEGIN CTAB
M  V30 COUNTS 10 9 0 0 0
M  V30 BEGIN ATOM
M  V30 1 O 0.0 0.0 0.0 0
M  V30 2 C 0.0 -1.4992 0.0 0
M  V30 3 C 1.2985 -2.2547 0.0 0
M  V30 4 C -1.2985 -2.2547 0.0 0
M  V30 5 C 2.5971 -1.511 0.0 0
M  V30 6 C -2.5971 -1.511 0.0 0
M  V30 7 C 3.8956 -2.2665 0.0 0
M  V30 8 C 2.5971 -0.0118 0.0 0
M  V30 9 C -2.5971 -0.0118 0.0 0
M  V30 10 C -3.8956 -2.2665 0.0 0
M  V30 END ATOM
M  V30 BEGIN BOND
M  V30 1 2 1 2
M  V30 2 1 2 3
M  V30 3 1 2 4
M  V30 4 1 3 5
M  V30 5 1 4 6
M  V30 6 1 5 7
M  V30 7 1 5 8
M  V30 8 1 6 9
M  V30 9 1 6 10
M  V30 END BOND
M  V30 END CTAB
M  END
>  <Molecule Name>
Di-iso-butyl ketone

>  <Molecule Name 2>
Di-iso-butyl ketone

>  <Activity>
0

$$$$
Hexamethylacetone
Actelion Java MolfileCreator 2.0

  0  0  0  0  0  0              0 V3000
M  V30 BEGIN CTAB
M  V30 COUNTS 10 9 0 0 0
M  V30 BEGIN ATOM
M  V30 1 O 0.0 0.0 0.0 0
M  V30 2 C 0.0 -1.4998 0.0 0
M  V30 3 C 1.299 -2.2556 0.0 0
M  V30 4 C -1.299 -2.2556 0.0 0
M  V30 5 C 2.0549 -0.9566 0.0 0
M  V30 6 C 2.5981 -3.0115 0.0 0
M  V30 7 C 0.555 -3.5547 0.0 0
M  V30 8 C -0.555 -3.5547 0.0 0
M  V30 9 C -2.5981 -2.9997 0.0 0
M  V30 10 C -2.0431 -0.9566 0.0 0
M  V30 END ATOM
M  V30 BEGIN BOND
M  V30 1 2 1 2
M  V30 2 1 2 3
M  V30 3 1 2 4
M  V30 4 1 3 5
M  V30 5 1 3 6
M  V30 6 1 3 7
M  V30 7 1 4 8
M  V30 8 1 4 9
M  V30 9 1 4 10
M  V30 END BOND
M  V30 END CTAB
M  END
>  <Molecule Name>
Hexamethylacetone

>  <Molecule Name 2>
Hexamethylacetone

>  <Activity>
0

$$$$
Di-iso-propyl ethynyl carbinol
Actelion Java MolfileCreator 2.0

  0  0  0  0  0  0              0 V3000
M  V30 BEGIN CTAB
M  V30 COUNTS 10 9 0 0 0
M  V30 BEGIN ATOM
M  V30 1 O 0.0 0.0 0.0 0
M  V30 2 C 1.2988 -0.7438 0.0 0
M  V30 3 C 2.5976 -1.4995 0.0 0
M  V30 4 C 2.5976 0.0 0.0 0
M  V30 5 C 1.2988 -2.2434 0.0 0
M  V30 6 C 3.8964 -2.2552 0.0 0
M  V30 7 C 3.8964 -0.7556 0.0 0
M  V30 8 C 2.5976 1.4995 0.0 0
M  V30 9 C 2.5976 -2.999 0.0 0
M  V30 10 C 0.0 -2.9872 0.0 0
M  V30 END ATOM
M  V30 BEGIN BOND
M  V30 1 1 1 2
M  V30 2 1 2 3
M  V30 3 1 2 4
M  V30 4 1 2 5
M  V30 5 3 3 6
M  V30 6 1 4 7
M  V30 7 1 4 8
M  V30 8 1 5 9
M  V30 9 1 5 10
M  V30 END BOND
M  V30 END CTAB
M  END
>  <Molecule Name>
Di-iso-propyl ethynyl carbinol

>  <Molecule Name 2>
Di-iso-propyl ethynyl carbinol

>  <Activity>
0

$$$$
Levulinic acid, ethyl ester
Actelion Java MolfileCreator 2.0

  0  0  0  0  0  0              0 V3000
M  V30 BEGIN CTAB
M  V30 COUNTS 10 9 0 0 0
M  V30 BEGIN ATOM
M  V30 1 O 0.0 0.0 0.0 0
M  V30 2 C 0.0 -1.4995 0.0 0
M  V30 3 O -1.2988 -2.2552 0.0 0
M  V30 4 C 1.2988 -2.2552 0.0 0
M  V30 5 C -2.5976 -1.5113 0.0 0
M  V30 6 C 2.5976 -1.5113 0.0 0
M  V30 7 C -3.8964 -2.267 0.0 0
M  V30 8 C 3.8964 -2.267 0.0 0
M  V30 9 O 5.1952 -1.5231 0.0 0
M  V30 10 C 3.8964 -3.7665 0.0 0
M  V30 END ATOM
M  V30 BEGIN BOND
M  V30 1 2 1 2
M  V30 2 1 2 3
M  V30 3 1 2 4
M  V30 4 1 3 5
M  V30 5 1 4 6
M  V30 6 1 5 7
M  V30 7 1 6 8
M  V30 8 2 8 9
M  V30 9 1 8 10
M  V30 END BOND
M  V30 END CTAB
M  END
>  <Molecule Name>
Levulinic acid, ethyl ester

>  <Molecule Name 2>
Levulinic acid, ethyl ester

>  <Activity>
0

$$$$
beta-n-Propoxypropionic acid, methyl ester
Actelion Java MolfileCreator 2.0

  0  0  0  0  0  0              0 V3000
M  V30 BEGIN CTAB
M  V30 COUNTS 10 9 0 0 0
M  V30 BEGIN ATOM
M  V30 1 O 0.0 0.0 0.0 0
M  V30 2 C 0.0 1.4998 0.0 0
M  V30 3 O -1.299 2.2438 0.0 0
M  V30 4 C 1.299 2.2438 0.0 0
M  V30 5 C -2.5981 1.488 0.0 0
M  V30 6 C 2.5981 1.488 0.0 0
M  V30 7 O 3.8972 2.232 0.0 0
M  V30 8 C 5.1963 1.4762 0.0 0
M  V30 9 C 6.4954 2.2202 0.0 0
M  V30 10 C 7.7945 1.4644 0.0 0
M  V30 END ATOM
M  V30 BEGIN BOND
M  V30 1 2 1 2
M  V30 2 1 2 3
M  V30 3 1 2 4
M  V30 4 1 3 5
M  V30 5 1 4 6
M  V30 6 1 6 7
M  V30 7 1 7 8
M  V30 8 1 8 9
M  V30 9 1 9 10
M  V30 END BOND
M  V30 END CTAB
M  END
>  <Molecule Name>
beta-n-Propoxypropionic acid, methyl ester

>  <Molecule Name 2>
beta-n-Propoxypropionic acid, methyl ester

>  <Activity>
0

$$$$
Lactic acid, crotyl ester
Actelion Java MolfileCreator 2.0

  0  0  0  0  0  0              0 V3000
M  V30 BEGIN CTAB
M  V30 COUNTS 10 9 0 0 0
M  V30 BEGIN ATOM
M  V30 1 O 0.0 0.0 0.0 0
M  V30 2 C 0.0 -1.4995 0.0 0
M  V30 3 O -1.2988 -2.2552 0.0 0
M  V30 4 C 1.2988 -2.2552 0.0 0 CFG=1
M  V30 5 C -2.5976 -1.5113 0.0 0
M  V30 6 O 2.5976 -1.5113 0.0 0
M  V30 7 C 1.2988 -3.7547 0.0 0
M  V30 8 C -3.8964 -2.267 0.0 0
M  V30 9 C -5.1952 -1.5231 0.0 0
M  V30 10 C -6.4941 -2.2788 0.0 0
M  V30 END ATOM
M  V30 BEGIN BOND
M  V30 1 2 1 2
M  V30 2 1 2 3
M  V30 3 1 2 4
M  V30 4 1 3 5
M  V30 5 1 4 6 CFG=1
M  V30 6 1 4 7
M  V30 7 1 5 8
M  V30 8 2 8 9 CFG=2
M  V30 9 1 9 10
M  V30 END BOND
M  V30 BEGIN COLLECTION
M  V30 MDLV30/STERAC1 ATOMS=(1 4)
M  V30 END COLLECTION
M  V30 END CTAB
M  END
>  <Molecule Name>
Lactic acid, crotyl ester

>  <Molecule Name 2>
Lactic acid, crotyl ester

>  <Activity>
0

$$$$
Carbonic acid, ethyl methallyl ester
Actelion Java MolfileCreator 2.0

  0  0  0  0  0  0              0 V3000
M  V30 BEGIN CTAB
M  V30 COUNTS 10 9 0 0 0
M  V30 BEGIN ATOM
M  V30 1 O 0.0 0.0 0.0 0
M  V30 2 C 0.0 1.5002 0.0 0
M  V30 3 O -1.2993 2.2443 0.0 0
M  V30 4 O 1.2993 2.2443 0.0 0
M  V30 5 C -2.5987 1.4883 0.0 0
M  V30 6 C 2.5987 1.4883 0.0 0
M  V30 7 C -3.8981 2.2325 0.0 0
M  V30 8 C 3.8981 2.2325 0.0 0
M  V30 9 C -5.1975 1.4765 0.0 0
M  V30 10 C -3.8981 3.7327 0.0 0
M  V30 END ATOM
M  V30 BEGIN BOND
M  V30 1 2 1 2
M  V30 2 1 2 3
M  V30 3 1 2 4
M  V30 4 1 3 5
M  V30 5 1 4 6
M  V30 6 1 5 7
M  V30 7 1 6 8
M  V30 8 2 7 9
M  V30 9 1 7 10
M  V30 END BOND
M  V30 END CTAB
M  END
>  <Molecule Name>
Carbonic acid, ethyl methallyl ester

>  <Molecule Name 2>
Carbonic acid, ethyl methallyl ester

>  <Activity>
0

$$$$
beta-Methoxypropionic acid, allyl ester
Actelion Java MolfileCreator 2.0

  0  0  0  0  0  0              0 V3000
M  V30 BEGIN CTAB
M  V30 COUNTS 10 9 0 0 0
M  V30 BEGIN ATOM
M  V30 1 O 0.0 0.0 0.0 0
M  V30 2 C 0.0 1.4998 0.0 0
M  V30 3 O -1.299 2.2438 0.0 0
M  V30 4 C 1.299 2.2438 0.0 0
M  V30 5 C -2.5981 1.488 0.0 0
M  V30 6 C 2.5981 1.488 0.0 0
M  V30 7 C -3.8972 2.232 0.0 0
M  V30 8 O 3.8972 2.232 0.0 0
M  V30 9 C -5.1963 1.4762 0.0 0
M  V30 10 C 5.1963 1.4762 0.0 0
M  V30 END ATOM
M  V30 BEGIN BOND
M  V30 1 2 1 2
M  V30 2 1 2 3
M  V30 3 1 2 4
M  V30 4 1 3 5
M  V30 5 1 4 6
M  V30 6 1 5 7
M  V30 7 1 6 8
M  V30 8 2 7 9
M  V30 9 1 8 10
M  V30 END BOND
M  V30 END CTAB
M  END
>  <Molecule Name>
beta-Methoxypropionic acid, allyl ester

>  <Molecule Name 2>
beta-Methoxypropionic acid, allyl ester

>  <Activity>
0

$$$$
Acetoacetic acid, allyl ester
Actelion Java MolfileCreator 2.0

  0  0  0  0  0  0              0 V3000
M  V30 BEGIN CTAB
M  V30 COUNTS 10 9 0 0 0
M  V30 BEGIN ATOM
M  V30 1 O 0.0 0.0 0.0 0
M  V30 2 C 0.0 1.5002 0.0 0
M  V30 3 O -1.2993 2.2443 0.0 0
M  V30 4 C 1.2993 2.2443 0.0 0
M  V30 5 C -2.5987 1.4883 0.0 0
M  V30 6 C 2.5987 1.4883 0.0 0
M  V30 7 C -3.8981 2.2325 0.0 0
M  V30 8 O 3.8981 2.2325 0.0 0
M  V30 9 C 2.5987 -0.0118 0.0 0
M  V30 10 C -5.1975 1.4765 0.0 0
M  V30 END ATOM
M  V30 BEGIN BOND
M  V30 1 2 1 2
M  V30 2 1 2 3
M  V30 3 1 2 4
M  V30 4 1 3 5
M  V30 5 1 4 6
M  V30 6 1 5 7
M  V30 7 2 6 8
M  V30 8 1 6 9
M  V30 9 2 7 10
M  V30 END BOND
M  V30 END CTAB
M  END
>  <Molecule Name>
Acetoacetic acid, allyl ester

>  <Molecule Name 2>
Acetoacetic acid, allyl ester

>  <Activity>
0

$$$$
Methylacetoacetic acid, ethyl ester
Actelion Java MolfileCreator 2.0

  0  0  0  0  0  0              0 V3000
M  V30 BEGIN CTAB
M  V30 COUNTS 10 9 0 0 0
M  V30 BEGIN ATOM
M  V30 1 O 0.0 0.0 0.0 0
M  V30 2 C 0.0 -1.4995 0.0 0
M  V30 3 O -1.2988 -2.2552 0.0 0
M  V30 4 C 1.2988 -2.2552 0.0 0
M  V30 5 C -2.5976 -1.5113 0.0 0
M  V30 6 C 2.5976 -1.5113 0.0 0
M  V30 7 C -3.8964 -2.267 0.0 0
M  V30 8 O 2.5976 -0.0118 0.0 0
M  V30 9 C 3.8964 -2.267 0.0 0
M  V30 10 C 5.1952 -1.5231 0.0 0
M  V30 END ATOM
M  V30 BEGIN BOND
M  V30 1 2 1 2
M  V30 2 1 2 3
M  V30 3 1 2 4
M  V30 4 1 3 5
M  V30 5 1 4 6
M  V30 6 1 5 7
M  V30 7 2 6 8
M  V30 8 1 6 9
M  V30 9 1 9 10
M  V30 END BOND
M  V30 END CTAB
M  END
>  <Molecule Name>
Methylacetoacetic acid, ethyl ester

>  <Molecule Name 2>
Methylacetoacetic acid, ethyl ester

>  <Activity>
0

$$$$
1,3-Diethoxy-2-hydroxypropane
Actelion Java MolfileCreator 2.0

  0  0  0  0  0  0              0 V3000
M  V30 BEGIN CTAB
M  V30 COUNTS 10 9 0 0 0
M  V30 BEGIN ATOM
M  V30 1 O 0.0 0.0 0.0 0
M  V30 2 C -1.299 0.744 0.0 0
M  V30 3 C 1.299 0.744 0.0 0
M  V30 4 C -2.5981 -0.0118 0.0 0
M  V30 5 C 2.5981 -0.0118 0.0 0
M  V30 6 O -2.5981 -1.5116 0.0 0
M  V30 7 C -3.8972 0.7322 0.0 0
M  V30 8 O -5.1963 -0.0236 0.0 0
M  V30 9 C -6.4954 0.7204 0.0 0
M  V30 10 C -7.7945 -0.0354 0.0 0
M  V30 END ATOM
M  V30 BEGIN BOND
M  V30 1 1 1 2
M  V30 2 1 1 3
M  V30 3 1 2 4
M  V30 4 1 3 5
M  V30 5 1 4 6
M  V30 6 1 4 7
M  V30 7 1 7 8
M  V30 8 1 8 9
M  V30 9 1 9 10
M  V30 END BOND
M  V30 END CTAB
M  END
>  <Molecule Name>
1,3-Diethoxy-2-hydroxypropane

>  <Molecule Name 2>
1,3-Diethoxy-2-hydroxypropane

>  <Activity>
0

$$$$
1-(2-Chloroethoxy)-2-(2-hydroxyethoxy)ethane
Actelion Java MolfileCreator 2.0

  0  0  0  0  0  0              0 V3000
M  V30 BEGIN CTAB
M  V30 COUNTS 10 9 0 0 0
M  V30 BEGIN ATOM
M  V30 1 Cl 0.0 0.0 0.0 0
M  V30 2 C -1.3004 -0.7475 0.0 0
M  V30 3 C -2.6009 0.0 0.0 0
M  V30 4 O -3.9014 -0.7475 0.0 0
M  V30 5 C -5.2018 0.0 0.0 0
M  V30 6 C -6.5023 -0.7475 0.0 0
M  V30 7 O -7.8028 0.0 0.0 0
M  V30 8 C -9.1032 -0.7475 0.0 0
M  V30 9 C -10.4037 0.0 0.0 0
M  V30 10 O -11.7042 -0.7475 0.0 0
M  V30 END ATOM
M  V30 BEGIN BOND
M  V30 1 1 1 2
M  V30 2 1 2 3
M  V30 3 1 3 4
M  V30 4 1 4 5
M  V30 5 1 5 6
M  V30 6 1 6 7
M  V30 7 1 7 8
M  V30 8 1 8 9
M  V30 9 1 9 10
M  V30 END BOND
M  V30 END CTAB
M  END
>  <Molecule Name>
1-(2-Chloroethoxy)-2-(2-hydroxyethoxy)ethane

>  <Molecule Name 2>
1-(2-Chloroethoxy)-2-(2-hydroxyethoxy)ethane

>  <Activity>
0

$$$$
Acetoacetic acid, beta-chloroethyl ester
Actelion Java MolfileCreator 2.0

  0  0  0  0  0  0              0 V3000
M  V30 BEGIN CTAB
M  V30 COUNTS 10 9 0 0 0
M  V30 BEGIN ATOM
M  V30 1 Cl 0.0 0.0 0.0 0
M  V30 2 C 1.2993 0.7441 0.0 0
M  V30 3 C 2.5987 -0.0118 0.0 0
M  V30 4 O 3.8981 0.7323 0.0 0
M  V30 5 C 5.1975 -0.0236 0.0 0
M  V30 6 O 5.1975 -1.5238 0.0 0
M  V30 7 C 6.4969 0.7205 0.0 0
M  V30 8 C 7.7963 -0.0354 0.0 0
M  V30 9 O 9.0957 0.7087 0.0 0
M  V30 10 C 7.7963 -1.5356 0.0 0
M  V30 END ATOM
M  V30 BEGIN BOND
M  V30 1 1 1 2
M  V30 2 1 2 3
M  V30 3 1 3 4
M  V30 4 1 4 5
M  V30 5 2 5 6
M  V30 6 1 5 7
M  V30 7 1 7 8
M  V30 8 2 8 9
M  V30 9 1 8 10
M  V30 END BOND
M  V30 END CTAB
M  END
>  <Molecule Name>
Acetoacetic acid, beta-chloroethyl ester

>  <Molecule Name 2>
Acetoacetic acid, beta-chloroethyl ester

>  <Activity>
0

$$$$
2-Acetoxy-2-cyanobutane
Actelion Java MolfileCreator 2.0

  0  0  0  0  0  0              0 V3000
M  V30 BEGIN CTAB
M  V30 COUNTS 10 9 0 0 0
M  V30 BEGIN ATOM
M  V30 1 O 0.0 0.0 0.0 0
M  V30 2 C 0.0 1.5008 0.0 0
M  V30 3 O -1.2999 2.2453 0.0 0
M  V30 4 C 1.2999 2.2453 0.0 0
M  V30 5 C -2.5999 1.489 0.0 0 CFG=2
M  V30 6 C -3.8998 0.7445 0.0 0
M  V30 7 C -2.5999 -0.0118 0.0 0
M  V30 8 C -3.8998 2.2453 0.0 0
M  V30 9 N -5.1998 0.0 0.0 0
M  V30 10 C -3.8998 -0.7563 0.0 0
M  V30 END ATOM
M  V30 BEGIN BOND
M  V30 1 2 1 2
M  V30 2 1 2 3
M  V30 3 1 2 4
M  V30 4 1 3 5
M  V30 5 1 5 6 CFG=1
M  V30 6 1 5 7
M  V30 7 1 5 8
M  V30 8 3 6 9
M  V30 9 1 7 10
M  V30 END BOND
M  V30 BEGIN COLLECTION
M  V30 MDLV30/STERAC1 ATOMS=(1 5)
M  V30 END COLLECTION
M  V30 END CTAB
M  END
>  <Molecule Name>
2-Acetoxy-2-cyanobutane

>  <Molecule Name 2>
2-Acetoxy-2-cyanobutane

>  <Activity>
0

$$$$
N-beta-Chloroethylcarbamic acid, beta-chloroethyl ester
Actelion Java MolfileCreator 2.0

  0  0  0  0  0  0              0 V3000
M  V30 BEGIN CTAB
M  V30 COUNTS 10 9 0 0 0
M  V30 BEGIN ATOM
M  V30 1 Cl 0.0 0.0 0.0 0
M  V30 2 C 1.299 0.744 0.0 0
M  V30 3 C 2.5981 -0.0118 0.0 0
M  V30 4 O 3.8972 0.7322 0.0 0
M  V30 5 C 5.1963 -0.0236 0.0 0
M  V30 6 O 5.1963 -1.5234 0.0 0
M  V30 7 N 6.4954 0.7204 0.0 0
M  V30 8 C 7.7945 -0.0354 0.0 0
M  V30 9 C 9.0936 0.7085 0.0 0
M  V30 10 Cl 10.3927 -0.0472 0.0 0
M  V30 END ATOM
M  V30 BEGIN BOND
M  V30 1 1 1 2
M  V30 2 1 2 3
M  V30 3 1 3 4
M  V30 4 1 4 5
M  V30 5 2 5 6
M  V30 6 1 5 7
M  V30 7 1 7 8
M  V30 8 1 8 9
M  V30 9 1 9 10
M  V30 END BOND
M  V30 END CTAB
M  END
>  <Molecule Name>
N-beta-Chloroethylcarbamic acid, beta-chloroethyl ester

>  <Molecule Name 2>
N-beta-Chloroethylcarbamic acid, beta-chloroethyl ester

>  <Activity>
0

$$$$
N-(1,1-Dimethyl-2-hydroxyethyl) hydroxyacetamide
Actelion Java MolfileCreator 2.0

  0  0  0  0  0  0              0 V3000
M  V30 BEGIN CTAB
M  V30 COUNTS 10 9 0 0 0
M  V30 BEGIN ATOM
M  V30 1 O 0.0 0.0 0.0 0
M  V30 2 C 0.0 1.4992 0.0 0
M  V30 3 N -1.2985 2.2429 0.0 0
M  V30 4 C 1.2985 2.2429 0.0 0
M  V30 5 C -2.597 1.4873 0.0 0
M  V30 6 O 2.597 1.4873 0.0 0
M  V30 7 C -3.8955 2.231 0.0 0
M  V30 8 C -3.3525 0.1888 0.0 0
M  V30 9 C -1.8415 0.1888 0.0 0
M  V30 10 O -5.194 1.4755 0.0 0
M  V30 END ATOM
M  V30 BEGIN BOND
M  V30 1 2 1 2
M  V30 2 1 2 3
M  V30 3 1 2 4
M  V30 4 1 3 5
M  V30 5 1 4 6
M  V30 6 1 5 7
M  V30 7 1 5 8
M  V30 8 1 5 9
M  V30 9 1 7 10
M  V30 END BOND
M  V30 END CTAB
M  END
>  <Molecule Name>
N-(1,1-Dimethyl-2-hydroxyethyl) hydroxyacetamide

>  <Molecule Name 2>
N-(1,1-Dimethyl-2-hydroxyethyl) hydroxyacetamide

>  <Activity>
0

$$$$
Triethanolamine
Actelion Java MolfileCreator 2.0

  0  0  0  0  0  0              0 V3000
M  V30 BEGIN CTAB
M  V30 COUNTS 10 9 0 0 0
M  V30 BEGIN ATOM
M  V30 1 O 0.0 0.0 0.0 0
M  V30 2 C -1.2993 0.7441 0.0 0
M  V30 3 C -2.5987 -0.0118 0.0 0
M  V30 4 N -3.8981 0.7323 0.0 0
M  V30 5 C -3.8981 2.2325 0.0 0
M  V30 6 C -5.1975 -0.0236 0.0 0
M  V30 7 C -2.5987 2.9767 0.0 0
M  V30 8 C -6.4969 0.7205 0.0 0
M  V30 9 O -2.5987 4.4769 0.0 0
M  V30 10 O -7.7963 -0.0354 0.0 0
M  V30 END ATOM
M  V30 BEGIN BOND
M  V30 1 1 1 2
M  V30 2 1 2 3
M  V30 3 1 3 4
M  V30 4 1 4 5
M  V30 5 1 4 6
M  V30 6 1 5 7
M  V30 7 1 6 8
M  V30 8 1 7 9
M  V30 9 1 8 10
M  V30 END BOND
M  V30 END CTAB
M  END
>  <Molecule Name>
Triethanolamine

>  <Molecule Name 2>
Triethanolamine

>  <Activity>
0

$$$$
4-Methyl-2-nitro-3-pentanol
Actelion Java MolfileCreator 2.0

  0  0  0  0  0  0              0 V3000
M  V30 BEGIN CTAB
M  V30 COUNTS 10 9 0 0 0
M  V30 BEGIN ATOM
M  V30 1 O 0.0 0.0 0.0 0
M  V30 2 N 0.0 -1.4995 0.0 0 CHG=1
M  V30 3 O -1.2988 -2.2552 0.0 0 CHG=-1
M  V30 4 C 1.2988 -2.2552 0.0 0
M  V30 5 C 2.5977 -1.5113 0.0 0
M  V30 6 C 1.2988 -3.7548 0.0 0
M  V30 7 O 2.5977 -0.0118 0.0 0
M  V30 8 C 3.8965 -2.267 0.0 0
M  V30 9 C 5.1954 -1.5231 0.0 0
M  V30 10 C 3.8965 -3.7666 0.0 0
M  V30 END ATOM
M  V30 BEGIN BOND
M  V30 1 2 1 2
M  V30 2 1 2 3
M  V30 3 1 2 4
M  V30 4 1 4 5
M  V30 5 1 4 6
M  V30 6 1 5 7
M  V30 7 1 5 8
M  V30 8 1 8 9
M  V30 9 1 8 10
M  V30 END BOND
M  V30 END CTAB
M  END
>  <Molecule Name>
4-Methyl-2-nitro-3-pentanol

>  <Molecule Name 2>
4-Methyl-2-nitro-3-pentanol

>  <Activity>
0

$$$$
Tetrahydronaphthalene
Actelion Java MolfileCreator 2.0

  0  0  0  0  0  0              0 V3000
M  V30 BEGIN CTAB
M  V30 COUNTS 10 11 0 0 0
M  V30 BEGIN ATOM
M  V30 1 C 0.0 0.0 0.0 0
M  V30 2 C 1.2988 -0.7439 0.0 0
M  V30 3 C 0.0 1.4996 0.0 0
M  V30 4 C -1.2988 -0.7439 0.0 0
M  V30 5 C 2.5977 0.0118 0.0 0
M  V30 6 C 1.2988 -2.2435 0.0 0
M  V30 7 C 1.2988 2.2553 0.0 0
M  V30 8 C -1.2988 -2.2435 0.0 0
M  V30 9 C 2.5977 1.5114 0.0 0
M  V30 10 C 0.0 -2.9992 0.0 0
M  V30 END ATOM
M  V30 BEGIN BOND
M  V30 1 2 1 2
M  V30 2 1 1 3
M  V30 3 1 1 4
M  V30 4 1 2 5
M  V30 5 1 2 6
M  V30 6 2 3 7
M  V30 7 1 4 8
M  V30 8 2 5 9
M  V30 9 1 6 10
M  V30 10 1 7 9
M  V30 11 1 8 10
M  V30 END BOND
M  V30 END CTAB
M  END
>  <Molecule Name>
Tetrahydronaphthalene

>  <Molecule Name 2>
Tetrahydronaphthalene

>  <Activity>
0

$$$$
Decahydronaphthalene
Actelion Java MolfileCreator 2.0

  0  0  0  0  0  0              0 V3000
M  V30 BEGIN CTAB
M  V30 COUNTS 10 11 0 0 0
M  V30 BEGIN ATOM
M  V30 1 C 0.0 0.0 0.0 0
M  V30 2 C 1.2988 -0.7439 0.0 0
M  V30 3 C -1.2988 -0.7439 0.0 0
M  V30 4 C 0.0 1.4996 0.0 0
M  V30 5 C 1.2988 -2.2435 0.0 0
M  V30 6 C 2.5977 0.0118 0.0 0
M  V30 7 C -1.2988 -2.2435 0.0 0
M  V30 8 C 1.2988 2.2553 0.0 0
M  V30 9 C 0.0 -2.9992 0.0 0
M  V30 10 C 2.5977 1.5114 0.0 0
M  V30 END ATOM
M  V30 BEGIN BOND
M  V30 1 1 1 2
M  V30 2 1 1 3
M  V30 3 1 1 4
M  V30 4 1 2 5
M  V30 5 1 2 6
M  V30 6 1 3 7
M  V30 7 1 4 8
M  V30 8 1 5 9
M  V30 9 1 6 10
M  V30 10 1 7 9
M  V30 11 1 8 10
M  V30 END BOND
M  V30 END CTAB
M  END
>  <Molecule Name>
Decahydronaphthalene

>  <Molecule Name 2>
Decahydronaphthalene

>  <Activity>
0

$$$$
1,4-Benzodioxan
Actelion Java MolfileCreator 2.0

  0  0  0  0  0  0              0 V3000
M  V30 BEGIN CTAB
M  V30 COUNTS 10 11 0 0 0
M  V30 BEGIN ATOM
M  V30 1 O 0.0 0.0 0.0 0
M  V30 2 C 1.2998 0.7444 0.0 0
M  V30 3 C 0.0 -1.5007 0.0 0
M  V30 4 C 2.5996 0.0 0.0 0
M  V30 5 C 1.2998 2.2451 0.0 0
M  V30 6 C 1.2998 -2.2569 0.0 0
M  V30 7 O 2.5996 -1.5007 0.0 0
M  V30 8 C 3.8994 0.7444 0.0 0
M  V30 9 C 2.5996 2.9895 0.0 0
M  V30 10 C 3.8994 2.2451 0.0 0
M  V30 END ATOM
M  V30 BEGIN BOND
M  V30 1 1 1 2
M  V30 2 1 1 3
M  V30 3 2 2 4
M  V30 4 1 2 5
M  V30 5 1 3 6
M  V30 6 1 4 7
M  V30 7 1 4 8
M  V30 8 2 5 9
M  V30 9 2 8 10
M  V30 10 1 6 7
M  V30 11 1 9 10
M  V30 END BOND
M  V30 END CTAB
M  END
>  <Molecule Name>
1,4-Benzodioxan

>  <Molecule Name 2>
1,4-Benzodioxan

>  <Activity>
0

$$$$
1-Bromonaphthalene
Actelion Java MolfileCreator 2.0

  0  0  0  0  0  0              0 V3000
M  V30 BEGIN CTAB
M  V30 COUNTS 11 12 0 0 0
M  V30 BEGIN ATOM
M  V30 1 Br 0.0 0.0 0.0 0
M  V30 2 C -1.2982 -0.7553 0.0 0
M  V30 3 C -1.2982 -2.2542 0.0 0
M  V30 4 C -2.5965 0.0 0.0 0
M  V30 5 C -2.5965 -2.9978 0.0 0
M  V30 6 C 0.0 -3.0096 0.0 0
M  V30 7 C -3.8948 -0.7435 0.0 0
M  V30 8 C -3.8948 -2.2542 0.0 0
M  V30 9 C -2.5965 -4.4967 0.0 0
M  V30 10 C 0.0 -4.5085 0.0 0
M  V30 11 C -1.2982 -5.252 0.0 0
M  V30 END ATOM
M  V30 BEGIN BOND
M  V30 1 1 1 2
M  V30 2 1 2 3
M  V30 3 2 2 4
M  V30 4 2 3 5
M  V30 5 1 3 6
M  V30 6 1 4 7
M  V30 7 1 5 8
M  V30 8 1 5 9
M  V30 9 2 6 10
M  V30 10 2 9 11
M  V30 11 2 7 8
M  V30 12 1 10 11
M  V30 END BOND
M  V30 END CTAB
M  END
>  <Molecule Name>
1-Bromonaphthalene

>  <Molecule Name 2>
1-Bromonaphthalene

>  <Activity>
0

$$$$
d-beta-Thujone
Actelion Java MolfileCreator 2.0

  0  0  0  0  0  0              0 V3000
M  V30 BEGIN CTAB
M  V30 COUNTS 11 12 0 0 0
M  V30 BEGIN ATOM
M  V30 1 O 0.0 0.0 0.0 0
M  V30 2 C -1.2168 -0.886 0.0 0
M  V30 3 C -1.2168 -2.3864 0.0 0 CFG=2
M  V30 4 C -2.6463 -0.4253 0.0 0
M  V30 5 C -2.6463 -2.8472 0.0 0 CFG=2
M  V30 6 C 0.0 -3.2725 0.0 0
M  V30 7 C -3.5324 -1.6421 0.0 0 CFG=1
M  V30 8 C -4.1349 -3.0007 0.0 0
M  V30 9 C -4.8319 -0.8978 0.0 0
M  V30 10 C -4.8319 0.6025 0.0 0
M  V30 11 C -6.1315 -1.6539 0.0 0
M  V30 END ATOM
M  V30 BEGIN BOND
M  V30 1 2 1 2
M  V30 2 1 2 3
M  V30 3 1 2 4
M  V30 4 1 3 5
M  V30 5 1 3 6 CFG=1
M  V30 6 1 4 7
M  V30 7 1 5 8 CFG=1
M  V30 8 1 7 9 CFG=3
M  V30 9 1 9 10
M  V30 10 1 9 11
M  V30 11 1 5 7
M  V30 12 1 7 8
M  V30 END BOND
M  V30 BEGIN COLLECTION
M  V30 MDLV30/STEABS ATOMS=(3 3 5 7)
M  V30 END COLLECTION
M  V30 END CTAB
M  END
>  <Molecule Name>
d-beta-Thujone

>  <Molecule Name 2>
d-beta-Thujone

>  <Activity>
0

$$$$
Fenchone
Actelion Java MolfileCreator 2.0

  0  0  0  0  0  0              0 V3000
M  V30 BEGIN CTAB
M  V30 COUNTS 11 12 0 0 0
M  V30 BEGIN ATOM
M  V30 1 O 0.0 0.0 0.0 0
M  V30 2 C -1.266 0.7385 0.0 0
M  V30 3 C -2.5452 0.0131 0.0 0
M  V30 4 C -1.266 2.2155 0.0 0
M  V30 5 C -1.8199 1.688 0.0 0
M  V30 6 C -3.8113 0.7385 0.0 0
M  V30 7 C -2.875 -1.4243 0.0 0
M  V30 8 C -2.5452 2.9541 0.0 0
M  V30 9 C -0.2241 3.2706 0.0 0
M  V30 10 C 0.0 1.477 0.0 0
M  V30 11 C -3.8113 2.2155 0.0 0
M  V30 END ATOM
M  V30 BEGIN BOND
M  V30 1 2 1 2
M  V30 2 1 2 3
M  V30 3 1 2 4
M  V30 4 1 3 5
M  V30 5 1 3 6
M  V30 6 1 3 7
M  V30 7 1 4 8
M  V30 8 1 4 9
M  V30 9 1 4 10
M  V30 10 1 6 11
M  V30 11 1 5 8
M  V30 12 1 8 11
M  V30 END BOND
M  V30 END CTAB
M  END
>  <Molecule Name>
Fenchone

>  <Molecule Name 2>
Fenchone

>  <Activity>
0

$$$$
Fenchyl alcohol
Actelion Java MolfileCreator 2.0

  0  0  0  0  0  0              0 V3000
M  V30 BEGIN CTAB
M  V30 COUNTS 11 12 0 0 0
M  V30 BEGIN ATOM
M  V30 1 O 0.0 0.0 0.0 0
M  V30 2 C 0.0 1.4353 0.0 0
M  V30 3 C -1.2404 2.1441 0.0 0
M  V30 4 C 1.01 2.4454 0.0 0
M  V30 5 C -0.9391 4.3946 0.0 0
M  V30 6 C -2.6226 1.772 0.0 0
M  V30 7 C -2.2505 1.1341 0.0 0
M  V30 8 C -0.2303 3.1542 0.0 0
M  V30 9 C 2.0201 3.4554 0.0 0
M  V30 10 C 2.3922 2.0732 0.0 0
M  V30 11 C -1.6125 2.7821 0.0 0
M  V30 END ATOM
M  V30 BEGIN BOND
M  V30 1 1 1 2
M  V30 2 1 2 3
M  V30 3 1 2 4
M  V30 4 1 3 5
M  V30 5 1 3 6
M  V30 6 1 3 7
M  V30 7 1 4 8
M  V30 8 1 4 9
M  V30 9 1 4 10
M  V30 10 1 6 11
M  V30 11 1 5 8
M  V30 12 1 8 11
M  V30 END BOND
M  V30 END CTAB
M  END
>  <Molecule Name>
Fenchyl alcohol

>  <Molecule Name 2>
Fenchyl alcohol

>  <Activity>
0

$$$$
Eucalyptol
Actelion Java MolfileCreator 2.0

  0  0  0  0  0  0              0 V3000
M  V30 BEGIN CTAB
M  V30 COUNTS 11 12 0 0 0
M  V30 BEGIN ATOM
M  V30 1 O 0.0 0.0 0.0 0
M  V30 2 C -1.3951 0.799 0.0 0 CFG=2
M  V30 3 C 0.0 -1.6107 0.0 0
M  V30 4 C -1.9785 -0.2282 0.0 0
M  V30 5 C -2.7902 0.0 0.0 0
M  V30 6 C -1.3951 2.4097 0.0 0
M  V30 7 C -1.3951 -2.4097 0.0 0 CFG=1
M  V30 8 C 1.6107 -1.6107 0.0 0
M  V30 9 C 0.799 -3.0058 0.0 0
M  V30 10 C -1.9785 -1.3951 0.0 0
M  V30 11 C -2.7902 -1.6107 0.0 0
M  V30 END ATOM
M  V30 BEGIN BOND
M  V30 1 1 1 2
M  V30 2 1 1 3
M  V30 3 1 2 4
M  V30 4 1 2 5
M  V30 5 1 2 6 CFG=3
M  V30 6 1 3 7
M  V30 7 1 3 8
M  V30 8 1 3 9
M  V30 9 1 4 10
M  V30 10 1 5 11
M  V30 11 1 7 10 CFG=3
M  V30 12 1 7 11
M  V30 END BOND
M  V30 BEGIN COLLECTION
M  V30 MDLV30/STEABS ATOMS=(2 2 7)
M  V30 END COLLECTION
M  V30 END CTAB
M  END
>  <Molecule Name>
Eucalyptol

>  <Molecule Name 2>
Eucalyptol

>  <Activity>
0

$$$$
2,5-Dimethyl-2,3-dihydrobenzofuran
Actelion Java MolfileCreator 2.0

  0  0  0  0  0  0              0 V3000
M  V30 BEGIN CTAB
M  V30 COUNTS 11 12 0 0 0
M  V30 BEGIN ATOM
M  V30 1 O 0.0 0.0 0.0 0
M  V30 2 C -1.0034 -1.1096 0.0 0
M  V30 3 C 1.3693 -0.6138 0.0 0 CFG=2
M  V30 4 C -0.2479 -2.4081 0.0 0
M  V30 5 C -2.5026 -1.1096 0.0 0
M  V30 6 C 1.2158 -2.1012 0.0 0
M  V30 7 C 2.6678 0.1416 0.0 0
M  V30 8 C -1.0034 -3.7067 0.0 0
M  V30 9 C -3.2581 -2.4081 0.0 0
M  V30 10 C -2.5026 -3.7067 0.0 0
M  V30 11 C -3.2581 -5.0052 0.0 0
M  V30 END ATOM
M  V30 BEGIN BOND
M  V30 1 1 1 2
M  V30 2 1 1 3
M  V30 3 2 2 4
M  V30 4 1 2 5
M  V30 5 1 3 6
M  V30 6 1 3 7 CFG=1
M  V30 7 1 4 8
M  V30 8 2 5 9
M  V30 9 2 8 10
M  V30 10 1 10 11
M  V30 11 1 4 6
M  V30 12 1 9 10
M  V30 END BOND
M  V30 BEGIN COLLECTION
M  V30 MDLV30/STERAC1 ATOMS=(1 3)
M  V30 END COLLECTION
M  V30 END CTAB
M  END
>  <Molecule Name>
2,5-Dimethyl-2,3-dihydrobenzofuran

>  <Molecule Name 2>
2,5-Dimethyl-2,3-dihydrobenzofuran

>  <Activity>
0

$$$$
2,7-DimethylcoumaroneCompound 953
Actelion Java MolfileCreator 2.0

  0  0  0  0  0  0              0 V3000
M  V30 BEGIN CTAB
M  V30 COUNTS 11 12 0 0 0
M  V30 BEGIN ATOM
M  V30 1 O 0.0 0.0 0.0 0
M  V30 2 C -1.0037 -1.11 0.0 0
M  V30 3 C 1.3698 -0.614 0.0 0
M  V30 4 C -2.5034 -1.11 0.0 0
M  V30 5 C -0.2597 -2.409 0.0 0
M  V30 6 C 1.2163 -2.1019 0.0 0
M  V30 7 C 2.6688 0.1417 0.0 0
M  V30 8 C -3.2592 -2.409 0.0 0
M  V30 9 C -3.2592 0.1889 0.0 0
M  V30 10 C -1.0155 -3.7079 0.0 0
M  V30 11 C -2.5034 -3.7079 0.0 0
M  V30 END ATOM
M  V30 BEGIN BOND
M  V30 1 1 1 2
M  V30 2 1 1 3
M  V30 3 2 2 4
M  V30 4 1 2 5
M  V30 5 2 3 6
M  V30 6 1 3 7
M  V30 7 1 4 8
M  V30 8 1 4 9
M  V30 9 2 5 10
M  V30 10 2 8 11
M  V30 11 1 5 6
M  V30 12 1 10 11
M  V30 END BOND
M  V30 END CTAB
M  END
>  <Molecule Name>
2,7-DimethylcoumaroneCompound 953

>  <Molecule Name 2>
2,7-DimethylcoumaroneCompound 953

>  <Activity>
0

$$$$
N-Phenylpyrrole
Actelion Java MolfileCreator 2.0

  0  0  0  0  0  0              0 V3000
M  V30 BEGIN CTAB
M  V30 COUNTS 11 12 0 0 0
M  V30 BEGIN ATOM
M  V30 1 N 0.0 0.0 0.0 0
M  V30 2 C 1.2998 0.7444 0.0 0
M  V30 3 C -1.3707 0.6144 0.0 0
M  V30 4 C -0.1536 -1.4888 0.0 0
M  V30 5 C 2.5996 -0.0118 0.0 0
M  V30 6 C 1.2998 2.2451 0.0 0
M  V30 7 C -2.3751 -0.4962 0.0 0
M  V30 8 C -1.6188 -1.796 0.0 0
M  V30 9 C 3.8994 0.7326 0.0 0
M  V30 10 C 2.5996 2.9895 0.0 0
M  V30 11 C 3.8994 2.2333 0.0 0
M  V30 END ATOM
M  V30 BEGIN BOND
M  V30 1 1 1 2
M  V30 2 1 1 3
M  V30 3 1 1 4
M  V30 4 2 2 5
M  V30 5 1 2 6
M  V30 6 2 3 7
M  V30 7 2 4 8
M  V30 8 1 5 9
M  V30 9 2 6 10
M  V30 10 2 9 11
M  V30 11 1 7 8
M  V30 12 1 10 11
M  V30 END BOND
M  V30 END CTAB
M  END
>  <Molecule Name>
N-Phenylpyrrole

>  <Molecule Name 2>
N-Phenylpyrrole

>  <Activity>
0

$$$$
Methacryloxyacetic acid, methyl ester
Actelion Java MolfileCreator 2.0

  0  0  0  0  0  0              0 V3000
M  V30 BEGIN CTAB
M  V30 COUNTS 11 10 0 0 0
M  V30 BEGIN ATOM
M  V30 1 O 0.0 0.0 0.0 0
M  V30 2 C 0.0 -1.4995 0.0 0
M  V30 3 O -1.2988 -2.2552 0.0 0
M  V30 4 C 1.2988 -2.2552 0.0 0
M  V30 5 C -2.5977 -1.5114 0.0 0
M  V30 6 C 2.5977 -1.5114 0.0 0
M  V30 7 C 1.2988 -3.7548 0.0 0
M  V30 8 C -3.8965 -2.2671 0.0 0
M  V30 9 O -3.8965 -3.7666 0.0 0
M  V30 10 O -5.1954 -1.5232 0.0 0
M  V30 11 C -6.4943 -2.2789 0.0 0
M  V30 END ATOM
M  V30 BEGIN BOND
M  V30 1 2 1 2
M  V30 2 1 2 3
M  V30 3 1 2 4
M  V30 4 1 3 5
M  V30 5 2 4 6
M  V30 6 1 4 7
M  V30 7 1 5 8
M  V30 8 2 8 9
M  V30 9 1 8 10
M  V30 10 1 10 11
M  V30 END BOND
M  V30 END CTAB
M  END
>  <Molecule Name>
Methacryloxyacetic acid, methyl ester

>  <Molecule Name 2>
Methacryloxyacetic acid, methyl ester

>  <Activity>
0

$$$$
Adipic acid, methyl hydrogen ester
Actelion Java MolfileCreator 2.0

  0  0  0  0  0  0              0 V3000
M  V30 BEGIN CTAB
M  V30 COUNTS 11 10 0 0 0
M  V30 BEGIN ATOM
M  V30 1 O 0.0 0.0 0.0 0
M  V30 2 C 0.0 1.4998 0.0 0
M  V30 3 O -1.2991 2.2439 0.0 0
M  V30 4 C 1.2991 2.2439 0.0 0
M  V30 5 C -2.5982 1.488 0.0 0
M  V30 6 C 2.5982 1.488 0.0 0
M  V30 7 C 3.8973 2.232 0.0 0
M  V30 8 C 5.1964 1.4762 0.0 0
M  V30 9 C 6.4955 2.2202 0.0 0
M  V30 10 O 7.7946 1.4644 0.0 0
M  V30 11 O 6.4955 3.7201 0.0 0
M  V30 END ATOM
M  V30 BEGIN BOND
M  V30 1 2 1 2
M  V30 2 1 2 3
M  V30 3 1 2 4
M  V30 4 1 3 5
M  V30 5 1 4 6
M  V30 6 1 6 7
M  V30 7 1 7 8
M  V30 8 1 8 9
M  V30 9 2 9 10
M  V30 10 1 9 11
M  V30 END BOND
M  V30 END CTAB
M  END
>  <Molecule Name>
Adipic acid, methyl hydrogen ester

>  <Molecule Name 2>
Adipic acid, methyl hydrogen ester

>  <Activity>
0

$$$$
alpha-Propionoxypropionic acid, methyl ester
Actelion Java MolfileCreator 2.0

  0  0  0  0  0  0              0 V3000
M  V30 BEGIN CTAB
M  V30 COUNTS 11 10 0 0 0
M  V30 BEGIN ATOM
M  V30 1 O 0.0 0.0 0.0 0
M  V30 2 C 0.0 1.5001 0.0 0
M  V30 3 O -1.2993 2.2443 0.0 0
M  V30 4 C 1.2993 2.2443 0.0 0 CFG=1
M  V30 5 C -2.5987 1.4883 0.0 0
M  V30 6 O 2.5987 1.4883 0.0 0
M  V30 7 C 1.2993 3.7445 0.0 0
M  V30 8 C 3.8981 2.2325 0.0 0
M  V30 9 O 3.8981 3.7327 0.0 0
M  V30 10 C 5.1974 1.4765 0.0 0
M  V30 11 C 6.4968 2.2207 0.0 0
M  V30 END ATOM
M  V30 BEGIN BOND
M  V30 1 2 1 2
M  V30 2 1 2 3
M  V30 3 1 2 4
M  V30 4 1 3 5
M  V30 5 1 4 6
M  V30 6 1 4 7 CFG=3
M  V30 7 1 6 8
M  V30 8 2 8 9
M  V30 9 1 8 10
M  V30 10 1 10 11
M  V30 END BOND
M  V30 BEGIN COLLECTION
M  V30 MDLV30/STERAC1 ATOMS=(1 4)
M  V30 END COLLECTION
M  V30 END CTAB
M  END
>  <Molecule Name>
alpha-Propionoxypropionic acid, methyl ester

>  <Molecule Name 2>
alpha-Propionoxypropionic acid, methyl ester

>  <Activity>
0

$$$$
Lactic acid, beta-ethoxyethyl ester
Actelion Java MolfileCreator 2.0

  0  0  0  0  0  0              0 V3000
M  V30 BEGIN CTAB
M  V30 COUNTS 11 10 0 0 0
M  V30 BEGIN ATOM
M  V30 1 O 0.0 0.0 0.0 0
M  V30 2 C 0.0 1.4975 0.0 0
M  V30 3 O -1.297 2.2521 0.0 0
M  V30 4 C 1.297 2.2521 0.0 0 CFG=1
M  V30 5 C -2.5941 1.4975 0.0 0
M  V30 6 O 2.5941 1.4975 0.0 0
M  V30 7 C 1.297 3.7496 0.0 0
M  V30 8 C -3.8911 2.2521 0.0 0
M  V30 9 O -5.1882 1.4975 0.0 0
M  V30 10 C -6.4852 2.2521 0.0 0
M  V30 11 C -7.7823 1.4975 0.0 0
M  V30 END ATOM
M  V30 BEGIN BOND
M  V30 1 2 1 2
M  V30 2 1 2 3
M  V30 3 1 2 4
M  V30 4 1 3 5
M  V30 5 1 4 6 CFG=3
M  V30 6 1 4 7
M  V30 7 1 5 8
M  V30 8 1 8 9
M  V30 9 1 9 10
M  V30 10 1 10 11
M  V30 END BOND
M  V30 BEGIN COLLECTION
M  V30 MDLV30/STERAC1 ATOMS=(1 4)
M  V30 END COLLECTION
M  V30 END CTAB
M  END
>  <Molecule Name>
Lactic acid, beta-ethoxyethyl ester

>  <Molecule Name 2>
Lactic acid, beta-ethoxyethyl ester

>  <Activity>
0

$$$$
Malonic acid, diethyl ester
Actelion Java MolfileCreator 2.0

  0  0  0  0  0  0              0 V3000
M  V30 BEGIN CTAB
M  V30 COUNTS 11 10 0 0 0
M  V30 BEGIN ATOM
M  V30 1 O 0.0 0.0 0.0 0
M  V30 2 C 0.0 -1.4992 0.0 0
M  V30 3 O 1.2985 -2.2548 0.0 0
M  V30 4 C -1.2985 -2.2548 0.0 0
M  V30 5 C 2.5971 -1.511 0.0 0
M  V30 6 C -2.5971 -1.511 0.0 0
M  V30 7 C 3.8957 -2.2666 0.0 0
M  V30 8 O -2.5971 -0.0118 0.0 0
M  V30 9 O -3.8957 -2.2666 0.0 0
M  V30 10 C -5.1943 -1.5228 0.0 0
M  V30 11 C -6.4929 -2.2784 0.0 0
M  V30 END ATOM
M  V30 BEGIN BOND
M  V30 1 2 1 2
M  V30 2 1 2 3
M  V30 3 1 2 4
M  V30 4 1 3 5
M  V30 5 1 4 6
M  V30 6 1 5 7
M  V30 7 2 6 8
M  V30 8 1 6 9
M  V30 9 1 9 10
M  V30 10 1 10 11
M  V30 END BOND
M  V30 END CTAB
M  END
>  <Molecule Name>
Malonic acid, diethyl ester

>  <Molecule Name 2>
Malonic acid, diethyl ester

>  <Activity>
0

$$$$
Acetyl neo-pentylmethyl ketone
Actelion Java MolfileCreator 2.0

  0  0  0  0  0  0              0 V3000
M  V30 BEGIN CTAB
M  V30 COUNTS 11 10 0 0 0
M  V30 BEGIN ATOM
M  V30 1 O 0.0 0.0 0.0 0
M  V30 2 C 0.0 1.5004 0.0 0
M  V30 3 C -1.2996 2.2447 0.0 0
M  V30 4 C 1.2996 2.2447 0.0 0
M  V30 5 O -2.5992 1.4886 0.0 0
M  V30 6 C -1.2996 3.7452 0.0 0
M  V30 7 C 2.5992 1.4886 0.0 0
M  V30 8 C 3.8988 2.2329 0.0 0
M  V30 9 C 3.1545 3.5325 0.0 0
M  V30 10 C 5.1984 2.9772 0.0 0
M  V30 11 C 4.6549 0.9333 0.0 0
M  V30 END ATOM
M  V30 BEGIN BOND
M  V30 1 2 1 2
M  V30 2 1 2 3
M  V30 3 1 2 4
M  V30 4 2 3 5
M  V30 5 1 3 6
M  V30 6 1 4 7
M  V30 7 1 7 8
M  V30 8 1 8 9
M  V30 9 1 8 10
M  V30 10 1 8 11
M  V30 END BOND
M  V30 END CTAB
M  END
>  <Molecule Name>
Acetyl neo-pentylmethyl ketone

>  <Molecule Name 2>
Acetyl neo-pentylmethyl ketone

>  <Activity>
0

$$$$
Allylacetic acid, n-butyl ester
Actelion Java MolfileCreator 2.0

  0  0  0  0  0  0              0 V3000
M  V30 BEGIN CTAB
M  V30 COUNTS 11 10 0 0 0
M  V30 BEGIN ATOM
M  V30 1 O 0.0 0.0 0.0 0
M  V30 2 C 0.0 -1.4995 0.0 0
M  V30 3 O -1.2988 -2.2552 0.0 0
M  V30 4 C 1.2988 -2.2552 0.0 0
M  V30 5 C -2.5976 -1.5113 0.0 0
M  V30 6 C 2.5976 -1.5113 0.0 0
M  V30 7 C -3.8964 -2.267 0.0 0
M  V30 8 C 3.8964 -2.267 0.0 0
M  V30 9 C -5.1953 -1.5231 0.0 0
M  V30 10 C 5.1953 -1.5231 0.0 0
M  V30 11 C -6.4941 -2.2788 0.0 0
M  V30 END ATOM
M  V30 BEGIN BOND
M  V30 1 2 1 2
M  V30 2 1 2 3
M  V30 3 1 2 4
M  V30 4 1 3 5
M  V30 5 1 4 6
M  V30 6 1 5 7
M  V30 7 1 6 8
M  V30 8 1 7 9
M  V30 9 2 8 10
M  V30 10 1 9 11
M  V30 END BOND
M  V30 END CTAB
M  END
>  <Molecule Name>
Allylacetic acid, n-butyl ester

>  <Molecule Name 2>
Allylacetic acid, n-butyl ester

>  <Activity>
0

$$$$
Caproic acid, allyl ester
Actelion Java MolfileCreator 2.0

  0  0  0  0  0  0              0 V3000
M  V30 BEGIN CTAB
M  V30 COUNTS 11 10 0 0 0
M  V30 BEGIN ATOM
M  V30 1 O 0.0 0.0 0.0 0
M  V30 2 C 0.0 1.5001 0.0 0
M  V30 3 O -1.2993 2.2443 0.0 0
M  V30 4 C 1.2993 2.2443 0.0 0
M  V30 5 C -2.5986 1.4883 0.0 0
M  V30 6 C 2.5986 1.4883 0.0 0
M  V30 7 C -3.898 2.2325 0.0 0
M  V30 8 C 3.898 2.2325 0.0 0
M  V30 9 C -5.1973 1.4765 0.0 0
M  V30 10 C 5.1973 1.4765 0.0 0
M  V30 11 C 6.4967 2.2206 0.0 0
M  V30 END ATOM
M  V30 BEGIN BOND
M  V30 1 2 1 2
M  V30 2 1 2 3
M  V30 3 1 2 4
M  V30 4 1 3 5
M  V30 5 1 4 6
M  V30 6 1 5 7
M  V30 7 1 6 8
M  V30 8 2 7 9
M  V30 9 1 8 10
M  V30 10 1 10 11
M  V30 END BOND
M  V30 END CTAB
M  END
>  <Molecule Name>
Caproic acid, allyl ester

>  <Molecule Name 2>
Caproic acid, allyl ester

>  <Activity>
0

$$$$
Caproic acid, n-propyl ester
Actelion Java MolfileCreator 2.0

  0  0  0  0  0  0              0 V3000
M  V30 BEGIN CTAB
M  V30 COUNTS 11 10 0 0 0
M  V30 BEGIN ATOM
M  V30 1 O 0.0 0.0 0.0 0
M  V30 2 C 0.0 1.5001 0.0 0
M  V30 3 O -1.2993 2.2443 0.0 0
M  V30 4 C 1.2993 2.2443 0.0 0
M  V30 5 C -2.5986 1.4883 0.0 0
M  V30 6 C 2.5986 1.4883 0.0 0
M  V30 7 C -3.898 2.2325 0.0 0
M  V30 8 C 3.898 2.2325 0.0 0
M  V30 9 C -5.1973 1.4765 0.0 0
M  V30 10 C 5.1973 1.4765 0.0 0
M  V30 11 C 6.4967 2.2206 0.0 0
M  V30 END ATOM
M  V30 BEGIN BOND
M  V30 1 2 1 2
M  V30 2 1 2 3
M  V30 3 1 2 4
M  V30 4 1 3 5
M  V30 5 1 4 6
M  V30 6 1 5 7
M  V30 7 1 6 8
M  V30 8 1 7 9
M  V30 9 1 8 10
M  V30 10 1 10 11
M  V30 END BOND
M  V30 END CTAB
M  END
>  <Molecule Name>
Caproic acid, n-propyl ester

>  <Molecule Name 2>
Caproic acid, n-propyl ester

>  <Activity>
0

$$$$
Crotonic acid, n-amyl ester
Actelion Java MolfileCreator 2.0

  0  0  0  0  0  0              0 V3000
M  V30 BEGIN CTAB
M  V30 COUNTS 11 10 0 0 0
M  V30 BEGIN ATOM
M  V30 1 O 0.0 0.0 0.0 0
M  V30 2 C 0.0 1.4972 0.0 0
M  V30 3 O -1.2967 2.2517 0.0 0
M  V30 4 C 1.2967 2.2517 0.0 0
M  V30 5 C -2.5935 1.4972 0.0 0
M  V30 6 C 2.5935 1.4972 0.0 0
M  V30 7 C -3.8903 2.2517 0.0 0
M  V30 8 C 3.8903 2.2517 0.0 0
M  V30 9 C -5.1871 1.4972 0.0 0
M  V30 10 C -6.4839 2.2517 0.0 0
M  V30 11 C -7.7807 1.4972 0.0 0
M  V30 END ATOM
M  V30 BEGIN BOND
M  V30 1 2 1 2
M  V30 2 1 2 3
M  V30 3 1 2 4
M  V30 4 1 3 5
M  V30 5 2 4 6
M  V30 6 1 5 7
M  V30 7 1 6 8
M  V30 8 1 7 9
M  V30 9 1 9 10
M  V30 10 1 10 11
M  V30 END BOND
M  V30 END CTAB
M  END
>  <Molecule Name>
Crotonic acid, n-amyl ester

>  <Molecule Name 2>
Crotonic acid, n-amyl ester

>  <Activity>
0

$$$$
n-Butyric acid, n-amyl ester
Actelion Java MolfileCreator 2.0

  0  0  0  0  0  0              0 V3000
M  V30 BEGIN CTAB
M  V30 COUNTS 11 10 0 0 0
M  V30 BEGIN ATOM
M  V30 1 O 0.0 0.0 0.0 0
M  V30 2 C 0.0 1.4972 0.0 0
M  V30 3 O -1.2967 2.2517 0.0 0
M  V30 4 C 1.2967 2.2517 0.0 0
M  V30 5 C -2.5935 1.4972 0.0 0
M  V30 6 C 2.5935 1.4972 0.0 0
M  V30 7 C -3.8903 2.2517 0.0 0
M  V30 8 C 3.8903 2.2517 0.0 0
M  V30 9 C -5.1871 1.4972 0.0 0
M  V30 10 C -6.4839 2.2517 0.0 0
M  V30 11 C -7.7807 1.4972 0.0 0
M  V30 END ATOM
M  V30 BEGIN BOND
M  V30 1 2 1 2
M  V30 2 1 2 3
M  V30 3 1 2 4
M  V30 4 1 3 5
M  V30 5 1 4 6
M  V30 6 1 5 7
M  V30 7 1 6 8
M  V30 8 1 7 9
M  V30 9 1 9 10
M  V30 10 1 10 11
M  V30 END BOND
M  V30 END CTAB
M  END
>  <Molecule Name>
n-Butyric acid, n-amyl ester

>  <Molecule Name 2>
n-Butyric acid, n-amyl ester

>  <Activity>
0

$$$$
Butyric acid, iso-amyl ester
Actelion Java MolfileCreator 2.0

  0  0  0  0  0  0              0 V3000
M  V30 BEGIN CTAB
M  V30 COUNTS 11 10 0 0 0
M  V30 BEGIN ATOM
M  V30 1 O 0.0 0.0 0.0 0
M  V30 2 C 0.0 -1.4992 0.0 0
M  V30 3 O -1.2985 -2.2548 0.0 0
M  V30 4 C 1.2985 -2.2548 0.0 0
M  V30 5 C -2.5971 -1.511 0.0 0
M  V30 6 C 2.5971 -1.511 0.0 0
M  V30 7 C -3.8957 -2.2666 0.0 0
M  V30 8 C 3.8957 -2.2666 0.0 0
M  V30 9 C -5.1943 -1.5228 0.0 0
M  V30 10 C -5.1943 -0.0236 0.0 0
M  V30 11 C -6.4929 -2.2784 0.0 0
M  V30 END ATOM
M  V30 BEGIN BOND
M  V30 1 2 1 2
M  V30 2 1 2 3
M  V30 3 1 2 4
M  V30 4 1 3 5
M  V30 5 1 4 6
M  V30 6 1 5 7
M  V30 7 1 6 8
M  V30 8 1 7 9
M  V30 9 1 9 10
M  V30 10 1 9 11
M  V30 END BOND
M  V30 END CTAB
M  END
>  <Molecule Name>
Butyric acid, iso-amyl ester

>  <Molecule Name 2>
Butyric acid, iso-amyl ester

>  <Activity>
0

$$$$
n-Butyric acid, tert-amyl ester
Actelion Java MolfileCreator 2.0

  0  0  0  0  0  0              0 V3000
M  V30 BEGIN CTAB
M  V30 COUNTS 11 10 0 0 0
M  V30 BEGIN ATOM
M  V30 1 O 0.0 0.0 0.0 0
M  V30 2 C 0.0 1.4995 0.0 0
M  V30 3 O -1.2988 2.2434 0.0 0
M  V30 4 C 1.2988 2.2434 0.0 0
M  V30 5 C -2.5976 1.4877 0.0 0
M  V30 6 C 2.5976 1.4877 0.0 0
M  V30 7 C -3.8964 2.2316 0.0 0
M  V30 8 C -3.3533 0.1889 0.0 0
M  V30 9 C -1.8419 0.1889 0.0 0
M  V30 10 C 3.8964 2.2316 0.0 0
M  V30 11 C -5.1953 1.4759 0.0 0
M  V30 END ATOM
M  V30 BEGIN BOND
M  V30 1 2 1 2
M  V30 2 1 2 3
M  V30 3 1 2 4
M  V30 4 1 3 5
M  V30 5 1 4 6
M  V30 6 1 5 7
M  V30 7 1 5 8
M  V30 8 1 5 9
M  V30 9 1 6 10
M  V30 10 1 7 11
M  V30 END BOND
M  V30 END CTAB
M  END
>  <Molecule Name>
n-Butyric acid, tert-amyl ester

>  <Molecule Name 2>
n-Butyric acid, tert-amyl ester

>  <Activity>
0

$$$$
Acrylic acid, 4-methyl-4-pentene-2-yl ester
Actelion Java MolfileCreator 2.0

  0  0  0  0  0  0              0 V3000
M  V30 BEGIN CTAB
M  V30 COUNTS 11 10 0 0 0
M  V30 BEGIN ATOM
M  V30 1 O 0.0 0.0 0.0 0
M  V30 2 C 0.0 -1.4995 0.0 0
M  V30 3 O -1.2988 -2.2552 0.0 0
M  V30 4 C 1.2988 -2.2552 0.0 0
M  V30 5 C -2.5977 -1.5114 0.0 0 CFG=2
M  V30 6 C 2.5977 -1.5114 0.0 0
M  V30 7 C -3.8965 -2.2671 0.0 0
M  V30 8 C -2.5977 -0.0118 0.0 0
M  V30 9 C -5.1954 -1.5232 0.0 0
M  V30 10 C -5.1954 -0.0236 0.0 0
M  V30 11 C -6.4943 -2.2789 0.0 0
M  V30 END ATOM
M  V30 BEGIN BOND
M  V30 1 2 1 2
M  V30 2 1 2 3
M  V30 3 1 2 4
M  V30 4 1 3 5
M  V30 5 2 4 6
M  V30 6 1 5 7
M  V30 7 1 5 8 CFG=3
M  V30 8 1 7 9
M  V30 9 2 9 10
M  V30 10 1 9 11
M  V30 END BOND
M  V30 BEGIN COLLECTION
M  V30 MDLV30/STERAC1 ATOMS=(1 5)
M  V30 END COLLECTION
M  V30 END CTAB
M  END
>  <Molecule Name>
Acrylic acid, 4-methyl-4-pentene-2-yl ester

>  <Molecule Name 2>
Acrylic acid, 4-methyl-4-pentene-2-yl ester

>  <Activity>
0

$$$$
Acrylic acid, 4-methyl-2-pentyl ester
Actelion Java MolfileCreator 2.0

  0  0  0  0  0  0              0 V3000
M  V30 BEGIN CTAB
M  V30 COUNTS 11 10 0 0 0
M  V30 BEGIN ATOM
M  V30 1 O 0.0 0.0 0.0 0
M  V30 2 C 0.0 -1.4995 0.0 0
M  V30 3 O -1.2988 -2.2552 0.0 0
M  V30 4 C 1.2988 -2.2552 0.0 0
M  V30 5 C -2.5977 -1.5114 0.0 0 CFG=2
M  V30 6 C 2.5977 -1.5114 0.0 0
M  V30 7 C -3.8965 -2.2671 0.0 0
M  V30 8 C -2.5977 -0.0118 0.0 0
M  V30 9 C -5.1954 -1.5232 0.0 0
M  V30 10 C -5.1954 -0.0236 0.0 0
M  V30 11 C -6.4943 -2.2789 0.0 0
M  V30 END ATOM
M  V30 BEGIN BOND
M  V30 1 2 1 2
M  V30 2 1 2 3
M  V30 3 1 2 4
M  V30 4 1 3 5
M  V30 5 2 4 6
M  V30 6 1 5 7
M  V30 7 1 5 8 CFG=3
M  V30 8 1 7 9
M  V30 9 1 9 10
M  V30 10 1 9 11
M  V30 END BOND
M  V30 BEGIN COLLECTION
M  V30 MDLV30/STERAC1 ATOMS=(1 5)
M  V30 END COLLECTION
M  V30 END CTAB
M  END
>  <Molecule Name>
Acrylic acid, 4-methyl-2-pentyl ester

>  <Molecule Name 2>
Acrylic acid, 4-methyl-2-pentyl ester

>  <Activity>
0

$$$$
Caprylic acid, methyl ester
Actelion Java MolfileCreator 2.0

  0  0  0  0  0  0              0 V3000
M  V30 BEGIN CTAB
M  V30 COUNTS 11 10 0 0 0
M  V30 BEGIN ATOM
M  V30 1 O 0.0 0.0 0.0 0
M  V30 2 C 0.0 1.5001 0.0 0
M  V30 3 O -1.2993 2.2443 0.0 0
M  V30 4 C 1.2993 2.2443 0.0 0
M  V30 5 C -2.5986 1.4883 0.0 0
M  V30 6 C 2.5986 1.4883 0.0 0
M  V30 7 C 3.898 2.2325 0.0 0
M  V30 8 C 5.1973 1.4765 0.0 0
M  V30 9 C 6.4967 2.2206 0.0 0
M  V30 10 C 7.796 1.4647 0.0 0
M  V30 11 C 9.0954 2.2088 0.0 0
M  V30 END ATOM
M  V30 BEGIN BOND
M  V30 1 2 1 2
M  V30 2 1 2 3
M  V30 3 1 2 4
M  V30 4 1 3 5
M  V30 5 1 4 6
M  V30 6 1 6 7
M  V30 7 1 7 8
M  V30 8 1 8 9
M  V30 9 1 9 10
M  V30 10 1 10 11
M  V30 END BOND
M  V30 END CTAB
M  END
>  <Molecule Name>
Caprylic acid, methyl ester

>  <Molecule Name 2>
Caprylic acid, methyl ester

>  <Activity>
0

$$$$
Acetic acid, n-heptyl ester
Actelion Java MolfileCreator 2.0

  0  0  0  0  0  0              0 V3000
M  V30 BEGIN CTAB
M  V30 COUNTS 11 10 0 0 0
M  V30 BEGIN ATOM
M  V30 1 O 0.0 0.0 0.0 0
M  V30 2 C 0.0 1.4972 0.0 0
M  V30 3 O -1.2967 2.2517 0.0 0
M  V30 4 C 1.2967 2.2517 0.0 0
M  V30 5 C -2.5935 1.4972 0.0 0
M  V30 6 C -3.8903 2.2517 0.0 0
M  V30 7 C -5.1871 1.4972 0.0 0
M  V30 8 C -6.4839 2.2517 0.0 0
M  V30 9 C -7.7807 1.4972 0.0 0
M  V30 10 C -9.0775 2.2517 0.0 0
M  V30 11 C -10.3743 1.4972 0.0 0
M  V30 END ATOM
M  V30 BEGIN BOND
M  V30 1 2 1 2
M  V30 2 1 2 3
M  V30 3 1 2 4
M  V30 4 1 3 5
M  V30 5 1 5 6
M  V30 6 1 6 7
M  V30 7 1 7 8
M  V30 8 1 8 9
M  V30 9 1 9 10
M  V30 10 1 10 11
M  V30 END BOND
M  V30 END CTAB
M  END
>  <Molecule Name>
Acetic acid, n-heptyl ester

>  <Molecule Name 2>
Acetic acid, n-heptyl ester

>  <Activity>
0

$$$$
Caproic acid, iso-propyl ester
Actelion Java MolfileCreator 2.0

  0  0  0  0  0  0              0 V3000
M  V30 BEGIN CTAB
M  V30 COUNTS 11 10 0 0 0
M  V30 BEGIN ATOM
M  V30 1 O 0.0 0.0 0.0 0
M  V30 2 C 0.0 -1.4992 0.0 0
M  V30 3 O -1.2985 -2.2548 0.0 0
M  V30 4 C 1.2985 -2.2548 0.0 0
M  V30 5 C -2.5971 -1.511 0.0 0
M  V30 6 C 2.5971 -1.511 0.0 0
M  V30 7 C -2.5971 -0.0118 0.0 0
M  V30 8 C -3.8957 -2.2666 0.0 0
M  V30 9 C 3.8957 -2.2666 0.0 0
M  V30 10 C 5.1943 -1.5228 0.0 0
M  V30 11 C 6.4929 -2.2784 0.0 0
M  V30 END ATOM
M  V30 BEGIN BOND
M  V30 1 2 1 2
M  V30 2 1 2 3
M  V30 3 1 2 4
M  V30 4 1 3 5
M  V30 5 1 4 6
M  V30 6 1 5 7
M  V30 7 1 5 8
M  V30 8 1 6 9
M  V30 9 1 9 10
M  V30 10 1 10 11
M  V30 END BOND
M  V30 END CTAB
M  END
>  <Molecule Name>
Caproic acid, iso-propyl ester

>  <Molecule Name 2>
Caproic acid, iso-propyl ester

>  <Activity>
0

$$$$
1,9-Nonanediol
Actelion Java MolfileCreator 2.0

  0  0  0  0  0  0              0 V3000
M  V30 BEGIN CTAB
M  V30 COUNTS 11 10 0 0 0
M  V30 BEGIN ATOM
M  V30 1 O 0.0 0.0 0.0 0
M  V30 2 C 1.3004 0.7475 0.0 0
M  V30 3 C 2.6009 0.0 0.0 0
M  V30 4 C 3.9014 0.7475 0.0 0
M  V30 5 C 5.2018 0.0 0.0 0
M  V30 6 C 6.5023 0.7475 0.0 0
M  V30 7 C 7.8028 0.0 0.0 0
M  V30 8 C 9.1032 0.7475 0.0 0
M  V30 9 C 10.4037 0.0 0.0 0
M  V30 10 C 11.7042 0.7475 0.0 0
M  V30 11 O 13.0047 0.0 0.0 0
M  V30 END ATOM
M  V30 BEGIN BOND
M  V30 1 1 1 2
M  V30 2 1 2 3
M  V30 3 1 3 4
M  V30 4 1 4 5
M  V30 5 1 5 6
M  V30 6 1 6 7
M  V30 7 1 7 8
M  V30 8 1 8 9
M  V30 9 1 9 10
M  V30 10 1 10 11
M  V30 END BOND
M  V30 END CTAB
M  END
>  <Molecule Name>
1,9-Nonanediol

>  <Molecule Name 2>
1,9-Nonanediol

>  <Activity>
0

$$$$
Butyric acid, 3-chloro-2-methylpropyl ester
Actelion Java MolfileCreator 2.0

  0  0  0  0  0  0              0 V3000
M  V30 BEGIN CTAB
M  V30 COUNTS 11 10 0 0 0
M  V30 BEGIN ATOM
M  V30 1 Cl 0.0 0.0 0.0 0
M  V30 2 C 1.2991 0.744 0.0 0
M  V30 3 C 2.5982 -0.0118 0.0 0 CFG=2
M  V30 4 C 3.8973 0.7322 0.0 0
M  V30 5 C 2.5982 -1.5116 0.0 0
M  V30 6 O 5.1964 -0.0236 0.0 0
M  V30 7 C 6.4955 0.7204 0.0 0
M  V30 8 O 6.4955 2.2202 0.0 0
M  V30 9 C 7.7946 -0.0354 0.0 0
M  V30 10 C 9.0937 0.7086 0.0 0
M  V30 11 C 10.3928 -0.0472 0.0 0
M  V30 END ATOM
M  V30 BEGIN BOND
M  V30 1 1 1 2
M  V30 2 1 2 3
M  V30 3 1 3 4
M  V30 4 1 3 5 CFG=3
M  V30 5 1 4 6
M  V30 6 1 6 7
M  V30 7 2 7 8
M  V30 8 1 7 9
M  V30 9 1 9 10
M  V30 10 1 10 11
M  V30 END BOND
M  V30 BEGIN COLLECTION
M  V30 MDLV30/STERAC1 ATOMS=(1 3)
M  V30 END COLLECTION
M  V30 END CTAB
M  END
>  <Molecule Name>
Butyric acid, 3-chloro-2-methylpropyl ester

>  <Molecule Name 2>
Butyric acid, 3-chloro-2-methylpropyl ester

>  <Activity>
0

$$$$
Trichloroacetic acid, n-butyl ester
Actelion Java MolfileCreator 2.0

  0  0  0  0  0  0              0 V3000
M  V30 BEGIN CTAB
M  V30 COUNTS 11 10 0 0 0
M  V30 BEGIN ATOM
M  V30 1 Cl 0.0 0.0 0.0 0
M  V30 2 C -0.7441 -1.2993 0.0 0
M  V30 3 Cl 0.5551 -2.0553 0.0 0
M  V30 4 Cl -1.4883 -2.5986 0.0 0
M  V30 5 C -2.0435 -0.5551 0.0 0
M  V30 6 O -2.0435 0.9449 0.0 0
M  V30 7 O -3.3428 -1.3111 0.0 0
M  V30 8 C -4.6422 -0.5669 0.0 0
M  V30 9 C -5.9415 -1.3229 0.0 0
M  V30 10 C -7.2408 -0.5787 0.0 0
M  V30 11 C -8.5402 -1.3347 0.0 0
M  V30 END ATOM
M  V30 BEGIN BOND
M  V30 1 1 1 2
M  V30 2 1 2 3
M  V30 3 1 2 4
M  V30 4 1 2 5
M  V30 5 2 5 6
M  V30 6 1 5 7
M  V30 7 1 7 8
M  V30 8 1 8 9
M  V30 9 1 9 10
M  V30 10 1 10 11
M  V30 END BOND
M  V30 END CTAB
M  END
>  <Molecule Name>
Trichloroacetic acid, n-butyl ester

>  <Molecule Name 2>
Trichloroacetic acid, n-butyl ester

>  <Activity>
0

$$$$
Trichloroacetic acid, sec-butyl ester
Actelion Java MolfileCreator 2.0

  0  0  0  0  0  0              0 V3000
M  V30 BEGIN CTAB
M  V30 COUNTS 11 10 0 0 0
M  V30 BEGIN ATOM
M  V30 1 Cl 0.0 0.0 0.0 0
M  V30 2 C 0.744 -1.2991 0.0 0
M  V30 3 Cl 2.0431 -0.555 0.0 0
M  V30 4 Cl 1.4998 -2.5982 0.0 0
M  V30 5 C -0.555 -2.0549 0.0 0
M  V30 6 O -0.555 -3.5548 0.0 0
M  V30 7 O -1.8541 -1.3109 0.0 0
M  V30 8 C -3.1532 -2.0667 0.0 0 CFG=2
M  V30 9 C -4.4523 -1.3227 0.0 0
M  V30 10 C -3.1532 -3.5666 0.0 0
M  V30 11 C -5.7514 -2.0785 0.0 0
M  V30 END ATOM
M  V30 BEGIN BOND
M  V30 1 1 1 2
M  V30 2 1 2 3
M  V30 3 1 2 4
M  V30 4 1 2 5
M  V30 5 2 5 6
M  V30 6 1 5 7
M  V30 7 1 7 8
M  V30 8 1 8 9
M  V30 9 1 8 10 CFG=1
M  V30 10 1 9 11
M  V30 END BOND
M  V30 BEGIN COLLECTION
M  V30 MDLV30/STERAC1 ATOMS=(1 8)
M  V30 END COLLECTION
M  V30 END CTAB
M  END
>  <Molecule Name>
Trichloroacetic acid, sec-butyl ester

>  <Molecule Name 2>
Trichloroacetic acid, sec-butyl ester

>  <Activity>
0

$$$$
n-Decyl alcohol
Actelion Java MolfileCreator 2.0

  0  0  0  0  0  0              0 V3000
M  V30 BEGIN CTAB
M  V30 COUNTS 11 10 0 0 0
M  V30 BEGIN ATOM
M  V30 1 O 0.0 0.0 0.0 0
M  V30 2 C 1.3004 0.7475 0.0 0
M  V30 3 C 2.6009 0.0 0.0 0
M  V30 4 C 3.9014 0.7475 0.0 0
M  V30 5 C 5.2018 0.0 0.0 0
M  V30 6 C 6.5023 0.7475 0.0 0
M  V30 7 C 7.8028 0.0 0.0 0
M  V30 8 C 9.1032 0.7475 0.0 0
M  V30 9 C 10.4037 0.0 0.0 0
M  V30 10 C 11.7042 0.7475 0.0 0
M  V30 11 C 13.0047 0.0 0.0 0
M  V30 END ATOM
M  V30 BEGIN BOND
M  V30 1 1 1 2
M  V30 2 1 2 3
M  V30 3 1 3 4
M  V30 4 1 4 5
M  V30 5 1 5 6
M  V30 6 1 6 7
M  V30 7 1 7 8
M  V30 8 1 8 9
M  V30 9 1 9 10
M  V30 10 1 10 11
M  V30 END BOND
M  V30 END CTAB
M  END
>  <Molecule Name>
n-Decyl alcohol

>  <Molecule Name 2>
n-Decyl alcohol

>  <Activity>
0

$$$$
Diamyl ether
Actelion Java MolfileCreator 2.0

  0  0  0  0  0  0              0 V3000
M  V30 BEGIN CTAB
M  V30 COUNTS 11 10 0 0 0
M  V30 BEGIN ATOM
M  V30 1 O 0.0 0.0 0.0 0
M  V30 2 C 1.3004 -0.7475 0.0 0
M  V30 3 C -1.3004 -0.7475 0.0 0
M  V30 4 C 2.6009 0.0 0.0 0
M  V30 5 C -2.6009 0.0 0.0 0
M  V30 6 C 3.9014 -0.7475 0.0 0
M  V30 7 C -3.9014 -0.7475 0.0 0
M  V30 8 C 5.2018 0.0 0.0 0
M  V30 9 C -5.2018 0.0 0.0 0
M  V30 10 C 6.5023 -0.7475 0.0 0
M  V30 11 C -6.5023 -0.7475 0.0 0
M  V30 END ATOM
M  V30 BEGIN BOND
M  V30 1 1 1 2
M  V30 2 1 1 3
M  V30 3 1 2 4
M  V30 4 1 3 5
M  V30 5 1 4 6
M  V30 6 1 5 7
M  V30 7 1 6 8
M  V30 8 1 7 9
M  V30 9 1 8 10
M  V30 10 1 9 11
M  V30 END BOND
M  V30 END CTAB
M  END
>  <Molecule Name>
Diamyl ether

>  <Molecule Name 2>
Diamyl ether

>  <Activity>
0

$$$$
Di-iso-amyl ether
Actelion Java MolfileCreator 2.0

  0  0  0  0  0  0              0 V3000
M  V30 BEGIN CTAB
M  V30 COUNTS 11 10 0 0 0
M  V30 BEGIN ATOM
M  V30 1 O 0.0 0.0 0.0 0
M  V30 2 C 1.2991 0.744 0.0 0
M  V30 3 C -1.2991 0.744 0.0 0
M  V30 4 C 2.5982 -0.0118 0.0 0
M  V30 5 C -2.5982 -0.0118 0.0 0
M  V30 6 C 3.8973 0.7322 0.0 0
M  V30 7 C -3.8973 0.7322 0.0 0
M  V30 8 C 5.1964 -0.0236 0.0 0
M  V30 9 C 3.8973 2.232 0.0 0
M  V30 10 C -3.8973 2.232 0.0 0
M  V30 11 C -5.1964 -0.0236 0.0 0
M  V30 END ATOM
M  V30 BEGIN BOND
M  V30 1 1 1 2
M  V30 2 1 1 3
M  V30 3 1 2 4
M  V30 4 1 3 5
M  V30 5 1 4 6
M  V30 6 1 5 7
M  V30 7 1 6 8
M  V30 8 1 6 9
M  V30 9 1 7 10
M  V30 10 1 7 11
M  V30 END BOND
M  V30 END CTAB
M  END
>  <Molecule Name>
Di-iso-amyl ether

>  <Molecule Name 2>
Di-iso-amyl ether

>  <Activity>
0

$$$$
Carbonic acid, methyl alpha-carbomethoxyethyl ester
Actelion Java MolfileCreator 2.0

  0  0  0  0  0  0              0 V3000
M  V30 BEGIN CTAB
M  V30 COUNTS 11 10 0 0 0
M  V30 BEGIN ATOM
M  V30 1 O 0.0 0.0 0.0 0
M  V30 2 C 0.0 -1.4995 0.0 0
M  V30 3 O -1.2988 -2.2552 0.0 0
M  V30 4 O 1.2988 -2.2552 0.0 0
M  V30 5 C -2.5977 -1.5114 0.0 0 CFG=2
M  V30 6 C 2.5977 -1.5114 0.0 0
M  V30 7 C -3.8965 -2.2671 0.0 0
M  V30 8 C -2.5977 -0.0118 0.0 0
M  V30 9 O -3.8965 -3.7666 0.0 0
M  V30 10 O -5.1954 -1.5232 0.0 0
M  V30 11 C -6.4943 -2.2789 0.0 0
M  V30 END ATOM
M  V30 BEGIN BOND
M  V30 1 2 1 2
M  V30 2 1 2 3
M  V30 3 1 2 4
M  V30 4 1 3 5
M  V30 5 1 4 6
M  V30 6 1 5 7
M  V30 7 1 5 8 CFG=3
M  V30 8 2 7 9
M  V30 9 1 7 10
M  V30 10 1 10 11
M  V30 END BOND
M  V30 BEGIN COLLECTION
M  V30 MDLV30/STERAC1 ATOMS=(1 5)
M  V30 END COLLECTION
M  V30 END CTAB
M  END
>  <Molecule Name>
Carbonic acid, methyl alpha-carbomethoxyethyl ester

>  <Molecule Name 2>
Carbonic acid, methyl alpha-carbomethoxyethyl ester

>  <Activity>
0

$$$$
beta-Methoxypropionic acid, sec-butyl ester
Actelion Java MolfileCreator 2.0

  0  0  0  0  0  0              0 V3000
M  V30 BEGIN CTAB
M  V30 COUNTS 11 10 0 0 0
M  V30 BEGIN ATOM
M  V30 1 O 0.0 0.0 0.0 0
M  V30 2 C 0.0 1.4998 0.0 0
M  V30 3 O -1.2991 2.2439 0.0 0
M  V30 4 C 1.2991 2.2439 0.0 0
M  V30 5 C -2.5982 1.488 0.0 0 CFG=2
M  V30 6 C 2.5982 1.488 0.0 0
M  V30 7 C -3.8973 2.232 0.0 0
M  V30 8 C -2.5982 -0.0118 0.0 0
M  V30 9 O 3.8973 2.232 0.0 0
M  V30 10 C -5.1964 1.4762 0.0 0
M  V30 11 C 5.1964 1.4762 0.0 0
M  V30 END ATOM
M  V30 BEGIN BOND
M  V30 1 2 1 2
M  V30 2 1 2 3
M  V30 3 1 2 4
M  V30 4 1 3 5
M  V30 5 1 4 6
M  V30 6 1 5 7
M  V30 7 1 5 8 CFG=1
M  V30 8 1 6 9
M  V30 9 1 7 10
M  V30 10 1 9 11
M  V30 END BOND
M  V30 BEGIN COLLECTION
M  V30 MDLV30/STERAC1 ATOMS=(1 5)
M  V30 END COLLECTION
M  V30 END CTAB
M  END
>  <Molecule Name>
beta-Methoxypropionic acid, sec-butyl ester

>  <Molecule Name 2>
beta-Methoxypropionic acid, sec-butyl ester

>  <Activity>
0

$$$$
2-Ethylacetoacetic acid, ethyl ester
Actelion Java MolfileCreator 2.0

  0  0  0  0  0  0              0 V3000
M  V30 BEGIN CTAB
M  V30 COUNTS 11 10 0 0 0
M  V30 BEGIN ATOM
M  V30 1 O 0.0 0.0 0.0 0
M  V30 2 C 0.0 -1.4998 0.0 0
M  V30 3 O -1.2991 -2.2557 0.0 0
M  V30 4 C 1.2991 -2.2557 0.0 0 CFG=2
M  V30 5 C -2.5982 -1.5116 0.0 0
M  V30 6 C 1.2991 -3.7555 0.0 0
M  V30 7 C 2.5982 -1.5116 0.0 0
M  V30 8 C -3.8973 -2.2675 0.0 0
M  V30 9 O 0.0 -4.4996 0.0 0
M  V30 10 C 2.5982 -4.4996 0.0 0
M  V30 11 C 3.8973 -2.2675 0.0 0
M  V30 END ATOM
M  V30 BEGIN BOND
M  V30 1 2 1 2
M  V30 2 1 2 3
M  V30 3 1 2 4
M  V30 4 1 3 5
M  V30 5 1 4 6
M  V30 6 1 4 7 CFG=1
M  V30 7 1 5 8
M  V30 8 2 6 9
M  V30 9 1 6 10
M  V30 10 1 7 11
M  V30 END BOND
M  V30 BEGIN COLLECTION
M  V30 MDLV30/STERAC1 ATOMS=(1 4)
M  V30 END COLLECTION
M  V30 END CTAB
M  END
>  <Molecule Name>
2-Ethylacetoacetic acid, ethyl ester

>  <Molecule Name 2>
2-Ethylacetoacetic acid, ethyl ester

>  <Activity>
0

$$$$
alpha-Propionylpropionic acid, ethyl ester
Actelion Java MolfileCreator 2.0

  0  0  0  0  0  0              0 V3000
M  V30 BEGIN CTAB
M  V30 COUNTS 11 10 0 0 0
M  V30 BEGIN ATOM
M  V30 1 O 0.0 0.0 0.0 0
M  V30 2 C 0.0 -1.4995 0.0 0
M  V30 3 O -1.2988 -2.2552 0.0 0
M  V30 4 C 1.2988 -2.2552 0.0 0 CFG=2
M  V30 5 C -2.5977 -1.5114 0.0 0
M  V30 6 C 2.5977 -1.5114 0.0 0
M  V30 7 C 1.2988 -3.7548 0.0 0
M  V30 8 C -3.8965 -2.2671 0.0 0
M  V30 9 O 2.5977 -0.0118 0.0 0
M  V30 10 C 3.8965 -2.2671 0.0 0
M  V30 11 C 5.1954 -1.5232 0.0 0
M  V30 END ATOM
M  V30 BEGIN BOND
M  V30 1 2 1 2
M  V30 2 1 2 3
M  V30 3 1 2 4
M  V30 4 1 3 5
M  V30 5 1 4 6
M  V30 6 1 4 7 CFG=3
M  V30 7 1 5 8
M  V30 8 2 6 9
M  V30 9 1 6 10
M  V30 10 1 10 11
M  V30 END BOND
M  V30 BEGIN COLLECTION
M  V30 MDLV30/STERAC1 ATOMS=(1 4)
M  V30 END COLLECTION
M  V30 END CTAB
M  END
>  <Molecule Name>
alpha-Propionylpropionic acid, ethyl ester

>  <Molecule Name 2>
alpha-Propionylpropionic acid, ethyl ester

>  <Activity>
0

$$$$
Trimethylpyruvic acid, ethyl ester
Actelion Java MolfileCreator 2.0

  0  0  0  0  0  0              0 V3000
M  V30 BEGIN CTAB
M  V30 COUNTS 11 10 0 0 0
M  V30 BEGIN ATOM
M  V30 1 O 0.0 0.0 0.0 0
M  V30 2 C 0.0 -1.4998 0.0 0
M  V30 3 O -1.2991 -2.2557 0.0 0
M  V30 4 C 1.2991 -2.2557 0.0 0
M  V30 5 C -2.5982 -1.5116 0.0 0
M  V30 6 O 1.2991 -3.7555 0.0 0
M  V30 7 C 2.5982 -1.5116 0.0 0
M  V30 8 C -3.8973 -2.2675 0.0 0
M  V30 9 C 1.8541 -0.2125 0.0 0
M  V30 10 C 3.8973 -0.7676 0.0 0
M  V30 11 C 3.354 -2.8107 0.0 0
M  V30 END ATOM
M  V30 BEGIN BOND
M  V30 1 2 1 2
M  V30 2 1 2 3
M  V30 3 1 2 4
M  V30 4 1 3 5
M  V30 5 2 4 6
M  V30 6 1 4 7
M  V30 7 1 5 8
M  V30 8 1 7 9
M  V30 9 1 7 10
M  V30 10 1 7 11
M  V30 END BOND
M  V30 END CTAB
M  END
>  <Molecule Name>
Trimethylpyruvic acid, ethyl ester

>  <Molecule Name 2>
Trimethylpyruvic acid, ethyl ester

>  <Activity>
0

$$$$
Lactic acid, n-amyl ester
Actelion Java MolfileCreator 2.0

  0  0  0  0  0  0              0 V3000
M  V30 BEGIN CTAB
M  V30 COUNTS 11 10 0 0 0
M  V30 BEGIN ATOM
M  V30 1 O 0.0 0.0 0.0 0
M  V30 2 C 0.0 1.4975 0.0 0
M  V30 3 O -1.297 2.2521 0.0 0
M  V30 4 C 1.297 2.2521 0.0 0 CFG=1
M  V30 5 C -2.5941 1.4975 0.0 0
M  V30 6 O 2.5941 1.4975 0.0 0
M  V30 7 C 1.297 3.7496 0.0 0
M  V30 8 C -3.8911 2.2521 0.0 0
M  V30 9 C -5.1882 1.4975 0.0 0
M  V30 10 C -6.4852 2.2521 0.0 0
M  V30 11 C -7.7823 1.4975 0.0 0
M  V30 END ATOM
M  V30 BEGIN BOND
M  V30 1 2 1 2
M  V30 2 1 2 3
M  V30 3 1 2 4
M  V30 4 1 3 5
M  V30 5 1 4 6 CFG=3
M  V30 6 1 4 7
M  V30 7 1 5 8
M  V30 8 1 8 9
M  V30 9 1 9 10
M  V30 10 1 10 11
M  V30 END BOND
M  V30 BEGIN COLLECTION
M  V30 MDLV30/STERAC1 ATOMS=(1 4)
M  V30 END COLLECTION
M  V30 END CTAB
M  END
>  <Molecule Name>
Lactic acid, n-amyl ester

>  <Molecule Name 2>
Lactic acid, n-amyl ester

>  <Activity>
0

$$$$
Lactic acid, iso-amyl ester
Actelion Java MolfileCreator 2.0

  0  0  0  0  0  0              0 V3000
M  V30 BEGIN CTAB
M  V30 COUNTS 11 10 0 0 0
M  V30 BEGIN ATOM
M  V30 1 O 0.0 0.0 0.0 0
M  V30 2 C 0.0 -1.4995 0.0 0
M  V30 3 O -1.2988 -2.2552 0.0 0
M  V30 4 C 1.2988 -2.2552 0.0 0 CFG=1
M  V30 5 C -2.5977 -1.5114 0.0 0
M  V30 6 O 2.5977 -1.5114 0.0 0
M  V30 7 C 1.2988 -3.7548 0.0 0
M  V30 8 C -3.8965 -2.2671 0.0 0
M  V30 9 C -5.1954 -1.5232 0.0 0
M  V30 10 C -5.1954 -0.0236 0.0 0
M  V30 11 C -6.4943 -2.2789 0.0 0
M  V30 END ATOM
M  V30 BEGIN BOND
M  V30 1 2 1 2
M  V30 2 1 2 3
M  V30 3 1 2 4
M  V30 4 1 3 5
M  V30 5 1 4 6 CFG=1
M  V30 6 1 4 7
M  V30 7 1 5 8
M  V30 8 1 8 9
M  V30 9 1 9 10
M  V30 10 1 9 11
M  V30 END BOND
M  V30 BEGIN COLLECTION
M  V30 MDLV30/STERAC1 ATOMS=(1 4)
M  V30 END COLLECTION
M  V30 END CTAB
M  END
>  <Molecule Name>
Lactic acid, iso-amyl ester

>  <Molecule Name 2>
Lactic acid, iso-amyl ester

>  <Activity>
0

$$$$
beta-Methoxypropionic acid, n-butyl ester
Actelion Java MolfileCreator 2.0

  0  0  0  0  0  0              0 V3000
M  V30 BEGIN CTAB
M  V30 COUNTS 11 10 0 0 0
M  V30 BEGIN ATOM
M  V30 1 O 0.0 0.0 0.0 0
M  V30 2 C 0.0 -1.4995 0.0 0
M  V30 3 O -1.2988 -2.2552 0.0 0
M  V30 4 C 1.2988 -2.2552 0.0 0
M  V30 5 C -2.5976 -1.5113 0.0 0
M  V30 6 C 2.5976 -1.5113 0.0 0
M  V30 7 C -3.8964 -2.267 0.0 0
M  V30 8 O 3.8964 -2.267 0.0 0
M  V30 9 C -5.1953 -1.5231 0.0 0
M  V30 10 C 5.1953 -1.5231 0.0 0
M  V30 11 C -6.4941 -2.2788 0.0 0
M  V30 END ATOM
M  V30 BEGIN BOND
M  V30 1 2 1 2
M  V30 2 1 2 3
M  V30 3 1 2 4
M  V30 4 1 3 5
M  V30 5 1 4 6
M  V30 6 1 5 7
M  V30 7 1 6 8
M  V30 8 1 7 9
M  V30 9 1 8 10
M  V30 10 1 9 11
M  V30 END BOND
M  V30 END CTAB
M  END
>  <Molecule Name>
beta-Methoxypropionic acid, n-butyl ester

>  <Molecule Name 2>
beta-Methoxypropionic acid, n-butyl ester

>  <Activity>
0

$$$$
beta-Methoxypropionic acid, iso-butyl ester
Actelion Java MolfileCreator 2.0

  0  0  0  0  0  0              0 V3000
M  V30 BEGIN CTAB
M  V30 COUNTS 11 10 0 0 0
M  V30 BEGIN ATOM
M  V30 1 O 0.0 0.0 0.0 0
M  V30 2 C 0.0 1.4998 0.0 0
M  V30 3 O -1.2991 2.2439 0.0 0
M  V30 4 C 1.2991 2.2439 0.0 0
M  V30 5 C -2.5982 1.488 0.0 0
M  V30 6 C 2.5982 1.488 0.0 0
M  V30 7 C -3.8973 2.232 0.0 0
M  V30 8 O 3.8973 2.232 0.0 0
M  V30 9 C -3.8973 3.7319 0.0 0
M  V30 10 C -5.1964 1.4762 0.0 0
M  V30 11 C 5.1964 1.4762 0.0 0
M  V30 END ATOM
M  V30 BEGIN BOND
M  V30 1 2 1 2
M  V30 2 1 2 3
M  V30 3 1 2 4
M  V30 4 1 3 5
M  V30 5 1 4 6
M  V30 6 1 5 7
M  V30 7 1 6 8
M  V30 8 1 7 9
M  V30 9 1 7 10
M  V30 10 1 8 11
M  V30 END BOND
M  V30 END CTAB
M  END
>  <Molecule Name>
beta-Methoxypropionic acid, iso-butyl ester

>  <Molecule Name 2>
beta-Methoxypropionic acid, iso-butyl ester

>  <Activity>
0

$$$$
Acetoacetic acid, crotyl ester
Actelion Java MolfileCreator 2.0

  0  0  0  0  0  0              0 V3000
M  V30 BEGIN CTAB
M  V30 COUNTS 11 10 0 0 0
M  V30 BEGIN ATOM
M  V30 1 O 0.0 0.0 0.0 0
M  V30 2 C 0.0 -1.4992 0.0 0
M  V30 3 O -1.2985 -2.2548 0.0 0
M  V30 4 C 1.2985 -2.2548 0.0 0
M  V30 5 C -2.5971 -1.511 0.0 0
M  V30 6 C 2.5971 -1.511 0.0 0
M  V30 7 C -3.8957 -2.2666 0.0 0
M  V30 8 O 3.8957 -2.2666 0.0 0
M  V30 9 C 2.5971 -0.0118 0.0 0
M  V30 10 C -5.1943 -1.5228 0.0 0
M  V30 11 C -6.4929 -2.2784 0.0 0
M  V30 END ATOM
M  V30 BEGIN BOND
M  V30 1 2 1 2
M  V30 2 1 2 3
M  V30 3 1 2 4
M  V30 4 1 3 5
M  V30 5 1 4 6
M  V30 6 1 5 7
M  V30 7 2 6 8
M  V30 8 1 6 9
M  V30 9 2 7 10 CFG=2
M  V30 10 1 10 11
M  V30 END BOND
M  V30 END CTAB
M  END
>  <Molecule Name>
Acetoacetic acid, crotyl ester

>  <Molecule Name 2>
Acetoacetic acid, crotyl ester

>  <Activity>
0

$$$$
n-Decane nitrile
Actelion Java MolfileCreator 2.0

  0  0  0  0  0  0              0 V3000
M  V30 BEGIN CTAB
M  V30 COUNTS 11 10 0 0 0
M  V30 BEGIN ATOM
M  V30 1 N 0.0 0.0 0.0 0
M  V30 2 C -1.3004 -0.7475 0.0 0
M  V30 3 C -2.6009 -1.495 0.0 0
M  V30 4 C -3.9014 -0.7475 0.0 0
M  V30 5 C -5.2018 -1.495 0.0 0
M  V30 6 C -6.5023 -0.7475 0.0 0
M  V30 7 C -7.8028 -1.495 0.0 0
M  V30 8 C -9.1032 -0.7475 0.0 0
M  V30 9 C -10.4037 -1.495 0.0 0
M  V30 10 C -11.7042 -0.7475 0.0 0
M  V30 11 C -13.0047 -1.495 0.0 0
M  V30 END ATOM
M  V30 BEGIN BOND
M  V30 1 3 1 2
M  V30 2 1 2 3
M  V30 3 1 3 4
M  V30 4 1 4 5
M  V30 5 1 5 6
M  V30 6 1 6 7
M  V30 7 1 7 8
M  V30 8 1 8 9
M  V30 9 1 9 10
M  V30 10 1 10 11
M  V30 END BOND
M  V30 END CTAB
M  END
>  <Molecule Name>
n-Decane nitrile

>  <Molecule Name 2>
n-Decane nitrile

>  <Activity>
0

$$$$
3-Methyl-2-propyl-2-hexenenitrile
Actelion Java MolfileCreator 2.0

  0  0  0  0  0  0              0 V3000
M  V30 BEGIN CTAB
M  V30 COUNTS 11 10 0 0 0
M  V30 BEGIN ATOM
M  V30 1 N 0.0 0.0 0.0 0
M  V30 2 C -1.2985 -0.7555 0.0 0
M  V30 3 C -2.5971 -1.511 0.0 0
M  V30 4 C -2.5971 -3.0103 0.0 0
M  V30 5 C -3.8957 -0.7673 0.0 0
M  V30 6 C -3.8957 -3.7659 0.0 0
M  V30 7 C -1.2985 -3.7659 0.0 0
M  V30 8 C -3.8957 0.7319 0.0 0
M  V30 9 C -5.1943 -3.0221 0.0 0
M  V30 10 C -5.1943 1.4756 0.0 0
M  V30 11 C -6.4929 -3.7777 0.0 0
M  V30 END ATOM
M  V30 BEGIN BOND
M  V30 1 3 1 2
M  V30 2 1 2 3
M  V30 3 2 3 4 CFG=2
M  V30 4 1 3 5
M  V30 5 1 4 6
M  V30 6 1 4 7
M  V30 7 1 5 8
M  V30 8 1 6 9
M  V30 9 1 8 10
M  V30 10 1 9 11
M  V30 END BOND
M  V30 END CTAB
M  END
>  <Molecule Name>
3-Methyl-2-propyl-2-hexenenitrile

>  <Molecule Name 2>
3-Methyl-2-propyl-2-hexenenitrile

>  <Activity>
0

$$$$
2-Methyl-3-propyl-2-hexenenitrile
Actelion Java MolfileCreator 2.0

  0  0  0  0  0  0              0 V3000
M  V30 BEGIN CTAB
M  V30 COUNTS 11 10 0 0 0
M  V30 BEGIN ATOM
M  V30 1 N 0.0 0.0 0.0 0
M  V30 2 C -1.2983 -0.7553 0.0 0
M  V30 3 C -2.5966 -1.5107 0.0 0
M  V30 4 C -2.5966 -3.0097 0.0 0
M  V30 5 C -3.8949 -0.7671 0.0 0
M  V30 6 C -3.8949 -3.7651 0.0 0
M  V30 7 C -1.2983 -3.7651 0.0 0
M  V30 8 C -5.1932 -3.0215 0.0 0
M  V30 9 C 0.0 -3.0215 0.0 0
M  V30 10 C -6.4916 -3.7769 0.0 0
M  V30 11 C 1.2983 -3.7769 0.0 0
M  V30 END ATOM
M  V30 BEGIN BOND
M  V30 1 3 1 2
M  V30 2 1 2 3
M  V30 3 2 3 4
M  V30 4 1 3 5
M  V30 5 1 4 6
M  V30 6 1 4 7
M  V30 7 1 6 8
M  V30 8 1 7 9
M  V30 9 1 8 10
M  V30 10 1 9 11
M  V30 END BOND
M  V30 END CTAB
M  END
>  <Molecule Name>
2-Methyl-3-propyl-2-hexenenitrile

>  <Molecule Name 2>
2-Methyl-3-propyl-2-hexenenitrile

>  <Activity>
0

$$$$
2-iso-Propyl-3-methyl-2-hexenenitrile
Actelion Java MolfileCreator 2.0

  0  0  0  0  0  0              0 V3000
M  V30 BEGIN CTAB
M  V30 COUNTS 11 10 0 0 0
M  V30 BEGIN ATOM
M  V30 1 N 0.0 0.0 0.0 0
M  V30 2 C -1.298 -0.7552 0.0 0
M  V30 3 C -2.5961 -1.5104 0.0 0
M  V30 4 C -2.5961 -3.0091 0.0 0
M  V30 5 C -3.8942 -0.767 0.0 0
M  V30 6 C -1.298 -3.7644 0.0 0
M  V30 7 C -3.8942 -3.7644 0.0 0
M  V30 8 C -3.8942 0.7316 0.0 0
M  V30 9 C -5.1923 -1.5222 0.0 0
M  V30 10 C 0.0 -3.0209 0.0 0
M  V30 11 C 1.298 -3.7762 0.0 0
M  V30 END ATOM
M  V30 BEGIN BOND
M  V30 1 3 1 2
M  V30 2 1 2 3
M  V30 3 2 3 4 CFG=2
M  V30 4 1 3 5
M  V30 5 1 4 6
M  V30 6 1 4 7
M  V30 7 1 5 8
M  V30 8 1 5 9
M  V30 9 1 6 10
M  V30 10 1 10 11
M  V30 END BOND
M  V30 END CTAB
M  END
>  <Molecule Name>
2-iso-Propyl-3-methyl-2-hexenenitrile

>  <Molecule Name 2>
2-iso-Propyl-3-methyl-2-hexenenitrile

>  <Activity>
0

$$$$
iso-Propylidenecyanoacetic acid, ethyl ester
Actelion Java MolfileCreator 2.0

  0  0  0  0  0  0              0 V3000
M  V30 BEGIN CTAB
M  V30 COUNTS 11 10 0 0 0
M  V30 BEGIN ATOM
M  V30 1 O 0.0 0.0 0.0 0
M  V30 2 C -1.2985 0.7437 0.0 0
M  V30 3 O -2.5971 -0.0118 0.0 0
M  V30 4 C -1.2985 2.243 0.0 0
M  V30 5 C -3.8957 0.7319 0.0 0
M  V30 6 C 0.0 2.9985 0.0 0
M  V30 7 C -2.5971 2.9867 0.0 0
M  V30 8 C -5.1943 -0.0236 0.0 0
M  V30 9 N 1.2985 3.7541 0.0 0
M  V30 10 C -3.8957 2.2312 0.0 0
M  V30 11 C -2.5971 4.486 0.0 0
M  V30 END ATOM
M  V30 BEGIN BOND
M  V30 1 2 1 2
M  V30 2 1 2 3
M  V30 3 1 2 4
M  V30 4 1 3 5
M  V30 5 1 4 6
M  V30 6 2 4 7
M  V30 7 1 5 8
M  V30 8 3 6 9
M  V30 9 1 7 10
M  V30 10 1 7 11
M  V30 END BOND
M  V30 END CTAB
M  END
>  <Molecule Name>
iso-Propylidenecyanoacetic acid, ethyl ester

>  <Molecule Name 2>
iso-Propylidenecyanoacetic acid, ethyl ester

>  <Activity>
0

$$$$
N,N-Dipropylpropionamide
Actelion Java MolfileCreator 2.0

  0  0  0  0  0  0              0 V3000
M  V30 BEGIN CTAB
M  V30 COUNTS 11 10 0 0 0
M  V30 BEGIN ATOM
M  V30 1 O 0.0 0.0 0.0 0
M  V30 2 C 1.2985 -0.7555 0.0 0
M  V30 3 N 1.2985 -2.2548 0.0 0
M  V30 4 C 2.5971 -0.0118 0.0 0
M  V30 5 C 2.5971 -3.0103 0.0 0
M  V30 6 C 0.0 -3.0103 0.0 0
M  V30 7 C 2.5971 1.4874 0.0 0
M  V30 8 C 3.8957 -2.2666 0.0 0
M  V30 9 C -1.2985 -2.2666 0.0 0
M  V30 10 C 5.1943 -3.0221 0.0 0
M  V30 11 C -2.5971 -3.0221 0.0 0
M  V30 END ATOM
M  V30 BEGIN BOND
M  V30 1 2 1 2
M  V30 2 1 2 3
M  V30 3 1 2 4
M  V30 4 1 3 5
M  V30 5 1 3 6
M  V30 6 1 4 7
M  V30 7 1 5 8
M  V30 8 1 6 9
M  V30 9 1 8 10
M  V30 10 1 9 11
M  V30 END BOND
M  V30 END CTAB
M  END
>  <Molecule Name>
N,N-Dipropylpropionamide

>  <Molecule Name 2>
N,N-Dipropylpropionamide

>  <Activity>
0

$$$$
tert-Amylbenzene
Actelion Java MolfileCreator 2.0

  0  0  0  0  0  0              0 V3000
M  V30 BEGIN CTAB
M  V30 COUNTS 11 11 0 0 0
M  V30 BEGIN ATOM
M  V30 1 C 0.0 0.0 0.0 0
M  V30 2 C -1.3002 0.7565 0.0 0
M  V30 3 C 0.0 -1.5012 0.0 0
M  V30 4 C 1.3002 0.7446 0.0 0
M  V30 5 C -2.6005 0.0118 0.0 0
M  V30 6 C -1.3002 -2.2459 0.0 0
M  V30 7 C 2.6005 0.0 0.0 0
M  V30 8 C 2.0449 2.0449 0.0 0
M  V30 9 C 0.5555 2.0449 0.0 0
M  V30 10 C -2.6005 -1.4893 0.0 0
M  V30 11 C 3.9007 0.7446 0.0 0
M  V30 END ATOM
M  V30 BEGIN BOND
M  V30 1 2 1 2
M  V30 2 1 1 3
M  V30 3 1 1 4
M  V30 4 1 2 5
M  V30 5 2 3 6
M  V30 6 1 4 7
M  V30 7 1 4 8
M  V30 8 1 4 9
M  V30 9 2 5 10
M  V30 10 1 7 11
M  V30 11 1 6 10
M  V30 END BOND
M  V30 END CTAB
M  END
>  <Molecule Name>
tert-Amylbenzene

>  <Molecule Name 2>
tert-Amylbenzene

>  <Activity>
0

$$$$
alpha,alpha,alpha,4-Tetrachlorotoluene
Actelion Java MolfileCreator 2.0

  0  0  0  0  0  0              0 V3000
M  V30 BEGIN CTAB
M  V30 COUNTS 11 11 0 0 0
M  V30 BEGIN ATOM
M  V30 1 Cl 0.0 0.0 0.0 0
M  V30 2 C 1.3016 0.7454 0.0 0
M  V30 3 C 1.3016 2.2483 0.0 0
M  V30 4 C 2.6033 0.0 0.0 0
M  V30 5 C 2.6033 2.9938 0.0 0
M  V30 6 C 3.9049 0.7454 0.0 0
M  V30 7 C 3.9049 2.2364 0.0 0
M  V30 8 C 5.2066 2.9819 0.0 0
M  V30 9 Cl 4.4611 4.2836 0.0 0
M  V30 10 Cl 6.5083 3.7274 0.0 0
M  V30 11 Cl 5.9521 1.6803 0.0 0
M  V30 END ATOM
M  V30 BEGIN BOND
M  V30 1 1 1 2
M  V30 2 2 2 3
M  V30 3 1 2 4
M  V30 4 1 3 5
M  V30 5 2 4 6
M  V30 6 2 5 7
M  V30 7 1 7 8
M  V30 8 1 8 9
M  V30 9 1 8 10
M  V30 10 1 8 11
M  V30 11 1 6 7
M  V30 END BOND
M  V30 END CTAB
M  END
>  <Molecule Name>
alpha,alpha,alpha,4-Tetrachlorotoluene

>  <Molecule Name 2>
alpha,alpha,alpha,4-Tetrachlorotoluene

>  <Activity>
0

$$$$
alpha,alpha,alpha,2-Tetrachlorotoluene
Actelion Java MolfileCreator 2.0

  0  0  0  0  0  0              0 V3000
M  V30 BEGIN CTAB
M  V30 COUNTS 11 11 0 0 0
M  V30 BEGIN ATOM
M  V30 1 Cl 0.0 0.0 0.0 0
M  V30 2 C 0.0 -1.5009 0.0 0
M  V30 3 C 1.3 -2.2573 0.0 0
M  V30 4 C -1.3 -2.2455 0.0 0
M  V30 5 C 1.3 -3.7583 0.0 0
M  V30 6 C 2.6 -1.5127 0.0 0
M  V30 7 C -1.3 -3.7464 0.0 0
M  V30 8 C 0.0 -4.5028 0.0 0
M  V30 9 Cl 1.8555 -0.2127 0.0 0
M  V30 10 Cl 3.9001 -0.7682 0.0 0
M  V30 11 Cl 3.3446 -2.8128 0.0 0
M  V30 END ATOM
M  V30 BEGIN BOND
M  V30 1 1 1 2
M  V30 2 2 2 3
M  V30 3 1 2 4
M  V30 4 1 3 5
M  V30 5 1 3 6
M  V30 6 2 4 7
M  V30 7 2 5 8
M  V30 8 1 6 9
M  V30 9 1 6 10
M  V30 10 1 6 11
M  V30 11 1 7 8
M  V30 END BOND
M  V30 END CTAB
M  END
>  <Molecule Name>
alpha,alpha,alpha,2-Tetrachlorotoluene

>  <Molecule Name 2>
alpha,alpha,alpha,2-Tetrachlorotoluene

>  <Activity>
0

$$$$
2-Chloro-p-cymene
Actelion Java MolfileCreator 2.0

  0  0  0  0  0  0              0 V3000
M  V30 BEGIN CTAB
M  V30 COUNTS 11 11 0 0 0
M  V30 BEGIN ATOM
M  V30 1 Cl 0.0 0.0 0.0 0
M  V30 2 C 0.0 -1.5007 0.0 0
M  V30 3 C -1.2998 -2.2569 0.0 0
M  V30 4 C 1.2998 -2.2451 0.0 0
M  V30 5 C -1.2998 -3.7576 0.0 0
M  V30 6 C -2.5996 -1.5125 0.0 0
M  V30 7 C 1.2998 -3.7458 0.0 0
M  V30 8 C 0.0 -4.5021 0.0 0
M  V30 9 C -2.5996 -0.0118 0.0 0
M  V30 10 C -3.8994 -2.2569 0.0 0
M  V30 11 C 2.5996 -4.4902 0.0 0
M  V30 END ATOM
M  V30 BEGIN BOND
M  V30 1 1 1 2
M  V30 2 2 2 3
M  V30 3 1 2 4
M  V30 4 1 3 5
M  V30 5 1 3 6
M  V30 6 2 4 7
M  V30 7 2 5 8
M  V30 8 1 6 9
M  V30 9 1 6 10
M  V30 10 1 7 11
M  V30 11 1 7 8
M  V30 END BOND
M  V30 END CTAB
M  END
>  <Molecule Name>
2-Chloro-p-cymene

>  <Molecule Name 2>
2-Chloro-p-cymene

>  <Activity>
0

$$$$
Beta-Methoxyphenetole
Actelion Java MolfileCreator 2.0

  0  0  0  0  0  0              0 V3000
M  V30 BEGIN CTAB
M  V30 COUNTS 11 11 0 0 0
M  V30 BEGIN ATOM
M  V30 1 O 0.0 0.0 0.0 0
M  V30 2 C -1.3002 -0.7446 0.0 0
M  V30 3 C 1.3002 -0.7446 0.0 0
M  V30 4 C -2.6005 0.0118 0.0 0
M  V30 5 C -1.3002 -2.2459 0.0 0
M  V30 6 C 2.6005 0.0 0.0 0
M  V30 7 C -3.9007 -0.7328 0.0 0
M  V30 8 C -2.6005 -2.9906 0.0 0
M  V30 9 O 3.9007 -0.7446 0.0 0
M  V30 10 C -3.9007 -2.234 0.0 0
M  V30 11 C 5.201 0.0 0.0 0
M  V30 END ATOM
M  V30 BEGIN BOND
M  V30 1 1 1 2
M  V30 2 1 1 3
M  V30 3 2 2 4
M  V30 4 1 2 5
M  V30 5 1 3 6
M  V30 6 1 4 7
M  V30 7 2 5 8
M  V30 8 1 6 9
M  V30 9 2 7 10
M  V30 10 1 9 11
M  V30 11 1 8 10
M  V30 END BOND
M  V30 END CTAB
M  END
>  <Molecule Name>
Beta-Methoxyphenetole

>  <Molecule Name 2>
Beta-Methoxyphenetole

>  <Activity>
0

$$$$
3-Phenyl-1,2-propanediol
Actelion Java MolfileCreator 2.0

  0  0  0  0  0  0              0 V3000
M  V30 BEGIN CTAB
M  V30 COUNTS 11 11 0 0 0
M  V30 BEGIN ATOM
M  V30 1 O 0.0 0.0 0.0 0
M  V30 2 C 0.0 1.4998 0.0 0 CFG=2
M  V30 3 C -1.2991 2.2439 0.0 0
M  V30 4 C 1.2991 2.2439 0.0 0
M  V30 5 O -2.5982 1.488 0.0 0
M  V30 6 C 2.5982 1.488 0.0 0
M  V30 7 C 2.5982 -0.0118 0.0 0
M  V30 8 C 3.8973 2.2321 0.0 0
M  V30 9 C 3.8973 -0.7676 0.0 0
M  V30 10 C 5.1964 1.4762 0.0 0
M  V30 11 C 5.1964 -0.0236 0.0 0
M  V30 END ATOM
M  V30 BEGIN BOND
M  V30 1 1 2 1 CFG=3
M  V30 2 1 2 3
M  V30 3 1 2 4
M  V30 4 1 3 5
M  V30 5 1 4 6
M  V30 6 2 6 7
M  V30 7 1 6 8
M  V30 8 1 7 9
M  V30 9 2 8 10
M  V30 10 2 9 11
M  V30 11 1 10 11
M  V30 END BOND
M  V30 BEGIN COLLECTION
M  V30 MDLV30/STERAC1 ATOMS=(1 2)
M  V30 END COLLECTION
M  V30 END CTAB
M  END
>  <Molecule Name>
3-Phenyl-1,2-propanediol

>  <Molecule Name 2>
3-Phenyl-1,2-propanediol

>  <Activity>
0

$$$$
Acrylic acid, cyclohexyl ester
Actelion Java MolfileCreator 2.0

  0  0  0  0  0  0              0 V3000
M  V30 BEGIN CTAB
M  V30 COUNTS 11 11 0 0 0
M  V30 BEGIN ATOM
M  V30 1 O 0.0 0.0 0.0 0
M  V30 2 C 0.0 1.5009 0.0 0
M  V30 3 O -1.3 2.2455 0.0 0
M  V30 4 C 1.3 2.2455 0.0 0
M  V30 5 C -2.6 1.5009 0.0 0
M  V30 6 C 2.6 1.5009 0.0 0
M  V30 7 C -3.9001 2.2573 0.0 0
M  V30 8 C -2.6 0.0 0.0 0
M  V30 9 C -5.2001 1.5127 0.0 0
M  V30 10 C -3.9001 -0.7445 0.0 0
M  V30 11 C -5.2001 0.0118 0.0 0
M  V30 END ATOM
M  V30 BEGIN BOND
M  V30 1 2 1 2
M  V30 2 1 2 3
M  V30 3 1 2 4
M  V30 4 1 3 5
M  V30 5 2 4 6
M  V30 6 1 5 7
M  V30 7 1 5 8
M  V30 8 1 7 9
M  V30 9 1 8 10
M  V30 10 1 9 11
M  V30 11 1 10 11
M  V30 END BOND
M  V30 END CTAB
M  END
>  <Molecule Name>
Acrylic acid, cyclohexyl ester

>  <Molecule Name 2>
Acrylic acid, cyclohexyl ester

>  <Activity>
0

$$$$
Propionic acid, phenyl ester
Actelion Java MolfileCreator 2.0

  0  0  0  0  0  0              0 V3000
M  V30 BEGIN CTAB
M  V30 COUNTS 11 11 0 0 0
M  V30 BEGIN ATOM
M  V30 1 O 0.0 0.0 0.0 0
M  V30 2 C 0.0 1.5009 0.0 0
M  V30 3 O -1.3 2.2455 0.0 0
M  V30 4 C 1.3 2.2455 0.0 0
M  V30 5 C -2.6 1.5009 0.0 0
M  V30 6 C 2.6 1.5009 0.0 0
M  V30 7 C -3.9001 2.2573 0.0 0
M  V30 8 C -2.6 0.0 0.0 0
M  V30 9 C -5.2001 1.5127 0.0 0
M  V30 10 C -3.9001 -0.7445 0.0 0
M  V30 11 C -5.2001 0.0118 0.0 0
M  V30 END ATOM
M  V30 BEGIN BOND
M  V30 1 2 1 2
M  V30 2 1 2 3
M  V30 3 1 2 4
M  V30 4 1 3 5
M  V30 5 1 4 6
M  V30 6 2 5 7
M  V30 7 1 5 8
M  V30 8 1 7 9
M  V30 9 2 8 10
M  V30 10 2 9 11
M  V30 11 1 10 11
M  V30 END BOND
M  V30 END CTAB
M  END
>  <Molecule Name>
Propionic acid, phenyl ester

>  <Molecule Name 2>
Propionic acid, phenyl ester

>  <Activity>
0

$$$$
Benzoic acid, ethyl ester
Actelion Java MolfileCreator 2.0

  0  0  0  0  0  0              0 V3000
M  V30 BEGIN CTAB
M  V30 COUNTS 11 11 0 0 0
M  V30 BEGIN ATOM
M  V30 1 O 0.0 0.0 0.0 0
M  V30 2 C 0.0 -1.4993 0.0 0
M  V30 3 O -1.2986 -2.2549 0.0 0
M  V30 4 C 1.2986 -2.2549 0.0 0
M  V30 5 C -2.5972 -1.5111 0.0 0
M  V30 6 C 1.2986 -3.7542 0.0 0
M  V30 7 C 2.5972 -1.5111 0.0 0
M  V30 8 C -3.8959 -2.2667 0.0 0
M  V30 9 C 2.5972 -4.5098 0.0 0
M  V30 10 C 3.8959 -2.2667 0.0 0
M  V30 11 C 3.8959 -3.766 0.0 0
M  V30 END ATOM
M  V30 BEGIN BOND
M  V30 1 2 1 2
M  V30 2 1 2 3
M  V30 3 1 2 4
M  V30 4 1 3 5
M  V30 5 2 4 6
M  V30 6 1 4 7
M  V30 7 1 5 8
M  V30 8 1 6 9
M  V30 9 2 7 10
M  V30 10 2 9 11
M  V30 11 1 10 11
M  V30 END BOND
M  V30 END CTAB
M  END
>  <Molecule Name>
Benzoic acid, ethyl ester

>  <Molecule Name 2>
Benzoic acid, ethyl ester

>  <Activity>
0

$$$$
Hexahydrobenzoic acid, ethyl ester
Actelion Java MolfileCreator 2.0

  0  0  0  0  0  0              0 V3000
M  V30 BEGIN CTAB
M  V30 COUNTS 11 11 0 0 0
M  V30 BEGIN ATOM
M  V30 1 O 0.0 0.0 0.0 0
M  V30 2 C 0.0 -1.4993 0.0 0
M  V30 3 O -1.2986 -2.2549 0.0 0
M  V30 4 C 1.2986 -2.2549 0.0 0
M  V30 5 C -2.5972 -1.5111 0.0 0
M  V30 6 C 1.2986 -3.7542 0.0 0
M  V30 7 C 2.5972 -1.5111 0.0 0
M  V30 8 C -3.8959 -2.2667 0.0 0
M  V30 9 C 2.5972 -4.5098 0.0 0
M  V30 10 C 3.8959 -2.2667 0.0 0
M  V30 11 C 3.8959 -3.766 0.0 0
M  V30 END ATOM
M  V30 BEGIN BOND
M  V30 1 2 1 2
M  V30 2 1 2 3
M  V30 3 1 2 4
M  V30 4 1 3 5
M  V30 5 1 4 6
M  V30 6 1 4 7
M  V30 7 1 5 8
M  V30 8 1 6 9
M  V30 9 1 7 10
M  V30 10 1 9 11
M  V30 11 1 10 11
M  V30 END BOND
M  V30 END CTAB
M  END
>  <Molecule Name>
Hexahydrobenzoic acid, ethyl ester

>  <Molecule Name 2>
Hexahydrobenzoic acid, ethyl ester

>  <Activity>
0

$$$$
Phenylacetic acid, methyl ester
Actelion Java MolfileCreator 2.0

  0  0  0  0  0  0              0 V3000
M  V30 BEGIN CTAB
M  V30 COUNTS 11 11 0 0 0
M  V30 BEGIN ATOM
M  V30 1 O 0.0 0.0 0.0 0
M  V30 2 C 0.0 1.4998 0.0 0
M  V30 3 O -1.2991 2.2439 0.0 0
M  V30 4 C 1.2991 2.2439 0.0 0
M  V30 5 C -2.5982 1.488 0.0 0
M  V30 6 C 2.5982 1.488 0.0 0
M  V30 7 C 2.5982 -0.0118 0.0 0
M  V30 8 C 3.8973 2.2321 0.0 0
M  V30 9 C 3.8973 -0.7676 0.0 0
M  V30 10 C 5.1964 1.4762 0.0 0
M  V30 11 C 5.1964 -0.0236 0.0 0
M  V30 END ATOM
M  V30 BEGIN BOND
M  V30 1 2 1 2
M  V30 2 1 2 3
M  V30 3 1 2 4
M  V30 4 1 3 5
M  V30 5 1 4 6
M  V30 6 2 6 7
M  V30 7 1 6 8
M  V30 8 1 7 9
M  V30 9 2 8 10
M  V30 10 2 9 11
M  V30 11 1 10 11
M  V30 END BOND
M  V30 END CTAB
M  END
>  <Molecule Name>
Phenylacetic acid, methyl ester

>  <Molecule Name 2>
Phenylacetic acid, methyl ester

>  <Activity>
0

$$$$
Cyclohexylacetic acid, methyl ester
Actelion Java MolfileCreator 2.0

  0  0  0  0  0  0              0 V3000
M  V30 BEGIN CTAB
M  V30 COUNTS 11 11 0 0 0
M  V30 BEGIN ATOM
M  V30 1 O 0.0 0.0 0.0 0
M  V30 2 C 0.0 1.4998 0.0 0
M  V30 3 O -1.2991 2.2439 0.0 0
M  V30 4 C 1.2991 2.2439 0.0 0
M  V30 5 C -2.5982 1.488 0.0 0
M  V30 6 C 2.5982 1.488 0.0 0
M  V30 7 C 2.5982 -0.0118 0.0 0
M  V30 8 C 3.8973 2.2321 0.0 0
M  V30 9 C 3.8973 -0.7676 0.0 0
M  V30 10 C 5.1964 1.4762 0.0 0
M  V30 11 C 5.1964 -0.0236 0.0 0
M  V30 END ATOM
M  V30 BEGIN BOND
M  V30 1 2 1 2
M  V30 2 1 2 3
M  V30 3 1 2 4
M  V30 4 1 3 5
M  V30 5 1 4 6
M  V30 6 1 6 7
M  V30 7 1 6 8
M  V30 8 1 7 9
M  V30 9 1 8 10
M  V30 10 1 9 11
M  V30 11 1 10 11
M  V30 END BOND
M  V30 END CTAB
M  END
>  <Molecule Name>
Cyclohexylacetic acid, methyl ester

>  <Molecule Name 2>
Cyclohexylacetic acid, methyl ester

>  <Activity>
0

$$$$
Acetic acid, benzyl ester
Actelion Java MolfileCreator 2.0

  0  0  0  0  0  0              0 V3000
M  V30 BEGIN CTAB
M  V30 COUNTS 11 11 0 0 0
M  V30 BEGIN ATOM
M  V30 1 O 0.0 0.0 0.0 0
M  V30 2 C 0.0 -1.5009 0.0 0
M  V30 3 O -1.3 -2.2455 0.0 0
M  V30 4 C 1.3 -2.2455 0.0 0
M  V30 5 C -2.6 -1.5009 0.0 0
M  V30 6 C -3.9001 -2.2455 0.0 0
M  V30 7 C -5.2001 -1.4891 0.0 0
M  V30 8 C -3.9001 -3.7464 0.0 0
M  V30 9 C -6.5002 -2.2337 0.0 0
M  V30 10 C -5.2001 -4.491 0.0 0
M  V30 11 C -6.5002 -3.7346 0.0 0
M  V30 END ATOM
M  V30 BEGIN BOND
M  V30 1 2 1 2
M  V30 2 1 2 3
M  V30 3 1 2 4
M  V30 4 1 3 5
M  V30 5 1 5 6
M  V30 6 2 6 7
M  V30 7 1 6 8
M  V30 8 1 7 9
M  V30 9 2 8 10
M  V30 10 2 9 11
M  V30 11 1 10 11
M  V30 END BOND
M  V30 END CTAB
M  END
>  <Molecule Name>
Acetic acid, benzyl ester

>  <Molecule Name 2>
Acetic acid, benzyl ester

>  <Activity>
0

$$$$
Acetic acid, m-cresyl ester
Actelion Java MolfileCreator 2.0

  0  0  0  0  0  0              0 V3000
M  V30 BEGIN CTAB
M  V30 COUNTS 11 11 0 0 0
M  V30 BEGIN ATOM
M  V30 1 O 0.0 0.0 0.0 0
M  V30 2 C 0.0 1.5004 0.0 0
M  V30 3 O -1.2995 2.2447 0.0 0
M  V30 4 C 1.2995 2.2447 0.0 0
M  V30 5 C -2.5991 1.5004 0.0 0
M  V30 6 C -3.8987 2.2565 0.0 0
M  V30 7 C -2.5991 0.0 0.0 0
M  V30 8 C -5.1983 1.5122 0.0 0
M  V30 9 C -3.8987 -0.7443 0.0 0
M  V30 10 C -5.1983 0.0118 0.0 0
M  V30 11 C -6.4978 2.2683 0.0 0
M  V30 END ATOM
M  V30 BEGIN BOND
M  V30 1 2 1 2
M  V30 2 1 2 3
M  V30 3 1 2 4
M  V30 4 1 3 5
M  V30 5 2 5 6
M  V30 6 1 5 7
M  V30 7 1 6 8
M  V30 8 2 7 9
M  V30 9 2 8 10
M  V30 10 1 8 11
M  V30 11 1 9 10
M  V30 END BOND
M  V30 END CTAB
M  END
>  <Molecule Name>
Acetic acid, m-cresyl ester

>  <Molecule Name 2>
Acetic acid, m-cresyl ester

>  <Activity>
0

$$$$
Acetic acid, o-cresyl ester
Actelion Java MolfileCreator 2.0

  0  0  0  0  0  0              0 V3000
M  V30 BEGIN CTAB
M  V30 COUNTS 11 11 0 0 0
M  V30 BEGIN ATOM
M  V30 1 O 0.0 0.0 0.0 0
M  V30 2 C 0.0 1.5007 0.0 0
M  V30 3 O -1.2998 2.2451 0.0 0
M  V30 4 C 1.2998 2.2451 0.0 0
M  V30 5 C -2.5996 1.5007 0.0 0
M  V30 6 C -3.8994 2.2569 0.0 0
M  V30 7 C -2.5996 0.0 0.0 0
M  V30 8 C -5.1992 1.5125 0.0 0
M  V30 9 C -3.8994 3.7576 0.0 0
M  V30 10 C -3.8994 -0.7444 0.0 0
M  V30 11 C -5.1992 0.0118 0.0 0
M  V30 END ATOM
M  V30 BEGIN BOND
M  V30 1 2 1 2
M  V30 2 1 2 3
M  V30 3 1 2 4
M  V30 4 1 3 5
M  V30 5 2 5 6
M  V30 6 1 5 7
M  V30 7 1 6 8
M  V30 8 1 6 9
M  V30 9 2 7 10
M  V30 10 2 8 11
M  V30 11 1 10 11
M  V30 END BOND
M  V30 END CTAB
M  END
>  <Molecule Name>
Acetic acid, o-cresyl ester

>  <Molecule Name 2>
Acetic acid, o-cresyl ester

>  <Activity>
0

$$$$
2-Propoxyphenol
Actelion Java MolfileCreator 2.0

  0  0  0  0  0  0              0 V3000
M  V30 BEGIN CTAB
M  V30 COUNTS 11 11 0 0 0
M  V30 BEGIN ATOM
M  V30 1 O 0.0 0.0 0.0 0
M  V30 2 C -1.3 -0.7445 0.0 0
M  V30 3 C 1.3 -0.7445 0.0 0
M  V30 4 C -2.6 0.0118 0.0 0
M  V30 5 C -1.3 -2.2455 0.0 0
M  V30 6 C 2.6 0.0 0.0 0
M  V30 7 O -2.6 1.5127 0.0 0
M  V30 8 C -3.9001 -0.7327 0.0 0
M  V30 9 C -2.6 -2.99 0.0 0
M  V30 10 C 3.9001 -0.7445 0.0 0
M  V30 11 C -3.9001 -2.2337 0.0 0
M  V30 END ATOM
M  V30 BEGIN BOND
M  V30 1 1 1 2
M  V30 2 1 1 3
M  V30 3 2 2 4
M  V30 4 1 2 5
M  V30 5 1 3 6
M  V30 6 1 4 7
M  V30 7 1 4 8
M  V30 8 2 5 9
M  V30 9 1 6 10
M  V30 10 2 8 11
M  V30 11 1 9 11
M  V30 END BOND
M  V30 END CTAB
M  END
>  <Molecule Name>
2-Propoxyphenol

>  <Molecule Name 2>
2-Propoxyphenol

>  <Activity>
0

$$$$
2-n-Propoxycyclohexanol
Actelion Java MolfileCreator 2.0

  0  0  0  0  0  0              0 V3000
M  V30 BEGIN CTAB
M  V30 COUNTS 11 11 0 0 0
M  V30 BEGIN ATOM
M  V30 1 O 0.0 0.0 0.0 0
M  V30 2 C -1.3 -0.7445 0.0 0
M  V30 3 C 1.3 -0.7445 0.0 0
M  V30 4 C -2.6 0.0118 0.0 0
M  V30 5 C -1.3 -2.2455 0.0 0
M  V30 6 C 2.6 0.0 0.0 0
M  V30 7 O -2.6 1.5127 0.0 0
M  V30 8 C -3.9001 -0.7327 0.0 0
M  V30 9 C -2.6 -2.99 0.0 0
M  V30 10 C 3.9001 -0.7445 0.0 0
M  V30 11 C -3.9001 -2.2337 0.0 0
M  V30 END ATOM
M  V30 BEGIN BOND
M  V30 1 1 1 2
M  V30 2 1 1 3
M  V30 3 1 2 4
M  V30 4 1 2 5
M  V30 5 1 3 6
M  V30 6 1 4 7
M  V30 7 1 4 8
M  V30 8 1 5 9
M  V30 9 1 6 10
M  V30 10 1 8 11
M  V30 11 1 9 11
M  V30 END BOND
M  V30 END CTAB
M  END
>  <Molecule Name>
2-n-Propoxycyclohexanol

>  <Molecule Name 2>
2-n-Propoxycyclohexanol

>  <Activity>
0

$$$$
1-Phenyl-1,3-propanediol
Actelion Java MolfileCreator 2.0

  0  0  0  0  0  0              0 V3000
M  V30 BEGIN CTAB
M  V30 COUNTS 11 11 0 0 0
M  V30 BEGIN ATOM
M  V30 1 O 0.0 0.0 0.0 0
M  V30 2 C 0.0 -1.4993 0.0 0 CFG=2
M  V30 3 C 1.2986 -2.2549 0.0 0
M  V30 4 C -1.2986 -2.2549 0.0 0
M  V30 5 C 1.2986 -3.7542 0.0 0
M  V30 6 C 2.5972 -1.5111 0.0 0
M  V30 7 C -2.5972 -1.5111 0.0 0
M  V30 8 C 2.5972 -4.5098 0.0 0
M  V30 9 C 3.8959 -2.2667 0.0 0
M  V30 10 O -3.8959 -2.2667 0.0 0
M  V30 11 C 3.8959 -3.766 0.0 0
M  V30 END ATOM
M  V30 BEGIN BOND
M  V30 1 1 2 1 CFG=3
M  V30 2 1 2 3
M  V30 3 1 2 4
M  V30 4 2 3 5
M  V30 5 1 3 6
M  V30 6 1 4 7
M  V30 7 1 5 8
M  V30 8 2 6 9
M  V30 9 1 7 10
M  V30 10 2 8 11
M  V30 11 1 9 11
M  V30 END BOND
M  V30 BEGIN COLLECTION
M  V30 MDLV30/STERAC1 ATOMS=(1 2)
M  V30 END COLLECTION
M  V30 END CTAB
M  END
>  <Molecule Name>
1-Phenyl-1,3-propanediol

>  <Molecule Name 2>
1-Phenyl-1,3-propanediol

>  <Activity>
0

$$$$
2-Methyl-2-iso-butyl-m-dioxane
Actelion Java MolfileCreator 2.0

  0  0  0  0  0  0              0 V3000
M  V30 BEGIN CTAB
M  V30 COUNTS 11 11 0 0 0
M  V30 BEGIN ATOM
M  V30 1 O 0.0 0.0 0.0 0
M  V30 2 C 1.2995 -0.7561 0.0 0
M  V30 3 C -1.2995 -0.7443 0.0 0
M  V30 4 O 1.2995 -2.2565 0.0 0
M  V30 5 C 2.5991 -0.0118 0.0 0
M  V30 6 C 2.5991 -1.5122 0.0 0
M  V30 7 C -1.2995 -2.2447 0.0 0
M  V30 8 C 0.0 -3.0008 0.0 0
M  V30 9 C 3.8987 -0.7561 0.0 0
M  V30 10 C 5.1983 -0.0118 0.0 0
M  V30 11 C 3.8987 -2.2565 0.0 0
M  V30 END ATOM
M  V30 BEGIN BOND
M  V30 1 1 1 2
M  V30 2 1 1 3
M  V30 3 1 2 4
M  V30 4 1 2 5
M  V30 5 1 2 6
M  V30 6 1 3 7
M  V30 7 1 4 8
M  V30 8 1 5 9
M  V30 9 1 9 10
M  V30 10 1 9 11
M  V30 11 1 7 8
M  V30 END BOND
M  V30 END CTAB
M  END
>  <Molecule Name>
2-Methyl-2-iso-butyl-m-dioxane

>  <Molecule Name 2>
2-Methyl-2-iso-butyl-m-dioxane

>  <Activity>
0

$$$$
2,2,4,4,6-Pentamethyl-m-dioxane
Actelion Java MolfileCreator 2.0

  0  0  0  0  0  0              0 V3000
M  V30 BEGIN CTAB
M  V30 COUNTS 11 11 0 0 0
M  V30 BEGIN ATOM
M  V30 1 O 0.0 0.0 0.0 0
M  V30 2 C -1.2981 0.7553 0.0 0
M  V30 3 C 0.0 -1.4988 0.0 0
M  V30 4 O -2.5963 0.0118 0.0 0
M  V30 5 C -0.5428 2.0534 0.0 0
M  V30 6 C -2.0416 2.0534 0.0 0
M  V30 7 C -1.2981 -2.2541 0.0 0
M  V30 8 C 0.7435 -2.7969 0.0 0
M  V30 9 C 1.4988 -1.4988 0.0 0
M  V30 10 C -2.5963 -1.487 0.0 0 CFG=2
M  V30 11 C -3.8945 -2.2423 0.0 0
M  V30 END ATOM
M  V30 BEGIN BOND
M  V30 1 1 1 2
M  V30 2 1 1 3
M  V30 3 1 2 4
M  V30 4 1 2 5
M  V30 5 1 2 6
M  V30 6 1 3 7
M  V30 7 1 3 8
M  V30 8 1 3 9
M  V30 9 1 4 10
M  V30 10 1 10 11 CFG=3
M  V30 11 1 7 10
M  V30 END BOND
M  V30 BEGIN COLLECTION
M  V30 MDLV30/STERAC1 ATOMS=(1 10)
M  V30 END COLLECTION
M  V30 END CTAB
M  END
>  <Molecule Name>
2,2,4,4,6-Pentamethyl-m-dioxane

>  <Molecule Name 2>
2,2,4,4,6-Pentamethyl-m-dioxane

>  <Activity>
0

$$$$
Chloroacetic acid, cyclohexyl ester
Actelion Java MolfileCreator 2.0

  0  0  0  0  0  0              0 V3000
M  V30 BEGIN CTAB
M  V30 COUNTS 11 11 0 0 0
M  V30 BEGIN ATOM
M  V30 1 Cl 0.0 0.0 0.0 0
M  V30 2 C -1.3 0.7445 0.0 0
M  V30 3 C -2.6 0.0 0.0 0
M  V30 4 O -2.6 -1.5009 0.0 0
M  V30 5 O -3.9001 0.7445 0.0 0
M  V30 6 C -5.2001 0.0 0.0 0
M  V30 7 C -6.5002 0.7563 0.0 0
M  V30 8 C -5.2001 -1.5009 0.0 0
M  V30 9 C -7.8002 0.0118 0.0 0
M  V30 10 C -6.5002 -2.2455 0.0 0
M  V30 11 C -7.8002 -1.4891 0.0 0
M  V30 END ATOM
M  V30 BEGIN BOND
M  V30 1 1 1 2
M  V30 2 1 2 3
M  V30 3 2 3 4
M  V30 4 1 3 5
M  V30 5 1 5 6
M  V30 6 1 6 7
M  V30 7 1 6 8
M  V30 8 1 7 9
M  V30 9 1 8 10
M  V30 10 1 9 11
M  V30 11 1 10 11
M  V30 END BOND
M  V30 END CTAB
M  END
>  <Molecule Name>
Chloroacetic acid, cyclohexyl ester

>  <Molecule Name 2>
Chloroacetic acid, cyclohexyl ester

>  <Activity>
0

$$$$
p-iso -Propylbenzaldehyde
Actelion Java MolfileCreator 2.0

  0  0  0  0  0  0              0 V3000
M  V30 BEGIN CTAB
M  V30 COUNTS 11 11 0 0 0
M  V30 BEGIN ATOM
M  V30 1 O 0.0 0.0 0.0 0
M  V30 2 C 0.0 1.5023 0.0 0
M  V30 3 C 1.3012 2.2475 0.0 0
M  V30 4 C 1.3012 3.7498 0.0 0
M  V30 5 C 2.6024 1.5023 0.0 0
M  V30 6 C 2.6024 4.4951 0.0 0
M  V30 7 C 3.9036 2.2475 0.0 0
M  V30 8 C 3.9036 3.738 0.0 0
M  V30 9 C 5.2048 4.4832 0.0 0
M  V30 10 C 6.506 3.738 0.0 0
M  V30 11 C 5.2048 5.9856 0.0 0
M  V30 END ATOM
M  V30 BEGIN BOND
M  V30 1 2 1 2
M  V30 2 1 2 3
M  V30 3 2 3 4
M  V30 4 1 3 5
M  V30 5 1 4 6
M  V30 6 2 5 7
M  V30 7 2 6 8
M  V30 8 1 8 9
M  V30 9 1 9 10
M  V30 10 1 9 11
M  V30 11 1 7 8
M  V30 END BOND
M  V30 END CTAB
M  END
>  <Molecule Name>
p-iso -Propylbenzaldehyde

>  <Molecule Name 2>
p-iso -Propylbenzaldehyde

>  <Activity>
0

$$$$
Menthone
Actelion Java MolfileCreator 2.0

  0  0  0  0  0  0              0 V3000
M  V30 BEGIN CTAB
M  V30 COUNTS 11 11 0 0 0
M  V30 BEGIN ATOM
M  V30 1 O 0.0 0.0 0.0 0
M  V30 2 C -1.1996 0.7372 0.0 0
M  V30 3 C -2.5617 -0.0624 0.0 0 CFG=2
M  V30 4 C -1.2121 2.3118 0.0 0
M  V30 5 C -2.5492 -1.512 0.0 0
M  V30 6 C -3.9238 0.7122 0.0 0
M  V30 7 C -2.5617 3.074 0.0 0 CFG=1
M  V30 8 C -3.7238 -2.3367 0.0 0
M  V30 9 C -1.2996 -2.2493 0.0 0
M  V30 10 C -3.9238 2.2993 0.0 0
M  V30 11 C -3.6613 3.8238 0.0 0
M  V30 END ATOM
M  V30 BEGIN BOND
M  V30 1 2 1 2
M  V30 2 1 2 3
M  V30 3 1 2 4
M  V30 4 1 3 5 CFG=3
M  V30 5 1 3 6
M  V30 6 1 4 7
M  V30 7 1 5 8
M  V30 8 1 5 9
M  V30 9 1 6 10
M  V30 10 1 7 11 CFG=1
M  V30 11 1 7 10
M  V30 END BOND
M  V30 BEGIN COLLECTION
M  V30 MDLV30/STEABS ATOMS=(2 3 7)
M  V30 END COLLECTION
M  V30 END CTAB
M  END
>  <Molecule Name>
Menthone

>  <Molecule Name 2>
Menthone

>  <Activity>
0

$$$$
Isopulegol
Actelion Java MolfileCreator 2.0

  0  0  0  0  0  0              0 V3000
M  V30 BEGIN CTAB
M  V30 COUNTS 11 11 0 0 0
M  V30 BEGIN ATOM
M  V30 1 O 0.0 0.0 0.0 0
M  V30 2 C -1.2921 0.7586 0.0 0 CFG=1
M  V30 3 C -2.5961 0.0118 0.0 0 CFG=2
M  V30 4 C -1.2921 2.2523 0.0 0
M  V30 5 C -2.5961 -1.4936 0.0 0
M  V30 6 C -3.8882 0.7586 0.0 0
M  V30 7 C -2.5842 3.011 0.0 0 CFG=1
M  V30 8 C -1.2921 -2.2404 0.0 0
M  V30 9 C -3.9 -2.2404 0.0 0
M  V30 10 C -3.8763 2.2641 0.0 0
M  V30 11 C -2.5842 4.5165 0.0 0
M  V30 END ATOM
M  V30 BEGIN BOND
M  V30 1 1 2 1 CFG=1
M  V30 2 1 2 3
M  V30 3 1 2 4
M  V30 4 1 3 5 CFG=3
M  V30 5 1 3 6
M  V30 6 1 4 7
M  V30 7 2 5 8
M  V30 8 1 5 9
M  V30 9 1 6 10
M  V30 10 1 7 11 CFG=1
M  V30 11 1 7 10
M  V30 END BOND
M  V30 BEGIN COLLECTION
M  V30 MDLV30/STEABS ATOMS=(3 2 3 7)
M  V30 END COLLECTION
M  V30 END CTAB
M  END
>  <Molecule Name>
Isopulegol

>  <Molecule Name 2>
Isopulegol

>  <Activity>
0

$$$$
p-Ethylacetophenone
Actelion Java MolfileCreator 2.0

  0  0  0  0  0  0              0 V3000
M  V30 BEGIN CTAB
M  V30 COUNTS 11 11 0 0 0
M  V30 BEGIN ATOM
M  V30 1 O 0.0 0.0 0.0 0
M  V30 2 C 0.0 1.5025 0.0 0
M  V30 3 C 1.3014 2.2479 0.0 0
M  V30 4 C -1.3014 2.2479 0.0 0
M  V30 5 C 1.3014 3.7505 0.0 0
M  V30 6 C 2.6028 1.5025 0.0 0
M  V30 7 C 2.6028 4.4958 0.0 0
M  V30 8 C 3.9043 2.2479 0.0 0
M  V30 9 C 3.9043 3.7386 0.0 0
M  V30 10 C 5.2057 4.484 0.0 0
M  V30 11 C 6.5072 3.7386 0.0 0
M  V30 END ATOM
M  V30 BEGIN BOND
M  V30 1 2 1 2
M  V30 2 1 2 3
M  V30 3 1 2 4
M  V30 4 2 3 5
M  V30 5 1 3 6
M  V30 6 1 5 7
M  V30 7 2 6 8
M  V30 8 2 7 9
M  V30 9 1 9 10
M  V30 10 1 10 11
M  V30 11 1 8 9
M  V30 END BOND
M  V30 END CTAB
M  END
>  <Molecule Name>
p-Ethylacetophenone

>  <Molecule Name 2>
p-Ethylacetophenone

>  <Activity>
0

$$$$
2,5-Dimethylacetophenone
Actelion Java MolfileCreator 2.0

  0  0  0  0  0  0              0 V3000
M  V30 BEGIN CTAB
M  V30 COUNTS 11 11 0 0 0
M  V30 BEGIN ATOM
M  V30 1 O 0.0 0.0 0.0 0
M  V30 2 C -1.3009 0.7451 0.0 0
M  V30 3 C -1.3009 2.2471 0.0 0
M  V30 4 C -2.6019 0.0 0.0 0
M  V30 5 C 0.0 2.9922 0.0 0
M  V30 6 C -2.6019 2.9922 0.0 0
M  V30 7 C 0.0 4.4942 0.0 0
M  V30 8 C 1.3009 2.2471 0.0 0
M  V30 9 C -2.6019 4.4942 0.0 0
M  V30 10 C -1.3009 5.2393 0.0 0
M  V30 11 C -3.9029 5.2393 0.0 0
M  V30 END ATOM
M  V30 BEGIN BOND
M  V30 1 2 1 2
M  V30 2 1 2 3
M  V30 3 1 2 4
M  V30 4 2 3 5
M  V30 5 1 3 6
M  V30 6 1 5 7
M  V30 7 1 5 8
M  V30 8 2 6 9
M  V30 9 2 7 10
M  V30 10 1 9 11
M  V30 11 1 9 10
M  V30 END BOND
M  V30 END CTAB
M  END
>  <Molecule Name>
2,5-Dimethylacetophenone

>  <Molecule Name 2>
2,5-Dimethylacetophenone

>  <Activity>
0

$$$$
4-phenyl-2-butanol
Actelion Java MolfileCreator 2.0

  0  0  0  0  0  0              0 V3000
M  V30 BEGIN CTAB
M  V30 COUNTS 11 11 0 0 0
M  V30 BEGIN ATOM
M  V30 1 O 0.0 0.0 0.0 0
M  V30 2 C 1.2991 0.744 0.0 0 CFG=2
M  V30 3 C 2.5982 -0.0118 0.0 0
M  V30 4 C 1.2991 2.2439 0.0 0
M  V30 5 C 3.8973 0.7322 0.0 0
M  V30 6 C 5.1964 -0.0236 0.0 0
M  V30 7 C 5.1964 -1.5235 0.0 0
M  V30 8 C 6.4955 0.7204 0.0 0
M  V30 9 C 6.4955 -2.2793 0.0 0
M  V30 10 C 7.7946 -0.0354 0.0 0
M  V30 11 C 7.7946 -1.5353 0.0 0
M  V30 END ATOM
M  V30 BEGIN BOND
M  V30 1 1 2 1 CFG=1
M  V30 2 1 2 3
M  V30 3 1 2 4
M  V30 4 1 3 5
M  V30 5 1 5 6
M  V30 6 2 6 7
M  V30 7 1 6 8
M  V30 8 1 7 9
M  V30 9 2 8 10
M  V30 10 2 9 11
M  V30 11 1 10 11
M  V30 END BOND
M  V30 BEGIN COLLECTION
M  V30 MDLV30/STERAC1 ATOMS=(1 2)
M  V30 END COLLECTION
M  V30 END CTAB
M  END
>  <Molecule Name>
4-phenyl-2-butanol

>  <Molecule Name 2>
4-phenyl-2-butanol

>  <Activity>
0

$$$$
Allyl benzyl ether
Actelion Java MolfileCreator 2.0

  0  0  0  0  0  0              0 V3000
M  V30 BEGIN CTAB
M  V30 COUNTS 11 11 0 0 0
M  V30 BEGIN ATOM
M  V30 1 O 0.0 0.0 0.0 0
M  V30 2 C 1.3011 -0.7452 0.0 0
M  V30 3 C -1.3011 -0.7452 0.0 0
M  V30 4 C 2.6023 0.0 0.0 0
M  V30 5 C -2.6023 0.0 0.0 0
M  V30 6 C 3.9035 -0.7452 0.0 0
M  V30 7 C 2.6023 1.5022 0.0 0
M  V30 8 C -3.9035 -0.7452 0.0 0
M  V30 9 C 5.2047 0.0 0.0 0
M  V30 10 C 3.9035 2.2475 0.0 0
M  V30 11 C 5.2047 1.5022 0.0 0
M  V30 END ATOM
M  V30 BEGIN BOND
M  V30 1 1 1 2
M  V30 2 1 1 3
M  V30 3 1 2 4
M  V30 4 1 3 5
M  V30 5 2 4 6
M  V30 6 1 4 7
M  V30 7 2 5 8
M  V30 8 1 6 9
M  V30 9 2 7 10
M  V30 10 2 9 11
M  V30 11 1 10 11
M  V30 END BOND
M  V30 END CTAB
M  END
>  <Molecule Name>
Allyl benzyl ether

>  <Molecule Name 2>
Allyl benzyl ether

>  <Activity>
0

$$$$
n-Propyl benzyl ether
Actelion Java MolfileCreator 2.0

  0  0  0  0  0  0              0 V3000
M  V30 BEGIN CTAB
M  V30 COUNTS 11 11 0 0 0
M  V30 BEGIN ATOM
M  V30 1 O 0.0 0.0 0.0 0
M  V30 2 C 1.3011 -0.7452 0.0 0
M  V30 3 C -1.3011 -0.7452 0.0 0
M  V30 4 C 2.6023 0.0 0.0 0
M  V30 5 C -2.6023 0.0 0.0 0
M  V30 6 C 3.9035 -0.7452 0.0 0
M  V30 7 C 2.6023 1.5022 0.0 0
M  V30 8 C -3.9035 -0.7452 0.0 0
M  V30 9 C 5.2047 0.0 0.0 0
M  V30 10 C 3.9035 2.2475 0.0 0
M  V30 11 C 5.2047 1.5022 0.0 0
M  V30 END ATOM
M  V30 BEGIN BOND
M  V30 1 1 1 2
M  V30 2 1 1 3
M  V30 3 1 2 4
M  V30 4 1 3 5
M  V30 5 2 4 6
M  V30 6 1 4 7
M  V30 7 1 5 8
M  V30 8 1 6 9
M  V30 9 2 7 10
M  V30 10 2 9 11
M  V30 11 1 10 11
M  V30 END BOND
M  V30 END CTAB
M  END
>  <Molecule Name>
n-Propyl benzyl ether

>  <Molecule Name 2>
n-Propyl benzyl ether

>  <Activity>
0

$$$$
Dihydroanethole
Actelion Java MolfileCreator 2.0

  0  0  0  0  0  0              0 V3000
M  V30 BEGIN CTAB
M  V30 COUNTS 11 11 0 0 0
M  V30 BEGIN ATOM
M  V30 1 O 0.0 0.0 0.0 0
M  V30 2 C -1.2986 -0.7555 0.0 0 CFG=2
M  V30 3 C 0.0 1.4993 0.0 0
M  V30 4 C -1.2986 -2.2549 0.0 0
M  V30 5 C -2.5972 -0.0118 0.0 0
M  V30 6 C -2.5972 -3.0105 0.0 0
M  V30 7 C -3.8959 -0.7673 0.0 0
M  V30 8 C -3.8959 -2.2667 0.0 0
M  V30 9 C -5.1945 -3.0223 0.0 0
M  V30 10 C -6.4932 -2.2785 0.0 0
M  V30 11 C -7.7918 -3.0341 0.0 0
M  V30 END ATOM
M  V30 BEGIN BOND
M  V30 1 1 2 1 CFG=3
M  V30 2 1 1 3
M  V30 3 1 2 4
M  V30 4 1 2 5
M  V30 5 2 4 6
M  V30 6 1 5 7
M  V30 7 1 6 8
M  V30 8 1 8 9
M  V30 9 2 9 10 CFG=2
M  V30 10 1 10 11
M  V30 11 2 7 8
M  V30 END BOND
M  V30 BEGIN COLLECTION
M  V30 MDLV30/STERAC1 ATOMS=(1 2)
M  V30 END COLLECTION
M  V30 END CTAB
M  END
>  <Molecule Name>
Dihydroanethole

>  <Molecule Name 2>
Dihydroanethole

>  <Activity>
0

$$$$
Methyl cinnamyl ether
Actelion Java MolfileCreator 2.0

  0  0  0  0  0  0              0 V3000
M  V30 BEGIN CTAB
M  V30 COUNTS 11 11 0 0 0
M  V30 BEGIN ATOM
M  V30 1 O 0.0 0.0 0.0 0
M  V30 2 C 1.3011 -0.7452 0.0 0
M  V30 3 C -1.3011 -0.7452 0.0 0
M  V30 4 C 2.6023 0.0 0.0 0
M  V30 5 C 3.9035 -0.7452 0.0 0
M  V30 6 C 5.2047 0.0 0.0 0
M  V30 7 C 6.5059 -0.7452 0.0 0
M  V30 8 C 5.2047 1.5022 0.0 0
M  V30 9 C 7.8071 0.0 0.0 0
M  V30 10 C 6.5059 2.2475 0.0 0
M  V30 11 C 7.8071 1.5022 0.0 0
M  V30 END ATOM
M  V30 BEGIN BOND
M  V30 1 1 1 2
M  V30 2 1 1 3
M  V30 3 1 2 4
M  V30 4 2 4 5 CFG=2
M  V30 5 1 5 6
M  V30 6 2 6 7
M  V30 7 1 6 8
M  V30 8 1 7 9
M  V30 9 2 8 10
M  V30 10 2 9 11
M  V30 11 1 10 11
M  V30 END BOND
M  V30 END CTAB
M  END
>  <Molecule Name>
Methyl cinnamyl ether

>  <Molecule Name 2>
Methyl cinnamyl ether

>  <Activity>
0

$$$$
2-Methallylcyclohexanone
Actelion Java MolfileCreator 2.0

  0  0  0  0  0  0              0 V3000
M  V30 BEGIN CTAB
M  V30 COUNTS 11 11 0 0 0
M  V30 BEGIN ATOM
M  V30 1 O 0.0 0.0 0.0 0
M  V30 2 C 0.0 -1.5007 0.0 0
M  V30 3 C 1.2998 -2.2569 0.0 0 CFG=2
M  V30 4 C -1.2998 -2.2451 0.0 0
M  V30 5 C 1.2998 -3.7576 0.0 0
M  V30 6 C 2.5996 -1.5125 0.0 0
M  V30 7 C -1.2998 -3.7458 0.0 0
M  V30 8 C 0.0 -4.5021 0.0 0
M  V30 9 C 3.8994 -2.2569 0.0 0
M  V30 10 C 3.8994 -3.7576 0.0 0
M  V30 11 C 5.1992 -1.5125 0.0 0
M  V30 END ATOM
M  V30 BEGIN BOND
M  V30 1 2 1 2
M  V30 2 1 2 3
M  V30 3 1 2 4
M  V30 4 1 3 5
M  V30 5 1 3 6 CFG=1
M  V30 6 1 4 7
M  V30 7 1 5 8
M  V30 8 1 6 9
M  V30 9 2 9 10
M  V30 10 1 9 11
M  V30 11 1 7 8
M  V30 END BOND
M  V30 BEGIN COLLECTION
M  V30 MDLV30/STERAC1 ATOMS=(1 3)
M  V30 END COLLECTION
M  V30 END CTAB
M  END
>  <Molecule Name>
2-Methallylcyclohexanone

>  <Molecule Name 2>
2-Methallylcyclohexanone

>  <Activity>
0

$$$$
2-Methallylcyclohexanol
Actelion Java MolfileCreator 2.0

  0  0  0  0  0  0              0 V3000
M  V30 BEGIN CTAB
M  V30 COUNTS 11 11 0 0 0
M  V30 BEGIN ATOM
M  V30 1 O 0.0 0.0 0.0 0
M  V30 2 C 0.0 -1.5007 0.0 0
M  V30 3 C 1.2998 -2.2569 0.0 0
M  V30 4 C -1.2998 -2.2451 0.0 0
M  V30 5 C 1.2998 -3.7576 0.0 0
M  V30 6 C 2.5996 -1.5125 0.0 0
M  V30 7 C -1.2998 -3.7458 0.0 0
M  V30 8 C 0.0 -4.5021 0.0 0
M  V30 9 C 3.8994 -2.2569 0.0 0
M  V30 10 C 3.8994 -3.7576 0.0 0
M  V30 11 C 5.1992 -1.5125 0.0 0
M  V30 END ATOM
M  V30 BEGIN BOND
M  V30 1 1 1 2
M  V30 2 1 2 3
M  V30 3 1 2 4
M  V30 4 1 3 5
M  V30 5 1 3 6
M  V30 6 1 4 7
M  V30 7 1 5 8
M  V30 8 1 6 9
M  V30 9 2 9 10
M  V30 10 1 9 11
M  V30 11 1 7 8
M  V30 END BOND
M  V30 END CTAB
M  END
>  <Molecule Name>
2-Methallylcyclohexanol

>  <Molecule Name 2>
2-Methallylcyclohexanol

>  <Activity>
0

$$$$
iso-Butyrophenone
Actelion Java MolfileCreator 2.0

  0  0  0  0  0  0              0 V3000
M  V30 BEGIN CTAB
M  V30 COUNTS 11 11 0 0 0
M  V30 BEGIN ATOM
M  V30 1 O 0.0 0.0 0.0 0
M  V30 2 C -1.2998 -0.7444 0.0 0
M  V30 3 C -1.2998 -2.2451 0.0 0
M  V30 4 C -2.5996 0.0 0.0 0
M  V30 5 C -2.5996 -2.9895 0.0 0
M  V30 6 C 0.0 -2.9895 0.0 0
M  V30 7 C -2.5996 1.5007 0.0 0
M  V30 8 C -3.8994 -0.7444 0.0 0
M  V30 9 C -2.5996 -4.4902 0.0 0
M  V30 10 C 0.0 -4.4902 0.0 0
M  V30 11 C -1.2998 -5.2465 0.0 0
M  V30 END ATOM
M  V30 BEGIN BOND
M  V30 1 2 1 2
M  V30 2 1 2 3
M  V30 3 1 2 4
M  V30 4 2 3 5
M  V30 5 1 3 6
M  V30 6 1 4 7
M  V30 7 1 4 8
M  V30 8 1 5 9
M  V30 9 2 6 10
M  V30 10 2 9 11
M  V30 11 1 10 11
M  V30 END BOND
M  V30 END CTAB
M  END
>  <Molecule Name>
iso-Butyrophenone

>  <Molecule Name 2>
iso-Butyrophenone

>  <Activity>
0

$$$$
Dimethyl benzyl carbinol
Actelion Java MolfileCreator 2.0

  0  0  0  0  0  0              0 V3000
M  V30 BEGIN CTAB
M  V30 COUNTS 11 11 0 0 0
M  V30 BEGIN ATOM
M  V30 1 O 0.0 0.0 0.0 0
M  V30 2 C -1.2997 0.7444 0.0 0
M  V30 3 C -2.5995 1.4888 0.0 0
M  V30 4 C -0.5435 2.0442 0.0 0
M  V30 5 C -2.0442 -0.5553 0.0 0
M  V30 6 C -3.8993 0.7444 0.0 0
M  V30 7 C -5.1991 1.5006 0.0 0
M  V30 8 C -3.8993 -0.7562 0.0 0
M  V30 9 C -6.4989 0.7562 0.0 0
M  V30 10 C -5.1991 -1.5006 0.0 0
M  V30 11 C -6.4989 -0.7444 0.0 0
M  V30 END ATOM
M  V30 BEGIN BOND
M  V30 1 1 1 2
M  V30 2 1 2 3
M  V30 3 1 2 4
M  V30 4 1 2 5
M  V30 5 1 3 6
M  V30 6 2 6 7
M  V30 7 1 6 8
M  V30 8 1 7 9
M  V30 9 2 8 10
M  V30 10 2 9 11
M  V30 11 1 10 11
M  V30 END BOND
M  V30 END CTAB
M  END
>  <Molecule Name>
Dimethyl benzyl carbinol

>  <Molecule Name 2>
Dimethyl benzyl carbinol

>  <Activity>
0

$$$$
alpha-Terpineol
Actelion Java MolfileCreator 2.0

  0  0  0  0  0  0              0 V3000
M  V30 BEGIN CTAB
M  V30 COUNTS 11 11 0 0 0
M  V30 BEGIN ATOM
M  V30 1 O 0.0 0.0 0.0 0
M  V30 2 C 1.3016 0.7454 0.0 0
M  V30 3 C 2.6033 1.4909 0.0 0 CFG=2
M  V30 4 C 2.0471 -0.5561 0.0 0
M  V30 5 C 0.5561 2.0471 0.0 0
M  V30 6 C 2.6033 2.9938 0.0 0
M  V30 7 C 3.9049 0.7454 0.0 0
M  V30 8 C 3.9049 3.7393 0.0 0
M  V30 9 C 5.2066 1.4909 0.0 0
M  V30 10 C 5.2066 2.9819 0.0 0
M  V30 11 C 6.5083 3.7274 0.0 0
M  V30 END ATOM
M  V30 BEGIN BOND
M  V30 1 1 1 2
M  V30 2 1 3 2 CFG=3
M  V30 3 1 2 4
M  V30 4 1 2 5
M  V30 5 1 3 6
M  V30 6 1 3 7
M  V30 7 1 6 8
M  V30 8 1 7 9
M  V30 9 2 8 10
M  V30 10 1 10 11
M  V30 11 1 9 10
M  V30 END BOND
M  V30 BEGIN COLLECTION
M  V30 MDLV30/STERAC1 ATOMS=(1 3)
M  V30 END COLLECTION
M  V30 END CTAB
M  END
>  <Molecule Name>
alpha-Terpineol

>  <Molecule Name 2>
alpha-Terpineol

>  <Activity>
0

$$$$
beta-Chloroethyl benzyl ether
Actelion Java MolfileCreator 2.0

  0  0  0  0  0  0              0 V3000
M  V30 BEGIN CTAB
M  V30 COUNTS 11 11 0 0 0
M  V30 BEGIN ATOM
M  V30 1 Cl 0.0 0.0 0.0 0
M  V30 2 C 1.3011 0.7452 0.0 0
M  V30 3 C 2.6023 0.0 0.0 0
M  V30 4 O 3.9035 0.7452 0.0 0
M  V30 5 C 5.2047 0.0 0.0 0
M  V30 6 C 6.5059 0.7452 0.0 0
M  V30 7 C 7.8071 0.0 0.0 0
M  V30 8 C 6.5059 2.2475 0.0 0
M  V30 9 C 9.1083 0.7452 0.0 0
M  V30 10 C 7.8071 2.9927 0.0 0
M  V30 11 C 9.1083 2.2475 0.0 0
M  V30 END ATOM
M  V30 BEGIN BOND
M  V30 1 1 1 2
M  V30 2 1 2 3
M  V30 3 1 3 4
M  V30 4 1 4 5
M  V30 5 1 5 6
M  V30 6 2 6 7
M  V30 7 1 6 8
M  V30 8 1 7 9
M  V30 9 2 8 10
M  V30 10 2 9 11
M  V30 11 1 10 11
M  V30 END BOND
M  V30 END CTAB
M  END
>  <Molecule Name>
beta-Chloroethyl benzyl ether

>  <Molecule Name 2>
beta-Chloroethyl benzyl ether

>  <Activity>
0

$$$$
p-Allyloxyphenylbromide
Actelion Java MolfileCreator 2.0

  0  0  0  0  0  0              0 V3000
M  V30 BEGIN CTAB
M  V30 COUNTS 11 11 0 0 0
M  V30 BEGIN ATOM
M  V30 1 Br 0.0 0.0 0.0 0
M  V30 2 C 1.3016 0.7454 0.0 0
M  V30 3 C 1.3016 2.2483 0.0 0
M  V30 4 C 2.6033 0.0 0.0 0
M  V30 5 C 2.6033 2.9938 0.0 0
M  V30 6 C 3.9049 0.7454 0.0 0
M  V30 7 C 3.9049 2.2364 0.0 0
M  V30 8 O 5.2066 2.9819 0.0 0
M  V30 9 C 6.5083 2.2364 0.0 0
M  V30 10 C 7.8099 2.9819 0.0 0
M  V30 11 C 9.1116 2.2364 0.0 0
M  V30 END ATOM
M  V30 BEGIN BOND
M  V30 1 1 1 2
M  V30 2 2 2 3
M  V30 3 1 2 4
M  V30 4 1 3 5
M  V30 5 2 4 6
M  V30 6 2 5 7
M  V30 7 1 7 8
M  V30 8 1 8 9
M  V30 9 1 9 10
M  V30 10 2 10 11
M  V30 11 1 6 7
M  V30 END BOND
M  V30 END CTAB
M  END
>  <Molecule Name>
p-Allyloxyphenylbromide

>  <Molecule Name 2>
p-Allyloxyphenylbromide

>  <Activity>
0

$$$$
1-Acetylcyclopropane-1-carboxylic acid, ethyl ester
Actelion Java MolfileCreator 2.0

  0  0  0  0  0  0              0 V3000
M  V30 BEGIN CTAB
M  V30 COUNTS 11 11 0 0 0
M  V30 BEGIN ATOM
M  V30 1 O 0.0 0.0 0.0 0
M  V30 2 C -1.2871 0.7557 0.0 0
M  V30 3 O -2.5861 0.0 0.0 0
M  V30 4 C -1.2871 2.2554 0.0 0
M  V30 5 C -3.8851 0.7439 0.0 0
M  V30 6 C 0.1653 1.8657 0.0 0
M  V30 7 C -2.3499 3.3182 0.0 0
M  V30 8 C -2.7396 1.8657 0.0 0
M  V30 9 C -5.184 -0.0118 0.0 0
M  V30 10 O 1.2281 2.9285 0.0 0
M  V30 11 C 0.5786 0.4369 0.0 0
M  V30 END ATOM
M  V30 BEGIN BOND
M  V30 1 2 1 2
M  V30 2 1 2 3
M  V30 3 1 2 4
M  V30 4 1 3 5
M  V30 5 1 4 6
M  V30 6 1 4 7
M  V30 7 1 4 8
M  V30 8 1 5 9
M  V30 9 2 6 10
M  V30 10 1 6 11
M  V30 11 1 7 8
M  V30 END BOND
M  V30 END CTAB
M  END
>  <Molecule Name>
1-Acetylcyclopropane-1-carboxylic acid, ethyl ester

>  <Molecule Name 2>
1-Acetylcyclopropane-1-carboxylic acid, ethyl ester

>  <Activity>
0

$$$$
Vanillin
Actelion Java MolfileCreator 2.0

  0  0  0  0  0  0              0 V3000
M  V30 BEGIN CTAB
M  V30 COUNTS 11 11 0 0 0
M  V30 BEGIN ATOM
M  V30 1 O 0.0 0.0 0.0 0
M  V30 2 C -1.2997 0.7444 0.0 0
M  V30 3 C -2.5995 0.0 0.0 0
M  V30 4 C -3.8993 0.7562 0.0 0
M  V30 5 C -2.5995 -1.5006 0.0 0
M  V30 6 C -5.1991 0.0118 0.0 0
M  V30 7 C -3.8993 -2.2451 0.0 0
M  V30 8 O -6.4989 0.768 0.0 0
M  V30 9 C -5.1991 -1.4888 0.0 0
M  V30 10 C -7.7987 0.0236 0.0 0
M  V30 11 O -6.4989 -2.2332 0.0 0
M  V30 END ATOM
M  V30 BEGIN BOND
M  V30 1 2 1 2
M  V30 2 1 2 3
M  V30 3 2 3 4
M  V30 4 1 3 5
M  V30 5 1 4 6
M  V30 6 2 5 7
M  V30 7 1 6 8
M  V30 8 2 6 9
M  V30 9 1 8 10
M  V30 10 1 9 11
M  V30 11 1 7 9
M  V30 END BOND
M  V30 END CTAB
M  END
>  <Molecule Name>
Vanillin

>  <Molecule Name 2>
Vanillin

>  <Activity>
0

$$$$
beta-Furfuryloxypropionitrile
Actelion Java MolfileCreator 2.0

  0  0  0  0  0  0              0 V3000
M  V30 BEGIN CTAB
M  V30 COUNTS 11 11 0 0 0
M  V30 BEGIN ATOM
M  V30 1 O 0.0 0.0 0.0 0
M  V30 2 C -1.37 -0.6141 0.0 0
M  V30 3 C 1.0039 -1.1102 0.0 0
M  V30 4 C -1.2165 -2.1023 0.0 0
M  V30 5 C -2.6692 0.1299 0.0 0
M  V30 6 C 0.2598 -2.4094 0.0 0
M  V30 7 O -3.9684 -0.6259 0.0 0
M  V30 8 C -5.2676 0.1181 0.0 0
M  V30 9 C -6.5668 -0.6377 0.0 0
M  V30 10 C -6.5668 -2.1377 0.0 0
M  V30 11 N -6.5668 -3.6377 0.0 0
M  V30 END ATOM
M  V30 BEGIN BOND
M  V30 1 1 1 2
M  V30 2 1 1 3
M  V30 3 2 2 4
M  V30 4 1 2 5
M  V30 5 2 3 6
M  V30 6 1 5 7
M  V30 7 1 7 8
M  V30 8 1 8 9
M  V30 9 1 9 10
M  V30 10 3 10 11
M  V30 11 1 4 6
M  V30 END BOND
M  V30 END CTAB
M  END
>  <Molecule Name>
beta-Furfuryloxypropionitrile

>  <Molecule Name 2>
beta-Furfuryloxypropionitrile

>  <Activity>
0

$$$$
m-Aminobenzoic acid, methyl ester
Actelion Java MolfileCreator 2.0

  0  0  0  0  0  0              0 V3000
M  V30 BEGIN CTAB
M  V30 COUNTS 11 11 0 0 0
M  V30 BEGIN ATOM
M  V30 1 O 0.0 0.0 0.0 0
M  V30 2 C 0.0 1.5001 0.0 0
M  V30 3 O -1.2993 2.2443 0.0 0
M  V30 4 C 1.2993 2.2443 0.0 0
M  V30 5 C -2.5987 1.4883 0.0 0
M  V30 6 C 1.2993 3.7445 0.0 0
M  V30 7 C 2.5987 1.5001 0.0 0
M  V30 8 C 2.5987 4.5005 0.0 0
M  V30 9 C 3.898 2.2443 0.0 0
M  V30 10 N 2.5987 6.0006 0.0 0
M  V30 11 C 3.898 3.7445 0.0 0
M  V30 END ATOM
M  V30 BEGIN BOND
M  V30 1 2 1 2
M  V30 2 1 2 3
M  V30 3 1 2 4
M  V30 4 1 3 5
M  V30 5 2 4 6
M  V30 6 1 4 7
M  V30 7 1 6 8
M  V30 8 2 7 9
M  V30 9 1 8 10
M  V30 10 2 8 11
M  V30 11 1 9 11
M  V30 END BOND
M  V30 END CTAB
M  END
>  <Molecule Name>
m-Aminobenzoic acid, methyl ester

>  <Molecule Name 2>
m-Aminobenzoic acid, methyl ester

>  <Activity>
0

$$$$
N-Methylbenzenesulfonamide
Actelion Java MolfileCreator 2.0

  0  0  0  0  0  0              0 V3000
M  V30 BEGIN CTAB
M  V30 COUNTS 11 11 0 0 0
M  V30 BEGIN ATOM
M  V30 1 S 0.0 0.0 0.0 0
M  V30 2 O 0.7446 1.3002 0.0 0
M  V30 3 O -0.7446 1.3002 0.0 0
M  V30 4 N 1.3002 -0.7446 0.0 0
M  V30 5 C -1.3002 -0.7446 0.0 0
M  V30 6 C 2.6005 0.0 0.0 0
M  V30 7 C -2.6005 0.0118 0.0 0
M  V30 8 C -1.3002 -2.2459 0.0 0
M  V30 9 C -3.9007 -0.7328 0.0 0
M  V30 10 C -2.6005 -2.9906 0.0 0
M  V30 11 C -3.9007 -2.234 0.0 0
M  V30 END ATOM
M  V30 BEGIN BOND
M  V30 1 2 1 2
M  V30 2 2 1 3
M  V30 3 1 1 4
M  V30 4 1 1 5
M  V30 5 1 4 6
M  V30 6 2 5 7
M  V30 7 1 5 8
M  V30 8 1 7 9
M  V30 9 2 8 10
M  V30 10 2 9 11
M  V30 11 1 10 11
M  V30 END BOND
M  V30 END CTAB
M  END
>  <Molecule Name>
N-Methylbenzenesulfonamide

>  <Molecule Name 2>
N-Methylbenzenesulfonamide

>  <Activity>
0

$$$$
N-Carboethoxymorpholine
Actelion Java MolfileCreator 2.0

  0  0  0  0  0  0              0 V3000
M  V30 BEGIN CTAB
M  V30 COUNTS 11 11 0 0 0
M  V30 BEGIN ATOM
M  V30 1 O 0.0 0.0 0.0 0
M  V30 2 C -1.3009 0.7451 0.0 0
M  V30 3 O -2.6019 0.0 0.0 0
M  V30 4 N -1.3009 2.2471 0.0 0
M  V30 5 C -3.9029 0.7451 0.0 0
M  V30 6 C 0.0 2.9922 0.0 0
M  V30 7 C -2.6019 2.9922 0.0 0
M  V30 8 C -5.2038 0.0 0.0 0
M  V30 9 C 0.0 4.4942 0.0 0
M  V30 10 C -2.6019 4.4942 0.0 0
M  V30 11 O -1.3009 5.2393 0.0 0
M  V30 END ATOM
M  V30 BEGIN BOND
M  V30 1 2 1 2
M  V30 2 1 2 3
M  V30 3 1 2 4
M  V30 4 1 3 5
M  V30 5 1 4 6
M  V30 6 1 4 7
M  V30 7 1 5 8
M  V30 8 1 6 9
M  V30 9 1 7 10
M  V30 10 1 9 11
M  V30 11 1 10 11
M  V30 END BOND
M  V30 END CTAB
M  END
>  <Molecule Name>
N-Carboethoxymorpholine

>  <Molecule Name 2>
N-Carboethoxymorpholine

>  <Activity>
0

$$$$
m-Nitrobenzyl alcohol
Actelion Java MolfileCreator 2.0

  0  0  0  0  0  0              0 V3000
M  V30 BEGIN CTAB
M  V30 COUNTS 11 11 0 0 0
M  V30 BEGIN ATOM
M  V30 1 O 0.0 0.0 0.0 0
M  V30 2 N -1.2995 0.7443 0.0 0 CHG=1
M  V30 3 O -1.2995 2.2447 0.0 0 CHG=-1
M  V30 4 C -2.5991 0.0 0.0 0
M  V30 5 C -3.8987 0.7561 0.0 0
M  V30 6 C -2.5991 -1.5004 0.0 0
M  V30 7 C -5.1983 0.0118 0.0 0
M  V30 8 C -3.8987 -2.2447 0.0 0
M  V30 9 C -5.1983 -1.4886 0.0 0
M  V30 10 C -6.4978 0.7679 0.0 0
M  V30 11 O -7.7974 0.0236 0.0 0
M  V30 END ATOM
M  V30 BEGIN BOND
M  V30 1 2 1 2
M  V30 2 1 2 3
M  V30 3 1 2 4
M  V30 4 2 4 5
M  V30 5 1 4 6
M  V30 6 1 5 7
M  V30 7 2 6 8
M  V30 8 2 7 9
M  V30 9 1 7 10
M  V30 10 1 10 11
M  V30 11 1 8 9
M  V30 END BOND
M  V30 END CTAB
M  END
>  <Molecule Name>
m-Nitrobenzyl alcohol

>  <Molecule Name 2>
m-Nitrobenzyl alcohol

>  <Activity>
0

$$$$
1,3-Dimethyl-5-tert-butyl benzene
Actelion Java MolfileCreator 2.0

  0  0  0  0  0  0              0 V3000
M  V30 BEGIN CTAB
M  V30 COUNTS 12 12 0 0 0
M  V30 BEGIN ATOM
M  V30 1 C 0.0 0.0 0.0 0
M  V30 2 C 1.2991 0.744 0.0 0
M  V30 3 C -1.2991 0.744 0.0 0
M  V30 4 C 0.0 -1.4999 0.0 0
M  V30 5 C 1.2991 2.2439 0.0 0
M  V30 6 C -1.2991 2.2439 0.0 0
M  V30 7 C 1.4999 -1.4999 0.0 0
M  V30 8 C 0.0 -2.9998 0.0 0
M  V30 9 C -1.4999 -1.4999 0.0 0
M  V30 10 C 0.0 2.9998 0.0 0
M  V30 11 C 2.5982 2.988 0.0 0
M  V30 12 C -2.5982 2.9998 0.0 0
M  V30 END ATOM
M  V30 BEGIN BOND
M  V30 1 2 1 2
M  V30 2 1 1 3
M  V30 3 1 1 4
M  V30 4 1 2 5
M  V30 5 2 3 6
M  V30 6 1 4 7
M  V30 7 1 4 8
M  V30 8 1 4 9
M  V30 9 2 5 10
M  V30 10 1 5 11
M  V30 11 1 6 12
M  V30 12 1 6 10
M  V30 END BOND
M  V30 END CTAB
M  END
>  <Molecule Name>
1,3-Dimethyl-5-tert-butyl benzene

>  <Molecule Name 2>
1,3-Dimethyl-5-tert-butyl benzene

>  <Activity>
0

$$$$
1,3,5-Triethylbenzene
Actelion Java MolfileCreator 2.0

  0  0  0  0  0  0              0 V3000
M  V30 BEGIN CTAB
M  V30 COUNTS 12 12 0 0 0
M  V30 BEGIN ATOM
M  V30 1 C 0.0 0.0 0.0 0
M  V30 2 C 0.0 -1.4986 0.0 0
M  V30 3 C -1.298 0.7552 0.0 0
M  V30 4 C 1.298 0.7552 0.0 0
M  V30 5 C -1.298 -2.242 0.0 0
M  V30 6 C -2.596 0.0118 0.0 0
M  V30 7 C 2.596 0.0 0.0 0
M  V30 8 C -2.596 -1.4986 0.0 0
M  V30 9 C -1.298 -3.7407 0.0 0
M  V30 10 C -3.8941 0.767 0.0 0
M  V30 11 C 0.0 -4.4959 0.0 0
M  V30 12 C -5.1921 0.0236 0.0 0
M  V30 END ATOM
M  V30 BEGIN BOND
M  V30 1 2 1 2
M  V30 2 1 1 3
M  V30 3 1 1 4
M  V30 4 1 2 5
M  V30 5 2 3 6
M  V30 6 1 4 7
M  V30 7 2 5 8
M  V30 8 1 5 9
M  V30 9 1 6 10
M  V30 10 1 9 11
M  V30 11 1 10 12
M  V30 12 1 6 8
M  V30 END BOND
M  V30 END CTAB
M  END
>  <Molecule Name>
1,3,5-Triethylbenzene

>  <Molecule Name 2>
1,3,5-Triethylbenzene

>  <Activity>
0

$$$$
gamma-Vinyl-alpha-carbomethoxy-butyrolactone
Actelion Java MolfileCreator 2.0

  0  0  0  0  0  0              0 V3000
M  V30 BEGIN CTAB
M  V30 COUNTS 12 12 0 0 0
M  V30 BEGIN ATOM
M  V30 1 O 0.0 0.0 0.0 0
M  V30 2 C -0.3072 1.4652 0.0 0
M  V30 3 O 0.6971 2.576 0.0 0
M  V30 4 C -1.6779 2.0797 0.0 0
M  V30 5 C -0.059 3.8758 0.0 0
M  V30 6 C -2.9778 1.3234 0.0 0
M  V30 7 C -1.5243 3.5686 0.0 0
M  V30 8 C 0.5553 5.2466 0.0 0
M  V30 9 O -2.9778 -0.1772 0.0 0
M  V30 10 O -4.2776 2.0679 0.0 0
M  V30 11 C 2.0442 5.4002 0.0 0
M  V30 12 C -5.5775 1.3116 0.0 0
M  V30 END ATOM
M  V30 BEGIN BOND
M  V30 1 2 1 2
M  V30 2 1 2 3
M  V30 3 1 2 4
M  V30 4 1 3 5
M  V30 5 1 4 6
M  V30 6 1 4 7
M  V30 7 1 5 8
M  V30 8 2 6 9
M  V30 9 1 6 10
M  V30 10 2 8 11
M  V30 11 1 10 12
M  V30 12 1 5 7
M  V30 END BOND
M  V30 END CTAB
M  END
>  <Molecule Name>
gamma-Vinyl-alpha-carbomethoxy-butyrolactone

>  <Molecule Name 2>
gamma-Vinyl-alpha-carbomethoxy-butyrolactone

>  <Activity>
0

$$$$
2-Carboethoxymethyl-2-methyl-1, 3-dioxolane
Actelion Java MolfileCreator 2.0

  0  0  0  0  0  0              0 V3000
M  V30 BEGIN CTAB
M  V30 COUNTS 12 12 0 0 0
M  V30 BEGIN ATOM
M  V30 1 O 0.0 0.0 0.0 0
M  V30 2 C 0.0 1.5003 0.0 0
M  V30 3 O 1.2995 2.2446 0.0 0
M  V30 4 C -1.2995 2.2446 0.0 0
M  V30 5 C 2.599 1.4885 0.0 0
M  V30 6 C -2.599 1.4885 0.0 0
M  V30 7 C 3.8986 2.2328 0.0 0
M  V30 8 O -3.9694 2.1028 0.0 0
M  V30 9 O -2.7526 0.0 0.0 0
M  V30 10 C -1.3349 0.6733 0.0 0
M  V30 11 C -4.9736 0.9923 0.0 0
M  V30 12 C -4.2175 -0.3071 0.0 0
M  V30 END ATOM
M  V30 BEGIN BOND
M  V30 1 2 1 2
M  V30 2 1 2 3
M  V30 3 1 2 4
M  V30 4 1 3 5
M  V30 5 1 4 6
M  V30 6 1 5 7
M  V30 7 1 6 8
M  V30 8 1 6 9
M  V30 9 1 6 10
M  V30 10 1 8 11
M  V30 11 1 9 12
M  V30 12 1 11 12
M  V30 END BOND
M  V30 END CTAB
M  END
>  <Molecule Name>
2-Carboethoxymethyl-2-methyl-1, 3-dioxolane

>  <Molecule Name 2>
2-Carboethoxymethyl-2-methyl-1, 3-dioxolane

>  <Activity>
0

$$$$
beta-Ethoxyphenetole
Actelion Java MolfileCreator 2.0

  0  0  0  0  0  0              0 V3000
M  V30 BEGIN CTAB
M  V30 COUNTS 12 12 0 0 0
M  V30 BEGIN ATOM
M  V30 1 O 0.0 0.0 0.0 0
M  V30 2 C -1.3003 -0.7447 0.0 0
M  V30 3 C 1.3003 -0.7447 0.0 0
M  V30 4 C -2.6007 0.0118 0.0 0
M  V30 5 C -1.3003 -2.2461 0.0 0
M  V30 6 C 2.6007 0.0 0.0 0
M  V30 7 C -3.9011 -0.7329 0.0 0
M  V30 8 C -2.6007 -2.9908 0.0 0
M  V30 9 O 3.9011 -0.7447 0.0 0
M  V30 10 C -3.9011 -2.2342 0.0 0
M  V30 11 C 5.2015 0.0 0.0 0
M  V30 12 C 6.5018 -0.7447 0.0 0
M  V30 END ATOM
M  V30 BEGIN BOND
M  V30 1 1 1 2
M  V30 2 1 1 3
M  V30 3 2 2 4
M  V30 4 1 2 5
M  V30 5 1 3 6
M  V30 6 1 4 7
M  V30 7 2 5 8
M  V30 8 1 6 9
M  V30 9 2 7 10
M  V30 10 1 9 11
M  V30 11 1 11 12
M  V30 12 1 8 10
M  V30 END BOND
M  V30 END CTAB
M  END
>  <Molecule Name>
beta-Ethoxyphenetole

>  <Molecule Name 2>
beta-Ethoxyphenetole

>  <Activity>
0

$$$$
Crotonic acid, cyclohexyl ester
Actelion Java MolfileCreator 2.0

  0  0  0  0  0  0              0 V3000
M  V30 BEGIN CTAB
M  V30 COUNTS 12 12 0 0 0
M  V30 BEGIN ATOM
M  V30 1 O 0.0 0.0 0.0 0
M  V30 2 C 0.0 1.5011 0.0 0
M  V30 3 O -1.3001 2.2457 0.0 0
M  V30 4 C 1.3001 2.2457 0.0 0
M  V30 5 C -2.6003 1.5011 0.0 0
M  V30 6 C 2.6003 1.5011 0.0 0
M  V30 7 C -3.9005 2.2575 0.0 0
M  V30 8 C -2.6003 0.0 0.0 0
M  V30 9 C 3.9005 2.2457 0.0 0
M  V30 10 C -5.2006 1.5129 0.0 0
M  V30 11 C -3.9005 -0.7446 0.0 0
M  V30 12 C -5.2006 0.0118 0.0 0
M  V30 END ATOM
M  V30 BEGIN BOND
M  V30 1 2 1 2
M  V30 2 1 2 3
M  V30 3 1 2 4
M  V30 4 1 3 5
M  V30 5 2 4 6
M  V30 6 1 5 7
M  V30 7 1 5 8
M  V30 8 1 6 9
M  V30 9 1 7 10
M  V30 10 1 8 11
M  V30 11 1 10 12
M  V30 12 1 11 12
M  V30 END BOND
M  V30 END CTAB
M  END
>  <Molecule Name>
Crotonic acid, cyclohexyl ester

>  <Molecule Name 2>
Crotonic acid, cyclohexyl ester

>  <Activity>
0

$$$$
Butyric acid, phenyl ester
Actelion Java MolfileCreator 2.0

  0  0  0  0  0  0              0 V3000
M  V30 BEGIN CTAB
M  V30 COUNTS 12 12 0 0 0
M  V30 BEGIN ATOM
M  V30 1 O 0.0 0.0 0.0 0
M  V30 2 C 0.0 1.5011 0.0 0
M  V30 3 O -1.3001 2.2457 0.0 0
M  V30 4 C 1.3001 2.2457 0.0 0
M  V30 5 C -2.6003 1.5011 0.0 0
M  V30 6 C 2.6003 1.5011 0.0 0
M  V30 7 C -3.9005 2.2575 0.0 0
M  V30 8 C -2.6003 0.0 0.0 0
M  V30 9 C 3.9005 2.2457 0.0 0
M  V30 10 C -5.2006 1.5129 0.0 0
M  V30 11 C -3.9005 -0.7446 0.0 0
M  V30 12 C -5.2006 0.0118 0.0 0
M  V30 END ATOM
M  V30 BEGIN BOND
M  V30 1 2 1 2
M  V30 2 1 2 3
M  V30 3 1 2 4
M  V30 4 1 3 5
M  V30 5 1 4 6
M  V30 6 2 5 7
M  V30 7 1 5 8
M  V30 8 1 6 9
M  V30 9 1 7 10
M  V30 10 2 8 11
M  V30 11 2 10 12
M  V30 12 1 11 12
M  V30 END BOND
M  V30 END CTAB
M  END
>  <Molecule Name>
Butyric acid, phenyl ester

>  <Molecule Name 2>
Butyric acid, phenyl ester

>  <Activity>
0

$$$$
n-Butyric acid, cyclohexyl ester
Actelion Java MolfileCreator 2.0

  0  0  0  0  0  0              0 V3000
M  V30 BEGIN CTAB
M  V30 COUNTS 12 12 0 0 0
M  V30 BEGIN ATOM
M  V30 1 O 0.0 0.0 0.0 0
M  V30 2 C 0.0 1.5011 0.0 0
M  V30 3 O -1.3001 2.2457 0.0 0
M  V30 4 C 1.3001 2.2457 0.0 0
M  V30 5 C -2.6003 1.5011 0.0 0
M  V30 6 C 2.6003 1.5011 0.0 0
M  V30 7 C -3.9005 2.2575 0.0 0
M  V30 8 C -2.6003 0.0 0.0 0
M  V30 9 C 3.9005 2.2457 0.0 0
M  V30 10 C -5.2006 1.5129 0.0 0
M  V30 11 C -3.9005 -0.7446 0.0 0
M  V30 12 C -5.2006 0.0118 0.0 0
M  V30 END ATOM
M  V30 BEGIN BOND
M  V30 1 2 1 2
M  V30 2 1 2 3
M  V30 3 1 2 4
M  V30 4 1 3 5
M  V30 5 1 4 6
M  V30 6 1 5 7
M  V30 7 1 5 8
M  V30 8 1 6 9
M  V30 9 1 7 10
M  V30 10 1 8 11
M  V30 11 1 10 12
M  V30 12 1 11 12
M  V30 END BOND
M  V30 END CTAB
M  END
>  <Molecule Name>
n-Butyric acid, cyclohexyl ester

>  <Molecule Name 2>
n-Butyric acid, cyclohexyl ester

>  <Activity>
0

$$$$
Propionic acid, m-tolyl ester
Actelion Java MolfileCreator 2.0

  0  0  0  0  0  0              0 V3000
M  V30 BEGIN CTAB
M  V30 COUNTS 12 12 0 0 0
M  V30 BEGIN ATOM
M  V30 1 O 0.0 0.0 0.0 0
M  V30 2 C 0.0 1.5006 0.0 0
M  V30 3 O -1.2997 2.245 0.0 0
M  V30 4 C 1.2997 2.245 0.0 0
M  V30 5 C -2.5994 1.5006 0.0 0
M  V30 6 C 2.5994 1.5006 0.0 0
M  V30 7 C -3.8992 2.2568 0.0 0
M  V30 8 C -2.5994 0.0 0.0 0
M  V30 9 C -5.1989 1.5124 0.0 0
M  V30 10 C -3.8992 -0.7444 0.0 0
M  V30 11 C -5.1989 0.0118 0.0 0
M  V30 12 C -6.4987 2.2686 0.0 0
M  V30 END ATOM
M  V30 BEGIN BOND
M  V30 1 2 1 2
M  V30 2 1 2 3
M  V30 3 1 2 4
M  V30 4 1 3 5
M  V30 5 1 4 6
M  V30 6 2 5 7
M  V30 7 1 5 8
M  V30 8 1 7 9
M  V30 9 2 8 10
M  V30 10 2 9 11
M  V30 11 1 9 12
M  V30 12 1 10 11
M  V30 END BOND
M  V30 END CTAB
M  END
>  <Molecule Name>
Propionic acid, m-tolyl ester

>  <Molecule Name 2>
Propionic acid, m-tolyl ester

>  <Activity>
0

$$$$
Propionic acid, o-tolyl ester
Actelion Java MolfileCreator 2.0

  0  0  0  0  0  0              0 V3000
M  V30 BEGIN CTAB
M  V30 COUNTS 12 12 0 0 0
M  V30 BEGIN ATOM
M  V30 1 O 0.0 0.0 0.0 0
M  V30 2 C 0.0 1.5008 0.0 0
M  V30 3 O -1.2999 2.2454 0.0 0
M  V30 4 C 1.2999 2.2454 0.0 0
M  V30 5 C -2.5999 1.5008 0.0 0
M  V30 6 C 2.5999 1.5008 0.0 0
M  V30 7 C -3.8999 2.2572 0.0 0
M  V30 8 C -2.5999 0.0 0.0 0
M  V30 9 C -5.1998 1.5126 0.0 0
M  V30 10 C -3.8999 3.7581 0.0 0
M  V30 11 C -3.8999 -0.7445 0.0 0
M  V30 12 C -5.1998 0.0118 0.0 0
M  V30 END ATOM
M  V30 BEGIN BOND
M  V30 1 2 1 2
M  V30 2 1 2 3
M  V30 3 1 2 4
M  V30 4 1 3 5
M  V30 5 1 4 6
M  V30 6 2 5 7
M  V30 7 1 5 8
M  V30 8 1 7 9
M  V30 9 1 7 10
M  V30 10 2 8 11
M  V30 11 2 9 12
M  V30 12 1 11 12
M  V30 END BOND
M  V30 END CTAB
M  END
>  <Molecule Name>
Propionic acid, o-tolyl ester

>  <Molecule Name 2>
Propionic acid, o-tolyl ester

>  <Activity>
0

$$$$
Benzoic acid, allyl ester
Actelion Java MolfileCreator 2.0

  0  0  0  0  0  0              0 V3000
M  V30 BEGIN CTAB
M  V30 COUNTS 12 12 0 0 0
M  V30 BEGIN ATOM
M  V30 1 O 0.0 0.0 0.0 0
M  V30 2 C 0.0 1.502 0.0 0
M  V30 3 O -1.301 2.2472 0.0 0
M  V30 4 C 1.301 2.2472 0.0 0
M  V30 5 C -2.602 1.502 0.0 0
M  V30 6 C 2.602 1.502 0.0 0
M  V30 7 C 1.301 3.7493 0.0 0
M  V30 8 C -3.903 2.2472 0.0 0
M  V30 9 C 3.903 2.2472 0.0 0
M  V30 10 C 2.602 4.4944 0.0 0
M  V30 11 C -5.2041 1.502 0.0 0
M  V30 12 C 3.903 3.7493 0.0 0
M  V30 END ATOM
M  V30 BEGIN BOND
M  V30 1 2 1 2
M  V30 2 1 2 3
M  V30 3 1 2 4
M  V30 4 1 3 5
M  V30 5 2 4 6
M  V30 6 1 4 7
M  V30 7 1 5 8
M  V30 8 1 6 9
M  V30 9 2 7 10
M  V30 10 2 8 11
M  V30 11 2 9 12
M  V30 12 1 10 12
M  V30 END BOND
M  V30 END CTAB
M  END
>  <Molecule Name>
Benzoic acid, allyl ester

>  <Molecule Name 2>
Benzoic acid, allyl ester

>  <Activity>
0

$$$$
Benzoic acid, propyl ester
Actelion Java MolfileCreator 2.0

  0  0  0  0  0  0              0 V3000
M  V30 BEGIN CTAB
M  V30 COUNTS 12 12 0 0 0
M  V30 BEGIN ATOM
M  V30 1 O 0.0 0.0 0.0 0
M  V30 2 C 0.0 1.502 0.0 0
M  V30 3 O -1.301 2.2472 0.0 0
M  V30 4 C 1.301 2.2472 0.0 0
M  V30 5 C -2.602 1.502 0.0 0
M  V30 6 C 2.602 1.502 0.0 0
M  V30 7 C 1.301 3.7493 0.0 0
M  V30 8 C -3.903 2.2472 0.0 0
M  V30 9 C 3.903 2.2472 0.0 0
M  V30 10 C 2.602 4.4944 0.0 0
M  V30 11 C -5.2041 1.502 0.0 0
M  V30 12 C 3.903 3.7493 0.0 0
M  V30 END ATOM
M  V30 BEGIN BOND
M  V30 1 2 1 2
M  V30 2 1 2 3
M  V30 3 1 2 4
M  V30 4 1 3 5
M  V30 5 2 4 6
M  V30 6 1 4 7
M  V30 7 1 5 8
M  V30 8 1 6 9
M  V30 9 2 7 10
M  V30 10 1 8 11
M  V30 11 2 9 12
M  V30 12 1 10 12
M  V30 END BOND
M  V30 END CTAB
M  END
>  <Molecule Name>
Benzoic acid, propyl ester

>  <Molecule Name 2>
Benzoic acid, propyl ester

>  <Activity>
0

$$$$
o-Toluic acid, ethyl ester
Actelion Java MolfileCreator 2.0

  0  0  0  0  0  0              0 V3000
M  V30 BEGIN CTAB
M  V30 COUNTS 12 12 0 0 0
M  V30 BEGIN ATOM
M  V30 1 O 0.0 0.0 0.0 0
M  V30 2 C 0.0 -1.4994 0.0 0
M  V30 3 O -1.2986 -2.255 0.0 0
M  V30 4 C 1.2986 -2.255 0.0 0
M  V30 5 C -2.5973 -1.5112 0.0 0
M  V30 6 C 2.5973 -1.5112 0.0 0
M  V30 7 C 1.2986 -3.7544 0.0 0
M  V30 8 C -3.896 -2.2668 0.0 0
M  V30 9 C 3.896 -2.2668 0.0 0
M  V30 10 C 2.5973 -0.0118 0.0 0
M  V30 11 C 2.5973 -4.51 0.0 0
M  V30 12 C 3.896 -3.7662 0.0 0
M  V30 END ATOM
M  V30 BEGIN BOND
M  V30 1 2 1 2
M  V30 2 1 2 3
M  V30 3 1 2 4
M  V30 4 1 3 5
M  V30 5 2 4 6
M  V30 6 1 4 7
M  V30 7 1 5 8
M  V30 8 1 6 9
M  V30 9 1 6 10
M  V30 10 2 7 11
M  V30 11 2 9 12
M  V30 12 1 11 12
M  V30 END BOND
M  V30 END CTAB
M  END
>  <Molecule Name>
o-Toluic acid, ethyl ester

>  <Molecule Name 2>
o-Toluic acid, ethyl ester

>  <Activity>
0

$$$$
alpha-Phenylpropionic acid, methyl ester
Actelion Java MolfileCreator 2.0

  0  0  0  0  0  0              0 V3000
M  V30 BEGIN CTAB
M  V30 COUNTS 12 12 0 0 0
M  V30 BEGIN ATOM
M  V30 1 O 0.0 0.0 0.0 0
M  V30 2 C 0.0 1.4998 0.0 0
M  V30 3 O -1.2991 2.2439 0.0 0
M  V30 4 C 1.2991 2.2439 0.0 0 CFG=1
M  V30 5 C -2.5982 1.488 0.0 0
M  V30 6 C 2.5982 1.488 0.0 0
M  V30 7 C 1.2991 3.7438 0.0 0
M  V30 8 C 2.5982 -0.0118 0.0 0
M  V30 9 C 3.8973 2.2321 0.0 0
M  V30 10 C 3.8973 -0.7676 0.0 0
M  V30 11 C 5.1964 1.4762 0.0 0
M  V30 12 C 5.1964 -0.0236 0.0 0
M  V30 END ATOM
M  V30 BEGIN BOND
M  V30 1 2 1 2
M  V30 2 1 2 3
M  V30 3 1 2 4
M  V30 4 1 3 5
M  V30 5 1 4 6
M  V30 6 1 4 7 CFG=3
M  V30 7 2 6 8
M  V30 8 1 6 9
M  V30 9 1 8 10
M  V30 10 2 9 11
M  V30 11 2 10 12
M  V30 12 1 11 12
M  V30 END BOND
M  V30 BEGIN COLLECTION
M  V30 MDLV30/STERAC1 ATOMS=(1 4)
M  V30 END COLLECTION
M  V30 END CTAB
M  END
>  <Molecule Name>
alpha-Phenylpropionic acid, methyl ester

>  <Molecule Name 2>
alpha-Phenylpropionic acid, methyl ester

>  <Activity>
0

$$$$
Acetic acid, 1-ethynylcyclohexyl ester
Actelion Java MolfileCreator 2.0

  0  0  0  0  0  0              0 V3000
M  V30 BEGIN CTAB
M  V30 COUNTS 12 12 0 0 0
M  V30 BEGIN ATOM
M  V30 1 O 0.0 0.0 0.0 0
M  V30 2 C 0.0 1.5001 0.0 0
M  V30 3 O -1.2993 2.2443 0.0 0
M  V30 4 C 1.2993 2.2443 0.0 0
M  V30 5 C -2.5986 1.4883 0.0 0
M  V30 6 C -2.5986 2.9884 0.0 0
M  V30 7 C -3.898 0.7441 0.0 0
M  V30 8 C -1.2993 0.7323 0.0 0
M  V30 9 C -2.5986 4.4886 0.0 0
M  V30 10 C -3.898 -0.7559 0.0 0
M  V30 11 C -1.2993 -0.7677 0.0 0
M  V30 12 C -2.5986 -1.5119 0.0 0
M  V30 END ATOM
M  V30 BEGIN BOND
M  V30 1 2 1 2
M  V30 2 1 2 3
M  V30 3 1 2 4
M  V30 4 1 3 5
M  V30 5 1 5 6
M  V30 6 1 5 7
M  V30 7 1 5 8
M  V30 8 3 6 9
M  V30 9 1 7 10
M  V30 10 1 8 11
M  V30 11 1 10 12
M  V30 12 1 11 12
M  V30 END BOND
M  V30 END CTAB
M  END
>  <Molecule Name>
Acetic acid, 1-ethynylcyclohexyl ester

>  <Molecule Name 2>
Acetic acid, 1-ethynylcyclohexyl ester

>  <Activity>
0

$$$$
Benzoic acid, iso-propyl ester
Actelion Java MolfileCreator 2.0

  0  0  0  0  0  0              0 V3000
M  V30 BEGIN CTAB
M  V30 COUNTS 12 12 0 0 0
M  V30 BEGIN ATOM
M  V30 1 O 0.0 0.0 0.0 0
M  V30 2 C 0.0 -1.4994 0.0 0
M  V30 3 O -1.2986 -2.255 0.0 0
M  V30 4 C 1.2986 -2.255 0.0 0
M  V30 5 C -2.5973 -1.5112 0.0 0
M  V30 6 C 1.2986 -3.7544 0.0 0
M  V30 7 C 2.5973 -1.5112 0.0 0
M  V30 8 C -2.5973 -0.0118 0.0 0
M  V30 9 C -3.896 -2.2668 0.0 0
M  V30 10 C 2.5973 -4.51 0.0 0
M  V30 11 C 3.896 -2.2668 0.0 0
M  V30 12 C 3.896 -3.7662 0.0 0
M  V30 END ATOM
M  V30 BEGIN BOND
M  V30 1 2 1 2
M  V30 2 1 2 3
M  V30 3 1 2 4
M  V30 4 1 3 5
M  V30 5 2 4 6
M  V30 6 1 4 7
M  V30 7 1 5 8
M  V30 8 1 5 9
M  V30 9 1 6 10
M  V30 10 2 7 11
M  V30 11 2 10 12
M  V30 12 1 11 12
M  V30 END BOND
M  V30 END CTAB
M  END
>  <Molecule Name>
Benzoic acid, iso-propyl ester

>  <Molecule Name 2>
Benzoic acid, iso-propyl ester

>  <Activity>
0

$$$$
3-Butoxy-2-cyclohexene-1-one
Actelion Java MolfileCreator 2.0

  0  0  0  0  0  0              0 V3000
M  V30 BEGIN CTAB
M  V30 COUNTS 12 12 0 0 0
M  V30 BEGIN ATOM
M  V30 1 O 0.0 0.0 0.0 0
M  V30 2 C 1.3007 -0.7568 0.0 0
M  V30 3 C 2.6015 -0.0118 0.0 0
M  V30 4 C 1.3007 -2.2586 0.0 0
M  V30 5 C 3.9023 -0.7686 0.0 0
M  V30 6 C 2.6015 -3.0036 0.0 0
M  V30 7 O 5.2031 -0.0236 0.0 0
M  V30 8 C 3.9023 -2.2704 0.0 0
M  V30 9 C 6.5039 -0.7686 0.0 0
M  V30 10 C 7.8047 -0.0236 0.0 0
M  V30 11 C 9.1055 -0.7686 0.0 0
M  V30 12 C 10.4063 -0.0236 0.0 0
M  V30 END ATOM
M  V30 BEGIN BOND
M  V30 1 2 1 2
M  V30 2 1 2 3
M  V30 3 1 2 4
M  V30 4 2 3 5
M  V30 5 1 4 6
M  V30 6 1 5 7
M  V30 7 1 5 8
M  V30 8 1 7 9
M  V30 9 1 9 10
M  V30 10 1 10 11
M  V30 11 1 11 12
M  V30 12 1 6 8
M  V30 END BOND
M  V30 END CTAB
M  END
>  <Molecule Name>
3-Butoxy-2-cyclohexene-1-one

>  <Molecule Name 2>
3-Butoxy-2-cyclohexene-1-one

>  <Activity>
0

$$$$
2-Propenyl-4,4,6-trimethyl-m-dioxane
Actelion Java MolfileCreator 2.0

  0  0  0  0  0  0              0 V3000
M  V30 BEGIN CTAB
M  V30 COUNTS 12 12 0 0 0
M  V30 BEGIN ATOM
M  V30 1 O 0.0 0.0 0.0 0
M  V30 2 C -1.2995 -0.7442 0.0 0
M  V30 3 C 0.0 1.5003 0.0 0
M  V30 4 C -2.599 0.0 0.0 0
M  V30 5 C -2.0556 -2.0437 0.0 0
M  V30 6 C -0.5552 -2.0437 0.0 0
M  V30 7 O -1.2995 2.2564 0.0 0
M  V30 8 C 1.2995 2.2446 0.0 0
M  V30 9 C -2.599 1.5003 0.0 0
M  V30 10 C 2.599 1.5003 0.0 0
M  V30 11 C -3.8985 2.2564 0.0 0
M  V30 12 C 3.8985 2.2446 0.0 0
M  V30 END ATOM
M  V30 BEGIN BOND
M  V30 1 1 1 2
M  V30 2 1 1 3
M  V30 3 1 2 4
M  V30 4 1 2 5
M  V30 5 1 2 6
M  V30 6 1 3 7
M  V30 7 1 3 8
M  V30 8 1 4 9
M  V30 9 2 8 10 CFG=2
M  V30 10 1 9 11
M  V30 11 1 10 12
M  V30 12 1 7 9
M  V30 END BOND
M  V30 END CTAB
M  END
>  <Molecule Name>
2-Propenyl-4,4,6-trimethyl-m-dioxane

>  <Molecule Name 2>
2-Propenyl-4,4,6-trimethyl-m-dioxane

>  <Activity>
0

$$$$
Dihydroeugenol
Actelion Java MolfileCreator 2.0

  0  0  0  0  0  0              0 V3000
M  V30 BEGIN CTAB
M  V30 COUNTS 12 12 0 0 0
M  V30 BEGIN ATOM
M  V30 1 O 0.0 0.0 0.0 0
M  V30 2 C -1.3012 0.7452 0.0 0
M  V30 3 C 1.3012 0.7452 0.0 0
M  V30 4 C -2.6024 0.0 0.0 0
M  V30 5 C -1.3012 2.2475 0.0 0
M  V30 6 C -3.9036 0.7452 0.0 0
M  V30 7 O 0.0 2.9928 0.0 0
M  V30 8 C -2.6024 2.9928 0.0 0
M  V30 9 C -3.9036 2.2475 0.0 0
M  V30 10 C -5.2049 0.0 0.0 0
M  V30 11 C -6.5061 0.7452 0.0 0
M  V30 12 C -7.8073 0.0 0.0 0
M  V30 END ATOM
M  V30 BEGIN BOND
M  V30 1 1 1 2
M  V30 2 1 1 3
M  V30 3 1 2 4
M  V30 4 1 2 5
M  V30 5 2 4 6
M  V30 6 1 5 7
M  V30 7 1 5 8
M  V30 8 1 6 9
M  V30 9 1 6 10
M  V30 10 1 10 11
M  V30 11 2 11 12
M  V30 12 2 8 9
M  V30 END BOND
M  V30 END CTAB
M  END
>  <Molecule Name>
Dihydroeugenol

>  <Molecule Name 2>
Dihydroeugenol

>  <Activity>
0

$$$$
1,1-Dimethylol-2,4-dimethyl-cyclohexane
Actelion Java MolfileCreator 2.0

  0  0  0  0  0  0              0 V3000
M  V30 BEGIN CTAB
M  V30 COUNTS 12 12 0 0 0
M  V30 BEGIN ATOM
M  V30 1 O 0.0 0.0 0.0 0
M  V30 2 C -1.2995 0.7442 0.0 0
M  V30 3 C -2.599 0.0 0.0 0
M  V30 4 C -3.8986 0.756 0.0 0
M  V30 5 C -2.599 -1.5003 0.0 0
M  V30 6 C -1.2995 -0.756 0.0 0
M  V30 7 C -5.1981 0.0118 0.0 0
M  V30 8 C -3.8986 2.2564 0.0 0
M  V30 9 C -3.8986 -2.2446 0.0 0
M  V30 10 O -1.2995 -2.2564 0.0 0
M  V30 11 C -5.1981 -1.4885 0.0 0
M  V30 12 C -6.4977 -2.2328 0.0 0
M  V30 END ATOM
M  V30 BEGIN BOND
M  V30 1 1 1 2
M  V30 2 1 2 3
M  V30 3 1 3 4
M  V30 4 1 3 5
M  V30 5 1 3 6
M  V30 6 1 4 7
M  V30 7 1 4 8
M  V30 8 1 5 9
M  V30 9 1 6 10
M  V30 10 1 7 11
M  V30 11 1 11 12
M  V30 12 1 9 11
M  V30 END BOND
M  V30 END CTAB
M  END
>  <Molecule Name>
1,1-Dimethylol-2,4-dimethyl-cyclohexane

>  <Molecule Name 2>
1,1-Dimethylol-2,4-dimethyl-cyclohexane

>  <Activity>
0

$$$$
o-n-Propoxybenzaldehyde
Actelion Java MolfileCreator 2.0

  0  0  0  0  0  0              0 V3000
M  V30 BEGIN CTAB
M  V30 COUNTS 12 12 0 0 0
M  V30 BEGIN ATOM
M  V30 1 O 0.0 0.0 0.0 0
M  V30 2 C 1.2997 -0.7562 0.0 0
M  V30 3 C 1.2997 -2.2568 0.0 0
M  V30 4 C 2.5994 -3.013 0.0 0
M  V30 5 C 0.0 -3.0012 0.0 0
M  V30 6 O 3.8992 -2.2686 0.0 0
M  V30 7 C 2.5994 -4.5136 0.0 0
M  V30 8 C 0.0 -4.5018 0.0 0
M  V30 9 C 5.1989 -3.013 0.0 0
M  V30 10 C 1.2997 -5.258 0.0 0
M  V30 11 C 6.4987 -2.2686 0.0 0
M  V30 12 C 7.7984 -3.013 0.0 0
M  V30 END ATOM
M  V30 BEGIN BOND
M  V30 1 2 1 2
M  V30 2 1 2 3
M  V30 3 2 3 4
M  V30 4 1 3 5
M  V30 5 1 4 6
M  V30 6 1 4 7
M  V30 7 2 5 8
M  V30 8 1 6 9
M  V30 9 2 7 10
M  V30 10 1 9 11
M  V30 11 1 11 12
M  V30 12 1 8 10
M  V30 END BOND
M  V30 END CTAB
M  END
>  <Molecule Name>
o-n-Propoxybenzaldehyde

>  <Molecule Name 2>
o-n-Propoxybenzaldehyde

>  <Activity>
0

$$$$
Phenyl acetaldehyde dimethyl acetal
Actelion Java MolfileCreator 2.0

  0  0  0  0  0  0              0 V3000
M  V30 BEGIN CTAB
M  V30 COUNTS 12 12 0 0 0
M  V30 BEGIN ATOM
M  V30 1 O 0.0 0.0 0.0 0
M  V30 2 C -1.2993 -0.7559 0.0 0
M  V30 3 C 1.2993 -0.7559 0.0 0
M  V30 4 O -2.5986 -0.0118 0.0 0
M  V30 5 C -1.2993 -2.256 0.0 0
M  V30 6 C -3.8979 -0.7677 0.0 0
M  V30 7 C 0.0 -3.0002 0.0 0
M  V30 8 C 0.0 -4.5003 0.0 0
M  V30 9 C 1.2993 -2.256 0.0 0
M  V30 10 C 1.2993 -5.2563 0.0 0
M  V30 11 C 2.5986 -3.012 0.0 0
M  V30 12 C 2.5986 -4.5003 0.0 0
M  V30 END ATOM
M  V30 BEGIN BOND
M  V30 1 1 1 2
M  V30 2 1 1 3
M  V30 3 1 2 4
M  V30 4 1 2 5
M  V30 5 1 4 6
M  V30 6 1 5 7
M  V30 7 2 7 8
M  V30 8 1 7 9
M  V30 9 1 8 10
M  V30 10 2 9 11
M  V30 11 2 10 12
M  V30 12 1 11 12
M  V30 END BOND
M  V30 END CTAB
M  END
>  <Molecule Name>
Phenyl acetaldehyde dimethyl acetal

>  <Molecule Name 2>
Phenyl acetaldehyde dimethyl acetal

>  <Activity>
0

$$$$
2-Ethyl-2,4,4, 6-tetramethyl-m-dioxane
Actelion Java MolfileCreator 2.0

  0  0  0  0  0  0              0 V3000
M  V30 BEGIN CTAB
M  V30 COUNTS 12 12 0 0 0
M  V30 BEGIN ATOM
M  V30 1 O 0.0 0.0 0.0 0
M  V30 2 C 0.0 1.4983 0.0 0
M  V30 3 C -1.2978 -0.7432 0.0 0
M  V30 4 O -1.2978 2.2534 0.0 0
M  V30 5 C 1.2978 2.2534 0.0 0
M  V30 6 C 1.2978 0.7432 0.0 0
M  V30 7 C -2.5956 0.0 0.0 0
M  V30 8 C -2.0529 -2.0411 0.0 0
M  V30 9 C -0.5545 -2.0411 0.0 0
M  V30 10 C -2.5956 1.5101 0.0 0
M  V30 11 C 2.5956 1.4983 0.0 0
M  V30 12 C -3.8934 2.2652 0.0 0
M  V30 END ATOM
M  V30 BEGIN BOND
M  V30 1 1 1 2
M  V30 2 1 1 3
M  V30 3 1 2 4
M  V30 4 1 2 5
M  V30 5 1 2 6
M  V30 6 1 3 7
M  V30 7 1 3 8
M  V30 8 1 3 9
M  V30 9 1 4 10
M  V30 10 1 5 11
M  V30 11 1 10 12
M  V30 12 1 7 10
M  V30 END BOND
M  V30 END CTAB
M  END
>  <Molecule Name>
2-Ethyl-2,4,4, 6-tetramethyl-m-dioxane

>  <Molecule Name 2>
2-Ethyl-2,4,4, 6-tetramethyl-m-dioxane

>  <Activity>
0

$$$$
o-Ethoxyphenethyl alcohol
Actelion Java MolfileCreator 2.0

  0  0  0  0  0  0              0 V3000
M  V30 BEGIN CTAB
M  V30 COUNTS 12 12 0 0 0
M  V30 BEGIN ATOM
M  V30 1 O 0.0 0.0 0.0 0
M  V30 2 C -1.2999 -0.7445 0.0 0
M  V30 3 C 1.2999 -0.7445 0.0 0
M  V30 4 C -2.5999 0.0118 0.0 0
M  V30 5 C -1.2999 -2.2454 0.0 0
M  V30 6 C 2.5999 0.0 0.0 0
M  V30 7 C -3.8999 -0.7327 0.0 0
M  V30 8 C -2.5999 1.5126 0.0 0
M  V30 9 C -2.5999 -2.9899 0.0 0
M  V30 10 C -3.8999 -2.2335 0.0 0
M  V30 11 C -1.2999 2.2572 0.0 0
M  V30 12 O -1.2999 3.7581 0.0 0
M  V30 END ATOM
M  V30 BEGIN BOND
M  V30 1 1 1 2
M  V30 2 1 1 3
M  V30 3 2 2 4
M  V30 4 1 2 5
M  V30 5 1 3 6
M  V30 6 1 4 7
M  V30 7 1 4 8
M  V30 8 2 5 9
M  V30 9 2 7 10
M  V30 10 1 8 11
M  V30 11 1 11 12
M  V30 12 1 9 10
M  V30 END BOND
M  V30 END CTAB
M  END
>  <Molecule Name>
o-Ethoxyphenethyl alcohol

>  <Molecule Name 2>
o-Ethoxyphenethyl alcohol

>  <Activity>
0

$$$$
p-iso-Propoxybenzyl alcohol
Actelion Java MolfileCreator 2.0

  0  0  0  0  0  0              0 V3000
M  V30 BEGIN CTAB
M  V30 COUNTS 12 12 0 0 0
M  V30 BEGIN ATOM
M  V30 1 O 0.0 0.0 0.0 0
M  V30 2 C -1.2999 -0.7445 0.0 0
M  V30 3 C 1.2999 -0.7445 0.0 0
M  V30 4 C -2.5999 0.0118 0.0 0
M  V30 5 C -1.2999 -2.2454 0.0 0
M  V30 6 C 2.5999 0.0 0.0 0
M  V30 7 C 1.2999 -2.2454 0.0 0
M  V30 8 C -3.8999 -0.7327 0.0 0
M  V30 9 C -2.5999 -2.9899 0.0 0
M  V30 10 C -3.8999 -2.2335 0.0 0
M  V30 11 C -5.1998 -2.9781 0.0 0
M  V30 12 O -5.1998 -4.4789 0.0 0
M  V30 END ATOM
M  V30 BEGIN BOND
M  V30 1 1 1 2
M  V30 2 1 1 3
M  V30 3 2 2 4
M  V30 4 1 2 5
M  V30 5 1 3 6
M  V30 6 1 3 7
M  V30 7 1 4 8
M  V30 8 2 5 9
M  V30 9 2 8 10
M  V30 10 1 10 11
M  V30 11 1 11 12
M  V30 12 1 9 10
M  V30 END BOND
M  V30 END CTAB
M  END
>  <Molecule Name>
p-iso-Propoxybenzyl alcohol

>  <Molecule Name 2>
p-iso-Propoxybenzyl alcohol

>  <Activity>
0

$$$$
m-Chlorobenzoic acid, ethyl ester
Actelion Java MolfileCreator 2.0

  0  0  0  0  0  0              0 V3000
M  V30 BEGIN CTAB
M  V30 COUNTS 12 12 0 0 0
M  V30 BEGIN ATOM
M  V30 1 Cl 0.0 0.0 0.0 0
M  V30 2 C -1.2993 -0.7441 0.0 0
M  V30 3 C -2.5986 0.0 0.0 0
M  V30 4 C -1.2993 -2.2442 0.0 0
M  V30 5 C -3.8979 -0.7441 0.0 0
M  V30 6 C -2.5986 -3.0002 0.0 0
M  V30 7 C -5.1972 0.0 0.0 0
M  V30 8 C -3.8979 -2.2442 0.0 0
M  V30 9 O -5.1972 1.5001 0.0 0
M  V30 10 O -6.4966 -0.7559 0.0 0
M  V30 11 C -7.7959 -0.0118 0.0 0
M  V30 12 C -9.0952 -0.7677 0.0 0
M  V30 END ATOM
M  V30 BEGIN BOND
M  V30 1 1 1 2
M  V30 2 2 2 3
M  V30 3 1 2 4
M  V30 4 1 3 5
M  V30 5 2 4 6
M  V30 6 1 5 7
M  V30 7 2 5 8
M  V30 8 2 7 9
M  V30 9 1 7 10
M  V30 10 1 10 11
M  V30 11 1 11 12
M  V30 12 1 6 8
M  V30 END BOND
M  V30 END CTAB
M  END
>  <Molecule Name>
m-Chlorobenzoic acid, ethyl ester

>  <Molecule Name 2>
m-Chlorobenzoic acid, ethyl ester

>  <Activity>
0

$$$$
2-Bromocyclohexanoic acid, ethyl ester
Actelion Java MolfileCreator 2.0

  0  0  0  0  0  0              0 V3000
M  V30 BEGIN CTAB
M  V30 COUNTS 12 12 0 0 0
M  V30 BEGIN ATOM
M  V30 1 Br 0.0 0.0 0.0 0
M  V30 2 C 0.0 -1.4998 0.0 0
M  V30 3 C -1.2991 -2.2439 0.0 0
M  V30 4 C 1.2991 -2.2557 0.0 0
M  V30 5 C -2.5982 -1.4998 0.0 0
M  V30 6 C -1.2991 -3.7438 0.0 0
M  V30 7 C 1.2991 -3.7556 0.0 0
M  V30 8 O -2.5982 0.0 0.0 0
M  V30 9 O -3.8973 -2.2557 0.0 0
M  V30 10 C 0.0 -4.4996 0.0 0
M  V30 11 C -5.1964 -1.5117 0.0 0
M  V30 12 C -6.4956 -2.2675 0.0 0
M  V30 END ATOM
M  V30 BEGIN BOND
M  V30 1 1 1 2
M  V30 2 1 2 3
M  V30 3 1 2 4
M  V30 4 1 3 5
M  V30 5 1 3 6
M  V30 6 1 4 7
M  V30 7 2 5 8
M  V30 8 1 5 9
M  V30 9 1 6 10
M  V30 10 1 9 11
M  V30 11 1 11 12
M  V30 12 1 7 10
M  V30 END BOND
M  V30 END CTAB
M  END
>  <Molecule Name>
2-Bromocyclohexanoic acid, ethyl ester

>  <Molecule Name 2>
2-Bromocyclohexanoic acid, ethyl ester

>  <Activity>
0

$$$$
2-Methallyl-4-methylcyclohexanone
Actelion Java MolfileCreator 2.0

  0  0  0  0  0  0              0 V3000
M  V30 BEGIN CTAB
M  V30 COUNTS 12 12 0 0 0
M  V30 BEGIN ATOM
M  V30 1 O 0.0 0.0 0.0 0
M  V30 2 C 0.0 -1.5006 0.0 0
M  V30 3 C 1.2997 -2.2568 0.0 0
M  V30 4 C -1.2997 -2.245 0.0 0
M  V30 5 C 1.2997 -3.7575 0.0 0
M  V30 6 C 2.5995 -1.5124 0.0 0
M  V30 7 C -1.2997 -3.7457 0.0 0
M  V30 8 C 0.0 -4.5019 0.0 0
M  V30 9 C 3.8993 -2.2568 0.0 0
M  V30 10 C 0.0 -6.0025 0.0 0
M  V30 11 C 3.8993 -3.7575 0.0 0
M  V30 12 C 5.199 -1.5124 0.0 0
M  V30 END ATOM
M  V30 BEGIN BOND
M  V30 1 2 1 2
M  V30 2 1 2 3
M  V30 3 1 2 4
M  V30 4 1 3 5
M  V30 5 1 3 6
M  V30 6 1 4 7
M  V30 7 1 5 8
M  V30 8 1 6 9
M  V30 9 1 8 10
M  V30 10 2 9 11
M  V30 11 1 9 12
M  V30 12 1 7 8
M  V30 END BOND
M  V30 END CTAB
M  END
>  <Molecule Name>
2-Methallyl-4-methylcyclohexanone

>  <Molecule Name 2>
2-Methallyl-4-methylcyclohexanone

>  <Activity>
0

$$$$
2-Methallyl-4-methylcyclohexanol
Actelion Java MolfileCreator 2.0

  0  0  0  0  0  0              0 V3000
M  V30 BEGIN CTAB
M  V30 COUNTS 12 12 0 0 0
M  V30 BEGIN ATOM
M  V30 1 O 0.0 0.0 0.0 0
M  V30 2 C 0.0 -1.5006 0.0 0
M  V30 3 C 1.2997 -2.2568 0.0 0
M  V30 4 C -1.2997 -2.245 0.0 0
M  V30 5 C 1.2997 -3.7575 0.0 0
M  V30 6 C 2.5995 -1.5124 0.0 0
M  V30 7 C -1.2997 -3.7457 0.0 0
M  V30 8 C 0.0 -4.5019 0.0 0
M  V30 9 C 3.8993 -2.2568 0.0 0
M  V30 10 C 0.0 -6.0025 0.0 0
M  V30 11 C 3.8993 -3.7575 0.0 0
M  V30 12 C 5.199 -1.5124 0.0 0
M  V30 END ATOM
M  V30 BEGIN BOND
M  V30 1 1 1 2
M  V30 2 1 2 3
M  V30 3 1 2 4
M  V30 4 1 3 5
M  V30 5 1 3 6
M  V30 6 1 4 7
M  V30 7 1 5 8
M  V30 8 1 6 9
M  V30 9 1 8 10
M  V30 10 2 9 11
M  V30 11 1 9 12
M  V30 12 1 7 8
M  V30 END BOND
M  V30 END CTAB
M  END
>  <Molecule Name>
2-Methallyl-4-methylcyclohexanol

>  <Molecule Name 2>
2-Methallyl-4-methylcyclohexanol

>  <Activity>
0

$$$$
Allyl 2-methylbenzyl ether
Actelion Java MolfileCreator 2.0

  0  0  0  0  0  0              0 V3000
M  V30 BEGIN CTAB
M  V30 COUNTS 12 12 0 0 0
M  V30 BEGIN ATOM
M  V30 1 O 0.0 0.0 0.0 0
M  V30 2 C 1.299 -0.7558 0.0 0
M  V30 3 C -1.299 -0.7558 0.0 0
M  V30 4 C 2.5981 -0.0118 0.0 0
M  V30 5 C -2.5981 -0.0118 0.0 0
M  V30 6 C 2.5981 1.488 0.0 0
M  V30 7 C 3.8972 -0.7558 0.0 0
M  V30 8 C -3.8972 -0.7676 0.0 0
M  V30 9 C 3.8972 2.2438 0.0 0
M  V30 10 C 1.299 2.232 0.0 0
M  V30 11 C 5.1963 0.0 0.0 0
M  V30 12 C 5.1963 1.4998 0.0 0
M  V30 END ATOM
M  V30 BEGIN BOND
M  V30 1 1 1 2
M  V30 2 1 1 3
M  V30 3 1 2 4
M  V30 4 1 3 5
M  V30 5 2 4 6
M  V30 6 1 4 7
M  V30 7 2 5 8
M  V30 8 1 6 9
M  V30 9 1 6 10
M  V30 10 2 7 11
M  V30 11 2 9 12
M  V30 12 1 11 12
M  V30 END BOND
M  V30 END CTAB
M  END
>  <Molecule Name>
Allyl 2-methylbenzyl ether

>  <Molecule Name 2>
Allyl 2-methylbenzyl ether

>  <Activity>
0

$$$$
Butyl p-tolyl ether
Actelion Java MolfileCreator 2.0

  0  0  0  0  0  0              0 V3000
M  V30 BEGIN CTAB
M  V30 COUNTS 12 12 0 0 0
M  V30 BEGIN ATOM
M  V30 1 O 0.0 0.0 0.0 0
M  V30 2 C 1.2999 0.7445 0.0 0
M  V30 3 C -1.2999 0.7445 0.0 0
M  V30 4 C 1.2999 2.2453 0.0 0
M  V30 5 C 2.5999 -0.0118 0.0 0
M  V30 6 C -2.5999 -0.0118 0.0 0
M  V30 7 C 2.5999 2.9898 0.0 0
M  V30 8 C 3.8998 0.7445 0.0 0
M  V30 9 C -3.8998 0.7326 0.0 0
M  V30 10 C 3.8998 2.2335 0.0 0
M  V30 11 C -5.1998 -0.0236 0.0 0
M  V30 12 C 5.1998 2.978 0.0 0
M  V30 END ATOM
M  V30 BEGIN BOND
M  V30 1 1 1 2
M  V30 2 1 1 3
M  V30 3 2 2 4
M  V30 4 1 2 5
M  V30 5 1 3 6
M  V30 6 1 4 7
M  V30 7 2 5 8
M  V30 8 1 6 9
M  V30 9 2 7 10
M  V30 10 1 9 11
M  V30 11 1 10 12
M  V30 12 1 8 10
M  V30 END BOND
M  V30 END CTAB
M  END
>  <Molecule Name>
Butyl p-tolyl ether

>  <Molecule Name 2>
Butyl p-tolyl ether

>  <Activity>
0

$$$$
Amyl phenyl ether
Actelion Java MolfileCreator 2.0

  0  0  0  0  0  0              0 V3000
M  V30 BEGIN CTAB
M  V30 COUNTS 12 12 0 0 0
M  V30 BEGIN ATOM
M  V30 1 O 0.0 0.0 0.0 0
M  V30 2 C 1.2982 -0.7553 0.0 0
M  V30 3 C -1.2982 -0.7553 0.0 0
M  V30 4 C 1.2982 -2.2542 0.0 0
M  V30 5 C 2.5964 -0.0118 0.0 0
M  V30 6 C -2.5964 -0.0118 0.0 0
M  V30 7 C 2.5964 -3.0095 0.0 0
M  V30 8 C 3.8947 -0.7553 0.0 0
M  V30 9 C -3.8947 -0.7671 0.0 0
M  V30 10 C 3.8947 -2.266 0.0 0
M  V30 11 C -5.1929 -0.0236 0.0 0
M  V30 12 C -6.4912 -0.7789 0.0 0
M  V30 END ATOM
M  V30 BEGIN BOND
M  V30 1 1 1 2
M  V30 2 1 1 3
M  V30 3 2 2 4
M  V30 4 1 2 5
M  V30 5 1 3 6
M  V30 6 1 4 7
M  V30 7 2 5 8
M  V30 8 1 6 9
M  V30 9 2 7 10
M  V30 10 1 9 11
M  V30 11 1 11 12
M  V30 12 1 8 10
M  V30 END BOND
M  V30 END CTAB
M  END
>  <Molecule Name>
Amyl phenyl ether

>  <Molecule Name 2>
Amyl phenyl ether

>  <Activity>
0

$$$$
Carvacryl methyl ether
Actelion Java MolfileCreator 2.0

  0  0  0  0  0  0              0 V3000
M  V30 BEGIN CTAB
M  V30 COUNTS 12 12 0 0 0
M  V30 BEGIN ATOM
M  V30 1 O 0.0 0.0 0.0 0
M  V30 2 C -1.298 -0.7552 0.0 0
M  V30 3 C 1.298 -0.7552 0.0 0
M  V30 4 C -1.298 -2.2538 0.0 0
M  V30 5 C -2.596 0.0 0.0 0
M  V30 6 C -2.596 -2.9973 0.0 0
M  V30 7 C 0.0 -3.0091 0.0 0
M  V30 8 C -3.8941 -0.7434 0.0 0
M  V30 9 C -3.8941 -2.2538 0.0 0
M  V30 10 C -5.1921 0.0118 0.0 0
M  V30 11 C -5.1921 1.5104 0.0 0
M  V30 12 C -6.4902 -0.7316 0.0 0
M  V30 END ATOM
M  V30 BEGIN BOND
M  V30 1 1 1 2
M  V30 2 1 1 3
M  V30 3 2 2 4
M  V30 4 1 2 5
M  V30 5 1 4 6
M  V30 6 1 4 7
M  V30 7 2 5 8
M  V30 8 2 6 9
M  V30 9 1 8 10
M  V30 10 1 10 11
M  V30 11 1 10 12
M  V30 12 1 8 9
M  V30 END BOND
M  V30 END CTAB
M  END
>  <Molecule Name>
Carvacryl methyl ether

>  <Molecule Name 2>
Carvacryl methyl ether

>  <Activity>
0

$$$$
iso-Propyl benzyl ketone
Actelion Java MolfileCreator 2.0

  0  0  0  0  0  0              0 V3000
M  V30 BEGIN CTAB
M  V30 COUNTS 12 12 0 0 0
M  V30 BEGIN ATOM
M  V30 1 O 0.0 0.0 0.0 0
M  V30 2 C 0.0 1.4998 0.0 0
M  V30 3 C -1.2991 2.2439 0.0 0
M  V30 4 C 1.2991 2.2439 0.0 0
M  V30 5 C -1.2991 3.7438 0.0 0
M  V30 6 C -2.5982 1.488 0.0 0
M  V30 7 C 2.5982 1.488 0.0 0
M  V30 8 C 2.5982 -0.0118 0.0 0
M  V30 9 C 3.8973 2.2321 0.0 0
M  V30 10 C 3.8973 -0.7676 0.0 0
M  V30 11 C 5.1964 1.4762 0.0 0
M  V30 12 C 5.1964 -0.0236 0.0 0
M  V30 END ATOM
M  V30 BEGIN BOND
M  V30 1 2 1 2
M  V30 2 1 2 3
M  V30 3 1 2 4
M  V30 4 1 3 5
M  V30 5 1 3 6
M  V30 6 1 4 7
M  V30 7 2 7 8
M  V30 8 1 7 9
M  V30 9 1 8 10
M  V30 10 2 9 11
M  V30 11 2 10 12
M  V30 12 1 11 12
M  V30 END BOND
M  V30 END CTAB
M  END
>  <Molecule Name>
iso-Propyl benzyl ketone

>  <Molecule Name 2>
iso-Propyl benzyl ketone

>  <Activity>
0

$$$$
Methallyl benzyl ether
Actelion Java MolfileCreator 2.0

  0  0  0  0  0  0              0 V3000
M  V30 BEGIN CTAB
M  V30 COUNTS 12 12 0 0 0
M  V30 BEGIN ATOM
M  V30 1 O 0.0 0.0 0.0 0
M  V30 2 C 1.301 -0.7451 0.0 0
M  V30 3 C -1.301 -0.7451 0.0 0
M  V30 4 C 2.602 0.0 0.0 0
M  V30 5 C -2.602 0.0 0.0 0
M  V30 6 C 3.903 -0.7451 0.0 0
M  V30 7 C 2.602 1.502 0.0 0
M  V30 8 C -3.903 -0.7451 0.0 0
M  V30 9 C -2.602 1.502 0.0 0
M  V30 10 C 5.2041 0.0 0.0 0
M  V30 11 C 3.903 2.2472 0.0 0
M  V30 12 C 5.2041 1.502 0.0 0
M  V30 END ATOM
M  V30 BEGIN BOND
M  V30 1 1 1 2
M  V30 2 1 1 3
M  V30 3 1 2 4
M  V30 4 1 3 5
M  V30 5 2 4 6
M  V30 6 1 4 7
M  V30 7 2 5 8
M  V30 8 1 5 9
M  V30 9 1 6 10
M  V30 10 2 7 11
M  V30 11 2 10 12
M  V30 12 1 11 12
M  V30 END BOND
M  V30 END CTAB
M  END
>  <Molecule Name>
Methallyl benzyl ether

>  <Molecule Name 2>
Methallyl benzyl ether

>  <Activity>
0

$$$$
iso-Butyl benzyl ether
Actelion Java MolfileCreator 2.0

  0  0  0  0  0  0              0 V3000
M  V30 BEGIN CTAB
M  V30 COUNTS 12 12 0 0 0
M  V30 BEGIN ATOM
M  V30 1 O 0.0 0.0 0.0 0
M  V30 2 C 1.301 -0.7451 0.0 0
M  V30 3 C -1.301 -0.7451 0.0 0
M  V30 4 C 2.602 0.0 0.0 0
M  V30 5 C -2.602 0.0 0.0 0
M  V30 6 C 3.903 -0.7451 0.0 0
M  V30 7 C 2.602 1.502 0.0 0
M  V30 8 C -2.602 1.502 0.0 0
M  V30 9 C -3.903 -0.7451 0.0 0
M  V30 10 C 5.2041 0.0 0.0 0
M  V30 11 C 3.903 2.2472 0.0 0
M  V30 12 C 5.2041 1.502 0.0 0
M  V30 END ATOM
M  V30 BEGIN BOND
M  V30 1 1 1 2
M  V30 2 1 1 3
M  V30 3 1 2 4
M  V30 4 1 3 5
M  V30 5 2 4 6
M  V30 6 1 4 7
M  V30 7 1 5 8
M  V30 8 1 5 9
M  V30 9 1 6 10
M  V30 10 2 7 11
M  V30 11 2 10 12
M  V30 12 1 11 12
M  V30 END BOND
M  V30 END CTAB
M  END
>  <Molecule Name>
iso-Butyl benzyl ether

>  <Molecule Name 2>
iso-Butyl benzyl ether

>  <Activity>
0

$$$$
p-Butoxyphenylbromide
Actelion Java MolfileCreator 2.0

  0  0  0  0  0  0              0 V3000
M  V30 BEGIN CTAB
M  V30 COUNTS 12 12 0 0 0
M  V30 BEGIN ATOM
M  V30 1 Br 0.0 0.0 0.0 0
M  V30 2 C 1.3016 0.7454 0.0 0
M  V30 3 C 1.3016 2.2483 0.0 0
M  V30 4 C 2.6033 0.0 0.0 0
M  V30 5 C 2.6033 2.9938 0.0 0
M  V30 6 C 3.9049 0.7454 0.0 0
M  V30 7 C 3.9049 2.2364 0.0 0
M  V30 8 O 5.2066 2.9819 0.0 0
M  V30 9 C 6.5082 2.2364 0.0 0
M  V30 10 C 7.8099 2.9819 0.0 0
M  V30 11 C 9.1116 2.2364 0.0 0
M  V30 12 C 10.4132 2.9819 0.0 0
M  V30 END ATOM
M  V30 BEGIN BOND
M  V30 1 1 1 2
M  V30 2 2 2 3
M  V30 3 1 2 4
M  V30 4 1 3 5
M  V30 5 2 4 6
M  V30 6 2 5 7
M  V30 7 1 7 8
M  V30 8 1 8 9
M  V30 9 1 9 10
M  V30 10 1 10 11
M  V30 11 1 11 12
M  V30 12 1 6 7
M  V30 END BOND
M  V30 END CTAB
M  END
>  <Molecule Name>
p-Butoxyphenylbromide

>  <Molecule Name 2>
p-Butoxyphenylbromide

>  <Activity>
0

$$$$
p-sec-Butoxyphenylbromide
Actelion Java MolfileCreator 2.0

  0  0  0  0  0  0              0 V3000
M  V30 BEGIN CTAB
M  V30 COUNTS 12 12 0 0 0
M  V30 BEGIN ATOM
M  V30 1 Br 0.0 0.0 0.0 0
M  V30 2 C 1.3014 0.7453 0.0 0
M  V30 3 C 1.3014 2.2479 0.0 0
M  V30 4 C 2.6029 0.0 0.0 0
M  V30 5 C 2.6029 2.9933 0.0 0
M  V30 6 C 3.9043 0.7453 0.0 0
M  V30 7 C 3.9043 2.2361 0.0 0
M  V30 8 O 5.2058 2.9815 0.0 0
M  V30 9 C 6.5072 2.2361 0.0 0 CFG=2
M  V30 10 C 7.8087 2.9815 0.0 0
M  V30 11 C 6.5072 0.7335 0.0 0
M  V30 12 C 9.1101 2.2361 0.0 0
M  V30 END ATOM
M  V30 BEGIN BOND
M  V30 1 1 1 2
M  V30 2 2 2 3
M  V30 3 1 2 4
M  V30 4 1 3 5
M  V30 5 2 4 6
M  V30 6 2 5 7
M  V30 7 1 7 8
M  V30 8 1 8 9
M  V30 9 1 9 10
M  V30 10 1 9 11 CFG=3
M  V30 11 1 10 12
M  V30 12 1 6 7
M  V30 END BOND
M  V30 BEGIN COLLECTION
M  V30 MDLV30/STERAC1 ATOMS=(1 9)
M  V30 END COLLECTION
M  V30 END CTAB
M  END
>  <Molecule Name>
p-sec-Butoxyphenylbromide

>  <Molecule Name 2>
p-sec-Butoxyphenylbromide

>  <Activity>
0

$$$$
Methacrylic acid, tetrahydrofurfuryl ester
Actelion Java MolfileCreator 2.0

  0  0  0  0  0  0              0 V3000
M  V30 BEGIN CTAB
M  V30 COUNTS 12 12 0 0 0
M  V30 BEGIN ATOM
M  V30 1 O 0.0 0.0 0.0 0
M  V30 2 C 0.0 -1.5001 0.0 0
M  V30 3 O -1.2993 -2.2562 0.0 0
M  V30 4 C 1.2993 -2.2562 0.0 0
M  V30 5 C -2.5987 -1.512 0.0 0
M  V30 6 C 2.5987 -1.512 0.0 0
M  V30 7 C 1.2993 -3.7563 0.0 0
M  V30 8 C -3.8981 -2.268 0.0 0 CFG=2
M  V30 9 O -4.0517 -3.7563 0.0 0
M  V30 10 C -5.2684 -1.6537 0.0 0
M  V30 11 C -5.5164 -4.0635 0.0 0
M  V30 12 C -6.2724 -2.7641 0.0 0
M  V30 END ATOM
M  V30 BEGIN BOND
M  V30 1 2 1 2
M  V30 2 1 2 3
M  V30 3 1 2 4
M  V30 4 1 3 5
M  V30 5 2 4 6
M  V30 6 1 4 7
M  V30 7 1 8 5 CFG=3
M  V30 8 1 8 9
M  V30 9 1 8 10
M  V30 10 1 9 11
M  V30 11 1 10 12
M  V30 12 1 11 12
M  V30 END BOND
M  V30 BEGIN COLLECTION
M  V30 MDLV30/STERAC1 ATOMS=(1 8)
M  V30 END COLLECTION
M  V30 END CTAB
M  END
>  <Molecule Name>
Methacrylic acid, tetrahydrofurfuryl ester

>  <Molecule Name 2>
Methacrylic acid, tetrahydrofurfuryl ester

>  <Activity>
0

$$$$
Salicylic acid, ethyl ester
Actelion Java MolfileCreator 2.0

  0  0  0  0  0  0              0 V3000
M  V30 BEGIN CTAB
M  V30 COUNTS 12 12 0 0 0
M  V30 BEGIN ATOM
M  V30 1 O 0.0 0.0 0.0 0
M  V30 2 C 0.0 -1.4996 0.0 0
M  V30 3 O -1.2988 -2.2553 0.0 0
M  V30 4 C 1.2988 -2.2553 0.0 0
M  V30 5 C -2.5977 -1.5114 0.0 0
M  V30 6 C 1.2988 -3.7549 0.0 0
M  V30 7 C 2.5977 -1.5114 0.0 0
M  V30 8 C -3.8966 -2.2671 0.0 0
M  V30 9 O 0.0 -4.4989 0.0 0
M  V30 10 C 2.5977 -4.5107 0.0 0
M  V30 11 C 3.8966 -2.2671 0.0 0
M  V30 12 C 3.8966 -3.7667 0.0 0
M  V30 END ATOM
M  V30 BEGIN BOND
M  V30 1 2 1 2
M  V30 2 1 2 3
M  V30 3 1 2 4
M  V30 4 1 3 5
M  V30 5 2 4 6
M  V30 6 1 4 7
M  V30 7 1 5 8
M  V30 8 1 6 9
M  V30 9 1 6 10
M  V30 10 2 7 11
M  V30 11 2 10 12
M  V30 12 1 11 12
M  V30 END BOND
M  V30 END CTAB
M  END
>  <Molecule Name>
Salicylic acid, ethyl ester

>  <Molecule Name 2>
Salicylic acid, ethyl ester

>  <Activity>
0

$$$$
o-Ethoxybenzoic acid
Actelion Java MolfileCreator 2.0

  0  0  0  0  0  0              0 V3000
M  V30 BEGIN CTAB
M  V30 COUNTS 12 12 0 0 0
M  V30 BEGIN ATOM
M  V30 1 O 0.0 0.0 0.0 0
M  V30 2 C -1.2993 -0.7559 0.0 0
M  V30 3 O -2.5986 0.0 0.0 0
M  V30 4 C -1.2993 -2.256 0.0 0
M  V30 5 C 0.0 -3.012 0.0 0
M  V30 6 C -2.5986 -3.0002 0.0 0
M  V30 7 O 1.2993 -2.2679 0.0 0
M  V30 8 C 0.0 -4.5121 0.0 0
M  V30 9 C -2.5986 -4.5003 0.0 0
M  V30 10 C 2.5986 -3.012 0.0 0
M  V30 11 C -1.2993 -5.2563 0.0 0
M  V30 12 C 3.8979 -2.2679 0.0 0
M  V30 END ATOM
M  V30 BEGIN BOND
M  V30 1 2 1 2
M  V30 2 1 2 3
M  V30 3 1 2 4
M  V30 4 2 4 5
M  V30 5 1 4 6
M  V30 6 1 5 7
M  V30 7 1 5 8
M  V30 8 2 6 9
M  V30 9 1 7 10
M  V30 10 2 8 11
M  V30 11 1 10 12
M  V30 12 1 9 11
M  V30 END BOND
M  V30 END CTAB
M  END
>  <Molecule Name>
o-Ethoxybenzoic acid

>  <Molecule Name 2>
o-Ethoxybenzoic acid

>  <Activity>
0

$$$$
beta-Methyl-beta-propyl-glycidic acid, ethyl ester
Actelion Java MolfileCreator 2.0

  0  0  0  0  0  0              0 V3000
M  V30 BEGIN CTAB
M  V30 COUNTS 12 12 0 0 0
M  V30 BEGIN ATOM
M  V30 1 O 0.0 0.0 0.0 0
M  V30 2 C 1.3766 0.8782 0.0 0
M  V30 3 O 2.6821 0.1305 0.0 0
M  V30 4 C 1.3766 2.3854 0.0 0 CFG=1
M  V30 5 C 3.9875 0.89 0.0 0
M  V30 6 O 0.6289 3.6908 0.0 0
M  V30 7 C -0.083 1.9937 0.0 0
M  V30 8 C 2.1361 3.6908 0.0 0
M  V30 9 C 5.293 0.1424 0.0 0
M  V30 10 C 0.178 0.7357 0.0 0
M  V30 11 C -1.5428 1.6021 0.0 0
M  V30 12 C -0.4747 3.4535 0.0 0
M  V30 END ATOM
M  V30 BEGIN BOND
M  V30 1 2 1 2
M  V30 2 1 2 3
M  V30 3 1 4 2 CFG=3
M  V30 4 1 3 5
M  V30 5 1 4 6
M  V30 6 1 4 7
M  V30 7 1 4 8
M  V30 8 1 5 9
M  V30 9 1 7 10
M  V30 10 1 7 11
M  V30 11 1 7 12
M  V30 12 1 6 8
M  V30 END BOND
M  V30 BEGIN COLLECTION
M  V30 MDLV30/STERAC1 ATOMS=(1 4)
M  V30 END COLLECTION
M  V30 END CTAB
M  END
>  <Molecule Name>
beta-Methyl-beta-propyl-glycidic acid, ethyl ester

>  <Molecule Name 2>
beta-Methyl-beta-propyl-glycidic acid, ethyl ester

>  <Activity>
0

$$$$
(1-Cyclohexenyl)allyl- acetonitrile
Actelion Java MolfileCreator 2.0

  0  0  0  0  0  0              0 V3000
M  V30 BEGIN CTAB
M  V30 COUNTS 12 12 0 0 0
M  V30 BEGIN ATOM
M  V30 1 N 0.0 0.0 0.0 0
M  V30 2 C 0.0 1.4998 0.0 0
M  V30 3 C 0.0 2.9997 0.0 0
M  V30 4 C 1.2991 3.7438 0.0 0
M  V30 5 C 2.5982 2.9879 0.0 0
M  V30 6 C 3.8973 3.732 0.0 0
M  V30 7 C 5.1964 2.9761 0.0 0
M  V30 8 C 5.1964 1.4762 0.0 0
M  V30 9 C 6.4956 3.7202 0.0 0
M  V30 10 C 6.4956 0.7204 0.0 0
M  V30 11 C 7.7947 2.9643 0.0 0
M  V30 12 C 7.7947 1.4644 0.0 0
M  V30 END ATOM
M  V30 BEGIN BOND
M  V30 1 3 1 2
M  V30 2 1 2 3
M  V30 3 1 3 4
M  V30 4 1 4 5
M  V30 5 2 5 6 CFG=2
M  V30 6 1 6 7
M  V30 7 2 7 8
M  V30 8 1 7 9
M  V30 9 1 8 10
M  V30 10 1 9 11
M  V30 11 1 10 12
M  V30 12 1 11 12
M  V30 END BOND
M  V30 END CTAB
M  END
>  <Molecule Name>
(1-Cyclohexenyl)allyl- acetonitrile

>  <Molecule Name 2>
(1-Cyclohexenyl)allyl- acetonitrile

>  <Activity>
0

$$$$
(2-Allylcyclohexylidene)acetonitrile
Actelion Java MolfileCreator 2.0

  0  0  0  0  0  0              0 V3000
M  V30 BEGIN CTAB
M  V30 COUNTS 12 12 0 0 0
M  V30 BEGIN ATOM
M  V30 1 N 0.0 0.0 0.0 0
M  V30 2 C 1.2993 -0.7559 0.0 0
M  V30 3 C 2.5986 -1.5119 0.0 0
M  V30 4 C 2.5986 -3.012 0.0 0
M  V30 5 C 3.8979 -3.768 0.0 0 CFG=2
M  V30 6 C 1.2993 -3.7562 0.0 0
M  V30 7 C 3.8979 -5.2681 0.0 0
M  V30 8 C 5.1972 -3.0238 0.0 0
M  V30 9 C 1.2993 -5.2563 0.0 0
M  V30 10 C 2.5986 -6.0123 0.0 0
M  V30 11 C 6.4966 -3.768 0.0 0
M  V30 12 C 7.7959 -3.0238 0.0 0
M  V30 END ATOM
M  V30 BEGIN BOND
M  V30 1 3 1 2
M  V30 2 1 2 3
M  V30 3 2 3 4 CFG=2
M  V30 4 1 4 5
M  V30 5 1 4 6
M  V30 6 1 5 7
M  V30 7 1 5 8 CFG=1
M  V30 8 1 6 9
M  V30 9 1 7 10
M  V30 10 1 8 11
M  V30 11 2 11 12
M  V30 12 1 9 10
M  V30 END BOND
M  V30 BEGIN COLLECTION
M  V30 MDLV30/STERAC1 ATOMS=(1 5)
M  V30 END COLLECTION
M  V30 END CTAB
M  END
>  <Molecule Name>
(2-Allylcyclohexylidene)acetonitrile

>  <Molecule Name 2>
(2-Allylcyclohexylidene)acetonitrile

>  <Activity>
0

$$$$
2,4,6-Trimethyl-1,2,5,6-tetrahydrobenzaldehyde oxime
Actelion Java MolfileCreator 2.0

  0  0  0  0  0  0              0 V3000
M  V30 BEGIN CTAB
M  V30 COUNTS 12 12 0 0 0
M  V30 BEGIN ATOM
M  V30 1 O 0.0 0.0 0.0 0
M  V30 2 N 1.2988 0.7439 0.0 0
M  V30 3 C 2.5977 -0.0118 0.0 0
M  V30 4 C 3.8966 0.7321 0.0 0
M  V30 5 C 3.8966 2.2317 0.0 0
M  V30 6 C 5.1955 -0.0236 0.0 0
M  V30 7 C 5.1955 2.9756 0.0 0
M  V30 8 C 2.5977 2.9756 0.0 0
M  V30 9 C 6.4944 0.7202 0.0 0
M  V30 10 C 5.1955 -1.5232 0.0 0
M  V30 11 C 6.4944 2.2317 0.0 0
M  V30 12 C 7.7933 2.9874 0.0 0
M  V30 END ATOM
M  V30 BEGIN BOND
M  V30 1 1 1 2
M  V30 2 2 2 3 CFG=2
M  V30 3 1 3 4
M  V30 4 1 4 5
M  V30 5 1 4 6
M  V30 6 1 5 7
M  V30 7 1 5 8
M  V30 8 1 6 9
M  V30 9 1 6 10
M  V30 10 2 7 11
M  V30 11 1 11 12
M  V30 12 1 9 11
M  V30 END BOND
M  V30 END CTAB
M  END
>  <Molecule Name>
2,4,6-Trimethyl-1,2,5,6-tetrahydrobenzaldehyde oxime

>  <Molecule Name 2>
2,4,6-Trimethyl-1,2,5,6-tetrahydrobenzaldehyde oxime

>  <Activity>
0

$$$$
2,6-Dimethyl-4-butylmorpholine
Actelion Java MolfileCreator 2.0

  0  0  0  0  0  0              0 V3000
M  V30 BEGIN CTAB
M  V30 COUNTS 12 12 0 0 0
M  V30 BEGIN ATOM
M  V30 1 O 0.0 0.0 0.0 0
M  V30 2 C 0.0 1.5001 0.0 0
M  V30 3 C -1.2993 -0.7559 0.0 0
M  V30 4 C -1.2993 2.2442 0.0 0
M  V30 5 C 1.2993 2.2442 0.0 0
M  V30 6 C -2.5986 0.0 0.0 0
M  V30 7 C -1.2993 -2.256 0.0 0
M  V30 8 N -2.5986 1.5001 0.0 0
M  V30 9 C -3.8979 2.2442 0.0 0
M  V30 10 C -5.1972 1.4883 0.0 0
M  V30 11 C -6.4966 2.2324 0.0 0
M  V30 12 C -7.7959 1.4765 0.0 0
M  V30 END ATOM
M  V30 BEGIN BOND
M  V30 1 1 1 2
M  V30 2 1 1 3
M  V30 3 1 2 4
M  V30 4 1 2 5
M  V30 5 1 3 6
M  V30 6 1 3 7
M  V30 7 1 4 8
M  V30 8 1 8 9
M  V30 9 1 9 10
M  V30 10 1 10 11
M  V30 11 1 11 12
M  V30 12 1 6 8
M  V30 END BOND
M  V30 END CTAB
M  END
>  <Molecule Name>
2,6-Dimethyl-4-butylmorpholine

>  <Molecule Name 2>
2,6-Dimethyl-4-butylmorpholine

>  <Activity>
0

$$$$
1-Phenylcyclohexene
Actelion Java MolfileCreator 2.0

  0  0  0  0  0  0              0 V3000
M  V30 BEGIN CTAB
M  V30 COUNTS 12 13 0 0 0
M  V30 BEGIN ATOM
M  V30 1 C 0.0 0.0 0.0 0
M  V30 2 C -1.2993 -0.7441 0.0 0
M  V30 3 C 1.2993 -0.7559 0.0 0
M  V30 4 C 0.0 1.5001 0.0 0
M  V30 5 C -2.5986 0.0118 0.0 0
M  V30 6 C -1.2993 -2.2442 0.0 0
M  V30 7 C 2.5986 -0.0118 0.0 0
M  V30 8 C 1.2993 2.2442 0.0 0
M  V30 9 C -3.8979 -0.7323 0.0 0
M  V30 10 C -2.5986 -2.9884 0.0 0
M  V30 11 C 2.5986 1.4883 0.0 0
M  V30 12 C -3.8979 -2.2324 0.0 0
M  V30 END ATOM
M  V30 BEGIN BOND
M  V30 1 1 1 2
M  V30 2 2 1 3
M  V30 3 1 1 4
M  V30 4 2 2 5
M  V30 5 1 2 6
M  V30 6 1 3 7
M  V30 7 2 4 8
M  V30 8 1 5 9
M  V30 9 1 6 10
M  V30 10 2 7 11
M  V30 11 1 9 12
M  V30 12 1 8 11
M  V30 13 1 10 12
M  V30 END BOND
M  V30 END CTAB
M  END
>  <Molecule Name>
1-Phenylcyclohexene

>  <Molecule Name 2>
1-Phenylcyclohexene

>  <Activity>
0

$$$$
Dicyclohexyl
Actelion Java MolfileCreator 2.0

  0  0  0  0  0  0              0 V3000
M  V30 BEGIN CTAB
M  V30 COUNTS 12 13 0 0 0
M  V30 BEGIN ATOM
M  V30 1 C 0.0 0.0 0.0 0
M  V30 2 C -1.3001 -0.7446 0.0 0
M  V30 3 C 1.3001 -0.7446 0.0 0
M  V30 4 C 0.0 1.501 0.0 0
M  V30 5 C -2.6002 0.0 0.0 0
M  V30 6 C -1.3001 -2.2456 0.0 0
M  V30 7 C 2.6002 0.0 0.0 0
M  V30 8 C 1.3001 2.2574 0.0 0
M  V30 9 C -3.9003 -0.7446 0.0 0
M  V30 10 C -2.6002 -2.9902 0.0 0
M  V30 11 C 2.6002 1.501 0.0 0
M  V30 12 C -3.9003 -2.2456 0.0 0
M  V30 END ATOM
M  V30 BEGIN BOND
M  V30 1 1 1 2
M  V30 2 1 1 3
M  V30 3 1 1 4
M  V30 4 1 2 5
M  V30 5 1 2 6
M  V30 6 1 3 7
M  V30 7 1 4 8
M  V30 8 1 5 9
M  V30 9 1 6 10
M  V30 10 1 7 11
M  V30 11 1 9 12
M  V30 12 1 8 11
M  V30 13 1 10 12
M  V30 END BOND
M  V30 END CTAB
M  END
>  <Molecule Name>
Dicyclohexyl

>  <Molecule Name 2>
Dicyclohexyl

>  <Activity>
0

$$$$
Safrole
Actelion Java MolfileCreator 2.0

  0  0  0  0  0  0              0 V3000
M  V30 BEGIN CTAB
M  V30 COUNTS 12 13 0 0 0
M  V30 BEGIN ATOM
M  V30 1 O 0.0 0.0 0.0 0
M  V30 2 C -0.3069 -1.464 0.0 0
M  V30 3 C 1.4876 0.1534 0.0 0
M  V30 4 C 0.9917 -2.2197 0.0 0
M  V30 5 C -1.6057 -2.2197 0.0 0
M  V30 6 O 2.1016 -1.2161 0.0 0
M  V30 7 C 0.9917 -3.7192 0.0 0
M  V30 8 C -1.6057 -3.7192 0.0 0
M  V30 9 C -0.3069 -4.4748 0.0 0
M  V30 10 C -2.9045 -4.4748 0.0 0
M  V30 11 C -4.2032 -3.731 0.0 0
M  V30 12 C -5.502 -4.4866 0.0 0
M  V30 END ATOM
M  V30 BEGIN BOND
M  V30 1 1 1 2
M  V30 2 1 1 3
M  V30 3 2 2 4
M  V30 4 1 2 5
M  V30 5 1 3 6
M  V30 6 1 4 7
M  V30 7 2 5 8
M  V30 8 2 7 9
M  V30 9 1 8 10
M  V30 10 1 10 11
M  V30 11 2 11 12
M  V30 12 1 4 6
M  V30 13 1 8 9
M  V30 END BOND
M  V30 END CTAB
M  END
>  <Molecule Name>
Safrole

>  <Molecule Name 2>
Safrole

>  <Activity>
0

$$$$
Dihydrosafrole
Actelion Java MolfileCreator 2.0

  0  0  0  0  0  0              0 V3000
M  V30 BEGIN CTAB
M  V30 COUNTS 12 13 0 0 0
M  V30 BEGIN ATOM
M  V30 1 O 0.0 0.0 0.0 0
M  V30 2 C -1.1098 -1.0036 0.0 0
M  V30 3 C -0.6139 1.3696 0.0 0
M  V30 4 C -1.1098 -2.5031 0.0 0
M  V30 5 C -2.4086 -0.2597 0.0 0 CFG=1
M  V30 6 O -2.1016 1.2161 0.0 0
M  V30 7 C -2.4086 -3.2587 0.0 0
M  V30 8 C -3.7074 -1.0154 0.0 0
M  V30 9 C -3.7074 -2.5149 0.0 0
M  V30 10 C -5.0062 -3.2705 0.0 0
M  V30 11 C -6.305 -2.5267 0.0 0
M  V30 12 C -7.6037 -3.2823 0.0 0
M  V30 END ATOM
M  V30 BEGIN BOND
M  V30 1 1 1 2
M  V30 2 1 1 3
M  V30 3 2 2 4
M  V30 4 1 2 5
M  V30 5 1 3 6
M  V30 6 1 4 7
M  V30 7 1 5 8
M  V30 8 2 7 9
M  V30 9 1 9 10
M  V30 10 1 10 11
M  V30 11 2 11 12
M  V30 12 1 5 6 CFG=3
M  V30 13 1 8 9
M  V30 END BOND
M  V30 BEGIN COLLECTION
M  V30 MDLV30/STERAC1 ATOMS=(1 5)
M  V30 END COLLECTION
M  V30 END CTAB
M  END
>  <Molecule Name>
Dihydrosafrole

>  <Molecule Name 2>
Dihydrosafrole

>  <Activity>
0

$$$$
Decamethylene bromide
Actelion Java MolfileCreator 2.0

  0  0  0  0  0  0              0 V3000
M  V30 BEGIN CTAB
M  V30 COUNTS 12 11 0 0 0
M  V30 BEGIN ATOM
M  V30 1 Br 0.0 0.0 0.0 0
M  V30 2 C 1.3004 0.7475 0.0 0
M  V30 3 C 2.6009 0.0 0.0 0
M  V30 4 C 3.9014 0.7475 0.0 0
M  V30 5 C 5.2018 0.0 0.0 0
M  V30 6 C 6.5023 0.7475 0.0 0
M  V30 7 C 7.8028 0.0 0.0 0
M  V30 8 C 9.1032 0.7475 0.0 0
M  V30 9 C 10.4037 0.0 0.0 0
M  V30 10 C 11.7042 0.7475 0.0 0
M  V30 11 C 13.0047 0.0 0.0 0
M  V30 12 Br 14.3051 0.7475 0.0 0
M  V30 END ATOM
M  V30 BEGIN BOND
M  V30 1 1 1 2
M  V30 2 1 2 3
M  V30 3 1 3 4
M  V30 4 1 4 5
M  V30 5 1 5 6
M  V30 6 1 6 7
M  V30 7 1 7 8
M  V30 8 1 8 9
M  V30 9 1 9 10
M  V30 10 1 10 11
M  V30 11 1 11 12
M  V30 END BOND
M  V30 END CTAB
M  END
>  <Molecule Name>
Decamethylene bromide

>  <Molecule Name 2>
Decamethylene bromide

>  <Activity>
0

$$$$
Undecyl chloride
Actelion Java MolfileCreator 2.0

  0  0  0  0  0  0              0 V3000
M  V30 BEGIN CTAB
M  V30 COUNTS 12 11 0 0 0
M  V30 BEGIN ATOM
M  V30 1 Cl 0.0 0.0 0.0 0
M  V30 2 C 1.3004 0.7475 0.0 0
M  V30 3 C 2.6009 0.0 0.0 0
M  V30 4 C 3.9014 0.7475 0.0 0
M  V30 5 C 5.2018 0.0 0.0 0
M  V30 6 C 6.5023 0.7475 0.0 0
M  V30 7 C 7.8028 0.0 0.0 0
M  V30 8 C 9.1032 0.7475 0.0 0
M  V30 9 C 10.4037 0.0 0.0 0
M  V30 10 C 11.7042 0.7475 0.0 0
M  V30 11 C 13.0047 0.0 0.0 0
M  V30 12 C 14.3051 0.7475 0.0 0
M  V30 END ATOM
M  V30 BEGIN BOND
M  V30 1 1 1 2
M  V30 2 1 2 3
M  V30 3 1 3 4
M  V30 4 1 4 5
M  V30 5 1 5 6
M  V30 6 1 6 7
M  V30 7 1 7 8
M  V30 8 1 8 9
M  V30 9 1 9 10
M  V30 10 1 10 11
M  V30 11 1 11 12
M  V30 END BOND
M  V30 END CTAB
M  END
>  <Molecule Name>
Undecyl chloride

>  <Molecule Name 2>
Undecyl chloride

>  <Activity>
0

$$$$
Fumaric acid, diethyl ester
Actelion Java MolfileCreator 2.0

  0  0  0  0  0  0              0 V3000
M  V30 BEGIN CTAB
M  V30 COUNTS 12 11 0 0 0
M  V30 BEGIN ATOM
M  V30 1 O 0.0 0.0 0.0 0
M  V30 2 C 0.0 1.5001 0.0 0
M  V30 3 O 1.2993 2.2443 0.0 0
M  V30 4 C -1.2993 2.2443 0.0 0
M  V30 5 C 2.5986 1.4883 0.0 0
M  V30 6 C -2.5986 1.4883 0.0 0
M  V30 7 C 3.8979 2.2324 0.0 0
M  V30 8 C -3.8979 2.2324 0.0 0
M  V30 9 O -3.8979 3.7326 0.0 0
M  V30 10 O -5.1973 1.4765 0.0 0
M  V30 11 C -6.4966 2.2206 0.0 0
M  V30 12 C -7.7959 1.4647 0.0 0
M  V30 END ATOM
M  V30 BEGIN BOND
M  V30 1 2 1 2
M  V30 2 1 2 3
M  V30 3 1 2 4
M  V30 4 1 3 5
M  V30 5 2 4 6
M  V30 6 1 5 7
M  V30 7 1 6 8
M  V30 8 2 8 9
M  V30 9 1 8 10
M  V30 10 1 10 11
M  V30 11 1 11 12
M  V30 END BOND
M  V30 END CTAB
M  END
>  <Molecule Name>
Fumaric acid, diethyl ester

>  <Molecule Name 2>
Fumaric acid, diethyl ester

>  <Activity>
0

$$$$
Succinic acid, diethyl ester
Actelion Java MolfileCreator 2.0

  0  0  0  0  0  0              0 V3000
M  V30 BEGIN CTAB
M  V30 COUNTS 12 11 0 0 0
M  V30 BEGIN ATOM
M  V30 1 O 0.0 0.0 0.0 0
M  V30 2 C 0.0 1.5001 0.0 0
M  V30 3 O 1.2993 2.2443 0.0 0
M  V30 4 C -1.2993 2.2443 0.0 0
M  V30 5 C 2.5986 1.4883 0.0 0
M  V30 6 C -2.5986 1.4883 0.0 0
M  V30 7 C 3.8979 2.2324 0.0 0
M  V30 8 C -3.8979 2.2324 0.0 0
M  V30 9 O -3.8979 3.7326 0.0 0
M  V30 10 O -5.1973 1.4765 0.0 0
M  V30 11 C -6.4966 2.2206 0.0 0
M  V30 12 C -7.7959 1.4647 0.0 0
M  V30 END ATOM
M  V30 BEGIN BOND
M  V30 1 2 1 2
M  V30 2 1 2 3
M  V30 3 1 2 4
M  V30 4 1 3 5
M  V30 5 1 4 6
M  V30 6 1 5 7
M  V30 7 1 6 8
M  V30 8 2 8 9
M  V30 9 1 8 10
M  V30 10 1 10 11
M  V30 11 1 11 12
M  V30 END BOND
M  V30 END CTAB
M  END
>  <Molecule Name>
Succinic acid, diethyl ester

>  <Molecule Name 2>
Succinic acid, diethyl ester

>  <Activity>
0

$$$$
Methylenemalonic acid, diethyl ester
Actelion Java MolfileCreator 2.0

  0  0  0  0  0  0              0 V3000
M  V30 BEGIN CTAB
M  V30 COUNTS 12 11 0 0 0
M  V30 BEGIN ATOM
M  V30 1 O 0.0 0.0 0.0 0
M  V30 2 C 0.0 -1.4993 0.0 0
M  V30 3 O 1.2986 -2.2549 0.0 0
M  V30 4 C -1.2986 -2.2549 0.0 0
M  V30 5 C 2.5972 -1.5111 0.0 0
M  V30 6 C -2.5972 -1.5111 0.0 0
M  V30 7 C -1.2986 -3.7542 0.0 0
M  V30 8 C 3.8959 -2.2667 0.0 0
M  V30 9 O -2.5972 -0.0118 0.0 0
M  V30 10 O -3.8959 -2.2667 0.0 0
M  V30 11 C -5.1945 -1.5229 0.0 0
M  V30 12 C -6.4932 -2.2785 0.0 0
M  V30 END ATOM
M  V30 BEGIN BOND
M  V30 1 2 1 2
M  V30 2 1 2 3
M  V30 3 1 2 4
M  V30 4 1 3 5
M  V30 5 1 4 6
M  V30 6 2 4 7
M  V30 7 1 5 8
M  V30 8 2 6 9
M  V30 9 1 6 10
M  V30 10 1 10 11
M  V30 11 1 11 12
M  V30 END BOND
M  V30 END CTAB
M  END
>  <Molecule Name>
Methylenemalonic acid, diethyl ester

>  <Molecule Name 2>
Methylenemalonic acid, diethyl ester

>  <Activity>
0

$$$$
Acetoxyacetic acid, sec-butyl ester
Actelion Java MolfileCreator 2.0

  0  0  0  0  0  0              0 V3000
M  V30 BEGIN CTAB
M  V30 COUNTS 12 11 0 0 0
M  V30 BEGIN ATOM
M  V30 1 O 0.0 0.0 0.0 0
M  V30 2 C 0.0 1.4998 0.0 0
M  V30 3 O -1.2991 2.2439 0.0 0
M  V30 4 C 1.2991 2.2439 0.0 0
M  V30 5 C -2.5982 1.488 0.0 0 CFG=2
M  V30 6 O 2.5982 1.488 0.0 0
M  V30 7 C -3.8973 2.2321 0.0 0
M  V30 8 C -2.5982 -0.0118 0.0 0
M  V30 9 C 3.8973 2.2321 0.0 0
M  V30 10 C -5.1964 1.4762 0.0 0
M  V30 11 O 3.8973 3.7319 0.0 0
M  V30 12 C 5.1964 1.4762 0.0 0
M  V30 END ATOM
M  V30 BEGIN BOND
M  V30 1 2 1 2
M  V30 2 1 2 3
M  V30 3 1 2 4
M  V30 4 1 3 5
M  V30 5 1 4 6
M  V30 6 1 5 7
M  V30 7 1 5 8 CFG=1
M  V30 8 1 6 9
M  V30 9 1 7 10
M  V30 10 2 9 11
M  V30 11 1 9 12
M  V30 END BOND
M  V30 BEGIN COLLECTION
M  V30 MDLV30/STERAC1 ATOMS=(1 5)
M  V30 END COLLECTION
M  V30 END CTAB
M  END
>  <Molecule Name>
Acetoxyacetic acid, sec-butyl ester

>  <Molecule Name 2>
Acetoxyacetic acid, sec-butyl ester

>  <Activity>
0

$$$$
alpha-Acetoxypropionic acid, iso-propyl ester
Actelion Java MolfileCreator 2.0

  0  0  0  0  0  0              0 V3000
M  V30 BEGIN CTAB
M  V30 COUNTS 12 11 0 0 0
M  V30 BEGIN ATOM
M  V30 1 O 0.0 0.0 0.0 0
M  V30 2 C 0.0 -1.4996 0.0 0
M  V30 3 O -1.2988 -2.2553 0.0 0
M  V30 4 C 1.2988 -2.2553 0.0 0 CFG=1
M  V30 5 C -2.5977 -1.5114 0.0 0
M  V30 6 O 2.5977 -1.5114 0.0 0
M  V30 7 C 1.2988 -3.7549 0.0 0
M  V30 8 C -2.5977 -0.0118 0.0 0
M  V30 9 C -3.8966 -2.2671 0.0 0
M  V30 10 C 3.8966 -2.2671 0.0 0
M  V30 11 O 3.8966 -3.7667 0.0 0
M  V30 12 C 5.1955 -1.5232 0.0 0
M  V30 END ATOM
M  V30 BEGIN BOND
M  V30 1 2 1 2
M  V30 2 1 2 3
M  V30 3 1 2 4
M  V30 4 1 3 5
M  V30 5 1 4 6
M  V30 6 1 4 7 CFG=1
M  V30 7 1 5 8
M  V30 8 1 5 9
M  V30 9 1 6 10
M  V30 10 2 10 11
M  V30 11 1 10 12
M  V30 END BOND
M  V30 BEGIN COLLECTION
M  V30 MDLV30/STERAC1 ATOMS=(1 4)
M  V30 END COLLECTION
M  V30 END CTAB
M  END
>  <Molecule Name>
alpha-Acetoxypropionic acid, iso-propyl ester

>  <Molecule Name 2>
alpha-Acetoxypropionic acid, iso-propyl ester

>  <Activity>
0

$$$$
Oxalic acid, di-iso-propyl ester
Actelion Java MolfileCreator 2.0

  0  0  0  0  0  0              0 V3000
M  V30 BEGIN CTAB
M  V30 COUNTS 12 11 0 0 0
M  V30 BEGIN ATOM
M  V30 1 O 0.0 0.0 0.0 0
M  V30 2 C 0.0 1.5001 0.0 0
M  V30 3 O 1.2993 2.2443 0.0 0
M  V30 4 C -1.2993 2.2443 0.0 0
M  V30 5 C 2.5987 1.4883 0.0 0
M  V30 6 O -1.2993 3.7445 0.0 0
M  V30 7 O -2.5987 1.4883 0.0 0
M  V30 8 C 3.898 2.2325 0.0 0
M  V30 9 C 2.5987 -0.0118 0.0 0
M  V30 10 C -3.898 2.2325 0.0 0
M  V30 11 C -3.898 3.7326 0.0 0
M  V30 12 C -5.1974 1.4765 0.0 0
M  V30 END ATOM
M  V30 BEGIN BOND
M  V30 1 2 1 2
M  V30 2 1 2 3
M  V30 3 1 2 4
M  V30 4 1 3 5
M  V30 5 2 4 6
M  V30 6 1 4 7
M  V30 7 1 5 8
M  V30 8 1 5 9
M  V30 9 1 7 10
M  V30 10 1 10 11
M  V30 11 1 10 12
M  V30 END BOND
M  V30 END CTAB
M  END
>  <Molecule Name>
Oxalic acid, di-iso-propyl ester

>  <Molecule Name 2>
Oxalic acid, di-iso-propyl ester

>  <Activity>
0

$$$$
Malonic acid, ethyl propyl ester
Actelion Java MolfileCreator 2.0

  0  0  0  0  0  0              0 V3000
M  V30 BEGIN CTAB
M  V30 COUNTS 12 11 0 0 0
M  V30 BEGIN ATOM
M  V30 1 O 0.0 0.0 0.0 0
M  V30 2 C 0.0 -1.4996 0.0 0
M  V30 3 O 1.2988 -2.2553 0.0 0
M  V30 4 C -1.2988 -2.2553 0.0 0
M  V30 5 C 2.5977 -1.5114 0.0 0
M  V30 6 C -2.5977 -1.5114 0.0 0
M  V30 7 C 3.8966 -2.2671 0.0 0
M  V30 8 O -2.5977 -0.0118 0.0 0
M  V30 9 O -3.8966 -2.2671 0.0 0
M  V30 10 C 5.1954 -1.5232 0.0 0
M  V30 11 C -5.1954 -1.5232 0.0 0
M  V30 12 C -6.4943 -2.2789 0.0 0
M  V30 END ATOM
M  V30 BEGIN BOND
M  V30 1 2 1 2
M  V30 2 1 2 3
M  V30 3 1 2 4
M  V30 4 1 3 5
M  V30 5 1 4 6
M  V30 6 1 5 7
M  V30 7 2 6 8
M  V30 8 1 6 9
M  V30 9 1 7 10
M  V30 10 1 9 11
M  V30 11 1 11 12
M  V30 END BOND
M  V30 END CTAB
M  END
>  <Molecule Name>
Malonic acid, ethyl propyl ester

>  <Molecule Name 2>
Malonic acid, ethyl propyl ester

>  <Activity>
0

$$$$
Lactic acid, beta-chloroethoxyethyl ester
Actelion Java MolfileCreator 2.0

  0  0  0  0  0  0              0 V3000
M  V30 BEGIN CTAB
M  V30 COUNTS 12 11 0 0 0
M  V30 BEGIN ATOM
M  V30 1 Cl 0.0 0.0 0.0 0
M  V30 2 C 1.297 0.7546 0.0 0
M  V30 3 C 2.594 0.0 0.0 0
M  V30 4 O 3.891 0.7546 0.0 0
M  V30 5 C 5.188 0.0 0.0 0
M  V30 6 C 6.485 0.7546 0.0 0
M  V30 7 O 7.782 0.0 0.0 0
M  V30 8 C 9.079 0.7546 0.0 0
M  V30 9 O 9.079 2.252 0.0 0
M  V30 10 C 10.376 0.0 0.0 0 CFG=1
M  V30 11 O 11.673 0.7546 0.0 0
M  V30 12 C 10.376 -1.4974 0.0 0
M  V30 END ATOM
M  V30 BEGIN BOND
M  V30 1 1 1 2
M  V30 2 1 2 3
M  V30 3 1 3 4
M  V30 4 1 4 5
M  V30 5 1 5 6
M  V30 6 1 6 7
M  V30 7 1 7 8
M  V30 8 2 8 9
M  V30 9 1 8 10
M  V30 10 1 10 11 CFG=1
M  V30 11 1 10 12
M  V30 END BOND
M  V30 BEGIN COLLECTION
M  V30 MDLV30/STERAC1 ATOMS=(1 10)
M  V30 END COLLECTION
M  V30 END CTAB
M  END
>  <Molecule Name>
Lactic acid, beta-chloroethoxyethyl ester

>  <Molecule Name 2>
Lactic acid, beta-chloroethoxyethyl ester

>  <Activity>
0

$$$$
Caproic acid, n-butyl ester
Actelion Java MolfileCreator 2.0

  0  0  0  0  0  0              0 V3000
M  V30 BEGIN CTAB
M  V30 COUNTS 12 11 0 0 0
M  V30 BEGIN ATOM
M  V30 1 O 0.0 0.0 0.0 0
M  V30 2 C 0.0 -1.4993 0.0 0
M  V30 3 O -1.2986 -2.2548 0.0 0
M  V30 4 C 1.2986 -2.2548 0.0 0
M  V30 5 C -2.5972 -1.5111 0.0 0
M  V30 6 C 2.5972 -1.5111 0.0 0
M  V30 7 C -3.8958 -2.2666 0.0 0
M  V30 8 C 3.8958 -2.2666 0.0 0
M  V30 9 C -5.1944 -1.5229 0.0 0
M  V30 10 C 5.1944 -1.5229 0.0 0
M  V30 11 C -6.4931 -2.2784 0.0 0
M  V30 12 C 6.4931 -2.2784 0.0 0
M  V30 END ATOM
M  V30 BEGIN BOND
M  V30 1 2 1 2
M  V30 2 1 2 3
M  V30 3 1 2 4
M  V30 4 1 3 5
M  V30 5 1 4 6
M  V30 6 1 5 7
M  V30 7 1 6 8
M  V30 8 1 7 9
M  V30 9 1 8 10
M  V30 10 1 9 11
M  V30 11 1 10 12
M  V30 END BOND
M  V30 END CTAB
M  END
>  <Molecule Name>
Caproic acid, n-butyl ester

>  <Molecule Name 2>
Caproic acid, n-butyl ester

>  <Activity>
0

$$$$
Valeric acid, amyl ester
Actelion Java MolfileCreator 2.0

  0  0  0  0  0  0              0 V3000
M  V30 BEGIN CTAB
M  V30 COUNTS 12 11 0 0 0
M  V30 BEGIN ATOM
M  V30 1 O 0.0 0.0 0.0 0
M  V30 2 C 0.0 1.4971 0.0 0
M  V30 3 O -1.2967 2.2516 0.0 0
M  V30 4 C 1.2967 2.2516 0.0 0
M  V30 5 C -2.5935 1.4971 0.0 0
M  V30 6 C 2.5935 1.4971 0.0 0
M  V30 7 C -3.8902 2.2516 0.0 0
M  V30 8 C 3.8902 2.2516 0.0 0
M  V30 9 C -5.187 1.4971 0.0 0
M  V30 10 C 5.187 1.4971 0.0 0
M  V30 11 C -6.4838 2.2516 0.0 0
M  V30 12 C -7.7805 1.4971 0.0 0
M  V30 END ATOM
M  V30 BEGIN BOND
M  V30 1 2 1 2
M  V30 2 1 2 3
M  V30 3 1 2 4
M  V30 4 1 3 5
M  V30 5 1 4 6
M  V30 6 1 5 7
M  V30 7 1 6 8
M  V30 8 1 7 9
M  V30 9 1 8 10
M  V30 10 1 9 11
M  V30 11 1 11 12
M  V30 END BOND
M  V30 END CTAB
M  END
>  <Molecule Name>
Valeric acid, amyl ester

>  <Molecule Name 2>
Valeric acid, amyl ester

>  <Activity>
0

$$$$
2-Heptynoic acid, propargyl ester
Actelion Java MolfileCreator 2.0

  0  0  0  0  0  0              0 V3000
M  V30 BEGIN CTAB
M  V30 COUNTS 12 11 0 0 0
M  V30 BEGIN ATOM
M  V30 1 O 0.0 0.0 0.0 0
M  V30 2 C -1.3002 -0.7447 0.0 0
M  V30 3 O -2.6005 0.0 0.0 0
M  V30 4 C -1.3002 -2.2459 0.0 0
M  V30 5 C -2.6005 1.5012 0.0 0
M  V30 6 C -1.3002 -3.7471 0.0 0
M  V30 7 C -3.9008 2.2459 0.0 0
M  V30 8 C -1.3002 -5.2484 0.0 0
M  V30 9 C -5.2011 3.0024 0.0 0
M  V30 10 C -2.6005 -5.9931 0.0 0
M  V30 11 C -3.9008 -5.2484 0.0 0
M  V30 12 C -5.2011 -5.9931 0.0 0
M  V30 END ATOM
M  V30 BEGIN BOND
M  V30 1 2 1 2
M  V30 2 1 2 3
M  V30 3 1 2 4
M  V30 4 1 3 5
M  V30 5 3 4 6
M  V30 6 1 5 7
M  V30 7 1 6 8
M  V30 8 3 7 9
M  V30 9 1 8 10
M  V30 10 1 10 11
M  V30 11 1 11 12
M  V30 END BOND
M  V30 END CTAB
M  END
>  <Molecule Name>
2-Heptynoic acid, propargyl ester

>  <Molecule Name 2>
2-Heptynoic acid, propargyl ester

>  <Activity>
0

$$$$
Acrylic acid, 2-heptyl ester
Actelion Java MolfileCreator 2.0

  0  0  0  0  0  0              0 V3000
M  V30 BEGIN CTAB
M  V30 COUNTS 12 11 0 0 0
M  V30 BEGIN ATOM
M  V30 1 O 0.0 0.0 0.0 0
M  V30 2 C 0.0 -1.4996 0.0 0
M  V30 3 O -1.2988 -2.2553 0.0 0
M  V30 4 C 1.2988 -2.2553 0.0 0
M  V30 5 C -2.5977 -1.5114 0.0 0 CFG=2
M  V30 6 C 2.5977 -1.5114 0.0 0
M  V30 7 C -3.8966 -2.2671 0.0 0
M  V30 8 C -2.5977 -0.0118 0.0 0
M  V30 9 C -5.1954 -1.5232 0.0 0
M  V30 10 C -6.4943 -2.2789 0.0 0
M  V30 11 C -7.7932 -1.535 0.0 0
M  V30 12 C -9.092 -2.2907 0.0 0
M  V30 END ATOM
M  V30 BEGIN BOND
M  V30 1 2 1 2
M  V30 2 1 2 3
M  V30 3 1 2 4
M  V30 4 1 3 5
M  V30 5 2 4 6
M  V30 6 1 5 7
M  V30 7 1 5 8 CFG=3
M  V30 8 1 7 9
M  V30 9 1 9 10
M  V30 10 1 10 11
M  V30 11 1 11 12
M  V30 END BOND
M  V30 BEGIN COLLECTION
M  V30 MDLV30/STERAC1 ATOMS=(1 5)
M  V30 END COLLECTION
M  V30 END CTAB
M  END
>  <Molecule Name>
Acrylic acid, 2-heptyl ester

>  <Molecule Name 2>
Acrylic acid, 2-heptyl ester

>  <Activity>
0

$$$$
alpha-Ethylvaleric acid, allyl ester
Actelion Java MolfileCreator 2.0

  0  0  0  0  0  0              0 V3000
M  V30 BEGIN CTAB
M  V30 COUNTS 12 11 0 0 0
M  V30 BEGIN ATOM
M  V30 1 O 0.0 0.0 0.0 0
M  V30 2 C 0.0 1.4996 0.0 0
M  V30 3 O 1.2988 2.2434 0.0 0
M  V30 4 C -1.2988 2.2434 0.0 0 CFG=2
M  V30 5 C 2.5977 1.4877 0.0 0
M  V30 6 C -2.5977 1.4877 0.0 0
M  V30 7 C -1.2988 3.743 0.0 0
M  V30 8 C 3.8966 2.2316 0.0 0
M  V30 9 C -3.8966 2.2316 0.0 0
M  V30 10 C 0.0 4.4988 0.0 0
M  V30 11 C 5.1954 1.4759 0.0 0
M  V30 12 C -5.1954 1.4759 0.0 0
M  V30 END ATOM
M  V30 BEGIN BOND
M  V30 1 2 1 2
M  V30 2 1 2 3
M  V30 3 1 2 4
M  V30 4 1 3 5
M  V30 5 1 4 6 CFG=3
M  V30 6 1 4 7
M  V30 7 1 5 8
M  V30 8 1 6 9
M  V30 9 1 7 10
M  V30 10 2 8 11
M  V30 11 1 9 12
M  V30 END BOND
M  V30 BEGIN COLLECTION
M  V30 MDLV30/STERAC1 ATOMS=(1 4)
M  V30 END COLLECTION
M  V30 END CTAB
M  END
>  <Molecule Name>
alpha-Ethylvaleric acid, allyl ester

>  <Molecule Name 2>
alpha-Ethylvaleric acid, allyl ester

>  <Activity>
0

$$$$
2-Nonenoic acid, methyl ester
Actelion Java MolfileCreator 2.0

  0  0  0  0  0  0              0 V3000
M  V30 BEGIN CTAB
M  V30 COUNTS 12 11 0 0 0
M  V30 BEGIN ATOM
M  V30 1 O 0.0 0.0 0.0 0
M  V30 2 C 0.0 1.4998 0.0 0
M  V30 3 O -1.299 2.2438 0.0 0
M  V30 4 C 1.299 2.2438 0.0 0
M  V30 5 C -2.5981 1.488 0.0 0
M  V30 6 C 2.5981 1.488 0.0 0
M  V30 7 C 3.8972 2.232 0.0 0
M  V30 8 C 5.1963 1.4762 0.0 0
M  V30 9 C 6.4954 2.2202 0.0 0
M  V30 10 C 7.7945 1.4644 0.0 0
M  V30 11 C 9.0936 2.2084 0.0 0
M  V30 12 C 10.3926 1.4526 0.0 0
M  V30 END ATOM
M  V30 BEGIN BOND
M  V30 1 2 1 2
M  V30 2 1 2 3
M  V30 3 1 2 4
M  V30 4 1 3 5
M  V30 5 2 4 6 CFG=2
M  V30 6 1 6 7
M  V30 7 1 7 8
M  V30 8 1 8 9
M  V30 9 1 9 10
M  V30 10 1 10 11
M  V30 11 1 11 12
M  V30 END BOND
M  V30 END CTAB
M  END
>  <Molecule Name>
2-Nonenoic acid, methyl ester

>  <Molecule Name 2>
2-Nonenoic acid, methyl ester

>  <Activity>
0

$$$$
Acetic acid, octyl ester
Actelion Java MolfileCreator 2.0

  0  0  0  0  0  0              0 V3000
M  V30 BEGIN CTAB
M  V30 COUNTS 12 11 0 0 0
M  V30 BEGIN ATOM
M  V30 1 O 0.0 0.0 0.0 0
M  V30 2 C 0.0 -1.4971 0.0 0
M  V30 3 O -1.2967 -2.2516 0.0 0
M  V30 4 C 1.2967 -2.2516 0.0 0
M  V30 5 C -2.5935 -1.4971 0.0 0
M  V30 6 C -3.8902 -2.2516 0.0 0
M  V30 7 C -5.187 -1.4971 0.0 0
M  V30 8 C -6.4838 -2.2516 0.0 0
M  V30 9 C -7.7805 -1.4971 0.0 0
M  V30 10 C -9.0773 -2.2516 0.0 0
M  V30 11 C -10.3741 -1.4971 0.0 0
M  V30 12 C -11.6708 -2.2516 0.0 0
M  V30 END ATOM
M  V30 BEGIN BOND
M  V30 1 2 1 2
M  V30 2 1 2 3
M  V30 3 1 2 4
M  V30 4 1 3 5
M  V30 5 1 5 6
M  V30 6 1 6 7
M  V30 7 1 7 8
M  V30 8 1 8 9
M  V30 9 1 9 10
M  V30 10 1 10 11
M  V30 11 1 11 12
M  V30 END BOND
M  V30 END CTAB
M  END
>  <Molecule Name>
Acetic acid, octyl ester

>  <Molecule Name 2>
Acetic acid, octyl ester

>  <Activity>
0

$$$$
Acetic acid, 2-ethylhexyl ester
Actelion Java MolfileCreator 2.0

  0  0  0  0  0  0              0 V3000
M  V30 BEGIN CTAB
M  V30 COUNTS 12 11 0 0 0
M  V30 BEGIN ATOM
M  V30 1 O 0.0 0.0 0.0 0
M  V30 2 C 0.0 -1.4996 0.0 0
M  V30 3 O -1.2988 -2.2553 0.0 0
M  V30 4 C 1.2988 -2.2553 0.0 0
M  V30 5 C -2.5977 -1.5114 0.0 0
M  V30 6 C -3.8966 -2.2671 0.0 0 CFG=2
M  V30 7 C -5.1954 -1.5232 0.0 0
M  V30 8 C -3.8966 -3.7667 0.0 0
M  V30 9 C -6.4943 -2.2789 0.0 0
M  V30 10 C -2.5977 -4.5106 0.0 0
M  V30 11 C -7.7932 -1.535 0.0 0
M  V30 12 C -9.092 -2.2907 0.0 0
M  V30 END ATOM
M  V30 BEGIN BOND
M  V30 1 2 1 2
M  V30 2 1 2 3
M  V30 3 1 2 4
M  V30 4 1 3 5
M  V30 5 1 6 5 CFG=1
M  V30 6 1 6 7
M  V30 7 1 6 8
M  V30 8 1 7 9
M  V30 9 1 8 10
M  V30 10 1 9 11
M  V30 11 1 11 12
M  V30 END BOND
M  V30 BEGIN COLLECTION
M  V30 MDLV30/STERAC1 ATOMS=(1 6)
M  V30 END COLLECTION
M  V30 END CTAB
M  END
>  <Molecule Name>
Acetic acid, 2-ethylhexyl ester

>  <Molecule Name 2>
Acetic acid, 2-ethylhexyl ester

>  <Activity>
0

$$$$
Acetic acid, sec-octyl ester
Actelion Java MolfileCreator 2.0

  0  0  0  0  0  0              0 V3000
M  V30 BEGIN CTAB
M  V30 COUNTS 12 11 0 0 0
M  V30 BEGIN ATOM
M  V30 1 O 0.0 0.0 0.0 0
M  V30 2 C 0.0 1.4974 0.0 0
M  V30 3 O -1.297 2.252 0.0 0
M  V30 4 C 1.297 2.252 0.0 0
M  V30 5 C -2.594 1.4974 0.0 0 CFG=2
M  V30 6 C -3.891 2.252 0.0 0
M  V30 7 C -2.594 0.0 0.0 0
M  V30 8 C -5.188 1.4974 0.0 0
M  V30 9 C -6.485 2.252 0.0 0
M  V30 10 C -7.782 1.4974 0.0 0
M  V30 11 C -9.079 2.252 0.0 0
M  V30 12 C -10.376 1.4974 0.0 0
M  V30 END ATOM
M  V30 BEGIN BOND
M  V30 1 2 1 2
M  V30 2 1 2 3
M  V30 3 1 2 4
M  V30 4 1 3 5
M  V30 5 1 5 6
M  V30 6 1 5 7 CFG=1
M  V30 7 1 6 8
M  V30 8 1 8 9
M  V30 9 1 9 10
M  V30 10 1 10 11
M  V30 11 1 11 12
M  V30 END BOND
M  V30 BEGIN COLLECTION
M  V30 MDLV30/STERAC1 ATOMS=(1 5)
M  V30 END COLLECTION
M  V30 END CTAB
M  END
>  <Molecule Name>
Acetic acid, sec-octyl ester

>  <Molecule Name 2>
Acetic acid, sec-octyl ester

>  <Activity>
0

$$$$
n-Butyric acid, sec-hexyl ester
Actelion Java MolfileCreator 2.0

  0  0  0  0  0  0              0 V3000
M  V30 BEGIN CTAB
M  V30 COUNTS 12 11 0 0 0
M  V30 BEGIN ATOM
M  V30 1 O 0.0 0.0 0.0 0
M  V30 2 C 0.0 1.5001 0.0 0
M  V30 3 O -1.2993 2.2443 0.0 0
M  V30 4 C 1.2993 2.2443 0.0 0
M  V30 5 C -2.5986 1.4883 0.0 0 CFG=2
M  V30 6 C 2.5986 1.4883 0.0 0
M  V30 7 C -3.8979 2.2324 0.0 0
M  V30 8 C -2.5986 -0.0118 0.0 0
M  V30 9 C 3.8979 2.2324 0.0 0
M  V30 10 C -5.1973 1.4765 0.0 0
M  V30 11 C -6.4966 2.2206 0.0 0
M  V30 12 C -7.7959 1.4647 0.0 0
M  V30 END ATOM
M  V30 BEGIN BOND
M  V30 1 2 1 2
M  V30 2 1 2 3
M  V30 3 1 2 4
M  V30 4 1 3 5
M  V30 5 1 4 6
M  V30 6 1 5 7
M  V30 7 1 5 8 CFG=1
M  V30 8 1 6 9
M  V30 9 1 7 10
M  V30 10 1 10 11
M  V30 11 1 11 12
M  V30 END BOND
M  V30 BEGIN COLLECTION
M  V30 MDLV30/STERAC1 ATOMS=(1 5)
M  V30 END COLLECTION
M  V30 END CTAB
M  END
>  <Molecule Name>
n-Butyric acid, sec-hexyl ester

>  <Molecule Name 2>
n-Butyric acid, sec-hexyl ester

>  <Activity>
0

$$$$
Pivalic acid, neo-pentyl ester
Actelion Java MolfileCreator 2.0

  0  0  0  0  0  0              0 V3000
M  V30 BEGIN CTAB
M  V30 COUNTS 12 11 0 0 0
M  V30 BEGIN ATOM
M  V30 1 O 0.0 0.0 0.0 0
M  V30 2 C 0.0 -1.5003 0.0 0
M  V30 3 O -1.2995 -2.2564 0.0 0
M  V30 4 C 1.2995 -2.2564 0.0 0
M  V30 5 C -2.5991 -1.5122 0.0 0
M  V30 6 C 2.0556 -0.9569 0.0 0
M  V30 7 C 2.5991 -3.0007 0.0 0
M  V30 8 C 0.5552 -3.556 0.0 0
M  V30 9 C -3.8986 -2.2683 0.0 0
M  V30 10 C -3.1543 -3.5678 0.0 0
M  V30 11 C -5.1982 -3.0125 0.0 0
M  V30 12 C -4.6429 -0.9687 0.0 0
M  V30 END ATOM
M  V30 BEGIN BOND
M  V30 1 2 1 2
M  V30 2 1 2 3
M  V30 3 1 2 4
M  V30 4 1 3 5
M  V30 5 1 4 6
M  V30 6 1 4 7
M  V30 7 1 4 8
M  V30 8 1 5 9
M  V30 9 1 9 10
M  V30 10 1 9 11
M  V30 11 1 9 12
M  V30 END BOND
M  V30 END CTAB
M  END
>  <Molecule Name>
Pivalic acid, neo-pentyl ester

>  <Molecule Name 2>
Pivalic acid, neo-pentyl ester

>  <Activity>
0

$$$$
2,7-Dimethyloctane-3-ol-5-one
Actelion Java MolfileCreator 2.0

  0  0  0  0  0  0              0 V3000
M  V30 BEGIN CTAB
M  V30 COUNTS 12 11 0 0 0
M  V30 BEGIN ATOM
M  V30 1 O 0.0 0.0 0.0 0
M  V30 2 C 0.0 -1.4996 0.0 0
M  V30 3 C 1.2988 -2.2553 0.0 0
M  V30 4 C -1.2988 -2.2553 0.0 0
M  V30 5 C 2.5977 -1.5114 0.0 0 CFG=2
M  V30 6 C -2.5977 -1.5114 0.0 0
M  V30 7 O 2.5977 -0.0118 0.0 0
M  V30 8 C 3.8966 -2.2671 0.0 0
M  V30 9 C -2.5977 -0.0118 0.0 0
M  V30 10 C -3.8966 -2.2671 0.0 0
M  V30 11 C 5.1955 -1.5232 0.0 0
M  V30 12 C 3.8966 -3.7667 0.0 0
M  V30 END ATOM
M  V30 BEGIN BOND
M  V30 1 2 1 2
M  V30 2 1 2 3
M  V30 3 1 2 4
M  V30 4 1 3 5
M  V30 5 1 4 6
M  V30 6 1 5 7 CFG=3
M  V30 7 1 5 8
M  V30 8 1 6 9
M  V30 9 1 6 10
M  V30 10 1 8 11
M  V30 11 1 8 12
M  V30 END BOND
M  V30 BEGIN COLLECTION
M  V30 MDLV30/STERAC1 ATOMS=(1 5)
M  V30 END COLLECTION
M  V30 END CTAB
M  END
>  <Molecule Name>
2,7-Dimethyloctane-3-ol-5-one

>  <Molecule Name 2>
2,7-Dimethyloctane-3-ol-5-one

>  <Activity>
0

$$$$
3,7-Dimethyl-1,7-octanediol
Actelion Java MolfileCreator 2.0

  0  0  0  0  0  0              0 V3000
M  V30 BEGIN CTAB
M  V30 COUNTS 12 11 0 0 0
M  V30 BEGIN ATOM
M  V30 1 O 0.0 0.0 0.0 0
M  V30 2 C 1.3 0.7445 0.0 0
M  V30 3 C 2.6 1.4891 0.0 0
M  V30 4 C 2.0445 -0.5554 0.0 0
M  V30 5 C 0.5554 2.0445 0.0 0
M  V30 6 C 3.9 0.7327 0.0 0
M  V30 7 C 5.2 1.4772 0.0 0
M  V30 8 C 6.5 0.7209 0.0 0 CFG=1
M  V30 9 C 7.8001 1.4654 0.0 0
M  V30 10 C 6.5 -0.78 0.0 0
M  V30 11 C 9.1001 0.7091 0.0 0
M  V30 12 O 10.4001 1.4536 0.0 0
M  V30 END ATOM
M  V30 BEGIN BOND
M  V30 1 1 1 2
M  V30 2 1 2 3
M  V30 3 1 2 4
M  V30 4 1 2 5
M  V30 5 1 3 6
M  V30 6 1 6 7
M  V30 7 1 7 8
M  V30 8 1 8 9
M  V30 9 1 8 10 CFG=1
M  V30 10 1 9 11
M  V30 11 1 11 12
M  V30 END BOND
M  V30 BEGIN COLLECTION
M  V30 MDLV30/STERAC1 ATOMS=(1 8)
M  V30 END COLLECTION
M  V30 END CTAB
M  END
>  <Molecule Name>
3,7-Dimethyl-1,7-octanediol

>  <Molecule Name 2>
3,7-Dimethyl-1,7-octanediol

>  <Activity>
0

$$$$
Undecylenaldehyde
Actelion Java MolfileCreator 2.0

  0  0  0  0  0  0              0 V3000
M  V30 BEGIN CTAB
M  V30 COUNTS 12 11 0 0 0
M  V30 BEGIN ATOM
M  V30 1 O 0.0 0.0 0.0 0
M  V30 2 C 1.3004 0.7475 0.0 0
M  V30 3 C 2.6009 0.0 0.0 0
M  V30 4 C 3.9014 0.7475 0.0 0
M  V30 5 C 5.2018 0.0 0.0 0
M  V30 6 C 6.5023 0.7475 0.0 0
M  V30 7 C 7.8028 0.0 0.0 0
M  V30 8 C 9.1032 0.7475 0.0 0
M  V30 9 C 10.4037 0.0 0.0 0
M  V30 10 C 11.7042 0.7475 0.0 0
M  V30 11 C 13.0047 0.0 0.0 0
M  V30 12 C 14.3051 0.7475 0.0 0
M  V30 END ATOM
M  V30 BEGIN BOND
M  V30 1 2 1 2
M  V30 2 1 2 3
M  V30 3 1 3 4
M  V30 4 1 4 5
M  V30 5 1 5 6
M  V30 6 1 6 7
M  V30 7 1 7 8
M  V30 8 1 8 9
M  V30 9 1 9 10
M  V30 10 1 10 11
M  V30 11 2 11 12
M  V30 END BOND
M  V30 END CTAB
M  END
>  <Molecule Name>
Undecylenaldehyde

>  <Molecule Name 2>
Undecylenaldehyde

>  <Activity>
0

$$$$
n-Undecyl alcohol
Actelion Java MolfileCreator 2.0

  0  0  0  0  0  0              0 V3000
M  V30 BEGIN CTAB
M  V30 COUNTS 12 11 0 0 0
M  V30 BEGIN ATOM
M  V30 1 O 0.0 0.0 0.0 0
M  V30 2 C 1.3004 0.7475 0.0 0
M  V30 3 C 2.6009 0.0 0.0 0
M  V30 4 C 3.9014 0.7475 0.0 0
M  V30 5 C 5.2018 0.0 0.0 0
M  V30 6 C 6.5023 0.7475 0.0 0
M  V30 7 C 7.8028 0.0 0.0 0
M  V30 8 C 9.1032 0.7475 0.0 0
M  V30 9 C 10.4037 0.0 0.0 0
M  V30 10 C 11.7042 0.7475 0.0 0
M  V30 11 C 13.0047 0.0 0.0 0
M  V30 12 C 14.3051 0.7475 0.0 0
M  V30 END ATOM
M  V30 BEGIN BOND
M  V30 1 1 1 2
M  V30 2 1 2 3
M  V30 3 1 3 4
M  V30 4 1 4 5
M  V30 5 1 5 6
M  V30 6 1 6 7
M  V30 7 1 7 8
M  V30 8 1 8 9
M  V30 9 1 9 10
M  V30 10 1 10 11
M  V30 11 1 11 12
M  V30 END BOND
M  V30 END CTAB
M  END
>  <Molecule Name>
n-Undecyl alcohol

>  <Molecule Name 2>
n-Undecyl alcohol

>  <Activity>
0

$$$$
Methyl nonyl ketone
Actelion Java MolfileCreator 2.0

  0  0  0  0  0  0              0 V3000
M  V30 BEGIN CTAB
M  V30 COUNTS 12 11 0 0 0
M  V30 BEGIN ATOM
M  V30 1 O 0.0 0.0 0.0 0
M  V30 2 C 0.0 -1.4993 0.0 0
M  V30 3 C 1.2986 -2.2548 0.0 0
M  V30 4 C -1.2986 -2.2548 0.0 0
M  V30 5 C 2.5972 -1.5111 0.0 0
M  V30 6 C 3.8958 -2.2666 0.0 0
M  V30 7 C 5.1944 -1.5229 0.0 0
M  V30 8 C 6.4931 -2.2784 0.0 0
M  V30 9 C 7.7917 -1.5347 0.0 0
M  V30 10 C 9.0903 -2.2902 0.0 0
M  V30 11 C 10.3889 -1.5465 0.0 0
M  V30 12 C 11.6875 -2.3021 0.0 0
M  V30 END ATOM
M  V30 BEGIN BOND
M  V30 1 2 1 2
M  V30 2 1 2 3
M  V30 3 1 2 4
M  V30 4 1 3 5
M  V30 5 1 5 6
M  V30 6 1 6 7
M  V30 7 1 7 8
M  V30 8 1 8 9
M  V30 9 1 9 10
M  V30 10 1 10 11
M  V30 11 1 11 12
M  V30 END BOND
M  V30 END CTAB
M  END
>  <Molecule Name>
Methyl nonyl ketone

>  <Molecule Name 2>
Methyl nonyl ketone

>  <Activity>
0

$$$$
Lactyllactic acid, methyl ester
Actelion Java MolfileCreator 2.0

  0  0  0  0  0  0              0 V3000
M  V30 BEGIN CTAB
M  V30 COUNTS 12 11 0 0 0
M  V30 BEGIN ATOM
M  V30 1 O 0.0 0.0 0.0 0
M  V30 2 C 0.0 1.4998 0.0 0
M  V30 3 O -1.2991 2.2439 0.0 0
M  V30 4 C 1.2991 2.2439 0.0 0
M  V30 5 C -2.5982 1.488 0.0 0
M  V30 6 O 2.0549 3.543 0.0 0
M  V30 7 C 2.5982 1.488 0.0 0
M  V30 8 C 0.555 3.543 0.0 0
M  V30 9 O 2.5982 -0.0118 0.0 0
M  V30 10 C 3.8973 2.2321 0.0 0
M  V30 11 O 5.1964 1.4762 0.0 0
M  V30 12 C 3.8973 3.7319 0.0 0
M  V30 END ATOM
M  V30 BEGIN BOND
M  V30 1 2 1 2
M  V30 2 1 2 3
M  V30 3 1 2 4
M  V30 4 1 3 5
M  V30 5 1 4 6
M  V30 6 1 4 7
M  V30 7 1 4 8
M  V30 8 2 7 9
M  V30 9 1 7 10
M  V30 10 1 10 11
M  V30 11 1 10 12
M  V30 END BOND
M  V30 END CTAB
M  END
>  <Molecule Name>
Lactyllactic acid, methyl ester

>  <Molecule Name 2>
Lactyllactic acid, methyl ester

>  <Activity>
0

$$$$
Methoxysuccinic acid, dimethyl ester
Actelion Java MolfileCreator 2.0

  0  0  0  0  0  0              0 V3000
M  V30 BEGIN CTAB
M  V30 COUNTS 12 11 0 0 0
M  V30 BEGIN ATOM
M  V30 1 O 0.0 0.0 0.0 0
M  V30 2 C 0.0 -1.4993 0.0 0
M  V30 3 O 1.2986 -2.2549 0.0 0
M  V30 4 C -1.2986 -2.2549 0.0 0 CFG=1
M  V30 5 C 2.5972 -1.5111 0.0 0
M  V30 6 O -1.2986 -3.7542 0.0 0
M  V30 7 C -2.5972 -1.5111 0.0 0
M  V30 8 C -2.5972 -4.5098 0.0 0
M  V30 9 C -3.8959 -2.2667 0.0 0
M  V30 10 O -3.8959 -3.766 0.0 0
M  V30 11 O -5.1945 -1.5229 0.0 0
M  V30 12 C -6.4932 -2.2785 0.0 0
M  V30 END ATOM
M  V30 BEGIN BOND
M  V30 1 2 1 2
M  V30 2 1 2 3
M  V30 3 1 2 4
M  V30 4 1 3 5
M  V30 5 1 4 6 CFG=1
M  V30 6 1 4 7
M  V30 7 1 6 8
M  V30 8 1 7 9
M  V30 9 2 9 10
M  V30 10 1 9 11
M  V30 11 1 11 12
M  V30 END BOND
M  V30 BEGIN COLLECTION
M  V30 MDLV30/STERAC1 ATOMS=(1 4)
M  V30 END COLLECTION
M  V30 END CTAB
M  END
>  <Molecule Name>
Methoxysuccinic acid, dimethyl ester

>  <Molecule Name 2>
Methoxysuccinic acid, dimethyl ester

>  <Activity>
0

$$$$
2-Propylacetoacetic acid, ethyl ester
Actelion Java MolfileCreator 2.0

  0  0  0  0  0  0              0 V3000
M  V30 BEGIN CTAB
M  V30 COUNTS 12 11 0 0 0
M  V30 BEGIN ATOM
M  V30 1 O 0.0 0.0 0.0 0
M  V30 2 C 0.0 -1.5001 0.0 0
M  V30 3 O -1.2993 -2.2561 0.0 0
M  V30 4 C 1.2993 -2.2561 0.0 0 CFG=2
M  V30 5 C -2.5986 -1.5119 0.0 0
M  V30 6 C 1.2993 -3.7562 0.0 0
M  V30 7 C 2.5986 -1.5119 0.0 0
M  V30 8 C -3.8979 -2.2679 0.0 0
M  V30 9 O 0.0 -4.5004 0.0 0
M  V30 10 C 2.5986 -4.5004 0.0 0
M  V30 11 C 3.8979 -2.2679 0.0 0
M  V30 12 C 5.1973 -1.5237 0.0 0
M  V30 END ATOM
M  V30 BEGIN BOND
M  V30 1 2 1 2
M  V30 2 1 2 3
M  V30 3 1 2 4
M  V30 4 1 3 5
M  V30 5 1 4 6
M  V30 6 1 4 7 CFG=1
M  V30 7 1 5 8
M  V30 8 2 6 9
M  V30 9 1 6 10
M  V30 10 1 7 11
M  V30 11 1 11 12
M  V30 END BOND
M  V30 BEGIN COLLECTION
M  V30 MDLV30/STERAC1 ATOMS=(1 4)
M  V30 END COLLECTION
M  V30 END CTAB
M  END
>  <Molecule Name>
2-Propylacetoacetic acid, ethyl ester

>  <Molecule Name 2>
2-Propylacetoacetic acid, ethyl ester

>  <Activity>
0

$$$$
