 xtb: 6.7.1 (edcfbbe)
          07082606223D

 19 19  0     0  0            999 V2000
   -2.0434    0.4888   -1.8147 O   0  0  0  0  0  0  0  0  0  0  0  0
   -2.3791    0.3218   -0.4623 C   0  0  0  0  0  0  0  0  0  0  0  0
   -1.3790    1.0041    0.4896 C   0  0  0  0  0  0  0  0  0  0  0  0
   -0.0370    0.3391    0.3944 C   0  0  0  0  0  0  0  0  0  0  0  0
    0.9162    0.7914   -0.5114 C   0  0  0  0  0  0  0  0  0  0  0  0
    2.1331    0.1466   -0.6479 C   0  0  0  0  0  0  0  0  0  0  0  0
    2.4010   -0.9671    0.1303 C   0  0  0  0  0  0  0  0  0  0  0  0
    3.9206   -1.7790   -0.0302 Cl  0  0  0  0  0  0  0  0  0  0  0  0
    1.4653   -1.4369    1.0384 C   0  0  0  0  0  0  0  0  0  0  0  0
    0.2532   -0.7837    1.1617 C   0  0  0  0  0  0  0  0  0  0  0  0
   -1.1545    0.1406   -1.9557 H   0  0  0  0  0  0  0  0  0  0  0  0
   -3.3673    0.7727   -0.3475 H   0  0  0  0  0  0  0  0  0  0  0  0
   -2.4486   -0.7470   -0.2101 H   0  0  0  0  0  0  0  0  0  0  0  0
   -1.3004    2.0563    0.2126 H   0  0  0  0  0  0  0  0  0  0  0  0
   -1.7678    0.9339    1.5058 H   0  0  0  0  0  0  0  0  0  0  0  0
    0.7101    1.6653   -1.1128 H   0  0  0  0  0  0  0  0  0  0  0  0
    2.8686    0.5056   -1.3504 H   0  0  0  0  0  0  0  0  0  0  0  0
    1.6860   -2.3038    1.6410 H   0  0  0  0  0  0  0  0  0  0  0  0
   -0.4769   -1.1488    1.8692 H   0  0  0  0  0  0  0  0  0  0  0  0
  1  2  1  0  0  0  0
  2  3  1  0  0  0  0
  3  4  1  0  0  0  0
  4  5  4  0  0  0  0
  5  6  4  0  0  0  0
  6  7  4  0  0  0  0
  7  8  1  0  0  0  0
  7  9  4  0  0  0  0
  4 10  4  0  0  0  0
  9 10  4  0  0  0  0
  1 11  1  0  0  0  0
  2 12  1  0  0  0  0
  2 13  1  0  0  0  0
  3 14  1  0  0  0  0
  3 15  1  0  0  0  0
  5 16  1  0  0  0  0
  6 17  1  0  0  0  0
  9 18  1  0  0  0  0
 10 19  1  0  0  0  0
M  END
