 xtb: 6.7.1 (edcfbbe)
          07072606273D

 48 49  0     0  0            999 V2000
    5.3126   -0.6177    2.8436 C   0  0  0  0  0  0  0  0  0  0  0  0
    5.2050   -0.2581    1.5784 C   0  0  0  0  0  0  0  0  0  0  0  0
    4.4799   -1.0486    0.5315 C   0  0  0  0  0  0  0  0  0  0  0  0
    3.4646   -0.2090   -0.1823 C   0  0  0  0  0  0  0  0  0  0  0  0
    2.3667    0.3787    0.3184 C   0  0  0  0  0  0  0  0  0  0  0  0
    1.8381    0.3142    1.7036 C   0  0  0  0  0  0  0  0  0  0  0  0
    1.6439    1.1907   -0.7319 C   0  0  0  0  0  0  0  0  0  0  0  0
    0.2668    0.8260   -0.8324 O   0  0  0  0  0  0  0  0  0  0  0  0
   -0.6333    1.6428   -0.2512 C   0  0  0  0  0  0  0  0  0  0  0  0
   -0.3171    2.6298    0.3718 O   0  0  0  0  0  0  0  0  0  0  0  0
   -2.0266    1.2012   -0.4159 C   0  0  0  0  0  0  0  0  0  0  0  0
   -2.3783   -0.2624   -0.6745 C   0  0  0  0  0  0  0  0  0  0  0  0
   -3.4434   -0.9056    0.1260 C   0  0  0  0  0  0  0  0  0  0  0  0
   -3.2352   -1.4031    1.3417 C   0  0  0  0  0  0  0  0  0  0  0  0
   -4.3172   -2.0737    2.1285 C   0  0  0  0  0  0  0  0  0  0  0  0
   -1.8888   -1.3217    2.0020 C   0  0  0  0  0  0  0  0  0  0  0  0
   -2.6491    0.7510   -1.7340 C   0  0  0  0  0  0  0  0  0  0  0  0
   -4.0679    1.2154   -1.9758 C   0  0  0  0  0  0  0  0  0  0  0  0
   -1.8152    0.7406   -2.9936 C   0  0  0  0  0  0  0  0  0  0  0  0
    2.3857    0.8917   -2.0341 C   0  0  0  0  0  0  0  0  0  0  0  0
    3.6103    0.0941   -1.6134 C   0  0  0  0  0  0  0  0  0  0  0  0
    4.5269   -0.2259   -2.3311 O   0  0  0  0  0  0  0  0  0  0  0  0
    4.8726   -1.5306    3.2131 H   0  0  0  0  0  0  0  0  0  0  0  0
    5.8506   -0.0245    3.5631 H   0  0  0  0  0  0  0  0  0  0  0  0
    5.6548    0.6609    1.2266 H   0  0  0  0  0  0  0  0  0  0  0  0
    4.0030   -1.9202    0.9855 H   0  0  0  0  0  0  0  0  0  0  0  0
    5.1987   -1.3918   -0.2192 H   0  0  0  0  0  0  0  0  0  0  0  0
    1.3435    1.2489    1.9615 H   0  0  0  0  0  0  0  0  0  0  0  0
    1.0997   -0.4855    1.7790 H   0  0  0  0  0  0  0  0  0  0  0  0
    2.6374    0.1126    2.4121 H   0  0  0  0  0  0  0  0  0  0  0  0
    1.6832    2.2564   -0.4623 H   0  0  0  0  0  0  0  0  0  0  0  0
   -2.6875    1.7574    0.2389 H   0  0  0  0  0  0  0  0  0  0  0  0
   -1.5048   -0.8876   -0.8336 H   0  0  0  0  0  0  0  0  0  0  0  0
   -4.4235   -0.9707   -0.3249 H   0  0  0  0  0  0  0  0  0  0  0  0
   -4.4921   -1.5354    3.0599 H   0  0  0  0  0  0  0  0  0  0  0  0
   -5.2475   -2.1130    1.5679 H   0  0  0  0  0  0  0  0  0  0  0  0
   -4.0189   -3.0900    2.3851 H   0  0  0  0  0  0  0  0  0  0  0  0
   -1.5123   -0.2999    1.9759 H   0  0  0  0  0  0  0  0  0  0  0  0
   -1.1725   -1.9539    1.4759 H   0  0  0  0  0  0  0  0  0  0  0  0
   -1.9424   -1.6504    3.0364 H   0  0  0  0  0  0  0  0  0  0  0  0
   -4.5762    0.5261   -2.6489 H   0  0  0  0  0  0  0  0  0  0  0  0
   -4.6304    1.2736   -1.0481 H   0  0  0  0  0  0  0  0  0  0  0  0
   -4.0641    2.2011   -2.4378 H   0  0  0  0  0  0  0  0  0  0  0  0
   -0.8196    0.3544   -2.8014 H   0  0  0  0  0  0  0  0  0  0  0  0
   -2.2921    0.1099   -3.7423 H   0  0  0  0  0  0  0  0  0  0  0  0
   -1.7272    1.7470   -3.4006 H   0  0  0  0  0  0  0  0  0  0  0  0
    2.6703    1.7839   -2.5897 H   0  0  0  0  0  0  0  0  0  0  0  0
    1.7691    0.2708   -2.6858 H   0  0  0  0  0  0  0  0  0  0  0  0
  1  2  2  0  0  0  0
  2  3  1  0  0  0  0
  3  4  1  0  0  0  0
  4  5  2  0  0  0  0
  5  6  1  0  0  0  0
  5  7  1  0  0  0  0
  7  8  1  0  0  0  0
  8  9  1  0  0  0  0
  9 10  2  0  0  0  0
  9 11  1  0  0  0  0
 11 12  1  0  0  0  0
 12 13  1  0  0  0  0
 13 14  2  0  0  0  0
 14 15  1  0  0  0  0
 14 16  1  0  0  0  0
 11 17  1  0  0  0  0
 12 17  1  0  0  0  0
 17 18  1  0  0  0  0
 17 19  1  0  0  0  0
  7 20  1  0  0  0  0
  4 21  1  0  0  0  0
 20 21  1  0  0  0  0
 21 22  2  0  0  0  0
  1 23  1  0  0  0  0
  1 24  1  0  0  0  0
  2 25  1  0  0  0  0
  3 26  1  0  0  0  0
  3 27  1  0  0  0  0
  6 28  1  0  0  0  0
  6 29  1  0  0  0  0
  6 30  1  0  0  0  0
  7 31  1  0  0  0  0
 11 32  1  0  0  0  0
 12 33  1  0  0  0  0
 13 34  1  0  0  0  0
 15 35  1  0  0  0  0
 15 36  1  0  0  0  0
 15 37  1  0  0  0  0
 16 38  1  0  0  0  0
 16 39  1  0  0  0  0
 16 40  1  0  0  0  0
 18 41  1  0  0  0  0
 18 42  1  0  0  0  0
 18 43  1  0  0  0  0
 19 44  1  0  0  0  0
 19 45  1  0  0  0  0
 19 46  1  0  0  0  0
 20 47  1  0  0  0  0
 20 48  1  0  0  0  0
M  END
