 xtb: 6.7.1 (edcfbbe)
          07082608353D

 22 22  0     0  0            999 V2000
   -2.2790    0.1096   -0.9498 C   0  0  0  0  0  0  0  0  0  0  0  0
   -1.5170   -0.4347    0.2600 C   0  0  0  0  0  0  0  0  0  0  0  0
   -1.9125    0.3155    1.5333 C   0  0  0  0  0  0  0  0  0  0  0  0
   -0.0268   -0.3582    0.0337 C   0  0  0  0  0  0  0  0  0  0  0  0
    0.7436   -1.5151    0.0158 C   0  0  0  0  0  0  0  0  0  0  0  0
    2.1091   -1.4490   -0.1912 C   0  0  0  0  0  0  0  0  0  0  0  0
    2.7299   -0.2287   -0.3840 C   0  0  0  0  0  0  0  0  0  0  0  0
    1.9703    0.9340   -0.3683 C   0  0  0  0  0  0  0  0  0  0  0  0
    2.5269    2.1646   -0.5524 O   0  0  0  0  0  0  0  0  0  0  0  0
    0.5987    0.8636   -0.1600 C   0  0  0  0  0  0  0  0  0  0  0  0
   -1.9887   -0.4248   -1.8517 H   0  0  0  0  0  0  0  0  0  0  0  0
   -2.0688    1.1661   -1.0948 H   0  0  0  0  0  0  0  0  0  0  0  0
   -3.3506   -0.0110   -0.8050 H   0  0  0  0  0  0  0  0  0  0  0  0
   -1.7878   -1.4888    0.3873 H   0  0  0  0  0  0  0  0  0  0  0  0
   -1.3628   -0.0733    2.3877 H   0  0  0  0  0  0  0  0  0  0  0  0
   -2.9773    0.1986    1.7236 H   0  0  0  0  0  0  0  0  0  0  0  0
   -1.6946    1.3762    1.4396 H   0  0  0  0  0  0  0  0  0  0  0  0
    0.2713   -2.4751    0.1651 H   0  0  0  0  0  0  0  0  0  0  0  0
    2.6980   -2.3544   -0.2031 H   0  0  0  0  0  0  0  0  0  0  0  0
    3.7987   -0.1754   -0.5462 H   0  0  0  0  0  0  0  0  0  0  0  0
    3.4780    2.0737   -0.6853 H   0  0  0  0  0  0  0  0  0  0  0  0
    0.0416    1.7867   -0.1542 H   0  0  0  0  0  0  0  0  0  0  0  0
  1  2  1  0  0  0  0
  2  3  1  0  0  0  0
  2  4  1  0  0  0  0
  4  5  4  0  0  0  0
  5  6  4  0  0  0  0
  6  7  4  0  0  0  0
  7  8  4  0  0  0  0
  8  9  1  0  0  0  0
  4 10  4  0  0  0  0
  8 10  4  0  0  0  0
  1 11  1  0  0  0  0
  1 12  1  0  0  0  0
  1 13  1  0  0  0  0
  2 14  1  0  0  0  0
  3 15  1  0  0  0  0
  3 16  1  0  0  0  0
  3 17  1  0  0  0  0
  5 18  1  0  0  0  0
  6 19  1  0  0  0  0
  7 20  1  0  0  0  0
  9 21  1  0  0  0  0
 10 22  1  0  0  0  0
M  END
