 xtb: 6.7.1 (edcfbbe)
          07092610403D

 27 27  0     0  0            999 V2000
    4.2719    0.8241   -0.1830 C   0  0  0  0  0  0  0  0  0  0  0  0
    3.0608    0.5171   -0.8597 O   0  0  0  0  0  0  0  0  0  0  0  0
    2.2728   -0.3989   -0.2793 C   0  0  0  0  0  0  0  0  0  0  0  0
    2.5464   -0.9437    0.7571 O   0  0  0  0  0  0  0  0  0  0  0  0
    1.0283   -0.6449   -1.0971 C   0  0  0  0  0  0  0  0  0  0  0  0
   -0.2274   -0.5785   -0.2186 C   0  0  0  0  0  0  0  0  0  0  0  0
   -1.4611   -1.0328   -0.9981 C   0  0  0  0  0  0  0  0  0  0  0  0
   -2.7079   -0.9662   -0.1208 C   0  0  0  0  0  0  0  0  0  0  0  0
   -2.9169    0.4502    0.4049 C   0  0  0  0  0  0  0  0  0  0  0  0
   -1.6899    0.9101    1.1853 C   0  0  0  0  0  0  0  0  0  0  0  0
   -0.4418    0.8403    0.3102 C   0  0  0  0  0  0  0  0  0  0  0  0
    4.7982    1.5403   -0.8083 H   0  0  0  0  0  0  0  0  0  0  0  0
    4.8691   -0.0795   -0.0460 H   0  0  0  0  0  0  0  0  0  0  0  0
    4.0587    1.2547    0.7974 H   0  0  0  0  0  0  0  0  0  0  0  0
    0.9834    0.0860   -1.9047 H   0  0  0  0  0  0  0  0  0  0  0  0
    1.1134   -1.6442   -1.5310 H   0  0  0  0  0  0  0  0  0  0  0  0
   -0.0753   -1.2499    0.6330 H   0  0  0  0  0  0  0  0  0  0  0  0
   -1.5955   -0.3857   -1.8685 H   0  0  0  0  0  0  0  0  0  0  0  0
   -1.3176   -2.0537   -1.3587 H   0  0  0  0  0  0  0  0  0  0  0  0
   -3.5811   -1.2846   -0.6942 H   0  0  0  0  0  0  0  0  0  0  0  0
   -2.5927   -1.6511    0.7222 H   0  0  0  0  0  0  0  0  0  0  0  0
   -3.8003    0.4834    1.0457 H   0  0  0  0  0  0  0  0  0  0  0  0
   -3.0873    1.1273   -0.4355 H   0  0  0  0  0  0  0  0  0  0  0  0
   -1.5539    0.2679    2.0583 H   0  0  0  0  0  0  0  0  0  0  0  0
   -1.8352    1.9323    1.5411 H   0  0  0  0  0  0  0  0  0  0  0  0
   -0.5499    1.5276   -0.5329 H   0  0  0  0  0  0  0  0  0  0  0  0
    0.4310    1.1522    0.8880 H   0  0  0  0  0  0  0  0  0  0  0  0
  1  2  1  0  0  0  0
  2  3  1  0  0  0  0
  3  4  2  0  0  0  0
  3  5  1  0  0  0  0
  5  6  1  0  0  0  0
  6  7  1  0  0  0  0
  7  8  1  0  0  0  0
  8  9  1  0  0  0  0
  9 10  1  0  0  0  0
  6 11  1  0  0  0  0
 10 11  1  0  0  0  0
  1 12  1  0  0  0  0
  1 13  1  0  0  0  0
  1 14  1  0  0  0  0
  5 15  1  0  0  0  0
  5 16  1  0  0  0  0
  6 17  1  0  0  0  0
  7 18  1  0  0  0  0
  7 19  1  0  0  0  0
  8 20  1  0  0  0  0
  8 21  1  0  0  0  0
  9 22  1  0  0  0  0
  9 23  1  0  0  0  0
 10 24  1  0  0  0  0
 10 25  1  0  0  0  0
 11 26  1  0  0  0  0
 11 27  1  0  0  0  0
M  END
