 xtb: 6.7.1 (edcfbbe)
          07082614143D

 35 36  0     0  0            999 V2000
   -1.4541   -0.1767   -1.9249 O   0  0  0  0  0  0  0  0  0  0  0  0
   -1.4122   -0.9501   -0.7424 C   0  0  0  0  0  0  0  0  0  0  0  0
   -2.8180   -1.3229   -0.2531 C   0  0  0  0  0  0  0  0  0  0  0  0
   -3.6174   -0.0859    0.1375 C   0  0  0  0  0  0  0  0  0  0  0  0
   -2.8681    0.6839    1.2166 C   0  0  0  0  0  0  0  0  0  0  0  0
   -1.4826    1.0735    0.7120 C   0  0  0  0  0  0  0  0  0  0  0  0
   -0.6497   -0.1563    0.3330 C   0  0  0  0  0  0  0  0  0  0  0  0
    0.7688    0.2561   -0.1180 C   0  0  0  0  0  0  0  0  0  0  0  0
    1.5385   -0.8852   -0.7907 C   0  0  0  0  0  0  0  0  0  0  0  0
    2.9408   -0.4456   -1.2049 C   0  0  0  0  0  0  0  0  0  0  0  0
    3.7344    0.0617   -0.0080 C   0  0  0  0  0  0  0  0  0  0  0  0
    2.9821    1.2098    0.6522 C   0  0  0  0  0  0  0  0  0  0  0  0
    1.5876    0.7592    1.0760 C   0  0  0  0  0  0  0  0  0  0  0  0
   -2.0367   -0.6140   -2.5545 H   0  0  0  0  0  0  0  0  0  0  0  0
   -0.8768   -1.8941   -0.9415 H   0  0  0  0  0  0  0  0  0  0  0  0
   -3.3379   -1.8750   -1.0425 H   0  0  0  0  0  0  0  0  0  0  0  0
   -2.7201   -1.9871    0.6079 H   0  0  0  0  0  0  0  0  0  0  0  0
   -3.7430    0.5545   -0.7381 H   0  0  0  0  0  0  0  0  0  0  0  0
   -4.6083   -0.3788    0.4908 H   0  0  0  0  0  0  0  0  0  0  0  0
   -2.7717    0.0614    2.1100 H   0  0  0  0  0  0  0  0  0  0  0  0
   -3.4257    1.5817    1.4916 H   0  0  0  0  0  0  0  0  0  0  0  0
   -1.5847    1.7019   -0.1741 H   0  0  0  0  0  0  0  0  0  0  0  0
   -0.9721    1.6500    1.4831 H   0  0  0  0  0  0  0  0  0  0  0  0
   -0.5587   -0.8117    1.2072 H   0  0  0  0  0  0  0  0  0  0  0  0
    0.6630    1.0653   -0.8467 H   0  0  0  0  0  0  0  0  0  0  0  0
    1.6097   -1.7312   -0.1016 H   0  0  0  0  0  0  0  0  0  0  0  0
    1.0084   -1.2114   -1.6849 H   0  0  0  0  0  0  0  0  0  0  0  0
    2.8601    0.3518   -1.9471 H   0  0  0  0  0  0  0  0  0  0  0  0
    3.4623   -1.2846   -1.6718 H   0  0  0  0  0  0  0  0  0  0  0  0
    4.7252    0.3930   -0.3269 H   0  0  0  0  0  0  0  0  0  0  0  0
    3.8674   -0.7487    0.7127 H   0  0  0  0  0  0  0  0  0  0  0  0
    2.8954    2.0391   -0.0535 H   0  0  0  0  0  0  0  0  0  0  0  0
    3.5336    1.5687    1.5244 H   0  0  0  0  0  0  0  0  0  0  0  0
    1.0818    1.5945    1.5612 H   0  0  0  0  0  0  0  0  0  0  0  0
    1.6785   -0.0469    1.8090 H   0  0  0  0  0  0  0  0  0  0  0  0
  1  2  1  0  0  0  0
  2  3  1  0  0  0  0
  3  4  1  0  0  0  0
  4  5  1  0  0  0  0
  5  6  1  0  0  0  0
  2  7  1  0  0  0  0
  6  7  1  0  0  0  0
  7  8  1  0  0  0  0
  8  9  1  0  0  0  0
  9 10  1  0  0  0  0
 10 11  1  0  0  0  0
 11 12  1  0  0  0  0
  8 13  1  0  0  0  0
 12 13  1  0  0  0  0
  1 14  1  0  0  0  0
  2 15  1  0  0  0  0
  3 16  1  0  0  0  0
  3 17  1  0  0  0  0
  4 18  1  0  0  0  0
  4 19  1  0  0  0  0
  5 20  1  0  0  0  0
  5 21  1  0  0  0  0
  6 22  1  0  0  0  0
  6 23  1  0  0  0  0
  7 24  1  0  0  0  0
  8 25  1  0  0  0  0
  9 26  1  0  0  0  0
  9 27  1  0  0  0  0
 10 28  1  0  0  0  0
 10 29  1  0  0  0  0
 11 30  1  0  0  0  0
 11 31  1  0  0  0  0
 12 32  1  0  0  0  0
 12 33  1  0  0  0  0
 13 34  1  0  0  0  0
 13 35  1  0  0  0  0
M  END
