 xtb: 6.7.1 (edcfbbe)
          07072610563D

 39 38  0     0  0            999 V2000
    5.4269    1.4062   -0.5927 C   0  0  0  0  0  0  0  0  0  0  0  0
    4.3000    0.5625   -1.1732 C   0  0  0  0  0  0  0  0  0  0  0  0
    3.0856    0.5390   -0.2506 C   0  0  0  0  0  0  0  0  0  0  0  0
    1.9689   -0.3168   -0.8038 C   0  0  0  0  0  0  0  0  0  0  0  0
    2.0071   -0.9431   -1.8298 O   0  0  0  0  0  0  0  0  0  0  0  0
    0.9078   -0.2925    0.0089 O   0  0  0  0  0  0  0  0  0  0  0  0
   -0.2131   -1.0849   -0.3891 C   0  0  0  0  0  0  0  0  0  0  0  0
   -1.3106   -0.9721    0.6648 C   0  0  0  0  0  0  0  0  0  0  0  0
   -0.8698   -1.6082    1.9906 C   0  0  0  0  0  0  0  0  0  0  0  0
   -0.8103   -3.1298    1.9403 C   0  0  0  0  0  0  0  0  0  0  0  0
   -1.7164    0.4928    0.9139 C   0  0  0  0  0  0  0  0  0  0  0  0
   -2.8087    0.4602    1.8148 O   0  0  0  0  0  0  0  0  0  0  0  0
   -2.0876    1.2792   -0.3524 C   0  0  0  0  0  0  0  0  0  0  0  0
   -3.2553    0.6693   -1.1265 C   0  0  0  0  0  0  0  0  0  0  0  0
   -3.7490    1.6051   -2.2232 C   0  0  0  0  0  0  0  0  0  0  0  0
    5.7478    1.0086    0.3677 H   0  0  0  0  0  0  0  0  0  0  0  0
    5.1006    2.4337   -0.4460 H   0  0  0  0  0  0  0  0  0  0  0  0
    6.2817    1.4110   -1.2640 H   0  0  0  0  0  0  0  0  0  0  0  0
    4.6444   -0.4605   -1.3315 H   0  0  0  0  0  0  0  0  0  0  0  0
    4.0012    0.9583   -2.1451 H   0  0  0  0  0  0  0  0  0  0  0  0
    2.6948    1.5471   -0.0951 H   0  0  0  0  0  0  0  0  0  0  0  0
    3.3552    0.1415    0.7308 H   0  0  0  0  0  0  0  0  0  0  0  0
   -0.5531   -0.7474   -1.3730 H   0  0  0  0  0  0  0  0  0  0  0  0
    0.1124   -2.1245   -0.4961 H   0  0  0  0  0  0  0  0  0  0  0  0
   -2.1914   -1.5063    0.2994 H   0  0  0  0  0  0  0  0  0  0  0  0
    0.1078   -1.2065    2.2632 H   0  0  0  0  0  0  0  0  0  0  0  0
   -1.5870   -1.3080    2.7546 H   0  0  0  0  0  0  0  0  0  0  0  0
   -0.0570   -3.4789    1.2382 H   0  0  0  0  0  0  0  0  0  0  0  0
   -1.7735   -3.5389    1.6434 H   0  0  0  0  0  0  0  0  0  0  0  0
   -0.5603   -3.5235    2.9227 H   0  0  0  0  0  0  0  0  0  0  0  0
   -0.8627    1.0013    1.3928 H   0  0  0  0  0  0  0  0  0  0  0  0
   -3.1252    1.3609    1.9418 H   0  0  0  0  0  0  0  0  0  0  0  0
   -1.2113    1.3723   -0.9942 H   0  0  0  0  0  0  0  0  0  0  0  0
   -2.3652    2.2925   -0.0419 H   0  0  0  0  0  0  0  0  0  0  0  0
   -4.0688    0.4577   -0.4293 H   0  0  0  0  0  0  0  0  0  0  0  0
   -2.9482   -0.2762   -1.5759 H   0  0  0  0  0  0  0  0  0  0  0  0
   -4.0913    2.5480   -1.8014 H   0  0  0  0  0  0  0  0  0  0  0  0
   -2.9504    1.8178   -2.9308 H   0  0  0  0  0  0  0  0  0  0  0  0
   -4.5759    1.1532   -2.7655 H   0  0  0  0  0  0  0  0  0  0  0  0
  1  2  1  0  0  0  0
  2  3  1  0  0  0  0
  3  4  1  0  0  0  0
  4  5  2  0  0  0  0
  4  6  1  0  0  0  0
  6  7  1  0  0  0  0
  7  8  1  0  0  0  0
  8  9  1  0  0  0  0
  9 10  1  0  0  0  0
  8 11  1  0  0  0  0
 11 12  1  0  0  0  0
 11 13  1  0  0  0  0
 13 14  1  0  0  0  0
 14 15  1  0  0  0  0
  1 16  1  0  0  0  0
  1 17  1  0  0  0  0
  1 18  1  0  0  0  0
  2 19  1  0  0  0  0
  2 20  1  0  0  0  0
  3 21  1  0  0  0  0
  3 22  1  0  0  0  0
  7 23  1  0  0  0  0
  7 24  1  0  0  0  0
  8 25  1  0  0  0  0
  9 26  1  0  0  0  0
  9 27  1  0  0  0  0
 10 28  1  0  0  0  0
 10 29  1  0  0  0  0
 10 30  1  0  0  0  0
 11 31  1  0  0  0  0
 12 32  1  0  0  0  0
 13 33  1  0  0  0  0
 13 34  1  0  0  0  0
 14 35  1  0  0  0  0
 14 36  1  0  0  0  0
 15 37  1  0  0  0  0
 15 38  1  0  0  0  0
 15 39  1  0  0  0  0
M  END
