 xtb: 6.7.1 (edcfbbe)
          07082621093D

 21 20  0     0  0            999 V2000
   -3.9057   -0.3562    0.2883 C   0  0  0  0  0  0  0  0  0  0  0  0
   -2.5692   -0.2920   -0.4319 C   0  0  0  0  0  0  0  0  0  0  0  0
   -1.5367   -0.3566    0.5300 O   0  0  0  0  0  0  0  0  0  0  0  0
   -0.2532   -0.2662   -0.0298 C   0  0  0  0  0  0  0  0  0  0  0  0
    0.7571   -0.2540    1.1173 C   0  0  0  0  0  0  0  0  0  0  0  0
    2.0934   -0.3496    0.6411 O   0  0  0  0  0  0  0  0  0  0  0  0
    2.6551    0.7710    0.1624 C   0  0  0  0  0  0  0  0  0  0  0  0
    4.0661    0.5058   -0.2900 C   0  0  0  0  0  0  0  0  0  0  0  0
    2.0965    1.8330    0.1144 O   0  0  0  0  0  0  0  0  0  0  0  0
   -3.9782   -1.2825    0.8510 H   0  0  0  0  0  0  0  0  0  0  0  0
   -4.7177   -0.3084   -0.4317 H   0  0  0  0  0  0  0  0  0  0  0  0
   -3.9902    0.4761    0.9810 H   0  0  0  0  0  0  0  0  0  0  0  0
   -2.4726   -1.1308   -1.1400 H   0  0  0  0  0  0  0  0  0  0  0  0
   -2.4863    0.6450   -1.0047 H   0  0  0  0  0  0  0  0  0  0  0  0
   -0.0538   -1.1278   -0.6888 H   0  0  0  0  0  0  0  0  0  0  0  0
   -0.1508    0.6545   -0.6241 H   0  0  0  0  0  0  0  0  0  0  0  0
    0.6329    0.6647    1.6983 H   0  0  0  0  0  0  0  0  0  0  0  0
    0.6004   -1.1236    1.7568 H   0  0  0  0  0  0  0  0  0  0  0  0
    4.0550   -0.2264   -1.0935 H   0  0  0  0  0  0  0  0  0  0  0  0
    4.6399    0.0938    0.5359 H   0  0  0  0  0  0  0  0  0  0  0  0
    4.5181    1.4300   -0.6361 H   0  0  0  0  0  0  0  0  0  0  0  0
  1  2  1  0  0  0  0
  2  3  1  0  0  0  0
  3  4  1  0  0  0  0
  4  5  1  0  0  0  0
  5  6  1  0  0  0  0
  6  7  1  0  0  0  0
  7  8  1  0  0  0  0
  7  9  2  0  0  0  0
  1 10  1  0  0  0  0
  1 11  1  0  0  0  0
  1 12  1  0  0  0  0
  2 13  1  0  0  0  0
  2 14  1  0  0  0  0
  4 15  1  0  0  0  0
  4 16  1  0  0  0  0
  5 17  1  0  0  0  0
  5 18  1  0  0  0  0
  8 19  1  0  0  0  0
  8 20  1  0  0  0  0
  8 21  1  0  0  0  0
M  END
