 xtb: 6.7.1 (edcfbbe)
          07072604303D

 31 30  0     0  0            999 V2000
    4.9839    1.1286    0.8392 C   0  0  0  0  0  0  0  0  0  0  0  0
    3.4697    1.2138    0.8109 C   0  0  0  0  0  0  0  0  0  0  0  0
    2.9447   -0.0982    0.6068 O   0  0  0  0  0  0  0  0  0  0  0  0
    1.6466   -0.1795    0.2993 C   0  0  0  0  0  0  0  0  0  0  0  0
    0.9123    0.7767    0.2324 O   0  0  0  0  0  0  0  0  0  0  0  0
    1.2438   -1.5827    0.0724 C   0  0  0  0  0  0  0  0  0  0  0  0
    0.1138   -1.8809   -0.5623 C   0  0  0  0  0  0  0  0  0  0  0  0
   -0.7208   -0.8482   -1.2656 C   0  0  0  0  0  0  0  0  0  0  0  0
   -0.4239   -0.5499   -2.4081 O   0  0  0  0  0  0  0  0  0  0  0  0
   -1.7907   -0.3633   -0.6124 N   0  0  0  0  0  0  0  0  0  0  0  0
   -2.5729    0.6844   -1.2401 C   0  0  0  0  0  0  0  0  0  0  0  0
   -2.1678    2.0660   -0.7348 C   0  0  0  0  0  0  0  0  0  0  0  0
   -2.1511   -0.7748    0.7244 C   0  0  0  0  0  0  0  0  0  0  0  0
   -3.1812   -1.9048    0.7091 C   0  0  0  0  0  0  0  0  0  0  0  0
    5.3074    0.4718    1.6422 H   0  0  0  0  0  0  0  0  0  0  0  0
    5.3534    0.7335   -0.1031 H   0  0  0  0  0  0  0  0  0  0  0  0
    5.4018    2.1184    0.9983 H   0  0  0  0  0  0  0  0  0  0  0  0
    3.1188    1.8631    0.0009 H   0  0  0  0  0  0  0  0  0  0  0  0
    3.0753    1.6061    1.7558 H   0  0  0  0  0  0  0  0  0  0  0  0
    1.9268   -2.3348    0.4384 H   0  0  0  0  0  0  0  0  0  0  0  0
   -0.1643   -2.9097   -0.7483 H   0  0  0  0  0  0  0  0  0  0  0  0
   -2.3820    0.6183   -2.3134 H   0  0  0  0  0  0  0  0  0  0  0  0
   -3.6338    0.4959   -1.0525 H   0  0  0  0  0  0  0  0  0  0  0  0
   -2.6553    2.8363   -1.3261 H   0  0  0  0  0  0  0  0  0  0  0  0
   -1.0904    2.1763   -0.8203 H   0  0  0  0  0  0  0  0  0  0  0  0
   -2.4445    2.2022    0.3082 H   0  0  0  0  0  0  0  0  0  0  0  0
   -1.2521   -1.1003    1.2522 H   0  0  0  0  0  0  0  0  0  0  0  0
   -2.5586    0.0896    1.2531 H   0  0  0  0  0  0  0  0  0  0  0  0
   -2.7828   -2.7755    0.1946 H   0  0  0  0  0  0  0  0  0  0  0  0
   -3.4385   -2.1881    1.7261 H   0  0  0  0  0  0  0  0  0  0  0  0
   -4.0876   -1.5900    0.1978 H   0  0  0  0  0  0  0  0  0  0  0  0
  1  2  1  0  0  0  0
  2  3  1  0  0  0  0
  3  4  1  0  0  0  0
  4  5  2  0  0  0  0
  4  6  1  0  0  0  0
  6  7  2  0  0  0  0
  7  8  1  0  0  0  0
  8  9  2  0  0  0  0
  8 10  4  0  0  0  0
 10 11  1  0  0  0  0
 11 12  1  0  0  0  0
 10 13  1  0  0  0  0
 13 14  1  0  0  0  0
  1 15  1  0  0  0  0
  1 16  1  0  0  0  0
  1 17  1  0  0  0  0
  2 18  1  0  0  0  0
  2 19  1  0  0  0  0
  6 20  1  0  0  0  0
  7 21  1  0  0  0  0
 11 22  1  0  0  0  0
 11 23  1  0  0  0  0
 12 24  1  0  0  0  0
 12 25  1  0  0  0  0
 12 26  1  0  0  0  0
 13 27  1  0  0  0  0
 13 28  1  0  0  0  0
 14 29  1  0  0  0  0
 14 30  1  0  0  0  0
 14 31  1  0  0  0  0
M  END
