 xtb: 6.7.1 (edcfbbe)
          07092604193D

 28 29  0     0  0            999 V2000
    2.5461    0.6466   -0.0664 C   0  0  0  0  0  0  0  0  0  0  0  0
    2.4187   -0.4400    0.9962 C   0  0  0  0  0  0  0  0  0  0  0  0
    1.2340   -1.3491    0.6857 C   0  0  0  0  0  0  0  0  0  0  0  0
   -0.0639   -0.5459    0.5955 C   0  0  0  0  0  0  0  0  0  0  0  0
   -1.2544   -1.4527    0.2817 C   0  0  0  0  0  0  0  0  0  0  0  0
   -2.5461   -0.6466    0.1901 C   0  0  0  0  0  0  0  0  0  0  0  0
   -2.4187    0.4400   -0.8726 C   0  0  0  0  0  0  0  0  0  0  0  0
   -1.2340    1.3491   -0.5621 C   0  0  0  0  0  0  0  0  0  0  0  0
    0.0639    0.5459   -0.4719 C   0  0  0  0  0  0  0  0  0  0  0  0
    1.2544    1.4527   -0.1580 C   0  0  0  0  0  0  0  0  0  0  0  0
    3.3812    1.3083    0.1738 H   0  0  0  0  0  0  0  0  0  0  0  0
    2.7541    0.1837   -1.0341 H   0  0  0  0  0  0  0  0  0  0  0  0
    2.2723    0.0255    1.9739 H   0  0  0  0  0  0  0  0  0  0  0  0
    3.3377   -1.0287    1.0408 H   0  0  0  0  0  0  0  0  0  0  0  0
    1.1395   -2.1143    1.4599 H   0  0  0  0  0  0  0  0  0  0  0  0
    1.4088   -1.8587   -0.2654 H   0  0  0  0  0  0  0  0  0  0  0  0
   -0.2413   -0.0625    1.5636 H   0  0  0  0  0  0  0  0  0  0  0  0
   -1.0779   -1.9621   -0.6691 H   0  0  0  0  0  0  0  0  0  0  0  0
   -1.3477   -2.2178    1.0561 H   0  0  0  0  0  0  0  0  0  0  0  0
   -2.7541   -0.1837    1.1577 H   0  0  0  0  0  0  0  0  0  0  0  0
   -3.3812   -1.3083   -0.0502 H   0  0  0  0  0  0  0  0  0  0  0  0
   -2.2723   -0.0255   -1.8502 H   0  0  0  0  0  0  0  0  0  0  0  0
   -3.3377    1.0287   -0.9172 H   0  0  0  0  0  0  0  0  0  0  0  0
   -1.1395    2.1143   -1.3363 H   0  0  0  0  0  0  0  0  0  0  0  0
   -1.4088    1.8587    0.3890 H   0  0  0  0  0  0  0  0  0  0  0  0
    0.2413    0.0625   -1.4400 H   0  0  0  0  0  0  0  0  0  0  0  0
    1.3477    2.2178   -0.9324 H   0  0  0  0  0  0  0  0  0  0  0  0
    1.0779    1.9621    0.7928 H   0  0  0  0  0  0  0  0  0  0  0  0
  1  2  1  0  0  0  0
  2  3  1  0  0  0  0
  3  4  1  0  0  0  0
  4  5  1  0  0  0  0
  5  6  1  0  0  0  0
  6  7  1  0  0  0  0
  7  8  1  0  0  0  0
  4  9  1  0  0  0  0
  8  9  1  0  0  0  0
  1 10  1  0  0  0  0
  9 10  1  0  0  0  0
  1 11  1  0  0  0  0
  1 12  1  0  0  0  0
  2 13  1  0  0  0  0
  2 14  1  0  0  0  0
  3 15  1  0  0  0  0
  3 16  1  0  0  0  0
  4 17  1  0  0  0  0
  5 18  1  0  0  0  0
  5 19  1  0  0  0  0
  6 20  1  0  0  0  0
  6 21  1  0  0  0  0
  7 22  1  0  0  0  0
  7 23  1  0  0  0  0
  8 24  1  0  0  0  0
  8 25  1  0  0  0  0
  9 26  1  0  0  0  0
 10 27  1  0  0  0  0
 10 28  1  0  0  0  0
M  END
