 xtb: 6.7.1 (edcfbbe)
          07082623053D

 24 24  0     0  0            999 V2000
    3.8232   -0.0511    0.0271 C   0  0  0  0  0  0  0  0  0  0  0  0
    2.3282    0.0287   -0.0481 C   0  0  0  0  0  0  0  0  0  0  0  0
    1.5304   -0.8803    0.6347 C   0  0  0  0  0  0  0  0  0  0  0  0
    0.1521   -0.7955    0.5834 C   0  0  0  0  0  0  0  0  0  0  0  0
   -0.4752    0.2018   -0.1531 C   0  0  0  0  0  0  0  0  0  0  0  0
   -1.9797    0.3021   -0.2177 C   0  0  0  0  0  0  0  0  0  0  0  0
   -2.5681    0.5552    1.1719 C   0  0  0  0  0  0  0  0  0  0  0  0
   -2.5844   -0.9575   -0.8415 C   0  0  0  0  0  0  0  0  0  0  0  0
    0.3236    1.1101   -0.8343 C   0  0  0  0  0  0  0  0  0  0  0  0
    1.7031    1.0262   -0.7835 C   0  0  0  0  0  0  0  0  0  0  0  0
    4.1503   -1.0782    0.1728 H   0  0  0  0  0  0  0  0  0  0  0  0
    4.2791    0.3397   -0.8799 H   0  0  0  0  0  0  0  0  0  0  0  0
    4.1865    0.5406    0.8685 H   0  0  0  0  0  0  0  0  0  0  0  0
    1.9957   -1.6660    1.2136 H   0  0  0  0  0  0  0  0  0  0  0  0
   -0.4391   -1.5195    1.1248 H   0  0  0  0  0  0  0  0  0  0  0  0
   -2.2366    1.1549   -0.8565 H   0  0  0  0  0  0  0  0  0  0  0  0
   -3.6454    0.6928    1.1059 H   0  0  0  0  0  0  0  0  0  0  0  0
   -2.1306    1.4493    1.6110 H   0  0  0  0  0  0  0  0  0  0  0  0
   -2.3696   -0.2838    1.8342 H   0  0  0  0  0  0  0  0  0  0  0  0
   -2.1560   -1.1355   -1.8256 H   0  0  0  0  0  0  0  0  0  0  0  0
   -2.3892   -1.8283   -0.2205 H   0  0  0  0  0  0  0  0  0  0  0  0
   -3.6616   -0.8462   -0.9471 H   0  0  0  0  0  0  0  0  0  0  0  0
   -0.1397    1.8953   -1.4160 H   0  0  0  0  0  0  0  0  0  0  0  0
    2.3027    1.7455   -1.3239 H   0  0  0  0  0  0  0  0  0  0  0  0
  1  2  1  0  0  0  0
  2  3  4  0  0  0  0
  3  4  4  0  0  0  0
  4  5  4  0  0  0  0
  5  6  1  0  0  0  0
  6  7  1  0  0  0  0
  6  8  1  0  0  0  0
  5  9  4  0  0  0  0
  2 10  4  0  0  0  0
  9 10  4  0  0  0  0
  1 11  1  0  0  0  0
  1 12  1  0  0  0  0
  1 13  1  0  0  0  0
  3 14  1  0  0  0  0
  4 15  1  0  0  0  0
  6 16  1  0  0  0  0
  7 17  1  0  0  0  0
  7 18  1  0  0  0  0
  7 19  1  0  0  0  0
  8 20  1  0  0  0  0
  8 21  1  0  0  0  0
  8 22  1  0  0  0  0
  9 23  1  0  0  0  0
 10 24  1  0  0  0  0
M  END
