 xtb: 6.7.1 (edcfbbe)
          07082605063D

 20 20  0     0  0            999 V2000
   -2.7326   -1.0657    0.3463 C   0  0  0  0  0  0  0  0  0  0  0  0
   -2.2393    0.2146    0.0480 O   0  0  0  0  0  0  0  0  0  0  0  0
   -0.8723    0.3800   -0.0428 C   0  0  0  0  0  0  0  0  0  0  0  0
    0.0725   -0.6133    0.1341 C   0  0  0  0  0  0  0  0  0  0  0  0
    1.4314   -0.3305    0.0215 C   0  0  0  0  0  0  0  0  0  0  0  0
    2.4414   -1.4261    0.1934 C   0  0  0  0  0  0  0  0  0  0  0  0
    1.8258    0.9640   -0.2729 C   0  0  0  0  0  0  0  0  0  0  0  0
    0.8890    1.9679   -0.4528 C   0  0  0  0  0  0  0  0  0  0  0  0
   -0.4611    1.6895   -0.3405 C   0  0  0  0  0  0  0  0  0  0  0  0
   -1.3811    2.6768   -0.5150 O   0  0  0  0  0  0  0  0  0  0  0  0
   -3.8170   -0.9669    0.3699 H   0  0  0  0  0  0  0  0  0  0  0  0
   -2.3795   -1.4134    1.3225 H   0  0  0  0  0  0  0  0  0  0  0  0
   -2.4518   -1.7923   -0.4228 H   0  0  0  0  0  0  0  0  0  0  0  0
   -0.2316   -1.6231    0.3631 H   0  0  0  0  0  0  0  0  0  0  0  0
    2.6198   -1.9245   -0.7602 H   0  0  0  0  0  0  0  0  0  0  0  0
    3.3887   -1.0252    0.5453 H   0  0  0  0  0  0  0  0  0  0  0  0
    2.0901   -2.1726    0.9021 H   0  0  0  0  0  0  0  0  0  0  0  0
    2.8762    1.1967   -0.3630 H   0  0  0  0  0  0  0  0  0  0  0  0
    1.1886    2.9782   -0.6804 H   0  0  0  0  0  0  0  0  0  0  0  0
   -2.2573    2.2861   -0.3956 H   0  0  0  0  0  0  0  0  0  0  0  0
  1  2  1  0  0  0  0
  2  3  1  0  0  0  0
  3  4  4  0  0  0  0
  4  5  4  0  0  0  0
  5  6  1  0  0  0  0
  5  7  4  0  0  0  0
  7  8  4  0  0  0  0
  3  9  4  0  0  0  0
  8  9  4  0  0  0  0
  9 10  1  0  0  0  0
  1 11  1  0  0  0  0
  1 12  1  0  0  0  0
  1 13  1  0  0  0  0
  4 14  1  0  0  0  0
  6 15  1  0  0  0  0
  6 16  1  0  0  0  0
  6 17  1  0  0  0  0
  7 18  1  0  0  0  0
  8 19  1  0  0  0  0
 10 20  1  0  0  0  0
M  END
