 xtb: 6.7.1 (edcfbbe)
          07082614283D

 32 33  0     0  0            999 V2000
   -0.4036    0.8450    1.2924 O   0  0  0  0  0  0  0  0  0  0  0  0
   -0.6599    0.6273   -0.0813 C   0  0  0  0  0  0  0  0  0  0  0  0
    0.5407    1.1258   -0.9329 C   0  0  0  0  0  0  0  0  0  0  0  0
    1.8092    0.3901   -0.6193 C   0  0  0  0  0  0  0  0  0  0  0  0
    2.5889    0.7633    0.4709 C   0  0  0  0  0  0  0  0  0  0  0  0
    3.7368    0.0604    0.7936 C   0  0  0  0  0  0  0  0  0  0  0  0
    4.1263   -1.0241    0.0268 C   0  0  0  0  0  0  0  0  0  0  0  0
    3.3639   -1.3978   -1.0671 C   0  0  0  0  0  0  0  0  0  0  0  0
    2.2145   -0.6972   -1.3855 C   0  0  0  0  0  0  0  0  0  0  0  0
   -1.9042    1.4514   -0.4378 C   0  0  0  0  0  0  0  0  0  0  0  0
   -3.1327    0.9535    0.3177 C   0  0  0  0  0  0  0  0  0  0  0  0
   -3.3871   -0.5196    0.0188 C   0  0  0  0  0  0  0  0  0  0  0  0
   -2.1634   -1.3412    0.4080 C   0  0  0  0  0  0  0  0  0  0  0  0
   -0.9332   -0.8601   -0.3568 C   0  0  0  0  0  0  0  0  0  0  0  0
    0.3697    0.3248    1.5404 H   0  0  0  0  0  0  0  0  0  0  0  0
    0.6714    2.1893   -0.7216 H   0  0  0  0  0  0  0  0  0  0  0  0
    0.2902    1.0092   -1.9879 H   0  0  0  0  0  0  0  0  0  0  0  0
    2.2997    1.6196    1.0641 H   0  0  0  0  0  0  0  0  0  0  0  0
    4.3308    0.3635    1.6436 H   0  0  0  0  0  0  0  0  0  0  0  0
    5.0230   -1.5719    0.2761 H   0  0  0  0  0  0  0  0  0  0  0  0
    3.6664   -2.2381   -1.6751 H   0  0  0  0  0  0  0  0  0  0  0  0
    1.6264   -0.9929   -2.2426 H   0  0  0  0  0  0  0  0  0  0  0  0
   -2.0769    1.3834   -1.5134 H   0  0  0  0  0  0  0  0  0  0  0  0
   -1.7154    2.4951   -0.1824 H   0  0  0  0  0  0  0  0  0  0  0  0
   -2.9589    1.0810    1.3868 H   0  0  0  0  0  0  0  0  0  0  0  0
   -4.0009    1.5528    0.0366 H   0  0  0  0  0  0  0  0  0  0  0  0
   -4.2612   -0.8673    0.5728 H   0  0  0  0  0  0  0  0  0  0  0  0
   -3.5909   -0.6485   -1.0475 H   0  0  0  0  0  0  0  0  0  0  0  0
   -1.9841   -1.2285    1.4791 H   0  0  0  0  0  0  0  0  0  0  0  0
   -2.3334   -2.3998    0.2004 H   0  0  0  0  0  0  0  0  0  0  0  0
   -1.0914   -0.9972   -1.4281 H   0  0  0  0  0  0  0  0  0  0  0  0
   -0.0609   -1.4514   -0.0650 H   0  0  0  0  0  0  0  0  0  0  0  0
  1  2  1  0  0  0  0
  2  3  1  0  0  0  0
  3  4  1  0  0  0  0
  4  5  4  0  0  0  0
  5  6  4  0  0  0  0
  6  7  4  0  0  0  0
  7  8  4  0  0  0  0
  4  9  4  0  0  0  0
  8  9  4  0  0  0  0
  2 10  1  0  0  0  0
 10 11  1  0  0  0  0
 11 12  1  0  0  0  0
 12 13  1  0  0  0  0
  2 14  1  0  0  0  0
 13 14  1  0  0  0  0
  1 15  1  0  0  0  0
  3 16  1  0  0  0  0
  3 17  1  0  0  0  0
  5 18  1  0  0  0  0
  6 19  1  0  0  0  0
  7 20  1  0  0  0  0
  8 21  1  0  0  0  0
  9 22  1  0  0  0  0
 10 23  1  0  0  0  0
 10 24  1  0  0  0  0
 11 25  1  0  0  0  0
 11 26  1  0  0  0  0
 12 27  1  0  0  0  0
 12 28  1  0  0  0  0
 13 29  1  0  0  0  0
 13 30  1  0  0  0  0
 14 31  1  0  0  0  0
 14 32  1  0  0  0  0
M  END
