 xtb: 6.7.1 (edcfbbe)
          07072609553D

 32 33  0     0  0            999 V2000
   -1.9368    1.9821    0.7474 C   0  0  0  0  0  0  0  0  0  0  0  0
   -2.6914    0.8085    0.1341 C   0  0  0  0  0  0  0  0  0  0  0  0
   -2.1428   -0.5417    0.6039 C   0  0  0  0  0  0  0  0  0  0  0  0
   -2.9381   -1.7102    0.0301 C   0  0  0  0  0  0  0  0  0  0  0  0
   -0.7335   -0.6693    0.2472 N   0  0  0  0  0  0  0  0  0  0  0  0
    0.2469   -0.7880    1.2097 C   0  0  0  0  0  0  0  0  0  0  0  0
    0.0390   -0.8209    2.3945 O   0  0  0  0  0  0  0  0  0  0  0  0
    1.5922   -0.8466    0.5127 C   0  0  0  0  0  0  0  0  0  0  0  0
    2.4951    0.3042    1.0008 C   0  0  0  0  0  0  0  0  0  0  0  0
    3.6183    0.5069    0.0324 C   0  0  0  0  0  0  0  0  0  0  0  0
    3.3366    0.5698   -1.2596 C   0  0  0  0  0  0  0  0  0  0  0  0
    1.9086    0.4367   -1.6882 C   0  0  0  0  0  0  0  0  0  0  0  0
    1.2634   -0.7705   -0.9786 C   0  0  0  0  0  0  0  0  0  0  0  0
   -0.2509   -0.6667   -1.0425 C   0  0  0  0  0  0  0  0  0  0  0  0
   -0.9214   -0.5803   -2.0385 O   0  0  0  0  0  0  0  0  0  0  0  0
   -0.9022    1.9979    0.4097 H   0  0  0  0  0  0  0  0  0  0  0  0
   -2.4002    2.9219    0.4576 H   0  0  0  0  0  0  0  0  0  0  0  0
   -1.9399    1.9142    1.8334 H   0  0  0  0  0  0  0  0  0  0  0  0
   -2.6338    0.8556   -0.9543 H   0  0  0  0  0  0  0  0  0  0  0  0
   -3.7428    0.8615    0.4207 H   0  0  0  0  0  0  0  0  0  0  0  0
   -2.1604   -0.5823    1.6999 H   0  0  0  0  0  0  0  0  0  0  0  0
   -2.9099   -1.6848   -1.0560 H   0  0  0  0  0  0  0  0  0  0  0  0
   -3.9721   -1.6464    0.3571 H   0  0  0  0  0  0  0  0  0  0  0  0
   -2.5227   -2.6556    0.3725 H   0  0  0  0  0  0  0  0  0  0  0  0
    2.0790   -1.7919    0.7669 H   0  0  0  0  0  0  0  0  0  0  0  0
    1.8976    1.2208    1.0545 H   0  0  0  0  0  0  0  0  0  0  0  0
    2.8543    0.0847    2.0047 H   0  0  0  0  0  0  0  0  0  0  0  0
    4.6226    0.5942    0.4143 H   0  0  0  0  0  0  0  0  0  0  0  0
    4.0933    0.7124   -2.0140 H   0  0  0  0  0  0  0  0  0  0  0  0
    1.8141    0.3189   -2.7663 H   0  0  0  0  0  0  0  0  0  0  0  0
    1.3638    1.3436   -1.4040 H   0  0  0  0  0  0  0  0  0  0  0  0
    1.5738   -1.6787   -1.5021 H   0  0  0  0  0  0  0  0  0  0  0  0
  1  2  1  0  0  0  0
  2  3  1  0  0  0  0
  3  4  1  0  0  0  0
  3  5  1  0  0  0  0
  5  6  1  0  0  0  0
  6  7  2  0  0  0  0
  6  8  1  0  0  0  0
  8  9  1  0  0  0  0
  9 10  1  0  0  0  0
 10 11  2  0  0  0  0
 11 12  1  0  0  0  0
  8 13  1  0  0  0  0
 12 13  1  0  0  0  0
  5 14  1  0  0  0  0
 13 14  1  0  0  0  0
 14 15  2  0  0  0  0
  1 16  1  0  0  0  0
  1 17  1  0  0  0  0
  1 18  1  0  0  0  0
  2 19  1  0  0  0  0
  2 20  1  0  0  0  0
  3 21  1  0  0  0  0
  4 22  1  0  0  0  0
  4 23  1  0  0  0  0
  4 24  1  0  0  0  0
  8 25  1  0  0  0  0
  9 26  1  0  0  0  0
  9 27  1  0  0  0  0
 10 28  1  0  0  0  0
 11 29  1  0  0  0  0
 12 30  1  0  0  0  0
 12 31  1  0  0  0  0
 13 32  1  0  0  0  0
M  END
