 xtb: 6.7.1 (edcfbbe)
          07082618113D

 19 18  0     0  0            999 V2000
    2.7106   -0.7602    0.0779 C   0  0  0  0  0  0  0  0  0  0  0  0
    1.4547   -0.0811    0.5690 C   0  0  0  0  0  0  0  0  0  0  0  0
    1.2499    0.1366    1.7351 O   0  0  0  0  0  0  0  0  0  0  0  0
    0.4926    0.3117   -0.5322 C   0  0  0  0  0  0  0  0  0  0  0  0
   -0.9471    0.4883   -0.0398 C   0  0  0  0  0  0  0  0  0  0  0  0
   -1.7931    1.1834   -1.1026 C   0  0  0  0  0  0  0  0  0  0  0  0
   -1.5489   -0.8663    0.3248 C   0  0  0  0  0  0  0  0  0  0  0  0
    3.4551   -0.7956    0.8688 H   0  0  0  0  0  0  0  0  0  0  0  0
    3.1112   -0.2446   -0.7910 H   0  0  0  0  0  0  0  0  0  0  0  0
    2.4627   -1.7790   -0.2164 H   0  0  0  0  0  0  0  0  0  0  0  0
    0.5353   -0.4228   -1.3386 H   0  0  0  0  0  0  0  0  0  0  0  0
    0.8596    1.2616   -0.9338 H   0  0  0  0  0  0  0  0  0  0  0  0
   -0.9199    1.1098    0.8606 H   0  0  0  0  0  0  0  0  0  0  0  0
   -2.8131    1.3131   -0.7493 H   0  0  0  0  0  0  0  0  0  0  0  0
   -1.3877    2.1642   -1.3420 H   0  0  0  0  0  0  0  0  0  0  0  0
   -1.8207    0.5899   -2.0148 H   0  0  0  0  0  0  0  0  0  0  0  0
   -1.5778   -1.5193   -0.5462 H   0  0  0  0  0  0  0  0  0  0  0  0
   -0.9592   -1.3463    1.1018 H   0  0  0  0  0  0  0  0  0  0  0  0
   -2.5641   -0.7434    0.6944 H   0  0  0  0  0  0  0  0  0  0  0  0
  1  2  1  0  0  0  0
  2  3  2  0  0  0  0
  2  4  1  0  0  0  0
  4  5  1  0  0  0  0
  5  6  1  0  0  0  0
  5  7  1  0  0  0  0
  1  8  1  0  0  0  0
  1  9  1  0  0  0  0
  1 10  1  0  0  0  0
  4 11  1  0  0  0  0
  4 12  1  0  0  0  0
  5 13  1  0  0  0  0
  6 14  1  0  0  0  0
  6 15  1  0  0  0  0
  6 16  1  0  0  0  0
  7 17  1  0  0  0  0
  7 18  1  0  0  0  0
  7 19  1  0  0  0  0
M  END
