 xtb: 6.7.1 (edcfbbe)
          07072604193D

 59 59  0     0  0            999 V2000
   -1.4035    3.2249    2.1383 C   0  0  0  0  0  0  0  0  0  0  0  0
   -2.5458    3.6723    1.2358 C   0  0  0  0  0  0  0  0  0  0  0  0
   -2.3165    3.2832   -0.2309 C   0  0  0  0  0  0  0  0  0  0  0  0
   -2.3439    1.8056   -0.4194 C   0  0  0  0  0  0  0  0  0  0  0  0
   -1.2934    0.8925   -0.3414 C   0  0  0  0  0  0  0  0  0  0  0  0
   -1.8714   -0.3550   -0.5672 C   0  0  0  0  0  0  0  0  0  0  0  0
   -1.1306   -1.6151   -0.5771 C   0  0  0  0  0  0  0  0  0  0  0  0
   -1.5599   -2.7283   -0.7914 O   0  0  0  0  0  0  0  0  0  0  0  0
    0.1579   -1.3801   -0.3031 O   0  0  0  0  0  0  0  0  0  0  0  0
    1.0284   -2.5142   -0.2785 C   0  0  0  0  0  0  0  0  0  0  0  0
    2.3362   -2.0533    0.2741 C   0  0  0  0  0  0  0  0  0  0  0  0
    3.5493   -2.2980   -0.2072 C   0  0  0  0  0  0  0  0  0  0  0  0
    3.8341   -3.1508   -1.4063 C   0  0  0  0  0  0  0  0  0  0  0  0
    4.7554   -1.6922    0.4571 C   0  0  0  0  0  0  0  0  0  0  0  0
    5.1535   -0.3727   -0.2356 C   0  0  0  0  0  0  0  0  0  0  0  0
    4.0270    0.6171   -0.2087 C   0  0  0  0  0  0  0  0  0  0  0  0
    3.6965    1.4137    0.8005 C   0  0  0  0  0  0  0  0  0  0  0  0
    4.4285    1.4801    2.1080 C   0  0  0  0  0  0  0  0  0  0  0  0
    2.5090    2.3274    0.7170 C   0  0  0  0  0  0  0  0  0  0  0  0
   -3.2025   -0.1275   -0.7638 N   0  0  0  0  0  0  0  0  0  0  0  0
   -4.2932   -1.0570   -1.0537 C   0  0  0  0  0  0  0  0  0  0  0  0
   -4.0093   -1.7706   -2.3774 C   0  0  0  0  0  0  0  0  0  0  0  0
   -5.5827   -0.2448   -1.1758 C   0  0  0  0  0  0  0  0  0  0  0  0
   -4.4248   -2.0587    0.0956 C   0  0  0  0  0  0  0  0  0  0  0  0
   -3.4758    1.1595   -0.6735 N   0  0  0  0  0  0  0  0  0  0  0  0
   -0.4667    3.6754    1.8161 H   0  0  0  0  0  0  0  0  0  0  0  0
   -1.2942    2.1433    2.1077 H   0  0  0  0  0  0  0  0  0  0  0  0
   -1.5921    3.5224    3.1676 H   0  0  0  0  0  0  0  0  0  0  0  0
   -2.6516    4.7577    1.2975 H   0  0  0  0  0  0  0  0  0  0  0  0
   -3.4810    3.2234    1.5758 H   0  0  0  0  0  0  0  0  0  0  0  0
   -1.3516    3.6724   -0.5625 H   0  0  0  0  0  0  0  0  0  0  0  0
   -3.1054    3.7240   -0.8421 H   0  0  0  0  0  0  0  0  0  0  0  0
   -0.2572    1.0851   -0.1573 H   0  0  0  0  0  0  0  0  0  0  0  0
    1.1104   -2.9219   -1.2909 H   0  0  0  0  0  0  0  0  0  0  0  0
    0.5764   -3.2888    0.3571 H   0  0  0  0  0  0  0  0  0  0  0  0
    2.2303   -1.4263    1.1483 H   0  0  0  0  0  0  0  0  0  0  0  0
    3.0195   -3.1298   -2.1250 H   0  0  0  0  0  0  0  0  0  0  0  0
    3.9836   -4.1859   -1.0976 H   0  0  0  0  0  0  0  0  0  0  0  0
    4.7429   -2.8159   -1.9013 H   0  0  0  0  0  0  0  0  0  0  0  0
    4.5363   -1.4815    1.5041 H   0  0  0  0  0  0  0  0  0  0  0  0
    5.5960   -2.3879    0.4107 H   0  0  0  0  0  0  0  0  0  0  0  0
    6.0377    0.0290    0.2636 H   0  0  0  0  0  0  0  0  0  0  0  0
    5.4230   -0.5788   -1.2730 H   0  0  0  0  0  0  0  0  0  0  0  0
    3.4117    0.6321   -1.0982 H   0  0  0  0  0  0  0  0  0  0  0  0
    4.5820    2.5183    2.4000 H   0  0  0  0  0  0  0  0  0  0  0  0
    5.3931    0.9843    2.0631 H   0  0  0  0  0  0  0  0  0  0  0  0
    3.8355    1.0036    2.8895 H   0  0  0  0  0  0  0  0  0  0  0  0
    2.8162    3.3650    0.8489 H   0  0  0  0  0  0  0  0  0  0  0  0
    1.7985    2.0905    1.5093 H   0  0  0  0  0  0  0  0  0  0  0  0
    2.0083    2.2331   -0.2431 H   0  0  0  0  0  0  0  0  0  0  0  0
   -3.1325   -2.4043   -2.2896 H   0  0  0  0  0  0  0  0  0  0  0  0
   -3.8469   -1.0428   -3.1697 H   0  0  0  0  0  0  0  0  0  0  0  0
   -4.8580   -2.3937   -2.6454 H   0  0  0  0  0  0  0  0  0  0  0  0
   -5.7849    0.2912   -0.2533 H   0  0  0  0  0  0  0  0  0  0  0  0
   -5.5011    0.4819   -1.9785 H   0  0  0  0  0  0  0  0  0  0  0  0
   -6.4114   -0.9154   -1.3861 H   0  0  0  0  0  0  0  0  0  0  0  0
   -3.5419   -2.6866    0.1591 H   0  0  0  0  0  0  0  0  0  0  0  0
   -4.5599   -1.5340    1.0392 H   0  0  0  0  0  0  0  0  0  0  0  0
   -5.2875   -2.6969   -0.0743 H   0  0  0  0  0  0  0  0  0  0  0  0
  1  2  1  0  0  0  0
  2  3  1  0  0  0  0
  3  4  1  0  0  0  0
  4  5  4  0  0  0  0
  5  6  4  0  0  0  0
  6  7  1  0  0  0  0
  7  8  2  0  0  0  0
  7  9  1  0  0  0  0
  9 10  1  0  0  0  0
 10 11  1  0  0  0  0
 11 12  2  0  0  0  0
 12 13  1  0  0  0  0
 12 14  1  0  0  0  0
 14 15  1  0  0  0  0
 15 16  1  0  0  0  0
 16 17  2  0  0  0  0
 17 18  1  0  0  0  0
 17 19  1  0  0  0  0
  6 20  4  0  0  0  0
 20 21  1  0  0  0  0
 21 22  1  0  0  0  0
 21 23  1  0  0  0  0
 21 24  1  0  0  0  0
  4 25  4  0  0  0  0
 20 25  4  0  0  0  0
  1 26  1  0  0  0  0
  1 27  1  0  0  0  0
  1 28  1  0  0  0  0
  2 29  1  0  0  0  0
  2 30  1  0  0  0  0
  3 31  1  0  0  0  0
  3 32  1  0  0  0  0
  5 33  1  0  0  0  0
 10 34  1  0  0  0  0
 10 35  1  0  0  0  0
 11 36  1  0  0  0  0
 13 37  1  0  0  0  0
 13 38  1  0  0  0  0
 13 39  1  0  0  0  0
 14 40  1  0  0  0  0
 14 41  1  0  0  0  0
 15 42  1  0  0  0  0
 15 43  1  0  0  0  0
 16 44  1  0  0  0  0
 18 45  1  0  0  0  0
 18 46  1  0  0  0  0
 18 47  1  0  0  0  0
 19 48  1  0  0  0  0
 19 49  1  0  0  0  0
 19 50  1  0  0  0  0
 22 51  1  0  0  0  0
 22 52  1  0  0  0  0
 22 53  1  0  0  0  0
 23 54  1  0  0  0  0
 23 55  1  0  0  0  0
 23 56  1  0  0  0  0
 24 57  1  0  0  0  0
 24 58  1  0  0  0  0
 24 59  1  0  0  0  0
M  END
