 xtb: 6.7.1 (edcfbbe)
          07092606173D

 29 28  0     0  0            999 V2000
    4.6937    0.9560    0.0651 C   0  0  0  0  0  0  0  0  0  0  0  0
    3.1878    1.0436    0.2795 C   0  0  0  0  0  0  0  0  0  0  0  0
    2.5122   -0.3154    0.1109 C   0  0  0  0  0  0  0  0  0  0  0  0
    1.0027   -0.2265    0.3130 C   0  0  0  0  0  0  0  0  0  0  0  0
    0.3349   -1.5887    0.1454 C   0  0  0  0  0  0  0  0  0  0  0  0
   -1.0658   -1.5184    0.4106 O   0  0  0  0  0  0  0  0  0  0  0  0
   -1.8589   -1.1179   -0.5895 C   0  0  0  0  0  0  0  0  0  0  0  0
   -1.4637   -0.8367   -1.6900 O   0  0  0  0  0  0  0  0  0  0  0  0
   -3.3066   -1.0906   -0.1527 C   0  0  0  0  0  0  0  0  0  0  0  0
   -3.9802    0.2152   -0.5792 C   0  0  0  0  0  0  0  0  0  0  0  0
   -3.4079    1.4112    0.1712 C   0  0  0  0  0  0  0  0  0  0  0  0
    4.9156    0.5979   -0.9377 H   0  0  0  0  0  0  0  0  0  0  0  0
    5.1554    1.9324    0.1908 H   0  0  0  0  0  0  0  0  0  0  0  0
    5.1421    0.2696    0.7801 H   0  0  0  0  0  0  0  0  0  0  0  0
    2.9852    1.4253    1.2827 H   0  0  0  0  0  0  0  0  0  0  0  0
    2.7598    1.7489   -0.4360 H   0  0  0  0  0  0  0  0  0  0  0  0
    2.9342   -1.0209    0.8308 H   0  0  0  0  0  0  0  0  0  0  0  0
    2.7190   -0.6994   -0.8904 H   0  0  0  0  0  0  0  0  0  0  0  0
    0.5744    0.4636   -0.4168 H   0  0  0  0  0  0  0  0  0  0  0  0
    0.7816    0.1548    1.3127 H   0  0  0  0  0  0  0  0  0  0  0  0
    0.7293   -2.3094    0.8650 H   0  0  0  0  0  0  0  0  0  0  0  0
    0.4868   -1.9592   -0.8739 H   0  0  0  0  0  0  0  0  0  0  0  0
   -3.3518   -1.2245    0.9280 H   0  0  0  0  0  0  0  0  0  0  0  0
   -3.8068   -1.9346   -0.6335 H   0  0  0  0  0  0  0  0  0  0  0  0
   -3.8281    0.3499   -1.6514 H   0  0  0  0  0  0  0  0  0  0  0  0
   -5.0530    0.1419   -0.3912 H   0  0  0  0  0  0  0  0  0  0  0  0
   -3.5414    1.2910    1.2445 H   0  0  0  0  0  0  0  0  0  0  0  0
   -3.9058    2.3273   -0.1373 H   0  0  0  0  0  0  0  0  0  0  0  0
   -2.3448    1.5137   -0.0340 H   0  0  0  0  0  0  0  0  0  0  0  0
  1  2  1  0  0  0  0
  2  3  1  0  0  0  0
  3  4  1  0  0  0  0
  4  5  1  0  0  0  0
  5  6  1  0  0  0  0
  6  7  1  0  0  0  0
  7  8  2  0  0  0  0
  7  9  1  0  0  0  0
  9 10  1  0  0  0  0
 10 11  1  0  0  0  0
  1 12  1  0  0  0  0
  1 13  1  0  0  0  0
  1 14  1  0  0  0  0
  2 15  1  0  0  0  0
  2 16  1  0  0  0  0
  3 17  1  0  0  0  0
  3 18  1  0  0  0  0
  4 19  1  0  0  0  0
  4 20  1  0  0  0  0
  5 21  1  0  0  0  0
  5 22  1  0  0  0  0
  9 23  1  0  0  0  0
  9 24  1  0  0  0  0
 10 25  1  0  0  0  0
 10 26  1  0  0  0  0
 11 27  1  0  0  0  0
 11 28  1  0  0  0  0
 11 29  1  0  0  0  0
M  END
