 xtb: 6.7.1 (edcfbbe)
          07082606413D

 29 30  0     0  0            999 V2000
    3.6319   -1.5318    0.6912 C   0  0  0  0  0  0  0  0  0  0  0  0
    2.5219   -2.0880    0.0792 C   0  0  0  0  0  0  0  0  0  0  0  0
    1.6052   -1.2766   -0.5675 C   0  0  0  0  0  0  0  0  0  0  0  0
    1.7967    0.0971   -0.6165 C   0  0  0  0  0  0  0  0  0  0  0  0
    0.7997    1.0011   -1.2991 C   0  0  0  0  0  0  0  0  0  0  0  0
    0.2997    2.0147   -0.4480 O   0  0  0  0  0  0  0  0  0  0  0  0
   -0.4249    1.5182    0.6612 C   0  0  0  0  0  0  0  0  0  0  0  0
   -1.6688    0.7628    0.2622 C   0  0  0  0  0  0  0  0  0  0  0  0
   -2.6109    1.3753   -0.5557 C   0  0  0  0  0  0  0  0  0  0  0  0
   -3.7451    0.6910   -0.9523 C   0  0  0  0  0  0  0  0  0  0  0  0
   -3.9509   -0.6128   -0.5322 C   0  0  0  0  0  0  0  0  0  0  0  0
   -3.0155   -1.2299    0.2803 C   0  0  0  0  0  0  0  0  0  0  0  0
   -1.8764   -0.5469    0.6717 C   0  0  0  0  0  0  0  0  0  0  0  0
    2.9120    0.6491    0.0024 C   0  0  0  0  0  0  0  0  0  0  0  0
    3.8240   -0.1604    0.6542 C   0  0  0  0  0  0  0  0  0  0  0  0
    4.3449   -2.1651    1.1983 H   0  0  0  0  0  0  0  0  0  0  0  0
    2.3662   -3.1567    0.1095 H   0  0  0  0  0  0  0  0  0  0  0  0
    0.7342   -1.7116   -1.0379 H   0  0  0  0  0  0  0  0  0  0  0  0
   -0.0277    0.4042   -1.7102 H   0  0  0  0  0  0  0  0  0  0  0  0
    1.2825    1.5428   -2.1185 H   0  0  0  0  0  0  0  0  0  0  0  0
    0.2186    0.8791    1.2835 H   0  0  0  0  0  0  0  0  0  0  0  0
   -0.6945    2.4101    1.2356 H   0  0  0  0  0  0  0  0  0  0  0  0
   -2.4388    2.3900   -0.8840 H   0  0  0  0  0  0  0  0  0  0  0  0
   -4.4713    1.1751   -1.5890 H   0  0  0  0  0  0  0  0  0  0  0  0
   -4.8377   -1.1474   -0.8397 H   0  0  0  0  0  0  0  0  0  0  0  0
   -3.1701   -2.2482    0.6066 H   0  0  0  0  0  0  0  0  0  0  0  0
   -1.1424   -1.0330    1.2994 H   0  0  0  0  0  0  0  0  0  0  0  0
    3.0501    1.7201   -0.0257 H   0  0  0  0  0  0  0  0  0  0  0  0
    4.6874    0.2778    1.1333 H   0  0  0  0  0  0  0  0  0  0  0  0
  1  2  4  0  0  0  0
  2  3  4  0  0  0  0
  3  4  4  0  0  0  0
  4  5  1  0  0  0  0
  5  6  1  0  0  0  0
  6  7  1  0  0  0  0
  7  8  1  0  0  0  0
  8  9  4  0  0  0  0
  9 10  4  0  0  0  0
 10 11  4  0  0  0  0
 11 12  4  0  0  0  0
  8 13  4  0  0  0  0
 12 13  4  0  0  0  0
  4 14  4  0  0  0  0
  1 15  4  0  0  0  0
 14 15  4  0  0  0  0
  1 16  1  0  0  0  0
  2 17  1  0  0  0  0
  3 18  1  0  0  0  0
  5 19  1  0  0  0  0
  5 20  1  0  0  0  0
  7 21  1  0  0  0  0
  7 22  1  0  0  0  0
  9 23  1  0  0  0  0
 10 24  1  0  0  0  0
 11 25  1  0  0  0  0
 12 26  1  0  0  0  0
 13 27  1  0  0  0  0
 14 28  1  0  0  0  0
 15 29  1  0  0  0  0
M  END
