 xtb: 6.7.1 (edcfbbe)
          07082611233D

 28 27  0     0  0            999 V2000
   -4.2465    1.1123    0.4055 C   0  0  0  0  0  0  0  0  0  0  0  0
   -3.4528   -0.1716    0.1963 C   0  0  0  0  0  0  0  0  0  0  0  0
   -1.9741    0.0139    0.5291 C   0  0  0  0  0  0  0  0  0  0  0  0
   -1.1760   -1.2692    0.3080 C   0  0  0  0  0  0  0  0  0  0  0  0
    0.2839   -1.1628    0.7502 C   0  0  0  0  0  0  0  0  0  0  0  0
    1.1066   -0.1959   -0.0987 C   0  0  0  0  0  0  0  0  0  0  0  0
    2.5803   -0.2158    0.2969 C   0  0  0  0  0  0  0  0  0  0  0  0
    3.4090    0.7562   -0.5373 C   0  0  0  0  0  0  0  0  0  0  0  0
    4.8625    0.7547   -0.1687 C   0  0  0  0  0  0  0  0  0  0  0  0
    5.3722    0.0831    0.6819 O   0  0  0  0  0  0  0  0  0  0  0  0
   -4.1765    1.4392    1.4408 H   0  0  0  0  0  0  0  0  0  0  0  0
   -5.2958    0.9586    0.1646 H   0  0  0  0  0  0  0  0  0  0  0  0
   -3.8616    1.9071   -0.2301 H   0  0  0  0  0  0  0  0  0  0  0  0
   -3.5503   -0.4931   -0.8433 H   0  0  0  0  0  0  0  0  0  0  0  0
   -3.8687   -0.9614    0.8261 H   0  0  0  0  0  0  0  0  0  0  0  0
   -1.8767    0.3234    1.5725 H   0  0  0  0  0  0  0  0  0  0  0  0
   -1.5707    0.8134   -0.0950 H   0  0  0  0  0  0  0  0  0  0  0  0
   -1.6510   -2.0765    0.8712 H   0  0  0  0  0  0  0  0  0  0  0  0
   -1.2142   -1.5410   -0.7497 H   0  0  0  0  0  0  0  0  0  0  0  0
    0.7397   -2.1540    0.6895 H   0  0  0  0  0  0  0  0  0  0  0  0
    0.3224   -0.8472    1.7952 H   0  0  0  0  0  0  0  0  0  0  0  0
    1.0095   -0.4708   -1.1522 H   0  0  0  0  0  0  0  0  0  0  0  0
    0.7197    0.8181    0.0187 H   0  0  0  0  0  0  0  0  0  0  0  0
    2.9839   -1.2223    0.1718 H   0  0  0  0  0  0  0  0  0  0  0  0
    2.6825    0.0465    1.3515 H   0  0  0  0  0  0  0  0  0  0  0  0
    3.3368    0.5136   -1.6018 H   0  0  0  0  0  0  0  0  0  0  0  0
    3.0393    1.7797   -0.4228 H   0  0  0  0  0  0  0  0  0  0  0  0
    5.4665    1.4618   -0.7754 H   0  0  0  0  0  0  0  0  0  0  0  0
  1  2  1  0  0  0  0
  2  3  1  0  0  0  0
  3  4  1  0  0  0  0
  4  5  1  0  0  0  0
  5  6  1  0  0  0  0
  6  7  1  0  0  0  0
  7  8  1  0  0  0  0
  8  9  1  0  0  0  0
  9 10  2  0  0  0  0
  1 11  1  0  0  0  0
  1 12  1  0  0  0  0
  1 13  1  0  0  0  0
  2 14  1  0  0  0  0
  2 15  1  0  0  0  0
  3 16  1  0  0  0  0
  3 17  1  0  0  0  0
  4 18  1  0  0  0  0
  4 19  1  0  0  0  0
  5 20  1  0  0  0  0
  5 21  1  0  0  0  0
  6 22  1  0  0  0  0
  6 23  1  0  0  0  0
  7 24  1  0  0  0  0
  7 25  1  0  0  0  0
  8 26  1  0  0  0  0
  8 27  1  0  0  0  0
  9 28  1  0  0  0  0
M  END
