 xtb: 6.7.1 (edcfbbe)
          07082615153D

 30 29  0     0  0            999 V2000
   -0.1606   -2.1946   -1.0515 C   0  0  0  0  0  0  0  0  0  0  0  0
   -0.0733   -1.0027   -0.4804 C   0  0  0  0  0  0  0  0  0  0  0  0
   -0.9113    0.1520   -0.9566 C   0  0  0  0  0  0  0  0  0  0  0  0
   -1.8788    0.6963    0.1053 C   0  0  0  0  0  0  0  0  0  0  0  0
   -2.8387   -0.3955    0.5687 C   0  0  0  0  0  0  0  0  0  0  0  0
   -2.6555    1.8833   -0.4594 C   0  0  0  0  0  0  0  0  0  0  0  0
    0.8671   -0.7561    0.6672 C   0  0  0  0  0  0  0  0  0  0  0  0
    1.9511    0.2904    0.3674 C   0  0  0  0  0  0  0  0  0  0  0  0
    2.7995   -0.1403   -0.8254 C   0  0  0  0  0  0  0  0  0  0  0  0
    2.8296    0.4956    1.5991 C   0  0  0  0  0  0  0  0  0  0  0  0
    0.4382   -3.0293   -0.7265 H   0  0  0  0  0  0  0  0  0  0  0  0
   -0.8348   -2.3888   -1.8690 H   0  0  0  0  0  0  0  0  0  0  0  0
   -0.2549    0.9650   -1.2780 H   0  0  0  0  0  0  0  0  0  0  0  0
   -1.4920   -0.1658   -1.8255 H   0  0  0  0  0  0  0  0  0  0  0  0
   -1.3002    1.0458    0.9668 H   0  0  0  0  0  0  0  0  0  0  0  0
   -3.4417   -0.7461   -0.2663 H   0  0  0  0  0  0  0  0  0  0  0  0
   -2.2900   -1.2436    0.9715 H   0  0  0  0  0  0  0  0  0  0  0  0
   -3.5066   -0.0162    1.3393 H   0  0  0  0  0  0  0  0  0  0  0  0
   -3.3328    2.2873    0.2900 H   0  0  0  0  0  0  0  0  0  0  0  0
   -1.9782    2.6757   -0.7712 H   0  0  0  0  0  0  0  0  0  0  0  0
   -3.2439    1.5765   -1.3219 H   0  0  0  0  0  0  0  0  0  0  0  0
    1.3557   -1.6960    0.9335 H   0  0  0  0  0  0  0  0  0  0  0  0
    0.2945   -0.4239    1.5371 H   0  0  0  0  0  0  0  0  0  0  0  0
    1.4678    1.2440    0.1302 H   0  0  0  0  0  0  0  0  0  0  0  0
    3.3082   -1.0769   -0.6070 H   0  0  0  0  0  0  0  0  0  0  0  0
    3.5503    0.6135   -1.0531 H   0  0  0  0  0  0  0  0  0  0  0  0
    2.1779   -0.2882   -1.7054 H   0  0  0  0  0  0  0  0  0  0  0  0
    3.3276   -0.4335    1.8695 H   0  0  0  0  0  0  0  0  0  0  0  0
    3.5915    1.2471    1.4033 H   0  0  0  0  0  0  0  0  0  0  0  0
    2.2344    0.8249    2.4484 H   0  0  0  0  0  0  0  0  0  0  0  0
  1  2  2  0  0  0  0
  2  3  1  0  0  0  0
  3  4  1  0  0  0  0
  4  5  1  0  0  0  0
  4  6  1  0  0  0  0
  2  7  1  0  0  0  0
  7  8  1  0  0  0  0
  8  9  1  0  0  0  0
  8 10  1  0  0  0  0
  1 11  1  0  0  0  0
  1 12  1  0  0  0  0
  3 13  1  0  0  0  0
  3 14  1  0  0  0  0
  4 15  1  0  0  0  0
  5 16  1  0  0  0  0
  5 17  1  0  0  0  0
  5 18  1  0  0  0  0
  6 19  1  0  0  0  0
  6 20  1  0  0  0  0
  6 21  1  0  0  0  0
  7 22  1  0  0  0  0
  7 23  1  0  0  0  0
  8 24  1  0  0  0  0
  9 25  1  0  0  0  0
  9 26  1  0  0  0  0
  9 27  1  0  0  0  0
 10 28  1  0  0  0  0
 10 29  1  0  0  0  0
 10 30  1  0  0  0  0
M  END
