 xtb: 6.7.1 (edcfbbe)
          07082616283D

 25 25  0     0  0            999 V2000
    2.8643    0.0275   -1.8834 C   0  0  0  0  0  0  0  0  0  0  0  0
    2.9308    0.7404   -0.6746 O   0  0  0  0  0  0  0  0  0  0  0  0
    1.8172    0.7505    0.1380 C   0  0  0  0  0  0  0  0  0  0  0  0
    0.6227    0.1158   -0.1293 C   0  0  0  0  0  0  0  0  0  0  0  0
   -0.4461    0.1945    0.7711 C   0  0  0  0  0  0  0  0  0  0  0  0
   -1.7220   -0.4602    0.5298 C   0  0  0  0  0  0  0  0  0  0  0  0
   -2.0568   -1.2263   -0.5064 C   0  0  0  0  0  0  0  0  0  0  0  0
   -3.4014   -1.8671   -0.6689 C   0  0  0  0  0  0  0  0  0  0  0  0
   -3.9537   -1.6483   -1.9516 O   0  0  0  0  0  0  0  0  0  0  0  0
   -0.2755    0.9302    1.9415 C   0  0  0  0  0  0  0  0  0  0  0  0
    0.9187    1.5680    2.2182 C   0  0  0  0  0  0  0  0  0  0  0  0
    1.9745    1.4869    1.3266 C   0  0  0  0  0  0  0  0  0  0  0  0
    3.1482    2.1113    1.5968 O   0  0  0  0  0  0  0  0  0  0  0  0
    2.0885    0.4297   -2.5426 H   0  0  0  0  0  0  0  0  0  0  0  0
    2.6807   -1.0374   -1.7100 H   0  0  0  0  0  0  0  0  0  0  0  0
    3.8381    0.1537   -2.3542 H   0  0  0  0  0  0  0  0  0  0  0  0
    0.5035   -0.4483   -1.0390 H   0  0  0  0  0  0  0  0  0  0  0  0
   -2.4605   -0.2997    1.3070 H   0  0  0  0  0  0  0  0  0  0  0  0
   -1.3724   -1.4253   -1.3183 H   0  0  0  0  0  0  0  0  0  0  0  0
   -4.0895   -1.5170    0.1142 H   0  0  0  0  0  0  0  0  0  0  0  0
   -3.3085   -2.9555   -0.5853 H   0  0  0  0  0  0  0  0  0  0  0  0
   -4.0186   -0.6984   -2.0994 H   0  0  0  0  0  0  0  0  0  0  0  0
   -1.0893    1.0026    2.6475 H   0  0  0  0  0  0  0  0  0  0  0  0
    1.0534    2.1361    3.1245 H   0  0  0  0  0  0  0  0  0  0  0  0
    3.7536    1.9364    0.8631 H   0  0  0  0  0  0  0  0  0  0  0  0
  1  2  1  0  0  0  0
  2  3  1  0  0  0  0
  3  4  4  0  0  0  0
  4  5  4  0  0  0  0
  5  6  1  0  0  0  0
  6  7  2  0  0  0  0
  7  8  1  0  0  0  0
  8  9  1  0  0  0  0
  5 10  4  0  0  0  0
 10 11  4  0  0  0  0
  3 12  4  0  0  0  0
 11 12  4  0  0  0  0
 12 13  1  0  0  0  0
  1 14  1  0  0  0  0
  1 15  1  0  0  0  0
  1 16  1  0  0  0  0
  4 17  1  0  0  0  0
  6 18  1  0  0  0  0
  7 19  1  0  0  0  0
  8 20  1  0  0  0  0
  8 21  1  0  0  0  0
  9 22  1  0  0  0  0
 10 23  1  0  0  0  0
 11 24  1  0  0  0  0
 13 25  1  0  0  0  0
M  END
