 xtb: 6.7.1 (edcfbbe)
          07092610263D

 27 27  0     0  0            999 V2000
    4.0396   -0.1568   -0.4545 C   0  0  0  0  0  0  0  0  0  0  0  0
    2.8401   -0.7616    0.2504 C   0  0  0  0  0  0  0  0  0  0  0  0
    1.7410    0.1424    0.1310 O   0  0  0  0  0  0  0  0  0  0  0  0
    0.6777   -0.0973    0.9069 C   0  0  0  0  0  0  0  0  0  0  0  0
    0.6259   -1.0128    1.6860 O   0  0  0  0  0  0  0  0  0  0  0  0
   -0.3962    0.9559    0.6950 C   0  0  0  0  0  0  0  0  0  0  0  0
   -1.6410    0.6598    1.5336 C   0  0  0  0  0  0  0  0  0  0  0  0
   -2.3844   -0.5691    1.0163 C   0  0  0  0  0  0  0  0  0  0  0  0
   -2.7405   -0.4087   -0.4577 C   0  0  0  0  0  0  0  0  0  0  0  0
   -1.4791   -0.1681   -1.2810 C   0  0  0  0  0  0  0  0  0  0  0  0
   -0.7570    1.0827   -0.7901 C   0  0  0  0  0  0  0  0  0  0  0  0
    3.8084    0.0194   -1.5015 H   0  0  0  0  0  0  0  0  0  0  0  0
    4.8842   -0.8362   -0.3859 H   0  0  0  0  0  0  0  0  0  0  0  0
    4.3069    0.7905    0.0059 H   0  0  0  0  0  0  0  0  0  0  0  0
    3.0427   -0.9334    1.3135 H   0  0  0  0  0  0  0  0  0  0  0  0
    2.5576   -1.7199   -0.2007 H   0  0  0  0  0  0  0  0  0  0  0  0
    0.0499    1.9020    1.0257 H   0  0  0  0  0  0  0  0  0  0  0  0
   -1.3466    0.4965    2.5714 H   0  0  0  0  0  0  0  0  0  0  0  0
   -2.3012    1.5295    1.4963 H   0  0  0  0  0  0  0  0  0  0  0  0
   -1.7510   -1.4470    1.1465 H   0  0  0  0  0  0  0  0  0  0  0  0
   -3.2913   -0.7190    1.6057 H   0  0  0  0  0  0  0  0  0  0  0  0
   -3.4194    0.4391   -0.5807 H   0  0  0  0  0  0  0  0  0  0  0  0
   -3.2539   -1.3034   -0.8152 H   0  0  0  0  0  0  0  0  0  0  0  0
   -1.7355   -0.0533   -2.3365 H   0  0  0  0  0  0  0  0  0  0  0  0
   -0.8166   -1.0319   -1.1880 H   0  0  0  0  0  0  0  0  0  0  0  0
   -1.4099    1.9494   -0.9173 H   0  0  0  0  0  0  0  0  0  0  0  0
    0.1497    1.2512   -1.3727 H   0  0  0  0  0  0  0  0  0  0  0  0
  1  2  1  0  0  0  0
  2  3  1  0  0  0  0
  3  4  1  0  0  0  0
  4  5  2  0  0  0  0
  4  6  1  0  0  0  0
  6  7  1  0  0  0  0
  7  8  1  0  0  0  0
  8  9  1  0  0  0  0
  9 10  1  0  0  0  0
  6 11  1  0  0  0  0
 10 11  1  0  0  0  0
  1 12  1  0  0  0  0
  1 13  1  0  0  0  0
  1 14  1  0  0  0  0
  2 15  1  0  0  0  0
  2 16  1  0  0  0  0
  6 17  1  0  0  0  0
  7 18  1  0  0  0  0
  7 19  1  0  0  0  0
  8 20  1  0  0  0  0
  8 21  1  0  0  0  0
  9 22  1  0  0  0  0
  9 23  1  0  0  0  0
 10 24  1  0  0  0  0
 10 25  1  0  0  0  0
 11 26  1  0  0  0  0
 11 27  1  0  0  0  0
M  END
