 xtb: 6.7.1 (edcfbbe)
          07062620023D

 35 35  0     0  0            999 V2000
    6.8118    0.5358    0.4048 C   0  0  0  0  0  0  0  0  0  0  0  0
    5.3183    0.3145    0.6008 C   0  0  0  0  0  0  0  0  0  0  0  0
    4.7450   -0.5714   -0.5027 C   0  0  0  0  0  0  0  0  0  0  0  0
    3.3660   -0.8618   -0.2761 O   0  0  0  0  0  0  0  0  0  0  0  0
    2.4815    0.0554   -0.6779 C   0  0  0  0  0  0  0  0  0  0  0  0
    2.7762    1.0831   -1.2358 O   0  0  0  0  0  0  0  0  0  0  0  0
    1.0835   -0.3424   -0.3644 C   0  0  0  0  0  0  0  0  0  0  0  0
    0.7659   -1.5163    0.3145 C   0  0  0  0  0  0  0  0  0  0  0  0
   -0.5660   -1.7930    0.5636 C   0  0  0  0  0  0  0  0  0  0  0  0
   -1.5281   -0.8847    0.1245 C   0  0  0  0  0  0  0  0  0  0  0  0
   -2.9723   -1.1726    0.3957 C   0  0  0  0  0  0  0  0  0  0  0  0
   -3.3473   -2.1344    1.0245 O   0  0  0  0  0  0  0  0  0  0  0  0
   -3.7716   -0.2598   -0.1281 O   0  0  0  0  0  0  0  0  0  0  0  0
   -5.1717   -0.4333    0.0880 C   0  0  0  0  0  0  0  0  0  0  0  0
   -5.9024    0.7500   -0.5298 C   0  0  0  0  0  0  0  0  0  0  0  0
   -5.5540    2.0535    0.1779 C   0  0  0  0  0  0  0  0  0  0  0  0
   -1.2290    0.2362   -0.5232 N   0  0  0  0  0  0  0  0  0  0  0  0
    0.0374    0.4970   -0.7593 C   0  0  0  0  0  0  0  0  0  0  0  0
    7.0031    1.0183   -0.5506 H   0  0  0  0  0  0  0  0  0  0  0  0
    7.2032    1.1707    1.1951 H   0  0  0  0  0  0  0  0  0  0  0  0
    7.3465   -0.4111    0.4264 H   0  0  0  0  0  0  0  0  0  0  0  0
    4.7962    1.2730    0.5858 H   0  0  0  0  0  0  0  0  0  0  0  0
    5.1328   -0.1603    1.5666 H   0  0  0  0  0  0  0  0  0  0  0  0
    5.2431   -1.5431   -0.5223 H   0  0  0  0  0  0  0  0  0  0  0  0
    4.8516   -0.0777   -1.4742 H   0  0  0  0  0  0  0  0  0  0  0  0
    1.5483   -2.1868    0.6352 H   0  0  0  0  0  0  0  0  0  0  0  0
   -0.8816   -2.6830    1.0850 H   0  0  0  0  0  0  0  0  0  0  0  0
   -5.3590   -0.4985    1.1662 H   0  0  0  0  0  0  0  0  0  0  0  0
   -5.4856   -1.3799   -0.3677 H   0  0  0  0  0  0  0  0  0  0  0  0
   -6.9753    0.5606   -0.4693 H   0  0  0  0  0  0  0  0  0  0  0  0
   -5.6224    0.8193   -1.5816 H   0  0  0  0  0  0  0  0  0  0  0  0
   -5.8540    2.0132    1.2227 H   0  0  0  0  0  0  0  0  0  0  0  0
   -6.0622    2.8897   -0.2951 H   0  0  0  0  0  0  0  0  0  0  0  0
   -4.4820    2.2240    0.1294 H   0  0  0  0  0  0  0  0  0  0  0  0
    0.2543    1.4158   -1.2877 H   0  0  0  0  0  0  0  0  0  0  0  0
  1  2  1  0  0  0  0
  2  3  1  0  0  0  0
  3  4  1  0  0  0  0
  4  5  1  0  0  0  0
  5  6  2  0  0  0  0
  5  7  1  0  0  0  0
  7  8  4  0  0  0  0
  8  9  4  0  0  0  0
  9 10  4  0  0  0  0
 10 11  1  0  0  0  0
 11 12  2  0  0  0  0
 11 13  1  0  0  0  0
 13 14  1  0  0  0  0
 14 15  1  0  0  0  0
 15 16  1  0  0  0  0
 10 17  4  0  0  0  0
  7 18  4  0  0  0  0
 17 18  4  0  0  0  0
  1 19  1  0  0  0  0
  1 20  1  0  0  0  0
  1 21  1  0  0  0  0
  2 22  1  0  0  0  0
  2 23  1  0  0  0  0
  3 24  1  0  0  0  0
  3 25  1  0  0  0  0
  8 26  1  0  0  0  0
  9 27  1  0  0  0  0
 14 28  1  0  0  0  0
 14 29  1  0  0  0  0
 15 30  1  0  0  0  0
 15 31  1  0  0  0  0
 16 32  1  0  0  0  0
 16 33  1  0  0  0  0
 16 34  1  0  0  0  0
 18 35  1  0  0  0  0
M  END
