 xtb: 6.7.1 (edcfbbe)
          07092616263D

 26 26  0     0  0            999 V2000
    4.1686   -0.4992   -0.0125 C   0  0  0  0  0  0  0  0  0  0  0  0
    3.0804   -0.1915    0.6667 C   0  0  0  0  0  0  0  0  0  0  0  0
    2.2588    1.0434    0.4437 C   0  0  0  0  0  0  0  0  0  0  0  0
    0.8794    0.6640   -0.0227 C   0  0  0  0  0  0  0  0  0  0  0  0
   -0.2211    0.8718    0.7009 C   0  0  0  0  0  0  0  0  0  0  0  0
   -1.5887    0.5176    0.1896 C   0  0  0  0  0  0  0  0  0  0  0  0
   -2.4119    0.3082    1.3160 O   0  0  0  0  0  0  0  0  0  0  0  0
   -3.7774    0.1330    1.0316 C   0  0  0  0  0  0  0  0  0  0  0  0
   -1.5472   -0.6970   -0.7689 C   0  0  0  0  0  0  0  0  0  0  0  0
   -1.5197   -1.9251   -0.0676 O   0  0  0  0  0  0  0  0  0  0  0  0
   -0.3534   -0.6047   -1.6897 C   0  0  0  0  0  0  0  0  0  0  0  0
    0.7713   -0.0012   -1.3141 C   0  0  0  0  0  0  0  0  0  0  0  0
    4.5590    0.1465   -0.7826 H   0  0  0  0  0  0  0  0  0  0  0  0
    4.7229   -1.4029    0.1753 H   0  0  0  0  0  0  0  0  0  0  0  0
    2.7059   -0.8562    1.4344 H   0  0  0  0  0  0  0  0  0  0  0  0
    2.1843    1.6067    1.3766 H   0  0  0  0  0  0  0  0  0  0  0  0
    2.7382    1.6726   -0.3100 H   0  0  0  0  0  0  0  0  0  0  0  0
   -0.2018    1.3386    1.6732 H   0  0  0  0  0  0  0  0  0  0  0  0
   -1.9728    1.3796   -0.3960 H   0  0  0  0  0  0  0  0  0  0  0  0
   -4.2900    0.1594    1.9916 H   0  0  0  0  0  0  0  0  0  0  0  0
   -3.9705   -0.8287    0.5467 H   0  0  0  0  0  0  0  0  0  0  0  0
   -4.1547    0.9425    0.3939 H   0  0  0  0  0  0  0  0  0  0  0  0
   -2.4695   -0.7342   -1.3583 H   0  0  0  0  0  0  0  0  0  0  0  0
   -0.8197   -1.8744    0.5932 H   0  0  0  0  0  0  0  0  0  0  0  0
   -0.4187   -1.1589   -2.6132 H   0  0  0  0  0  0  0  0  0  0  0  0
    1.6483   -0.0099   -1.9446 H   0  0  0  0  0  0  0  0  0  0  0  0
  1  2  2  0  0  0  0
  2  3  1  0  0  0  0
  3  4  1  0  0  0  0
  4  5  2  0  0  0  0
  5  6  1  0  0  0  0
  6  7  1  0  0  0  0
  7  8  1  0  0  0  0
  6  9  1  0  0  0  0
  9 10  1  0  0  0  0
  9 11  1  0  0  0  0
  4 12  1  0  0  0  0
 11 12  2  0  0  0  0
  1 13  1  0  0  0  0
  1 14  1  0  0  0  0
  2 15  1  0  0  0  0
  3 16  1  0  0  0  0
  3 17  1  0  0  0  0
  5 18  1  0  0  0  0
  6 19  1  0  0  0  0
  8 20  1  0  0  0  0
  8 21  1  0  0  0  0
  8 22  1  0  0  0  0
  9 23  1  0  0  0  0
 10 24  1  0  0  0  0
 11 25  1  0  0  0  0
 12 26  1  0  0  0  0
M  END
