 xtb: 6.7.1 (edcfbbe)
          07082613453D

 14 14  0     0  0            999 V2000
    3.0903    0.6406   -0.4707 O   0  0  0  0  0  0  0  0  0  0  0  0
    2.3185   -0.2416   -0.1932 C   0  0  0  0  0  0  0  0  0  0  0  0
    0.8638   -0.0928   -0.0714 C   0  0  0  0  0  0  0  0  0  0  0  0
    0.0649   -1.1877    0.2563 C   0  0  0  0  0  0  0  0  0  0  0  0
   -1.3039   -1.0363    0.3683 C   0  0  0  0  0  0  0  0  0  0  0  0
   -1.8845    0.2050    0.1551 C   0  0  0  0  0  0  0  0  0  0  0  0
   -1.0968    1.2990   -0.1711 C   0  0  0  0  0  0  0  0  0  0  0  0
    0.2715    1.1530   -0.2844 C   0  0  0  0  0  0  0  0  0  0  0  0
    2.6776   -1.2739   -0.0026 H   0  0  0  0  0  0  0  0  0  0  0  0
    0.5232   -2.1525    0.4213 H   0  0  0  0  0  0  0  0  0  0  0  0
   -1.9226   -1.8843    0.6221 H   0  0  0  0  0  0  0  0  0  0  0  0
   -2.9549    0.3193    0.2436 H   0  0  0  0  0  0  0  0  0  0  0  0
   -1.5540    2.2633   -0.3362 H   0  0  0  0  0  0  0  0  0  0  0  0
    0.9069    1.9887   -0.5371 H   0  0  0  0  0  0  0  0  0  0  0  0
  1  2  2  0  0  0  0
  2  3  1  0  0  0  0
  3  4  4  0  0  0  0
  4  5  4  0  0  0  0
  5  6  4  0  0  0  0
  6  7  4  0  0  0  0
  3  8  4  0  0  0  0
  7  8  4  0  0  0  0
  2  9  1  0  0  0  0
  4 10  1  0  0  0  0
  5 11  1  0  0  0  0
  6 12  1  0  0  0  0
  7 13  1  0  0  0  0
  8 14  1  0  0  0  0
M  END
