 xtb: 6.7.1 (edcfbbe)
          07062619153D

 36 35  0     0  0            999 V2000
    3.4422    2.2287    0.2673 C   0  0  0  0  0  0  0  0  0  0  0  0
    2.8939    0.9564    0.8471 C   0  0  0  0  0  0  0  0  0  0  0  0
    1.9995    0.8839    1.6490 O   0  0  0  0  0  0  0  0  0  0  0  0
    3.5325   -0.1098    0.3461 O   0  0  0  0  0  0  0  0  0  0  0  0
    3.0426   -1.3966    0.6922 C   0  0  0  0  0  0  0  0  0  0  0  0
    1.9712   -1.8703   -0.3286 C   0  0  0  0  0  0  0  0  0  0  0  0
    1.4386   -3.2437    0.0627 C   0  0  0  0  0  0  0  0  0  0  0  0
    2.5339   -1.9392   -1.6122 O   0  0  0  0  0  0  0  0  0  0  0  0
    0.8796   -0.7906   -0.3278 C   0  0  0  0  0  0  0  0  0  0  0  0
    0.9109    0.1170   -1.1265 O   0  0  0  0  0  0  0  0  0  0  0  0
   -0.0095   -0.9536    0.6262 O   0  0  0  0  0  0  0  0  0  0  0  0
   -0.9891    0.0787    0.7888 C   0  0  0  0  0  0  0  0  0  0  0  0
   -2.1282   -0.0779   -0.2140 C   0  0  0  0  0  0  0  0  0  0  0  0
   -3.3060    0.8601    0.0677 C   0  0  0  0  0  0  0  0  0  0  0  0
   -4.4706    0.5084   -0.8566 C   0  0  0  0  0  0  0  0  0  0  0  0
   -2.9143    2.3240   -0.1178 C   0  0  0  0  0  0  0  0  0  0  0  0
    2.8683    2.4578   -0.6296 H   0  0  0  0  0  0  0  0  0  0  0  0
    3.3210    3.0412    0.9773 H   0  0  0  0  0  0  0  0  0  0  0  0
    4.4844    2.0992   -0.0063 H   0  0  0  0  0  0  0  0  0  0  0  0
    2.6161   -1.3763    1.6998 H   0  0  0  0  0  0  0  0  0  0  0  0
    3.9012   -2.0679    0.6417 H   0  0  0  0  0  0  0  0  0  0  0  0
    2.2585   -3.9564    0.0667 H   0  0  0  0  0  0  0  0  0  0  0  0
    0.9766   -3.2056    1.0435 H   0  0  0  0  0  0  0  0  0  0  0  0
    0.7048   -3.5653   -0.6711 H   0  0  0  0  0  0  0  0  0  0  0  0
    2.4688   -1.0562   -2.0079 H   0  0  0  0  0  0  0  0  0  0  0  0
   -1.3462   -0.0363    1.8137 H   0  0  0  0  0  0  0  0  0  0  0  0
   -0.4882    1.0434    0.6778 H   0  0  0  0  0  0  0  0  0  0  0  0
   -2.4749   -1.1137   -0.1715 H   0  0  0  0  0  0  0  0  0  0  0  0
   -1.7441    0.1096   -1.2187 H   0  0  0  0  0  0  0  0  0  0  0  0
   -3.6275    0.7115    1.1049 H   0  0  0  0  0  0  0  0  0  0  0  0
   -4.7779   -0.5253   -0.7158 H   0  0  0  0  0  0  0  0  0  0  0  0
   -4.1810    0.6423   -1.8964 H   0  0  0  0  0  0  0  0  0  0  0  0
   -5.3250    1.1497   -0.6536 H   0  0  0  0  0  0  0  0  0  0  0  0
   -2.1587    2.6228    0.6033 H   0  0  0  0  0  0  0  0  0  0  0  0
   -3.7827    2.9650    0.0165 H   0  0  0  0  0  0  0  0  0  0  0  0
   -2.5208    2.4851   -1.1188 H   0  0  0  0  0  0  0  0  0  0  0  0
  1  2  1  0  0  0  0
  2  3  2  0  0  0  0
  2  4  1  0  0  0  0
  4  5  1  0  0  0  0
  5  6  1  0  0  0  0
  6  7  1  0  0  0  0
  6  8  1  0  0  0  0
  6  9  1  0  0  0  0
  9 10  2  0  0  0  0
  9 11  1  0  0  0  0
 11 12  1  0  0  0  0
 12 13  1  0  0  0  0
 13 14  1  0  0  0  0
 14 15  1  0  0  0  0
 14 16  1  0  0  0  0
  1 17  1  0  0  0  0
  1 18  1  0  0  0  0
  1 19  1  0  0  0  0
  5 20  1  0  0  0  0
  5 21  1  0  0  0  0
  7 22  1  0  0  0  0
  7 23  1  0  0  0  0
  7 24  1  0  0  0  0
  8 25  1  0  0  0  0
 12 26  1  0  0  0  0
 12 27  1  0  0  0  0
 13 28  1  0  0  0  0
 13 29  1  0  0  0  0
 14 30  1  0  0  0  0
 15 31  1  0  0  0  0
 15 32  1  0  0  0  0
 15 33  1  0  0  0  0
 16 34  1  0  0  0  0
 16 35  1  0  0  0  0
 16 36  1  0  0  0  0
M  END
