 xtb: 6.7.1 (edcfbbe)
          07082621493D

 22 21  0     0  0            999 V2000
   -3.4738    0.1223   -0.6953 C   0  0  0  0  0  0  0  0  0  0  0  0
   -2.0911    0.4207   -0.1309 C   0  0  0  0  0  0  0  0  0  0  0  0
   -1.4694   -0.8114    0.5221 C   0  0  0  0  0  0  0  0  0  0  0  0
   -0.0720   -0.5279    1.0603 C   0  0  0  0  0  0  0  0  0  0  0  0
    0.7886   -0.2504   -0.0228 O   0  0  0  0  0  0  0  0  0  0  0  0
    2.1005    0.0525    0.3731 C   0  0  0  0  0  0  0  0  0  0  0  0
    2.9128    0.3444   -0.8922 C   0  0  0  0  0  0  0  0  0  0  0  0
    4.2791    0.6594   -0.5712 C   0  0  0  0  0  0  0  0  0  0  0  0
    5.3625    0.9089   -0.3064 N   0  0  0  0  0  0  0  0  0  0  0  0
   -3.4180   -0.6611   -1.4477 H   0  0  0  0  0  0  0  0  0  0  0  0
   -3.8979    1.0111   -1.1563 H   0  0  0  0  0  0  0  0  0  0  0  0
   -4.1456   -0.2089    0.0938 H   0  0  0  0  0  0  0  0  0  0  0  0
   -2.1646    1.2218    0.6085 H   0  0  0  0  0  0  0  0  0  0  0  0
   -1.4318    0.7610   -0.9303 H   0  0  0  0  0  0  0  0  0  0  0  0
   -2.0965   -1.1531    1.3478 H   0  0  0  0  0  0  0  0  0  0  0  0
   -1.3996   -1.6150   -0.2126 H   0  0  0  0  0  0  0  0  0  0  0  0
    0.3057   -1.3985    1.6203 H   0  0  0  0  0  0  0  0  0  0  0  0
   -0.0946    0.3323    1.7483 H   0  0  0  0  0  0  0  0  0  0  0  0
    2.5440   -0.7943    0.9226 H   0  0  0  0  0  0  0  0  0  0  0  0
    2.1099    0.9294    1.0412 H   0  0  0  0  0  0  0  0  0  0  0  0
    2.4638    1.1868   -1.4246 H   0  0  0  0  0  0  0  0  0  0  0  0
    2.8881   -0.5300   -1.5477 H   0  0  0  0  0  0  0  0  0  0  0  0
  1  2  1  0  0  0  0
  2  3  1  0  0  0  0
  3  4  1  0  0  0  0
  4  5  1  0  0  0  0
  5  6  1  0  0  0  0
  6  7  1  0  0  0  0
  7  8  1  0  0  0  0
  8  9  3  0  0  0  0
  1 10  1  0  0  0  0
  1 11  1  0  0  0  0
  1 12  1  0  0  0  0
  2 13  1  0  0  0  0
  2 14  1  0  0  0  0
  3 15  1  0  0  0  0
  3 16  1  0  0  0  0
  4 17  1  0  0  0  0
  4 18  1  0  0  0  0
  6 19  1  0  0  0  0
  6 20  1  0  0  0  0
  7 21  1  0  0  0  0
  7 22  1  0  0  0  0
M  END
