 xtb: 6.7.1 (edcfbbe)
          07082619523D

 17 16  0     0  0            999 V2000
    1.6453    1.1134    1.1979 O   0  0  0  0  0  0  0  0  0  0  0  0
    2.0150    0.2574    0.4421 C   0  0  0  0  0  0  0  0  0  0  0  0
    3.2489    0.2366   -0.0777 O   0  0  0  0  0  0  0  0  0  0  0  0
    1.2007   -0.9223   -0.0312 C   0  0  0  0  0  0  0  0  0  0  0  0
   -0.2809   -0.7745    0.3037 C   0  0  0  0  0  0  0  0  0  0  0  0
   -0.9456    0.3041   -0.5515 C   0  0  0  0  0  0  0  0  0  0  0  0
   -2.4062    0.4607   -0.1737 C   0  0  0  0  0  0  0  0  0  0  0  0
   -3.2812    1.7892   -1.3070 Br  0  0  0  0  0  0  0  0  0  0  0  0
    3.7690    0.9885    0.2476 H   0  0  0  0  0  0  0  0  0  0  0  0
    1.3585   -1.0401   -1.1045 H   0  0  0  0  0  0  0  0  0  0  0  0
    1.6139   -1.8077    0.4584 H   0  0  0  0  0  0  0  0  0  0  0  0
   -0.7831   -1.7308    0.1439 H   0  0  0  0  0  0  0  0  0  0  0  0
   -0.3765   -0.5080    1.3581 H   0  0  0  0  0  0  0  0  0  0  0  0
   -0.8676    0.0366   -1.6086 H   0  0  0  0  0  0  0  0  0  0  0  0
   -0.4283    1.2535   -0.4012 H   0  0  0  0  0  0  0  0  0  0  0  0
   -2.5203    0.8106    0.8514 H   0  0  0  0  0  0  0  0  0  0  0  0
   -2.9615   -0.4670   -0.3106 H   0  0  0  0  0  0  0  0  0  0  0  0
  1  2  2  0  0  0  0
  2  3  1  0  0  0  0
  2  4  1  0  0  0  0
  4  5  1  0  0  0  0
  5  6  1  0  0  0  0
  6  7  1  0  0  0  0
  7  8  1  0  0  0  0
  3  9  1  0  0  0  0
  4 10  1  0  0  0  0
  4 11  1  0  0  0  0
  5 12  1  0  0  0  0
  5 13  1  0  0  0  0
  6 14  1  0  0  0  0
  6 15  1  0  0  0  0
  7 16  1  0  0  0  0
  7 17  1  0  0  0  0
M  END
