 xtb: 6.7.1 (edcfbbe)
          07062623283D

 82 82  0     0  0            999 V2000
    0.0314   -4.1276   -0.4940 C   0  0  0  0  0  0  0  0  0  0  0  0
    0.2780   -3.1993   -1.4118 C   0  0  0  0  0  0  0  0  0  0  0  0
   -0.3962   -3.1827   -2.7611 C   0  0  0  0  0  0  0  0  0  0  0  0
   -0.9262   -1.7915   -3.1129 C   0  0  0  0  0  0  0  0  0  0  0  0
   -1.7881   -1.7634   -4.3815 C   0  0  0  0  0  0  0  0  0  0  0  0
   -2.5632   -0.4429   -4.2938 C   0  0  0  0  0  0  0  0  0  0  0  0
   -2.4614   -0.0313   -2.8544 C   0  0  0  0  0  0  0  0  0  0  0  0
   -2.8194    1.1252   -2.5008 N   0  0  0  0  0  0  0  0  0  0  0  0
   -2.6270    1.4178   -1.1282 O   0  0  0  0  0  0  0  0  0  0  0  0
   -2.5355    2.7276   -0.8325 C   0  0  0  0  0  0  0  0  0  0  0  0
   -2.5742    3.6174   -1.6316 O   0  0  0  0  0  0  0  0  0  0  0  0
   -2.3737    2.8931    0.6792 C   0  0  0  0  0  0  0  0  0  0  0  0
   -2.0868    4.3627    0.9826 C   0  0  0  0  0  0  0  0  0  0  0  0
   -3.7024    2.4815    1.3282 C   0  0  0  0  0  0  0  0  0  0  0  0
   -1.2471    1.9764    1.1893 C   0  0  0  0  0  0  0  0  0  0  0  0
    0.0946    2.2047    0.5013 C   0  0  0  0  0  0  0  0  0  0  0  0
   -1.8211   -1.1279   -2.0498 C   0  0  0  0  0  0  0  0  0  0  0  0
   -2.8837   -2.0701   -1.4625 C   0  0  0  0  0  0  0  0  0  0  0  0
   -3.7693   -1.3837   -0.4250 C   0  0  0  0  0  0  0  0  0  0  0  0
   -4.7914   -2.3334    0.2012 C   0  0  0  0  0  0  0  0  0  0  0  0
   -4.1677   -3.3718    1.1319 C   0  0  0  0  0  0  0  0  0  0  0  0
   -5.2304   -4.2417    1.7923 C   0  0  0  0  0  0  0  0  0  0  0  0
    1.1389   -2.1553   -1.2840 O   0  0  0  0  0  0  0  0  0  0  0  0
    1.7657   -1.9513   -0.0376 C   0  0  0  0  0  0  0  0  0  0  0  0
    2.5379   -0.6701   -0.1053 C   0  0  0  0  0  0  0  0  0  0  0  0
    3.1309   -0.0911    0.9325 C   0  0  0  0  0  0  0  0  0  0  0  0
    3.0877   -0.6960    2.3063 C   0  0  0  0  0  0  0  0  0  0  0  0
    3.9150    1.1787    0.7790 C   0  0  0  0  0  0  0  0  0  0  0  0
    5.4301    0.9023    0.8266 C   0  0  0  0  0  0  0  0  0  0  0  0
    6.2042    2.1752    0.6703 C   0  0  0  0  0  0  0  0  0  0  0  0
    6.5995    2.9930    1.6387 C   0  0  0  0  0  0  0  0  0  0  0  0
    7.3433    4.2607    1.3344 C   0  0  0  0  0  0  0  0  0  0  0  0
    6.3542    2.7700    3.1016 C   0  0  0  0  0  0  0  0  0  0  0  0
    0.5134   -4.1611    0.4654 H   0  0  0  0  0  0  0  0  0  0  0  0
   -0.6680   -4.9170   -0.6979 H   0  0  0  0  0  0  0  0  0  0  0  0
   -1.1990   -3.9193   -2.7717 H   0  0  0  0  0  0  0  0  0  0  0  0
    0.3339   -3.4710   -3.5224 H   0  0  0  0  0  0  0  0  0  0  0  0
   -0.0630   -1.1345   -3.2598 H   0  0  0  0  0  0  0  0  0  0  0  0
   -2.4724   -2.6132   -4.3831 H   0  0  0  0  0  0  0  0  0  0  0  0
   -1.1825   -1.8226   -5.2846 H   0  0  0  0  0  0  0  0  0  0  0  0
   -3.6070   -0.5454   -4.5911 H   0  0  0  0  0  0  0  0  0  0  0  0
   -2.1250    0.3340   -4.9204 H   0  0  0  0  0  0  0  0  0  0  0  0
   -1.2067    4.7027    0.4451 H   0  0  0  0  0  0  0  0  0  0  0  0
   -2.9249    4.9779    0.6659 H   0  0  0  0  0  0  0  0  0  0  0  0
   -1.9299    4.5013    2.0497 H   0  0  0  0  0  0  0  0  0  0  0  0
   -3.9335    1.4428    1.1055 H   0  0  0  0  0  0  0  0  0  0  0  0
   -3.6391    2.6024    2.4077 H   0  0  0  0  0  0  0  0  0  0  0  0
   -4.5137    3.1041    0.9575 H   0  0  0  0  0  0  0  0  0  0  0  0
   -1.5512    0.9394    1.0345 H   0  0  0  0  0  0  0  0  0  0  0  0
   -1.1348    2.1336    2.2648 H   0  0  0  0  0  0  0  0  0  0  0  0
   -0.0060    2.1161   -0.5781 H   0  0  0  0  0  0  0  0  0  0  0  0
    0.4901    3.1912    0.7270 H   0  0  0  0  0  0  0  0  0  0  0  0
    0.8183    1.4640    0.8349 H   0  0  0  0  0  0  0  0  0  0  0  0
   -1.2309   -0.7132   -1.2281 H   0  0  0  0  0  0  0  0  0  0  0  0
   -2.3667   -2.9049   -0.9908 H   0  0  0  0  0  0  0  0  0  0  0  0
   -3.5126   -2.4611   -2.2645 H   0  0  0  0  0  0  0  0  0  0  0  0
   -3.1404   -0.9629    0.3632 H   0  0  0  0  0  0  0  0  0  0  0  0
   -4.3038   -0.5574   -0.8978 H   0  0  0  0  0  0  0  0  0  0  0  0
   -5.5108   -1.7430    0.7743 H   0  0  0  0  0  0  0  0  0  0  0  0
   -5.3442   -2.8432   -0.5916 H   0  0  0  0  0  0  0  0  0  0  0  0
   -3.4829   -4.0110    0.5721 H   0  0  0  0  0  0  0  0  0  0  0  0
   -3.5877   -2.8597    1.9034 H   0  0  0  0  0  0  0  0  0  0  0  0
   -4.7715   -4.9733    2.4534 H   0  0  0  0  0  0  0  0  0  0  0  0
   -5.9144   -3.6312    2.3781 H   0  0  0  0  0  0  0  0  0  0  0  0
   -5.8083   -4.7742    1.0399 H   0  0  0  0  0  0  0  0  0  0  0  0
    2.4366   -2.7951    0.1928 H   0  0  0  0  0  0  0  0  0  0  0  0
    1.0069   -1.9048    0.7600 H   0  0  0  0  0  0  0  0  0  0  0  0
    2.5793   -0.2272   -1.0888 H   0  0  0  0  0  0  0  0  0  0  0  0
    2.0596   -0.9050    2.6012 H   0  0  0  0  0  0  0  0  0  0  0  0
    3.6309   -1.6407    2.3270 H   0  0  0  0  0  0  0  0  0  0  0  0
    3.5272   -0.0270    3.0409 H   0  0  0  0  0  0  0  0  0  0  0  0
    3.6725    1.6573   -0.1708 H   0  0  0  0  0  0  0  0  0  0  0  0
    3.6611    1.8725    1.5838 H   0  0  0  0  0  0  0  0  0  0  0  0
    5.6764    0.4065    1.7663 H   0  0  0  0  0  0  0  0  0  0  0  0
    5.6832    0.2196    0.0131 H   0  0  0  0  0  0  0  0  0  0  0  0
    6.4136    2.4533   -0.3547 H   0  0  0  0  0  0  0  0  0  0  0  0
    8.3360    4.2335    1.7839 H   0  0  0  0  0  0  0  0  0  0  0  0
    6.8153    5.1170    1.7533 H   0  0  0  0  0  0  0  0  0  0  0  0
    7.4518    4.4081    0.2632 H   0  0  0  0  0  0  0  0  0  0  0  0
    7.2734    2.9292    3.6640 H   0  0  0  0  0  0  0  0  0  0  0  0
    5.9878    1.7700    3.3103 H   0  0  0  0  0  0  0  0  0  0  0  0
    5.6175    3.4871    3.4652 H   0  0  0  0  0  0  0  0  0  0  0  0
  1  2  2  0  0  0  0
  2  3  1  0  0  0  0
  3  4  1  0  0  0  0
  4  5  1  0  0  0  0
  5  6  1  0  0  0  0
  6  7  1  0  0  0  0
  7  8  2  0  0  0  0
  8  9  1  0  0  0  0
  9 10  1  0  0  0  0
 10 11  2  0  0  0  0
 10 12  1  0  0  0  0
 12 13  1  0  0  0  0
 12 14  1  0  0  0  0
 12 15  1  0  0  0  0
 15 16  1  0  0  0  0
  4 17  1  0  0  0  0
  7 17  1  0  0  0  0
 17 18  1  0  0  0  0
 18 19  1  0  0  0  0
 19 20  1  0  0  0  0
 20 21  1  0  0  0  0
 21 22  1  0  0  0  0
  2 23  1  0  0  0  0
 23 24  1  0  0  0  0
 24 25  1  0  0  0  0
 25 26  2  0  0  0  0
 26 27  1  0  0  0  0
 26 28  1  0  0  0  0
 28 29  1  0  0  0  0
 29 30  1  0  0  0  0
 30 31  2  0  0  0  0
 31 32  1  0  0  0  0
 31 33  1  0  0  0  0
  1 34  1  0  0  0  0
  1 35  1  0  0  0  0
  3 36  1  0  0  0  0
  3 37  1  0  0  0  0
  4 38  1  0  0  0  0
  5 39  1  0  0  0  0
  5 40  1  0  0  0  0
  6 41  1  0  0  0  0
  6 42  1  0  0  0  0
 13 43  1  0  0  0  0
 13 44  1  0  0  0  0
 13 45  1  0  0  0  0
 14 46  1  0  0  0  0
 14 47  1  0  0  0  0
 14 48  1  0  0  0  0
 15 49  1  0  0  0  0
 15 50  1  0  0  0  0
 16 51  1  0  0  0  0
 16 52  1  0  0  0  0
 16 53  1  0  0  0  0
 17 54  1  0  0  0  0
 18 55  1  0  0  0  0
 18 56  1  0  0  0  0
 19 57  1  0  0  0  0
 19 58  1  0  0  0  0
 20 59  1  0  0  0  0
 20 60  1  0  0  0  0
 21 61  1  0  0  0  0
 21 62  1  0  0  0  0
 22 63  1  0  0  0  0
 22 64  1  0  0  0  0
 22 65  1  0  0  0  0
 24 66  1  0  0  0  0
 24 67  1  0  0  0  0
 25 68  1  0  0  0  0
 27 69  1  0  0  0  0
 27 70  1  0  0  0  0
 27 71  1  0  0  0  0
 28 72  1  0  0  0  0
 28 73  1  0  0  0  0
 29 74  1  0  0  0  0
 29 75  1  0  0  0  0
 30 76  1  0  0  0  0
 32 77  1  0  0  0  0
 32 78  1  0  0  0  0
 32 79  1  0  0  0  0
 33 80  1  0  0  0  0
 33 81  1  0  0  0  0
 33 82  1  0  0  0  0
M  END
