 xtb: 6.7.1 (edcfbbe)
          07092609503D

 24 24  0     0  0            999 V2000
    3.7898   -0.5044   -0.3726 C   0  0  0  0  0  0  0  0  0  0  0  0
    2.3246   -0.2354   -0.2169 C   0  0  0  0  0  0  0  0  0  0  0  0
    1.3856   -1.2445   -0.3870 C   0  0  0  0  0  0  0  0  0  0  0  0
    0.0362   -0.9806   -0.2610 C   0  0  0  0  0  0  0  0  0  0  0  0
   -0.4406    0.2910    0.0402 C   0  0  0  0  0  0  0  0  0  0  0  0
   -1.9221    0.5473    0.1667 C   0  0  0  0  0  0  0  0  0  0  0  0
   -2.6132    0.3428   -1.1834 C   0  0  0  0  0  0  0  0  0  0  0  0
   -2.5455   -0.3466    1.2404 C   0  0  0  0  0  0  0  0  0  0  0  0
    0.5115    1.2920    0.2029 C   0  0  0  0  0  0  0  0  0  0  0  0
    0.0393    2.9221    0.5727 Cl  0  0  0  0  0  0  0  0  0  0  0  0
    1.8679    1.0401    0.0788 C   0  0  0  0  0  0  0  0  0  0  0  0
    4.0239   -1.5334   -0.1103 H   0  0  0  0  0  0  0  0  0  0  0  0
    4.3761    0.1635    0.2537 H   0  0  0  0  0  0  0  0  0  0  0  0
    4.0886   -0.3439   -1.4089 H   0  0  0  0  0  0  0  0  0  0  0  0
    1.7148   -2.2469   -0.6194 H   0  0  0  0  0  0  0  0  0  0  0  0
   -0.6696   -1.7854   -0.3993 H   0  0  0  0  0  0  0  0  0  0  0  0
   -2.0688    1.5880    0.4684 H   0  0  0  0  0  0  0  0  0  0  0  0
   -2.1741    0.9946   -1.9355 H   0  0  0  0  0  0  0  0  0  0  0  0
   -2.5116   -0.6864   -1.5197 H   0  0  0  0  0  0  0  0  0  0  0  0
   -3.6725    0.5752   -1.1001 H   0  0  0  0  0  0  0  0  0  0  0  0
   -2.0301   -0.2149    2.1892 H   0  0  0  0  0  0  0  0  0  0  0  0
   -3.5929   -0.0869    1.3771 H   0  0  0  0  0  0  0  0  0  0  0  0
   -2.4882   -1.3955    0.9606 H   0  0  0  0  0  0  0  0  0  0  0  0
    2.5709    1.8481    0.2150 H   0  0  0  0  0  0  0  0  0  0  0  0
  1  2  1  0  0  0  0
  2  3  4  0  0  0  0
  3  4  4  0  0  0  0
  4  5  4  0  0  0  0
  5  6  1  0  0  0  0
  6  7  1  0  0  0  0
  6  8  1  0  0  0  0
  5  9  4  0  0  0  0
  9 10  1  0  0  0  0
  2 11  4  0  0  0  0
  9 11  4  0  0  0  0
  1 12  1  0  0  0  0
  1 13  1  0  0  0  0
  1 14  1  0  0  0  0
  3 15  1  0  0  0  0
  4 16  1  0  0  0  0
  6 17  1  0  0  0  0
  7 18  1  0  0  0  0
  7 19  1  0  0  0  0
  7 20  1  0  0  0  0
  8 21  1  0  0  0  0
  8 22  1  0  0  0  0
  8 23  1  0  0  0  0
 11 24  1  0  0  0  0
M  END
