 xtb: 6.7.1 (edcfbbe)
          07072618473D

 28 27  0     0  0            999 V2000
   -2.1103    1.7313    1.4565 C   0  0  0  0  0  0  0  0  0  0  0  0
   -1.9919    0.6643    0.4086 C   0  0  0  0  0  0  0  0  0  0  0  0
   -2.7985    0.9305   -0.8274 C   0  0  0  0  0  0  0  0  0  0  0  0
   -1.2209   -0.4006    0.5930 C   0  0  0  0  0  0  0  0  0  0  0  0
   -0.9835   -1.5135   -0.3833 C   0  0  0  0  0  0  0  0  0  0  0  0
    0.1158   -1.1336   -1.3983 C   0  0  0  0  0  0  0  0  0  0  0  0
    1.4003   -0.8374   -0.6898 C   0  0  0  0  0  0  0  0  0  0  0  0
    2.1589   -2.0035   -0.1531 C   0  0  0  0  0  0  0  0  0  0  0  0
    1.8016    0.4312   -0.5215 C   0  0  0  0  0  0  0  0  0  0  0  0
    3.0104    0.8328    0.1856 C   0  0  0  0  0  0  0  0  0  0  0  0
    3.8192    0.1162    0.7291 O   0  0  0  0  0  0  0  0  0  0  0  0
    3.1583    2.1763    0.1795 O   0  0  0  0  0  0  0  0  0  0  0  0
   -3.1397    1.8060    1.8071 H   0  0  0  0  0  0  0  0  0  0  0  0
   -1.4675    1.5220    2.3072 H   0  0  0  0  0  0  0  0  0  0  0  0
   -1.8329    2.6990    1.0394 H   0  0  0  0  0  0  0  0  0  0  0  0
   -2.3475    1.7462   -1.3935 H   0  0  0  0  0  0  0  0  0  0  0  0
   -3.8077    1.2382   -0.5564 H   0  0  0  0  0  0  0  0  0  0  0  0
   -2.8610    0.0610   -1.4743 H   0  0  0  0  0  0  0  0  0  0  0  0
   -0.6623   -0.4778    1.5162 H   0  0  0  0  0  0  0  0  0  0  0  0
   -0.6770   -2.4092    0.1588 H   0  0  0  0  0  0  0  0  0  0  0  0
   -1.8949   -1.7510   -0.9350 H   0  0  0  0  0  0  0  0  0  0  0  0
   -0.2142   -0.2602   -1.9614 H   0  0  0  0  0  0  0  0  0  0  0  0
    0.2598   -1.9658   -2.0914 H   0  0  0  0  0  0  0  0  0  0  0  0
    1.7158   -2.9445   -0.4689 H   0  0  0  0  0  0  0  0  0  0  0  0
    2.1850   -1.9645    0.9350 H   0  0  0  0  0  0  0  0  0  0  0  0
    3.1959   -1.9612   -0.4806 H   0  0  0  0  0  0  0  0  0  0  0  0
    1.2215    1.2518   -0.9156 H   0  0  0  0  0  0  0  0  0  0  0  0
    3.9674    2.4161    0.6559 H   0  0  0  0  0  0  0  0  0  0  0  0
  1  2  1  0  0  0  0
  2  3  1  0  0  0  0
  2  4  2  0  0  0  0
  4  5  1  0  0  0  0
  5  6  1  0  0  0  0
  6  7  1  0  0  0  0
  7  8  1  0  0  0  0
  7  9  2  0  0  0  0
  9 10  1  0  0  0  0
 10 11  2  0  0  0  0
 10 12  1  0  0  0  0
  1 13  1  0  0  0  0
  1 14  1  0  0  0  0
  1 15  1  0  0  0  0
  3 16  1  0  0  0  0
  3 17  1  0  0  0  0
  3 18  1  0  0  0  0
  4 19  1  0  0  0  0
  5 20  1  0  0  0  0
  5 21  1  0  0  0  0
  6 22  1  0  0  0  0
  6 23  1  0  0  0  0
  8 24  1  0  0  0  0
  8 25  1  0  0  0  0
  8 26  1  0  0  0  0
  9 27  1  0  0  0  0
 12 28  1  0  0  0  0
M  END
