 xtb: 6.7.1 (edcfbbe)
          07072609343D

 36 36  0     0  0            999 V2000
    5.2875    1.3112   -0.6554 C   0  0  0  0  0  0  0  0  0  0  0  0
    3.7809    1.5301   -0.6280 C   0  0  0  0  0  0  0  0  0  0  0  0
    3.4531    2.2301    0.5496 O   0  0  0  0  0  0  0  0  0  0  0  0
    3.0179    0.2009   -0.6738 C   0  0  0  0  0  0  0  0  0  0  0  0
    1.6412    0.5011   -0.6148 O   0  0  0  0  0  0  0  0  0  0  0  0
    0.8190   -0.6430   -0.5930 C   0  0  0  0  0  0  0  0  0  0  0  0
   -0.6365   -0.1885   -0.5158 C   0  0  0  0  0  0  0  0  0  0  0  0
   -0.9639    0.4343    0.8426 C   0  0  0  0  0  0  0  0  0  0  0  0
   -2.4230    0.8802    0.8522 C   0  0  0  0  0  0  0  0  0  0  0  0
   -3.3326   -0.2961    0.4844 C   0  0  0  0  0  0  0  0  0  0  0  0
   -4.7880    0.1364    0.3527 C   0  0  0  0  0  0  0  0  0  0  0  0
   -2.9586   -0.8544   -0.7659 O   0  0  0  0  0  0  0  0  0  0  0  0
   -1.6266   -1.3246   -0.8407 C   0  0  0  0  0  0  0  0  0  0  0  0
   -1.4088   -2.5928   -0.0066 C   0  0  0  0  0  0  0  0  0  0  0  0
    5.5871    0.7065    0.1964 H   0  0  0  0  0  0  0  0  0  0  0  0
    5.7895    2.2717   -0.5889 H   0  0  0  0  0  0  0  0  0  0  0  0
    5.5824    0.8133   -1.5744 H   0  0  0  0  0  0  0  0  0  0  0  0
    3.4741    2.1247   -1.5047 H   0  0  0  0  0  0  0  0  0  0  0  0
    2.4932    2.1908    0.6405 H   0  0  0  0  0  0  0  0  0  0  0  0
    3.3061   -0.4230    0.1863 H   0  0  0  0  0  0  0  0  0  0  0  0
    3.2550   -0.3467   -1.5977 H   0  0  0  0  0  0  0  0  0  0  0  0
    0.9831   -1.2361   -1.5070 H   0  0  0  0  0  0  0  0  0  0  0  0
    1.0803   -1.2701    0.2729 H   0  0  0  0  0  0  0  0  0  0  0  0
   -0.7722    0.5861   -1.2786 H   0  0  0  0  0  0  0  0  0  0  0  0
   -0.7918   -0.2915    1.6406 H   0  0  0  0  0  0  0  0  0  0  0  0
   -0.3042    1.2853    1.0169 H   0  0  0  0  0  0  0  0  0  0  0  0
   -2.7014    1.2632    1.8349 H   0  0  0  0  0  0  0  0  0  0  0  0
   -2.5648    1.6753    0.1173 H   0  0  0  0  0  0  0  0  0  0  0  0
   -3.2563   -1.0659    1.2695 H   0  0  0  0  0  0  0  0  0  0  0  0
   -5.1432    0.5492    1.2928 H   0  0  0  0  0  0  0  0  0  0  0  0
   -5.4026   -0.7166    0.0798 H   0  0  0  0  0  0  0  0  0  0  0  0
   -4.8775    0.8879   -0.4267 H   0  0  0  0  0  0  0  0  0  0  0  0
   -1.5157   -1.5960   -1.8986 H   0  0  0  0  0  0  0  0  0  0  0  0
   -1.3358   -2.3748    1.0548 H   0  0  0  0  0  0  0  0  0  0  0  0
   -0.4983   -3.0931   -0.3226 H   0  0  0  0  0  0  0  0  0  0  0  0
   -2.2485   -3.2653   -0.1656 H   0  0  0  0  0  0  0  0  0  0  0  0
  1  2  1  0  0  0  0
  2  3  1  0  0  0  0
  2  4  1  0  0  0  0
  4  5  1  0  0  0  0
  5  6  1  0  0  0  0
  6  7  1  0  0  0  0
  7  8  1  0  0  0  0
  8  9  1  0  0  0  0
  9 10  1  0  0  0  0
 10 11  1  0  0  0  0
 10 12  1  0  0  0  0
  7 13  1  0  0  0  0
 12 13  1  0  0  0  0
 13 14  1  0  0  0  0
  1 15  1  0  0  0  0
  1 16  1  0  0  0  0
  1 17  1  0  0  0  0
  2 18  1  0  0  0  0
  3 19  1  0  0  0  0
  4 20  1  0  0  0  0
  4 21  1  0  0  0  0
  6 22  1  0  0  0  0
  6 23  1  0  0  0  0
  7 24  1  0  0  0  0
  8 25  1  0  0  0  0
  8 26  1  0  0  0  0
  9 27  1  0  0  0  0
  9 28  1  0  0  0  0
 10 29  1  0  0  0  0
 11 30  1  0  0  0  0
 11 31  1  0  0  0  0
 11 32  1  0  0  0  0
 13 33  1  0  0  0  0
 14 34  1  0  0  0  0
 14 35  1  0  0  0  0
 14 36  1  0  0  0  0
M  END
