 xtb: 6.7.1 (edcfbbe)
          07092608353D

 27 26  0     0  0            999 V2000
   -4.2216   -1.8075   -0.9284 C   0  0  0  0  0  0  0  0  0  0  0  0
   -3.1168   -1.1111   -0.1446 C   0  0  0  0  0  0  0  0  0  0  0  0
   -2.9075    0.3238   -0.6243 C   0  0  0  0  0  0  0  0  0  0  0  0
   -1.7907    1.0247    0.1345 C   0  0  0  0  0  0  0  0  0  0  0  0
   -0.5491    0.3918   -0.1872 O   0  0  0  0  0  0  0  0  0  0  0  0
    0.5306    0.8339    0.4586 C   0  0  0  0  0  0  0  0  0  0  0  0
    0.5069    1.7167    1.2754 O   0  0  0  0  0  0  0  0  0  0  0  0
    1.7632    0.0773    0.0223 C   0  0  0  0  0  0  0  0  0  0  0  0
    3.0177    0.5976    0.7121 C   0  0  0  0  0  0  0  0  0  0  0  0
    4.1150   -0.1695    0.2734 O   0  0  0  0  0  0  0  0  0  0  0  0
    5.3285    0.2288    0.8541 C   0  0  0  0  0  0  0  0  0  0  0  0
   -4.3577   -2.8261   -0.5736 H   0  0  0  0  0  0  0  0  0  0  0  0
   -5.1637   -1.2758   -0.8148 H   0  0  0  0  0  0  0  0  0  0  0  0
   -3.9745   -1.8431   -1.9868 H   0  0  0  0  0  0  0  0  0  0  0  0
   -3.3734   -1.1025    0.9169 H   0  0  0  0  0  0  0  0  0  0  0  0
   -2.1822   -1.6619   -0.2596 H   0  0  0  0  0  0  0  0  0  0  0  0
   -3.8259    0.8978   -0.4896 H   0  0  0  0  0  0  0  0  0  0  0  0
   -2.6588    0.3195   -1.6867 H   0  0  0  0  0  0  0  0  0  0  0  0
   -1.9466    0.9674    1.2176 H   0  0  0  0  0  0  0  0  0  0  0  0
   -1.7262    2.0829   -0.1432 H   0  0  0  0  0  0  0  0  0  0  0  0
    1.6279   -0.9811    0.2515 H   0  0  0  0  0  0  0  0  0  0  0  0
    1.8687    0.1633   -1.0602 H   0  0  0  0  0  0  0  0  0  0  0  0
    3.1680    1.6602    0.4679 H   0  0  0  0  0  0  0  0  0  0  0  0
    2.9046    0.5201    1.8039 H   0  0  0  0  0  0  0  0  0  0  0  0
    5.5665    1.2708    0.6061 H   0  0  0  0  0  0  0  0  0  0  0  0
    5.3001    0.1277    1.9463 H   0  0  0  0  0  0  0  0  0  0  0  0
    6.0972   -0.4257    0.4485 H   0  0  0  0  0  0  0  0  0  0  0  0
  1  2  1  0  0  0  0
  2  3  1  0  0  0  0
  3  4  1  0  0  0  0
  4  5  1  0  0  0  0
  5  6  1  0  0  0  0
  6  7  2  0  0  0  0
  6  8  1  0  0  0  0
  8  9  1  0  0  0  0
  9 10  1  0  0  0  0
 10 11  1  0  0  0  0
  1 12  1  0  0  0  0
  1 13  1  0  0  0  0
  1 14  1  0  0  0  0
  2 15  1  0  0  0  0
  2 16  1  0  0  0  0
  3 17  1  0  0  0  0
  3 18  1  0  0  0  0
  4 19  1  0  0  0  0
  4 20  1  0  0  0  0
  8 21  1  0  0  0  0
  8 22  1  0  0  0  0
  9 23  1  0  0  0  0
  9 24  1  0  0  0  0
 11 25  1  0  0  0  0
 11 26  1  0  0  0  0
 11 27  1  0  0  0  0
M  END
