 xtb: 6.7.1 (edcfbbe)
          07072610053D

 34 35  0     0  0            999 V2000
   -2.1751    1.9897    0.3698 C   0  0  0  0  0  0  0  0  0  0  0  0
   -2.6705    0.6440    0.8849 C   0  0  0  0  0  0  0  0  0  0  0  0
   -2.3534   -0.5038   -0.0777 C   0  0  0  0  0  0  0  0  0  0  0  0
   -2.9245   -1.8290    0.4195 C   0  0  0  0  0  0  0  0  0  0  0  0
   -0.9147   -0.6326   -0.2823 N   0  0  0  0  0  0  0  0  0  0  0  0
   -0.3414   -0.5016   -1.5321 C   0  0  0  0  0  0  0  0  0  0  0  0
   -0.9551   -0.3342   -2.5530 O   0  0  0  0  0  0  0  0  0  0  0  0
    1.1632   -0.5242   -1.3410 C   0  0  0  0  0  0  0  0  0  0  0  0
    1.6191    0.9458   -1.3300 C   0  0  0  0  0  0  0  0  0  0  0  0
    2.9671    1.1128   -0.6412 C   0  0  0  0  0  0  0  0  0  0  0  0
    2.8582    0.6409    0.8042 C   0  0  0  0  0  0  0  0  0  0  0  0
    2.5561   -0.8522    0.8399 C   0  0  0  0  0  0  0  0  0  0  0  0
    1.3235   -1.2134    0.0148 C   0  0  0  0  0  0  0  0  0  0  0  0
   -0.0013   -0.9339    0.7072 C   0  0  0  0  0  0  0  0  0  0  0  0
   -0.2392   -1.0125    1.8839 O   0  0  0  0  0  0  0  0  0  0  0  0
   -2.4997    2.7891    1.0312 H   0  0  0  0  0  0  0  0  0  0  0  0
   -2.5623    2.1862   -0.6280 H   0  0  0  0  0  0  0  0  0  0  0  0
   -1.0882    2.0106    0.3254 H   0  0  0  0  0  0  0  0  0  0  0  0
   -3.7534    0.6806    1.0141 H   0  0  0  0  0  0  0  0  0  0  0  0
   -2.2198    0.4283    1.8544 H   0  0  0  0  0  0  0  0  0  0  0  0
   -2.7597   -0.2740   -1.0703 H   0  0  0  0  0  0  0  0  0  0  0  0
   -4.0050   -1.7562    0.5061 H   0  0  0  0  0  0  0  0  0  0  0  0
   -2.5098   -2.0724    1.3946 H   0  0  0  0  0  0  0  0  0  0  0  0
   -2.6850   -2.6298   -0.2770 H   0  0  0  0  0  0  0  0  0  0  0  0
    1.6636   -1.0572   -2.1509 H   0  0  0  0  0  0  0  0  0  0  0  0
    1.6556    1.3089   -2.3579 H   0  0  0  0  0  0  0  0  0  0  0  0
    0.8810    1.5488   -0.7943 H   0  0  0  0  0  0  0  0  0  0  0  0
    3.7292    0.5305   -1.1631 H   0  0  0  0  0  0  0  0  0  0  0  0
    3.2611    2.1631   -0.6750 H   0  0  0  0  0  0  0  0  0  0  0  0
    3.7901    0.8340    1.3379 H   0  0  0  0  0  0  0  0  0  0  0  0
    2.0617    1.1909    1.3102 H   0  0  0  0  0  0  0  0  0  0  0  0
    2.3833   -1.1773    1.8677 H   0  0  0  0  0  0  0  0  0  0  0  0
    3.4171   -1.3990    0.4490 H   0  0  0  0  0  0  0  0  0  0  0  0
    1.3283   -2.3009   -0.1408 H   0  0  0  0  0  0  0  0  0  0  0  0
  1  2  1  0  0  0  0
  2  3  1  0  0  0  0
  3  4  1  0  0  0  0
  3  5  1  0  0  0  0
  5  6  1  0  0  0  0
  6  7  2  0  0  0  0
  6  8  1  0  0  0  0
  8  9  1  0  0  0  0
  9 10  1  0  0  0  0
 10 11  1  0  0  0  0
 11 12  1  0  0  0  0
  8 13  1  0  0  0  0
 12 13  1  0  0  0  0
  5 14  1  0  0  0  0
 13 14  1  0  0  0  0
 14 15  2  0  0  0  0
  1 16  1  0  0  0  0
  1 17  1  0  0  0  0
  1 18  1  0  0  0  0
  2 19  1  0  0  0  0
  2 20  1  0  0  0  0
  3 21  1  0  0  0  0
  4 22  1  0  0  0  0
  4 23  1  0  0  0  0
  4 24  1  0  0  0  0
  8 25  1  0  0  0  0
  9 26  1  0  0  0  0
  9 27  1  0  0  0  0
 10 28  1  0  0  0  0
 10 29  1  0  0  0  0
 11 30  1  0  0  0  0
 11 31  1  0  0  0  0
 12 32  1  0  0  0  0
 12 33  1  0  0  0  0
 13 34  1  0  0  0  0
M  END
