 xtb: 6.7.1 (edcfbbe)
          07092620033D

 24 25  0     0  0            999 V2000
    3.5295   -0.9626   -0.1464 C   0  0  0  0  0  0  0  0  0  0  0  0
    2.6718   -0.5609    0.7722 C   0  0  0  0  0  0  0  0  0  0  0  0
    2.0678    0.8120    0.8295 C   0  0  0  0  0  0  0  0  0  0  0  0
    0.5825    0.7259    0.6196 C   0  0  0  0  0  0  0  0  0  0  0  0
   -0.3110    0.9329    1.5920 C   0  0  0  0  0  0  0  0  0  0  0  0
   -1.7407    0.8846    1.3439 C   0  0  0  0  0  0  0  0  0  0  0  0
   -2.1443    0.3061    0.2158 C   0  0  0  0  0  0  0  0  0  0  0  0
   -3.3889    0.2323   -0.3251 O   0  0  0  0  0  0  0  0  0  0  0  0
   -3.2479   -0.4317   -1.5655 C   0  0  0  0  0  0  0  0  0  0  0  0
   -1.9105   -0.3630   -1.9495 O   0  0  0  0  0  0  0  0  0  0  0  0
   -1.1758   -0.3592   -0.7349 C   0  0  0  0  0  0  0  0  0  0  0  0
    0.1301    0.4115   -0.7890 C   0  0  0  0  0  0  0  0  0  0  0  0
    3.8782   -0.3028   -0.9247 H   0  0  0  0  0  0  0  0  0  0  0  0
    3.9304   -1.9620   -0.1565 H   0  0  0  0  0  0  0  0  0  0  0  0
    2.3321   -1.2400    1.5431 H   0  0  0  0  0  0  0  0  0  0  0  0
    2.5135    1.4401    0.0546 H   0  0  0  0  0  0  0  0  0  0  0  0
    2.2741    1.2560    1.8060 H   0  0  0  0  0  0  0  0  0  0  0  0
    0.0101    1.1971    2.5885 H   0  0  0  0  0  0  0  0  0  0  0  0
   -2.4259    1.3313    2.0432 H   0  0  0  0  0  0  0  0  0  0  0  0
   -3.8697    0.0617   -2.3186 H   0  0  0  0  0  0  0  0  0  0  0  0
   -3.5740   -1.4827   -1.4414 H   0  0  0  0  0  0  0  0  0  0  0  0
   -0.9913   -1.3989   -0.4036 H   0  0  0  0  0  0  0  0  0  0  0  0
    0.8896   -0.1625   -1.3192 H   0  0  0  0  0  0  0  0  0  0  0  0
   -0.0295    1.3486   -1.3339 H   0  0  0  0  0  0  0  0  0  0  0  0
  1  2  2  0  0  0  0
  2  3  1  0  0  0  0
  3  4  1  0  0  0  0
  4  5  2  0  0  0  0
  5  6  1  0  0  0  0
  6  7  2  0  0  0  0
  7  8  1  0  0  0  0
  8  9  1  0  0  0  0
  9 10  1  0  0  0  0
  7 11  1  0  0  0  0
 10 11  1  0  0  0  0
  4 12  1  0  0  0  0
 11 12  1  0  0  0  0
  1 13  1  0  0  0  0
  1 14  1  0  0  0  0
  2 15  1  0  0  0  0
  3 16  1  0  0  0  0
  3 17  1  0  0  0  0
  5 18  1  0  0  0  0
  6 19  1  0  0  0  0
  9 20  1  0  0  0  0
  9 21  1  0  0  0  0
 11 22  1  0  0  0  0
 12 23  1  0  0  0  0
 12 24  1  0  0  0  0
M  END
