 xtb: 6.7.1 (edcfbbe)
          07082617403D

 16 15  0     0  0            999 V2000
    1.9790   -0.2263    0.2871 C   0  0  0  0  0  0  0  0  0  0  0  0
    0.4627   -0.4101    0.3089 C   0  0  0  0  0  0  0  0  0  0  0  0
    0.0654   -1.4567   -0.5653 O   0  0  0  0  0  0  0  0  0  0  0  0
   -0.2561    0.8700   -0.1275 C   0  0  0  0  0  0  0  0  0  0  0  0
   -1.7800    0.7365   -0.0547 C   0  0  0  0  0  0  0  0  0  0  0  0
   -2.3071   -0.0602   -1.0811 O   0  0  0  0  0  0  0  0  0  0  0  0
    2.3086    0.0096   -0.7222 H   0  0  0  0  0  0  0  0  0  0  0  0
    2.4794   -1.1370    0.6136 H   0  0  0  0  0  0  0  0  0  0  0  0
    2.2697    0.5830    0.9506 H   0  0  0  0  0  0  0  0  0  0  0  0
    0.1453   -0.6631    1.3356 H   0  0  0  0  0  0  0  0  0  0  0  0
    0.5909   -2.2403   -0.3739 H   0  0  0  0  0  0  0  0  0  0  0  0
    0.0664    1.6874    0.5176 H   0  0  0  0  0  0  0  0  0  0  0  0
    0.0247    1.0994   -1.1567 H   0  0  0  0  0  0  0  0  0  0  0  0
   -2.2453    1.7200   -0.1648 H   0  0  0  0  0  0  0  0  0  0  0  0
   -2.0623    0.3306    0.9308 H   0  0  0  0  0  0  0  0  0  0  0  0
   -1.7415   -0.8427   -1.1493 H   0  0  0  0  0  0  0  0  0  0  0  0
  1  2  1  0  0  0  0
  2  3  1  0  0  0  0
  2  4  1  0  0  0  0
  4  5  1  0  0  0  0
  5  6  1  0  0  0  0
  1  7  1  0  0  0  0
  1  8  1  0  0  0  0
  1  9  1  0  0  0  0
  2 10  1  0  0  0  0
  3 11  1  0  0  0  0
  4 12  1  0  0  0  0
  4 13  1  0  0  0  0
  5 14  1  0  0  0  0
  5 15  1  0  0  0  0
  6 16  1  0  0  0  0
M  END
