 xtb: 6.7.1 (edcfbbe)
          07082609093D

 29 28  0     0  0            999 V2000
   -2.6102    1.6925   -1.1869 C   0  0  0  0  0  0  0  0  0  0  0  0
   -2.3197    0.9052   -0.1686 C   0  0  0  0  0  0  0  0  0  0  0  0
   -2.0619   -0.5806   -0.2615 C   0  0  0  0  0  0  0  0  0  0  0  0
   -3.0044   -1.3002    0.7199 C   0  0  0  0  0  0  0  0  0  0  0  0
   -2.2603   -1.0820   -1.5699 O   0  0  0  0  0  0  0  0  0  0  0  0
   -0.5990   -0.8793    0.1131 C   0  0  0  0  0  0  0  0  0  0  0  0
    0.3962   -0.2062   -0.8382 C   0  0  0  0  0  0  0  0  0  0  0  0
    1.8008   -0.5694   -0.4695 C   0  0  0  0  0  0  0  0  0  0  0  0
    2.6822    0.1710    0.1914 C   0  0  0  0  0  0  0  0  0  0  0  0
    4.0607   -0.3435    0.4938 C   0  0  0  0  0  0  0  0  0  0  0  0
    2.4365    1.5637    0.6925 C   0  0  0  0  0  0  0  0  0  0  0  0
   -2.6620    1.3181   -2.1964 H   0  0  0  0  0  0  0  0  0  0  0  0
   -2.7888    2.7467   -1.0594 H   0  0  0  0  0  0  0  0  0  0  0  0
   -2.2509    1.3009    0.8356 H   0  0  0  0  0  0  0  0  0  0  0  0
   -2.8682   -2.3757    0.6338 H   0  0  0  0  0  0  0  0  0  0  0  0
   -2.7963   -0.9996    1.7429 H   0  0  0  0  0  0  0  0  0  0  0  0
   -4.0419   -1.0595    0.4903 H   0  0  0  0  0  0  0  0  0  0  0  0
   -3.1749   -0.9142   -1.8210 H   0  0  0  0  0  0  0  0  0  0  0  0
   -0.4545   -1.9602    0.0752 H   0  0  0  0  0  0  0  0  0  0  0  0
   -0.4157   -0.5419    1.1345 H   0  0  0  0  0  0  0  0  0  0  0  0
    0.1847   -0.5541   -1.8506 H   0  0  0  0  0  0  0  0  0  0  0  0
    0.2431    0.8725   -0.8170 H   0  0  0  0  0  0  0  0  0  0  0  0
    2.0917   -1.5698   -0.7661 H   0  0  0  0  0  0  0  0  0  0  0  0
    4.2234   -0.3795    1.5711 H   0  0  0  0  0  0  0  0  0  0  0  0
    4.8129    0.3210    0.0692 H   0  0  0  0  0  0  0  0  0  0  0  0
    4.2084   -1.3406    0.0875 H   0  0  0  0  0  0  0  0  0  0  0  0
    1.4047    1.8727    0.5624 H   0  0  0  0  0  0  0  0  0  0  0  0
    3.0795    2.2684    0.1644 H   0  0  0  0  0  0  0  0  0  0  0  0
    2.6836    1.6235    1.7522 H   0  0  0  0  0  0  0  0  0  0  0  0
  1  2  2  0  0  0  0
  2  3  1  0  0  0  0
  3  4  1  0  0  0  0
  3  5  1  0  0  0  0
  3  6  1  0  0  0  0
  6  7  1  0  0  0  0
  7  8  1  0  0  0  0
  8  9  2  0  0  0  0
  9 10  1  0  0  0  0
  9 11  1  0  0  0  0
  1 12  1  0  0  0  0
  1 13  1  0  0  0  0
  2 14  1  0  0  0  0
  4 15  1  0  0  0  0
  4 16  1  0  0  0  0
  4 17  1  0  0  0  0
  5 18  1  0  0  0  0
  6 19  1  0  0  0  0
  6 20  1  0  0  0  0
  7 21  1  0  0  0  0
  7 22  1  0  0  0  0
  8 23  1  0  0  0  0
 10 24  1  0  0  0  0
 10 25  1  0  0  0  0
 10 26  1  0  0  0  0
 11 27  1  0  0  0  0
 11 28  1  0  0  0  0
 11 29  1  0  0  0  0
M  END
