 xtb: 6.7.1 (edcfbbe)
          07082616573D

 29 29  0     0  0            999 V2000
    3.8457   -0.0060   -0.4322 C   0  0  0  0  0  0  0  0  0  0  0  0
    2.3622    0.0170   -0.2196 C   0  0  0  0  0  0  0  0  0  0  0  0
    1.8073   -0.1558    0.9712 C   0  0  0  0  0  0  0  0  0  0  0  0
    0.3305   -0.1611    1.2352 C   0  0  0  0  0  0  0  0  0  0  0  0
   -0.4644   -0.3081   -0.0617 C   0  0  0  0  0  0  0  0  0  0  0  0
   -1.9976   -0.1506    0.0998 C   0  0  0  0  0  0  0  0  0  0  0  0
   -2.4231    1.2660    0.4849 C   0  0  0  0  0  0  0  0  0  0  0  0
   -2.5348   -1.1514    1.1328 C   0  0  0  0  0  0  0  0  0  0  0  0
   -2.6158   -0.3999   -1.1576 O   0  0  0  0  0  0  0  0  0  0  0  0
    0.1110    0.6626   -1.0940 C   0  0  0  0  0  0  0  0  0  0  0  0
    1.5321    0.2432   -1.4533 C   0  0  0  0  0  0  0  0  0  0  0  0
    4.1905    0.9612   -0.7980 H   0  0  0  0  0  0  0  0  0  0  0  0
    4.1077   -0.7540   -1.1804 H   0  0  0  0  0  0  0  0  0  0  0  0
    4.3714   -0.2356    0.4911 H   0  0  0  0  0  0  0  0  0  0  0  0
    2.4327   -0.3023    1.8426 H   0  0  0  0  0  0  0  0  0  0  0  0
    0.0615    0.7713    1.7414 H   0  0  0  0  0  0  0  0  0  0  0  0
    0.1004   -0.9800    1.9209 H   0  0  0  0  0  0  0  0  0  0  0  0
   -0.2954   -1.3271   -0.4386 H   0  0  0  0  0  0  0  0  0  0  0  0
   -1.9530    1.5773    1.4122 H   0  0  0  0  0  0  0  0  0  0  0  0
   -3.5023    1.2885    0.6114 H   0  0  0  0  0  0  0  0  0  0  0  0
   -2.1619    1.9598   -0.3075 H   0  0  0  0  0  0  0  0  0  0  0  0
   -2.1543   -2.1527    0.9353 H   0  0  0  0  0  0  0  0  0  0  0  0
   -2.2509   -0.8605    2.1393 H   0  0  0  0  0  0  0  0  0  0  0  0
   -3.6209   -1.1767    1.0737 H   0  0  0  0  0  0  0  0  0  0  0  0
   -2.4097   -1.3020   -1.4267 H   0  0  0  0  0  0  0  0  0  0  0  0
   -0.5197    0.6781   -1.9844 H   0  0  0  0  0  0  0  0  0  0  0  0
    0.1344    1.6677   -0.6707 H   0  0  0  0  0  0  0  0  0  0  0  0
    2.0028    1.0104   -2.0735 H   0  0  0  0  0  0  0  0  0  0  0  0
    1.5137   -0.6792   -2.0445 H   0  0  0  0  0  0  0  0  0  0  0  0
  1  2  1  0  0  0  0
  2  3  2  0  0  0  0
  3  4  1  0  0  0  0
  4  5  1  0  0  0  0
  5  6  1  0  0  0  0
  6  7  1  0  0  0  0
  6  8  1  0  0  0  0
  6  9  1  0  0  0  0
  5 10  1  0  0  0  0
  2 11  1  0  0  0  0
 10 11  1  0  0  0  0
  1 12  1  0  0  0  0
  1 13  1  0  0  0  0
  1 14  1  0  0  0  0
  3 15  1  0  0  0  0
  4 16  1  0  0  0  0
  4 17  1  0  0  0  0
  5 18  1  0  0  0  0
  7 19  1  0  0  0  0
  7 20  1  0  0  0  0
  7 21  1  0  0  0  0
  8 22  1  0  0  0  0
  8 23  1  0  0  0  0
  8 24  1  0  0  0  0
  9 25  1  0  0  0  0
 10 26  1  0  0  0  0
 10 27  1  0  0  0  0
 11 28  1  0  0  0  0
 11 29  1  0  0  0  0
M  END
