 xtb: 6.7.1 (edcfbbe)
          07082603553D

 24 24  0     0  0            999 V2000
    4.5088   -0.0556   -0.1590 C   0  0  0  0  0  0  0  0  0  0  0  0
    3.1183    0.5425   -0.3006 C   0  0  0  0  0  0  0  0  0  0  0  0
    2.1812   -0.4621    0.0431 O   0  0  0  0  0  0  0  0  0  0  0  0
    0.8604   -0.1796   -0.0023 C   0  0  0  0  0  0  0  0  0  0  0  0
    0.0014   -1.2263    0.3521 C   0  0  0  0  0  0  0  0  0  0  0  0
   -1.3628   -1.0542    0.3425 C   0  0  0  0  0  0  0  0  0  0  0  0
   -1.9205    0.1740   -0.0227 C   0  0  0  0  0  0  0  0  0  0  0  0
   -3.3753    0.4400   -0.0586 C   0  0  0  0  0  0  0  0  0  0  0  0
   -4.2935   -0.6968    0.3258 C   0  0  0  0  0  0  0  0  0  0  0  0
   -3.8151    1.5230   -0.3823 O   0  0  0  0  0  0  0  0  0  0  0  0
   -1.0570    1.2115   -0.3743 C   0  0  0  0  0  0  0  0  0  0  0  0
    0.3126    1.0490   -0.3679 C   0  0  0  0  0  0  0  0  0  0  0  0
    4.6684   -0.3862    0.8636 H   0  0  0  0  0  0  0  0  0  0  0  0
    5.2580    0.6879   -0.4152 H   0  0  0  0  0  0  0  0  0  0  0  0
    4.6139   -0.9115   -0.8200 H   0  0  0  0  0  0  0  0  0  0  0  0
    3.0058    1.4057    0.3694 H   0  0  0  0  0  0  0  0  0  0  0  0
    2.9507    0.8741   -1.3344 H   0  0  0  0  0  0  0  0  0  0  0  0
    0.4419   -2.1704    0.6324 H   0  0  0  0  0  0  0  0  0  0  0  0
   -1.9928   -1.8839    0.6217 H   0  0  0  0  0  0  0  0  0  0  0  0
   -4.0889   -1.0154    1.3454 H   0  0  0  0  0  0  0  0  0  0  0  0
   -4.1435   -1.5419   -0.3422 H   0  0  0  0  0  0  0  0  0  0  0  0
   -5.3250   -0.3611    0.2544 H   0  0  0  0  0  0  0  0  0  0  0  0
   -1.4907    2.1595   -0.6560 H   0  0  0  0  0  0  0  0  0  0  0  0
    0.9436    1.8780   -0.6470 H   0  0  0  0  0  0  0  0  0  0  0  0
  1  2  1  0  0  0  0
  2  3  1  0  0  0  0
  3  4  1  0  0  0  0
  4  5  4  0  0  0  0
  5  6  4  0  0  0  0
  6  7  4  0  0  0  0
  7  8  1  0  0  0  0
  8  9  1  0  0  0  0
  8 10  2  0  0  0  0
  7 11  4  0  0  0  0
  4 12  4  0  0  0  0
 11 12  4  0  0  0  0
  1 13  1  0  0  0  0
  1 14  1  0  0  0  0
  1 15  1  0  0  0  0
  2 16  1  0  0  0  0
  2 17  1  0  0  0  0
  5 18  1  0  0  0  0
  6 19  1  0  0  0  0
  9 20  1  0  0  0  0
  9 21  1  0  0  0  0
  9 22  1  0  0  0  0
 11 23  1  0  0  0  0
 12 24  1  0  0  0  0
M  END
