 xtb: 6.7.1 (edcfbbe)
          07092623093D

 24 23  0     0  0            999 V2000
    3.1949   -1.8182   -1.0100 C   0  0  0  0  0  0  0  0  0  0  0  0
    2.4556   -1.0998   -0.0296 O   0  0  0  0  0  0  0  0  0  0  0  0
    1.6614   -0.1290   -0.4848 C   0  0  0  0  0  0  0  0  0  0  0  0
    1.5486    0.1516   -1.6484 O   0  0  0  0  0  0  0  0  0  0  0  0
    0.9473    0.5662    0.6513 C   0  0  0  0  0  0  0  0  0  0  0  0
   -0.3526    1.2031    0.1658 C   0  0  0  0  0  0  0  0  0  0  0  0
   -0.9903    1.7938    1.2802 O   0  0  0  0  0  0  0  0  0  0  0  0
   -1.9834    2.7418    0.9550 C   0  0  0  0  0  0  0  0  0  0  0  0
   -1.2925    0.1771   -0.4822 C   0  0  0  0  0  0  0  0  0  0  0  0
   -2.2772    0.4770   -1.1050 O   0  0  0  0  0  0  0  0  0  0  0  0
   -0.9240   -1.0789   -0.2422 O   0  0  0  0  0  0  0  0  0  0  0  0
   -1.7536   -2.0908   -0.8016 C   0  0  0  0  0  0  0  0  0  0  0  0
    3.7241   -2.6034   -0.4766 H   0  0  0  0  0  0  0  0  0  0  0  0
    2.5202   -2.2440   -1.7549 H   0  0  0  0  0  0  0  0  0  0  0  0
    3.9001   -1.1545   -1.5141 H   0  0  0  0  0  0  0  0  0  0  0  0
    0.7449   -0.1464    1.4492 H   0  0  0  0  0  0  0  0  0  0  0  0
    1.5960    1.3485    1.0509 H   0  0  0  0  0  0  0  0  0  0  0  0
   -0.1377    1.9660   -0.6000 H   0  0  0  0  0  0  0  0  0  0  0  0
   -1.5531    3.5803    0.3946 H   0  0  0  0  0  0  0  0  0  0  0  0
   -2.3747    3.0980    1.9058 H   0  0  0  0  0  0  0  0  0  0  0  0
   -2.7911    2.2987    0.3664 H   0  0  0  0  0  0  0  0  0  0  0  0
   -1.7985   -1.9811   -1.8865 H   0  0  0  0  0  0  0  0  0  0  0  0
   -2.7646   -2.0165   -0.3975 H   0  0  0  0  0  0  0  0  0  0  0  0
   -1.2999   -3.0395   -0.5287 H   0  0  0  0  0  0  0  0  0  0  0  0
  1  2  1  0  0  0  0
  2  3  1  0  0  0  0
  3  4  2  0  0  0  0
  3  5  1  0  0  0  0
  5  6  1  0  0  0  0
  6  7  1  0  0  0  0
  7  8  1  0  0  0  0
  6  9  1  0  0  0  0
  9 10  2  0  0  0  0
  9 11  1  0  0  0  0
 11 12  1  0  0  0  0
  1 13  1  0  0  0  0
  1 14  1  0  0  0  0
  1 15  1  0  0  0  0
  5 16  1  0  0  0  0
  5 17  1  0  0  0  0
  6 18  1  0  0  0  0
  8 19  1  0  0  0  0
  8 20  1  0  0  0  0
  8 21  1  0  0  0  0
 12 22  1  0  0  0  0
 12 23  1  0  0  0  0
 12 24  1  0  0  0  0
M  END
