 xtb: 6.7.1 (edcfbbe)
          07082619033D

 20 20  0     0  0            999 V2000
    2.3581   -0.0197    0.2173 C   0  0  0  0  0  0  0  0  0  0  0  0
    0.9192    0.1789   -0.2505 C   0  0  0  0  0  0  0  0  0  0  0  0
    0.1734   -1.1523   -0.3304 C   0  0  0  0  0  0  0  0  0  0  0  0
   -1.2586   -0.9424   -0.8092 C   0  0  0  0  0  0  0  0  0  0  0  0
   -2.0123    0.0013    0.1312 C   0  0  0  0  0  0  0  0  0  0  0  0
   -1.2610    1.3049    0.2696 C   0  0  0  0  0  0  0  0  0  0  0  0
   -1.7573    2.3803    0.0467 O   0  0  0  0  0  0  0  0  0  0  0  0
    0.1763    1.1304    0.6977 C   0  0  0  0  0  0  0  0  0  0  0  0
    2.8797    0.9331    0.2670 H   0  0  0  0  0  0  0  0  0  0  0  0
    2.8954   -0.6691   -0.4701 H   0  0  0  0  0  0  0  0  0  0  0  0
    2.3781   -0.4745    1.2056 H   0  0  0  0  0  0  0  0  0  0  0  0
    0.9347    0.6315   -1.2484 H   0  0  0  0  0  0  0  0  0  0  0  0
    0.1660   -1.6240    0.6553 H   0  0  0  0  0  0  0  0  0  0  0  0
    0.6945   -1.8227   -1.0168 H   0  0  0  0  0  0  0  0  0  0  0  0
   -1.7828   -1.8988   -0.8603 H   0  0  0  0  0  0  0  0  0  0  0  0
   -1.2480   -0.5133   -1.8137 H   0  0  0  0  0  0  0  0  0  0  0  0
   -2.0901   -0.4570    1.1202 H   0  0  0  0  0  0  0  0  0  0  0  0
   -3.0186    0.1988   -0.2411 H   0  0  0  0  0  0  0  0  0  0  0  0
    0.6660    2.1054    0.7237 H   0  0  0  0  0  0  0  0  0  0  0  0
    0.1873    0.7090    1.7062 H   0  0  0  0  0  0  0  0  0  0  0  0
  1  2  1  0  0  0  0
  2  3  1  0  0  0  0
  3  4  1  0  0  0  0
  4  5  1  0  0  0  0
  5  6  1  0  0  0  0
  6  7  2  0  0  0  0
  2  8  1  0  0  0  0
  6  8  1  0  0  0  0
  1  9  1  0  0  0  0
  1 10  1  0  0  0  0
  1 11  1  0  0  0  0
  2 12  1  0  0  0  0
  3 13  1  0  0  0  0
  3 14  1  0  0  0  0
  4 15  1  0  0  0  0
  4 16  1  0  0  0  0
  5 17  1  0  0  0  0
  5 18  1  0  0  0  0
  8 19  1  0  0  0  0
  8 20  1  0  0  0  0
M  END
