 xtb: 6.7.1 (edcfbbe)
          07072611203D

 45 47  0     0  0            999 V2000
    3.3614    2.6538   -0.3644 C   0  0  0  0  0  0  0  0  0  0  0  0
    2.6762    2.1120    0.8846 C   0  0  0  0  0  0  0  0  0  0  0  0
    2.5336    0.5895    0.8755 C   0  0  0  0  0  0  0  0  0  0  0  0
    1.6166    0.0904   -0.2395 C   0  0  0  0  0  0  0  0  0  0  0  0
    1.2263   -1.3837   -0.0910 C   0  0  0  0  0  0  0  0  0  0  0  0
    2.4177   -2.3476   -0.1764 C   0  0  0  0  0  0  0  0  0  0  0  0
    3.1893   -2.3001   -1.4903 C   0  0  0  0  0  0  0  0  0  0  0  0
    0.1597   -1.7564   -1.1330 C   0  0  0  0  0  0  0  0  0  0  0  0
   -1.1257   -1.1690   -0.8152 N   0  0  0  0  0  0  0  0  0  0  0  0
   -1.9648   -1.7006    0.1428 C   0  0  0  0  0  0  0  0  0  0  0  0
   -1.7297   -2.6953    0.7772 O   0  0  0  0  0  0  0  0  0  0  0  0
   -3.1894   -0.8143    0.2323 C   0  0  0  0  0  0  0  0  0  0  0  0
   -3.2428   -0.0432    1.5810 C   0  0  0  0  0  0  0  0  0  0  0  0
   -4.4945    0.7958    1.5005 C   0  0  0  0  0  0  0  0  0  0  0  0
   -4.2746    1.7581    0.6137 C   0  0  0  0  0  0  0  0  0  0  0  0
   -2.8731    1.5760    0.0836 C   0  0  0  0  0  0  0  0  0  0  0  0
   -2.1790    1.0332    1.3381 C   0  0  0  0  0  0  0  0  0  0  0  0
   -2.9497    0.2948   -0.7951 C   0  0  0  0  0  0  0  0  0  0  0  0
   -1.6168   -0.0369   -1.4312 C   0  0  0  0  0  0  0  0  0  0  0  0
   -1.0578    0.5580   -2.3152 O   0  0  0  0  0  0  0  0  0  0  0  0
    3.5289    3.7243   -0.2686 H   0  0  0  0  0  0  0  0  0  0  0  0
    2.7505    2.4853   -1.2471 H   0  0  0  0  0  0  0  0  0  0  0  0
    4.3245    2.1689   -0.5107 H   0  0  0  0  0  0  0  0  0  0  0  0
    3.2587    2.4010    1.7629 H   0  0  0  0  0  0  0  0  0  0  0  0
    1.6876    2.5676    0.9804 H   0  0  0  0  0  0  0  0  0  0  0  0
    2.1266    0.2705    1.8392 H   0  0  0  0  0  0  0  0  0  0  0  0
    3.5241    0.1439    0.7699 H   0  0  0  0  0  0  0  0  0  0  0  0
    0.7073    0.6966   -0.2340 H   0  0  0  0  0  0  0  0  0  0  0  0
    2.0903    0.2398   -1.2092 H   0  0  0  0  0  0  0  0  0  0  0  0
    0.7742   -1.5272    0.8985 H   0  0  0  0  0  0  0  0  0  0  0  0
    3.1009   -2.1283    0.6455 H   0  0  0  0  0  0  0  0  0  0  0  0
    2.0426   -3.3620   -0.0213 H   0  0  0  0  0  0  0  0  0  0  0  0
    3.9963   -3.0291   -1.4669 H   0  0  0  0  0  0  0  0  0  0  0  0
    3.6284   -1.3198   -1.6531 H   0  0  0  0  0  0  0  0  0  0  0  0
    2.5451   -2.5365   -2.3330 H   0  0  0  0  0  0  0  0  0  0  0  0
    0.4387   -1.3908   -2.1229 H   0  0  0  0  0  0  0  0  0  0  0  0
    0.0277   -2.8413   -1.1551 H   0  0  0  0  0  0  0  0  0  0  0  0
   -4.0909   -1.4081    0.0786 H   0  0  0  0  0  0  0  0  0  0  0  0
   -3.1319   -0.6811    2.4532 H   0  0  0  0  0  0  0  0  0  0  0  0
   -5.3977    0.5788    2.0392 H   0  0  0  0  0  0  0  0  0  0  0  0
   -4.9567    2.5081    0.2597 H   0  0  0  0  0  0  0  0  0  0  0  0
   -2.4230    2.4263   -0.4209 H   0  0  0  0  0  0  0  0  0  0  0  0
   -2.1414    1.7682    2.1404 H   0  0  0  0  0  0  0  0  0  0  0  0
   -1.1797    0.6379    1.1642 H   0  0  0  0  0  0  0  0  0  0  0  0
   -3.7142    0.3927   -1.5665 H   0  0  0  0  0  0  0  0  0  0  0  0
  1  2  1  0  0  0  0
  2  3  1  0  0  0  0
  3  4  1  0  0  0  0
  4  5  1  0  0  0  0
  5  6  1  0  0  0  0
  6  7  1  0  0  0  0
  5  8  1  0  0  0  0
  8  9  1  0  0  0  0
  9 10  1  0  0  0  0
 10 11  2  0  0  0  0
 10 12  1  0  0  0  0
 12 13  1  0  0  0  0
 13 14  1  0  0  0  0
 14 15  2  0  0  0  0
 15 16  1  0  0  0  0
 13 17  1  0  0  0  0
 16 17  1  0  0  0  0
 12 18  1  0  0  0  0
 16 18  1  0  0  0  0
  9 19  1  0  0  0  0
 18 19  1  0  0  0  0
 19 20  2  0  0  0  0
  1 21  1  0  0  0  0
  1 22  1  0  0  0  0
  1 23  1  0  0  0  0
  2 24  1  0  0  0  0
  2 25  1  0  0  0  0
  3 26  1  0  0  0  0
  3 27  1  0  0  0  0
  4 28  1  0  0  0  0
  4 29  1  0  0  0  0
  5 30  1  0  0  0  0
  6 31  1  0  0  0  0
  6 32  1  0  0  0  0
  7 33  1  0  0  0  0
  7 34  1  0  0  0  0
  7 35  1  0  0  0  0
  8 36  1  0  0  0  0
  8 37  1  0  0  0  0
 12 38  1  0  0  0  0
 13 39  1  0  0  0  0
 14 40  1  0  0  0  0
 15 41  1  0  0  0  0
 16 42  1  0  0  0  0
 17 43  1  0  0  0  0
 17 44  1  0  0  0  0
 18 45  1  0  0  0  0
M  END
