 xtb: 6.7.1 (edcfbbe)
          07072601483D

 82 82  0     0  0            999 V2000
    1.6293   -2.4674    2.8594 C   0  0  0  0  0  0  0  0  0  0  0  0
    1.7129   -2.1139    1.5821 C   0  0  0  0  0  0  0  0  0  0  0  0
    0.5497   -2.2155    0.6307 C   0  0  0  0  0  0  0  0  0  0  0  0
   -0.3106   -0.9490    0.6733 C   0  0  0  0  0  0  0  0  0  0  0  0
    0.4391    0.3062    0.2095 C   0  0  0  0  0  0  0  0  0  0  0  0
   -0.6658    1.2548   -0.2527 C   0  0  0  0  0  0  0  0  0  0  0  0
   -1.6634    0.3278   -0.8679 C   0  0  0  0  0  0  0  0  0  0  0  0
   -2.4054    0.7181   -1.8091 N   0  0  0  0  0  0  0  0  0  0  0  0
   -3.2726   -0.2656   -2.3435 O   0  0  0  0  0  0  0  0  0  0  0  0
   -3.9383    0.1163   -3.4524 C   0  0  0  0  0  0  0  0  0  0  0  0
   -3.8301    1.1769   -3.9935 O   0  0  0  0  0  0  0  0  0  0  0  0
   -4.8342   -1.0209   -3.8980 C   0  0  0  0  0  0  0  0  0  0  0  0
   -5.9935   -1.2222   -2.9160 C   0  0  0  0  0  0  0  0  0  0  0  0
   -6.8941    0.0092   -2.8482 C   0  0  0  0  0  0  0  0  0  0  0  0
   -8.1282   -0.1990   -1.9705 C   0  0  0  0  0  0  0  0  0  0  0  0
   -7.7849   -0.3916   -0.4981 C   0  0  0  0  0  0  0  0  0  0  0  0
   -1.5378   -1.0426   -0.2543 C   0  0  0  0  0  0  0  0  0  0  0  0
   -2.8203   -1.5011    0.4576 C   0  0  0  0  0  0  0  0  0  0  0  0
   -3.3982   -0.4538    1.4082 C   0  0  0  0  0  0  0  0  0  0  0  0
   -4.5992   -0.9984    2.1794 C   0  0  0  0  0  0  0  0  0  0  0  0
   -5.0781   -0.0596    3.2876 C   0  0  0  0  0  0  0  0  0  0  0  0
   -5.6794    1.2380    2.7615 C   0  0  0  0  0  0  0  0  0  0  0  0
    2.8018   -1.5952    0.9555 O   0  0  0  0  0  0  0  0  0  0  0  0
    3.9711   -1.3773    1.7132 C   0  0  0  0  0  0  0  0  0  0  0  0
    5.0025   -0.7609    0.8197 C   0  0  0  0  0  0  0  0  0  0  0  0
    6.2572   -0.5141    1.1773 C   0  0  0  0  0  0  0  0  0  0  0  0
    6.7629   -0.8365    2.5536 C   0  0  0  0  0  0  0  0  0  0  0  0
    7.2224    0.1447    0.2367 C   0  0  0  0  0  0  0  0  0  0  0  0
    7.4505    1.6192    0.6224 C   0  0  0  0  0  0  0  0  0  0  0  0
    8.4007    2.2773   -0.3311 C   0  0  0  0  0  0  0  0  0  0  0  0
    8.0916    2.8895   -1.4680 C   0  0  0  0  0  0  0  0  0  0  0  0
    9.1523    3.4877   -2.3456 C   0  0  0  0  0  0  0  0  0  0  0  0
    6.7000    3.0509   -2.0022 C   0  0  0  0  0  0  0  0  0  0  0  0
    0.7104   -2.8686    3.2441 H   0  0  0  0  0  0  0  0  0  0  0  0
    2.4404   -2.3840    3.5584 H   0  0  0  0  0  0  0  0  0  0  0  0
    0.9407   -2.3560   -0.3786 H   0  0  0  0  0  0  0  0  0  0  0  0
   -0.0635   -3.0772    0.8967 H   0  0  0  0  0  0  0  0  0  0  0  0
   -0.6457   -0.8029    1.7040 H   0  0  0  0  0  0  0  0  0  0  0  0
    1.0538    0.7351    0.9988 H   0  0  0  0  0  0  0  0  0  0  0  0
    1.0904    0.0566   -0.6292 H   0  0  0  0  0  0  0  0  0  0  0  0
   -0.3355    2.0204   -0.9510 H   0  0  0  0  0  0  0  0  0  0  0  0
   -1.1282    1.7491    0.6053 H   0  0  0  0  0  0  0  0  0  0  0  0
   -4.2362   -1.9322   -3.9504 H   0  0  0  0  0  0  0  0  0  0  0  0
   -5.2149   -0.7792   -4.8906 H   0  0  0  0  0  0  0  0  0  0  0  0
   -5.5830   -1.4401   -1.9293 H   0  0  0  0  0  0  0  0  0  0  0  0
   -6.5811   -2.0853   -3.2376 H   0  0  0  0  0  0  0  0  0  0  0  0
   -6.3203    0.8575   -2.4691 H   0  0  0  0  0  0  0  0  0  0  0  0
   -7.2196    0.2619   -3.8599 H   0  0  0  0  0  0  0  0  0  0  0  0
   -8.6879   -1.0655   -2.3305 H   0  0  0  0  0  0  0  0  0  0  0  0
   -8.7742    0.6761   -2.0702 H   0  0  0  0  0  0  0  0  0  0  0  0
   -7.2589   -1.3297   -0.3386 H   0  0  0  0  0  0  0  0  0  0  0  0
   -8.6904   -0.4069    0.1047 H   0  0  0  0  0  0  0  0  0  0  0  0
   -7.1537    0.4241   -0.1517 H   0  0  0  0  0  0  0  0  0  0  0  0
   -1.3362   -1.7523   -1.0659 H   0  0  0  0  0  0  0  0  0  0  0  0
   -3.5724   -1.7480   -0.2938 H   0  0  0  0  0  0  0  0  0  0  0  0
   -2.5932   -2.4144    1.0137 H   0  0  0  0  0  0  0  0  0  0  0  0
   -3.6951    0.4239    0.8318 H   0  0  0  0  0  0  0  0  0  0  0  0
   -2.6361   -0.1410    2.1257 H   0  0  0  0  0  0  0  0  0  0  0  0
   -5.4223   -1.1893    1.4878 H   0  0  0  0  0  0  0  0  0  0  0  0
   -4.3200   -1.9538    2.6322 H   0  0  0  0  0  0  0  0  0  0  0  0
   -5.8323   -0.5803    3.8825 H   0  0  0  0  0  0  0  0  0  0  0  0
   -4.2394    0.1712    3.9491 H   0  0  0  0  0  0  0  0  0  0  0  0
   -6.5186    1.0265    2.1029 H   0  0  0  0  0  0  0  0  0  0  0  0
   -6.0392    1.8482    3.5870 H   0  0  0  0  0  0  0  0  0  0  0  0
   -4.9431    1.8162    2.2094 H   0  0  0  0  0  0  0  0  0  0  0  0
    4.3345   -2.3312    2.1276 H   0  0  0  0  0  0  0  0  0  0  0  0
    3.7502   -0.7107    2.5632 H   0  0  0  0  0  0  0  0  0  0  0  0
    4.6467   -0.5222   -0.1710 H   0  0  0  0  0  0  0  0  0  0  0  0
    6.5877   -1.8862    2.7878 H   0  0  0  0  0  0  0  0  0  0  0  0
    7.8278   -0.6378    2.6352 H   0  0  0  0  0  0  0  0  0  0  0  0
    6.2402   -0.2433    3.3039 H   0  0  0  0  0  0  0  0  0  0  0  0
    8.1808   -0.3793    0.2594 H   0  0  0  0  0  0  0  0  0  0  0  0
    6.8377    0.1063   -0.7831 H   0  0  0  0  0  0  0  0  0  0  0  0
    6.4861    2.1293    0.6326 H   0  0  0  0  0  0  0  0  0  0  0  0
    7.8623    1.6666    1.6321 H   0  0  0  0  0  0  0  0  0  0  0  0
    9.4455    2.1966   -0.0581 H   0  0  0  0  0  0  0  0  0  0  0  0
    8.9958    4.5614   -2.4479 H   0  0  0  0  0  0  0  0  0  0  0  0
   10.1455    3.3193   -1.9376 H   0  0  0  0  0  0  0  0  0  0  0  0
    9.1061    3.0519   -3.3433 H   0  0  0  0  0  0  0  0  0  0  0  0
    6.5947    2.4871   -2.9294 H   0  0  0  0  0  0  0  0  0  0  0  0
    6.5069    4.0985   -2.2317 H   0  0  0  0  0  0  0  0  0  0  0  0
    5.9468    2.7015   -1.3039 H   0  0  0  0  0  0  0  0  0  0  0  0
  1  2  2  0  0  0  0
  2  3  1  0  0  0  0
  3  4  1  0  0  0  0
  4  5  1  0  0  0  0
  5  6  1  0  0  0  0
  6  7  1  0  0  0  0
  7  8  2  0  0  0  0
  8  9  1  0  0  0  0
  9 10  1  0  0  0  0
 10 11  2  0  0  0  0
 10 12  1  0  0  0  0
 12 13  1  0  0  0  0
 13 14  1  0  0  0  0
 14 15  1  0  0  0  0
 15 16  1  0  0  0  0
  4 17  1  0  0  0  0
  7 17  1  0  0  0  0
 17 18  1  0  0  0  0
 18 19  1  0  0  0  0
 19 20  1  0  0  0  0
 20 21  1  0  0  0  0
 21 22  1  0  0  0  0
  2 23  1  0  0  0  0
 23 24  1  0  0  0  0
 24 25  1  0  0  0  0
 25 26  2  0  0  0  0
 26 27  1  0  0  0  0
 26 28  1  0  0  0  0
 28 29  1  0  0  0  0
 29 30  1  0  0  0  0
 30 31  2  0  0  0  0
 31 32  1  0  0  0  0
 31 33  1  0  0  0  0
  1 34  1  0  0  0  0
  1 35  1  0  0  0  0
  3 36  1  0  0  0  0
  3 37  1  0  0  0  0
  4 38  1  0  0  0  0
  5 39  1  0  0  0  0
  5 40  1  0  0  0  0
  6 41  1  0  0  0  0
  6 42  1  0  0  0  0
 12 43  1  0  0  0  0
 12 44  1  0  0  0  0
 13 45  1  0  0  0  0
 13 46  1  0  0  0  0
 14 47  1  0  0  0  0
 14 48  1  0  0  0  0
 15 49  1  0  0  0  0
 15 50  1  0  0  0  0
 16 51  1  0  0  0  0
 16 52  1  0  0  0  0
 16 53  1  0  0  0  0
 17 54  1  0  0  0  0
 18 55  1  0  0  0  0
 18 56  1  0  0  0  0
 19 57  1  0  0  0  0
 19 58  1  0  0  0  0
 20 59  1  0  0  0  0
 20 60  1  0  0  0  0
 21 61  1  0  0  0  0
 21 62  1  0  0  0  0
 22 63  1  0  0  0  0
 22 64  1  0  0  0  0
 22 65  1  0  0  0  0
 24 66  1  0  0  0  0
 24 67  1  0  0  0  0
 25 68  1  0  0  0  0
 27 69  1  0  0  0  0
 27 70  1  0  0  0  0
 27 71  1  0  0  0  0
 28 72  1  0  0  0  0
 28 73  1  0  0  0  0
 29 74  1  0  0  0  0
 29 75  1  0  0  0  0
 30 76  1  0  0  0  0
 32 77  1  0  0  0  0
 32 78  1  0  0  0  0
 32 79  1  0  0  0  0
 33 80  1  0  0  0  0
 33 81  1  0  0  0  0
 33 82  1  0  0  0  0
M  END
