 xtb: 6.7.1 (edcfbbe)
          07072622173D

 28 27  0     0  0            999 V2000
    2.6454    0.4729   -0.9584 C   0  0  0  0  0  0  0  0  0  0  0  0
    2.1252   -0.5682    0.0262 C   0  0  0  0  0  0  0  0  0  0  0  0
    0.8116   -0.1661    0.7263 C   0  0  0  0  0  0  0  0  0  0  0  0
    0.4211   -1.2800    1.7096 C   0  0  0  0  0  0  0  0  0  0  0  0
    1.1273    1.0136    1.4404 O   0  0  0  0  0  0  0  0  0  0  0  0
   -0.3350    0.1324   -0.2862 C   0  0  0  0  0  0  0  0  0  0  0  0
   -0.4890   -0.9648   -1.3401 C   0  0  0  0  0  0  0  0  0  0  0  0
   -1.7085    0.3641    0.3883 C   0  0  0  0  0  0  0  0  0  0  0  0
   -2.6581    1.1345   -0.5304 C   0  0  0  0  0  0  0  0  0  0  0  0
   -1.5540    1.0852    1.6049 O   0  0  0  0  0  0  0  0  0  0  0  0
    2.6828    1.4422   -0.4695 H   0  0  0  0  0  0  0  0  0  0  0  0
    3.6494    0.2067   -1.2818 H   0  0  0  0  0  0  0  0  0  0  0  0
    2.0140    0.5497   -1.8400 H   0  0  0  0  0  0  0  0  0  0  0  0
    2.8656   -0.6794    0.8205 H   0  0  0  0  0  0  0  0  0  0  0  0
    2.0085   -1.5369   -0.4592 H   0  0  0  0  0  0  0  0  0  0  0  0
   -0.4262   -0.9704    2.3146 H   0  0  0  0  0  0  0  0  0  0  0  0
    0.1726   -2.1978    1.1844 H   0  0  0  0  0  0  0  0  0  0  0  0
    1.2579   -1.4763    2.3756 H   0  0  0  0  0  0  0  0  0  0  0  0
    0.3059    1.3315    1.8379 H   0  0  0  0  0  0  0  0  0  0  0  0
   -0.0548    1.0678   -0.7815 H   0  0  0  0  0  0  0  0  0  0  0  0
   -0.7113   -1.9209   -0.8725 H   0  0  0  0  0  0  0  0  0  0  0  0
   -1.2994   -0.7289   -2.0248 H   0  0  0  0  0  0  0  0  0  0  0  0
    0.4157   -1.0703   -1.9286 H   0  0  0  0  0  0  0  0  0  0  0  0
   -2.1539   -0.6180    0.6187 H   0  0  0  0  0  0  0  0  0  0  0  0
   -3.6251    1.2638   -0.0440 H   0  0  0  0  0  0  0  0  0  0  0  0
   -2.2441    2.1172   -0.7473 H   0  0  0  0  0  0  0  0  0  0  0  0
   -2.8218    0.6087   -1.4650 H   0  0  0  0  0  0  0  0  0  0  0  0
   -2.4219    1.3877    1.8920 H   0  0  0  0  0  0  0  0  0  0  0  0
  1  2  1  0  0  0  0
  2  3  1  0  0  0  0
  3  4  1  0  0  0  0
  3  5  1  0  0  0  0
  3  6  1  0  0  0  0
  6  7  1  0  0  0  0
  6  8  1  0  0  0  0
  8  9  1  0  0  0  0
  8 10  1  0  0  0  0
  1 11  1  0  0  0  0
  1 12  1  0  0  0  0
  1 13  1  0  0  0  0
  2 14  1  0  0  0  0
  2 15  1  0  0  0  0
  4 16  1  0  0  0  0
  4 17  1  0  0  0  0
  4 18  1  0  0  0  0
  5 19  1  0  0  0  0
  6 20  1  0  0  0  0
  7 21  1  0  0  0  0
  7 22  1  0  0  0  0
  7 23  1  0  0  0  0
  8 24  1  0  0  0  0
  9 25  1  0  0  0  0
  9 26  1  0  0  0  0
  9 27  1  0  0  0  0
 10 28  1  0  0  0  0
M  END
