 xtb: 6.7.1 (edcfbbe)
          07082600023D

 32 31  0     0  0            999 V2000
    4.1395    1.1514   -0.0633 C   0  0  0  0  0  0  0  0  0  0  0  0
    3.1392    0.0100    0.0681 C   0  0  0  0  0  0  0  0  0  0  0  0
    1.7155    0.4683   -0.2430 C   0  0  0  0  0  0  0  0  0  0  0  0
    0.7147   -0.6771   -0.0848 C   0  0  0  0  0  0  0  0  0  0  0  0
   -0.7127   -0.3321   -0.5586 C   0  0  0  0  0  0  0  0  0  0  0  0
   -0.6081    0.1246   -1.9977 C   0  0  0  0  0  0  0  0  0  0  0  0
   -1.0352    1.1469   -2.4547 O   0  0  0  0  0  0  0  0  0  0  0  0
   -1.5739   -1.6172   -0.5999 C   0  0  0  0  0  0  0  0  0  0  0  0
   -1.8322   -2.2550    0.7611 C   0  0  0  0  0  0  0  0  0  0  0  0
   -1.3166    0.7708    0.3247 C   0  0  0  0  0  0  0  0  0  0  0  0
   -2.7867    1.0939    0.0223 C   0  0  0  0  0  0  0  0  0  0  0  0
   -3.2362    2.1640    0.8743 C   0  0  0  0  0  0  0  0  0  0  0  0
   -3.5809    3.0049    1.5679 N   0  0  0  0  0  0  0  0  0  0  0  0
    5.1468    0.8042    0.1533 H   0  0  0  0  0  0  0  0  0  0  0  0
    4.1250    1.5560   -1.0729 H   0  0  0  0  0  0  0  0  0  0  0  0
    3.8963    1.9538    0.6295 H   0  0  0  0  0  0  0  0  0  0  0  0
    3.1747   -0.3893    1.0844 H   0  0  0  0  0  0  0  0  0  0  0  0
    3.4180   -0.7964   -0.6142 H   0  0  0  0  0  0  0  0  0  0  0  0
    1.4570    1.2876    0.4296 H   0  0  0  0  0  0  0  0  0  0  0  0
    1.6772    0.8532   -1.2653 H   0  0  0  0  0  0  0  0  0  0  0  0
    0.6829   -0.9756    0.9640 H   0  0  0  0  0  0  0  0  0  0  0  0
    1.0724   -1.5335   -0.6627 H   0  0  0  0  0  0  0  0  0  0  0  0
   -0.0920   -0.6137   -2.6448 H   0  0  0  0  0  0  0  0  0  0  0  0
   -1.0660   -2.3467   -1.2359 H   0  0  0  0  0  0  0  0  0  0  0  0
   -2.5297   -1.3899   -1.0774 H   0  0  0  0  0  0  0  0  0  0  0  0
   -2.4568   -3.1362    0.6322 H   0  0  0  0  0  0  0  0  0  0  0  0
   -2.3466   -1.5738    1.4333 H   0  0  0  0  0  0  0  0  0  0  0  0
   -0.9038   -2.5680    1.2303 H   0  0  0  0  0  0  0  0  0  0  0  0
   -0.7395    1.6842    0.1689 H   0  0  0  0  0  0  0  0  0  0  0  0
   -1.2159    0.4865    1.3742 H   0  0  0  0  0  0  0  0  0  0  0  0
   -3.4337    0.2312    0.1990 H   0  0  0  0  0  0  0  0  0  0  0  0
   -2.8923    1.4130   -1.0174 H   0  0  0  0  0  0  0  0  0  0  0  0
  1  2  1  0  0  0  0
  2  3  1  0  0  0  0
  3  4  1  0  0  0  0
  4  5  1  0  0  0  0
  5  6  1  0  0  0  0
  6  7  2  0  0  0  0
  5  8  1  0  0  0  0
  8  9  1  0  0  0  0
  5 10  1  0  0  0  0
 10 11  1  0  0  0  0
 11 12  1  0  0  0  0
 12 13  3  0  0  0  0
  1 14  1  0  0  0  0
  1 15  1  0  0  0  0
  1 16  1  0  0  0  0
  2 17  1  0  0  0  0
  2 18  1  0  0  0  0
  3 19  1  0  0  0  0
  3 20  1  0  0  0  0
  4 21  1  0  0  0  0
  4 22  1  0  0  0  0
  6 23  1  0  0  0  0
  8 24  1  0  0  0  0
  8 25  1  0  0  0  0
  9 26  1  0  0  0  0
  9 27  1  0  0  0  0
  9 28  1  0  0  0  0
 10 29  1  0  0  0  0
 10 30  1  0  0  0  0
 11 31  1  0  0  0  0
 11 32  1  0  0  0  0
M  END
