 xtb: 6.7.1 (edcfbbe)
          07082604443D

 26 26  0     0  0            999 V2000
    4.0143   -0.1257    1.6539 C   0  0  0  0  0  0  0  0  0  0  0  0
    3.3421   -0.8714    0.6705 O   0  0  0  0  0  0  0  0  0  0  0  0
    2.1591   -0.3911    0.1854 C   0  0  0  0  0  0  0  0  0  0  0  0
    1.5465    0.7864    0.5937 C   0  0  0  0  0  0  0  0  0  0  0  0
    0.3428    1.1708    0.0243 C   0  0  0  0  0  0  0  0  0  0  0  0
   -0.2742    0.4065   -0.9529 C   0  0  0  0  0  0  0  0  0  0  0  0
   -1.5951    0.8112   -1.5417 C   0  0  0  0  0  0  0  0  0  0  0  0
   -2.7490   -0.0210   -0.9678 C   0  0  0  0  0  0  0  0  0  0  0  0
   -2.9510    0.2374    0.5216 C   0  0  0  0  0  0  0  0  0  0  0  0
   -3.3575    1.5790    0.7019 O   0  0  0  0  0  0  0  0  0  0  0  0
    0.3490   -0.7715   -1.3546 C   0  0  0  0  0  0  0  0  0  0  0  0
    1.5454   -1.1678   -0.7982 C   0  0  0  0  0  0  0  0  0  0  0  0
    3.4134   -0.0233    2.5638 H   0  0  0  0  0  0  0  0  0  0  0  0
    4.2898    0.8689    1.2876 H   0  0  0  0  0  0  0  0  0  0  0  0
    4.9189   -0.6869    1.8831 H   0  0  0  0  0  0  0  0  0  0  0  0
    1.9924    1.4141    1.3497 H   0  0  0  0  0  0  0  0  0  0  0  0
   -0.1221    2.0902    0.3508 H   0  0  0  0  0  0  0  0  0  0  0  0
   -1.7936    1.8618   -1.3290 H   0  0  0  0  0  0  0  0  0  0  0  0
   -1.5717    0.6737   -2.6250 H   0  0  0  0  0  0  0  0  0  0  0  0
   -3.6710    0.2394   -1.4893 H   0  0  0  0  0  0  0  0  0  0  0  0
   -2.5512   -1.0843   -1.1120 H   0  0  0  0  0  0  0  0  0  0  0  0
   -3.7197   -0.4472    0.9102 H   0  0  0  0  0  0  0  0  0  0  0  0
   -2.0119    0.0442    1.0593 H   0  0  0  0  0  0  0  0  0  0  0  0
   -3.4689    1.7487    1.6420 H   0  0  0  0  0  0  0  0  0  0  0  0
   -0.1096   -1.3830   -2.1184 H   0  0  0  0  0  0  0  0  0  0  0  0
    2.0326   -2.0787   -1.1089 H   0  0  0  0  0  0  0  0  0  0  0  0
  1  2  1  0  0  0  0
  2  3  1  0  0  0  0
  3  4  4  0  0  0  0
  4  5  4  0  0  0  0
  5  6  4  0  0  0  0
  6  7  1  0  0  0  0
  7  8  1  0  0  0  0
  8  9  1  0  0  0  0
  9 10  1  0  0  0  0
  6 11  4  0  0  0  0
  3 12  4  0  0  0  0
 11 12  4  0  0  0  0
  1 13  1  0  0  0  0
  1 14  1  0  0  0  0
  1 15  1  0  0  0  0
  4 16  1  0  0  0  0
  5 17  1  0  0  0  0
  7 18  1  0  0  0  0
  7 19  1  0  0  0  0
  8 20  1  0  0  0  0
  8 21  1  0  0  0  0
  9 22  1  0  0  0  0
  9 23  1  0  0  0  0
 10 24  1  0  0  0  0
 11 25  1  0  0  0  0
 12 26  1  0  0  0  0
M  END
