 xtb: 6.7.1 (edcfbbe)
          07082606093D

 27 27  0     0  0            999 V2000
    4.2323   -0.2829    1.5199 O   0  0  0  0  0  0  0  0  0  0  0  0
    3.5611   -1.0233    0.5220 C   0  0  0  0  0  0  0  0  0  0  0  0
    2.0737   -0.8236    0.5654 C   0  0  0  0  0  0  0  0  0  0  0  0
    1.3485   -0.4784   -0.4848 C   0  0  0  0  0  0  0  0  0  0  0  0
   -0.1466   -0.2634   -0.5500 C   0  0  0  0  0  0  0  0  0  0  0  0
   -0.6576   -1.0297   -1.6353 O   0  0  0  0  0  0  0  0  0  0  0  0
   -0.4135    1.2135   -0.8879 C   0  0  0  0  0  0  0  0  0  0  0  0
   -1.9101    1.4974   -0.9706 C   0  0  0  0  0  0  0  0  0  0  0  0
   -2.6045    1.1258    0.3347 C   0  0  0  0  0  0  0  0  0  0  0  0
   -2.3631   -0.3472    0.6455 C   0  0  0  0  0  0  0  0  0  0  0  0
   -0.8662   -0.6255    0.7569 C   0  0  0  0  0  0  0  0  0  0  0  0
    4.0250    0.6505    1.4018 H   0  0  0  0  0  0  0  0  0  0  0  0
    3.8016   -2.0697    0.7371 H   0  0  0  0  0  0  0  0  0  0  0  0
    3.9505   -0.7738   -0.4754 H   0  0  0  0  0  0  0  0  0  0  0  0
    1.6376   -0.9583    1.5446 H   0  0  0  0  0  0  0  0  0  0  0  0
    1.8300   -0.3560   -1.4482 H   0  0  0  0  0  0  0  0  0  0  0  0
   -0.5327   -1.9626   -1.4322 H   0  0  0  0  0  0  0  0  0  0  0  0
    0.0574    1.4414   -1.8451 H   0  0  0  0  0  0  0  0  0  0  0  0
    0.0474    1.8338   -0.1165 H   0  0  0  0  0  0  0  0  0  0  0  0
   -2.0669    2.5542   -1.1959 H   0  0  0  0  0  0  0  0  0  0  0  0
   -2.3307    0.9065   -1.7852 H   0  0  0  0  0  0  0  0  0  0  0  0
   -2.2110    1.7406    1.1485 H   0  0  0  0  0  0  0  0  0  0  0  0
   -3.6760    1.3191    0.2546 H   0  0  0  0  0  0  0  0  0  0  0  0
   -2.8573   -0.6249    1.5788 H   0  0  0  0  0  0  0  0  0  0  0  0
   -2.7840   -0.9556   -0.1575 H   0  0  0  0  0  0  0  0  0  0  0  0
   -0.6966   -1.6812    0.9863 H   0  0  0  0  0  0  0  0  0  0  0  0
   -0.4482   -0.0266    1.5671 H   0  0  0  0  0  0  0  0  0  0  0  0
  1  2  1  0  0  0  0
  2  3  1  0  0  0  0
  3  4  2  0  0  0  0
  4  5  1  0  0  0  0
  5  6  1  0  0  0  0
  5  7  1  0  0  0  0
  7  8  1  0  0  0  0
  8  9  1  0  0  0  0
  9 10  1  0  0  0  0
  5 11  1  0  0  0  0
 10 11  1  0  0  0  0
  1 12  1  0  0  0  0
  2 13  1  0  0  0  0
  2 14  1  0  0  0  0
  3 15  1  0  0  0  0
  4 16  1  0  0  0  0
  6 17  1  0  0  0  0
  7 18  1  0  0  0  0
  7 19  1  0  0  0  0
  8 20  1  0  0  0  0
  8 21  1  0  0  0  0
  9 22  1  0  0  0  0
  9 23  1  0  0  0  0
 10 24  1  0  0  0  0
 10 25  1  0  0  0  0
 11 26  1  0  0  0  0
 11 27  1  0  0  0  0
M  END
