 xtb: 6.7.1 (edcfbbe)
          07072622053D

 31 30  0     0  0            999 V2000
    3.1853    0.8727   -0.5620 C   0  0  0  0  0  0  0  0  0  0  0  0
    2.7355   -0.5616   -0.8061 C   0  0  0  0  0  0  0  0  0  0  0  0
    1.4706   -0.9560   -0.0305 C   0  0  0  0  0  0  0  0  0  0  0  0
    1.1635   -2.3226   -0.2717 O   0  0  0  0  0  0  0  0  0  0  0  0
    0.2305   -0.1030   -0.3682 C   0  0  0  0  0  0  0  0  0  0  0  0
   -0.1892   -0.2570   -1.8276 C   0  0  0  0  0  0  0  0  0  0  0  0
   -0.9257   -0.4596    0.5964 C   0  0  0  0  0  0  0  0  0  0  0  0
   -1.4557   -1.7352    0.3228 O   0  0  0  0  0  0  0  0  0  0  0  0
   -2.1045    0.5331    0.5715 C   0  0  0  0  0  0  0  0  0  0  0  0
   -3.1111    0.1235    1.6463 C   0  0  0  0  0  0  0  0  0  0  0  0
   -1.6714    1.9801    0.7906 C   0  0  0  0  0  0  0  0  0  0  0  0
    3.2681    1.0705    0.5047 H   0  0  0  0  0  0  0  0  0  0  0  0
    2.4853    1.5836   -0.9920 H   0  0  0  0  0  0  0  0  0  0  0  0
    4.1582    1.0388   -1.0185 H   0  0  0  0  0  0  0  0  0  0  0  0
    3.5372   -1.2392   -0.4927 H   0  0  0  0  0  0  0  0  0  0  0  0
    2.5685   -0.7268   -1.8714 H   0  0  0  0  0  0  0  0  0  0  0  0
    1.6797   -0.8238    1.0469 H   0  0  0  0  0  0  0  0  0  0  0  0
    1.9546   -2.8505   -0.1225 H   0  0  0  0  0  0  0  0  0  0  0  0
    0.5100    0.9336   -0.1727 H   0  0  0  0  0  0  0  0  0  0  0  0
    0.6006    0.0783   -2.4947 H   0  0  0  0  0  0  0  0  0  0  0  0
   -1.0751    0.3390   -2.0260 H   0  0  0  0  0  0  0  0  0  0  0  0
   -0.4161   -1.2970   -2.0441 H   0  0  0  0  0  0  0  0  0  0  0  0
   -0.5079   -0.4498    1.6224 H   0  0  0  0  0  0  0  0  0  0  0  0
   -0.7076   -2.3128    0.1159 H   0  0  0  0  0  0  0  0  0  0  0  0
   -2.5958    0.4416   -0.4009 H   0  0  0  0  0  0  0  0  0  0  0  0
   -3.3794   -0.9205    1.5174 H   0  0  0  0  0  0  0  0  0  0  0  0
   -2.6797    0.2531    2.6370 H   0  0  0  0  0  0  0  0  0  0  0  0
   -4.0107    0.7308    1.5768 H   0  0  0  0  0  0  0  0  0  0  0  0
   -2.5500    2.6053    0.9335 H   0  0  0  0  0  0  0  0  0  0  0  0
   -1.0484    2.0604    1.6794 H   0  0  0  0  0  0  0  0  0  0  0  0
   -1.1193    2.3713   -0.0600 H   0  0  0  0  0  0  0  0  0  0  0  0
  1  2  1  0  0  0  0
  2  3  1  0  0  0  0
  3  4  1  0  0  0  0
  3  5  1  0  0  0  0
  5  6  1  0  0  0  0
  5  7  1  0  0  0  0
  7  8  1  0  0  0  0
  7  9  1  0  0  0  0
  9 10  1  0  0  0  0
  9 11  1  0  0  0  0
  1 12  1  0  0  0  0
  1 13  1  0  0  0  0
  1 14  1  0  0  0  0
  2 15  1  0  0  0  0
  2 16  1  0  0  0  0
  3 17  1  0  0  0  0
  4 18  1  0  0  0  0
  5 19  1  0  0  0  0
  6 20  1  0  0  0  0
  6 21  1  0  0  0  0
  6 22  1  0  0  0  0
  7 23  1  0  0  0  0
  8 24  1  0  0  0  0
  9 25  1  0  0  0  0
 10 26  1  0  0  0  0
 10 27  1  0  0  0  0
 10 28  1  0  0  0  0
 11 29  1  0  0  0  0
 11 30  1  0  0  0  0
 11 31  1  0  0  0  0
M  END
