 xtb: 6.7.1 (edcfbbe)
          07072614243D

 29 28  0     0  0            999 V2000
   -1.7783    2.0844    0.7107 C   0  0  0  0  0  0  0  0  0  0  0  0
   -0.5920    1.1177    0.6634 C   0  0  0  0  0  0  0  0  0  0  0  0
   -0.7474    0.1434   -0.3935 N   0  0  0  0  0  0  0  0  0  0  0  0
   -1.8114   -0.8265   -0.2371 C   0  0  0  0  0  0  0  0  0  0  0  0
   -1.2827   -2.1412    0.3396 C   0  0  0  0  0  0  0  0  0  0  0  0
    0.1930   -0.0297   -1.3650 C   0  0  0  0  0  0  0  0  0  0  0  0
   -0.3163   -0.5272   -2.6943 C   0  0  0  0  0  0  0  0  0  0  0  0
    1.5087    0.2881   -1.2581 C   0  0  0  0  0  0  0  0  0  0  0  0
    2.3242    0.4616   -0.0734 C   0  0  0  0  0  0  0  0  0  0  0  0
    3.3997    1.0207   -0.0506 O   0  0  0  0  0  0  0  0  0  0  0  0
    1.8286   -0.1709    1.0295 O   0  0  0  0  0  0  0  0  0  0  0  0
    2.6397   -0.0943    2.1861 C   0  0  0  0  0  0  0  0  0  0  0  0
   -1.5558    2.8889    1.4064 H   0  0  0  0  0  0  0  0  0  0  0  0
   -2.6940    1.6001    1.0394 H   0  0  0  0  0  0  0  0  0  0  0  0
   -1.9472    2.5147   -0.2734 H   0  0  0  0  0  0  0  0  0  0  0  0
    0.3044    1.6998    0.4535 H   0  0  0  0  0  0  0  0  0  0  0  0
   -0.4648    0.6305    1.6362 H   0  0  0  0  0  0  0  0  0  0  0  0
   -2.3005   -1.0129   -1.1960 H   0  0  0  0  0  0  0  0  0  0  0  0
   -2.5581   -0.4125    0.4402 H   0  0  0  0  0  0  0  0  0  0  0  0
   -0.5607   -2.5917   -0.3366 H   0  0  0  0  0  0  0  0  0  0  0  0
   -0.7845   -1.9590    1.2883 H   0  0  0  0  0  0  0  0  0  0  0  0
   -2.1000   -2.8401    0.4990 H   0  0  0  0  0  0  0  0  0  0  0  0
    0.4229   -0.3366   -3.4660 H   0  0  0  0  0  0  0  0  0  0  0  0
   -0.4959   -1.6008   -2.6644 H   0  0  0  0  0  0  0  0  0  0  0  0
   -1.2448   -0.0291   -2.9671 H   0  0  0  0  0  0  0  0  0  0  0  0
    2.0926    0.3602   -2.1637 H   0  0  0  0  0  0  0  0  0  0  0  0
    2.1618   -0.7183    2.9381 H   0  0  0  0  0  0  0  0  0  0  0  0
    3.6471   -0.4580    1.9716 H   0  0  0  0  0  0  0  0  0  0  0  0
    2.7117    0.9384    2.5372 H   0  0  0  0  0  0  0  0  0  0  0  0
  1  2  1  0  0  0  0
  2  3  1  0  0  0  0
  3  4  1  0  0  0  0
  4  5  1  0  0  0  0
  3  6  4  0  0  0  0
  6  7  1  0  0  0  0
  6  8  2  0  0  0  0
  8  9  1  0  0  0  0
  9 10  2  0  0  0  0
  9 11  1  0  0  0  0
 11 12  1  0  0  0  0
  1 13  1  0  0  0  0
  1 14  1  0  0  0  0
  1 15  1  0  0  0  0
  2 16  1  0  0  0  0
  2 17  1  0  0  0  0
  4 18  1  0  0  0  0
  4 19  1  0  0  0  0
  5 20  1  0  0  0  0
  5 21  1  0  0  0  0
  5 22  1  0  0  0  0
  7 23  1  0  0  0  0
  7 24  1  0  0  0  0
  7 25  1  0  0  0  0
  8 26  1  0  0  0  0
 12 27  1  0  0  0  0
 12 28  1  0  0  0  0
 12 29  1  0  0  0  0
M  END
