 xtb: 6.7.1 (edcfbbe)
          07092610333D

 21 21  0     0  0            999 V2000
   -3.8622   -0.5389    0.8370 C   0  0  0  0  0  0  0  0  0  0  0  0
   -2.8266   -0.7890   -0.1038 O   0  0  0  0  0  0  0  0  0  0  0  0
   -1.6165   -0.2976    0.2038 C   0  0  0  0  0  0  0  0  0  0  0  0
   -1.3862    0.3213    1.2052 O   0  0  0  0  0  0  0  0  0  0  0  0
   -0.6201   -0.6424   -0.8886 C   0  0  0  0  0  0  0  0  0  0  0  0
    0.7469   -0.1060   -0.5748 C   0  0  0  0  0  0  0  0  0  0  0  0
    1.1126    1.1706   -0.9798 C   0  0  0  0  0  0  0  0  0  0  0  0
    2.3627    1.6753   -0.6692 C   0  0  0  0  0  0  0  0  0  0  0  0
    3.2609    0.9090    0.0532 C   0  0  0  0  0  0  0  0  0  0  0  0
    2.9018   -0.3625    0.4659 C   0  0  0  0  0  0  0  0  0  0  0  0
    1.6513   -0.8658    0.1546 C   0  0  0  0  0  0  0  0  0  0  0  0
   -4.0078    0.5357    0.9638 H   0  0  0  0  0  0  0  0  0  0  0  0
   -4.7584   -1.0015    0.4321 H   0  0  0  0  0  0  0  0  0  0  0  0
   -3.6083   -0.9748    1.8052 H   0  0  0  0  0  0  0  0  0  0  0  0
   -1.0026   -0.2276   -1.8236 H   0  0  0  0  0  0  0  0  0  0  0  0
   -0.6051   -1.7299   -0.9867 H   0  0  0  0  0  0  0  0  0  0  0  0
    0.4132    1.7737   -1.5411 H   0  0  0  0  0  0  0  0  0  0  0  0
    2.6360    2.6697   -0.9907 H   0  0  0  0  0  0  0  0  0  0  0  0
    4.2372    1.3022    0.2955 H   0  0  0  0  0  0  0  0  0  0  0  0
    3.5972   -0.9638    1.0332 H   0  0  0  0  0  0  0  0  0  0  0  0
    1.3739   -1.8578    0.4818 H   0  0  0  0  0  0  0  0  0  0  0  0
  1  2  1  0  0  0  0
  2  3  1  0  0  0  0
  3  4  2  0  0  0  0
  3  5  1  0  0  0  0
  5  6  1  0  0  0  0
  6  7  4  0  0  0  0
  7  8  4  0  0  0  0
  8  9  4  0  0  0  0
  9 10  4  0  0  0  0
  6 11  4  0  0  0  0
 10 11  4  0  0  0  0
  1 12  1  0  0  0  0
  1 13  1  0  0  0  0
  1 14  1  0  0  0  0
  5 15  1  0  0  0  0
  5 16  1  0  0  0  0
  7 17  1  0  0  0  0
  8 18  1  0  0  0  0
  9 19  1  0  0  0  0
 10 20  1  0  0  0  0
 11 21  1  0  0  0  0
M  END
