 xtb: 6.7.1 (edcfbbe)
          07082617383D

 14 13  0     0  0            999 V2000
    2.0258   -0.5801    0.6157 C   0  0  0  0  0  0  0  0  0  0  0  0
    0.9103   -0.5324   -0.0868 C   0  0  0  0  0  0  0  0  0  0  0  0
   -0.1064    0.5665    0.0272 C   0  0  0  0  0  0  0  0  0  0  0  0
   -0.3051    1.2211   -1.2205 O   0  0  0  0  0  0  0  0  0  0  0  0
   -1.4816   -0.0036    0.4218 C   0  0  0  0  0  0  0  0  0  0  0  0
   -1.9922   -0.8511   -0.5678 O   0  0  0  0  0  0  0  0  0  0  0  0
    2.2780    0.1850    1.3327 H   0  0  0  0  0  0  0  0  0  0  0  0
    2.7295   -1.3881    0.5125 H   0  0  0  0  0  0  0  0  0  0  0  0
    0.6604   -1.3028   -0.8030 H   0  0  0  0  0  0  0  0  0  0  0  0
    0.2082    1.2961    0.7895 H   0  0  0  0  0  0  0  0  0  0  0  0
    0.5476    1.5163   -1.5544 H   0  0  0  0  0  0  0  0  0  0  0  0
   -2.1658    0.8385    0.6007 H   0  0  0  0  0  0  0  0  0  0  0  0
   -1.3915   -0.5933    1.3362 H   0  0  0  0  0  0  0  0  0  0  0  0
   -1.9170   -0.3722   -1.4039 H   0  0  0  0  0  0  0  0  0  0  0  0
  1  2  2  0  0  0  0
  2  3  1  0  0  0  0
  3  4  1  0  0  0  0
  3  5  1  0  0  0  0
  5  6  1  0  0  0  0
  1  7  1  0  0  0  0
  1  8  1  0  0  0  0
  2  9  1  0  0  0  0
  3 10  1  0  0  0  0
  4 11  1  0  0  0  0
  5 12  1  0  0  0  0
  5 13  1  0  0  0  0
  6 14  1  0  0  0  0
M  END
