 xtb: 6.7.1 (edcfbbe)
          07072622123D

 25 24  0     0  0            999 V2000
    3.3807    0.0642    0.3279 C   0  0  0  0  0  0  0  0  0  0  0  0
    2.0917   -0.0691   -0.4731 C   0  0  0  0  0  0  0  0  0  0  0  0
    0.8620    0.0577    0.4309 C   0  0  0  0  0  0  0  0  0  0  0  0
    0.8113   -1.0836    1.2541 O   0  0  0  0  0  0  0  0  0  0  0  0
   -0.4493    0.2397   -0.3713 C   0  0  0  0  0  0  0  0  0  0  0  0
   -0.7267   -0.9918   -1.2344 C   0  0  0  0  0  0  0  0  0  0  0  0
   -1.6090    0.5483    0.6048 C   0  0  0  0  0  0  0  0  0  0  0  0
   -2.8556    1.0707   -0.1088 C   0  0  0  0  0  0  0  0  0  0  0  0
   -1.9225   -0.5616    1.4270 O   0  0  0  0  0  0  0  0  0  0  0  0
    3.3942   -0.6782    1.1209 H   0  0  0  0  0  0  0  0  0  0  0  0
    4.2454   -0.0899   -0.3133 H   0  0  0  0  0  0  0  0  0  0  0  0
    3.4530    1.0527    0.7766 H   0  0  0  0  0  0  0  0  0  0  0  0
    2.0693   -1.0488   -0.9498 H   0  0  0  0  0  0  0  0  0  0  0  0
    2.0491    0.7008   -1.2460 H   0  0  0  0  0  0  0  0  0  0  0  0
    0.9904    0.9587    1.0596 H   0  0  0  0  0  0  0  0  0  0  0  0
   -0.0336   -1.0606    1.7295 H   0  0  0  0  0  0  0  0  0  0  0  0
   -0.3298    1.1178   -1.0131 H   0  0  0  0  0  0  0  0  0  0  0  0
   -0.0299   -1.0258   -2.0669 H   0  0  0  0  0  0  0  0  0  0  0  0
   -0.5938   -1.8985   -0.6470 H   0  0  0  0  0  0  0  0  0  0  0  0
   -1.7336   -0.9726   -1.6450 H   0  0  0  0  0  0  0  0  0  0  0  0
   -1.2680    1.3174    1.3092 H   0  0  0  0  0  0  0  0  0  0  0  0
   -3.6229    1.3029    0.6260 H   0  0  0  0  0  0  0  0  0  0  0  0
   -2.6201    1.9724   -0.6670 H   0  0  0  0  0  0  0  0  0  0  0  0
   -3.2550    0.3281   -0.7966 H   0  0  0  0  0  0  0  0  0  0  0  0
   -2.2972   -1.2510    0.8659 H   0  0  0  0  0  0  0  0  0  0  0  0
  1  2  1  0  0  0  0
  2  3  1  0  0  0  0
  3  4  1  0  0  0  0
  3  5  1  0  0  0  0
  5  6  1  0  0  0  0
  5  7  1  0  0  0  0
  7  8  1  0  0  0  0
  7  9  1  0  0  0  0
  1 10  1  0  0  0  0
  1 11  1  0  0  0  0
  1 12  1  0  0  0  0
  2 13  1  0  0  0  0
  2 14  1  0  0  0  0
  3 15  1  0  0  0  0
  4 16  1  0  0  0  0
  5 17  1  0  0  0  0
  6 18  1  0  0  0  0
  6 19  1  0  0  0  0
  6 20  1  0  0  0  0
  7 21  1  0  0  0  0
  8 22  1  0  0  0  0
  8 23  1  0  0  0  0
  8 24  1  0  0  0  0
  9 25  1  0  0  0  0
M  END
