 xtb: 6.7.1 (edcfbbe)
          07072606413D

 26 27  0     0  0            999 V2000
    3.2601    1.3814   -0.2176 C   0  0  0  0  0  0  0  0  0  0  0  0
    1.9978    0.5259   -0.1952 C   0  0  0  0  0  0  0  0  0  0  0  0
    2.0134   -0.4868    0.9529 C   0  0  0  0  0  0  0  0  0  0  0  0
    1.8900   -0.1897   -1.4271 O   0  0  0  0  0  0  0  0  0  0  0  0
    0.6722   -0.0464   -1.9465 C   0  0  0  0  0  0  0  0  0  0  0  0
    0.3007   -0.5650   -2.9553 O   0  0  0  0  0  0  0  0  0  0  0  0
   -0.1176    0.8815   -1.0181 C   0  0  0  0  0  0  0  0  0  0  0  0
   -1.2518    0.1347   -0.3409 C   0  0  0  0  0  0  0  0  0  0  0  0
   -2.1418   -0.6104   -1.1040 C   0  0  0  0  0  0  0  0  0  0  0  0
   -3.1761   -1.2907   -0.4864 C   0  0  0  0  0  0  0  0  0  0  0  0
   -3.3322   -1.2267    0.8886 C   0  0  0  0  0  0  0  0  0  0  0  0
   -2.4514   -0.4757    1.6471 C   0  0  0  0  0  0  0  0  0  0  0  0
   -1.4131    0.2049    1.0351 C   0  0  0  0  0  0  0  0  0  0  0  0
    0.8665    1.3714   -0.1348 O   0  0  0  0  0  0  0  0  0  0  0  0
    3.3103    1.9651    0.6959 H   0  0  0  0  0  0  0  0  0  0  0  0
    3.2276    2.0562   -1.0689 H   0  0  0  0  0  0  0  0  0  0  0  0
    4.1340    0.7431   -0.2983 H   0  0  0  0  0  0  0  0  0  0  0  0
    2.8746   -1.1398    0.8479 H   0  0  0  0  0  0  0  0  0  0  0  0
    2.0683    0.0418    1.8997 H   0  0  0  0  0  0  0  0  0  0  0  0
    1.1066   -1.0874    0.9302 H   0  0  0  0  0  0  0  0  0  0  0  0
   -0.5234    1.7257   -1.5908 H   0  0  0  0  0  0  0  0  0  0  0  0
   -2.0130   -0.6654   -2.1738 H   0  0  0  0  0  0  0  0  0  0  0  0
   -3.8626   -1.8733   -1.0821 H   0  0  0  0  0  0  0  0  0  0  0  0
   -4.1408   -1.7590    1.3671 H   0  0  0  0  0  0  0  0  0  0  0  0
   -2.5719   -0.4155    2.7187 H   0  0  0  0  0  0  0  0  0  0  0  0
   -0.7263    0.8001    1.6176 H   0  0  0  0  0  0  0  0  0  0  0  0
  1  2  1  0  0  0  0
  2  3  1  0  0  0  0
  2  4  1  0  0  0  0
  4  5  1  0  0  0  0
  5  6  2  0  0  0  0
  5  7  1  0  0  0  0
  7  8  1  0  0  0  0
  8  9  4  0  0  0  0
  9 10  4  0  0  0  0
 10 11  4  0  0  0  0
 11 12  4  0  0  0  0
  8 13  4  0  0  0  0
 12 13  4  0  0  0  0
  2 14  1  0  0  0  0
  7 14  1  0  0  0  0
  1 15  1  0  0  0  0
  1 16  1  0  0  0  0
  1 17  1  0  0  0  0
  3 18  1  0  0  0  0
  3 19  1  0  0  0  0
  3 20  1  0  0  0  0
  7 21  1  0  0  0  0
  9 22  1  0  0  0  0
 10 23  1  0  0  0  0
 11 24  1  0  0  0  0
 12 25  1  0  0  0  0
 13 26  1  0  0  0  0
M  END
