 xtb: 6.7.1 (edcfbbe)
          07082604023D

 26 26  0     0  0            999 V2000
    4.6659    0.5279    0.1215 C   0  0  0  0  0  0  0  0  0  0  0  0
    3.2140    0.7452    0.5180 C   0  0  0  0  0  0  0  0  0  0  0  0
    2.4497   -0.2878   -0.0703 O   0  0  0  0  0  0  0  0  0  0  0  0
    1.1075   -0.3208    0.1440 C   0  0  0  0  0  0  0  0  0  0  0  0
    0.3923    0.6006    0.8996 C   0  0  0  0  0  0  0  0  0  0  0  0
   -0.9787    0.4579    1.0459 C   0  0  0  0  0  0  0  0  0  0  0  0
   -1.6653   -0.5922    0.4547 C   0  0  0  0  0  0  0  0  0  0  0  0
   -3.1593   -0.6993    0.5670 C   0  0  0  0  0  0  0  0  0  0  0  0
   -3.8329    0.0096   -0.6207 C   0  0  0  0  0  0  0  0  0  0  0  0
   -3.5958    1.3942   -0.6301 O   0  0  0  0  0  0  0  0  0  0  0  0
   -0.9408   -1.5073   -0.3042 C   0  0  0  0  0  0  0  0  0  0  0  0
    0.4219   -1.3793   -0.4566 C   0  0  0  0  0  0  0  0  0  0  0  0
    5.0047   -0.4424    0.4740 H   0  0  0  0  0  0  0  0  0  0  0  0
    5.2887    1.3043    0.5566 H   0  0  0  0  0  0  0  0  0  0  0  0
    4.7624    0.5557   -0.9603 H   0  0  0  0  0  0  0  0  0  0  0  0
    3.1108    0.7150    1.6119 H   0  0  0  0  0  0  0  0  0  0  0  0
    2.8660    1.7244    0.1595 H   0  0  0  0  0  0  0  0  0  0  0  0
    0.8858    1.4305    1.3808 H   0  0  0  0  0  0  0  0  0  0  0  0
   -1.5177    1.1791    1.6446 H   0  0  0  0  0  0  0  0  0  0  0  0
   -3.5033   -0.2323    1.4913 H   0  0  0  0  0  0  0  0  0  0  0  0
   -3.4675   -1.7455    0.5647 H   0  0  0  0  0  0  0  0  0  0  0  0
   -4.9178   -0.1038   -0.5605 H   0  0  0  0  0  0  0  0  0  0  0  0
   -3.4832   -0.4457   -1.5598 H   0  0  0  0  0  0  0  0  0  0  0  0
   -2.6412    1.5346   -0.5910 H   0  0  0  0  0  0  0  0  0  0  0  0
   -1.4543   -2.3331   -0.7753 H   0  0  0  0  0  0  0  0  0  0  0  0
    0.9879   -2.0894   -1.0384 H   0  0  0  0  0  0  0  0  0  0  0  0
  1  2  1  0  0  0  0
  2  3  1  0  0  0  0
  3  4  1  0  0  0  0
  4  5  4  0  0  0  0
  5  6  4  0  0  0  0
  6  7  4  0  0  0  0
  7  8  1  0  0  0  0
  8  9  1  0  0  0  0
  9 10  1  0  0  0  0
  7 11  4  0  0  0  0
  4 12  4  0  0  0  0
 11 12  4  0  0  0  0
  1 13  1  0  0  0  0
  1 14  1  0  0  0  0
  1 15  1  0  0  0  0
  2 16  1  0  0  0  0
  2 17  1  0  0  0  0
  5 18  1  0  0  0  0
  6 19  1  0  0  0  0
  8 20  1  0  0  0  0
  8 21  1  0  0  0  0
  9 22  1  0  0  0  0
  9 23  1  0  0  0  0
 10 24  1  0  0  0  0
 11 25  1  0  0  0  0
 12 26  1  0  0  0  0
M  END
