 xtb: 6.7.1 (edcfbbe)
          07072607003D

 40 40  0     0  0            999 V2000
    4.1486   -0.8577    0.7666 C   0  0  0  0  0  0  0  0  0  0  0  0
    2.9340    0.0143    0.4581 C   0  0  0  0  0  0  0  0  0  0  0  0
    2.9939    1.3033    1.2749 C   0  0  0  0  0  0  0  0  0  0  0  0
    2.8486    0.3493   -1.0360 C   0  0  0  0  0  0  0  0  0  0  0  0
    2.4361   -0.8391   -1.9017 C   0  0  0  0  0  0  0  0  0  0  0  0
    1.1688   -1.3660   -1.5010 O   0  0  0  0  0  0  0  0  0  0  0  0
    0.0799   -0.7289   -1.9213 C   0  0  0  0  0  0  0  0  0  0  0  0
    0.1001    0.2417   -2.6428 O   0  0  0  0  0  0  0  0  0  0  0  0
   -1.1771   -1.3514   -1.3724 C   0  0  0  0  0  0  0  0  0  0  0  0
   -2.0461   -0.2704   -0.6732 C   0  0  0  0  0  0  0  0  0  0  0  0
   -2.4760    0.6768   -1.6208 O   0  0  0  0  0  0  0  0  0  0  0  0
   -1.2322    0.3961    0.4527 C   0  0  0  0  0  0  0  0  0  0  0  0
   -2.0871    1.4039    1.2154 C   0  0  0  0  0  0  0  0  0  0  0  0
   -3.3172    0.7237    1.8051 C   0  0  0  0  0  0  0  0  0  0  0  0
   -4.1362    0.0859    0.6888 C   0  0  0  0  0  0  0  0  0  0  0  0
   -3.2965   -0.9317   -0.0772 C   0  0  0  0  0  0  0  0  0  0  0  0
    4.1991   -1.0676    1.8325 H   0  0  0  0  0  0  0  0  0  0  0  0
    4.0969   -1.8068    0.2396 H   0  0  0  0  0  0  0  0  0  0  0  0
    5.0648   -0.3483    0.4745 H   0  0  0  0  0  0  0  0  0  0  0  0
    2.0286   -0.5347    0.7390 H   0  0  0  0  0  0  0  0  0  0  0  0
    3.0488    1.0785    2.3374 H   0  0  0  0  0  0  0  0  0  0  0  0
    3.8724    1.8839    1.0011 H   0  0  0  0  0  0  0  0  0  0  0  0
    2.1108    1.9142    1.1010 H   0  0  0  0  0  0  0  0  0  0  0  0
    2.1167    1.1456   -1.1871 H   0  0  0  0  0  0  0  0  0  0  0  0
    3.8146    0.7120   -1.3916 H   0  0  0  0  0  0  0  0  0  0  0  0
    3.1330   -1.6721   -1.8030 H   0  0  0  0  0  0  0  0  0  0  0  0
    2.3749   -0.5291   -2.9502 H   0  0  0  0  0  0  0  0  0  0  0  0
   -1.7540   -1.7601   -2.2048 H   0  0  0  0  0  0  0  0  0  0  0  0
   -0.9150   -2.1526   -0.6837 H   0  0  0  0  0  0  0  0  0  0  0  0
   -1.7082    0.9398   -2.1519 H   0  0  0  0  0  0  0  0  0  0  0  0
   -0.8700   -0.3766    1.1343 H   0  0  0  0  0  0  0  0  0  0  0  0
   -0.3661    0.9046    0.0221 H   0  0  0  0  0  0  0  0  0  0  0  0
   -1.4920    1.8669    2.0055 H   0  0  0  0  0  0  0  0  0  0  0  0
   -2.4079    2.1853    0.5243 H   0  0  0  0  0  0  0  0  0  0  0  0
   -3.9245    1.4548    2.3421 H   0  0  0  0  0  0  0  0  0  0  0  0
   -3.0059   -0.0444    2.5180 H   0  0  0  0  0  0  0  0  0  0  0  0
   -4.4631    0.8589   -0.0073 H   0  0  0  0  0  0  0  0  0  0  0  0
   -5.0204   -0.4056    1.0996 H   0  0  0  0  0  0  0  0  0  0  0  0
   -2.9885   -1.7383    0.5906 H   0  0  0  0  0  0  0  0  0  0  0  0
   -3.8865   -1.3581   -0.8897 H   0  0  0  0  0  0  0  0  0  0  0  0
  1  2  1  0  0  0  0
  2  3  1  0  0  0  0
  2  4  1  0  0  0  0
  4  5  1  0  0  0  0
  5  6  1  0  0  0  0
  6  7  1  0  0  0  0
  7  8  2  0  0  0  0
  7  9  1  0  0  0  0
  9 10  1  0  0  0  0
 10 11  1  0  0  0  0
 10 12  1  0  0  0  0
 12 13  1  0  0  0  0
 13 14  1  0  0  0  0
 14 15  1  0  0  0  0
 10 16  1  0  0  0  0
 15 16  1  0  0  0  0
  1 17  1  0  0  0  0
  1 18  1  0  0  0  0
  1 19  1  0  0  0  0
  2 20  1  0  0  0  0
  3 21  1  0  0  0  0
  3 22  1  0  0  0  0
  3 23  1  0  0  0  0
  4 24  1  0  0  0  0
  4 25  1  0  0  0  0
  5 26  1  0  0  0  0
  5 27  1  0  0  0  0
  9 28  1  0  0  0  0
  9 29  1  0  0  0  0
 11 30  1  0  0  0  0
 12 31  1  0  0  0  0
 12 32  1  0  0  0  0
 13 33  1  0  0  0  0
 13 34  1  0  0  0  0
 14 35  1  0  0  0  0
 14 36  1  0  0  0  0
 15 37  1  0  0  0  0
 15 38  1  0  0  0  0
 16 39  1  0  0  0  0
 16 40  1  0  0  0  0
M  END
