 xtb: 6.7.1 (edcfbbe)
          07072615093D

 23 23  0     0  0            999 V2000
   -4.0668   -0.1647   -1.2595 C   0  0  0  0  0  0  0  0  0  0  0  0
   -3.1583   -0.5715   -0.1162 C   0  0  0  0  0  0  0  0  0  0  0  0
   -1.9958    0.2676   -0.1453 O   0  0  0  0  0  0  0  0  0  0  0  0
   -1.0833    0.0566    0.7898 C   0  0  0  0  0  0  0  0  0  0  0  0
   -1.1440   -0.7957    1.6386 O   0  0  0  0  0  0  0  0  0  0  0  0
    0.0586    1.0764    0.6641 C   0  0  0  0  0  0  0  0  0  0  0  0
   -0.1423    2.2386    0.9308 O   0  0  0  0  0  0  0  0  0  0  0  0
    1.3599    0.5420    0.2277 C   0  0  0  0  0  0  0  0  0  0  0  0
    1.5652   -0.8165   -0.0165 C   0  0  0  0  0  0  0  0  0  0  0  0
    2.8070   -1.2613   -0.4298 C   0  0  0  0  0  0  0  0  0  0  0  0
    3.8482   -0.3630   -0.6076 C   0  0  0  0  0  0  0  0  0  0  0  0
    3.6511    0.9889   -0.3684 C   0  0  0  0  0  0  0  0  0  0  0  0
    2.4151    1.4403    0.0477 C   0  0  0  0  0  0  0  0  0  0  0  0
   -3.5571   -0.2962   -2.2101 H   0  0  0  0  0  0  0  0  0  0  0  0
   -4.3471    0.8800   -1.1578 H   0  0  0  0  0  0  0  0  0  0  0  0
   -4.9635   -0.7774   -1.2480 H   0  0  0  0  0  0  0  0  0  0  0  0
   -3.6526   -0.4488    0.8534 H   0  0  0  0  0  0  0  0  0  0  0  0
   -2.8387   -1.6157   -0.2066 H   0  0  0  0  0  0  0  0  0  0  0  0
    0.7629   -1.5225    0.1311 H   0  0  0  0  0  0  0  0  0  0  0  0
    2.9661   -2.3133   -0.6138 H   0  0  0  0  0  0  0  0  0  0  0  0
    4.8153   -0.7179   -0.9317 H   0  0  0  0  0  0  0  0  0  0  0  0
    4.4634    1.6868   -0.5062 H   0  0  0  0  0  0  0  0  0  0  0  0
    2.2368    2.4873    0.2415 H   0  0  0  0  0  0  0  0  0  0  0  0
  1  2  1  0  0  0  0
  2  3  1  0  0  0  0
  3  4  1  0  0  0  0
  4  5  2  0  0  0  0
  4  6  1  0  0  0  0
  6  7  2  0  0  0  0
  6  8  1  0  0  0  0
  8  9  4  0  0  0  0
  9 10  4  0  0  0  0
 10 11  4  0  0  0  0
 11 12  4  0  0  0  0
  8 13  4  0  0  0  0
 12 13  4  0  0  0  0
  1 14  1  0  0  0  0
  1 15  1  0  0  0  0
  1 16  1  0  0  0  0
  2 17  1  0  0  0  0
  2 18  1  0  0  0  0
  9 19  1  0  0  0  0
 10 20  1  0  0  0  0
 11 21  1  0  0  0  0
 12 22  1  0  0  0  0
 13 23  1  0  0  0  0
M  END
