 xtb: 6.7.1 (edcfbbe)
          07082617233D

 10 10  0     0  0            999 V2000
   -1.0503    0.0679   -0.4192 C   0  0  0  0  0  0  0  0  0  0  0  0
    0.1790   -0.5789    0.2110 C   0  0  0  0  0  0  0  0  0  0  0  0
    1.2187    0.4580    0.3543 N   0  0  0  0  0  0  0  0  0  0  0  0
    1.2232    1.0962    1.3779 O   0  0  0  0  0  0  0  0  0  0  0  0
    1.9715    0.6156   -0.5749 O   0  0  0  0  0  0  0  0  0  0  0  0
   -1.8352   -0.6736   -0.5375 H   0  0  0  0  0  0  0  0  0  0  0  0
   -0.8038    0.4739   -1.3977 H   0  0  0  0  0  0  0  0  0  0  0  0
   -1.4215    0.8706    0.2140 H   0  0  0  0  0  0  0  0  0  0  0  0
    0.5730   -1.3664   -0.4328 H   0  0  0  0  0  0  0  0  0  0  0  0
   -0.0546   -0.9633    1.2048 H   0  0  0  0  0  0  0  0  0  0  0  0
  1  2  1  0  0  0  0
  2  3  1  0  0  0  0
  3  4  4  0  0  0  0
  3  5  4  0  0  0  0
  4  5  1  0  0  0  0
  1  6  1  0  0  0  0
  1  7  1  0  0  0  0
  1  8  1  0  0  0  0
  2  9  1  0  0  0  0
  2 10  1  0  0  0  0
M  END
