 xtb: 6.7.1 (edcfbbe)
          07092615483D

 24 24  0     0  0            999 V2000
    3.1594    1.5364   -0.6375 C   0  0  0  0  0  0  0  0  0  0  0  0
    2.2777    0.7683    0.1699 O   0  0  0  0  0  0  0  0  0  0  0  0
    1.6445   -0.2400   -0.4417 C   0  0  0  0  0  0  0  0  0  0  0  0
    1.8066   -0.5236   -1.5984 O   0  0  0  0  0  0  0  0  0  0  0  0
    0.6790   -0.9220    0.5101 C   0  0  0  0  0  0  0  0  0  0  0  0
    0.5660   -2.4127    0.1906 C   0  0  0  0  0  0  0  0  0  0  0  0
   -0.6540   -0.2209    0.3604 C   0  0  0  0  0  0  0  0  0  0  0  0
   -1.2815   -0.1600   -0.8782 C   0  0  0  0  0  0  0  0  0  0  0  0
   -2.5065    0.4682   -1.0121 C   0  0  0  0  0  0  0  0  0  0  0  0
   -3.1185    1.0432    0.0891 C   0  0  0  0  0  0  0  0  0  0  0  0
   -2.4959    0.9919    1.3240 C   0  0  0  0  0  0  0  0  0  0  0  0
   -1.2687    0.3657    1.4579 C   0  0  0  0  0  0  0  0  0  0  0  0
    2.6181    1.9705   -1.4805 H   0  0  0  0  0  0  0  0  0  0  0  0
    3.9642    0.9072   -1.0230 H   0  0  0  0  0  0  0  0  0  0  0  0
    3.5584    2.3173    0.0043 H   0  0  0  0  0  0  0  0  0  0  0  0
    1.0464   -0.7748    1.5290 H   0  0  0  0  0  0  0  0  0  0  0  0
    1.4997   -2.9205    0.4209 H   0  0  0  0  0  0  0  0  0  0  0  0
    0.3514   -2.5524   -0.8652 H   0  0  0  0  0  0  0  0  0  0  0  0
   -0.2331   -2.8599    0.7768 H   0  0  0  0  0  0  0  0  0  0  0  0
   -0.8012   -0.5962   -1.7412 H   0  0  0  0  0  0  0  0  0  0  0  0
   -2.9846    0.5103   -1.9798 H   0  0  0  0  0  0  0  0  0  0  0  0
   -4.0757    1.5322   -0.0158 H   0  0  0  0  0  0  0  0  0  0  0  0
   -2.9656    1.4412    2.1867 H   0  0  0  0  0  0  0  0  0  0  0  0
   -0.7862    0.3306    2.4243 H   0  0  0  0  0  0  0  0  0  0  0  0
  1  2  1  0  0  0  0
  2  3  1  0  0  0  0
  3  4  2  0  0  0  0
  3  5  1  0  0  0  0
  5  6  1  0  0  0  0
  5  7  1  0  0  0  0
  7  8  4  0  0  0  0
  8  9  4  0  0  0  0
  9 10  4  0  0  0  0
 10 11  4  0  0  0  0
  7 12  4  0  0  0  0
 11 12  4  0  0  0  0
  1 13  1  0  0  0  0
  1 14  1  0  0  0  0
  1 15  1  0  0  0  0
  5 16  1  0  0  0  0
  6 17  1  0  0  0  0
  6 18  1  0  0  0  0
  6 19  1  0  0  0  0
  8 20  1  0  0  0  0
  9 21  1  0  0  0  0
 10 22  1  0  0  0  0
 11 23  1  0  0  0  0
 12 24  1  0  0  0  0
M  END
