 xtb: 6.7.1 (edcfbbe)
          07082618293D

 12 11  0     0  0            999 V2000
    2.1862   -0.1865    0.0234 C   0  0  0  0  0  0  0  0  0  0  0  0
    0.8564   -0.4553    0.4532 O   0  0  0  0  0  0  0  0  0  0  0  0
   -0.1153    0.1847   -0.2044 C   0  0  0  0  0  0  0  0  0  0  0  0
    0.0659    0.9483   -1.1073 O   0  0  0  0  0  0  0  0  0  0  0  0
   -1.4655   -0.2176    0.3823 C   0  0  0  0  0  0  0  0  0  0  0  0
   -2.5718    0.4320   -0.2743 C   0  0  0  0  0  0  0  0  0  0  0  0
   -3.4650    0.9333   -0.7781 N   0  0  0  0  0  0  0  0  0  0  0  0
    2.4111    0.8760    0.1322 H   0  0  0  0  0  0  0  0  0  0  0  0
    2.3089   -0.4672   -1.0242 H   0  0  0  0  0  0  0  0  0  0  0  0
    2.8352   -0.7829    0.6589 H   0  0  0  0  0  0  0  0  0  0  0  0
   -1.4721    0.0375    1.4459 H   0  0  0  0  0  0  0  0  0  0  0  0
   -1.5741   -1.3023    0.2924 H   0  0  0  0  0  0  0  0  0  0  0  0
  1  2  1  0  0  0  0
  2  3  1  0  0  0  0
  3  4  2  0  0  0  0
  3  5  1  0  0  0  0
  5  6  1  0  0  0  0
  6  7  3  0  0  0  0
  1  8  1  0  0  0  0
  1  9  1  0  0  0  0
  1 10  1  0  0  0  0
  5 11  1  0  0  0  0
  5 12  1  0  0  0  0
M  END
