 xtb: 6.7.1 (edcfbbe)
          07082605343D

 17 18  0     0  0            999 V2000
    3.3088    1.6712   -0.7617 O   0  0  0  0  0  0  0  0  0  0  0  0
    2.3803    0.9586   -0.4778 C   0  0  0  0  0  0  0  0  0  0  0  0
    2.4866   -0.4401   -0.0840 C   0  0  0  0  0  0  0  0  0  0  0  0
    1.4003   -1.1725    0.2190 C   0  0  0  0  0  0  0  0  0  0  0  0
    0.0959   -0.5807    0.1591 C   0  0  0  0  0  0  0  0  0  0  0  0
   -1.0833   -1.2712    0.4579 C   0  0  0  0  0  0  0  0  0  0  0  0
   -2.3011   -0.6361    0.3782 C   0  0  0  0  0  0  0  0  0  0  0  0
   -2.3678    0.7024   -0.0016 C   0  0  0  0  0  0  0  0  0  0  0  0
   -1.2207    1.4054   -0.3013 C   0  0  0  0  0  0  0  0  0  0  0  0
    0.0169    0.7683   -0.2227 C   0  0  0  0  0  0  0  0  0  0  0  0
    1.1188    1.4902   -0.5240 O   0  0  0  0  0  0  0  0  0  0  0  0
    3.4874   -0.8398   -0.0537 H   0  0  0  0  0  0  0  0  0  0  0  0
    1.4834   -2.2101    0.5108 H   0  0  0  0  0  0  0  0  0  0  0  0
   -1.0192   -2.3085    0.7512 H   0  0  0  0  0  0  0  0  0  0  0  0
   -3.2079   -1.1734    0.6098 H   0  0  0  0  0  0  0  0  0  0  0  0
   -3.3263    1.1947   -0.0622 H   0  0  0  0  0  0  0  0  0  0  0  0
   -1.2521    2.4417   -0.5971 H   0  0  0  0  0  0  0  0  0  0  0  0
  1  2  2  0  0  0  0
  2  3  1  0  0  0  0
  3  4  2  0  0  0  0
  4  5  1  0  0  0  0
  5  6  4  0  0  0  0
  6  7  4  0  0  0  0
  7  8  4  0  0  0  0
  8  9  4  0  0  0  0
  5 10  4  0  0  0  0
  9 10  4  0  0  0  0
  2 11  1  0  0  0  0
 10 11  1  0  0  0  0
  3 12  1  0  0  0  0
  4 13  1  0  0  0  0
  6 14  1  0  0  0  0
  7 15  1  0  0  0  0
  8 16  1  0  0  0  0
  9 17  1  0  0  0  0
M  END
