 xtb: 6.7.1 (edcfbbe)
          07082619073D

 22 22  0     0  0            999 V2000
    2.4009   -0.6450   -0.3293 C   0  0  0  0  0  0  0  0  0  0  0  0
    1.0383   -0.2776    0.2516 C   0  0  0  0  0  0  0  0  0  0  0  0
    0.7749    1.2234    0.1260 C   0  0  0  0  0  0  0  0  0  0  0  0
   -0.5898    1.5876    0.7031 C   0  0  0  0  0  0  0  0  0  0  0  0
   -1.6947    0.8045    0.0042 C   0  0  0  0  0  0  0  0  0  0  0  0
   -1.4486   -0.6970    0.1269 C   0  0  0  0  0  0  0  0  0  0  0  0
   -2.4940   -1.3606   -0.5570 O   0  0  0  0  0  0  0  0  0  0  0  0
   -0.0763   -1.0542   -0.4499 C   0  0  0  0  0  0  0  0  0  0  0  0
    2.5904   -1.7107   -0.2215 H   0  0  0  0  0  0  0  0  0  0  0  0
    2.4424   -0.3947   -1.3873 H   0  0  0  0  0  0  0  0  0  0  0  0
    3.1926   -0.1024    0.1822 H   0  0  0  0  0  0  0  0  0  0  0  0
    1.0280   -0.5434    1.3154 H   0  0  0  0  0  0  0  0  0  0  0  0
    1.5576    1.7783    0.6477 H   0  0  0  0  0  0  0  0  0  0  0  0
    0.8100    1.5063   -0.9285 H   0  0  0  0  0  0  0  0  0  0  0  0
   -0.7691    2.6580    0.5870 H   0  0  0  0  0  0  0  0  0  0  0  0
   -0.6041    1.3597    1.7717 H   0  0  0  0  0  0  0  0  0  0  0  0
   -2.6688    1.0406    0.4341 H   0  0  0  0  0  0  0  0  0  0  0  0
   -1.7268    1.0597   -1.0563 H   0  0  0  0  0  0  0  0  0  0  0  0
   -1.4715   -0.9785    1.1946 H   0  0  0  0  0  0  0  0  0  0  0  0
   -2.3141   -2.3070   -0.5548 H   0  0  0  0  0  0  0  0  0  0  0  0
    0.0978   -2.1295   -0.3435 H   0  0  0  0  0  0  0  0  0  0  0  0
   -0.0750   -0.8175   -1.5166 H   0  0  0  0  0  0  0  0  0  0  0  0
  1  2  1  0  0  0  0
  2  3  1  0  0  0  0
  3  4  1  0  0  0  0
  4  5  1  0  0  0  0
  5  6  1  0  0  0  0
  6  7  1  0  0  0  0
  2  8  1  0  0  0  0
  6  8  1  0  0  0  0
  1  9  1  0  0  0  0
  1 10  1  0  0  0  0
  1 11  1  0  0  0  0
  2 12  1  0  0  0  0
  3 13  1  0  0  0  0
  3 14  1  0  0  0  0
  4 15  1  0  0  0  0
  4 16  1  0  0  0  0
  5 17  1  0  0  0  0
  5 18  1  0  0  0  0
  6 19  1  0  0  0  0
  7 20  1  0  0  0  0
  8 21  1  0  0  0  0
  8 22  1  0  0  0  0
M  END
