 xtb: 6.7.1 (edcfbbe)
          07082605153D

 16 16  0     0  0            999 V2000
   -1.1280    1.6601    0.0887 C   0  0  0  0  0  0  0  0  0  0  0  0
    0.0180    0.7031    0.0697 C   0  0  0  0  0  0  0  0  0  0  0  0
    1.2341    1.2140    0.1984 N   0  0  0  0  0  0  0  0  0  0  0  0
    2.2663    0.3825    0.1843 C   0  0  0  0  0  0  0  0  0  0  0  0
    2.0855   -0.9825    0.0395 C   0  0  0  0  0  0  0  0  0  0  0  0
    0.8741   -1.5046   -0.0900 N   0  0  0  0  0  0  0  0  0  0  0  0
   -0.1655   -0.6827   -0.0773 C   0  0  0  0  0  0  0  0  0  0  0  0
   -1.5193   -1.2951   -0.2248 C   0  0  0  0  0  0  0  0  0  0  0  0
   -0.7493    2.6705    0.2117 H   0  0  0  0  0  0  0  0  0  0  0  0
   -1.8052    1.4259    0.9088 H   0  0  0  0  0  0  0  0  0  0  0  0
   -1.6917    1.5964   -0.8410 H   0  0  0  0  0  0  0  0  0  0  0  0
    3.2441    0.8312    0.2914 H   0  0  0  0  0  0  0  0  0  0  0  0
    2.9116   -1.6799    0.0251 H   0  0  0  0  0  0  0  0  0  0  0  0
   -2.0221   -0.8982   -1.1056 H   0  0  0  0  0  0  0  0  0  0  0  0
   -1.4170   -2.3718   -0.3231 H   0  0  0  0  0  0  0  0  0  0  0  0
   -2.1355   -1.0688    0.6442 H   0  0  0  0  0  0  0  0  0  0  0  0
  1  2  1  0  0  0  0
  2  3  4  0  0  0  0
  3  4  4  0  0  0  0
  4  5  4  0  0  0  0
  5  6  4  0  0  0  0
  2  7  4  0  0  0  0
  6  7  4  0  0  0  0
  7  8  1  0  0  0  0
  1  9  1  0  0  0  0
  1 10  1  0  0  0  0
  1 11  1  0  0  0  0
  4 12  1  0  0  0  0
  5 13  1  0  0  0  0
  8 14  1  0  0  0  0
  8 15  1  0  0  0  0
  8 16  1  0  0  0  0
M  END
