 xtb: 6.7.1 (edcfbbe)
          07082604143D

 23 23  0     0  0            999 V2000
   -2.7817   -0.9943   -0.9336 C   0  0  0  0  0  0  0  0  0  0  0  0
   -1.8136   -1.5631    0.1056 C   0  0  0  0  0  0  0  0  0  0  0  0
   -0.8207   -0.5192    0.5342 C   0  0  0  0  0  0  0  0  0  0  0  0
   -1.0857    0.3178    1.6049 C   0  0  0  0  0  0  0  0  0  0  0  0
   -0.1867    1.3043    1.9735 C   0  0  0  0  0  0  0  0  0  0  0  0
    0.9934    1.4684    1.2709 C   0  0  0  0  0  0  0  0  0  0  0  0
    1.8785    2.4354    1.6356 O   0  0  0  0  0  0  0  0  0  0  0  0
    1.2702    0.6273    0.1808 C   0  0  0  0  0  0  0  0  0  0  0  0
    2.4741    0.8782   -0.4458 O   0  0  0  0  0  0  0  0  0  0  0  0
    2.8241    0.0822   -1.5482 C   0  0  0  0  0  0  0  0  0  0  0  0
    0.3644   -0.3533   -0.1772 C   0  0  0  0  0  0  0  0  0  0  0  0
   -3.3215   -0.1457   -0.5202 H   0  0  0  0  0  0  0  0  0  0  0  0
   -3.5017   -1.7503   -1.2388 H   0  0  0  0  0  0  0  0  0  0  0  0
   -2.2383   -0.6567   -1.8133 H   0  0  0  0  0  0  0  0  0  0  0  0
   -2.3805   -1.9082    0.9722 H   0  0  0  0  0  0  0  0  0  0  0  0
   -1.2904   -2.4210   -0.3221 H   0  0  0  0  0  0  0  0  0  0  0  0
   -2.0023    0.1997    2.1631 H   0  0  0  0  0  0  0  0  0  0  0  0
   -0.3838    1.9578    2.8080 H   0  0  0  0  0  0  0  0  0  0  0  0
    2.6311    2.3874    1.0308 H   0  0  0  0  0  0  0  0  0  0  0  0
    2.1005    0.1865   -2.3630 H   0  0  0  0  0  0  0  0  0  0  0  0
    2.9094   -0.9729   -1.2694 H   0  0  0  0  0  0  0  0  0  0  0  0
    3.7953    0.4468   -1.8799 H   0  0  0  0  0  0  0  0  0  0  0  0
    0.5659   -1.0069   -1.0120 H   0  0  0  0  0  0  0  0  0  0  0  0
  1  2  1  0  0  0  0
  2  3  1  0  0  0  0
  3  4  4  0  0  0  0
  4  5  4  0  0  0  0
  5  6  4  0  0  0  0
  6  7  1  0  0  0  0
  6  8  4  0  0  0  0
  8  9  1  0  0  0  0
  9 10  1  0  0  0  0
  3 11  4  0  0  0  0
  8 11  4  0  0  0  0
  1 12  1  0  0  0  0
  1 13  1  0  0  0  0
  1 14  1  0  0  0  0
  2 15  1  0  0  0  0
  2 16  1  0  0  0  0
  4 17  1  0  0  0  0
  5 18  1  0  0  0  0
  7 19  1  0  0  0  0
 10 20  1  0  0  0  0
 10 21  1  0  0  0  0
 10 22  1  0  0  0  0
 11 23  1  0  0  0  0
M  END
