 xtb: 6.7.1 (edcfbbe)
          07092616053D

 24 24  0     0  0            999 V2000
   -3.1289    0.5727   -1.3112 C   0  0  0  0  0  0  0  0  0  0  0  0
   -2.3750    0.2530   -0.0285 C   0  0  0  0  0  0  0  0  0  0  0  0
   -2.8711   -1.0312    0.6279 C   0  0  0  0  0  0  0  0  0  0  0  0
   -0.9894    0.1146   -0.3789 O   0  0  0  0  0  0  0  0  0  0  0  0
   -0.0876    0.3551    0.5774 C   0  0  0  0  0  0  0  0  0  0  0  0
   -0.3745    0.6838    1.7045 O   0  0  0  0  0  0  0  0  0  0  0  0
    1.3064    0.1811    0.0968 C   0  0  0  0  0  0  0  0  0  0  0  0
    2.3455    0.3984    0.9984 C   0  0  0  0  0  0  0  0  0  0  0  0
    3.6577    0.2465    0.5936 C   0  0  0  0  0  0  0  0  0  0  0  0
    3.9401   -0.1230   -0.7121 C   0  0  0  0  0  0  0  0  0  0  0  0
    2.9089   -0.3400   -1.6126 C   0  0  0  0  0  0  0  0  0  0  0  0
    1.5937   -0.1897   -1.2139 C   0  0  0  0  0  0  0  0  0  0  0  0
   -2.7301    1.4747   -1.7680 H   0  0  0  0  0  0  0  0  0  0  0  0
   -3.0265   -0.2489   -2.0156 H   0  0  0  0  0  0  0  0  0  0  0  0
   -4.1818    0.7234   -1.0912 H   0  0  0  0  0  0  0  0  0  0  0  0
   -2.4591    1.0825    0.6862 H   0  0  0  0  0  0  0  0  0  0  0  0
   -3.9239   -0.9349    0.8774 H   0  0  0  0  0  0  0  0  0  0  0  0
   -2.3105   -1.2215    1.5399 H   0  0  0  0  0  0  0  0  0  0  0  0
   -2.7399   -1.8717   -0.0502 H   0  0  0  0  0  0  0  0  0  0  0  0
    2.0995    0.6856    2.0096 H   0  0  0  0  0  0  0  0  0  0  0  0
    4.4622    0.4154    1.2940 H   0  0  0  0  0  0  0  0  0  0  0  0
    4.9658   -0.2421   -1.0291 H   0  0  0  0  0  0  0  0  0  0  0  0
    3.1331   -0.6275   -2.6293 H   0  0  0  0  0  0  0  0  0  0  0  0
    0.7853   -0.3564   -1.9084 H   0  0  0  0  0  0  0  0  0  0  0  0
  1  2  1  0  0  0  0
  2  3  1  0  0  0  0
  2  4  1  0  0  0  0
  4  5  1  0  0  0  0
  5  6  2  0  0  0  0
  5  7  1  0  0  0  0
  7  8  4  0  0  0  0
  8  9  4  0  0  0  0
  9 10  4  0  0  0  0
 10 11  4  0  0  0  0
  7 12  4  0  0  0  0
 11 12  4  0  0  0  0
  1 13  1  0  0  0  0
  1 14  1  0  0  0  0
  1 15  1  0  0  0  0
  2 16  1  0  0  0  0
  3 17  1  0  0  0  0
  3 18  1  0  0  0  0
  3 19  1  0  0  0  0
  8 20  1  0  0  0  0
  9 21  1  0  0  0  0
 10 22  1  0  0  0  0
 11 23  1  0  0  0  0
 12 24  1  0  0  0  0
M  END
