 xtb: 6.7.1 (edcfbbe)
          07082622283D

 17 17  0     0  0            999 V2000
   -3.0075   -1.7848    0.6245 O   0  0  0  0  0  0  0  0  0  0  0  0
   -2.4433   -0.7320    0.5503 C   0  0  0  0  0  0  0  0  0  0  0  0
   -1.7612   -0.1912   -0.6786 C   0  0  0  0  0  0  0  0  0  0  0  0
   -0.3097    0.0399   -0.3473 C   0  0  0  0  0  0  0  0  0  0  0  0
    0.6235   -0.9656   -0.5635 C   0  0  0  0  0  0  0  0  0  0  0  0
    1.9526   -0.7710   -0.2320 C   0  0  0  0  0  0  0  0  0  0  0  0
    2.3613    0.4282    0.3266 C   0  0  0  0  0  0  0  0  0  0  0  0
    1.4351    1.4321    0.5519 C   0  0  0  0  0  0  0  0  0  0  0  0
    0.1060    1.2380    0.2191 C   0  0  0  0  0  0  0  0  0  0  0  0
   -2.3562   -0.0604    1.4275 H   0  0  0  0  0  0  0  0  0  0  0  0
   -2.2392    0.7543   -0.9441 H   0  0  0  0  0  0  0  0  0  0  0  0
   -1.8715   -0.9015   -1.4987 H   0  0  0  0  0  0  0  0  0  0  0  0
    0.3060   -1.9037   -0.9951 H   0  0  0  0  0  0  0  0  0  0  0  0
    2.6702   -1.5585   -0.4082 H   0  0  0  0  0  0  0  0  0  0  0  0
    3.3984    0.5799    0.5859 H   0  0  0  0  0  0  0  0  0  0  0  0
    1.7480    2.3696    0.9875 H   0  0  0  0  0  0  0  0  0  0  0  0
   -0.6123    2.0266    0.3941 H   0  0  0  0  0  0  0  0  0  0  0  0
  1  2  2  0  0  0  0
  2  3  1  0  0  0  0
  3  4  1  0  0  0  0
  4  5  4  0  0  0  0
  5  6  4  0  0  0  0
  6  7  4  0  0  0  0
  7  8  4  0  0  0  0
  4  9  4  0  0  0  0
  8  9  4  0  0  0  0
  2 10  1  0  0  0  0
  3 11  1  0  0  0  0
  3 12  1  0  0  0  0
  5 13  1  0  0  0  0
  6 14  1  0  0  0  0
  7 15  1  0  0  0  0
  8 16  1  0  0  0  0
  9 17  1  0  0  0  0
M  END
