 xtb: 6.7.1 (edcfbbe)
          07082601223D

 33 33  0     0  0            999 V2000
    5.2748    1.0630   -0.5576 C   0  0  0  0  0  0  0  0  0  0  0  0
    3.8267    0.7548   -0.9174 C   0  0  0  0  0  0  0  0  0  0  0  0
    3.1466   -0.1008    0.1489 C   0  0  0  0  0  0  0  0  0  0  0  0
    1.6953   -0.4109   -0.2068 C   0  0  0  0  0  0  0  0  0  0  0  0
    1.0148   -1.2606    0.8641 C   0  0  0  0  0  0  0  0  0  0  0  0
   -0.4471   -1.5361    0.5271 C   0  0  0  0  0  0  0  0  0  0  0  0
   -1.1388   -0.3014    0.5741 O   0  0  0  0  0  0  0  0  0  0  0  0
   -2.4514   -0.2562    0.2649 C   0  0  0  0  0  0  0  0  0  0  0  0
   -3.2196   -1.3664   -0.0789 C   0  0  0  0  0  0  0  0  0  0  0  0
   -4.5621   -1.2242   -0.3829 C   0  0  0  0  0  0  0  0  0  0  0  0
   -5.1730    0.0199   -0.3532 C   0  0  0  0  0  0  0  0  0  0  0  0
   -4.4246    1.1268   -0.0129 C   0  0  0  0  0  0  0  0  0  0  0  0
   -3.0704    1.0121    0.2985 C   0  0  0  0  0  0  0  0  0  0  0  0
   -2.3106    2.2111    0.6555 C   0  0  0  0  0  0  0  0  0  0  0  0
   -2.7626    3.3299    0.6977 O   0  0  0  0  0  0  0  0  0  0  0  0
    5.7390    1.6746   -1.3277 H   0  0  0  0  0  0  0  0  0  0  0  0
    5.8475    0.1434   -0.4579 H   0  0  0  0  0  0  0  0  0  0  0  0
    5.3267    1.6018    0.3859 H   0  0  0  0  0  0  0  0  0  0  0  0
    3.2747    1.6900   -1.0337 H   0  0  0  0  0  0  0  0  0  0  0  0
    3.7945    0.2306   -1.8754 H   0  0  0  0  0  0  0  0  0  0  0  0
    3.6986   -1.0366    0.2666 H   0  0  0  0  0  0  0  0  0  0  0  0
    3.1797    0.4246    1.1059 H   0  0  0  0  0  0  0  0  0  0  0  0
    1.6616   -0.9395   -1.1628 H   0  0  0  0  0  0  0  0  0  0  0  0
    1.1413    0.5221   -0.3227 H   0  0  0  0  0  0  0  0  0  0  0  0
    1.5326   -2.2157    0.9686 H   0  0  0  0  0  0  0  0  0  0  0  0
    1.0569   -0.7414    1.8229 H   0  0  0  0  0  0  0  0  0  0  0  0
   -0.8786   -2.2354    1.2563 H   0  0  0  0  0  0  0  0  0  0  0  0
   -0.5263   -1.9747   -0.4766 H   0  0  0  0  0  0  0  0  0  0  0  0
   -2.7776   -2.3498   -0.1102 H   0  0  0  0  0  0  0  0  0  0  0  0
   -5.1356   -2.1009   -0.6460 H   0  0  0  0  0  0  0  0  0  0  0  0
   -6.2202    0.1181   -0.5929 H   0  0  0  0  0  0  0  0  0  0  0  0
   -4.8623    2.1132    0.0230 H   0  0  0  0  0  0  0  0  0  0  0  0
   -1.2503    2.0147    0.8947 H   0  0  0  0  0  0  0  0  0  0  0  0
  1  2  1  0  0  0  0
  2  3  1  0  0  0  0
  3  4  1  0  0  0  0
  4  5  1  0  0  0  0
  5  6  1  0  0  0  0
  6  7  1  0  0  0  0
  7  8  1  0  0  0  0
  8  9  4  0  0  0  0
  9 10  4  0  0  0  0
 10 11  4  0  0  0  0
 11 12  4  0  0  0  0
  8 13  4  0  0  0  0
 12 13  4  0  0  0  0
 13 14  1  0  0  0  0
 14 15  2  0  0  0  0
  1 16  1  0  0  0  0
  1 17  1  0  0  0  0
  1 18  1  0  0  0  0
  2 19  1  0  0  0  0
  2 20  1  0  0  0  0
  3 21  1  0  0  0  0
  3 22  1  0  0  0  0
  4 23  1  0  0  0  0
  4 24  1  0  0  0  0
  5 25  1  0  0  0  0
  5 26  1  0  0  0  0
  6 27  1  0  0  0  0
  6 28  1  0  0  0  0
  9 29  1  0  0  0  0
 10 30  1  0  0  0  0
 11 31  1  0  0  0  0
 12 32  1  0  0  0  0
 14 33  1  0  0  0  0
M  END
