 xtb: 6.7.1 (edcfbbe)
          07082613153D

 22 22  0     0  0            999 V2000
   -2.9669   -0.1059    1.0062 C   0  0  0  0  0  0  0  0  0  0  0  0
   -1.7557    0.1837    0.1724 C   0  0  0  0  0  0  0  0  0  0  0  0
   -1.7225    1.2915   -0.6666 C   0  0  0  0  0  0  0  0  0  0  0  0
   -0.5962    1.5676   -1.4193 C   0  0  0  0  0  0  0  0  0  0  0  0
    0.5128    0.7425   -1.3428 C   0  0  0  0  0  0  0  0  0  0  0  0
    0.5001   -0.3712   -0.5117 C   0  0  0  0  0  0  0  0  0  0  0  0
    1.7205   -1.2353   -0.3696 C   0  0  0  0  0  0  0  0  0  0  0  0
    2.5696   -0.7534    0.8193 C   0  0  0  0  0  0  0  0  0  0  0  0
    3.0999    0.5320    0.6212 O   0  0  0  0  0  0  0  0  0  0  0  0
   -0.6373   -0.6345    0.2408 C   0  0  0  0  0  0  0  0  0  0  0  0
   -2.9065    0.4368    1.9504 H   0  0  0  0  0  0  0  0  0  0  0  0
   -3.0397   -1.1672    1.2316 H   0  0  0  0  0  0  0  0  0  0  0  0
   -3.8735    0.2106    0.4955 H   0  0  0  0  0  0  0  0  0  0  0  0
   -2.5862    1.9375   -0.7315 H   0  0  0  0  0  0  0  0  0  0  0  0
   -0.5812    2.4290   -2.0712 H   0  0  0  0  0  0  0  0  0  0  0  0
    1.3879    0.9570   -1.9400 H   0  0  0  0  0  0  0  0  0  0  0  0
    1.4358   -2.2734   -0.1930 H   0  0  0  0  0  0  0  0  0  0  0  0
    2.3281   -1.1849   -1.2747 H   0  0  0  0  0  0  0  0  0  0  0  0
    1.9587   -0.7796    1.7347 H   0  0  0  0  0  0  0  0  0  0  0  0
    3.4316   -1.4104    0.9565 H   0  0  0  0  0  0  0  0  0  0  0  0
    2.3723    1.1277    0.4022 H   0  0  0  0  0  0  0  0  0  0  0  0
   -0.6517   -1.4999    0.8896 H   0  0  0  0  0  0  0  0  0  0  0  0
  1  2  1  0  0  0  0
  2  3  4  0  0  0  0
  3  4  4  0  0  0  0
  4  5  4  0  0  0  0
  5  6  4  0  0  0  0
  6  7  1  0  0  0  0
  7  8  1  0  0  0  0
  8  9  1  0  0  0  0
  2 10  4  0  0  0  0
  6 10  4  0  0  0  0
  1 11  1  0  0  0  0
  1 12  1  0  0  0  0
  1 13  1  0  0  0  0
  3 14  1  0  0  0  0
  4 15  1  0  0  0  0
  5 16  1  0  0  0  0
  7 17  1  0  0  0  0
  7 18  1  0  0  0  0
  8 19  1  0  0  0  0
  8 20  1  0  0  0  0
  9 21  1  0  0  0  0
 10 22  1  0  0  0  0
M  END
