 xtb: 6.7.1 (edcfbbe)
          07082622173D

 15 15  0     0  0            999 V2000
    3.0188   -0.0312   -0.1383 O   0  0  0  0  0  0  0  0  0  0  0  0
    2.0664   -0.7843   -0.0272 C   0  0  0  0  0  0  0  0  0  0  0  0
    0.6794   -0.3737    0.0013 C   0  0  0  0  0  0  0  0  0  0  0  0
   -0.3423   -1.3233    0.1330 C   0  0  0  0  0  0  0  0  0  0  0  0
   -1.6611   -0.9384    0.1606 C   0  0  0  0  0  0  0  0  0  0  0  0
   -1.9859    0.4134    0.0562 C   0  0  0  0  0  0  0  0  0  0  0  0
   -1.0029    1.3680   -0.0741 C   0  0  0  0  0  0  0  0  0  0  0  0
    0.3448    0.9959   -0.1042 C   0  0  0  0  0  0  0  0  0  0  0  0
    1.2732    1.9426   -0.2313 O   0  0  0  0  0  0  0  0  0  0  0  0
    2.2276   -1.8736    0.0616 H   0  0  0  0  0  0  0  0  0  0  0  0
   -0.0713   -2.3664    0.2126 H   0  0  0  0  0  0  0  0  0  0  0  0
   -2.4430   -1.6748    0.2623 H   0  0  0  0  0  0  0  0  0  0  0  0
   -3.0222    0.7162    0.0779 H   0  0  0  0  0  0  0  0  0  0  0  0
   -1.2429    2.4164   -0.1556 H   0  0  0  0  0  0  0  0  0  0  0  0
    2.1615    1.5133   -0.2349 H   0  0  0  0  0  0  0  0  0  0  0  0
  1  2  2  0  0  0  0
  2  3  1  0  0  0  0
  3  4  4  0  0  0  0
  4  5  4  0  0  0  0
  5  6  4  0  0  0  0
  6  7  4  0  0  0  0
  3  8  4  0  0  0  0
  7  8  4  0  0  0  0
  8  9  1  0  0  0  0
  2 10  1  0  0  0  0
  4 11  1  0  0  0  0
  5 12  1  0  0  0  0
  6 13  1  0  0  0  0
  7 14  1  0  0  0  0
  9 15  1  0  0  0  0
M  END
