 xtb: 6.7.1 (edcfbbe)
          07072621493D

 28 29  0     0  0            999 V2000
   -2.8625    1.4362    0.4398 C   0  0  0  0  0  0  0  0  0  0  0  0
   -2.0893    0.1459    0.1622 C   0  0  0  0  0  0  0  0  0  0  0  0
   -2.7985   -1.0441    0.8020 C   0  0  0  0  0  0  0  0  0  0  0  0
   -1.8740   -0.0633   -1.3695 C   0  0  0  0  0  0  0  0  0  0  0  0
   -0.4840   -0.1872   -1.5533 O   0  0  0  0  0  0  0  0  0  0  0  0
    0.1086    0.5304   -0.4795 C   0  0  0  0  0  0  0  0  0  0  0  0
    1.5407    0.1321   -0.2575 C   0  0  0  0  0  0  0  0  0  0  0  0
    2.1908    0.5573    0.8948 C   0  0  0  0  0  0  0  0  0  0  0  0
    3.5040    0.1903    1.1252 C   0  0  0  0  0  0  0  0  0  0  0  0
    4.1762   -0.6003    0.2073 C   0  0  0  0  0  0  0  0  0  0  0  0
    3.5303   -1.0226   -0.9418 C   0  0  0  0  0  0  0  0  0  0  0  0
    2.2151   -0.6589   -1.1754 C   0  0  0  0  0  0  0  0  0  0  0  0
   -0.7253    0.2875    0.6820 N   0  0  0  0  0  0  0  0  0  0  0  0
   -3.8485    1.3921   -0.0161 H   0  0  0  0  0  0  0  0  0  0  0  0
   -2.3245    2.2917    0.0401 H   0  0  0  0  0  0  0  0  0  0  0  0
   -2.9720    1.5721    1.5123 H   0  0  0  0  0  0  0  0  0  0  0  0
   -2.2720   -1.9701    0.5761 H   0  0  0  0  0  0  0  0  0  0  0  0
   -2.8352   -0.9162    1.8818 H   0  0  0  0  0  0  0  0  0  0  0  0
   -3.8159   -1.1223    0.4263 H   0  0  0  0  0  0  0  0  0  0  0  0
   -2.3457   -0.9734   -1.7437 H   0  0  0  0  0  0  0  0  0  0  0  0
   -2.2554    0.7995   -1.9327 H   0  0  0  0  0  0  0  0  0  0  0  0
    0.0541    1.6148   -0.7052 H   0  0  0  0  0  0  0  0  0  0  0  0
    1.6566    1.1704    1.6051 H   0  0  0  0  0  0  0  0  0  0  0  0
    4.0049    0.5216    2.0233 H   0  0  0  0  0  0  0  0  0  0  0  0
    5.2020   -0.8862    0.3888 H   0  0  0  0  0  0  0  0  0  0  0  0
    4.0514   -1.6388   -1.6598 H   0  0  0  0  0  0  0  0  0  0  0  0
    1.6983   -0.9840   -2.0645 H   0  0  0  0  0  0  0  0  0  0  0  0
   -0.4303   -0.5746    1.1321 H   0  0  0  0  0  0  0  0  0  0  0  0
  1  2  1  0  0  0  0
  2  3  1  0  0  0  0
  2  4  1  0  0  0  0
  4  5  1  0  0  0  0
  5  6  1  0  0  0  0
  6  7  1  0  0  0  0
  7  8  4  0  0  0  0
  8  9  4  0  0  0  0
  9 10  4  0  0  0  0
 10 11  4  0  0  0  0
  7 12  4  0  0  0  0
 11 12  4  0  0  0  0
  2 13  1  0  0  0  0
  6 13  1  0  0  0  0
  1 14  1  0  0  0  0
  1 15  1  0  0  0  0
  1 16  1  0  0  0  0
  3 17  1  0  0  0  0
  3 18  1  0  0  0  0
  3 19  1  0  0  0  0
  4 20  1  0  0  0  0
  4 21  1  0  0  0  0
  6 22  1  0  0  0  0
  8 23  1  0  0  0  0
  9 24  1  0  0  0  0
 10 25  1  0  0  0  0
 11 26  1  0  0  0  0
 12 27  1  0  0  0  0
 13 28  1  0  0  0  0
M  END
