 xtb: 6.7.1 (edcfbbe)
          07082621343D

 19 18  0     0  0            999 V2000
    3.1635   -0.9609   -0.2221 C   0  0  0  0  0  0  0  0  0  0  0  0
    2.3562    0.2074   -0.1543 O   0  0  0  0  0  0  0  0  0  0  0  0
    1.0914    0.0292    0.2372 C   0  0  0  0  0  0  0  0  0  0  0  0
    0.6302   -1.0392    0.5437 O   0  0  0  0  0  0  0  0  0  0  0  0
    0.3325    1.3377    0.2437 C   0  0  0  0  0  0  0  0  0  0  0  0
   -1.1293    1.0893    0.6042 C   0  0  0  0  0  0  0  0  0  0  0  0
   -1.7932    0.2523   -0.4808 C   0  0  0  0  0  0  0  0  0  0  0  0
   -2.7290   -0.8055    0.0276 C   0  0  0  0  0  0  0  0  0  0  0  0
   -1.5670    0.4332   -1.6497 O   0  0  0  0  0  0  0  0  0  0  0  0
    2.7165   -1.6895   -0.9013 H   0  0  0  0  0  0  0  0  0  0  0  0
    3.2589   -1.4139    0.7669 H   0  0  0  0  0  0  0  0  0  0  0  0
    4.1338   -0.6386   -0.5904 H   0  0  0  0  0  0  0  0  0  0  0  0
    0.4039    1.7708   -0.7558 H   0  0  0  0  0  0  0  0  0  0  0  0
    0.8133    2.0200    0.9462 H   0  0  0  0  0  0  0  0  0  0  0  0
   -1.6606    2.0418    0.6642 H   0  0  0  0  0  0  0  0  0  0  0  0
   -1.2032    0.5825    1.5656 H   0  0  0  0  0  0  0  0  0  0  0  0
   -3.4044   -0.3952    0.7743 H   0  0  0  0  0  0  0  0  0  0  0  0
   -3.2922   -1.2455   -0.7908 H   0  0  0  0  0  0  0  0  0  0  0  0
   -2.1215   -1.5758    0.5009 H   0  0  0  0  0  0  0  0  0  0  0  0
  1  2  1  0  0  0  0
  2  3  1  0  0  0  0
  3  4  2  0  0  0  0
  3  5  1  0  0  0  0
  5  6  1  0  0  0  0
  6  7  1  0  0  0  0
  7  8  1  0  0  0  0
  7  9  2  0  0  0  0
  1 10  1  0  0  0  0
  1 11  1  0  0  0  0
  1 12  1  0  0  0  0
  5 13  1  0  0  0  0
  5 14  1  0  0  0  0
  6 15  1  0  0  0  0
  6 16  1  0  0  0  0
  8 17  1  0  0  0  0
  8 18  1  0  0  0  0
  8 19  1  0  0  0  0
M  END
