 xtb: 6.7.1 (edcfbbe)
          07082617543D

 17 16  0     0  0            999 V2000
   -2.8293    0.4671   -0.1044 C   0  0  0  0  0  0  0  0  0  0  0  0
   -1.5562    0.1520    0.6693 C   0  0  0  0  0  0  0  0  0  0  0  0
   -0.3368    0.1260   -0.2470 C   0  0  0  0  0  0  0  0  0  0  0  0
    0.9329   -0.1855    0.5082 C   0  0  0  0  0  0  0  0  0  0  0  0
    1.0192   -0.3945    1.6881 O   0  0  0  0  0  0  0  0  0  0  0  0
    1.9872   -0.2015   -0.3227 O   0  0  0  0  0  0  0  0  0  0  0  0
    3.2474   -0.4845    0.2699 C   0  0  0  0  0  0  0  0  0  0  0  0
   -3.0066   -0.2825   -0.8727 H   0  0  0  0  0  0  0  0  0  0  0  0
   -2.7546    1.4397   -0.5860 H   0  0  0  0  0  0  0  0  0  0  0  0
   -3.6860    0.4811    0.5644 H   0  0  0  0  0  0  0  0  0  0  0  0
   -1.3996    0.8995    1.4484 H   0  0  0  0  0  0  0  0  0  0  0  0
   -1.6507   -0.8166    1.1627 H   0  0  0  0  0  0  0  0  0  0  0  0
   -0.2046    1.0899   -0.7438 H   0  0  0  0  0  0  0  0  0  0  0  0
   -0.4559   -0.6268   -1.0296 H   0  0  0  0  0  0  0  0  0  0  0  0
    3.9757   -0.4569   -0.5362 H   0  0  0  0  0  0  0  0  0  0  0  0
    3.4857    0.2630    1.0292 H   0  0  0  0  0  0  0  0  0  0  0  0
    3.2322   -1.4695    0.7408 H   0  0  0  0  0  0  0  0  0  0  0  0
  1  2  1  0  0  0  0
  2  3  1  0  0  0  0
  3  4  1  0  0  0  0
  4  5  2  0  0  0  0
  4  6  1  0  0  0  0
  6  7  1  0  0  0  0
  1  8  1  0  0  0  0
  1  9  1  0  0  0  0
  1 10  1  0  0  0  0
  2 11  1  0  0  0  0
  2 12  1  0  0  0  0
  3 13  1  0  0  0  0
  3 14  1  0  0  0  0
  7 15  1  0  0  0  0
  7 16  1  0  0  0  0
  7 17  1  0  0  0  0
M  END
