 xtb: 6.7.1 (edcfbbe)
          07072611403D

 30 29  0     0  0            999 V2000
   -5.4990   -0.4388    0.0373 C   0  0  0  0  0  0  0  0  0  0  0  0
   -4.1870    0.3295    0.1402 C   0  0  0  0  0  0  0  0  0  0  0  0
   -2.9958   -0.5177   -0.3009 C   0  0  0  0  0  0  0  0  0  0  0  0
   -1.6811    0.2486   -0.1897 C   0  0  0  0  0  0  0  0  0  0  0  0
   -0.4908   -0.5973   -0.6307 C   0  0  0  0  0  0  0  0  0  0  0  0
    0.8148    0.1482   -0.4901 C   0  0  0  0  0  0  0  0  0  0  0  0
    0.9446    1.2591   -0.0497 O   0  0  0  0  0  0  0  0  0  0  0  0
    1.8354   -0.6008   -0.9338 O   0  0  0  0  0  0  0  0  0  0  0  0
    3.1392   -0.0283   -0.8567 C   0  0  0  0  0  0  0  0  0  0  0  0
    3.7169   -0.1362    0.5513 C   0  0  0  0  0  0  0  0  0  0  0  0
    5.1319    0.4422    0.6216 C   0  0  0  0  0  0  0  0  0  0  0  0
    5.6994    0.3136    1.9005 O   0  0  0  0  0  0  0  0  0  0  0  0
   -5.4727   -1.3254    0.6672 H   0  0  0  0  0  0  0  0  0  0  0  0
   -6.3325    0.1830    0.3552 H   0  0  0  0  0  0  0  0  0  0  0  0
   -5.6777   -0.7538   -0.9885 H   0  0  0  0  0  0  0  0  0  0  0  0
   -4.2410    1.2256   -0.4817 H   0  0  0  0  0  0  0  0  0  0  0  0
   -4.0356    0.6529    1.1723 H   0  0  0  0  0  0  0  0  0  0  0  0
   -2.9456   -1.4169    0.3180 H   0  0  0  0  0  0  0  0  0  0  0  0
   -3.1445   -0.8367   -1.3354 H   0  0  0  0  0  0  0  0  0  0  0  0
   -1.5264    0.5688    0.8421 H   0  0  0  0  0  0  0  0  0  0  0  0
   -1.7254    1.1493   -0.8046 H   0  0  0  0  0  0  0  0  0  0  0  0
   -0.5940   -0.9042   -1.6736 H   0  0  0  0  0  0  0  0  0  0  0  0
   -0.4204   -1.5084   -0.0319 H   0  0  0  0  0  0  0  0  0  0  0  0
    3.7426   -0.5894   -1.5727 H   0  0  0  0  0  0  0  0  0  0  0  0
    3.0852    1.0235   -1.1584 H   0  0  0  0  0  0  0  0  0  0  0  0
    3.7388   -1.1840    0.8577 H   0  0  0  0  0  0  0  0  0  0  0  0
    3.0660    0.4106    1.2387 H   0  0  0  0  0  0  0  0  0  0  0  0
    5.7983   -0.1056   -0.0490 H   0  0  0  0  0  0  0  0  0  0  0  0
    5.1151    1.4966    0.3090 H   0  0  0  0  0  0  0  0  0  0  0  0
    5.1413    0.7759    2.5363 H   0  0  0  0  0  0  0  0  0  0  0  0
  1  2  1  0  0  0  0
  2  3  1  0  0  0  0
  3  4  1  0  0  0  0
  4  5  1  0  0  0  0
  5  6  1  0  0  0  0
  6  7  2  0  0  0  0
  6  8  1  0  0  0  0
  8  9  1  0  0  0  0
  9 10  1  0  0  0  0
 10 11  1  0  0  0  0
 11 12  1  0  0  0  0
  1 13  1  0  0  0  0
  1 14  1  0  0  0  0
  1 15  1  0  0  0  0
  2 16  1  0  0  0  0
  2 17  1  0  0  0  0
  3 18  1  0  0  0  0
  3 19  1  0  0  0  0
  4 20  1  0  0  0  0
  4 21  1  0  0  0  0
  5 22  1  0  0  0  0
  5 23  1  0  0  0  0
  9 24  1  0  0  0  0
  9 25  1  0  0  0  0
 10 26  1  0  0  0  0
 10 27  1  0  0  0  0
 11 28  1  0  0  0  0
 11 29  1  0  0  0  0
 12 30  1  0  0  0  0
M  END
