 xtb: 6.7.1 (edcfbbe)
          07072610403D

 23 22  0     0  0            999 V2000
    2.2780   -0.0443    0.3606 C   0  0  0  0  0  0  0  0  0  0  0  0
    0.8793   -0.5024    0.7555 C   0  0  0  0  0  0  0  0  0  0  0  0
   -0.2546    0.0125   -0.1491 C   0  0  0  0  0  0  0  0  0  0  0  0
   -1.5999   -0.2891    0.5364 C   0  0  0  0  0  0  0  0  0  0  0  0
   -1.7078    0.4373    1.7480 O   0  0  0  0  0  0  0  0  0  0  0  0
   -0.2495   -0.7210   -1.4986 C   0  0  0  0  0  0  0  0  0  0  0  0
   -0.5098   -2.0933   -1.2968 O   0  0  0  0  0  0  0  0  0  0  0  0
   -0.1416    1.5266   -0.4190 C   0  0  0  0  0  0  0  0  0  0  0  0
    0.1051    2.2881    0.7280 O   0  0  0  0  0  0  0  0  0  0  0  0
    3.0079   -0.5038    1.0232 H   0  0  0  0  0  0  0  0  0  0  0  0
    2.5214   -0.3332   -0.6591 H   0  0  0  0  0  0  0  0  0  0  0  0
    2.3658    1.0341    0.4527 H   0  0  0  0  0  0  0  0  0  0  0  0
    0.8310   -1.5929    0.7447 H   0  0  0  0  0  0  0  0  0  0  0  0
    0.6778   -0.1636    1.7724 H   0  0  0  0  0  0  0  0  0  0  0  0
   -1.6593   -1.3667    0.7253 H   0  0  0  0  0  0  0  0  0  0  0  0
   -2.4201   -0.0094   -0.1409 H   0  0  0  0  0  0  0  0  0  0  0  0
   -2.5148    0.1693    2.1968 H   0  0  0  0  0  0  0  0  0  0  0  0
   -1.0186   -0.2811   -2.1520 H   0  0  0  0  0  0  0  0  0  0  0  0
    0.7253   -0.5802   -1.9814 H   0  0  0  0  0  0  0  0  0  0  0  0
   -0.4193   -2.5519   -2.1380 H   0  0  0  0  0  0  0  0  0  0  0  0
   -1.0706    1.8621   -0.9102 H   0  0  0  0  0  0  0  0  0  0  0  0
    0.6869    1.7238   -1.1045 H   0  0  0  0  0  0  0  0  0  0  0  0
   -0.5125    1.9790    1.4060 H   0  0  0  0  0  0  0  0  0  0  0  0
  1  2  1  0  0  0  0
  2  3  1  0  0  0  0
  3  4  1  0  0  0  0
  4  5  1  0  0  0  0
  3  6  1  0  0  0  0
  6  7  1  0  0  0  0
  3  8  1  0  0  0  0
  8  9  1  0  0  0  0
  1 10  1  0  0  0  0
  1 11  1  0  0  0  0
  1 12  1  0  0  0  0
  2 13  1  0  0  0  0
  2 14  1  0  0  0  0
  4 15  1  0  0  0  0
  4 16  1  0  0  0  0
  5 17  1  0  0  0  0
  6 18  1  0  0  0  0
  6 19  1  0  0  0  0
  7 20  1  0  0  0  0
  8 21  1  0  0  0  0
  8 22  1  0  0  0  0
  9 23  1  0  0  0  0
M  END
