 xtb: 6.7.1 (edcfbbe)
          07092609413D

 15 15  0     0  0            999 V2000
    3.7806    0.2229   -0.2092 Cl  0  0  0  0  0  0  0  0  0  0  0  0
    2.0633    0.1348   -0.1110 C   0  0  0  0  0  0  0  0  0  0  0  0
    1.3333    1.2676    0.2107 C   0  0  0  0  0  0  0  0  0  0  0  0
   -0.0462    1.1956    0.2893 C   0  0  0  0  0  0  0  0  0  0  0  0
   -0.6999   -0.0052    0.0474 C   0  0  0  0  0  0  0  0  0  0  0  0
   -2.1903   -0.1436    0.1178 C   0  0  0  0  0  0  0  0  0  0  0  0
   -2.8177   -0.7008   -1.4633 Cl  0  0  0  0  0  0  0  0  0  0  0  0
   -2.6227   -1.3727    1.3450 Cl  0  0  0  0  0  0  0  0  0  0  0  0
   -3.0375    1.3516    0.5344 Cl  0  0  0  0  0  0  0  0  0  0  0  0
    0.0462   -1.1376   -0.2754 C   0  0  0  0  0  0  0  0  0  0  0  0
    1.4219   -1.0720   -0.3552 C   0  0  0  0  0  0  0  0  0  0  0  0
    1.8388    2.2012    0.3990 H   0  0  0  0  0  0  0  0  0  0  0  0
   -0.6088    2.0801    0.5400 H   0  0  0  0  0  0  0  0  0  0  0  0
   -0.4578   -2.0726   -0.4641 H   0  0  0  0  0  0  0  0  0  0  0  0
    1.9968   -1.9493   -0.6051 H   0  0  0  0  0  0  0  0  0  0  0  0
  1  2  1  0  0  0  0
  2  3  4  0  0  0  0
  3  4  4  0  0  0  0
  4  5  4  0  0  0  0
  5  6  1  0  0  0  0
  6  7  1  0  0  0  0
  6  8  1  0  0  0  0
  6  9  1  0  0  0  0
  5 10  4  0  0  0  0
  2 11  4  0  0  0  0
 10 11  4  0  0  0  0
  3 12  1  0  0  0  0
  4 13  1  0  0  0  0
 10 14  1  0  0  0  0
 11 15  1  0  0  0  0
M  END
