 xtb: 6.7.1 (edcfbbe)
          07082620033D

 24 23  0     0  0            999 V2000
   -3.9517   -0.0882   -0.0881 C   0  0  0  0  0  0  0  0  0  0  0  0
   -2.6258    0.6607   -0.0305 C   0  0  0  0  0  0  0  0  0  0  0  0
   -1.4329   -0.2870   -0.1279 C   0  0  0  0  0  0  0  0  0  0  0  0
   -0.1026    0.4588   -0.0800 C   0  0  0  0  0  0  0  0  0  0  0  0
    1.0879   -0.4928   -0.1641 C   0  0  0  0  0  0  0  0  0  0  0  0
    2.4228    0.2491   -0.0774 C   0  0  0  0  0  0  0  0  0  0  0  0
    3.6004   -0.7025   -0.2941 C   0  0  0  0  0  0  0  0  0  0  0  0
    2.4888    0.8581    1.1984 O   0  0  0  0  0  0  0  0  0  0  0  0
   -4.7876    0.6036   -0.0113 H   0  0  0  0  0  0  0  0  0  0  0  0
   -4.0420   -0.6326   -1.0259 H   0  0  0  0  0  0  0  0  0  0  0  0
   -4.0215   -0.8029    0.7291 H   0  0  0  0  0  0  0  0  0  0  0  0
   -2.5645    1.2197    0.9058 H   0  0  0  0  0  0  0  0  0  0  0  0
   -2.5812    1.3826   -0.8494 H   0  0  0  0  0  0  0  0  0  0  0  0
   -1.4752   -1.0032    0.6959 H   0  0  0  0  0  0  0  0  0  0  0  0
   -1.4976   -0.8530   -1.0609 H   0  0  0  0  0  0  0  0  0  0  0  0
   -0.0298    1.0241    0.8500 H   0  0  0  0  0  0  0  0  0  0  0  0
   -0.0552    1.1701   -0.9084 H   0  0  0  0  0  0  0  0  0  0  0  0
    1.0536   -1.0493   -1.1026 H   0  0  0  0  0  0  0  0  0  0  0  0
    1.0407   -1.2045    0.6618 H   0  0  0  0  0  0  0  0  0  0  0  0
    2.4480    1.0319   -0.8558 H   0  0  0  0  0  0  0  0  0  0  0  0
    3.5939   -1.4773    0.4692 H   0  0  0  0  0  0  0  0  0  0  0  0
    4.5450   -0.1631   -0.2343 H   0  0  0  0  0  0  0  0  0  0  0  0
    3.5325   -1.1707   -1.2721 H   0  0  0  0  0  0  0  0  0  0  0  0
    3.3539    1.2684    1.3012 H   0  0  0  0  0  0  0  0  0  0  0  0
  1  2  1  0  0  0  0
  2  3  1  0  0  0  0
  3  4  1  0  0  0  0
  4  5  1  0  0  0  0
  5  6  1  0  0  0  0
  6  7  1  0  0  0  0
  6  8  1  0  0  0  0
  1  9  1  0  0  0  0
  1 10  1  0  0  0  0
  1 11  1  0  0  0  0
  2 12  1  0  0  0  0
  2 13  1  0  0  0  0
  3 14  1  0  0  0  0
  3 15  1  0  0  0  0
  4 16  1  0  0  0  0
  4 17  1  0  0  0  0
  5 18  1  0  0  0  0
  5 19  1  0  0  0  0
  6 20  1  0  0  0  0
  7 21  1  0  0  0  0
  7 22  1  0  0  0  0
  7 23  1  0  0  0  0
  8 24  1  0  0  0  0
M  END
