 xtb: 6.7.1 (edcfbbe)
          07082621133D

 21 20  0     0  0            999 V2000
   -2.1899    1.1692   -0.6525 C   0  0  0  0  0  0  0  0  0  0  0  0
   -1.8779    0.3352    0.5841 C   0  0  0  0  0  0  0  0  0  0  0  0
   -0.6733   -0.5786    0.3720 C   0  0  0  0  0  0  0  0  0  0  0  0
   -0.4406   -1.5211    1.5474 C   0  0  0  0  0  0  0  0  0  0  0  0
    0.4817    0.2718    0.2087 O   0  0  0  0  0  0  0  0  0  0  0  0
    1.4731   -0.1751   -0.5380 C   0  0  0  0  0  0  0  0  0  0  0  0
    1.5091   -1.2368   -1.1115 O   0  0  0  0  0  0  0  0  0  0  0  0
    2.6227    0.8143   -0.6288 C   0  0  0  0  0  0  0  0  0  0  0  0
    3.6427    0.3034   -1.4342 O   0  0  0  0  0  0  0  0  0  0  0  0
   -1.3359    1.7884   -0.9153 H   0  0  0  0  0  0  0  0  0  0  0  0
   -2.4249    0.5265   -1.4981 H   0  0  0  0  0  0  0  0  0  0  0  0
   -3.0415    1.8180   -0.4653 H   0  0  0  0  0  0  0  0  0  0  0  0
   -2.7373   -0.2860    0.8394 H   0  0  0  0  0  0  0  0  0  0  0  0
   -1.6656    0.9928    1.4284 H   0  0  0  0  0  0  0  0  0  0  0  0
   -0.7912   -1.1621   -0.5499 H   0  0  0  0  0  0  0  0  0  0  0  0
    0.4365   -2.1367    1.3625 H   0  0  0  0  0  0  0  0  0  0  0  0
   -1.3013   -2.1709    1.6754 H   0  0  0  0  0  0  0  0  0  0  0  0
   -0.2860   -0.9496    2.4596 H   0  0  0  0  0  0  0  0  0  0  0  0
    3.0005    1.0132    0.3827 H   0  0  0  0  0  0  0  0  0  0  0  0
    2.2477    1.7584   -1.0452 H   0  0  0  0  0  0  0  0  0  0  0  0
    3.3515   -0.5743   -1.7356 H   0  0  0  0  0  0  0  0  0  0  0  0
  1  2  1  0  0  0  0
  2  3  1  0  0  0  0
  3  4  1  0  0  0  0
  3  5  1  0  0  0  0
  5  6  1  0  0  0  0
  6  7  2  0  0  0  0
  6  8  1  0  0  0  0
  8  9  1  0  0  0  0
  1 10  1  0  0  0  0
  1 11  1  0  0  0  0
  1 12  1  0  0  0  0
  2 13  1  0  0  0  0
  2 14  1  0  0  0  0
  3 15  1  0  0  0  0
  4 16  1  0  0  0  0
  4 17  1  0  0  0  0
  4 18  1  0  0  0  0
  8 19  1  0  0  0  0
  8 20  1  0  0  0  0
  9 21  1  0  0  0  0
M  END
