 xtb: 6.7.1 (edcfbbe)
          07092610073D

 25 25  0     0  0            999 V2000
    4.6509   -0.7819    0.1539 C   0  0  0  0  0  0  0  0  0  0  0  0
    3.5366   -0.2001    0.5710 C   0  0  0  0  0  0  0  0  0  0  0  0
    2.2642   -0.3619   -0.1688 C   0  0  0  0  0  0  0  0  0  0  0  0
    2.1304   -0.9921   -1.1894 O   0  0  0  0  0  0  0  0  0  0  0  0
    1.2764    0.2965    0.4457 O   0  0  0  0  0  0  0  0  0  0  0  0
   -0.0266    0.2400   -0.1499 C   0  0  0  0  0  0  0  0  0  0  0  0
   -0.7584   -1.0266    0.2926 C   0  0  0  0  0  0  0  0  0  0  0  0
   -2.1717   -1.0434   -0.2809 C   0  0  0  0  0  0  0  0  0  0  0  0
   -2.9410    0.2015    0.1510 C   0  0  0  0  0  0  0  0  0  0  0  0
   -2.2041    1.4621   -0.2917 C   0  0  0  0  0  0  0  0  0  0  0  0
   -0.7908    1.4862    0.2825 C   0  0  0  0  0  0  0  0  0  0  0  0
    5.5870   -0.6790    0.6753 H   0  0  0  0  0  0  0  0  0  0  0  0
    4.6424   -1.3855   -0.7393 H   0  0  0  0  0  0  0  0  0  0  0  0
    3.4842    0.4139    1.4571 H   0  0  0  0  0  0  0  0  0  0  0  0
    0.0985    0.2233   -1.2408 H   0  0  0  0  0  0  0  0  0  0  0  0
   -0.2000   -1.9008   -0.0470 H   0  0  0  0  0  0  0  0  0  0  0  0
   -0.7959   -1.0457    1.3844 H   0  0  0  0  0  0  0  0  0  0  0  0
   -2.1173   -1.0773   -1.3711 H   0  0  0  0  0  0  0  0  0  0  0  0
   -2.6917   -1.9414    0.0571 H   0  0  0  0  0  0  0  0  0  0  0  0
   -3.0448    0.2051    1.2383 H   0  0  0  0  0  0  0  0  0  0  0  0
   -3.9431    0.1868   -0.2815 H   0  0  0  0  0  0  0  0  0  0  0  0
   -2.1518    1.4869   -1.3824 H   0  0  0  0  0  0  0  0  0  0  0  0
   -2.7475    2.3493    0.0385 H   0  0  0  0  0  0  0  0  0  0  0  0
   -0.8300    1.5078    1.3733 H   0  0  0  0  0  0  0  0  0  0  0  0
   -0.2561    2.3763   -0.0532 H   0  0  0  0  0  0  0  0  0  0  0  0
  1  2  2  0  0  0  0
  2  3  1  0  0  0  0
  3  4  2  0  0  0  0
  3  5  1  0  0  0  0
  5  6  1  0  0  0  0
  6  7  1  0  0  0  0
  7  8  1  0  0  0  0
  8  9  1  0  0  0  0
  9 10  1  0  0  0  0
  6 11  1  0  0  0  0
 10 11  1  0  0  0  0
  1 12  1  0  0  0  0
  1 13  1  0  0  0  0
  2 14  1  0  0  0  0
  6 15  1  0  0  0  0
  7 16  1  0  0  0  0
  7 17  1  0  0  0  0
  8 18  1  0  0  0  0
  8 19  1  0  0  0  0
  9 20  1  0  0  0  0
  9 21  1  0  0  0  0
 10 22  1  0  0  0  0
 10 23  1  0  0  0  0
 11 24  1  0  0  0  0
 11 25  1  0  0  0  0
M  END
