 xtb: 6.7.1 (edcfbbe)
          07082618203D

 15 14  0     0  0            999 V2000
    2.3509    0.2752   -0.7892 C   0  0  0  0  0  0  0  0  0  0  0  0
    1.0188    0.6423   -0.4438 O   0  0  0  0  0  0  0  0  0  0  0  0
    0.1086   -0.3224   -0.5059 C   0  0  0  0  0  0  0  0  0  0  0  0
    0.3327   -1.4611   -0.8330 O   0  0  0  0  0  0  0  0  0  0  0  0
   -1.2750    0.1443   -0.0742 C   0  0  0  0  0  0  0  0  0  0  0  0
   -1.2648    0.3411    1.4498 C   0  0  0  0  0  0  0  0  0  0  0  0
   -2.2297   -0.7985   -0.4741 O   0  0  0  0  0  0  0  0  0  0  0  0
    2.4009   -0.0145   -1.8405 H   0  0  0  0  0  0  0  0  0  0  0  0
    2.6829   -0.5645   -0.1759 H   0  0  0  0  0  0  0  0  0  0  0  0
    2.9647    1.1527   -0.6052 H   0  0  0  0  0  0  0  0  0  0  0  0
   -1.5104    1.0955   -0.5653 H   0  0  0  0  0  0  0  0  0  0  0  0
   -2.2591    0.6328    1.7757 H   0  0  0  0  0  0  0  0  0  0  0  0
   -0.9959   -0.5901    1.9442 H   0  0  0  0  0  0  0  0  0  0  0  0
   -0.5521    1.1144    1.7208 H   0  0  0  0  0  0  0  0  0  0  0  0
   -1.7724   -1.6472   -0.5832 H   0  0  0  0  0  0  0  0  0  0  0  0
  1  2  1  0  0  0  0
  2  3  1  0  0  0  0
  3  4  2  0  0  0  0
  3  5  1  0  0  0  0
  5  6  1  0  0  0  0
  5  7  1  0  0  0  0
  1  8  1  0  0  0  0
  1  9  1  0  0  0  0
  1 10  1  0  0  0  0
  5 11  1  0  0  0  0
  6 12  1  0  0  0  0
  6 13  1  0  0  0  0
  6 14  1  0  0  0  0
  7 15  1  0  0  0  0
M  END
