 xtb: 6.7.1 (edcfbbe)
          07082623443D

 18 18  0     0  0            999 V2000
   -2.5602   -0.8008   -0.2282 C   0  0  0  0  0  0  0  0  0  0  0  0
   -1.6479    0.3961   -0.1575 C   0  0  0  0  0  0  0  0  0  0  0  0
   -2.1192    1.5272   -0.2143 O   0  0  0  0  0  0  0  0  0  0  0  0
   -0.2071    0.1658   -0.0211 C   0  0  0  0  0  0  0  0  0  0  0  0
    0.3415   -1.1224    0.0447 C   0  0  0  0  0  0  0  0  0  0  0  0
    1.6967   -1.3167    0.1726 C   0  0  0  0  0  0  0  0  0  0  0  0
    2.5511   -0.2196    0.2392 C   0  0  0  0  0  0  0  0  0  0  0  0
    2.0454    1.0572    0.1775 C   0  0  0  0  0  0  0  0  0  0  0  0
    0.6692    1.2748    0.0473 C   0  0  0  0  0  0  0  0  0  0  0  0
    0.2420    2.5362   -0.0069 O   0  0  0  0  0  0  0  0  0  0  0  0
   -2.3057   -1.4196   -1.0858 H   0  0  0  0  0  0  0  0  0  0  0  0
   -3.5860   -0.4543   -0.3274 H   0  0  0  0  0  0  0  0  0  0  0  0
   -2.4690   -1.3992    0.6755 H   0  0  0  0  0  0  0  0  0  0  0  0
   -0.3087   -1.9811   -0.0057 H   0  0  0  0  0  0  0  0  0  0  0  0
    2.0977   -2.3174    0.2214 H   0  0  0  0  0  0  0  0  0  0  0  0
    3.6154   -0.3713    0.3397 H   0  0  0  0  0  0  0  0  0  0  0  0
    2.6880    1.9220    0.2271 H   0  0  0  0  0  0  0  0  0  0  0  0
   -0.7433    2.5230   -0.0982 H   0  0  0  0  0  0  0  0  0  0  0  0
  1  2  1  0  0  0  0
  2  3  2  0  0  0  0
  2  4  1  0  0  0  0
  4  5  4  0  0  0  0
  5  6  4  0  0  0  0
  6  7  4  0  0  0  0
  7  8  4  0  0  0  0
  4  9  4  0  0  0  0
  8  9  4  0  0  0  0
  9 10  1  0  0  0  0
  1 11  1  0  0  0  0
  1 12  1  0  0  0  0
  1 13  1  0  0  0  0
  5 14  1  0  0  0  0
  6 15  1  0  0  0  0
  7 16  1  0  0  0  0
  8 17  1  0  0  0  0
 10 18  1  0  0  0  0
M  END
