 xtb: 6.7.1 (edcfbbe)
          07082614063D

 33 34  0     0  0            999 V2000
    0.6033    0.6429   -2.3231 O   0  0  0  0  0  0  0  0  0  0  0  0
    1.2852    0.4401   -1.1045 C   0  0  0  0  0  0  0  0  0  0  0  0
    2.6981   -0.0392   -1.4309 C   0  0  0  0  0  0  0  0  0  0  0  0
    3.4951   -0.3042   -0.1592 C   0  0  0  0  0  0  0  0  0  0  0  0
    2.7779   -1.3266    0.7171 C   0  0  0  0  0  0  0  0  0  0  0  0
    1.3736   -0.8379    1.0583 C   0  0  0  0  0  0  0  0  0  0  0  0
    0.5643   -0.5970   -0.2180 C   0  0  0  0  0  0  0  0  0  0  0  0
   -0.8548   -0.1595    0.0523 C   0  0  0  0  0  0  0  0  0  0  0  0
   -1.8697   -0.6946   -0.6183 C   0  0  0  0  0  0  0  0  0  0  0  0
   -3.3070   -0.3079   -0.4481 C   0  0  0  0  0  0  0  0  0  0  0  0
   -3.5201    0.5337    0.8060 C   0  0  0  0  0  0  0  0  0  0  0  0
   -2.4334    1.5982    0.8940 C   0  0  0  0  0  0  0  0  0  0  0  0
   -1.0730    0.9286    1.0686 C   0  0  0  0  0  0  0  0  0  0  0  0
   -0.3423    0.6936   -2.1318 H   0  0  0  0  0  0  0  0  0  0  0  0
    1.3496    1.3976   -0.5581 H   0  0  0  0  0  0  0  0  0  0  0  0
    3.1900    0.7154   -2.0460 H   0  0  0  0  0  0  0  0  0  0  0  0
    2.6197   -0.9521   -2.0241 H   0  0  0  0  0  0  0  0  0  0  0  0
    3.6139    0.6291    0.3966 H   0  0  0  0  0  0  0  0  0  0  0  0
    4.4908   -0.6674   -0.4198 H   0  0  0  0  0  0  0  0  0  0  0  0
    3.3441   -1.4929    1.6360 H   0  0  0  0  0  0  0  0  0  0  0  0
    2.7136   -2.2787    0.1859 H   0  0  0  0  0  0  0  0  0  0  0  0
    1.4494    0.0888    1.6299 H   0  0  0  0  0  0  0  0  0  0  0  0
    0.8593   -1.5768    1.6769 H   0  0  0  0  0  0  0  0  0  0  0  0
    0.5299   -1.5319   -0.7894 H   0  0  0  0  0  0  0  0  0  0  0  0
   -1.6832   -1.4676   -1.3535 H   0  0  0  0  0  0  0  0  0  0  0  0
   -3.6270    0.2553   -1.3325 H   0  0  0  0  0  0  0  0  0  0  0  0
   -3.9227   -1.2104   -0.4081 H   0  0  0  0  0  0  0  0  0  0  0  0
   -3.4651   -0.1066    1.6889 H   0  0  0  0  0  0  0  0  0  0  0  0
   -4.5093    0.9948    0.7847 H   0  0  0  0  0  0  0  0  0  0  0  0
   -2.6247    2.2714    1.7319 H   0  0  0  0  0  0  0  0  0  0  0  0
   -2.4355    2.1927   -0.0226 H   0  0  0  0  0  0  0  0  0  0  0  0
   -0.2804    1.6762    0.9897 H   0  0  0  0  0  0  0  0  0  0  0  0
   -1.0097    0.4932    2.0710 H   0  0  0  0  0  0  0  0  0  0  0  0
  1  2  1  0  0  0  0
  2  3  1  0  0  0  0
  3  4  1  0  0  0  0
  4  5  1  0  0  0  0
  5  6  1  0  0  0  0
  2  7  1  0  0  0  0
  6  7  1  0  0  0  0
  7  8  1  0  0  0  0
  8  9  2  0  0  0  0
  9 10  1  0  0  0  0
 10 11  1  0  0  0  0
 11 12  1  0  0  0  0
  8 13  1  0  0  0  0
 12 13  1  0  0  0  0
  1 14  1  0  0  0  0
  2 15  1  0  0  0  0
  3 16  1  0  0  0  0
  3 17  1  0  0  0  0
  4 18  1  0  0  0  0
  4 19  1  0  0  0  0
  5 20  1  0  0  0  0
  5 21  1  0  0  0  0
  6 22  1  0  0  0  0
  6 23  1  0  0  0  0
  7 24  1  0  0  0  0
  9 25  1  0  0  0  0
 10 26  1  0  0  0  0
 10 27  1  0  0  0  0
 11 28  1  0  0  0  0
 11 29  1  0  0  0  0
 12 30  1  0  0  0  0
 12 31  1  0  0  0  0
 13 32  1  0  0  0  0
 13 33  1  0  0  0  0
M  END
