 xtb: 6.7.1 (edcfbbe)
          07092611183D

 29 29  0     0  0            999 V2000
    2.9991   -0.2333    1.4281 C   0  0  0  0  0  0  0  0  0  0  0  0
    1.7359   -0.4820    0.6049 C   0  0  0  0  0  0  0  0  0  0  0  0
    2.0860   -1.2641   -0.6577 C   0  0  0  0  0  0  0  0  0  0  0  0
    1.0624    0.8568    0.2773 C   0  0  0  0  0  0  0  0  0  0  0  0
   -0.4316    0.7586   -0.0902 C   0  0  0  0  0  0  0  0  0  0  0  0
   -1.0250    2.1813   -0.1316 C   0  0  0  0  0  0  0  0  0  0  0  0
   -0.5078    0.1435   -1.3620 O   0  0  0  0  0  0  0  0  0  0  0  0
   -1.7945   -0.2853   -1.7548 C   0  0  0  0  0  0  0  0  0  0  0  0
   -2.4089   -1.1988   -0.6960 C   0  0  0  0  0  0  0  0  0  0  0  0
   -2.3626   -0.4444    0.6315 C   0  0  0  0  0  0  0  0  0  0  0  0
   -1.0473   -0.0189    0.9178 O   0  0  0  0  0  0  0  0  0  0  0  0
    3.4941   -1.1750    1.6544 H   0  0  0  0  0  0  0  0  0  0  0  0
    3.6948    0.3943    0.8743 H   0  0  0  0  0  0  0  0  0  0  0  0
    2.7604    0.2616    2.3668 H   0  0  0  0  0  0  0  0  0  0  0  0
    1.0359   -1.0682    1.2067 H   0  0  0  0  0  0  0  0  0  0  0  0
    1.2049   -1.4001   -1.2757 H   0  0  0  0  0  0  0  0  0  0  0  0
    2.4911   -2.2403   -0.3987 H   0  0  0  0  0  0  0  0  0  0  0  0
    2.8313   -0.7252   -1.2397 H   0  0  0  0  0  0  0  0  0  0  0  0
    1.5748    1.3344   -0.5580 H   0  0  0  0  0  0  0  0  0  0  0  0
    1.1299    1.5063    1.1504 H   0  0  0  0  0  0  0  0  0  0  0  0
   -0.9853    2.6130    0.8644 H   0  0  0  0  0  0  0  0  0  0  0  0
   -2.0586    2.1759   -0.4668 H   0  0  0  0  0  0  0  0  0  0  0  0
   -0.4422    2.7896   -0.8169 H   0  0  0  0  0  0  0  0  0  0  0  0
   -1.6426   -0.8112   -2.7005 H   0  0  0  0  0  0  0  0  0  0  0  0
   -2.4556    0.5750   -1.9374 H   0  0  0  0  0  0  0  0  0  0  0  0
   -3.4332   -1.4606   -0.9579 H   0  0  0  0  0  0  0  0  0  0  0  0
   -1.8103   -2.1072   -0.6131 H   0  0  0  0  0  0  0  0  0  0  0  0
   -3.0524    0.4122    0.6019 H   0  0  0  0  0  0  0  0  0  0  0  0
   -2.6424   -1.0878    1.4687 H   0  0  0  0  0  0  0  0  0  0  0  0
  1  2  1  0  0  0  0
  2  3  1  0  0  0  0
  2  4  1  0  0  0  0
  4  5  1  0  0  0  0
  5  6  1  0  0  0  0
  5  7  1  0  0  0  0
  7  8  1  0  0  0  0
  8  9  1  0  0  0  0
  9 10  1  0  0  0  0
  5 11  1  0  0  0  0
 10 11  1  0  0  0  0
  1 12  1  0  0  0  0
  1 13  1  0  0  0  0
  1 14  1  0  0  0  0
  2 15  1  0  0  0  0
  3 16  1  0  0  0  0
  3 17  1  0  0  0  0
  3 18  1  0  0  0  0
  4 19  1  0  0  0  0
  4 20  1  0  0  0  0
  6 21  1  0  0  0  0
  6 22  1  0  0  0  0
  6 23  1  0  0  0  0
  8 24  1  0  0  0  0
  8 25  1  0  0  0  0
  9 26  1  0  0  0  0
  9 27  1  0  0  0  0
 10 28  1  0  0  0  0
 10 29  1  0  0  0  0
M  END
