 xtb: 6.7.1 (edcfbbe)
          07082618543D

 16 16  0     0  0            999 V2000
    0.9279   -2.4215    0.5136 O   0  0  0  0  0  0  0  0  0  0  0  0
    0.5022   -1.4147    0.0171 C   0  0  0  0  0  0  0  0  0  0  0  0
   -0.9633   -1.0542   -0.0380 C   0  0  0  0  0  0  0  0  0  0  0  0
   -1.1840    0.3013    0.6354 C   0  0  0  0  0  0  0  0  0  0  0  0
   -0.3370    1.3879   -0.0291 C   0  0  0  0  0  0  0  0  0  0  0  0
    1.1211    0.9982    0.0259 C   0  0  0  0  0  0  0  0  0  0  0  0
    1.9780    1.6724    0.5286 O   0  0  0  0  0  0  0  0  0  0  0  0
    1.4029   -0.3576   -0.5925 C   0  0  0  0  0  0  0  0  0  0  0  0
   -1.2774   -1.0022   -1.0831 H   0  0  0  0  0  0  0  0  0  0  0  0
   -1.5426   -1.8308    0.4626 H   0  0  0  0  0  0  0  0  0  0  0  0
   -2.2390    0.5722    0.5751 H   0  0  0  0  0  0  0  0  0  0  0  0
   -0.9155    0.2286    1.6915 H   0  0  0  0  0  0  0  0  0  0  0  0
   -0.4718    2.3441    0.4778 H   0  0  0  0  0  0  0  0  0  0  0  0
   -0.6354    1.5007   -1.0739 H   0  0  0  0  0  0  0  0  0  0  0  0
    2.4508   -0.6270   -0.4510 H   0  0  0  0  0  0  0  0  0  0  0  0
    1.1830   -0.2973   -1.6602 H   0  0  0  0  0  0  0  0  0  0  0  0
  1  2  2  0  0  0  0
  2  3  1  0  0  0  0
  3  4  1  0  0  0  0
  4  5  1  0  0  0  0
  5  6  1  0  0  0  0
  6  7  2  0  0  0  0
  2  8  1  0  0  0  0
  6  8  1  0  0  0  0
  3  9  1  0  0  0  0
  3 10  1  0  0  0  0
  4 11  1  0  0  0  0
  4 12  1  0  0  0  0
  5 13  1  0  0  0  0
  5 14  1  0  0  0  0
  8 15  1  0  0  0  0
  8 16  1  0  0  0  0
M  END
