 xtb: 6.7.1 (edcfbbe)
          07072620593D

 30 29  0     0  0            999 V2000
   -3.1158   -0.7247    0.8765 C   0  0  0  0  0  0  0  0  0  0  0  0
   -2.7866    0.5841    0.2207 C   0  0  0  0  0  0  0  0  0  0  0  0
   -3.8080    1.6570    0.4671 C   0  0  0  0  0  0  0  0  0  0  0  0
   -1.7124    0.8133   -0.5243 C   0  0  0  0  0  0  0  0  0  0  0  0
   -0.6098   -0.1482   -0.8510 C   0  0  0  0  0  0  0  0  0  0  0  0
    0.5851    0.0699    0.0846 C   0  0  0  0  0  0  0  0  0  0  0  0
    1.7991   -0.7988   -0.2621 C   0  0  0  0  0  0  0  0  0  0  0  0
    1.5456   -2.2746    0.0314 C   0  0  0  0  0  0  0  0  0  0  0  0
    3.0201   -0.3144    0.5291 C   0  0  0  0  0  0  0  0  0  0  0  0
    3.5219    1.0207    0.0446 C   0  0  0  0  0  0  0  0  0  0  0  0
    3.4707    1.4306   -1.0831 O   0  0  0  0  0  0  0  0  0  0  0  0
    4.0794    1.7294    1.0382 O   0  0  0  0  0  0  0  0  0  0  0  0
   -3.3428   -0.5624    1.9297 H   0  0  0  0  0  0  0  0  0  0  0  0
   -2.3010   -1.4375    0.8077 H   0  0  0  0  0  0  0  0  0  0  0  0
   -4.0009   -1.1618    0.4130 H   0  0  0  0  0  0  0  0  0  0  0  0
   -3.5553    2.5722   -0.0616 H   0  0  0  0  0  0  0  0  0  0  0  0
   -3.8753    1.8782    1.5323 H   0  0  0  0  0  0  0  0  0  0  0  0
   -4.7915    1.3233    0.1372 H   0  0  0  0  0  0  0  0  0  0  0  0
   -1.5709    1.8071   -0.9306 H   0  0  0  0  0  0  0  0  0  0  0  0
   -0.9611   -1.1765   -0.7772 H   0  0  0  0  0  0  0  0  0  0  0  0
   -0.2839    0.0225   -1.8796 H   0  0  0  0  0  0  0  0  0  0  0  0
    0.2753   -0.1288    1.1137 H   0  0  0  0  0  0  0  0  0  0  0  0
    0.8777    1.1206    0.0227 H   0  0  0  0  0  0  0  0  0  0  0  0
    2.0223   -0.6761   -1.3269 H   0  0  0  0  0  0  0  0  0  0  0  0
    1.3125   -2.4174    1.0849 H   0  0  0  0  0  0  0  0  0  0  0  0
    2.4236   -2.8696   -0.2103 H   0  0  0  0  0  0  0  0  0  0  0  0
    0.7148   -2.6492   -0.5596 H   0  0  0  0  0  0  0  0  0  0  0  0
    3.8460   -1.0204    0.4042 H   0  0  0  0  0  0  0  0  0  0  0  0
    2.7998   -0.2416    1.5948 H   0  0  0  0  0  0  0  0  0  0  0  0
    4.4214    2.5734    0.7025 H   0  0  0  0  0  0  0  0  0  0  0  0
  1  2  1  0  0  0  0
  2  3  1  0  0  0  0
  2  4  2  0  0  0  0
  4  5  1  0  0  0  0
  5  6  1  0  0  0  0
  6  7  1  0  0  0  0
  7  8  1  0  0  0  0
  7  9  1  0  0  0  0
  9 10  1  0  0  0  0
 10 11  2  0  0  0  0
 10 12  1  0  0  0  0
  1 13  1  0  0  0  0
  1 14  1  0  0  0  0
  1 15  1  0  0  0  0
  3 16  1  0  0  0  0
  3 17  1  0  0  0  0
  3 18  1  0  0  0  0
  4 19  1  0  0  0  0
  5 20  1  0  0  0  0
  5 21  1  0  0  0  0
  6 22  1  0  0  0  0
  6 23  1  0  0  0  0
  7 24  1  0  0  0  0
  8 25  1  0  0  0  0
  8 26  1  0  0  0  0
  8 27  1  0  0  0  0
  9 28  1  0  0  0  0
  9 29  1  0  0  0  0
 12 30  1  0  0  0  0
M  END
