 xtb: 6.7.1 (edcfbbe)
          07092606053D

 29 28  0     0  0            999 V2000
    4.6736    0.9199    0.8462 C   0  0  0  0  0  0  0  0  0  0  0  0
    3.2536    1.1235    0.3324 C   0  0  0  0  0  0  0  0  0  0  0  0
    2.4917   -0.1963    0.2371 C   0  0  0  0  0  0  0  0  0  0  0  0
    1.0695    0.0025   -0.2789 C   0  0  0  0  0  0  0  0  0  0  0  0
    0.3085   -1.3238   -0.3688 C   0  0  0  0  0  0  0  0  0  0  0  0
   -1.0577   -1.0968   -0.9739 C   0  0  0  0  0  0  0  0  0  0  0  0
   -1.2549   -0.6519   -2.0741 O   0  0  0  0  0  0  0  0  0  0  0  0
   -2.0206   -1.4525   -0.1182 O   0  0  0  0  0  0  0  0  0  0  0  0
   -3.3794   -1.2513   -0.5081 C   0  0  0  0  0  0  0  0  0  0  0  0
   -4.0144   -0.1275    0.3076 C   0  0  0  0  0  0  0  0  0  0  0  0
   -3.3810    1.2251    0.0055 C   0  0  0  0  0  0  0  0  0  0  0  0
    5.2296    0.2636    0.1803 H   0  0  0  0  0  0  0  0  0  0  0  0
    5.1986    1.8702    0.9081 H   0  0  0  0  0  0  0  0  0  0  0  0
    4.6604    0.4699    1.8366 H   0  0  0  0  0  0  0  0  0  0  0  0
    2.7192    1.8016    1.0018 H   0  0  0  0  0  0  0  0  0  0  0  0
    3.2872    1.5914   -0.6538 H   0  0  0  0  0  0  0  0  0  0  0  0
    2.4567   -0.6642    1.2240 H   0  0  0  0  0  0  0  0  0  0  0  0
    3.0278   -0.8735   -0.4316 H   0  0  0  0  0  0  0  0  0  0  0  0
    1.0950    0.4588   -1.2703 H   0  0  0  0  0  0  0  0  0  0  0  0
    0.5337    0.6824    0.3880 H   0  0  0  0  0  0  0  0  0  0  0  0
    0.1942   -1.7754    0.6164 H   0  0  0  0  0  0  0  0  0  0  0  0
    0.8574   -2.0090   -1.0181 H   0  0  0  0  0  0  0  0  0  0  0  0
   -3.8956   -2.1981   -0.3257 H   0  0  0  0  0  0  0  0  0  0  0  0
   -3.4056   -1.0149   -1.5769 H   0  0  0  0  0  0  0  0  0  0  0  0
   -5.0794   -0.1016    0.0709 H   0  0  0  0  0  0  0  0  0  0  0  0
   -3.9048   -0.3586    1.3689 H   0  0  0  0  0  0  0  0  0  0  0  0
   -2.3252    1.2186    0.2671 H   0  0  0  0  0  0  0  0  0  0  0  0
   -3.8709    2.0095    0.5772 H   0  0  0  0  0  0  0  0  0  0  0  0
   -3.4674    1.4585   -1.0532 H   0  0  0  0  0  0  0  0  0  0  0  0
  1  2  1  0  0  0  0
  2  3  1  0  0  0  0
  3  4  1  0  0  0  0
  4  5  1  0  0  0  0
  5  6  1  0  0  0  0
  6  7  2  0  0  0  0
  6  8  1  0  0  0  0
  8  9  1  0  0  0  0
  9 10  1  0  0  0  0
 10 11  1  0  0  0  0
  1 12  1  0  0  0  0
  1 13  1  0  0  0  0
  1 14  1  0  0  0  0
  2 15  1  0  0  0  0
  2 16  1  0  0  0  0
  3 17  1  0  0  0  0
  3 18  1  0  0  0  0
  4 19  1  0  0  0  0
  4 20  1  0  0  0  0
  5 21  1  0  0  0  0
  5 22  1  0  0  0  0
  9 23  1  0  0  0  0
  9 24  1  0  0  0  0
 10 25  1  0  0  0  0
 10 26  1  0  0  0  0
 11 27  1  0  0  0  0
 11 28  1  0  0  0  0
 11 29  1  0  0  0  0
M  END
