 xtb: 6.7.1 (edcfbbe)
          07082615313D

 26 26  0     0  0            999 V2000
   -2.7709   -0.8509   -0.8817 C   0  0  0  0  0  0  0  0  0  0  0  0
   -2.1941   -0.0378   -0.0115 C   0  0  0  0  0  0  0  0  0  0  0  0
   -2.9857    0.6739    1.0452 C   0  0  0  0  0  0  0  0  0  0  0  0
   -0.7085    0.2267    0.0253 C   0  0  0  0  0  0  0  0  0  0  0  0
   -0.0090   -0.7924    0.9354 C   0  0  0  0  0  0  0  0  0  0  0  0
    1.4818   -0.6649    0.8624 C   0  0  0  0  0  0  0  0  0  0  0  0
    2.1321   -0.0065   -0.0862 C   0  0  0  0  0  0  0  0  0  0  0  0
    3.6261    0.1100   -0.1128 C   0  0  0  0  0  0  0  0  0  0  0  0
    1.4082    0.6862   -1.2086 C   0  0  0  0  0  0  0  0  0  0  0  0
   -0.0272    0.1876   -1.3427 C   0  0  0  0  0  0  0  0  0  0  0  0
   -3.8331   -1.0303   -0.8653 H   0  0  0  0  0  0  0  0  0  0  0  0
   -2.2198   -1.3697   -1.6457 H   0  0  0  0  0  0  0  0  0  0  0  0
   -2.5809    0.4566    2.0329 H   0  0  0  0  0  0  0  0  0  0  0  0
   -4.0303    0.3749    1.0220 H   0  0  0  0  0  0  0  0  0  0  0  0
   -2.9284    1.7519    0.8944 H   0  0  0  0  0  0  0  0  0  0  0  0
   -0.5484    1.2238    0.4515 H   0  0  0  0  0  0  0  0  0  0  0  0
   -0.3335   -0.6594    1.9710 H   0  0  0  0  0  0  0  0  0  0  0  0
   -0.3022   -1.8049    0.6361 H   0  0  0  0  0  0  0  0  0  0  0  0
    2.0316   -1.1627    1.6508 H   0  0  0  0  0  0  0  0  0  0  0  0
    3.9223    1.1585   -0.1402 H   0  0  0  0  0  0  0  0  0  0  0  0
    4.0719   -0.3568    0.7616 H   0  0  0  0  0  0  0  0  0  0  0  0
    4.0271   -0.3695   -1.0059 H   0  0  0  0  0  0  0  0  0  0  0  0
    1.9495    0.5240   -2.1445 H   0  0  0  0  0  0  0  0  0  0  0  0
    1.4111    1.7656   -1.0202 H   0  0  0  0  0  0  0  0  0  0  0  0
   -0.0126   -0.8375   -1.7150 H   0  0  0  0  0  0  0  0  0  0  0  0
   -0.5773    0.8035   -2.0568 H   0  0  0  0  0  0  0  0  0  0  0  0
  1  2  2  0  0  0  0
  2  3  1  0  0  0  0
  2  4  1  0  0  0  0
  4  5  1  0  0  0  0
  5  6  1  0  0  0  0
  6  7  2  0  0  0  0
  7  8  1  0  0  0  0
  7  9  1  0  0  0  0
  4 10  1  0  0  0  0
  9 10  1  0  0  0  0
  1 11  1  0  0  0  0
  1 12  1  0  0  0  0
  3 13  1  0  0  0  0
  3 14  1  0  0  0  0
  3 15  1  0  0  0  0
  4 16  1  0  0  0  0
  5 17  1  0  0  0  0
  5 18  1  0  0  0  0
  6 19  1  0  0  0  0
  8 20  1  0  0  0  0
  8 21  1  0  0  0  0
  8 22  1  0  0  0  0
  9 23  1  0  0  0  0
  9 24  1  0  0  0  0
 10 25  1  0  0  0  0
 10 26  1  0  0  0  0
M  END
