 xtb: 6.7.1 (edcfbbe)
          07092615103D

 24 24  0     0  0            999 V2000
    4.2622    0.6457   -0.3877 C   0  0  0  0  0  0  0  0  0  0  0  0
    3.2431   -0.4210   -0.0144 C   0  0  0  0  0  0  0  0  0  0  0  0
    1.8239    0.0842   -0.1593 C   0  0  0  0  0  0  0  0  0  0  0  0
    1.5046    1.2282   -0.3271 O   0  0  0  0  0  0  0  0  0  0  0  0
    0.9687   -0.9506   -0.0761 O   0  0  0  0  0  0  0  0  0  0  0  0
   -0.4093   -0.7578   -0.1276 C   0  0  0  0  0  0  0  0  0  0  0  0
   -1.1406   -1.6830   -0.8611 C   0  0  0  0  0  0  0  0  0  0  0  0
   -2.5168   -1.5701   -0.9062 C   0  0  0  0  0  0  0  0  0  0  0  0
   -3.1567   -0.5451   -0.2306 C   0  0  0  0  0  0  0  0  0  0  0  0
   -2.4293    0.3784    0.5077 C   0  0  0  0  0  0  0  0  0  0  0  0
   -3.1105    1.5002    1.2293 C   0  0  0  0  0  0  0  0  0  0  0  0
   -1.0451    0.2624    0.5592 C   0  0  0  0  0  0  0  0  0  0  0  0
    5.2715    0.2826   -0.2132 H   0  0  0  0  0  0  0  0  0  0  0  0
    4.1617    0.9145   -1.4358 H   0  0  0  0  0  0  0  0  0  0  0  0
    4.1004    1.5413    0.2060 H   0  0  0  0  0  0  0  0  0  0  0  0
    3.3720   -0.7272    1.0271 H   0  0  0  0  0  0  0  0  0  0  0  0
    3.3553   -1.3130   -0.6327 H   0  0  0  0  0  0  0  0  0  0  0  0
   -0.6232   -2.4741   -1.3803 H   0  0  0  0  0  0  0  0  0  0  0  0
   -3.0934   -2.2848   -1.4740 H   0  0  0  0  0  0  0  0  0  0  0  0
   -4.2329   -0.4633   -0.2756 H   0  0  0  0  0  0  0  0  0  0  0  0
   -4.1628    1.2795    1.3888 H   0  0  0  0  0  0  0  0  0  0  0  0
   -2.6368    1.6857    2.1906 H   0  0  0  0  0  0  0  0  0  0  0  0
   -3.0385    2.4147    0.6406 H   0  0  0  0  0  0  0  0  0  0  0  0
   -0.4674    0.9728    1.1296 H   0  0  0  0  0  0  0  0  0  0  0  0
  1  2  1  0  0  0  0
  2  3  1  0  0  0  0
  3  4  2  0  0  0  0
  3  5  1  0  0  0  0
  5  6  1  0  0  0  0
  6  7  4  0  0  0  0
  7  8  4  0  0  0  0
  8  9  4  0  0  0  0
  9 10  4  0  0  0  0
 10 11  1  0  0  0  0
  6 12  4  0  0  0  0
 10 12  4  0  0  0  0
  1 13  1  0  0  0  0
  1 14  1  0  0  0  0
  1 15  1  0  0  0  0
  2 16  1  0  0  0  0
  2 17  1  0  0  0  0
  7 18  1  0  0  0  0
  8 19  1  0  0  0  0
  9 20  1  0  0  0  0
 11 21  1  0  0  0  0
 11 22  1  0  0  0  0
 11 23  1  0  0  0  0
 12 24  1  0  0  0  0
M  END
