 xtb: 6.7.1 (edcfbbe)
          07082602483D

 29 29  0     0  0            999 V2000
    3.8790    1.6955    0.0317 C   0  0  0  0  0  0  0  0  0  0  0  0
    3.1341    0.4112   -0.0306 C   0  0  0  0  0  0  0  0  0  0  0  0
    1.8523    0.2867   -0.3587 C   0  0  0  0  0  0  0  0  0  0  0  0
    1.2154   -1.0452   -0.4225 C   0  0  0  0  0  0  0  0  0  0  0  0
    1.8595   -2.0766   -0.5100 O   0  0  0  0  0  0  0  0  0  0  0  0
   -0.1543   -1.0509   -0.4563 N   0  0  0  0  0  0  0  0  0  0  0  0
   -0.8370   -2.3194   -0.6512 C   0  0  0  0  0  0  0  0  0  0  0  0
   -1.3878   -2.8669    0.6617 C   0  0  0  0  0  0  0  0  0  0  0  0
   -0.9409    0.0568   -0.0829 C   0  0  0  0  0  0  0  0  0  0  0  0
   -0.6824    0.7327    1.1081 C   0  0  0  0  0  0  0  0  0  0  0  0
   -1.4616    1.8117    1.4809 C   0  0  0  0  0  0  0  0  0  0  0  0
   -2.5152    2.2213    0.6806 C   0  0  0  0  0  0  0  0  0  0  0  0
   -2.7820    1.5473   -0.4992 C   0  0  0  0  0  0  0  0  0  0  0  0
   -2.0016    0.4721   -0.8825 C   0  0  0  0  0  0  0  0  0  0  0  0
    4.2701    1.8529    1.0367 H   0  0  0  0  0  0  0  0  0  0  0  0
    4.7305    1.6631   -0.6471 H   0  0  0  0  0  0  0  0  0  0  0  0
    3.2417    2.5346   -0.2368 H   0  0  0  0  0  0  0  0  0  0  0  0
    3.6901   -0.4839    0.2177 H   0  0  0  0  0  0  0  0  0  0  0  0
    1.2507    1.1454   -0.6189 H   0  0  0  0  0  0  0  0  0  0  0  0
   -1.6473   -2.1858   -1.3723 H   0  0  0  0  0  0  0  0  0  0  0  0
   -0.0987   -3.0105   -1.0634 H   0  0  0  0  0  0  0  0  0  0  0  0
   -0.5769   -3.0194    1.3697 H   0  0  0  0  0  0  0  0  0  0  0  0
   -2.1057   -2.1723    1.0947 H   0  0  0  0  0  0  0  0  0  0  0  0
   -1.8821   -3.8190    0.4878 H   0  0  0  0  0  0  0  0  0  0  0  0
    0.1328    0.4028    1.7353 H   0  0  0  0  0  0  0  0  0  0  0  0
   -1.2507    2.3288    2.4052 H   0  0  0  0  0  0  0  0  0  0  0  0
   -3.1261    3.0609    0.9757 H   0  0  0  0  0  0  0  0  0  0  0  0
   -3.6000    1.8639   -1.1294 H   0  0  0  0  0  0  0  0  0  0  0  0
   -2.2059   -0.0378   -1.8119 H   0  0  0  0  0  0  0  0  0  0  0  0
  1  2  1  0  0  0  0
  2  3  2  0  0  0  0
  3  4  1  0  0  0  0
  4  5  2  0  0  0  0
  4  6  1  0  0  0  0
  6  7  1  0  0  0  0
  7  8  1  0  0  0  0
  6  9  1  0  0  0  0
  9 10  4  0  0  0  0
 10 11  4  0  0  0  0
 11 12  4  0  0  0  0
 12 13  4  0  0  0  0
  9 14  4  0  0  0  0
 13 14  4  0  0  0  0
  1 15  1  0  0  0  0
  1 16  1  0  0  0  0
  1 17  1  0  0  0  0
  2 18  1  0  0  0  0
  3 19  1  0  0  0  0
  7 20  1  0  0  0  0
  7 21  1  0  0  0  0
  8 22  1  0  0  0  0
  8 23  1  0  0  0  0
  8 24  1  0  0  0  0
 10 25  1  0  0  0  0
 11 26  1  0  0  0  0
 12 27  1  0  0  0  0
 13 28  1  0  0  0  0
 14 29  1  0  0  0  0
M  END
