 xtb: 6.7.1 (edcfbbe)
          07092615323D

 24 24  0     0  0            999 V2000
    4.4449    0.1126   -0.2305 C   0  0  0  0  0  0  0  0  0  0  0  0
    2.9928    0.5284   -0.4228 C   0  0  0  0  0  0  0  0  0  0  0  0
    2.0423   -0.4958    0.1795 C   0  0  0  0  0  0  0  0  0  0  0  0
    0.7042   -0.0511   -0.0323 O   0  0  0  0  0  0  0  0  0  0  0  0
   -0.2644   -0.8453    0.4414 C   0  0  0  0  0  0  0  0  0  0  0  0
   -0.0441   -1.8834    1.0183 O   0  0  0  0  0  0  0  0  0  0  0  0
   -1.6216   -0.3079    0.1780 C   0  0  0  0  0  0  0  0  0  0  0  0
   -1.8185    0.8962   -0.4927 C   0  0  0  0  0  0  0  0  0  0  0  0
   -3.1030    1.3565   -0.7148 C   0  0  0  0  0  0  0  0  0  0  0  0
   -4.1929    0.6234   -0.2720 C   0  0  0  0  0  0  0  0  0  0  0  0
   -4.0006   -0.5756    0.3961 C   0  0  0  0  0  0  0  0  0  0  0  0
   -2.7195   -1.0415    0.6213 C   0  0  0  0  0  0  0  0  0  0  0  0
    5.1097    0.8539   -0.6658 H   0  0  0  0  0  0  0  0  0  0  0  0
    4.6789    0.0184    0.8273 H   0  0  0  0  0  0  0  0  0  0  0  0
    4.6352   -0.8449   -0.7096 H   0  0  0  0  0  0  0  0  0  0  0  0
    2.8138    1.4948    0.0515 H   0  0  0  0  0  0  0  0  0  0  0  0
    2.7701    0.6310   -1.4863 H   0  0  0  0  0  0  0  0  0  0  0  0
    2.1697   -1.4792   -0.2882 H   0  0  0  0  0  0  0  0  0  0  0  0
    2.2136   -0.6116    1.2562 H   0  0  0  0  0  0  0  0  0  0  0  0
   -0.9645    1.4601   -0.8337 H   0  0  0  0  0  0  0  0  0  0  0  0
   -3.2571    2.2904   -1.2350 H   0  0  0  0  0  0  0  0  0  0  0  0
   -5.1943    0.9880   -0.4484 H   0  0  0  0  0  0  0  0  0  0  0  0
   -4.8510   -1.1453    0.7402 H   0  0  0  0  0  0  0  0  0  0  0  0
   -2.5433   -1.9722    1.1391 H   0  0  0  0  0  0  0  0  0  0  0  0
  1  2  1  0  0  0  0
  2  3  1  0  0  0  0
  3  4  1  0  0  0  0
  4  5  1  0  0  0  0
  5  6  2  0  0  0  0
  5  7  1  0  0  0  0
  7  8  4  0  0  0  0
  8  9  4  0  0  0  0
  9 10  4  0  0  0  0
 10 11  4  0  0  0  0
  7 12  4  0  0  0  0
 11 12  4  0  0  0  0
  1 13  1  0  0  0  0
  1 14  1  0  0  0  0
  1 15  1  0  0  0  0
  2 16  1  0  0  0  0
  2 17  1  0  0  0  0
  3 18  1  0  0  0  0
  3 19  1  0  0  0  0
  8 20  1  0  0  0  0
  9 21  1  0  0  0  0
 10 22  1  0  0  0  0
 11 23  1  0  0  0  0
 12 24  1  0  0  0  0
M  END
