 xtb: 6.7.1 (edcfbbe)
          07082605173D

  8  7  0     0  0            999 V2000
   -1.8532   -1.0220   -0.3967 Cl  0  0  0  0  0  0  0  0  0  0  0  0
   -0.7063    0.2682    0.0517 C   0  0  0  0  0  0  0  0  0  0  0  0
    0.7063   -0.2682   -0.0517 C   0  0  0  0  0  0  0  0  0  0  0  0
    1.8532    1.0220    0.3967 Cl  0  0  0  0  0  0  0  0  0  0  0  0
   -0.9412    0.5748    1.0708 H   0  0  0  0  0  0  0  0  0  0  0  0
   -0.8662    1.1005   -0.6335 H   0  0  0  0  0  0  0  0  0  0  0  0
    0.9412   -0.5748   -1.0708 H   0  0  0  0  0  0  0  0  0  0  0  0
    0.8662   -1.1005    0.6335 H   0  0  0  0  0  0  0  0  0  0  0  0
  1  2  1  0  0  0  0
  2  3  1  0  0  0  0
  3  4  1  0  0  0  0
  2  5  1  0  0  0  0
  2  6  1  0  0  0  0
  3  7  1  0  0  0  0
  3  8  1  0  0  0  0
M  END
