 xtb: 6.7.1 (edcfbbe)
          07072620133D

 29 29  0     0  0            999 V2000
    4.1910   -1.0372    0.6295 C   0  0  0  0  0  0  0  0  0  0  0  0
    2.9367   -0.6083   -0.1259 C   0  0  0  0  0  0  0  0  0  0  0  0
    3.2060    0.6325   -0.9781 C   0  0  0  0  0  0  0  0  0  0  0  0
    1.9511   -0.3431    0.8627 O   0  0  0  0  0  0  0  0  0  0  0  0
    0.6319   -0.3269    0.5401 C   0  0  0  0  0  0  0  0  0  0  0  0
    0.0905   -0.5845   -0.7143 C   0  0  0  0  0  0  0  0  0  0  0  0
   -1.2834   -0.5554   -0.8950 C   0  0  0  0  0  0  0  0  0  0  0  0
   -2.1480   -0.2729    0.1519 C   0  0  0  0  0  0  0  0  0  0  0  0
   -3.6307   -0.1823   -0.0710 C   0  0  0  0  0  0  0  0  0  0  0  0
   -4.0358    1.2720   -0.3653 C   0  0  0  0  0  0  0  0  0  0  0  0
   -3.4856    1.7540   -1.5649 O   0  0  0  0  0  0  0  0  0  0  0  0
   -1.5982   -0.0080    1.4030 C   0  0  0  0  0  0  0  0  0  0  0  0
   -0.2354   -0.0367    1.5972 C   0  0  0  0  0  0  0  0  0  0  0  0
    4.5141   -0.2356    1.2883 H   0  0  0  0  0  0  0  0  0  0  0  0
    3.9801   -1.9161    1.2328 H   0  0  0  0  0  0  0  0  0  0  0  0
    4.9883   -1.2685   -0.0708 H   0  0  0  0  0  0  0  0  0  0  0  0
    2.6047   -1.4391   -0.7657 H   0  0  0  0  0  0  0  0  0  0  0  0
    2.2986    0.9675   -1.4751 H   0  0  0  0  0  0  0  0  0  0  0  0
    3.9577    0.4105   -1.7307 H   0  0  0  0  0  0  0  0  0  0  0  0
    3.5665    1.4387   -0.3438 H   0  0  0  0  0  0  0  0  0  0  0  0
    0.7182   -0.8147   -1.5609 H   0  0  0  0  0  0  0  0  0  0  0  0
   -1.6845   -0.7681   -1.8765 H   0  0  0  0  0  0  0  0  0  0  0  0
   -3.9239   -0.8037   -0.9189 H   0  0  0  0  0  0  0  0  0  0  0  0
   -4.1700   -0.5190    0.8153 H   0  0  0  0  0  0  0  0  0  0  0  0
   -5.1191    1.3445   -0.4868 H   0  0  0  0  0  0  0  0  0  0  0  0
   -3.7330    1.9103    0.4787 H   0  0  0  0  0  0  0  0  0  0  0  0
   -2.5308    1.6138   -1.5327 H   0  0  0  0  0  0  0  0  0  0  0  0
   -2.2505    0.2170    2.2345 H   0  0  0  0  0  0  0  0  0  0  0  0
    0.1935    0.1595    2.5673 H   0  0  0  0  0  0  0  0  0  0  0  0
  1  2  1  0  0  0  0
  2  3  1  0  0  0  0
  2  4  1  0  0  0  0
  4  5  1  0  0  0  0
  5  6  4  0  0  0  0
  6  7  4  0  0  0  0
  7  8  4  0  0  0  0
  8  9  1  0  0  0  0
  9 10  1  0  0  0  0
 10 11  1  0  0  0  0
  8 12  4  0  0  0  0
  5 13  4  0  0  0  0
 12 13  4  0  0  0  0
  1 14  1  0  0  0  0
  1 15  1  0  0  0  0
  1 16  1  0  0  0  0
  2 17  1  0  0  0  0
  3 18  1  0  0  0  0
  3 19  1  0  0  0  0
  3 20  1  0  0  0  0
  6 21  1  0  0  0  0
  7 22  1  0  0  0  0
  9 23  1  0  0  0  0
  9 24  1  0  0  0  0
 10 25  1  0  0  0  0
 10 26  1  0  0  0  0
 11 27  1  0  0  0  0
 12 28  1  0  0  0  0
 13 29  1  0  0  0  0
M  END
