 xtb: 6.7.1 (edcfbbe)
          07072602383D

 36 35  0     0  0            999 V2000
   -6.5150   -0.8417   -2.0089 C   0  0  0  0  0  0  0  0  0  0  0  0
   -5.4385   -1.0142   -0.9451 C   0  0  0  0  0  0  0  0  0  0  0  0
   -5.3746    0.1920   -0.0103 C   0  0  0  0  0  0  0  0  0  0  0  0
   -4.2882    0.0430    1.0440 C   0  0  0  0  0  0  0  0  0  0  0  0
   -3.0142    0.0699    0.3989 O   0  0  0  0  0  0  0  0  0  0  0  0
   -1.9500   -0.1302    1.1769 C   0  0  0  0  0  0  0  0  0  0  0  0
   -2.0095   -0.3262    2.3656 O   0  0  0  0  0  0  0  0  0  0  0  0
   -0.6999   -0.0783    0.3841 C   0  0  0  0  0  0  0  0  0  0  0  0
    0.4941   -0.2427    0.9507 C   0  0  0  0  0  0  0  0  0  0  0  0
    1.7438   -0.1940    0.1564 C   0  0  0  0  0  0  0  0  0  0  0  0
    1.7972   -0.0076   -1.0339 O   0  0  0  0  0  0  0  0  0  0  0  0
    2.8056   -0.4001    0.9388 O   0  0  0  0  0  0  0  0  0  0  0  0
    4.0904   -0.3772    0.3169 C   0  0  0  0  0  0  0  0  0  0  0  0
    4.6155    1.0511    0.1861 C   0  0  0  0  0  0  0  0  0  0  0  0
    5.9662    1.1162   -0.5251 C   0  0  0  0  0  0  0  0  0  0  0  0
    7.0986    0.4790    0.2721 C   0  0  0  0  0  0  0  0  0  0  0  0
   -6.5477   -1.7095   -2.6628 H   0  0  0  0  0  0  0  0  0  0  0  0
   -6.3143    0.0379   -2.6162 H   0  0  0  0  0  0  0  0  0  0  0  0
   -7.4928   -0.7228   -1.5471 H   0  0  0  0  0  0  0  0  0  0  0  0
   -4.4667   -1.1426   -1.4242 H   0  0  0  0  0  0  0  0  0  0  0  0
   -5.6456   -1.9130   -0.3598 H   0  0  0  0  0  0  0  0  0  0  0  0
   -6.3314    0.3179    0.4994 H   0  0  0  0  0  0  0  0  0  0  0  0
   -5.1756    1.0934   -0.5923 H   0  0  0  0  0  0  0  0  0  0  0  0
   -4.3277    0.8596    1.7741 H   0  0  0  0  0  0  0  0  0  0  0  0
   -4.3876   -0.9028    1.5890 H   0  0  0  0  0  0  0  0  0  0  0  0
   -0.7997    0.0987   -0.6768 H   0  0  0  0  0  0  0  0  0  0  0  0
    0.5942   -0.4191    2.0117 H   0  0  0  0  0  0  0  0  0  0  0  0
    4.7274   -0.9793    0.9662 H   0  0  0  0  0  0  0  0  0  0  0  0
    4.0155   -0.8397   -0.6732 H   0  0  0  0  0  0  0  0  0  0  0  0
    4.6964    1.4925    1.1818 H   0  0  0  0  0  0  0  0  0  0  0  0
    3.8840    1.6284   -0.3835 H   0  0  0  0  0  0  0  0  0  0  0  0
    6.2066    2.1665   -0.7019 H   0  0  0  0  0  0  0  0  0  0  0  0
    5.8837    0.6278   -1.4981 H   0  0  0  0  0  0  0  0  0  0  0  0
    8.0480    0.6396   -0.2331 H   0  0  0  0  0  0  0  0  0  0  0  0
    7.1610    0.9197    1.2645 H   0  0  0  0  0  0  0  0  0  0  0  0
    6.9508   -0.5924    0.3781 H   0  0  0  0  0  0  0  0  0  0  0  0
  1  2  1  0  0  0  0
  2  3  1  0  0  0  0
  3  4  1  0  0  0  0
  4  5  1  0  0  0  0
  5  6  1  0  0  0  0
  6  7  2  0  0  0  0
  6  8  1  0  0  0  0
  8  9  2  0  0  0  0
  9 10  1  0  0  0  0
 10 11  2  0  0  0  0
 10 12  1  0  0  0  0
 12 13  1  0  0  0  0
 13 14  1  0  0  0  0
 14 15  1  0  0  0  0
 15 16  1  0  0  0  0
  1 17  1  0  0  0  0
  1 18  1  0  0  0  0
  1 19  1  0  0  0  0
  2 20  1  0  0  0  0
  2 21  1  0  0  0  0
  3 22  1  0  0  0  0
  3 23  1  0  0  0  0
  4 24  1  0  0  0  0
  4 25  1  0  0  0  0
  8 26  1  0  0  0  0
  9 27  1  0  0  0  0
 13 28  1  0  0  0  0
 13 29  1  0  0  0  0
 14 30  1  0  0  0  0
 14 31  1  0  0  0  0
 15 32  1  0  0  0  0
 15 33  1  0  0  0  0
 16 34  1  0  0  0  0
 16 35  1  0  0  0  0
 16 36  1  0  0  0  0
M  END
