 xtb: 6.7.1 (edcfbbe)
          07082613303D

 23 23  0     0  0            999 V2000
   -1.0134    1.3983    1.9858 O   0  0  0  0  0  0  0  0  0  0  0  0
   -0.3273    1.3045    0.9960 C   0  0  0  0  0  0  0  0  0  0  0  0
   -0.9066    1.5152   -0.3871 C   0  0  0  0  0  0  0  0  0  0  0  0
   -1.7532    0.3132   -0.8278 C   0  0  0  0  0  0  0  0  0  0  0  0
   -0.9490   -0.9638   -1.0709 C   0  0  0  0  0  0  0  0  0  0  0  0
   -0.2849   -1.5176    0.1983 C   0  0  0  0  0  0  0  0  0  0  0  0
    1.2354   -1.3587    0.2394 C   0  0  0  0  0  0  0  0  0  0  0  0
    1.7365    0.0734    0.0612 C   0  0  0  0  0  0  0  0  0  0  0  0
    1.1610    1.0466    1.0883 C   0  0  0  0  0  0  0  0  0  0  0  0
   -0.1267    1.7183   -1.1193 H   0  0  0  0  0  0  0  0  0  0  0  0
   -1.5674    2.3834   -0.3286 H   0  0  0  0  0  0  0  0  0  0  0  0
   -2.2758    0.5815   -1.7494 H   0  0  0  0  0  0  0  0  0  0  0  0
   -2.5065    0.1223   -0.0605 H   0  0  0  0  0  0  0  0  0  0  0  0
   -0.1956   -0.7830   -1.8399 H   0  0  0  0  0  0  0  0  0  0  0  0
   -1.6381   -1.7101   -1.4719 H   0  0  0  0  0  0  0  0  0  0  0  0
   -0.5026   -2.5845    0.2862 H   0  0  0  0  0  0  0  0  0  0  0  0
   -0.7223   -1.0372    1.0738 H   0  0  0  0  0  0  0  0  0  0  0  0
    1.6799   -1.9760   -0.5459 H   0  0  0  0  0  0  0  0  0  0  0  0
    1.5917   -1.7419    1.1986 H   0  0  0  0  0  0  0  0  0  0  0  0
    2.8244    0.0710    0.1660 H   0  0  0  0  0  0  0  0  0  0  0  0
    1.5155    0.4188   -0.9487 H   0  0  0  0  0  0  0  0  0  0  0  0
    1.6394    2.0227    0.9556 H   0  0  0  0  0  0  0  0  0  0  0  0
    1.3856    0.7037    2.1008 H   0  0  0  0  0  0  0  0  0  0  0  0
  1  2  2  0  0  0  0
  2  3  1  0  0  0  0
  3  4  1  0  0  0  0
  4  5  1  0  0  0  0
  5  6  1  0  0  0  0
  6  7  1  0  0  0  0
  7  8  1  0  0  0  0
  2  9  1  0  0  0  0
  8  9  1  0  0  0  0
  3 10  1  0  0  0  0
  3 11  1  0  0  0  0
  4 12  1  0  0  0  0
  4 13  1  0  0  0  0
  5 14  1  0  0  0  0
  5 15  1  0  0  0  0
  6 16  1  0  0  0  0
  6 17  1  0  0  0  0
  7 18  1  0  0  0  0
  7 19  1  0  0  0  0
  8 20  1  0  0  0  0
  8 21  1  0  0  0  0
  9 22  1  0  0  0  0
  9 23  1  0  0  0  0
M  END
