 xtb: 6.7.1 (edcfbbe)
          07082622533D

 22 22  0     0  0            999 V2000
    2.5157    0.5085    0.5012 C   0  0  0  0  0  0  0  0  0  0  0  0
    1.2182    0.3430   -0.1132 N   0  0  0  0  0  0  0  0  0  0  0  0
    0.7802   -1.0130   -0.3580 C   0  0  0  0  0  0  0  0  0  0  0  0
   -0.3325   -1.4650    0.5934 C   0  0  0  0  0  0  0  0  0  0  0  0
   -1.7151   -1.0022    0.1436 C   0  0  0  0  0  0  0  0  0  0  0  0
   -1.8626    0.5162    0.0983 C   0  0  0  0  0  0  0  0  0  0  0  0
   -0.9303    1.1939   -0.9114 C   0  0  0  0  0  0  0  0  0  0  0  0
    0.4561    1.4373   -0.3446 C   0  0  0  0  0  0  0  0  0  0  0  0
    0.8532    2.5628   -0.1032 O   0  0  0  0  0  0  0  0  0  0  0  0
    2.6713    1.5728    0.6678 H   0  0  0  0  0  0  0  0  0  0  0  0
    2.5595   -0.0186    1.4572 H   0  0  0  0  0  0  0  0  0  0  0  0
    3.3016    0.1272   -0.1549 H   0  0  0  0  0  0  0  0  0  0  0  0
    1.6527   -1.6569   -0.2284 H   0  0  0  0  0  0  0  0  0  0  0  0
    0.4421   -1.1203   -1.3943 H   0  0  0  0  0  0  0  0  0  0  0  0
   -0.1209   -1.0799    1.5929 H   0  0  0  0  0  0  0  0  0  0  0  0
   -0.3271   -2.5557    0.6460 H   0  0  0  0  0  0  0  0  0  0  0  0
   -1.9229   -1.4124   -0.8483 H   0  0  0  0  0  0  0  0  0  0  0  0
   -2.4631   -1.4078    0.8290 H   0  0  0  0  0  0  0  0  0  0  0  0
   -2.8949    0.7503   -0.1715 H   0  0  0  0  0  0  0  0  0  0  0  0
   -1.6799    0.9358    1.0900 H   0  0  0  0  0  0  0  0  0  0  0  0
   -1.3275    2.1787   -1.1628 H   0  0  0  0  0  0  0  0  0  0  0  0
   -0.8738    0.6053   -1.8289 H   0  0  0  0  0  0  0  0  0  0  0  0
  1  2  1  0  0  0  0
  2  3  1  0  0  0  0
  3  4  1  0  0  0  0
  4  5  1  0  0  0  0
  5  6  1  0  0  0  0
  6  7  1  0  0  0  0
  2  8  4  0  0  0  0
  7  8  1  0  0  0  0
  8  9  2  0  0  0  0
  1 10  1  0  0  0  0
  1 11  1  0  0  0  0
  1 12  1  0  0  0  0
  3 13  1  0  0  0  0
  3 14  1  0  0  0  0
  4 15  1  0  0  0  0
  4 16  1  0  0  0  0
  5 17  1  0  0  0  0
  5 18  1  0  0  0  0
  6 19  1  0  0  0  0
  6 20  1  0  0  0  0
  7 21  1  0  0  0  0
  7 22  1  0  0  0  0
M  END
