 xtb: 6.7.1 (edcfbbe)
          07092620203D

 24 23  0     0  0            999 V2000
    5.3186   -0.0813   -0.0258 C   0  0  0  0  0  0  0  0  0  0  0  0
    4.1023   -0.2329   -0.9191 C   0  0  0  0  0  0  0  0  0  0  0  0
    2.9303   -0.0820   -0.1157 O   0  0  0  0  0  0  0  0  0  0  0  0
    1.7591   -0.1865   -0.7454 C   0  0  0  0  0  0  0  0  0  0  0  0
    1.6452   -0.3965   -1.9277 O   0  0  0  0  0  0  0  0  0  0  0  0
    0.6340   -0.0099    0.2014 C   0  0  0  0  0  0  0  0  0  0  0  0
   -0.6340   -0.0732   -0.2014 C   0  0  0  0  0  0  0  0  0  0  0  0
   -1.7591    0.1033    0.7454 C   0  0  0  0  0  0  0  0  0  0  0  0
   -1.6452    0.3136    1.9276 O   0  0  0  0  0  0  0  0  0  0  0  0
   -2.9303   -0.0012    0.1158 O   0  0  0  0  0  0  0  0  0  0  0  0
   -4.1023    0.1500    0.9191 C   0  0  0  0  0  0  0  0  0  0  0  0
   -5.3186   -0.0013    0.0258 C   0  0  0  0  0  0  0  0  0  0  0  0
    5.3187    0.8989    0.4430 H   0  0  0  0  0  0  0  0  0  0  0  0
    6.2222   -0.1929   -0.6178 H   0  0  0  0  0  0  0  0  0  0  0  0
    5.3074   -0.8386    0.7533 H   0  0  0  0  0  0  0  0  0  0  0  0
    4.0763   -1.2185   -1.3977 H   0  0  0  0  0  0  0  0  0  0  0  0
    4.0875    0.5264   -1.7092 H   0  0  0  0  0  0  0  0  0  0  0  0
    0.8881    0.1728    1.2353 H   0  0  0  0  0  0  0  0  0  0  0  0
   -0.8881   -0.2560   -1.2353 H   0  0  0  0  0  0  0  0  0  0  0  0
   -4.0760    1.1356    1.3977 H   0  0  0  0  0  0  0  0  0  0  0  0
   -4.0877   -0.6093    1.7092 H   0  0  0  0  0  0  0  0  0  0  0  0
   -5.3073    0.7560   -0.7533 H   0  0  0  0  0  0  0  0  0  0  0  0
   -6.2222    0.1104    0.6178 H   0  0  0  0  0  0  0  0  0  0  0  0
   -5.3189   -0.9815   -0.4431 H   0  0  0  0  0  0  0  0  0  0  0  0
  1  2  1  0  0  0  0
  2  3  1  0  0  0  0
  3  4  1  0  0  0  0
  4  5  2  0  0  0  0
  4  6  1  0  0  0  0
  6  7  2  0  0  0  0
  7  8  1  0  0  0  0
  8  9  2  0  0  0  0
  8 10  1  0  0  0  0
 10 11  1  0  0  0  0
 11 12  1  0  0  0  0
  1 13  1  0  0  0  0
  1 14  1  0  0  0  0
  1 15  1  0  0  0  0
  2 16  1  0  0  0  0
  2 17  1  0  0  0  0
  6 18  1  0  0  0  0
  7 19  1  0  0  0  0
 11 20  1  0  0  0  0
 11 21  1  0  0  0  0
 12 22  1  0  0  0  0
 12 23  1  0  0  0  0
 12 24  1  0  0  0  0
M  END
