 xtb: 6.7.1 (edcfbbe)
          07082623113D

 22 22  0     0  0            999 V2000
    1.8013    2.1648    1.0763 C   0  0  0  0  0  0  0  0  0  0  0  0
    0.5696    1.5763    0.7058 O   0  0  0  0  0  0  0  0  0  0  0  0
    0.6921    0.6220   -0.3084 C   0  0  0  0  0  0  0  0  0  0  0  0
    1.4363   -0.4920    0.0927 O   0  0  0  0  0  0  0  0  0  0  0  0
    0.7344   -1.3030    1.0239 C   0  0  0  0  0  0  0  0  0  0  0  0
   -0.5786   -1.7626    0.4040 C   0  0  0  0  0  0  0  0  0  0  0  0
   -1.3793   -0.6288    0.1026 O   0  0  0  0  0  0  0  0  0  0  0  0
   -0.7369    0.2596   -0.7655 C   0  0  0  0  0  0  0  0  0  0  0  0
   -0.6374   -0.2421   -2.0665 O   0  0  0  0  0  0  0  0  0  0  0  0
   -1.8902   -0.4160   -2.6997 C   0  0  0  0  0  0  0  0  0  0  0  0
    2.2293    2.7212    0.2350 H   0  0  0  0  0  0  0  0  0  0  0  0
    1.5762    2.8438    1.8952 H   0  0  0  0  0  0  0  0  0  0  0  0
    2.5184    1.4071    1.4040 H   0  0  0  0  0  0  0  0  0  0  0  0
    1.2386    1.0306   -1.1737 H   0  0  0  0  0  0  0  0  0  0  0  0
    1.3936   -2.1433    1.2424 H   0  0  0  0  0  0  0  0  0  0  0  0
    0.5300   -0.7305    1.9378 H   0  0  0  0  0  0  0  0  0  0  0  0
   -1.1645   -2.3640    1.0993 H   0  0  0  0  0  0  0  0  0  0  0  0
   -0.3745   -2.3299   -0.5132 H   0  0  0  0  0  0  0  0  0  0  0  0
   -1.3507    1.1746   -0.7390 H   0  0  0  0  0  0  0  0  0  0  0  0
   -2.3954    0.5484   -2.8224 H   0  0  0  0  0  0  0  0  0  0  0  0
   -2.5348   -1.0852   -2.1232 H   0  0  0  0  0  0  0  0  0  0  0  0
   -1.6775   -0.8509   -3.6734 H   0  0  0  0  0  0  0  0  0  0  0  0
  1  2  1  0  0  0  0
  2  3  1  0  0  0  0
  3  4  1  0  0  0  0
  4  5  1  0  0  0  0
  5  6  1  0  0  0  0
  6  7  1  0  0  0  0
  3  8  1  0  0  0  0
  7  8  1  0  0  0  0
  8  9  1  0  0  0  0
  9 10  1  0  0  0  0
  1 11  1  0  0  0  0
  1 12  1  0  0  0  0
  1 13  1  0  0  0  0
  3 14  1  0  0  0  0
  5 15  1  0  0  0  0
  5 16  1  0  0  0  0
  6 17  1  0  0  0  0
  6 18  1  0  0  0  0
  8 19  1  0  0  0  0
 10 20  1  0  0  0  0
 10 21  1  0  0  0  0
 10 22  1  0  0  0  0
M  END
