 xtb: 6.7.1 (edcfbbe)
          07072609113D

 28 28  0     0  0            999 V2000
   -2.8138    1.8111    0.2460 C   0  0  0  0  0  0  0  0  0  0  0  0
   -1.9216    0.6610   -0.2112 C   0  0  0  0  0  0  0  0  0  0  0  0
   -2.4286   -0.6774    0.3281 C   0  0  0  0  0  0  0  0  0  0  0  0
   -1.5324   -1.8250   -0.1276 C   0  0  0  0  0  0  0  0  0  0  0  0
   -0.0946   -1.5985    0.3285 C   0  0  0  0  0  0  0  0  0  0  0  0
    0.4119   -0.2624   -0.2086 C   0  0  0  0  0  0  0  0  0  0  0  0
    1.7405   -0.0045    0.2832 O   0  0  0  0  0  0  0  0  0  0  0  0
    2.7624   -0.4230   -0.4442 C   0  0  0  0  0  0  0  0  0  0  0  0
    2.6936   -1.0335   -1.4745 O   0  0  0  0  0  0  0  0  0  0  0  0
    4.0821    0.0008    0.2072 C   0  0  0  0  0  0  0  0  0  0  0  0
    4.2395    1.4224    0.0396 C   0  0  0  0  0  0  0  0  0  0  0  0
    4.3496    2.5505   -0.1019 N   0  0  0  0  0  0  0  0  0  0  0  0
   -0.4799    0.8851    0.2483 C   0  0  0  0  0  0  0  0  0  0  0  0
   -2.4531    2.7567   -0.1515 H   0  0  0  0  0  0  0  0  0  0  0  0
   -2.8236    1.8768    1.3317 H   0  0  0  0  0  0  0  0  0  0  0  0
   -3.8344    1.6608   -0.0977 H   0  0  0  0  0  0  0  0  0  0  0  0
   -1.9339    0.6213   -1.3062 H   0  0  0  0  0  0  0  0  0  0  0  0
   -2.4467   -0.6409    1.4197 H   0  0  0  0  0  0  0  0  0  0  0  0
   -3.4497   -0.8489   -0.0173 H   0  0  0  0  0  0  0  0  0  0  0  0
   -1.5572   -1.8963   -1.2171 H   0  0  0  0  0  0  0  0  0  0  0  0
   -1.8989   -2.7692    0.2784 H   0  0  0  0  0  0  0  0  0  0  0  0
    0.5499   -2.4031   -0.0309 H   0  0  0  0  0  0  0  0  0  0  0  0
   -0.0465   -1.5798    1.4197 H   0  0  0  0  0  0  0  0  0  0  0  0
    0.4594   -0.3019   -1.3042 H   0  0  0  0  0  0  0  0  0  0  0  0
    4.0541   -0.2300    1.2741 H   0  0  0  0  0  0  0  0  0  0  0  0
    4.9087   -0.5210   -0.2788 H   0  0  0  0  0  0  0  0  0  0  0  0
   -0.4426    0.9442    1.3379 H   0  0  0  0  0  0  0  0  0  0  0  0
   -0.0943    1.8245   -0.1520 H   0  0  0  0  0  0  0  0  0  0  0  0
  1  2  1  0  0  0  0
  2  3  1  0  0  0  0
  3  4  1  0  0  0  0
  4  5  1  0  0  0  0
  5  6  1  0  0  0  0
  6  7  1  0  0  0  0
  7  8  1  0  0  0  0
  8  9  2  0  0  0  0
  8 10  1  0  0  0  0
 10 11  1  0  0  0  0
 11 12  3  0  0  0  0
  2 13  1  0  0  0  0
  6 13  1  0  0  0  0
  1 14  1  0  0  0  0
  1 15  1  0  0  0  0
  1 16  1  0  0  0  0
  2 17  1  0  0  0  0
  3 18  1  0  0  0  0
  3 19  1  0  0  0  0
  4 20  1  0  0  0  0
  4 21  1  0  0  0  0
  5 22  1  0  0  0  0
  5 23  1  0  0  0  0
  6 24  1  0  0  0  0
 10 25  1  0  0  0  0
 10 26  1  0  0  0  0
 13 27  1  0  0  0  0
 13 28  1  0  0  0  0
M  END
