 xtb: 6.7.1 (edcfbbe)
          07082620113D

 16 15  0     0  0            999 V2000
   -2.6494    0.0517    0.3622 C   0  0  0  0  0  0  0  0  0  0  0  0
   -1.2840    0.6047    0.0717 C   0  0  0  0  0  0  0  0  0  0  0  0
   -0.8029    1.5524    0.6282 O   0  0  0  0  0  0  0  0  0  0  0  0
   -0.5220   -0.1622   -1.0135 C   0  0  0  0  0  0  0  0  0  0  0  0
    0.8704    0.0807   -0.9212 O   0  0  0  0  0  0  0  0  0  0  0  0
    1.4470   -0.3654    0.2088 C   0  0  0  0  0  0  0  0  0  0  0  0
    2.8849    0.0572    0.2848 C   0  0  0  0  0  0  0  0  0  0  0  0
    0.8577   -1.0194    1.0274 O   0  0  0  0  0  0  0  0  0  0  0  0
   -2.5239   -0.8256    0.9955 H   0  0  0  0  0  0  0  0  0  0  0  0
   -3.2443    0.7854    0.8989 H   0  0  0  0  0  0  0  0  0  0  0  0
   -3.1515   -0.2527   -0.5521 H   0  0  0  0  0  0  0  0  0  0  0  0
   -0.8273    0.1994   -1.9981 H   0  0  0  0  0  0  0  0  0  0  0  0
   -0.7283   -1.2344   -0.9262 H   0  0  0  0  0  0  0  0  0  0  0  0
    3.4356   -0.6203    0.9305 H   0  0  0  0  0  0  0  0  0  0  0  0
    2.9182    1.0581    0.7124 H   0  0  0  0  0  0  0  0  0  0  0  0
    3.3199    0.0903   -0.7095 H   0  0  0  0  0  0  0  0  0  0  0  0
  1  2  1  0  0  0  0
  2  3  2  0  0  0  0
  2  4  1  0  0  0  0
  4  5  1  0  0  0  0
  5  6  1  0  0  0  0
  6  7  1  0  0  0  0
  6  8  2  0  0  0  0
  1  9  1  0  0  0  0
  1 10  1  0  0  0  0
  1 11  1  0  0  0  0
  4 12  1  0  0  0  0
  4 13  1  0  0  0  0
  7 14  1  0  0  0  0
  7 15  1  0  0  0  0
  7 16  1  0  0  0  0
M  END
