 xtb: 6.7.1 (edcfbbe)
          07072619143D

 34 33  0     0  0            999 V2000
    2.8183    0.6754    1.4909 C   0  0  0  0  0  0  0  0  0  0  0  0
    2.6007   -0.5061    0.5482 C   0  0  0  0  0  0  0  0  0  0  0  0
    3.8836   -0.7912   -0.2308 C   0  0  0  0  0  0  0  0  0  0  0  0
    1.4429   -0.2384   -0.4250 C   0  0  0  0  0  0  0  0  0  0  0  0
    0.0577   -0.4060    0.2169 C   0  0  0  0  0  0  0  0  0  0  0  0
   -0.2890   -1.7812    0.3141 O   0  0  0  0  0  0  0  0  0  0  0  0
   -1.0610    0.3240   -0.5582 C   0  0  0  0  0  0  0  0  0  0  0  0
   -1.2472   -0.2924   -1.9563 C   0  0  0  0  0  0  0  0  0  0  0  0
   -1.8729   -1.5480   -1.9473 O   0  0  0  0  0  0  0  0  0  0  0  0
   -2.3688    0.3316    0.2654 C   0  0  0  0  0  0  0  0  0  0  0  0
   -2.2755    1.3194    1.4291 C   0  0  0  0  0  0  0  0  0  0  0  0
   -3.5880    0.6889   -0.5837 C   0  0  0  0  0  0  0  0  0  0  0  0
    3.1001    1.5603    0.9244 H   0  0  0  0  0  0  0  0  0  0  0  0
    3.6140    0.4537    2.1986 H   0  0  0  0  0  0  0  0  0  0  0  0
    1.9174    0.9041    2.0549 H   0  0  0  0  0  0  0  0  0  0  0  0
    2.3664   -1.3923    1.1530 H   0  0  0  0  0  0  0  0  0  0  0  0
    3.7668   -1.6675   -0.8649 H   0  0  0  0  0  0  0  0  0  0  0  0
    4.7120   -0.9703    0.4508 H   0  0  0  0  0  0  0  0  0  0  0  0
    4.1364    0.0578   -0.8621 H   0  0  0  0  0  0  0  0  0  0  0  0
    1.5176   -0.9351   -1.2628 H   0  0  0  0  0  0  0  0  0  0  0  0
    1.5393    0.7738   -0.8200 H   0  0  0  0  0  0  0  0  0  0  0  0
    0.0960    0.0154    1.2321 H   0  0  0  0  0  0  0  0  0  0  0  0
    0.4502   -2.2542    0.7101 H   0  0  0  0  0  0  0  0  0  0  0  0
   -0.7349    1.3599   -0.7023 H   0  0  0  0  0  0  0  0  0  0  0  0
   -0.2642   -0.3620   -2.4472 H   0  0  0  0  0  0  0  0  0  0  0  0
   -1.8711    0.3595   -2.5719 H   0  0  0  0  0  0  0  0  0  0  0  0
   -1.4629   -2.0529   -1.2302 H   0  0  0  0  0  0  0  0  0  0  0  0
   -2.5149   -0.6757    0.6664 H   0  0  0  0  0  0  0  0  0  0  0  0
   -2.1278    2.3308    1.0543 H   0  0  0  0  0  0  0  0  0  0  0  0
   -3.1972    1.3009    2.0060 H   0  0  0  0  0  0  0  0  0  0  0  0
   -1.4576    1.0818    2.1042 H   0  0  0  0  0  0  0  0  0  0  0  0
   -4.4688    0.7533    0.0516 H   0  0  0  0  0  0  0  0  0  0  0  0
   -3.4475    1.6521   -1.0705 H   0  0  0  0  0  0  0  0  0  0  0  0
   -3.7704   -0.0696   -1.3379 H   0  0  0  0  0  0  0  0  0  0  0  0
  1  2  1  0  0  0  0
  2  3  1  0  0  0  0
  2  4  1  0  0  0  0
  4  5  1  0  0  0  0
  5  6  1  0  0  0  0
  5  7  1  0  0  0  0
  7  8  1  0  0  0  0
  8  9  1  0  0  0  0
  7 10  1  0  0  0  0
 10 11  1  0  0  0  0
 10 12  1  0  0  0  0
  1 13  1  0  0  0  0
  1 14  1  0  0  0  0
  1 15  1  0  0  0  0
  2 16  1  0  0  0  0
  3 17  1  0  0  0  0
  3 18  1  0  0  0  0
  3 19  1  0  0  0  0
  4 20  1  0  0  0  0
  4 21  1  0  0  0  0
  5 22  1  0  0  0  0
  6 23  1  0  0  0  0
  7 24  1  0  0  0  0
  8 25  1  0  0  0  0
  8 26  1  0  0  0  0
  9 27  1  0  0  0  0
 10 28  1  0  0  0  0
 11 29  1  0  0  0  0
 11 30  1  0  0  0  0
 11 31  1  0  0  0  0
 12 32  1  0  0  0  0
 12 33  1  0  0  0  0
 12 34  1  0  0  0  0
M  END
