 xtb: 6.7.1 (edcfbbe)
          07092617123D

 26 26  0     0  0            999 V2000
   -2.8397   -0.8988    0.6496 C   0  0  0  0  0  0  0  0  0  0  0  0
   -2.4431   -0.1415   -0.6182 C   0  0  0  0  0  0  0  0  0  0  0  0
   -3.6381    0.5981   -1.2119 C   0  0  0  0  0  0  0  0  0  0  0  0
   -1.4664    0.8511   -0.3332 O   0  0  0  0  0  0  0  0  0  0  0  0
   -0.1687    0.5078   -0.1307 C   0  0  0  0  0  0  0  0  0  0  0  0
    0.6792    1.5633    0.2129 C   0  0  0  0  0  0  0  0  0  0  0  0
    2.0226    1.3451    0.4304 C   0  0  0  0  0  0  0  0  0  0  0  0
    2.5654    0.0715    0.3035 C   0  0  0  0  0  0  0  0  0  0  0  0
    4.0224   -0.1897    0.5862 C   0  0  0  0  0  0  0  0  0  0  0  0
    4.2175   -0.8887    1.8013 O   0  0  0  0  0  0  0  0  0  0  0  0
    1.7209   -0.9749   -0.0364 C   0  0  0  0  0  0  0  0  0  0  0  0
    0.3696   -0.7702   -0.2516 C   0  0  0  0  0  0  0  0  0  0  0  0
   -1.9751   -1.3787    1.1019 H   0  0  0  0  0  0  0  0  0  0  0  0
   -3.5802   -1.6580    0.4130 H   0  0  0  0  0  0  0  0  0  0  0  0
   -3.2624   -0.2041    1.3716 H   0  0  0  0  0  0  0  0  0  0  0  0
   -2.0499   -0.8433   -1.3683 H   0  0  0  0  0  0  0  0  0  0  0  0
   -3.3373    1.1331   -2.1087 H   0  0  0  0  0  0  0  0  0  0  0  0
   -4.4255   -0.1062   -1.4642 H   0  0  0  0  0  0  0  0  0  0  0  0
   -4.0184    1.3177   -0.4918 H   0  0  0  0  0  0  0  0  0  0  0  0
    0.2536    2.5504    0.3029 H   0  0  0  0  0  0  0  0  0  0  0  0
    2.6600    2.1766    0.6966 H   0  0  0  0  0  0  0  0  0  0  0  0
    4.4544   -0.8339   -0.1842 H   0  0  0  0  0  0  0  0  0  0  0  0
    4.5779    0.7595    0.6012 H   0  0  0  0  0  0  0  0  0  0  0  0
    3.7799   -0.4001    2.5072 H   0  0  0  0  0  0  0  0  0  0  0  0
    2.1275   -1.9713   -0.1281 H   0  0  0  0  0  0  0  0  0  0  0  0
   -0.2463   -1.6150   -0.5175 H   0  0  0  0  0  0  0  0  0  0  0  0
  1  2  1  0  0  0  0
  2  3  1  0  0  0  0
  2  4  1  0  0  0  0
  4  5  1  0  0  0  0
  5  6  4  0  0  0  0
  6  7  4  0  0  0  0
  7  8  4  0  0  0  0
  8  9  1  0  0  0  0
  9 10  1  0  0  0  0
  8 11  4  0  0  0  0
  5 12  4  0  0  0  0
 11 12  4  0  0  0  0
  1 13  1  0  0  0  0
  1 14  1  0  0  0  0
  1 15  1  0  0  0  0
  2 16  1  0  0  0  0
  3 17  1  0  0  0  0
  3 18  1  0  0  0  0
  3 19  1  0  0  0  0
  6 20  1  0  0  0  0
  7 21  1  0  0  0  0
  9 22  1  0  0  0  0
  9 23  1  0  0  0  0
 10 24  1  0  0  0  0
 11 25  1  0  0  0  0
 12 26  1  0  0  0  0
M  END
