 xtb: 6.7.1 (edcfbbe)
          07082618263D

 13 12  0     0  0            999 V2000
   -2.6472   -0.9266    1.0012 N   0  0  0  0  0  0  0  0  0  0  0  0
   -1.8373   -0.1284    0.8869 C   0  0  0  0  0  0  0  0  0  0  0  0
   -0.8008    0.8562    0.7035 C   0  0  0  0  0  0  0  0  0  0  0  0
    0.0576    0.5191   -0.5234 C   0  0  0  0  0  0  0  0  0  0  0  0
    0.8062   -0.8078   -0.3376 C   0  0  0  0  0  0  0  0  0  0  0  0
    1.7438   -0.7160    0.7533 C   0  0  0  0  0  0  0  0  0  0  0  0
    2.4771   -0.6074    1.6230 N   0  0  0  0  0  0  0  0  0  0  0  0
   -1.2723    1.8350    0.5788 H   0  0  0  0  0  0  0  0  0  0  0  0
   -0.1793    0.8816    1.6041 H   0  0  0  0  0  0  0  0  0  0  0  0
    0.7761    1.3258   -0.6848 H   0  0  0  0  0  0  0  0  0  0  0  0
   -0.5798    0.4449   -1.4073 H   0  0  0  0  0  0  0  0  0  0  0  0
    1.3580   -1.0621   -1.2469 H   0  0  0  0  0  0  0  0  0  0  0  0
    0.0981   -1.6143   -0.1232 H   0  0  0  0  0  0  0  0  0  0  0  0
  1  2  3  0  0  0  0
  2  3  1  0  0  0  0
  3  4  1  0  0  0  0
  4  5  1  0  0  0  0
  5  6  1  0  0  0  0
  6  7  3  0  0  0  0
  3  8  1  0  0  0  0
  3  9  1  0  0  0  0
  4 10  1  0  0  0  0
  4 11  1  0  0  0  0
  5 12  1  0  0  0  0
  5 13  1  0  0  0  0
M  END
