 xtb: 6.7.1 (edcfbbe)
          07092603453D

 19 18  0     0  0            999 V2000
   -2.8060    0.3527   -0.4620 C   0  0  0  0  0  0  0  0  0  0  0  0
   -1.8153   -0.6957   -0.8660 C   0  0  0  0  0  0  0  0  0  0  0  0
   -1.5864   -1.0202   -1.9982 O   0  0  0  0  0  0  0  0  0  0  0  0
   -1.0741   -1.3296    0.3149 C   0  0  0  0  0  0  0  0  0  0  0  0
   -0.0321   -0.3449    0.7974 C   0  0  0  0  0  0  0  0  0  0  0  0
   -0.2750    0.7185    1.3076 O   0  0  0  0  0  0  0  0  0  0  0  0
    1.1976   -0.8064    0.5766 O   0  0  0  0  0  0  0  0  0  0  0  0
    2.2822    0.0388    0.9408 C   0  0  0  0  0  0  0  0  0  0  0  0
    2.5055    1.1533   -0.0707 C   0  0  0  0  0  0  0  0  0  0  0  0
    2.9940    0.4830   -1.6500 Cl  0  0  0  0  0  0  0  0  0  0  0  0
   -3.1588    0.8987   -1.3326 H   0  0  0  0  0  0  0  0  0  0  0  0
   -3.6533   -0.1228    0.0288 H   0  0  0  0  0  0  0  0  0  0  0  0
   -2.3424    1.0311    0.2523 H   0  0  0  0  0  0  0  0  0  0  0  0
   -1.7775   -1.5171    1.1253 H   0  0  0  0  0  0  0  0  0  0  0  0
   -0.5801   -2.2461   -0.0036 H   0  0  0  0  0  0  0  0  0  0  0  0
    3.1525   -0.6168    0.9991 H   0  0  0  0  0  0  0  0  0  0  0  0
    2.0760    0.4897    1.9191 H   0  0  0  0  0  0  0  0  0  0  0  0
    3.3041    1.8115    0.2681 H   0  0  0  0  0  0  0  0  0  0  0  0
    1.5891    1.7224   -0.2250 H   0  0  0  0  0  0  0  0  0  0  0  0
  1  2  1  0  0  0  0
  2  3  2  0  0  0  0
  2  4  1  0  0  0  0
  4  5  1  0  0  0  0
  5  6  2  0  0  0  0
  5  7  1  0  0  0  0
  7  8  1  0  0  0  0
  8  9  1  0  0  0  0
  9 10  1  0  0  0  0
  1 11  1  0  0  0  0
  1 12  1  0  0  0  0
  1 13  1  0  0  0  0
  4 14  1  0  0  0  0
  4 15  1  0  0  0  0
  8 16  1  0  0  0  0
  8 17  1  0  0  0  0
  9 18  1  0  0  0  0
  9 19  1  0  0  0  0
M  END
