 xtb: 6.7.1 (edcfbbe)
          07092612363D

 23 23  0     0  0            999 V2000
   -1.5934   -4.1194    1.3404 C   0  0  0  0  0  0  0  0  0  0  0  0
   -1.2207   -3.0783    0.4798 O   0  0  0  0  0  0  0  0  0  0  0  0
   -0.4732   -2.0700    1.1235 C   0  0  0  0  0  0  0  0  0  0  0  0
   -0.1037   -1.0231    0.1234 C   0  0  0  0  0  0  0  0  0  0  0  0
    0.0013    0.2724    0.4070 C   0  0  0  0  0  0  0  0  0  0  0  0
    0.3928    1.3342   -0.5102 C   0  0  0  0  0  0  0  0  0  0  0  0
    0.5165    1.1425   -1.8873 C   0  0  0  0  0  0  0  0  0  0  0  0
    0.8953    2.1825   -2.7135 C   0  0  0  0  0  0  0  0  0  0  0  0
    1.1599    3.4367   -2.1869 C   0  0  0  0  0  0  0  0  0  0  0  0
    1.0357    3.6447   -0.8236 C   0  0  0  0  0  0  0  0  0  0  0  0
    0.6532    2.6062    0.0034 C   0  0  0  0  0  0  0  0  0  0  0  0
   -2.2272   -3.7543    2.1592 H   0  0  0  0  0  0  0  0  0  0  0  0
   -0.7140   -4.6143    1.7737 H   0  0  0  0  0  0  0  0  0  0  0  0
   -2.1531   -4.8345    0.7410 H   0  0  0  0  0  0  0  0  0  0  0  0
    0.4470   -2.5112    1.5522 H   0  0  0  0  0  0  0  0  0  0  0  0
   -1.0497   -1.6350    1.9559 H   0  0  0  0  0  0  0  0  0  0  0  0
    0.0861   -1.4136   -0.8645 H   0  0  0  0  0  0  0  0  0  0  0  0
   -0.1935    0.5995    1.4223 H   0  0  0  0  0  0  0  0  0  0  0  0
    0.3047    0.1752   -2.3156 H   0  0  0  0  0  0  0  0  0  0  0  0
    0.9842    2.0161   -3.7774 H   0  0  0  0  0  0  0  0  0  0  0  0
    1.4574    4.2470   -2.8360 H   0  0  0  0  0  0  0  0  0  0  0  0
    1.2362    4.6204   -0.4047 H   0  0  0  0  0  0  0  0  0  0  0  0
    0.5581    2.7762    1.0669 H   0  0  0  0  0  0  0  0  0  0  0  0
  1  2  1  0  0  0  0
  2  3  1  0  0  0  0
  3  4  1  0  0  0  0
  4  5  2  0  0  0  0
  5  6  1  0  0  0  0
  6  7  4  0  0  0  0
  7  8  4  0  0  0  0
  8  9  4  0  0  0  0
  9 10  4  0  0  0  0
  6 11  4  0  0  0  0
 10 11  4  0  0  0  0
  1 12  1  0  0  0  0
  1 13  1  0  0  0  0
  1 14  1  0  0  0  0
  3 15  1  0  0  0  0
  3 16  1  0  0  0  0
  4 17  1  0  0  0  0
  5 18  1  0  0  0  0
  7 19  1  0  0  0  0
  8 20  1  0  0  0  0
  9 21  1  0  0  0  0
 10 22  1  0  0  0  0
 11 23  1  0  0  0  0
M  END
