 xtb: 6.7.1 (edcfbbe)
          07092602243D

 26 25  0     0  0            999 V2000
    3.3959    0.5516   -0.8755 C   0  0  0  0  0  0  0  0  0  0  0  0
    1.9533    0.6828   -0.4012 C   0  0  0  0  0  0  0  0  0  0  0  0
    1.3573   -0.6806   -0.0587 C   0  0  0  0  0  0  0  0  0  0  0  0
   -0.0154   -0.6077    0.6257 C   0  0  0  0  0  0  0  0  0  0  0  0
   -0.4782   -1.9032    0.9555 O   0  0  0  0  0  0  0  0  0  0  0  0
   -1.0759    0.0544   -0.2730 C   0  0  0  0  0  0  0  0  0  0  0  0
   -1.1698   -0.6917   -1.5764 C   0  0  0  0  0  0  0  0  0  0  0  0
   -1.0437   -0.2025   -2.6644 O   0  0  0  0  0  0  0  0  0  0  0  0
   -2.4730    0.0374    0.3739 C   0  0  0  0  0  0  0  0  0  0  0  0
   -2.6064    1.0493    1.5051 C   0  0  0  0  0  0  0  0  0  0  0  0
    4.0193    0.1124   -0.0993 H   0  0  0  0  0  0  0  0  0  0  0  0
    3.8025    1.5271   -1.1306 H   0  0  0  0  0  0  0  0  0  0  0  0
    3.4477   -0.0825   -1.7575 H   0  0  0  0  0  0  0  0  0  0  0  0
    1.9166    1.3267    0.4812 H   0  0  0  0  0  0  0  0  0  0  0  0
    1.3644    1.1529   -1.1894 H   0  0  0  0  0  0  0  0  0  0  0  0
    1.2661   -1.2797   -0.9681 H   0  0  0  0  0  0  0  0  0  0  0  0
    2.0438   -1.2038    0.6162 H   0  0  0  0  0  0  0  0  0  0  0  0
    0.0822   -0.0073    1.5462 H   0  0  0  0  0  0  0  0  0  0  0  0
    0.2131   -2.3651    1.4409 H   0  0  0  0  0  0  0  0  0  0  0  0
   -0.7826    1.0887   -0.4695 H   0  0  0  0  0  0  0  0  0  0  0  0
   -1.3977   -1.7654   -1.4462 H   0  0  0  0  0  0  0  0  0  0  0  0
   -3.2121    0.2678   -0.3972 H   0  0  0  0  0  0  0  0  0  0  0  0
   -2.6693   -0.9679    0.7468 H   0  0  0  0  0  0  0  0  0  0  0  0
   -3.6215    1.0363    1.8948 H   0  0  0  0  0  0  0  0  0  0  0  0
   -1.9281    0.8155    2.3213 H   0  0  0  0  0  0  0  0  0  0  0  0
   -2.3884    2.0543    1.1501 H   0  0  0  0  0  0  0  0  0  0  0  0
  1  2  1  0  0  0  0
  2  3  1  0  0  0  0
  3  4  1  0  0  0  0
  4  5  1  0  0  0  0
  4  6  1  0  0  0  0
  6  7  1  0  0  0  0
  7  8  2  0  0  0  0
  6  9  1  0  0  0  0
  9 10  1  0  0  0  0
  1 11  1  0  0  0  0
  1 12  1  0  0  0  0
  1 13  1  0  0  0  0
  2 14  1  0  0  0  0
  2 15  1  0  0  0  0
  3 16  1  0  0  0  0
  3 17  1  0  0  0  0
  4 18  1  0  0  0  0
  5 19  1  0  0  0  0
  6 20  1  0  0  0  0
  7 21  1  0  0  0  0
  9 22  1  0  0  0  0
  9 23  1  0  0  0  0
 10 24  1  0  0  0  0
 10 25  1  0  0  0  0
 10 26  1  0  0  0  0
M  END
