 xtb: 6.7.1 (edcfbbe)
          07082600233D

 28 27  0     0  0            999 V2000
   -4.1465   -0.9702   -0.2207 C   0  0  0  0  0  0  0  0  0  0  0  0
   -2.8795   -1.3918    0.5134 C   0  0  0  0  0  0  0  0  0  0  0  0
   -1.6223   -0.8534   -0.1657 C   0  0  0  0  0  0  0  0  0  0  0  0
   -0.3558   -1.2597    0.5840 C   0  0  0  0  0  0  0  0  0  0  0  0
    0.9276   -0.8301   -0.1256 C   0  0  0  0  0  0  0  0  0  0  0  0
    1.1784    0.6823   -0.0378 C   0  0  0  0  0  0  0  0  0  0  0  0
    1.2128    1.1276    1.2937 O   0  0  0  0  0  0  0  0  0  0  0  0
    2.5031    1.0450   -0.7434 C   0  0  0  0  0  0  0  0  0  0  0  0
    2.6767    2.5582   -0.8395 C   0  0  0  0  0  0  0  0  0  0  0  0
    3.5353    0.4527    0.0290 O   0  0  0  0  0  0  0  0  0  0  0  0
   -4.2287    0.1143   -0.2465 H   0  0  0  0  0  0  0  0  0  0  0  0
   -4.1339   -1.3361   -1.2453 H   0  0  0  0  0  0  0  0  0  0  0  0
   -5.0286   -1.3692    0.2751 H   0  0  0  0  0  0  0  0  0  0  0  0
   -2.8296   -2.4827    0.5531 H   0  0  0  0  0  0  0  0  0  0  0  0
   -2.9168   -1.0249    1.5414 H   0  0  0  0  0  0  0  0  0  0  0  0
   -1.5761   -1.2327   -1.1899 H   0  0  0  0  0  0  0  0  0  0  0  0
   -1.6852    0.2348   -0.2148 H   0  0  0  0  0  0  0  0  0  0  0  0
   -0.3458   -2.3465    0.6980 H   0  0  0  0  0  0  0  0  0  0  0  0
   -0.3697   -0.8166    1.5815 H   0  0  0  0  0  0  0  0  0  0  0  0
    1.7821   -1.3332    0.3325 H   0  0  0  0  0  0  0  0  0  0  0  0
    0.8869   -1.1201   -1.1772 H   0  0  0  0  0  0  0  0  0  0  0  0
    0.3612    1.2297   -0.5163 H   0  0  0  0  0  0  0  0  0  0  0  0
    2.0206    0.7621    1.6790 H   0  0  0  0  0  0  0  0  0  0  0  0
    2.5019    0.6073   -1.7546 H   0  0  0  0  0  0  0  0  0  0  0  0
    2.5821    2.9983    0.1506 H   0  0  0  0  0  0  0  0  0  0  0  0
    1.9116    2.9795   -1.4851 H   0  0  0  0  0  0  0  0  0  0  0  0
    3.6548    2.8078   -1.2488 H   0  0  0  0  0  0  0  0  0  0  0  0
    4.3835    0.7677   -0.2987 H   0  0  0  0  0  0  0  0  0  0  0  0
  1  2  1  0  0  0  0
  2  3  1  0  0  0  0
  3  4  1  0  0  0  0
  4  5  1  0  0  0  0
  5  6  1  0  0  0  0
  6  7  1  0  0  0  0
  6  8  1  0  0  0  0
  8  9  1  0  0  0  0
  8 10  1  0  0  0  0
  1 11  1  0  0  0  0
  1 12  1  0  0  0  0
  1 13  1  0  0  0  0
  2 14  1  0  0  0  0
  2 15  1  0  0  0  0
  3 16  1  0  0  0  0
  3 17  1  0  0  0  0
  4 18  1  0  0  0  0
  4 19  1  0  0  0  0
  5 20  1  0  0  0  0
  5 21  1  0  0  0  0
  6 22  1  0  0  0  0
  7 23  1  0  0  0  0
  8 24  1  0  0  0  0
  9 25  1  0  0  0  0
  9 26  1  0  0  0  0
  9 27  1  0  0  0  0
 10 28  1  0  0  0  0
M  END
