 xtb: 6.7.1 (edcfbbe)
          07082613063D

 27 28  0     0  0            999 V2000
   -0.3803    3.0512   -0.2367 C   0  0  0  0  0  0  0  0  0  0  0  0
   -0.7617    1.6050   -0.1243 C   0  0  0  0  0  0  0  0  0  0  0  0
   -2.1030    1.2506   -0.1202 C   0  0  0  0  0  0  0  0  0  0  0  0
   -2.4862   -0.0710   -0.0195 C   0  0  0  0  0  0  0  0  0  0  0  0
   -1.5465   -1.0876    0.0663 C   0  0  0  0  0  0  0  0  0  0  0  0
   -2.0264   -2.4989    0.1605 C   0  0  0  0  0  0  0  0  0  0  0  0
   -0.1796   -0.7467    0.0496 C   0  0  0  0  0  0  0  0  0  0  0  0
    0.2055    0.6034   -0.0257 C   0  0  0  0  0  0  0  0  0  0  0  0
    1.6532    1.0118   -0.0118 C   0  0  0  0  0  0  0  0  0  0  0  0
    2.5772   -0.0930    0.4768 C   0  0  0  0  0  0  0  0  0  0  0  0
    2.2503   -1.3732   -0.2744 C   0  0  0  0  0  0  0  0  0  0  0  0
    0.8447   -1.8134    0.0757 C   0  0  0  0  0  0  0  0  0  0  0  0
    0.6109   -2.9736    0.3406 O   0  0  0  0  0  0  0  0  0  0  0  0
   -1.2632    3.6625   -0.4046 H   0  0  0  0  0  0  0  0  0  0  0  0
    0.3118    3.2088   -1.0626 H   0  0  0  0  0  0  0  0  0  0  0  0
    0.1038    3.3981    0.6765 H   0  0  0  0  0  0  0  0  0  0  0  0
   -2.8569    2.0216   -0.1936 H   0  0  0  0  0  0  0  0  0  0  0  0
   -3.5373   -0.3209   -0.0118 H   0  0  0  0  0  0  0  0  0  0  0  0
   -1.7394   -2.9336    1.1164 H   0  0  0  0  0  0  0  0  0  0  0  0
   -3.1093   -2.5376    0.0628 H   0  0  0  0  0  0  0  0  0  0  0  0
   -1.5743   -3.1177   -0.6122 H   0  0  0  0  0  0  0  0  0  0  0  0
    1.7757    1.8966    0.6161 H   0  0  0  0  0  0  0  0  0  0  0  0
    1.9393    1.2972   -1.0310 H   0  0  0  0  0  0  0  0  0  0  0  0
    3.6196    0.1903    0.3175 H   0  0  0  0  0  0  0  0  0  0  0  0
    2.4316   -0.2538    1.5477 H   0  0  0  0  0  0  0  0  0  0  0  0
    2.3002   -1.1955   -1.3525 H   0  0  0  0  0  0  0  0  0  0  0  0
    2.9405   -2.1807   -0.0256 H   0  0  0  0  0  0  0  0  0  0  0  0
  1  2  1  0  0  0  0
  2  3  4  0  0  0  0
  3  4  4  0  0  0  0
  4  5  4  0  0  0  0
  5  6  1  0  0  0  0
  5  7  4  0  0  0  0
  2  8  4  0  0  0  0
  7  8  4  0  0  0  0
  8  9  1  0  0  0  0
  9 10  1  0  0  0  0
 10 11  1  0  0  0  0
  7 12  1  0  0  0  0
 11 12  1  0  0  0  0
 12 13  2  0  0  0  0
  1 14  1  0  0  0  0
  1 15  1  0  0  0  0
  1 16  1  0  0  0  0
  3 17  1  0  0  0  0
  4 18  1  0  0  0  0
  6 19  1  0  0  0  0
  6 20  1  0  0  0  0
  6 21  1  0  0  0  0
  9 22  1  0  0  0  0
  9 23  1  0  0  0  0
 10 24  1  0  0  0  0
 10 25  1  0  0  0  0
 11 26  1  0  0  0  0
 11 27  1  0  0  0  0
M  END
