 xtb: 6.7.1 (edcfbbe)
          07092611323D

 24 24  0     0  0            999 V2000
    2.1789    1.2116    1.5364 O   0  0  0  0  0  0  0  0  0  0  0  0
    2.4450    0.3785    0.7188 C   0  0  0  0  0  0  0  0  0  0  0  0
    3.8489   -0.0249    0.2881 C   0  0  0  0  0  0  0  0  0  0  0  0
    5.0668    0.9532    1.1207 Cl  0  0  0  0  0  0  0  0  0  0  0  0
    1.5620   -0.3538    0.0463 O   0  0  0  0  0  0  0  0  0  0  0  0
    0.1653   -0.1186    0.3168 C   0  0  0  0  0  0  0  0  0  0  0  0
   -0.3489    1.0402   -0.5346 C   0  0  0  0  0  0  0  0  0  0  0  0
   -1.8442    1.2350   -0.3017 C   0  0  0  0  0  0  0  0  0  0  0  0
   -2.6077   -0.0476   -0.6176 C   0  0  0  0  0  0  0  0  0  0  0  0
   -2.0847   -1.2015    0.2327 C   0  0  0  0  0  0  0  0  0  0  0  0
   -0.5899   -1.4037    0.0005 C   0  0  0  0  0  0  0  0  0  0  0  0
    4.0197   -1.0737    0.5327 H   0  0  0  0  0  0  0  0  0  0  0  0
    3.9599    0.1210   -0.7866 H   0  0  0  0  0  0  0  0  0  0  0  0
    0.0652    0.1366    1.3794 H   0  0  0  0  0  0  0  0  0  0  0  0
    0.1971    1.9489   -0.2751 H   0  0  0  0  0  0  0  0  0  0  0  0
   -0.1599    0.8133   -1.5863 H   0  0  0  0  0  0  0  0  0  0  0  0
   -2.2067    2.0512   -0.9285 H   0  0  0  0  0  0  0  0  0  0  0  0
   -2.0130    1.5118    0.7410 H   0  0  0  0  0  0  0  0  0  0  0  0
   -2.4859   -0.2919   -1.6750 H   0  0  0  0  0  0  0  0  0  0  0  0
   -3.6724    0.0990   -0.4278 H   0  0  0  0  0  0  0  0  0  0  0  0
   -2.6190   -2.1206   -0.0131 H   0  0  0  0  0  0  0  0  0  0  0  0
   -2.2603   -0.9826    1.2881 H   0  0  0  0  0  0  0  0  0  0  0  0
   -0.2114   -2.2134    0.6264 H   0  0  0  0  0  0  0  0  0  0  0  0
   -0.4048   -1.6678   -1.0421 H   0  0  0  0  0  0  0  0  0  0  0  0
  1  2  2  0  0  0  0
  2  3  1  0  0  0  0
  3  4  1  0  0  0  0
  2  5  1  0  0  0  0
  5  6  1  0  0  0  0
  6  7  1  0  0  0  0
  7  8  1  0  0  0  0
  8  9  1  0  0  0  0
  9 10  1  0  0  0  0
  6 11  1  0  0  0  0
 10 11  1  0  0  0  0
  3 12  1  0  0  0  0
  3 13  1  0  0  0  0
  6 14  1  0  0  0  0
  7 15  1  0  0  0  0
  7 16  1  0  0  0  0
  8 17  1  0  0  0  0
  8 18  1  0  0  0  0
  9 19  1  0  0  0  0
  9 20  1  0  0  0  0
 10 21  1  0  0  0  0
 10 22  1  0  0  0  0
 11 23  1  0  0  0  0
 11 24  1  0  0  0  0
M  END
