 xtb: 6.7.1 (edcfbbe)
          07072613243D

 29 29  0     0  0            999 V2000
   -4.8595    0.1851    0.1429 C   0  0  0  0  0  0  0  0  0  0  0  0
   -3.7439    0.6814   -0.7685 C   0  0  0  0  0  0  0  0  0  0  0  0
   -2.3734    0.5130   -0.1193 C   0  0  0  0  0  0  0  0  0  0  0  0
   -1.2571    1.0156   -1.0316 C   0  0  0  0  0  0  0  0  0  0  0  0
    0.0102    0.9636   -0.3865 O   0  0  0  0  0  0  0  0  0  0  0  0
    0.6722   -0.2041   -0.4330 C   0  0  0  0  0  0  0  0  0  0  0  0
    0.2251   -1.1770   -1.0160 O   0  0  0  0  0  0  0  0  0  0  0  0
    1.9534   -0.1590    0.2778 C   0  0  0  0  0  0  0  0  0  0  0  0
    2.3338    0.9967    0.9674 C   0  0  0  0  0  0  0  0  0  0  0  0
    3.5191    1.0580    1.6625 C   0  0  0  0  0  0  0  0  0  0  0  0
    4.3584   -0.0529    1.6840 C   0  0  0  0  0  0  0  0  0  0  0  0
    4.0106   -1.2006    1.0143 C   0  0  0  0  0  0  0  0  0  0  0  0
    2.8087   -1.2868    0.2929 C   0  0  0  0  0  0  0  0  0  0  0  0
    2.5070   -2.4119   -0.3914 N   0  0  0  0  0  0  0  0  0  0  0  0
   -5.8280    0.3122   -0.3350 H   0  0  0  0  0  0  0  0  0  0  0  0
   -4.8629    0.7395    1.0788 H   0  0  0  0  0  0  0  0  0  0  0  0
   -4.7243   -0.8697    0.3705 H   0  0  0  0  0  0  0  0  0  0  0  0
   -3.7674    0.1262   -1.7085 H   0  0  0  0  0  0  0  0  0  0  0  0
   -3.9063    1.7364   -1.0014 H   0  0  0  0  0  0  0  0  0  0  0  0
   -2.3363    1.0677    0.8211 H   0  0  0  0  0  0  0  0  0  0  0  0
   -2.1967   -0.5416    0.1018 H   0  0  0  0  0  0  0  0  0  0  0  0
   -1.4070    2.0678   -1.2855 H   0  0  0  0  0  0  0  0  0  0  0  0
   -1.2205    0.4151   -1.9471 H   0  0  0  0  0  0  0  0  0  0  0  0
    1.6705    1.8467    0.9457 H   0  0  0  0  0  0  0  0  0  0  0  0
    3.7967    1.9576    2.1896 H   0  0  0  0  0  0  0  0  0  0  0  0
    5.2890   -0.0136    2.2314 H   0  0  0  0  0  0  0  0  0  0  0  0
    4.6630   -2.0623    1.0311 H   0  0  0  0  0  0  0  0  0  0  0  0
    3.0689   -3.2347   -0.2713 H   0  0  0  0  0  0  0  0  0  0  0  0
    1.5969   -2.4686   -0.8252 H   0  0  0  0  0  0  0  0  0  0  0  0
  1  2  1  0  0  0  0
  2  3  1  0  0  0  0
  3  4  1  0  0  0  0
  4  5  1  0  0  0  0
  5  6  1  0  0  0  0
  6  7  2  0  0  0  0
  6  8  1  0  0  0  0
  8  9  4  0  0  0  0
  9 10  4  0  0  0  0
 10 11  4  0  0  0  0
 11 12  2  0  0  0  0
  8 13  4  0  0  0  0
 12 13  4  0  0  0  0
 13 14  4  0  0  0  0
  1 15  1  0  0  0  0
  1 16  1  0  0  0  0
  1 17  1  0  0  0  0
  2 18  1  0  0  0  0
  2 19  1  0  0  0  0
  3 20  1  0  0  0  0
  3 21  1  0  0  0  0
  4 22  1  0  0  0  0
  4 23  1  0  0  0  0
  9 24  1  0  0  0  0
 10 25  1  0  0  0  0
 11 26  1  0  0  0  0
 12 27  1  0  0  0  0
 14 28  1  0  0  0  0
 14 29  1  0  0  0  0
M  END
