 xtb: 6.7.1 (edcfbbe)
          07082621163D

 21 20  0     0  0            999 V2000
    3.6825    0.4163   -0.1868 C   0  0  0  0  0  0  0  0  0  0  0  0
    2.4383   -0.3811    0.1840 C   0  0  0  0  0  0  0  0  0  0  0  0
    1.1638    0.3353   -0.2557 C   0  0  0  0  0  0  0  0  0  0  0  0
   -0.0777   -0.4607    0.1147 C   0  0  0  0  0  0  0  0  0  0  0  0
   -1.2331    0.2673   -0.3212 O   0  0  0  0  0  0  0  0  0  0  0  0
   -2.4082   -0.2916   -0.0810 C   0  0  0  0  0  0  0  0  0  0  0  0
   -2.5767   -1.3527    0.4682 O   0  0  0  0  0  0  0  0  0  0  0  0
   -3.5717    0.5483   -0.5751 C   0  0  0  0  0  0  0  0  0  0  0  0
   -4.7838   -0.0868   -0.2966 O   0  0  0  0  0  0  0  0  0  0  0  0
    3.7360    0.5619   -1.2631 H   0  0  0  0  0  0  0  0  0  0  0  0
    3.6660    1.3934    0.2903 H   0  0  0  0  0  0  0  0  0  0  0  0
    4.5796   -0.1072    0.1339 H   0  0  0  0  0  0  0  0  0  0  0  0
    2.4816   -1.3645   -0.2887 H   0  0  0  0  0  0  0  0  0  0  0  0
    2.4124   -0.5342    1.2648 H   0  0  0  0  0  0  0  0  0  0  0  0
    1.1764    0.4866   -1.3363 H   0  0  0  0  0  0  0  0  0  0  0  0
    1.1073    1.3170    0.2177 H   0  0  0  0  0  0  0  0  0  0  0  0
   -0.0784   -1.4450   -0.3665 H   0  0  0  0  0  0  0  0  0  0  0  0
   -0.1448   -0.6131    1.1976 H   0  0  0  0  0  0  0  0  0  0  0  0
   -3.4639    0.7040   -1.6566 H   0  0  0  0  0  0  0  0  0  0  0  0
   -3.5355    1.5295   -0.0837 H   0  0  0  0  0  0  0  0  0  0  0  0
   -4.5701   -0.9228    0.1512 H   0  0  0  0  0  0  0  0  0  0  0  0
  1  2  1  0  0  0  0
  2  3  1  0  0  0  0
  3  4  1  0  0  0  0
  4  5  1  0  0  0  0
  5  6  1  0  0  0  0
  6  7  2  0  0  0  0
  6  8  1  0  0  0  0
  8  9  1  0  0  0  0
  1 10  1  0  0  0  0
  1 11  1  0  0  0  0
  1 12  1  0  0  0  0
  2 13  1  0  0  0  0
  2 14  1  0  0  0  0
  3 15  1  0  0  0  0
  3 16  1  0  0  0  0
  4 17  1  0  0  0  0
  4 18  1  0  0  0  0
  8 19  1  0  0  0  0
  8 20  1  0  0  0  0
  9 21  1  0  0  0  0
M  END
