 xtb: 6.7.1 (edcfbbe)
          07072603373D

 42 41  0     0  0            999 V2000
   -2.7007    3.8080   -0.5654 C   0  0  0  0  0  0  0  0  0  0  0  0
   -1.9563    2.5588   -0.1142 C   0  0  0  0  0  0  0  0  0  0  0  0
   -2.4426    1.3201   -0.8699 C   0  0  0  0  0  0  0  0  0  0  0  0
   -1.7539    0.1162   -0.4391 N   0  0  0  0  0  0  0  0  0  0  0  0
   -2.3250   -0.5903    0.6849 C   0  0  0  0  0  0  0  0  0  0  0  0
   -3.3899   -1.6086    0.2583 C   0  0  0  0  0  0  0  0  0  0  0  0
   -3.9664   -2.3394    1.4635 C   0  0  0  0  0  0  0  0  0  0  0  0
   -0.6495   -0.2661   -1.1266 C   0  0  0  0  0  0  0  0  0  0  0  0
   -0.2496    0.3780   -2.0821 O   0  0  0  0  0  0  0  0  0  0  0  0
    0.0540   -1.5207   -0.6395 C   0  0  0  0  0  0  0  0  0  0  0  0
    1.2663   -1.8756   -1.5015 C   0  0  0  0  0  0  0  0  0  0  0  0
    2.3846   -0.8388   -1.4045 C   0  0  0  0  0  0  0  0  0  0  0  0
    3.0150   -0.7396   -0.0404 C   0  0  0  0  0  0  0  0  0  0  0  0
    2.5562   -1.1472    0.9977 O   0  0  0  0  0  0  0  0  0  0  0  0
    4.1920   -0.1076   -0.1144 O   0  0  0  0  0  0  0  0  0  0  0  0
    4.8907    0.0927    1.1153 C   0  0  0  0  0  0  0  0  0  0  0  0
    6.1248    0.9288    0.8359 C   0  0  0  0  0  0  0  0  0  0  0  0
   -2.3416    4.6812   -0.0263 H   0  0  0  0  0  0  0  0  0  0  0  0
   -2.5500    3.9742   -1.6292 H   0  0  0  0  0  0  0  0  0  0  0  0
   -3.7684    3.7057   -0.3816 H   0  0  0  0  0  0  0  0  0  0  0  0
   -2.0979    2.4133    0.9597 H   0  0  0  0  0  0  0  0  0  0  0  0
   -0.8876    2.6774   -0.2989 H   0  0  0  0  0  0  0  0  0  0  0  0
   -2.2428    1.4497   -1.9362 H   0  0  0  0  0  0  0  0  0  0  0  0
   -3.5171    1.1847   -0.7236 H   0  0  0  0  0  0  0  0  0  0  0  0
   -1.5394   -1.0959    1.2485 H   0  0  0  0  0  0  0  0  0  0  0  0
   -2.7836    0.1479    1.3492 H   0  0  0  0  0  0  0  0  0  0  0  0
   -4.1898   -1.0916   -0.2754 H   0  0  0  0  0  0  0  0  0  0  0  0
   -2.9480   -2.3284   -0.4327 H   0  0  0  0  0  0  0  0  0  0  0  0
   -3.1837   -2.8769    1.9939 H   0  0  0  0  0  0  0  0  0  0  0  0
   -4.7221   -3.0548    1.1495 H   0  0  0  0  0  0  0  0  0  0  0  0
   -4.4260   -1.6354    2.1538 H   0  0  0  0  0  0  0  0  0  0  0  0
    0.3922   -1.3684    0.3865 H   0  0  0  0  0  0  0  0  0  0  0  0
   -0.6498   -2.3543   -0.6495 H   0  0  0  0  0  0  0  0  0  0  0  0
    1.6448   -2.8505   -1.1876 H   0  0  0  0  0  0  0  0  0  0  0  0
    0.9549   -1.9416   -2.5452 H   0  0  0  0  0  0  0  0  0  0  0  0
    3.1745   -1.0532   -2.1257 H   0  0  0  0  0  0  0  0  0  0  0  0
    1.9730    0.1421   -1.6562 H   0  0  0  0  0  0  0  0  0  0  0  0
    4.2214    0.5913    1.8256 H   0  0  0  0  0  0  0  0  0  0  0  0
    5.1579   -0.8852    1.5320 H   0  0  0  0  0  0  0  0  0  0  0  0
    6.6771    1.0855    1.7580 H   0  0  0  0  0  0  0  0  0  0  0  0
    6.7645    0.4220    0.1187 H   0  0  0  0  0  0  0  0  0  0  0  0
    5.8379    1.8922    0.4237 H   0  0  0  0  0  0  0  0  0  0  0  0
  1  2  1  0  0  0  0
  2  3  1  0  0  0  0
  3  4  1  0  0  0  0
  4  5  1  0  0  0  0
  5  6  1  0  0  0  0
  6  7  1  0  0  0  0
  4  8  4  0  0  0  0
  8  9  2  0  0  0  0
  8 10  1  0  0  0  0
 10 11  1  0  0  0  0
 11 12  1  0  0  0  0
 12 13  1  0  0  0  0
 13 14  2  0  0  0  0
 13 15  1  0  0  0  0
 15 16  1  0  0  0  0
 16 17  1  0  0  0  0
  1 18  1  0  0  0  0
  1 19  1  0  0  0  0
  1 20  1  0  0  0  0
  2 21  1  0  0  0  0
  2 22  1  0  0  0  0
  3 23  1  0  0  0  0
  3 24  1  0  0  0  0
  5 25  1  0  0  0  0
  5 26  1  0  0  0  0
  6 27  1  0  0  0  0
  6 28  1  0  0  0  0
  7 29  1  0  0  0  0
  7 30  1  0  0  0  0
  7 31  1  0  0  0  0
 10 32  1  0  0  0  0
 10 33  1  0  0  0  0
 11 34  1  0  0  0  0
 11 35  1  0  0  0  0
 12 36  1  0  0  0  0
 12 37  1  0  0  0  0
 16 38  1  0  0  0  0
 16 39  1  0  0  0  0
 17 40  1  0  0  0  0
 17 41  1  0  0  0  0
 17 42  1  0  0  0  0
M  END
