 xtb: 6.7.1 (edcfbbe)
          07082610103D

 29 30  0     0  0            999 V2000
   -2.4661   -1.2364    0.3044 C   0  0  0  0  0  0  0  0  0  0  0  0
   -1.2371   -0.3385    0.1977 C   0  0  0  0  0  0  0  0  0  0  0  0
   -1.4261    0.7338   -0.8876 C   0  0  0  0  0  0  0  0  0  0  0  0
   -0.1464    1.5784   -0.9884 C   0  0  0  0  0  0  0  0  0  0  0  0
    0.8895    0.9969   -0.0218 C   0  0  0  0  0  0  0  0  0  0  0  0
    0.3383    1.1980    1.3929 C   0  0  0  0  0  0  0  0  0  0  0  0
   -0.9320    0.3460    1.5400 C   0  0  0  0  0  0  0  0  0  0  0  0
    1.0901   -0.5062   -0.3027 C   0  0  0  0  0  0  0  0  0  0  0  0
    1.6044   -0.7470   -1.7302 C   0  0  0  0  0  0  0  0  0  0  0  0
    2.0944   -1.1316    0.6773 C   0  0  0  0  0  0  0  0  0  0  0  0
   -0.1573   -1.1874   -0.1577 O   0  0  0  0  0  0  0  0  0  0  0  0
   -2.6447   -1.7283   -0.6478 H   0  0  0  0  0  0  0  0  0  0  0  0
   -3.3404   -0.6513    0.5758 H   0  0  0  0  0  0  0  0  0  0  0  0
   -2.2975   -2.0008    1.0579 H   0  0  0  0  0  0  0  0  0  0  0  0
   -1.6341    0.2302   -1.8330 H   0  0  0  0  0  0  0  0  0  0  0  0
   -2.2894    1.3514   -0.6393 H   0  0  0  0  0  0  0  0  0  0  0  0
   -0.3451    2.6150   -0.7095 H   0  0  0  0  0  0  0  0  0  0  0  0
    0.2391    1.5882   -2.0075 H   0  0  0  0  0  0  0  0  0  0  0  0
    1.8462    1.5142   -0.1338 H   0  0  0  0  0  0  0  0  0  0  0  0
    1.0832    0.9257    2.1400 H   0  0  0  0  0  0  0  0  0  0  0  0
    0.1118    2.2564    1.5352 H   0  0  0  0  0  0  0  0  0  0  0  0
   -1.7854    0.9558    1.8372 H   0  0  0  0  0  0  0  0  0  0  0  0
   -0.7939   -0.4293    2.2953 H   0  0  0  0  0  0  0  0  0  0  0  0
    0.8613   -0.4554   -2.4656 H   0  0  0  0  0  0  0  0  0  0  0  0
    2.5205   -0.1880   -1.9030 H   0  0  0  0  0  0  0  0  0  0  0  0
    1.8048   -1.8067   -1.8638 H   0  0  0  0  0  0  0  0  0  0  0  0
    1.7073   -1.1194    1.6912 H   0  0  0  0  0  0  0  0  0  0  0  0
    3.0394   -0.5952    0.6464 H   0  0  0  0  0  0  0  0  0  0  0  0
    2.2656   -2.1684    0.4004 H   0  0  0  0  0  0  0  0  0  0  0  0
  1  2  1  0  0  0  0
  2  3  1  0  0  0  0
  3  4  1  0  0  0  0
  4  5  1  0  0  0  0
  5  6  1  0  0  0  0
  2  7  1  0  0  0  0
  6  7  1  0  0  0  0
  5  8  1  0  0  0  0
  8  9  1  0  0  0  0
  8 10  1  0  0  0  0
  2 11  1  0  0  0  0
  8 11  1  0  0  0  0
  1 12  1  0  0  0  0
  1 13  1  0  0  0  0
  1 14  1  0  0  0  0
  3 15  1  0  0  0  0
  3 16  1  0  0  0  0
  4 17  1  0  0  0  0
  4 18  1  0  0  0  0
  5 19  1  0  0  0  0
  6 20  1  0  0  0  0
  6 21  1  0  0  0  0
  7 22  1  0  0  0  0
  7 23  1  0  0  0  0
  9 24  1  0  0  0  0
  9 25  1  0  0  0  0
  9 26  1  0  0  0  0
 10 27  1  0  0  0  0
 10 28  1  0  0  0  0
 10 29  1  0  0  0  0
M  END
