 xtb: 6.7.1 (edcfbbe)
          07092603103D

 24 23  0     0  0            999 V2000
    3.8131   -0.4081   -0.6455 C   0  0  0  0  0  0  0  0  0  0  0  0
    3.4363    0.1127    0.7356 C   0  0  0  0  0  0  0  0  0  0  0  0
    2.0535   -0.3691    1.1613 C   0  0  0  0  0  0  0  0  0  0  0  0
    1.0857    0.2121    0.3163 O   0  0  0  0  0  0  0  0  0  0  0  0
   -0.2261   -0.1901    0.6202 C   0  0  0  0  0  0  0  0  0  0  0  0
   -1.1746    0.4826   -0.3647 C   0  0  0  0  0  0  0  0  0  0  0  0
   -2.6122    0.1124   -0.0951 C   0  0  0  0  0  0  0  0  0  0  0  0
   -2.9973   -0.6154    0.7804 O   0  0  0  0  0  0  0  0  0  0  0  0
   -3.4287    0.7084   -0.9731 O   0  0  0  0  0  0  0  0  0  0  0  0
   -4.8166    0.4375   -0.8228 C   0  0  0  0  0  0  0  0  0  0  0  0
    3.0656   -0.0976   -1.3698 H   0  0  0  0  0  0  0  0  0  0  0  0
    3.8646   -1.4948   -0.6430 H   0  0  0  0  0  0  0  0  0  0  0  0
    4.7806   -0.0165   -0.9496 H   0  0  0  0  0  0  0  0  0  0  0  0
    4.1642   -0.2227    1.4766 H   0  0  0  0  0  0  0  0  0  0  0  0
    3.4305    1.2033    0.7258 H   0  0  0  0  0  0  0  0  0  0  0  0
    1.8554   -0.0822    2.2068 H   0  0  0  0  0  0  0  0  0  0  0  0
    1.9959   -1.4675    1.0969 H   0  0  0  0  0  0  0  0  0  0  0  0
   -0.3221   -1.2843    0.5459 H   0  0  0  0  0  0  0  0  0  0  0  0
   -0.4897    0.0962    1.6501 H   0  0  0  0  0  0  0  0  0  0  0  0
   -1.0693    1.5668   -0.3002 H   0  0  0  0  0  0  0  0  0  0  0  0
   -0.9192    0.1933   -1.3854 H   0  0  0  0  0  0  0  0  0  0  0  0
   -5.3208    0.9929   -1.6090 H   0  0  0  0  0  0  0  0  0  0  0  0
   -5.0070   -0.6327   -0.9246 H   0  0  0  0  0  0  0  0  0  0  0  0
   -5.1619    0.7629    0.1604 H   0  0  0  0  0  0  0  0  0  0  0  0
  1  2  1  0  0  0  0
  2  3  1  0  0  0  0
  3  4  1  0  0  0  0
  4  5  1  0  0  0  0
  5  6  1  0  0  0  0
  6  7  1  0  0  0  0
  7  8  2  0  0  0  0
  7  9  1  0  0  0  0
  9 10  1  0  0  0  0
  1 11  1  0  0  0  0
  1 12  1  0  0  0  0
  1 13  1  0  0  0  0
  2 14  1  0  0  0  0
  2 15  1  0  0  0  0
  3 16  1  0  0  0  0
  3 17  1  0  0  0  0
  5 18  1  0  0  0  0
  5 19  1  0  0  0  0
  6 20  1  0  0  0  0
  6 21  1  0  0  0  0
 10 22  1  0  0  0  0
 10 23  1  0  0  0  0
 10 24  1  0  0  0  0
M  END
