 xtb: 6.7.1 (edcfbbe)
          07082608203D

 28 28  0     0  0            999 V2000
   -2.4968    1.2092    1.5115 C   0  0  0  0  0  0  0  0  0  0  0  0
   -2.4953   -0.0187    0.8309 O   0  0  0  0  0  0  0  0  0  0  0  0
   -1.3524   -0.4107    0.1884 C   0  0  0  0  0  0  0  0  0  0  0  0
   -0.1783    0.3248    0.1588 C   0  0  0  0  0  0  0  0  0  0  0  0
    0.9430   -0.1443   -0.5183 C   0  0  0  0  0  0  0  0  0  0  0  0
    2.2187    0.6627   -0.5461 C   0  0  0  0  0  0  0  0  0  0  0  0
    1.9984    2.0138   -1.2297 C   0  0  0  0  0  0  0  0  0  0  0  0
    2.7781    0.8534    0.8653 C   0  0  0  0  0  0  0  0  0  0  0  0
    0.8667   -1.3653   -1.1662 C   0  0  0  0  0  0  0  0  0  0  0  0
   -0.3061   -2.1033   -1.1384 C   0  0  0  0  0  0  0  0  0  0  0  0
   -1.4258   -1.6481   -0.4697 C   0  0  0  0  0  0  0  0  0  0  0  0
   -2.7019   -2.4292   -0.4273 C   0  0  0  0  0  0  0  0  0  0  0  0
   -1.7574    1.2250    2.3195 H   0  0  0  0  0  0  0  0  0  0  0  0
   -2.3107    2.0485    0.8327 H   0  0  0  0  0  0  0  0  0  0  0  0
   -3.4942    1.3091    1.9380 H   0  0  0  0  0  0  0  0  0  0  0  0
   -0.1225    1.2756    0.6646 H   0  0  0  0  0  0  0  0  0  0  0  0
    2.9576    0.1036   -1.1308 H   0  0  0  0  0  0  0  0  0  0  0  0
    1.5921    1.8698   -2.2285 H   0  0  0  0  0  0  0  0  0  0  0  0
    2.9401    2.5524   -1.3125 H   0  0  0  0  0  0  0  0  0  0  0  0
    1.3030    2.6272   -0.6621 H   0  0  0  0  0  0  0  0  0  0  0  0
    2.0986    1.4432    1.4757 H   0  0  0  0  0  0  0  0  0  0  0  0
    2.9229   -0.1108    1.3476 H   0  0  0  0  0  0  0  0  0  0  0  0
    3.7355    1.3686    0.8249 H   0  0  0  0  0  0  0  0  0  0  0  0
    1.7262   -1.7474   -1.6976 H   0  0  0  0  0  0  0  0  0  0  0  0
   -0.3495   -3.0546   -1.6492 H   0  0  0  0  0  0  0  0  0  0  0  0
   -2.9712   -2.6511    0.6042 H   0  0  0  0  0  0  0  0  0  0  0  0
   -3.5142   -1.8431   -0.8547 H   0  0  0  0  0  0  0  0  0  0  0  0
   -2.6044   -3.3603   -0.9793 H   0  0  0  0  0  0  0  0  0  0  0  0
  1  2  1  0  0  0  0
  2  3  1  0  0  0  0
  3  4  4  0  0  0  0
  4  5  4  0  0  0  0
  5  6  1  0  0  0  0
  6  7  1  0  0  0  0
  6  8  1  0  0  0  0
  5  9  4  0  0  0  0
  9 10  4  0  0  0  0
  3 11  4  0  0  0  0
 10 11  4  0  0  0  0
 11 12  1  0  0  0  0
  1 13  1  0  0  0  0
  1 14  1  0  0  0  0
  1 15  1  0  0  0  0
  4 16  1  0  0  0  0
  6 17  1  0  0  0  0
  7 18  1  0  0  0  0
  7 19  1  0  0  0  0
  7 20  1  0  0  0  0
  8 21  1  0  0  0  0
  8 22  1  0  0  0  0
  8 23  1  0  0  0  0
  9 24  1  0  0  0  0
 10 25  1  0  0  0  0
 12 26  1  0  0  0  0
 12 27  1  0  0  0  0
 12 28  1  0  0  0  0
M  END
