 xtb: 6.7.1 (edcfbbe)
          07092622433D

 34 33  0     0  0            999 V2000
   -1.9677    1.9284   -1.5294 C   0  0  0  0  0  0  0  0  0  0  0  0
   -2.1754    0.5491   -0.9053 C   0  0  0  0  0  0  0  0  0  0  0  0
   -2.6778    0.7073    0.5354 C   0  0  0  0  0  0  0  0  0  0  0  0
   -3.0608   -0.6146    1.2035 C   0  0  0  0  0  0  0  0  0  0  0  0
   -4.0298   -1.3410    0.4843 O   0  0  0  0  0  0  0  0  0  0  0  0
   -0.9147   -0.3195   -1.0213 C   0  0  0  0  0  0  0  0  0  0  0  0
    0.2870    0.1617   -0.2113 C   0  0  0  0  0  0  0  0  0  0  0  0
    1.4939   -0.7503   -0.4275 C   0  0  0  0  0  0  0  0  0  0  0  0
    2.6502   -0.4805    0.5568 C   0  0  0  0  0  0  0  0  0  0  0  0
    3.7747   -1.4935    0.3008 C   0  0  0  0  0  0  0  0  0  0  0  0
    3.1928    0.9415    0.4154 C   0  0  0  0  0  0  0  0  0  0  0  0
    2.1923   -0.5968    1.8959 O   0  0  0  0  0  0  0  0  0  0  0  0
   -1.2626    2.5153   -0.9460 H   0  0  0  0  0  0  0  0  0  0  0  0
   -2.9079    2.4749   -1.5694 H   0  0  0  0  0  0  0  0  0  0  0  0
   -1.5852    1.8352   -2.5431 H   0  0  0  0  0  0  0  0  0  0  0  0
   -2.9595    0.0344   -1.4738 H   0  0  0  0  0  0  0  0  0  0  0  0
   -1.9210    1.1996    1.1466 H   0  0  0  0  0  0  0  0  0  0  0  0
   -3.5596    1.3562    0.5206 H   0  0  0  0  0  0  0  0  0  0  0  0
   -2.1975   -1.2776    1.2768 H   0  0  0  0  0  0  0  0  0  0  0  0
   -3.4195   -0.4095    2.2242 H   0  0  0  0  0  0  0  0  0  0  0  0
   -4.7959   -0.7730    0.3456 H   0  0  0  0  0  0  0  0  0  0  0  0
   -1.1661   -1.3385   -0.7209 H   0  0  0  0  0  0  0  0  0  0  0  0
   -0.6310   -0.3590   -2.0766 H   0  0  0  0  0  0  0  0  0  0  0  0
    0.0488    0.1681    0.8533 H   0  0  0  0  0  0  0  0  0  0  0  0
    0.5452    1.1775   -0.5088 H   0  0  0  0  0  0  0  0  0  0  0  0
    1.1746   -1.7901   -0.3018 H   0  0  0  0  0  0  0  0  0  0  0  0
    1.8654   -0.6428   -1.4480 H   0  0  0  0  0  0  0  0  0  0  0  0
    4.1912   -1.3554   -0.6930 H   0  0  0  0  0  0  0  0  0  0  0  0
    4.5658   -1.3592    1.0349 H   0  0  0  0  0  0  0  0  0  0  0  0
    3.3989   -2.5127    0.3802 H   0  0  0  0  0  0  0  0  0  0  0  0
    2.4447    1.6561    0.7437 H   0  0  0  0  0  0  0  0  0  0  0  0
    3.4615    1.1447   -0.6170 H   0  0  0  0  0  0  0  0  0  0  0  0
    4.0713    1.0599    1.0438 H   0  0  0  0  0  0  0  0  0  0  0  0
    1.8737   -1.4960    2.0315 H   0  0  0  0  0  0  0  0  0  0  0  0
  1  2  1  0  0  0  0
  2  3  1  0  0  0  0
  3  4  1  0  0  0  0
  4  5  1  0  0  0  0
  2  6  1  0  0  0  0
  6  7  1  0  0  0  0
  7  8  1  0  0  0  0
  8  9  1  0  0  0  0
  9 10  1  0  0  0  0
  9 11  1  0  0  0  0
  9 12  1  0  0  0  0
  1 13  1  0  0  0  0
  1 14  1  0  0  0  0
  1 15  1  0  0  0  0
  2 16  1  0  0  0  0
  3 17  1  0  0  0  0
  3 18  1  0  0  0  0
  4 19  1  0  0  0  0
  4 20  1  0  0  0  0
  5 21  1  0  0  0  0
  6 22  1  0  0  0  0
  6 23  1  0  0  0  0
  7 24  1  0  0  0  0
  7 25  1  0  0  0  0
  8 26  1  0  0  0  0
  8 27  1  0  0  0  0
 10 28  1  0  0  0  0
 10 29  1  0  0  0  0
 10 30  1  0  0  0  0
 11 31  1  0  0  0  0
 11 32  1  0  0  0  0
 11 33  1  0  0  0  0
 12 34  1  0  0  0  0
M  END
