 xtb: 6.7.1 (edcfbbe)
          07082621463D

 18 17  0     0  0            999 V2000
    3.0878    0.0747    0.5104 C   0  0  0  0  0  0  0  0  0  0  0  0
    1.9119   -0.6736   -0.0865 C   0  0  0  0  0  0  0  0  0  0  0  0
    0.7064   -0.0113    0.3148 O   0  0  0  0  0  0  0  0  0  0  0  0
   -0.4174   -0.4053   -0.2715 C   0  0  0  0  0  0  0  0  0  0  0  0
   -0.5026   -1.2887   -1.0776 O   0  0  0  0  0  0  0  0  0  0  0  0
   -1.5957    0.4478    0.2141 C   0  0  0  0  0  0  0  0  0  0  0  0
   -2.9314   -0.2560   -0.0284 C   0  0  0  0  0  0  0  0  0  0  0  0
   -1.5302    1.6899   -0.5221 C   0  0  0  0  0  0  0  0  0  0  0  0
   -1.4828    2.6657   -1.1145 N   0  0  0  0  0  0  0  0  0  0  0  0
    4.0138   -0.4129    0.2203 H   0  0  0  0  0  0  0  0  0  0  0  0
    3.0151    0.0846    1.5945 H   0  0  0  0  0  0  0  0  0  0  0  0
    3.0981    1.1008    0.1530 H   0  0  0  0  0  0  0  0  0  0  0  0
    1.8744   -1.7097    0.2679 H   0  0  0  0  0  0  0  0  0  0  0  0
    1.9563   -0.6872   -1.1807 H   0  0  0  0  0  0  0  0  0  0  0  0
   -1.4432    0.6756    1.2746 H   0  0  0  0  0  0  0  0  0  0  0  0
   -3.7586    0.4066    0.2145 H   0  0  0  0  0  0  0  0  0  0  0  0
   -2.9953   -1.1484    0.5891 H   0  0  0  0  0  0  0  0  0  0  0  0
   -3.0066   -0.5528   -1.0718 H   0  0  0  0  0  0  0  0  0  0  0  0
  1  2  1  0  0  0  0
  2  3  1  0  0  0  0
  3  4  1  0  0  0  0
  4  5  2  0  0  0  0
  4  6  1  0  0  0  0
  6  7  1  0  0  0  0
  6  8  1  0  0  0  0
  8  9  3  0  0  0  0
  1 10  1  0  0  0  0
  1 11  1  0  0  0  0
  1 12  1  0  0  0  0
  2 13  1  0  0  0  0
  2 14  1  0  0  0  0
  6 15  1  0  0  0  0
  7 16  1  0  0  0  0
  7 17  1  0  0  0  0
  7 18  1  0  0  0  0
M  END
