 xtb: 6.7.1 (edcfbbe)
          07092610473D

 21 21  0     0  0            999 V2000
    3.9056    0.0804    0.0802 C   0  0  0  0  0  0  0  0  0  0  0  0
    2.4766   -0.1641   -0.3316 C   0  0  0  0  0  0  0  0  0  0  0  0
    2.1205   -0.9732   -1.1432 O   0  0  0  0  0  0  0  0  0  0  0  0
    1.6619    0.6642    0.3421 O   0  0  0  0  0  0  0  0  0  0  0  0
    0.2788    0.6113    0.1918 C   0  0  0  0  0  0  0  0  0  0  0  0
   -0.3912    1.8282    0.1851 C   0  0  0  0  0  0  0  0  0  0  0  0
   -1.7694    1.8373    0.0906 C   0  0  0  0  0  0  0  0  0  0  0  0
   -2.4723    0.6477    0.0004 C   0  0  0  0  0  0  0  0  0  0  0  0
   -1.8064   -0.5698    0.0117 C   0  0  0  0  0  0  0  0  0  0  0  0
   -2.5519   -1.8640   -0.0987 C   0  0  0  0  0  0  0  0  0  0  0  0
   -0.4199   -0.5811    0.1137 C   0  0  0  0  0  0  0  0  0  0  0  0
    4.5753   -0.3999   -0.6263 H   0  0  0  0  0  0  0  0  0  0  0  0
    4.1022    1.1476    0.1296 H   0  0  0  0  0  0  0  0  0  0  0  0
    4.0624   -0.3422    1.0708 H   0  0  0  0  0  0  0  0  0  0  0  0
    0.1743    2.7438    0.2562 H   0  0  0  0  0  0  0  0  0  0  0  0
   -2.2985    2.7784    0.0851 H   0  0  0  0  0  0  0  0  0  0  0  0
   -3.5495    0.6665   -0.0771 H   0  0  0  0  0  0  0  0  0  0  0  0
   -2.4343   -2.2736   -1.1019 H   0  0  0  0  0  0  0  0  0  0  0  0
   -3.6126   -1.7215    0.0913 H   0  0  0  0  0  0  0  0  0  0  0  0
   -2.1607   -2.5951    0.6057 H   0  0  0  0  0  0  0  0  0  0  0  0
    0.1091   -1.5210    0.1243 H   0  0  0  0  0  0  0  0  0  0  0  0
  1  2  1  0  0  0  0
  2  3  2  0  0  0  0
  2  4  1  0  0  0  0
  4  5  1  0  0  0  0
  5  6  4  0  0  0  0
  6  7  4  0  0  0  0
  7  8  4  0  0  0  0
  8  9  4  0  0  0  0
  9 10  1  0  0  0  0
  5 11  4  0  0  0  0
  9 11  4  0  0  0  0
  1 12  1  0  0  0  0
  1 13  1  0  0  0  0
  1 14  1  0  0  0  0
  6 15  1  0  0  0  0
  7 16  1  0  0  0  0
  8 17  1  0  0  0  0
 10 18  1  0  0  0  0
 10 19  1  0  0  0  0
 10 20  1  0  0  0  0
 11 21  1  0  0  0  0
M  END
