 xtb: 6.7.1 (edcfbbe)
          07082619403D

 20 19  0     0  0            999 V2000
    2.5334   -0.8962    0.6758 C   0  0  0  0  0  0  0  0  0  0  0  0
    1.2237   -0.2000    0.9314 C   0  0  0  0  0  0  0  0  0  0  0  0
    0.7022   -0.1828    2.0220 O   0  0  0  0  0  0  0  0  0  0  0  0
    0.6217    0.4792   -0.2766 C   0  0  0  0  0  0  0  0  0  0  0  0
   -0.9281    0.4437   -0.2892 C   0  0  0  0  0  0  0  0  0  0  0  0
   -1.4100   -1.0144   -0.2985 C   0  0  0  0  0  0  0  0  0  0  0  0
   -1.4428    1.1730   -1.5321 C   0  0  0  0  0  0  0  0  0  0  0  0
   -1.4414    1.1314    0.8272 O   0  0  0  0  0  0  0  0  0  0  0  0
    2.9775   -1.2238    1.6121 H   0  0  0  0  0  0  0  0  0  0  0  0
    2.3546   -1.7635    0.0423 H   0  0  0  0  0  0  0  0  0  0  0  0
    3.2160   -0.2312    0.1520 H   0  0  0  0  0  0  0  0  0  0  0  0
    1.0168    0.0445   -1.1944 H   0  0  0  0  0  0  0  0  0  0  0  0
    0.9308    1.5282   -0.2344 H   0  0  0  0  0  0  0  0  0  0  0  0
   -1.0656   -1.5361    0.5920 H   0  0  0  0  0  0  0  0  0  0  0  0
   -2.4967   -1.0355   -0.3071 H   0  0  0  0  0  0  0  0  0  0  0  0
   -1.0408   -1.5351   -1.1786 H   0  0  0  0  0  0  0  0  0  0  0  0
   -1.1079    2.2067   -1.5197 H   0  0  0  0  0  0  0  0  0  0  0  0
   -1.0883    0.6895   -2.4380 H   0  0  0  0  0  0  0  0  0  0  0  0
   -2.5288    1.1681   -1.5250 H   0  0  0  0  0  0  0  0  0  0  0  0
   -1.0263    0.7544    1.6189 H   0  0  0  0  0  0  0  0  0  0  0  0
  1  2  1  0  0  0  0
  2  3  2  0  0  0  0
  2  4  1  0  0  0  0
  4  5  1  0  0  0  0
  5  6  1  0  0  0  0
  5  7  1  0  0  0  0
  5  8  1  0  0  0  0
  1  9  1  0  0  0  0
  1 10  1  0  0  0  0
  1 11  1  0  0  0  0
  4 12  1  0  0  0  0
  4 13  1  0  0  0  0
  6 14  1  0  0  0  0
  6 15  1  0  0  0  0
  6 16  1  0  0  0  0
  7 17  1  0  0  0  0
  7 18  1  0  0  0  0
  7 19  1  0  0  0  0
  8 20  1  0  0  0  0
M  END
