 xtb: 6.7.1 (edcfbbe)
          07092614103D

 30 30  0     0  0            999 V2000
    2.1529    2.7204   -0.9321 C   0  0  0  0  0  0  0  0  0  0  0  0
    1.5995    1.3833   -0.5368 C   0  0  0  0  0  0  0  0  0  0  0  0
    2.4298    0.2794   -0.4319 C   0  0  0  0  0  0  0  0  0  0  0  0
    1.9149   -0.9617   -0.0860 C   0  0  0  0  0  0  0  0  0  0  0  0
    2.8105   -2.1614    0.0071 C   0  0  0  0  0  0  0  0  0  0  0  0
    0.5549   -1.0814    0.1520 C   0  0  0  0  0  0  0  0  0  0  0  0
   -0.3059    0.0076    0.0547 C   0  0  0  0  0  0  0  0  0  0  0  0
   -1.7894   -0.1894    0.3303 C   0  0  0  0  0  0  0  0  0  0  0  0
   -1.9691   -0.7081    1.7638 C   0  0  0  0  0  0  0  0  0  0  0  0
   -2.3511   -1.2121   -0.6673 C   0  0  0  0  0  0  0  0  0  0  0  0
   -2.5957    1.1044    0.1893 C   0  0  0  0  0  0  0  0  0  0  0  0
    0.2397    1.2353   -0.2923 C   0  0  0  0  0  0  0  0  0  0  0  0
    2.0905    2.8442   -2.0140 H   0  0  0  0  0  0  0  0  0  0  0  0
    3.1977    2.8094   -0.6432 H   0  0  0  0  0  0  0  0  0  0  0  0
    1.5889    3.5273   -0.4692 H   0  0  0  0  0  0  0  0  0  0  0  0
    3.4895    0.3859   -0.6188 H   0  0  0  0  0  0  0  0  0  0  0  0
    2.8473   -2.6743   -0.9549 H   0  0  0  0  0  0  0  0  0  0  0  0
    2.4410   -2.8659    0.7491 H   0  0  0  0  0  0  0  0  0  0  0  0
    3.8243   -1.8699    0.2718 H   0  0  0  0  0  0  0  0  0  0  0  0
    0.1684   -2.0533    0.4216 H   0  0  0  0  0  0  0  0  0  0  0  0
   -1.5491    0.0005    2.4747 H   0  0  0  0  0  0  0  0  0  0  0  0
   -3.0265   -0.8362    1.9869 H   0  0  0  0  0  0  0  0  0  0  0  0
   -1.4739   -1.6647    1.9046 H   0  0  0  0  0  0  0  0  0  0  0  0
   -2.2060   -0.8605   -1.6867 H   0  0  0  0  0  0  0  0  0  0  0  0
   -1.8585   -2.1752   -0.5667 H   0  0  0  0  0  0  0  0  0  0  0  0
   -3.4167   -1.3549   -0.4991 H   0  0  0  0  0  0  0  0  0  0  0  0
   -3.6446    0.9021    0.3979 H   0  0  0  0  0  0  0  0  0  0  0  0
   -2.5252    1.5017   -0.8206 H   0  0  0  0  0  0  0  0  0  0  0  0
   -2.2527    1.8579    0.8945 H   0  0  0  0  0  0  0  0  0  0  0  0
   -0.3854    2.1096   -0.3785 H   0  0  0  0  0  0  0  0  0  0  0  0
  1  2  1  0  0  0  0
  2  3  4  0  0  0  0
  3  4  4  0  0  0  0
  4  5  1  0  0  0  0
  4  6  4  0  0  0  0
  6  7  4  0  0  0  0
  7  8  1  0  0  0  0
  8  9  1  0  0  0  0
  8 10  1  0  0  0  0
  8 11  1  0  0  0  0
  2 12  4  0  0  0  0
  7 12  4  0  0  0  0
  1 13  1  0  0  0  0
  1 14  1  0  0  0  0
  1 15  1  0  0  0  0
  3 16  1  0  0  0  0
  5 17  1  0  0  0  0
  5 18  1  0  0  0  0
  5 19  1  0  0  0  0
  6 20  1  0  0  0  0
  9 21  1  0  0  0  0
  9 22  1  0  0  0  0
  9 23  1  0  0  0  0
 10 24  1  0  0  0  0
 10 25  1  0  0  0  0
 10 26  1  0  0  0  0
 11 27  1  0  0  0  0
 11 28  1  0  0  0  0
 11 29  1  0  0  0  0
 12 30  1  0  0  0  0
M  END
