 xtb: 6.7.1 (edcfbbe)
          07092620533D

 26 25  0     0  0            999 V2000
   -3.8927   -0.1842   -1.3166 C   0  0  0  0  0  0  0  0  0  0  0  0
   -3.0073   -0.2964   -0.0853 C   0  0  0  0  0  0  0  0  0  0  0  0
   -3.4518    0.6341    1.0373 C   0  0  0  0  0  0  0  0  0  0  0  0
   -1.6717    0.0565   -0.4990 O   0  0  0  0  0  0  0  0  0  0  0  0
   -0.6633   -0.4501    0.1791 C   0  0  0  0  0  0  0  0  0  0  0  0
   -0.7398   -1.1926    1.1224 O   0  0  0  0  0  0  0  0  0  0  0  0
    0.6752    0.0392   -0.4182 C   0  0  0  0  0  0  0  0  0  0  0  0
    0.7528    0.7429   -1.3907 O   0  0  0  0  0  0  0  0  0  0  0  0
    1.6826   -0.4354    0.2840 O   0  0  0  0  0  0  0  0  0  0  0  0
    3.0183   -0.0862   -0.1325 C   0  0  0  0  0  0  0  0  0  0  0  0
    3.9330   -1.2052    0.3408 C   0  0  0  0  0  0  0  0  0  0  0  0
    3.3967    1.2652    0.4630 C   0  0  0  0  0  0  0  0  0  0  0  0
   -4.9111   -0.4656   -1.0649 H   0  0  0  0  0  0  0  0  0  0  0  0
   -3.8834    0.8382   -1.6843 H   0  0  0  0  0  0  0  0  0  0  0  0
   -3.5279   -0.8382   -2.1038 H   0  0  0  0  0  0  0  0  0  0  0  0
   -2.9801   -1.3302    0.2837 H   0  0  0  0  0  0  0  0  0  0  0  0
   -4.4672    0.3903    1.3361 H   0  0  0  0  0  0  0  0  0  0  0  0
   -3.4174    1.6669    0.6987 H   0  0  0  0  0  0  0  0  0  0  0  0
   -2.7970    0.5211    1.8981 H   0  0  0  0  0  0  0  0  0  0  0  0
    3.0192   -0.0177   -1.2283 H   0  0  0  0  0  0  0  0  0  0  0  0
    3.6146   -2.1551   -0.0797 H   0  0  0  0  0  0  0  0  0  0  0  0
    4.9537   -1.0033    0.0292 H   0  0  0  0  0  0  0  0  0  0  0  0
    3.8961   -1.2767    1.4244 H   0  0  0  0  0  0  0  0  0  0  0  0
    4.4118    1.5224    0.1744 H   0  0  0  0  0  0  0  0  0  0  0  0
    2.7228    2.0366    0.0980 H   0  0  0  0  0  0  0  0  0  0  0  0
    3.3336    1.2234    1.5478 H   0  0  0  0  0  0  0  0  0  0  0  0
  1  2  1  0  0  0  0
  2  3  1  0  0  0  0
  2  4  1  0  0  0  0
  4  5  1  0  0  0  0
  5  6  2  0  0  0  0
  5  7  1  0  0  0  0
  7  8  2  0  0  0  0
  7  9  1  0  0  0  0
  9 10  1  0  0  0  0
 10 11  1  0  0  0  0
 10 12  1  0  0  0  0
  1 13  1  0  0  0  0
  1 14  1  0  0  0  0
  1 15  1  0  0  0  0
  2 16  1  0  0  0  0
  3 17  1  0  0  0  0
  3 18  1  0  0  0  0
  3 19  1  0  0  0  0
 10 20  1  0  0  0  0
 11 21  1  0  0  0  0
 11 22  1  0  0  0  0
 11 23  1  0  0  0  0
 12 24  1  0  0  0  0
 12 25  1  0  0  0  0
 12 26  1  0  0  0  0
M  END
