 xtb: 6.7.1 (edcfbbe)
          07082617253D

 12 12  0     0  0            999 V2000
   -0.3054   -1.3504   -0.0165 C   0  0  0  0  0  0  0  0  0  0  0  0
   -1.3220   -0.4111    0.0176 C   0  0  0  0  0  0  0  0  0  0  0  0
   -1.0167    0.9393    0.0340 C   0  0  0  0  0  0  0  0  0  0  0  0
    0.3054    1.3504    0.0165 C   0  0  0  0  0  0  0  0  0  0  0  0
    1.3220    0.4111   -0.0176 C   0  0  0  0  0  0  0  0  0  0  0  0
    1.0167   -0.9393   -0.0340 C   0  0  0  0  0  0  0  0  0  0  0  0
   -0.5436   -2.4042   -0.0293 H   0  0  0  0  0  0  0  0  0  0  0  0
   -2.3537   -0.7319    0.0313 H   0  0  0  0  0  0  0  0  0  0  0  0
   -1.8101    1.6723    0.0606 H   0  0  0  0  0  0  0  0  0  0  0  0
    0.5436    2.4042    0.0293 H   0  0  0  0  0  0  0  0  0  0  0  0
    2.3537    0.7319   -0.0313 H   0  0  0  0  0  0  0  0  0  0  0  0
    1.8101   -1.6723   -0.0606 H   0  0  0  0  0  0  0  0  0  0  0  0
  1  2  4  0  0  0  0
  2  3  4  0  0  0  0
  3  4  4  0  0  0  0
  4  5  4  0  0  0  0
  1  6  4  0  0  0  0
  5  6  4  0  0  0  0
  1  7  1  0  0  0  0
  2  8  1  0  0  0  0
  3  9  1  0  0  0  0
  4 10  1  0  0  0  0
  5 11  1  0  0  0  0
  6 12  1  0  0  0  0
M  END
