 xtb: 6.7.1 (edcfbbe)
          07082602213D

 31 31  0     0  0            999 V2000
   -1.0026   -3.7185    1.0694 C   0  0  0  0  0  0  0  0  0  0  0  0
   -0.3790   -2.5486    0.3204 C   0  0  0  0  0  0  0  0  0  0  0  0
   -0.2657   -1.3196    1.2239 C   0  0  0  0  0  0  0  0  0  0  0  0
    0.2845   -0.1601    0.5313 N   0  0  0  0  0  0  0  0  0  0  0  0
    1.6210   -0.1764    0.2539 C   0  0  0  0  0  0  0  0  0  0  0  0
    2.3314   -1.0729    0.6630 O   0  0  0  0  0  0  0  0  0  0  0  0
    2.1576    0.9362   -0.6325 C   0  0  0  0  0  0  0  0  0  0  0  0
    3.2135    0.3779   -1.5828 C   0  0  0  0  0  0  0  0  0  0  0  0
   -0.5827    0.9198    0.2722 C   0  0  0  0  0  0  0  0  0  0  0  0
   -1.7915    0.7073   -0.3848 C   0  0  0  0  0  0  0  0  0  0  0  0
   -2.6592    1.7611   -0.6061 C   0  0  0  0  0  0  0  0  0  0  0  0
   -2.3353    3.0365   -0.1759 C   0  0  0  0  0  0  0  0  0  0  0  0
   -1.1403    3.2514    0.4902 C   0  0  0  0  0  0  0  0  0  0  0  0
   -0.2717    2.2012    0.7213 C   0  0  0  0  0  0  0  0  0  0  0  0
   -1.0680   -4.5907    0.4238 H   0  0  0  0  0  0  0  0  0  0  0  0
   -0.3997   -3.9776    1.9363 H   0  0  0  0  0  0  0  0  0  0  0  0
   -2.0051   -3.4667    1.4105 H   0  0  0  0  0  0  0  0  0  0  0  0
   -0.9826   -2.3095   -0.5580 H   0  0  0  0  0  0  0  0  0  0  0  0
    0.6208   -2.8186   -0.0210 H   0  0  0  0  0  0  0  0  0  0  0  0
   -1.2442   -1.0439    1.6228 H   0  0  0  0  0  0  0  0  0  0  0  0
    0.4040   -1.5584    2.0564 H   0  0  0  0  0  0  0  0  0  0  0  0
    2.6209    1.6896    0.0089 H   0  0  0  0  0  0  0  0  0  0  0  0
    1.3489    1.4071   -1.1918 H   0  0  0  0  0  0  0  0  0  0  0  0
    3.9705   -0.1575   -1.0160 H   0  0  0  0  0  0  0  0  0  0  0  0
    3.6872    1.1825   -2.1400 H   0  0  0  0  0  0  0  0  0  0  0  0
    2.7607   -0.3158   -2.2876 H   0  0  0  0  0  0  0  0  0  0  0  0
   -2.0480   -0.2832   -0.7270 H   0  0  0  0  0  0  0  0  0  0  0  0
   -3.5920    1.5844   -1.1210 H   0  0  0  0  0  0  0  0  0  0  0  0
   -3.0134    3.8575   -0.3528 H   0  0  0  0  0  0  0  0  0  0  0  0
   -0.8873    4.2405    0.8424 H   0  0  0  0  0  0  0  0  0  0  0  0
    0.6471    2.3649    1.2629 H   0  0  0  0  0  0  0  0  0  0  0  0
  1  2  1  0  0  0  0
  2  3  1  0  0  0  0
  3  4  1  0  0  0  0
  4  5  4  0  0  0  0
  5  6  2  0  0  0  0
  5  7  1  0  0  0  0
  7  8  1  0  0  0  0
  4  9  1  0  0  0  0
  9 10  4  0  0  0  0
 10 11  4  0  0  0  0
 11 12  4  0  0  0  0
 12 13  4  0  0  0  0
  9 14  4  0  0  0  0
 13 14  4  0  0  0  0
  1 15  1  0  0  0  0
  1 16  1  0  0  0  0
  1 17  1  0  0  0  0
  2 18  1  0  0  0  0
  2 19  1  0  0  0  0
  3 20  1  0  0  0  0
  3 21  1  0  0  0  0
  7 22  1  0  0  0  0
  7 23  1  0  0  0  0
  8 24  1  0  0  0  0
  8 25  1  0  0  0  0
  8 26  1  0  0  0  0
 10 27  1  0  0  0  0
 11 28  1  0  0  0  0
 12 29  1  0  0  0  0
 13 30  1  0  0  0  0
 14 31  1  0  0  0  0
M  END
