 xtb: 6.7.1 (edcfbbe)
          07082605173D

  4  3  0     0  0            999 V2000
   -2.2345    0.0154   -0.0231 Cl  0  0  0  0  0  0  0  0  0  0  0  0
   -0.6019    0.0042   -0.0062 C   0  0  0  0  0  0  0  0  0  0  0  0
    0.6019   -0.0042    0.0062 C   0  0  0  0  0  0  0  0  0  0  0  0
    2.2345   -0.0154    0.0231 Cl  0  0  0  0  0  0  0  0  0  0  0  0
  1  2  1  0  0  0  0
  2  3  3  0  0  0  0
  3  4  1  0  0  0  0
M  END
