 xtb: 6.7.1 (edcfbbe)
          07072609173D

 41 40  0     0  0            999 V2000
   -4.9761   -0.2698   -2.0410 C   0  0  0  0  0  0  0  0  0  0  0  0
   -4.5197    0.5500   -0.9993 O   0  0  0  0  0  0  0  0  0  0  0  0
   -3.4271    0.0304   -0.2614 C   0  0  0  0  0  0  0  0  0  0  0  0
   -2.0854    0.3727   -0.9154 C   0  0  0  0  0  0  0  0  0  0  0  0
   -0.8961   -0.3306   -0.2491 C   0  0  0  0  0  0  0  0  0  0  0  0
   -0.8152   -1.7908   -0.6905 C   0  0  0  0  0  0  0  0  0  0  0  0
    0.3980    0.4226   -0.5799 C   0  0  0  0  0  0  0  0  0  0  0  0
    1.6174   -0.0970    0.1789 C   0  0  0  0  0  0  0  0  0  0  0  0
    2.8447    0.7789   -0.0682 C   0  0  0  0  0  0  0  0  0  0  0  0
    4.0289    0.4564    0.8658 C   0  0  0  0  0  0  0  0  0  0  0  0
    4.5051   -0.9867    0.7008 C   0  0  0  0  0  0  0  0  0  0  0  0
    5.1833    1.4222    0.5622 C   0  0  0  0  0  0  0  0  0  0  0  0
    3.6346    0.5875    2.2227 O   0  0  0  0  0  0  0  0  0  0  0  0
   -3.4295    0.6048    1.0042 O   0  0  0  0  0  0  0  0  0  0  0  0
   -4.5509    0.2724    1.7937 C   0  0  0  0  0  0  0  0  0  0  0  0
   -5.2553   -1.2657   -1.6723 H   0  0  0  0  0  0  0  0  0  0  0  0
   -4.2247   -0.3866   -2.8303 H   0  0  0  0  0  0  0  0  0  0  0  0
   -5.8539    0.2239   -2.4532 H   0  0  0  0  0  0  0  0  0  0  0  0
   -3.5612   -1.0707   -0.1792 H   0  0  0  0  0  0  0  0  0  0  0  0
   -2.1282    0.1136   -1.9744 H   0  0  0  0  0  0  0  0  0  0  0  0
   -1.9769    1.4545   -0.8302 H   0  0  0  0  0  0  0  0  0  0  0  0
   -1.0517   -0.2906    0.8335 H   0  0  0  0  0  0  0  0  0  0  0  0
   -0.0580   -2.3249   -0.1236 H   0  0  0  0  0  0  0  0  0  0  0  0
   -1.7646   -2.2968   -0.5342 H   0  0  0  0  0  0  0  0  0  0  0  0
   -0.5645   -1.8529   -1.7480 H   0  0  0  0  0  0  0  0  0  0  0  0
    0.5861    0.3615   -1.6549 H   0  0  0  0  0  0  0  0  0  0  0  0
    0.2550    1.4765   -0.3299 H   0  0  0  0  0  0  0  0  0  0  0  0
    1.8383   -1.1168   -0.1335 H   0  0  0  0  0  0  0  0  0  0  0  0
    1.4017   -0.1092    1.2493 H   0  0  0  0  0  0  0  0  0  0  0  0
    3.1726    0.6755   -1.1040 H   0  0  0  0  0  0  0  0  0  0  0  0
    2.5662    1.8265    0.0856 H   0  0  0  0  0  0  0  0  0  0  0  0
    3.7462   -1.6689    1.0705 H   0  0  0  0  0  0  0  0  0  0  0  0
    4.7117   -1.2025   -0.3433 H   0  0  0  0  0  0  0  0  0  0  0  0
    5.4092   -1.1400    1.2838 H   0  0  0  0  0  0  0  0  0  0  0  0
    5.5564    1.2630   -0.4456 H   0  0  0  0  0  0  0  0  0  0  0  0
    4.8527    2.4562    0.6501 H   0  0  0  0  0  0  0  0  0  0  0  0
    5.9949    1.2583    1.2672 H   0  0  0  0  0  0  0  0  0  0  0  0
    3.3301    1.4903    2.3667 H   0  0  0  0  0  0  0  0  0  0  0  0
   -4.4097    0.7765    2.7469 H   0  0  0  0  0  0  0  0  0  0  0  0
   -5.4774    0.6158    1.3263 H   0  0  0  0  0  0  0  0  0  0  0  0
   -4.6072   -0.8120    1.9533 H   0  0  0  0  0  0  0  0  0  0  0  0
  1  2  1  0  0  0  0
  2  3  1  0  0  0  0
  3  4  1  0  0  0  0
  4  5  1  0  0  0  0
  5  6  1  0  0  0  0
  5  7  1  0  0  0  0
  7  8  1  0  0  0  0
  8  9  1  0  0  0  0
  9 10  1  0  0  0  0
 10 11  1  0  0  0  0
 10 12  1  0  0  0  0
 10 13  1  0  0  0  0
  3 14  1  0  0  0  0
 14 15  1  0  0  0  0
  1 16  1  0  0  0  0
  1 17  1  0  0  0  0
  1 18  1  0  0  0  0
  3 19  1  0  0  0  0
  4 20  1  0  0  0  0
  4 21  1  0  0  0  0
  5 22  1  0  0  0  0
  6 23  1  0  0  0  0
  6 24  1  0  0  0  0
  6 25  1  0  0  0  0
  7 26  1  0  0  0  0
  7 27  1  0  0  0  0
  8 28  1  0  0  0  0
  8 29  1  0  0  0  0
  9 30  1  0  0  0  0
  9 31  1  0  0  0  0
 11 32  1  0  0  0  0
 11 33  1  0  0  0  0
 11 34  1  0  0  0  0
 12 35  1  0  0  0  0
 12 36  1  0  0  0  0
 12 37  1  0  0  0  0
 13 38  1  0  0  0  0
 15 39  1  0  0  0  0
 15 40  1  0  0  0  0
 15 41  1  0  0  0  0
M  END
