 xtb: 6.7.1 (edcfbbe)
          07082620363D

 19 18  0     0  0            999 V2000
   -2.5458    1.7176    0.6076 C   0  0  0  0  0  0  0  0  0  0  0  0
   -1.9100    0.7955   -0.2398 O   0  0  0  0  0  0  0  0  0  0  0  0
   -1.4072   -0.3250    0.4451 C   0  0  0  0  0  0  0  0  0  0  0  0
   -0.6917   -1.2323   -0.5512 C   0  0  0  0  0  0  0  0  0  0  0  0
    0.5081   -0.6403   -1.0458 O   0  0  0  0  0  0  0  0  0  0  0  0
    1.5643   -0.6601   -0.2469 C   0  0  0  0  0  0  0  0  0  0  0  0
    1.6089   -1.1699    0.8466 O   0  0  0  0  0  0  0  0  0  0  0  0
    2.7695    0.0305   -0.8564 C   0  0  0  0  0  0  0  0  0  0  0  0
    3.8660   -0.0466    0.0055 O   0  0  0  0  0  0  0  0  0  0  0  0
   -3.4041    1.2623    1.1171 H   0  0  0  0  0  0  0  0  0  0  0  0
   -1.8540    2.1071    1.3645 H   0  0  0  0  0  0  0  0  0  0  0  0
   -2.8887    2.5328   -0.0255 H   0  0  0  0  0  0  0  0  0  0  0  0
   -2.2277   -0.8908    0.9143 H   0  0  0  0  0  0  0  0  0  0  0  0
   -0.7076   -0.0153    1.2357 H   0  0  0  0  0  0  0  0  0  0  0  0
   -1.3176   -1.3837   -1.4306 H   0  0  0  0  0  0  0  0  0  0  0  0
   -0.4539   -2.1854   -0.0684 H   0  0  0  0  0  0  0  0  0  0  0  0
    2.5116    1.0800   -1.0510 H   0  0  0  0  0  0  0  0  0  0  0  0
    3.0066   -0.4457   -1.8165 H   0  0  0  0  0  0  0  0  0  0  0  0
    3.5733   -0.5307    0.7958 H   0  0  0  0  0  0  0  0  0  0  0  0
  1  2  1  0  0  0  0
  2  3  1  0  0  0  0
  3  4  1  0  0  0  0
  4  5  1  0  0  0  0
  5  6  1  0  0  0  0
  6  7  2  0  0  0  0
  6  8  1  0  0  0  0
  8  9  1  0  0  0  0
  1 10  1  0  0  0  0
  1 11  1  0  0  0  0
  1 12  1  0  0  0  0
  3 13  1  0  0  0  0
  3 14  1  0  0  0  0
  4 15  1  0  0  0  0
  4 16  1  0  0  0  0
  8 17  1  0  0  0  0
  8 18  1  0  0  0  0
  9 19  1  0  0  0  0
M  END
