 xtb: 6.7.1 (edcfbbe)
          07082617243D

 10 10  0     0  0            999 V2000
    2.7525   -0.2512   -0.2953 N   0  0  0  0  0  0  0  0  0  0  0  0
    1.6745   -0.2070    0.0877 C   0  0  0  0  0  0  0  0  0  0  0  0
    0.3356   -0.1496    0.5567 C   0  0  0  0  0  0  0  0  0  0  0  0
   -0.6075    0.8477   -0.0718 C   0  0  0  0  0  0  0  0  0  0  0  0
   -0.7716   -0.6046   -0.3632 C   0  0  0  0  0  0  0  0  0  0  0  0
    0.2394   -0.3516    1.6172 H   0  0  0  0  0  0  0  0  0  0  0  0
   -0.2146    1.4849   -0.8499 H   0  0  0  0  0  0  0  0  0  0  0  0
   -1.3189    1.3342    0.5780 H   0  0  0  0  0  0  0  0  0  0  0  0
   -0.4913   -0.9655   -1.3416 H   0  0  0  0  0  0  0  0  0  0  0  0
   -1.5981   -1.1373    0.0821 H   0  0  0  0  0  0  0  0  0  0  0  0
  1  2  3  0  0  0  0
  2  3  1  0  0  0  0
  3  4  1  0  0  0  0
  3  5  1  0  0  0  0
  4  5  1  0  0  0  0
  3  6  1  0  0  0  0
  4  7  1  0  0  0  0
  4  8  1  0  0  0  0
  5  9  1  0  0  0  0
  5 10  1  0  0  0  0
M  END
