 xtb: 6.7.1 (edcfbbe)
          07092605323D

 25 24  0     0  0            999 V2000
   -4.5690   -0.0295    0.4421 C   0  0  0  0  0  0  0  0  0  0  0  0
   -3.1133   -0.0329    0.8772 C   0  0  0  0  0  0  0  0  0  0  0  0
   -2.3009   -0.1253   -0.2758 O   0  0  0  0  0  0  0  0  0  0  0  0
   -0.9285   -0.1386    0.0136 C   0  0  0  0  0  0  0  0  0  0  0  0
   -0.1743   -0.1424   -1.3161 C   0  0  0  0  0  0  0  0  0  0  0  0
    1.2123   -0.4191   -1.1341 O   0  0  0  0  0  0  0  0  0  0  0  0
    1.9723    0.5690   -0.6761 C   0  0  0  0  0  0  0  0  0  0  0  0
    1.5873    1.6816   -0.4156 O   0  0  0  0  0  0  0  0  0  0  0  0
    3.4210    0.1462   -0.4731 C   0  0  0  0  0  0  0  0  0  0  0  0
    3.4825   -0.8150    0.7239 C   0  0  0  0  0  0  0  0  0  0  0  0
    4.2133    1.2826   -0.2712 O   0  0  0  0  0  0  0  0  0  0  0  0
   -5.2156    0.0485    1.3115 H   0  0  0  0  0  0  0  0  0  0  0  0
   -4.7967   -0.9464   -0.0938 H   0  0  0  0  0  0  0  0  0  0  0  0
   -4.7532    0.8120   -0.2193 H   0  0  0  0  0  0  0  0  0  0  0  0
   -2.8739    0.8903    1.4278 H   0  0  0  0  0  0  0  0  0  0  0  0
   -2.9128   -0.8866    1.5439 H   0  0  0  0  0  0  0  0  0  0  0  0
   -0.6454    0.7462    0.6036 H   0  0  0  0  0  0  0  0  0  0  0  0
   -0.6606   -1.0398    0.5905 H   0  0  0  0  0  0  0  0  0  0  0  0
   -0.5580   -0.9398   -1.9533 H   0  0  0  0  0  0  0  0  0  0  0  0
   -0.2987    0.8248   -1.8113 H   0  0  0  0  0  0  0  0  0  0  0  0
    3.7798   -0.3671   -1.3732 H   0  0  0  0  0  0  0  0  0  0  0  0
    2.8975   -1.7058    0.5151 H   0  0  0  0  0  0  0  0  0  0  0  0
    3.0950   -0.3258    1.6150 H   0  0  0  0  0  0  0  0  0  0  0  0
    4.5174   -1.0924    0.9023 H   0  0  0  0  0  0  0  0  0  0  0  0
    3.6224    2.0052   -0.0051 H   0  0  0  0  0  0  0  0  0  0  0  0
  1  2  1  0  0  0  0
  2  3  1  0  0  0  0
  3  4  1  0  0  0  0
  4  5  1  0  0  0  0
  5  6  1  0  0  0  0
  6  7  1  0  0  0  0
  7  8  2  0  0  0  0
  7  9  1  0  0  0  0
  9 10  1  0  0  0  0
  9 11  1  0  0  0  0
  1 12  1  0  0  0  0
  1 13  1  0  0  0  0
  1 14  1  0  0  0  0
  2 15  1  0  0  0  0
  2 16  1  0  0  0  0
  4 17  1  0  0  0  0
  4 18  1  0  0  0  0
  5 19  1  0  0  0  0
  5 20  1  0  0  0  0
  9 21  1  0  0  0  0
 10 22  1  0  0  0  0
 10 23  1  0  0  0  0
 10 24  1  0  0  0  0
 11 25  1  0  0  0  0
M  END
