 xtb: 6.7.1 (edcfbbe)
          07092614423D

 26 26  0     0  0            999 V2000
   -4.9811    0.6083    0.2474 C   0  0  0  0  0  0  0  0  0  0  0  0
   -3.8877   -0.0467   -0.5801 C   0  0  0  0  0  0  0  0  0  0  0  0
   -2.6380    0.2541    0.0053 O   0  0  0  0  0  0  0  0  0  0  0  0
   -1.5543   -0.3080   -0.6878 C   0  0  0  0  0  0  0  0  0  0  0  0
   -0.2699    0.0846    0.0356 C   0  0  0  0  0  0  0  0  0  0  0  0
    0.8055   -0.4870   -0.6722 O   0  0  0  0  0  0  0  0  0  0  0  0
    2.0746   -0.2770   -0.2171 C   0  0  0  0  0  0  0  0  0  0  0  0
    3.0906   -0.8723   -0.9665 C   0  0  0  0  0  0  0  0  0  0  0  0
    4.4101   -0.7234   -0.5946 C   0  0  0  0  0  0  0  0  0  0  0  0
    4.7408    0.0197    0.5283 C   0  0  0  0  0  0  0  0  0  0  0  0
    3.7364    0.6097    1.2715 C   0  0  0  0  0  0  0  0  0  0  0  0
    2.4064    0.4678    0.9085 C   0  0  0  0  0  0  0  0  0  0  0  0
   -4.8314    1.6839    0.2713 H   0  0  0  0  0  0  0  0  0  0  0  0
   -5.9539    0.3907   -0.1842 H   0  0  0  0  0  0  0  0  0  0  0  0
   -4.9480    0.2326    1.2660 H   0  0  0  0  0  0  0  0  0  0  0  0
   -4.0313   -1.1384   -0.6118 H   0  0  0  0  0  0  0  0  0  0  0  0
   -3.9135    0.3269   -1.6161 H   0  0  0  0  0  0  0  0  0  0  0  0
   -1.6367   -1.4054   -0.7204 H   0  0  0  0  0  0  0  0  0  0  0  0
   -1.5189    0.0599   -1.7248 H   0  0  0  0  0  0  0  0  0  0  0  0
   -0.1907    1.1792    0.0603 H   0  0  0  0  0  0  0  0  0  0  0  0
   -0.3087   -0.2895    1.0669 H   0  0  0  0  0  0  0  0  0  0  0  0
    2.8143   -1.4466   -1.8367 H   0  0  0  0  0  0  0  0  0  0  0  0
    5.1863   -1.1894   -1.1834 H   0  0  0  0  0  0  0  0  0  0  0  0
    5.7737    0.1361    0.8194 H   0  0  0  0  0  0  0  0  0  0  0  0
    3.9824    1.1909    2.1482 H   0  0  0  0  0  0  0  0  0  0  0  0
    1.6429    0.9393    1.5070 H   0  0  0  0  0  0  0  0  0  0  0  0
  1  2  1  0  0  0  0
  2  3  1  0  0  0  0
  3  4  1  0  0  0  0
  4  5  1  0  0  0  0
  5  6  1  0  0  0  0
  6  7  1  0  0  0  0
  7  8  4  0  0  0  0
  8  9  4  0  0  0  0
  9 10  4  0  0  0  0
 10 11  4  0  0  0  0
  7 12  4  0  0  0  0
 11 12  4  0  0  0  0
  1 13  1  0  0  0  0
  1 14  1  0  0  0  0
  1 15  1  0  0  0  0
  2 16  1  0  0  0  0
  2 17  1  0  0  0  0
  4 18  1  0  0  0  0
  4 19  1  0  0  0  0
  5 20  1  0  0  0  0
  5 21  1  0  0  0  0
  8 22  1  0  0  0  0
  9 23  1  0  0  0  0
 10 24  1  0  0  0  0
 11 25  1  0  0  0  0
 12 26  1  0  0  0  0
M  END
