 xtb: 6.7.1 (edcfbbe)
          07072617043D

 32 33  0     0  0            999 V2000
    0.4692    0.4018    2.4829 O   0  0  0  0  0  0  0  0  0  0  0  0
    0.6504    0.0971    1.3264 C   0  0  0  0  0  0  0  0  0  0  0  0
   -0.1186    0.4552    0.3143 O   0  0  0  0  0  0  0  0  0  0  0  0
   -1.2725    1.2604    0.6059 C   0  0  0  0  0  0  0  0  0  0  0  0
   -2.4811    0.3730    0.9310 C   0  0  0  0  0  0  0  0  0  0  0  0
   -3.1678    0.1755   -0.4171 C   0  0  0  0  0  0  0  0  0  0  0  0
   -3.0520    1.5571   -1.0555 C   0  0  0  0  0  0  0  0  0  0  0  0
   -1.6423    2.0243   -0.6754 C   0  0  0  0  0  0  0  0  0  0  0  0
    1.8485   -0.7430    0.8994 C   0  0  0  0  0  0  0  0  0  0  0  0
    2.5779   -1.0767    2.0521 O   0  0  0  0  0  0  0  0  0  0  0  0
    1.3949   -2.0101    0.1290 C   0  0  0  0  0  0  0  0  0  0  0  0
    2.2478   -2.0436   -1.1376 C   0  0  0  0  0  0  0  0  0  0  0  0
    2.4400   -0.5672   -1.4671 C   0  0  0  0  0  0  0  0  0  0  0  0
    2.7242    0.0525   -0.1039 C   0  0  0  0  0  0  0  0  0  0  0  0
   -1.0152    1.9142    1.4450 H   0  0  0  0  0  0  0  0  0  0  0  0
   -2.1719   -0.5597    1.4006 H   0  0  0  0  0  0  0  0  0  0  0  0
   -3.1414    0.9031    1.6177 H   0  0  0  0  0  0  0  0  0  0  0  0
   -2.6193   -0.5575   -1.0103 H   0  0  0  0  0  0  0  0  0  0  0  0
   -4.1992   -0.1571   -0.3157 H   0  0  0  0  0  0  0  0  0  0  0  0
   -3.1991    1.5353   -2.1338 H   0  0  0  0  0  0  0  0  0  0  0  0
   -3.7973    2.2249   -0.6208 H   0  0  0  0  0  0  0  0  0  0  0  0
   -0.9250    1.7500   -1.4488 H   0  0  0  0  0  0  0  0  0  0  0  0
   -1.5926    3.1015   -0.5298 H   0  0  0  0  0  0  0  0  0  0  0  0
    2.1337   -0.6574    2.8077 H   0  0  0  0  0  0  0  0  0  0  0  0
    1.5396   -2.8866    0.7577 H   0  0  0  0  0  0  0  0  0  0  0  0
    0.3394   -1.9294   -0.1310 H   0  0  0  0  0  0  0  0  0  0  0  0
    3.2137   -2.5010   -0.9221 H   0  0  0  0  0  0  0  0  0  0  0  0
    1.7685   -2.5990   -1.9422 H   0  0  0  0  0  0  0  0  0  0  0  0
    3.2484   -0.3918   -2.1754 H   0  0  0  0  0  0  0  0  0  0  0  0
    1.5169   -0.1555   -1.8778 H   0  0  0  0  0  0  0  0  0  0  0  0
    2.5191    1.1219   -0.0712 H   0  0  0  0  0  0  0  0  0  0  0  0
    3.7628   -0.1122    0.1843 H   0  0  0  0  0  0  0  0  0  0  0  0
  1  2  2  0  0  0  0
  2  3  1  0  0  0  0
  3  4  1  0  0  0  0
  4  5  1  0  0  0  0
  5  6  1  0  0  0  0
  6  7  1  0  0  0  0
  4  8  1  0  0  0  0
  7  8  1  0  0  0  0
  2  9  1  0  0  0  0
  9 10  1  0  0  0  0
  9 11  1  0  0  0  0
 11 12  1  0  0  0  0
 12 13  1  0  0  0  0
  9 14  1  0  0  0  0
 13 14  1  0  0  0  0
  4 15  1  0  0  0  0
  5 16  1  0  0  0  0
  5 17  1  0  0  0  0
  6 18  1  0  0  0  0
  6 19  1  0  0  0  0
  7 20  1  0  0  0  0
  7 21  1  0  0  0  0
  8 22  1  0  0  0  0
  8 23  1  0  0  0  0
 10 24  1  0  0  0  0
 11 25  1  0  0  0  0
 11 26  1  0  0  0  0
 12 27  1  0  0  0  0
 12 28  1  0  0  0  0
 13 29  1  0  0  0  0
 13 30  1  0  0  0  0
 14 31  1  0  0  0  0
 14 32  1  0  0  0  0
M  END
