 xtb: 6.7.1 (edcfbbe)
          07082603493D

 25 25  0     0  0            999 V2000
   -5.0309    0.2064    0.7988 C   0  0  0  0  0  0  0  0  0  0  0  0
   -4.0845   -0.1695   -0.3262 C   0  0  0  0  0  0  0  0  0  0  0  0
   -2.7532   -0.1840    0.1850 O   0  0  0  0  0  0  0  0  0  0  0  0
   -1.7607   -0.1842   -0.7194 C   0  0  0  0  0  0  0  0  0  0  0  0
   -1.9471   -0.1777   -1.9137 O   0  0  0  0  0  0  0  0  0  0  0  0
   -0.4500   -0.1866   -0.0570 C   0  0  0  0  0  0  0  0  0  0  0  0
    0.6763   -0.1719   -0.7806 C   0  0  0  0  0  0  0  0  0  0  0  0
    2.0392   -0.1635   -0.2883 C   0  0  0  0  0  0  0  0  0  0  0  0
    2.3557   -0.2495    1.0703 C   0  0  0  0  0  0  0  0  0  0  0  0
    3.6714   -0.2322    1.4886 C   0  0  0  0  0  0  0  0  0  0  0  0
    4.6991   -0.1279    0.5642 C   0  0  0  0  0  0  0  0  0  0  0  0
    4.4022   -0.0443   -0.7866 C   0  0  0  0  0  0  0  0  0  0  0  0
    3.0872   -0.0640   -1.2083 C   0  0  0  0  0  0  0  0  0  0  0  0
   -6.0530    0.2068    0.4315 H   0  0  0  0  0  0  0  0  0  0  0  0
   -4.9451   -0.5078    1.6132 H   0  0  0  0  0  0  0  0  0  0  0  0
   -4.7888    1.1957    1.1779 H   0  0  0  0  0  0  0  0  0  0  0  0
   -4.1378    0.5475   -1.1534 H   0  0  0  0  0  0  0  0  0  0  0  0
   -4.3185   -1.1642   -0.7238 H   0  0  0  0  0  0  0  0  0  0  0  0
   -0.4752   -0.1952    1.0208 H   0  0  0  0  0  0  0  0  0  0  0  0
    0.5625   -0.1566   -1.8586 H   0  0  0  0  0  0  0  0  0  0  0  0
    1.5665   -0.3343    1.8009 H   0  0  0  0  0  0  0  0  0  0  0  0
    3.9004   -0.3004    2.5422 H   0  0  0  0  0  0  0  0  0  0  0  0
    5.7267   -0.1132    0.8959 H   0  0  0  0  0  0  0  0  0  0  0  0
    5.1993    0.0358   -1.5110 H   0  0  0  0  0  0  0  0  0  0  0  0
    2.8583    0.0014   -2.2623 H   0  0  0  0  0  0  0  0  0  0  0  0
  1  2  1  0  0  0  0
  2  3  1  0  0  0  0
  3  4  1  0  0  0  0
  4  5  2  0  0  0  0
  4  6  1  0  0  0  0
  6  7  2  0  0  0  0
  7  8  1  0  0  0  0
  8  9  4  0  0  0  0
  9 10  4  0  0  0  0
 10 11  4  0  0  0  0
 11 12  4  0  0  0  0
  8 13  4  0  0  0  0
 12 13  4  0  0  0  0
  1 14  1  0  0  0  0
  1 15  1  0  0  0  0
  1 16  1  0  0  0  0
  2 17  1  0  0  0  0
  2 18  1  0  0  0  0
  6 19  1  0  0  0  0
  7 20  1  0  0  0  0
  9 21  1  0  0  0  0
 10 22  1  0  0  0  0
 11 23  1  0  0  0  0
 12 24  1  0  0  0  0
 13 25  1  0  0  0  0
M  END
