 xtb: 6.7.1 (edcfbbe)
          07072610503D

 28 28  0     0  0            999 V2000
   -5.3210   -0.1982   -0.6449 C   0  0  0  0  0  0  0  0  0  0  0  0
   -3.8196   -0.2266   -0.8911 C   0  0  0  0  0  0  0  0  0  0  0  0
   -3.0410    0.2052    0.3323 C   0  0  0  0  0  0  0  0  0  0  0  0
   -3.5141    0.5255    1.3899 O   0  0  0  0  0  0  0  0  0  0  0  0
   -1.7277    0.1833    0.0835 O   0  0  0  0  0  0  0  0  0  0  0  0
   -0.8679    0.5723    1.1657 C   0  0  0  0  0  0  0  0  0  0  0  0
    0.5527    0.4577    0.6991 C   0  0  0  0  0  0  0  0  0  0  0  0
    1.2431   -0.7379    0.8226 C   0  0  0  0  0  0  0  0  0  0  0  0
    2.5443   -0.8659    0.3676 C   0  0  0  0  0  0  0  0  0  0  0  0
    3.1792    0.2177   -0.2297 C   0  0  0  0  0  0  0  0  0  0  0  0
    4.4518    0.2108   -0.7095 O   0  0  0  0  0  0  0  0  0  0  0  0
    5.2052   -0.9733   -0.6073 C   0  0  0  0  0  0  0  0  0  0  0  0
    2.4854    1.4224   -0.3610 C   0  0  0  0  0  0  0  0  0  0  0  0
    1.1909    1.5365    0.0956 C   0  0  0  0  0  0  0  0  0  0  0  0
   -5.6403    0.8065   -0.3812 H   0  0  0  0  0  0  0  0  0  0  0  0
   -5.5798   -0.8590    0.1781 H   0  0  0  0  0  0  0  0  0  0  0  0
   -5.8566   -0.5166   -1.5355 H   0  0  0  0  0  0  0  0  0  0  0  0
   -3.5437    0.4378   -1.7125 H   0  0  0  0  0  0  0  0  0  0  0  0
   -3.4855   -1.2309   -1.1597 H   0  0  0  0  0  0  0  0  0  0  0  0
   -1.1150    1.5996    1.4554 H   0  0  0  0  0  0  0  0  0  0  0  0
   -1.0663   -0.0836    2.0209 H   0  0  0  0  0  0  0  0  0  0  0  0
    0.7607   -1.5877    1.2829 H   0  0  0  0  0  0  0  0  0  0  0  0
    3.0492   -1.8118    0.4843 H   0  0  0  0  0  0  0  0  0  0  0  0
    6.1743   -0.7445   -1.0480 H   0  0  0  0  0  0  0  0  0  0  0  0
    5.3450   -1.2724    0.4365 H   0  0  0  0  0  0  0  0  0  0  0  0
    4.7410   -1.7947   -1.1626 H   0  0  0  0  0  0  0  0  0  0  0  0
    2.9893    2.2541   -0.8272 H   0  0  0  0  0  0  0  0  0  0  0  0
    0.6663    2.4739   -0.0148 H   0  0  0  0  0  0  0  0  0  0  0  0
  1  2  1  0  0  0  0
  2  3  1  0  0  0  0
  3  4  2  0  0  0  0
  3  5  1  0  0  0  0
  5  6  1  0  0  0  0
  6  7  1  0  0  0  0
  7  8  4  0  0  0  0
  8  9  4  0  0  0  0
  9 10  4  0  0  0  0
 10 11  1  0  0  0  0
 11 12  1  0  0  0  0
 10 13  4  0  0  0  0
  7 14  4  0  0  0  0
 13 14  4  0  0  0  0
  1 15  1  0  0  0  0
  1 16  1  0  0  0  0
  1 17  1  0  0  0  0
  2 18  1  0  0  0  0
  2 19  1  0  0  0  0
  6 20  1  0  0  0  0
  6 21  1  0  0  0  0
  8 22  1  0  0  0  0
  9 23  1  0  0  0  0
 12 24  1  0  0  0  0
 12 25  1  0  0  0  0
 12 26  1  0  0  0  0
 13 27  1  0  0  0  0
 14 28  1  0  0  0  0
M  END
