 xtb: 6.7.1 (edcfbbe)
          07072623563D

 28 27  0     0  0            999 V2000
    4.1478    1.2913    0.6715 C   0  0  0  0  0  0  0  0  0  0  0  0
    3.1529    0.1375    0.6730 C   0  0  0  0  0  0  0  0  0  0  0  0
    1.7516    0.6002    0.2838 C   0  0  0  0  0  0  0  0  0  0  0  0
    0.7469   -0.5500    0.2769 C   0  0  0  0  0  0  0  0  0  0  0  0
   -0.6384   -0.0967   -0.1996 C   0  0  0  0  0  0  0  0  0  0  0  0
   -0.5785    0.4323   -1.5123 O   0  0  0  0  0  0  0  0  0  0  0  0
   -1.6464   -1.2516   -0.0998 C   0  0  0  0  0  0  0  0  0  0  0  0
   -3.0731   -0.8913   -0.5606 C   0  0  0  0  0  0  0  0  0  0  0  0
   -3.6719    0.2620    0.2481 C   0  0  0  0  0  0  0  0  0  0  0  0
   -3.1162   -0.6234   -1.9416 O   0  0  0  0  0  0  0  0  0  0  0  0
    4.2084    1.7408   -0.3173 H   0  0  0  0  0  0  0  0  0  0  0  0
    5.1391    0.9433    0.9521 H   0  0  0  0  0  0  0  0  0  0  0  0
    3.8411    2.0600    1.3773 H   0  0  0  0  0  0  0  0  0  0  0  0
    3.1204   -0.3136    1.6676 H   0  0  0  0  0  0  0  0  0  0  0  0
    3.4889   -0.6313   -0.0270 H   0  0  0  0  0  0  0  0  0  0  0  0
    1.7802    1.0564   -0.7080 H   0  0  0  0  0  0  0  0  0  0  0  0
    1.4146    1.3651    0.9870 H   0  0  0  0  0  0  0  0  0  0  0  0
    0.6568   -0.9672    1.2812 H   0  0  0  0  0  0  0  0  0  0  0  0
    1.1071   -1.3452   -0.3833 H   0  0  0  0  0  0  0  0  0  0  0  0
   -0.9690    0.7426    0.4199 H   0  0  0  0  0  0  0  0  0  0  0  0
   -0.2075   -0.2464   -2.0900 H   0  0  0  0  0  0  0  0  0  0  0  0
   -1.6861   -1.5957    0.9340 H   0  0  0  0  0  0  0  0  0  0  0  0
   -1.2936   -2.0801   -0.7209 H   0  0  0  0  0  0  0  0  0  0  0  0
   -3.7027   -1.7803   -0.4270 H   0  0  0  0  0  0  0  0  0  0  0  0
   -3.1433    1.1890    0.0394 H   0  0  0  0  0  0  0  0  0  0  0  0
   -3.6165    0.0496    1.3124 H   0  0  0  0  0  0  0  0  0  0  0  0
   -4.7137    0.3961   -0.0315 H   0  0  0  0  0  0  0  0  0  0  0  0
   -2.4989    0.1065   -2.1055 H   0  0  0  0  0  0  0  0  0  0  0  0
  1  2  1  0  0  0  0
  2  3  1  0  0  0  0
  3  4  1  0  0  0  0
  4  5  1  0  0  0  0
  5  6  1  0  0  0  0
  5  7  1  0  0  0  0
  7  8  1  0  0  0  0
  8  9  1  0  0  0  0
  8 10  1  0  0  0  0
  1 11  1  0  0  0  0
  1 12  1  0  0  0  0
  1 13  1  0  0  0  0
  2 14  1  0  0  0  0
  2 15  1  0  0  0  0
  3 16  1  0  0  0  0
  3 17  1  0  0  0  0
  4 18  1  0  0  0  0
  4 19  1  0  0  0  0
  5 20  1  0  0  0  0
  6 21  1  0  0  0  0
  7 22  1  0  0  0  0
  7 23  1  0  0  0  0
  8 24  1  0  0  0  0
  9 25  1  0  0  0  0
  9 26  1  0  0  0  0
  9 27  1  0  0  0  0
 10 28  1  0  0  0  0
M  END
