 xtb: 6.7.1 (edcfbbe)
          07092606593D

 29 28  0     0  0            999 V2000
   -5.1525   -0.0617    0.2389 C   0  0  0  0  0  0  0  0  0  0  0  0
   -3.8042    0.6454    0.1779 C   0  0  0  0  0  0  0  0  0  0  0  0
   -2.6531   -0.3413   -0.0027 C   0  0  0  0  0  0  0  0  0  0  0  0
   -1.2979    0.3600   -0.0547 C   0  0  0  0  0  0  0  0  0  0  0  0
   -0.1488   -0.6287   -0.2375 C   0  0  0  0  0  0  0  0  0  0  0  0
    1.2048    0.0752   -0.2603 C   0  0  0  0  0  0  0  0  0  0  0  0
    2.3471   -0.9204   -0.4428 C   0  0  0  0  0  0  0  0  0  0  0  0
    3.6104   -0.2615   -0.5279 O   0  0  0  0  0  0  0  0  0  0  0  0
    4.2081    0.0659    0.6235 C   0  0  0  0  0  0  0  0  0  0  0  0
    5.5168    0.7656    0.3631 C   0  0  0  0  0  0  0  0  0  0  0  0
    3.7566   -0.1782    1.7104 O   0  0  0  0  0  0  0  0  0  0  0  0
   -5.9576    0.6581    0.3667 H   0  0  0  0  0  0  0  0  0  0  0  0
   -5.1798   -0.7589    1.0736 H   0  0  0  0  0  0  0  0  0  0  0  0
   -5.3328   -0.6194   -0.6776 H   0  0  0  0  0  0  0  0  0  0  0  0
   -3.6504    1.2132    1.0983 H   0  0  0  0  0  0  0  0  0  0  0  0
   -3.8039    1.3557   -0.6522 H   0  0  0  0  0  0  0  0  0  0  0  0
   -2.6578   -1.0547    0.8246 H   0  0  0  0  0  0  0  0  0  0  0  0
   -2.8040   -0.9058   -0.9260 H   0  0  0  0  0  0  0  0  0  0  0  0
   -1.1463    0.9203    0.8705 H   0  0  0  0  0  0  0  0  0  0  0  0
   -1.2932    1.0766   -0.8794 H   0  0  0  0  0  0  0  0  0  0  0  0
   -0.2883   -1.1784   -1.1715 H   0  0  0  0  0  0  0  0  0  0  0  0
   -0.1628   -1.3537    0.5791 H   0  0  0  0  0  0  0  0  0  0  0  0
    1.3561    0.6111    0.6787 H   0  0  0  0  0  0  0  0  0  0  0  0
    1.2340    0.8016   -1.0755 H   0  0  0  0  0  0  0  0  0  0  0  0
    2.3684   -1.6246    0.3956 H   0  0  0  0  0  0  0  0  0  0  0  0
    2.2440   -1.4661   -1.3832 H   0  0  0  0  0  0  0  0  0  0  0  0
    5.3285    1.6899   -0.1774 H   0  0  0  0  0  0  0  0  0  0  0  0
    6.1493    0.1339   -0.2551 H   0  0  0  0  0  0  0  0  0  0  0  0
    6.0093    0.9810    1.3060 H   0  0  0  0  0  0  0  0  0  0  0  0
  1  2  1  0  0  0  0
  2  3  1  0  0  0  0
  3  4  1  0  0  0  0
  4  5  1  0  0  0  0
  5  6  1  0  0  0  0
  6  7  1  0  0  0  0
  7  8  1  0  0  0  0
  8  9  1  0  0  0  0
  9 10  1  0  0  0  0
  9 11  2  0  0  0  0
  1 12  1  0  0  0  0
  1 13  1  0  0  0  0
  1 14  1  0  0  0  0
  2 15  1  0  0  0  0
  2 16  1  0  0  0  0
  3 17  1  0  0  0  0
  3 18  1  0  0  0  0
  4 19  1  0  0  0  0
  4 20  1  0  0  0  0
  5 21  1  0  0  0  0
  5 22  1  0  0  0  0
  6 23  1  0  0  0  0
  6 24  1  0  0  0  0
  7 25  1  0  0  0  0
  7 26  1  0  0  0  0
 10 27  1  0  0  0  0
 10 28  1  0  0  0  0
 10 29  1  0  0  0  0
M  END
