 xtb: 6.7.1 (edcfbbe)
          07092604343D

 27 28  0     0  0            999 V2000
   -2.1716   -0.9644   -1.3620 C   0  0  0  0  0  0  0  0  0  0  0  0
   -1.7616   -0.4720    0.0264 C   0  0  0  0  0  0  0  0  0  0  0  0
   -2.7385    0.5867    0.5380 C   0  0  0  0  0  0  0  0  0  0  0  0
   -0.3423    0.0605    0.0356 C   0  0  0  0  0  0  0  0  0  0  0  0
    0.0070    1.2680   -0.8092 C   0  0  0  0  0  0  0  0  0  0  0  0
    1.4832    1.1382   -1.1306 C   0  0  0  0  0  0  0  0  0  0  0  0
    2.1812    2.0173   -1.5595 O   0  0  0  0  0  0  0  0  0  0  0  0
    1.9440   -0.2837   -0.8311 C   0  0  0  0  0  0  0  0  0  0  0  0
    3.3479   -0.3201   -0.2327 C   0  0  0  0  0  0  0  0  0  0  0  0
    0.8558   -0.8549    0.0468 C   0  0  0  0  0  0  0  0  0  0  0  0
    0.4989   -0.0655    1.2744 C   0  0  0  0  0  0  0  0  0  0  0  0
   -3.1373   -1.4618   -1.3124 H   0  0  0  0  0  0  0  0  0  0  0  0
   -2.2570   -0.1359   -2.0611 H   0  0  0  0  0  0  0  0  0  0  0  0
   -1.4395   -1.6697   -1.7484 H   0  0  0  0  0  0  0  0  0  0  0  0
   -1.7923   -1.3282    0.7103 H   0  0  0  0  0  0  0  0  0  0  0  0
   -2.4361    0.9370    1.5221 H   0  0  0  0  0  0  0  0  0  0  0  0
   -3.7413    0.1725    0.6114 H   0  0  0  0  0  0  0  0  0  0  0  0
   -2.7686    1.4380   -0.1377 H   0  0  0  0  0  0  0  0  0  0  0  0
   -0.1861    2.2180   -0.3083 H   0  0  0  0  0  0  0  0  0  0  0  0
   -0.5438    1.2753   -1.7524 H   0  0  0  0  0  0  0  0  0  0  0  0
    1.9609   -0.8136   -1.7926 H   0  0  0  0  0  0  0  0  0  0  0  0
    3.7079   -1.3437   -0.1657 H   0  0  0  0  0  0  0  0  0  0  0  0
    4.0264    0.2553   -0.8577 H   0  0  0  0  0  0  0  0  0  0  0  0
    3.3465    0.1127    0.7647 H   0  0  0  0  0  0  0  0  0  0  0  0
    0.7393   -1.9290    0.0701 H   0  0  0  0  0  0  0  0  0  0  0  0
    0.0900   -0.6045    2.1157 H   0  0  0  0  0  0  0  0  0  0  0  0
    1.1269    0.7674    1.5546 H   0  0  0  0  0  0  0  0  0  0  0  0
  1  2  1  0  0  0  0
  2  3  1  0  0  0  0
  2  4  1  0  0  0  0
  4  5  1  0  0  0  0
  5  6  1  0  0  0  0
  6  7  2  0  0  0  0
  6  8  1  0  0  0  0
  8  9  1  0  0  0  0
  4 10  1  0  0  0  0
  8 10  1  0  0  0  0
  4 11  1  0  0  0  0
 10 11  1  0  0  0  0
  1 12  1  0  0  0  0
  1 13  1  0  0  0  0
  1 14  1  0  0  0  0
  2 15  1  0  0  0  0
  3 16  1  0  0  0  0
  3 17  1  0  0  0  0
  3 18  1  0  0  0  0
  5 19  1  0  0  0  0
  5 20  1  0  0  0  0
  8 21  1  0  0  0  0
  9 22  1  0  0  0  0
  9 23  1  0  0  0  0
  9 24  1  0  0  0  0
 10 25  1  0  0  0  0
 11 26  1  0  0  0  0
 11 27  1  0  0  0  0
M  END
