 xtb: 6.7.1 (edcfbbe)
          07062617403D

 48 47  0     0  0            999 V2000
   -2.8020    5.8222    0.9718 C   0  0  0  0  0  0  0  0  0  0  0  0
   -3.4974    4.4755    1.1275 C   0  0  0  0  0  0  0  0  0  0  0  0
   -2.6154    3.4634    1.8547 C   0  0  0  0  0  0  0  0  0  0  0  0
   -1.4223    3.1808    1.1190 O   0  0  0  0  0  0  0  0  0  0  0  0
   -1.4980    2.2754    0.1584 C   0  0  0  0  0  0  0  0  0  0  0  0
   -2.5011    1.6640   -0.1318 O   0  0  0  0  0  0  0  0  0  0  0  0
   -0.1736    2.0877   -0.5462 C   0  0  0  0  0  0  0  0  0  0  0  0
   -0.1853    0.7437   -1.2965 C   0  0  0  0  0  0  0  0  0  0  0  0
   -1.0648    0.7715   -2.3865 O   0  0  0  0  0  0  0  0  0  0  0  0
    1.2130    0.3980   -1.8492 C   0  0  0  0  0  0  0  0  0  0  0  0
    2.1698    0.1046   -0.7123 C   0  0  0  0  0  0  0  0  0  0  0  0
    2.7292    0.9444   -0.0580 O   0  0  0  0  0  0  0  0  0  0  0  0
    2.3004   -1.2054   -0.5300 O   0  0  0  0  0  0  0  0  0  0  0  0
    3.0962   -1.6327    0.5794 C   0  0  0  0  0  0  0  0  0  0  0  0
    3.5536   -3.0638    0.3363 C   0  0  0  0  0  0  0  0  0  0  0  0
    4.3774   -3.5810    1.5081 C   0  0  0  0  0  0  0  0  0  0  0  0
   -0.5676   -0.3524   -0.2835 C   0  0  0  0  0  0  0  0  0  0  0  0
   -0.1961   -0.3474    0.8638 O   0  0  0  0  0  0  0  0  0  0  0  0
   -1.3268   -1.2800   -0.8347 O   0  0  0  0  0  0  0  0  0  0  0  0
   -1.7244   -2.3730   -0.0065 C   0  0  0  0  0  0  0  0  0  0  0  0
   -0.6180   -3.4182    0.1112 C   0  0  0  0  0  0  0  0  0  0  0  0
   -0.2651   -4.0219   -1.2422 C   0  0  0  0  0  0  0  0  0  0  0  0
   -2.5918    6.2566    1.9465 H   0  0  0  0  0  0  0  0  0  0  0  0
   -3.4312    6.5114    0.4142 H   0  0  0  0  0  0  0  0  0  0  0  0
   -1.8612    5.7032    0.4399 H   0  0  0  0  0  0  0  0  0  0  0  0
   -4.4202    4.5926    1.6978 H   0  0  0  0  0  0  0  0  0  0  0  0
   -3.7555    4.0718    0.1467 H   0  0  0  0  0  0  0  0  0  0  0  0
   -2.2699    3.8610    2.8108 H   0  0  0  0  0  0  0  0  0  0  0  0
   -3.1623    2.5283    2.0121 H   0  0  0  0  0  0  0  0  0  0  0  0
    0.6385    2.1242    0.1794 H   0  0  0  0  0  0  0  0  0  0  0  0
   -0.0382    2.8993   -1.2643 H   0  0  0  0  0  0  0  0  0  0  0  0
   -1.9600    0.8847   -2.0321 H   0  0  0  0  0  0  0  0  0  0  0  0
    1.1149   -0.4755   -2.4928 H   0  0  0  0  0  0  0  0  0  0  0  0
    1.5755    1.2464   -2.4292 H   0  0  0  0  0  0  0  0  0  0  0  0
    3.9487   -0.9536    0.6861 H   0  0  0  0  0  0  0  0  0  0  0  0
    2.4828   -1.5592    1.4845 H   0  0  0  0  0  0  0  0  0  0  0  0
    4.1455   -3.0946   -0.5801 H   0  0  0  0  0  0  0  0  0  0  0  0
    2.6763   -3.6951    0.1886 H   0  0  0  0  0  0  0  0  0  0  0  0
    5.2601   -2.9639    1.6566 H   0  0  0  0  0  0  0  0  0  0  0  0
    4.6982   -4.6024    1.3216 H   0  0  0  0  0  0  0  0  0  0  0  0
    3.7909   -3.5651    2.4235 H   0  0  0  0  0  0  0  0  0  0  0  0
   -1.9867   -1.9866    0.9839 H   0  0  0  0  0  0  0  0  0  0  0  0
   -2.6086   -2.7881   -0.4940 H   0  0  0  0  0  0  0  0  0  0  0  0
   -0.9585   -4.1966    0.7963 H   0  0  0  0  0  0  0  0  0  0  0  0
    0.2616   -2.9408    0.5450 H   0  0  0  0  0  0  0  0  0  0  0  0
   -1.1337   -4.5071   -1.6820 H   0  0  0  0  0  0  0  0  0  0  0  0
    0.0776   -3.2459   -1.9218 H   0  0  0  0  0  0  0  0  0  0  0  0
    0.5254   -4.7607   -1.1348 H   0  0  0  0  0  0  0  0  0  0  0  0
  1  2  1  0  0  0  0
  2  3  1  0  0  0  0
  3  4  1  0  0  0  0
  4  5  1  0  0  0  0
  5  6  2  0  0  0  0
  5  7  1  0  0  0  0
  7  8  1  0  0  0  0
  8  9  1  0  0  0  0
  8 10  1  0  0  0  0
 10 11  1  0  0  0  0
 11 12  2  0  0  0  0
 11 13  1  0  0  0  0
 13 14  1  0  0  0  0
 14 15  1  0  0  0  0
 15 16  1  0  0  0  0
  8 17  1  0  0  0  0
 17 18  2  0  0  0  0
 17 19  1  0  0  0  0
 19 20  1  0  0  0  0
 20 21  1  0  0  0  0
 21 22  1  0  0  0  0
  1 23  1  0  0  0  0
  1 24  1  0  0  0  0
  1 25  1  0  0  0  0
  2 26  1  0  0  0  0
  2 27  1  0  0  0  0
  3 28  1  0  0  0  0
  3 29  1  0  0  0  0
  7 30  1  0  0  0  0
  7 31  1  0  0  0  0
  9 32  1  0  0  0  0
 10 33  1  0  0  0  0
 10 34  1  0  0  0  0
 14 35  1  0  0  0  0
 14 36  1  0  0  0  0
 15 37  1  0  0  0  0
 15 38  1  0  0  0  0
 16 39  1  0  0  0  0
 16 40  1  0  0  0  0
 16 41  1  0  0  0  0
 20 42  1  0  0  0  0
 20 43  1  0  0  0  0
 21 44  1  0  0  0  0
 21 45  1  0  0  0  0
 22 46  1  0  0  0  0
 22 47  1  0  0  0  0
 22 48  1  0  0  0  0
M  END
