 xtb: 6.7.1 (edcfbbe)
          07062620333D

 60 61  0     0  0            999 V2000
    8.3236   -2.5760   -0.8231 C   0  0  0  0  0  0  0  0  0  0  0  0
    7.4177   -1.4300   -0.4778 C   0  0  0  0  0  0  0  0  0  0  0  0
    8.0675   -0.3783    0.3717 C   0  0  0  0  0  0  0  0  0  0  0  0
    6.1589   -1.3948   -0.8988 C   0  0  0  0  0  0  0  0  0  0  0  0
    5.1392   -0.3373   -0.6068 C   0  0  0  0  0  0  0  0  0  0  0  0
    4.3329   -0.6937    0.6574 C   0  0  0  0  0  0  0  0  0  0  0  0
    3.3137    0.3642    0.9596 C   0  0  0  0  0  0  0  0  0  0  0  0
    3.8248    1.6558    1.5284 C   0  0  0  0  0  0  0  0  0  0  0  0
    2.0242    0.1808    0.7002 C   0  0  0  0  0  0  0  0  0  0  0  0
    0.9656    1.2063    0.9486 C   0  0  0  0  0  0  0  0  0  0  0  0
   -0.2768    0.7142    0.4568 O   0  0  0  0  0  0  0  0  0  0  0  0
   -1.3742    1.3718    0.8517 C   0  0  0  0  0  0  0  0  0  0  0  0
   -1.3269    2.3322    1.5895 O   0  0  0  0  0  0  0  0  0  0  0  0
   -2.5644    0.7578    0.2643 C   0  0  0  0  0  0  0  0  0  0  0  0
   -2.5422   -0.3120   -0.6243 C   0  0  0  0  0  0  0  0  0  0  0  0
   -3.8835   -0.5651   -0.9351 C   0  0  0  0  0  0  0  0  0  0  0  0
   -4.4572   -1.5706   -1.8157 C   0  0  0  0  0  0  0  0  0  0  0  0
   -3.6509   -2.4692   -2.5115 C   0  0  0  0  0  0  0  0  0  0  0  0
   -4.2177   -3.4169   -3.3429 C   0  0  0  0  0  0  0  0  0  0  0  0
   -5.5930   -3.4825   -3.4925 C   0  0  0  0  0  0  0  0  0  0  0  0
   -6.4023   -2.5924   -2.8045 C   0  0  0  0  0  0  0  0  0  0  0  0
   -5.8412   -1.6438   -1.9727 C   0  0  0  0  0  0  0  0  0  0  0  0
   -4.6556    0.2978   -0.2729 N   0  0  0  0  0  0  0  0  0  0  0  0
   -3.8797    1.0840    0.4378 N   0  0  0  0  0  0  0  0  0  0  0  0
   -4.5047    2.1211    1.2583 C   0  0  0  0  0  0  0  0  0  0  0  0
   -6.0197    2.0053    1.0872 C   0  0  0  0  0  0  0  0  0  0  0  0
   -4.0383    3.4959    0.7747 C   0  0  0  0  0  0  0  0  0  0  0  0
   -4.1372    1.8954    2.7264 C   0  0  0  0  0  0  0  0  0  0  0  0
    8.7274   -3.0239    0.0845 H   0  0  0  0  0  0  0  0  0  0  0  0
    9.1654   -2.2249   -1.4201 H   0  0  0  0  0  0  0  0  0  0  0  0
    7.7961   -3.3419   -1.3853 H   0  0  0  0  0  0  0  0  0  0  0  0
    7.4722    0.5269    0.4347 H   0  0  0  0  0  0  0  0  0  0  0  0
    8.2158   -0.7607    1.3824 H   0  0  0  0  0  0  0  0  0  0  0  0
    9.0472   -0.1240   -0.0309 H   0  0  0  0  0  0  0  0  0  0  0  0
    5.7899   -2.2265   -1.4856 H   0  0  0  0  0  0  0  0  0  0  0  0
    5.6111    0.6359   -0.4694 H   0  0  0  0  0  0  0  0  0  0  0  0
    4.4470   -0.2569   -1.4474 H   0  0  0  0  0  0  0  0  0  0  0  0
    3.8425   -1.6560    0.5033 H   0  0  0  0  0  0  0  0  0  0  0  0
    5.0248   -0.7940    1.4966 H   0  0  0  0  0  0  0  0  0  0  0  0
    4.8835    1.5875    1.7627 H   0  0  0  0  0  0  0  0  0  0  0  0
    3.6773    2.4719    0.8209 H   0  0  0  0  0  0  0  0  0  0  0  0
    3.2839    1.9130    2.4383 H   0  0  0  0  0  0  0  0  0  0  0  0
    1.6628   -0.7493    0.2892 H   0  0  0  0  0  0  0  0  0  0  0  0
    0.8630    1.4300    2.0204 H   0  0  0  0  0  0  0  0  0  0  0  0
    1.1979    2.1542    0.4428 H   0  0  0  0  0  0  0  0  0  0  0  0
   -1.6653   -0.8117   -0.9777 H   0  0  0  0  0  0  0  0  0  0  0  0
   -2.5778   -2.4268   -2.4023 H   0  0  0  0  0  0  0  0  0  0  0  0
   -3.5834   -4.1091   -3.8778 H   0  0  0  0  0  0  0  0  0  0  0  0
   -6.0321   -4.2246   -4.1431 H   0  0  0  0  0  0  0  0  0  0  0  0
   -7.4757   -2.6406   -2.9191 H   0  0  0  0  0  0  0  0  0  0  0  0
   -6.4582   -0.9444   -1.4308 H   0  0  0  0  0  0  0  0  0  0  0  0
   -6.5079    2.7671    1.6888 H   0  0  0  0  0  0  0  0  0  0  0  0
   -6.3663    1.0265    1.4056 H   0  0  0  0  0  0  0  0  0  0  0  0
   -6.2981    2.1433    0.0467 H   0  0  0  0  0  0  0  0  0  0  0  0
   -2.9728    3.6191    0.9404 H   0  0  0  0  0  0  0  0  0  0  0  0
   -4.5630    4.2724    1.3243 H   0  0  0  0  0  0  0  0  0  0  0  0
   -4.2518    3.6141   -0.2856 H   0  0  0  0  0  0  0  0  0  0  0  0
   -4.4059    0.8859    3.0312 H   0  0  0  0  0  0  0  0  0  0  0  0
   -3.0740    2.0449    2.8838 H   0  0  0  0  0  0  0  0  0  0  0  0
   -4.6780    2.6023    3.3494 H   0  0  0  0  0  0  0  0  0  0  0  0
  1  2  1  0  0  0  0
  2  3  1  0  0  0  0
  2  4  2  0  0  0  0
  4  5  1  0  0  0  0
  5  6  1  0  0  0  0
  6  7  1  0  0  0  0
  7  8  1  0  0  0  0
  7  9  2  0  0  0  0
  9 10  1  0  0  0  0
 10 11  1  0  0  0  0
 11 12  1  0  0  0  0
 12 13  2  0  0  0  0
 12 14  1  0  0  0  0
 14 15  4  0  0  0  0
 15 16  4  0  0  0  0
 16 17  1  0  0  0  0
 17 18  4  0  0  0  0
 18 19  4  0  0  0  0
 19 20  4  0  0  0  0
 20 21  4  0  0  0  0
 17 22  4  0  0  0  0
 21 22  4  0  0  0  0
 16 23  4  0  0  0  0
 14 24  4  0  0  0  0
 23 24  4  0  0  0  0
 24 25  1  0  0  0  0
 25 26  1  0  0  0  0
 25 27  1  0  0  0  0
 25 28  1  0  0  0  0
  1 29  1  0  0  0  0
  1 30  1  0  0  0  0
  1 31  1  0  0  0  0
  3 32  1  0  0  0  0
  3 33  1  0  0  0  0
  3 34  1  0  0  0  0
  4 35  1  0  0  0  0
  5 36  1  0  0  0  0
  5 37  1  0  0  0  0
  6 38  1  0  0  0  0
  6 39  1  0  0  0  0
  8 40  1  0  0  0  0
  8 41  1  0  0  0  0
  8 42  1  0  0  0  0
  9 43  1  0  0  0  0
 10 44  1  0  0  0  0
 10 45  1  0  0  0  0
 15 46  1  0  0  0  0
 18 47  1  0  0  0  0
 19 48  1  0  0  0  0
 20 49  1  0  0  0  0
 21 50  1  0  0  0  0
 22 51  1  0  0  0  0
 26 52  1  0  0  0  0
 26 53  1  0  0  0  0
 26 54  1  0  0  0  0
 27 55  1  0  0  0  0
 27 56  1  0  0  0  0
 27 57  1  0  0  0  0
 28 58  1  0  0  0  0
 28 59  1  0  0  0  0
 28 60  1  0  0  0  0
M  END
