 xtb: 6.7.1 (edcfbbe)
          07082618573D

 20 20  0     0  0            999 V2000
   -1.7181   -1.0859    0.6942 C   0  0  0  0  0  0  0  0  0  0  0  0
   -0.6403   -0.2120    0.0564 C   0  0  0  0  0  0  0  0  0  0  0  0
   -1.2522    0.7096   -1.0059 C   0  0  0  0  0  0  0  0  0  0  0  0
    0.4551   -1.0877   -0.5805 C   0  0  0  0  0  0  0  0  0  0  0  0
    1.5661   -0.3189   -0.9870 O   0  0  0  0  0  0  0  0  0  0  0  0
    2.1251    0.3609    0.1157 C   0  0  0  0  0  0  0  0  0  0  0  0
    1.0813    1.2676    0.7700 C   0  0  0  0  0  0  0  0  0  0  0  0
   -0.0685    0.5362    1.1334 O   0  0  0  0  0  0  0  0  0  0  0  0
   -2.4955   -0.4533    1.1128 H   0  0  0  0  0  0  0  0  0  0  0  0
   -1.2870   -1.6765    1.4981 H   0  0  0  0  0  0  0  0  0  0  0  0
   -2.1529   -1.7510   -0.0463 H   0  0  0  0  0  0  0  0  0  0  0  0
   -1.8235    1.4990   -0.5230 H   0  0  0  0  0  0  0  0  0  0  0  0
   -0.4738    1.1536   -1.6221 H   0  0  0  0  0  0  0  0  0  0  0  0
   -1.9140    0.1361   -1.6490 H   0  0  0  0  0  0  0  0  0  0  0  0
    0.0792   -1.5794   -1.4787 H   0  0  0  0  0  0  0  0  0  0  0  0
    0.7780   -1.8496    0.1460 H   0  0  0  0  0  0  0  0  0  0  0  0
    2.4920   -0.3695    0.8534 H   0  0  0  0  0  0  0  0  0  0  0  0
    2.9620    0.9445   -0.2699 H   0  0  0  0  0  0  0  0  0  0  0  0
    0.8196    2.0842    0.0835 H   0  0  0  0  0  0  0  0  0  0  0  0
    1.4675    1.6921    1.6988 H   0  0  0  0  0  0  0  0  0  0  0  0
  1  2  1  0  0  0  0
  2  3  1  0  0  0  0
  2  4  1  0  0  0  0
  4  5  1  0  0  0  0
  5  6  1  0  0  0  0
  6  7  1  0  0  0  0
  2  8  1  0  0  0  0
  7  8  1  0  0  0  0
  1  9  1  0  0  0  0
  1 10  1  0  0  0  0
  1 11  1  0  0  0  0
  3 12  1  0  0  0  0
  3 13  1  0  0  0  0
  3 14  1  0  0  0  0
  4 15  1  0  0  0  0
  4 16  1  0  0  0  0
  6 17  1  0  0  0  0
  6 18  1  0  0  0  0
  7 19  1  0  0  0  0
  7 20  1  0  0  0  0
M  END
