 xtb: 6.7.1 (edcfbbe)
          07082605013D

 22 23  0     0  0            999 V2000
   -1.9011    1.4493   -0.3424 C   0  0  0  0  0  0  0  0  0  0  0  0
   -1.7153    0.0395   -0.1397 N   0  0  0  0  0  0  0  0  0  0  0  0
   -2.7231   -0.8683   -0.1809 C   0  0  0  0  0  0  0  0  0  0  0  0
   -2.2006   -2.1264   -0.0346 C   0  0  0  0  0  0  0  0  0  0  0  0
   -0.8120   -1.9778    0.0832 C   0  0  0  0  0  0  0  0  0  0  0  0
   -0.5296   -0.6261    0.0214 C   0  0  0  0  0  0  0  0  0  0  0  0
    0.7734    0.0053    0.1251 C   0  0  0  0  0  0  0  0  0  0  0  0
    1.8931   -0.5987   -0.4549 C   0  0  0  0  0  0  0  0  0  0  0  0
    3.1312    0.0022   -0.3321 C   0  0  0  0  0  0  0  0  0  0  0  0
    3.2190    1.1987    0.3656 C   0  0  0  0  0  0  0  0  0  0  0  0
    2.1759    1.7739    0.9388 N   0  0  0  0  0  0  0  0  0  0  0  0
    0.9970    1.1926    0.8292 C   0  0  0  0  0  0  0  0  0  0  0  0
   -1.0036    1.8881   -0.7766 H   0  0  0  0  0  0  0  0  0  0  0  0
   -2.1233    1.9607    0.5986 H   0  0  0  0  0  0  0  0  0  0  0  0
   -2.7370    1.6092   -1.0246 H   0  0  0  0  0  0  0  0  0  0  0  0
   -3.7401   -0.5558   -0.3180 H   0  0  0  0  0  0  0  0  0  0  0  0
   -2.7502   -3.0465   -0.0168 H   0  0  0  0  0  0  0  0  0  0  0  0
   -0.0955   -2.7620    0.2299 H   0  0  0  0  0  0  0  0  0  0  0  0
    1.7774   -1.5232   -1.0018 H   0  0  0  0  0  0  0  0  0  0  0  0
    4.0101   -0.4427   -0.7732 H   0  0  0  0  0  0  0  0  0  0  0  0
    4.1615    1.7177    0.4789 H   0  0  0  0  0  0  0  0  0  0  0  0
    0.1928    1.6903    1.3545 H   0  0  0  0  0  0  0  0  0  0  0  0
  1  2  1  0  0  0  0
  2  3  4  0  0  0  0
  3  4  2  0  0  0  0
  4  5  4  0  0  0  0
  2  6  1  0  0  0  0
  5  6  4  0  0  0  0
  6  7  1  0  0  0  0
  7  8  4  0  0  0  0
  8  9  4  0  0  0  0
  9 10  4  0  0  0  0
 10 11  4  0  0  0  0
  7 12  4  0  0  0  0
 11 12  4  0  0  0  0
  1 13  1  0  0  0  0
  1 14  1  0  0  0  0
  1 15  1  0  0  0  0
  3 16  1  0  0  0  0
  4 17  1  0  0  0  0
  5 18  1  0  0  0  0
  8 19  1  0  0  0  0
  9 20  1  0  0  0  0
 10 21  1  0  0  0  0
 12 22  1  0  0  0  0
M  END
