 xtb: 6.7.1 (edcfbbe)
          07072620293D

 26 26  0     0  0            999 V2000
   -2.1764    1.2536   -0.9402 C   0  0  0  0  0  0  0  0  0  0  0  0
   -1.1363    1.0548    0.1672 C   0  0  0  0  0  0  0  0  0  0  0  0
   -1.6775    0.1416    1.2276 C   0  0  0  0  0  0  0  0  0  0  0  0
   -1.2526   -1.0930    1.4362 C   0  0  0  0  0  0  0  0  0  0  0  0
   -0.1661   -1.7442    0.6407 C   0  0  0  0  0  0  0  0  0  0  0  0
    0.1276   -0.9848   -0.6532 C   0  0  0  0  0  0  0  0  0  0  0  0
    1.4076   -1.4910   -1.3107 C   0  0  0  0  0  0  0  0  0  0  0  0
    0.2012    0.5301   -0.3902 C   0  0  0  0  0  0  0  0  0  0  0  0
    1.2884    0.8628    0.5750 C   0  0  0  0  0  0  0  0  0  0  0  0
    2.2849    1.5278    0.1845 N   0  0  0  0  0  0  0  0  0  0  0  0
    3.2432    1.8114    1.1609 O   0  0  0  0  0  0  0  0  0  0  0  0
   -1.8077    1.9528   -1.6873 H   0  0  0  0  0  0  0  0  0  0  0  0
   -2.4076    0.3102   -1.4283 H   0  0  0  0  0  0  0  0  0  0  0  0
   -3.0969    1.6518   -0.5192 H   0  0  0  0  0  0  0  0  0  0  0  0
   -0.9521    2.0372    0.6212 H   0  0  0  0  0  0  0  0  0  0  0  0
   -2.4751    0.5535    1.8311 H   0  0  0  0  0  0  0  0  0  0  0  0
   -1.6835   -1.6924    2.2271 H   0  0  0  0  0  0  0  0  0  0  0  0
    0.7404   -1.8080    1.2516 H   0  0  0  0  0  0  0  0  0  0  0  0
   -0.4569   -2.7716    0.4042 H   0  0  0  0  0  0  0  0  0  0  0  0
   -0.7057   -1.1541   -1.3431 H   0  0  0  0  0  0  0  0  0  0  0  0
    2.2653   -1.3076   -0.6677 H   0  0  0  0  0  0  0  0  0  0  0  0
    1.3397   -2.5602   -1.5002 H   0  0  0  0  0  0  0  0  0  0  0  0
    1.5783   -0.9827   -2.2567 H   0  0  0  0  0  0  0  0  0  0  0  0
    0.4290    1.0393   -1.3320 H   0  0  0  0  0  0  0  0  0  0  0  0
    1.1718    0.5404    1.6095 H   0  0  0  0  0  0  0  0  0  0  0  0
    3.9172    2.3223    0.6920 H   0  0  0  0  0  0  0  0  0  0  0  0
  1  2  1  0  0  0  0
  2  3  1  0  0  0  0
  3  4  2  0  0  0  0
  4  5  1  0  0  0  0
  5  6  1  0  0  0  0
  6  7  1  0  0  0  0
  2  8  1  0  0  0  0
  6  8  1  0  0  0  0
  8  9  1  0  0  0  0
  9 10  2  0  0  0  0
 10 11  1  0  0  0  0
  1 12  1  0  0  0  0
  1 13  1  0  0  0  0
  1 14  1  0  0  0  0
  2 15  1  0  0  0  0
  3 16  1  0  0  0  0
  4 17  1  0  0  0  0
  5 18  1  0  0  0  0
  5 19  1  0  0  0  0
  6 20  1  0  0  0  0
  7 21  1  0  0  0  0
  7 22  1  0  0  0  0
  7 23  1  0  0  0  0
  8 24  1  0  0  0  0
  9 25  1  0  0  0  0
 11 26  1  0  0  0  0
M  END
