 xtb: 6.7.1 (edcfbbe)
          07092622273D

 32 31  0     0  0            999 V2000
    2.0866    1.7558   -0.4204 C   0  0  0  0  0  0  0  0  0  0  0  0
    2.3301    0.2800   -0.0999 C   0  0  0  0  0  0  0  0  0  0  0  0
    2.3369   -0.5391   -1.3918 C   0  0  0  0  0  0  0  0  0  0  0  0
    3.6674    0.1189    0.6252 C   0  0  0  0  0  0  0  0  0  0  0  0
    1.2184   -0.2319    0.8229 C   0  0  0  0  0  0  0  0  0  0  0  0
   -0.0469   -0.0976    0.1795 O   0  0  0  0  0  0  0  0  0  0  0  0
   -1.1074   -0.5084    0.8769 C   0  0  0  0  0  0  0  0  0  0  0  0
   -1.0304   -0.9696    1.9862 O   0  0  0  0  0  0  0  0  0  0  0  0
   -2.4034   -0.3178    0.0926 C   0  0  0  0  0  0  0  0  0  0  0  0
   -3.5762   -0.8050    0.9414 C   0  0  0  0  0  0  0  0  0  0  0  0
   -2.5615    1.1719   -0.2292 C   0  0  0  0  0  0  0  0  0  0  0  0
   -2.3104   -1.1298   -1.2034 C   0  0  0  0  0  0  0  0  0  0  0  0
    2.0912    2.3508    0.4900 H   0  0  0  0  0  0  0  0  0  0  0  0
    1.1240    1.8801   -0.9091 H   0  0  0  0  0  0  0  0  0  0  0  0
    2.8632    2.1317   -1.0821 H   0  0  0  0  0  0  0  0  0  0  0  0
    1.3784   -0.4525   -1.8964 H   0  0  0  0  0  0  0  0  0  0  0  0
    3.1156   -0.1818   -2.0614 H   0  0  0  0  0  0  0  0  0  0  0  0
    2.5210   -1.5895   -1.1779 H   0  0  0  0  0  0  0  0  0  0  0  0
    3.8513   -0.9255    0.8664 H   0  0  0  0  0  0  0  0  0  0  0  0
    3.6750    0.6905    1.5504 H   0  0  0  0  0  0  0  0  0  0  0  0
    4.4789    0.4742   -0.0049 H   0  0  0  0  0  0  0  0  0  0  0  0
    1.1978    0.3350    1.7608 H   0  0  0  0  0  0  0  0  0  0  0  0
    1.3747   -1.2873    1.0741 H   0  0  0  0  0  0  0  0  0  0  0  0
   -3.6281   -0.2451    1.8716 H   0  0  0  0  0  0  0  0  0  0  0  0
   -4.5100   -0.6774    0.3994 H   0  0  0  0  0  0  0  0  0  0  0  0
   -3.4524   -1.8559    1.1897 H   0  0  0  0  0  0  0  0  0  0  0  0
   -1.7247    1.5233   -0.8271 H   0  0  0  0  0  0  0  0  0  0  0  0
   -3.4817    1.3339   -0.7862 H   0  0  0  0  0  0  0  0  0  0  0  0
   -2.6048    1.7570    0.6870 H   0  0  0  0  0  0  0  0  0  0  0  0
   -3.2258   -1.0124   -1.7794 H   0  0  0  0  0  0  0  0  0  0  0  0
   -1.4723   -0.7902   -1.8064 H   0  0  0  0  0  0  0  0  0  0  0  0
   -2.1747   -2.1863   -0.9822 H   0  0  0  0  0  0  0  0  0  0  0  0
  1  2  1  0  0  0  0
  2  3  1  0  0  0  0
  2  4  1  0  0  0  0
  2  5  1  0  0  0  0
  5  6  1  0  0  0  0
  6  7  1  0  0  0  0
  7  8  2  0  0  0  0
  7  9  1  0  0  0  0
  9 10  1  0  0  0  0
  9 11  1  0  0  0  0
  9 12  1  0  0  0  0
  1 13  1  0  0  0  0
  1 14  1  0  0  0  0
  1 15  1  0  0  0  0
  3 16  1  0  0  0  0
  3 17  1  0  0  0  0
  3 18  1  0  0  0  0
  4 19  1  0  0  0  0
  4 20  1  0  0  0  0
  4 21  1  0  0  0  0
  5 22  1  0  0  0  0
  5 23  1  0  0  0  0
 10 24  1  0  0  0  0
 10 25  1  0  0  0  0
 10 26  1  0  0  0  0
 11 27  1  0  0  0  0
 11 28  1  0  0  0  0
 11 29  1  0  0  0  0
 12 30  1  0  0  0  0
 12 31  1  0  0  0  0
 12 32  1  0  0  0  0
M  END
