 xtb: 6.7.1 (edcfbbe)
          07082609483D

 27 27  0     0  0            999 V2000
    4.9700   -0.1148    1.0829 C   0  0  0  0  0  0  0  0  0  0  0  0
    3.6189   -0.3532    1.7126 C   0  0  0  0  0  0  0  0  0  0  0  0
    3.4696   -0.5038    2.8972 O   0  0  0  0  0  0  0  0  0  0  0  0
    2.4717   -0.3860    0.7242 C   0  0  0  0  0  0  0  0  0  0  0  0
    1.1072   -0.2950    1.4133 C   0  0  0  0  0  0  0  0  0  0  0  0
   -0.0068   -0.4661    0.4358 C   0  0  0  0  0  0  0  0  0  0  0  0
   -0.9586    0.4399    0.2249 C   0  0  0  0  0  0  0  0  0  0  0  0
   -2.0746    0.3415   -0.7056 C   0  0  0  0  0  0  0  0  0  0  0  0
   -2.2170   -0.7014   -1.6225 C   0  0  0  0  0  0  0  0  0  0  0  0
   -3.2977   -0.7458   -2.4814 C   0  0  0  0  0  0  0  0  0  0  0  0
   -4.2624    0.2480   -2.4474 C   0  0  0  0  0  0  0  0  0  0  0  0
   -4.1347    1.2917   -1.5464 C   0  0  0  0  0  0  0  0  0  0  0  0
   -3.0530    1.3379   -0.6886 C   0  0  0  0  0  0  0  0  0  0  0  0
    5.7608   -0.3483    1.7907 H   0  0  0  0  0  0  0  0  0  0  0  0
    5.0462    0.9364    0.8089 H   0  0  0  0  0  0  0  0  0  0  0  0
    5.0869   -0.7094    0.1806 H   0  0  0  0  0  0  0  0  0  0  0  0
    2.5919    0.4226    0.0004 H   0  0  0  0  0  0  0  0  0  0  0  0
    2.5460   -1.3291    0.1742 H   0  0  0  0  0  0  0  0  0  0  0  0
    1.0228    0.6658    1.9237 H   0  0  0  0  0  0  0  0  0  0  0  0
    1.0571   -1.0803    2.1730 H   0  0  0  0  0  0  0  0  0  0  0  0
    0.0040   -1.3988   -0.1116 H   0  0  0  0  0  0  0  0  0  0  0  0
   -0.9361    1.3549    0.8059 H   0  0  0  0  0  0  0  0  0  0  0  0
   -1.4743   -1.4831   -1.6693 H   0  0  0  0  0  0  0  0  0  0  0  0
   -3.3896   -1.5612   -3.1846 H   0  0  0  0  0  0  0  0  0  0  0  0
   -5.1065    0.2095   -3.1200 H   0  0  0  0  0  0  0  0  0  0  0  0
   -4.8811    2.0723   -1.5135 H   0  0  0  0  0  0  0  0  0  0  0  0
   -2.9608    2.1558    0.0125 H   0  0  0  0  0  0  0  0  0  0  0  0
  1  2  1  0  0  0  0
  2  3  2  0  0  0  0
  2  4  1  0  0  0  0
  4  5  1  0  0  0  0
  5  6  1  0  0  0  0
  6  7  2  0  0  0  0
  7  8  1  0  0  0  0
  8  9  4  0  0  0  0
  9 10  4  0  0  0  0
 10 11  4  0  0  0  0
 11 12  4  0  0  0  0
  8 13  4  0  0  0  0
 12 13  4  0  0  0  0
  1 14  1  0  0  0  0
  1 15  1  0  0  0  0
  1 16  1  0  0  0  0
  4 17  1  0  0  0  0
  4 18  1  0  0  0  0
  5 19  1  0  0  0  0
  5 20  1  0  0  0  0
  6 21  1  0  0  0  0
  7 22  1  0  0  0  0
  9 23  1  0  0  0  0
 10 24  1  0  0  0  0
 11 25  1  0  0  0  0
 12 26  1  0  0  0  0
 13 27  1  0  0  0  0
M  END
