 xtb: 6.7.1 (edcfbbe)
          07072618343D

 53 53  0     0  0            999 V2000
   -7.9725    2.1393    1.8668 C   0  0  0  0  0  0  0  0  0  0  0  0
   -7.0981    1.6105    0.7667 C   0  0  0  0  0  0  0  0  0  0  0  0
   -7.8625    0.9948   -0.3674 C   0  0  0  0  0  0  0  0  0  0  0  0
   -5.7751    1.6973    0.8384 C   0  0  0  0  0  0  0  0  0  0  0  0
   -4.7746    1.1926   -0.1543 C   0  0  0  0  0  0  0  0  0  0  0  0
   -4.2361   -0.1864    0.2740 C   0  0  0  0  0  0  0  0  0  0  0  0
   -3.2378   -0.7030   -0.7193 C   0  0  0  0  0  0  0  0  0  0  0  0
   -3.7801   -1.2137   -2.0224 C   0  0  0  0  0  0  0  0  0  0  0  0
   -1.9331   -0.6720   -0.4734 C   0  0  0  0  0  0  0  0  0  0  0  0
   -0.8874   -1.1367   -1.4346 C   0  0  0  0  0  0  0  0  0  0  0  0
    0.3976   -0.8588   -0.8886 O   0  0  0  0  0  0  0  0  0  0  0  0
    1.4435   -1.3658   -1.5538 C   0  0  0  0  0  0  0  0  0  0  0  0
    1.3273   -2.0271   -2.5595 O   0  0  0  0  0  0  0  0  0  0  0  0
    2.7383   -1.0275   -0.9226 C   0  0  0  0  0  0  0  0  0  0  0  0
    2.8241   -0.2596    0.2354 C   0  0  0  0  0  0  0  0  0  0  0  0
    4.0572    0.0318    0.7798 C   0  0  0  0  0  0  0  0  0  0  0  0
    5.2409   -0.4242    0.1989 C   0  0  0  0  0  0  0  0  0  0  0  0
    6.5718   -0.0674    0.8405 C   0  0  0  0  0  0  0  0  0  0  0  0
    7.7692   -0.6429    0.0794 C   0  0  0  0  0  0  0  0  0  0  0  0
    6.7150    1.4611    0.8722 C   0  0  0  0  0  0  0  0  0  0  0  0
    6.6016   -0.6239    2.2712 C   0  0  0  0  0  0  0  0  0  0  0  0
    5.1405   -1.1923   -0.9568 C   0  0  0  0  0  0  0  0  0  0  0  0
    3.9104   -1.4907   -1.5106 C   0  0  0  0  0  0  0  0  0  0  0  0
   -8.6117    2.9380    1.4903 H   0  0  0  0  0  0  0  0  0  0  0  0
   -8.6209    1.3495    2.2454 H   0  0  0  0  0  0  0  0  0  0  0  0
   -7.3803    2.5289    2.6905 H   0  0  0  0  0  0  0  0  0  0  0  0
   -8.3442    0.0761   -0.0311 H   0  0  0  0  0  0  0  0  0  0  0  0
   -8.6463    1.6739   -0.7013 H   0  0  0  0  0  0  0  0  0  0  0  0
   -7.2273    0.7559   -1.2140 H   0  0  0  0  0  0  0  0  0  0  0  0
   -5.3378    2.1438    1.7229 H   0  0  0  0  0  0  0  0  0  0  0  0
   -3.9350    1.8891   -0.2097 H   0  0  0  0  0  0  0  0  0  0  0  0
   -5.2098    1.1152   -1.1504 H   0  0  0  0  0  0  0  0  0  0  0  0
   -3.7752   -0.0952    1.2587 H   0  0  0  0  0  0  0  0  0  0  0  0
   -5.0759   -0.8803    0.3534 H   0  0  0  0  0  0  0  0  0  0  0  0
   -3.4738   -0.5674   -2.8450 H   0  0  0  0  0  0  0  0  0  0  0  0
   -4.8655   -1.2590   -2.0027 H   0  0  0  0  0  0  0  0  0  0  0  0
   -3.3944   -2.2104   -2.2320 H   0  0  0  0  0  0  0  0  0  0  0  0
   -1.5500   -0.3008    0.4650 H   0  0  0  0  0  0  0  0  0  0  0  0
   -0.9796   -0.6300   -2.4056 H   0  0  0  0  0  0  0  0  0  0  0  0
   -0.9671   -2.2163   -1.6285 H   0  0  0  0  0  0  0  0  0  0  0  0
    1.9218    0.1053    0.7006 H   0  0  0  0  0  0  0  0  0  0  0  0
    4.0939    0.6295    1.6781 H   0  0  0  0  0  0  0  0  0  0  0  0
    7.8104   -0.2564   -0.9363 H   0  0  0  0  0  0  0  0  0  0  0  0
    8.6896   -0.3569    0.5843 H   0  0  0  0  0  0  0  0  0  0  0  0
    7.7284   -1.7291    0.0476 H   0  0  0  0  0  0  0  0  0  0  0  0
    7.6707    1.7374    1.3123 H   0  0  0  0  0  0  0  0  0  0  0  0
    6.6707    1.8636   -0.1376 H   0  0  0  0  0  0  0  0  0  0  0  0
    5.9250    1.9228    1.4578 H   0  0  0  0  0  0  0  0  0  0  0  0
    7.5564   -0.3963    2.7402 H   0  0  0  0  0  0  0  0  0  0  0  0
    5.8123   -0.1947    2.8818 H   0  0  0  0  0  0  0  0  0  0  0  0
    6.4728   -1.7042    2.2570 H   0  0  0  0  0  0  0  0  0  0  0  0
    6.0248   -1.5696   -1.4435 H   0  0  0  0  0  0  0  0  0  0  0  0
    3.8378   -2.0863   -2.4082 H   0  0  0  0  0  0  0  0  0  0  0  0
  1  2  1  0  0  0  0
  2  3  1  0  0  0  0
  2  4  2  0  0  0  0
  4  5  1  0  0  0  0
  5  6  1  0  0  0  0
  6  7  1  0  0  0  0
  7  8  1  0  0  0  0
  7  9  2  0  0  0  0
  9 10  1  0  0  0  0
 10 11  1  0  0  0  0
 11 12  1  0  0  0  0
 12 13  2  0  0  0  0
 12 14  1  0  0  0  0
 14 15  4  0  0  0  0
 15 16  4  0  0  0  0
 16 17  4  0  0  0  0
 17 18  1  0  0  0  0
 18 19  1  0  0  0  0
 18 20  1  0  0  0  0
 18 21  1  0  0  0  0
 17 22  4  0  0  0  0
 14 23  4  0  0  0  0
 22 23  4  0  0  0  0
  1 24  1  0  0  0  0
  1 25  1  0  0  0  0
  1 26  1  0  0  0  0
  3 27  1  0  0  0  0
  3 28  1  0  0  0  0
  3 29  1  0  0  0  0
  4 30  1  0  0  0  0
  5 31  1  0  0  0  0
  5 32  1  0  0  0  0
  6 33  1  0  0  0  0
  6 34  1  0  0  0  0
  8 35  1  0  0  0  0
  8 36  1  0  0  0  0
  8 37  1  0  0  0  0
  9 38  1  0  0  0  0
 10 39  1  0  0  0  0
 10 40  1  0  0  0  0
 15 41  1  0  0  0  0
 16 42  1  0  0  0  0
 19 43  1  0  0  0  0
 19 44  1  0  0  0  0
 19 45  1  0  0  0  0
 20 46  1  0  0  0  0
 20 47  1  0  0  0  0
 20 48  1  0  0  0  0
 21 49  1  0  0  0  0
 21 50  1  0  0  0  0
 21 51  1  0  0  0  0
 22 52  1  0  0  0  0
 23 53  1  0  0  0  0
M  END
