 xtb: 6.7.1 (edcfbbe)
          07092600223D

 22 22  0     0  0            999 V2000
    3.1733    0.9386    0.9021 C   0  0  0  0  0  0  0  0  0  0  0  0
    1.9314    0.0671    0.9889 C   0  0  0  0  0  0  0  0  0  0  0  0
    1.7813   -0.6234   -0.2339 O   0  0  0  0  0  0  0  0  0  0  0  0
    0.6417   -1.4501   -0.2756 C   0  0  0  0  0  0  0  0  0  0  0  0
   -0.6585   -0.6813   -0.2867 C   0  0  0  0  0  0  0  0  0  0  0  0
   -1.7303   -1.0659    0.5062 C   0  0  0  0  0  0  0  0  0  0  0  0
   -2.9141   -0.3487    0.4783 C   0  0  0  0  0  0  0  0  0  0  0  0
   -3.0326    0.7654   -0.3345 C   0  0  0  0  0  0  0  0  0  0  0  0
   -1.9643    1.1586   -1.1236 C   0  0  0  0  0  0  0  0  0  0  0  0
   -0.7853    0.4367   -1.1024 C   0  0  0  0  0  0  0  0  0  0  0  0
    4.0448    0.3214    0.7023 H   0  0  0  0  0  0  0  0  0  0  0  0
    3.0650    1.6549    0.0926 H   0  0  0  0  0  0  0  0  0  0  0  0
    3.3181    1.4733    1.8365 H   0  0  0  0  0  0  0  0  0  0  0  0
    1.0430    0.6863    1.1870 H   0  0  0  0  0  0  0  0  0  0  0  0
    2.0283   -0.6587    1.8133 H   0  0  0  0  0  0  0  0  0  0  0  0
    0.6515   -2.1568    0.5695 H   0  0  0  0  0  0  0  0  0  0  0  0
    0.7402   -2.0202   -1.2059 H   0  0  0  0  0  0  0  0  0  0  0  0
   -1.6388   -1.9318    1.1472 H   0  0  0  0  0  0  0  0  0  0  0  0
   -3.7436   -0.6574    1.0977 H   0  0  0  0  0  0  0  0  0  0  0  0
   -3.9548    1.3274   -0.3516 H   0  0  0  0  0  0  0  0  0  0  0  0
   -2.0518    2.0284   -1.7583 H   0  0  0  0  0  0  0  0  0  0  0  0
    0.0554    0.7361   -1.7110 H   0  0  0  0  0  0  0  0  0  0  0  0
  1  2  1  0  0  0  0
  2  3  1  0  0  0  0
  3  4  1  0  0  0  0
  4  5  1  0  0  0  0
  5  6  4  0  0  0  0
  6  7  4  0  0  0  0
  7  8  4  0  0  0  0
  8  9  4  0  0  0  0
  5 10  4  0  0  0  0
  9 10  4  0  0  0  0
  1 11  1  0  0  0  0
  1 12  1  0  0  0  0
  1 13  1  0  0  0  0
  2 14  1  0  0  0  0
  2 15  1  0  0  0  0
  4 16  1  0  0  0  0
  4 17  1  0  0  0  0
  6 18  1  0  0  0  0
  7 19  1  0  0  0  0
  8 20  1  0  0  0  0
  9 21  1  0  0  0  0
 10 22  1  0  0  0  0
M  END
