 xtb: 6.7.1 (edcfbbe)
          07082621013D

 25 24  0     0  0            999 V2000
    4.3118   -0.3060   -0.2535 C   0  0  0  0  0  0  0  0  0  0  0  0
    3.0267    0.3977    0.1649 C   0  0  0  0  0  0  0  0  0  0  0  0
    1.7871   -0.3375   -0.3389 C   0  0  0  0  0  0  0  0  0  0  0  0
    0.4940    0.3602    0.0755 C   0  0  0  0  0  0  0  0  0  0  0  0
   -0.7389   -0.3814   -0.4322 C   0  0  0  0  0  0  0  0  0  0  0  0
   -2.0343    0.3121   -0.0206 C   0  0  0  0  0  0  0  0  0  0  0  0
   -3.2660   -0.4147   -0.5187 C   0  0  0  0  0  0  0  0  0  0  0  0
   -4.5721    0.2397   -0.1325 C   0  0  0  0  0  0  0  0  0  0  0  0
   -3.2153   -1.4274   -1.1673 O   0  0  0  0  0  0  0  0  0  0  0  0
    5.1820    0.2326    0.1145 H   0  0  0  0  0  0  0  0  0  0  0  0
    4.3779   -0.3655   -1.3377 H   0  0  0  0  0  0  0  0  0  0  0  0
    4.3396   -1.3175    0.1458 H   0  0  0  0  0  0  0  0  0  0  0  0
    2.9885    0.4650    1.2547 H   0  0  0  0  0  0  0  0  0  0  0  0
    3.0267    1.4169   -0.2288 H   0  0  0  0  0  0  0  0  0  0  0  0
    1.7880   -1.3567    0.0543 H   0  0  0  0  0  0  0  0  0  0  0  0
    1.8263   -0.4052   -1.4285 H   0  0  0  0  0  0  0  0  0  0  0  0
    0.4931    1.3801   -0.3181 H   0  0  0  0  0  0  0  0  0  0  0  0
    0.4548    0.4279    1.1658 H   0  0  0  0  0  0  0  0  0  0  0  0
   -0.7052   -0.4518   -1.5209 H   0  0  0  0  0  0  0  0  0  0  0  0
   -0.7433   -1.4008   -0.0420 H   0  0  0  0  0  0  0  0  0  0  0  0
   -2.0577    1.3328   -0.4111 H   0  0  0  0  0  0  0  0  0  0  0  0
   -2.0959    0.3834    1.0684 H   0  0  0  0  0  0  0  0  0  0  0  0
   -5.4073   -0.3353   -0.5230 H   0  0  0  0  0  0  0  0  0  0  0  0
   -4.6494    0.3004    0.9506 H   0  0  0  0  0  0  0  0  0  0  0  0
   -4.6112    1.2510   -0.5308 H   0  0  0  0  0  0  0  0  0  0  0  0
  1  2  1  0  0  0  0
  2  3  1  0  0  0  0
  3  4  1  0  0  0  0
  4  5  1  0  0  0  0
  5  6  1  0  0  0  0
  6  7  1  0  0  0  0
  7  8  1  0  0  0  0
  7  9  2  0  0  0  0
  1 10  1  0  0  0  0
  1 11  1  0  0  0  0
  1 12  1  0  0  0  0
  2 13  1  0  0  0  0
  2 14  1  0  0  0  0
  3 15  1  0  0  0  0
  3 16  1  0  0  0  0
  4 17  1  0  0  0  0
  4 18  1  0  0  0  0
  5 19  1  0  0  0  0
  5 20  1  0  0  0  0
  6 21  1  0  0  0  0
  6 22  1  0  0  0  0
  8 23  1  0  0  0  0
  8 24  1  0  0  0  0
  8 25  1  0  0  0  0
M  END
