 xtb: 6.7.1 (edcfbbe)
          07082608283D

 23 23  0     0  0            999 V2000
   -2.4158    0.9053   -1.0555 C   0  0  0  0  0  0  0  0  0  0  0  0
   -1.7278   -0.4090   -0.6790 C   0  0  0  0  0  0  0  0  0  0  0  0
   -2.4060   -1.0498    0.5342 C   0  0  0  0  0  0  0  0  0  0  0  0
   -0.2604   -0.1874   -0.4155 C   0  0  0  0  0  0  0  0  0  0  0  0
    0.1660    0.6505    0.6124 C   0  0  0  0  0  0  0  0  0  0  0  0
    1.5095    0.8511    0.8508 C   0  0  0  0  0  0  0  0  0  0  0  0
    2.4671    0.2142    0.0616 C   0  0  0  0  0  0  0  0  0  0  0  0
    3.8960    0.4199    0.3058 C   0  0  0  0  0  0  0  0  0  0  0  0
    4.7941   -0.0848   -0.3205 O   0  0  0  0  0  0  0  0  0  0  0  0
    2.0449   -0.6261   -0.9693 C   0  0  0  0  0  0  0  0  0  0  0  0
    0.6992   -0.8206   -1.2002 C   0  0  0  0  0  0  0  0  0  0  0  0
   -2.3868    1.6100   -0.2283 H   0  0  0  0  0  0  0  0  0  0  0  0
   -1.9225    1.3600   -1.9117 H   0  0  0  0  0  0  0  0  0  0  0  0
   -3.4565    0.7218   -1.3128 H   0  0  0  0  0  0  0  0  0  0  0  0
   -1.8225   -1.0978   -1.5256 H   0  0  0  0  0  0  0  0  0  0  0  0
   -3.4465   -1.2705    0.3072 H   0  0  0  0  0  0  0  0  0  0  0  0
   -2.3768   -0.3836    1.3927 H   0  0  0  0  0  0  0  0  0  0  0  0
   -1.9057   -1.9778    0.8022 H   0  0  0  0  0  0  0  0  0  0  0  0
   -0.5615    1.1517    1.2332 H   0  0  0  0  0  0  0  0  0  0  0  0
    1.8276    1.5039    1.6517 H   0  0  0  0  0  0  0  0  0  0  0  0
    4.1086    1.1077    1.1503 H   0  0  0  0  0  0  0  0  0  0  0  0
    2.7931   -1.1150   -1.5752 H   0  0  0  0  0  0  0  0  0  0  0  0
    0.3828   -1.4736   -2.0013 H   0  0  0  0  0  0  0  0  0  0  0  0
  1  2  1  0  0  0  0
  2  3  1  0  0  0  0
  2  4  1  0  0  0  0
  4  5  4  0  0  0  0
  5  6  4  0  0  0  0
  6  7  4  0  0  0  0
  7  8  1  0  0  0  0
  8  9  2  0  0  0  0
  7 10  4  0  0  0  0
  4 11  4  0  0  0  0
 10 11  4  0  0  0  0
  1 12  1  0  0  0  0
  1 13  1  0  0  0  0
  1 14  1  0  0  0  0
  2 15  1  0  0  0  0
  3 16  1  0  0  0  0
  3 17  1  0  0  0  0
  3 18  1  0  0  0  0
  5 19  1  0  0  0  0
  6 20  1  0  0  0  0
  8 21  1  0  0  0  0
 10 22  1  0  0  0  0
 11 23  1  0  0  0  0
M  END
