 xtb: 6.7.1 (edcfbbe)
          07092603233D

 22 21  0     0  0            999 V2000
   -4.8049   -0.3039    0.8567 C   0  0  0  0  0  0  0  0  0  0  0  0
   -3.6166   -0.8724    0.7981 C   0  0  0  0  0  0  0  0  0  0  0  0
   -2.5602   -0.5002   -0.1903 C   0  0  0  0  0  0  0  0  0  0  0  0
   -1.3044   -0.4076    0.4912 O   0  0  0  0  0  0  0  0  0  0  0  0
   -0.2394   -0.1336   -0.2651 C   0  0  0  0  0  0  0  0  0  0  0  0
   -0.2909    0.0245   -1.4564 O   0  0  0  0  0  0  0  0  0  0  0  0
    1.0113   -0.0539    0.5769 C   0  0  0  0  0  0  0  0  0  0  0  0
    2.2208    0.3501   -0.2569 C   0  0  0  0  0  0  0  0  0  0  0  0
    3.3447    0.4153    0.5899 O   0  0  0  0  0  0  0  0  0  0  0  0
    4.5139    0.7992   -0.0846 C   0  0  0  0  0  0  0  0  0  0  0  0
   -5.5469   -0.6150    1.5710 H   0  0  0  0  0  0  0  0  0  0  0  0
   -5.0894    0.4886    0.1839 H   0  0  0  0  0  0  0  0  0  0  0  0
   -3.3361   -1.6628    1.4796 H   0  0  0  0  0  0  0  0  0  0  0  0
   -2.4747   -1.2664   -0.9736 H   0  0  0  0  0  0  0  0  0  0  0  0
   -2.7794    0.4560   -0.6777 H   0  0  0  0  0  0  0  0  0  0  0  0
    0.8539    0.6659    1.3815 H   0  0  0  0  0  0  0  0  0  0  0  0
    1.1885   -1.0253    1.0418 H   0  0  0  0  0  0  0  0  0  0  0  0
    2.3852   -0.3839   -1.0602 H   0  0  0  0  0  0  0  0  0  0  0  0
    2.0392    1.3267   -0.7308 H   0  0  0  0  0  0  0  0  0  0  0  0
    4.4075    1.7962   -0.5303 H   0  0  0  0  0  0  0  0  0  0  0  0
    5.3101    0.8156    0.6567 H   0  0  0  0  0  0  0  0  0  0  0  0
    4.7677    0.0868   -0.8796 H   0  0  0  0  0  0  0  0  0  0  0  0
  1  2  2  0  0  0  0
  2  3  1  0  0  0  0
  3  4  1  0  0  0  0
  4  5  1  0  0  0  0
  5  6  2  0  0  0  0
  5  7  1  0  0  0  0
  7  8  1  0  0  0  0
  8  9  1  0  0  0  0
  9 10  1  0  0  0  0
  1 11  1  0  0  0  0
  1 12  1  0  0  0  0
  2 13  1  0  0  0  0
  3 14  1  0  0  0  0
  3 15  1  0  0  0  0
  7 16  1  0  0  0  0
  7 17  1  0  0  0  0
  8 18  1  0  0  0  0
  8 19  1  0  0  0  0
 10 20  1  0  0  0  0
 10 21  1  0  0  0  0
 10 22  1  0  0  0  0
M  END
