 xtb: 6.7.1 (edcfbbe)
          07082610513D

 34 33  0     0  0            999 V2000
   -5.8351    0.5492   -0.3459 C   0  0  0  0  0  0  0  0  0  0  0  0
   -4.5644   -0.2913   -0.3252 C   0  0  0  0  0  0  0  0  0  0  0  0
   -3.3639    0.5084    0.1762 C   0  0  0  0  0  0  0  0  0  0  0  0
   -2.0906   -0.3339    0.2078 C   0  0  0  0  0  0  0  0  0  0  0  0
   -0.8951    0.4761    0.7199 C   0  0  0  0  0  0  0  0  0  0  0  0
    0.3515   -0.3752    0.8421 C   0  0  0  0  0  0  0  0  0  0  0  0
    0.8666   -0.6032    1.9073 O   0  0  0  0  0  0  0  0  0  0  0  0
    0.8793   -0.9425   -0.4605 C   0  0  0  0  0  0  0  0  0  0  0  0
    2.3818   -1.2177   -0.4058 C   0  0  0  0  0  0  0  0  0  0  0  0
    3.1939    0.0750   -0.3924 C   0  0  0  0  0  0  0  0  0  0  0  0
    4.6949   -0.1959   -0.3322 C   0  0  0  0  0  0  0  0  0  0  0  0
    5.5029    1.0955   -0.3033 C   0  0  0  0  0  0  0  0  0  0  0  0
   -6.0682    0.9123    0.6526 H   0  0  0  0  0  0  0  0  0  0  0  0
   -5.7143    1.4083   -1.0023 H   0  0  0  0  0  0  0  0  0  0  0  0
   -6.6773   -0.0392   -0.7022 H   0  0  0  0  0  0  0  0  0  0  0  0
   -4.3574   -0.6613   -1.3321 H   0  0  0  0  0  0  0  0  0  0  0  0
   -4.7139   -1.1590    0.3213 H   0  0  0  0  0  0  0  0  0  0  0  0
   -3.5758    0.8821    1.1803 H   0  0  0  0  0  0  0  0  0  0  0  0
   -3.2101    1.3736   -0.4733 H   0  0  0  0  0  0  0  0  0  0  0  0
   -1.8828   -0.7078   -0.7966 H   0  0  0  0  0  0  0  0  0  0  0  0
   -2.2441   -1.1954    0.8617 H   0  0  0  0  0  0  0  0  0  0  0  0
   -1.1290    0.8873    1.7038 H   0  0  0  0  0  0  0  0  0  0  0  0
   -0.6948    1.3030    0.0349 H   0  0  0  0  0  0  0  0  0  0  0  0
    0.3454   -1.8829   -0.6266 H   0  0  0  0  0  0  0  0  0  0  0  0
    0.6396   -0.2710   -1.2861 H   0  0  0  0  0  0  0  0  0  0  0  0
    2.5983   -1.7874    0.4994 H   0  0  0  0  0  0  0  0  0  0  0  0
    2.6724   -1.8221   -1.2679 H   0  0  0  0  0  0  0  0  0  0  0  0
    2.9684    0.6574   -1.2902 H   0  0  0  0  0  0  0  0  0  0  0  0
    2.9015    0.6706    0.4750 H   0  0  0  0  0  0  0  0  0  0  0  0
    4.9903   -0.7904   -1.2004 H   0  0  0  0  0  0  0  0  0  0  0  0
    4.9165   -0.7821    0.5620 H   0  0  0  0  0  0  0  0  0  0  0  0
    6.5680    0.8806   -0.2583 H   0  0  0  0  0  0  0  0  0  0  0  0
    5.3099    1.6880   -1.1954 H   0  0  0  0  0  0  0  0  0  0  0  0
    5.2357    1.6910    0.5669 H   0  0  0  0  0  0  0  0  0  0  0  0
  1  2  1  0  0  0  0
  2  3  1  0  0  0  0
  3  4  1  0  0  0  0
  4  5  1  0  0  0  0
  5  6  1  0  0  0  0
  6  7  2  0  0  0  0
  6  8  1  0  0  0  0
  8  9  1  0  0  0  0
  9 10  1  0  0  0  0
 10 11  1  0  0  0  0
 11 12  1  0  0  0  0
  1 13  1  0  0  0  0
  1 14  1  0  0  0  0
  1 15  1  0  0  0  0
  2 16  1  0  0  0  0
  2 17  1  0  0  0  0
  3 18  1  0  0  0  0
  3 19  1  0  0  0  0
  4 20  1  0  0  0  0
  4 21  1  0  0  0  0
  5 22  1  0  0  0  0
  5 23  1  0  0  0  0
  8 24  1  0  0  0  0
  8 25  1  0  0  0  0
  9 26  1  0  0  0  0
  9 27  1  0  0  0  0
 10 28  1  0  0  0  0
 10 29  1  0  0  0  0
 11 30  1  0  0  0  0
 11 31  1  0  0  0  0
 12 32  1  0  0  0  0
 12 33  1  0  0  0  0
 12 34  1  0  0  0  0
M  END
