 xtb: 6.7.1 (edcfbbe)
          07092621433D

 30 29  0     0  0            999 V2000
    3.6819    1.4537   -2.4751 C   0  0  0  0  0  0  0  0  0  0  0  0
    2.7824    0.5125   -2.2631 C   0  0  0  0  0  0  0  0  0  0  0  0
    2.4005    0.0102   -0.9096 C   0  0  0  0  0  0  0  0  0  0  0  0
    0.9755   -0.0856   -0.8395 O   0  0  0  0  0  0  0  0  0  0  0  0
    0.4698   -0.6501    0.2611 C   0  0  0  0  0  0  0  0  0  0  0  0
    1.1473   -1.0765    1.1595 O   0  0  0  0  0  0  0  0  0  0  0  0
   -1.0448   -0.6690    0.2228 C   0  0  0  0  0  0  0  0  0  0  0  0
   -1.5330   -2.1125    0.3908 C   0  0  0  0  0  0  0  0  0  0  0  0
   -1.1036   -2.9987   -0.7721 C   0  0  0  0  0  0  0  0  0  0  0  0
   -1.5728    0.2313    1.3471 C   0  0  0  0  0  0  0  0  0  0  0  0
   -1.1721    1.6928    1.1579 C   0  0  0  0  0  0  0  0  0  0  0  0
   -1.7589    2.5796    2.2492 C   0  0  0  0  0  0  0  0  0  0  0  0
    3.9431    1.7749   -3.4682 H   0  0  0  0  0  0  0  0  0  0  0  0
    4.2039    1.9327   -1.6632 H   0  0  0  0  0  0  0  0  0  0  0  0
    2.2590    0.0397   -3.0820 H   0  0  0  0  0  0  0  0  0  0  0  0
    2.8248   -0.9880   -0.7309 H   0  0  0  0  0  0  0  0  0  0  0  0
    2.7594    0.6743   -0.1155 H   0  0  0  0  0  0  0  0  0  0  0  0
   -1.3643   -0.2759   -0.7467 H   0  0  0  0  0  0  0  0  0  0  0  0
   -1.1271   -2.5095    1.3230 H   0  0  0  0  0  0  0  0  0  0  0  0
   -2.6224   -2.1096    0.4664 H   0  0  0  0  0  0  0  0  0  0  0  0
   -1.4737   -2.6016   -1.7153 H   0  0  0  0  0  0  0  0  0  0  0  0
   -0.0189   -3.0586   -0.8264 H   0  0  0  0  0  0  0  0  0  0  0  0
   -1.4944   -4.0056   -0.6455 H   0  0  0  0  0  0  0  0  0  0  0  0
   -2.6622    0.1555    1.3773 H   0  0  0  0  0  0  0  0  0  0  0  0
   -1.1811   -0.1338    2.2988 H   0  0  0  0  0  0  0  0  0  0  0  0
   -0.0832    1.7754    1.1723 H   0  0  0  0  0  0  0  0  0  0  0  0
   -1.5168    2.0399    0.1808 H   0  0  0  0  0  0  0  0  0  0  0  0
   -2.8456    2.5288    2.2390 H   0  0  0  0  0  0  0  0  0  0  0  0
   -1.4104    2.2584    3.2281 H   0  0  0  0  0  0  0  0  0  0  0  0
   -1.4622    3.6152    2.1016 H   0  0  0  0  0  0  0  0  0  0  0  0
  1  2  2  0  0  0  0
  2  3  1  0  0  0  0
  3  4  1  0  0  0  0
  4  5  1  0  0  0  0
  5  6  2  0  0  0  0
  5  7  1  0  0  0  0
  7  8  1  0  0  0  0
  8  9  1  0  0  0  0
  7 10  1  0  0  0  0
 10 11  1  0  0  0  0
 11 12  1  0  0  0  0
  1 13  1  0  0  0  0
  1 14  1  0  0  0  0
  2 15  1  0  0  0  0
  3 16  1  0  0  0  0
  3 17  1  0  0  0  0
  7 18  1  0  0  0  0
  8 19  1  0  0  0  0
  8 20  1  0  0  0  0
  9 21  1  0  0  0  0
  9 22  1  0  0  0  0
  9 23  1  0  0  0  0
 10 24  1  0  0  0  0
 10 25  1  0  0  0  0
 11 26  1  0  0  0  0
 11 27  1  0  0  0  0
 12 28  1  0  0  0  0
 12 29  1  0  0  0  0
 12 30  1  0  0  0  0
M  END
