 xtb: 6.7.1 (edcfbbe)
          07092608233D

 27 26  0     0  0            999 V2000
   -3.0795    1.5883   -0.4515 C   0  0  0  0  0  0  0  0  0  0  0  0
   -2.7675    0.2416    0.1890 C   0  0  0  0  0  0  0  0  0  0  0  0
   -1.3876   -0.2701   -0.2166 C   0  0  0  0  0  0  0  0  0  0  0  0
   -1.0625   -1.6104    0.4395 C   0  0  0  0  0  0  0  0  0  0  0  0
    0.2847   -2.1668   -0.0125 C   0  0  0  0  0  0  0  0  0  0  0  0
    1.3556   -1.3296    0.4375 O   0  0  0  0  0  0  0  0  0  0  0  0
    1.9952   -0.5981   -0.4611 C   0  0  0  0  0  0  0  0  0  0  0  0
    1.7948   -0.6037   -1.6511 O   0  0  0  0  0  0  0  0  0  0  0  0
    3.0391    0.3145    0.1726 C   0  0  0  0  0  0  0  0  0  0  0  0
    2.3057    1.4674    0.8759 C   0  0  0  0  0  0  0  0  0  0  0  0
    3.9131    0.7794   -0.8173 O   0  0  0  0  0  0  0  0  0  0  0  0
   -2.3500    2.3349   -0.1453 H   0  0  0  0  0  0  0  0  0  0  0  0
   -4.0675    1.9331   -0.1561 H   0  0  0  0  0  0  0  0  0  0  0  0
   -3.0530    1.5097   -1.5360 H   0  0  0  0  0  0  0  0  0  0  0  0
   -2.8122    0.3372    1.2763 H   0  0  0  0  0  0  0  0  0  0  0  0
   -3.5241   -0.4872   -0.1104 H   0  0  0  0  0  0  0  0  0  0  0  0
   -1.3448   -0.3788   -1.3027 H   0  0  0  0  0  0  0  0  0  0  0  0
   -0.6348    0.4669    0.0720 H   0  0  0  0  0  0  0  0  0  0  0  0
   -1.8301   -2.3428    0.1827 H   0  0  0  0  0  0  0  0  0  0  0  0
   -1.0510   -1.4954    1.5252 H   0  0  0  0  0  0  0  0  0  0  0  0
    0.3290   -2.2373   -1.1038 H   0  0  0  0  0  0  0  0  0  0  0  0
    0.4639   -3.1502    0.4298 H   0  0  0  0  0  0  0  0  0  0  0  0
    3.6239   -0.2508    0.9070 H   0  0  0  0  0  0  0  0  0  0  0  0
    1.6722    1.0781    1.6678 H   0  0  0  0  0  0  0  0  0  0  0  0
    3.0384    2.1485    1.2996 H   0  0  0  0  0  0  0  0  0  0  0  0
    1.6986    2.0148    0.1572 H   0  0  0  0  0  0  0  0  0  0  0  0
    3.4505    0.7067   -1.6676 H   0  0  0  0  0  0  0  0  0  0  0  0
  1  2  1  0  0  0  0
  2  3  1  0  0  0  0
  3  4  1  0  0  0  0
  4  5  1  0  0  0  0
  5  6  1  0  0  0  0
  6  7  1  0  0  0  0
  7  8  2  0  0  0  0
  7  9  1  0  0  0  0
  9 10  1  0  0  0  0
  9 11  1  0  0  0  0
  1 12  1  0  0  0  0
  1 13  1  0  0  0  0
  1 14  1  0  0  0  0
  2 15  1  0  0  0  0
  2 16  1  0  0  0  0
  3 17  1  0  0  0  0
  3 18  1  0  0  0  0
  4 19  1  0  0  0  0
  4 20  1  0  0  0  0
  5 21  1  0  0  0  0
  5 22  1  0  0  0  0
  9 23  1  0  0  0  0
 10 24  1  0  0  0  0
 10 25  1  0  0  0  0
 10 26  1  0  0  0  0
 11 27  1  0  0  0  0
M  END
