 xtb: 6.7.1 (edcfbbe)
          07082618043D

 15 14  0     0  0            999 V2000
    2.0813    0.3943    0.7395 C   0  0  0  0  0  0  0  0  0  0  0  0
    0.9431   -0.5777    0.6693 C   0  0  0  0  0  0  0  0  0  0  0  0
    0.6305   -1.3281    1.5566 O   0  0  0  0  0  0  0  0  0  0  0  0
    0.1422   -0.4952   -0.6243 C   0  0  0  0  0  0  0  0  0  0  0  0
   -0.9341    0.5469   -0.3464 C   0  0  0  0  0  0  0  0  0  0  0  0
   -2.1884   -0.0213    0.2443 C   0  0  0  0  0  0  0  0  0  0  0  0
   -0.7423    1.7183   -0.5443 O   0  0  0  0  0  0  0  0  0  0  0  0
    1.7217    1.3833    0.4589 H   0  0  0  0  0  0  0  0  0  0  0  0
    2.8538    0.1034    0.0297 H   0  0  0  0  0  0  0  0  0  0  0  0
    2.5036    0.4168    1.7405 H   0  0  0  0  0  0  0  0  0  0  0  0
    0.7756   -0.1593   -1.4429 H   0  0  0  0  0  0  0  0  0  0  0  0
   -0.3101   -1.4615   -0.8380 H   0  0  0  0  0  0  0  0  0  0  0  0
   -2.7055   -0.6198   -0.5036 H   0  0  0  0  0  0  0  0  0  0  0  0
   -2.8457    0.7745    0.5841 H   0  0  0  0  0  0  0  0  0  0  0  0
   -1.9257   -0.6746    1.0750 H   0  0  0  0  0  0  0  0  0  0  0  0
  1  2  1  0  0  0  0
  2  3  2  0  0  0  0
  2  4  1  0  0  0  0
  4  5  1  0  0  0  0
  5  6  1  0  0  0  0
  5  7  2  0  0  0  0
  1  8  1  0  0  0  0
  1  9  1  0  0  0  0
  1 10  1  0  0  0  0
  4 11  1  0  0  0  0
  4 12  1  0  0  0  0
  6 13  1  0  0  0  0
  6 14  1  0  0  0  0
  6 15  1  0  0  0  0
M  END
